data_POSCAR
  _audit_creation_date              2014-09-24
  _audit_creation_method            'ToBaCCo'
  _symmetry_space_group_name_H-M    'P1'
  _symmetry_Int_Tables_number       1
  _symmetry_cell_setting            triclinic
  loop_
  _symmetry_equiv_pos_as_xyz
 x,y,z
_cell_length_a 50.3551
_cell_length_b 28.9544
_cell_length_c 21.3184
_cell_angle_alpha 89.993500
_cell_angle_beta 89.897100
_cell_angle_gamma 89.868800
loop_
  _atom_site_label
  _atom_site_type_symbol
  _atom_site_fract_x
  _atom_site_fract_y
  _atom_site_fract_z
C1 C 0.68820 0.31458 0.49927
 C2 C 0.69807 0.29743 0.55569
 C3 C 0.72152 0.27124 0.55608
 C4 C 0.73615 0.26391 0.49995
 C5 C 0.72589 0.28280 0.44357
 C6 C 0.70176 0.30681 0.44334
 C7 C 0.76178 0.23696 0.50012
 C8 C 0.77225 0.21771 0.44397
 C9 C 0.79651 0.19395 0.44425
 C10 C 0.80990 0.18688 0.50053
 C11 C 0.79976 0.20430 0.55647
 C12 C 0.77627 0.23018 0.55640
 H13 H 0.66976 0.33408 0.49865
 H14 H 0.72787 0.25663 0.60022
 H15 H 0.73638 0.27958 0.39956
 H16 H 0.76180 0.22050 0.39991
 H17 H 0.82844 0.16767 0.50090
 H18 H 0.76981 0.24497 0.60037
 C19 C 0.18666 0.81199 0.50078
 C20 C 0.19710 0.79632 0.55747
 C21 C 0.22059 0.77026 0.55806
 C22 C 0.23483 0.76162 0.50180
 C23 C 0.22409 0.77921 0.44510
 C24 C 0.19986 0.80303 0.44467
 C25 C 0.26058 0.73479 0.50214
 C26 C 0.27111 0.71577 0.44594
 C27 C 0.29544 0.69238 0.44598
 C28 C 0.30892 0.68517 0.50198
 C29 C 0.29882 0.70222 0.55824
 C30 C 0.27517 0.72791 0.55843
 H31 H 0.16821 0.83151 0.50025
 H32 H 0.22733 0.75701 0.60264
 H33 H 0.23423 0.77520 0.40080
 H34 H 0.26079 0.71849 0.40179
 H35 H 0.32756 0.66625 0.50155
 H36 H 0.26871 0.74253 0.60249
 C37 C 0.30920 0.31287 -0.49874
 C38 C 0.29576 0.30552 -0.55477
 C39 C 0.27160 0.28172 -0.55471
 C40 C 0.26125 0.26269 -0.49835
 C41 C 0.27580 0.26973 -0.44222
 C42 C 0.29921 0.29567 -0.44257
 C43 C 0.23571 0.23570 -0.49813
 C44 C 0.22120 0.22844 -0.44181
 C45 C 0.19786 0.20217 -0.44187
 C46 C 0.18790 0.18502 -0.49815
 C47 C 0.20132 0.19276 -0.55425
 C48 C 0.22540 0.21671 -0.55434
 H49 H 0.32767 0.33213 -0.49887
 H50 H 0.26118 0.27876 -0.59874
 H51 H 0.26946 0.25512 -0.39808
 H52 H 0.22757 0.24319 -0.39780
 H53 H 0.16949 0.16558 -0.49855
 H54 H 0.23579 0.21985 -0.59847
 C55 C -0.19049 0.81405 -0.50076
 C56 C -0.20377 0.80713 -0.55716
 C57 C -0.22816 0.78400 -0.55774
 C58 C -0.23891 0.76509 -0.50175
 C59 C -0.22451 0.77172 -0.44519
 C60 C -0.20086 0.79707 -0.44485
 C61 C -0.26474 0.73869 -0.50246
 C62 C -0.27911 0.73030 -0.44635
 C63 C -0.30260 0.70456 -0.44710
 C64 C -0.31298 0.68895 -0.50376
 C65 C -0.29969 0.69768 -0.55981
 C66 C -0.27542 0.72122 -0.55925
 H67 H -0.17183 0.83275 -0.50029
 H68 H -0.23842 0.78144 -0.60202
 H69 H -0.23110 0.75724 -0.40120
 H70 H -0.27250 0.74345 -0.40166
 H71 H -0.33144 0.66966 -0.50419
 H72 H -0.26519 0.72509 -0.60345
 O73 O -0.03698 0.91996 0.11827
 O74 O -0.06669 0.95987 0.05702
 C75 C -0.06089 0.93161 0.10205
 O76 O 0.03619 1.08213 0.11399
 O77 O 0.06580 1.03952 0.05557
 C78 C 0.06008 1.06992 0.09802
 O79 O -0.03815 1.07730 0.11891
 O80 O -0.06725 1.03629 0.05771
 C81 C -0.06187 1.06477 0.10272
 O82 O 0.03734 0.91598 0.11128
 O83 O 0.06634 0.96052 0.05415
 C84 C 0.06108 0.92907 0.09547
 Zr85 Zr -0.00009 0.94007 0.07912
 O86 O 0.00097 0.93159 0.17758
 O87 O -0.00073 0.86771 0.06657
 Zr88 Zr -0.00089 1.05722 0.08140
 O89 O 0.00147 1.05854 0.18051
 O90 O -0.00423 1.13013 0.07851
 O91 O -0.02398 0.99818 0.09268
 O92 O 0.02239 0.99891 0.09208
 O93 O 0.03733 0.91710 -0.10970
 O94 O 0.06633 0.96112 -0.05212
 C95 C 0.06104 0.93000 -0.09385
 O96 O -0.03780 1.07944 -0.11303
 O97 O -0.06716 1.03742 -0.05354
 C98 C -0.06157 1.06692 -0.09729
 O99 O 0.03622 1.08443 -0.10754
 O100 O 0.06588 1.04084 -0.05095
 C101 C 0.06011 1.07221 -0.09209
 O102 O -0.03681 0.92003 -0.11542
 O103 O -0.06667 0.96025 -0.05473
 C104 C -0.06075 0.93163 -0.09938
 Zr105 Zr -0.00001 0.94160 -0.07798
 O106 O 0.00287 0.94046 -0.17704
 O107 O -0.00214 0.86858 -0.07549
 Zr108 Zr -0.00076 1.05862 -0.07607
 O109 O 0.00210 1.06221 -0.17501
 O110 O -0.00424 1.13143 -0.07073
 Zr111 Zr -0.04031 0.99878 0.00152
 Zr112 Zr 0.03924 1.00014 0.00166
 O113 O 0.02254 1.00057 -0.08879
 O114 O -0.02396 0.99985 -0.08964
 O115 O 0.02399 0.93238 0.00052
 O116 O -0.02426 1.06583 0.00277
 O117 O -0.02352 0.93216 0.00059
 O118 O 0.02305 1.06737 0.00283
 H119 H 0.03402 0.99876 0.12949
 H120 H -0.03662 1.09250 0.00323
 H121 H 0.03426 1.00102 -0.12616
 H122 H -0.03563 0.90523 0.00047
 H123 H 0.01218 1.14234 0.05912
 H124 H 0.01192 1.14332 -0.04999
 H125 H -0.01070 1.03977 -0.19238
 H126 H -0.01068 0.96202 -0.19352
 H127 H 0.01306 0.85732 -0.05036
 H128 H -0.00117 0.85428 0.10929
 H129 H 0.00265 0.96277 0.19585
 H130 H -0.01190 1.03657 0.19678
 O131 O 0.46238 0.42335 0.11873
 O132 O 0.43297 0.46357 0.05705
 C133 C 0.43856 0.43549 0.10247
 O134 O 0.53740 0.58355 0.10993
 O135 O 0.56637 0.53919 0.05217
 C136 C 0.56113 0.57053 0.09369
 O137 O 0.46294 0.58071 0.11635
 O138 O 0.43329 0.53999 0.05622
 C139 C 0.43906 0.56866 0.10071
 O140 O 0.53653 0.41733 0.11174
 O141 O 0.56593 0.46002 0.05313
 C142 C 0.56036 0.42956 0.09557
 Zr143 Zr 0.49940 0.44206 0.07899
 O144 O 0.50024 0.43476 0.17767
 O145 O 0.49813 0.36960 0.06793
 Zr146 Zr 0.49991 0.55919 0.07867
 O147 O 0.50258 0.56139 0.17772
 O148 O 0.49734 0.63215 0.07445
 O149 O 0.47618 0.50107 0.09149
 O150 O 0.52257 0.50031 0.09035
 O151 O 0.53616 0.41558 -0.10973
 O152 O 0.56583 0.45920 -0.05351
 C153 C 0.56005 0.42785 -0.09461
 O154 O 0.46282 0.58024 -0.11601
 O155 O 0.43314 0.53991 -0.05525
 C156 C 0.43893 0.56867 -0.09977
 O157 O 0.53704 0.58302 -0.11098
 O158 O 0.56625 0.53895 -0.05374
 C159 C 0.56081 0.57013 -0.09534
 O160 O 0.46213 0.42081 -0.11451
 O161 O 0.43280 0.46277 -0.05457
 C162 C 0.43836 0.43335 -0.09849
 Zr163 Zr 0.49921 0.44170 -0.07811
 O164 O 0.50191 0.43932 -0.17716
 O165 O 0.49623 0.36881 -0.07396
 Zr166 Zr 0.49974 0.55873 -0.07884
 O167 O 0.50240 0.56105 -0.17787
 O168 O 0.49705 0.63169 -0.07494
 Zr169 Zr 0.45968 0.50111 0.00050
 Zr170 Zr 0.53925 0.49981 -0.00023
 O171 O 0.52238 0.49978 -0.09052
 O172 O 0.47588 0.50057 -0.09084
 O173 O 0.52326 0.43259 0.00034
 O174 O 0.47646 0.56763 0.00011
 O175 O 0.47576 0.43396 0.00089
 O176 O 0.52378 0.56757 -0.00039
 H177 H 0.53429 0.50044 0.12759
 H178 H 0.46435 0.59465 0.00018
 H179 H 0.53404 0.49944 -0.12800
 H180 H 0.46338 0.40739 0.00150
 H181 H 0.51369 0.64357 0.05391
 H182 H 0.51349 0.64329 -0.05512
 H183 H 0.48951 0.53848 -0.19452
 H184 H 0.48841 0.46082 -0.19402
 H185 H 0.51140 0.35731 -0.04890
 H186 H 0.49746 0.35664 0.11090
 H187 H 0.50396 0.46563 0.19522
 H188 H 0.48924 0.53957 0.19455
 C189 C 0.37860 0.38835 0.21488
 C190 C 0.35766 0.35996 0.19324
 C191 C 0.33806 0.34378 0.23607
 C192 C 0.33945 0.35636 0.30012
 C193 C 0.36016 0.38542 0.32152
 C194 C 0.37989 0.40113 0.27893
 C195 C 0.40086 0.42888 0.30196
 C196 C 0.40235 0.44052 0.36524
 C197 C 0.38284 0.42583 0.40672
 C198 C 0.36192 0.39872 0.38538
 C199 C 0.31760 0.31483 0.21364
 C200 C 0.31649 0.30220 0.15059
 C201 C 0.33560 0.31809 0.10869
 C202 C 0.35599 0.34670 0.12951
 C203 C 0.32104 0.33717 0.34570
 C204 C 0.30798 0.32211 0.38849
 C205 C 0.39921 0.40389 0.17208
 C206 C 0.41693 0.41773 0.13897
 H207 H 0.41646 0.44151 0.27156
 H208 H 0.41879 0.46093 0.38224
 H209 H 0.38397 0.43527 0.45578
 H210 H 0.34726 0.38822 0.41962
 H211 H 0.30231 0.30169 0.24458
 H212 H 0.30073 0.27992 0.13416
 H213 H 0.33468 0.30810 0.05982
 H214 H 0.37044 0.35813 0.09526
 C215 C -0.12076 0.88494 0.21466
 C216 C -0.14190 0.85682 0.19350
 C217 C -0.16167 0.84166 0.23655
 C218 C -0.16026 0.85505 0.30028
 C219 C -0.13937 0.88391 0.32116
 C220 C -0.11943 0.89849 0.27839
 C221 C -0.09824 0.92595 0.30093
 C222 C -0.09677 0.93847 0.36391
 C223 C -0.11652 0.92501 0.40552
 C224 C -0.13763 0.89814 0.38466
 C225 C -0.18234 0.81294 0.21466
 C226 C -0.18350 0.79960 0.15188
 C227 C -0.16423 0.81452 0.10974
 C228 C -0.14362 0.84284 0.13006
 C229 C -0.17878 0.83675 0.34620
 C230 C -0.19189 0.82235 0.38930
 C231 C -0.10012 0.89981 0.17161
 C232 C -0.08240 0.91348 0.13844
 H233 H -0.08246 0.93769 0.27041
 H234 H -0.08016 0.95863 0.38053
 H235 H -0.11542 0.93522 0.45430
 H236 H -0.15248 0.88861 0.41897
 H237 H -0.19777 0.80058 0.24579
 H238 H -0.19943 0.77753 0.13584
 H239 H -0.16520 0.80401 0.06107
 H240 H -0.12903 0.85351 0.09565
 C241 C 0.62331 0.62241 0.19444
 C242 C 0.64056 0.59072 0.22453
 C243 C 0.65913 0.60679 0.26963
 C244 C 0.66062 0.65451 0.28363
 C245 C 0.64483 0.68649 0.24989
 C246 C 0.62608 0.67037 0.20524
 C247 C 0.61022 0.70289 0.17279
 C248 C 0.61292 0.75008 0.18386
 C249 C 0.63128 0.76586 0.22747
 C250 C 0.64706 0.73457 0.26039
 C251 C 0.67568 0.57438 0.30037
 C252 C 0.67434 0.52751 0.28591
 C253 C 0.65654 0.51193 0.24093
 C254 C 0.63956 0.54291 0.21099
 C255 C 0.67651 0.67017 0.33629
 C256 C 0.68828 0.68285 0.38238
 C257 C 0.60161 0.60541 0.15608
 C258 C 0.58317 0.59035 0.12648
 H259 H 0.59576 0.69222 0.13822
 H260 H 0.60072 0.77451 0.15841
 H261 H 0.63333 0.80255 0.23582
 H262 H 0.66112 0.74845 0.29371
 H263 H 0.69001 0.58498 0.33525
 H264 H 0.68729 0.50319 0.30943
 H265 H 0.65594 0.47565 0.22909
 H266 H 0.62594 0.52909 0.17659
 C267 C 0.12023 1.11536 0.20972
 C268 C 0.12114 1.09494 0.27007
 C269 C 0.14078 1.10904 0.31371
 C270 C 0.15914 1.14398 0.29712
 C271 C 0.15881 1.16326 0.23614
 C272 C 0.13932 1.14877 0.19216
 C273 C 0.13929 1.16856 0.13149
 C274 C 0.15802 1.20174 0.11471
 C275 C 0.17701 1.21603 0.15780
 C276 C 0.17746 1.19717 0.21797
 C277 C 0.14143 1.08787 0.37363
 C278 C 0.12323 1.05372 0.38988
 C279 C 0.10398 1.04000 0.34724
 C280 C 0.10280 1.06031 0.28805
 C281 C 0.17669 1.16219 0.34495
 C282 C 0.18925 1.17660 0.38880
 C283 C 0.09944 1.10186 0.16647
 C284 C 0.08164 1.08865 0.13341
 H285 H 0.12486 1.15857 0.09650
 H286 H 0.15776 1.21649 0.06804
 H287 H 0.19147 1.24187 0.14454
 H288 H 0.19262 1.20921 0.24993
 H289 H 0.15607 1.09720 0.40845
 H290 H 0.12408 1.03788 0.43584
 H291 H 0.08987 1.01345 0.36006
 H292 H 0.08749 1.04828 0.25653
 C293 C 0.61692 0.37296 -0.20894
 C294 C 0.64001 0.34905 -0.18937
 C295 C 0.65799 0.33104 -0.23485
 C296 C 0.65275 0.33717 -0.29954
 C297 C 0.62972 0.36146 -0.31905
 C298 C 0.61176 0.37933 -0.27367
 C299 C 0.58883 0.40330 -0.29444
 C300 C 0.58380 0.40943 -0.35812
 C301 C 0.60144 0.39223 -0.40251
 C302 C 0.62411 0.36844 -0.38350
 C303 C 0.68092 0.30724 -0.21424
 C304 C 0.68600 0.30149 -0.15043
 C305 C 0.66843 0.31907 -0.10599
 C306 C 0.64564 0.34262 -0.12499
 C307 C 0.67092 0.31956 -0.34691
 C308 C 0.68453 0.30753 -0.39062
 C309 C 0.59814 0.39105 -0.16334
 C310 C 0.58135 0.40722 -0.12943
 H311 H 0.57452 0.41762 -0.26187
 H312 H 0.56618 0.42786 -0.37304
 H313 H 0.59754 0.39729 -0.45196
 H314 H 0.63708 0.35562 -0.41999
 H315 H 0.69509 0.29291 -0.24717
 H316 H 0.70368 0.28328 -0.13541
 H317 H 0.67245 0.31443 -0.05651
 H318 H 0.63253 0.35571 -0.08881
 C319 C 0.12088 0.87919 -0.20319
 C320 C 0.13477 0.83763 -0.19087
 C321 C 0.15258 0.81938 -0.23646
 C322 C 0.15635 0.84289 -0.29398
 C323 C 0.14346 0.88570 -0.30492
 C324 C 0.12572 0.90392 -0.25935
 C325 C 0.11290 0.94660 -0.27156
 C326 C 0.11748 0.97050 -0.32723
 C327 C 0.13479 0.95265 -0.37189
 C328 C 0.14768 0.91077 -0.36115
 C329 C 0.16608 0.77762 -0.22342
 C330 C 0.16219 0.75460 -0.16670
 C331 C 0.14478 0.77245 -0.12211
 C332 C 0.13112 0.81345 -0.13387
 C333 C 0.17236 0.82268 -0.34359
 C334 C 0.18455 0.80863 -0.38842
 C335 C 0.10052 0.89552 -0.16032
 C336 C 0.08281 0.91040 -0.12802
 H337 H 0.09931 0.96206 -0.23822
 H338 H 0.10751 1.00300 -0.33580
 H339 H 0.13826 0.97135 -0.41511
 H340 H 0.16101 0.89846 -0.39735
 H341 H 0.17984 0.76253 -0.25672
 H342 H 0.17276 0.72276 -0.15728
 H343 H 0.14185 0.75446 -0.07813
 H344 H 0.11783 0.82612 -0.09777
 C345 C 0.38192 0.62528 -0.21230
 C346 C 0.35774 0.64476 -0.19082
 C347 C 0.33947 0.66404 -0.23455
 C348 C 0.34554 0.66377 -0.29940
 C349 C 0.36988 0.64463 -0.32078
 C350 C 0.38803 0.62518 -0.27719
 C351 C 0.41207 0.60580 -0.29991
 C352 C 0.41801 0.60573 -0.36375
 C353 C 0.40032 0.62493 -0.40636
 C354 C 0.37655 0.64422 -0.38541
 C355 C 0.31540 0.68309 -0.21208
 C356 C 0.30950 0.68315 -0.14815
 C357 C 0.32735 0.66434 -0.10542
 C358 C 0.35124 0.64531 -0.12626
 C359 C 0.32664 0.68104 -0.34528
 C360 C 0.31256 0.69269 -0.38824
 C361 C 0.40081 0.60545 -0.16836
 C362 C 0.41762 0.58868 -0.13513
 H363 H 0.42653 0.59043 -0.26873
 H364 H 0.43646 0.59074 -0.38022
 H365 H 0.40503 0.62491 -0.45593
 H366 H 0.36358 0.65885 -0.42053
 H367 H 0.30096 0.69815 -0.24364
 H368 H 0.29097 0.69785 -0.13169
 H369 H 0.32265 0.66445 -0.05585
 H370 H 0.36450 0.63102 -0.09135
 C371 C -0.11824 1.12377 -0.20994
 C372 C -0.14230 1.14391 -0.18890
 C373 C -0.16015 1.16389 -0.23294
 C374 C -0.15377 1.16361 -0.29761
 C375 C -0.12959 1.14367 -0.31858
 C376 C -0.11184 1.12358 -0.27467
 C377 C -0.08791 1.10350 -0.29689
 C378 C -0.08170 1.10333 -0.36059
 C379 C -0.09903 1.12310 -0.40355
 C380 C -0.12268 1.14312 -0.38308
 C381 C -0.18413 1.18365 -0.21097
 C382 C -0.19032 1.18366 -0.14719
 C383 C -0.17286 1.16415 -0.10413
 C384 C -0.14908 1.14446 -0.12450
 C385 C -0.17222 1.18168 -0.34376
 C386 C -0.18603 1.19393 -0.38679
 C387 C -0.09966 1.10364 -0.16569
 C388 C -0.08295 1.08677 -0.13237
 H389 H -0.07373 1.08765 -0.26543
 H390 H -0.06334 1.08782 -0.37668
 H391 H -0.09412 1.12299 -0.45302
 H392 H -0.13537 1.15818 -0.41847
 H393 H -0.19826 1.19928 -0.24279
 H394 H -0.20876 1.19890 -0.13110
 H395 H -0.17778 1.16424 -0.05469
 H396 H -0.13613 1.12964 -0.08935
 C397 C 0.62026 0.62106 -0.20534
 C398 C 0.62465 0.59693 -0.26220
 C399 C 0.64235 0.61520 -0.30775
 C400 C 0.65561 0.65744 -0.29613
 C401 C 0.65222 0.68036 -0.23803
 C402 C 0.63447 0.66208 -0.19243
 C403 C 0.63123 0.68567 -0.13483
 C404 C 0.64524 0.72611 -0.12248
 C405 C 0.66260 0.74398 -0.16708
 C406 C 0.66609 0.72153 -0.22437
 C407 C 0.64618 0.59068 -0.36460
 C408 C 0.63294 0.54935 -0.37601
 C409 C 0.61566 0.53148 -0.33139
 C410 C 0.61148 0.55481 -0.27509
 C411 C 0.67172 0.67762 -0.34549
 C412 C 0.68404 0.69172 -0.39004
 C413 C 0.60007 0.60464 -0.16222
 C414 C 0.58247 0.58973 -0.12971
 H415 H 0.61801 0.67294 -0.09869
 H416 H 0.64263 0.74363 -0.07803
 H417 H 0.67343 0.77539 -0.15723
 H418 H 0.67985 0.73658 -0.25761
 H419 H 0.65949 0.60301 -0.40076
 H420 H 0.63611 0.53111 -0.41971
 H421 H 0.60544 0.49940 -0.34047
 H422 H 0.59791 0.53932 -0.24181
 C423 C 0.11688 1.12723 -0.20616
 C424 C 0.11156 1.12134 -0.27089
 C425 C 0.12948 1.13914 -0.31631
 C426 C 0.15265 1.16286 -0.29685
 C427 C 0.15803 1.16859 -0.23217
 C428 C 0.14008 1.15068 -0.18664
 C429 C 0.14590 1.15661 -0.12228
 C430 C 0.16882 1.17958 -0.10333
 C431 C 0.18634 1.19716 -0.14782
 C432 C 0.18111 1.19178 -0.21161
 C433 C 0.12372 1.13253 -0.38076
 C434 C 0.10095 1.10921 -0.39971
 C435 C 0.08340 1.09194 -0.35527
 C436 C 0.08855 1.09776 -0.29160
 C437 C 0.17084 1.18021 -0.34427
 C438 C 0.18442 1.19211 -0.38804
 C439 C 0.09818 1.10905 -0.16053
 C440 C 0.08142 1.09284 -0.12670
 H441 H 0.13285 1.14348 -0.08606
 H442 H 0.17303 1.18370 -0.05386
 H443 H 0.20410 1.21500 -0.13283
 H444 H 0.19533 1.20585 -0.24458
 H445 H 0.13670 1.14519 -0.41728
 H446 H 0.09692 1.10450 -0.44917
 H447 H 0.06578 1.07365 -0.37015
 H448 H 0.07432 1.08338 -0.25900
 C449 C 0.38153 0.37666 -0.21038
 C450 C 0.38776 0.37679 -0.27520
 C451 C 0.36994 0.35669 -0.31882
 C452 C 0.34587 0.33680 -0.29746
 C453 C 0.33964 0.33660 -0.23271
 C454 C 0.35756 0.35660 -0.18897
 C455 C 0.35093 0.35615 -0.12447
 C456 C 0.32724 0.33652 -0.10373
 C457 C 0.30972 0.31698 -0.14650
 C458 C 0.31576 0.31690 -0.21036
 C459 C 0.37669 0.35719 -0.38343
 C460 C 0.40024 0.37716 -0.40427
 C461 C 0.41763 0.39694 -0.36159
 C462 C 0.41160 0.39683 -0.29779
 C463 C 0.32736 0.31863 -0.34329
 C464 C 0.31349 0.30625 -0.38607
 C465 C 0.40019 0.39675 -0.16642
 C466 C 0.41695 0.41357 -0.13334
 H467 H 0.36394 0.37099 -0.08954
 H468 H 0.32243 0.33653 -0.05423
 H469 H 0.29135 0.30180 -0.13013
 H470 H 0.30158 0.30126 -0.24195
 H471 H 0.36393 0.34213 -0.41860
 H472 H 0.40502 0.37724 -0.45380
 H473 H 0.43592 0.41243 -0.37796
 H474 H 0.42582 0.41268 -0.26657
 C475 C -0.11758 0.87549 -0.21232
 C476 C -0.11168 0.87632 -0.27729
 C477 C -0.12976 0.85684 -0.32089
 C478 C -0.15381 0.83687 -0.29940
 C479 C -0.15970 0.83597 -0.23447
 C480 C -0.14151 0.85532 -0.19075
 C481 C -0.14783 0.85414 -0.12611
 C482 C -0.17148 0.83445 -0.10517
 C483 C -0.18925 0.81558 -0.14790
 C484 C -0.18353 0.81624 -0.21191
 C485 C -0.12331 0.85805 -0.38563
 C486 C -0.09980 0.87808 -0.40665
 C487 C -0.08218 0.89728 -0.36401
 C488 C -0.08792 0.89649 -0.30008
 C489 C -0.17257 0.81920 -0.34521
 C490 C -0.18658 0.80719 -0.38804
 C491 C -0.09873 0.89517 -0.16835
 C492 C -0.08197 0.91180 -0.13499
 H493 H -0.13462 0.86846 -0.09119
 H494 H -0.17604 0.83389 -0.05554
 H495 H -0.20759 0.80036 -0.13135
 H496 H -0.19791 0.80113 -0.24345
 H497 H -0.13626 0.84351 -0.42079
 H498 H -0.09524 0.87867 -0.45629
 H499 H -0.06393 0.91284 -0.38054
 H500 H -0.07353 0.91192 -0.26888
 C501 C 0.37927 0.61526 0.21383
 C502 C 0.38097 0.60202 0.27765
 C503 C 0.36106 0.61634 0.32071
 C504 C 0.33977 0.64455 0.30000
 C505 C 0.33801 0.65768 0.23620
 C506 C 0.35779 0.64282 0.19288
 C507 C 0.35571 0.65651 0.12937
 C508 C 0.33475 0.68429 0.10925
 C509 C 0.31547 0.69893 0.15165
 C510 C 0.31697 0.68584 0.21449
 C511 C 0.36320 0.60251 0.38431
 C512 C 0.38466 0.57620 0.40493
 C513 C 0.40436 0.56290 0.36299
 C514 C 0.40251 0.57510 0.29995
 C515 C 0.32113 0.66239 0.34606
 C516 C 0.30788 0.67653 0.38913
 C517 C 0.39986 0.60056 0.17047
 C518 C 0.41755 0.58692 0.13711
 H519 H 0.37028 0.64604 0.09476
 H520 H 0.33351 0.69460 0.06053
 H521 H 0.29927 0.72058 0.13577
 H522 H 0.30152 0.69797 0.24582
 H523 H 0.34842 0.61193 0.41888
 H524 H 0.38606 0.56629 0.45379
 H525 H 0.42121 0.54312 0.37939
 H526 H 0.41829 0.56353 0.26918
 C527 C -0.12182 1.11212 0.21520
 C528 C -0.12010 1.09956 0.27928
 C529 C -0.13973 1.11511 0.32235
 C530 C -0.16072 1.14391 0.30141
 C531 C -0.16251 1.15633 0.23735
 C532 C -0.14303 1.14024 0.19403
 C533 C -0.14511 1.15334 0.13030
 C534 C -0.16577 1.18171 0.10995
 C535 C -0.18476 1.19751 0.15233
 C536 C -0.18325 1.18504 0.21540
 C537 C -0.13758 1.10194 0.38619
 C538 C -0.11635 1.07520 0.40710
 C539 C -0.09691 1.06076 0.36517
 C540 C -0.09881 1.07220 0.30188
 C541 C -0.17898 1.16306 0.34745
 C542 C -0.19186 1.17811 0.39062
 C543 C -0.10134 1.09659 0.17195
 C544 C -0.08362 1.08267 0.13880
 H545 H -0.13077 1.14196 0.09569
 H546 H -0.16702 1.19157 0.06106
 H547 H -0.20073 1.21961 0.13627
 H548 H -0.19846 1.19807 0.24671
 H549 H -0.15216 1.11222 0.42076
 H550 H -0.11491 1.06586 0.45615
 H551 H -0.08021 1.04069 0.38181
 H552 H -0.08325 1.05973 0.27113
 C553 C 0.62079 0.38422 0.20681
 C554 C 0.63977 0.35041 0.18952
 C555 C 0.65930 0.33595 0.23351
 C556 C 0.65977 0.35564 0.29425
 C557 C 0.64151 0.39097 0.31052
 C558 C 0.62184 0.40505 0.26687
 C559 C 0.60362 0.44012 0.28449
 C560 C 0.60495 0.46087 0.34336
 C561 C 0.62424 0.44717 0.38602
 C562 C 0.64232 0.41262 0.37010
 C563 C 0.67788 0.30171 0.21558
 C564 C 0.67730 0.28248 0.15563
 C565 C 0.65828 0.29675 0.11252
 C566 C 0.63964 0.33029 0.12907
 C567 C 0.67729 0.33743 0.34223
 C568 C 0.68980 0.32300 0.38622
 C569 C 0.59994 0.39769 0.16364
 C570 C 0.58204 0.41084 0.13074
 H571 H 0.58834 0.45224 0.25288
 H572 H 0.59096 0.48777 0.35590
 H573 H 0.62520 0.46336 0.43173
 H574 H 0.65701 0.40335 0.40489
 H575 H 0.69309 0.28971 0.24752
 H576 H 0.69170 0.25636 0.14255
 H577 H 0.65793 0.28175 0.06602
 H578 H 0.62522 0.34034 0.09401
 C579 C 0.12309 0.87753 0.19761
 C580 C 0.12599 0.82961 0.20879
 C581 C 0.14466 0.81371 0.25389
 C582 C 0.16021 0.84585 0.28770
 C583 C 0.15860 0.89351 0.27337
 C584 C 0.14012 0.90937 0.22780
 C585 C 0.13902 0.95713 0.21389
 C586 C 0.15579 0.98826 0.24395
 C587 C 0.17347 0.97290 0.28941
 C588 C 0.17492 0.92608 0.30421
 C589 C 0.14702 0.76567 0.26475
 C590 C 0.13145 0.73422 0.23178
 C591 C 0.11319 0.74980 0.18771
 C592 C 0.11036 0.79693 0.17626
 C593 C 0.17603 0.83039 0.34065
 C594 C 0.18778 0.81782 0.38688
 C595 C 0.10146 0.89433 0.15871
 C596 C 0.08308 0.90929 0.12868
 H597 H 0.12548 0.97078 0.17910
 H598 H 0.15513 1.02448 0.23179
 H599 H 0.18625 0.99734 0.31303
 H600 H 0.18918 0.91564 0.33943
 H601 H 0.16104 0.75194 0.29839
 H602 H 0.13359 0.69756 0.24044
 H603 H 0.10116 0.72523 0.16218
 H604 H 0.09598 0.80744 0.14135
   
