data_POSCAR
  _audit_creation_date              2014-09-24
  _audit_creation_method            'ToBaCCo'
  _symmetry_space_group_name_H-M    'P1'
  _symmetry_Int_Tables_number       1
  _symmetry_cell_setting            triclinic
  loop_
  _symmetry_equiv_pos_as_xyz
 x,y,z
_cell_length_a 29.6430
_cell_length_b 28.8781
_cell_length_c 30.2565
_cell_angle_alpha 89.480500
_cell_angle_beta 89.942300
_cell_angle_gamma 52.732100
loop_
  _atom_site_label
  _atom_site_type_symbol
  _atom_site_fract_x
  _atom_site_fract_y
  _atom_site_fract_z
C1 C -0.11571 0.27328 0.01946
 C2 C -0.08313 0.26504 0.05649
 C3 C -0.05208 0.28722 0.05538
 C4 C -0.05268 0.31692 0.01775
 C5 C -0.08713 0.32550 -0.01860
 C6 C -0.11734 0.30224 -0.01874
 C7 C -0.01361 0.33384 0.01487
 C8 C 0.00444 0.33949 -0.02662
 C9 C 0.04488 0.34967 -0.03026
 C10 C 0.06852 0.35365 0.00817
 C11 C 0.05249 0.34720 0.05015
 C12 C 0.01060 0.33868 0.05310
 H13 H -0.14160 0.25837 0.02074
 H14 H -0.02464 0.27732 0.08315
 H15 H -0.08811 0.34723 -0.04816
 H16 H -0.00991 0.33271 -0.05688
 H17 H 0.10201 0.35837 0.00530
 H18 H -0.00081 0.33329 0.08554
 C19 C 0.33746 0.82853 0.48567
 C20 C 0.36671 0.82319 0.52388
 C21 C 0.41034 0.82871 0.52087
 C22 C 0.42211 0.84451 0.48069
 C23 C 0.39186 0.85001 0.44252
 C24 C 0.35071 0.84050 0.44478
 C25 C 0.46771 0.85211 0.47887
 C26 C 0.49956 0.83996 0.44024
 C27 C 0.54577 0.84190 0.44013
 C28 C 0.56270 0.85222 0.47985
 C29 C 0.53179 0.86398 0.51873
 C30 C 0.48286 0.86705 0.51726
 H31 H 0.30538 0.82166 0.48750
 H32 H 0.43531 0.81974 0.55025
 H33 H 0.40076 0.86026 0.41076
 H34 H 0.49067 0.82622 0.41051
 H35 H 0.60117 0.84879 0.48086
 H36 H 0.45857 0.87821 0.54728
 C37 C 1.14806 0.67783 -0.01258
 C38 C 1.12358 0.67640 0.02665
 C39 C 1.08932 0.65782 0.02486
 C40 C 1.07877 0.64158 -0.01549
 C41 C 1.10446 0.64330 -0.05415
 C42 C 1.13644 0.66442 -0.05329
 C43 C 1.03590 0.62990 -0.01807
 C44 C 1.00333 0.64435 -0.05676
 C45 C 0.95631 0.64405 -0.05742
 C46 C 0.94063 0.62996 -0.01894
 C47 C 0.97300 0.61396 0.01996
 C48 C 1.02185 0.61169 0.01944
 H49 H 1.17212 0.69490 -0.01197
 H50 H 1.07060 0.65676 0.05515
 H51 H 1.09883 0.62959 -0.08549
 H52 H 1.01144 0.65992 -0.08606
 H53 H 0.90160 0.63444 -0.01879
 H54 H 1.04695 0.59850 0.04934
 C55 C 0.67963 0.15010 0.52263
 C56 C 0.66071 0.13978 0.56104
 C57 C 0.62648 0.12156 0.55766
 C58 C 0.60355 0.12235 0.51645
 C59 C 0.62171 0.13528 0.47816
 C60 C 0.66033 0.14805 0.48113
 C61 C 0.55607 0.11719 0.51417
 C62 C 0.53998 0.10685 0.47369
 C63 C 0.48756 0.11693 0.46924
 C64 C 0.45402 0.12991 0.50657
 C65 C 0.47063 0.13703 0.54757
 C66 C 0.52076 0.13155 0.55113
 H67 H 0.70791 0.16201 0.52511
 H68 H 0.61575 0.11000 0.58783
 H69 H 0.60469 0.13814 0.44585
 H70 H 0.56486 0.09645 0.44419
 H71 H 0.41251 0.14004 0.50291
 H72 H 0.52900 0.14311 0.58231
 C73 C 0.63750 -0.06995 -0.01042
 C74 C 0.64232 -0.05668 0.03319
 C75 C 0.65464 -0.01698 0.03919
 C76 C 0.66821 0.00388 0.00315
 C77 C 0.66979 -0.01655 -0.03941
 C78 C 0.65203 -0.05103 -0.04682
 C79 C 0.68337 0.04451 0.00966
 C80 C 0.67819 0.07964 -0.02576
 C81 C 0.69422 0.11642 -0.02146
 C82 C 0.71320 0.11984 0.02010
 C83 C 0.71546 0.08812 0.05627
 C84 C 0.70250 0.04932 0.05083
 H85 H 0.62480 -0.09758 -0.01613
 H86 H 0.65749 -0.00567 0.07230
 H87 H 0.68654 -0.00743 -0.06707
 H88 H 0.66001 0.08005 -0.05687
 H89 H 0.72769 0.14610 0.02450
 H90 H 0.70789 0.02335 0.07914
 C91 C 0.13888 0.44145 0.49750
 C92 C 0.12385 0.47598 0.53517
 C93 C 0.11786 0.52792 0.53152
 C94 C 0.13289 0.54237 0.49250
 C95 C 0.14687 0.50763 0.45504
 C96 C 0.14772 0.45860 0.45690
 C97 C 0.13956 0.58966 0.49255
 C98 C 0.13502 0.61887 0.45326
 C99 C 0.14644 0.65944 0.45329
 C100 C 0.15916 0.67364 0.49308
 C101 C 0.16318 0.64577 0.53248
 C102 C 0.15533 0.60262 0.53178
 H103 H 0.14545 0.40030 0.49994
 H104 H 0.10466 0.55517 0.56034
 H105 H 0.15982 0.51649 0.42469
 H106 H 0.12453 0.60911 0.42222
 H107 H 0.16796 0.70503 0.49304
 H108 H 0.16326 0.57833 0.56197
 C109 C 0.38195 1.05165 -0.00599
 C110 C 0.38763 1.02254 0.03331
 C111 C 0.39266 0.97114 0.03179
 C112 C 0.38441 0.95239 -0.00811
 C113 C 0.37941 0.98197 -0.04738
 C114 C 0.37925 1.03096 -0.04712
 C115 C 0.37217 0.90881 -0.00806
 C116 C 0.37484 0.88117 -0.04741
 C117 C 0.35182 0.85060 -0.04966
 C118 C 0.33404 0.83991 -0.01060
 C119 C 0.33189 0.86571 0.02889
 C120 C 0.35010 0.90047 0.03007
 H121 H 0.37431 1.09335 -0.00405
 H122 H 0.39742 0.94962 0.06276
 H123 H 0.37377 0.96841 -0.07861
 H124 H 0.39251 0.88486 -0.07727
 H125 H 0.31698 0.81565 -0.01146
 H126 H 0.34367 0.92312 0.06041
 C127 C 0.88569 0.53259 0.49130
 C128 C 0.88829 0.51200 0.53396
 C129 C 0.89859 0.45802 0.53985
 C130 C 0.90269 0.42567 0.50322
 C131 C 0.89974 0.44777 0.46051
 C132 C 0.89036 0.50111 0.45450
 C133 C 0.89924 0.37593 0.50868
 C134 C 0.91090 0.33956 0.47259
 C135 C 0.89022 0.30696 0.47158
 C136 C 0.86849 0.30059 0.51015
 C137 C 0.86187 0.33122 0.54823
 C138 C 0.87601 0.36968 0.54719
 H139 H 0.87372 0.57601 0.48673
 H140 H 0.89947 0.44402 0.57326
 H141 H 0.89793 0.42790 0.43121
 H142 H 0.93144 0.33996 0.44322
 H143 H 0.85438 0.27361 0.51006
 H144 H 0.86590 0.39614 0.57593
 O145 O 0.23974 0.28917 0.19776
 O146 O 0.35994 0.20947 0.27494
 O147 O 0.33501 0.18962 0.19562
 O148 O 0.25867 0.30797 0.27710
 O149 O 0.22490 0.26533 0.30855
 O150 O 0.30127 0.14764 0.22788
 O151 O 0.32390 0.17008 0.30765
 O152 O 0.20300 0.24969 0.22954
 Cu153 Cu 0.30272 0.25251 0.23363
 Cu154 Cu 0.26056 0.20302 0.27111
 C155 C 0.20178 0.28180 0.19971
 C156 C 0.35989 0.18045 0.30662
 C157 C 0.32703 0.15108 0.19603
 C158 C 0.22975 0.30597 0.30708
 O159 O 0.74369 0.78708 0.20509
 O160 O 0.82343 0.66804 0.28747
 O161 O 0.84442 0.68556 0.20605
 O162 O 0.72902 0.76777 0.28612
 O163 O 0.69021 0.72810 0.25961
 O164 O 0.80517 0.64803 0.17757
 O165 O 0.78743 0.62675 0.25897
 O166 O 0.70579 0.74668 0.17840
 Cu167 Cu 0.78975 0.73068 0.24820
 Cu168 Cu 0.74378 0.68301 0.21588
 C169 C 0.71106 0.78709 0.17781
 C170 C 0.81543 0.62952 0.28912
 C171 C 0.84418 0.65404 0.17716
 C172 C 0.69115 0.76022 0.28747
 O173 O 0.88517 0.14702 0.22829
 O174 O 0.81265 0.13167 0.32009
 O175 O 0.82500 0.10906 0.23472
 O176 O 0.87789 0.16349 0.31315
 O177 O 0.80015 0.25273 0.30202
 O178 O 0.74915 0.19913 0.22208
 O179 O 0.73565 0.22093 0.30674
 O180 O 0.80850 0.23745 0.21758
 Cu181 Cu 0.85775 0.12856 0.27527
 Cu182 Cu 0.76559 0.23639 0.26089
 C183 C 0.85875 0.19524 0.20739
 C184 C 0.76219 0.17453 0.32974
 C185 C 0.77842 0.14499 0.21446
 C186 C 0.84798 0.21765 0.32085
 O187 O 0.28353 0.75718 0.18965
 O188 O 0.24062 0.70473 0.27892
 O189 O 0.23515 0.70702 0.19363
 O190 O 0.29255 0.75124 0.27548
 O191 O 0.20950 0.83759 0.28047
 O192 O 0.15268 0.79405 0.19547
 O193 O 0.15718 0.79092 0.28202
 O194 O 0.20139 0.84442 0.19439
 Cu195 Cu 0.27132 0.72145 0.23409
 Cu196 Cu 0.17178 0.82552 0.23844
 C197 C 0.24933 0.80957 0.17627
 C198 C 0.19156 0.73871 0.29565
 C199 C 0.18440 0.74279 0.18011
 C200 C 0.26099 0.80141 0.29246
 O201 O 0.82436 0.22311 0.71804
 O202 O 0.78323 0.17352 0.81168
 O203 O 0.77821 0.17014 0.72650
 O204 O 0.83348 0.22071 0.80466
 O205 O 0.74965 0.30648 0.80843
 O206 O 0.69525 0.25663 0.72682
 O207 O 0.69902 0.25933 0.81270
 O208 O 0.74128 0.30978 0.72114
 Cu209 Cu 0.81337 0.18848 0.76471
 Cu210 Cu 0.71305 0.29191 0.76711
 C211 C 0.78919 0.27462 0.70307
 C212 C 0.73439 0.20851 0.82864
 C213 C 0.72717 0.20442 0.71333
 C214 C 0.80068 0.27076 0.82167
 O215 O 0.33566 0.71374 0.70166
 O216 O 0.27191 0.68002 0.78867
 O217 O 0.28327 0.66869 0.70330
 O218 O 0.32769 0.72476 0.78790
 O219 O 0.24603 0.81194 0.78149
 O220 O 0.20127 0.75637 0.69712
 O221 O 0.19139 0.76819 0.78232
 O222 O 0.25453 0.80207 0.69565
 Cu223 Cu 0.31295 0.68802 0.74671
 Cu224 Cu 0.21532 0.79343 0.73844
 C225 C 0.30520 0.76370 0.68337
 C226 C 0.22041 0.71780 0.79972
 C227 C 0.23471 0.70343 0.68558
 C228 C 0.29487 0.77799 0.79890
 O229 O 0.20693 0.35136 0.72601
 O230 O 0.29940 0.22946 0.80360
 O231 O 0.31078 0.25763 0.72291
 O232 O 0.19779 0.32343 0.80616
 O233 O 0.16725 0.27698 0.77753
 O234 O 0.28110 0.21010 0.69461
 O235 O 0.27025 0.18220 0.77446
 O236 O 0.17873 0.30332 0.69672
 Cu237 Cu 0.25698 0.29505 0.76731
 Cu238 Cu 0.22121 0.23849 0.73317
 C239 C 0.17796 0.34770 0.69726
 C240 C 0.29959 0.18539 0.80309
 C241 C 0.31397 0.22446 0.69366
 C242 C 0.16386 0.31046 0.80665
 O243 O 0.76483 0.67831 0.70463
 O244 O 0.68606 0.79457 0.78528
 O245 O 0.66484 0.78041 0.70563
 O246 O 0.78513 0.70235 0.78391
 O247 O 0.81953 0.74435 0.75277
 O248 O 0.69974 0.82168 0.67464
 O249 O 0.71878 0.83917 0.75572
 O250 O 0.79878 0.72090 0.67382
 Cu251 Cu 0.72239 0.73368 0.74698
 Cu252 Cu 0.76264 0.78561 0.71090
 C253 C 0.79326 0.68053 0.67455
 C254 C 0.69182 0.83458 0.78603
 C255 C 0.66168 0.81444 0.67655
 C256 C 0.81986 0.71445 0.78392
 C257 C 0.31612 0.08312 0.09251
 C258 C 0.37175 0.05391 0.07570
 C259 C 0.41147 0.05568 0.09892
 C260 C 0.39689 0.08584 0.13866
 C261 C 0.34259 0.11406 0.15667
 C262 C 0.30150 0.11276 0.13350
 C263 C 0.27404 0.08499 0.06849
 C264 C 0.21914 0.11472 0.08455
 C265 C 0.20485 0.14319 0.12466
 C266 C 0.24524 0.14242 0.14886
 H267 H 0.28264 0.06439 0.03672
 H268 H 0.18741 0.11601 0.06563
 H269 H 0.16201 0.16656 0.13695
 H270 H 0.23089 0.16621 0.17920
 H271 H 0.45381 0.03415 0.08595
 H272 H 0.42814 0.08757 0.15538
 C273 C 0.80507 0.58627 0.58046
 C274 C 0.86355 0.55397 0.57063
 C275 C 0.89722 0.56453 0.59394
 C276 C 0.87389 0.60603 0.62738
 C277 C 0.81641 0.63777 0.63836
 C278 C 0.78120 0.62877 0.61423
 C279 C 0.76943 0.57806 0.55654
 C280 C 0.71164 0.61140 0.56526
 C281 C 0.68807 0.65363 0.59769
 C282 C 0.72221 0.66250 0.62182
 H283 H 0.78560 0.54621 0.53068
 H284 H 0.68497 0.60474 0.54648
 H285 H 0.64302 0.67990 0.60405
 H286 H 0.70149 0.69662 0.64586
 H287 H 0.94172 0.54064 0.58608
 H288 H 0.90098 0.61302 0.64515
 C289 C 0.62755 0.93174 0.11330
 C290 C 0.64509 0.90984 0.06952
 C291 C 0.67422 0.84963 0.06333
 C292 C 0.69235 0.81155 0.09900
 C293 C 0.68268 0.83158 0.14233
 C294 C 0.64806 0.89220 0.15001
 C295 C 0.58738 0.99189 0.12130
 C296 C 0.57104 1.01273 0.16425
 C297 C 0.59368 0.97420 0.20008
 C298 C 0.63159 0.91443 0.19315
 H299 H 0.56736 1.02310 0.09431
 H300 H 0.54043 1.05898 0.16975
 H301 H 0.58074 0.99059 0.23334
 H302 H 0.64665 0.88585 0.22174
 H303 H 0.68846 0.83021 0.03101
 H304 H 0.71774 0.76528 0.09261
 C305 C 0.09825 0.42652 0.58955
 C306 C 0.12459 0.45320 0.57983
 C307 C 0.15729 0.45418 0.61269
 C308 C 0.16871 0.42489 0.65257
 C309 C 0.14886 0.39229 0.66115
 C310 C 0.10974 0.39652 0.63080
 C311 C 0.06066 0.42904 0.55924
 C312 C 0.03655 0.40107 0.56847
 C313 C 0.04594 0.37371 0.60912
 C314 C 0.08131 0.37224 0.64038
 H315 H 0.04923 0.45285 0.52832
 H316 H 0.00998 0.40120 0.54404
 H317 H 0.02529 0.35395 0.61662
 H318 H 0.08476 0.35323 0.67227
 H319 H 0.17775 0.47444 0.60640
 H320 H 0.19741 0.42403 0.67532
 C321 C 0.91783 0.18684 0.09325
 C322 C 0.91581 0.23742 0.09489
 C323 C 0.90549 0.26507 0.13570
 C324 C 0.88966 0.24875 0.17242
 C325 C 0.88558 0.20306 0.17014
 C326 C 0.90158 0.17025 0.13093
 C327 C 0.93747 0.15123 0.05543
 C328 C 0.93691 0.10338 0.05359
 C329 C 0.91776 0.08937 0.08948
 C330 C 0.90050 0.12217 0.12790
 H331 H 0.95421 0.15955 0.02726
 H332 H 0.95155 0.07695 0.02421
 H333 H 0.91710 0.05235 0.08781
 H334 H 0.88698 0.10907 0.15518
 H335 H 0.90414 0.30329 0.13832
 H336 H 0.87785 0.27387 0.20240
 C337 C 0.33742 0.84398 0.60460
 C338 C 0.35364 0.80857 0.56671
 C339 C 0.35799 0.75751 0.56948
 C340 C 0.34505 0.74199 0.60844
 C341 C 0.32765 0.77690 0.64588
 C342 C 0.32594 0.82695 0.64477
 C343 C 0.33114 0.89657 0.60341
 C344 C 0.31731 0.92946 0.64151
 C345 C 0.30939 0.91083 0.68133
 C346 C 0.31366 0.86005 0.68301
 H347 H 0.33644 0.91304 0.57323
 H348 H 0.31308 0.96941 0.64017
 H349 H 0.29966 0.93594 0.71097
 H350 H 0.30862 0.84594 0.71448
 H351 H 0.37083 0.72978 0.54095
 H352 H 0.34671 0.70346 0.60890
 C353 C 0.09162 0.73242 0.09761
 C354 C 0.13439 0.69334 0.06662
 C355 C 0.19073 0.67117 0.07535
 C356 C 0.20535 0.68654 0.11281
 C357 C 0.16457 0.72477 0.14376
 C358 C 0.10731 0.74648 0.13720
 C359 C 0.03326 0.76135 0.08906
 C360 C -0.00756 0.79746 0.12045
 C361 C 0.00844 0.80672 0.16055
 C362 C 0.06511 0.78199 0.16883
 H363 H 0.01812 0.75772 0.05783
 H364 H -0.05190 0.81847 0.11358
 H365 H -0.02336 0.83413 0.18509
 H366 H 0.07511 0.79081 0.20037
 H367 H 0.22450 0.64077 0.05298
 H368 H 0.24936 0.66908 0.11695
 C369 C 0.63198 0.19540 0.63343
 C370 C 0.67434 0.15221 0.60441
 C371 C 0.73148 0.12389 0.61465
 C372 C 0.74734 0.13967 0.65127
 C373 C 0.70668 0.18374 0.67967
 C374 C 0.64847 0.20930 0.67246
 C375 C 0.57354 0.22636 0.62411
 C376 C 0.53270 0.26602 0.65414
 C377 C 0.54899 0.27600 0.69380
 C378 C 0.60617 0.24809 0.70302
 H379 H 0.55848 0.22065 0.59371
 H380 H 0.48817 0.28865 0.64679
 H381 H 0.51711 0.30574 0.71750
 H382 H 0.61650 0.25627 0.73478
 H383 H 0.76424 0.09087 0.59288
 H384 H 0.79205 0.11880 0.65615
 C385 C 0.68089 0.20242 0.94246
 C386 C 0.69568 0.14534 0.94101
 C387 C 0.71756 0.11409 0.90135
 C388 C 0.72915 0.13573 0.86554
 C389 C 0.71897 0.18962 0.86752
 C390 C 0.69472 0.22365 0.90620
 C391 C 0.65000 0.24022 0.97810
 C392 C 0.63878 0.29448 0.98035
 C393 C 0.65713 0.31274 0.94696
 C394 C 0.68462 0.27799 0.91011
 H395 H 0.63337 0.22869 1.00417
 H396 H 0.61584 0.32241 1.00824
 H397 H 0.64923 0.35447 0.94927
 H398 H 0.69790 0.29428 0.88509
 H399 H 0.72953 0.07057 0.89867
 H400 H 0.74734 0.10946 0.83610
 C401 C 0.11007 0.71468 0.37982
 C402 C 0.15399 0.68051 0.41132
 C403 C 0.20808 0.66470 0.40303
 C404 C 0.21912 0.68298 0.36486
 C405 C 0.17652 0.71770 0.33338
 C406 C 0.12158 0.73283 0.34011
 C407 C 0.05484 0.73190 0.38712
 C408 C 0.01246 0.76421 0.35528
 C409 C 0.02419 0.77997 0.31579
 C410 C 0.07810 0.76455 0.30815
 H411 H 0.04387 0.72074 0.41740
 H412 H -0.02966 0.77687 0.36116
 H413 H -0.00870 0.80444 0.29095
 H414 H 0.08527 0.77708 0.27683
 H415 H 0.24222 0.63809 0.42665
 H416 H 0.26126 0.67098 0.36046
 C417 C 0.30849 0.87575 0.87496
 C418 C 0.34174 0.83470 0.90966
 C419 C 0.36001 0.77739 0.90536
 C420 C 0.34650 0.75999 0.86833
 C421 C 0.31286 0.79932 0.83420
 C422 C 0.29467 0.85765 0.83671
 C423 C 0.28478 0.93542 0.87863
 C424 C 0.25294 0.97478 0.84440
 C425 C 0.24247 0.95640 0.80626
 C426 C 0.26245 0.89885 0.80250
 H427 H 0.28911 0.95320 0.90807
 H428 H 0.23591 1.01996 0.84767
 H429 H 0.21782 0.98716 0.77966
 H430 H 0.25193 0.88785 0.77241
 H431 H 0.38498 0.74546 0.93131
 H432 H 0.36077 0.71546 0.86730
 C433 C 0.85445 0.32192 0.39228
 C434 C 0.88511 0.28477 0.42927
 C435 C 0.90801 0.22588 0.42714
 C436 C 0.89853 0.20402 0.39048
 C437 C 0.86705 0.23996 0.35414
 C438 C 0.84847 0.29833 0.35351
 C439 C 0.82791 0.38238 0.39313
 C440 C 0.80191 0.41702 0.35546
 C441 C 0.80092 0.39266 0.31643
 C442 C 0.82382 0.33398 0.31530
 H443 H 0.82621 0.40400 0.42268
 H444 H 0.78293 0.46289 0.35643
 H445 H 0.78174 0.41953 0.28701
 H446 H 0.82307 0.31673 0.28399
 H447 H 0.93145 0.19703 0.45499
 H448 H 0.91367 0.15920 0.39157
 C449 C 0.07296 0.39006 0.90905
 C450 C 0.06872 0.34669 0.92560
 C451 C 0.08939 0.29734 0.90010
 C452 C 0.11633 0.28888 0.86015
 C453 C 0.12414 0.32922 0.84413
 C454 C 0.10033 0.38162 0.86775
 C455 C 0.05005 0.44194 0.93235
 C456 C 0.05473 0.48406 0.91596
 C457 C 0.07997 0.47671 0.87524
 C458 C 0.10211 0.42633 0.85104
 H459 H 0.02806 0.45061 0.96322
 H460 H 0.03795 0.52298 0.93470
 H461 H 0.08195 0.51046 0.86217
 H462 H 0.11937 0.42359 0.81886
 H463 H 0.08689 0.26351 0.91213
 H464 H 0.13425 0.24846 0.84294
 C465 C 0.55827 0.85465 0.35841
 C466 C 0.58083 0.82551 0.39978
 C467 C 0.63828 0.77786 0.40286
 C468 C 0.67303 0.75830 0.36601
 C469 C 0.65129 0.78465 0.32460
 C470 C 0.59373 0.83334 0.32034
 C471 C 0.50177 0.90533 0.35415
 C472 C 0.48051 0.93347 0.31330
 C473 C 0.51487 0.91176 0.27602
 C474 C 0.57102 0.86213 0.27934
 H475 H 0.47385 0.92422 0.38232
 H476 H 0.43715 0.97243 0.31055
 H477 H 0.49809 0.93382 0.24445
 H478 H 0.59660 0.84677 0.24976
 H479 H 0.65634 0.75503 0.43405
 H480 H 0.71732 0.72142 0.36970
 C481 C 0.88936 0.72282 0.88722
 C482 C 0.92028 0.66451 0.90246
 C483 C 0.91802 0.62460 0.87871
 C484 C 0.88675 0.64115 0.83964
 C485 C 0.85720 0.69795 0.82285
 C486 C 0.85794 0.73975 0.84693
 C487 C 0.88730 0.76523 0.91222
 C488 C 0.85569 0.82283 0.89772
 C489 C 0.82536 0.83946 0.85835
 C490 C 0.82625 0.79871 0.83324
 H491 H 0.90905 0.75472 0.94362
 H492 H 0.85417 0.85490 0.91738
 H493 H 0.80045 0.88440 0.84739
 H494 H 0.80102 0.81479 0.80357
 H495 H 0.94068 0.58021 0.89051
 H496 H 0.88527 0.60938 0.82240
 C497 C 0.43386 0.18837 0.40684
 C498 C 0.46023 0.13200 0.42518
 C499 C 0.45581 0.09237 0.40340
 C500 C 0.42517 0.10796 0.36393
 C501 C 0.39823 0.16353 0.34504
 C502 C 0.40239 0.20456 0.36667
 C503 C 0.43616 0.23000 0.42885
 C504 C 0.40800 0.28618 0.41205
 C505 C 0.37651 0.30247 0.37339
 C506 C 0.37346 0.26253 0.35098
 H507 H 0.45905 0.22009 0.45955
 H508 H 0.41009 0.31743 0.42944
 H509 H 0.35379 0.34656 0.36082
 H510 H 0.34708 0.27885 0.32197
 H511 H 0.47502 0.04961 0.41766
 H512 H 0.42134 0.07677 0.34847
 C513 C 0.63566 0.95848 0.86874
 C514 C 0.65719 0.92465 0.90852
 C515 C 0.68667 0.86429 0.90622
 C516 C 0.69475 0.83741 0.86623
 C517 C 0.67507 0.86926 0.82661
 C518 C 0.64513 0.93026 0.82735
 C519 C 0.60396 1.01964 0.86882
 C520 C 0.58358 1.05178 0.82946
 C521 C 0.59297 1.02410 0.78934
 C522 C 0.62308 0.96393 0.78822
 H523 H 0.59408 1.04343 0.89911
 H524 H 0.56000 1.09853 0.83008
 H525 H 0.57630 1.04940 0.75900
 H526 H 0.62828 0.94419 0.75653
 H527 H 0.70490 0.83715 0.93566
 H528 H 0.71892 0.79046 0.86610
 C529 C 0.13521 0.44312 0.37633
 C530 C 0.16461 0.42153 0.41740
 C531 C 0.21286 0.36347 0.42083
 C532 C 0.23267 0.32712 0.38453
 C533 C 0.20588 0.34792 0.34334
 C534 C 0.15681 0.40619 0.33873
 C535 C 0.08405 0.49999 0.37198
 C536 C 0.05581 0.52032 0.33138
 C537 C 0.07789 0.48467 0.29444
 C538 C 0.12800 0.42808 0.29793
 H539 H 0.06493 0.52880 0.39994
 H540 H 0.01651 0.56396 0.32858
 H541 H 0.05585 0.50077 0.26301
 H542 H 0.14382 0.40156 0.26861
 H543 H 0.23585 0.34625 0.45184
 H544 H 0.26989 0.28231 0.38849
 C545 C 0.39440 0.08995 0.90232
 C546 C 0.36771 0.06358 0.91336
 C547 C 0.32577 0.07263 0.88454
 C548 C 0.30722 0.10958 0.84822
 C549 C 0.32955 0.13951 0.83831
 C550 C 0.37525 0.12808 0.86457
 C551 C 0.44195 0.07665 0.92634
 C552 C 0.46712 0.10326 0.91591
 C553 C 0.44800 0.14087 0.87981
 C554 C 0.40374 0.15197 0.85363
 H555 H 0.46104 0.04474 0.95285
 H556 H 0.50243 0.09371 0.93548
 H557 H 0.46847 0.16055 0.87138
 H558 H 0.39371 0.17807 0.82427
 H559 H 0.30339 0.05461 0.89175
 H560 H 0.27235 0.11725 0.82908
 C561 C 0.81584 0.55479 0.39468
 C562 C 0.87106 0.53049 0.41075
 C563 C 0.90709 0.53648 0.38591
 C564 C 0.88918 0.56651 0.34560
 C565 C 0.83482 0.59115 0.32874
 C566 C 0.79745 0.58525 0.35339
 C567 C 0.77766 0.55128 0.41979
 C568 C 0.72285 0.57689 0.40475
 C569 C 0.70463 0.60685 0.36472
 C570 C 0.74110 0.61138 0.33939
 H571 H 0.78932 0.52934 0.45149
 H572 H 0.69423 0.57381 0.42444
 H573 H 0.66174 0.62724 0.35335
 H574 H 0.72354 0.63650 0.30936
 H575 H 0.94913 0.51852 0.39818
 H576 H 0.91771 0.57149 0.32769
 C577 C 0.11619 0.71322 0.87313
 C578 C 0.15440 0.67573 0.90757
 C579 C 0.21151 0.65338 0.90468
 C580 C 0.23158 0.66616 0.86882
 C581 C 0.19531 0.70321 0.83464
 C582 C 0.13689 0.72663 0.83620
 C583 C 0.05713 0.74136 0.87595
 C584 C 0.02027 0.77768 0.84214
 C585 C 0.04083 0.78808 0.80524
 C586 C 0.09812 0.76356 0.80238
 H587 H 0.03811 0.73702 0.90451
 H588 H -0.02461 0.79826 0.84476
 H589 H 0.01207 0.81609 0.77889
 H590 H 0.11067 0.77451 0.77320
 H591 H 0.24130 0.62529 0.93059
 H592 H 0.27601 0.64813 0.86861
 C593 C 0.67620 0.21150 0.43573
 C594 C 0.68053 0.16002 0.44092
 C595 C 0.70989 0.11607 0.40938
 C596 C 0.73616 0.12150 0.37372
 C597 C 0.73415 0.17095 0.36858
 C598 C 0.70491 0.21614 0.40022
 C599 C 0.64398 0.25851 0.46518
 C600 C 0.64341 0.30702 0.46169
 C601 C 0.67454 0.30983 0.42885
 C602 C 0.70495 0.26508 0.39833
 H603 H 0.61884 0.25835 0.49104
 H604 H 0.61908 0.34237 0.48483
 H605 H 0.67490 0.34706 0.42684
 H606 H 0.72902 0.26912 0.37393
 H607 H 0.71373 0.07645 0.41305
 H608 H 0.75843 0.08665 0.34994
 C609 C 0.82511 0.34768 0.91127
 C610 C 0.85766 0.30034 0.94199
 C611 C 0.86899 0.24684 0.93159
 C612 C 0.85132 0.23881 0.89209
 C613 C 0.82106 0.28370 0.86082
 C614 C 0.80794 0.33874 0.86997
 C615 C 0.80601 0.40454 0.92160
 C616 C 0.77571 0.44982 0.89077
 C617 C 0.76280 0.43989 0.84942
 C618 C 0.77842 0.38502 0.83903
 H619 H 0.81315 0.41494 0.95382
 H620 H 0.76206 0.49291 0.89908
 H621 H 0.73977 0.47515 0.82552
 H622 H 0.76748 0.37929 0.80653
 H623 H 0.89414 0.20935 0.95342
 H624 H 0.86100 0.19667 0.88619
 C625 C 0.29370 0.88028 0.37276
 C626 C 0.32693 0.83469 0.40409
 C627 C 0.33880 0.78053 0.39698
 C628 C 0.31786 0.77099 0.36015
 C629 C 0.28419 0.81522 0.32885
 C630 C 0.27275 0.87025 0.33440
 C631 C 0.28022 0.93574 0.37895
 C632 C 0.24884 0.97965 0.34727
 C633 C 0.23035 0.96923 0.30902
 C634 C 0.24215 0.91513 0.30244
 H635 H 0.29368 0.94567 0.40822
 H636 H 0.23919 1.02185 0.35227
 H637 H 0.20672 1.00328 0.28428
 H638 H 0.22786 0.90875 0.27188
 H639 H 0.36449 0.74512 0.42047
 H640 H 0.32717 0.72866 0.35662
 C641 C 0.24894 0.87994 0.06810
 C642 C 0.30615 0.85946 0.06811
 C643 C 0.34135 0.82700 0.10409
 C644 C 0.32157 0.81234 0.13905
 C645 C 0.26602 0.82963 0.13909
 C646 C 0.22898 0.86364 0.10325
 C647 C 0.21133 0.91582 0.03350
 C648 C 0.15613 0.93303 0.03243
 C649 C 0.13742 0.91469 0.06548
 C650 C 0.17335 0.88009 0.10042
 H651 H 0.22414 0.93108 0.00712
 H652 H 0.12792 0.96021 0.00557
 H653 H 0.09480 0.92733 0.06404
 H654 H 0.15699 0.86596 0.12445
 H655 H 0.38511 0.81119 0.10438
 H656 H 0.35028 0.78640 0.16613
 C657 C 0.78435 0.33512 0.58846
 C658 C 0.83792 0.32420 0.58855
 C659 C 0.87228 0.30022 0.62638
 C660 C 0.85549 0.28497 0.66324
 C661 C 0.80377 0.29333 0.66348
 C662 C 0.76777 0.31814 0.62571
 C663 C 0.74694 0.36236 0.55198
 C664 C 0.69597 0.36966 0.55110
 C665 C 0.68119 0.35019 0.58638
 C666 C 0.71650 0.32473 0.62338
 H667 H 0.75656 0.37851 0.52397
 H668 H 0.66796 0.39019 0.52276
 H669 H 0.64200 0.35509 0.58519
 H670 H 0.70335 0.30977 0.64963
 H671 H 0.91335 0.29146 0.62682
 H672 H 0.88343 0.26589 0.69177
 C673 C 0.68653 0.13828 0.13012
 C674 C 0.72938 0.09780 0.10041
 C675 C 0.78636 0.06863 0.11168
 C676 C 0.80140 0.08136 0.15073
 C677 C 0.75989 0.12436 0.17930
 C678 C 0.70188 0.15106 0.17026
 C679 C 0.62860 0.16684 0.12051
 C680 C 0.58684 0.20568 0.15040
 C681 C 0.60188 0.21663 0.19032
 C682 C 0.65875 0.18958 0.20038
 H683 H 0.61513 0.15902 0.09010
 H684 H 0.54262 0.22689 0.14275
 H685 H 0.56932 0.24604 0.21374
 H686 H 0.66846 0.19809 0.23233
 H687 H 0.81942 0.03724 0.08930
 H688 H 0.84593 0.05955 0.15740
 C689 C 0.14769 0.67660 0.61297
 C690 C 0.18039 0.65848 0.57377
 C691 C 0.23151 0.65153 0.57366
 C692 C 0.24966 0.66388 0.61098
 C693 C 0.21757 0.68297 0.64965
 C694 C 0.16749 0.68721 0.65154
 C695 C 0.09531 0.68548 0.61469
 C696 C 0.06527 0.70068 0.65417
 C697 C 0.08657 0.70751 0.69247
 C698 C 0.13717 0.70096 0.69123
 H699 H 0.07689 0.68111 0.58575
 H700 H 0.02549 0.70675 0.65511
 H701 H 0.06371 0.71807 0.72322
 H702 H 0.15331 0.70522 0.72159
 H703 H 0.25736 0.63698 0.54418
 H704 H 0.28823 0.66020 0.60924
 C705 C 0.92635 0.58074 0.06893
 C706 C 0.94991 0.61095 0.06290
 C707 C 0.94628 0.64495 0.09744
 C708 C 0.91593 0.65370 0.13541
 C709 C 0.88681 0.62967 0.14062
 C710 C 0.89460 0.58989 0.10803
 C711 C 0.93439 0.54098 0.03709
 C712 C 0.91034 0.51224 0.04244
 C713 C 0.87919 0.52123 0.08011
 C714 C 0.87244 0.55842 0.11305
 H715 H 0.95992 0.53123 0.00810
 H716 H 0.91690 0.48190 0.01767
 H717 H 0.86184 0.49759 0.08459
 H718 H 0.85162 0.55994 0.14280
 H719 H 0.96400 0.66839 0.09397
 H720 H 0.91218 0.68327 0.15959
 C721 C 0.39504 0.22174 0.59369
 C722 C 0.43038 0.16133 0.58481
 C723 C 0.42699 0.12364 0.61134
 C724 C 0.38945 0.14485 0.64675
 C725 C 0.35460 0.20426 0.65684
 C726 C 0.35660 0.24354 0.62981
 C727 C 0.39615 0.26118 0.56660
 C728 C 0.35994 0.32073 0.57463
 C729 C 0.32182 0.34221 0.60945
 C730 C 0.31986 0.30428 0.63671
 H731 H 0.42447 0.24658 0.53874
 H732 H 0.36111 0.35041 0.55346
 H733 H 0.29336 0.38857 0.61525
 H734 H 0.28873 0.32338 0.66263
 H735 H 0.45363 0.07745 0.60454
 H736 H 0.38772 0.11455 0.66662
 C737 C 0.06411 0.36322 0.13189
 C738 C 0.08723 0.33811 0.08975
 C739 C 0.14637 0.29894 0.08545
 C740 C 0.18202 0.28360 0.12133
 C741 C 0.16019 0.30488 0.16345
 C742 C 0.10094 0.34515 0.16919
 C743 C 0.00553 0.40662 0.13769
 C744 C -0.01653 0.43017 0.17929
 C745 C 0.01931 0.41106 0.21585
 C746 C 0.07760 0.36890 0.21102
 H747 H -0.02347 0.42318 0.11014
 H748 H -0.06165 0.46342 0.18318
 H749 H 0.00196 0.42940 0.24805
 H750 H 0.10423 0.35548 0.24005
 H751 H 0.16552 0.27826 0.05415
 H752 H 0.22741 0.25260 0.11654
 C753 C 0.57263 0.89746 0.57299
 C754 C 0.55575 0.86231 0.56236
 C755 C 0.56442 0.82134 0.59343
 C756 C 0.59392 0.81088 0.63242
 C757 C 0.61688 0.84027 0.64169
 C758 C 0.60250 0.88723 0.61341
 C759 C 0.55958 0.94319 0.54470
 C760 C 0.57527 0.97831 0.55587
 C761 C 0.60259 0.96987 0.59583
 C762 C 0.61588 0.92506 0.62455
 H763 H 0.53631 0.95285 0.51416
 H764 H 0.56533 1.01283 0.53366
 H765 H 0.61306 0.99857 0.60480
 H766 H 0.63487 0.92187 0.65599
 H767 H 0.55105 0.79457 0.58634
 H768 H 0.60219 0.77633 0.65395
   
