data_POSCAR
  _audit_creation_date              2014-09-24
  _audit_creation_method            'ToBaCCo'
  _symmetry_space_group_name_H-M    'P1'
  _symmetry_Int_Tables_number       1
  _symmetry_cell_setting            triclinic
  loop_
  _symmetry_equiv_pos_as_xyz
 x,y,z
_cell_length_a 33.6508
_cell_length_b 39.0925
_cell_length_c 22.2156
_cell_angle_alpha 89.704900
_cell_angle_beta 89.858600
_cell_angle_gamma 118.324400
loop_
  _atom_site_label
  _atom_site_type_symbol
  _atom_site_fract_x
  _atom_site_fract_y
  _atom_site_fract_z
C1 C 0.45213 0.90325 0.49073
 C2 C 0.44712 0.91835 0.54591
 C3 C 0.45145 0.95603 0.54657
 C4 C 0.46400 0.97972 0.49439
 C5 C 0.46780 0.96326 0.43972
 C6 C 0.46049 0.92489 0.43741
 C7 C 0.47441 1.02159 0.49757
 C8 C 0.47235 1.04192 0.44577
 C9 C 0.48696 1.08218 0.44740
 C10 C 0.49846 1.10103 0.50327
 C11 C 0.49910 1.08135 0.55569
 C12 C 0.48886 1.04225 0.55214
 H13 H 0.44715 0.87379 0.48840
 H14 H 0.44558 0.96704 0.58829
 H15 H 0.47724 0.98006 0.39847
 H16 H 0.46084 1.02693 0.40354
 H17 H 0.50842 1.13171 0.50602
 H18 H 0.49262 1.02837 0.59229
 C19 C 0.10520 0.56894 0.50598
 C20 C 0.08407 0.55291 0.56141
 C21 C 0.04289 0.51804 0.56124
 C22 C 0.02479 0.49722 0.50762
 C23 C 0.04935 0.51237 0.45373
 C24 C 0.08843 0.54860 0.45227
 C25 C -0.01945 0.46011 0.50769
 C26 C -0.04559 0.44727 0.45497
 C27 C -0.08667 0.41226 0.45378
 C28 C -0.10334 0.39130 0.50790
 C29 C -0.07974 0.40508 0.56200
 C30 C -0.03694 0.43800 0.56075
 H31 H 0.13643 0.59612 0.50463
 H32 H 0.02490 0.50769 0.60331
 H33 H 0.03831 0.49634 0.41224
 H34 H -0.03428 0.46472 0.41447
 H35 H -0.13606 0.36556 0.50878
 H36 H -0.01796 0.44639 0.60207
 C37 C 0.47915 0.58443 0.49452
 C38 C 0.47846 0.56613 0.54949
 C39 C 0.48932 0.53541 0.54944
 C40 C 0.50449 0.52512 0.49653
 C41 C 0.50389 0.54378 0.44219
 C42 C 0.48976 0.57217 0.44065
 C43 C 0.52322 0.49690 0.49821
 C44 C 0.52778 0.47937 0.44494
 C45 C 0.55228 0.45870 0.44442
 C46 C 0.56919 0.45235 0.49831
 C47 C 0.56130 0.46599 0.55276
 C48 C 0.53959 0.48906 0.55234
 H49 H 0.46909 0.60696 0.49293
 H50 H 0.48694 0.52033 0.59122
 H51 H 0.51539 0.53741 0.40043
 H52 H 0.51372 0.48247 0.40292
 H53 H 0.58693 0.43534 0.49806
 H54 H 0.53721 0.50165 0.59444
 O55 O 0.42006 0.68517 -0.05996
 O56 O 0.41190 0.74709 -0.07573
 C57 C 0.38729 0.76279 -0.08641
 O58 O 0.35388 0.75757 -0.05358
 O59 O 0.28230 0.69073 -0.06574
 C60 C 0.26460 0.65491 -0.07780
 O61 O 0.27349 0.63112 -0.04918
 O62 O 0.35146 0.63456 -0.07129
 C63 C 0.39237 0.65444 -0.08679
 O64 O 0.42169 0.69597 0.06082
 O65 O 0.41790 0.76004 0.04497
 C66 C 0.38942 0.76520 0.07601
 O67 O 0.34734 0.74724 0.06671
 O68 O 0.27345 0.68166 0.05592
 C69 C 0.26987 0.65186 0.08402
 O70 O 0.29126 0.63390 0.06936
 O71 O 0.36780 0.63477 0.04749
 C72 C 0.40231 0.66023 0.07473
 Cr73 Cr 0.41541 0.72096 -0.00726
 Cr74 Cr 0.31555 0.71815 0.00074
 Cr75 Cr 0.32217 0.63587 -0.00094
 O76 O 0.35106 0.69166 -0.00226
 O77 O 0.59616 0.33405 -0.05417
 O78 O 0.58375 0.26352 -0.07041
 C79 C 0.59785 0.23899 -0.07764
 O80 O 0.62617 0.23631 -0.04259
 O81 O 0.70848 0.29192 -0.05960
 C82 C 0.73552 0.32702 -0.07277
 O83 O 0.73601 0.35571 -0.04531
 O84 O 0.66993 0.36991 -0.07113
 C85 C 0.62927 0.35949 -0.08421
 O86 O 0.59062 0.32137 0.06527
 O87 O 0.57261 0.24902 0.04920
 C88 C 0.59548 0.23982 0.08499
 O89 O 0.63702 0.25066 0.07745
 O90 O 0.72010 0.30288 0.06130
 C91 C 0.73205 0.33485 0.08839
 O92 O 0.71956 0.35933 0.07248
 O93 O 0.65534 0.37594 0.04813
 C94 C 0.61857 0.35632 0.07719
 Cr95 Cr 0.58813 0.29256 -0.00237
 Cr96 Cr 0.67216 0.27175 0.00886
 Cr97 Cr 0.69357 0.36325 0.00102
 O98 O 0.65143 0.30929 0.00263
 C99 C 0.42217 0.85399 -0.29729
 N100 N 0.41970 0.88763 -0.29791
 N101 N 0.42777 0.90843 -0.34848
 C102 C 0.43800 0.89618 -0.40068
 N103 N 0.44000 0.86224 -0.39978
 N104 N 0.43252 0.84171 -0.34910
 C105 C 0.41397 0.83119 -0.24164
 N106 N 0.42974 0.80520 -0.23598
 N107 N 0.42195 0.78404 -0.18593
 C108 C 0.39768 0.78778 -0.13995
 N109 N 0.38176 0.81370 -0.14563
 N110 N 0.39007 0.83526 -0.19544
 C111 C 0.15091 0.59966 -0.27998
 N112 N 0.11294 0.56477 -0.28001
 N113 N 0.09034 0.55042 -0.33087
 C114 C 0.10513 0.57006 -0.38395
 N115 N 0.14292 0.60526 -0.38339
 N116 N 0.16516 0.61987 -0.33242
 C117 C 0.17795 0.61423 -0.22523
 N118 N 0.20771 0.65255 -0.21988
 N119 N 0.23442 0.66552 -0.17203
 C120 C 0.23287 0.64057 -0.12820
 N121 N 0.20307 0.60221 -0.13348
 N122 N 0.17589 0.58931 -0.18100
 C123 C 0.44638 0.60345 -0.29312
 N124 N 0.45554 0.62493 -0.34432
 N125 N 0.46540 0.61260 -0.39512
 C126 C 0.46723 0.57859 -0.39672
 N127 N 0.45847 0.55736 -0.34501
 N128 N 0.44776 0.56933 -0.29438
 C129 C 0.43411 0.61662 -0.23789
 N130 N 0.40367 0.59057 -0.19870
 N131 N 0.39067 0.60266 -0.15018
 C132 C 0.40831 0.64119 -0.13856
 N133 N 0.43924 0.66723 -0.17730
 N134 N 0.45162 0.65515 -0.22640
 C135 C 0.53619 0.14323 -0.28238
 N136 N 0.54173 0.11126 -0.28955
 N137 N 0.52945 0.09113 -0.34063
 C138 C 0.51157 0.10247 -0.38652
 N139 N 0.50594 0.13434 -0.37894
 N140 N 0.51788 0.15425 -0.32789
 C141 C 0.55070 0.16653 -0.22738
 N142 N 0.54012 0.19562 -0.21903
 N143 N 0.55458 0.21815 -0.17074
 C144 C 0.58040 0.21261 -0.12905
 N145 N 0.59092 0.18340 -0.13716
 N146 N 0.57621 0.16067 -0.18544
 C147 C 0.85134 0.36344 -0.27423
 N148 N 0.83710 0.34123 -0.32443
 N149 N 0.85998 0.35355 -0.37608
 C150 C 0.89819 0.38837 -0.37935
 N151 N 0.91284 0.41001 -0.32862
 N152 N 0.88985 0.39787 -0.27719
 C153 C 0.82343 0.35257 -0.21937
 N154 N 0.83080 0.37972 -0.17684
 N155 N 0.80331 0.37129 -0.12950
 C156 C 0.76763 0.33526 -0.12259
 N157 N 0.76063 0.30785 -0.16461
 N158 N 0.78790 0.31642 -0.21235
 C159 C 0.59436 0.42815 -0.28757
 N160 N 0.62079 0.43578 -0.33733
 N161 N 0.61088 0.44867 -0.38771
 C162 C 0.57453 0.45497 -0.39000
 N163 N 0.54852 0.44793 -0.33986
 N164 N 0.55813 0.43460 -0.28965
 C165 C 0.60378 0.41156 -0.23349
 N166 N 0.57120 0.39278 -0.19127
 N167 N 0.57922 0.37616 -0.14361
 C168 C 0.62025 0.37802 -0.13623
 N169 N 0.65292 0.39710 -0.17818
 N170 N 0.64474 0.41333 -0.22614
 C171 C 0.84087 0.37580 0.29591
 N172 N 0.87776 0.41126 0.29938
 N173 N 0.90138 0.42269 0.35004
 C174 C 0.88872 0.39947 0.39983
 N175 N 0.85163 0.36388 0.39612
 N176 N 0.82830 0.35218 0.34510
 C177 C 0.81390 0.36443 0.24072
 N178 N 0.78626 0.32648 0.22762
 N179 N 0.76100 0.31676 0.17806
 C180 C 0.76214 0.34471 0.14041
 N181 N 0.78972 0.38257 0.15368
 N182 N 0.81541 0.39223 0.20260
 C183 C 0.51705 0.14788 0.29173
 N184 N 0.52767 0.16499 0.34638
 N185 N 0.51590 0.14362 0.39644
 C186 C 0.49371 0.10416 0.39420
 N187 N 0.48234 0.08705 0.33918
 N188 N 0.49358 0.10851 0.28888
 C189 C 0.53572 0.17178 0.23753
 N190 N 0.51356 0.16236 0.18414
 N191 N 0.53201 0.18438 0.13530
 C192 C 0.57356 0.21598 0.13814
 N193 N 0.59565 0.22510 0.19137
 N194 N 0.57690 0.20362 0.24025
 C195 C 0.57983 0.41963 0.28248
 N196 N 0.53832 0.41621 0.29298
 N197 N 0.52950 0.42889 0.34430
 C198 C 0.56165 0.44476 0.38737
 N199 N 0.60305 0.44797 0.37689
 N200 N 0.61205 0.43584 0.32527
 C201 C 0.58951 0.40492 0.22681
 N202 N 0.63271 0.41872 0.20724
 N203 N 0.64183 0.40409 0.15831
 C204 C 0.60812 0.37478 0.12765
 N205 N 0.56491 0.36102 0.14718
 N206 N 0.55572 0.37604 0.19561
 C207 C 0.15942 0.59331 0.29066
 N208 N 0.15947 0.61762 0.33409
 N209 N 0.13677 0.60344 0.38540
 C210 C 0.11286 0.56444 0.39494
 N211 N 0.11249 0.54021 0.35112
 N212 N 0.13556 0.55437 0.30015
 C213 C 0.18644 0.60857 0.23554
 N214 N 0.19773 0.58540 0.20243
 N215 N 0.22389 0.59928 0.15386
 C216 C 0.23927 0.63672 0.13601
 N217 N 0.22755 0.65989 0.16863
 N218 N 0.20177 0.64609 0.21779
 C219 C 0.44396 0.86642 0.27455
 N220 N 0.46529 0.85968 0.32130
 N221 N 0.47184 0.87907 0.37269
 C222 C 0.45793 0.90632 0.37883
 N223 N 0.43745 0.91356 0.33157
 N224 N 0.43032 0.89380 0.28055
 C225 C 0.43207 0.84218 0.22052
 N226 N 0.39517 0.83609 0.18816
 N227 N 0.38201 0.81192 0.14165
 C228 C 0.40567 0.79339 0.12517
 N229 N 0.44303 0.79990 0.15692
 N230 N 0.45579 0.82364 0.20413
 C231 C 0.46414 0.61256 0.27801
 N232 N 0.47848 0.63608 0.32676
 N233 N 0.48775 0.62367 0.37813
 C234 C 0.48359 0.58744 0.38243
 N235 N 0.46997 0.56420 0.33327
 N236 N 0.46022 0.57645 0.28211
 C237 C 0.45042 0.62514 0.22313
 N238 N 0.42315 0.59865 0.18241
 N239 N 0.40821 0.60980 0.13459
 C240 C 0.42043 0.64789 0.12549
 N241 N 0.44817 0.67440 0.16582
 N242 N 0.46269 0.66321 0.21394
   
