data_POSCAR
  _audit_creation_date              2014-09-24
  _audit_creation_method            'ToBaCCo'
  _symmetry_space_group_name_H-M    'P1'
  _symmetry_Int_Tables_number       1
  _symmetry_cell_setting            triclinic
  loop_
  _symmetry_equiv_pos_as_xyz
 x,y,z
_cell_length_a 50.3449
_cell_length_b 50.3462
_cell_length_c 40.0713
_cell_angle_alpha 89.946100
_cell_angle_beta 89.983100
_cell_angle_gamma 90.121600
loop_
  _atom_site_label
  _atom_site_type_symbol
  _atom_site_fract_x
  _atom_site_fract_y
  _atom_site_fract_z
O1 O -0.02631 0.31112 0.03429
 O2 O 0.02683 0.31288 -0.02925
 O3 O -0.02531 0.31308 -0.03036
 O4 O 0.02592 0.31120 0.03542
 O5 O 0.02567 0.26731 0.03334
 O6 O -0.02529 0.26917 -0.03212
 O7 O 0.02651 0.26897 -0.03102
 O8 O -0.02623 0.26722 0.03222
 Cu9 Cu 0.00030 0.31653 0.00275
 Cu10 Cu 0.00016 0.26376 0.00044
 C11 C -0.03552 0.28880 0.04350
 C12 C 0.03588 0.29113 -0.04047
 C13 C -0.03420 0.29137 -0.04194
 C14 C 0.03475 0.28888 0.04501
 O15 O 0.47530 0.81291 0.52859
 O16 O 0.52597 0.81081 0.46211
 O17 O 0.47375 0.81102 0.46395
 O18 O 0.52742 0.81235 0.52676
 O19 O 0.52685 0.76845 0.52855
 O20 O 0.47358 0.76711 0.46604
 O21 O 0.52546 0.76691 0.46421
 O22 O 0.47505 0.76900 0.53037
 Cu23 Cu 0.50064 0.81623 0.49513
 Cu24 Cu 0.50019 0.76346 0.49746
 C25 C 0.46637 0.79125 0.54032
 C26 C 0.53459 0.78845 0.45242
 C27 C 0.46433 0.78876 0.45487
 C28 C 0.53642 0.79053 0.53786
 O29 O 0.97443 0.68994 -0.03865
 O30 O 1.02616 0.68810 0.02666
 O31 O 0.97402 0.68784 0.02600
 O32 O 1.02668 0.68985 -0.03801
 O33 O 1.02655 0.73374 -0.03581
 O34 O 0.97415 0.73175 0.02788
 O35 O 1.02597 0.73200 0.02855
 O36 O 0.97465 0.73383 -0.03646
 Cu37 Cu 1.00032 0.68447 -0.00624
 Cu38 Cu 1.00033 0.73724 -0.00379
 C39 C 0.96550 0.71227 -0.04810
 C40 C 1.03503 0.70983 0.03825
 C41 C 0.96495 0.70953 0.03735
 C42 C 1.03582 0.71219 -0.04723
 O43 O 0.52607 0.18705 0.53549
 O44 O 0.47300 0.18765 0.47198
 O45 O 0.52525 0.18766 0.47080
 O46 O 0.47396 0.18706 0.53667
 O47 O 0.47422 0.23099 0.53713
 O48 O 0.52518 0.23159 0.47158
 O49 O 0.47327 0.23158 0.47275
 O50 O 0.52600 0.23099 0.53596
 Cu51 Cu 0.49956 0.18289 0.50363
 Cu52 Cu 0.49968 0.23570 0.50437
 C53 C 0.53522 0.20899 0.54606
 C54 C 0.46387 0.20979 0.46214
 C55 C 0.53420 0.20980 0.46056
 C56 C 0.46520 0.20900 0.54765
 O57 O 0.68858 0.02624 -0.03399
 O58 O 0.68788 -0.02813 0.02792
 O59 O 0.68768 0.02404 0.03064
 O60 O 0.68868 -0.02586 -0.03672
 O61 O 0.73261 -0.02556 -0.03565
 O62 O 0.73160 0.02411 0.03139
 O63 O 0.73181 -0.02773 0.02868
 O64 O 0.73251 0.02623 -0.03295
 Cu65 Cu 0.68374 -0.00095 -0.00311
 Cu66 Cu 0.73654 -0.00072 -0.00202
 C67 C 0.71074 0.03565 -0.04350
 C68 C 0.70982 -0.03738 0.03829
 C69 C 0.70954 0.03282 0.04193
 C70 C 0.71087 -0.03441 -0.04716
 O71 O 0.18948 0.47452 0.53813
 O72 O 0.18695 0.52587 0.47238
 O73 O 0.18695 0.47376 0.47352
 O74 O 0.18944 0.52678 0.53701
 O75 O 0.23331 0.52670 0.53414
 O76 O 0.23084 0.47400 0.47095
 O77 O 0.23084 0.52578 0.46982
 O78 O 0.23336 0.47477 0.53526
 Cu79 Cu 0.18375 0.50023 0.50558
 Cu80 Cu 0.23649 0.50032 0.50232
 C81 C 0.21191 0.46565 0.54730
 C82 C 0.20855 0.53472 0.46037
 C83 C 0.20856 0.46471 0.46189
 C84 C 0.21185 0.53600 0.54579
 O85 O 0.31103 0.97452 -0.02909
 O86 O 0.31103 1.02646 0.03588
 O87 O 0.31108 0.97428 0.03562
 O88 O 0.31078 1.02672 -0.02881
 O89 O 0.26685 1.02635 -0.02849
 O90 O 0.26715 0.97421 0.03563
 O91 O 0.26710 1.02606 0.03590
 O92 O 0.26710 0.97448 -0.02877
 Cu93 Cu 0.31544 1.00052 0.00338
 Cu94 Cu 0.26264 1.00025 0.00358
 C95 C 0.28899 0.96545 -0.03946
 C96 C 0.28899 1.03531 0.04642
 C97 C 0.28909 0.96512 0.04607
 C98 C 0.28869 1.03567 -0.03910
 O99 O 0.81337 0.52608 0.52869
 O100 O 0.81196 0.47348 0.46460
 O101 O 0.81212 0.52569 0.46400
 O102 O 0.81310 0.47390 0.52928
 O103 O 0.76918 0.47418 0.53047
 O104 O 0.76820 0.52559 0.46550
 O105 O 0.76804 0.47373 0.46610
 O106 O 0.76944 0.52602 0.52988
 Cu107 Cu 0.81710 0.49978 0.49650
 Cu108 Cu 0.76431 0.49989 0.49810
 C109 C 0.79157 0.53518 0.53968
 C110 C 0.78969 0.46444 0.45499
 C111 C 0.78991 0.53466 0.45417
 C112 C 0.79123 0.46504 0.54047
 C113 C 0.24428 0.21038 0.19698
 C114 C 0.22216 0.22213 0.18213
 C115 C 0.20984 0.24415 0.19643
 C116 C 0.21978 0.25499 0.22643
 C117 C 0.24228 0.24323 0.24178
 C118 C 0.25461 0.22080 0.22702
 C119 C 0.27688 0.20945 0.24263
 C120 C 0.28689 0.21998 0.27222
 C121 C 0.27499 0.24221 0.28724
 C122 C 0.25246 0.25393 0.27192
 C123 C 0.20788 0.27722 0.24143
 C124 C 0.21791 0.28776 0.27098
 C125 C 0.24018 0.27641 0.28662
 C126 C 0.25058 0.28695 0.31655
 C127 C 0.27272 0.27523 0.33142
 C128 C 0.28501 0.25315 0.31716
 H129 H 0.28675 0.19233 0.23206
 H130 H 0.30408 0.21052 0.28325
 H131 H 0.19070 0.28669 0.23037
 H132 H 0.20805 0.30492 0.28149
 H133 H 0.21436 0.21396 0.15904
 H134 H 0.28064 0.28355 0.35436
 C135 C 0.74395 0.70904 0.30215
 C136 C 0.72168 0.72100 0.31636
 C137 C 0.70962 0.74292 0.30142
 C138 C 0.71996 0.75344 0.27142
 C139 C 0.74263 0.74146 0.25674
 C140 C 0.75470 0.71915 0.27216
 C141 C 0.77715 0.70760 0.25723
 C142 C 0.78761 0.71781 0.22770
 C143 C 0.77597 0.73991 0.21201
 C144 C 0.75326 0.75184 0.22663
 C145 C 0.70832 0.77554 0.25576
 C146 C 0.71879 0.78575 0.22621
 C147 C 0.74125 0.77421 0.21126
 C148 C 0.75214 0.78443 0.18139
 C149 C 0.77445 0.77248 0.16721
 C150 C 0.78644 0.75050 0.18212
 H151 H 0.78686 0.69057 0.26833
 H152 H 0.80495 0.70822 0.21724
 H153 H 0.69102 0.78514 0.26627
 H154 H 0.70911 0.80281 0.21515
 H155 H 0.71357 0.71308 0.33944
 H156 H 0.78273 0.78055 0.14431
 C157 C 0.78641 0.24299 0.18975
 C158 C 0.77438 0.22060 0.17580
 C159 C 0.75218 0.20883 0.19063
 C160 C 0.74146 0.21964 0.22021
 C161 C 0.75349 0.24242 0.23461
 C162 C 0.77608 0.25418 0.21934
 C163 C 0.78771 0.27673 0.23406
 C164 C 0.77736 0.28754 0.26328
 C165 C 0.75501 0.27619 0.27882
 C166 C 0.74294 0.25343 0.26437
 C167 C 0.71910 0.20828 0.23577
 C168 C 0.70872 0.21912 0.26496
 C169 C 0.72035 0.24166 0.27965
 C170 C 0.71005 0.25283 0.30926
 C171 C 0.72211 0.27517 0.32325
 C172 C 0.74432 0.28692 0.30846
 H173 H 0.80495 0.28621 0.22308
 H174 H 0.78704 0.30490 0.27363
 H175 H 0.70944 0.19090 0.22548
 H176 H 0.69149 0.20964 0.27596
 H177 H 0.78250 0.21211 0.15309
 H178 H 0.71404 0.28359 0.34603
 C179 C 0.28555 0.74360 0.31002
 C180 C 0.27329 0.72143 0.32429
 C181 C 0.25114 0.70962 0.30946
 C182 C 0.24073 0.72011 0.27950
 C183 C 0.25295 0.74270 0.26480
 C184 C 0.27546 0.75454 0.28014
 C185 C 0.28724 0.77693 0.26520
 C186 C 0.27709 0.78754 0.23574
 C187 C 0.25485 0.77608 0.22009
 C188 C 0.24268 0.75344 0.23472
 C189 C 0.21849 0.70865 0.26386
 C190 C 0.20841 0.71920 0.23433
 C191 C 0.22021 0.74157 0.21935
 C192 C 0.21015 0.75248 0.18943
 C193 C 0.22228 0.77477 0.17528
 C194 C 0.24435 0.78666 0.19022
 H195 H 0.30441 0.78648 0.27622
 H196 H 0.28687 0.80482 0.22528
 H197 H 0.20868 0.69141 0.27437
 H198 H 0.19124 0.70964 0.22331
 H199 H 0.28121 0.71315 0.34725
 H200 H 0.21433 0.78310 0.15237
 C201 C 0.71321 0.25448 0.69019
 C202 C 0.72511 0.27653 0.67515
 C203 C 0.74729 0.28878 0.68936
 C204 C 0.75811 0.27883 0.71938
 C205 C 0.74620 0.25641 0.73487
 C206 C 0.72363 0.24416 0.72023
 C207 C 0.71210 0.22201 0.73604
 C208 C 0.72256 0.21204 0.76568
 C209 C 0.74489 0.22389 0.78061
 C210 C 0.75682 0.24629 0.76510
 C211 C 0.78043 0.29070 0.73434
 C212 C 0.79089 0.28072 0.76397
 C213 C 0.77937 0.25856 0.77975
 C214 C 0.78979 0.24826 0.80980
 C215 C 0.77788 0.22623 0.82485
 C216 C 0.75571 0.21397 0.81065
 H217 H 0.69486 0.21217 0.72559
 H218 H 0.71294 0.19494 0.77684
 H219 H 0.79003 0.30782 0.72323
 H220 H 0.80812 0.29057 0.77444
 H221 H 0.71687 0.28439 0.65214
 H222 H 0.78610 0.21841 0.84789
 C223 C 0.29107 0.74953 0.69066
 C224 C 0.27941 0.72725 0.67595
 C225 C 0.25712 0.71510 0.69004
 C226 C 0.24590 0.72541 0.71962
 C227 C 0.25758 0.74805 0.73481
 C228 C 0.28030 0.76018 0.72031
 C229 C 0.29162 0.78254 0.73584
 C230 C 0.28082 0.79283 0.76510
 C231 C 0.25833 0.78112 0.77987
 C232 C 0.24658 0.75854 0.76460
 C233 C 0.22339 0.71371 0.73440
 C234 C 0.21254 0.72405 0.76359
 C235 C 0.22384 0.74643 0.77908
 C236 C 0.21307 0.75709 0.80871
 C237 C 0.22483 0.77925 0.82353
 C238 C 0.24719 0.79133 0.80954
 H239 H 0.30895 0.79227 0.72546
 H240 H 0.29027 0.81007 0.77608
 H241 H 0.21396 0.69645 0.72346
 H242 H 0.19520 0.71433 0.77397
 H243 H 0.28790 0.71916 0.65322
 H244 H 0.21640 0.78728 0.84633
 C245 C 0.24607 0.21290 0.81638
 C246 C 0.22393 0.22520 0.83049
 C247 C 0.21254 0.24761 0.81577
 C248 C 0.22347 0.25823 0.78613
 C249 C 0.24601 0.24592 0.77160
 C250 C 0.25739 0.22315 0.78677
 C251 C 0.27969 0.21123 0.77192
 C252 C 0.29064 0.22148 0.74270
 C253 C 0.27965 0.24399 0.72721
 C254 C 0.25713 0.25633 0.74177
 C255 C 0.21248 0.28074 0.77062
 C256 C 0.22341 0.29098 0.74136
 C257 C 0.24572 0.27907 0.72654
 C258 C 0.25699 0.28922 0.69685
 C259 C 0.27912 0.27689 0.68275
 C260 C 0.29053 0.25454 0.69752
 H261 H 0.28888 0.19384 0.78281
 H262 H 0.30781 0.21158 0.73229
 H263 H 0.19528 0.29063 0.78101
 H264 H 0.21420 0.30834 0.73041
 H265 H 0.21532 0.21712 0.85318
 H266 H 0.28764 0.28486 0.65994
 C267 C 0.74929 0.71392 0.68347
 C268 C 0.72710 0.72563 0.66866
 C269 C 0.71508 0.74796 0.68268
 C270 C 0.72543 0.75914 0.71228
 C271 C 0.74800 0.74745 0.72754
 C272 C 0.76001 0.72472 0.71309
 C273 C 0.78232 0.71340 0.72868
 C274 C 0.79265 0.72420 0.75794
 C275 C 0.78102 0.74668 0.77270
 C276 C 0.75850 0.75842 0.75738
 C277 C 0.71379 0.78161 0.72707
 C278 C 0.72412 0.79241 0.75631
 C279 C 0.74643 0.78110 0.77187
 C280 C 0.75704 0.79181 0.80159
 C281 C 0.77919 0.78009 0.81643
 C282 C 0.79125 0.75779 0.80241
 H283 H 0.79198 0.69607 0.71835
 H284 H 0.80985 0.71474 0.76895
 H285 H 0.69656 0.79105 0.71612
 H286 H 0.71443 0.80972 0.76667
 H287 H 0.71893 0.71711 0.64599
 H288 H 0.78720 0.78848 0.83928
 C289 C 0.27198 0.14622 0.14500
 C290 C 0.28326 0.12357 0.16035
 C291 C 0.28895 0.10063 0.14096
 C292 C 0.28332 0.10053 0.10635
 C293 C 0.27297 0.12356 0.09077
 C294 C 0.26729 0.14647 0.11015
 C295 C 0.25663 0.16914 0.09408
 C296 C 0.25167 0.16915 0.05987
 C297 C 0.25716 0.14673 0.04093
 C298 C 0.26777 0.12418 0.05602
 C299 C 0.29995 0.07812 0.15688
 C300 C 0.30524 0.07827 0.19103
 C301 C 0.29969 0.10070 0.20999
 C302 C 0.28880 0.12316 0.19496
 C303 C 0.28682 0.07652 0.08683
 C304 C 0.28849 0.05720 0.06923
 C305 C 0.26368 0.16874 0.16501
 C306 C 0.25554 0.18761 0.18037
 H307 H 0.25205 0.18710 0.10771
 H308 H 0.24349 0.18664 0.04801
 H309 H 0.25318 0.14680 0.01439
 H310 H 0.27183 0.10730 0.04014
 H311 H 0.30463 0.06024 0.14312
 H312 H 0.31370 0.06089 0.20283
 H313 H 0.30385 0.10072 0.23649
 H314 H 0.28486 0.14017 0.21068
 C315 C 0.77709 0.64732 0.63636
 C316 C 0.77612 0.62229 0.65247
 C317 C 0.78170 0.59879 0.63414
 C318 C 0.78828 0.60049 0.59986
 C319 C 0.79066 0.62563 0.58423
 C320 C 0.78501 0.64911 0.60253
 C321 C 0.78710 0.67399 0.58623
 C322 C 0.79470 0.67563 0.55284
 C323 C 0.80032 0.65267 0.53498
 C324 C 0.79827 0.62790 0.55032
 C325 C 0.78021 0.57396 0.65060
 C326 C 0.77347 0.57239 0.68429
 C327 C 0.76804 0.59537 0.70223
 C328 C 0.76929 0.62010 0.68662
 C329 C 0.79071 0.57652 0.58001
 C330 C 0.79167 0.55719 0.56233
 C331 C 0.76831 0.67096 0.65385
 C332 C 0.76012 0.69055 0.66771
 H333 H 0.78304 0.69241 0.59914
 H334 H 0.79626 0.69482 0.54078
 H335 H 0.80627 0.65405 0.50907
 H336 H 0.80285 0.61062 0.53537
 H337 H 0.78436 0.55557 0.63768
 H338 H 0.77247 0.55324 0.69653
 H339 H 0.76284 0.59405 0.72839
 H340 H 0.76499 0.63743 0.70162
 C341 C 0.72548 0.84978 0.13058
 C342 C 0.71485 0.87226 0.14698
 C343 C 0.70938 0.89578 0.12855
 C344 C 0.71457 0.89662 0.09385
 C345 C 0.72422 0.87377 0.07722
 C346 C 0.72969 0.85028 0.09564
 C347 C 0.73963 0.82780 0.07853
 C348 C 0.74412 0.82852 0.04423
 C349 C 0.73885 0.85151 0.02622
 C350 C 0.72894 0.87390 0.04236
 C351 C 0.69904 0.91811 0.14551
 C352 C 0.69417 0.91722 0.17974
 C353 C 0.69951 0.89423 0.19777
 C354 C 0.70976 0.87195 0.18171
 C355 C 0.71143 0.92122 0.07534
 C356 C 0.71005 0.94110 0.05865
 C357 C 0.73359 0.82666 0.14967
 C358 C 0.74143 0.80744 0.16465
 H359 H 0.74401 0.80943 0.09142
 H360 H 0.75176 0.81116 0.03156
 H361 H 0.74248 0.85201 -0.00040
 H362 H 0.72503 0.89124 0.02718
 H363 H 0.69453 0.93640 0.13250
 H364 H 0.68622 0.93447 0.19235
 H365 H 0.69569 0.89365 0.22435
 H366 H 0.71356 0.85449 0.19673
 C367 C 0.23096 0.35436 0.64509
 C368 C 0.22054 0.37718 0.66100
 C369 C 0.21476 0.40030 0.64193
 C370 C 0.21942 0.40042 0.60710
 C371 C 0.22903 0.37730 0.59103
 C372 C 0.23480 0.35421 0.61008
 C373 C 0.24463 0.33142 0.59349
 C374 C 0.24871 0.33147 0.55910
 C375 C 0.24314 0.35407 0.54048
 C376 C 0.23334 0.37674 0.55609
 C377 C 0.20460 0.42295 0.65839
 C378 C 0.20022 0.42276 0.69274
 C379 C 0.20586 0.40015 0.71138
 C380 C 0.21593 0.37756 0.69582
 C381 C 0.21548 0.42448 0.58773
 C382 C 0.21325 0.44381 0.57019
 C383 C 0.23897 0.33147 0.66467
 C384 C 0.24662 0.31232 0.67993
 H385 H 0.24924 0.31333 0.60687
 H386 H 0.25627 0.31388 0.54684
 H387 H 0.24644 0.35405 0.51379
 H388 H 0.22920 0.39376 0.54044
 H389 H 0.19989 0.44096 0.64490
 H390 H 0.19240 0.44024 0.70495
 H391 H 0.20241 0.40011 0.73805
 H392 H 0.21998 0.36043 0.71133
 C393 C 0.85170 0.26983 0.13867
 C394 C 0.87433 0.28032 0.15500
 C395 C 0.89765 0.28626 0.13636
 C396 C 0.89815 0.28169 0.10152
 C397 C 0.87518 0.27209 0.08501
 C398 C 0.85189 0.26615 0.10364
 C399 C 0.82927 0.25630 0.08663
 C400 C 0.82967 0.25237 0.05222
 C401 C 0.85246 0.25811 0.03400
 C402 C 0.87498 0.26793 0.05004
 C403 C 0.92012 0.29647 0.15325
 C404 C 0.91957 0.30076 0.18760
 C405 C 0.89677 0.29497 0.20583
 C406 C 0.87435 0.28484 0.18985
 C407 C 0.92249 0.28557 0.08266
 C408 C 0.94214 0.28768 0.06564
 C409 C 0.82867 0.26152 0.15787
 C410 C 0.80947 0.25363 0.17293
 H411 H 0.81105 0.25157 0.09968
 H412 H 0.81221 0.24481 0.03963
 H413 H 0.85270 0.25493 0.00729
 H414 H 0.89216 0.27221 0.03471
 H415 H 0.93827 0.30131 0.14008
 H416 H 0.93692 0.30862 0.20014
 H417 H 0.89645 0.29834 0.23250
 H418 H 0.85706 0.28067 0.20504
 C419 C 0.35685 0.77785 0.64194
 C420 C 0.38226 0.77655 0.65695
 C421 C 0.40534 0.78202 0.63765
 C422 C 0.40281 0.78879 0.60352
 C423 C 0.37731 0.79156 0.58903
 C424 C 0.35425 0.78603 0.60829
 C425 C 0.32899 0.78849 0.59311
 C426 C 0.32657 0.79631 0.55988
 C427 C 0.34912 0.80181 0.54107
 C428 C 0.37425 0.79941 0.55530
 C429 C 0.43056 0.78019 0.65301
 C430 C 0.43293 0.77323 0.68655
 C431 C 0.41036 0.76792 0.70544
 C432 C 0.38526 0.76950 0.69093
 C433 C 0.42625 0.79093 0.58260
 C434 C 0.44506 0.79163 0.56401
 C435 C 0.33358 0.76896 0.66024
 C436 C 0.31424 0.76061 0.67459
 H437 H 0.31086 0.78453 0.60678
 H438 H 0.30710 0.79814 0.54868
 H439 H 0.34714 0.80793 0.51529
 H440 H 0.39119 0.80392 0.53965
 H441 H 0.44866 0.78424 0.63933
 H442 H 0.45238 0.77198 0.69795
 H443 H 0.41231 0.76255 0.73149
 H444 H 0.36827 0.76528 0.70663
 C445 C 0.14481 0.72464 0.13930
 C446 C 0.14750 0.71696 0.10548
 C447 C 0.12453 0.71118 0.08618
 C448 C 0.09899 0.71320 0.10080
 C449 C 0.09639 0.71957 0.13504
 C450 C 0.11937 0.72528 0.15436
 C451 C 0.11627 0.73188 0.18846
 C452 C 0.09116 0.73279 0.20306
 C453 C 0.06868 0.72723 0.18414
 C454 C 0.07114 0.72071 0.15049
 C455 C 0.12771 0.70380 0.05233
 C456 C 0.15286 0.70209 0.03800
 C457 C 0.17532 0.70783 0.05684
 C458 C 0.17279 0.71521 0.09020
 C459 C 0.07553 0.71065 0.07996
 C460 C 0.05661 0.70965 0.06158
 C461 C 0.16796 0.73348 0.15786
 C462 C 0.18717 0.74168 0.17261
 H463 H 0.13319 0.73627 0.20419
 H464 H 0.08913 0.73782 0.22919
 H465 H 0.04922 0.72797 0.19560
 H466 H 0.05311 0.71645 0.13679
 H467 H 0.11084 0.69914 0.03664
 H468 H 0.15494 0.69631 0.01211
 H469 H 0.19482 0.70653 0.04556
 H470 H 0.19085 0.71938 0.10388
 C471 C 0.64710 0.22558 0.64275
 C472 C 0.64907 0.21755 0.60900
 C473 C 0.62570 0.21139 0.59067
 C474 C 0.60051 0.21339 0.60621
 C475 C 0.59866 0.22008 0.64042
 C476 C 0.62205 0.22617 0.65878
 C477 C 0.61970 0.23308 0.69287
 C478 C 0.59494 0.23394 0.70840
 C479 C 0.57207 0.22803 0.69043
 C480 C 0.57378 0.22119 0.65680
 C481 C 0.62813 0.20366 0.55684
 C482 C 0.65295 0.20198 0.54160
 C483 C 0.67579 0.20810 0.55949
 C484 C 0.67400 0.21583 0.59280
 C485 C 0.57660 0.21051 0.58630
 C486 C 0.55728 0.20922 0.56862
 C487 C 0.67059 0.23482 0.66027
 C488 C 0.69002 0.24335 0.67422
 H489 H 0.63695 0.23776 0.70789
 H490 H 0.59350 0.23923 0.73451
 H491 H 0.55289 0.22872 0.70260
 H492 H 0.55547 0.21665 0.64386
 H493 H 0.61093 0.19869 0.54188
 H494 H 0.65445 0.19592 0.51576
 H495 H 0.69502 0.20682 0.54751
 H496 H 0.69234 0.22029 0.60573
 C497 C 0.72862 0.14891 0.86197
 C498 C 0.73212 0.14878 0.89703
 C499 C 0.72625 0.12548 0.91567
 C500 C 0.71692 0.10242 0.89912
 C501 C 0.71246 0.10287 0.86425
 C502 C 0.71833 0.12620 0.84560
 C503 C 0.71397 0.12613 0.81072
 C504 C 0.70406 0.10363 0.79471
 C505 C 0.69833 0.08081 0.81294
 C506 C 0.70247 0.08032 0.84733
 C507 C 0.73025 0.12573 0.95066
 C508 C 0.73983 0.14834 0.96673
 C509 C 0.74550 0.17115 0.94851
 C510 C 0.74172 0.17149 0.91407
 C511 C 0.71331 0.07801 0.91792
 C512 C 0.71148 0.05824 0.93475
 C513 C 0.73700 0.17190 0.84275
 C514 C 0.74497 0.19103 0.82763
 H515 H 0.71809 0.14343 0.79552
 H516 H 0.70080 0.10391 0.76801
 H517 H 0.69064 0.06340 0.80038
 H518 H 0.69769 0.06215 0.86049
 H519 H 0.72600 0.10854 0.96599
 H520 H 0.74290 0.14814 0.99346
 H521 H 0.75288 0.18867 0.96112
 H522 H 0.74639 0.18973 0.90101
 C523 C 0.22240 0.64427 0.35878
 C524 C 0.21478 0.64697 0.39262
 C525 C 0.20908 0.62399 0.41198
 C526 C 0.21110 0.59847 0.39739
 C527 C 0.21731 0.59587 0.36311
 C528 C 0.22295 0.61886 0.34372
 C529 C 0.22943 0.61577 0.30958
 C530 C 0.23028 0.59067 0.29499
 C531 C 0.22479 0.56818 0.31397
 C532 C 0.21840 0.57063 0.34767
 C533 C 0.20180 0.62716 0.44588
 C534 C 0.20012 0.65231 0.46020
 C535 C 0.20579 0.67477 0.44130
 C536 C 0.21307 0.67226 0.40789
 C537 C 0.20884 0.57503 0.41833
 C538 C 0.20809 0.55617 0.43685
 C539 C 0.23144 0.66739 0.34029
 C540 C 0.23991 0.68660 0.32576
 H541 H 0.23376 0.63270 0.29380
 H542 H 0.23522 0.58865 0.26882
 H543 H 0.22548 0.54873 0.30252
 H544 H 0.21419 0.55259 0.36142
 H545 H 0.19718 0.61028 0.46161
 H546 H 0.19441 0.65437 0.48612
 H547 H 0.20452 0.69426 0.45256
 H548 H 0.21719 0.69032 0.39416
 C549 C 0.27334 0.85580 0.86245
 C550 C 0.26852 0.85532 0.89727
 C551 C 0.27382 0.87823 0.91683
 C552 C 0.28391 0.90152 0.90146
 C553 C 0.28963 0.90168 0.86687
 C554 C 0.28433 0.87873 0.84729
 C555 C 0.28996 0.87941 0.81271
 C556 C 0.30056 0.90214 0.79788
 C557 C 0.30573 0.92458 0.81703
 C558 C 0.30034 0.92448 0.85115
 C559 C 0.26851 0.87737 0.95155
 C560 C 0.25818 0.85456 0.96644
 C561 C 0.25306 0.83213 0.94731
 C562 C 0.25814 0.83238 0.91313
 C563 C 0.28711 0.92548 0.92119
 C564 C 0.28858 0.94474 0.93895
 C565 C 0.26553 0.83319 0.84224
 C566 C 0.25785 0.81423 0.82661
 H567 H 0.28631 0.86240 0.79685
 H568 H 0.30479 0.90232 0.77140
 H569 H 0.31396 0.94218 0.80538
 H570 H 0.30472 0.94237 0.86506
 H571 H 0.27228 0.89425 0.96757
 H572 H 0.25411 0.85430 0.99296
 H573 H 0.24509 0.81443 0.95901
 H574 H 0.25385 0.81440 0.89935
 C575 C 0.77149 0.35215 0.35903
 C576 C 0.76690 0.35242 0.39390
 C577 C 0.77266 0.37564 0.41269
 C578 C 0.78298 0.39847 0.39649
 C579 C 0.78845 0.39787 0.36184
 C580 C 0.78269 0.37462 0.34304
 C581 C 0.78809 0.37453 0.30840
 C582 C 0.79892 0.39680 0.29275
 C583 C 0.80454 0.41954 0.31113
 C584 C 0.79938 0.42019 0.34530
 C585 C 0.76759 0.37553 0.44747
 C586 C 0.75705 0.35317 0.46318
 C587 C 0.75148 0.33045 0.44481
 C588 C 0.75630 0.32995 0.41058
 C589 C 0.78674 0.42274 0.41545
 C590 C 0.78872 0.44228 0.43263
 C591 C 0.76329 0.32923 0.33963
 C592 C 0.75530 0.31005 0.32469
 H593 H 0.78409 0.35727 0.29311
 H594 H 0.80297 0.39641 0.26623
 H595 H 0.81294 0.43678 0.29886
 H596 H 0.80411 0.43829 0.35860
 H597 H 0.77171 0.39267 0.46292
 H598 H 0.75318 0.35349 0.48975
 H599 H 0.74334 0.31310 0.45714
 H600 H 0.75166 0.31178 0.39741
 C601 C 0.14651 0.27630 0.86342
 C602 C 0.12143 0.27588 0.84745
 C603 C 0.09807 0.28166 0.86599
 C604 C 0.09996 0.28789 0.90034
 C605 C 0.12518 0.28976 0.91584
 C606 C 0.14852 0.28391 0.89733
 C607 C 0.17347 0.28548 0.91350
 C608 C 0.17531 0.29277 0.94697
 C609 C 0.15249 0.29859 0.96504
 C610 C 0.12765 0.29704 0.94983
 C611 C 0.07318 0.28071 0.84965
 C612 C 0.07142 0.27431 0.81589
 C613 C 0.09426 0.26869 0.79774
 C614 C 0.11904 0.26941 0.81322
 C615 C 0.07608 0.29038 0.92040
 C616 C 0.05679 0.29130 0.93819
 C617 C 0.16996 0.26724 0.84570
 C618 C 0.18937 0.25878 0.83168
 H619 H 0.19179 0.28125 0.90044
 H620 H 0.19456 0.29394 0.95893
 H621 H 0.15403 0.30430 0.99100
 H622 H 0.11048 0.30177 0.96493
 H623 H 0.05488 0.28503 0.86274
 H624 H 0.05222 0.27372 0.80375
 H625 H 0.09279 0.26375 0.77152
 H626 H 0.13627 0.26497 0.79807
 C627 C 0.64499 0.76989 0.35316
 C628 C 0.62226 0.78091 0.33769
 C629 C 0.59931 0.78663 0.35706
 C630 C 0.59927 0.78130 0.39175
 C631 C 0.62234 0.77112 0.40741
 C632 C 0.64526 0.76540 0.38805
 C633 C 0.66798 0.75495 0.40421
 C634 C 0.66803 0.75022 0.43847
 C635 C 0.64559 0.75575 0.45739
 C636 C 0.62299 0.76615 0.44221
 C637 C 0.57673 0.79740 0.34104
 C638 C 0.57683 0.80243 0.30683
 C639 C 0.59929 0.79684 0.28789
 C640 C 0.62180 0.78618 0.30301
 C641 C 0.57535 0.78515 0.41138
 C642 C 0.55619 0.78725 0.42919
 C643 C 0.66763 0.76177 0.33324
 C644 C 0.68664 0.75385 0.31795
 H645 H 0.68596 0.75035 0.39060
 H646 H 0.68556 0.74221 0.45039
 H647 H 0.64568 0.75195 0.48398
 H648 H 0.60610 0.77023 0.45809
 H649 H 0.55884 0.80210 0.35479
 H650 H 0.55940 0.81071 0.29495
 H651 H 0.59926 0.80079 0.26133
 H652 H 0.63882 0.78220 0.28730
 C653 C 0.85578 0.73092 0.85466
 C654 C 0.85534 0.73454 0.88970
 C655 C 0.87828 0.72867 0.90897
 C656 C 0.90155 0.71920 0.89308
 C657 C 0.90169 0.71469 0.85822
 C658 C 0.87871 0.72056 0.83894
 C659 C 0.87937 0.71612 0.80409
 C660 C 0.90209 0.70613 0.78872
 C661 C 0.92455 0.70040 0.80757
 C662 C 0.92447 0.70462 0.84194
 C663 C 0.87744 0.73279 0.94393
 C664 C 0.85464 0.74250 0.95935
 C665 C 0.83218 0.74815 0.94052
 C666 C 0.83241 0.74426 0.90610
 C667 C 0.92552 0.71538 0.91264
 C668 C 0.94479 0.71334 0.93031
 C669 C 0.83310 0.73918 0.83486
 C670 C 0.81413 0.74708 0.81945
 H671 H 0.86236 0.72024 0.78843
 H672 H 0.90225 0.70281 0.76203
 H673 H 0.94213 0.69265 0.79550
 H674 H 0.94237 0.69984 0.85561
 H675 H 0.89433 0.72856 0.95973
 H676 H 0.85440 0.74565 0.98606
 H677 H 0.81449 0.75563 0.95264
 H678 H 0.81442 0.74893 0.89256
 C679 C 0.35052 0.22690 0.36791
 C680 C 0.35095 0.23097 0.40287
 C681 C 0.37438 0.22537 0.42130
 C682 C 0.39725 0.21574 0.40466
 C683 C 0.39650 0.21076 0.36992
 C684 C 0.37304 0.21636 0.35147
 C685 C 0.37281 0.21147 0.31671
 C686 C 0.39512 0.20129 0.30062
 C687 C 0.41806 0.19582 0.31867
 C688 C 0.41886 0.20049 0.35293
 C689 C 0.37444 0.22993 0.45619
 C690 C 0.35202 0.23979 0.47234
 C691 C 0.32909 0.24518 0.45432
 C692 C 0.32844 0.24087 0.41999
 C693 C 0.42173 0.21224 0.42327
 C694 C 0.44147 0.21048 0.44013
 C695 C 0.32738 0.23495 0.34885
 C696 C 0.30811 0.24267 0.33390
 H697 H 0.35540 0.21538 0.30166
 H698 H 0.39460 0.19762 0.27402
 H699 H 0.43533 0.18791 0.30605
 H700 H 0.43711 0.19589 0.36596
 H701 H 0.39174 0.22592 0.47138
 H702 H 0.35247 0.24328 0.49898
 H703 H 0.31171 0.25279 0.46699
 H704 H 0.31011 0.24534 0.40708
 C705 C 0.72827 0.85726 0.85028
 C706 C 0.73068 0.88288 0.83599
 C707 C 0.72463 0.90573 0.85536
 C708 C 0.71616 0.90278 0.88884
 C709 C 0.71239 0.87710 0.90254
 C710 C 0.71849 0.85427 0.88320
 C711 C 0.71496 0.82881 0.89759
 C712 C 0.70554 0.82600 0.93012
 C713 C 0.69948 0.84832 0.94899
 C714 C 0.70291 0.87363 0.93554
 C715 C 0.72757 0.93115 0.84075
 C716 C 0.73616 0.93394 0.80786
 C717 C 0.74205 0.91160 0.78890
 C718 C 0.73941 0.88630 0.80269
 C719 C 0.71316 0.92595 0.91002
 C720 C 0.71162 0.94454 0.92883
 C721 C 0.73745 0.83414 0.83202
 C722 C 0.74593 0.81490 0.81770
 H723 H 0.71930 0.81085 0.88384
 H724 H 0.70290 0.80638 0.94071
 H725 H 0.69213 0.84603 0.97422
 H726 H 0.69792 0.89039 0.95121
 H727 H 0.72313 0.94909 0.85450
 H728 H 0.73825 0.95354 0.79703
 H729 H 0.74870 0.91387 0.76336
 H730 H 0.74414 0.86951 0.78695
 C731 C 0.22222 0.35293 0.36447
 C732 C 0.22252 0.37800 0.34844
 C733 C 0.21695 0.40137 0.36704
 C734 C 0.21108 0.39949 0.40150
 C735 C 0.20931 0.37429 0.41708
 C736 C 0.21494 0.35093 0.39852
 C737 C 0.21349 0.32599 0.41475
 C738 C 0.20652 0.32416 0.44834
 C739 C 0.20090 0.34699 0.46646
 C740 C 0.20234 0.37183 0.45119
 C741 C 0.21777 0.42626 0.35064
 C742 C 0.22383 0.42801 0.31677
 C743 C 0.22923 0.40515 0.29856
 C744 C 0.22864 0.38038 0.31410
 C745 C 0.20884 0.42338 0.42155
 C746 C 0.20810 0.44267 0.43930
 C747 C 0.23114 0.32949 0.34668
 C748 C 0.23950 0.31009 0.33258
 H749 H 0.21757 0.30766 0.40165
 H750 H 0.20543 0.30492 0.46035
 H751 H 0.19543 0.34546 0.49252
 H752 H 0.19779 0.38901 0.46634
 H753 H 0.21361 0.44456 0.36376
 H754 H 0.22431 0.44720 0.30458
 H755 H 0.23390 0.40661 0.27225
 H756 H 0.23289 0.36314 0.29891
 C757 C 0.27266 0.14627 0.86475
 C758 C 0.27114 0.12114 0.84903
 C759 C 0.27684 0.09771 0.86751
 C760 C 0.28409 0.09959 0.90155
 C761 C 0.28690 0.12482 0.91679
 C762 C 0.28113 0.14822 0.89835
 C763 C 0.28370 0.17319 0.91425
 C764 C 0.29188 0.17499 0.94740
 C765 C 0.29764 0.15211 0.96540
 C766 C 0.29511 0.12725 0.95045
 C767 C 0.27484 0.07278 0.85143
 C768 C 0.26748 0.07104 0.81797
 C769 C 0.26194 0.09394 0.79988
 C770 C 0.26369 0.11876 0.81511
 C771 C 0.28688 0.07572 0.92158
 C772 C 0.28821 0.05648 0.93941
 C773 C 0.26413 0.16992 0.84701
 C774 C 0.25629 0.18951 0.83280
 H775 H 0.27955 0.19156 0.90123
 H776 H 0.29381 0.19424 0.95916
 H777 H 0.30405 0.15361 0.99111
 H778 H 0.29981 0.11003 0.96550
 H779 H 0.27905 0.05444 0.86447
 H780 H 0.26609 0.05181 0.80602
 H781 H 0.25625 0.09248 0.77389
 H782 H 0.25926 0.13602 0.80000
 C783 C 0.77153 0.64514 0.35495
 C784 C 0.78232 0.62230 0.33952
 C785 C 0.78826 0.59946 0.35903
 C786 C 0.78339 0.59965 0.39381
 C787 C 0.77353 0.62286 0.40943
 C788 C 0.76758 0.64566 0.38994
 C789 C 0.75743 0.66853 0.40606
 C790 C 0.75323 0.66882 0.44042
 C791 C 0.75900 0.64650 0.45948
 C792 C 0.76910 0.62377 0.44434
 C793 C 0.79876 0.57675 0.34304
 C794 C 0.80332 0.57662 0.30872
 C795 C 0.79752 0.59895 0.28965
 C796 C 0.78711 0.62159 0.30474
 C797 C 0.78714 0.57574 0.41352
 C798 C 0.78907 0.55649 0.43124
 C799 C 0.76309 0.66760 0.33490
 C800 C 0.75498 0.68639 0.31932
 H801 H 0.75267 0.68641 0.39233
 H802 H 0.74543 0.68646 0.45232
 H803 H 0.75561 0.64680 0.48616
 H804 H 0.77339 0.60698 0.46030
 H805 H 0.80362 0.55894 0.35688
 H806 H 0.81140 0.55909 0.29688
 H807 H 0.80111 0.59875 0.26302
 H808 H 0.78295 0.63851 0.28892
 C809 C 0.14750 0.73007 0.85880
 C810 C 0.14714 0.73430 0.89374
 C811 C 0.12377 0.72866 0.91232
 C812 C 0.10088 0.71881 0.89586
 C813 C 0.10155 0.71369 0.86114
 C814 C 0.12495 0.71932 0.84255
 C815 C 0.12511 0.71427 0.80782
 C816 C 0.10277 0.70390 0.79192
 C817 C 0.07988 0.69840 0.81010
 C818 C 0.07915 0.70322 0.84434
 C819 C 0.12380 0.73338 0.94718
 C820 C 0.14623 0.74346 0.96315
 C821 C 0.16910 0.74891 0.94498
 C822 C 0.16968 0.74443 0.91068
 C823 C 0.07650 0.71517 0.91465
 C824 C 0.05689 0.71324 0.93176
 C825 C 0.17057 0.73822 0.83963
 C826 C 0.18986 0.74616 0.82484
 H827 H 0.14249 0.71819 0.79268
 H828 H 0.10323 0.70011 0.76533
 H829 H 0.06258 0.69035 0.79762
 H830 H 0.06094 0.69859 0.85748
 H831 H 0.10654 0.72934 0.96248
 H832 H 0.14585 0.74707 0.98977
 H833 H 0.18650 0.75669 0.95751
 H834 H 0.18797 0.74895 0.89767
 C835 C 0.64526 0.22667 0.36173
 C836 C 0.64543 0.23159 0.39653
 C837 C 0.62242 0.22612 0.41589
 C838 C 0.59934 0.21577 0.40035
 C839 C 0.59947 0.21001 0.36578
 C840 C 0.62253 0.21547 0.34640
 C841 C 0.62214 0.20977 0.31184
 C842 C 0.59962 0.19894 0.29684
 C843 C 0.57708 0.19361 0.31579
 C844 C 0.57689 0.19906 0.34988
 C845 C 0.62299 0.23151 0.45059
 C846 C 0.64559 0.24208 0.46565
 C847 C 0.66812 0.24736 0.44673
 C848 C 0.66816 0.24222 0.41257
 C849 C 0.57530 0.21226 0.41991
 C850 C 0.55600 0.21050 0.43758
 C851 C 0.66800 0.23452 0.34173
 C852 C 0.68706 0.24220 0.32624
 H853 H 0.63923 0.21354 0.29613
 H854 H 0.59966 0.19466 0.27037
 H855 H 0.55964 0.18520 0.30401
 H856 H 0.55893 0.19454 0.36364
 H857 H 0.60603 0.22763 0.46646
 H858 H 0.64562 0.24619 0.49216
 H859 H 0.68565 0.25552 0.45856
 H860 H 0.68620 0.24664 0.39895
 C861 C 0.85553 0.27696 0.85812
 C862 C 0.88081 0.27615 0.84269
 C863 C 0.90399 0.28187 0.86164
 C864 C 0.90169 0.28841 0.89586
 C865 C 0.87630 0.29069 0.91079
 C866 C 0.85314 0.28491 0.89187
 C867 C 0.82799 0.28687 0.90748
 C868 C 0.82579 0.29448 0.94079
 C869 C 0.84843 0.30024 0.95927
 C870 C 0.87346 0.29831 0.94461
 C871 C 0.92909 0.28053 0.84586
 C872 C 0.93123 0.27381 0.81223
 C873 C 0.90856 0.26825 0.79368
 C874 C 0.88358 0.26935 0.80861
 C875 C 0.92530 0.29077 0.91641
 C876 C 0.94428 0.29163 0.93470
 C877 C 0.83223 0.26789 0.84010
 C878 C 0.81290 0.25942 0.82589
 H879 H 0.80980 0.28270 0.89408
 H880 H 0.80640 0.29594 0.95232
 H881 H 0.84662 0.30619 0.98512
 H882 H 0.89048 0.30300 0.96002
 H883 H 0.94726 0.28478 0.85928
 H884 H 0.95059 0.27292 0.80051
 H885 H 0.91033 0.26306 0.76756
 H886 H 0.86651 0.26495 0.79316
 C887 C 0.35100 0.77042 0.36070
 C888 C 0.37373 0.78046 0.34409
 C889 C 0.39714 0.78633 0.36255
 C890 C 0.39764 0.78212 0.39747
 C891 C 0.37458 0.77300 0.41425
 C892 C 0.35119 0.76713 0.39580
 C893 C 0.32848 0.75776 0.41307
 C894 C 0.32888 0.75421 0.44756
 C895 C 0.35176 0.75988 0.46559
 C896 C 0.37438 0.76924 0.44929
 C897 C 0.41971 0.79608 0.34540
 C898 C 0.41915 0.79999 0.31096
 C899 C 0.39626 0.79427 0.29292
 C900 C 0.37375 0.78459 0.30916
 C901 C 0.42208 0.78584 0.41615
 C902 C 0.44183 0.78781 0.43299
 C903 C 0.32787 0.76211 0.34171
 C904 C 0.30863 0.75422 0.32677
 H905 H 0.31018 0.75310 0.40016
 H906 H 0.31135 0.74700 0.46035
 H907 H 0.35200 0.75700 0.49236
 H908 H 0.39163 0.77349 0.46448
 H909 H 0.43793 0.80085 0.35841
 H910 H 0.43658 0.80751 0.29822
 H911 H 0.39594 0.79735 0.26618
 H912 H 0.35639 0.78046 0.29410
 C913 C 0.27274 0.85319 0.14303
 C914 C 0.28133 0.85131 0.10947
 C915 C 0.28734 0.87476 0.09118
 C916 C 0.28464 0.89994 0.10653
 C917 C 0.27737 0.90173 0.14057
 C918 C 0.27143 0.87826 0.15890
 C919 C 0.26392 0.88054 0.19281
 C920 C 0.26235 0.90531 0.20819
 C921 C 0.26813 0.92826 0.19024
 C922 C 0.27554 0.92660 0.15679
 C923 C 0.29565 0.87241 0.05754
 C924 C 0.29804 0.84760 0.04248
 C925 C 0.29206 0.82468 0.06033
 C926 C 0.28378 0.82639 0.09345
 C927 C 0.28747 0.92386 0.08658
 C928 C 0.28877 0.94315 0.06882
 C929 C 0.26369 0.82955 0.16047
 C930 C 0.25533 0.81000 0.17434
 H931 H 0.25932 0.86324 0.20781
 H932 H 0.25662 0.90670 0.23416
 H933 H 0.26688 0.94744 0.20230
 H934 H 0.27994 0.94498 0.14387
 H935 H 0.30052 0.88966 0.04261
 H936 H 0.30452 0.84616 0.01678
 H937 H 0.29388 0.80545 0.04848
 H938 H 0.27945 0.80799 0.10636
 C939 C 0.77526 0.35441 0.63984
 C940 C 0.78300 0.35204 0.60600
 C941 C 0.78899 0.37520 0.58711
 C942 C 0.78712 0.40057 0.60216
 C943 C 0.78068 0.40283 0.63642
 C944 C 0.77476 0.37966 0.65534
 C945 C 0.76810 0.38241 0.68947
 C946 C 0.76733 0.40736 0.70449
 C947 C 0.77308 0.43002 0.68597
 C948 C 0.77967 0.42790 0.65229
 C949 C 0.79644 0.37236 0.55322
 C950 C 0.79802 0.34736 0.53847
 C951 C 0.79205 0.32473 0.55691
 C952 C 0.78460 0.32692 0.59030
 C953 C 0.78990 0.42424 0.58173
 C954 C 0.79112 0.44332 0.56361
 C955 C 0.76630 0.33110 0.65803
 C956 C 0.75806 0.31180 0.67258
 H957 H 0.76355 0.36535 0.70491
 H958 H 0.76224 0.40911 0.73064
 H959 H 0.77246 0.44934 0.69775
 H960 H 0.78409 0.44606 0.63891
 H961 H 0.80128 0.38938 0.53784
 H962 H 0.80386 0.34555 0.51258
 H963 H 0.79324 0.30536 0.54531
 H964 H 0.78025 0.30874 0.60366
 C965 C 0.72413 0.14262 0.14269
 C966 C 0.71536 0.14502 0.10925
 C967 C 0.70971 0.12185 0.09030
 C968 C 0.71293 0.09642 0.10489
 C969 C 0.72034 0.09408 0.13883
 C970 C 0.72593 0.11727 0.15781
 C971 C 0.73360 0.11444 0.19160
 C972 C 0.73566 0.08940 0.20622
 C973 C 0.73022 0.06673 0.18764
 C974 C 0.72266 0.06892 0.15429
 C975 C 0.70125 0.12473 0.05679
 C976 C 0.69839 0.14979 0.04247
 C977 C 0.70402 0.17245 0.06096
 C978 C 0.71243 0.17021 0.09398
 C979 C 0.71054 0.07289 0.08420
 C980 C 0.70955 0.05406 0.06570
 C981 C 0.73298 0.16604 0.16065
 C982 C 0.74125 0.18552 0.17475
 H983 H 0.73794 0.13152 0.20706
 H984 H 0.74150 0.08759 0.23212
 H985 H 0.73185 0.04733 0.19912
 H986 H 0.71854 0.05074 0.14084
 H987 H 0.69662 0.10770 0.04138
 H988 H 0.69181 0.15163 0.01685
 H989 H 0.70184 0.19187 0.04969
 H990 H 0.71647 0.18842 0.10741
 C991 C 0.23077 0.64933 0.63972
 C992 C 0.23440 0.64893 0.60468
 C993 C 0.22860 0.62547 0.58636
 C994 C 0.21920 0.60255 0.60320
 C995 C 0.21471 0.60324 0.63805
 C996 C 0.22050 0.62672 0.65638
 C997 C 0.21607 0.62690 0.69125
 C998 C 0.20614 0.60452 0.70755
 C999 C 0.20048 0.58156 0.68963
 C1000 C 0.20470 0.58081 0.65526
 C1001 C 0.23269 0.62547 0.55137
 C1002 C 0.24230 0.64796 0.53501
 C1003 C 0.24791 0.67091 0.55292
 C1004 C 0.24405 0.67151 0.58735
 C1005 C 0.21533 0.57809 0.58462
 C1006 C 0.21316 0.55838 0.56779
 C1007 C 0.23891 0.67255 0.65860
 C1008 C 0.24666 0.69190 0.67343
 H1009 H 0.22013 0.64433 0.70621
 H1010 H 0.20282 0.60500 0.73424
 H1011 H 0.19278 0.56423 0.70242
 H1012 H 0.19997 0.56253 0.64234
 H1013 H 0.22851 0.60816 0.53627
 H1014 H 0.24543 0.64756 0.50829
 H1015 H 0.25531 0.68834 0.54008
 H1016 H 0.24867 0.68985 0.60016
 C1017 C 0.85296 0.72298 0.13457
 C1018 C 0.85111 0.71520 0.10071
 C1019 C 0.87457 0.70972 0.08226
 C1020 C 0.89973 0.71213 0.09778
 C1021 C 0.90149 0.71854 0.13209
 C1022 C 0.87801 0.72395 0.15057
 C1023 C 0.88026 0.73060 0.18476
 C1024 C 0.90501 0.73185 0.20026
 C1025 C 0.92797 0.72659 0.18216
 C1026 C 0.92635 0.72003 0.14844
 C1027 C 0.87225 0.70225 0.04832
 C1028 C 0.84746 0.70016 0.03310
 C1029 C 0.82452 0.70563 0.05111
 C1030 C 0.82620 0.71309 0.08453
 C1031 C 0.92366 0.70995 0.07779
 C1032 C 0.94296 0.70919 0.06003
 C1033 C 0.82934 0.73165 0.15220
 C1034 C 0.80979 0.73976 0.16619
 H1035 H 0.86294 0.73477 0.19986
 H1036 H 0.90637 0.73692 0.22645
 H1037 H 0.94714 0.72759 0.19432
 H1038 H 0.94473 0.71600 0.13541
 H1039 H 0.88952 0.69780 0.03326
 H1040 H 0.84604 0.69432 0.00717
 H1041 H 0.80531 0.70405 0.03914
 H1042 H 0.80780 0.71704 0.09755
 C1043 C 0.35585 0.22532 0.64889
 C1044 C 0.35307 0.21653 0.61552
 C1045 C 0.37600 0.21045 0.59634
 C1046 C 0.40158 0.21326 0.61062
 C1047 C 0.40428 0.22070 0.64451
 C1048 C 0.38133 0.22672 0.66372
 C1049 C 0.38453 0.23442 0.69744
 C1050 C 0.40969 0.23609 0.71178
 C1051 C 0.43214 0.23023 0.69297
 C1052 C 0.42958 0.22263 0.65969
 C1053 C 0.37274 0.20198 0.56290
 C1054 C 0.34754 0.19950 0.54886
 C1055 C 0.32511 0.20555 0.56759
 C1056 C 0.32772 0.21399 0.60054
 C1057 C 0.42495 0.21046 0.58971
 C1058 C 0.44378 0.20921 0.57119
 C1059 C 0.33273 0.23460 0.66709
 C1060 C 0.31353 0.24321 0.68141
 H1061 H 0.36764 0.23908 0.71308
 H1062 H 0.41179 0.24196 0.73763
 H1063 H 0.45164 0.23155 0.70423
 H1064 H 0.44759 0.21817 0.64606
 H1065 H 0.38958 0.19704 0.54732
 H1066 H 0.34540 0.19290 0.52330
 H1067 H 0.30558 0.20366 0.55654
 H1068 H 0.30969 0.21836 0.61415
 C1069 C 0.14537 0.27064 0.14394
 C1070 C 0.12258 0.28153 0.15941
 C1071 C 0.09963 0.28722 0.14002
 C1072 C 0.09965 0.28200 0.10532
 C1073 C 0.12279 0.27197 0.08966
 C1074 C 0.14570 0.26627 0.10904
 C1075 C 0.16849 0.25597 0.09289
 C1076 C 0.16861 0.25137 0.05861
 C1077 C 0.14618 0.25689 0.03967
 C1078 C 0.12351 0.26714 0.05484
 C1079 C 0.07698 0.29784 0.15604
 C1080 C 0.07702 0.30276 0.19027
 C1081 C 0.09946 0.29720 0.20922
 C1082 C 0.12204 0.28668 0.19410
 C1083 C 0.07572 0.28575 0.08571
 C1084 C 0.05649 0.28778 0.06801
 C1085 C 0.16801 0.26259 0.16389
 C1086 C 0.18697 0.25480 0.17938
 H1087 H 0.18646 0.25139 0.10652
 H1088 H 0.18619 0.24346 0.04669
 H1089 H 0.14633 0.25320 0.01306
 H1090 H 0.10662 0.27122 0.03896
 H1091 H 0.05909 0.30251 0.14229
 H1092 H 0.05954 0.31093 0.20214
 H1093 H 0.09939 0.30107 0.23579
 H1094 H 0.13905 0.28272 0.20983
 C1095 C 0.64880 0.77519 0.63415
 C1096 C 0.62379 0.77488 0.65031
 C1097 C 0.60036 0.78061 0.63189
 C1098 C 0.60210 0.78669 0.59747
 C1099 C 0.62724 0.78834 0.58172
 C1100 C 0.65066 0.78253 0.60011
 C1101 C 0.67554 0.78392 0.58371
 C1102 C 0.67724 0.79099 0.55014
 C1103 C 0.65435 0.79678 0.53219
 C1104 C 0.62958 0.79540 0.54763
 C1105 C 0.57554 0.77981 0.64844
 C1106 C 0.57392 0.77358 0.68228
 C1107 C 0.59683 0.76801 0.70031
 C1108 C 0.62154 0.76860 0.68462
 C1109 C 0.57811 0.78938 0.57765
 C1110 C 0.55868 0.79052 0.56015
 C1111 C 0.67237 0.76650 0.65193
 C1112 C 0.69185 0.75848 0.66620
 H1113 H 0.69391 0.77970 0.59666
 H1114 H 0.69642 0.79202 0.53800
 H1115 H 0.65578 0.80233 0.50614
 H1116 H 0.61235 0.80008 0.53261
 H1117 H 0.55719 0.78409 0.63547
 H1118 H 0.55478 0.77310 0.69459
 H1119 H 0.59547 0.76321 0.72659
 H1120 H 0.63882 0.76419 0.69969
   
