data_POSCAR
  _audit_creation_date              2014-09-24
  _audit_creation_method            'ToBaCCo'
  _symmetry_space_group_name_H-M    'P1'
  _symmetry_Int_Tables_number       1
  _symmetry_cell_setting            triclinic
  loop_
  _symmetry_equiv_pos_as_xyz
 x,y,z
_cell_length_a 40.4636
_cell_length_b 40.6218
_cell_length_c 40.8137
_cell_angle_alpha 89.673000
_cell_angle_beta 89.873400
_cell_angle_gamma 89.959800
loop_
  _atom_site_label
  _atom_site_type_symbol
  _atom_site_fract_x
  _atom_site_fract_y
  _atom_site_fract_z
N1 N 0.27933 0.21816 0.18757
 N2 N 0.26497 0.24504 0.17642
 C3 C 0.28180 0.25610 0.15002
 C4 C 0.30789 0.23499 0.14460
 C5 C 0.30576 0.21124 0.16874
 H6 H 0.27589 0.27805 0.13609
 H7 H 0.32253 0.19085 0.17263
 Cu8 Cu 0.22604 0.26321 0.19777
 Cu9 Cu 0.26348 0.19497 0.22633
 Cu10 Cu 0.19321 0.22592 0.26411
 N11 N 0.18606 0.27958 0.21867
 N12 N 0.17319 0.26487 0.24453
 C13 C 0.14626 0.28171 0.25437
 C14 C 0.14219 0.30815 0.23345
 C15 C 0.16768 0.30620 0.21114
 H16 H 0.13121 0.27559 0.27548
 H17 H 0.17271 0.32328 0.19132
 N18 N 0.21703 0.18672 0.28023
 N19 N 0.24379 0.17492 0.26585
 C20 C 0.25483 0.14880 0.28316
 C21 C 0.23397 0.14411 0.30945
 C22 C 0.21034 0.16838 0.30705
 H23 H 0.27670 0.13460 0.27750
 H24 H 0.19019 0.17266 0.32395
 H25 H 0.21460 0.20905 0.22139
 H26 H 0.24101 0.23475 0.24854
 N27 N 0.71738 -0.21638 0.18885
 N28 N 0.73144 -0.24304 0.17701
 C29 C 0.71464 -0.25292 0.15032
 C30 C 0.68891 -0.23120 0.14544
 C31 C 0.69114 -0.20842 0.17020
 H32 H 0.72042 -0.27433 0.13574
 H33 H 0.67476 -0.18782 0.17450
 Cu34 Cu 0.77027 -0.26190 0.19796
 Cu35 Cu 0.73353 -0.19439 0.22800
 Cu36 Cu 0.80276 -0.22824 0.26546
 N37 N 0.80912 -0.28076 0.21892
 N38 N 0.82182 -0.26730 0.24531
 C39 C 0.84834 -0.28491 0.25495
 C40 C 0.85236 -0.31050 0.23330
 C41 C 0.82719 -0.30738 0.21078
 H42 H 0.86340 -0.27959 0.27613
 H43 H 0.82241 -0.32336 0.19022
 N44 N 0.77996 -0.18875 0.28204
 N45 N 0.75363 -0.17582 0.26779
 C46 C 0.74364 -0.14944 0.28510
 C47 C 0.76474 -0.14576 0.31124
 C48 C 0.78740 -0.17092 0.30876
 H49 H 0.72246 -0.13423 0.27939
 H50 H 0.80756 -0.17597 0.32539
 H51 H 0.78213 -0.20897 0.22323
 H52 H 0.75488 -0.23538 0.24925
 N53 N 0.71959 0.21604 0.81197
 N54 N 0.73317 0.24306 0.82337
 C55 C 0.71613 0.25302 0.84996
 C56 C 0.69079 0.23096 0.85527
 C57 C 0.69350 0.20789 0.83083
 H58 H 0.72143 0.27477 0.86416
 H59 H 0.67746 0.18701 0.82688
 Cu60 Cu 0.77145 0.26272 0.80199
 Cu61 Cu 0.73622 0.19374 0.77324
 Cu62 Cu 0.80530 0.22745 0.73551
 N63 N 0.81059 0.28100 0.78089
 N64 N 0.82375 0.26701 0.75494
 C65 C 0.85003 0.28475 0.74489
 C66 C 0.85337 0.31107 0.76576
 C67 C 0.82810 0.30817 0.78828
 H68 H 0.86525 0.27918 0.72382
 H69 H 0.82272 0.32478 0.80822
 N70 N 0.78307 0.18753 0.71954
 N71 N 0.75668 0.17472 0.73381
 C72 C 0.74675 0.14830 0.71657
 C73 C 0.76800 0.14449 0.69048
 C74 C 0.79065 0.16961 0.69289
 H75 H 0.72537 0.13332 0.72216
 H76 H 0.81071 0.17476 0.67609
 H77 H 0.78461 0.20932 0.77824
 H78 H 0.75731 0.23463 0.75121
 N79 N 0.28138 -0.21883 0.81099
 N80 N 0.26752 -0.24554 0.82313
 C81 C 0.28525 -0.25611 0.84907
 C82 C 0.31139 -0.23483 0.85319
 C83 C 0.30838 -0.21149 0.82874
 H84 H 0.27984 -0.27775 0.86366
 H85 H 0.32476 -0.19097 0.82404
 Cu86 Cu 0.22807 -0.26413 0.80339
 Cu87 Cu 0.26377 -0.19594 0.77275
 Cu88 Cu 0.19299 -0.22850 0.73762
 N89 N 0.18815 -0.28192 0.78381
 N90 N 0.17457 -0.26790 0.75799
 C91 C 0.14776 -0.28531 0.74905
 C92 C 0.14454 -0.31140 0.77053
 C93 C 0.17042 -0.30874 0.79223
 H94 H 0.13208 -0.27965 0.72833
 H95 H 0.17605 -0.32530 0.81230
 N96 N 0.21527 -0.18877 0.72063
 N97 N 0.24221 -0.17633 0.73399
 C98 C 0.25166 -0.14964 0.71656
 C99 C 0.22956 -0.14526 0.69129
 C100 C 0.20690 -0.17033 0.69439
 H101 H 0.27319 -0.13475 0.72155
 H102 H 0.18615 -0.17497 0.67843
 H103 H 0.21528 -0.21052 0.77933
 H104 H 0.24133 -0.23636 0.75183
 N105 N 0.72260 -0.21707 0.81355
 N106 N 0.73671 -0.24424 0.82426
 C107 C 0.71931 -0.25601 0.85001
 C108 C 0.69314 -0.23502 0.85548
 C109 C 0.69579 -0.21063 0.83202
 H110 H 0.72489 -0.27834 0.86347
 H111 H 0.67921 -0.19003 0.82843
 Cu112 Cu 0.77577 -0.26190 0.80272
 Cu113 Cu 0.73930 -0.19263 0.77576
 Cu114 Cu 0.80933 -0.22378 0.73752
 N115 N 0.81509 -0.27912 0.78129
 N116 N 0.82814 -0.26405 0.75574
 C117 C 0.85447 -0.28133 0.74513
 C118 C 0.85794 -0.30848 0.76524
 C119 C 0.83272 -0.30653 0.78787
 H120 H 0.86961 -0.27489 0.72418
 H121 H 0.82740 -0.32399 0.80727
 N122 N 0.78670 -0.18335 0.72274
 N123 N 0.76001 -0.17149 0.73719
 C124 C 0.74966 -0.14466 0.72050
 C125 C 0.77096 -0.13956 0.69459
 C126 C 0.79403 -0.16439 0.69653
 H127 H 0.72780 -0.13044 0.72614
 H128 H 0.81404 -0.16880 0.67951
 H129 H 0.76131 -0.23206 0.75271
 H130 H 0.78792 -0.20731 0.78047
 N131 N 0.27980 0.21488 0.81245
 N132 N 0.26687 0.24244 0.82339
 C133 C 0.28390 0.25226 0.84995
 C134 C 0.30859 0.22959 0.85573
 C135 C 0.30547 0.20625 0.83159
 H136 H 0.27908 0.27441 0.86374
 H137 H 0.32110 0.18497 0.82790
 Cu138 Cu 0.22955 0.26349 0.80176
 Cu139 Cu 0.26338 0.19313 0.77350
 Cu140 Cu 0.19404 0.22653 0.73670
 N141 N 0.18879 0.27976 0.78228
 N142 N 0.17495 0.26533 0.75702
 C143 C 0.14748 0.28207 0.74852
 C144 C 0.14406 0.30815 0.76970
 C145 C 0.17054 0.30613 0.79077
 H146 H 0.13145 0.27600 0.72826
 H147 H 0.17620 0.32281 0.81053
 N148 N 0.21690 0.18731 0.71973
 N149 N 0.24332 0.17452 0.73386
 C150 C 0.25362 0.14843 0.71632
 C151 C 0.23265 0.14479 0.69008
 C152 C 0.20969 0.16969 0.69279
 H153 H 0.27505 0.13350 0.72185
 H154 H 0.18960 0.17483 0.67609
 H155 H 0.24233 0.23398 0.75123
 H156 H 0.21531 0.20971 0.77970
 N157 N 0.28169 -0.21466 0.18887
 N158 N 0.26810 -0.24144 0.17696
 C159 C 0.28534 -0.25108 0.15038
 C160 C 0.31086 -0.22912 0.14561
 C161 C 0.30801 -0.20637 0.17035
 H162 H 0.27994 -0.27249 0.13571
 H163 H 0.32401 -0.18552 0.17467
 Cu164 Cu 0.22930 -0.26127 0.19728
 Cu165 Cu 0.26448 -0.19270 0.22758
 Cu166 Cu 0.19397 -0.22581 0.26302
 N167 N 0.18912 -0.27885 0.21707
 N168 N 0.17532 -0.26478 0.24263
 C169 C 0.14822 -0.28196 0.25143
 C170 C 0.14496 -0.30798 0.23018
 C171 C 0.17122 -0.30548 0.20873
 H172 H 0.13235 -0.27627 0.27200
 H173 H 0.17698 -0.32205 0.18887
 N174 N 0.21638 -0.18650 0.28021
 N175 N 0.24337 -0.17395 0.26683
 C176 C 0.25305 -0.14771 0.28447
 C177 C 0.23103 -0.14371 0.30992
 C178 C 0.20817 -0.16857 0.30669
 H179 H 0.27465 -0.13284 0.27948
 H180 H 0.18740 -0.17340 0.32271
 H181 H 0.24241 -0.23353 0.24861
 H182 H 0.21624 -0.20776 0.22088
 N183 N 0.72140 0.21563 0.18547
 N184 N 0.73639 0.24161 0.17306
 C185 C 0.71888 0.25297 0.14732
 C186 C 0.69171 0.23294 0.14354
 C187 C 0.69389 0.20954 0.16800
 H188 H 0.72507 0.27439 0.13272
 H189 H 0.67655 0.18987 0.17295
 Cu190 Cu 0.77679 0.25872 0.19220
 Cu191 Cu 0.73802 0.19227 0.22384
 Cu192 Cu 0.80869 0.22331 0.26005
 N193 N 0.81573 0.27633 0.21366
 N194 N 0.82815 0.26247 0.24013
 C195 C 0.85426 0.28023 0.25032
 C196 C 0.85823 0.30640 0.22904
 C197 C 0.83348 0.30338 0.20616
 H198 H 0.86882 0.27496 0.27192
 H199 H 0.82838 0.32009 0.18606
 N200 N 0.78551 0.18392 0.27660
 N201 N 0.75856 0.17205 0.26280
 C202 C 0.74808 0.14574 0.28023
 C203 C 0.76956 0.14099 0.30597
 C204 C 0.79289 0.16550 0.30315
 H205 H 0.72614 0.13151 0.27505
 H206 H 0.81327 0.16993 0.31964
 H207 H 0.76103 0.23287 0.24408
 H208 H 0.78699 0.20533 0.21805
 C209 C 0.23739 -0.01722 0.53068
 C210 C 0.24322 0.01711 0.53046
 C211 C 0.24685 0.03359 0.50033
 C212 C 0.24393 0.01688 0.47046
 C213 C 0.23810 -0.01744 0.47073
 C214 C 0.23495 -0.03397 0.50083
 H215 H 0.23115 -0.06041 0.50102
 H216 H 0.25029 0.06007 0.50011
 C217 C 0.75946 0.01859 0.52954
 C218 C 0.75902 -0.01619 0.53069
 C219 C 0.75891 -0.03386 0.50125
 C220 C 0.75916 -0.01777 0.47072
 C221 C 0.75869 0.01701 0.46958
 C222 C 0.75888 0.03468 0.49903
 H223 H 0.75902 0.06137 0.49819
 H224 H 0.75907 -0.06055 0.50210
 C225 C 0.46939 0.23834 -0.01684
 C226 C 0.46931 0.24418 0.01727
 C227 C 0.49955 0.24737 0.03378
 C228 C 0.52983 0.24410 0.01724
 C229 C 0.52982 0.23845 -0.01691
 C230 C 0.49962 0.23565 -0.03343
 H231 H 0.49964 0.23192 -0.05973
 H232 H 0.49950 0.25079 0.06012
 C233 C 0.47114 0.75644 -0.01763
 C234 C 0.47083 0.76268 0.01641
 C235 C 0.50090 0.76523 0.03321
 C236 C 0.53129 0.76186 0.01699
 C237 C 0.53167 0.75570 -0.01706
 C238 C 0.50157 0.75266 -0.03382
 H239 H 0.50184 0.74894 -0.06011
 H240 H 0.50064 0.76927 0.05946
 C241 C 0.01654 0.47120 0.23877
 C242 C -0.01837 0.47090 0.23877
 C243 C -0.03557 0.50089 0.23822
 C244 C -0.01886 0.53118 0.23772
 C245 C 0.01607 0.53147 0.23875
 C246 C 0.03324 0.50144 0.23918
 H247 H 0.06005 0.50158 0.23943
 H248 H -0.06237 0.50065 0.23779
 C249 C 0.01595 0.46929 0.76516
 C250 C -0.01846 0.46987 0.75914
 C251 C -0.03457 0.50030 0.75559
 C252 C -0.01741 0.53014 0.75863
 C253 C 0.01697 0.52952 0.76474
 C254 C 0.03313 0.49913 0.76795
 H255 H 0.05964 0.49868 0.77185
 H256 H -0.06111 0.50077 0.75190
 C257 C 0.38247 0.24267 0.07766
 C258 C 0.38895 0.21657 0.05635
 C259 C 0.41679 0.21743 0.03605
 C260 C 0.33340 0.23817 0.12029
 C261 C 0.43148 0.27083 0.05788
 C262 C 0.40359 0.26996 0.07815
 C263 C 0.35541 0.24048 0.10047
 C264 C 0.43840 0.24447 0.03681
 H265 H 0.37292 0.19523 0.05598
 H266 H 0.42198 0.19660 0.02042
 H267 H 0.44790 0.29185 0.05886
 H268 H 0.39888 0.29024 0.09465
 C269 C 0.61692 0.76621 0.07847
 C270 C 0.61215 0.73904 0.05803
 C271 C 0.58475 0.73794 0.03719
 C272 C 0.66519 0.76740 0.12197
 C273 C 0.56725 0.79144 0.05680
 C274 C 0.59465 0.79256 0.07749
 C275 C 0.64359 0.76658 0.10171
 C276 C 0.56191 0.76402 0.03670
 H277 H 0.62915 0.71844 0.05875
 H278 H 0.58085 0.71640 0.02218
 H279 H 0.54992 0.81178 0.05675
 H280 H 0.59808 0.81367 0.09321
 C281 C 0.61645 0.23377 -0.07729
 C282 C 0.59390 0.20767 -0.07690
 C283 C 0.56610 0.20893 -0.05665
 C284 C 0.66550 0.23249 -0.12009
 C285 C 0.58370 0.26208 -0.03635
 C286 C 0.61149 0.26086 -0.05677
 C287 C 0.64357 0.23331 -0.10011
 C288 C 0.56066 0.23622 -0.03636
 H289 H 0.59748 0.18665 -0.09274
 H290 H 0.54857 0.18880 -0.05707
 H291 H 0.57967 0.28356 -0.02127
 H292 H 0.62868 0.28130 -0.05709
 C293 C 0.38590 0.75875 -0.07987
 C294 C 0.40677 0.73124 -0.07980
 C295 C 0.43399 0.73005 -0.05881
 C296 C 0.33721 0.76281 -0.12282
 C297 C 0.41917 0.78361 -0.03733
 C298 C 0.39198 0.78479 -0.05838
 C299 C 0.35918 0.76088 -0.10300
 C300 C 0.44055 0.75633 -0.03755
 H301 H 0.40235 0.71100 -0.09640
 H302 H 0.45024 0.70886 -0.05943
 H303 H 0.42410 0.80439 -0.02158
 H304 H 0.37613 0.80630 -0.05840
 C305 C 0.07664 0.38427 0.23654
 C306 C 0.07941 0.40809 0.21180
 C307 C 0.05949 0.43613 0.21244
 C308 C 0.11801 0.33394 0.23545
 C309 C 0.03342 0.41645 0.26239
 C310 C 0.05348 0.38837 0.26176
 C311 C 0.09859 0.35642 0.23637
 C312 C 0.03645 0.44062 0.23780
 H313 H 0.09720 0.40514 0.19215
 H314 H 0.06204 0.45441 0.19318
 H315 H 0.01593 0.41961 0.28225
 H316 H 0.05119 0.37010 0.28106
 C317 C 0.07874 0.61513 0.76885
 C318 C 0.05821 0.61017 0.74174
 C319 C 0.03741 0.58271 0.74068
 C320 C 0.12157 0.66423 0.76971
 C321 C 0.05733 0.56536 0.79405
 C322 C 0.07800 0.59285 0.79513
 C323 C 0.10169 0.64216 0.76920
 C324 C 0.03703 0.55995 0.76673
 H325 H 0.05874 0.62718 0.72120
 H326 H 0.02224 0.57877 0.71923
 H327 H 0.05733 0.54812 0.81439
 H328 H 0.09379 0.59645 0.81621
 C329 C -0.08089 0.61674 0.23470
 C330 C -0.08265 0.59318 0.20992
 C331 C -0.06184 0.56580 0.21060
 C332 C -0.12429 0.66545 0.23433
 C333 C -0.03658 0.58578 0.26045
 C334 C -0.05755 0.61321 0.25979
 C335 C -0.10408 0.64362 0.23481
 C336 C -0.03884 0.56169 0.23602
 H337 H -0.10057 0.59567 0.19038
 H338 H -0.06392 0.54755 0.19149
 H339 H -0.01922 0.58293 0.28041
 H340 H -0.05602 0.63125 0.27915
 C341 C -0.08108 0.38469 0.76034
 C342 C -0.08125 0.40605 0.73329
 C343 C -0.06025 0.43336 0.73254
 C344 C -0.12397 0.33569 0.76372
 C345 C -0.03833 0.41768 0.78562
 C346 C -0.05938 0.39041 0.78637
 C347 C -0.10418 0.35781 0.76205
 C348 C -0.03872 0.43948 0.75877
 H349 H -0.09800 0.40190 0.71305
 H350 H -0.06103 0.44994 0.71168
 H351 H -0.02239 0.42227 0.80638
 H352 H -0.05921 0.37416 0.80752
 C353 C 0.24201 0.07782 0.38439
 C354 C 0.21605 0.05593 0.39075
 C355 C 0.21712 0.03538 0.41830
 C356 C 0.23725 0.12023 0.33529
 C357 C 0.27043 0.05815 0.43293
 C358 C 0.26935 0.07867 0.40534
 C359 C 0.23969 0.10062 0.35741
 C360 C 0.24422 0.03648 0.43973
 H361 H 0.19466 0.05529 0.37485
 H362 H 0.19637 0.01932 0.42341
 H363 H 0.29148 0.05944 0.44922
 H364 H 0.28950 0.09563 0.40069
 C365 C 0.76369 0.07953 0.61486
 C366 C 0.78822 0.08177 0.59074
 C367 C 0.78685 0.06168 0.56315
 C368 C 0.76590 0.12075 0.66466
 C369 C 0.73659 0.03654 0.58387
 C370 C 0.73793 0.05677 0.61148
 C371 C 0.76460 0.10151 0.64233
 C372 C 0.76103 0.03894 0.55947
 H373 H 0.80824 0.09931 0.59309
 H374 H 0.80593 0.06386 0.54461
 H375 H 0.71628 0.01940 0.58128
 H376 H 0.71874 0.05497 0.62995
 C377 C 0.23202 -0.07792 0.61682
 C378 C 0.25909 -0.05693 0.61212
 C379 C 0.26046 -0.03633 0.58455
 C380 C 0.23076 -0.12078 0.66579
 C381 C 0.20745 -0.05733 0.56664
 C382 C 0.20606 -0.07779 0.59422
 C383 C 0.23147 -0.10084 0.64382
 C384 C 0.23479 -0.03664 0.56142
 H385 H 0.27941 -0.05700 0.62935
 H386 H 0.28194 -0.02088 0.58076
 H387 H 0.18741 -0.05791 0.54911
 H388 H 0.18504 -0.09397 0.59759
 C389 C 0.76172 -0.07954 0.38588
 C390 C 0.73629 -0.05638 0.38941
 C391 C 0.73558 -0.03574 0.41677
 C392 C 0.76293 -0.12162 0.33674
 C393 C 0.78589 -0.06121 0.43685
 C394 C 0.78662 -0.08170 0.40953
 C395 C 0.76200 -0.10199 0.35875
 C396 C 0.76032 -0.03818 0.44078
 H397 H 0.71684 -0.05458 0.37129
 H398 H 0.71550 -0.01834 0.41953
 H399 H 0.80522 -0.06339 0.45505
 H400 H 0.80640 -0.09950 0.40704
 C401 C 0.61840 0.75686 -0.07768
 C402 C 0.59713 0.72969 -0.07817
 C403 C 0.56939 0.72884 -0.05768
 C404 C 0.66742 0.76152 -0.12043
 C405 C 0.58456 0.78198 -0.03557
 C406 C 0.61225 0.78282 -0.05609
 C407 C 0.64537 0.75908 -0.10065
 C408 C 0.56274 0.75510 -0.03639
 H409 H 0.60158 0.70953 -0.09488
 H410 H 0.55282 0.70795 -0.05877
 H411 H 0.57959 0.80276 -0.01981
 H412 H 0.62840 0.80408 -0.05571
 C413 C 0.38292 0.23276 -0.07707
 C414 C 0.40561 0.20675 -0.07646
 C415 C 0.43331 0.20827 -0.05620
 C416 C 0.33394 0.23108 -0.11976
 C417 C 0.41533 0.26150 -0.03630
 C418 C 0.38764 0.26001 -0.05672
 C419 C 0.35587 0.23202 -0.09986
 C420 C 0.43855 0.23577 -0.03617
 H421 H 0.40222 0.18558 -0.09212
 H422 H 0.45090 0.18816 -0.05636
 H423 H 0.41911 0.28307 -0.02129
 H424 H 0.37032 0.28036 -0.05715
 C425 C 0.38452 0.76839 0.07723
 C426 C 0.38909 0.74123 0.05670
 C427 C 0.41661 0.73981 0.03591
 C428 C 0.33608 0.76970 0.12081
 C429 C 0.43463 0.79301 0.05569
 C430 C 0.40711 0.79445 0.07633
 C431 C 0.35778 0.76895 0.10054
 C432 C 0.43982 0.76552 0.03559
 H433 H 0.37184 0.72085 0.05733
 H434 H 0.42037 0.71823 0.02090
 H435 H 0.45223 0.81309 0.05576
 H436 H 0.40384 0.81556 0.09212
 C437 C 0.61627 0.24137 0.07788
 C438 C 0.59520 0.26871 0.07870
 C439 C 0.56748 0.27000 0.05833
 C440 C 0.66568 0.23640 0.11990
 C441 C 0.58220 0.21689 0.03576
 C442 C 0.60986 0.21560 0.05618
 C443 C 0.64342 0.23892 0.10048
 C444 C 0.56066 0.24402 0.03680
 H445 H 0.59983 0.28871 0.09553
 H446 H 0.55110 0.29106 0.05962
 H447 H 0.57707 0.19629 0.01984
 H448 H 0.62582 0.19418 0.05559
 C449 C -0.07722 0.61736 0.75881
 C450 C -0.05572 0.61092 0.78489
 C451 C -0.03552 0.58300 0.78443
 C452 C -0.11944 0.66693 0.76254
 C453 C -0.05781 0.56816 0.73144
 C454 C -0.07798 0.59612 0.73192
 C455 C -0.09986 0.64464 0.76055
 C456 C -0.03660 0.56125 0.75781
 H457 H -0.05512 0.62706 0.80593
 H458 H -0.01977 0.57786 0.80525
 H459 H -0.05904 0.55167 0.71072
 H460 H -0.09461 0.60082 0.71165
 C461 C -0.07748 0.38335 0.23568
 C462 C -0.08128 0.40572 0.26136
 C463 C -0.06154 0.43388 0.26266
 C464 C -0.11836 0.33282 0.23146
 C465 C -0.03363 0.41714 0.21284
 C466 C -0.05343 0.38896 0.21155
 C467 C -0.09933 0.35554 0.23340
 C468 C -0.03771 0.43993 0.23830
 H469 H -0.09984 0.40164 0.28012
 H470 H -0.06497 0.45109 0.28254
 H471 H -0.01562 0.42151 0.19365
 H472 H -0.05038 0.37188 0.19148
 C473 C 0.07612 0.38241 0.76886
 C474 C 0.05511 0.38782 0.74213
 C475 C 0.03464 0.41559 0.74133
 C476 C 0.11924 0.33345 0.76902
 C477 C 0.05574 0.43226 0.79425
 C478 C 0.07607 0.40447 0.79508
 C479 C 0.09912 0.35536 0.76878
 C480 C 0.03508 0.43822 0.76725
 H481 H 0.05512 0.37103 0.72161
 H482 H 0.01923 0.41998 0.72009
 H483 H 0.05645 0.44941 0.81446
 H484 H 0.09227 0.40056 0.81585
 C485 C 0.07762 0.61736 0.23534
 C486 C 0.05385 0.61241 0.21094
 C487 C 0.03295 0.58498 0.21247
 C488 C 0.12057 0.66633 0.23151
 C489 C 0.05919 0.56776 0.26309
 C490 C 0.07997 0.59516 0.26157
 C491 C 0.10060 0.64433 0.23301
 C492 C 0.03569 0.56228 0.23843
 H493 H 0.05194 0.62933 0.19042
 H494 H 0.01532 0.58095 0.19298
 H495 H 0.06174 0.55052 0.28328
 H496 H 0.09829 0.59872 0.28055
 C497 C 0.76282 -0.07434 0.61867
 C498 C 0.78721 -0.05061 0.61259
 C499 C 0.78567 -0.03102 0.58432
 C500 C 0.76793 -0.11560 0.66875
 C501 C 0.73507 -0.05851 0.56844
 C502 C 0.73661 -0.07802 0.59669
 C503 C 0.76556 -0.09630 0.64633
 C504 C 0.75968 -0.03500 0.56191
 H505 H 0.80775 -0.04775 0.62932
 H506 H 0.80515 -0.01335 0.57953
 H507 H 0.71487 -0.06198 0.55144
 H508 H 0.71770 -0.09641 0.60106
 C509 C 0.23362 -0.07763 0.38480
 C510 C 0.20742 -0.07760 0.40724
 C511 C 0.20864 -0.05748 0.43485
 C512 C 0.23235 -0.11969 0.33559
 C513 C 0.26199 -0.03664 0.41732
 C514 C 0.26080 -0.05690 0.38972
 C515 C 0.23312 -0.10012 0.35767
 C516 C 0.23602 -0.03699 0.44024
 H517 H 0.18628 -0.09353 0.40369
 H518 H 0.18835 -0.05806 0.45220
 H519 H 0.28351 -0.02132 0.42123
 H520 H 0.28129 -0.05685 0.37260
 C521 C 0.76204 0.07568 0.38193
 C522 C 0.73603 0.07938 0.40426
 C523 C 0.73458 0.05964 0.43235
 C524 C 0.76684 0.11715 0.33197
 C525 C 0.78484 0.03184 0.41560
 C526 C 0.78628 0.05166 0.38747
 C527 C 0.76465 0.09780 0.35438
 C528 C 0.75908 0.03587 0.43839
 H529 H 0.71721 0.09796 0.40027
 H530 H 0.71457 0.06316 0.44965
 H531 H 0.80425 0.01400 0.42002
 H532 H 0.80663 0.04874 0.37044
 C533 C 0.23997 0.07870 0.61546
 C534 C 0.21406 0.05682 0.60917
 C535 C 0.21552 0.03607 0.58199
 C536 C 0.23528 0.12108 0.66422
 C537 C 0.26908 0.05865 0.56755
 C538 C 0.26762 0.07934 0.59478
 C539 C 0.23751 0.10152 0.64221
 C540 C 0.24297 0.03695 0.56085
 H541 H 0.19244 0.05629 0.62487
 H542 H 0.19482 0.02001 0.57693
 H543 H 0.29038 0.05982 0.55146
 H544 H 0.28777 0.09624 0.59936
   
