data_POSCAR
  _audit_creation_date              2014-09-24
  _audit_creation_method            'ToBaCCo'
  _symmetry_space_group_name_H-M    'P1'
  _symmetry_Int_Tables_number       1
  _symmetry_cell_setting            triclinic
  loop_
  _symmetry_equiv_pos_as_xyz
 x,y,z
_cell_length_a 24.5712
_cell_length_b 25.5396
_cell_length_c 23.9735
_cell_angle_alpha 90.146500
_cell_angle_beta 90.313900
_cell_angle_gamma 89.195100
loop_
  _atom_site_label
  _atom_site_type_symbol
  _atom_site_fract_x
  _atom_site_fract_y
  _atom_site_fract_z
O1 O 0.52885 0.11695 0.00483
 O2 O 0.46108 -0.03816 -0.10320
 O3 O 0.60407 0.01967 -0.06756
 O4 O 0.37781 0.04714 0.02634
 O5 O 0.55978 -0.05114 -0.09147
 O6 O 0.43884 0.09854 0.00419
 O7 O 0.41930 0.02752 -0.06735
 O8 O 0.60607 0.07962 0.01598
 C9 C 0.57868 0.11920 0.00452
 C10 C 0.43089 0.00116 -0.10911
 C11 C 0.59289 -0.01496 -0.10260
 C12 C 0.39042 0.09256 0.01534
 O13 O 0.44870 0.04324 0.10393
 O14 O 0.53925 -0.10336 0.00572
 O15 O 0.60242 0.00069 0.08167
 O16 O 0.36984 -0.04534 -0.01697
 O17 O 0.44317 -0.09351 -0.00790
 O18 O 0.54620 0.06516 0.10397
 O19 O 0.42478 -0.03215 0.07011
 O20 O 0.61257 -0.05955 -0.00097
 Co21 Co 0.49157 0.07498 0.05066
 Co22 Co 0.50124 -0.06450 -0.04476
 Co23 Co 0.59656 0.00977 0.00681
 Co24 Co 0.42556 -0.00331 0.00052
 O25 O 0.50697 0.00691 0.00397
 C26 C 0.42848 -0.00155 0.11076
 C27 C 0.58938 -0.10135 0.00907
 C28 C 0.58382 0.03265 0.11659
 C29 C 0.39248 -0.09127 -0.01842
 O30 O -0.12667 0.47023 -0.01837
 O31 O 0.03231 0.53969 0.10293
 O32 O -0.02605 0.40529 0.07369
 O33 O -0.05000 0.61546 -0.03228
 O34 O 0.04896 0.44502 0.09512
 O35 O -0.10653 0.55731 -0.01627
 O36 O -0.03600 0.57638 0.06268
 O37 O -0.08489 0.39643 -0.01066
 C38 C -0.12765 0.42260 -0.01114
 C39 C -0.00967 0.56781 0.10584
 C40 C 0.01015 0.41570 0.10815
 C41 C -0.09812 0.60398 -0.02539
 O42 O -0.04055 0.54642 -0.10959
 O43 O 0.10332 0.46256 -0.00241
 O44 O -0.00192 0.39461 -0.07437
 O45 O 0.04206 0.62449 0.01654
 O46 O 0.09392 0.55514 0.01040
 O47 O -0.06321 0.45056 -0.10825
 O48 O 0.03475 0.56934 -0.06936
 O49 O 0.05904 0.39214 0.00986
 Co50 Co -0.07765 0.50544 -0.05879
 Co51 Co 0.06230 0.49978 0.04677
 Co52 Co -0.01288 0.40630 -0.00045
 Co53 Co 0.00026 0.56972 -0.00221
 O54 O -0.01029 0.49185 -0.00460
 C55 C 0.00597 0.56673 -0.11224
 C56 C 0.10134 0.41424 -0.00447
 C57 C -0.03185 0.41081 -0.11353
 C58 C 0.09026 0.60398 0.01995
 O59 O -0.00111 -0.11633 0.44790
 O60 O 0.10607 0.04702 0.54721
 O61 O 0.07787 -0.02961 0.41027
 O62 O 0.00539 -0.06396 0.62145
 O63 O 0.10389 0.04215 0.44623
 O64 O 0.00325 -0.11777 0.55071
 O65 O 0.08740 -0.02575 0.58357
 O66 O -0.01024 -0.06322 0.37847
 C67 C -0.00592 -0.10896 0.39670
 C68 C 0.12142 0.00781 0.57393
 C69 C 0.11484 0.00149 0.41908
 C70 C 0.00900 -0.10959 0.60195
 O71 O -0.08772 -0.05980 0.55786
 O72 O 0.00337 0.08559 0.44357
 O73 O -0.06316 0.01543 0.41242
 O74 O 0.02879 0.04777 0.63182
 O75 O 0.00562 0.08773 0.55196
 O76 O -0.09337 -0.05733 0.45021
 O77 O -0.05583 0.01266 0.59517
 O78 O 0.01897 0.04357 0.36367
 Co79 Co -0.04045 -0.08196 0.50137
 Co80 Co 0.05053 0.05905 0.49733
 Co81 Co 0.00923 -0.00465 0.41706
 Co82 Co 0.01686 -0.00393 0.58243
 O83 O 0.00936 -0.01532 0.49991
 C84 C -0.09332 -0.02034 0.58980
 C85 C 0.01326 0.08779 0.39103
 C86 C -0.10120 -0.01627 0.42087
 C87 C 0.01664 0.09072 0.60448
 C88 C 0.60482 0.16826 -0.00259
 C89 C 0.62869 0.20888 -0.00563
 C90 C 0.66005 0.25573 -0.00654
 C91 C 0.68048 0.27433 -0.05701
 C92 C 0.71806 0.31483 -0.05678
 C93 C 0.73524 0.33670 -0.00612
 C94 C 0.71301 0.31966 0.04416
 C95 C 0.67536 0.27921 0.04393
 C96 C 0.78094 0.37091 -0.00553
 C97 C 0.82171 0.39630 -0.00674
 H98 H 0.66927 0.25602 -0.09616
 H99 H 0.73564 0.32734 -0.09582
 H100 H 0.72663 0.33586 0.08356
 H101 H 0.66013 0.26466 0.08321
 C102 C 0.35955 0.86299 -0.01564
 C103 C 0.33066 0.82550 -0.01166
 C104 C 0.29462 0.78208 -0.00554
 C105 C 0.28108 0.76448 0.04788
 C106 C 0.24261 0.72515 0.05423
 C107 C 0.21761 0.70328 0.00718
 C108 C 0.23198 0.72011 -0.04628
 C109 C 0.27043 0.75945 -0.05263
 C110 C 0.17451 0.66635 0.01357
 C111 C 0.13684 0.63696 0.01754
 H112 H 0.29931 0.78199 0.08458
 H113 H 0.23147 0.71269 0.09575
 H114 H 0.21254 0.70372 -0.08292
 H115 H 0.28036 0.77302 -0.09409
 C116 C 0.35185 0.13463 0.00908
 C117 C 0.32243 0.17224 0.00271
 C118 C 0.28958 0.21864 -0.00512
 C119 C 0.29859 0.26271 0.02841
 C120 C 0.26598 0.30757 0.02196
 C121 C 0.22448 0.30863 -0.01830
 C122 C 0.21637 0.26501 -0.05280
 C123 C 0.24900 0.22012 -0.04635
 C124 C 0.18508 0.35068 -0.01818
 C125 C 0.14868 0.38246 -0.01427
 H126 H 0.33009 0.26202 0.06022
 H127 H 0.27191 0.34069 0.04956
 H128 H 0.18371 0.26507 -0.08335
 H129 H 0.24193 0.18633 -0.07268
 C130 C 0.62204 0.85228 0.01581
 C131 C 0.65355 0.81580 0.01705
 C132 C 0.69451 0.77521 0.01412
 C133 C 0.74109 0.77805 0.04792
 C134 C 0.78457 0.74306 0.03957
 C135 C 0.78172 0.70535 -0.00284
 C136 C 0.73471 0.70181 -0.03586
 C137 C 0.69124 0.73677 -0.02750
 C138 C 0.82672 0.66996 -0.01222
 C139 C 0.86356 0.63912 -0.01934
 H140 H 0.74438 0.80818 0.07962
 H141 H 0.82066 0.74593 0.06551
 H142 H 0.73203 0.67261 -0.06859
 H143 H 0.65579 0.73479 -0.05446
 C144 C -0.02082 0.59802 0.15493
 C145 C -0.02584 0.62905 0.19253
 C146 C -0.02750 0.67066 0.23305
 C147 C -0.06465 0.71232 0.22622
 C148 C -0.06025 0.75731 0.25923
 C149 C -0.01845 0.76098 0.29897
 C150 C 0.01783 0.71879 0.30682
 C151 C 0.01343 0.67380 0.27381
 C152 C -0.01273 0.80796 0.33162
 C153 C -0.00868 0.84667 0.36012
 H154 H -0.09578 0.71078 0.19408
 H155 H -0.08865 0.78962 0.25295
 H156 H 0.05018 0.72114 0.33758
 H157 H 0.04305 0.64230 0.27871
 C158 C -0.03097 0.38419 0.84009
 C159 C -0.02854 0.35522 0.80037
 C160 C -0.02372 0.31598 0.75741
 C161 C 0.02708 0.30551 0.73318
 C162 C 0.03441 0.26145 0.69911
 C163 C -0.00896 0.22755 0.68926
 C164 C -0.06022 0.23896 0.71195
 C165 C -0.06756 0.28302 0.74602
 C166 C -0.00008 0.17958 0.65874
 C167 C 0.00757 0.13900 0.63397
 H168 H 0.06151 0.33016 0.74247
 H169 H 0.07428 0.25291 0.68196
 H170 H -0.09399 0.21291 0.70479
 H171 H -0.10676 0.29017 0.76530
 C172 C 0.01177 0.38616 0.15892
 C173 C 0.01220 0.35642 0.19790
 C174 C 0.01195 0.31644 0.24012
 C175 C 0.06107 0.29328 0.25786
 C176 C 0.06064 0.24864 0.29154
 C177 C 0.01108 0.22681 0.30747
 C178 C -0.03804 0.25091 0.29120
 C179 C -0.03760 0.29557 0.25753
 C180 C 0.01078 0.17814 0.33766
 C181 C 0.01131 0.13691 0.36209
 H182 H 0.09961 0.30851 0.24393
 H183 H 0.09887 0.23022 0.30370
 H184 H -0.07659 0.23427 0.30306
 H185 H -0.07584 0.31260 0.24333
 C186 C 0.02053 0.59682 0.83986
 C187 C 0.02922 0.62789 0.80331
 C188 C 0.03553 0.66969 0.76379
 C189 C 0.00412 0.67070 0.71488
 C190 C 0.00248 0.71567 0.68169
 C191 C 0.03200 0.75998 0.69737
 C192 C 0.06484 0.75841 0.74529
 C193 C 0.06653 0.71339 0.77847
 C194 C 0.02610 0.80755 0.66562
 C195 C 0.01919 0.84639 0.63779
 H196 H -0.02080 0.63759 0.70363
 H197 H -0.02316 0.71648 0.64478
 H198 H 0.08772 0.79244 0.75792
 H199 H 0.09019 0.71345 0.81674
 C200 C 0.40450 0.01102 0.83827
 C201 C 0.37845 0.01503 0.79562
 C202 C 0.34351 0.01596 0.74707
 C203 C 0.31248 0.06085 0.73444
 C204 C 0.27197 0.05890 0.69322
 C205 C 0.26212 0.01203 0.66448
 C206 C 0.29447 -0.03234 0.67569
 C207 C 0.33505 -0.03036 0.71685
 C208 C 0.21511 0.00834 0.62845
 C209 C 0.17349 0.00674 0.60151
 H210 H 0.31800 0.09666 0.75800
 H211 H 0.24684 0.09332 0.68539
 H212 H 0.28690 -0.06895 0.65428
 H213 H 0.35821 -0.06556 0.72677
 C214 C 0.60912 0.03353 0.17069
 C215 C 0.63518 0.03178 0.21346
 C216 C 0.67106 0.02724 0.26100
 C217 C 0.67819 -0.02136 0.28732
 C218 C 0.72042 -0.02890 0.32601
 C219 C 0.75579 0.01211 0.33855
 C220 C 0.74721 0.06134 0.31406
 C221 C 0.70499 0.06888 0.27535
 C222 C 0.80432 0.00217 0.37109
 C223 C 0.84665 -0.00634 0.39539
 H224 H 0.65283 -0.05410 0.27591
 H225 H 0.72698 -0.06728 0.34418
 H226 H 0.77463 0.09319 0.32294
 H227 H 0.70052 0.10636 0.25464
 C228 C 0.40156 -0.01312 0.16230
 C229 C 0.37472 -0.01894 0.20385
 C230 C 0.33862 -0.02207 0.25101
 C231 C 0.30041 -0.06221 0.25380
 C232 C 0.25905 -0.06017 0.29376
 C233 C 0.25553 -0.01794 0.33113
 C234 C 0.29497 0.02115 0.32975
 C235 C 0.33636 0.01909 0.28982
 C236 C 0.20818 -0.01177 0.36610
 C237 C 0.16661 -0.00590 0.39223
 H238 H 0.30111 -0.09380 0.22355
 H239 H 0.22849 -0.09034 0.29392
 H240 H 0.29240 0.05431 0.35792
 H241 H 0.36508 0.05081 0.28760
 C242 C 0.61981 -0.01563 0.85070
 C243 C 0.64807 -0.01502 0.80968
 C244 C 0.68560 -0.01323 0.76375
 C245 C 0.71062 0.03407 0.75028
 C246 C 0.75260 0.03488 0.71107
 C247 C 0.76980 -0.01165 0.68512
 C248 C 0.74368 -0.05869 0.69736
 C249 C 0.70174 -0.05950 0.73661
 C250 C 0.81692 -0.01217 0.64954
 C251 C 0.85747 -0.01452 0.62142
 H252 H 0.69897 0.07000 0.77149
 H253 H 0.77273 0.07140 0.70232
 H254 H 0.75691 -0.09499 0.67789
 H255 H 0.68323 -0.09641 0.74714
   
