data_POSCAR
  _audit_creation_date              2014-09-24
  _audit_creation_method            'ToBaCCo'
  _symmetry_space_group_name_H-M    'P1'
  _symmetry_Int_Tables_number       1
  _symmetry_cell_setting            triclinic
  loop_
  _symmetry_equiv_pos_as_xyz
 x,y,z
_cell_length_a 46.5989
_cell_length_b 42.6954
_cell_length_c 42.2622
_cell_angle_alpha 89.993200
_cell_angle_beta 89.944900
_cell_angle_gamma 90.195300
loop_
  _atom_site_label
  _atom_site_type_symbol
  _atom_site_fract_x
  _atom_site_fract_y
  _atom_site_fract_z
C1 C 1.25155 0.24717 0.24849
 C2 C 0.74959 -0.25075 0.25459
 C3 C 0.75194 0.25134 -0.25234
 C4 C 1.25065 -0.24848 -0.24716
 C5 C 0.24994 0.24865 0.75110
 C6 C 0.75097 0.74912 0.74523
 C7 C 0.75053 0.25107 0.25209
 C8 C 0.25202 0.75362 0.24728
 N9 N 1.02771 -0.03481 -0.05508
 N10 N 1.04739 -0.04115 -0.07662
 N11 N 0.96677 -0.05613 -0.03336
 N12 N 0.94714 -0.07760 -0.03973
 N13 N 0.96744 -0.03469 -0.05565
 N14 N 0.94836 -0.04106 -0.07782
 N15 N 1.02706 -0.05673 -0.03327
 N16 N 1.04623 -0.07858 -0.03941
 C17 C 1.05893 -0.06836 -0.06630
 C18 C 0.93565 -0.06766 -0.06735
 N19 N 0.96743 -0.03450 0.05720
 N20 N 0.94817 -0.04066 0.07928
 N21 N 1.02709 -0.05668 0.03489
 N22 N 1.04622 -0.07857 0.04113
 N23 N 1.02773 -0.03470 0.05662
 N24 N 1.04736 -0.04105 0.07822
 N25 N 0.96677 -0.05599 0.03498
 N26 N 0.94695 -0.07728 0.04127
 Mn27 Mn 0.99686 -0.05667 0.00081
 C28 C 0.93538 -0.06719 0.06880
 C29 C 1.05888 -0.06833 0.06802
 N30 N 0.96763 0.03283 -0.05583
 N31 N 0.94858 0.03916 -0.07800
 N32 N 1.02744 0.05490 -0.03353
 N33 N 1.04652 0.07692 -0.03993
 N34 N 1.02794 0.03293 -0.05527
 N35 N 1.04743 0.03941 -0.07704
 N36 N 0.96714 0.05433 -0.03361
 N37 N 0.94768 0.07582 -0.04003
 Mn38 Mn 0.99774 -0.00094 -0.05575
 C39 C 0.93609 0.06583 -0.06761
 C40 C 1.05903 0.06673 -0.06691
 N41 N 1.02792 0.03306 0.05641
 N42 N 1.04760 0.03943 0.07795
 N43 N 0.96712 0.05439 0.03472
 N44 N 0.94748 0.07575 0.04090
 N45 N 0.96764 0.03302 0.05707
 N46 N 0.94844 0.03936 0.07913
 N47 N 1.02742 0.05498 0.03460
 N48 N 1.04670 0.07685 0.04074
 Mn49 Mn 0.99774 -0.00078 0.05713
 Mn50 Mn 0.99722 0.05492 0.00055
 Cl51 Cl 0.99740 -0.00087 0.00068
 C52 C 1.05930 0.06664 0.06763
 C53 C 0.93583 0.06586 0.06850
 N54 N 0.97541 0.53456 0.44147
 N55 N 0.95599 0.54050 0.41957
 N56 N 1.03515 0.55670 0.46433
 N57 N 1.05413 0.57885 0.45789
 N58 N 1.03575 0.53476 0.44254
 N59 N 1.05527 0.54133 0.42082
 N60 N 0.97485 0.55608 0.46367
 N61 N 0.95500 0.57719 0.45752
 C62 C 0.94328 0.56699 0.43010
 C63 C 1.06675 0.56872 0.43092
 N64 N 1.03439 0.53446 0.55445
 N65 N 1.05377 0.54062 0.57637
 N66 N 0.97406 0.55602 0.53198
 N67 N 0.95451 0.57749 0.53818
 N68 N 0.97409 0.53435 0.55404
 N69 N 0.95462 0.54051 0.57585
 N70 N 1.03435 0.55644 0.53269
 N71 N 1.05361 0.57821 0.53930
 Mn72 Mn 1.00458 0.55660 0.49817
 C73 C 1.06575 0.56780 0.56640
 C74 C 0.94238 0.56728 0.56543
 N75 N 1.03563 0.46713 0.44252
 N76 N 1.05538 0.46089 0.42101
 N77 N 0.97472 0.44539 0.46352
 N78 N 0.95498 0.42406 0.45714
 N79 N 0.97533 0.46699 0.44139
 N80 N 0.95607 0.46088 0.41931
 N81 N 1.03499 0.44518 0.46430
 N82 N 1.05420 0.42338 0.45813
 Mn83 Mn 1.00557 0.50086 0.44168
 C84 C 1.06695 0.43371 0.43130
 C85 C 0.94337 0.43422 0.42967
 N86 N 0.97385 0.46685 0.55387
 N87 N 0.95409 0.46067 0.57543
 N88 N 1.03421 0.44502 0.53254
 N89 N 1.05333 0.42323 0.53912
 N90 N 1.03428 0.46687 0.55440
 N91 N 1.05355 0.46061 0.57639
 N92 N 0.97399 0.44511 0.53188
 N93 N 0.95448 0.42344 0.53802
 Mn94 Mn 1.00418 0.50063 0.55448
 Mn95 Mn 1.00445 0.44490 0.49805
 Cl96 Cl 1.00470 0.50075 0.49810
 C97 C 0.94203 0.43368 0.56503
 C98 C 1.06543 0.43349 0.56633
 N99 N 0.52946 -0.05525 0.53515
 N100 N 0.54927 -0.07655 0.54064
 N101 N 0.46985 -0.03280 0.55736
 N102 N 0.45031 -0.03864 0.57921
 N103 N 0.46920 -0.05435 0.53520
 N104 N 0.44914 -0.07540 0.54132
 N105 N 0.53011 -0.03334 0.55694
 N106 N 0.55042 -0.03914 0.57789
 C107 C 0.56228 -0.06604 0.56720
 C108 C 0.43740 -0.06507 0.56867
 N109 N 0.47032 0.05611 0.53500
 N110 N 0.45055 0.07739 0.54095
 N111 N 0.53072 0.03429 0.55691
 N112 N 0.55067 0.04019 0.57827
 N113 N 0.53068 0.05603 0.53493
 N114 N 0.55070 0.07722 0.54062
 N115 N 0.47050 0.03460 0.55722
 N116 N 0.45092 0.04068 0.57891
 Mn117 Mn 0.50034 0.00068 0.55743
 C118 C 0.43849 0.06724 0.56825
 C119 C 0.56311 0.06686 0.56757
 N120 N 0.46929 -0.05459 0.46692
 N121 N 0.44933 -0.07576 0.46076
 N122 N 0.53030 -0.03362 0.44531
 N123 N 0.55064 -0.03950 0.42439
 N124 N 0.52957 -0.05545 0.46717
 N125 N 0.54936 -0.07681 0.46176
 N126 N 0.47001 -0.03312 0.44468
 N127 N 0.45060 -0.03911 0.42276
 Mn128 Mn 0.49932 -0.05522 0.50112
 C129 C 0.43769 -0.06557 0.43330
 C130 C 0.56245 -0.06638 0.43518
 N131 N 0.53071 0.05587 0.46691
 N132 N 0.55065 0.07712 0.46115
 N133 N 0.47073 0.03430 0.44461
 N134 N 0.45117 0.04018 0.42289
 N135 N 0.47044 0.05591 0.46672
 N136 N 0.45061 0.07709 0.46066
 N137 N 0.53098 0.03395 0.44512
 N138 N 0.55115 0.03969 0.42391
 Mn139 Mn 0.50048 0.05630 0.50089
 Mn140 Mn 0.50056 0.00038 0.44460
 Cl141 Cl 0.50016 0.00054 0.50101
 C142 C 0.56337 0.06654 0.43445
 C143 C 0.43864 0.06675 0.43341
 N144 N 0.55114 0.53416 0.03361
 N145 N 0.57178 0.55422 0.04050
 N146 N 0.53227 0.46831 0.05645
 N147 N 0.53929 0.44842 0.07912
 N148 N 0.55198 0.46856 0.03419
 N149 N 0.57289 0.44902 0.04115
 N150 N 0.53136 0.53417 0.05579
 N151 N 0.53808 0.55435 0.07834
 C152 C 0.56314 0.56698 0.06814
 C153 C 0.56451 0.43630 0.06895
 N154 N 0.45070 0.46632 0.03390
 N155 N 0.43092 0.44506 0.04020
 N156 N 0.46915 0.53294 0.05573
 N157 N 0.46196 0.55325 0.07798
 N158 N 0.44948 0.53209 0.03349
 N159 N 0.42849 0.55172 0.03998
 N160 N 0.47014 0.46713 0.05637
 N161 N 0.46393 0.44655 0.07873
 Mn162 Mn 0.50073 0.50066 0.05640
 C163 C 0.43962 0.43270 0.06801
 C164 C 0.43673 0.56506 0.06753
 N165 N 0.55224 0.46796 -0.03401
 N166 N 0.57333 0.44856 -0.04076
 N167 N 0.53175 0.53320 -0.05680
 N168 N 0.53870 0.55292 -0.07972
 N169 N 0.55138 0.53359 -0.03450
 N170 N 0.57212 0.55344 -0.04165
 N171 N 0.53261 0.46733 -0.05631
 N172 N 0.53988 0.44732 -0.07879
 Mn173 Mn 0.55181 0.50106 -0.00017
 C174 C 0.56514 0.43551 -0.06846
 C175 C 0.56373 0.56568 -0.06960
 N176 N 0.44991 0.53166 -0.03460
 N177 N 0.42965 0.55225 -0.04082
 N178 N 0.47046 0.46618 -0.05651
 N179 N 0.46405 0.44564 -0.07884
 N180 N 0.45088 0.46580 -0.03413
 N181 N 0.43084 0.44484 -0.04046
 N182 N 0.46957 0.53188 -0.05690
 N183 N 0.46303 0.55247 -0.07907
 Mn184 Mn 0.45006 0.49895 -0.00035
 Mn185 Mn 0.50109 0.49965 -0.05694
 Cl186 Cl 0.50093 0.50009 -0.00026
 C187 C 0.43827 0.56525 -0.06842
 C188 C 0.43950 0.43221 -0.06817
 C189 C 1.19503 0.19210 0.19261
 N190 N 1.21149 0.17851 0.21519
 N191 N 1.22936 0.19569 0.23264
 C192 C 1.23156 0.22717 0.22821
 N193 N 1.21465 0.24076 0.20591
 N194 N 1.19687 0.22355 0.18834
 C195 C 1.17550 0.17304 0.17328
 N196 N 1.16125 0.18587 0.14848
 N197 N 1.14351 0.16852 0.13099
 C198 C 1.13930 0.13774 0.13774
 N199 N 1.15354 0.12493 0.16255
 N200 N 1.17138 0.14224 0.17994
 C201 C 1.11926 0.11881 0.11891
 N202 N 1.11222 0.08927 0.12802
 N203 N 1.09336 0.07244 0.11146
 C204 C 1.08102 0.08451 0.08508
 N205 N 1.08822 0.11394 0.07582
 N206 N 1.10697 0.13081 0.09246
 C207 C 1.19696 0.69395 0.69630
 N208 N 1.21474 0.68086 0.71799
 N209 N 1.23171 0.69877 0.73583
 C210 C 1.23153 0.73049 0.73272
 N211 N 1.21334 0.74348 0.71132
 N212 N 1.19652 0.72558 0.69337
 C213 C 1.17848 0.67439 0.67624
 N214 N 1.16385 0.68733 0.65179
 N215 N 1.14693 0.66978 0.63357
 C216 C 1.14390 0.63866 0.63922
 N217 N 1.15852 0.62567 0.66369
 N218 N 1.17560 0.64321 0.68181
 C219 C 1.12457 0.61964 0.61959
 N220 N 1.11778 0.58982 0.62799
 N221 N 1.09932 0.57308 0.61077
 C222 C 1.08717 0.58552 0.58446
 N223 N 1.09416 0.61521 0.57590
 N224 N 1.11248 0.63199 0.59320
 C225 C 0.70029 0.19226 0.69034
 N226 N 0.70486 0.18543 0.72127
 N227 N 0.72137 0.20386 0.73907
 C228 C 0.73421 0.22971 0.72658
 N229 N 0.72937 0.23663 0.69562
 N230 N 0.71279 0.21823 0.67784
 C231 C 0.68152 0.17231 0.67101
 N232 N 0.67488 0.18047 0.64085
 N233 N 0.65716 0.16280 0.62367
 C234 C 0.64551 0.13627 0.63599
 N235 N 0.65230 0.12801 0.66607
 N236 N 0.66996 0.14572 0.68327
 C237 C 0.62511 0.11744 0.61753
 N238 N 0.61402 0.09051 0.62960
 N239 N 0.59462 0.07407 0.61341
 C240 C 0.58558 0.08400 0.58461
 N241 N 0.59678 0.11081 0.57244
 N242 N 0.61623 0.12721 0.58859
 C243 C 0.69232 0.69449 0.19909
 N244 N 0.68210 0.71407 0.22166
 N245 N 0.70002 0.73111 0.23918
 C246 C 0.72894 0.72916 0.23505
 N247 N 0.73906 0.70926 0.21256
 N248 N 0.72112 0.69235 0.19487
 C249 C 0.67252 0.67625 0.17932
 N250 N 0.68232 0.66055 0.15359
 N251 N 0.66433 0.64423 0.13545
 C252 C 0.63591 0.64288 0.14245
 N253 N 0.62610 0.65850 0.16824
 N254 N 0.64407 0.67500 0.18627
 C255 C 0.61634 0.62436 0.12265
 N256 N 0.58896 0.61844 0.13205
 N257 N 0.57169 0.60057 0.11448
 C258 C 0.58115 0.58826 0.08677
 N259 N 0.60839 0.59446 0.07725
 N260 N 0.62569 0.61214 0.09488
 C261 C 0.80305 -0.19424 0.19655
 N262 N 0.80565 -0.19378 0.22851
 N263 N 0.78895 -0.21182 0.24653
 C264 C 0.76885 -0.23092 0.23334
 N265 N 0.76627 -0.23125 0.20128
 N266 N 0.78313 -0.21337 0.18324
 C267 C 0.82156 -0.17434 0.17683
 N268 N 0.82278 -0.17845 0.14500
 N269 N 0.83998 -0.16064 0.12728
 C270 C 0.85637 -0.13791 0.14073
 N271 N 0.85498 -0.13368 0.17252
 N272 N 0.83796 -0.15163 0.19026
 C273 C 0.87589 -0.11874 0.12146
 N274 N 0.88921 -0.09340 0.13421
 N275 N 0.90774 -0.07659 0.11716
 C276 C 0.91372 -0.08462 0.08682
 N277 N 0.90034 -0.10989 0.07399
 N278 N 0.88165 -0.12658 0.09098
 C279 C 0.80628 0.30841 0.69091
 N280 N 0.78841 0.32167 0.71243
 N281 N 0.77123 0.30391 0.73025
 C282 C 0.77135 0.27215 0.72743
 N283 N 0.78939 0.25903 0.70590
 N284 N 0.80642 0.27678 0.68796
 C285 C 0.82535 0.32784 0.67124
 N286 N 0.84034 0.31484 0.64705
 N287 N 0.85793 0.33224 0.62940
 C288 C 0.86133 0.36327 0.63539
 N289 N 0.84634 0.37630 0.65959
 N290 N 0.82859 0.35893 0.67713
 C291 C 0.88144 0.38214 0.61643
 N292 N 0.88845 0.41178 0.62527
 N293 N 0.90750 0.42839 0.60867
 C294 C 0.92008 0.41603 0.58253
 N295 N 0.91289 0.38652 0.57354
 N296 N 0.89397 0.36986 0.59022
 C297 C 0.30383 -0.19096 0.69553
 N298 N 0.30320 -0.18729 0.72741
 N299 N 0.28644 -0.20541 0.74527
 C300 C 0.26939 -0.22770 0.73194
 N301 N 0.27035 -0.23151 0.70000
 N302 N 0.28722 -0.21349 0.68215
 C303 C 0.32238 -0.17108 0.67593
 N304 N 0.32584 -0.17719 0.64463
 N305 N 0.34310 -0.15942 0.62697
 C306 C 0.35736 -0.13480 0.63993
 N307 N 0.35376 -0.12859 0.67117
 N308 N 0.33662 -0.14644 0.68887
 C309 C 0.37708 -0.11583 0.62078
 N310 N 0.38951 -0.08976 0.63310
 N311 N 0.40832 -0.07319 0.61620
 C312 C 0.41543 -0.08219 0.58643
 N313 N 0.40290 -0.10815 0.57401
 N314 N 0.38398 -0.12464 0.59087
 C315 C 0.31072 0.29917 0.19293
 N316 N 0.31147 0.30048 0.22498
 N317 N 0.29260 0.28437 0.24224
 C318 C 0.27222 0.26625 0.22816
 N319 N 0.27164 0.26491 0.19602
 N320 N 0.29042 0.28116 0.17875
 C321 C 0.33140 0.31713 0.17393
 N322 N 0.32848 0.31903 0.14204
 N323 N 0.34688 0.33590 0.12487
 C324 C 0.36899 0.35129 0.13893
 N325 N 0.37204 0.34921 0.17080
 N326 N 0.35355 0.33247 0.18799
 C327 C 0.38847 0.37096 0.12011
 N328 N 0.41195 0.38446 0.13349
 N329 N 0.42878 0.40353 0.11668
 C330 C 0.42263 0.40985 0.08595
 N331 N 0.39929 0.39620 0.07254
 N332 N 0.38257 0.37701 0.08928
 C333 C 0.80485 0.19375 -0.19506
 N334 N 0.78736 0.21530 -0.18155
 N335 N 0.77073 0.23346 -0.19937
 C336 C 0.77106 0.23104 -0.23147
 N337 N 0.78865 0.20940 -0.24487
 N338 N 0.80516 0.19111 -0.22705
 C339 C 0.82327 0.17372 -0.17547
 N340 N 0.83802 0.14966 -0.18867
 N341 N 0.85498 0.13167 -0.17102
 C342 C 0.85791 0.13717 -0.13955
 N343 N 0.84315 0.16123 -0.12634
 N344 N 0.82606 0.17911 -0.14396
 C345 C 0.87731 0.11790 -0.12034
 N346 N 0.88376 0.12619 -0.09014
 N347 N 0.90221 0.10935 -0.07316
 C348 C 0.91471 0.08349 -0.08569
 N349 N 0.90808 0.07503 -0.11577
 N350 N 0.88976 0.09197 -0.13281
 C351 C 0.80522 0.69132 0.30812
 N352 N 0.80145 0.68633 0.27668
 N353 N 0.78382 0.70443 0.25996
 C354 C 0.76902 0.72804 0.27405
 N355 N 0.77316 0.73312 0.30550
 N356 N 0.79084 0.71512 0.32218
 C357 C 0.82483 0.67169 0.32663
 N358 N 0.83035 0.67859 0.35738
 N359 N 0.84844 0.66115 0.37417
 C360 C 0.86158 0.63607 0.36087
 N361 N 0.85597 0.62905 0.33014
 N362 N 0.83794 0.64657 0.31331
 C363 C 0.88206 0.61738 0.37924
 N364 N 0.89407 0.59123 0.36672
 N365 N 0.91326 0.57484 0.38314
 C366 C 0.92117 0.58408 0.41261
 N367 N 0.90909 0.61014 0.42517
 N368 N 0.88983 0.62646 0.40881
 C369 C 0.30439 0.19042 0.30643
 N370 N 0.28798 0.21318 0.31954
 N371 N 0.27115 0.23090 0.30151
 C372 C 0.27003 0.22655 0.26964
 N373 N 0.28685 0.20401 0.25658
 N374 N 0.30357 0.18620 0.27463
 C375 C 0.32302 0.17096 0.32619
 N376 N 0.33704 0.14613 0.31351
 N377 N 0.35432 0.12868 0.33128
 C378 C 0.35829 0.13550 0.36234
 N379 N 0.34425 0.16031 0.37505
 N380 N 0.32684 0.17767 0.35730
 C381 C 0.37815 0.11690 0.38150
 N382 N 0.38545 0.12617 0.41116
 N383 N 0.40446 0.10993 0.42797
 C384 C 0.41668 0.08377 0.41575
 N385 N 0.40917 0.07435 0.38624
 N386 N 0.39028 0.09065 0.36938
 C387 C 0.30912 0.69864 -0.19207
 N388 N 0.28884 0.71644 -0.17773
 N389 N 0.27027 0.73296 -0.19485
 C390 C 0.27106 0.73211 -0.22701
 N391 N 0.29140 0.71419 -0.24125
 N392 N 0.31006 0.69782 -0.22414
 C393 C 0.32964 0.68047 -0.17324
 N394 N 0.35195 0.66565 -0.18741
 N395 N 0.37036 0.64881 -0.17038
 C396 C 0.36705 0.64610 -0.13858
 N397 N 0.34476 0.66097 -0.12441
 N398 N 0.32645 0.67794 -0.14141
 C399 C 0.38655 0.62645 -0.11995
 N400 N 0.38044 0.61967 -0.08930
 N401 N 0.39729 0.60061 -0.07275
 C402 C 0.42098 0.58783 -0.08616
 N403 N 0.42732 0.59486 -0.11671
 N404 N 0.41036 0.61379 -0.13334
 C405 C 1.19442 -0.19361 -0.19104
 N406 N 1.21110 -0.17994 -0.21346
 N407 N 1.22890 -0.19706 -0.23095
 C408 C 1.23081 -0.22857 -0.22673
 N409 N 1.21369 -0.24225 -0.20456
 N410 N 1.19597 -0.22509 -0.18694
 C411 C 1.17493 -0.17460 -0.17171
 N412 N 1.16046 -0.18749 -0.14701
 N413 N 1.14274 -0.17017 -0.12956
 C414 C 1.13878 -0.13937 -0.13625
 N415 N 1.15324 -0.12650 -0.16095
 N416 N 1.17105 -0.14378 -0.17831
 C417 C 1.11877 -0.12047 -0.11747
 N418 N 1.11193 -0.09092 -0.12658
 N419 N 1.09310 -0.07412 -0.11006
 C420 C 1.08059 -0.08620 -0.08373
 N421 N 1.08758 -0.11564 -0.07447
 N422 N 1.10630 -0.13249 -0.09107
 C423 C 1.19823 0.30567 0.30415
 N424 N 1.21617 0.31841 0.28230
 N425 N 1.23304 0.30019 0.26475
 C426 C 1.23259 0.26852 0.26833
 N427 N 1.21425 0.25588 0.28990
 N428 N 1.19752 0.27409 0.30756
 C429 C 1.17981 0.32557 0.32385
 N430 N 1.16489 0.31300 0.34838
 N431 N 1.14800 0.33084 0.36624
 C432 C 1.14530 0.36190 0.36015
 N433 N 1.16022 0.37451 0.33561
 N434 N 1.17726 0.35668 0.31784
 C435 C 1.12597 0.38121 0.37937
 N436 N 1.11956 0.41098 0.37060
 N437 N 1.10106 0.42795 0.38742
 C438 C 1.08847 0.41581 0.41370
 N439 N 1.09508 0.38618 0.42263
 N440 N 1.11345 0.36917 0.40573
 C441 C 0.69902 -0.19206 0.31333
 N442 N 0.71405 -0.17972 0.28878
 N443 N 0.73028 -0.19795 0.27057
 C444 C 0.73217 -0.22926 0.27620
 N445 N 0.71681 -0.24153 0.30065
 N446 N 0.70068 -0.22328 0.31893
 C447 C 0.68060 -0.17219 0.33296
 N448 N 0.66722 -0.18421 0.35880
 N449 N 0.64976 -0.16651 0.37612
 C450 C 0.64497 -0.13618 0.36817
 N451 N 0.65844 -0.12410 0.34239
 N452 N 0.67600 -0.14178 0.32513
 C453 C 0.62466 -0.11724 0.38643
 N454 N 0.61693 -0.08829 0.37633
 N455 N 0.59738 -0.07179 0.39214
 C456 C 0.58500 -0.08365 0.41865
 N457 N 0.59293 -0.11245 0.42892
 N458 N 0.61238 -0.12898 0.41306
 C459 C 0.69510 0.30663 -0.19697
 N460 N 0.72386 0.30786 -0.19200
 N461 N 0.74169 0.29066 -0.20947
 C462 C 0.73146 0.27128 -0.23243
 N463 N 0.70262 0.27038 -0.23744
 N464 N 0.68483 0.28769 -0.22011
 C465 C 0.67534 0.32528 -0.17754
 N466 N 0.64704 0.32695 -0.18501
 N467 N 0.62908 0.34379 -0.16737
 C468 C 0.63872 0.35938 -0.14146
 N469 N 0.66700 0.35763 -0.13395
 N470 N 0.68499 0.34094 -0.15169
 C471 C 0.61907 0.37821 -0.12207
 N472 N 0.62817 0.39084 -0.09437
 N473 N 0.61071 0.40857 -0.07707
 C474 C 0.58352 0.41442 -0.08685
 N475 N 0.57432 0.40173 -0.11451
 N476 N 0.59177 0.38383 -0.13176
 C477 C 1.19347 0.19331 -0.19302
 N478 N 1.19516 0.22478 -0.18877
 N479 N 1.21292 0.24208 -0.20634
 C480 C 1.22995 0.22857 -0.22862
 N481 N 1.22788 0.19708 -0.23302
 N482 N 1.21005 0.17981 -0.21557
 C483 C 1.17401 0.17413 -0.17363
 N484 N 1.17006 0.14329 -0.18026
 N485 N 1.15235 0.12586 -0.16278
 C486 C 1.13808 0.13856 -0.13791
 N487 N 1.14212 0.16937 -0.13120
 N488 N 1.15972 0.18685 -0.14878
 C489 C 1.11825 0.11946 -0.11890
 N490 N 1.10602 0.13136 -0.09235
 N491 N 1.08751 0.11431 -0.07551
 C492 C 1.08048 0.08480 -0.08466
 N493 N 1.09275 0.07284 -0.11115
 N494 N 1.11138 0.08984 -0.12792
 C495 C 1.19858 0.69651 0.30229
 N496 N 1.19648 0.72817 0.30344
 N497 N 1.21342 0.74616 0.28564
 C498 C 1.23342 0.73333 0.26602
 N499 N 1.23536 0.70147 0.26496
 N500 N 1.21825 0.68348 0.28263
 C501 C 1.17986 0.67683 0.32216
 N502 N 1.17834 0.64537 0.31767
 N503 N 1.16109 0.62773 0.33554
 C504 C 1.14491 0.64087 0.35874
 N505 N 1.14656 0.67229 0.36332
 N506 N 1.16365 0.68994 0.34531
 C507 C 1.12545 0.62162 0.37818
 N508 N 1.11233 0.63405 0.40397
 N509 N 1.09405 0.61698 0.42111
 C510 C 1.08810 0.58689 0.41301
 N511 N 1.10125 0.57440 0.38728
 N512 N 1.11969 0.59142 0.37025
 C513 C 0.69943 0.19234 0.31070
 N514 N 0.70139 0.22354 0.31639
 N515 N 0.71765 0.24180 0.29814
 C516 C 0.73287 0.22956 0.27363
 N517 N 0.73066 0.19828 0.26788
 N518 N 0.71429 0.18004 0.28607
 C519 C 0.68094 0.17246 0.33042
 N520 N 0.67604 0.14207 0.32259
 N521 N 0.65851 0.12436 0.34002
 C522 C 0.64538 0.13640 0.36599
 N523 N 0.65046 0.16671 0.37393
 N524 N 0.66788 0.18443 0.35644
 C525 C 0.62518 0.11743 0.38455
 N526 N 0.61337 0.12913 0.41141
 N527 N 0.59406 0.11258 0.42761
 C528 C 0.58581 0.08378 0.41750
 N529 N 0.59773 0.07194 0.39076
 N530 N 0.61713 0.08846 0.37459
 C531 C 0.69373 0.69332 -0.20009
 N532 N 0.72253 0.69134 -0.19575
 N533 N 0.74047 0.70858 -0.21317
 C534 C 0.73035 0.72867 -0.23548
 N535 N 0.70144 0.73045 -0.23972
 N536 N 0.68352 0.71308 -0.22248
 C537 C 0.67388 0.67474 -0.18059
 N538 N 0.64549 0.67338 -0.18774
 N539 N 0.62744 0.65670 -0.16990
 C540 C 0.63712 0.64100 -0.14412
 N541 N 0.66549 0.64244 -0.13694
 N542 N 0.68355 0.65894 -0.15488
 C543 C 0.61743 0.62245 -0.12440
 N544 N 0.62657 0.61041 -0.09648
 N545 N 0.60913 0.59289 -0.07882
 C546 C 0.58195 0.58664 -0.08845
 N547 N 0.57269 0.59874 -0.11633
 N548 N 0.59011 0.61646 -0.13394
 C549 C 0.80439 -0.19496 -0.19617
 N550 N 0.80687 -0.19401 -0.22814
 N551 N 0.79020 -0.21187 -0.24633
 C552 C 0.77023 -0.23128 -0.23332
 N553 N 0.76776 -0.23210 -0.20125
 N554 N 0.78459 -0.21440 -0.18303
 C555 C 0.82285 -0.17519 -0.17627
 N556 N 0.82411 -0.17961 -0.14448
 N557 N 0.84122 -0.16185 -0.12661
 C558 C 0.85748 -0.13888 -0.13986
 N559 N 0.85607 -0.13436 -0.17161
 N560 N 0.83914 -0.15224 -0.18949
 C561 C 0.87683 -0.11966 -0.12044
 N562 N 0.89002 -0.09414 -0.13303
 N563 N 0.90833 -0.07722 -0.11585
 C564 C 0.91424 -0.08531 -0.08551
 N565 N 0.90101 -0.11077 -0.07284
 N566 N 0.88254 -0.12758 -0.08997
 C567 C 0.80626 0.30897 0.30605
 N568 N 0.80247 0.31419 0.27465
 N569 N 0.78482 0.29610 0.25779
 C570 C 0.77002 0.27227 0.27170
 N571 N 0.77419 0.26696 0.30309
 N572 N 0.79188 0.28495 0.31992
 C573 C 0.82584 0.32864 0.32476
 N574 N 0.83130 0.32156 0.35548
 N575 N 0.84929 0.33907 0.37246
 C576 C 0.86240 0.36441 0.35940
 N577 N 0.85686 0.37158 0.32871
 N578 N 0.83893 0.35399 0.31168
 C579 C 0.88273 0.38323 0.37803
 N580 N 0.89469 0.40963 0.36576
 N581 N 0.91369 0.42618 0.38242
 C582 C 0.92146 0.41689 0.41190
 N583 N 0.90944 0.39058 0.42421
 N584 N 0.89037 0.37410 0.40761
 C585 C 0.30328 -0.19002 0.30563
 N586 N 0.30236 -0.18531 0.27392
 N587 N 0.28584 -0.20317 0.25559
 C588 C 0.26915 -0.22632 0.26816
 N589 N 0.27048 -0.23114 0.30004
 N590 N 0.28714 -0.21335 0.31836
 C591 C 0.32187 -0.17046 0.32561
 N592 N 0.32583 -0.17736 0.35667
 N593 N 0.34326 -0.15993 0.37448
 C594 C 0.35723 -0.13488 0.36191
 N595 N 0.35311 -0.12788 0.33092
 N596 N 0.33580 -0.14538 0.31309
 C597 C 0.37716 -0.11615 0.38113
 N598 N 0.38944 -0.08987 0.36902
 N599 N 0.40834 -0.07344 0.38592
 C600 C 0.41571 -0.08275 0.41550
 N601 N 0.40335 -0.10894 0.42771
 N602 N 0.38435 -0.12531 0.41086
 C603 C 0.30884 0.30095 -0.19333
 N604 N 0.30963 0.30226 -0.22539
 N605 N 0.29080 0.28612 -0.24264
 C606 C 0.27042 0.26796 -0.22857
 N607 N 0.26977 0.26665 -0.19641
 N608 N 0.28851 0.28293 -0.17915
 C609 C 0.32962 0.31877 -0.17433
 N610 N 0.32671 0.32065 -0.14243
 N611 N 0.34528 0.33725 -0.12525
 C612 C 0.36757 0.35239 -0.13932
 N613 N 0.37060 0.35034 -0.17120
 N614 N 0.35193 0.33387 -0.18840
 C615 C 0.38735 0.37166 -0.12045
 N616 N 0.41107 0.38473 -0.13380
 N617 N 0.42822 0.40339 -0.11694
 C618 C 0.42216 0.40973 -0.08618
 N619 N 0.39856 0.39651 -0.07280
 N620 N 0.38153 0.37773 -0.08959
 C621 C 1.19645 -0.19252 0.19165
 N622 N 1.19877 -0.22386 0.18705
 N623 N 1.21666 -0.24087 0.20459
 C624 C 1.23341 -0.22729 0.22724
 N625 N 1.23053 -0.19584 0.23195
 N626 N 1.21257 -0.17886 0.21453
 C627 C 1.17660 -0.17367 0.17250
 N628 N 1.17208 -0.14303 0.17948
 N629 N 1.15391 -0.12596 0.16238
 C630 C 1.13967 -0.13884 0.13754
 N631 N 1.14427 -0.16945 0.13048
 N632 N 1.16235 -0.18657 0.14767
 C633 C 1.11928 -0.12011 0.11896
 N634 N 1.10687 -0.13216 0.09255
 N635 N 1.08794 -0.11545 0.07608
 C636 C 1.08066 -0.08612 0.08546
 N637 N 1.09310 -0.07403 0.11182
 N638 N 1.11212 -0.09069 0.12821
 C639 C 1.19645 0.30653 0.69499
 N640 N 1.21416 0.31948 0.71691
 N641 N 1.23110 0.30146 0.73458
 C642 C 1.23096 0.26978 0.73105
 N643 N 1.21286 0.25693 0.70939
 N644 N 1.19607 0.27494 0.69162
 C645 C 1.17794 0.32623 0.67518
 N646 N 1.16330 0.31349 0.65056
 N647 N 1.14636 0.33115 0.63259
 C648 C 1.14331 0.36218 0.63865
 N649 N 1.15793 0.37494 0.66329
 N650 N 1.17503 0.35731 0.68117
 C651 C 1.12398 0.38131 0.61923
 N652 N 1.11724 0.41102 0.62791
 N653 N 1.09886 0.42786 0.61083
 C654 C 1.08672 0.41566 0.58435
 N655 N 1.09365 0.38608 0.57551
 N656 N 1.11190 0.36920 0.59267
 C657 C 0.69991 -0.19167 0.68760
 N658 N 0.70192 -0.22276 0.68141
 N659 N 0.71822 -0.24114 0.69932
 C660 C 0.73343 -0.22915 0.72399
 N661 N 0.73120 -0.19798 0.73021
 N662 N 0.71479 -0.17961 0.71236
 C663 C 0.68126 -0.17172 0.66834
 N664 N 0.67630 -0.14149 0.67664
 N665 N 0.65854 -0.12379 0.65967
 C666 C 0.64522 -0.13566 0.63373
 N667 N 0.65036 -0.16580 0.62531
 N668 N 0.66802 -0.18352 0.64234
 C669 C 0.62474 -0.11675 0.61569
 N670 N 0.61258 -0.12837 0.58897
 N671 N 0.59304 -0.11189 0.57324
 C672 C 0.58488 -0.08324 0.58371
 N673 N 0.59713 -0.07148 0.61032
 N674 N 0.61676 -0.08794 0.62602
 C675 C 0.69367 0.30647 0.19704
 N676 N 0.68333 0.28684 0.21958
 N677 N 0.70113 0.26952 0.23684
 C678 C 0.73004 0.27119 0.23249
 N679 N 0.74030 0.29109 0.20997
 N680 N 0.72248 0.30829 0.19254
 C681 C 0.67396 0.32524 0.17774
 N682 N 0.68374 0.34131 0.15219
 N683 N 0.66582 0.35815 0.13457
 C684 C 0.63748 0.35966 0.14191
 N685 N 0.62769 0.34366 0.16752
 N686 N 0.64560 0.32666 0.18504
 C687 C 0.61794 0.37864 0.12260
 N688 N 0.59063 0.38439 0.13227
 N689 N 0.57333 0.40243 0.11504
 C690 C 0.58268 0.41514 0.08743
 N691 N 0.60987 0.40915 0.07767
 N692 N 0.62719 0.39129 0.09495
 C693 C 0.80395 0.19432 0.19460
 N694 N 0.80631 0.19396 0.22658
 N695 N 0.78965 0.21209 0.24440
 C696 C 0.76980 0.23121 0.23100
 N697 N 0.76745 0.23147 0.19891
 N698 N 0.78428 0.21348 0.18106
 C699 C 0.82240 0.17422 0.17513
 N700 N 0.82385 0.17809 0.14327
 N701 N 0.84100 0.16008 0.12580
 C702 C 0.85712 0.13740 0.13954
 N703 N 0.85552 0.13343 0.17136
 N704 N 0.83854 0.15156 0.18883
 C705 C 0.87659 0.11801 0.12054
 N706 N 0.88971 0.09277 0.13358
 N707 N 0.90815 0.07576 0.11676
 C708 C 0.91427 0.08349 0.08634
 N709 N 0.90110 0.10865 0.07324
 N710 N 0.88250 0.12554 0.09000
 C711 C 0.80651 0.69214 0.69037
 N712 N 0.80245 0.68627 0.72162
 N713 N 0.78489 0.70409 0.73877
 C714 C 0.77043 0.72829 0.72531
 N715 N 0.77490 0.73427 0.69406
 N716 N 0.79251 0.71655 0.67694
 C717 C 0.82594 0.67269 0.67135
 N718 N 0.83172 0.68032 0.64081
 N719 N 0.84953 0.66293 0.62356
 C720 C 0.86212 0.63717 0.63616
 N721 N 0.85625 0.62945 0.66667
 N722 N 0.83851 0.64691 0.68397
 C723 C 0.88222 0.61839 0.61731
 N724 N 0.89358 0.59163 0.62922
 N725 N 0.91240 0.57507 0.61244
 C726 C 0.92060 0.58470 0.58318
 N727 N 0.90918 0.61138 0.57120
 N728 N 0.89028 0.62789 0.58793
 C729 C 0.30348 0.19186 0.69383
 N730 N 0.30248 0.18785 0.72565
 N731 N 0.28555 0.20569 0.74347
 C732 C 0.26869 0.22802 0.73016
 N733 N 0.26999 0.23216 0.69827
 N734 N 0.28703 0.21442 0.68046
 C735 C 0.32233 0.17232 0.67431
 N736 N 0.32631 0.17879 0.64316
 N737 N 0.34387 0.16133 0.62565
 C738 C 0.35792 0.13667 0.63863
 N739 N 0.35379 0.13011 0.66973
 N740 N 0.33636 0.14765 0.68727
 C741 C 0.37789 0.11792 0.61970
 N742 N 0.38999 0.09177 0.63206
 N743 N 0.40892 0.07530 0.61538
 C744 C 0.41651 0.08446 0.58579
 N745 N 0.40435 0.11053 0.57333
 N746 N 0.38530 0.12693 0.58997
 C747 C 0.30783 0.69888 0.19254
 N748 N 0.31773 0.71510 0.21786
 N749 N 0.30007 0.73267 0.23506
 C750 C 0.27163 0.73505 0.22772
 N751 N 0.26181 0.71814 0.20257
 N752 N 0.27952 0.70063 0.18526
 C753 C 0.32749 0.67965 0.17348
 N754 N 0.31830 0.66549 0.14656
 N755 N 0.33616 0.64810 0.12934
 C756 C 0.36386 0.64413 0.13843
 N757 N 0.37306 0.65826 0.16537
 N758 N 0.35523 0.67576 0.18253
 C759 C 0.38336 0.62446 0.11962
 N760 N 0.41018 0.61769 0.13015
 N761 N 0.42745 0.59911 0.11342
 C762 C 0.41854 0.58679 0.08547
 N763 N 0.39183 0.59375 0.07487
 N764 N 0.37456 0.61221 0.09162
   
