data_POSCAR
  _audit_creation_date              2014-09-24
  _audit_creation_method            'ToBaCCo'
  _symmetry_space_group_name_H-M    'P1'
  _symmetry_Int_Tables_number       1
  _symmetry_cell_setting            triclinic
  loop_
  _symmetry_equiv_pos_as_xyz
 x,y,z
_cell_length_a 20.6574
_cell_length_b 21.6601
_cell_length_c 20.6574
_cell_angle_alpha 90.000000
_cell_angle_beta 90.000000
_cell_angle_gamma 90.000000
loop_
  _atom_site_label
  _atom_site_type_symbol
  _atom_site_fract_x
  _atom_site_fract_y
  _atom_site_fract_z
Si1 Si 0.25000 0.24980 0.25000
 Si2 Si 0.75000 0.75000 0.25000
 Si3 Si 0.75000 0.25020 0.75000
 Si4 Si 0.25000 0.75000 0.75000
 C5 C 0.09134 0.09233 0.02271
 H6 H 0.09291 0.09501 -0.02957
 C7 C 0.12931 0.13215 0.05995
 H8 H 0.16054 0.16546 0.03640
 C9 C 0.04827 0.04613 0.11750
 H10 H 0.01592 0.01329 0.13984
 C11 C 0.08540 0.08509 0.15652
 H12 H 0.08210 0.08161 0.20874
 N13 N 0.05250 0.04984 0.05184
 C14 C 0.02599 -0.09580 -0.09199
 H15 H -0.02630 -0.09841 -0.09327
 C16 C 0.06294 -0.13540 -0.13051
 H17 H 0.03916 -0.16850 -0.16181
 C18 C 0.12109 -0.04990 -0.04927
 H19 H 0.14365 -0.01720 -0.01692
 C20 C 0.15983 -0.08865 -0.08697
 H21 H 0.21207 -0.08519 -0.08403
 Zn22 Zn 0.00181 -0.00178 -0.00207
 N23 N 0.05539 -0.05355 -0.05307
 C24 C -0.04605 0.04668 -0.12102
 N25 N -0.04895 0.05038 -0.05529
 C26 C -0.08709 0.09294 -0.02535
 C27 C -0.12582 0.13277 -0.06175
 C28 C -0.08400 0.08568 -0.15924
 C29 C -0.02289 -0.09596 0.08742
 C30 C -0.06010 -0.13501 0.12629
 C31 C -0.15668 -0.08742 0.08304
 C32 C -0.11770 -0.04923 0.04500
 N33 N -0.05203 -0.05349 0.04858
 H34 H -0.01432 0.01369 -0.14399
 H35 H -0.08766 0.09553 0.02695
 H36 H -0.15655 0.16607 -0.03753
 H37 H -0.08187 0.08216 -0.21151
 H38 H 0.02937 -0.09902 0.08854
 H39 H -0.03654 -0.16822 0.15764
 H40 H -0.20889 -0.08341 0.08036
 H41 H -0.14005 -0.01637 0.01269
 C42 C 0.13047 -0.13157 -0.12814
 C43 C 0.12644 0.12829 0.12745
 C44 C -0.12758 -0.13040 0.12429
 C45 C -0.12445 0.12885 -0.12928
 C46 C 0.09199 0.59580 0.52599
 H47 H 0.09327 0.59842 0.47370
 C48 C 0.13051 0.63540 0.56294
 H49 H 0.16181 0.66850 0.53916
 C50 C 0.04927 0.54990 0.62109
 H51 H 0.01692 0.51720 0.64365
 C52 C 0.08697 0.58865 0.65983
 H53 H 0.08403 0.58519 0.71207
 N54 N 0.05307 0.55355 0.55539
 C55 C 0.02535 0.40706 0.41291
 H56 H -0.02695 0.40448 0.41234
 C57 C 0.06175 0.36723 0.37418
 H58 H 0.03753 0.33393 0.34345
 C59 C 0.12102 0.45332 0.45395
 H60 H 0.14399 0.48631 0.48568
 C61 C 0.15924 0.41432 0.41600
 H62 H 0.21151 0.41784 0.41814
 Zn63 Zn 0.00207 0.50178 0.50181
 N64 N 0.05529 0.44962 0.45105
 C65 C -0.04500 0.54923 0.38230
 N66 N -0.04858 0.55349 0.44797
 C67 C -0.08742 0.59596 0.47711
 C68 C -0.12629 0.63501 0.43990
 C69 C -0.08304 0.58742 0.34332
 C70 C -0.02271 0.40768 0.59134
 C71 C -0.05995 0.36786 0.62931
 C72 C -0.15652 0.41491 0.58540
 C73 C -0.11750 0.45387 0.54826
 N74 N -0.05184 0.45016 0.55250
 H75 H -0.01269 0.51638 0.35995
 H76 H -0.08854 0.59902 0.52937
 H77 H -0.15764 0.66822 0.46346
 H78 H -0.08036 0.58341 0.29111
 H79 H 0.02957 0.40499 0.59291
 H80 H -0.03640 0.33454 0.66054
 H81 H -0.20874 0.41839 0.58210
 H82 H -0.13984 0.48671 0.51592
 C83 C 0.12928 0.37115 0.37555
 C84 C 0.12814 0.63157 0.63047
 C85 C -0.12745 0.37172 0.62644
 C86 C -0.12429 0.63040 0.37242
 C87 C 0.58709 0.09294 0.52535
 H88 H 0.58766 0.09553 0.47305
 C89 C 0.62582 0.13277 0.56175
 H90 H 0.65655 0.16607 0.53754
 C91 C 0.54605 0.04669 0.62102
 H92 H 0.51432 0.01369 0.64399
 C93 C 0.58400 0.08568 0.65924
 H94 H 0.58187 0.08216 0.71151
 N95 N 0.54895 0.05038 0.55529
 C96 C 0.52289 -0.09596 0.41258
 H97 H 0.47063 -0.09902 0.41146
 C98 C 0.56010 -0.13501 0.37371
 H99 H 0.53654 -0.16822 0.34236
 C100 C 0.61770 -0.04923 0.45500
 H101 H 0.64005 -0.01637 0.48731
 C102 C 0.65668 -0.08742 0.41697
 H103 H 0.70889 -0.08341 0.41964
 Zn104 Zn 0.49819 -0.00178 0.50207
 N105 N 0.55203 -0.05349 0.45143
 C106 C 0.45174 0.04613 0.38250
 N107 N 0.44750 0.04984 0.44816
 C108 C 0.40866 0.09233 0.47729
 C109 C 0.37069 0.13215 0.44006
 C110 C 0.41460 0.08510 0.34348
 C111 C 0.47402 -0.09580 0.59199
 C112 C 0.43706 -0.13539 0.63051
 C113 C 0.34017 -0.08865 0.58697
 C114 C 0.37891 -0.04990 0.54927
 N115 N 0.44461 -0.05355 0.55307
 H116 H 0.48408 0.01330 0.36016
 H117 H 0.40709 0.09501 0.52957
 H118 H 0.33946 0.16546 0.46360
 H119 H 0.41790 0.08161 0.29126
 H120 H 0.52630 -0.09841 0.59327
 H121 H 0.46084 -0.16850 0.66181
 H122 H 0.28793 -0.08519 0.58403
 H123 H 0.35635 -0.01720 0.51692
 C124 C 0.62758 -0.13040 0.37571
 C125 C 0.62445 0.12885 0.62929
 C126 C 0.36953 -0.13157 0.62814
 C127 C 0.37356 0.12829 0.37255
 C128 C 0.58742 0.59596 0.02289
 H129 H 0.58854 0.59902 -0.02937
 C130 C 0.62629 0.63501 0.06010
 H131 H 0.65764 0.66822 0.03654
 C132 C 0.54500 0.54923 0.11770
 H133 H 0.51269 0.51638 0.14005
 C134 C 0.58304 0.58742 0.15668
 H135 H 0.58036 0.58341 0.20889
 N136 N 0.54858 0.55349 0.05203
 C137 C 0.52271 0.40768 -0.09134
 H138 H 0.47043 0.40499 -0.09290
 C139 C 0.55995 0.36786 -0.12931
 H140 H 0.53640 0.33454 -0.16053
 C141 C 0.61750 0.45387 -0.04826
 H142 H 0.63984 0.48671 -0.01592
 C143 C 0.65652 0.41491 -0.08540
 H144 H 0.70874 0.41839 -0.08210
 Zn145 Zn 0.49793 0.50178 -0.00181
 N146 N 0.55184 0.45016 -0.05250
 C147 C 0.45073 0.54990 -0.12109
 N148 N 0.44693 0.55355 -0.05539
 C149 C 0.40801 0.59580 -0.02598
 C150 C 0.36949 0.63540 -0.06294
 C151 C 0.41303 0.58866 -0.15983
 C152 C 0.47465 0.40707 0.08709
 C153 C 0.43825 0.36723 0.12582
 C154 C 0.34076 0.41432 0.08400
 C155 C 0.37898 0.45332 0.04605
 N156 N 0.44471 0.44962 0.04896
 H157 H 0.48308 0.51720 -0.14364
 H158 H 0.40673 0.59842 0.02630
 H159 H 0.33819 0.66850 -0.03916
 H160 H 0.41597 0.58519 -0.21207
 H161 H 0.52695 0.40448 0.08766
 H162 H 0.46247 0.33393 0.15655
 H163 H 0.28849 0.41784 0.08187
 H164 H 0.35601 0.48631 0.01432
 C165 C 0.62745 0.37172 -0.12644
 C166 C 0.62429 0.63040 0.12758
 C167 C 0.37072 0.37115 0.12446
 C168 C 0.37186 0.63157 -0.13047
 C169 C 0.20258 -0.20404 -0.20170
 C170 C 0.16958 -0.17124 -0.16805
 C171 C 0.20029 0.29841 0.30131
 C172 C 0.16777 0.33133 0.33526
 C173 C 0.70001 -0.20169 0.30132
 C174 C 0.66691 -0.16936 0.33532
 C175 C 0.69996 0.29884 -0.19904
 C176 C 0.66682 0.33180 -0.16576
 C177 C -0.19869 0.20159 -0.20029
 C178 C -0.16474 0.16868 -0.16777
 C179 C -0.19868 0.70169 0.29999
 C180 C -0.16468 0.66936 0.33309
 C181 C 0.30096 0.20116 0.30004
 C182 C 0.33424 0.16820 0.33318
 C183 C 0.29830 0.70404 -0.20258
 C184 C 0.33195 0.67125 -0.16958
 C185 C -0.20001 -0.20169 0.19868
 C186 C -0.16691 -0.16936 0.16469
 C187 C -0.19996 0.29884 0.69904
 C188 C -0.16682 0.33180 0.66576
 C189 C 0.29742 -0.20404 0.70170
 C190 C 0.33042 -0.17124 0.66805
 C191 C 0.29971 0.29842 0.19869
 C192 C 0.33223 0.33133 0.16475
 C193 C 0.19904 0.20116 0.19996
 C194 C 0.16576 0.16820 0.16682
 C195 C 0.20170 0.70404 0.70258
 C196 C 0.16805 0.67124 0.66958
 C197 C 0.69869 0.20159 0.70029
 C198 C 0.66474 0.16868 0.66777
 C199 C 0.69868 0.70169 0.20001
 C200 C 0.66469 0.66936 0.16691
   
