data_POSCAR
  _audit_creation_date              2014-09-24
  _audit_creation_method            'ToBaCCo'
  _symmetry_space_group_name_H-M    'P1'
  _symmetry_Int_Tables_number       1
  _symmetry_cell_setting            triclinic
  loop_
  _symmetry_equiv_pos_as_xyz
 x,y,z
_cell_length_a 30.0461
_cell_length_b 29.9938
_cell_length_c 29.9823
_cell_angle_alpha 89.958900
_cell_angle_beta 89.792400
_cell_angle_gamma 90.147500
loop_
  _atom_site_label
  _atom_site_type_symbol
  _atom_site_fract_x
  _atom_site_fract_y
  _atom_site_fract_z
C1 C -0.06043 0.50856 0.26801
 C2 C -0.01811 0.51781 0.25038
 C3 C -0.00914 0.55991 0.23208
 C4 C -0.04228 0.59297 0.23061
 C5 C -0.08447 0.58320 0.24897
 C6 C -0.09401 0.54121 0.26802
 C7 C 0.01681 0.48318 0.25069
 C8 C 0.00837 0.44114 0.23205
 C9 C 0.04149 0.40817 0.23143
 C10 C 0.08308 0.41762 0.25069
 C11 C 0.09195 0.45945 0.26997
 C12 C 0.05861 0.49223 0.26936
 H13 H -0.06667 0.47592 0.28230
 H14 H 0.02363 0.56631 0.21822
 H15 H -0.02387 0.43460 0.21733
 H16 H 0.06473 0.52468 0.28398
 H17 H -0.11013 0.60848 0.24840
 H18 H 0.10867 0.39228 0.25069
 C19 C -0.05946 0.49078 0.73225
 C20 C -0.01772 0.48222 0.75109
 C21 C -0.00908 0.44030 0.76988
 C22 C -0.04202 0.40677 0.77057
 C23 C -0.08362 0.41593 0.75092
 C24 C -0.09258 0.45767 0.73150
 C25 C 0.01701 0.51724 0.75115
 C26 C 0.00795 0.55931 0.76944
 C27 C 0.04082 0.59288 0.77018
 C28 C 0.08277 0.58363 0.75113
 C29 C 0.09221 0.54176 0.73226
 C30 C 0.05914 0.50858 0.73290
 H31 H -0.06566 0.52315 0.71750
 H32 H 0.02326 0.43439 0.78460
 H33 H -0.02467 0.56531 0.78374
 H34 H 0.06572 0.47611 0.71855
 H35 H -0.10927 0.39051 0.75066
 H36 H 0.10838 0.60910 0.75094
 C37 C 0.26764 -0.06124 0.50649
 C38 C 0.24985 -0.01884 0.51476
 C39 C 0.23117 -0.00933 0.55657
 C40 C 0.22970 -0.04192 0.59018
 C41 C 0.24812 -0.08415 0.58160
 C42 C 0.26756 -0.09428 0.53993
 C43 C 0.25111 0.01584 0.47971
 C44 C 0.23307 0.00729 0.43747
 C45 C 0.23334 0.04036 0.40406
 C46 C 0.25321 0.08190 0.41365
 C47 C 0.27185 0.09076 0.45570
 C48 C 0.27020 0.05755 0.48868
 H49 H 0.28231 -0.06786 0.47410
 H50 H 0.21724 0.02343 0.56252
 H51 H 0.21808 -0.02501 0.43125
 H52 H 0.28433 0.06372 0.52130
 H53 H 0.24730 -0.10918 0.60763
 H54 H 0.25416 0.10765 0.38833
 C55 C 0.73257 -0.05966 0.49453
 C56 C 0.75030 -0.01723 0.48578
 C57 C 0.76891 -0.00800 0.44383
 C58 C 0.77042 -0.04093 0.41060
 C59 C 0.75210 -0.08321 0.41971
 C60 C 0.73273 -0.09305 0.46152
 C61 C 0.74944 0.01760 0.52063
 C62 C 0.76727 0.00896 0.56293
 C63 C 0.76732 0.04203 0.59627
 C64 C 0.74807 0.08373 0.58656
 C65 C 0.72968 0.09272 0.54445
 C66 C 0.73096 0.05948 0.51152
 H67 H 0.71798 -0.06608 0.52703
 H68 H 0.78286 0.02476 0.43752
 H69 H 0.78180 -0.02345 0.56927
 H70 H 0.71697 0.06574 0.47885
 H71 H 0.75297 -0.10851 0.39398
 H72 H 0.74739 0.10948 0.61184
 C73 C 0.49157 0.26608 1.05899
 C74 C 0.48315 0.24712 1.01712
 C75 C 0.44148 0.22787 1.00847
 C76 C 0.40806 0.22680 1.04154
 C77 C 0.41704 0.24655 1.08324
 C78 C 0.45850 0.26647 1.09222
 C79 C 0.51809 0.24717 0.98228
 C80 C 0.55975 0.22815 0.99098
 C81 C 0.59312 0.22708 0.95787
 C82 C 0.58411 0.24665 0.91607
 C83 C 0.54264 0.26633 0.90703
 C84 C 0.50963 0.26593 0.94033
 H85 H 0.52376 0.28114 1.06522
 H86 H 0.43570 0.21306 0.97603
 H87 H 0.56555 0.21348 1.02348
 H88 H 0.47742 0.28078 0.93405
 H89 H 0.39166 0.24653 1.10897
 H90 H 0.60945 0.24662 0.89030
 C91 C 0.50743 0.73573 1.05968
 C92 C 0.51645 0.75348 1.01734
 C93 C 0.55867 0.77137 1.00805
 C94 C 0.59203 0.77215 1.04094
 C95 C 0.58236 0.75367 1.08315
 C96 C 0.54033 0.73524 1.09278
 C97 C 0.48165 0.75309 0.98263
 C98 C 0.43949 0.77101 0.99164
 C99 C 0.40598 0.77087 0.95893
 C100 C 0.41541 0.75145 0.91714
 C101 C 0.45740 0.73300 0.90777
 C102 C 0.49049 0.73443 0.94069
 H103 H 0.47486 0.72159 1.06640
 H104 H 0.56499 0.78526 0.97525
 H105 H 0.43334 0.78560 1.02414
 H106 H 0.52301 0.72028 0.93420
 H107 H 0.60765 0.75351 1.10879
 H108 H 0.39000 0.75061 0.89164
 B109 B 1.00033 1.04526 0.02839
 B110 B 0.99990 1.04534 -0.02820
 B111 B 1.04573 1.02773 -0.00070
 B112 B 1.02879 0.99951 0.04529
 B113 B 0.97238 0.99964 0.04628
 B114 B 0.95436 1.02784 0.00086
 B115 B 0.99945 0.95389 -0.02813
 B116 B 1.00009 0.95384 0.02824
 B117 B 0.95423 0.97136 0.00072
 B118 B 0.97110 0.99967 -0.04512
 B119 B 1.02750 0.99969 -0.04612
 B120 B 1.04544 0.97125 -0.00060
 B121 B 0.54548 0.50117 0.47058
 B122 B 0.49970 0.52957 0.45431
 B123 B 0.49949 0.47319 0.45374
 B124 B 0.52851 0.45530 0.49877
 B125 B 0.54635 0.50081 0.52723
 B126 B 0.52864 0.54663 0.49967
 B127 B 0.45521 0.50064 0.52902
 B128 B 0.50101 0.47207 0.54511
 B129 B 0.50108 0.52880 0.54570
 B130 B 0.47212 0.54658 0.50060
 B131 B 0.45416 0.50120 0.47249
 B132 B 0.47206 0.45521 0.49978
 N133 N 1.05804 1.29349 0.18926
 C134 C 1.01852 1.28483 0.16942
 N135 N 0.98625 1.31632 0.17024
 N136 N 0.99338 1.35533 0.19027
 C137 C 1.03303 1.36431 0.21014
 N138 N 1.06514 1.33248 0.20926
 C139 C 1.01162 1.24331 0.14672
 C140 C 1.00707 1.20841 0.12734
 C141 C 1.00327 1.16690 0.10392
 N142 N 0.97727 1.16347 0.06723
 N143 N 0.97580 1.12552 0.04419
 C144 C 1.00041 1.08981 0.05685
 N145 N 1.02592 1.09332 0.09397
 N146 N 1.02743 1.13120 0.11705
 N147 N 1.01394 0.68313 0.17179
 C148 C 0.98144 0.71431 0.16993
 N149 N 0.94136 0.70536 0.18874
 N150 N 0.93393 0.66637 0.20871
 C151 C 0.96621 0.63471 0.21060
 N152 N 1.00648 0.64411 0.19181
 C153 C 0.98839 0.75552 0.14660
 C154 C 0.99265 0.78998 0.12632
 C155 C 0.99578 0.83067 0.10136
 N156 N 1.02441 0.86342 0.11359
 N157 N 1.02618 0.90154 0.09075
 C158 C 0.99943 0.90820 0.05495
 N159 N 0.97085 0.87523 0.04294
 N160 N 0.96905 0.83717 0.06569
 N161 N 0.94148 1.29402 -0.18805
 C162 C 0.98113 1.28560 -0.16845
 N163 N 1.01331 1.31733 -0.16949
 N164 N 1.00598 1.35633 -0.18947
 C165 C 0.96617 1.36517 -0.20912
 N166 N 0.93417 1.33300 -0.20800
 C167 C 0.98827 1.24403 -0.14585
 C168 C 0.99303 1.20907 -0.12658
 C169 C 0.99708 1.16744 -0.10330
 N170 N 1.02120 1.16467 -0.06528
 N171 N 1.02275 1.12658 -0.04242
 C172 C 1.00011 1.09004 -0.05660
 N173 N 0.97650 1.09291 -0.09502
 N174 N 0.97491 1.13092 -0.11792
 N175 N 0.98488 0.68259 -0.17056
 C176 C 1.01714 0.71423 -0.16946
 N177 N 1.05696 0.70571 -0.18892
 N178 N 1.06437 0.66672 -0.20878
 C179 C 1.03232 0.63461 -0.20990
 N180 N 0.99231 0.64356 -0.19046
 C181 C 1.01025 0.75547 -0.14624
 C182 C 1.00608 0.78996 -0.12604
 C183 C 1.00309 0.83068 -0.10113
 N184 N 1.02916 0.83682 -0.06490
 N185 N 1.02754 0.87489 -0.04220
 C186 C 0.99982 0.90823 -0.05483
 N187 N 0.97371 0.90192 -0.09118
 N188 N 0.97529 0.86380 -0.11398
 N189 N 1.19347 1.05800 0.29121
 C190 C 1.17325 1.01860 0.28241
 N191 N 1.17352 0.98611 0.31385
 N192 N 1.19334 0.99292 0.35297
 C193 C 1.21354 1.03251 0.36222
 N194 N 1.21325 1.06479 0.33030
 C195 C 1.15021 1.01224 0.24106
 C196 C 1.13013 1.00791 0.20660
 C197 C 1.10530 1.00385 0.16602
 N198 N 1.12545 1.00971 0.12591
 N199 N 1.10184 1.00770 0.08842
 C200 C 1.05732 0.99977 0.08970
 N201 N 1.03739 0.99395 0.13000
 N202 N 1.06092 0.99593 0.16749
 N203 N 1.16846 1.01578 -0.31932
 C204 C 1.16771 0.98428 -0.28689
 N205 N 1.18765 0.94453 -0.29449
 N206 N 1.20769 0.93645 -0.33332
 C207 C 1.20849 0.96777 -0.36609
 N208 N 1.18855 1.00768 -0.35819
 C209 C 1.14439 0.99173 -0.24574
 C210 C 1.12430 0.99579 -0.21111
 C211 C 1.09984 0.99767 -0.16999
 N212 N 1.07919 0.96054 -0.15460
 N213 N 1.05678 0.96145 -0.11628
 C214 C 1.05420 0.99943 -0.09185
 N215 N 1.07478 1.03673 -0.10749
 N216 N 1.09728 1.03587 -0.14592
 N217 N 0.81275 0.94453 0.29553
 C218 C 0.83254 0.98437 0.28744
 N219 N 0.83159 1.01626 0.31944
 N220 N 0.81145 1.00844 0.35837
 C221 C 0.79166 0.96844 0.36677
 N222 N 0.79267 0.93673 0.33443
 C223 C 0.85584 0.99161 0.24619
 C224 C 0.87588 0.99557 0.21149
 C225 C 0.90021 0.99743 0.17028
 N226 N 0.91981 0.96008 0.15436
 N227 N 0.94215 0.96104 0.11599
 C228 C 0.94569 0.99929 0.09202
 N229 N 0.92619 1.03681 0.10820
 N230 N 0.90376 1.03590 0.14668
 N231 N 0.82597 0.98716 -0.31329
 C232 C 0.82660 1.01962 -0.28188
 N233 N 0.80700 1.05923 -0.29077
 N234 N 0.78746 1.06624 -0.32993
 C235 C 0.78683 1.03399 -0.36182
 N236 N 0.80640 0.99419 -0.35247
 C237 C 0.84950 1.01305 -0.24054
 C238 C 0.86954 1.00853 -0.20611
 C239 C 0.89440 1.00428 -0.16563
 N240 N 0.87429 1.00960 -0.12546
 N241 N 0.89796 1.00750 -0.08803
 C242 C 0.94252 1.00004 -0.08946
 N243 N 0.96241 0.99474 -0.12982
 N244 N 0.93881 0.99681 -0.16725
 N245 N 1.31916 1.16599 -0.01380
 C246 C 1.28757 1.16468 0.01856
 N247 N 1.29591 1.18436 0.05831
 N248 N 1.33469 1.20464 0.06556
 C249 C 1.36672 1.20604 0.03339
 N250 N 1.35797 1.18630 -0.00652
 C251 C 1.24609 1.14203 0.01140
 C252 C 1.21109 1.12291 0.00668
 C253 C 1.16927 1.10011 0.00263
 N254 N 1.13222 1.11718 0.02193
 N255 N 1.09378 1.09509 0.02012
 C256 C 1.09092 1.05520 -0.00102
 N257 N 1.12814 1.03830 -0.02042
 N258 N 1.16665 1.06034 -0.01865
 N259 N 0.68189 1.16657 0.01334
 C260 C 0.71342 1.16518 -0.01906
 N261 N 0.70510 1.18474 -0.05888
 N262 N 0.66640 1.20497 -0.06616
 C263 C 0.63442 1.20644 -0.03395
 N264 N 0.64316 1.18683 0.00603
 C265 C 0.75480 1.14253 -0.01187
 C266 C 0.78970 1.12339 -0.00709
 C267 C 0.83139 1.10055 -0.00298
 N268 N 0.86813 1.11655 -0.02390
 N269 N 0.90641 1.09439 -0.02194
 C270 C 0.90941 1.05547 0.00098
 N271 N 0.87249 1.03965 0.02200
 N272 N 0.83414 1.06177 0.02007
 N273 N 1.31578 0.82927 0.01485
 C274 C 1.28411 0.82945 -0.01721
 N275 N 1.29278 0.80971 -0.05689
 N276 N 1.33196 0.79042 -0.06436
 C277 C 1.36410 0.79021 -0.03253
 N278 N 1.35499 0.80993 0.00735
 C279 C 1.24271 0.85217 -0.01040
 C280 C 1.20806 0.87195 -0.00662
 C281 C 1.16712 0.89631 -0.00458
 N282 N 1.15199 0.91734 -0.04146
 N283 N 1.11428 0.94041 -0.04003
 C284 C 1.09028 0.94342 -0.00174
 N285 N 1.10548 0.92211 0.03516
 N286 N 1.14329 0.89896 0.03382
 N287 N 0.70520 0.81160 0.05663
 C288 C 0.71421 0.83055 0.01659
 N289 N 0.68277 0.82963 -0.01569
 N290 N 0.64344 0.81035 -0.00805
 C291 C 0.63400 0.79143 0.03220
 N292 N 0.66592 0.79238 0.06424
 C293 C 0.75576 0.85318 0.00965
 C294 C 0.79058 0.87286 0.00593
 C295 C 0.83174 0.89708 0.00409
 N296 N 0.85650 0.89849 -0.03378
 N297 N 0.89457 0.92143 -0.03491
 C298 C 0.90911 0.94375 0.00168
 N299 N 0.88418 0.94197 0.03945
 N300 N 0.84620 0.91911 0.04068
 N301 N 0.79238 0.55671 0.30659
 C302 C 0.78355 0.51694 0.32613
 N303 N 0.81526 0.48489 0.32588
 N304 N 0.85465 0.49249 0.30667
 C305 C 0.86391 0.53248 0.28716
 N306 N 0.83172 0.56429 0.28744
 C307 C 0.74201 0.51013 0.34891
 C308 C 0.70729 0.50648 0.36885
 C309 C 0.66638 0.50470 0.39360
 N310 N 0.64087 0.46734 0.39417
 N311 N 0.60321 0.46617 0.41784
 C312 C 0.58987 0.50221 0.44178
 N313 N 0.61550 0.53952 0.44079
 N314 N 0.65305 0.54077 0.41719
 N315 N 0.18268 0.51558 0.33184
 C316 C 0.21458 0.48370 0.33228
 N317 N 0.20658 0.44421 0.31189
 N318 N 0.16784 0.43675 0.29174
 C319 C 0.13560 0.46846 0.29127
 N320 N 0.14392 0.50810 0.31165
 C321 C 0.25562 0.49070 0.35563
 C322 C 0.28996 0.49510 0.37584
 C323 C 0.33059 0.49845 0.40063
 N324 N 0.33490 0.47620 0.43968
 N325 N 0.37307 0.47760 0.46202
 C326 C 0.40839 0.50111 0.44617
 N327 N 0.40376 0.52373 0.40720
 N328 N 0.36557 0.52237 0.38474
 N329 N 0.81672 0.51337 0.66953
 C330 C 0.78506 0.48112 0.66845
 N331 N 0.79321 0.44145 0.68841
 N332 N 0.83187 0.43419 0.70875
 C333 C 0.86386 0.46630 0.70988
 N334 N 0.85539 0.50610 0.68990
 C335 C 0.74399 0.48819 0.64520
 C336 C 0.70960 0.49308 0.62518
 C337 C 0.66886 0.49754 0.60076
 N338 N 0.66932 0.49702 0.55558
 N339 N 0.63138 0.49875 0.53283
 C340 C 0.59161 0.50085 0.55436
 N341 N 0.59139 0.50200 0.59964
 N342 N 0.62931 0.50025 0.62248
 N343 N 0.18448 0.48645 0.67163
 C344 C 0.21615 0.51872 0.67142
 N345 N 0.20747 0.55820 0.69150
 N346 N 0.16830 0.56528 0.71113
 C347 C 0.13628 0.53318 0.71140
 N348 N 0.14526 0.49354 0.69131
 C349 C 0.25783 0.51206 0.64888
 C350 C 0.29283 0.50797 0.62954
 C351 C 0.33436 0.50492 0.60599
 N352 N 0.36322 0.53968 0.60642
 N353 N 0.40089 0.53795 0.58297
 C354 C 0.41101 0.50153 0.55809
 N355 N 0.38221 0.46655 0.55819
 N356 N 0.34447 0.46823 0.58163
 N357 N 0.48439 0.67463 0.18495
 C358 C 0.51636 0.67450 0.21672
 N359 N 0.55580 0.69481 0.20822
 N360 N 0.56313 0.71458 0.16909
 C361 C 0.53135 0.71470 0.13695
 N362 N 0.49173 0.69444 0.14580
 C363 C 0.50975 0.65105 0.25790
 C364 C 0.50579 0.63047 0.29221
 C365 C 0.50305 0.60494 0.33255
 N366 N 0.52873 0.56826 0.33753
 N367 N 0.52725 0.54482 0.37519
 C368 C 0.50005 0.55714 0.40923
 N369 N 0.47435 0.59399 0.40411
 N370 N 0.47580 0.61751 0.36640
 N371 N 0.44154 0.68982 0.79338
 C372 C 0.48132 0.67040 0.78487
 N373 N 0.51357 0.67190 0.81633
 N374 N 0.50616 0.69217 0.85519
 C375 C 0.46625 0.71159 0.86402
 N376 N 0.43416 0.71005 0.83221
 C377 C 0.48843 0.64719 0.74368
 C378 C 0.49326 0.62716 0.70919
 C379 C 0.49763 0.60271 0.66835
 N380 N 0.49771 0.55755 0.66886
 N381 N 0.49956 0.53473 0.63084
 C382 C 0.50135 0.55612 0.59097
 N383 N 0.50146 0.60138 0.59070
 N384 N 0.49960 0.62432 0.62869
 N385 N 0.51267 0.32993 0.18318
 C386 C 0.48047 0.33010 0.21497
 N387 N 0.44142 0.30901 0.20683
 N388 N 0.43470 0.28845 0.16807
 C389 C 0.46673 0.28824 0.13593
 N390 N 0.50593 0.30933 0.14438
 C391 C 0.48673 0.35379 0.25607
 C392 C 0.49072 0.37424 0.29045
 C393 C 0.49398 0.39928 0.33109
 N394 N 0.47020 0.43724 0.33620
 N395 N 0.47231 0.46021 0.37412
 C396 C 0.49827 0.44616 0.40828
 N397 N 0.52198 0.40801 0.40303
 N398 N 0.51991 0.38496 0.36509
 N399 N 0.48798 0.32846 0.81554
 C400 C 0.52010 0.32865 0.78367
 N401 N 0.55929 0.30807 0.79197
 N402 N 0.56622 0.28799 0.83095
 C403 C 0.53426 0.28774 0.86316
 N404 N 0.49493 0.30834 0.85456
 C405 C 0.51352 0.35155 0.74215
 C406 C 0.50938 0.37116 0.70729
 C407 C 0.50614 0.39495 0.66587
 N408 N 0.54057 0.39446 0.63658
 N409 N 0.53862 0.41798 0.59897
 C410 C 0.50231 0.44301 0.58934
 N411 N 0.46765 0.44298 0.61857
 N412 N 0.46956 0.41946 0.65625
 N413 N 0.67404 0.81614 0.51686
 C414 C 0.67367 0.78461 0.48451
 N415 N 0.69345 0.79356 0.44483
 N416 N 0.71295 0.83284 0.43764
 C417 C 0.71332 0.86485 0.46977
 N418 N 0.69358 0.85546 0.50965
 C419 C 0.65048 0.74320 0.49100
 C420 C 0.63014 0.70868 0.49465
 C421 C 0.60485 0.66808 0.49663
 N422 N 0.60829 0.63987 0.53183
 N423 N 0.58456 0.60224 0.53302
 C424 C 0.55654 0.59162 0.49914
 N425 N 0.55349 0.61994 0.46398
 N426 N 0.57713 0.65749 0.46274
 N427 N 0.68790 0.20763 0.55955
 C428 C 0.66852 0.21590 0.51969
 N429 N 0.66953 0.18407 0.48763
 N430 N 0.68931 0.14510 0.49529
 C431 C 0.70870 0.13652 0.53530
 N432 N 0.70764 0.16869 0.56719
 C433 C 0.64580 0.25722 0.51234
 C434 C 0.62615 0.29183 0.50737
 C435 C 0.60206 0.33276 0.50283
 N436 N 0.55710 0.33222 0.49981
 N437 N 0.53444 0.37024 0.49779
 C438 C 0.55584 0.41015 0.49870
 N439 N 0.60092 0.41047 0.50165
 N440 N 0.62367 0.37246 0.50370
 N441 N 0.30748 0.79296 0.55818
 C442 C 0.32726 0.78375 0.51860
 N443 N 0.32666 0.81487 0.48582
 N444 N 0.30693 0.85407 0.49250
 C445 C 0.28718 0.86374 0.53226
 N446 N 0.28778 0.83213 0.56484
 C447 C 0.35042 0.74241 0.51239
 C448 C 0.37072 0.70804 0.50822
 C449 C 0.39597 0.66766 0.50450
 N450 N 0.44088 0.66887 0.50804
 N451 N 0.46442 0.63137 0.50642
 C452 C 0.44400 0.59129 0.50139
 N453 N 0.39897 0.59029 0.49740
 N454 N 0.37533 0.62780 0.49904
 N455 N 0.31460 0.20553 0.44057
 C456 C 0.33414 0.21368 0.48039
 N457 N 0.33300 0.18178 0.51242
 N458 N 0.31292 0.14286 0.50476
 C459 C 0.29334 0.13442 0.46479
 N460 N 0.29456 0.16665 0.43294
 C461 C 0.35685 0.25513 0.48769
 C462 C 0.37614 0.29013 0.49198
 C463 C 0.39930 0.33188 0.49473
 N464 N 0.41563 0.34686 0.53409
 N465 N 0.43784 0.38535 0.53592
 C466 C 0.44440 0.41016 0.49853
 N467 N 0.42802 0.39486 0.45927
 N468 N 0.40584 0.35647 0.45738
   
