data_POSCAR
  _audit_creation_date              2014-09-24
  _audit_creation_method            'ToBaCCo'
  _symmetry_space_group_name_H-M    'P1'
  _symmetry_Int_Tables_number       1
  _symmetry_cell_setting            triclinic
  loop_
  _symmetry_equiv_pos_as_xyz
 x,y,z
_cell_length_a 32.6092
_cell_length_b 32.8513
_cell_length_c 33.3032
_cell_angle_alpha 92.726600
_cell_angle_beta 90.204200
_cell_angle_gamma 91.777700
loop_
  _atom_site_label
  _atom_site_type_symbol
  _atom_site_fract_x
  _atom_site_fract_y
  _atom_site_fract_z
C1 C 0.29577 0.24742 0.24683
 C2 C 0.27989 0.23021 0.28147
 C3 C 0.24660 0.24724 0.30065
 C4 C 0.22879 0.28167 0.28563
 C5 C 0.24438 0.29873 0.25150
 C6 C 0.27822 0.28147 0.23193
 C7 C 0.32752 0.23696 0.22173
 N8 N 0.32990 0.26383 0.19207
 C9 C 0.29972 0.29118 0.19797
 C10 C 0.22054 0.33139 0.24373
 N11 N 0.19113 0.33458 0.27239
 C12 C 0.19590 0.30407 0.29807
 C13 C 0.23726 0.22404 0.33283
 N14 N 0.26413 0.19343 0.33383
 C15 C 0.29036 0.19685 0.30238
 H16 H 0.34751 0.21156 0.22475
 H17 H 0.29330 0.31599 0.17893
 H18 H 0.22419 0.35135 0.21895
 H19 H 0.17664 0.29789 0.32357
 H20 H 0.21250 0.22889 0.35394
 H21 H 0.31477 0.17639 0.29466
 C22 C 0.71198 -0.24285 0.22522
 C23 C 0.72610 -0.22795 0.26312
 C24 C 0.75796 -0.24668 0.28178
 C25 C 0.77607 -0.28067 0.26283
 C26 C 0.76228 -0.29507 0.22537
 C27 C 0.72998 -0.27618 0.20657
 C28 C 0.68091 -0.23153 0.20039
 N29 N 0.67936 -0.25744 0.16732
 C30 C 0.70964 -0.28474 0.17084
 C31 C 0.78533 -0.32793 0.21402
 N32 N 0.81264 -0.33422 0.24376
 C33 C 0.80720 -0.30532 0.27388
 C34 C 0.76550 -0.22546 0.31780
 N35 N 0.73893 -0.19454 0.32155
 C36 C 0.71468 -0.19580 0.28816
 H37 H 0.66028 -0.20677 0.20638
 H38 H 0.71654 -0.30947 0.14960
 H39 H 0.78230 -0.34616 0.18613
 H40 H 0.82463 -0.30181 0.30158
 H41 H 0.78886 -0.23181 0.33963
 H42 H 0.69113 -0.17449 0.28185
 C43 C 0.71875 0.22891 0.77798
 C44 C 0.73454 0.21057 0.74267
 C45 C 0.76868 0.22769 0.72475
 C46 C 0.78747 0.26342 0.74179
 C47 C 0.77195 0.28158 0.77659
 C48 C 0.73722 0.26420 0.79481
 C49 C 0.68597 0.21887 0.80186
 N50 N 0.68397 0.24728 0.83294
 C51 C 0.71521 0.27511 0.82866
 C52 C 0.79650 0.31558 0.78626
 N53 N 0.82658 0.31841 0.75805
 C54 C 0.82104 0.28661 0.73080
 C55 C 0.77720 0.20358 0.69109
 N56 N 0.74906 0.17209 0.68821
 C57 C 0.72279 0.17629 0.71955
 H58 H 0.66524 0.19289 0.79632
 H59 H 0.72154 0.30143 0.84883
 H60 H 0.79225 0.33643 0.81190
 H61 H 0.84022 0.28066 0.70482
 H62 H 0.80182 0.20912 0.67018
 H63 H 0.69701 0.15579 0.72512
 C64 C 0.28111 -0.21076 0.75976
 C65 C 0.26209 -0.19547 0.72617
 C66 C 0.22962 -0.21692 0.70750
 C67 C 0.21567 -0.25411 0.72241
 C68 C 0.23450 -0.26919 0.75564
 C69 C 0.26762 -0.24747 0.77432
 C70 C 0.31377 -0.19661 0.78317
 N71 N 0.32088 -0.22401 0.81142
 C72 C 0.29258 -0.25530 0.80629
 C73 C 0.21458 -0.30542 0.76355
 N74 N 0.18412 -0.31285 0.73599
 C75 C 0.18468 -0.28152 0.71054
 C76 C 0.21819 -0.19531 0.67503
 N77 N 0.24310 -0.16136 0.67376
 C78 C 0.26995 -0.16134 0.70491
 H79 H 0.33159 -0.16867 0.77947
 H80 H 0.28995 -0.28189 0.82414
 H81 H 0.22159 -0.32492 0.78784
 H82 H 0.16394 -0.27812 0.68560
 H83 H 0.19422 -0.20434 0.65361
 H84 H 0.29396 -0.13839 0.71121
 C85 C 0.70407 -0.25010 0.74466
 C86 C 0.72233 -0.23183 0.71165
 C87 C 0.75788 -0.24722 0.69516
 C88 C 0.77567 -0.28121 0.71149
 C89 C 0.75757 -0.29911 0.74402
 C90 C 0.72155 -0.28355 0.76061
 C91 C 0.66987 -0.24140 0.76723
 N92 N 0.66608 -0.26884 0.79639
 C93 C 0.69776 -0.29480 0.79247
 C94 C 0.78139 -0.33090 0.75401
 N95 N 0.81357 -0.33307 0.72834
 C96 C 0.81033 -0.30264 0.70211
 C97 C 0.76877 -0.22319 0.66388
 N98 N 0.74065 -0.19383 0.66084
 C99 C 0.71219 -0.19882 0.69014
 H100 H 0.64929 -0.21670 0.76288
 H101 H 0.70392 -0.31971 0.81146
 H102 H 0.77574 -0.35105 0.77835
 H103 H 0.83149 -0.29594 0.67822
 H104 H 0.79525 -0.22677 0.64465
 H105 H 0.68625 -0.17972 0.69601
 C106 C 0.28914 0.24510 0.76542
 C107 C 0.27173 0.22690 0.73013
 C108 C 0.23632 0.24201 0.71448
 C109 C 0.21781 0.27545 0.73380
 C110 C 0.23493 0.29358 0.76853
 C111 C 0.27102 0.27829 0.78447
 C112 C 0.32334 0.23669 0.78744
 N113 N 0.32674 0.26390 0.81937
 C114 C 0.29472 0.28957 0.81778
 C115 C 0.21043 0.32551 0.78024
 N116 N 0.17898 0.32693 0.75336
 C117 C 0.18343 0.29646 0.72495
 C118 C 0.22638 0.21868 0.68025
 N119 N 0.25494 0.18984 0.67456
 C120 C 0.28283 0.19454 0.70509
 H121 H 0.34433 0.21240 0.78068
 H122 H 0.28848 0.31438 0.83916
 H123 H 0.21563 0.34619 0.80612
 H124 H 0.16311 0.29020 0.69945
 H125 H 0.20026 0.22244 0.66075
 H126 H 0.30909 0.17585 0.70924
 C127 C 0.29003 -0.23251 0.21809
 C128 C 0.27311 -0.21450 0.25303
 C129 C 0.24021 -0.23341 0.27147
 C130 C 0.22385 -0.27068 0.25531
 C131 C 0.24027 -0.28815 0.22064
 C132 C 0.27364 -0.26905 0.20203
 C133 C 0.32218 -0.22123 0.19390
 N134 N 0.32567 -0.25024 0.16354
 C135 C 0.29602 -0.27949 0.16843
 C136 C 0.21786 -0.32345 0.21121
 N137 N 0.18845 -0.32817 0.23950
 C138 C 0.19191 -0.29591 0.26672
 C139 C 0.22993 -0.20896 0.30436
 N140 N 0.25576 -0.17559 0.30622
 C141 C 0.28240 -0.17892 0.27511
 H142 H 0.34149 -0.19408 0.19869
 H143 H 0.29118 -0.30660 0.14896
 H144 H 0.22263 -0.34426 0.18556
 H145 H 0.17239 -0.29036 0.29246
 H146 H 0.20567 -0.21543 0.32541
 H147 H 0.30661 -0.15684 0.26888
 C148 C 0.70973 0.22718 0.23902
 C149 C 0.72532 0.20872 0.27289
 C150 C 0.75815 0.22698 0.29403
 C151 C 0.77570 0.26388 0.28194
 C152 C 0.76040 0.28198 0.24870
 C153 C 0.72726 0.26355 0.22711
 C154 C 0.67821 0.21666 0.21239
 N155 N 0.67642 0.24580 0.18470
 C156 C 0.70626 0.27451 0.19365
 C157 C 0.78353 0.31711 0.24375
 N158 N 0.81251 0.32089 0.27321
 C159 C 0.80790 0.28827 0.29679
 C160 C 0.76704 0.20262 0.32513
 N161 N 0.74052 0.16979 0.32345
 C162 C 0.71474 0.17343 0.29175
 H163 H 0.65812 0.18994 0.21355
 H164 H 0.71221 0.30154 0.17694
 H165 H 0.77964 0.33837 0.22024
 H166 H 0.82652 0.28205 0.32258
 H167 H 0.79073 0.20892 0.34757
 H168 H 0.69018 0.15185 0.28300
 O169 O 0.28960 0.04498 0.45638
 O170 O 0.28650 -0.03379 0.53138
 O171 O 0.29009 -0.03438 0.45345
 O172 O 0.28726 0.04540 0.53474
 O173 O 0.21955 0.04335 0.53211
 O174 O 0.22237 -0.03660 0.45082
 O175 O 0.21877 -0.03592 0.52862
 O176 O 0.22188 0.04287 0.45380
 Cu177 Cu 0.29517 0.00584 0.49422
 Cu178 Cu 0.21383 0.00332 0.49099
 C179 C 0.25617 0.05729 0.44228
 C180 C 0.25214 -0.04832 0.54270
 C181 C 0.25676 -0.04931 0.43851
 C182 C 0.25292 0.05779 0.54747
 O183 O 0.70668 0.03252 0.53990
 O184 O 0.70723 -0.04770 0.45859
 O185 O 0.70837 -0.04696 0.53684
 O186 O 0.70461 0.03154 0.46151
 O187 O 0.77231 0.03519 0.46063
 O188 O 0.77608 -0.04321 0.53609
 O189 O 0.77497 -0.04401 0.45798
 O190 O 0.77439 0.03620 0.53885
 Cu191 Cu 0.69993 -0.00802 0.49934
 Cu192 Cu 0.78121 -0.00354 0.49833
 C193 C 0.74050 0.04809 0.55316
 C194 C 0.74126 -0.05949 0.44446
 C195 C 0.74282 -0.05855 0.54923
 C196 C 0.73784 0.04672 0.44818
 O197 O 0.45931 0.29016 0.04374
 O198 O 0.54021 0.28939 -0.03326
 O199 O 0.46000 0.29028 -0.03430
 O200 O 0.53892 0.28814 0.04520
 O201 O 0.53549 0.22083 0.04165
 O202 O 0.45710 0.22296 -0.03815
 O203 O 0.53701 0.22209 -0.03682
 O204 O 0.45597 0.22284 0.04002
 Cu205 Cu 0.50005 0.29623 0.00562
 Cu206 Cu 0.49615 0.21545 0.00122
 C207 C 0.44391 0.25662 0.05505
 C208 C 0.55233 0.25563 -0.04825
 C209 C 0.44493 0.25688 -0.04959
 C210 C 0.55029 0.25416 0.05731
 O211 O 0.54717 0.70928 0.02376
 O212 O 0.46089 0.69959 -0.04731
 O213 O 0.54057 0.70474 -0.05412
 O214 O 0.46775 0.70690 0.03027
 O215 O 0.46629 0.77397 0.02852
 O216 O 0.53957 0.77187 -0.05509
 O217 O 0.45987 0.76666 -0.04941
 O218 O 0.54574 0.77641 0.02317
 Cu219 Cu 0.50429 0.69839 -0.01177
 Cu220 Cu 0.50276 0.77899 -0.01344
 C221 C 0.56102 0.74429 0.03584
 C222 C 0.44558 0.73140 -0.06041
 C223 C 0.55263 0.73804 -0.06883
 C224 C 0.45458 0.74086 0.04370
 O225 O 0.04029 0.45841 0.31571
 O226 O -0.04041 0.53413 0.32589
 O227 O -0.03992 0.45465 0.31671
 O228 O 0.03890 0.53758 0.32489
 O229 O 0.03817 0.54111 0.25882
 O230 O -0.04120 0.45918 0.25078
 O231 O -0.04158 0.53831 0.25990
 O232 O 0.03871 0.46227 0.24971
 Cu233 Cu -0.00021 0.49556 0.32744
 Cu234 Cu -0.00167 0.50061 0.24818
 C235 C 0.05339 0.44759 0.28104
 C236 C -0.05446 0.54940 0.29457
 C237 C -0.05405 0.44289 0.28233
 C238 C 0.05193 0.55344 0.29316
 O239 O 0.04225 0.54394 0.71040
 O240 O -0.03749 0.46204 0.71323
 O241 O -0.03720 0.54111 0.70922
 O242 O 0.04272 0.46479 0.71313
 O243 O 0.04284 0.47050 0.77946
 O244 O -0.03751 0.54695 0.77555
 O245 O -0.03751 0.46802 0.77954
 O246 O 0.04229 0.54958 0.77675
 Cu247 Cu 0.00260 0.50221 0.70485
 Cu248 Cu 0.00253 0.50925 0.78448
 C249 C 0.05563 0.56089 0.74318
 C250 C -0.05133 0.45132 0.74685
 C251 C -0.05082 0.55723 0.74172
 C252 C 0.05662 0.45482 0.74679
 C253 C 0.35954 0.26170 0.16022
 C254 C 0.36538 0.29160 0.13458
 C255 C 0.39670 0.29067 0.10254
 C256 C 0.41201 0.25629 0.08622
 H257 H 0.34839 0.31924 0.13825
 H258 H 0.40654 0.31980 0.09133
 H259 H 0.37875 0.23541 0.15831
 H260 H 0.40086 0.22684 0.09548
 C261 C 0.65080 0.74408 0.13747
 C262 C 0.64771 0.71610 0.10673
 C263 C 0.61485 0.71510 0.07613
 C264 C 0.59481 0.74789 0.06532
 H265 H 0.66778 0.69057 0.10494
 H266 H 0.60771 0.68568 0.06125
 H267 H 0.62866 0.76798 0.13978
 H268 H 0.60327 0.77796 0.07794
 C269 C 0.65615 0.24922 -0.13654
 C270 C 0.62671 0.22029 -0.13161
 C271 C 0.59616 0.22160 -0.09887
 C272 C 0.58438 0.25591 -0.07937
 H273 H 0.62527 0.19307 -0.15111
 H274 H 0.58120 0.19280 -0.09222
 H275 H 0.65864 0.27491 -0.11497
 H276 H 0.59727 0.28523 -0.08715
 C277 C 0.35191 0.78051 -0.16109
 C278 C 0.36150 0.75153 -0.13605
 C279 C 0.39621 0.75783 -0.10788
 C280 C 0.41068 0.72666 -0.08844
 H281 H 0.34488 0.72251 -0.13686
 H282 H 0.41056 0.78796 -0.10367
 H283 H 0.37056 0.80850 -0.16027
 H284 H 0.39696 0.69639 -0.09375
 C285 C 0.16007 0.36476 0.27356
 C286 C 0.13566 0.37082 0.30554
 C287 C 0.10327 0.40131 0.30833
 C288 C 0.08607 0.41779 0.27657
 H289 H 0.14024 0.35391 0.33214
 H290 H 0.09217 0.40918 0.33824
 H291 H 0.15754 0.38369 0.24801
 H292 H 0.09545 0.40908 0.24633
 C293 C 0.15780 0.65409 0.73614
 C294 C 0.12861 0.64614 0.70800
 C295 C 0.09906 0.61113 0.70890
 C296 C 0.08679 0.59426 0.74289
 H297 H 0.12654 0.66474 0.68223
 H298 H 0.08510 0.60072 0.68053
 H299 H 0.16107 0.63309 0.75998
 H300 H 0.09844 0.60619 0.77171
 C301 C -0.15968 0.63555 0.24165
 C302 C -0.13523 0.62696 0.27232
 C303 C -0.10538 0.59441 0.26741
 C304 C -0.08553 0.58080 0.29901
 H305 H -0.13721 0.64327 0.30119
 H306 H -0.09964 0.58139 0.23750
 H307 H -0.15783 0.61701 0.21388
 H308 H -0.09221 0.59302 0.32900
 C309 C -0.14252 0.34716 0.75572
 C310 C -0.13613 0.37773 0.78355
 C311 C -0.10249 0.40889 0.78153
 C312 C -0.08390 0.41921 0.74742
 H313 H -0.15486 0.37970 0.81020
 H314 H -0.09413 0.42523 0.80953
 H315 H -0.12174 0.34445 0.73052
 H316 H -0.09345 0.40495 0.71882
 C317 C 0.26260 0.16263 0.36305
 C318 C 0.29242 0.13588 0.36701
 C319 C 0.29132 0.10418 0.39708
 C320 C 0.25649 0.08878 0.41234
 H321 H 0.31987 0.13812 0.34906
 H322 H 0.32047 0.09214 0.40564
 H323 H 0.23668 0.16227 0.38325
 H324 H 0.22703 0.09876 0.40225
 C325 C 0.74590 0.13973 0.65757
 C326 C 0.77597 0.13255 0.63099
 C327 C 0.77451 0.09933 0.59939
 C328 C 0.73996 0.08035 0.58544
 H329 H 0.80426 0.15054 0.63312
 H330 H 0.80362 0.09147 0.58601
 H331 H 0.71875 0.11995 0.65729
 H332 H 0.71036 0.08902 0.59698
 C333 C 0.24401 -0.13085 0.64427
 C334 C 0.21561 -0.12931 0.61524
 C335 C 0.21680 -0.09809 0.58472
 C336 C 0.25162 -0.07966 0.57275
 H337 H 0.18938 -0.15026 0.61448
 H338 H 0.18793 -0.09134 0.57069
 H339 H 0.26849 -0.10782 0.64656
 H340 H 0.28094 -0.08802 0.58466
 C341 C 0.73910 -0.16494 0.35476
 C342 C 0.70849 -0.13907 0.36111
 C343 C 0.70821 -0.10779 0.39451
 C344 C 0.74235 -0.09148 0.41205
 H345 H 0.68142 -0.14160 0.34222
 H346 H 0.67859 -0.09643 0.40339
 H347 H 0.76460 -0.16461 0.37568
 H348 H 0.77225 -0.10082 0.40186
 C349 C 0.63579 0.73164 -0.17547
 C350 C 0.63155 0.70327 -0.14783
 C351 C 0.59980 0.70401 -0.11626
 C352 C 0.58234 0.73811 -0.10199
 H353 H 0.65099 0.67724 -0.14846
 H354 H 0.59256 0.67537 -0.10265
 H355 H 0.61397 0.75580 -0.17599
 H356 H 0.59100 0.76732 -0.11363
 C357 C 0.35737 0.26350 -0.15265
 C358 C 0.36185 0.29151 -0.12204
 C359 C 0.39498 0.29091 -0.09155
 C360 C 0.41292 0.25678 -0.08096
 H361 H 0.34198 0.31721 -0.11961
 H362 H 0.40322 0.31965 -0.07584
 H363 H 0.37957 0.23973 -0.15592
 H364 H 0.40305 0.22749 -0.09450
 C365 C 0.35349 0.74821 0.13312
 C366 C 0.38201 0.77780 0.12760
 C367 C 0.41193 0.77616 0.09439
 C368 C 0.42512 0.74132 0.07705
 H369 H 0.38273 0.80549 0.14643
 H370 H 0.42459 0.80508 0.08508
 H371 H 0.35180 0.72206 0.11204
 H372 H 0.41472 0.71218 0.08774
 C373 C 0.64827 0.24815 0.15155
 C374 C 0.62117 0.21799 0.14075
 C375 C 0.59196 0.21954 0.10668
 C376 C 0.58072 0.25403 0.09016
 H377 H 0.62085 0.18993 0.15642
 H378 H 0.57787 0.19073 0.09601
 H379 H 0.65023 0.27522 0.13433
 H380 H 0.59275 0.28335 0.10167
 C381 C -0.15688 0.63864 0.73048
 C382 C -0.12601 0.63520 0.70406
 C383 C -0.09440 0.60404 0.70627
 C384 C -0.08252 0.58813 0.74065
 H385 H -0.12447 0.65407 0.67839
 H386 H -0.07920 0.59532 0.67844
 H387 H -0.15918 0.61734 0.75429
 H388 H -0.09541 0.59862 0.76906
 C389 C -0.15910 0.35225 0.27652
 C390 C -0.13119 0.35642 0.30639
 C391 C -0.09992 0.39003 0.30977
 C392 C -0.08576 0.41006 0.27827
 H393 H -0.13162 0.33567 0.33059
 H394 H -0.08681 0.39703 0.33931
 H395 H -0.15972 0.37509 0.25415
 H396 H -0.09681 0.40180 0.24821
 C397 C 0.14642 0.35545 0.75255
 C398 C 0.14058 0.38412 0.78186
 C399 C 0.10730 0.41380 0.78102
 C400 C 0.08915 0.42471 0.74711
 H401 H 0.15973 0.38540 0.80846
 H402 H 0.09881 0.42837 0.80952
 H403 H 0.12546 0.35262 0.72725
 H404 H 0.09893 0.41224 0.71819
 C405 C 0.16050 0.64012 0.23856
 C406 C 0.13408 0.63339 0.26840
 C407 C 0.10387 0.59921 0.26472
 C408 C 0.08301 0.58684 0.29660
 H409 H 0.13474 0.65241 0.29583
 H410 H 0.09888 0.58377 0.23553
 H411 H 0.16007 0.61883 0.21259
 H412 H 0.08922 0.60121 0.32606
 C413 C 0.74243 -0.16292 0.63160
 C414 C 0.71093 -0.13865 0.62513
 C415 C 0.71088 -0.10707 0.59488
 C416 C 0.74477 -0.09023 0.57905
 H417 H 0.68256 -0.14298 0.64126
 H418 H 0.68111 -0.09633 0.58649
 H419 H 0.76980 -0.16058 0.61348
 H420 H 0.77487 -0.09913 0.58837
 C421 C 0.25650 -0.14219 0.33574
 C422 C 0.22530 -0.13549 0.36112
 C423 C 0.22478 -0.10143 0.39176
 C424 C 0.25859 -0.08193 0.40675
 H425 H 0.19777 -0.15463 0.35863
 H426 H 0.19504 -0.09363 0.40374
 H427 H 0.28273 -0.12118 0.33606
 H428 H 0.28871 -0.09080 0.39679
 C429 C 0.73855 0.13696 0.35059
 C430 C 0.76977 0.12970 0.37541
 C431 C 0.76977 0.09667 0.40410
 C432 C 0.73588 0.07815 0.41809
 H433 H 0.79796 0.14772 0.37392
 H434 H 0.79948 0.08890 0.41564
 H435 H 0.71148 0.11703 0.34963
 H436 H 0.70581 0.08677 0.40837
 C437 C 0.25388 0.15989 0.64159
 C438 C 0.28491 0.13490 0.63365
 C439 C 0.28506 0.10415 0.59968
 C440 C 0.25121 0.08913 0.58051
 H441 H 0.31259 0.13777 0.65161
 H442 H 0.31465 0.09237 0.59132
 H443 H 0.22729 0.15882 0.62202
 H444 H 0.22116 0.09891 0.58968
   
