data_POSCAR
  _audit_creation_date              2014-09-24
  _audit_creation_method            'ToBaCCo'
  _symmetry_space_group_name_H-M    'P1'
  _symmetry_Int_Tables_number       1
  _symmetry_cell_setting            triclinic
  loop_
  _symmetry_equiv_pos_as_xyz
 x,y,z
_cell_length_a 26.3780
_cell_length_b 26.7883
_cell_length_c 26.6583
_cell_angle_alpha 85.239000
_cell_angle_beta 82.716200
_cell_angle_gamma 79.329900
loop_
  _atom_site_label
  _atom_site_type_symbol
  _atom_site_fract_x
  _atom_site_fract_y
  _atom_site_fract_z
O1 O 0.54999 0.50315 0.06861
 O2 O 0.42205 0.51028 0.02737
 O3 O 0.48736 0.43847 0.06344
 O4 O 0.48527 0.57542 0.02932
 O5 O 0.52616 0.55657 -0.04601
 O6 O 0.51825 0.42150 -0.01530
 O7 O 0.45668 0.50170 -0.05188
 O8 O 0.58646 0.48074 -0.00728
 Cu9 Cu 0.48261 0.50863 0.05494
 Cu10 Cu 0.52559 0.48760 -0.03776
 C11 C 0.59019 0.49134 0.03759
 C12 C 0.41704 0.50776 -0.01900
 C13 C 0.50114 0.40683 0.02915
 C14 C 0.50701 0.58920 -0.01371
 O15 O -0.02234 0.57396 0.51735
 O16 O -0.04771 0.44295 0.52886
 O17 O -0.01756 0.50176 0.58891
 O18 O -0.05137 0.51330 0.45816
 O19 O 0.03064 0.48435 0.43055
 O20 O 0.06458 0.47435 0.56129
 O21 O 0.03484 0.41415 0.50330
 O22 O 0.05857 0.54572 0.48665
 Cu23 Cu -0.04286 0.51108 0.52652
 Cu24 Cu 0.05563 0.47699 0.49318
 C25 C 0.02221 0.58245 0.49865
 C26 C -0.01114 0.40653 0.51677
 C27 C 0.02917 0.48596 0.59746
 C28 C -0.01625 0.49963 0.42231
 O29 O 0.49771 0.02447 0.57615
 O30 O 0.51821 0.04646 0.43752
 O31 O 0.43654 0.05740 0.50426
 O32 O 0.57751 0.01310 0.50766
 O33 O 0.56751 -0.06497 0.49587
 O34 O 0.42611 -0.02182 0.49870
 O35 O 0.50418 -0.03091 0.42868
 O36 O 0.48708 -0.05390 0.56738
 Cu37 Cu 0.50825 0.04326 0.50767
 Cu38 Cu 0.49549 -0.05094 0.49709
 C39 C 0.48888 -0.01845 0.59564
 C40 C 0.51447 0.01158 0.40943
 C41 C 0.40739 0.02525 0.50074
 C42 C 0.59668 -0.03325 0.50073
 C43 C 0.48548 -0.01011 -0.04668
 C44 C 0.50239 -0.05076 -0.01152
 C45 C 0.51193 -0.03973 0.03656
 C46 C 0.50601 0.01048 0.05066
 C47 C 0.48927 0.05121 0.01574
 C48 C 0.47939 0.04028 -0.03236
 H49 H 0.46558 0.07151 -0.05855
 H50 H 0.52566 -0.07081 0.06300
 C51 C -0.01340 0.50584 1.06175
 C52 C -0.04951 0.50424 1.02707
 C53 C -0.03183 0.50123 0.97530
 C54 C 0.02043 0.50065 0.95669
 C55 C 0.05578 0.50712 0.99052
 C56 C 0.03795 0.50954 1.04256
 H57 H 0.06474 0.51336 1.06892
 H58 H -0.05915 0.49856 0.94895
 C59 C 0.04849 0.01800 0.49025
 C60 C -0.00135 0.04914 0.49181
 C61 C -0.04520 0.02574 0.49358
 C62 C -0.04144 -0.02684 0.48985
 C63 C 0.00860 -0.05768 0.48582
 C64 C 0.05217 -0.03479 0.48790
 H65 H 0.09027 -0.05861 0.48605
 H66 H -0.08335 0.04947 0.49598
 C67 C -0.26520 0.47594 1.03827
 C68 C -0.26298 0.51085 1.07265
 C69 C -0.30699 0.53711 1.09961
 C70 C -0.35531 0.52782 1.08989
 C71 C -0.35868 0.49371 1.05289
 C72 C -0.31283 0.46680 1.02733
 O73 O -0.21899 0.45648 1.01545
 C74 C -0.18705 0.48008 1.03539
 C75 C -0.21200 0.51414 1.07018
 C76 C -0.18646 0.54623 1.09216
 C77 C -0.13298 0.54298 1.07764
 C78 C -0.10600 0.50694 1.04299
 C79 C -0.13376 0.47495 1.02186
 H80 H -0.30431 0.56465 1.12622
 H81 H -0.39012 0.54916 1.10933
 H82 H -0.31424 0.44103 0.99852
 H83 H -0.20723 0.57385 1.11828
 H84 H -0.11271 0.56885 1.09291
 H85 H -0.11463 0.44739 0.99496
 C86 C 0.27886 0.49827 0.98953
 C87 C 0.26634 0.52011 0.94318
 C88 C 0.30323 0.53607 0.90618
 C89 C 0.35476 0.52963 0.91789
 C90 C 0.36727 0.51076 0.96706
 C91 C 0.32843 0.49482 1.00309
 O92 O 0.23942 0.48314 1.01863
 C93 C 0.20063 0.49669 0.99063
 C94 C 0.21442 0.52064 0.94465
 C95 C 0.17809 0.54227 0.91199
 C96 C 0.12574 0.53896 0.92760
 C97 C 0.11116 0.51139 0.97357
 C98 C 0.14992 0.48975 1.00504
 H99 H 0.29286 0.55232 0.86954
 H100 H 0.38411 0.54167 0.88968
 H101 H 0.33674 0.47884 1.04048
 H102 H 0.18927 0.56277 0.87683
 H103 H 0.09674 0.55834 0.90405
 H104 H 0.14115 0.46838 1.04032
 C105 C 0.00553 -0.27724 0.50219
 C106 C 0.04710 -0.26808 0.46841
 C107 C 0.08291 -0.30659 0.44546
 C108 C 0.07527 -0.35679 0.45738
 C109 C 0.03114 -0.36743 0.49020
 C110 C -0.00417 -0.32669 0.51295
 O111 O -0.02227 -0.23527 0.52166
 C112 C 0.00200 -0.19879 0.49905
 C113 C 0.04409 -0.21694 0.46548
 C114 C 0.07396 -0.18551 0.43612
 C115 C 0.06024 -0.13316 0.44196
 C116 C 0.01844 -0.11321 0.47804
 C117 C -0.01105 -0.14687 0.50712
 H118 H 0.11581 -0.29832 0.41960
 H119 H 0.10288 -0.38709 0.43951
 H120 H -0.03775 -0.33320 0.53882
 H121 H 0.10633 -0.20070 0.40928
 H122 H 0.08262 -0.10807 0.41858
 H123 H -0.04267 -0.13325 0.53541
 C124 C -0.00217 0.26423 0.52295
 C125 C -0.03942 0.26129 0.49211
 C126 C -0.07110 0.30377 0.47244
 C127 C -0.06334 0.35154 0.48413
 C128 C -0.02327 0.35584 0.51332
 C129 C 0.00760 0.31162 0.53345
 O130 O 0.02289 0.21883 0.53818
 C131 C 0.00143 0.18674 0.51574
 C132 C -0.03611 0.21110 0.48641
 C133 C -0.06101 0.18568 0.45653
 C134 C -0.04722 0.13273 0.45735
 C135 C -0.01064 0.10584 0.48933
 C136 C 0.01396 0.13359 0.51917
 H137 H -0.10041 0.30027 0.44861
 H138 H -0.08689 0.38528 0.46848
 H139 H 0.03860 0.31415 0.55562
 H140 H -0.08933 0.20596 0.43264
 H141 H -0.06546 0.11254 0.43316
 H142 H 0.04169 0.11458 0.54424
 C143 C 0.48678 -0.00249 -0.26714
 C144 C 0.46253 -0.04195 -0.24669
 C145 C 0.44754 -0.07576 -0.27635
 C146 C 0.45773 -0.06844 -0.32922
 C147 C 0.48072 -0.02658 -0.35147
 C148 C 0.49513 0.00694 -0.31949
 O149 O 0.50124 0.02310 -0.23248
 C150 C 0.48526 -0.00036 -0.18916
 C151 C 0.46048 -0.03982 -0.19566
 C152 C 0.43950 -0.06857 -0.15515
 C153 C 0.44531 -0.05680 -0.10605
 C154 C 0.47417 -0.01873 -0.09841
 C155 C 0.49325 0.01063 -0.14087
 H156 H 0.42945 -0.10719 -0.25940
 H157 H 0.44641 -0.09469 -0.35268
 H158 H 0.51377 0.03861 -0.33475
 H159 H 0.41914 -0.09876 -0.16108
 H160 H 0.42828 -0.07809 -0.07407
 H161 H 0.51508 0.04020 -0.13660
 C162 C 0.50699 0.00239 0.27038
 C163 C 0.53786 0.03661 0.24931
 C164 C 0.56161 0.06427 0.27845
 C165 C 0.55325 0.05620 0.33139
 C166 C 0.52228 0.02041 0.35387
 C167 C 0.49897 -0.00689 0.32273
 O168 O 0.48684 -0.01897 0.23629
 C169 C 0.50556 0.00199 0.19270
 C170 C 0.53730 0.03600 0.19843
 C171 C 0.56145 0.06174 0.15743
 C172 C 0.55207 0.05233 0.10865
 C173 C 0.51799 0.01872 0.10198
 C174 C 0.49504 -0.00723 0.14477
 H175 H 0.58543 0.09127 0.26110
 H176 H 0.57140 0.07729 0.35481
 H177 H 0.47469 -0.03403 0.33877
 H178 H 0.58671 0.08795 0.16277
 H179 H 0.57088 0.07148 0.07614
 H180 H 0.46904 -0.03321 0.14086
 C181 C 0.49556 -0.26861 -0.00491
 C182 C 0.52716 -0.25691 -0.04774
 C183 C 0.55165 -0.29304 -0.08152
 C184 C 0.54365 -0.34334 -0.07049
 C185 C 0.51190 -0.35677 -0.02606
 C186 C 0.48731 -0.31850 0.00701
 O187 O 0.47604 -0.22866 0.02220
 C188 C 0.49590 -0.19103 -0.00399
 C189 C 0.52764 -0.20630 -0.04701
 C190 C 0.55331 -0.17313 -0.07936
 C191 C 0.54556 -0.12206 -0.06706
 C192 C 0.51186 -0.10511 -0.02362
 C193 C 0.48724 -0.14041 0.00862
 H194 H 0.57632 -0.28295 -0.11501
 H195 H 0.56304 -0.37196 -0.09620
 H196 H 0.46298 -0.32730 0.04125
 H197 H 0.57855 -0.18614 -0.11272
 H198 H 0.56533 -0.09559 -0.09147
 H199 H 0.46162 -0.12858 0.04220
 C200 C 0.50542 0.26654 0.01546
 C201 C 0.47465 0.25448 0.05874
 C202 C 0.45368 0.28953 0.09479
 C203 C 0.46420 0.33920 0.08550
 C204 C 0.49483 0.35306 0.04052
 C205 C 0.51604 0.31580 0.00525
 O206 O 0.52169 0.22764 -0.01383
 C207 C 0.50054 0.19030 0.01139
 C208 C 0.47112 0.20479 0.05590
 C209 C 0.44467 0.17186 0.08766
 C210 C 0.44943 0.12175 0.07336
 C211 C 0.48112 0.10532 0.02856
 C212 C 0.50626 0.14053 -0.00325
 H213 H 0.42967 0.27915 0.12864
 H214 H 0.44732 0.36714 0.11279
 H215 H 0.53942 0.32500 -0.02949
 H216 H 0.42123 0.18427 0.12221
 H217 H 0.42918 0.09546 0.09750
 H218 H 0.53049 0.12913 -0.03774
 C219 C -0.26205 -0.03986 0.51631
 C220 C -0.23863 -0.07137 0.47859
 C221 C -0.26697 -0.09431 0.44939
 C222 C -0.32148 -0.08373 0.45899
 C223 C -0.34639 -0.04961 0.49620
 C224 C -0.31608 -0.02786 0.52557
 O225 O -0.22851 -0.02056 0.53864
 C226 C -0.18296 -0.03973 0.51417
 C227 C -0.18684 -0.07061 0.47666
 C228 C -0.14418 -0.09029 0.44323
 C229 C -0.09594 -0.07699 0.44832
 C230 C -0.09078 -0.04598 0.48748
 C231 C -0.13520 -0.02794 0.52123
 H232 H -0.24787 -0.11871 0.41968
 H233 H -0.34430 -0.10017 0.43588
 H234 H -0.33405 -0.00132 0.55387
 H235 H -0.14834 -0.11314 0.41287
 H236 H -0.06314 -0.08947 0.42081
 H237 H -0.13310 -0.00335 0.55088
 C238 C 0.26326 0.02686 0.51615
 C239 C 0.24710 0.06639 0.48217
 C240 C 0.28103 0.09621 0.45589
 C241 C 0.33365 0.08424 0.46446
 C242 C 0.35133 0.04224 0.49766
 C243 C 0.31541 0.01358 0.52421
 O244 O 0.22562 0.00219 0.53617
 C245 C 0.18488 0.02615 0.51400
 C246 C 0.19582 0.06538 0.48016
 C247 C 0.15964 0.09207 0.44939
 C248 C 0.11064 0.07729 0.45336
 C249 C 0.09813 0.03762 0.48892
 C250 C 0.13601 0.01236 0.51999
 H251 H 0.26769 0.12695 0.42909
 H252 H 0.36099 0.10605 0.44353
 H253 H 0.32799 -0.01897 0.54939
 H254 H 0.16949 0.12175 0.42181
 H255 H 0.08308 0.09574 0.42786
 H256 H 0.12833 -0.01879 0.54674
 C257 C -0.01760 0.51923 1.28102
 C258 C -0.04952 0.48594 1.27350
 C259 C -0.07414 0.45899 1.31318
 C260 C -0.06489 0.46612 1.36256
 C261 C -0.03038 0.49846 1.37101
 C262 C -0.00660 0.52565 1.32974
 O263 O 0.00217 0.54079 1.23814
 C264 C -0.01716 0.52017 1.20281
 C265 C -0.04839 0.48584 1.22242
 C266 C -0.06895 0.45666 1.19212
 C267 C -0.05689 0.46320 1.13946
 C268 C -0.02671 0.50013 1.11790
 C269 C -0.00665 0.52896 1.15054
 H270 H -0.09910 0.43303 1.30635
 H271 H -0.08290 0.44499 1.39407
 H272 H 0.02021 0.55024 1.33539
 H273 H -0.09197 0.42859 1.20846
 H274 H -0.07051 0.43894 1.11556
 H275 H 0.01710 0.55695 1.13581
 C276 C 0.02194 0.50368 0.73698
 C277 C 0.06383 0.46833 0.75002
 C278 C 0.09682 0.43864 0.71468
 C279 C 0.08593 0.44551 0.66402
 C280 C 0.04214 0.48089 0.65007
 C281 C 0.00994 0.51048 0.68722
 O282 O -0.00480 0.52785 0.77601
 C283 C 0.02046 0.50711 0.81467
 C284 C 0.06256 0.47024 0.80103
 C285 C 0.09281 0.44209 0.83628
 C286 C 0.07891 0.45233 0.88756
 C287 C 0.03623 0.49099 0.90233
 C288 C 0.00678 0.51869 0.86506
 H289 H 0.12956 0.41103 0.72573
 H290 H 0.11079 0.42248 0.63597
 H291 H -0.02363 0.53790 0.67774
 H292 H 0.12523 0.41262 0.82485
 H293 H 0.10099 0.42998 0.91581
 H294 H -0.02625 0.54808 0.87510
   
