data_POSCAR
  _audit_creation_date              2014-09-24
  _audit_creation_method            'ToBaCCo'
  _symmetry_space_group_name_H-M    'P1'
  _symmetry_Int_Tables_number       1
  _symmetry_cell_setting            triclinic
  loop_
  _symmetry_equiv_pos_as_xyz
 x,y,z
_cell_length_a 43.3759
_cell_length_b 43.3575
_cell_length_c 43.9805
_cell_angle_alpha 90.017300
_cell_angle_beta 90.487400
_cell_angle_gamma 90.812300
loop_
  _atom_site_label
  _atom_site_type_symbol
  _atom_site_fract_x
  _atom_site_fract_y
  _atom_site_fract_z
C1 C 0.23923 0.26386 0.22150
 C2 C 0.26206 0.26418 0.19912
 C3 C 0.28494 0.24150 0.19868
 C4 C 0.28451 0.21809 0.22083
 C5 C 0.26177 0.21740 0.24333
 C6 C 0.23907 0.24039 0.24371
 C7 C 0.21683 0.28688 0.22228
 C8 C 0.19428 0.28688 0.24508
 C9 C 0.19413 0.26323 0.26696
 C10 C 0.21635 0.24007 0.26646
 C11 C 0.21641 0.21681 0.28858
 C12 C 0.23896 0.19382 0.28843
 C13 C 0.26156 0.19428 0.26567
 H14 H 0.26195 0.28208 0.18192
 H15 H 0.30229 0.20078 0.22097
 H16 H 0.21739 0.30524 0.20556
 H17 H 0.17658 0.26278 0.28437
 H18 H 0.19922 0.21694 0.30633
 H19 H 0.27885 0.17648 0.26520
 C20 C 0.75771 -0.26576 0.22505
 C21 C 0.73532 -0.26470 0.20181
 C22 C 0.71317 -0.24104 0.20079
 C23 C 0.71418 -0.21840 0.22395
 C24 C 0.73624 -0.21935 0.24737
 C25 C 0.75806 -0.24310 0.24796
 C26 C 0.77965 -0.28929 0.22572
 C27 C 0.80202 -0.29091 0.24927
 C28 C 0.80185 -0.26786 0.27204
 C29 C 0.78019 -0.24420 0.27153
 C30 C 0.78039 -0.22156 0.29434
 C31 C 0.75861 -0.19787 0.29402
 C32 C 0.73661 -0.19694 0.27041
 H33 H 0.73618 -0.28180 0.18391
 H34 H 0.69695 -0.20062 0.22485
 H35 H 0.77816 -0.30706 0.20845
 H36 H 0.81933 -0.26731 0.28975
 H37 H 0.79719 -0.22268 0.31268
 H38 H 0.71998 -0.17851 0.26976
 C39 C 0.74541 0.26970 0.77846
 C40 C 0.72271 0.26948 0.80096
 C41 C 0.69894 0.24682 0.80125
 C42 C 0.69892 0.22396 0.77830
 C43 C 0.72139 0.22412 0.75550
 C44 C 0.74464 0.24716 0.75551
 C45 C 0.76885 0.29230 0.77871
 C46 C 0.79183 0.29315 0.75609
 C47 C 0.79033 0.27059 0.73286
 C48 C 0.76711 0.24767 0.73255
 C49 C 0.76616 0.22511 0.70968
 C50 C 0.74310 0.20197 0.70946
 C51 C 0.72079 0.20168 0.73250
 H52 H 0.72455 0.28648 0.81894
 H53 H 0.68064 0.20674 0.77703
 H54 H 0.76817 0.31000 0.79605
 H55 H 0.80797 0.26969 0.71564
 H56 H 0.78319 0.22581 0.69178
 H57 H 0.70316 0.18372 0.73275
 C58 C 0.25487 -0.27449 0.77232
 C59 C 0.27808 -0.27396 0.79470
 C60 C 0.30194 -0.25171 0.79395
 C61 C 0.30222 -0.22964 0.77053
 C62 C 0.27917 -0.22995 0.74792
 C63 C 0.25547 -0.25257 0.74873
 C64 C 0.23119 -0.29676 0.77322
 C65 C 0.20769 -0.29786 0.75074
 C66 C 0.20889 -0.27586 0.72699
 C67 C 0.23241 -0.25328 0.72598
 C68 C 0.23309 -0.23121 0.70263
 C69 C 0.25651 -0.20842 0.70173
 C70 C 0.27948 -0.20803 0.72451
 H71 H 0.27738 -0.29071 0.81299
 H72 H 0.32068 -0.21256 0.76960
 H73 H 0.23208 -0.31402 0.79097
 H74 H 0.19085 -0.27516 0.70987
 H75 H 0.21555 -0.23198 0.68493
 H76 H 0.29739 -0.19034 0.72427
 C77 C 0.75391 -0.27195 0.77410
 C78 C 0.73122 -0.27037 0.79658
 C79 C 0.70881 -0.24726 0.79568
 C80 C 0.70933 -0.22559 0.77189
 C81 C 0.73188 -0.22689 0.74928
 C82 C 0.75421 -0.25021 0.75032
 C83 C 0.77626 -0.29496 0.77515
 C84 C 0.79926 -0.29694 0.75264
 C85 C 0.79904 -0.27497 0.72885
 C86 C 0.77689 -0.25172 0.72766
 C87 C 0.77729 -0.22971 0.70425
 C88 C 0.75523 -0.20626 0.70314
 C89 C 0.73252 -0.20512 0.72573
 H90 H 0.73132 -0.28685 0.81510
 H91 H 0.69195 -0.20790 0.77079
 H92 H 0.77470 -0.31203 0.79304
 H93 H 0.81690 -0.27482 0.71181
 H94 H 0.79462 -0.23098 0.68670
 H95 H 0.71568 -0.18688 0.72532
 C96 C 0.24807 0.26773 0.76949
 C97 C 0.27133 0.26677 0.79179
 C98 C 0.29394 0.24387 0.79106
 C99 C 0.29313 0.22189 0.76751
 C100 C 0.26998 0.22256 0.74504
 C101 C 0.24732 0.24555 0.74604
 C102 C 0.22538 0.29038 0.77050
 C103 C 0.20173 0.29116 0.74845
 C104 C 0.20119 0.26904 0.72503
 C105 C 0.22379 0.24624 0.72370
 C106 C 0.22310 0.22397 0.70055
 C107 C 0.24558 0.20093 0.69940
 C108 C 0.26898 0.20046 0.72175
 H109 H 0.27144 0.28350 0.81011
 H110 H 0.31067 0.20436 0.76656
 H111 H 0.22625 0.30760 0.78837
 H112 H 0.18283 0.26921 0.70816
 H113 H 0.20519 0.22473 0.68324
 H114 H 0.28611 0.18251 0.72134
 C115 C 0.25691 -0.27532 0.22285
 C116 C 0.27951 -0.27372 0.20018
 C117 C 0.30223 -0.24997 0.20019
 C118 C 0.30168 -0.22792 0.22387
 C119 C 0.27945 -0.22948 0.24678
 C120 C 0.25700 -0.25326 0.24630
 C121 C 0.23417 -0.29870 0.22226
 C122 C 0.21136 -0.30073 0.24502
 C123 C 0.21215 -0.27847 0.26855
 C124 C 0.23461 -0.25491 0.26928
 C125 C 0.23486 -0.23281 0.29262
 C126 C 0.25724 -0.20904 0.29332
 C127 C 0.27944 -0.20757 0.27025
 H128 H 0.27831 -0.29036 0.18184
 H129 H 0.31935 -0.21010 0.22554
 H130 H 0.23523 -0.31597 0.20453
 H131 H 0.19446 -0.27830 0.28576
 H132 H 0.21787 -0.23438 0.31050
 H133 H 0.29650 -0.18905 0.27032
 C134 C 0.74144 0.27489 0.23183
 C135 C 0.71941 0.27349 0.20826
 C136 C 0.69666 0.25003 0.20765
 C137 C 0.69610 0.22793 0.23104
 C138 C 0.71790 0.22905 0.25473
 C139 C 0.74060 0.25267 0.25519
 C140 C 0.76427 0.29817 0.23233
 C141 C 0.78649 0.29992 0.25605
 C142 C 0.78507 0.27743 0.27932
 C143 C 0.76252 0.25397 0.27896
 C144 C 0.76180 0.23156 0.30197
 C145 C 0.73941 0.20778 0.30156
 C146 C 0.71745 0.20680 0.27787
 H147 H 0.72028 0.29035 0.19009
 H148 H 0.67843 0.20999 0.23100
 H149 H 0.76370 0.31557 0.21469
 H150 H 0.80236 0.27702 0.29720
 H151 H 0.77852 0.23280 0.32040
 H152 H 0.70032 0.18835 0.27713
 O153 O 0.27205 0.02645 0.46690
 O154 O 0.27674 -0.03234 0.52721
 O155 O 0.27661 -0.03328 0.46815
 O156 O 0.27266 0.02762 0.52618
 O157 O 0.22195 0.02329 0.52621
 O158 O 0.22589 -0.03768 0.46799
 O159 O 0.22601 -0.03659 0.52721
 O160 O 0.22134 0.02201 0.46692
 Cu161 Cu 0.27959 -0.00241 0.49716
 Cu162 Cu 0.21872 -0.00765 0.49711
 C163 C 0.24586 0.03417 0.45646
 C164 C 0.25216 -0.04461 0.53747
 C165 C 0.25196 -0.04589 0.45808
 C166 C 0.24667 0.03589 0.53618
 O167 O 0.72146 0.02785 0.53269
 O168 O 0.72606 -0.03035 0.47188
 O169 O 0.72585 -0.03201 0.53105
 O170 O 0.72111 0.02937 0.47357
 O171 O 0.77181 0.03399 0.47394
 O172 O 0.77655 -0.02743 0.53160
 O173 O 0.77676 -0.02568 0.47245
 O174 O 0.77217 0.03235 0.53319
 Cu175 Cu 0.71854 -0.00176 0.50227
 Cu176 Cu 0.77940 0.00379 0.50285
 C177 C 0.74607 0.04008 0.54335
 C178 C 0.75223 -0.03795 0.46172
 C179 C 0.75198 -0.04026 0.54119
 C180 C 0.74563 0.04217 0.46385
 O181 O 0.46319 0.21868 0.03011
 O182 O 0.52395 0.21931 -0.02836
 O183 O 0.52341 0.21879 0.03088
 O184 O 0.46400 0.21774 -0.02911
 O185 O 0.46410 0.26860 -0.02959
 O186 O 0.52342 0.26965 0.03112
 O187 O 0.52400 0.27017 -0.02794
 O188 O 0.46342 0.26954 0.02970
 Cu189 Cu 0.49362 0.21353 0.00095
 Cu190 Cu 0.49369 0.27457 0.00084
 C191 C 0.45290 0.24413 0.03987
 C192 C 0.53435 0.24499 -0.03813
 C193 C 0.53367 0.24430 0.04127
 C194 C 0.45398 0.24291 -0.03980
 O195 O 0.53697 0.73197 0.02947
 O196 O 0.47679 0.72860 -0.02987
 O197 O 0.53662 0.73094 -0.02970
 O198 O 0.47671 0.73031 0.02932
 O199 O 0.47593 0.78114 0.02812
 O200 O 0.53561 0.78177 -0.03069
 O201 O 0.47567 0.77942 -0.03111
 O202 O 0.53596 0.78280 0.02841
 Cu203 Cu 0.50685 0.72536 -0.00001
 Cu204 Cu 0.50567 0.78637 -0.00140
 C205 C 0.54690 0.75795 0.03903
 C206 C 0.46600 0.75337 -0.04078
 C207 C 0.54633 0.75651 -0.04033
 C208 C 0.46603 0.75569 0.03878
 O209 O 0.02634 0.46752 0.22425
 O210 O -0.03083 0.52985 0.22473
 O211 O 0.02927 0.52763 0.22234
 O212 O -0.03367 0.46985 0.22617
 O213 O -0.03113 0.47115 0.27625
 O214 O 0.03148 0.52913 0.27243
 O215 O -0.02833 0.53102 0.27482
 O216 O 0.02871 0.46923 0.27432
 Cu217 Cu -0.00244 0.49859 0.21933
 Cu218 Cu 0.00043 0.50028 0.27945
 C219 C 0.03731 0.45773 0.24928
 C220 C -0.03944 0.54102 0.24996
 C221 C 0.04115 0.53829 0.24674
 C222 C -0.04320 0.46062 0.25189
 O223 O 0.02999 0.52756 0.72997
 O224 O -0.03084 0.46711 0.73073
 O225 O -0.03006 0.52734 0.73060
 O226 O 0.02928 0.46734 0.72991
 O227 O 0.02997 0.46722 0.78006
 O228 O -0.02887 0.52739 0.78074
 O229 O -0.02985 0.46754 0.78087
 O230 O 0.03102 0.52723 0.78011
 Cu231 Cu -0.00051 0.49733 0.72525
 Cu232 Cu 0.00070 0.49736 0.78545
 C233 C 0.04089 0.53774 0.75501
 C234 C -0.04078 0.45702 0.75601
 C235 C -0.03959 0.53768 0.75583
 C236 C 0.03970 0.45693 0.75491
 C237 C 0.35695 0.24562 0.13143
 C238 C 0.34350 0.21691 0.13968
 C239 C 0.32000 0.21569 0.16149
 C240 C 0.30967 0.24273 0.17549
 C241 C 0.32327 0.27107 0.16743
 C242 C 0.34652 0.27258 0.14573
 C243 C 0.38179 0.24597 0.10788
 C244 C 0.39615 0.27338 0.09769
 C245 C 0.41910 0.27256 0.07571
 C246 C 0.42851 0.24446 0.06325
 C247 C 0.41436 0.21699 0.07321
 C248 C 0.39106 0.21756 0.09525
 C249 C 0.35360 0.18962 0.12619
 C250 C 0.37693 0.18992 0.10456
 H251 H 0.34335 0.16763 0.13253
 H252 H 0.38395 0.16816 0.09488
 H253 H 0.30950 0.19366 0.16732
 H254 H 0.31620 0.29223 0.17827
 H255 H 0.42956 0.29415 0.06850
 H256 H 0.42131 0.19512 0.06368
 H257 H 0.35606 0.29507 0.14071
 H258 H 0.38999 0.29573 0.10626
 C259 C 0.64355 0.76204 0.13150
 C260 C 0.65650 0.73361 0.14025
 C261 C 0.67969 0.73275 0.16274
 C262 C 0.69035 0.75992 0.17737
 C263 C 0.67728 0.78810 0.16823
 C264 C 0.65443 0.78917 0.14576
 C265 C 0.61864 0.76192 0.10759
 C266 C 0.60444 0.78901 0.09711
 C267 C 0.58124 0.78763 0.07493
 C268 C 0.57147 0.75925 0.06262
 C269 C 0.58551 0.73213 0.07287
 C270 C 0.60895 0.73326 0.09508
 C271 C 0.64597 0.70607 0.12681
 C272 C 0.62269 0.70590 0.10478
 H273 H 0.65582 0.68424 0.13352
 H274 H 0.61532 0.68395 0.09517
 H275 H 0.68816 0.71046 0.16973
 H276 H 0.68537 0.80987 0.17754
 H277 H 0.57086 0.80893 0.06745
 H278 H 0.57828 0.71004 0.06347
 H279 H 0.64570 0.81156 0.13989
 H280 H 0.61085 0.81152 0.10566
 C281 C 0.62936 0.24888 -0.13058
 C282 C 0.63757 0.22063 -0.14412
 C283 C 0.66031 0.22003 -0.16672
 C284 C 0.67568 0.24730 -0.17612
 C285 C 0.66719 0.27525 -0.16229
 C286 C 0.64452 0.27606 -0.14006
 C287 C 0.60493 0.24860 -0.10663
 C288 C 0.59479 0.27561 -0.09225
 C289 C 0.57200 0.27421 -0.07013
 C290 C 0.55867 0.24589 -0.06156
 C291 C 0.56861 0.21878 -0.07570
 C292 C 0.59147 0.21995 -0.09819
 C293 C 0.62326 0.19305 -0.13484
 C294 C 0.60079 0.19271 -0.11232
 H295 H 0.62957 0.17133 -0.14510
 H296 H 0.59049 0.17076 -0.10594
 H297 H 0.66682 0.19788 -0.17584
 H298 H 0.67704 0.29712 -0.16938
 H299 H 0.56484 0.29552 -0.05964
 H300 H 0.55841 0.19675 -0.06939
 H301 H 0.63919 0.29833 -0.13076
 H302 H 0.60400 0.29812 -0.09773
 C303 C 0.37273 0.74737 -0.13644
 C304 C 0.36035 0.77566 -0.14654
 C305 C 0.33746 0.77587 -0.16934
 C306 C 0.32661 0.74820 -0.18242
 C307 C 0.33922 0.72026 -0.17264
 C308 C 0.36193 0.71977 -0.15001
 C309 C 0.39680 0.74809 -0.11174
 C310 C 0.41011 0.72121 -0.09972
 C311 C 0.43240 0.72307 -0.07672
 C312 C 0.44211 0.75173 -0.06502
 C313 C 0.42894 0.77868 -0.07676
 C314 C 0.40639 0.77707 -0.09986
 C315 C 0.37079 0.80354 -0.13377
 C316 C 0.39337 0.80424 -0.11102
 H317 H 0.36136 0.82521 -0.14152
 H318 H 0.40068 0.82643 -0.10193
 H319 H 0.32770 0.79758 -0.17655
 H320 H 0.33167 0.69862 -0.18273
 H321 H 0.44212 0.70188 -0.06812
 H322 H 0.43617 0.80099 -0.06787
 H323 H 0.37068 0.69754 -0.14358
 H324 H 0.40366 0.69848 -0.10765
 C325 C 0.12771 0.35988 0.24992
 C326 C 0.13554 0.34696 0.22149
 C327 C 0.15717 0.32318 0.22002
 C328 C 0.17132 0.31195 0.24656
 C329 C 0.16361 0.32493 0.27465
 C330 C 0.14214 0.34851 0.27639
 C331 C 0.10443 0.38515 0.25053
 C332 C 0.09489 0.39930 0.27765
 C333 C 0.07318 0.42273 0.27706
 C334 C 0.06033 0.43278 0.24948
 C335 C 0.06962 0.41882 0.22230
 C336 C 0.09144 0.39514 0.22264
 C337 C 0.12176 0.35783 0.19472
 C338 C 0.10025 0.38142 0.19527
 H339 H 0.12774 0.34796 0.17294
 H340 H 0.09031 0.38901 0.17390
 H341 H 0.16273 0.31313 0.19821
 H342 H 0.17456 0.31710 0.29543
 H343 H 0.06647 0.43302 0.29841
 H344 H 0.05984 0.42631 0.20082
 H345 H 0.13735 0.35752 0.29867
 H346 H 0.10382 0.39267 0.29960
 C347 C 0.13635 0.63331 0.75554
 C348 C 0.14513 0.64578 0.72715
 C349 C 0.16834 0.66871 0.72565
 C350 C 0.18362 0.67952 0.75216
 C351 C 0.17436 0.66696 0.78028
 C352 C 0.15123 0.64440 0.78196
 C353 C 0.11170 0.60870 0.75617
 C354 C 0.10129 0.59496 0.78332
 C355 C 0.07841 0.57205 0.78274
 C356 C 0.06523 0.56207 0.75515
 C357 C 0.07540 0.57560 0.72793
 C358 C 0.09840 0.59878 0.72826
 C359 C 0.13094 0.63505 0.70034
 C360 C 0.10813 0.61206 0.70088
 H361 H 0.13764 0.64453 0.67853
 H362 H 0.09795 0.60454 0.67949
 H363 H 0.17532 0.67687 0.70346
 H364 H 0.18405 0.67527 0.80155
 H365 H 0.07106 0.56207 0.80411
 H366 H 0.06536 0.56817 0.70645
 H367 H 0.14535 0.63611 0.80430
 H368 H 0.11044 0.60150 0.80528
 C369 C -0.13115 0.63757 0.25256
 C370 C -0.14399 0.64686 0.22442
 C371 C -0.16617 0.67020 0.22343
 C372 C -0.17596 0.68504 0.25020
 C373 C -0.16303 0.67528 0.27807
 C374 C -0.14115 0.65206 0.27925
 C375 C -0.10740 0.61273 0.25265
 C376 C -0.09329 0.60189 0.27950
 C377 C -0.07131 0.57876 0.27842
 C378 C -0.06266 0.56576 0.25061
 C379 C -0.07650 0.57642 0.22369
 C380 C -0.09874 0.59970 0.22452
 C381 C -0.13443 0.63300 0.19736
 C382 C -0.11232 0.60995 0.19741
 H383 H -0.14419 0.64009 0.17574
 H384 H -0.10574 0.60000 0.17584
 H385 H -0.17458 0.67758 0.20140
 H386 H -0.17056 0.68461 0.29953
 H387 H -0.06105 0.57104 0.29958
 H388 H -0.07007 0.56656 0.20204
 H389 H -0.13256 0.64575 0.30142
 H390 H -0.09884 0.61087 0.30160
 C391 C -0.13688 0.36219 0.75902
 C392 C -0.14640 0.34917 0.73094
 C393 C -0.16967 0.32625 0.73006
 C394 C -0.18428 0.31599 0.75688
 C395 C -0.17442 0.32924 0.78467
 C396 C -0.15122 0.35180 0.78575
 C397 C -0.11203 0.38663 0.75900
 C398 C -0.10071 0.40069 0.78582
 C399 C -0.07767 0.42339 0.78465
 C400 C -0.06525 0.43285 0.75676
 C401 C -0.07631 0.41898 0.72987
 C402 C -0.09945 0.39596 0.73081
 C403 C -0.13289 0.35932 0.70382
 C404 C -0.11000 0.38224 0.70375
 H405 H -0.14019 0.34944 0.68225
 H406 H -0.10037 0.38931 0.68214
 H407 H -0.17719 0.31761 0.70809
 H408 H -0.18364 0.32145 0.80616
 H409 H -0.06962 0.43364 0.80578
 H410 H -0.06683 0.42598 0.70817
 H411 H -0.14485 0.36063 0.80786
 H412 H -0.10923 0.39454 0.80799
 C413 C 0.23865 0.12461 0.35907
 C414 C 0.26675 0.13819 0.34931
 C415 C 0.26673 0.16048 0.32614
 C416 C 0.23902 0.16960 0.31232
 C417 C 0.21126 0.15584 0.32179
 C418 C 0.21100 0.13366 0.34479
 C419 C 0.23964 0.10123 0.38421
 C420 C 0.21297 0.08676 0.39591
 C421 C 0.21511 0.06518 0.41935
 C422 C 0.24384 0.05737 0.43181
 C423 C 0.27055 0.07171 0.42038
 C424 C 0.26867 0.09353 0.39684
 C425 C 0.29469 0.12958 0.36281
 C426 C 0.29564 0.10768 0.38599
 H427 H 0.31621 0.13993 0.35533
 H428 H 0.31786 0.10181 0.39565
 H429 H 0.28829 0.17120 0.31924
 H430 H 0.18961 0.16209 0.31118
 H431 H 0.19410 0.05452 0.42769
 H432 H 0.29291 0.06595 0.42982
 H433 H 0.18892 0.12397 0.35097
 H434 H 0.19022 0.09175 0.38738
 C435 C 0.74069 0.13277 0.63871
 C436 C 0.76912 0.14262 0.65175
 C437 C 0.76970 0.16498 0.67485
 C438 C 0.74230 0.17812 0.68517
 C439 C 0.71418 0.16847 0.67208
 C440 C 0.71330 0.14611 0.64921
 C441 C 0.74111 0.10871 0.61417
 C442 C 0.71411 0.09686 0.60012
 C443 C 0.71578 0.07457 0.57728
 C444 C 0.74437 0.06352 0.56776
 C445 C 0.77138 0.07506 0.58172
 C446 C 0.76997 0.09734 0.60481
 C447 C 0.79684 0.13021 0.64163
 C448 C 0.79726 0.10817 0.61859
 H449 H 0.81860 0.13777 0.65159
 H450 H 0.81934 0.09941 0.61148
 H451 H 0.79155 0.17196 0.68503
 H452 H 0.69273 0.17856 0.67925
 H453 H 0.69456 0.06606 0.56696
 H454 H 0.79363 0.06660 0.57471
 H455 H 0.69099 0.13982 0.63998
 H456 H 0.69147 0.10441 0.60641
 C457 C 0.25811 -0.13920 0.63103
 C458 C 0.22985 -0.14881 0.64410
 C459 C 0.22948 -0.17136 0.66702
 C460 C 0.25694 -0.18489 0.67714
 C461 C 0.28486 -0.17564 0.66383
 C462 C 0.28552 -0.15313 0.64114
 C463 C 0.25752 -0.11470 0.60693
 C464 C 0.28440 -0.10285 0.59312
 C465 C 0.28259 -0.08006 0.57076
 C466 C 0.25398 -0.06851 0.56147
 C467 C 0.22708 -0.08004 0.57519
 C468 C 0.22864 -0.10280 0.59784
 C469 C 0.20209 -0.13590 0.63424
 C470 C 0.20148 -0.11354 0.61150
 H471 H 0.18044 -0.14330 0.64418
 H472 H 0.17938 -0.10438 0.60461
 H473 H 0.20778 -0.17806 0.67732
 H474 H 0.30633 -0.18607 0.67079
 H475 H 0.30373 -0.07158 0.56061
 H476 H 0.20481 -0.07119 0.56837
 H477 H 0.30769 -0.14713 0.63178
 H478 H 0.30707 -0.11074 0.59927
 C479 C 0.75933 -0.12925 0.36522
 C480 C 0.73113 -0.14222 0.35451
 C481 C 0.73107 -0.16448 0.33131
 C482 C 0.75879 -0.17418 0.31841
 C483 C 0.78668 -0.16125 0.32900
 C484 C 0.78703 -0.13910 0.35204
 C485 C 0.75837 -0.10562 0.39012
 C486 C 0.78510 -0.09139 0.40244
 C487 C 0.78298 -0.06954 0.42561
 C488 C 0.75422 -0.06122 0.43717
 C489 C 0.72746 -0.07527 0.42508
 C490 C 0.72931 -0.09730 0.40177
 C491 C 0.70316 -0.13300 0.36705
 C492 C 0.70227 -0.11102 0.39014
 H493 H 0.68157 -0.14293 0.35886
 H494 H 0.68001 -0.10467 0.39905
 H495 H 0.70939 -0.17461 0.32357
 H496 H 0.80836 -0.16804 0.31916
 H497 H 0.80404 -0.05910 0.43448
 H498 H 0.70507 -0.06908 0.43381
 H499 H 0.80922 -0.13001 0.35909
 H500 H 0.80787 -0.09675 0.39457
 C501 C 0.63988 0.75775 -0.13425
 C502 C 0.64854 0.72887 -0.14625
 C503 C 0.67086 0.72742 -0.16913
 C504 C 0.68503 0.75439 -0.18028
 C505 C 0.67652 0.78296 -0.16823
 C506 C 0.65428 0.78469 -0.14557
 C507 C 0.61582 0.75829 -0.10995
 C508 C 0.60522 0.78582 -0.09688
 C509 C 0.58275 0.78510 -0.07436
 C510 C 0.57025 0.75698 -0.06416
 C511 C 0.58063 0.72941 -0.07702
 C512 C 0.60313 0.72987 -0.09982
 C513 C 0.63495 0.70159 -0.13535
 C514 C 0.61283 0.70207 -0.11256
 H515 H 0.64161 0.67948 -0.14451
 H516 H 0.60308 0.68031 -0.10487
 H517 H 0.67697 0.70523 -0.17852
 H518 H 0.68744 0.80409 -0.17605
 H519 H 0.57518 0.80674 -0.06488
 H520 H 0.57107 0.70752 -0.06945
 H521 H 0.64889 0.80733 -0.13718
 H522 H 0.61384 0.80817 -0.10372
 C523 C 0.36256 0.24006 -0.13731
 C524 C 0.35403 0.26873 -0.15002
 C525 C 0.33200 0.26977 -0.17357
 C526 C 0.31798 0.24260 -0.18471
 C527 C 0.32656 0.21423 -0.17215
 C528 C 0.34852 0.21290 -0.14882
 C529 C 0.38604 0.23998 -0.11205
 C530 C 0.39617 0.21272 -0.09796
 C531 C 0.41806 0.21384 -0.07455
 C532 C 0.43048 0.24213 -0.06444
 C533 C 0.42052 0.26945 -0.07828
 C534 C 0.39855 0.26858 -0.10195
 C535 C 0.36742 0.29620 -0.13909
 C536 C 0.38914 0.29613 -0.11555
 H537 H 0.36090 0.31815 -0.14882
 H538 H 0.39874 0.31803 -0.10788
 H539 H 0.32586 0.29181 -0.18336
 H540 H 0.31580 0.19295 -0.17999
 H541 H 0.42529 0.19237 -0.06434
 H542 H 0.42999 0.29147 -0.07076
 H543 H 0.35393 0.19039 -0.14004
 H544 H 0.38758 0.19025 -0.10465
 C545 C 0.37119 0.75564 0.13148
 C546 C 0.35802 0.72681 0.13956
 C547 C 0.33507 0.72510 0.16191
 C548 C 0.32499 0.75178 0.17711
 C549 C 0.33845 0.78033 0.16879
 C550 C 0.36100 0.78225 0.14643
 C551 C 0.39562 0.75648 0.10752
 C552 C 0.40967 0.78410 0.09743
 C553 C 0.43239 0.78367 0.07518
 C554 C 0.44187 0.75576 0.06239
 C555 C 0.42798 0.72810 0.07221
 C556 C 0.40492 0.72828 0.09447
 C557 C 0.36808 0.69975 0.12558
 C558 C 0.39109 0.70045 0.10363
 H559 H 0.35809 0.67760 0.13180
 H560 H 0.39812 0.67884 0.09362
 H561 H 0.32631 0.70254 0.16833
 H562 H 0.33086 0.80177 0.17861
 H563 H 0.44265 0.80538 0.06805
 H564 H 0.43495 0.70637 0.06238
 H565 H 0.37004 0.80490 0.14122
 H566 H 0.40347 0.80632 0.10630
 C567 C 0.62843 0.24457 0.13565
 C568 C 0.63718 0.27350 0.14821
 C569 C 0.65955 0.27518 0.17149
 C570 C 0.67354 0.24837 0.18255
 C571 C 0.66513 0.21982 0.16974
 C572 C 0.64293 0.21787 0.14665
 C573 C 0.60408 0.24371 0.11121
 C574 C 0.59328 0.21606 0.09777
 C575 C 0.57048 0.21642 0.07521
 C576 C 0.55781 0.24431 0.06532
 C577 C 0.56838 0.27201 0.07857
 C578 C 0.59124 0.27190 0.10143
 C579 C 0.62351 0.30056 0.13756
 C580 C 0.60113 0.29978 0.11461
 H581 H 0.63024 0.32272 0.14711
 H582 H 0.59130 0.32138 0.10717
 H583 H 0.66567 0.29737 0.18138
 H584 H 0.67597 0.19883 0.17744
 H585 H 0.56281 0.19468 0.06543
 H586 H 0.55871 0.29373 0.07123
 H587 H 0.63758 0.19523 0.13777
 H588 H 0.60198 0.19386 0.10435
 C589 C -0.13256 0.63296 0.75717
 C590 C -0.14156 0.64546 0.72883
 C591 C -0.16388 0.66860 0.72745
 C592 C -0.17801 0.67974 0.75403
 C593 C -0.16884 0.66691 0.78210
 C594 C -0.14657 0.64406 0.78367
 C595 C -0.10859 0.60835 0.75767
 C596 C -0.09770 0.59480 0.78476
 C597 C -0.07538 0.57196 0.78402
 C598 C -0.06331 0.56190 0.75630
 C599 C -0.07396 0.57525 0.72917
 C600 C -0.09634 0.59836 0.72966
 C601 C -0.12846 0.63461 0.70192
 C602 C -0.10640 0.61153 0.70232
 H603 H -0.13539 0.64408 0.68015
 H604 H -0.09702 0.60394 0.68086
 H605 H -0.17106 0.67680 0.70528
 H606 H -0.17779 0.67527 0.80340
 H607 H -0.06761 0.56211 0.80532
 H608 H -0.06475 0.56778 0.70759
 H609 H -0.14059 0.63559 0.80596
 H610 H -0.10600 0.60148 0.80680
 C611 C -0.14242 0.36921 0.25762
 C612 C -0.15574 0.35945 0.22972
 C613 C -0.17940 0.33697 0.22933
 C614 C -0.19022 0.32338 0.25648
 C615 C -0.17684 0.33360 0.28412
 C616 C -0.15349 0.35605 0.28471
 C617 C -0.11692 0.39297 0.25702
 C618 C -0.10217 0.40421 0.28356
 C619 C -0.07838 0.42612 0.28177
 C620 C -0.06855 0.43744 0.25354
 C621 C -0.08315 0.42647 0.22696
 C622 C -0.10716 0.40445 0.22850
 C623 C -0.14511 0.37189 0.20227
 C624 C -0.12136 0.39387 0.20167
 H625 H -0.15526 0.36443 0.18085
 H626 H -0.11394 0.40267 0.17982
 H627 H -0.18813 0.32913 0.20749
 H628 H -0.18503 0.32520 0.30579
 H629 H -0.06758 0.43416 0.30266
 H630 H -0.07585 0.43506 0.20498
 H631 H -0.14456 0.36278 0.30671
 H632 H -0.10856 0.39643 0.30594
 C633 C 0.13188 0.36087 0.75424
 C634 C 0.14414 0.35258 0.72569
 C635 C 0.16679 0.32981 0.72391
 C636 C 0.17745 0.31491 0.75022
 C637 C 0.16491 0.32287 0.77840
 C638 C 0.14249 0.34550 0.78046
 C639 C 0.10809 0.38563 0.75523
 C640 C 0.09507 0.39609 0.78254
 C641 C 0.07303 0.41921 0.78229
 C642 C 0.06326 0.43254 0.75486
 C643 C 0.07615 0.42236 0.72751
 C644 C 0.09849 0.39921 0.72751
 C645 C 0.13377 0.36705 0.69911
 C646 C 0.11134 0.38974 0.69999
 H647 H 0.14309 0.36067 0.67724
 H648 H 0.10405 0.40016 0.67876
 H649 H 0.17648 0.32403 0.70202
 H650 H 0.17227 0.31132 0.79900
 H651 H 0.06354 0.42660 0.80375
 H652 H 0.06891 0.43257 0.70616
 H653 H 0.13376 0.35046 0.80278
 H654 H 0.10160 0.38687 0.80438
 C655 C 0.14042 0.62980 0.24229
 C656 C 0.15050 0.64247 0.27033
 C657 C 0.17396 0.66512 0.27109
 C658 C 0.18812 0.67575 0.24418
 C659 C 0.17820 0.66245 0.21643
 C660 C 0.15480 0.64000 0.21547
 C661 C 0.11489 0.60605 0.24248
 C662 C 0.10257 0.59258 0.21576
 C663 C 0.07869 0.57068 0.21720
 C664 C 0.06647 0.56154 0.24528
 C665 C 0.07858 0.57482 0.27202
 C666 C 0.10248 0.59695 0.27082
 C667 C 0.13724 0.63243 0.29758
 C668 C 0.11383 0.61010 0.29783
 H669 H 0.14504 0.64201 0.31912
 H670 H 0.10433 0.60316 0.31954
 H671 H 0.18183 0.67347 0.29306
 H672 H 0.18736 0.67024 0.19492
 H673 H 0.06980 0.56084 0.19620
 H674 H 0.06930 0.56806 0.29388
 H675 H 0.14818 0.63118 0.19341
 H676 H 0.11090 0.59866 0.19350
 C677 C 0.75764 -0.13653 0.63306
 C678 C 0.72925 -0.14998 0.64216
 C679 C 0.72869 -0.17289 0.66470
 C680 C 0.75607 -0.18270 0.67865
 C681 C 0.78419 -0.16951 0.66946
 C682 C 0.78505 -0.14676 0.64700
 C683 C 0.75715 -0.11183 0.60916
 C684 C 0.78406 -0.09686 0.59858
 C685 C 0.78231 -0.07378 0.57651
 C686 C 0.75375 -0.06496 0.56438
 C687 C 0.72684 -0.07985 0.57465
 C688 C 0.72832 -0.10308 0.59682
 C689 C 0.70155 -0.14043 0.62885
 C690 C 0.70109 -0.11747 0.60669
 H691 H 0.67982 -0.15076 0.63577
 H692 H 0.67902 -0.11082 0.59720
 H693 H 0.70685 -0.18324 0.67131
 H694 H 0.80562 -0.17639 0.68011
 H695 H 0.80347 -0.06273 0.56900
 H696 H 0.70461 -0.07332 0.56543
 H697 H 0.80736 -0.13739 0.64111
 H698 H 0.80668 -0.10252 0.60703
 C699 C 0.25828 -0.14058 0.36474
 C700 C 0.23000 -0.15097 0.35178
 C701 C 0.22981 -0.17329 0.32862
 C702 C 0.25747 -0.18572 0.31809
 C703 C 0.28541 -0.17564 0.33124
 C704 C 0.28589 -0.15341 0.35420
 C705 C 0.25750 -0.11634 0.38907
 C706 C 0.28435 -0.10391 0.40289
 C707 C 0.28242 -0.08119 0.42524
 C708 C 0.25372 -0.07024 0.43455
 C709 C 0.22681 -0.08252 0.42099
 C710 C 0.22849 -0.10526 0.39833
 C711 C 0.20208 -0.13901 0.36193
 C712 C 0.20134 -0.11675 0.38478
 H713 H 0.18042 -0.14701 0.35207
 H714 H 0.17913 -0.10826 0.39182
 H715 H 0.20807 -0.18065 0.31843
 H716 H 0.30705 -0.18523 0.32394
 H717 H 0.30358 -0.07216 0.43528
 H718 H 0.20448 -0.07418 0.42787
 H719 H 0.30811 -0.14673 0.36339
 H720 H 0.30710 -0.11125 0.39672
 C721 C 0.73856 0.13784 0.37150
 C722 C 0.76679 0.14865 0.35925
 C723 C 0.76687 0.17137 0.33652
 C724 C 0.73916 0.18385 0.32573
 C725 C 0.71124 0.17328 0.33807
 C726 C 0.71086 0.15061 0.36062
 C727 C 0.73950 0.11327 0.39551
 C728 C 0.71273 0.10050 0.40874
 C729 C 0.71484 0.07754 0.43087
 C730 C 0.74363 0.06671 0.44052
 C731 C 0.77044 0.07931 0.42753
 C732 C 0.76859 0.10229 0.40512
 C733 C 0.79478 0.13673 0.36969
 C734 C 0.79567 0.11415 0.39220
 H735 H 0.81640 0.14504 0.36035
 H736 H 0.81794 0.10572 0.39952
 H737 H 0.78858 0.17907 0.32689
 H738 H 0.68955 0.18284 0.33051
 H739 H 0.69375 0.06825 0.44048
 H740 H 0.79284 0.07107 0.43468
 H741 H 0.68867 0.14356 0.36923
 H742 H 0.68993 0.10777 0.40229
 C743 C 0.24229 0.13110 0.62926
 C744 C 0.27077 0.14479 0.63827
 C745 C 0.27162 0.16763 0.66092
 C746 C 0.24447 0.17714 0.67506
 C747 C 0.21628 0.16359 0.66605
 C748 C 0.21513 0.14091 0.64349
 C749 C 0.24245 0.10664 0.60508
 C750 C 0.21541 0.09164 0.59438
 C751 C 0.21685 0.06884 0.57201
 C752 C 0.24521 0.06033 0.55968
 C753 C 0.27225 0.07525 0.57007
 C754 C 0.27108 0.09824 0.59252
 C755 C 0.29825 0.13556 0.62474
 C756 C 0.29841 0.11276 0.60242
 H757 H 0.32004 0.14604 0.63163
 H758 H 0.32032 0.10637 0.59276
 H759 H 0.29350 0.17822 0.66739
 H760 H 0.19502 0.17018 0.67687
 H761 H 0.19560 0.05776 0.56442
 H762 H 0.29433 0.06898 0.56069
 H763 H 0.19279 0.13129 0.63774
 H764 H 0.19293 0.09709 0.60296
   
