data_POSCAR
  _audit_creation_date              2014-09-24
  _audit_creation_method            'ToBaCCo'
  _symmetry_space_group_name_H-M    'P1'
  _symmetry_Int_Tables_number       1
  _symmetry_cell_setting            triclinic
  loop_
  _symmetry_equiv_pos_as_xyz
 x,y,z
_cell_length_a 57.0806
_cell_length_b 45.1725
_cell_length_c 27.6057
_cell_angle_alpha 89.920600
_cell_angle_beta 89.951900
_cell_angle_gamma 89.924700
loop_
  _atom_site_label
  _atom_site_type_symbol
  _atom_site_fract_x
  _atom_site_fract_y
  _atom_site_fract_z
C1 C 0.76793 0.17663 0.45718
 C2 C 0.77588 0.16578 0.50193
 C3 C 0.76660 0.17538 0.54635
 C4 C 0.74719 0.19515 0.54587
 C5 C 0.73844 0.20608 0.50107
 C6 C 0.74865 0.19662 0.45664
 C7 C 0.73795 0.20535 0.41294
 C8 C 0.71892 0.22452 0.41251
 C9 C 0.70925 0.23522 0.45580
 C10 C 0.71875 0.22558 0.50061
 C11 C 0.73483 0.20200 0.58853
 C12 C 0.71581 0.22120 0.58806
 C13 C 0.70806 0.23447 0.54486
 C14 C 0.68848 0.25411 0.54412
 C15 C 0.67939 0.26290 0.49905
 C16 C 0.68952 0.25408 0.45537
 H17 H 0.74357 0.19667 0.37839
 H18 H 0.71142 0.23016 0.37771
 H19 H 0.73913 0.19169 0.62275
 H20 H 0.70667 0.22450 0.62194
 H21 H 0.79134 0.15179 0.50233
 H22 H 0.66487 0.27841 0.49758
 C23 C 0.22182 0.80455 0.54478
 C24 C 0.21059 0.81050 0.50088
 C25 C 0.22078 0.80303 0.45650
 C26 C 0.24260 0.78814 0.45576
 C27 C 0.25406 0.78139 0.50008
 C28 C 0.24380 0.79003 0.54471
 C29 C 0.25575 0.78392 0.58800
 C30 C 0.27725 0.76939 0.58761
 C31 C 0.28726 0.75906 0.54412
 C32 C 0.27585 0.76604 0.49973
 C33 C 0.25312 0.77955 0.41196
 C34 C 0.27463 0.76507 0.41154
 C35 C 0.28620 0.75792 0.45494
 C36 C 0.30809 0.74331 0.45464
 C37 C 0.31933 0.73707 0.49840
 C38 C 0.30904 0.74357 0.54345
 H39 H 0.24868 0.79050 0.62273
 H40 H 0.28608 0.76686 0.62198
 H41 H 0.24483 0.78393 0.37746
 H42 H 0.28213 0.75968 0.37665
 H43 H 0.19390 0.82204 0.50122
 H44 H 0.33561 0.72465 0.49705
 C45 C 0.21070 0.21770 -0.45656
 C46 C 0.20409 0.20567 -0.50136
 C47 C 0.20981 0.21917 -0.54566
 C48 C 0.22471 0.24440 -0.54538
 C49 C 0.23302 0.25584 -0.50062
 C50 C 0.22590 0.24263 -0.45616
 C51 C 0.23549 0.25346 -0.41269
 C52 C 0.25023 0.27787 -0.41231
 C53 C 0.25719 0.29156 -0.45561
 C54 C 0.24888 0.28024 -0.50031
 C55 C 0.23272 0.25745 -0.58864
 C56 C 0.24748 0.28186 -0.58819
 C57 C 0.25658 0.29306 -0.54463
 C58 C 0.27237 0.31750 -0.54399
 C59 C 0.27898 0.32937 -0.49902
 C60 C 0.27230 0.31631 -0.45530
 H61 H 0.23209 0.24289 -0.37826
 H62 H 0.25627 0.28571 -0.37750
 H63 H 0.22802 0.24876 -0.62373
 H64 H 0.25156 0.29184 -0.62277
 H65 H 0.19183 0.18733 -0.50164
 H66 H 0.29142 0.34751 -0.49769
 C67 C -0.20683 0.78214 -0.54325
 C68 C -0.20044 0.79407 -0.49819
 C69 C -0.20683 0.78067 -0.45457
 C70 C -0.22130 0.75534 -0.45505
 C71 C -0.22942 0.74390 -0.49982
 C72 C -0.22201 0.75709 -0.54409
 C73 C -0.23092 0.74570 -0.58770
 C74 C -0.24540 0.72103 -0.58822
 C75 C -0.25334 0.70787 -0.54501
 C76 C -0.24501 0.71922 -0.50024
 C77 C -0.22791 0.74125 -0.41185
 C78 C -0.24236 0.71657 -0.41238
 C79 C -0.25201 0.70585 -0.45586
 C80 C -0.26727 0.68099 -0.45631
 C81 C -0.27392 0.66901 -0.50116
 C82 C -0.26831 0.68270 -0.54539
 H83 H -0.22700 0.75580 -0.62226
 H84 H -0.25004 0.71229 -0.62332
 H85 H -0.22186 0.74904 -0.37700
 H86 H -0.24560 0.70577 -0.37806
 H87 H -0.18856 0.81279 -0.49673
 H88 H -0.28628 0.65080 -0.50147
 N89 N -0.02284 0.94930 -0.05235
 N90 N -0.03900 0.92898 -0.06032
 N91 N 0.02550 0.97310 -0.08630
 N92 N 0.04254 0.96959 -0.11808
 N93 N 0.02639 0.95240 -0.05293
 N94 N 0.04408 0.93421 -0.06115
 N95 N -0.02369 0.96998 -0.08575
 N96 N -0.04046 0.96437 -0.11723
 C97 C -0.04996 0.93880 -0.10083
 C98 C 0.05408 0.94533 -0.10183
 N99 N 0.02207 1.05751 -0.05333
 N100 N 0.03827 1.07776 -0.06174
 N101 N -0.02631 1.03351 -0.08587
 N102 N -0.04373 1.03647 -0.11681
 N103 N -0.02719 1.05426 -0.05268
 N104 N -0.04526 1.07199 -0.06028
 N105 N 0.02285 1.03671 -0.08645
 N106 N 0.03957 1.04217 -0.11818
 Mn107 Mn -0.00040 1.00334 -0.08658
 C108 C 0.04913 1.06777 -0.10226
 C109 C -0.05548 1.06049 -0.10040
 N110 N 0.02665 0.95241 0.05147
 N111 N 0.04405 0.93381 0.05999
 N112 N -0.02323 0.97002 0.08547
 N113 N -0.03970 0.96428 0.11765
 N114 N -0.02255 0.94933 0.05217
 N115 N -0.03853 0.92887 0.06091
 N116 N 0.02596 0.97314 0.08471
 N117 N 0.04284 0.96924 0.11669
 Mn118 Mn 0.00192 0.95051 -0.00042
 C119 C 0.05411 0.94473 0.10065
 C120 C -0.04920 0.93863 0.10177
 N121 N -0.02689 1.05433 0.05197
 N122 N -0.04467 1.07237 0.06042
 N123 N 0.02332 1.03680 0.08451
 N124 N 0.03994 1.04260 0.11624
 N125 N 0.02234 1.05757 0.05126
 N126 N 0.03828 1.07813 0.05958
 N127 N -0.02584 1.03359 0.08527
 N128 N -0.04285 1.03687 0.11711
 Mn129 Mn -0.00244 1.05631 -0.00071
 Mn130 Mn 0.00007 1.00340 0.08546
 Cl131 Cl -0.00021 1.00339 -0.00055
 C132 C -0.05455 1.06106 0.10113
 C133 C 0.04923 1.06836 0.10014
 N134 N 0.52920 0.52917 0.08414
 N135 N 0.54616 0.53138 0.11633
 N136 N 0.48250 0.55789 0.05081
 N137 N 0.46796 0.58007 0.05927
 N138 N 0.48039 0.53741 0.08431
 N139 N 0.46435 0.54505 0.11638
 N140 N 0.53134 0.54966 0.05065
 N141 N 0.54982 0.56641 0.05926
 C142 C 0.55900 0.55458 0.10022
 C143 C 0.45663 0.57164 0.10018
 N144 N 0.48026 0.53713 -0.08691
 N145 N 0.46402 0.54452 -0.11868
 N146 N 0.53128 0.54947 -0.05388
 N147 N 0.55003 0.56580 -0.06235
 N148 N 0.52908 0.52888 -0.08708
 N149 N 0.54625 0.53059 -0.11893
 N150 N 0.48242 0.55772 -0.05371
 N151 N 0.46771 0.57974 -0.06209
 Mn152 Mn 0.50692 0.55404 -0.00154
 C153 C 0.45623 0.57108 -0.10264
 C154 C 0.55928 0.55362 -0.10296
 N155 N 0.47376 0.47424 0.08476
 N156 N 0.45683 0.47212 0.11712
 N157 N 0.52041 0.44545 0.05128
 N158 N 0.53507 0.42338 0.05958
 N159 N 0.52260 0.46600 0.08453
 N160 N 0.53881 0.45850 0.11631
 N161 N 0.47158 0.45368 0.05151
 N162 N 0.45309 0.43698 0.06043
 Mn163 Mn 0.50149 0.50171 0.08493
 C164 C 0.44395 0.44890 0.10133
 C165 C 0.54655 0.43193 0.10016
 N166 N 0.52248 0.46577 -0.08663
 N167 N 0.53887 0.45841 -0.11811
 N168 N 0.47149 0.45355 -0.05298
 N169 N 0.45280 0.43710 -0.06114
 N170 N 0.47364 0.47401 -0.08650
 N171 N 0.45648 0.47208 -0.11829
 N172 N 0.52036 0.44530 -0.05312
 N173 N 0.53524 0.42341 -0.06097
 Mn174 Mn 0.50136 0.50145 -0.08728
 Mn175 Mn 0.49592 0.44915 -0.00083
 Cl176 Cl 0.50142 0.50159 -0.00117
 C177 C 0.54677 0.43199 -0.10155
 C178 C 0.44351 0.44906 -0.10190
 C179 C 0.29922 0.37154 0.36994
 C180 C 0.30976 0.35257 0.33641
 C181 C 0.30694 0.32194 0.34107
 C182 C 0.29393 0.31030 0.37960
 C183 C 0.28334 0.32915 0.41401
 C184 C 0.28627 0.36000 0.40851
 C185 C 0.32487 0.36454 0.29951
 C186 C 0.33813 0.37496 0.27009
 C187 C 0.35432 0.38758 0.23738
 C188 C 0.36869 0.39864 0.21098
 C189 C 0.38649 0.41216 0.18139
 C190 C 0.39392 0.39865 0.13840
 C191 C 0.41232 0.41095 0.11157
 C192 C 0.42353 0.43684 0.12765
 C193 C 0.41563 0.45057 0.17031
 C194 C 0.39724 0.43828 0.19699
 H195 H 0.30145 0.39529 0.36690
 H196 H 0.31541 0.30702 0.31583
 H197 H 0.29324 0.28647 0.38382
 H198 H 0.27845 0.37527 0.43409
 H199 H 0.38577 0.37837 0.12607
 H200 H 0.41805 0.39992 0.07883
 H201 H 0.42390 0.47055 0.18352
 H202 H 0.39168 0.44888 0.23026
 C203 C -0.18294 0.83850 0.37103
 C204 C -0.17198 0.82053 0.33661
 C205 C -0.17342 0.78971 0.34074
 C206 C -0.18553 0.77691 0.37955
 C207 C -0.19658 0.79477 0.41475
 C208 C -0.19498 0.82580 0.40987
 C209 C -0.15796 0.83392 0.29918
 C210 C -0.14574 0.84590 0.26943
 C211 C -0.13090 0.86076 0.23654
 C212 C -0.11780 0.87412 0.21017
 C213 C -0.10163 0.89081 0.18089
 C214 C -0.09217 0.87871 0.13848
 C215 C -0.07539 0.89451 0.11196
 C216 C -0.06788 0.92251 0.12778
 C217 C -0.07782 0.93468 0.16989
 C218 C -0.09457 0.91892 0.19623
 H219 H -0.18179 0.86239 0.36840
 H220 H -0.16461 0.77558 0.31477
 H221 H -0.18523 0.75304 0.38327
 H222 H -0.20320 0.84034 0.43607
 H223 H -0.09747 0.85693 0.12635
 H224 H -0.06802 0.88462 0.07963
 H225 H -0.07242 0.95623 0.18288
 H226 H -0.10175 0.92847 0.22905
 C227 C 0.70539 0.63035 0.36541
 C228 C 0.69355 0.64986 0.33461
 C229 C 0.69524 0.68039 0.34214
 C230 C 0.70845 0.69139 0.38078
 C231 C 0.72040 0.67197 0.41239
 C232 C 0.71856 0.64124 0.40409
 C233 C 0.67830 0.63835 0.29767
 C234 C 0.66497 0.62823 0.26821
 C235 C 0.64872 0.61587 0.23550
 C236 C 0.63431 0.60492 0.20915
 C237 C 0.61648 0.59144 0.17971
 C238 C 0.60897 0.60500 0.13678
 C239 C 0.59056 0.59266 0.11012
 C240 C 0.57943 0.56671 0.12631
 C241 C 0.58742 0.55294 0.16891
 C242 C 0.60581 0.56526 0.19541
 H243 H 0.70404 0.60664 0.36017
 H244 H 0.68576 0.69568 0.31907
 H245 H 0.70831 0.71502 0.38733
 H246 H 0.72739 0.62556 0.42757
 H247 H 0.61706 0.62532 0.12437
 H248 H 0.58476 0.60372 0.07742
 H249 H 0.57922 0.53291 0.18220
 H250 H 0.61144 0.55462 0.22863
 C251 C 0.18548 1.16528 0.36532
 C252 C 0.17357 1.18410 0.33350
 C253 C 0.17450 1.21476 0.34042
 C254 C 0.18705 1.22653 0.37942
 C255 C 0.19906 1.20779 0.41198
 C256 C 0.19796 1.17694 0.40433
 C257 C 0.15914 1.17161 0.29601
 C258 C 0.14663 1.16021 0.26624
 C259 C 0.13152 1.14586 0.23339
 C260 C 0.11822 1.13277 0.20715
 C261 C 0.10190 1.11620 0.17818
 C262 C 0.09212 1.12847 0.13617
 C263 C 0.07526 1.11268 0.10997
 C264 C 0.06798 1.08453 0.12573
 C265 C 0.07823 1.07222 0.16743
 C266 C 0.09506 1.08797 0.19344
 H267 H 0.18472 1.14150 0.36055
 H268 H 0.16496 1.22951 0.31653
 H269 H 0.18638 1.25021 0.38541
 H270 H 0.20687 1.16177 0.42855
 H271 H 0.09726 1.15035 0.12410
 H272 H 0.06765 1.12268 0.07796
 H273 H 0.07302 1.05056 0.18037
 H274 H 0.10248 1.07828 0.22593
 C275 C 0.64321 0.28352 -0.37096
 C276 C 0.65713 0.29565 -0.33444
 C277 C 0.68152 0.29290 -0.33690
 C278 C 0.69197 0.27840 -0.37619
 C279 C 0.67813 0.26632 -0.41364
 C280 C 0.65356 0.26916 -0.41024
 C281 C 0.64615 0.31245 -0.29638
 C282 C 0.63603 0.32701 -0.26636
 C283 C 0.62321 0.34456 -0.23341
 C284 C 0.61152 0.35994 -0.20716
 C285 C 0.59674 0.37871 -0.17812
 C286 C 0.58637 0.36791 -0.13565
 C287 C 0.57048 0.38552 -0.10989
 C288 C 0.56472 0.41404 -0.12656
 C289 C 0.57564 0.42493 -0.16861
 C290 C 0.59152 0.40735 -0.19421
 H291 H 0.62431 0.28562 -0.36953
 H292 H 0.69248 0.30263 -0.30917
 H293 H 0.71091 0.27796 -0.37840
 H294 H 0.64223 0.26002 -0.43791
 H295 H 0.59020 0.34571 -0.12300
 H296 H 0.56234 0.37659 -0.07758
 H297 H 0.57159 0.44684 -0.18223
 H298 H 0.59937 0.41589 -0.22714
 C299 C 0.17569 0.81365 -0.35825
 C300 C 0.18453 0.83769 -0.33205
 C301 C 0.20636 0.84972 -0.34435
 C302 C 0.21903 0.83819 -0.38344
 C303 C 0.20997 0.81448 -0.41039
 C304 C 0.18832 0.80215 -0.39731
 C305 C 0.17030 0.85134 -0.29527
 C306 C 0.15763 0.86310 -0.26609
 C307 C 0.14201 0.87718 -0.23384
 C308 C 0.12804 0.88945 -0.20796
 C309 C 0.11065 0.90436 -0.17910
 C310 C 0.10213 0.89138 -0.13650
 C311 C 0.08402 0.90503 -0.11058
 C312 C 0.07419 0.93173 -0.12720
 C313 C 0.08319 0.94490 -0.16944
 C314 C 0.10129 0.93126 -0.19521
 H315 H 0.15874 0.80435 -0.34934
 H316 H 0.21325 0.86851 -0.32465
 H317 H 0.23553 0.84826 -0.39361
 H318 H 0.18097 0.78410 -0.41812
 H319 H 0.10919 0.87050 -0.12380
 H320 H 0.07742 0.89442 -0.07813
 H321 H 0.07600 0.96549 -0.18303
 H322 H 0.10770 0.94145 -0.22822
 C323 C 0.35625 0.72063 -0.37079
 C324 C 0.34345 0.70497 -0.33605
 C325 C 0.31906 0.70328 -0.33986
 C326 C 0.30752 0.71683 -0.37873
 C327 C 0.32023 0.73249 -0.41440
 C328 C 0.34482 0.73411 -0.40971
 C329 C 0.35566 0.68893 -0.29868
 C330 C 0.36651 0.67493 -0.26901
 C331 C 0.37989 0.65791 -0.23622
 C332 C 0.39186 0.64287 -0.20994
 C333 C 0.40676 0.62434 -0.18073
 C334 C 0.41710 0.63534 -0.13844
 C335 C 0.43287 0.61778 -0.11222
 C336 C 0.43850 0.58909 -0.12822
 C337 C 0.42765 0.57804 -0.17014
 C338 C 0.41190 0.59557 -0.19620
 H339 H 0.37517 0.72192 -0.36838
 H340 H 0.30901 0.69073 -0.31361
 H341 H 0.28879 0.71369 -0.38218
 H342 H 0.35526 0.74597 -0.43614
 H343 H 0.41331 0.65762 -0.12624
 H344 H 0.44097 0.62683 -0.08003
 H345 H 0.43161 0.55601 -0.18327
 H346 H 0.40406 0.58687 -0.22894
 C347 C -0.20049 1.12807 -0.36594
 C348 C -0.19442 1.14869 -0.33043
 C349 C -0.20230 1.17794 -0.33434
 C350 C -0.21588 1.18664 -0.37412
 C351 C -0.22185 1.16615 -0.41066
 C352 C -0.21394 1.13668 -0.40574
 C353 C -0.17871 1.14001 -0.29219
 C354 C -0.16486 1.13179 -0.26208
 C355 C -0.14791 1.12107 -0.22922
 C356 C -0.13289 1.11099 -0.20331
 C357 C -0.11437 1.09785 -0.17517
 C358 C -0.10531 1.11218 -0.13431
 C359 C -0.08635 1.09981 -0.10914
 C360 C -0.07625 1.07307 -0.12485
 C361 C -0.08575 1.05865 -0.16539
 C362 C -0.10466 1.07097 -0.19032
 H363 H -0.19439 1.10539 -0.36342
 H364 H -0.19737 1.19421 -0.30744
 H365 H -0.22062 1.20978 -0.37750
 H366 H -0.21825 1.12016 -0.43271
 H367 H -0.11265 1.13306 -0.12235
 H368 H -0.07937 1.11137 -0.07801
 H369 H -0.07840 1.03799 -0.17824
 H370 H -0.11149 1.05971 -0.22194
 C371 C 0.69869 0.67656 -0.34072
 C372 C 0.69583 0.64595 -0.33599
 C373 C 0.70626 0.62693 -0.36960
 C374 C 0.71911 0.63843 -0.40838
 C375 C 0.72200 0.66927 -0.41404
 C376 C 0.71157 0.68815 -0.37944
 C377 C 0.68067 0.63413 -0.29907
 C378 C 0.66728 0.62401 -0.26962
 C379 C 0.65084 0.61191 -0.23695
 C380 C 0.63619 0.60133 -0.21068
 C381 C 0.61799 0.58843 -0.18138
 C382 C 0.60705 0.56240 -0.19679
 C383 C 0.58824 0.55076 -0.17062
 C384 C 0.58010 0.56506 -0.12865
 C385 C 0.59150 0.59084 -0.11271
 C386 C 0.61033 0.60250 -0.13905
 H387 H 0.69031 0.69152 -0.31542
 H388 H 0.70401 0.60318 -0.36649
 H389 H 0.72684 0.62312 -0.43402
 H390 H 0.71225 0.71198 -0.38368
 H391 H 0.61279 0.55138 -0.22957
 H392 H 0.57985 0.53083 -0.18370
 H393 H 0.58559 0.60229 -0.08049
 H394 H 0.61862 0.62273 -0.12689
 C395 C 0.18591 1.16250 -0.36975
 C396 C 0.17534 1.18101 -0.33555
 C397 C 0.17745 1.21173 -0.34008
 C398 C 0.18977 1.22393 -0.37912
 C399 C 0.20036 1.20554 -0.41422
 C400 C 0.19817 1.17460 -0.40883
 C401 C 0.16097 1.16833 -0.29802
 C402 C 0.14839 1.15700 -0.26822
 C403 C 0.13309 1.14291 -0.23531
 C404 C 0.11956 1.13016 -0.20904
 C405 C 0.10289 1.11407 -0.18005
 C406 C 0.09309 1.12672 -0.13839
 C407 C 0.07586 1.11145 -0.11226
 C408 C 0.06822 1.08344 -0.12777
 C409 C 0.07848 1.07073 -0.16913
 C410 C 0.09568 1.08596 -0.19505
 H411 H 0.18425 1.13868 -0.36679
 H412 H 0.16896 1.22629 -0.31428
 H413 H 0.18996 1.24779 -0.38311
 H414 H 0.20605 1.15966 -0.43485
 H415 H 0.09850 1.14852 -0.12653
 H416 H 0.06825 1.12174 -0.08052
 H417 H 0.07299 1.04916 -0.18187
 H418 H 0.10309 1.07598 -0.22729
 C419 C 0.31203 0.32208 -0.34617
 C420 C 0.30871 0.35167 -0.33273
 C421 C 0.29237 0.36916 -0.35756
 C422 C 0.27978 0.35730 -0.39638
 C423 C 0.28335 0.32779 -0.41054
 C424 C 0.29948 0.31021 -0.38499
 C425 C 0.32345 0.36466 -0.29623
 C426 C 0.33655 0.37563 -0.26714
 C427 C 0.35270 0.38859 -0.23484
 C428 C 0.36714 0.39974 -0.20882
 C429 C 0.38513 0.41317 -0.17971
 C430 C 0.39597 0.43915 -0.19578
 C431 C 0.41466 0.45118 -0.16980
 C432 C 0.42277 0.43731 -0.12739
 C433 C 0.41145 0.41159 -0.11079
 C434 C 0.39275 0.39955 -0.13692
 H435 H 0.32483 0.30845 -0.32760
 H436 H 0.28984 0.39217 -0.34780
 H437 H 0.26767 0.37128 -0.41618
 H438 H 0.30282 0.28760 -0.39608
 H439 H 0.39027 0.44982 -0.22892
 H440 H 0.42300 0.47105 -0.18338
 H441 H 0.41734 0.40047 -0.07822
 H442 H 0.38454 0.37936 -0.12426
 C443 C -0.16817 0.78988 -0.34439
 C444 C -0.17328 0.81908 -0.33103
 C445 C -0.19041 0.83505 -0.35631
 C446 C -0.20201 0.82211 -0.39550
 C447 C -0.19666 0.79303 -0.40959
 C448 C -0.17976 0.77693 -0.38359
 C449 C -0.15962 0.83347 -0.29414
 C450 C -0.14756 0.84602 -0.26482
 C451 C -0.13278 0.86126 -0.23241
 C452 C -0.11962 0.87476 -0.20646
 C453 C -0.10330 0.89143 -0.17767
 C454 C -0.09629 0.91953 -0.19330
 C455 C -0.07926 0.93517 -0.16765
 C456 C -0.06897 0.92286 -0.12597
 C457 C -0.07645 0.89489 -0.10980
 C458 C -0.09350 0.87922 -0.13563
 H459 H -0.15476 0.77745 -0.32545
 H460 H -0.19433 0.85776 -0.34660
 H461 H -0.21476 0.83497 -0.41561
 H462 H -0.17511 0.75467 -0.39459
 H463 H -0.10369 0.92916 -0.22585
 H464 H -0.07389 0.95670 -0.18089
 H465 H -0.06883 0.88490 -0.07780
 H466 H -0.09875 0.85744 -0.12330
 C467 C 0.35339 0.72864 0.35749
 C468 C 0.34276 0.70569 0.33151
 C469 C 0.32015 0.69636 0.34398
 C470 C 0.30845 0.70944 0.38300
 C471 C 0.31922 0.73208 0.40974
 C472 C 0.34170 0.74173 0.39651
 C473 C 0.35577 0.69012 0.29484
 C474 C 0.36708 0.67632 0.26567
 C475 C 0.38079 0.65939 0.23337
 C476 C 0.39288 0.64431 0.20743
 C477 C 0.40779 0.62564 0.17851
 C478 C 0.41298 0.59697 0.19454
 C479 C 0.42854 0.57921 0.16845
 C480 C 0.43915 0.58992 0.12595
 C481 C 0.43351 0.61852 0.10948
 C482 C 0.41793 0.63631 0.13572
 H483 H 0.37097 0.73582 0.34846
 H484 H 0.31187 0.67840 0.32450
 H485 H 0.29131 0.70132 0.39332
 H486 H 0.35038 0.75888 0.41716
 H487 H 0.40527 0.58851 0.22765
 H488 H 0.43252 0.55725 0.18196
 H489 H 0.44143 0.62732 0.07684
 H490 H 0.41408 0.65850 0.12306
 C491 C -0.19792 1.18088 0.34145
 C492 C -0.19096 1.15136 0.33611
 C493 C -0.19830 1.13018 0.36978
 C494 C -0.21229 1.13844 0.40900
 C495 C -0.21951 1.16810 0.41507
 C496 C -0.21202 1.18924 0.38067
 C497 C -0.17514 1.14275 0.29800
 C498 C -0.16136 1.13447 0.26777
 C499 C -0.14467 1.12357 0.23451
 C500 C -0.12996 1.11326 0.20809
 C501 C -0.11188 1.09978 0.17915
 C502 C -0.10227 1.07278 0.19407
 C503 C -0.08388 1.06002 0.16810
 C504 C -0.07481 1.07411 0.12673
 C505 C -0.08481 1.10099 0.11132
 C506 C -0.10325 1.11380 0.13751
 H507 H -0.19199 1.19756 0.31603
 H508 H -0.19290 1.10728 0.36618
 H509 H -0.21767 1.12148 0.43446
 H510 H -0.21616 1.21248 0.38522
 H511 H -0.10879 1.06175 0.22625
 H512 H -0.07658 1.03927 0.18077
 H513 H -0.07815 1.11231 0.07957
 H514 H -0.11054 1.13475 0.12570
 C515 C 0.64501 0.27436 0.35961
 C516 C 0.65768 0.29453 0.33137
 C517 C 0.68129 0.30000 0.34182
 C518 C 0.69201 0.28589 0.38115
 C519 C 0.67920 0.26616 0.41023
 C520 C 0.65569 0.26029 0.39892
 C521 C 0.64583 0.31130 0.29438
 C522 C 0.63526 0.32590 0.26507
 C523 C 0.62216 0.34356 0.23272
 C524 C 0.61039 0.35905 0.20675
 C525 C 0.59569 0.37795 0.17778
 C526 C 0.59051 0.40658 0.19390
 C527 C 0.57488 0.42439 0.16801
 C528 C 0.56419 0.41374 0.12564
 C529 C 0.56988 0.38520 0.10901
 C530 C 0.58551 0.36738 0.13504
 H531 H 0.62668 0.27016 0.35212
 H532 H 0.69119 0.31579 0.32050
 H533 H 0.71005 0.29104 0.38987
 H534 H 0.64549 0.24538 0.42130
 H535 H 0.59822 0.41495 0.22702
 H536 H 0.57087 0.44629 0.18162
 H537 H 0.56191 0.37646 0.07646
 H538 H 0.58933 0.34521 0.12233
 C539 C 0.20487 0.84501 0.34244
 C540 C 0.18216 0.83456 0.33383
 C541 C 0.17270 0.81251 0.36367
 C542 C 0.18566 0.80144 0.40264
 C543 C 0.20826 0.81222 0.41198
 C544 C 0.21786 0.83394 0.38142
 C545 C 0.16786 0.84797 0.29692
 C546 C 0.15529 0.85973 0.26755
 C547 C 0.13992 0.87400 0.23499
 C548 C 0.12626 0.88658 0.20879
 C549 C 0.10931 0.90198 0.17950
 C550 C 0.10039 0.92918 0.19526
 C551 C 0.08276 0.94340 0.16896
 C552 C 0.07379 0.93054 0.12652
 C553 C 0.08320 0.90353 0.11025
 C554 C 0.10085 0.88930 0.13670
 H555 H 0.21227 0.86229 0.31989
 H556 H 0.15508 0.80445 0.35761
 H557 H 0.17789 0.78495 0.42621
 H558 H 0.23510 0.84287 0.38864
 H559 H 0.10677 0.93915 0.22839
 H560 H 0.07588 0.96421 0.18230
 H561 H 0.07662 0.89315 0.07767
 H562 H 0.10758 0.86820 0.12426
   
