data_POSCAR
  _audit_creation_date              2014-09-24
  _audit_creation_method            'ToBaCCo'
  _symmetry_space_group_name_H-M    'P1'
  _symmetry_Int_Tables_number       1
  _symmetry_cell_setting            triclinic
  loop_
  _symmetry_equiv_pos_as_xyz
 x,y,z
_cell_length_a 28.7753
_cell_length_b 29.5749
_cell_length_c 28.8836
_cell_angle_alpha 90.210700
_cell_angle_beta 90.025900
_cell_angle_gamma 90.245200
loop_
  _atom_site_label
  _atom_site_type_symbol
  _atom_site_fract_x
  _atom_site_fract_y
  _atom_site_fract_z
C1 C 0.34342 0.33483 1.40530
 C2 C 0.30514 0.35511 1.42714
 C3 C 0.28408 0.39404 1.40839
 C4 C 0.30129 0.41112 1.36617
 C5 C 0.33942 0.39128 1.34411
 C6 C 0.36067 0.35302 1.36369
 C7 C 0.36443 0.29639 1.42427
 C8 C 0.40366 0.27641 1.40321
 C9 C 0.41995 0.29474 1.36109
 C10 C 0.39871 0.33257 1.34123
 C11 C 0.41463 0.35005 1.29895
 C12 C 0.39287 0.38762 1.27889
 C13 C 0.35604 0.40870 1.30220
 H14 H 0.29269 0.34128 1.45957
 H15 H 0.28387 0.43900 1.34929
 H16 H 0.34927 0.28127 1.45492
 H17 H 0.45006 0.28029 1.34413
 H18 H 0.44342 0.33407 1.28116
 H19 H 0.33993 0.43831 1.28717
 C20 C 1.15969 0.66416 0.90501
 C21 C 1.19993 0.64787 0.92661
 C22 C 1.22382 0.61022 0.90857
 C23 C 1.20385 0.58640 0.87103
 C24 C 1.16353 0.60219 0.84925
 C25 C 1.14175 0.64165 0.86580
 C26 C 1.13796 0.70340 0.92130
 C27 C 1.09812 0.72064 0.89920
 C28 C 1.08113 0.69837 0.85933
 C29 C 1.10269 0.65916 0.84248
 C30 C 1.08698 0.63814 0.80167
 C31 C 1.10932 0.59942 0.78440
 C32 C 1.14611 0.58045 0.80967
 H33 H 1.21303 0.66492 0.95729
 H34 H 1.22143 0.55723 0.85655
 H35 H 1.15180 0.72032 0.95174
 H36 H 1.05218 0.71259 0.84033
 H37 H 1.05817 0.65254 0.78261
 H38 H 1.16263 0.54990 0.79706
 C39 C 0.65461 -0.16697 0.10637
 C40 C 0.69284 -0.14869 0.08270
 C41 C 0.71165 -0.10681 0.09612
 C42 C 0.69193 -0.08289 0.13319
 C43 C 0.65375 -0.10072 0.15720
 C44 C 0.63475 -0.14282 0.14359
 C45 C 0.63732 -0.20990 0.09482
 C46 C 0.59982 -0.22890 0.11942
 C47 C 0.57863 -0.20365 0.15492
 C48 C 0.59698 -0.16152 0.16829
 C49 C 0.58005 -0.13904 0.20763
 C50 C 0.60061 -0.09840 0.22268
 C51 C 0.63594 -0.07837 0.19616
 H52 H 0.70901 -0.16757 0.05481
 H53 H 0.70734 -0.05107 0.14412
 H54 H 0.65314 -0.22880 0.06673
 H55 H 0.54998 -0.21822 0.17427
 H56 H 0.55243 -0.15420 0.22794
 H57 H 0.65115 -0.04658 0.20745
 C58 C -0.15328 1.15676 -0.40523
 C59 C -0.19223 1.13678 -0.42636
 C60 C -0.21262 1.09741 -0.40782
 C61 C -0.19284 1.07799 -0.36796
 C62 C -0.15339 1.09704 -0.34713
 C63 C -0.13369 1.13683 -0.36547
 C64 C -0.13497 1.19755 -0.42187
 C65 C -0.09824 1.21922 -0.39854
 C66 C -0.07774 1.19856 -0.36000
 C67 C -0.09533 1.15749 -0.34316
 C68 C -0.07645 1.13760 -0.30338
 C69 C -0.09559 1.09753 -0.28560
 C70 C -0.13420 1.07763 -0.30735
 H71 H -0.20827 1.15334 -0.45572
 H72 H -0.20806 1.04763 -0.35331
 H73 H -0.15043 1.21358 -0.45183
 H74 H -0.04928 1.21537 -0.34222
 H75 H -0.04728 1.15344 -0.28582
 H76 H -0.14966 1.04738 -0.29271
 C77 C 0.65778 0.66329 0.59963
 C78 C 0.69658 0.64317 0.57872
 C79 C 0.71501 0.60294 0.59644
 C80 C 0.69398 0.58223 0.63477
 C81 C 0.65504 0.60180 0.65590
 C82 C 0.63707 0.64271 0.63851
 C83 C 0.64036 0.70440 0.58320
 C84 C 0.60336 0.72637 0.60592
 C85 C 0.58204 0.70475 0.64386
 C86 C 0.59908 0.66358 0.66067
 C87 C 0.57978 0.64375 0.70032
 C88 C 0.59702 0.60264 0.71742
 C89 C 0.63466 0.58186 0.69496
 H90 H 0.71339 0.65938 0.54953
 H91 H 0.70859 0.55133 0.64855
 H92 H 0.65576 0.71945 0.55261
 H93 H 0.55361 0.72111 0.66188
 H94 H 0.55177 0.66064 0.71846
 H95 H 0.64850 0.55051 0.70847
 C96 C 0.84143 0.33026 0.10175
 C97 C 0.80409 0.34989 0.07806
 C98 C 0.78752 0.39305 0.09051
 C99 C 0.80807 0.41547 0.12864
 C100 C 0.84518 0.39608 0.15286
 C101 C 0.86247 0.35362 0.13890
 C102 C 0.85745 0.28721 0.08936
 C103 C 0.89435 0.26687 0.11354
 C104 C 0.91663 0.29142 0.14915
 C105 C 0.90010 0.33403 0.16279
 C106 C 0.91940 0.35660 0.20108
 C107 C 0.90127 0.39819 0.21612
 C108 C 0.86431 0.41784 0.19174
 H109 H 0.78860 0.33187 0.04911
 H110 H 0.79404 0.44742 0.14060
 H111 H 0.84126 0.26941 0.06063
 H112 H 0.94508 0.27621 0.16809
 H113 H 0.94770 0.34128 0.22015
 H114 H 0.84988 0.44959 0.20377
 C115 C 0.34322 0.16275 0.90840
 C116 C 0.30297 0.14544 0.92956
 C117 C 0.28213 0.10510 0.91340
 C118 C 0.30188 0.08282 0.87493
 C119 C 0.34238 0.09927 0.85393
 C120 C 0.36339 0.13917 0.87091
 C121 C 0.36268 0.20411 0.92287
 C122 C 0.40215 0.22182 0.90054
 C123 C 0.42364 0.19671 0.86528
 C124 C 0.40384 0.15623 0.84945
 C125 C 0.42268 0.13363 0.81114
 C126 C 0.40133 0.09445 0.79363
 C127 C 0.36142 0.07718 0.81530
 H128 H 0.28680 0.16431 0.95746
 H129 H 0.28609 0.05198 0.86176
 H130 H 0.34647 0.22321 0.95056
 H131 H 0.45472 0.20987 0.84882
 H132 H 0.45312 0.14723 0.79388
 H133 H 0.34457 0.04729 0.80117
 C134 C 0.15182 0.83655 0.40460
 C135 C 0.19073 0.85594 0.42638
 C136 C 0.21243 0.89435 0.40759
 C137 C 0.19551 0.91266 0.36607
 C138 C 0.15596 0.89444 0.34467
 C139 C 0.13386 0.85625 0.36402
 C140 C 0.13083 0.79757 0.42257
 C141 C 0.09115 0.77842 0.40141
 C142 C 0.07321 0.79870 0.36113
 C143 C 0.09429 0.83736 0.34234
 C144 C 0.07693 0.85707 0.30179
 C145 C 0.09861 0.89537 0.28283
 C146 C 0.13835 0.91359 0.30404
 H147 H 0.20425 0.84120 0.45792
 H148 H 0.21319 0.94130 0.35055
 H149 H 0.14493 0.78250 0.45372
 H150 H 0.04389 0.78335 0.34335
 H151 H 0.04657 0.84277 0.28488
 H152 H 0.15540 0.94273 0.28880
 Zn153 Zn 0.02972 0.98621 -0.05269
 Zn154 Zn -0.01574 0.94201 0.02753
 Zn155 Zn 0.03090 1.03218 0.03963
 Zn156 Zn -0.05787 1.02396 -0.01392
 O157 O -0.00321 0.99616 0.00022
 O158 O 0.04067 0.92757 -0.06374
 O159 O 0.00968 0.93764 0.08349
 O160 O 0.08550 1.05026 0.01494
 O161 O 0.00536 0.89468 -0.00464
 O162 O 0.08518 1.01306 -0.05149
 O163 O 0.04509 1.00369 0.09258
 O164 O -0.06432 1.07645 0.01575
 O165 O -0.07629 0.93218 0.03577
 O166 O 0.00007 1.08222 0.05723
 O167 O -0.10814 0.99190 0.00289
 O168 O -0.06381 1.03572 -0.07428
 O169 O 0.00117 1.00747 -0.10313
 C170 C 0.02860 0.89235 -0.04183
 C171 C 0.03396 0.96480 0.10756
 C172 C 0.10530 1.03909 -0.02269
 C173 C -0.03976 1.09684 0.04578
 C174 C -0.11184 0.95465 0.02424
 C175 C -0.03746 1.02732 -0.10843
 Zn176 Zn 0.48448 -0.05334 0.47585
 Zn177 Zn 0.52935 -0.01211 0.55904
 Zn178 Zn 0.53341 0.03622 0.46860
 Zn179 Zn 0.44381 0.02839 0.52040
 O180 O 0.49784 -0.00020 0.50582
 O181 O 0.50624 -0.10245 0.50555
 O182 O 0.58554 0.01316 0.56001
 O183 O 0.54685 0.01009 0.41412
 O184 O 0.54046 -0.07059 0.56626
 O185 O 0.51049 -0.05590 0.41990
 O186 O 0.58877 0.04998 0.49380
 O187 O 0.44043 0.08368 0.49595
 O188 O 0.50013 0.00680 0.61037
 O189 O 0.50598 0.08914 0.45606
 O190 O 0.43609 0.03631 0.58117
 O191 O 0.39356 -0.00120 0.49994
 O192 O 0.42357 -0.06121 0.46582
 C193 C 0.53061 -0.10514 0.54209
 C194 C 0.60753 0.03764 0.53140
 C195 C 0.53600 -0.02843 0.39781
 C196 C 0.46778 0.10570 0.46992
 C197 C 0.46136 0.02644 0.61562
 C198 C 0.38867 -0.03711 0.47633
 Zn199 Zn 1.05401 0.52873 0.51321
 Zn200 Zn 0.97160 0.48755 0.55716
 Zn201 Zn 0.96290 0.53303 0.46458
 Zn202 Zn 1.01312 0.44493 0.47292
 O203 O 1.00021 0.49852 0.50184
 O204 O 1.06468 0.53778 0.57299
 O205 O 0.91597 0.51390 0.56054
 O206 O 0.98849 0.58688 0.45061
 O207 O 1.00443 0.50605 0.60710
 O208 O 1.05522 0.58348 0.48805
 O209 O 0.90815 0.54554 0.49157
 O210 O 0.98755 0.44140 0.41680
 O211 O 0.95978 0.42901 0.56538
 O212 O 0.94991 0.50615 0.41000
 O213 O 0.99074 0.39672 0.50345
 O214 O 1.07413 0.43659 0.46338
 O215 O 1.10387 0.49975 0.49199
 C216 C 1.04322 0.52661 0.60945
 C217 C 0.89221 0.53608 0.53142
 C218 C 1.02662 0.60492 0.46306
 C219 C 0.96242 0.46819 0.39361
 C220 C 0.96770 0.39425 0.54084
 C221 C 1.10881 0.46217 0.47138
 Zn222 Zn 0.51844 0.44594 1.03017
 Zn223 Zn 0.46710 0.53305 1.04422
 Zn224 Zn 0.55588 0.53111 0.99040
 Zn225 Zn 0.47073 0.48965 0.95104
 O226 O 0.50297 0.50000 1.00413
 O227 O 0.49176 0.43817 1.08541
 O228 O 0.49621 0.58318 1.06497
 O229 O 0.60759 0.50022 1.00360
 O230 O 0.45109 0.50118 1.09450
 O231 O 0.57982 0.43983 1.03851
 O232 O 0.56104 0.58186 1.02365
 O233 O 0.49895 0.51179 0.90088
 O234 O 0.41350 0.55153 1.01859
 O235 O 0.55978 0.54703 0.93067
 O236 O 0.41534 0.51609 0.95094
 O237 O 0.46075 0.43120 0.94006
 O238 O 0.49948 0.39804 0.99641
 C239 C 0.46340 0.46227 1.10816
 C240 C 0.53549 0.59991 1.05433
 C241 C 0.61415 0.46393 1.02577
 C242 C 0.53439 0.53693 0.89614
 C243 C 0.39550 0.54220 0.97956
 C244 C 0.47492 0.39570 0.95991
 C245 C 1.23591 0.46120 0.42980
 C246 C 1.24423 0.41363 0.42933
 C247 C 1.20929 0.38476 0.44640
 C248 C 1.16622 0.40140 0.45984
 C249 C 1.15586 0.44750 0.45667
 C250 C 1.19076 0.47796 0.44076
 C251 C 1.27208 0.49276 0.42161
 C252 C 1.26293 0.53884 0.41842
 C253 C 1.21781 0.55456 0.42364
 C254 C 1.18200 0.52464 0.43466
 H255 H 1.30784 0.48217 0.41815
 H256 H 1.29090 0.56239 0.41133
 H257 H 1.21059 0.59025 0.41977
 H258 H 1.14764 0.53879 0.43755
 H259 H 1.21391 0.34844 0.44678
 H260 H 1.14030 0.37765 0.47219
 C261 C 0.30384 0.62669 0.93924
 C262 C 0.26686 0.59610 0.92757
 C263 C 0.27387 0.54951 0.93432
 C264 C 0.31505 0.53313 0.95275
 C265 C 0.35083 0.56247 0.96593
 C266 C 0.34546 0.60967 0.95978
 C267 C 0.30260 0.67305 0.92710
 C268 C 0.33895 0.70226 0.93866
 C269 C 0.37815 0.68596 0.96101
 C270 C 0.38187 0.64009 0.97087
 H271 H 0.27458 0.68723 0.90709
 H272 H 0.33702 0.73766 0.92946
 H273 H 0.40642 0.70877 0.96958
 H274 H 0.41391 0.62882 0.98646
 H275 H 0.24677 0.52521 0.92613
 H276 H 0.31912 0.49692 0.95663
 C277 C -0.24168 0.92384 0.02816
 C278 C -0.24472 0.90964 0.07489
 C279 C -0.20484 0.90971 0.10254
 C280 C -0.16227 0.92354 0.08485
 C281 C -0.15809 0.93818 0.03896
 C282 C -0.19789 0.93793 0.00984
 C283 C -0.28128 0.92467 -0.00064
 C284 C -0.27767 0.93786 -0.04680
 C285 C -0.23475 0.95029 -0.06510
 C286 C -0.19513 0.95026 -0.03726
 H287 H -0.31525 0.91524 0.01224
 H288 H -0.30830 0.93818 -0.06857
 H289 H -0.23213 0.95995 -0.10112
 H290 H -0.16249 0.95935 -0.05327
 H291 H -0.20667 0.89868 0.13824
 H292 H -0.13233 0.92357 0.10763
 C293 C 0.73717 0.07209 0.52611
 C294 C 0.74515 0.08017 0.57419
 C295 C 0.70899 0.07163 0.60559
 C296 C 0.66527 0.05847 0.59053
 C297 C 0.65560 0.05212 0.54343
 C298 C 0.69216 0.05766 0.51062
 C299 C 0.77387 0.07429 0.49357
 C300 C 0.76632 0.06441 0.44699
 C301 C 0.72262 0.05085 0.43189
 C302 C 0.68606 0.04692 0.46322
 H303 H 0.80910 0.08215 0.50384
 H304 H 0.79484 0.06633 0.42264
 H305 H 0.71722 0.04231 0.39579
 H306 H 0.65377 0.03408 0.44960
 H307 H 0.71375 0.07746 0.64237
 H308 H 0.63830 0.05391 0.61630
 C309 C 0.43051 0.22994 0.47069
 C310 C 0.42430 0.23693 0.42209
 C311 C 0.43748 0.20197 0.39154
 C312 C 0.45258 0.16038 0.40782
 C313 C 0.45461 0.15161 0.45521
 C314 C 0.44438 0.18657 0.48723
 C315 C 0.42670 0.26578 0.50309
 C316 C 0.43217 0.25825 0.55039
 C317 C 0.44305 0.21537 0.56651
 C318 C 0.44981 0.17994 0.53538
 H319 H 0.42091 0.30023 0.49229
 H320 H 0.42861 0.28603 0.57462
 H321 H 0.44758 0.20980 0.60326
 H322 H 0.46042 0.14776 0.54944
 H323 H 0.43342 0.20547 0.35445
 H324 H 0.46089 0.13403 0.38303
 C325 C 0.88673 0.30263 0.58880
 C326 C 0.91697 0.26490 0.58698
 C327 C 0.96222 0.27039 0.57008
 C328 C 0.97784 0.31239 0.55472
 C329 C 0.94865 0.35017 0.55582
 C330 C 0.90215 0.34527 0.57177
 C331 C 0.84148 0.29898 0.60751
 C332 C 0.81126 0.33566 0.60699
 C333 C 0.82531 0.37653 0.58782
 C334 C 0.87014 0.38144 0.57024
 H335 H 0.82903 0.26793 0.62289
 H336 H 0.77660 0.33221 0.62113
 H337 H 0.80139 0.40466 0.58665
 H338 H 0.87883 0.41361 0.55485
 H339 H 0.98559 0.24179 0.56856
 H340 H 1.01324 0.31554 0.54236
 C341 C 0.02929 0.76811 -0.07993
 C342 C 0.07817 0.76166 -0.08531
 C343 C 0.10823 0.79829 -0.07613
 C344 C 0.09120 0.84048 -0.06371
 C345 C 0.04354 0.84769 -0.05892
 C346 C 0.01200 0.81169 -0.06741
 C347 C -0.00270 0.73179 -0.08352
 C348 C -0.05033 0.73892 -0.07880
 C349 C -0.06718 0.78201 -0.06957
 C350 C -0.03646 0.81811 -0.06364
 H351 H 0.00860 0.69739 -0.08893
 H352 H -0.07430 0.71078 -0.08211
 H353 H -0.10423 0.78738 -0.06628
 H354 H -0.05106 0.85097 -0.05611
 H355 H 0.14548 0.79486 -0.08027
 H356 H 0.11565 0.86771 -0.05703
 C357 C 0.61511 0.68921 1.10890
 C358 C 0.58444 0.72687 1.10919
 C359 C 0.53732 0.71984 1.09847
 C360 C 0.52163 0.67804 1.08221
 C361 C 0.55216 0.64156 1.07764
 C362 C 0.59854 0.64614 1.09374
 C363 C 0.66087 0.69258 1.12665
 C364 C 0.68947 0.65478 1.12907
 C365 C 0.67301 0.61275 1.11485
 C366 C 0.62810 0.60827 1.09733
 H367 H 0.67450 0.72394 1.14053
 H368 H 0.72420 0.65791 1.14318
 H369 H 0.69487 0.58328 1.11833
 H370 H 0.61628 0.57458 1.08849
 H371 H 0.51302 0.74772 1.09960
 H372 H 0.48575 0.67471 1.07124
 C373 C 0.37899 0.41015 1.19499
 C374 C 0.40909 0.40541 1.23370
 C375 C 0.45576 0.41861 1.22975
 C376 C 0.47271 0.43713 1.18884
 C377 C 0.44332 0.44377 1.15094
 C378 C 0.39613 0.43022 1.15355
 C379 C 0.33267 0.39412 1.19594
 C380 C 0.30357 0.39925 1.15772
 C381 C 0.32005 0.41977 1.11766
 C382 C 0.36593 0.43487 1.11529
 H383 H 0.31865 0.37681 1.22576
 H384 H 0.26812 0.38692 1.15908
 H385 H 0.29733 0.42348 1.08805
 H386 H 0.37753 0.44977 1.08313
 H387 H 0.47922 0.41494 1.25884
 H388 H 0.50902 0.44683 1.18687
 C389 C 0.61842 -0.07299 0.30513
 C390 C 0.58670 -0.07831 0.26768
 C391 C 0.54006 -0.06620 0.27375
 C392 C 0.52442 -0.04906 0.31588
 C393 C 0.55508 -0.04290 0.35296
 C394 C 0.60248 -0.05461 0.34792
 C395 C 0.66515 -0.08724 0.30181
 C396 C 0.69564 -0.08195 0.33901
 C397 C 0.68018 -0.06332 0.38047
 C398 C 0.63399 -0.05017 0.38521
 H399 H 0.67857 -0.10323 0.27094
 H400 H 0.73137 -0.09283 0.33578
 H401 H 0.70392 -0.05961 0.40934
 H402 H 0.62316 -0.03705 0.41847
 H403 H 0.51542 -0.07055 0.24569
 H404 H 0.48796 -0.04084 0.31973
 C405 C -0.05955 1.03362 -0.23937
 C406 C -0.07763 1.07808 -0.24200
 C407 C -0.08184 1.10399 -0.20163
 C408 C -0.06912 1.08652 -0.15889
 C409 C -0.05157 1.04258 -0.15504
 C410 C -0.04717 1.01534 -0.19543
 C411 C -0.05334 1.00698 -0.27954
 C412 C -0.03715 0.96274 -0.27639
 C413 C -0.02701 0.94419 -0.23339
 C414 C -0.03203 0.97000 -0.19321
 H415 H -0.06072 1.02009 -0.31366
 H416 H -0.03279 0.94264 -0.30747
 H417 H -0.01516 0.90957 -0.23112
 H418 H -0.02460 0.95368 -0.16066
 H419 H -0.09590 1.13789 -0.20313
 H420 H -0.07269 1.10777 -0.12846
 C421 C 1.12694 0.57023 0.70304
 C422 C 1.09484 0.57931 0.73928
 C423 C 1.04788 0.56812 0.73294
 C424 C 1.03218 0.54932 0.69147
 C425 C 1.06306 0.53979 0.65520
 C426 C 1.11146 0.54768 0.66207
 C427 C 1.17403 0.58385 0.70607
 C428 C 1.20593 0.57143 0.67211
 C429 C 1.19173 0.54534 0.63456
 C430 C 1.14510 0.53342 0.62947
 H431 H 1.18671 0.60452 0.73432
 H432 H 1.24198 0.58159 0.67531
 H433 H 1.21691 0.53457 0.60900
 H434 H 1.13626 0.51206 0.60035
 H435 H 1.02292 0.57462 0.76021
 H436 H 0.99524 0.54332 0.68733
 C437 C 0.76227 0.56660 0.53184
 C438 C 0.75874 0.58438 0.57734
 C439 C 0.79786 0.58472 0.60609
 C440 C 0.84038 0.56880 0.59033
 C441 C 0.84539 0.55185 0.54524
 C442 C 0.80584 0.54975 0.51569
 C443 C 0.72306 0.56391 0.50256
 C444 C 0.72649 0.54504 0.45842
 C445 C 0.76866 0.52789 0.44290
 C446 C 0.80790 0.52978 0.47120
 H447 H 0.68933 0.57575 0.51368
 H448 H 0.69611 0.54314 0.43638
 H449 H 0.77088 0.51257 0.40888
 H450 H 0.83926 0.51455 0.45800
 H451 H 0.79557 0.59807 0.64100
 H452 H 0.86995 0.57034 0.61354
 C453 C 0.74545 0.45866 1.05616
 C454 C 0.74853 0.41196 1.06773
 C455 C 0.70992 0.38406 1.05913
 C456 C 0.66793 0.40192 1.04444
 C457 C 0.66222 0.44848 1.03726
 C458 C 0.70185 0.47754 1.04229
 C459 C 0.78556 0.48652 1.05576
 C460 C 0.78259 0.53240 1.04593
 C461 C 0.73985 0.55154 1.03597
 C462 C 0.69992 0.52476 1.03434
 H463 H 0.81981 0.47294 1.06202
 H464 H 0.81361 0.55323 1.04618
 H465 H 0.73760 0.58745 1.02919
 H466 H 0.66831 0.54243 1.02697
 H467 H 0.71088 0.34827 1.06694
 H468 H 0.63898 0.37877 1.03989
 C469 C 0.23260 1.08250 -0.01895
 C470 C 0.24000 1.08883 -0.06740
 C471 C 0.20386 1.07791 -0.09812
 C472 C 0.16104 1.06297 -0.08234
 C473 C 0.15217 1.05706 -0.03505
 C474 C 0.18848 1.06620 -0.00267
 C475 C 0.26917 1.08813 0.01337
 C476 C 0.26227 1.08014 0.06034
 C477 C 0.21948 1.06485 0.07614
 C478 C 0.18318 1.05722 0.04513
 H479 H 0.30392 1.09733 0.00281
 H480 H 0.29067 1.08483 0.08450
 H481 H 0.21469 1.05778 0.11258
 H482 H 0.15183 1.04299 0.05940
 H483 H 0.20807 1.08257 -0.13510
 H484 H 0.13424 1.05618 -0.10784
 C485 C 0.25994 -0.03913 0.43846
 C486 C 0.25470 -0.08613 0.42967
 C487 C 0.29199 -0.11506 0.43839
 C488 C 0.33433 -0.09830 0.45412
 C489 C 0.34164 -0.05175 0.46062
 C490 C 0.30430 -0.02136 0.45157
 C491 C 0.22190 -0.00936 0.43437
 C492 C 0.22798 0.03715 0.43913
 C493 C 0.27192 0.05491 0.44771
 C494 C 0.30977 0.02623 0.45364
 H495 H 0.18710 -0.02171 0.42772
 H496 H 0.19858 0.05955 0.43538
 H497 H 0.27673 0.09118 0.44991
 H498 H 0.34301 0.04239 0.45859
 H499 H 0.28870 -0.15105 0.43191
 H500 H 0.36199 -0.12219 0.46065
 C501 C 0.61809 -0.19452 0.57928
 C502 C 0.58740 -0.23092 0.59072
 C503 C 0.53916 -0.22434 0.58584
 C504 C 0.52132 -0.18409 0.56848
 C505 C 0.55091 -0.14873 0.55588
 C506 C 0.59967 -0.15394 0.56027
 C507 C 0.66627 -0.19598 0.58927
 C508 C 0.69584 -0.16074 0.57642
 C509 C 0.67819 -0.12287 0.55431
 C510 C 0.63061 -0.11917 0.54654
 H511 H 0.68161 -0.22364 0.60810
 H512 H 0.73265 -0.16279 0.58383
 H513 H 0.70136 -0.09579 0.54398
 H514 H 0.61842 -0.08881 0.52974
 H515 H 0.51483 -0.25119 0.59410
 H516 H 0.48400 -0.18027 0.56551
 C517 C 1.02366 0.73048 0.42612
 C518 C 1.07215 0.73756 0.41848
 C519 C 1.10297 0.70210 0.42779
 C520 C 1.08700 0.65997 0.44149
 C521 C 1.03953 0.65129 0.44777
 C522 C 1.00725 0.68713 0.44121
 C523 C 0.99156 0.76648 0.42300
 C524 C 0.94457 0.75979 0.43229
 C525 C 0.92860 0.71772 0.44648
 C526 C 0.95947 0.68195 0.45167
 H527 H 1.00242 0.80054 0.41490
 H528 H 0.92057 0.78774 0.42953
 H529 H 0.89218 0.71304 0.45465
 H530 H 0.94519 0.65106 0.46540
 H531 H 1.14001 0.70621 0.42227
 H532 H 1.11241 0.63349 0.44663
 C533 C -0.12248 1.18573 0.09667
 C534 C -0.09091 1.22273 0.10184
 C535 C -0.04332 1.21523 0.09427
 C536 C -0.02743 1.17404 0.07711
 C537 C -0.05827 1.13837 0.06796
 C538 C -0.10594 1.14319 0.08006
 C539 C -0.16938 1.18896 0.11114
 C540 C -0.19953 1.15215 0.10763
 C541 C -0.18349 1.11088 0.09128
 C542 C -0.13716 1.10607 0.07833
 H543 H -0.18302 1.21935 0.12681
 H544 H -0.23528 1.15538 0.11878
 H545 H -0.20679 1.08207 0.08972
 H546 H -0.12615 1.07248 0.06876
 H547 H -0.01833 1.24243 0.09874
 H548 H 0.00921 1.17060 0.06932
 C549 C 0.42786 0.30186 0.88031
 C550 C 0.42079 0.26708 0.91343
 C551 C 0.43356 0.27471 0.95956
 C552 C 0.45260 0.31593 0.97343
 C553 C 0.46043 0.35079 0.94150
 C554 C 0.45007 0.34303 0.89392
 C555 C 0.41272 0.29695 0.83397
 C556 C 0.42277 0.32987 0.80105
 C557 C 0.44805 0.36818 0.81345
 C558 C 0.46174 0.37481 0.85927
 H559 H 0.39269 0.26793 0.82272
 H560 H 0.41140 0.32534 0.76560
 H561 H 0.45690 0.39306 0.78747
 H562 H 0.48243 0.40451 0.86665
 H563 H 0.42854 0.24851 0.98522
 H564 H 0.46029 0.32093 1.00982
 C565 C 0.53016 0.57622 0.76900
 C566 C 0.57834 0.58339 0.76120
 C567 C 0.60983 0.57501 0.79709
 C568 C 0.59465 0.56024 0.84014
 C569 C 0.54723 0.55413 0.84949
 C570 C 0.51420 0.56360 0.81401
 C571 C 0.49743 0.58109 0.73291
 C572 C 0.44996 0.57727 0.74156
 C573 C 0.43416 0.56876 0.78616
 C574 C 0.46571 0.56217 0.82212
 H575 H 0.50814 0.58762 0.69768
 H576 H 0.42529 0.58157 0.71364
 H577 H 0.39719 0.56714 0.79295
 H578 H 0.45125 0.55714 0.85615
 H579 H 0.64672 0.58053 0.79196
 H580 H 0.62049 0.55349 0.86650
 C581 C 0.43556 0.02985 0.74620
 C582 C 0.41801 0.07446 0.74963
 C583 C 0.41477 0.10106 0.70983
 C584 C 0.42839 0.08436 0.66698
 C585 C 0.44600 0.04049 0.66236
 C586 C 0.44917 0.01243 0.70207
 C587 C 0.44026 0.00231 0.78570
 C588 C 0.45643 -0.04190 0.78173
 C589 C 0.46806 -0.05950 0.73853
 C590 C 0.46441 -0.03282 0.69899
 H591 H 0.43164 0.01468 0.81991
 H592 H 0.45966 -0.06272 0.81229
 H593 H 0.47998 -0.09406 0.73563
 H594 H 0.47303 -0.04833 0.66620
 H595 H 0.40121 0.13515 0.71193
 H596 H 0.42574 0.10629 0.63711
 C597 C 0.06257 0.95982 0.23738
 C598 C 0.08076 0.91536 0.23948
 C599 C 0.08231 0.88885 0.19936
 C600 C 0.06711 0.90580 0.15723
 C601 C 0.04985 0.94989 0.15372
 C602 C 0.04673 0.97725 0.19415
 C603 C 0.05836 0.98678 0.27760
 C604 C 0.03929 1.02995 0.27537
 C605 C 0.02338 1.04681 0.23339
 C606 C 0.02661 1.02076 0.19320
 H607 H 0.06907 0.97460 0.31119
 H608 H 0.03627 1.05021 0.30650
 H609 H 0.00795 1.08010 0.23204
 H610 H 0.01232 1.03492 0.16190
 H611 H 0.09596 0.85477 0.20058
 H612 H 0.06931 0.88430 0.12685
 C613 C 0.93706 0.46313 0.26291
 C614 C 0.91815 0.41877 0.26003
 C615 C 0.91458 0.39271 0.30025
 C616 C 0.92883 0.40972 0.34286
 C617 C 0.94682 0.45361 0.34704
 C618 C 0.95142 0.48079 0.30682
 C619 C 0.94358 0.48974 0.22293
 C620 C 0.96294 0.53292 0.22608
 C621 C 0.97690 0.55015 0.26878
 C622 C 0.97166 0.52436 0.30876
 H623 H 0.93450 0.47727 0.18886
 H624 H 0.96766 0.55293 0.19511
 H625 H 0.99243 0.58350 0.27086
 H626 H 0.98431 0.53878 0.34081
 H627 H 0.90021 0.35881 0.29870
 H628 H 0.92540 0.38839 0.37310
   
