data_POSCAR
  _audit_creation_date              2014-09-24
  _audit_creation_method            'ToBaCCo'
  _symmetry_space_group_name_H-M    'P1'
  _symmetry_Int_Tables_number       1
  _symmetry_cell_setting            triclinic
  loop_
  _symmetry_equiv_pos_as_xyz
 x,y,z
_cell_length_a 28.2179
_cell_length_b 28.1085
_cell_length_c 27.9732
_cell_angle_alpha 91.597100
_cell_angle_beta 92.515100
_cell_angle_gamma 91.477800
loop_
  _atom_site_label
  _atom_site_type_symbol
  _atom_site_fract_x
  _atom_site_fract_y
  _atom_site_fract_z
N1 N 0.21553 1.30850 0.18536
 N2 N 0.18382 1.30778 0.21842
 C3 C 0.14917 1.33798 0.20680
 C4 C 0.16019 1.35894 0.16446
 C5 C 0.20233 1.33934 0.15167
 H6 H 0.11702 1.34205 0.22604
 H7 H 0.22048 1.34485 0.11892
 Cu8 Cu 0.18771 1.26319 0.27014
 Cu9 Cu 0.26862 1.26562 0.18599
 Cu10 Cu 0.25054 1.16499 0.25250
 N11 N 0.17822 1.20721 0.30787
 N12 N 0.20224 1.16850 0.29994
 C13 C 0.18567 1.13350 0.32697
 C14 C 0.14938 1.15128 0.35304
 C15 C 0.14543 1.19818 0.34025
 H16 H 0.19763 1.09724 0.32622
 H17 H 0.11910 1.22295 0.35145
 N18 N 0.29809 1.16912 0.20319
 N19 N 0.30594 1.20791 0.17883
 C20 C 0.33843 1.19875 0.14614
 C21 C 0.35131 1.15199 0.15023
 C22 C 0.32532 1.13426 0.18661
 H23 H 0.34968 1.22334 0.11956
 H24 H 0.32490 1.09800 0.19854
 H25 H 0.22176 1.21513 0.20784
 H26 H 0.26792 1.23596 0.25390
 N27 N 0.82034 0.72082 0.12780
 N28 N 0.84800 0.71786 0.16667
 C29 C 0.87842 0.68240 0.16039
 C30 C 0.86940 0.66214 0.11535
 C31 C 0.83235 0.68721 0.09550
 H32 H 0.90566 0.67245 0.18629
 H33 H 0.81587 0.68178 0.06006
 Cu34 Cu 0.84338 0.76176 0.22111
 Cu35 Cu 0.77198 0.76908 0.12165
 Cu36 Cu 0.76760 0.85067 0.21652
 N37 N 0.83813 0.80612 0.27530
 N38 N 0.80751 0.84053 0.27360
 C39 C 0.81568 0.87011 0.31189
 C40 C 0.85332 0.85332 0.33921
 C41 C 0.86699 0.81288 0.31471
 H42 H 0.79929 0.90417 0.31668
 H43 H 0.89868 0.79311 0.32232
 N44 N 0.72411 0.85153 0.15969
 N45 N 0.72592 0.82096 0.12310
 C46 C 0.69260 0.83203 0.08939
 C47 C 0.66897 0.87117 0.10594
 C48 C 0.68957 0.88246 0.15044
 H49 H 0.68609 0.81329 0.05536
 H50 H 0.68016 0.91153 0.17399
 H51 H 0.80865 0.81760 0.16525
 H52 H 0.76309 0.77981 0.19376
 N53 N 0.81234 1.27198 -0.15617
 N54 N 0.84207 1.27320 -0.19101
 C55 C 0.87171 1.31132 -0.18378
 C56 C 0.85964 1.33529 -0.14249
 C57 C 0.82200 1.30926 -0.12576
 H58 H 0.90269 1.31851 -0.20411
 H59 H 0.80616 1.31444 -0.09155
 Cu60 Cu 0.84502 1.22000 -0.23681
 Cu61 Cu 0.77038 1.21715 -0.14764
 Cu62 Cu 0.76964 1.12518 -0.23305
 N63 N 0.84738 1.16656 -0.28218
 N64 N 0.81823 1.12939 -0.28056
 C65 C 0.82900 1.09720 -0.31481
 C66 C 0.86682 1.11541 -0.33893
 C67 C 0.87757 1.15935 -0.31739
 H68 H 0.81115 1.06297 -0.32131
 H69 H 0.90582 1.18383 -0.32620
 N70 N 0.72377 1.12818 -0.18161
 N71 N 0.72410 1.16350 -0.14941
 C72 C 0.68901 1.15578 -0.11932
 C73 C 0.66571 1.11356 -0.13293
 C74 C 0.68848 1.09684 -0.17248
 H75 H 0.68109 1.17899 -0.08944
 H76 H 0.67994 1.06428 -0.19287
 H77 H 0.80857 1.16471 -0.18267
 H78 H 0.76403 1.19735 -0.21956
 N79 N 0.16363 0.71905 -0.15072
 N80 N 0.12441 0.72573 -0.17658
 C81 C 0.09066 0.69422 -0.16374
 C82 C 0.11016 0.66674 -0.12811
 C83 C 0.15630 0.68329 -0.12083
 H84 H 0.05466 0.69171 -0.17869
 H85 H 0.18228 0.67073 -0.09489
 Cu86 Cu 0.12156 0.77553 -0.22385
 Cu87 Cu 0.22050 0.75883 -0.15467
 Cu88 Cu 0.21888 0.84440 -0.24064
 N89 N 0.12249 0.82274 -0.27373
 N90 N 0.16112 0.84846 -0.28047
 C91 C 0.15258 0.87832 -0.31629
 C92 C 0.10619 0.87117 -0.33283
 C93 C 0.08784 0.83562 -0.30527
 H94 H 0.17790 0.90411 -0.32890
 H95 H 0.05208 0.82071 -0.30776
 N96 N 0.27408 0.83524 -0.19677
 N97 N 0.27466 0.80260 -0.16381
 C98 C 0.31345 0.81020 -0.13451
 C99 C 0.33864 0.84917 -0.14997
 C100 C 0.31249 0.86436 -0.18924
 H101 H 0.32022 0.79222 -0.10133
 H102 H 0.31836 0.89729 -0.20744
 H103 H 0.18759 0.81833 -0.18080
 H104 H 0.20771 0.77358 -0.22583
 C105 C 0.45945 1.03762 0.02917
 C106 C 0.49560 1.00768 0.05643
 C107 C 0.52037 0.97822 0.02764
 C108 C 0.50641 0.98119 -0.02595
 C109 C 0.48834 1.06385 -0.00748
 C110 C 0.51302 1.03437 -0.03644
 C111 C 0.42799 1.00168 -0.00023
 C112 C 0.45235 0.97212 -0.02903
 H113 H 0.50160 1.01056 0.09499
 H114 H 0.52623 0.95700 -0.04940
 H115 H 0.49333 1.10231 -0.00670
 H116 H 0.38951 1.00064 0.00050
 C117 C 0.04021 0.46003 1.04327
 C118 C 0.06635 0.49594 1.01305
 C119 C 0.03720 0.51990 0.98238
 C120 C -0.01559 0.50547 0.98457
 C121 C 0.00291 0.48908 1.06832
 C122 C -0.02641 0.51292 1.03767
 C123 C 0.01202 0.42748 1.00716
 C124 C -0.01709 0.45107 0.97634
 H125 H 0.10441 0.50238 1.01673
 H126 H -0.03927 0.52468 0.95940
 H127 H 0.00302 0.49445 1.10693
 H128 H 0.01322 0.38889 1.00742
 C129 C 1.03092 0.03817 0.45970
 C130 C 0.99428 0.06438 0.48853
 C131 C 0.96560 0.03493 0.51335
 C132 C 0.97636 -0.01824 0.50699
 C133 C 1.05795 0.00852 0.49637
 C134 C 1.02948 -0.02098 0.52128
 C135 C 1.00214 0.00195 0.42793
 C136 C 0.97361 -0.02759 0.45245
 H137 H 0.99453 0.10288 0.49315
 H138 H 0.95320 -0.04242 0.52698
 H139 H 1.09615 0.01152 0.50239
 H140 H 1.00279 0.00098 0.38911
 C141 C 0.11441 0.40317 1.06091
 C142 C 0.14630 0.42567 1.10243
 C143 C 0.12976 0.38586 1.13489
 C144 C 0.09831 0.36304 1.09378
 C145 C 0.08844 0.41584 1.15154
 C146 C 0.10449 0.45604 1.11853
 C147 C 0.07298 0.43323 1.07734
 C148 C 0.05657 0.39338 1.10994
 H149 H 0.12469 0.39822 1.02328
 H150 H 0.18352 0.43872 1.09968
 H151 H 0.09609 0.32449 1.08391
 H152 H 0.07805 0.42091 1.18912
 H153 H 0.10660 0.49462 1.12825
 H154 H 0.01932 0.38041 1.11260
 C155 C -0.03438 0.60025 1.07406
 C156 C -0.07532 0.62606 1.04786
 C157 C -0.10440 0.62232 1.09291
 C158 C -0.06372 0.59690 1.11924
 C159 C -0.12654 0.57431 1.07455
 C160 C -0.09696 0.57738 1.02920
 C161 C -0.05635 0.55217 1.05581
 C162 C -0.08556 0.54852 1.10075
 H163 H 0.00386 0.61049 1.07352
 H164 H -0.07130 0.65837 1.02633
 H165 H -0.04972 0.60468 1.15640
 H166 H -0.16477 0.56407 1.07501
 H167 H -0.11045 0.56894 0.99199
 H168 H -0.08965 0.51623 1.12231
 C169 C -0.09205 0.39298 0.96019
 C170 C -0.12507 0.41079 0.91919
 C171 C -0.10909 0.36970 0.88675
 C172 C -0.07646 0.35168 0.92742
 C173 C -0.06842 0.40098 0.86878
 C174 C -0.08380 0.44262 0.90180
 C175 C -0.05128 0.42422 0.94242
 C176 C -0.03552 0.38316 0.90980
 H177 H -0.10143 0.38998 0.99814
 H178 H -0.16228 0.42180 0.92271
 H179 H -0.07366 0.31398 0.93776
 H180 H -0.05900 0.40402 0.83086
 H181 H -0.08652 0.48032 0.89147
 H182 H 0.00165 0.37202 0.90619
 C183 C 0.03575 0.60977 0.95151
 C184 C 0.08739 0.62995 0.95413
 C185 C 0.08741 0.62804 0.89916
 C186 C 0.03590 0.60847 0.89602
 C187 C 0.10642 0.57731 0.89953
 C188 C 0.10643 0.57897 0.95475
 C189 C 0.05501 0.55907 0.95190
 C190 C 0.05473 0.55710 0.89689
 H191 H 0.00650 0.62271 0.97329
 H192 H 0.10088 0.66033 0.97751
 H193 H 0.00709 0.62101 0.87159
 H194 H 0.13563 0.56421 0.87778
 H195 H 0.13622 0.56768 0.97865
 H196 H 0.04112 0.52660 0.87373
 C197 C 1.10343 0.05209 0.40165
 C198 C 1.08652 0.08370 0.36026
 C199 C 1.11888 0.12451 0.38148
 C200 C 1.13617 0.09325 0.42257
 C201 C 1.07855 0.14336 0.41135
 C202 C 1.04578 0.10207 0.39051
 C203 C 1.06299 0.07065 0.43163
 C204 C 1.09537 0.11154 0.45288
 H205 H 1.11331 0.01424 0.39792
 H206 H 1.08315 0.07253 0.32185
 H207 H 1.17367 0.08994 0.43549
 H208 H 1.06852 0.18115 0.41524
 H209 H 1.00826 0.10528 0.37765
 H210 H 1.09858 0.12253 0.49133
 C211 C 1.04938 -0.10579 0.55906
 C212 C 1.10143 -0.10289 0.57929
 C213 C 1.08340 -0.10316 0.63031
 C214 C 1.03156 -0.10662 0.61077
 C215 C 1.08219 -0.04851 0.63215
 C216 C 1.10022 -0.04797 0.58083
 C217 C 1.04846 -0.05108 0.56089
 C218 C 1.03019 -0.05140 0.61191
 H219 H 1.03569 -0.12895 0.52847
 H220 H 1.13087 -0.12440 0.56608
 H221 H 1.00350 -0.13098 0.62344
 H222 H 1.09575 -0.02506 0.66259
 H223 H 1.12927 -0.02409 0.56944
 H224 H 1.00070 -0.02983 0.62488
 C225 C 0.95625 -0.09787 0.38829
 C226 C 0.92152 -0.13595 0.40687
 C227 C 0.88272 -0.11847 0.37176
 C228 C 0.91712 -0.08083 0.35295
 C229 C 0.86591 -0.08282 0.40971
 C230 C 0.90539 -0.09962 0.44538
 C231 C 0.93971 -0.06202 0.42620
 C232 C 0.90072 -0.04486 0.39111
 H233 H 0.99373 -0.10378 0.37975
 H234 H 0.92979 -0.17374 0.41308
 H235 H 0.92178 -0.07327 0.31467
 H236 H 0.82841 -0.07694 0.41819
 H237 H 0.90086 -0.10708 0.48368
 H238 H 0.89247 -0.00706 0.38492
 C239 C 0.89584 0.02969 0.57795
 C240 C 0.91862 0.04729 0.62698
 C241 C 0.89078 0.09345 0.62314
 C242 C 0.86745 0.07618 0.57483
 C243 C 0.93172 0.11787 0.59774
 C244 C 0.95982 0.07154 0.60114
 C245 C 0.93672 0.05435 0.55273
 C246 C 0.90870 0.10040 0.54902
 H247 H 0.88131 -0.00677 0.56936
 H248 H 0.92255 0.02566 0.65945
 H249 H 0.82917 0.07834 0.56439
 H250 H 0.94694 0.15422 0.60541
 H251 H 0.99811 0.06927 0.61152
 H252 H 0.90471 0.12205 0.51657
 C253 C 0.40175 1.05143 0.10224
 C254 C 0.42224 1.09259 0.13541
 C255 C 0.38141 1.12382 0.11799
 C256 C 0.36067 1.08299 0.08516
 C257 C 0.41109 1.14269 0.07742
 C258 C 0.45235 1.11096 0.09440
 C259 C 0.43151 1.07008 0.06158
 C260 C 0.39067 1.10143 0.04421
 H261 H 0.39815 1.01357 0.11209
 H262 H 0.43492 1.08931 0.17326
 H263 H 0.32264 1.07178 0.08167
 H264 H 0.41474 1.18053 0.06751
 H265 H 0.49042 1.12203 0.09778
 H266 H 0.37800 1.10466 0.00634
 C267 C 0.60171 1.06680 -0.04056
 C268 C 0.62593 1.04320 -0.08344
 C269 C 0.62483 1.09097 -0.10893
 C270 C 0.60100 1.11470 -0.06630
 C271 C 0.57612 1.07756 -0.13308
 C272 C 0.57656 1.02947 -0.10711
 C273 C 0.55294 1.05347 -0.06453
 C274 C 0.55191 1.10115 -0.09017
 H275 H 0.61179 1.06204 -0.00221
 H276 H 0.65681 1.01959 -0.08084
 H277 H 0.61081 1.14988 -0.04917
 H278 H 0.56603 1.08221 -0.17143
 H279 H 0.56602 0.99422 -0.12366
 H280 H 0.52110 1.12484 -0.09290
 C281 C 0.44570 0.89937 -0.09718
 C282 C 0.40798 0.86301 -0.08034
 C283 C 0.37282 0.87963 -0.11960
 C284 C 0.40999 0.91538 -0.13705
 C285 C 0.35399 0.91757 -0.08520
 C286 C 0.38932 0.90133 -0.04566
 C287 C 0.42646 0.93723 -0.06288
 C288 C 0.39133 0.95362 -0.10227
 H289 H 0.48373 0.89213 -0.10183
 H290 H 0.41450 0.82539 -0.07166
 H291 H 0.41814 0.92081 -0.17500
 H292 H 0.31597 0.92485 -0.08048
 H293 H 0.38106 0.89583 -0.00774
 H294 H 0.38475 0.99123 -0.11099
 C295 C 0.58395 0.95628 0.09696
 C296 C 0.58095 0.90200 0.10390
 C297 C 0.62967 0.89746 0.08199
 C298 C 0.63293 0.95149 0.07506
 C299 C 0.60614 0.88957 0.03163
 C300 C 0.55679 0.89457 0.05334
 C301 C 0.56009 0.94865 0.04668
 C302 C 0.60879 0.94413 0.02454
 H303 H 0.57561 0.98374 0.12438
 H304 H 0.56977 0.88434 0.13674
 H305 H 0.66466 0.97472 0.08408
 H306 H 0.61569 0.86186 0.00497
 H307 H 0.52495 0.87153 0.04421
 H308 H 0.61986 0.96181 -0.00832
   
