data_POSCAR
  _audit_creation_date              2014-09-24
  _audit_creation_method            'ToBaCCo'
  _symmetry_space_group_name_H-M    'P1'
  _symmetry_Int_Tables_number       1
  _symmetry_cell_setting            triclinic
  loop_
  _symmetry_equiv_pos_as_xyz
 x,y,z
_cell_length_a 39.6313
_cell_length_b 36.2560
_cell_length_c 44.6169
_cell_angle_alpha 90.214200
_cell_angle_beta 89.866900
_cell_angle_gamma 119.763600
loop_
  _atom_site_label
  _atom_site_type_symbol
  _atom_site_fract_x
  _atom_site_fract_y
  _atom_site_fract_z
O1 O 0.04375 0.57973 1.29078
 O2 O -0.03189 0.52735 1.23217
 O3 O -0.03223 0.54111 1.28969
 O4 O 0.04334 0.57251 1.23264
 O5 O 0.04341 0.51201 1.23803
 O6 O -0.03160 0.48140 1.29775
 O7 O -0.03197 0.46728 1.24036
 O8 O 0.04454 0.51978 1.29685
 Cu9 Cu 0.00567 0.56108 1.26074
 Cu10 Cu 0.00630 0.48928 1.26907
 C11 C 0.05710 0.55841 1.30370
 C12 C -0.04465 0.48819 1.22628
 C13 C -0.04489 0.50627 1.30350
 C14 C 0.05575 0.54770 1.22504
 O15 O 0.45873 0.49467 1.27031
 O16 O 0.48350 0.44637 1.20717
 O17 O 0.48367 0.44063 1.26516
 O18 O 0.45676 0.49859 1.21204
 O19 O 0.51671 0.55288 1.21269
 O20 O 0.54389 0.49445 1.26584
 O21 O 0.54347 0.50065 1.20792
 O22 O 0.51895 0.54840 1.27079
 Cu23 Cu 0.46455 0.46471 1.23864
 Cu24 Cu 0.53681 0.52951 1.23940
 C25 C 0.48473 0.52977 1.28133
 C26 C 0.51790 0.46549 1.19684
 C27 C 0.51840 0.45758 1.27448
 C28 C 0.48199 0.53533 1.20314
 O29 O 0.51821 0.96040 1.27186
 O30 O 0.54511 1.04646 1.21754
 O31 O 0.54523 1.04178 1.27591
 O32 O 0.51670 0.96451 1.21378
 O33 O 0.45693 0.95414 1.21612
 O34 O 0.48580 1.03254 1.27686
 O35 O 0.48537 1.03625 1.21857
 O36 O 0.45886 0.95119 1.27432
 Cu37 Cu 0.53734 1.00439 1.24453
 Cu38 Cu 0.46575 0.99254 1.24658
 C39 C 0.48407 0.94133 1.28259
 C40 C 0.51996 1.05597 1.20867
 C41 C 0.52020 1.05016 1.28704
 C42 C 0.48176 0.94587 1.20461
 O43 O 0.96425 0.52960 0.70487
 O44 O 1.03979 0.58449 0.76295
 O45 O 1.04020 0.57849 0.70442
 O46 O 0.96458 0.54332 0.76165
 O47 O 0.96767 0.48471 0.76843
 O48 O 1.04476 0.52077 0.71084
 O49 O 1.04268 0.52566 0.76869
 O50 O 0.96905 0.47195 0.71102
 Cu51 Cu 1.00206 0.56490 0.73258
 Cu52 Cu 1.00637 0.49491 0.74020
 C53 C 0.95343 0.49103 0.69856
 C54 C 1.05357 0.56372 0.77605
 C55 C 1.05578 0.55627 0.69802
 C56 C 0.95332 0.50833 0.77491
 O57 O 0.48247 0.42391 0.72303
 O58 O 0.42226 0.43783 0.78081
 O59 O 0.42937 0.44559 0.72292
 O60 O 0.47133 0.40895 0.78079
 O61 O 0.51831 0.47476 0.78880
 O62 O 0.47713 0.51158 0.72897
 O63 O 0.46935 0.50393 0.78739
 O64 O 0.52993 0.48933 0.73172
 Cu65 Cu 0.44677 0.42243 0.75135
 Cu66 Cu 0.50322 0.50147 0.76017
 C67 C 0.51639 0.45461 0.71744
 C68 C 0.43559 0.47380 0.79360
 C69 C 0.44625 0.48443 0.71563
 C70 C 0.50188 0.43521 0.79457
 O71 O 0.55177 0.03988 0.72965
 O72 O 0.50800 -0.04470 0.78483
 O73 O 0.50119 -0.04307 0.72527
 O74 O 0.54565 0.03649 0.78665
 O75 O 0.49332 0.04338 0.78657
 O76 O 0.44870 -0.03676 0.72785
 O77 O 0.45471 -0.03959 0.78604
 O78 O 0.49838 0.04475 0.72796
 Cu79 Cu 0.53086 -0.00440 0.75583
 Cu80 Cu 0.46862 0.00363 0.75721
 C81 C 0.53296 0.05666 0.71915
 C82 C 0.47448 -0.05636 0.79524
 C83 C 0.46708 -0.05345 0.71625
 C84 C 0.52652 0.05350 0.79692
 O85 O 0.36243 0.63955 0.97153
 O86 O 0.35475 0.70676 0.96750
 C87 C 0.33378 0.72378 0.96382
 O88 O 0.30351 0.71397 0.97929
 O89 O 0.24255 0.64092 0.96785
 C90 C 0.22826 0.60287 0.95895
 O91 O 0.23611 0.57625 0.97089
 O92 O 0.30438 0.58439 0.96036
 C93 C 0.34049 0.60752 0.95551
 O94 O 0.35947 0.64370 1.03169
 O95 O 0.35579 0.71344 1.02772
 C96 C 0.33030 0.71560 1.04375
 O97 O 0.29430 0.69435 1.03828
 O98 O 0.23173 0.62278 1.02707
 C99 C 0.22870 0.58961 1.03925
 O100 O 0.24738 0.57172 1.03030
 O101 O 0.31428 0.57742 1.01949
 C102 C 0.34288 0.60378 1.03523
 Cr103 Cr 0.35593 0.67452 0.99959
 Cr104 Cr 0.26922 0.66689 1.00295
 Cr105 Cr 0.27643 0.57986 0.99539
 O106 O 0.30049 0.64039 0.99926
 O107 O 0.64744 0.34919 0.96301
 O108 O 0.64890 0.27996 0.97659
 C109 C 0.67468 0.27307 0.96494
 O110 O 0.71018 0.29281 0.97263
 O111 O 0.77425 0.36512 0.98008
 C112 C 0.77827 0.39360 0.96168
 O113 O 0.75958 0.41350 0.96368
 O114 O 0.69520 0.41584 0.96898
 C115 C 0.66524 0.38795 0.95546
 O116 O 0.64450 0.36580 1.02193
 O117 O 0.64669 0.29712 1.03556
 C118 C 0.66625 0.28028 1.04439
 O119 O 0.69757 0.28700 1.03203
 O120 O 0.75928 0.36102 1.03949
 C121 C 0.77602 0.40111 1.04199
 O122 O 0.77106 0.42444 1.02346
 O123 O 0.70421 0.42158 1.02863
 C124 C 0.66823 0.40071 1.03469
 Cr125 Cr 0.64910 0.32425 0.99931
 Cr126 Cr 0.73416 0.32763 1.00584
 Cr127 Cr 0.73150 0.41646 0.99633
 O128 O 0.70473 0.35599 1.00049
 O129 O 0.65821 0.40344 0.52689
 O130 O 0.72515 0.40675 0.53021
 C131 C 0.72769 0.38196 0.54875
 O132 O 0.71100 0.34211 0.54505
 O133 O 0.64900 0.26991 0.53229
 C134 C 0.61575 0.26425 0.53991
 O135 O 0.59919 0.28194 0.52687
 O136 O 0.60152 0.35167 0.50947
 C137 C 0.62131 0.38248 0.52716
 O138 O 0.66269 0.40396 0.46635
 O139 O 0.72751 0.40163 0.47026
 C140 C 0.74527 0.38047 0.47047
 O141 O 0.73624 0.34913 0.48784
 O142 O 0.67389 0.27811 0.47469
 C143 C 0.64053 0.25957 0.46279
 O144 O 0.61339 0.26661 0.47050
 O145 O 0.61879 0.33788 0.45344
 C146 C 0.63807 0.37733 0.44816
 Cr147 Cr 0.69229 0.40166 0.49843
 Cr148 Cr 0.69142 0.31092 0.50959
 Cr149 Cr 0.61038 0.31070 0.49042
 O150 O 0.66475 0.34097 0.49947
 O151 O 0.35345 0.59558 0.52591
 O152 O 0.29221 0.59931 0.54188
 C153 C 0.27545 0.61985 0.54927
 O154 O 0.27910 0.65156 0.53461
 O155 O 0.34703 0.72080 0.53690
 C156 C 0.38389 0.73973 0.53768
 O157 O 0.40418 0.73278 0.51881
 O158 O 0.40399 0.66176 0.52735
 C159 C 0.38607 0.62371 0.53649
 O160 O 0.33114 0.59046 0.46786
 O161 O 0.26893 0.59225 0.48399
 C162 C 0.26125 0.61799 0.47028
 O163 O 0.27984 0.65788 0.47457
 O164 O 0.34549 0.72955 0.47689
 C165 C 0.37055 0.73268 0.45779
 O166 O 0.38916 0.71277 0.46004
 O167 O 0.39248 0.64347 0.46831
 C168 C 0.36521 0.60928 0.45730
 Cr169 Cr 0.31256 0.59676 0.50476
 Cr170 Cr 0.31394 0.68879 0.50561
 Cr171 Cr 0.39533 0.68654 0.49389
 O172 O 0.34058 0.65724 0.50139
 C173 C 0.47633 0.54859 0.30528
 C174 C 0.43970 0.53064 0.31863
 C175 C 0.43192 0.55098 0.34424
 N176 N 0.39600 0.53241 0.35675
 N177 N 0.38865 0.55039 0.38008
 C178 C 0.41699 0.58761 0.39176
 N179 N 0.45290 0.60619 0.37924
 N180 N 0.46023 0.58821 0.35591
 C181 C 0.40943 0.60773 0.41761
 C182 C 0.37307 0.58976 0.43127
 H183 H 0.41612 0.50084 0.31030
 H184 H 0.43312 0.63729 0.42611
 H185 H 0.49957 0.57843 0.31386
 H186 H 0.34940 0.56026 0.42266
 C187 C 0.47486 0.90965 0.30382
 C188 C 0.43885 0.88867 0.31816
 C189 C 0.43056 0.85729 0.34193
 N190 N 0.39768 0.84277 0.35849
 N191 N 0.39025 0.81522 0.38063
 C192 C 0.41537 0.80104 0.38696
 N193 N 0.44807 0.81522 0.37020
 N194 N 0.45559 0.84292 0.34813
 C195 C 0.40785 0.77127 0.41175
 C196 C 0.37807 0.76131 0.43232
 H197 H 0.41660 0.89670 0.31286
 H198 H 0.42691 0.75806 0.41439
 H199 H 0.49719 0.90209 0.30993
 H200 H 0.35996 0.77578 0.43015
 C201 C 0.08738 0.57874 0.32692
 C202 C 0.10082 0.55553 0.34293
 C203 C 0.13105 0.57414 0.36626
 N204 N 0.14125 0.54874 0.38137
 N205 N 0.16873 0.56472 0.40238
 C206 C 0.18715 0.60681 0.40910
 N207 N 0.17696 0.63228 0.39399
 N208 N 0.14940 0.61627 0.37298
 C209 C 0.21810 0.62502 0.43197
 C210 C 0.22905 0.59996 0.44847
 H211 H 0.08855 0.52192 0.33831
 H212 H 0.23290 0.65905 0.43562
 H213 H 0.09896 0.61220 0.33165
 H214 H 0.21397 0.56590 0.44494
 C215 C 0.52867 0.43391 0.29570
 C216 C 0.56572 0.45118 0.30797
 C217 C 0.57514 0.42901 0.33109
 N218 N 0.60993 0.44959 0.34526
 N219 N 0.61828 0.43075 0.36726
 C220 C 0.59223 0.39054 0.37584
 N221 N 0.55763 0.36969 0.36137
 N222 N 0.54921 0.38861 0.33941
 C223 C 0.60033 0.37053 0.40133
 C224 C 0.63170 0.39423 0.42027
 H225 H 0.58808 0.48278 0.30151
 H226 H 0.57986 0.33764 0.40648
 H227 H 0.50611 0.40259 0.30246
 H228 H 0.65114 0.42757 0.41559
 C229 C 0.52975 0.07855 0.31082
 C230 C 0.56623 0.09856 0.32450
 C231 C 0.57450 0.12710 0.35038
 N232 N 0.60985 0.14532 0.36385
 N233 N 0.61742 0.17107 0.38737
 C234 C 0.58986 0.17944 0.39824
 N235 N 0.55457 0.16122 0.38477
 N236 N 0.54701 0.13552 0.36131
 C237 C 0.59751 0.20820 0.42378
 C238 C 0.63304 0.22851 0.43877
 H239 H 0.58903 0.09280 0.31648
 H240 H 0.57441 0.21421 0.43057
 H241 H 0.50725 0.08454 0.31929
 H242 H 0.65625 0.22260 0.43214
 C243 C 0.92459 0.49564 0.32613
 C244 C 0.90959 0.45974 0.34430
 C245 C 0.87876 0.45079 0.36650
 N246 N 0.86639 0.41721 0.38533
 N247 N 0.83850 0.40890 0.40537
 C248 C 0.82187 0.43383 0.40732
 N249 N 0.83419 0.46733 0.38845
 N250 N 0.86211 0.47568 0.36847
 C251 C 0.79057 0.42476 0.42904
 C252 C 0.77805 0.39190 0.44980
 H253 H 0.92080 0.43800 0.34240
 H254 H 0.77682 0.44417 0.42841
 H255 H 0.91367 0.51759 0.32865
 H256 H 0.79220 0.37290 0.45052
 C257 C 0.52823 0.44654 1.17180
 C258 C 0.56565 0.46679 1.15983
 C259 C 0.57776 0.44859 1.13548
 N260 N 0.61497 0.47004 1.12555
 N261 N 0.62689 0.45405 1.10377
 C262 C 0.60204 0.41598 1.09107
 N263 N 0.56473 0.39453 1.10093
 N264 N 0.55277 0.41054 1.12277
 C265 C 0.61523 0.39789 1.06730
 C266 C 0.65374 0.41857 1.05758
 H267 H 0.58735 0.49717 1.16889
 H268 H 0.59445 0.36751 1.05766
 H269 H 0.50628 0.41621 1.16288
 H270 H 0.67444 0.44877 1.06750
 C271 C 0.92758 0.46728 1.20401
 C272 C 0.91332 0.48744 1.18555
 C273 C 0.88612 0.46465 1.16082
 N274 N 0.87625 0.48624 1.14123
 N275 N 0.85239 0.46617 1.11841
 C276 C 0.83742 0.42369 1.11431
 N277 N 0.84709 0.40205 1.13401
 N278 N 0.87104 0.42215 1.15678
 C279 C 0.81113 0.40110 1.08908
 C280 C 0.80283 0.42264 1.06709
 H281 H 0.92340 0.52101 1.18844
 H282 H 0.79826 0.36690 1.08772
 H283 H 0.91771 0.43387 1.20035
 H284 H 0.81624 0.45692 1.06839
 C285 C 0.53087 0.09003 1.18650
 C286 C 0.56853 0.11231 1.17508
 C287 C 0.58053 0.14512 1.15187
 N288 N 0.61729 0.16344 1.14102
 N289 N 0.62882 0.19256 1.11952
 C290 C 0.60408 0.20459 1.10803
 N291 N 0.56730 0.18649 1.11902
 N292 N 0.55570 0.15723 1.14055
 C293 C 0.61660 0.23597 1.08361
 C294 C 0.65280 0.25109 1.07001
 H295 H 0.59025 0.10480 1.18299
 H296 H 0.59672 0.24609 1.07559
 H297 H 0.50888 0.09720 1.17877
 H298 H 0.67198 0.23984 1.07778
 C299 C 0.47108 0.55772 1.18123
 C300 C 0.43460 0.53756 1.16771
 C301 C 0.42323 0.55751 1.14428
 N302 N 0.38906 0.53398 1.12973
 N303 N 0.37823 0.55105 1.10810
 C304 C 0.40112 0.59236 1.10023
 N305 N 0.43524 0.61606 1.11492
 N306 N 0.44617 0.59891 1.13653
 C307 C 0.38920 0.61125 1.07631
 C308 C 0.35679 0.58622 1.05858
 H309 H 0.41380 0.50511 1.17372
 H310 H 0.40625 0.64516 1.07249
 H311 H 0.49246 0.58976 1.17483
 H312 H 0.34063 0.55215 1.06197
 C313 C 0.08415 0.56148 1.20042
 C314 C 0.09526 0.53524 1.18560
 C315 C 0.11951 0.55002 1.15826
 N316 N 0.13119 0.52497 1.14418
 N317 N 0.15241 0.53811 1.11914
 C318 C 0.16251 0.57671 1.10720
 N319 N 0.15076 0.60160 1.12126
 N320 N 0.12972 0.58855 1.14625
 C321 C 0.18599 0.59236 1.07968
 C322 C 0.20243 0.57092 1.06515
 H323 H 0.08490 0.50313 1.19342
 H324 H 0.19170 0.62289 1.07120
 H325 H 0.09478 0.59349 1.19224
 H326 H 0.19778 0.54096 1.07398
 C327 C 0.47010 0.91430 1.18038
 C328 C 0.43153 0.89079 1.17102
 C329 C 0.41897 0.85899 1.14690
 N330 N 0.38075 0.83618 1.13965
 N331 N 0.36877 0.80745 1.11770
 C332 C 0.39459 0.80049 1.10216
 N333 N 0.43284 0.82330 1.10942
 N334 N 0.44483 0.85201 1.13141
 C335 C 0.38188 0.76949 1.07748
 C336 C 0.34286 0.74481 1.06951
 H337 H 0.40953 0.89564 1.18184
 H338 H 0.40391 0.76650 1.06503
 H339 H 0.49216 0.90914 1.17001
 H340 H 0.32080 0.74741 1.08221
 C341 C 0.54070 0.45102 0.69397
 C342 C 0.52545 0.42028 0.67151
 C343 C 0.54938 0.42015 0.64622
 N344 N 0.53222 0.39384 0.62256
 N345 N 0.55340 0.39364 0.59940
 C346 C 0.59257 0.41975 0.59898
 N347 N 0.60977 0.44598 0.62270
 N348 N 0.58856 0.44631 0.64583
 C349 C 0.61640 0.41833 0.57406
 C350 C 0.59937 0.39286 0.54894
 H351 H 0.49474 0.39703 0.67157
 H352 H 0.64774 0.43549 0.57639
 H353 H 0.57101 0.47549 0.69305
 H354 H 0.56799 0.37596 0.54683
 C355 C 0.55232 0.08978 0.69635
 C356 C 0.53374 0.10679 0.67957
 C357 C 0.55411 0.13641 0.65472
 N358 N 0.53560 0.15207 0.63792
 N359 N 0.55372 0.17799 0.61498
 C360 C 0.59099 0.18911 0.60798
 N361 N 0.60946 0.17351 0.62481
 N362 N 0.59139 0.14769 0.64771
 C363 C 0.61154 0.21728 0.58260
 C364 C 0.59481 0.23554 0.56495
 H365 H 0.50358 0.09713 0.68396
 H366 H 0.64090 0.22407 0.57789
 H367 H 0.58240 0.09949 0.69152
 H368 H 0.56569 0.22934 0.56998
 C369 C 0.92190 0.46707 0.67716
 C370 C 0.89820 0.48222 0.66633
 C371 C 0.86435 0.45585 0.64729
 N372 N 0.84257 0.47211 0.63645
 N373 N 0.81209 0.44871 0.61893
 C374 C 0.80208 0.40808 0.61173
 N375 N 0.82364 0.39166 0.62282
 N376 N 0.85419 0.41510 0.64031
 C377 C 0.77009 0.38303 0.59075
 C378 C 0.75236 0.40184 0.57499
 H379 H 0.90406 0.51381 0.67243
 H380 H 0.76312 0.35083 0.58545
 H381 H 0.91573 0.43532 0.67122
 H382 H 0.76076 0.43467 0.57956
 C383 C 0.42934 0.49692 0.69108
 C384 C 0.44838 0.53671 0.67748
 C385 C 0.43186 0.54635 0.65103
 N386 N 0.45193 0.58459 0.63725
 N387 N 0.43743 0.59333 0.61309
 C388 C 0.40233 0.56411 0.60177
 N389 N 0.38228 0.52592 0.61557
 N390 N 0.39678 0.51718 0.63969
 C391 C 0.38546 0.57340 0.57542
 C392 C 0.40444 0.61236 0.56069
 H393 H 0.47651 0.56077 0.68572
 H394 H 0.35679 0.54939 0.56808
 H395 H 0.40156 0.47277 0.68232
 H396 H 0.43297 0.63644 0.56825
 C397 C 0.44887 0.91685 0.69344
 C398 C 0.46642 0.89781 0.67736
 C399 C 0.44548 0.86740 0.65295
 N400 N 0.46461 0.85424 0.63438
 N401 N 0.44590 0.82724 0.61203
 C402 C 0.40734 0.81228 0.60747
 N403 N 0.38819 0.82519 0.62617
 N404 N 0.40691 0.85229 0.64842
 C405 C 0.38607 0.78222 0.58305
 C406 C 0.40493 0.77141 0.56128
 H407 H 0.49621 0.90621 0.68201
 H408 H 0.35477 0.76837 0.58220
 H409 H 0.41952 0.90903 0.68757
 H410 H 0.43631 0.78608 0.56180
 C411 C 0.08543 0.57200 0.67686
 C412 C 0.10621 0.55165 0.66903
 C413 C 0.13824 0.57065 0.64721
 N414 N 0.15900 0.55114 0.64051
 N415 N 0.18787 0.56813 0.62061
 C416 C 0.19704 0.60528 0.60675
 N417 N 0.17635 0.62478 0.61351
 N418 N 0.14755 0.60783 0.63339
 C419 C 0.22760 0.62372 0.58383
 C420 C 0.24938 0.60487 0.57535
 H421 H 0.09936 0.52169 0.67929
 H422 H 0.23177 0.65198 0.57236
 H423 H 0.09309 0.60220 0.66656
 H424 H 0.24555 0.57686 0.58698
 C425 C 0.41151 0.48072 0.81571
 C426 C 0.42508 0.52015 0.82963
 C427 C 0.40239 0.52945 0.85150
 N428 N 0.41883 0.56847 0.86441
 N429 N 0.39926 0.57793 0.88438
 C430 C 0.36236 0.54877 0.89221
 N431 N 0.34576 0.50970 0.87919
 N432 N 0.36540 0.50018 0.85918
 C433 C 0.34099 0.55890 0.91492
 C434 C 0.35898 0.59733 0.93063
 H435 H 0.45397 0.54577 0.82435
 H436 H 0.31135 0.53517 0.92023
 H437 H 0.38275 0.45475 0.82083
 H438 H 0.38900 0.62030 0.92572
 C439 C 0.08193 0.58340 0.80049
 C440 C 0.09559 0.55982 0.81566
 C441 C 0.12099 0.57528 0.84198
 N442 N 0.13066 0.54873 0.85602
 N443 N 0.15312 0.56141 0.88026
 C444 C 0.16677 0.60118 0.89141
 N445 N 0.15720 0.62787 0.87734
 N446 N 0.13462 0.61514 0.85306
 C447 C 0.19185 0.61545 0.91805
 C448 C 0.20130 0.58838 0.93347
 H449 H 0.08625 0.52755 0.80854
 H450 H 0.20350 0.64804 0.92540
 H451 H 0.09087 0.61566 0.80731
 H452 H 0.18939 0.55572 0.92617
 C453 C 0.45944 0.91029 0.81819
 C454 C 0.42429 0.89615 0.83320
 C455 C 0.41170 0.86305 0.85645
 N456 N 0.37857 0.85106 0.87228
 N457 N 0.36744 0.82139 0.89348
 C458 C 0.38903 0.80263 0.89957
 N459 N 0.42202 0.81455 0.88368
 N460 N 0.43315 0.84417 0.86257
 C461 C 0.37759 0.76989 0.92283
 C462 C 0.34480 0.75683 0.94079
 H463 H 0.40612 0.90988 0.82819
 H464 H 0.39582 0.75574 0.92592
 H465 H 0.47757 0.89672 0.82379
 H466 H 0.32660 0.77105 0.93787
 C467 C 0.51788 0.41868 0.81724
 C468 C 0.55330 0.44392 0.83162
 C469 C 0.56936 0.42619 0.85343
 N470 N 0.60449 0.45173 0.86620
 N471 N 0.61932 0.43619 0.88599
 C472 C 0.59961 0.39447 0.89377
 N473 N 0.56448 0.36891 0.88097
 N474 N 0.54966 0.38444 0.86115
 C475 C 0.61523 0.37713 0.91627
 C476 C 0.65078 0.40264 0.93042
 H477 H 0.57002 0.47749 0.82648
 H478 H 0.59773 0.34407 0.92260
 H479 H 0.50152 0.38501 0.82213
 H480 H 0.66795 0.43573 0.92407
 C481 C 0.92350 0.49608 0.79811
 C482 C 0.91357 0.46232 0.81754
 C483 C 0.88630 0.45380 0.84239
 N484 N 0.88043 0.42397 0.86314
 N485 N 0.85659 0.41692 0.88619
 C486 C 0.83777 0.43946 0.88932
 N487 N 0.84345 0.46909 0.86848
 N488 N 0.86734 0.47619 0.84547
 C489 C 0.81142 0.43208 0.91461
 C490 C 0.80618 0.40340 0.93721
 H491 H 0.92733 0.44304 0.81536
 H492 H 0.79560 0.44932 0.91527
 H493 H 0.91044 0.51598 0.80096
 H494 H 0.82221 0.38638 0.93652
 C495 C 0.54173 0.08505 0.82124
 C496 C 0.57793 0.09983 0.83467
 C497 C 0.59057 0.13087 0.85952
 N498 N 0.62688 0.14753 0.87116
 N499 N 0.63830 0.17573 0.89353
 C500 C 0.61375 0.18816 0.90512
 N501 N 0.57746 0.17136 0.89357
 N502 N 0.56611 0.14332 0.87122
 C503 C 0.62555 0.21946 0.92962
 C504 C 0.66309 0.24044 0.94135
 H505 H 0.59721 0.08870 0.82684
 H506 H 0.60401 0.22688 0.93820
 H507 H 0.52305 0.09703 0.82901
 H508 H 0.68490 0.23365 0.93247
   
