data_POSCAR
  _audit_creation_date              2014-09-24
  _audit_creation_method            'ToBaCCo'
  _symmetry_space_group_name_H-M    'P1'
  _symmetry_Int_Tables_number       1
  _symmetry_cell_setting            triclinic
  loop_
  _symmetry_equiv_pos_as_xyz
 x,y,z
_cell_length_a 37.8819
_cell_length_b 38.2515
_cell_length_c 8.6144
_cell_angle_alpha 90.358000
_cell_angle_beta 90.000700
_cell_angle_gamma 90.071400
loop_
  _atom_site_label
  _atom_site_type_symbol
  _atom_site_fract_x
  _atom_site_fract_y
  _atom_site_fract_z
O1 O 0.22203 0.28298 0.09018
 O2 O 0.28911 0.21523 0.15878
 O3 O 0.22190 0.21510 0.09140
 O4 O 0.28915 0.28314 0.15802
 O5 O 0.27687 0.28363 0.40822
 O6 O 0.20968 0.21557 0.34141
 O7 O 0.27688 0.21576 0.40902
 O8 O 0.20975 0.28348 0.34039
 Cu9 Cu 0.25689 0.24904 0.09999
 Cu10 Cu 0.24195 0.24965 0.39936
 C11 C 0.20418 0.29467 0.20404
 C12 C 0.29475 0.20411 0.29516
 C13 C 0.20393 0.20383 0.20534
 C14 C 0.29474 0.29486 0.29411
 O15 O 0.78928 0.28348 0.34002
 O16 O 0.72201 0.21571 0.40815
 O17 O 0.78923 0.21556 0.34078
 O18 O 0.72217 0.28358 0.40785
 O19 O 0.70989 0.28315 0.15764
 O20 O 0.77699 0.21515 0.09055
 O21 O 0.70979 0.21524 0.15814
 O22 O 0.77701 0.28303 0.08981
 Cu23 Cu 0.75702 0.24961 0.39880
 Cu24 Cu 0.74208 0.24908 0.09943
 C25 C 0.79488 0.29470 0.20373
 C26 C 0.70403 0.20403 0.29442
 C27 C 0.79486 0.20392 0.20461
 C28 C 0.70432 0.29484 0.29379
 O29 O 0.79009 0.71630 0.65988
 O30 O 0.72328 0.78430 0.59068
 O31 O 0.79049 0.78420 0.65826
 O32 O 0.72298 0.71642 0.59208
 O33 O 0.71070 0.71708 0.84228
 O34 O 0.77827 0.78484 0.90826
 O35 O 0.71106 0.78500 0.84092
 O36 O 0.77782 0.71698 0.91009
 Cu37 Cu 0.75805 0.75025 0.60062
 Cu38 Cu 0.74312 0.75106 0.89999
 C39 C 0.79562 0.70516 0.79633
 C40 C 0.70547 0.79609 0.70445
 C41 C 0.79629 0.79596 0.79424
 C42 C 0.70506 0.70531 0.70630
 O43 O 0.28937 0.78492 0.84154
 O44 O 0.22232 0.71700 0.91061
 O45 O 0.28945 0.71701 0.84280
 O46 O 0.22216 0.78488 0.90887
 O47 O 0.20994 0.78428 0.65887
 O48 O 0.27716 0.71639 0.59260
 O49 O 0.21005 0.71636 0.66040
 O50 O 0.27714 0.78426 0.59130
 Cu51 Cu 0.25716 0.75104 0.90056
 Cu52 Cu 0.24223 0.75027 0.60119
 C53 C 0.29501 0.79601 0.70507
 C54 C 0.20448 0.70521 0.79683
 C55 C 0.29504 0.70525 0.70680
 C56 C 0.20418 0.79604 0.79485
 C57 C 0.96832 -0.07307 -0.06629
 C58 C 1.00043 -0.09062 -0.08204
 C59 C 1.03253 -0.07296 -0.06604
 C60 C 1.03285 -0.03673 -0.03315
 C61 C 1.00039 -0.01861 -0.01687
 C62 C 0.96795 -0.03684 -0.03342
 C63 C 0.93608 -0.01837 -0.01695
 C64 C 0.93605 0.01735 0.01519
 C65 C 0.96789 0.03594 0.03193
 C66 C 1.00036 0.01782 0.01567
 C67 C 1.06469 -0.01815 -0.01640
 C68 C 1.06467 0.01758 0.01576
 C69 C 1.03280 0.03605 0.03223
 C70 C 1.03242 0.07228 0.06510
 C71 C 1.00030 0.08983 0.08081
 C72 C 0.96821 0.07217 0.06478
 H73 H 0.91084 -0.03143 -0.02874
 H74 H 0.91079 0.03032 0.02675
 H75 H 1.08995 -0.03111 -0.02798
 H76 H 1.08991 0.03064 0.02756
 H77 H 1.00045 -0.11844 -0.10794
 H78 H 1.00027 0.11765 0.10668
 C79 C 0.53199 0.57274 0.56737
 C80 C 0.49991 0.59033 0.58351
 C81 C 0.46779 0.57273 0.56743
 C82 C 0.46739 0.53652 0.53410
 C83 C 0.49983 0.51836 0.51742
 C84 C 0.53230 0.53653 0.53405
 C85 C 0.56413 0.51802 0.51716
 C86 C 0.56409 0.48231 0.48452
 C87 C 0.53221 0.46380 0.46767
 C88 C 0.49978 0.48196 0.48435
 C89 C 0.43552 0.51801 0.51725
 C90 C 0.43547 0.48230 0.48459
 C91 C 0.46731 0.46379 0.46770
 C92 C 0.46761 0.42759 0.43434
 C93 C 0.49969 0.41000 0.41821
 C94 C 0.53182 0.42759 0.43432
 H95 H 0.58940 0.53103 0.52900
 H96 H 0.58932 0.46931 0.47264
 H97 H 0.41028 0.53101 0.52914
 H98 H 0.41021 0.46930 0.47273
 H99 H 0.49995 0.61813 0.60966
 H100 H 0.49966 0.38219 0.39201
 C101 C 0.03200 0.57241 -0.06192
 C102 C -0.00009 0.59000 -0.07713
 C103 C -0.03222 0.57240 -0.06197
 C104 C -0.03261 0.53620 -0.03047
 C105 C -0.00017 0.51804 -0.01473
 C106 C 0.03230 0.53621 -0.03042
 C107 C 0.06413 0.51770 -0.01453
 C108 C 0.06409 0.48199 0.01623
 C109 C 0.03222 0.46348 0.03209
 C110 C -0.00022 0.48164 0.01637
 C111 C -0.06448 0.51769 -0.01461
 C112 C -0.06453 0.48198 0.01617
 C113 C -0.03270 0.46347 0.03207
 C114 C -0.03239 0.42727 0.06355
 C115 C -0.00031 0.40968 0.07873
 C116 C 0.03182 0.42727 0.06356
 H117 H 0.08940 0.53070 -0.02570
 H118 H 0.08933 0.46899 0.02742
 H119 H -0.08972 0.53069 -0.02581
 H120 H -0.08979 0.46898 0.02734
 H121 H -0.00006 0.61778 -0.10204
 H122 H -0.00034 0.38189 0.10359
 C123 C 0.46831 0.92781 0.56314
 C124 C 0.50043 0.91028 0.57839
 C125 C 0.53253 0.92792 0.56289
 C126 C 0.53285 0.96411 0.53101
 C127 C 0.50038 0.98221 0.51524
 C128 C 0.46794 0.96400 0.53128
 C129 C 0.43608 0.98245 0.51534
 C130 C 0.43605 1.01813 0.48420
 C131 C 0.46789 1.03669 0.46799
 C132 C 0.50036 1.01859 0.48375
 C133 C 0.56469 0.98267 0.51480
 C134 C 0.56467 1.01835 0.48364
 C135 C 0.53280 1.03680 0.46769
 C136 C 0.53242 1.07299 0.43578
 C137 C 0.50030 1.09052 0.42056
 C138 C 0.46821 1.07288 0.43609
 H139 H 0.41083 0.96941 0.52675
 H140 H 0.41079 1.03108 0.47299
 H141 H 0.58995 0.96972 0.52601
 H142 H 0.58991 1.03139 0.47220
 H143 H 0.50045 0.88250 0.60357
 H144 H 0.50028 1.11829 0.39534
 C145 C 1.12079 0.13195 0.13092
 C146 C 1.14132 0.14318 0.00573
 C147 C 1.16936 0.16640 0.03029
 C148 C 1.17717 0.17890 0.18091
 C149 C 1.15671 0.16670 0.30632
 C150 C 1.12877 0.14348 0.28120
 C151 C 1.09046 0.11000 0.10516
 C152 C 1.06440 0.09240 0.08582
 H153 H 1.13529 0.13446 -0.11121
 H154 H 1.18443 0.17502 -0.06930
 H155 H 1.16182 0.17549 0.42399
 H156 H 1.11299 0.13499 0.37890
 C157 C 0.62045 0.63232 0.63193
 C158 C 0.62906 0.64327 0.78249
 C159 C 0.65706 0.66645 0.80699
 C160 C 0.67686 0.67906 0.68086
 C161 C 0.66847 0.66734 0.53007
 C162 C 0.64039 0.64415 0.50588
 C163 C 0.59009 0.61039 0.60685
 C164 C 0.56400 0.59281 0.58786
 H165 H 0.61372 0.63436 0.88083
 H166 H 0.66283 0.67492 0.92448
 H167 H 0.68316 0.67658 0.43056
 H168 H 0.63386 0.63593 0.38875
 C169 C -0.12077 0.36771 0.12784
 C170 C -0.12943 0.35741 0.27865
 C171 C -0.15736 0.33423 0.30358
 C172 C -0.17702 0.32096 0.17766
 C173 C -0.16858 0.33203 0.02659
 C174 C -0.14058 0.35523 0.00196
 C175 C -0.09046 0.38964 0.10250
 C176 C -0.06440 0.40722 0.08360
 H177 H -0.11421 0.36683 0.37687
 H178 H -0.16317 0.32627 0.42129
 H179 H -0.18317 0.32228 -0.07278
 H180 H -0.13400 0.36294 -0.11536
 C181 C 0.37976 0.86850 0.62819
 C182 C 0.35993 0.85599 0.50243
 C183 C 0.33177 0.83300 0.52738
 C184 C 0.32320 0.82216 0.67865
 C185 C 0.34288 0.83547 0.80442
 C186 C 0.37096 0.85845 0.77917
 C187 C 0.41019 0.89026 0.60260
 C188 C 0.43631 0.90775 0.58349
 H189 H 0.36661 0.86353 0.38499
 H190 H 0.31717 0.82320 0.42811
 H191 H 0.33697 0.82769 0.92226
 H192 H 0.38619 0.86791 0.87731
 C193 C -0.12041 0.63198 -0.12681
 C194 C -0.12906 0.64216 -0.27777
 C195 C -0.15687 0.66539 -0.30301
 C196 C -0.17643 0.67883 -0.17725
 C197 C -0.16802 0.66787 -0.02601
 C198 C -0.14013 0.64463 -0.00107
 C199 C -0.09018 0.61003 -0.10119
 C200 C -0.06417 0.59245 -0.08214
 H201 H -0.11389 0.63262 -0.37588
 H202 H -0.16266 0.67326 -0.42083
 H203 H -0.18254 0.67775 0.07325
 H204 H -0.13356 0.63701 0.11637
 C205 C 0.37958 1.13187 0.37154
 C206 C 0.35974 1.14428 0.49739
 C207 C 0.33155 1.16718 0.47260
 C208 C 0.32296 1.17804 0.32141
 C209 C 0.34265 1.16483 0.19554
 C210 C 0.37075 1.14194 0.22062
 C211 C 0.41004 1.11022 0.39697
 C212 C 0.43618 1.09282 0.41593
 H213 H 0.36643 1.13674 0.61478
 H214 H 0.31696 1.17690 0.57194
 H215 H 0.33673 1.17262 0.07774
 H216 H 0.38599 1.13256 0.12242
 C217 C 1.12098 -0.13233 -0.13131
 C218 C 1.12897 -0.14388 -0.28150
 C219 C 1.15694 -0.16701 -0.30644
 C220 C 1.17740 -0.17910 -0.18093
 C221 C 1.16958 -0.16657 -0.03040
 C222 C 1.14151 -0.14344 -0.00603
 C223 C 1.09063 -0.11047 -0.10573
 C224 C 1.06454 -0.09296 -0.08654
 H225 H 1.11318 -0.13548 -0.37928
 H226 H 1.16206 -0.17583 -0.42404
 H227 H 1.18465 -0.17510 0.06926
 H228 H 1.13547 -0.13469 0.11086
 C229 C 0.62009 0.36799 0.36918
 C230 C 0.62867 0.35716 0.21845
 C231 C 0.65657 0.33393 0.19364
 C232 C 0.67627 0.32116 0.31960
 C233 C 0.66792 0.33277 0.47056
 C234 C 0.63995 0.35600 0.49507
 C235 C 0.58981 0.38994 0.39454
 C236 C 0.56377 0.40753 0.41370
 H237 H 0.61340 0.36620 0.12023
 H238 H 0.66231 0.32555 0.07602
 H239 H 0.68255 0.32340 0.56996
 H240 H 0.63343 0.36413 0.61232
 C241 C 0.87982 -0.13257 -0.13186
 C242 C 0.85922 -0.14364 -0.00660
 C243 C 0.83106 -0.16672 -0.03100
 C244 C 0.82319 -0.17924 -0.18153
 C245 C 0.84373 -0.16721 -0.30701
 C246 C 0.87179 -0.14413 -0.28205
 C247 C 0.91022 -0.11072 -0.10626
 C248 C 0.93633 -0.09317 -0.08699
 H249 H 0.86528 -0.13488 0.11027
 H250 H 0.81593 -0.17521 0.06864
 H251 H 0.83858 -0.17602 -0.42461
 H252 H 0.88763 -0.13576 -0.37981
 C253 C 0.37917 0.36800 0.36927
 C254 C 0.37057 0.35715 0.21857
 C255 C 0.34260 0.33393 0.19383
 C256 C 0.32286 0.32119 0.31982
 C257 C 0.33123 0.33283 0.47075
 C258 C 0.35928 0.35605 0.49520
 C259 C 0.40952 0.38994 0.39459
 C260 C 0.43561 0.40752 0.41372
 H261 H 0.38587 0.36616 0.12034
 H262 H 0.33684 0.32553 0.07624
 H263 H 0.31658 0.32349 0.57017
 H264 H 0.36581 0.36420 0.61242
 C265 C 0.12032 0.63203 -0.12654
 C266 C 0.12898 0.64225 -0.27747
 C267 C 0.15685 0.66549 -0.30263
 C268 C 0.17645 0.67889 -0.17683
 C269 C 0.16802 0.66790 -0.02563
 C270 C 0.14007 0.64465 -0.00076
 C271 C 0.09005 0.61006 -0.10101
 C272 C 0.06400 0.59247 -0.08202
 H273 H 0.11379 0.63272 -0.37561
 H274 H 0.16265 0.67338 -0.42042
 H275 H 0.18257 0.67776 0.07365
 H276 H 0.13350 0.63700 0.11664
 C277 C 0.62081 1.13248 0.36992
 C278 C 0.62882 1.14345 0.21947
 C279 C 0.65679 1.16655 0.19403
 C280 C 0.67724 1.17920 0.31927
 C281 C 0.66940 1.16727 0.47008
 C282 C 0.64133 1.14416 0.49497
 C283 C 0.59048 1.11061 0.39589
 C284 C 0.56441 1.09306 0.41524
 H285 H 0.61305 1.13460 0.12186
 H286 H 0.66192 1.17490 0.07621
 H287 H 0.68446 1.17625 0.56955
 H288 H 0.63528 1.13587 0.61204
 C289 C 0.12004 0.36770 0.12793
 C290 C 0.13980 0.35517 0.00207
 C291 C 0.16773 0.33197 0.02677
 C292 C 0.17615 0.32093 0.17788
 C293 C 0.15653 0.33423 0.30376
 C294 C 0.12868 0.35742 0.27877
 C295 C 0.08980 0.38964 0.10254
 C296 C 0.06378 0.40722 0.08362
 H297 H 0.13324 0.36287 -0.11527
 H298 H 0.18229 0.32219 -0.07257
 H299 H 0.16232 0.32629 0.42150
 H300 H 0.11348 0.36687 0.37697
 C301 C 0.62103 0.86875 0.62761
 C302 C 0.62983 0.85871 0.77861
 C303 C 0.65781 0.83569 0.80383
 C304 C 0.67740 0.82231 0.67803
 C305 C 0.66885 0.83313 0.52675
 C306 C 0.64078 0.85617 0.50183
 C307 C 0.59065 0.89050 0.60207
 C308 C 0.56454 0.90795 0.58306
 H309 H 0.61465 0.86821 0.87677
 H310 H 0.66371 0.82792 0.92168
 H311 H 0.68337 0.82328 0.42746
 H312 H 0.63410 0.86368 0.38437
 C313 C 0.87960 0.13135 0.12931
 C314 C 0.85974 0.14328 0.00333
 C315 C 0.83157 0.16629 0.02780
 C316 C 0.82304 0.17773 0.17881
 C317 C 0.84275 0.16500 0.30484
 C318 C 0.87083 0.14200 0.28007
 C319 C 0.91005 0.10961 0.10408
 C320 C 0.93619 0.09216 0.08512
 H321 H 0.86639 0.13528 -0.11395
 H322 H 0.81695 0.17563 -0.07166
 H323 H 0.83687 0.17326 0.42250
 H324 H 0.88610 0.13300 0.37837
 C325 C 0.37946 0.63227 0.63221
 C326 C 0.35955 0.64412 0.50620
 C327 C 0.33152 0.66730 0.53046
 C328 C 0.32316 0.67899 0.68129
 C329 C 0.34292 0.66635 0.80738
 C330 C 0.37087 0.64318 0.78281
 C331 C 0.40977 0.61036 0.60705
 C332 C 0.43583 0.59279 0.58799
 H333 H 0.36607 0.63592 0.38904
 H334 H 0.31686 0.67655 0.43097
 H335 H 0.33717 0.67480 0.92490
 H336 H 0.38618 0.63425 0.88111
   
