data_POSCAR
  _audit_creation_date              2014-09-24
  _audit_creation_method            'ToBaCCo'
  _symmetry_space_group_name_H-M    'P1'
  _symmetry_Int_Tables_number       1
  _symmetry_cell_setting            triclinic
  loop_
  _symmetry_equiv_pos_as_xyz
 x,y,z
_cell_length_a 28.2626
_cell_length_b 27.6174
_cell_length_c 41.1174
_cell_angle_alpha 86.917500
_cell_angle_beta 95.501000
_cell_angle_gamma 94.057300
loop_
  _atom_site_label
  _atom_site_type_symbol
  _atom_site_fract_x
  _atom_site_fract_y
  _atom_site_fract_z
O1 O -0.01055 0.44912 1.03061
 O2 O 0.00418 0.54847 0.96796
 O3 O -0.00724 0.45420 0.96747
 O4 O -0.00105 0.54386 1.03090
 O5 O 0.07716 0.54088 1.03802
 O6 O 0.07071 0.44924 0.97541
 O7 O 0.08218 0.54386 0.97520
 O8 O 0.06766 0.44651 1.03867
 Cu9 Cu -0.01151 0.49927 0.99851
 Cu10 Cu 0.08226 0.49466 1.00754
 C11 C 0.02621 0.43106 1.04536
 C12 C 0.04583 0.56313 0.96094
 C13 C 0.03054 0.43629 0.96072
 C14 C 0.03907 0.55796 1.04510
 O15 O 0.44667 -0.05075 0.47148
 O16 O 0.54540 -0.04069 0.53632
 O17 O 0.45326 -0.04953 0.53514
 O18 O 0.53924 -0.04043 0.47261
 O19 O 0.53612 0.03938 0.46963
 O20 O 0.45024 0.03031 0.53171
 O21 O 0.54320 0.03920 0.53317
 O22 O 0.44354 0.02907 0.46853
 Cu23 Cu 0.49645 -0.05337 0.50414
 Cu24 Cu 0.49307 0.04252 0.50048
 C25 C 0.42801 -0.01269 0.45916
 C26 C 0.56127 0.00085 0.54577
 C27 C 0.43689 -0.01108 0.54386
 C28 C 0.55236 0.00115 0.46055
 C29 C 0.05825 -0.00739 0.26672
 H30 H 0.05817 -0.00843 0.24045
 C31 C 0.10118 0.00075 0.28605
 H32 H 0.13388 0.00641 0.27429
 C33 C 0.01505 -0.01113 0.31351
 H34 H -0.01861 -0.01480 0.32409
 C35 C 0.05710 -0.00272 0.33373
 H36 H 0.05546 -0.00068 0.35983
 N37 N 0.01641 -0.01402 0.28069
 C38 C -0.07796 -0.09440 0.20900
 H39 H -0.10818 -0.07208 0.20637
 C40 C -0.07867 -0.13578 0.19085
 H41 H -0.10955 -0.14507 0.17411
 C42 C -0.00117 -0.10952 0.23421
 H43 H 0.02858 -0.09981 0.25164
 C44 C -0.00040 -0.15126 0.21658
 H45 H 0.03004 -0.17310 0.22103
 Zn46 Zn -0.04024 -0.02392 0.25258
 N47 N -0.03913 -0.08146 0.22961
 C48 C -0.04760 0.02712 0.19021
 N49 N -0.04375 0.03118 0.22317
 C50 C -0.04033 0.07539 0.23652
 C51 C -0.04086 0.11791 0.21656
 C52 C -0.04871 0.06865 0.16929
 C53 C -0.09735 -0.06830 0.29929
 C54 C -0.13595 -0.07425 0.31825
 C55 C -0.16838 -0.00346 0.28977
 C56 C -0.12892 0.00127 0.27155
 N57 N -0.09408 -0.03047 0.27692
 H58 H -0.04934 -0.00822 0.17999
 H59 H -0.03706 0.07754 0.26284
 H60 H -0.03882 0.15207 0.22836
 H61 H -0.05173 0.06444 0.14310
 H62 H -0.06951 -0.09354 0.30267
 H63 H -0.13726 -0.10430 0.33628
 H64 H -0.19475 0.02296 0.28462
 H65 H -0.12628 0.03039 0.25307
 C66 C -0.03919 -0.16428 0.19402
 C67 C 0.10090 0.00260 0.32012
 C68 C -0.17219 -0.04146 0.31396
 C69 C -0.04471 0.11502 0.18224
 C70 C 0.03938 0.11166 0.76216
 H71 H 0.03628 0.11932 0.73598
 C72 C 0.04841 0.14970 0.78339
 H73 H 0.05308 0.18644 0.77317
 C74 C 0.03796 0.05395 0.80690
 H75 H 0.03308 0.01670 0.81600
 C76 C 0.04710 0.09088 0.82901
 H77 H 0.04960 0.08162 0.85503
 N78 N 0.03452 0.06491 0.77414
 C79 C 0.06445 -0.01550 0.69089
 H80 H 0.03153 -0.03774 0.68694
 C81 C 0.09991 -0.01723 0.66966
 H82 H 0.09412 -0.04070 0.64918
 C83 C 0.11200 0.04243 0.72231
 H84 H 0.11662 0.06548 0.74295
 C85 C 0.14885 0.04097 0.70212
 H86 H 0.18122 0.06381 0.70700
 Zn87 Zn 0.02042 0.01616 0.74340
 N88 N 0.07058 0.01487 0.71614
 C89 C -0.03770 0.04331 0.68582
 N90 N -0.03707 0.03121 0.71834
 C91 C -0.07725 0.03108 0.73407
 C92 C -0.12094 0.03989 0.71663
 C93 C -0.08043 0.05303 0.66748
 C94 C 0.05329 -0.06175 0.78311
 C95 C 0.05138 -0.10665 0.80041
 C96 C -0.03110 -0.11923 0.77938
 C97 C -0.02744 -0.07419 0.76236
 N98 N 0.01406 -0.04602 0.76504
 H99 H -0.00513 0.04554 0.67394
 H100 H -0.07545 0.02323 0.76021
 H101 H -0.15193 0.03912 0.73015
 H102 H -0.08007 0.06175 0.64149
 H103 H 0.08605 -0.03886 0.78449
 H104 H 0.08314 -0.11672 0.81518
 H105 H -0.06479 -0.14067 0.77720
 H106 H -0.05789 -0.06193 0.74709
 C107 C 0.14275 0.01105 0.67528
 C108 C 0.05187 0.13947 0.81737
 C109 C 0.00848 -0.13620 0.79891
 C110 C -0.12319 0.05004 0.68255
 C111 C 0.04201 -0.40505 0.06978
 C112 C 0.00138 -0.38546 0.07905
 C113 C 0.00260 -0.34618 0.10235
 C114 C -0.03898 -0.33878 0.11701
 C115 C -0.03996 -0.30109 0.13827
 C116 C 0.00063 -0.26943 0.14493
 C117 C 0.04237 -0.27717 0.13055
 C118 C 0.04338 -0.31489 0.10933
 C119 C 0.00109 -0.22836 0.16676
 C120 C -0.04008 -0.20727 0.17383
 H121 H -0.03326 -0.40014 0.06911
 H122 H -0.07085 -0.36241 0.11210
 H123 H -0.07243 -0.29737 0.14957
 H124 H 0.07416 -0.25336 0.13529
 H125 H 0.07580 -0.31847 0.09797
 H126 H 0.03553 -0.21197 0.17551
 H127 H 0.07698 -0.39342 0.08077
 H128 H -0.07422 -0.22014 0.16214
 C129 C 0.02156 0.39186 0.07066
 C130 C -0.02168 0.36600 0.07520
 C131 C -0.02554 0.32532 0.09988
 C132 C -0.05907 0.28622 0.09365
 C133 C -0.06227 0.24653 0.11613
 C134 C -0.03233 0.24568 0.14550
 C135 C -0.00023 0.28571 0.15231
 C136 C 0.00342 0.32504 0.12966
 C137 C -0.03423 0.20413 0.16968
 C138 C -0.04456 0.15616 0.16045
 H139 H -0.05277 0.37340 0.05861
 H140 H -0.08227 0.28604 0.07109
 H141 H -0.08848 0.21691 0.11064
 H142 H 0.02264 0.28622 0.17501
 H143 H 0.02856 0.35536 0.13566
 H144 H -0.02255 0.21176 0.19477
 H145 H 0.05374 0.38154 0.08502
 H146 H -0.05049 0.15009 0.13451
 C147 C 0.40188 -0.01480 0.56823
 C148 C 0.37203 0.02252 0.57112
 C149 C 0.33522 0.01931 0.59443
 C150 C 0.29242 0.04149 0.58566
 C151 C 0.25707 0.03955 0.60731
 C152 C 0.26441 0.01625 0.63843
 C153 C 0.30772 -0.00485 0.64755
 C154 C 0.34269 -0.00387 0.62560
 C155 C 0.22811 0.01524 0.66203
 C156 C 0.17949 0.01035 0.65215
 H157 H 0.37329 0.05375 0.55402
 H158 H 0.28622 0.06007 0.56191
 H159 H 0.22446 0.05720 0.59996
 H160 H 0.31430 -0.02243 0.67160
 H161 H 0.37589 -0.02024 0.63327
 H162 H 0.23994 0.01553 0.68787
 H163 H 0.39755 -0.04849 0.58269
 H164 H 0.16794 0.00315 0.62688
 C165 C -0.40102 0.00346 0.57018
 C166 C -0.37823 0.04732 0.58039
 C167 C -0.33683 0.04857 0.60525
 C168 C -0.29957 0.08439 0.60225
 C169 C -0.25879 0.08447 0.62441
 C170 C -0.25506 0.04911 0.65028
 C171 C -0.29341 0.01490 0.65424
 C172 C -0.33380 0.01433 0.63180
 C173 C -0.21165 0.04669 0.67326
 C174 C -0.16606 0.05683 0.66292
 H175 H -0.38816 0.08122 0.56796
 H176 H -0.30152 0.11157 0.58225
 H177 H -0.23033 0.11221 0.62132
 H178 H -0.29160 -0.01223 0.67427
 H179 H -0.36265 -0.01282 0.63530
 H180 H -0.21612 0.03072 0.69743
 H181 H -0.38786 -0.03040 0.58068
 H182 H -0.16368 0.06729 0.63731
 C183 C 0.05258 -0.39902 0.93768
 C184 C 0.01485 -0.37496 0.92106
 C185 C 0.02154 -0.33252 0.89787
 C186 C -0.01616 -0.30213 0.89034
 C187 C -0.01093 -0.26076 0.86952
 C188 C 0.03217 -0.24918 0.85549
 C189 C 0.06962 -0.27989 0.86261
 C190 C 0.06433 -0.32136 0.88329
 C191 C 0.04012 -0.20427 0.83484
 C192 C 0.00308 -0.18107 0.81659
 H193 H -0.02120 -0.38585 0.92664
 H194 H -0.04950 -0.30983 0.90118
 H195 H -0.04019 -0.23730 0.86531
 H196 H 0.10314 -0.27179 0.85206
 H197 H 0.09383 -0.34443 0.88748
 H198 H 0.07670 -0.19089 0.83326
 H199 H 0.08891 -0.38742 0.93346
 H200 H -0.03221 -0.19931 0.81559
 C201 C 0.02689 0.40021 0.93545
 C202 C 0.06544 0.37458 0.92892
 C203 C 0.06136 0.33727 0.90409
 C204 C 0.09213 0.29926 0.90783
 C205 C 0.08835 0.26280 0.88521
 C206 C 0.05381 0.26398 0.85821
 C207 C 0.02429 0.30300 0.85382
 C208 C 0.02786 0.33923 0.87653
 C209 C 0.04808 0.22589 0.83388
 C210 C 0.06061 0.17821 0.84117
 H211 H 0.09895 0.37988 0.94385
 H212 H 0.11880 0.29746 0.92855
 H213 H 0.11285 0.23421 0.88878
 H214 H -0.00200 0.30522 0.83290
 H215 H 0.00473 0.36893 0.87217
 H216 H 0.02963 0.23486 0.81027
 H217 H -0.00782 0.39243 0.92259
 H218 H 0.07373 0.16773 0.86596
 C219 C -0.41305 0.00602 0.43587
 C220 C -0.39349 -0.03400 0.42423
 C221 C -0.35733 -0.02982 0.40016
 C222 C -0.32995 -0.06951 0.39707
 C223 C -0.29476 -0.06675 0.37520
 C224 C -0.28610 -0.02392 0.35591
 C225 C -0.31462 0.01512 0.35823
 C226 C -0.34985 0.01230 0.38000
 C227 C -0.24850 -0.01829 0.33286
 C228 C -0.20994 -0.04788 0.33421
 H229 H -0.40354 -0.06992 0.43428
 H230 H -0.33557 -0.10273 0.41184
 H231 H -0.27506 -0.09847 0.37342
 H232 H -0.30942 0.04823 0.34327
 H233 H -0.37126 0.04309 0.38053
 H234 H -0.25087 0.01217 0.31536
 H235 H -0.40199 0.04249 0.42757
 H236 H -0.20804 -0.07721 0.35269
 C237 C 0.38768 -0.01776 0.43394
 C238 C 0.36028 0.02106 0.42314
 C239 C 0.31735 0.01566 0.39968
 C240 C 0.28088 0.04732 0.40071
 C241 C 0.23923 0.04239 0.37956
 C242 C 0.23349 0.00583 0.35671
 C243 C 0.27074 -0.02460 0.35482
 C244 C 0.31220 -0.01994 0.37616
 C245 C 0.18972 -0.00091 0.33418
 C246 C 0.14514 0.01131 0.34192
 H247 H 0.36843 0.05581 0.43414
 H248 H 0.28437 0.07556 0.41825
 H249 H 0.21195 0.06759 0.38093
 H250 H 0.26750 -0.05247 0.33703
 H251 H 0.34027 -0.04389 0.37390
 H252 H 0.19219 -0.01971 0.31203
 H253 H 0.37775 -0.05370 0.42526
 H254 H 0.14178 0.02443 0.36588
   
