data_POSCAR
  _audit_creation_date              2014-09-24
  _audit_creation_method            'ToBaCCo'
  _symmetry_space_group_name_H-M    'P1'
  _symmetry_Int_Tables_number       1
  _symmetry_cell_setting            triclinic
  loop_
  _symmetry_equiv_pos_as_xyz
 x,y,z
_cell_length_a 45.0032
_cell_length_b 45.6885
_cell_length_c 45.2138
_cell_angle_alpha 90.140800
_cell_angle_beta 90.162800
_cell_angle_gamma 89.603300
loop_
  _atom_site_label
  _atom_site_type_symbol
  _atom_site_fract_x
  _atom_site_fract_y
  _atom_site_fract_z
C1 C 0.33974 0.33656 1.38078
 C2 C 0.31474 0.34925 1.39445
 C3 C 0.30310 0.37652 1.38491
 C4 C 0.31797 0.39103 1.36172
 C5 C 0.34268 0.37847 1.34775
 C6 C 0.35368 0.35117 1.35731
 C7 C 0.35060 0.30916 1.38996
 C8 C 0.37554 0.29597 1.37621
 C9 C 0.38928 0.31114 1.35275
 C10 C 0.37837 0.33833 1.34309
 C11 C 0.39135 0.35255 1.31888
 C12 C 0.38010 0.37958 1.30891
 C13 C 0.35610 0.39262 1.32384
 H14 H 0.30366 0.33687 1.41148
 H15 H 0.31101 0.41263 1.35466
 H16 H 0.34006 0.29879 1.40866
 H17 H 0.40760 0.30130 1.34076
 H18 H 0.41008 0.34252 1.30762
 H19 H 0.34706 0.41327 1.31602
 C20 C 1.15279 0.66181 0.88897
 C21 C 1.17780 0.65006 0.90347
 C22 C 1.19352 0.62575 0.89172
 C23 C 1.18281 0.61315 0.86513
 C24 C 1.15783 0.62464 0.85048
 C25 C 1.14279 0.64907 0.86245
 C26 C 1.13803 0.68654 0.90042
 C27 C 1.11320 0.69906 0.88574
 C28 C 1.10330 0.68557 0.85936
 C29 C 1.11793 0.66097 0.84766
 C30 C 1.10843 0.64856 0.82091
 C31 C 1.12346 0.62441 0.80857
 C32 C 1.14796 0.61233 0.82371
 H33 H 1.18573 0.66114 0.92310
 H34 H 1.19321 0.59374 0.85596
 H35 H 1.14564 0.69535 0.92132
 H36 H 1.08520 0.69496 0.84667
 H37 H 1.08925 0.65774 0.80960
 H38 H 1.15988 0.59391 0.81418
 C39 C 0.65253 -0.16385 0.10804
 C40 C 0.67767 -0.15173 0.09457
 C41 C 0.69063 -0.12616 0.10593
 C42 C 0.67756 -0.11218 0.13043
 C43 C 0.65229 -0.12390 0.14393
 C44 C 0.63983 -0.14998 0.13285
 C45 C 0.64034 -0.18995 0.09732
 C46 C 0.61575 -0.20321 0.11128
 C47 C 0.60311 -0.18870 0.13601
 C48 C 0.61495 -0.16235 0.14680
 C49 C 0.60276 -0.14858 0.17186
 C50 C 0.61504 -0.12252 0.18307
 C51 C 0.63966 -0.11023 0.16870
 H52 H 0.68784 -0.16280 0.07589
 H53 H 0.68725 -0.09225 0.13910
 H54 H 0.64985 -0.19928 0.07745
 H55 H 0.58492 -0.19838 0.14804
 H56 H 0.58411 -0.15851 0.18303
 H57 H 0.64908 -0.08996 0.17680
 C58 C -0.15939 1.16735 -0.37070
 C59 C -0.18589 1.15767 -0.38372
 C60 C -0.20025 1.13208 -0.37373
 C61 C -0.18694 1.11635 -0.35016
 C62 C -0.16044 1.12583 -0.33690
 C63 C -0.14657 1.15138 -0.34726
 C64 C -0.14551 1.19284 -0.38081
 C65 C -0.11899 1.20265 -0.36774
 C66 C -0.10631 1.18657 -0.34440
 C67 C -0.11996 1.16108 -0.33403
 C68 C -0.10760 1.14538 -0.31037
 C69 C -0.12139 1.12001 -0.29966
 C70 C -0.14779 1.11034 -0.31314
 H71 H -0.19451 1.16976 -0.40246
 H72 H -0.19769 1.09734 -0.34094
 H73 H -0.15525 1.20501 -0.39902
 H74 H -0.08609 1.19422 -0.33394
 H75 H -0.08754 1.15333 -0.29984
 H76 H -0.15840 1.09064 -0.30522
 C77 C 0.65462 0.65896 0.62365
 C78 C 0.67863 0.64602 0.60872
 C79 C 0.69337 0.62142 0.62050
 C80 C 0.68327 0.60938 0.64723
 C81 C 0.65908 0.62191 0.66225
 C82 C 0.64478 0.64690 0.65047
 C83 C 0.64061 0.68402 0.61226
 C84 C 0.61681 0.69778 0.62737
 C85 C 0.60701 0.68508 0.65409
 C86 C 0.62086 0.66000 0.66568
 C87 C 0.61148 0.64817 0.69265
 C88 C 0.62565 0.62335 0.70459
 C89 C 0.64934 0.61023 0.68917
 H90 H 0.68594 0.65520 0.58791
 H91 H 0.69472 0.59068 0.65676
 H92 H 0.64798 0.69215 0.59106
 H93 H 0.58961 0.69539 0.66698
 H94 H 0.59302 0.65819 0.70434
 H95 H 0.66061 0.59131 0.69846
 C96 C 0.85320 0.35114 0.11546
 C97 C 0.82839 0.36347 0.10117
 C98 C 0.81275 0.38750 0.11355
 C99 C 0.82308 0.39896 0.14076
 C100 C 0.84789 0.38686 0.15518
 C101 C 0.86314 0.36298 0.14242
 C102 C 0.86799 0.32690 0.10318
 C103 C 0.89281 0.31395 0.11741
 C104 C 0.90292 0.32664 0.14415
 C105 C 0.88812 0.35073 0.15681
 C106 C 0.89737 0.36223 0.18415
 C107 C 0.88179 0.38560 0.19736
 C108 C 0.85724 0.39794 0.18258
 H109 H 0.82205 0.35464 0.07986
 H110 H 0.81110 0.41643 0.15182
 H111 H 0.86041 0.31873 0.08199
 H112 H 0.92125 0.31690 0.15625
 H113 H 0.91616 0.35245 0.19558
 H114 H 0.84541 0.41622 0.19248
 C115 C 0.33334 0.16528 0.86130
 C116 C 0.30641 0.15607 0.87347
 C117 C 0.29222 0.13034 0.86344
 C118 C 0.30622 0.11388 0.84075
 C119 C 0.33319 0.12295 0.82828
 C120 C 0.34679 0.14873 0.83864
 C121 C 0.34698 0.19095 0.87147
 C122 C 0.37388 0.20044 0.85915
 C123 C 0.38717 0.18381 0.83653
 C124 C 0.37381 0.15810 0.82622
 C125 C 0.38697 0.14178 0.80349
 C126 C 0.37358 0.11612 0.79281
 C127 C 0.34664 0.10684 0.80532
 H128 H 0.29731 0.16862 0.89168
 H129 H 0.29570 0.09462 0.83164
 H130 H 0.33635 0.20389 0.88861
 H131 H 0.40809 0.19076 0.82713
 H132 H 0.40740 0.14945 0.79360
 H133 H 0.33627 0.08698 0.79731
 C134 C 0.15867 0.83813 0.38077
 C135 C 0.18656 0.84801 0.39047
 C136 C 0.20060 0.87141 0.37617
 C137 C 0.18634 0.88516 0.35224
 C138 C 0.15844 0.87571 0.34250
 C139 C 0.14445 0.85217 0.35685
 C140 C 0.14501 0.81424 0.39444
 C141 C 0.11706 0.80388 0.38471
 C142 C 0.10286 0.81875 0.36109
 C143 C 0.11640 0.84254 0.34706
 C144 C 0.10267 0.85636 0.32281
 C145 C 0.11678 0.87953 0.30815
 C146 C 0.14453 0.88923 0.31837
 H147 H 0.19765 0.83711 0.40874
 H148 H 0.19693 0.90341 0.34130
 H149 H 0.15603 0.80439 0.41329
 H150 H 0.08195 0.81100 0.35228
 H151 H 0.08140 0.84858 0.31482
 H152 H 0.15534 0.90736 0.30744
 Zn153 Zn -0.01795 1.01153 0.04114
 Zn154 Zn 0.03631 0.98831 0.01198
 Zn155 Zn -0.02321 0.97913 -0.01627
 Zn156 Zn 0.00425 1.03896 -0.01419
 O157 O -0.00024 1.00445 0.00558
 O158 O 0.00408 0.99991 0.07214
 O159 O 0.03943 0.95258 -0.00332
 O160 O -0.05688 0.96901 0.00251
 O161 O 0.04500 0.98404 0.05028
 O162 O -0.05263 0.99332 0.04464
 O163 O -0.00411 0.94524 -0.02480
 O164 O -0.01537 1.03907 -0.04854
 O165 O 0.06592 1.00870 -0.00414
 O166 O -0.03496 0.99481 -0.05093
 O167 O 0.04211 1.04640 -0.02373
 O168 O -0.00916 1.07015 0.00625
 O169 O -0.02607 1.04942 0.04696
 C170 C 0.03000 0.98885 0.07352
 C171 C 0.02190 0.93645 -0.01800
 C172 C -0.06701 0.97632 0.02770
 C173 C -0.03068 1.01997 -0.06204
 C174 C 0.06602 1.03229 -0.01888
 C175 C -0.02167 1.07201 0.03134
 Zn176 Zn 0.48747 0.00346 0.45743
 Zn177 Zn 0.48381 -0.02719 0.51574
 Zn178 Zn 0.54254 -0.01881 0.48669
 Zn179 Zn 0.51057 0.03239 0.51223
 O180 O 0.50604 -0.00252 0.49301
 O181 O 0.45279 -0.01547 0.45470
 O182 O 0.50335 -0.06011 0.52578
 O183 O 0.55014 -0.02494 0.44843
 O184 O 0.45064 -0.03876 0.49744
 O185 O 0.50920 -0.00901 0.42646
 O186 O 0.54655 -0.05374 0.50369
 O187 O 0.54857 0.04039 0.52093
 O188 O 0.47160 -0.01054 0.54954
 O189 O 0.57235 0.00269 0.50118
 O190 O 0.49108 0.03366 0.54673
 O191 O 0.49690 0.06275 0.49108
 O192 O 0.47915 0.04136 0.45083
 C193 C 0.43958 -0.03256 0.47236
 C194 C 0.52933 -0.06907 0.51939
 C195 C 0.53490 -0.02064 0.42517
 C196 C 0.57256 0.02665 0.51545
 C197 C 0.47556 0.01485 0.56024
 C198 C 0.48409 0.06423 0.46606
 Zn199 Zn 1.02147 0.50647 0.47056
 Zn200 Zn 1.02164 0.47699 0.52960
 Zn201 Zn 0.99699 0.53774 0.52280
 Zn202 Zn 0.96449 0.48718 0.49674
 O203 O 1.00116 0.50204 0.50500
 O204 O 1.05496 0.48569 0.47002
 O205 O 1.03225 0.49407 0.56389
 O206 O 1.01321 0.56700 0.50209
 O207 O 1.05560 0.46343 0.51338
 O208 O 1.03194 0.54350 0.46358
 O209 O 1.01418 0.53888 0.55844
 O210 O 0.93478 0.51056 0.50886
 O211 O 1.00030 0.44525 0.53928
 O212 O 0.95897 0.54777 0.52861
 O213 O 0.95849 0.45295 0.51456
 O214 O 0.95852 0.48050 0.45806
 O215 O 1.00107 0.49469 0.43877
 C216 C 1.06730 0.46852 0.48839
 C217 C 1.02818 0.51990 0.57360
 C218 C 1.02744 0.56704 0.47789
 C219 C 0.93481 0.53506 0.52217
 C220 C 0.97432 0.43735 0.53173
 C221 C 0.97525 0.48410 0.43582
 Zn222 Zn 0.48101 0.48619 0.96439
 Zn223 Zn 0.53385 0.51068 0.99501
 Zn224 Zn 0.47411 0.51311 1.02459
 Zn225 Zn 0.50650 0.45594 1.01650
 O226 O 0.49879 0.49159 1.00021
 O227 O 0.50202 0.50058 0.93428
 O228 O 0.53479 0.54454 1.01458
 O229 O 0.43931 0.52291 1.00685
 O230 O 0.54098 0.51933 0.95714
 O231 O 0.44552 0.50335 0.96247
 O232 O 0.49079 0.54709 1.03622
 O233 O 0.48960 0.45212 1.05160
 O234 O 0.56563 0.49015 1.00736
 O235 O 0.46497 0.49369 1.05820
 O236 O 0.54514 0.44912 1.02259
 O237 O 0.49321 0.42599 0.99476
 O238 O 0.47439 0.44857 0.95581
 C239 C 0.52657 0.51406 0.93358
 C240 C 0.51618 0.55790 1.03087
 C241 C 0.42989 0.51776 0.98080
 C242 C 0.47298 0.46846 1.06720
 C243 C 0.56794 0.46469 1.01833
 C244 C 0.47998 0.42523 0.96997
 C245 C 1.25884 0.40853 0.38145
 C246 C 1.23322 0.42070 0.39370
 C247 C 1.22426 0.41337 0.42231
 C248 C 1.24182 0.39379 0.43882
 C249 C 1.26774 0.38165 0.42667
 C250 C 1.27689 0.38879 0.39765
 C251 C 1.19670 0.42710 0.43375
 C252 C 1.17981 0.41591 0.45530
 C253 C 1.15083 0.42917 0.46359
 C254 C 1.13988 0.42562 0.49241
 C255 C 1.11264 0.43820 0.50066
 C256 C 1.09580 0.45440 0.48011
 C257 C 1.10644 0.45721 0.45109
 C258 C 1.13344 0.44460 0.44286
 H259 H 1.26345 0.41392 0.35867
 H260 H 1.21993 0.43555 0.38039
 H261 H 1.23610 0.38828 0.46133
 H262 H 1.28103 0.36765 0.44077
 H263 H 1.18947 0.44695 0.42277
 H264 H 1.18699 0.39651 0.46707
 H265 H 1.15263 0.41343 0.50865
 H266 H 1.10492 0.43549 0.52314
 H267 H 1.09379 0.46906 0.43452
 H268 H 1.14030 0.44665 0.42006
 C269 C 0.22473 0.61858 0.93649
 C270 C 0.25065 0.60797 0.95003
 C271 C 0.27222 0.59291 0.93359
 C272 C 0.26765 0.58926 0.90305
 C273 C 0.24184 0.59980 0.88946
 C274 C 0.21965 0.61468 0.90583
 C275 C 0.29973 0.58238 0.94850
 C276 C 0.31542 0.55932 0.93852
 C277 C 0.34429 0.54911 0.95089
 C278 C 0.36145 0.53001 0.93352
 C279 C 0.38903 0.51993 0.94338
 C280 C 0.40023 0.52848 0.97111
 C281 C 0.38293 0.54721 0.98890
 C282 C 0.35521 0.55749 0.97891
 H283 H 0.20835 0.62888 0.95061
 H284 H 0.25367 0.61121 0.97359
 H285 H 0.28439 0.57905 0.88926
 H286 H 0.24032 0.59740 0.86571
 H287 H 0.30691 0.59410 0.96803
 H288 H 0.30720 0.54746 0.91946
 H289 H 0.35363 0.52305 0.91195
 H290 H 0.40161 0.50538 0.92911
 H291 H 0.39087 0.55406 1.01045
 H292 H 0.34248 0.57166 0.99334
 C293 C -0.27750 0.88673 0.06235
 C294 C -0.25081 0.89695 0.05052
 C295 C -0.22752 0.90586 0.06915
 C296 C -0.23134 0.90377 0.09999
 C297 C -0.25804 0.89377 0.11178
 C298 C -0.28142 0.88519 0.09312
 C299 C -0.19941 0.91627 0.05570
 C300 C -0.17996 0.93326 0.07022
 C301 C -0.15145 0.94394 0.05788
 C302 C -0.13588 0.96515 0.07407
 C303 C -0.10861 0.97559 0.06420
 C304 C -0.09609 0.96509 0.03777
 C305 C -0.11156 0.94387 0.02140
 C306 C -0.13889 0.93326 0.03138
 H307 H -0.29517 0.88027 0.04745
 H308 H -0.24841 0.89804 0.02672
 H309 H -0.21363 0.90914 0.11523
 H310 H -0.26017 0.89208 0.13557
 H311 H -0.19551 0.91051 0.03284
 H312 H -0.18539 0.94070 0.09229
 H313 H -0.14483 0.97371 0.09459
 H314 H -0.09735 0.99197 0.07737
 H315 H -0.10241 0.93522 0.00102
 H316 H -0.14964 0.91648 0.01842
 C317 C 0.75308 0.14265 0.59917
 C318 C 0.72650 0.13335 0.58630
 C319 C 0.71862 0.10377 0.58651
 C320 C 0.73769 0.08360 0.60052
 C321 C 0.76426 0.09283 0.61352
 C322 C 0.77267 0.12259 0.61307
 C323 C 0.68990 0.09506 0.57301
 C324 C 0.68435 0.06791 0.56313
 C325 C 0.65554 0.05889 0.55001
 C326 C 0.65478 0.03354 0.53244
 C327 C 0.62798 0.02342 0.52071
 C328 C 0.60119 0.03835 0.52646
 C329 C 0.60191 0.06385 0.54390
 C330 C 0.62874 0.07396 0.55566
 H331 H 0.75734 0.16591 0.59916
 H332 H 0.71193 0.14946 0.57617
 H333 H 0.73209 0.06066 0.60188
 H334 H 0.77853 0.07614 0.62295
 H335 H 0.67337 0.11211 0.57003
 H336 H 0.70193 0.05162 0.56360
 H337 H 0.67502 0.02138 0.52790
 H338 H 0.62822 0.00365 0.50746
 H339 H 0.58164 0.07572 0.54900
 H340 H 0.62811 0.09307 0.56981
 C341 C 0.36705 0.24725 0.39808
 C342 C 0.37756 0.21973 0.40676
 C343 C 0.40764 0.21233 0.40382
 C344 C 0.42704 0.23277 0.39131
 C345 C 0.41654 0.26017 0.38219
 C346 C 0.38630 0.26811 0.38549
 C347 C 0.41785 0.18287 0.41312
 C348 C 0.44526 0.17759 0.42361
 C349 C 0.45500 0.14831 0.43390
 C350 C 0.47586 0.14634 0.45692
 C351 C 0.48528 0.11905 0.46741
 C352 C 0.47447 0.09313 0.45462
 C353 C 0.45413 0.09511 0.43104
 C354 C 0.44440 0.12242 0.42083
 H355 H 0.34346 0.25142 0.40011
 H356 H 0.36208 0.20414 0.41592
 H357 H 0.45031 0.22753 0.38818
 H358 H 0.43262 0.27539 0.37355
 H359 H 0.40165 0.16545 0.41303
 H360 H 0.46049 0.19561 0.42665
 H361 H 0.48455 0.16599 0.46712
 H362 H 0.50113 0.11825 0.48546
 H363 H 0.44550 0.07554 0.42065
 H364 H 0.42892 0.12320 0.40249
 C365 C 0.92613 0.23124 0.61779
 C366 C 0.93942 0.25699 0.60788
 C367 C 0.92214 0.28194 0.60167
 C368 C 0.89122 0.28078 0.60630
 C369 C 0.87794 0.25500 0.61605
 C370 C 0.89522 0.22994 0.62180
 C371 C 0.93718 0.30880 0.59115
 C372 C 0.92312 0.33001 0.57598
 C373 C 0.93755 0.35697 0.56487
 C374 C 0.92228 0.37371 0.54367
 C375 C 0.93431 0.39963 0.53287
 C376 C 0.96201 0.40956 0.54306
 C377 C 0.97740 0.39289 0.56432
 C378 C 0.96527 0.36694 0.57525
 H379 H 0.93999 0.21222 0.62195
 H380 H 0.96327 0.25732 0.60478
 H381 H 0.87716 0.29977 0.60299
 H382 H 0.85416 0.25482 0.61962
 H383 H 0.96087 0.31019 0.59491
 H384 H 0.89998 0.32718 0.57018
 H385 H 0.90084 0.36673 0.53539
 H386 H 0.92182 0.41191 0.51652
 H387 H 0.99866 0.40009 0.57280
 H388 H 0.97750 0.35525 0.59214
 C389 C 0.06907 0.73151 -0.11015
 C390 C 0.05573 0.75753 -0.10048
 C391 C 0.07166 0.77771 -0.08346
 C392 C 0.10147 0.77140 -0.07645
 C393 C 0.11488 0.74541 -0.08603
 C394 C 0.09908 0.72491 -0.10334
 C395 C 0.05706 0.80567 -0.07479
 C396 C 0.06582 0.82160 -0.05142
 C397 C 0.05335 0.85071 -0.04350
 C398 C 0.07051 0.86894 -0.02536
 C399 C 0.06027 0.89669 -0.01731
 C400 C 0.03235 0.90691 -0.02698
 C401 C 0.01485 0.88857 -0.04482
 C402 C 0.02521 0.86071 -0.05303
 H403 H 0.05526 0.71632 -0.12225
 H404 H 0.03271 0.76183 -0.10620
 H405 H 0.11502 0.78692 -0.06448
 H406 H 0.13824 0.74251 -0.08113
 H407 H 0.03876 0.81320 -0.08841
 H408 H 0.08383 0.81355 -0.03771
 H409 H 0.09216 0.86179 -0.01756
 H410 H 0.07430 0.91011 -0.00339
 H411 H -0.00685 0.89572 -0.05242
 H412 H 0.01091 0.84708 -0.06639
 C413 C 0.62288 0.74976 1.08506
 C414 C 0.61201 0.72317 1.07459
 C415 C 0.58262 0.71492 1.07986
 C416 C 0.56402 0.73411 1.09573
 C417 C 0.57480 0.76094 1.10615
 C418 C 0.60452 0.76948 1.10095
 C419 C 0.57249 0.68653 1.06765
 C420 C 0.54940 0.67122 1.07804
 C421 C 0.54128 0.64197 1.06617
 C422 C 0.51201 0.63196 1.06930
 C423 C 0.50370 0.60456 1.05809
 C424 C 0.52461 0.58660 1.04363
 C425 C 0.55404 0.59634 1.04120
 C426 C 0.56234 0.62351 1.05250
 H427 H 0.64619 0.75397 1.08147
 H428 H 0.62691 0.70870 1.06260
 H429 H 0.54093 0.72895 1.09949
 H430 H 0.55916 0.77534 1.11711
 H431 H 0.58546 0.67765 1.04959
 H432 H 0.53590 0.68012 1.09571
 H433 H 0.49544 0.64553 1.08011
 H434 H 0.48088 0.59761 1.06047
 H435 H 0.57086 0.58285 1.03068
 H436 H 0.58544 0.62963 1.05082
 C437 C 0.39677 0.42381 1.28070
 C438 C 0.40634 0.43698 1.25454
 C439 C 0.41153 0.42012 1.22906
 C440 C 0.40666 0.38970 1.23026
 C441 C 0.39728 0.37655 1.25643
 C442 C 0.39210 0.39346 1.28188
 C443 C 0.42090 0.43501 1.20148
 C444 C 0.43525 0.42105 1.17959
 C445 C 0.44476 0.43482 1.15150
 C446 C 0.46506 0.41935 1.13385
 C447 C 0.47417 0.43044 1.10671
 C448 C 0.46315 0.45741 1.09634
 C449 C 0.44283 0.47310 1.11394
 C450 C 0.43360 0.46189 1.14123
 H451 H 0.39297 0.43737 1.30003
 H452 H 0.40970 0.46043 1.25421
 H453 H 0.40917 0.37598 1.21090
 H454 H 0.39311 0.35323 1.25649
 H455 H 0.41677 0.45830 1.19995
 H456 H 0.44149 0.39834 1.18258
 H457 H 0.47393 0.39843 1.14104
 H458 H 0.48989 0.41773 1.09381
 H459 H 0.43382 0.49385 1.10647
 H460 H 0.41737 0.47425 1.15375
 C461 C 0.57197 -0.10755 0.21538
 C462 C 0.56064 -0.09444 0.24102
 C463 C 0.57974 -0.08199 0.26213
 C464 C 0.61053 -0.08240 0.25664
 C465 C 0.62184 -0.09569 0.23116
 C466 C 0.60275 -0.10845 0.21019
 C467 C 0.56669 -0.06859 0.28921
 C468 C 0.58232 -0.06363 0.31406
 C469 C 0.56954 -0.05149 0.34181
 C470 C 0.58593 -0.05480 0.36805
 C471 C 0.57490 -0.04435 0.39492
 C472 C 0.54714 -0.03014 0.39626
 C473 C 0.53095 -0.02613 0.36992
 C474 C 0.54205 -0.03657 0.34294
 H475 H 0.55658 -0.11670 0.19946
 H476 H 0.53682 -0.09416 0.24444
 H477 H 0.62613 -0.07228 0.27165
 H478 H 0.64569 -0.09618 0.22805
 H479 H 0.54305 -0.06423 0.28889
 H480 H 0.60540 -0.07025 0.31505
 H481 H 0.60728 -0.06592 0.36787
 H482 H 0.58803 -0.04777 0.41474
 H483 H 0.50958 -0.01507 0.37016
 H484 H 0.52905 -0.03266 0.32318
 C485 C -0.07758 1.10076 -0.27105
 C486 C -0.06528 1.08807 -0.24572
 C487 C -0.08354 1.07826 -0.22274
 C488 C -0.11457 1.08104 -0.22581
 C489 C -0.12689 1.09384 -0.25115
 C490 C -0.10851 1.10423 -0.27387
 C491 C -0.06929 1.06766 -0.19513
 C492 C -0.08281 1.05073 -0.17511
 C493 C -0.06863 1.04266 -0.14661
 C494 C -0.07651 1.01643 -0.13266
 C495 C -0.06398 1.00875 -0.10535
 C496 C -0.04367 1.02746 -0.09123
 C497 C -0.03609 1.05387 -0.10510
 C498 C -0.04842 1.06141 -0.13241
 H499 H -0.06284 1.10815 -0.28834
 H500 H -0.04132 1.08628 -0.24389
 H501 H -0.12938 1.07452 -0.20826
 H502 H -0.15077 1.09664 -0.25244
 H503 H -0.04642 1.07393 -0.19142
 H504 H -0.10456 1.04187 -0.17984
 H505 H -0.09231 1.00180 -0.14299
 H506 H -0.07043 0.98835 -0.09515
 H507 H -0.02068 1.06889 -0.09478
 H508 H -0.04258 1.08228 -0.14196
 C509 C 1.10612 0.63171 0.75644
 C510 C 1.09664 0.62086 0.72916
 C511 C 1.09464 0.59061 0.72411
 C512 C 1.10303 0.57132 0.74699
 C513 C 1.11260 0.58223 0.77436
 C514 C 1.11399 0.61255 0.77944
 C515 C 1.08372 0.58071 0.69471
 C516 C 1.07558 0.55325 0.68805
 C517 C 1.06330 0.54510 0.65868
 C518 C 1.06695 0.51632 0.64830
 C519 C 1.05558 0.50801 0.62069
 C520 C 1.04001 0.52829 0.60304
 C521 C 1.03582 0.55692 0.61377
 C522 C 1.04720 0.56521 0.64127
 H523 H 1.10751 0.65518 0.75946
 H524 H 1.09061 0.63628 0.71195
 H525 H 1.10245 0.54786 0.74407
 H526 H 1.11850 0.56695 0.79171
 H527 H 1.08192 0.59735 0.67778
 H528 H 1.07808 0.53593 0.70410
 H529 H 1.07892 0.50031 0.66145
 H530 H 1.05905 0.48573 0.61317
 H531 H 1.02364 0.57302 0.60093
 H532 H 1.04283 0.58726 0.64896
 C533 C 0.72461 0.57854 0.60412
 C534 C 0.75009 0.56700 0.59072
 C535 C 0.77151 0.58555 0.57846
 C536 C 0.76639 0.61597 0.57903
 C537 C 0.74100 0.62750 0.59253
 C538 C 0.71990 0.60895 0.60541
 C539 C 0.79862 0.57233 0.56524
 C540 C 0.82412 0.58698 0.56173
 C541 C 0.85191 0.57349 0.55032
 C542 C 0.87899 0.58716 0.55680
 C543 C 0.90585 0.57494 0.54728
 C544 C 0.90622 0.54878 0.53088
 C545 C 0.87907 0.53548 0.52365
 C546 C 0.85217 0.54775 0.53313
 H547 H 0.70852 0.56363 0.61336
 H548 H 0.75326 0.54347 0.59026
 H549 H 0.78173 0.63106 0.56897
 H550 H 0.73815 0.65104 0.59329
 H551 H 0.79790 0.54920 0.56014
 H552 H 0.82559 0.60939 0.56934
 H553 H 0.87944 0.60716 0.56972
 H554 H 0.92635 0.58583 0.55314
 H555 H 0.87858 0.51547 0.51077
 H556 H 0.83178 0.53706 0.52672
 C557 C 0.77807 0.42873 1.10433
 C558 C 0.75215 0.44000 1.09149
 C559 C 0.73415 0.42240 1.07359
 C560 C 0.74328 0.39350 1.06773
 C561 C 0.76920 0.38216 1.08050
 C562 C 0.78702 0.39938 1.09949
 C563 C 0.70620 0.43496 1.06146
 C564 C 0.68267 0.41859 1.05405
 C565 C 0.65381 0.43100 1.04409
 C566 C 0.62820 0.41399 1.04736
 C567 C 0.60040 0.42486 1.03886
 C568 C 0.59759 0.45299 1.02662
 C569 C 0.62330 0.46983 1.02269
 C570 C 0.65115 0.45894 1.03123
 H571 H 0.79138 0.44361 1.11734
 H572 H 0.74597 0.46256 1.09586
 H573 H 0.73050 0.37944 1.05330
 H574 H 0.77418 0.35934 1.07635
 H575 H 0.70436 0.45858 1.06084
 H576 H 0.68364 0.39516 1.05738
 H577 H 0.62963 0.39231 1.05694
 H578 H 0.58108 0.41124 1.04206
 H579 H 0.62192 0.49147 1.01304
 H580 H 0.67044 0.47237 1.02741
 C581 C 0.24494 1.14211 -0.11139
 C582 C 0.21825 1.13342 -0.09856
 C583 C 0.21038 1.10386 -0.09762
 C584 C 0.22944 1.08309 -0.11072
 C585 C 0.25614 1.09172 -0.12375
 C586 C 0.26470 1.12143 -0.12407
 C587 C 0.18181 1.09584 -0.08362
 C588 C 0.17638 1.06929 -0.07230
 C589 C 0.14796 1.06131 -0.05790
 C590 C 0.14758 1.03699 -0.03900
 C591 C 0.12115 1.02798 -0.02579
 C592 C 0.09436 1.04302 -0.03131
 C593 C 0.09471 1.06749 -0.05009
 C594 C 0.12114 1.07647 -0.06336
 H595 H 0.24925 1.16535 -0.11221
 H596 H 0.20367 1.14998 -0.08921
 H597 H 0.22378 1.06012 -0.11123
 H598 H 0.27045 1.07465 -0.13242
 H599 H 0.16542 1.11311 -0.08119
 H600 H 0.19387 1.05291 -0.07231
 H601 H 0.16783 1.02480 -0.03454
 H602 H 0.12167 1.00896 -0.01155
 H603 H 0.07440 1.07935 -0.05509
 H604 H 0.12015 1.09475 -0.07847
 C605 C 0.25233 -0.11227 0.36498
 C606 C 0.27991 -0.10158 0.37393
 C607 C 0.28618 -0.09682 0.40399
 C608 C 0.26408 -0.10317 0.42503
 C609 C 0.23652 -0.11408 0.41604
 C610 C 0.23029 -0.11847 0.38592
 C611 C 0.31544 -0.08413 0.41197
 C612 C 0.32661 -0.08346 0.43952
 C613 C 0.35572 -0.07023 0.44703
 C614 C 0.36980 -0.07856 0.47347
 C615 C 0.39702 -0.06641 0.48167
 C616 C 0.41077 -0.04550 0.46361
 C617 C 0.39657 -0.03690 0.43729
 C618 C 0.36928 -0.04896 0.42915
 H619 H 0.24822 -0.11573 0.34162
 H620 H 0.29639 -0.09683 0.35722
 H621 H 0.26747 -0.09914 0.44834
 H622 H 0.21973 -0.11828 0.43258
 H623 H 0.32860 -0.07577 0.39393
 H624 H 0.31480 -0.09394 0.45732
 H625 H 0.35975 -0.09465 0.48781
 H626 H 0.40731 -0.07345 0.50215
 H627 H 0.40639 -0.02058 0.42307
 H628 H 0.35876 -0.04105 0.40917
 C629 C 0.57397 -0.26818 0.62321
 C630 C 0.56136 -0.24218 0.61262
 C631 C 0.57776 -0.22329 0.59471
 C632 C 0.60735 -0.23065 0.58803
 C633 C 0.61999 -0.25661 0.59849
 C634 C 0.60361 -0.27604 0.61632
 C635 C 0.56382 -0.19560 0.58447
 C636 C 0.57278 -0.18147 0.56013
 C637 C 0.56064 -0.15286 0.55033
 C638 C 0.57808 -0.13579 0.53148
 C639 C 0.56793 -0.10860 0.52162
 C640 C 0.53989 -0.09790 0.53016
 C641 C 0.52216 -0.11511 0.54873
 C642 C 0.53239 -0.14236 0.55872
 H643 H 0.55984 -0.28245 0.63591
 H644 H 0.53853 -0.23695 0.61819
 H645 H 0.62128 -0.21603 0.57551
 H646 H 0.64322 -0.26040 0.59367
 H647 H 0.54578 -0.18682 0.59759
 H648 H 0.59057 -0.19070 0.54695
 H649 H 0.59982 -0.14341 0.52453
 H650 H 0.58212 -0.09600 0.50720
 H651 H 0.50033 -0.10758 0.55549
 H652 H 0.51787 -0.15518 0.57251
 C653 C 1.07280 0.77497 0.39801
 C654 C 1.06010 0.74993 0.41026
 C655 C 1.07803 0.72771 0.42216
 C656 C 1.10896 0.73148 0.42267
 C657 C 1.12171 0.75661 0.41079
 C658 C 1.10395 0.77882 0.39784
 C659 C 1.06392 0.70113 0.43430
 C660 C 1.07711 0.67473 0.43333
 C661 C 1.06320 0.64771 0.44463
 C662 C 1.07160 0.62075 0.43219
 C663 C 1.05964 0.59465 0.44269
 C664 C 1.03935 0.59488 0.46627
 C665 C 1.03109 0.62187 0.47892
 C666 C 1.04283 0.64804 0.46818
 H667 H 1.05786 0.79166 0.38964
 H668 H 1.03614 0.74776 0.41013
 H669 H 1.12343 0.71507 0.43236
 H670 H 1.14571 0.75769 0.41067
 H671 H 1.04141 0.70314 0.44247
 H672 H 1.09835 0.67239 0.42233
 H673 H 1.08743 0.61990 0.41419
 H674 H 1.06663 0.57423 0.43257
 H675 H 1.01562 0.62276 0.49721
 H676 H 1.03647 0.66837 0.47883
 C677 C -0.06303 1.28206 0.11080
 C678 C -0.04985 1.25649 0.09967
 C679 C -0.06670 1.23617 0.08372
 C680 C -0.09672 1.24241 0.07796
 C681 C -0.10984 1.26812 0.08859
 C682 C -0.09340 1.28839 0.10559
 C683 C -0.05259 1.20876 0.07308
 C684 C -0.06731 1.18337 0.07247
 C685 C -0.05392 1.15540 0.06253
 C686 C -0.06424 1.12927 0.07486
 C687 C -0.05320 1.10229 0.06519
 C688 C -0.03204 1.10081 0.04243
 C689 C -0.02172 1.12699 0.02995
 C690 C -0.03243 1.15408 0.04002
 H691 H -0.04894 1.29721 0.12263
 H692 H -0.02650 1.25234 0.10394
 H693 H -0.11018 1.22741 0.06517
 H694 H -0.13336 1.27112 0.08453
 H695 H -0.02921 1.20918 0.06748
 H696 H -0.08973 1.18262 0.08111
 H697 H -0.08096 1.12975 0.09206
 H698 H -0.06177 1.08252 0.07510
 H699 H -0.00548 1.12652 0.01231
 H700 H -0.02453 1.17384 0.02960
 C701 C 0.40048 0.24750 0.84939
 C702 C 0.41339 0.27350 0.85920
 C703 C 0.41427 0.28040 0.88945
 C704 C 0.40151 0.26085 0.90974
 C705 C 0.38861 0.23484 0.89991
 C706 C 0.38794 0.22788 0.86964
 C707 C 0.42735 0.30869 0.89870
 C708 C 0.43733 0.31404 0.92616
 C709 C 0.44929 0.34270 0.93582
 C710 C 0.46670 0.34381 0.96160
 C711 C 0.47718 0.37051 0.97239
 C712 C 0.47034 0.39677 0.95768
 C713 C 0.45309 0.39568 0.93175
 C714 C 0.44253 0.36900 0.92101
 H715 H 0.39985 0.24300 0.82587
 H716 H 0.42269 0.28832 0.84307
 H717 H 0.40082 0.26572 0.93314
 H718 H 0.37923 0.22010 0.91606
 H719 H 0.42962 0.32522 0.88180
 H720 H 0.43763 0.29657 0.94227
 H721 H 0.47205 0.32394 0.97358
 H722 H 0.49035 0.37059 0.99248
 H723 H 0.44715 0.41555 0.92006
 H724 H 0.42840 0.36936 0.90164
 C725 C 0.61008 0.63037 0.75726
 C726 C 0.60085 0.61927 0.78444
 C727 C 0.59688 0.58909 0.78826
 C728 C 0.60312 0.57006 0.76451
 C729 C 0.61256 0.58117 0.73736
 C730 C 0.61594 0.61145 0.73342
 C731 C 0.58698 0.57831 0.81744
 C732 C 0.57176 0.55344 0.82094
 C733 C 0.56084 0.54346 0.85006
 C734 C 0.53539 0.52595 0.85113
 C735 C 0.52421 0.51642 0.87822
 C736 C 0.53853 0.52390 0.90483
 C737 C 0.56442 0.54090 0.90371
 C738 C 0.57550 0.55055 0.87662
 H739 H 0.61298 0.65377 0.75497
 H740 H 0.59653 0.63433 0.80249
 H741 H 0.60116 0.54660 0.76691
 H742 H 0.61693 0.56611 0.71934
 H743 H 0.59076 0.59241 0.83634
 H744 H 0.56531 0.54084 0.80169
 H745 H 0.52389 0.51996 0.83095
 H746 H 0.50434 0.50319 0.87830
 H747 H 0.57614 0.54682 0.92378
 H748 H 0.59574 0.56319 0.87660
 C749 C 0.41859 0.09628 0.76686
 C750 C 0.43217 0.08379 0.74210
 C751 C 0.41510 0.07421 0.71800
 C752 C 0.38394 0.07685 0.71943
 C753 C 0.37033 0.08946 0.74422
 C754 C 0.38757 0.09981 0.76797
 C755 C 0.43075 0.06395 0.69106
 C756 C 0.41836 0.04694 0.67027
 C757 C 0.43404 0.03865 0.64268
 C758 C 0.42684 0.01227 0.62853
 C759 C 0.44065 0.00427 0.60201
 C760 C 0.46162 0.02279 0.58883
 C761 C 0.46863 0.04934 0.60289
 C762 C 0.45501 0.05720 0.62950
 H763 H 0.43245 0.10365 0.78499
 H764 H 0.45619 0.08204 0.74158
 H765 H 0.37004 0.07045 0.70100
 H766 H 0.34642 0.09229 0.74425
 H767 H 0.45374 0.07038 0.68863
 H768 H 0.39646 0.03797 0.67379
 H769 H 0.41053 -0.00222 0.63808
 H770 H 0.43460 -0.01623 0.59164
 H771 H 0.48452 0.06419 0.59322
 H772 H 0.46041 0.07815 0.63926
 C773 C 0.07283 0.90031 0.28065
 C774 C 0.06050 0.91370 0.25561
 C775 C 0.07828 0.92028 0.23106
 C776 C 0.10857 0.91240 0.23176
 C777 C 0.12087 0.89915 0.25676
 C778 C 0.10322 0.89315 0.28155
 C779 C 0.06432 0.93414 0.20476
 C780 C 0.07975 0.94901 0.18442
 C781 C 0.06646 0.96066 0.15683
 C782 C 0.08467 0.96326 0.13187
 C783 C 0.07293 0.97288 0.10497
 C784 C 0.04275 0.98061 0.10256
 C785 C 0.02472 0.97912 0.12785
 C786 C 0.03642 0.96918 0.15474
 H787 H 0.05872 0.89596 0.29948
 H788 H 0.03704 0.91918 0.25552
 H789 H 0.12285 0.91576 0.21291
 H790 H 0.14419 0.89315 0.25653
 H791 H 0.04057 0.93160 0.20209
 H792 H 0.10346 0.95171 0.18708
 H793 H 0.10794 0.95713 0.13300
 H794 H 0.08747 0.97399 0.08596
 H795 H 0.00141 0.98508 0.12672
 H796 H 0.02194 0.96834 0.17377
 C797 C 0.86874 0.40215 0.24856
 C798 C 0.87675 0.41247 0.27654
 C799 C 0.90659 0.41797 0.28346
 C800 C 0.92847 0.41221 0.26197
 C801 C 0.92046 0.40164 0.23402
 C802 C 0.89049 0.39667 0.22698
 C803 C 0.91404 0.42855 0.31357
 C804 C 0.93790 0.44505 0.31950
 C805 C 0.94616 0.45561 0.34954
 C806 C 0.97475 0.46702 0.35374
 C807 C 0.98402 0.47667 0.38160
 C808 C 0.96484 0.47521 0.40602
 C809 C 0.93598 0.46443 0.40178
 C810 C 0.92665 0.45485 0.37387
 H811 H 0.84551 0.39805 0.24390
 H812 H 0.85953 0.41636 0.29281
 H813 H 0.95180 0.41529 0.26679
 H814 H 0.93767 0.39755 0.21780
 H815 H 0.89880 0.42280 0.33099
 H816 H 0.95252 0.45099 0.30155
 H817 H 0.99020 0.46813 0.33544
 H818 H 1.00640 0.48491 0.38405
 H819 H 0.92057 0.46326 0.42008
 H820 H 0.90413 0.44714 0.37171
   
