data_POSCAR
  _audit_creation_date              2014-09-24
  _audit_creation_method            'ToBaCCo'
  _symmetry_space_group_name_H-M    'P1'
  _symmetry_Int_Tables_number       1
  _symmetry_cell_setting            triclinic
  loop_
  _symmetry_equiv_pos_as_xyz
 x,y,z
_cell_length_a 36.2335
_cell_length_b 36.1913
_cell_length_c 36.1627
_cell_angle_alpha 89.992000
_cell_angle_beta 90.117700
_cell_angle_gamma 90.024000
loop_
  _atom_site_label
  _atom_site_type_symbol
  _atom_site_fract_x
  _atom_site_fract_y
  _atom_site_fract_z
C1 C 0.16820 0.16866 0.21197
 N2 N 0.15286 0.19884 0.19584
 C3 C 0.16816 0.21346 0.16489
 N4 N 0.19873 0.19781 0.14999
 C5 C 0.21409 0.16763 0.16610
 N6 N 0.19878 0.15301 0.19705
 C7 C -0.16435 0.83416 0.21434
 N8 N -0.14950 0.80354 0.19866
 C9 C -0.16565 0.78815 0.16848
 N10 N -0.19661 0.80346 0.15389
 C11 C -0.21150 0.83409 0.16956
 N12 N -0.19532 0.84947 0.19974
 C13 C -0.17038 0.16460 -0.21277
 N14 N -0.20059 0.14858 -0.19750
 C15 C -0.21626 0.16355 -0.16692
 N16 N -0.20162 0.19448 -0.15153
 C17 C -0.17142 0.21051 -0.16681
 N18 N -0.15576 0.19553 -0.19738
 C19 C 0.16825 0.83532 -0.21313
 N20 N 0.15196 0.80470 -0.19889
 C21 C 0.16627 0.78830 -0.16831
 N22 N 0.19681 0.80261 -0.15188
 C23 C 0.21311 0.83323 -0.16611
 N24 N 0.19878 0.84962 -0.19670
 C25 C 0.16827 1.16739 0.78863
 N26 N 0.15265 1.19800 0.80362
 C27 C 0.16728 1.21329 0.83464
 N28 N 0.19745 1.19788 0.85073
 C29 C 0.21306 1.16729 0.83575
 N30 N 0.19843 1.15201 0.80474
 C31 C 0.83315 0.83657 0.78415
 N32 N 0.84850 0.80567 0.79887
 C33 C 0.83318 0.78961 0.82908
 N34 N 0.80258 0.80454 0.84466
 C35 C 0.78722 0.83543 0.82995
 N36 N 0.80255 0.85148 0.79974
 C37 C 0.16474 0.83061 1.21382
 N38 N 0.14869 0.80039 1.19843
 C39 C 0.16371 0.78463 1.16792
 N40 N 0.19470 0.79917 1.15272
 C41 C 0.21076 0.82938 1.16810
 N42 N 0.19573 0.84514 1.19861
 C43 C 0.83557 1.16848 1.21271
 N44 N 0.80494 1.15215 1.19850
 C45 C 0.78844 1.16645 1.16797
 N46 N 0.80265 1.19703 1.15156
 C47 C 0.83327 1.21338 1.16576
 N48 N 0.84977 1.19906 1.19629
 O49 O 0.44763 0.92970 0.93868
 O50 O 0.40731 0.96544 0.97212
 C51 C 0.41465 0.93979 0.94827
 O52 O 0.55208 0.93279 1.07065
 O53 O 0.59234 0.96639 1.03493
 C54 C 0.58504 0.94258 1.06064
 O55 O 0.44827 0.92925 1.06760
 O56 O 0.40753 0.96484 1.03430
 C57 C 0.41517 0.93915 1.05804
 O58 O 0.55131 0.93316 0.93513
 O59 O 0.59200 0.96654 0.97073
 C60 C 0.58439 0.94290 0.94493
 Zr61 Zr 0.49954 0.95031 0.95642
 O62 O 0.50373 0.89196 0.95711
 O63 O 0.49516 0.95003 0.89804
 Zr64 Zr 0.50006 0.95009 1.04984
 O65 O 0.50427 0.89174 1.04912
 O66 O 0.49630 0.94970 1.10825
 O67 O 0.46680 0.94299 1.00324
 O68 O 0.53191 0.94354 1.00300
 O69 O 0.55122 1.06136 0.93547
 O70 O 0.59195 1.02786 0.97087
 C71 C 0.58431 1.05167 0.94523
 O72 O 0.44821 1.06448 1.06778
 O73 O 0.40749 1.02893 1.03440
 C74 C 0.41512 1.05458 1.05818
 O75 O 0.55197 1.06124 1.07075
 O76 O 0.59229 1.02780 1.03500
 C77 C 0.58494 1.05159 1.06069
 O78 O 0.44759 1.06460 0.93906
 O79 O 0.40728 1.02858 0.97225
 C80 C 0.41463 1.05443 0.94861
 Zr81 Zr 0.49949 1.04388 0.95658
 O82 O 0.50361 1.10224 0.95720
 O83 O 0.49508 1.04411 0.89820
 Zr84 Zr 0.50000 1.04372 1.05004
 O85 O 0.50411 1.10208 1.04983
 O86 O 0.49624 1.04356 1.10846
 Zr87 Zr 0.44487 0.99697 1.00350
 Zr88 Zr 0.55460 0.99707 1.00303
 O89 O 0.53181 1.05055 1.00320
 O90 O 0.46677 1.05097 1.00344
 O91 O 0.53232 0.99715 0.94911
 O92 O 0.46808 0.99687 1.05689
 O93 O 0.46753 0.99709 0.94991
 O94 O 0.53291 0.99693 1.05709
 H95 H 0.54873 0.92196 1.00289
 H96 H 0.45148 0.99682 1.07863
 H97 H 0.54855 1.07221 1.00316
 H98 H 0.45090 0.99714 0.92813
 H99 H 0.51648 0.96540 1.11790
 H100 H 0.51690 1.02845 1.11802
 H101 H 0.48328 1.11172 1.03499
 H102 H 0.48262 1.11181 0.97177
 H103 H 0.51546 1.02885 0.88840
 H104 H 0.51513 0.96589 0.88829
 H105 H 0.48246 0.88232 0.97124
 H106 H 0.48319 0.88215 1.03460
 O107 O -0.06978 0.44799 0.06169
 O108 O -0.03445 0.40745 0.02805
 C109 C -0.05994 0.41493 0.05196
 O110 O -0.06675 0.55202 -0.07026
 O111 O -0.03304 0.59251 -0.03473
 C112 C -0.05693 0.58507 -0.06037
 O113 O -0.07037 0.44807 -0.06685
 O114 O -0.03472 0.40749 -0.03343
 C115 C -0.06048 0.41499 -0.05714
 O116 O -0.06656 0.55176 0.06500
 O117 O -0.03364 0.59230 0.02899
 C118 C -0.05713 0.58482 0.05487
 Zr119 Zr -0.04902 0.49992 0.04412
 O120 O -0.10730 0.50402 0.04399
 O121 O -0.04857 0.49577 0.10252
 Zr122 Zr -0.04933 0.50000 -0.04947
 O123 O -0.10760 0.50422 -0.04940
 O124 O -0.04921 0.49585 -0.10787
 O125 O -0.05643 0.46704 -0.00268
 O126 O -0.05584 0.53201 -0.00266
 O127 O 0.06189 0.55179 0.06492
 O128 O 0.02833 0.59241 0.02945
 C129 C 0.05217 0.58487 0.05510
 O130 O 0.06482 0.44800 -0.06707
 O131 O 0.02935 0.40745 -0.03354
 C132 C 0.05494 0.41494 -0.05734
 O133 O 0.06160 0.55186 -0.07036
 O134 O 0.02833 0.59242 -0.03469
 C135 C 0.05204 0.58493 -0.06037
 O136 O 0.06521 0.44795 0.06141
 O137 O 0.02954 0.40741 0.02793
 C138 C 0.05526 0.41489 0.05170
 Zr139 Zr 0.04436 0.49989 0.04399
 O140 O 0.10265 0.50403 0.04372
 O141 O 0.04442 0.49567 0.10238
 Zr142 Zr 0.04396 0.49992 -0.04965
 O143 O 0.10224 0.50397 -0.04999
 O144 O 0.04312 0.49581 -0.10805
 Zr145 Zr -0.00255 0.44503 -0.00276
 Zr146 Zr -0.00239 0.55486 -0.00267
 O147 O 0.05097 0.53194 -0.00281
 O148 O 0.05136 0.46700 -0.00285
 O149 O -0.00228 0.53286 0.05132
 O150 O -0.00275 0.46784 -0.05629
 O151 O -0.00233 0.46783 0.05078
 O152 O -0.00266 0.53295 -0.05672
 H153 H -0.07751 0.54870 -0.00270
 H154 H -0.00284 0.45106 -0.07793
 H155 H 0.07263 0.54867 -0.00279
 H156 H -0.00225 0.45107 0.07244
 H157 H -0.03437 0.51665 -0.11753
 H158 H 0.02876 0.51700 -0.11763
 H159 H 0.11194 0.48376 -0.03435
 H160 H 0.11223 0.48329 0.02875
 H161 H 0.02938 0.51629 0.11209
 H162 H -0.03367 0.51656 0.11215
 H163 H -0.11700 0.48326 0.02907
 H164 H -0.11724 0.48375 -0.03408
 O165 O 0.93906 0.07039 0.44733
 O166 O 0.97272 0.03496 0.40690
 C167 C 0.94886 0.06053 0.41429
 O168 O 1.07051 0.06725 0.55191
 O169 O 1.03492 0.03369 0.59231
 C170 C 1.06052 0.05754 0.58495
 O171 O 1.06768 0.07047 0.44800
 O172 O 1.03474 0.03448 0.40732
 C173 C 1.05833 0.06030 0.41488
 O174 O 0.93536 0.06689 0.55128
 O175 O 0.97088 0.03352 0.59204
 C176 C 0.94515 0.05717 0.58442
 Zr177 Zr 0.95648 0.04963 0.49939
 O178 O 0.95689 0.10798 0.50360
 O179 O 0.89822 0.04971 0.49497
 Zr180 Zr 1.04984 0.04970 0.49984
 O181 O 1.04943 0.10806 0.50391
 O182 O 1.10814 0.04964 0.49604
 O183 O 1.00324 0.05689 0.46660
 O184 O 1.00306 0.05639 0.53173
 O185 O 0.93554 -0.06135 0.55131
 O186 O 0.97094 -0.02783 0.59205
 C187 C 0.94532 -0.05162 0.58444
 O188 O 1.06730 -0.06474 0.44791
 O189 O 1.03391 -0.02920 0.40716
 C190 C 1.05761 -0.05490 0.41477
 O191 O 1.07060 -0.06127 0.55193
 O192 O 1.03498 -0.02778 0.59234
 C193 C 1.06062 -0.05157 0.58497
 O194 O 0.93906 -0.06469 0.44744
 O195 O 0.97256 -0.02911 0.40696
 C196 C 0.94876 -0.05475 0.41438
 Zr197 Zr 0.95659 -0.04395 0.49945
 O198 O 0.95718 -0.10231 0.50363
 O199 O 0.89832 -0.04421 0.49511
 Zr200 Zr 1.04989 -0.04381 0.49985
 O201 O 1.04984 -0.10216 0.50405
 O202 O 1.10818 -0.04352 0.49590
 Zr203 Zr 1.00327 0.00291 0.44466
 Zr204 Zr 1.00304 0.00291 0.55457
 O205 O 1.00317 -0.05059 0.53178
 O206 O 1.00330 -0.05107 0.46667
 O207 O 0.94921 0.00284 0.53230
 O208 O 1.05664 0.00292 0.46779
 O209 O 0.94983 0.00283 0.46734
 O210 O 1.05700 0.00296 0.53283
 H211 H 1.00297 0.07802 0.54853
 H212 H 1.07835 0.00283 0.45119
 H213 H 1.00313 -0.07223 0.54857
 H214 H 0.92821 0.00283 0.45052
 H215 H 1.11771 0.03452 0.51672
 H216 H 1.11778 -0.02861 0.51673
 H217 H 1.03465 -0.11184 0.48347
 H218 H 0.97159 -0.11192 0.48252
 H219 H 0.88858 -0.02875 0.51541
 H220 H 0.88849 0.03425 0.51528
 H221 H 0.97158 0.11763 0.48269
 H222 H 1.03473 0.11764 0.48293
 C223 C 1.15253 0.15368 0.24259
 C224 C 1.13843 0.14020 0.26958
 C225 C 1.12173 0.12413 0.30094
 C226 C 1.10734 0.11010 0.32749
 C227 C 1.09035 0.09327 0.35829
 C228 C 1.07577 0.07847 0.38430
 C229 C 0.85213 -0.15017 0.24423
 C230 C 0.86691 -0.13615 0.27062
 C231 C 0.88433 -0.11955 0.30135
 C232 C 0.89923 -0.10516 0.32746
 C233 C 0.91664 -0.08799 0.35790
 C234 C 0.93139 -0.07302 0.38376
 C235 C 0.84656 0.14843 0.75526
 C236 C 0.86101 0.13471 0.72860
 C237 C 0.87821 0.11852 0.69760
 C238 C 0.89315 0.10459 0.67133
 C239 C 0.91094 0.08817 0.64079
 C240 C 0.92640 0.07407 0.61492
 C241 C 1.15358 -0.14799 0.75658
 C242 C 1.14030 -0.13313 0.72986
 C243 C 1.12438 -0.11572 0.69875
 C244 C 1.11042 -0.10088 0.67237
 C245 C 1.09361 -0.08358 0.64168
 C246 C 1.07881 -0.06889 0.61566
 C247 C 0.24434 1.15164 1.15082
 C248 C 0.27102 1.13734 1.13704
 C249 C 0.30203 1.12039 1.12067
 C250 C 0.32831 1.10573 1.10653
 C251 C 0.35883 1.08827 1.08980
 C252 C 0.38468 1.07307 1.07541
 C253 C 0.24335 0.84786 0.85064
 C254 C 0.27003 0.86106 0.86561
 C255 C 0.30108 0.87683 0.88319
 C256 C 0.32742 0.89062 0.89821
 C257 C 0.35806 0.90722 0.91577
 C258 C 0.38402 0.92182 0.93067
 C259 C 0.75785 0.84973 1.15461
 C260 C 0.73080 0.86374 1.14111
 C261 C 0.69937 0.88026 1.12496
 C262 C 0.67275 0.89445 1.11085
 C263 C 0.64186 0.91116 1.09388
 C264 C 0.61574 0.92548 1.07897
 C265 C 0.75385 1.14720 0.84870
 C266 C 0.72748 1.13259 0.86276
 C267 C 0.69679 1.11541 0.87950
 C268 C 0.67075 1.10072 0.89408
 C269 C 0.64043 1.08355 0.91149
 C270 C 0.61471 1.06894 0.92670
 C271 C 0.15160 0.24503 0.14753
 C272 C 0.13749 0.27139 0.13283
 C273 C 0.12073 0.30208 0.11556
 C274 C 0.10618 0.32815 0.10080
 C275 C 0.08881 0.35853 0.08357
 C276 C 0.07368 0.38434 0.06895
 C277 C -0.15554 0.24284 -0.15018
 C278 C -0.14191 0.26979 -0.13611
 C279 C -0.12558 0.30111 -0.11953
 C280 C -0.11129 0.32763 -0.10531
 C281 C -0.09410 0.35840 -0.08858
 C282 C -0.07900 0.38441 -0.07425
 C283 C 0.14871 0.75627 -0.15291
 C284 C 0.13388 0.72955 -0.13970
 C285 C 0.11646 0.69846 -0.12388
 C286 C 0.10158 0.67210 -0.11001
 C287 C 0.08421 0.64146 -0.09329
 C288 C 0.06946 0.61551 -0.07855
 C289 C -0.14955 0.75611 0.15159
 C290 C -0.13580 0.72939 0.13730
 C291 C -0.11945 0.69831 0.12040
 C292 C -0.10533 0.67196 0.10577
 C293 C -0.08864 0.64133 0.08838
 C294 C -0.07430 0.61539 0.07326
 C295 C 1.15332 0.15173 0.75792
 C296 C 1.13991 0.13762 0.73085
 C297 C 1.12397 0.12087 0.69938
 C298 C 1.11007 0.10644 0.67274
 C299 C 1.09337 0.08944 0.64181
 C300 C 1.07866 0.07487 0.61568
 C301 C 0.84880 -0.14706 0.75425
 C302 C 0.86289 -0.13244 0.72787
 C303 C 0.87966 -0.11526 0.69715
 C304 C 0.89424 -0.10058 0.67108
 C305 C 0.91165 -0.08343 0.64071
 C306 C 0.92683 -0.06885 0.61492
 C307 C 1.14938 -0.15327 0.24401
 C308 C 1.13561 -0.13879 0.27064
 C309 C 1.11933 -0.12159 0.30160
 C310 C 1.10532 -0.10669 0.32786
 C311 C 1.08879 -0.08896 0.35839
 C312 C 1.07460 -0.07357 0.38426
 C313 C 0.85236 0.15382 0.24293
 C314 C 0.86728 0.14051 0.26961
 C315 C 0.88474 0.12453 0.30065
 C316 C 0.89960 0.11052 0.32699
 C317 C 0.91691 0.09364 0.35764
 C318 C 0.93157 0.07878 0.38362
 C319 C 0.15137 0.24359 -0.15003
 C320 C 0.13715 0.27032 -0.13619
 C321 C 0.12033 0.30141 -0.11976
 C322 C 0.10578 0.32776 -0.10558
 C323 C 0.08844 0.35840 -0.08884
 C324 C 0.07334 0.38435 -0.07448
 C325 C -0.15219 0.24365 0.14903
 C326 C -0.13903 0.27035 0.13411
 C327 C -0.12327 0.30142 0.11659
 C328 C -0.10944 0.32776 0.10165
 C329 C -0.09277 0.35839 0.08421
 C330 C -0.07807 0.38434 0.06941
 C331 C -0.15022 0.75731 -0.15498
 C332 C -0.13614 0.73037 -0.14135
 C333 C -0.11953 0.69906 -0.12506
 C334 C -0.10526 0.67254 -0.11083
 C335 C -0.08846 0.64174 -0.09375
 C336 C -0.07408 0.61571 -0.07876
 C337 C 0.14736 0.75473 0.15219
 C338 C 0.13278 0.72834 0.13801
 C339 C 0.11566 0.69762 0.12111
 C340 C 0.10104 0.67154 0.10642
 C341 C 0.08394 0.64117 0.08889
 C342 C 0.06939 0.61538 0.07364
 C343 C 0.24462 1.15069 0.85307
 C344 C 0.27098 1.13655 0.86770
 C345 C 0.30169 1.11974 0.88489
 C346 C 0.32777 1.10516 0.89957
 C347 C 0.35818 1.08780 0.91673
 C348 C 0.38403 1.07272 0.93133
 C349 C 0.24315 0.84514 1.15163
 C350 C 0.27014 0.85862 1.13761
 C351 C 0.30149 0.87473 1.12101
 C352 C 0.32800 0.88884 1.10672
 C353 C 0.35875 0.90581 1.08985
 C354 C 0.38470 0.92075 1.07537
 C355 C 0.75641 1.14883 1.15262
 C356 C 0.72969 1.13390 1.13949
 C357 C 0.69859 1.11635 1.12378
 C358 C 0.67222 1.10137 1.11002
 C359 C 0.64156 1.08388 1.09343
 C360 C 0.61558 1.06905 1.07878
 C361 C 0.75522 0.85155 0.84680
 C362 C 0.72854 0.86526 0.86115
 C363 C 0.69751 0.88147 0.87822
 C364 C 0.67123 0.89542 0.89304
 C365 C 0.64069 0.91187 0.91074
 C366 C 0.61484 0.92600 0.92616
   
