data_POSCAR
  _audit_creation_date              2014-09-24
  _audit_creation_method            'ToBaCCo'
  _symmetry_space_group_name_H-M    'P1'
  _symmetry_Int_Tables_number       1
  _symmetry_cell_setting            triclinic
  loop_
  _symmetry_equiv_pos_as_xyz
 x,y,z
_cell_length_a 24.8236
_cell_length_b 24.8280
_cell_length_c 31.9908
_cell_angle_alpha 89.914700
_cell_angle_beta 90.076600
_cell_angle_gamma 119.739800
loop_
  _atom_site_label
  _atom_site_type_symbol
  _atom_site_fract_x
  _atom_site_fract_y
  _atom_site_fract_z
C1 C -0.00192 0.50049 1.36175
 C2 C 0.05031 0.54676 1.34042
 C3 C 0.04909 0.54798 1.29648
 C4 C -0.00153 0.50221 1.27409
 C5 C -0.05259 0.45594 1.29586
 C6 C -0.05425 0.45534 1.33984
 C7 C -0.00071 0.50206 1.22776
 C8 C -0.05265 0.49401 1.20491
 C9 C -0.05265 0.49174 1.16115
 C10 C 0.00002 0.49911 1.14012
 C11 C 0.05268 0.50860 1.16237
 C12 C 0.05182 0.50924 1.20621
 H13 H -0.00188 0.49980 1.39557
 H14 H 0.08849 0.58289 1.27924
 H15 H -0.09164 0.42170 1.27805
 H16 H -0.09329 0.48871 1.22114
 H17 H 0.00004 0.49778 1.10626
 H18 H 0.09216 0.51586 1.22357
 C19 C 0.50183 0.50196 1.36211
 C20 C 0.45534 0.50793 1.34069
 C21 C 0.45402 0.50524 1.29676
 C22 C 0.49977 0.50001 1.27442
 C23 C 0.54622 0.49516 1.29626
 C24 C 0.54705 0.49448 1.34025
 C25 C 0.49969 0.50065 1.22807
 C26 C 0.50706 0.45622 1.20541
 C27 C 0.50894 0.45807 1.16162
 C28 C 0.50197 0.50363 1.14041
 C29 C 0.49325 0.54744 1.16248
 C30 C 0.49288 0.54622 1.20632
 H31 H 0.50264 0.50291 1.39592
 H32 H 0.41902 0.50982 1.27944
 H33 H 0.58042 0.49001 1.27847
 H34 H 0.51212 0.42075 1.22182
 H35 H 0.50306 0.50473 1.10654
 H36 H 0.48678 0.58034 1.22356
 C37 C 0.50428 1.00718 1.36218
 C38 C 0.49586 0.95386 1.34140
 C39 C 0.49547 0.95235 1.29768
 C40 C 0.50134 1.00306 1.27457
 C41 C 0.50816 1.05568 1.29570
 C42 C 0.51094 1.05896 1.33966
 C43 C 0.50053 1.00142 1.22829
 C44 C 0.54511 1.05253 1.20537
 C45 C 0.54310 1.05222 1.16164
 C46 C 0.49741 1.00003 1.14069
 C47 C 0.45362 0.94805 1.16298
 C48 C 0.45486 0.94920 1.20683
 H49 H 0.50441 1.00736 1.39602
 H50 H 0.48984 0.91142 1.28168
 H51 H 0.51317 1.09457 1.27741
 H52 H 0.58074 1.09288 1.22154
 H53 H 0.49619 0.99989 1.10682
 H54 H 0.42071 0.90944 1.22426
 C55 C 1.00539 0.50262 0.63939
 C56 C 0.95259 0.45744 0.66026
 C57 C 0.95127 0.45623 0.70398
 C58 C 1.00166 0.50132 0.72700
 C59 C 1.05381 0.54738 0.70573
 C60 C 1.05687 0.54793 0.66175
 C61 C 1.00004 0.50057 0.77330
 C62 C 1.05163 0.50805 0.79632
 C63 C 1.05114 0.50955 0.84006
 C64 C 0.99828 0.50192 0.86095
 C65 C 0.94587 0.49284 0.83854
 C66 C 0.94722 0.49295 0.79469
 H67 H 1.00533 0.50275 0.60555
 H68 H 0.91070 0.42072 0.72005
 H69 H 1.09246 0.58149 0.72390
 H70 H 1.09245 0.51356 0.78021
 H71 H 0.99795 0.50277 0.89482
 H72 H 0.90710 0.48665 0.77719
 C73 C 0.49703 0.50007 0.63970
 C74 C 0.54288 0.49386 0.66114
 C75 C 0.54454 0.49599 0.70488
 C76 C 0.49962 0.50282 0.72731
 C77 C 0.45384 0.50903 0.70540
 C78 C 0.45277 0.50836 0.66156
 C79 C 0.49980 0.50231 0.77359
 C80 C 0.49277 0.54695 0.79621
 C81 C 0.49091 0.54511 0.83998
 C82 C 0.49752 0.49936 0.86120
 C83 C 0.50584 0.45531 0.83914
 C84 C 0.50625 0.45654 0.79532
 H85 H 0.49603 0.49865 0.60584
 H86 H 0.58015 0.49136 0.72144
 H87 H 0.41937 0.51476 0.72249
 H88 H 0.48791 0.58253 0.77980
 H89 H 0.49639 0.49824 0.89507
 H90 H 0.51208 0.42224 0.77809
 C91 C 0.49664 -0.00351 0.63887
 C92 C 0.50503 0.04972 0.65977
 C93 C 0.50462 0.05075 0.70353
 C94 C 0.49802 -0.00038 0.72655
 C95 C 0.49147 -0.05280 0.70522
 C96 C 0.48940 -0.05561 0.66123
 C97 C 0.49795 0.00049 0.77293
 C98 C 0.45301 -0.05105 0.79531
 C99 C 0.45501 -0.05306 0.83924
 C100 C 0.50156 -0.00120 0.86053
 C101 C 0.54489 0.05172 0.83870
 C102 C 0.54354 0.05194 0.79489
 H103 H 0.49700 -0.00339 0.60502
 H104 H 0.51013 0.09156 0.71963
 H105 H 0.48607 -0.09196 0.72338
 H106 H 0.41812 -0.09044 0.77806
 H107 H 0.50338 -0.00097 0.89435
 H108 H 0.57769 0.09219 0.77786
 O109 O 0.44373 0.69335 0.96511
 O110 O 0.40401 0.77156 0.95452
 C111 C 0.35934 0.78033 0.94540
 O112 O 0.30807 0.75539 0.96499
 O113 O 0.23066 0.63823 0.95448
 C114 C 0.22149 0.58463 0.94578
 O115 O 0.24660 0.55835 0.96552
 O116 O 0.36394 0.59791 0.95445
 C117 C 0.41739 0.64208 0.94552
 O118 O 0.43528 0.70375 1.04929
 O119 O 0.39986 0.78503 1.03744
 C120 C 0.35289 0.77754 1.05792
 O121 O 0.29788 0.73644 1.04922
 O122 O 0.21700 0.62025 1.03745
 C123 C 0.22478 0.58088 1.05803
 O124 O 0.26638 0.56729 1.04952
 O125 O 0.38257 0.60194 1.03726
 C126 C 0.42191 0.64871 1.05778
 Cr127 Cr 0.41739 0.73566 1.00159
 Cr128 Cr 0.26620 0.68704 1.00156
 Cr129 Cr 0.31544 0.58473 1.00168
 O130 O 0.33302 0.66917 1.00129
 O131 O 0.56335 0.29844 0.95188
 O132 O 0.59814 0.21659 0.96397
 C133 C 0.64490 0.22372 0.94335
 O134 O 0.69997 0.26514 0.95165
 O135 O 0.78143 0.38131 0.96349
 C136 C 0.77366 0.42062 0.94282
 O137 O 0.73217 0.43436 0.95133
 O138 O 0.61618 0.40025 0.96403
 C139 C 0.57677 0.35352 0.94348
 O140 O 0.55517 0.30957 1.03599
 O141 O 0.59463 0.23131 1.04688
 C142 C 0.63882 0.22158 1.05559
 O143 O 0.68985 0.24597 1.03572
 O144 O 0.76774 0.36313 1.04647
 C145 C 0.77727 0.41687 1.05515
 O146 O 0.75261 0.44350 1.03528
 O147 O 0.63551 0.40460 1.04679
 C148 C 0.58189 0.36075 1.05571
 Cr149 Cr 0.58114 0.26671 0.99967
 Cr150 Cr 0.73201 0.31449 0.99933
 Cr151 Cr 0.68354 0.41735 0.99935
 O152 O 0.66556 0.33283 0.99973
 O153 O 0.69177 0.44598 0.53700
 O154 O 0.76979 0.40593 0.54813
 C155 C 0.77981 0.36176 0.55631
 O156 O 0.75476 0.31069 0.53644
 O157 O 0.63716 0.23332 0.54784
 C158 C 0.58299 0.22318 0.55582
 O159 O 0.55687 0.24829 0.53579
 O160 O 0.59675 0.36566 0.54827
 C161 C 0.64065 0.41943 0.55687
 O162 O 0.70302 0.43736 0.45290
 O163 O 0.78468 0.40208 0.46537
 C164 C 0.77651 0.35521 0.44442
 O165 O 0.73430 0.30037 0.45252
 O166 O 0.61789 0.21924 0.46504
 C167 C 0.57984 0.22832 0.44383
 O168 O 0.56724 0.27071 0.45204
 O169 O 0.60141 0.38675 0.46580
 C170 C 0.64819 0.42527 0.44485
 Cr171 Cr 0.73457 0.41961 0.50086
 Cr172 Cr 0.68552 0.26865 0.50048
 Cr173 Cr 0.58381 0.31834 0.50049
 O174 O 0.66802 0.33556 0.50104
 O175 O 0.29653 0.56552 0.54772
 O176 O 0.21582 0.60189 0.53571
 C177 C 0.22446 0.64896 0.55658
 O178 O 0.26628 0.70374 0.54802
 O179 O 0.38256 0.78444 0.53557
 C180 C 0.42090 0.77560 0.55653
 O181 O 0.43358 0.73334 0.54814
 O182 O 0.39837 0.61725 0.53565
 C183 C 0.35142 0.57835 0.55623
 O184 O 0.30703 0.55684 0.46354
 O185 O 0.22928 0.59746 0.45289
 C186 C 0.22027 0.64217 0.44438
 O187 O 0.24606 0.69349 0.46393
 O188 O 0.36379 0.77041 0.45284
 C189 C 0.41761 0.77972 0.44455
 O190 O 0.44326 0.75374 0.46411
 O191 O 0.40318 0.63574 0.45299
 C192 C 0.35865 0.58235 0.44425
 Cr193 Cr 0.26499 0.58373 0.49994
 Cr194 Cr 0.31511 0.73516 0.50006
 Cr195 Cr 0.41630 0.68456 0.50016
 O196 O 0.33212 0.66778 0.49950
 N197 N 0.32744 0.52360 0.37764
 N198 N 0.35579 0.50516 0.34767
 C199 C 0.41183 0.51789 0.36265
 C200 C 0.42044 0.54525 0.40189
 C201 C 0.36726 0.54861 0.40971
 H202 H 0.46158 0.56406 0.42128
 H203 H 0.28492 0.52212 0.37392
 H204 H 0.33522 0.48398 0.31939
 N205 N 0.49521 0.82119 0.38669
 N206 N 0.51501 0.86651 0.35885
 C207 C 0.48573 0.89913 0.36559
 C208 C 0.44495 0.87308 0.39863
 C209 C 0.45226 0.82371 0.41101
 H210 H 0.41407 0.88777 0.41163
 H211 H 0.51020 0.78868 0.38844
 H212 H 0.54839 0.87517 0.33601
 N213 N 0.19308 0.67403 0.37773
 N214 N 0.14662 0.64598 0.34759
 C215 C 0.10341 0.59006 0.36250
 C216 C 0.12191 0.58123 0.40184
 C217 C 0.17815 0.63413 0.40981
 H218 H 0.09965 0.54006 0.42118
 H219 H 0.23404 0.71633 0.37408
 H220 H 0.14616 0.66662 0.31924
 N221 N 0.67478 0.47675 0.37534
 N222 N 0.64535 0.49407 0.34538
 C223 C 0.59137 0.48511 0.36186
 C224 C 0.58546 0.46172 0.40227
 C225 C 0.63782 0.45635 0.40913
 H226 H 0.54627 0.44642 0.42315
 H227 H 0.71602 0.47598 0.37063
 H228 H 0.66393 0.51185 0.31600
 N229 N 0.52985 0.20496 0.37379
 N230 N 0.51266 0.15837 0.34389
 C231 C 0.52123 0.11316 0.36067
 C232 C 0.54431 0.13034 0.40110
 C233 C 0.54968 0.18792 0.40777
 H234 H 0.55906 0.10616 0.42231
 H235 H 0.53063 0.24696 0.36902
 H236 H 0.49505 0.15935 0.31444
 N237 N 0.80097 0.32831 0.37489
 N238 N 0.84748 0.35743 0.34495
 C239 C 0.89227 0.41134 0.36138
 C240 C 0.87491 0.41755 0.40172
 C241 C 0.81751 0.36543 0.40860
 H242 H 0.89870 0.45673 0.42258
 H243 H 0.75922 0.28710 0.37027
 H244 H 0.84668 0.33865 0.31564
 N245 N 0.50696 0.32551 1.11527
 N246 N 0.48914 0.35150 1.14414
 C247 C 0.51899 0.41326 1.13761
 C248 C 0.55800 0.42733 1.10357
 C249 C 0.54905 0.37050 1.09037
 H250 H 0.58844 0.47254 1.09020
 H251 H 0.49108 0.27799 1.11309
 H252 H 0.45629 0.32715 1.16731
 N253 N 0.81622 0.49228 1.11431
 N254 N 0.86000 0.51066 1.14320
 C255 C 0.89239 0.48102 1.13700
 C256 C 0.86781 0.44155 1.10317
 C257 C 0.81962 0.45004 1.08975
 H258 H 0.88305 0.41117 1.09006
 H259 H 0.78426 0.50791 1.11190
 H260 H 0.86815 0.54374 1.16615
 N261 N 0.67502 0.18183 1.11478
 N262 N 0.64945 0.13815 1.14370
 C263 C 0.58763 0.10660 1.13743
 C264 C 0.57307 0.13159 1.10357
 C265 C 0.62967 0.17914 1.09017
 H266 H 0.52767 0.11708 1.09047
 H267 H 0.72249 0.21325 1.11239
 H268 H 0.67410 0.12956 1.16674
 N269 N 0.48385 0.67870 1.12389
 N270 N 0.50164 0.65158 1.15202
 C271 C 0.48296 0.59312 1.13939
 C272 C 0.45162 0.58251 1.10182
 C273 C 0.45304 0.63774 1.09315
 H274 H 0.42939 0.54001 1.08384
 H275 H 0.49162 0.72396 1.12628
 H276 H 0.52630 0.67303 1.17920
 N277 N 0.19384 0.51925 1.12423
 N278 N 0.14901 0.50115 1.15226
 C279 C 0.10879 0.51944 1.13950
 C280 C 0.12913 0.55086 1.10195
 C281 C 0.18317 0.54987 1.09343
 H282 H 0.10837 0.57275 1.08386
 H283 H 0.23157 0.51173 1.12669
 H284 H 0.14613 0.47651 1.17945
 N285 N 0.32252 0.80864 1.12424
 N286 N 0.34957 0.85298 1.15256
 C287 C 0.40807 0.89242 1.14002
 C288 C 0.41879 0.87207 1.10237
 C289 C 0.36361 0.81890 1.09351
 H290 H 0.46132 0.89225 1.08440
 H291 H 0.27723 0.77150 1.12649
 H292 H 0.32802 0.85609 1.17973
 N293 N 0.67579 0.49550 0.61571
 N294 N 0.64966 0.51391 0.64410
 C295 C 0.58792 0.48381 0.63747
 C296 C 0.57397 0.44405 0.60394
 C297 C 0.63086 0.45278 0.59110
 H298 H 0.52879 0.41323 0.59066
 H299 H 0.72334 0.51143 0.61366
 H300 H 0.67391 0.54723 0.66702
 N301 N 0.50544 0.18191 0.61376
 N302 N 0.48593 0.13701 0.64190
 C303 C 0.51557 0.10465 0.63556
 C304 C 0.55630 0.13047 0.60243
 C305 C 0.54855 0.17942 0.58958
 H306 H 0.58726 0.11580 0.58958
 H307 H 0.49010 0.21412 0.61166
 H308 H 0.45235 0.12832 0.66458
 N309 N 0.82150 0.32564 0.61441
 N310 N 0.86633 0.35113 0.64257
 C311 C 0.89814 0.41287 0.63605
 C312 C 0.87208 0.42751 0.60282
 C313 C 0.82357 0.37098 0.59008
 H314 H 0.88627 0.47292 0.58988
 H315 H 0.78962 0.27825 0.61242
 H316 H 0.87528 0.32649 0.66542
 N317 N 0.32117 0.51676 0.62250
 N318 N 0.34836 0.49933 0.65083
 C319 C 0.40684 0.51794 0.63823
 C320 C 0.41737 0.54879 0.60049
 C321 C 0.36212 0.54722 0.59168
 H322 H 0.45991 0.57100 0.58254
 H323 H 0.27593 0.50910 0.62486
 H324 H 0.32698 0.47507 0.67815
 N325 N 0.47059 0.79858 0.62667
 N326 N 0.48755 0.84493 0.65673
 C327 C 0.47923 0.89034 0.64003
 C328 C 0.45653 0.87351 0.59948
 C329 C 0.45111 0.81593 0.59265
 H330 H 0.44196 0.89789 0.57831
 H331 H 0.46959 0.75646 0.63138
 H332 H 0.50482 0.84366 0.68625
 N333 N 0.20135 0.67551 0.62675
 N334 N 0.15535 0.64586 0.65699
 C335 C 0.11048 0.59207 0.64046
 C336 C 0.12733 0.58644 0.59988
 C337 C 0.18430 0.63878 0.59282
 H338 H 0.10344 0.54755 0.57881
 H339 H 0.24313 0.71672 0.63130
 H340 H 0.15648 0.66422 0.68651
 N341 N 0.49259 0.67759 0.88613
 N342 N 0.51064 0.65168 0.85736
 C343 C 0.48090 0.58993 0.86394
 C344 C 0.44176 0.57579 0.89788
 C345 C 0.45048 0.63254 0.91098
 H346 H 0.41131 0.53055 0.91122
 H347 H 0.50831 0.72509 0.88826
 H348 H 0.54350 0.67606 0.83421
 N349 N 0.18244 0.50911 0.88669
 N350 N 0.13849 0.49059 0.85791
 C351 C 0.10592 0.52000 0.86430
 C352 C 0.13053 0.55946 0.89811
 C353 C 0.17896 0.55123 0.91133
 H354 H 0.11528 0.58980 0.91126
 H355 H 0.21460 0.49372 0.88894
 H356 H 0.13044 0.45766 0.83487
 N357 N 0.32753 0.80533 0.87785
 N358 N 0.35583 0.85064 0.84698
 C359 C 0.41196 0.89396 0.86152
 C360 C 0.42069 0.87660 0.90126
 C361 C 0.36748 0.82112 0.90999
 H362 H 0.46183 0.89922 0.92059
 H363 H 0.28497 0.76452 0.87471
 H364 H 0.33511 0.85048 0.81854
 N365 N 0.51450 0.32364 0.87756
 N366 N 0.49676 0.35090 0.84951
 C367 C 0.51575 0.40941 0.86218
 C368 C 0.54722 0.41992 0.89966
 C369 C 0.54557 0.36458 0.90825
 H370 H 0.56973 0.46243 0.91761
 H371 H 0.50655 0.27831 0.87513
 H372 H 0.47197 0.32953 0.82236
 N373 N 0.80463 0.48217 0.87658
 N374 N 0.84948 0.50023 0.84855
 C375 C 0.88958 0.48177 0.86129
 C376 C 0.86914 0.45027 0.89880
 C377 C 0.81519 0.45142 0.90734
 H378 H 0.88984 0.42834 0.91691
 H379 H 0.76703 0.48988 0.87415
 H380 H 0.85250 0.52504 0.82143
 N381 N 0.67534 0.19169 0.87751
 N382 N 0.64867 0.14689 0.84948
 C383 C 0.59024 0.10721 0.86201
 C384 C 0.57915 0.12793 0.89944
 C385 C 0.63412 0.18165 0.90810
 H386 H 0.53651 0.10774 0.91729
 H387 H 0.72049 0.22905 0.87513
 H388 H 0.67038 0.14373 0.82240
   
