data_POSCAR
  _audit_creation_date              2014-09-24
  _audit_creation_method            'ToBaCCo'
  _symmetry_space_group_name_H-M    'P1'
  _symmetry_Int_Tables_number       1
  _symmetry_cell_setting            triclinic
  loop_
  _symmetry_equiv_pos_as_xyz
 x,y,z
_cell_length_a 24.1433
_cell_length_b 24.2074
_cell_length_c 57.0413
_cell_angle_alpha 84.184900
_cell_angle_beta 92.936100
_cell_angle_gamma 120.140000
loop_
  _atom_site_label
  _atom_site_type_symbol
  _atom_site_fract_x
  _atom_site_fract_y
  _atom_site_fract_z
C1 C 0.01152 0.11710 0.52943
 H2 H 0.05583 0.11663 0.52817
 C3 C 0.00842 0.15918 0.54351
 H4 H 0.05036 0.19107 0.55325
 C5 C -0.09703 0.07662 0.51792
 H6 H -0.13754 0.04483 0.50766
 C7 C -0.10220 0.11824 0.53189
 H8 H -0.14697 0.11821 0.53254
 N9 N -0.04070 0.07678 0.51709
 C10 C -0.00208 -0.07600 0.50628
 H11 H 0.00146 -0.07170 0.48728
 C12 C -0.00145 -0.12748 0.51958
 H13 H 0.00361 -0.16244 0.51086
 C14 C -0.01726 -0.03826 0.54084
 H15 H -0.02592 -0.00498 0.54901
 C16 C -0.01678 -0.08886 0.55475
 H17 H -0.02381 -0.09353 0.57361
 Zn18 Zn -0.02610 0.02628 0.49791
 N19 N -0.01053 -0.03306 0.51703
 C20 C 0.10008 0.08300 0.47836
 N21 N 0.04465 0.08472 0.47876
 C22 C 0.03809 0.13192 0.46616
 C23 C 0.08821 0.17968 0.45221
 C24 C 0.15163 0.13009 0.46458
 C25 C -0.15121 -0.07170 0.48958
 C26 C -0.19950 -0.11816 0.47637
 C27 C -0.13665 -0.06266 0.44120
 C28 C -0.08960 -0.01752 0.45506
 N29 N -0.09713 -0.02335 0.47883
 H30 H 0.10459 0.04571 0.48886
 H31 H -0.00626 0.13249 0.46710
 H32 H 0.08245 0.21705 0.44226
 H33 H 0.19577 0.12875 0.46429
 H34 H -0.15519 -0.07614 0.50856
 H35 H -0.24121 -0.15785 0.48524
 H36 H -0.12886 -0.05867 0.42239
 H37 H -0.04560 0.01995 0.44690
 C38 C -0.00986 -0.13442 0.54400
 C39 C -0.04880 0.15992 0.54474
 C40 C -0.19145 -0.11430 0.45199
 C41 C 0.14551 0.17888 0.45144
 C42 C 1.15737 0.06980 0.13518
 H43 H 1.15807 0.11475 0.13555
 C44 C 1.20156 0.06664 0.12142
 H45 H 1.23629 0.10916 0.11104
 C46 C 1.11153 -0.04042 0.14852
 H47 H 1.07676 -0.08165 0.15934
 C48 C 1.15509 -0.04569 0.13494
 H49 H 1.15355 -0.09123 0.13513
 N50 N 1.11332 0.01674 0.14824
 C51 C 0.95819 0.05487 0.15718
 H52 H 0.95828 0.05594 0.17610
 C53 C 0.90851 0.05543 0.14363
 H54 H 0.87075 0.05796 0.15207
 C55 C 1.00431 0.04504 0.12322
 H56 H 1.03999 0.03816 0.11543
 C57 C 0.95568 0.04559 0.10906
 H58 H 0.95491 0.04036 0.09038
 Zn59 Zn 1.05901 0.03001 0.16667
 N60 N 1.00421 0.04872 0.14687
 C61 C 1.11174 0.15308 0.18483
 N62 N 1.11349 0.09770 0.18509
 C63 C 1.15757 0.08870 0.19811
 C64 C 1.20182 0.13608 0.21188
 C65 C 1.15536 0.20193 0.19843
 C66 C 0.95813 -0.09575 0.17621
 C67 C 0.90850 -0.14599 0.18979
 C68 C 0.95595 -0.08880 0.22434
 C69 C 1.00452 -0.03963 0.21015
 N70 N 1.00426 -0.04349 0.18649
 H71 H 1.07694 0.15952 0.17404
 H72 H 1.15823 0.04444 0.19772
 H73 H 1.23657 0.12830 0.22225
 H74 H 1.15385 0.24594 0.19828
 H75 H 0.95810 -0.09680 0.15730
 H76 H 0.87065 -0.18635 0.18138
 H77 H 0.95531 -0.08429 0.24301
 H78 H 1.04029 0.00300 0.21792
 C79 C 0.90666 0.04946 0.11943
 C80 C 1.20047 0.00846 0.12129
 C81 C 0.90682 -0.14178 0.21400
 C82 C 1.20077 0.19318 0.21206
 C83 C 0.03768 0.90532 0.86702
 H84 H -0.00664 0.86032 0.86603
 C85 C 0.08775 0.90777 0.88102
 H86 H 0.08198 0.86463 0.89097
 C87 C 0.09966 1.01635 0.85488
 H88 H 0.10417 1.05816 0.84438
 C89 C 0.15115 1.02090 0.86871
 H90 H 0.19525 1.06646 0.86904
 N91 N 0.04426 0.95911 0.85442
 C92 C -0.15157 0.91942 0.84348
 H93 H -0.15552 0.91990 0.82449
 C94 C -0.19983 0.91757 0.85667
 H95 H -0.24153 0.91558 0.84783
 C96 C -0.09003 0.92686 0.87804
 H97 H -0.04606 0.93342 0.88623
 C98 C -0.13709 0.92491 0.89186
 H99 H -0.12944 0.92874 0.91066
 Zn100 Zn -0.02645 0.94669 0.83522
 N101 N -0.09752 0.92517 0.85426
 C102 C -0.09732 0.82535 0.81516
 N103 N -0.04099 0.88159 0.81603
 C104 C 0.01126 0.89357 0.80373
 C105 C 0.00820 0.84840 0.78965
 C106 C -0.10246 0.77857 0.80119
 C107 C -0.00244 1.07302 0.82686
 C108 C -0.00178 1.12515 0.81356
 C109 C -0.01698 1.07122 0.77838
 C110 C -0.01748 1.02013 0.79230
 N111 N -0.01083 1.02164 0.81611
 H112 H -0.13786 0.81657 0.82540
 H113 H 0.05558 0.93841 0.80502
 H114 H 0.05017 0.85852 0.77994
 H115 H -0.14723 0.73377 0.80051
 H116 H 0.00104 1.07224 0.84587
 H117 H 0.00323 1.16515 0.82229
 H118 H -0.02394 1.06888 0.75951
 H119 H -0.02611 0.97820 0.78412
 C120 C -0.19180 0.92174 0.88104
 C121 C 0.14500 0.96598 0.88185
 C122 C -0.01012 1.12369 0.78914
 C123 C -0.04902 0.79037 0.78838
 O124 O 0.49504 0.04264 0.01897
 O125 O 0.58959 0.02607 -0.02620
 O126 O 0.48542 0.03337 -0.02615
 O127 O 0.60632 0.04918 0.01806
 O128 O 0.55602 -0.05564 0.02648
 O129 O 0.43172 -0.07141 -0.01761
 O130 O 0.53613 -0.07874 -0.01778
 O131 O 0.44498 -0.06216 0.02750
 Cu132 Cu 0.54936 0.04818 -0.00464
 Cu133 Cu 0.48721 -0.07736 0.00546
 C134 C 0.45332 -0.00753 0.03085
 C135 C 0.57861 -0.02973 -0.02967
 C136 C 0.43744 -0.02109 -0.02930
 C137 C 0.60255 0.00005 0.02977
 O138 O -0.08753 0.39627 0.68974
 O139 O -0.08748 0.51539 0.64335
 O140 O -0.09449 0.40388 0.64394
 O141 O -0.09453 0.50076 0.68915
 O142 O 0.01108 0.55518 0.68908
 O143 O 0.01112 0.45521 0.64407
 O144 O 0.01812 0.56643 0.64336
 O145 O 0.01807 0.45097 0.68980
 Cu146 Cu -0.10146 0.44884 0.66654
 Cu147 Cu 0.02500 0.51216 0.66658
 C148 C -0.03411 0.40359 0.69763
 C149 C -0.03404 0.56157 0.63550
 C150 C -0.04217 0.41215 0.63637
 C151 C -0.04222 0.54488 0.69675
 O152 O 0.59042 0.56437 0.35977
 O153 O 0.49555 0.45329 0.31457
 O154 O 0.60691 0.55808 0.31550
 O155 O 0.48611 0.45281 0.35970
 O156 O 0.43251 0.50394 0.35123
 O157 O 0.55672 0.61265 0.30715
 O158 O 0.44559 0.50808 0.30611
 O159 O 0.53705 0.61577 0.35143
 Cu160 Cu 0.55000 0.50203 0.33819
 Cu161 Cu 0.48798 0.56549 0.32818
 C162 C 0.57955 0.60922 0.36328
 C163 C 0.45385 0.46179 0.30271
 C164 C 0.60317 0.60348 0.30382
 C165 C 0.43820 0.45928 0.36289
 C166 C -0.04863 0.28623 0.58704
 C167 C -0.10532 0.28109 0.59461
 C168 C -0.10304 0.32280 0.61035
 C169 C -0.05150 0.20386 0.55921
 C170 C 0.01292 0.37569 0.61081
 C171 C 0.01049 0.33384 0.59505
 C172 C -0.05103 0.24139 0.57171
 C173 C -0.04390 0.37027 0.61880
 H174 H -0.15132 0.24436 0.58856
 H175 H -0.14771 0.31731 0.61613
 H176 H 0.05913 0.41162 0.61699
 H177 H 0.05470 0.33812 0.58933
 C178 C 0.75439 0.72905 0.25515
 C179 C 0.70436 0.74088 0.25862
 C180 C 0.65439 0.69960 0.27418
 C181 C 0.85276 0.81106 0.22801
 C182 C 0.70419 0.63424 0.28260
 C183 C 0.75392 0.67545 0.26706
 C184 C 0.80758 0.77317 0.24014
 C185 C 0.65408 0.64608 0.28650
 H186 H 0.70440 0.78242 0.24953
 H187 H 0.61659 0.71004 0.27680
 H188 H 0.70544 0.59345 0.29175
 H189 H 0.79245 0.66592 0.26456
 C190 C 0.29032 -0.02914 -0.07686
 C191 C 0.28218 -0.08529 -0.06407
 C192 C 0.33054 -0.08329 -0.04892
 C193 C 0.19699 -0.03139 -0.10386
 C194 C 0.39555 0.03091 -0.05963
 C195 C 0.34729 0.02877 -0.07474
 C196 C 0.23972 -0.03037 -0.09167
 C197 C 0.38754 -0.02496 -0.04637
 H198 H 0.23817 -0.13041 -0.06558
 H199 H 0.32287 -0.12704 -0.03893
 H200 H 0.43884 0.07662 -0.05812
 H201 H 0.35409 0.07248 -0.08454
 C202 C -0.02405 0.71114 0.58536
 C203 C 0.03150 0.70942 0.59221
 C204 C 0.02783 0.65992 0.60811
 C205 C -0.01457 0.81048 0.55799
 C206 C -0.08748 0.61251 0.61007
 C207 C -0.08364 0.66231 0.59414
 C208 C -0.01918 0.76469 0.57020
 C209 C -0.03160 0.61125 0.61745
 H210 H 0.07785 0.74699 0.58557
 H211 H 0.07180 0.66038 0.61335
 H212 H -0.13386 0.57585 0.61696
 H213 H -0.12697 0.66332 0.58899
 C214 C 0.32952 0.32846 0.25383
 C215 C 0.37458 0.31752 0.26673
 C216 C 0.41626 0.36153 0.28230
 C217 C 0.24619 0.24204 0.22637
 C218 C 0.36844 0.42796 0.27177
 C219 C 0.32696 0.38401 0.25624
 C220 C 0.28444 0.28180 0.23872
 C221 C 0.41315 0.41694 0.28517
 H222 H 0.37687 0.27455 0.26501
 H223 H 0.45002 0.35162 0.29238
 H224 H 0.36477 0.47014 0.27352
 H225 H 0.29228 0.39294 0.24636
 C226 C 0.69003 -0.05613 -0.07909
 C227 C 0.70351 0.00586 -0.07552
 C228 C 0.66662 0.01477 -0.05978
 C229 C 0.76594 -0.07228 -0.10599
 C230 C 0.60213 -0.10044 -0.05140
 C231 C 0.63897 -0.10919 -0.06714
 C232 C 0.73052 -0.06527 -0.09403
 C233 C 0.61591 -0.03834 -0.04735
 H234 H 0.74317 0.04732 -0.08463
 H235 H 0.67847 0.06312 -0.05704
 H236 H 0.56337 -0.14242 -0.04217
 H237 H 0.62824 -0.15734 -0.06968
 C238 C 0.32914 0.00177 0.07962
 C239 C 0.32656 -0.05639 0.07729
 C240 C 0.36799 -0.05895 0.06180
 C241 C 0.24586 0.00499 0.10700
 C242 C 0.41585 0.05532 0.05116
 C243 C 0.37420 0.05774 0.06669
 C244 C 0.28409 0.00343 0.09469
 C245 C 0.41270 -0.00326 0.04836
 H246 H 0.29187 -0.09998 0.08719
 H247 H 0.36430 -0.10484 0.06011
 H248 H 0.44960 0.09895 0.04104
 H249 H 0.37651 0.10304 0.06835
 C250 C 0.69155 0.74719 0.41267
 C251 C 0.70488 0.69862 0.40907
 C252 C 0.66778 0.65276 0.39334
 C253 C 0.76791 0.83938 0.43953
 C254 C 0.60340 0.70355 0.38506
 C255 C 0.64045 0.74919 0.40077
 C256 C 0.73227 0.79690 0.42759
 C257 C 0.61703 0.65516 0.38096
 H258 H 0.74456 0.69681 0.41813
 H259 H 0.67951 0.61621 0.39057
 H260 H 0.56462 0.70677 0.37586
 H261 H 0.62985 0.78667 0.40335
 C262 C -0.02422 0.26396 0.74777
 C263 C 0.03134 0.32131 0.74095
 C264 C 0.02771 0.36717 0.72505
 C265 C -0.01479 0.17409 0.77514
 C266 C -0.08760 0.29911 0.72302
 C267 C -0.08379 0.25312 0.73895
 C268 C -0.01938 0.21528 0.76293
 C269 C -0.03170 0.35634 0.71568
 H270 H 0.07768 0.33016 0.74761
 H271 H 0.07168 0.41074 0.71983
 H272 H -0.13397 0.28932 0.71611
 H273 H -0.12713 0.20872 0.74408
 C274 C 0.75401 0.02598 0.07837
 C275 C 0.70389 -0.03595 0.07495
 C276 C 0.65383 -0.04473 0.05941
 C277 C 0.85253 0.04248 0.10544
 C278 C 0.70373 0.07049 0.05093
 C279 C 0.75355 0.07910 0.06645
 C280 C 0.80728 0.03513 0.09334
 C281 C 0.65353 0.00846 0.04707
 H282 H 0.70392 -0.07745 0.08405
 H283 H 0.61597 -0.09303 0.05682
 H284 H 0.70499 0.11252 0.04176
 H285 H 0.79214 0.12721 0.06891
 C286 C 0.29100 0.31980 0.41033
 C287 C 0.34796 0.31894 0.40822
 C288 C 0.39626 0.36521 0.39315
 C289 C 0.19757 0.22841 0.43722
 C290 C 0.33130 0.41438 0.38248
 C291 C 0.28291 0.36788 0.39759
 C292 C 0.24034 0.27026 0.42508
 C293 C 0.38829 0.41313 0.37993
 H294 H 0.35474 0.28199 0.41799
 H295 H 0.43954 0.36285 0.39164
 H296 H 0.32366 0.45052 0.37252
 H297 H 0.23890 0.36892 0.39909
 C298 C -0.04877 0.66428 0.74608
 C299 C 0.01037 0.67588 0.73810
 C300 C 0.01282 0.63648 0.72234
 C301 C -0.05169 0.74375 0.77391
 C302 C -0.10314 0.57324 0.72274
 C303 C -0.10544 0.61266 0.73848
 C304 C -0.05120 0.70670 0.76141
 C305 C -0.04399 0.58500 0.71433
 H306 H 0.05456 0.71586 0.74385
 H307 H 0.05905 0.64683 0.71619
 H308 H -0.14779 0.53401 0.71694
 H309 H -0.15145 0.60332 0.74450
   
