data_POSCAR
  _audit_creation_date              2014-09-24
  _audit_creation_method            'ToBaCCo'
  _symmetry_space_group_name_H-M    'P1'
  _symmetry_Int_Tables_number       1
  _symmetry_cell_setting            triclinic
  loop_
  _symmetry_equiv_pos_as_xyz
 x,y,z
_cell_length_a 36.6323
_cell_length_b 20.9781
_cell_length_c 14.5514
_cell_angle_alpha 89.602100
_cell_angle_beta 89.820600
_cell_angle_gamma 89.796400
loop_
  _atom_site_label
  _atom_site_type_symbol
  _atom_site_fract_x
  _atom_site_fract_y
  _atom_site_fract_z
C1 C 0.67737 0.29391 0.57453
 C2 C 0.66003 0.30395 0.48973
 C3 C 0.67618 0.28577 0.40674
 C4 C 0.71009 0.25367 0.40777
 C5 C 0.72831 0.24308 0.49243
 C6 C 0.71174 0.26224 0.57630
 C7 C 0.72966 0.24809 0.65938
 C8 C 0.76442 0.22099 0.65984
 C9 C 0.78230 0.20521 0.57729
 C10 C 0.76366 0.21489 0.49280
 C11 C 0.72649 0.23302 0.32587
 C12 C 0.76156 0.20795 0.32576
 C13 C 0.78098 0.19957 0.40818
 C14 C 0.81800 0.18024 0.40798
 C15 C 0.83650 0.17378 0.49153
 C16 C 0.81914 0.18411 0.57614
 H17 H 0.71729 0.25927 0.72496
 H18 H 0.77755 0.21430 0.72571
 H19 H 0.71283 0.23818 0.26038
 H20 H 0.77351 0.19662 0.25981
 H21 H 0.63406 0.32903 0.48780
 H22 H 0.86493 0.15882 0.49071
 C23 C 0.17877 0.79338 0.59319
 C24 C 0.16132 0.80918 0.51079
 C25 C 0.17660 0.79417 0.42549
 C26 C 0.21059 0.76184 0.42199
 C27 C 0.22918 0.74713 0.50506
 C28 C 0.21280 0.76139 0.59100
 C29 C 0.23076 0.74314 0.67229
 C30 C 0.26520 0.71489 0.66949
 C31 C 0.28312 0.70429 0.58530
 C32 C 0.26430 0.71839 0.50215
 C33 C 0.22659 0.74436 0.33782
 C34 C 0.26104 0.71615 0.33488
 C35 C 0.28046 0.70358 0.41606
 C36 C 0.31556 0.67592 0.41377
 C37 C 0.33389 0.66315 0.49548
 C38 C 0.31869 0.67732 0.58134
 H39 H 0.21842 0.75103 0.73894
 H40 H 0.27777 0.70170 0.73410
 H41 H 0.21273 0.75301 0.27334
 H42 H 0.27245 0.70440 0.26835
 H43 H 0.13550 0.83466 0.51311
 H44 H 0.36114 0.64267 0.49181
 C45 C 0.18737 0.17373 -0.41922
 C46 C 0.17081 0.15745 -0.50185
 C47 C 0.18460 0.17723 -0.58766
 C48 C 0.21654 0.21571 -0.58970
 C49 C 0.23458 0.23038 -0.50599
 C50 C 0.22015 0.20866 -0.42069
 C51 C 0.23851 0.22314 -0.33889
 C52 C 0.27002 0.25984 -0.34022
 C53 C 0.28433 0.28320 -0.42343
 C54 C 0.26660 0.26841 -0.50721
 C55 C 0.23001 0.24256 -0.67187
 C56 C 0.26265 0.27608 -0.67375
 C57 C 0.28120 0.29056 -0.59221
 C58 C 0.31448 0.32505 -0.59278
 C59 C 0.33116 0.33950 -0.50914
 C60 C 0.31629 0.32039 -0.42522
 H61 H 0.22855 0.20626 -0.27299
 H62 H 0.28314 0.26970 -0.27531
 H63 H 0.21580 0.23726 -0.73626
 H64 H 0.27279 0.29132 -0.74012
 H65 H 0.14600 0.12931 -0.49893
 H66 H 0.35648 0.36629 -0.50930
 C67 C -0.31871 0.68981 -0.41154
 C68 C -0.33386 0.66953 -0.49435
 C69 C -0.31766 0.68206 -0.58003
 C70 C -0.28560 0.71999 -0.58345
 C71 C -0.26907 0.73967 -0.49979
 C72 C -0.28547 0.72409 -0.41368
 C73 C -0.26736 0.74053 -0.33214
 C74 C -0.23455 0.77346 -0.33444
 C75 C -0.21796 0.78975 -0.41833
 C76 C -0.23523 0.77280 -0.50196
 C77 C -0.26839 0.73578 -0.66713
 C78 C -0.23631 0.77119 -0.66918
 C79 C -0.21857 0.78851 -0.58759
 C80 C -0.18501 0.82237 -0.58871
 C81 C -0.16894 0.83913 -0.50510
 C82 C -0.18432 0.82230 -0.42075
 H83 H -0.27832 0.72771 -0.26544
 H84 H -0.22207 0.78561 -0.26956
 H85 H -0.27935 0.72073 -0.73228
 H86 H -0.22501 0.78357 -0.73571
 H87 H -0.35932 0.64312 -0.49212
 H88 H -0.14305 0.86424 -0.50550
 O89 O -0.05472 0.89373 0.16441
 O90 O -0.09321 0.95559 0.07640
 C91 C -0.08690 0.91357 0.14048
 O92 O 0.05130 1.11810 0.15259
 O93 O 0.09182 1.05163 0.08102
 C94 C 0.08423 1.09824 0.13641
 O95 O -0.05023 1.11745 0.15800
 O96 O -0.09118 1.06257 0.07018
 C97 C -0.08326 1.10395 0.13303
 O98 O 0.04721 0.88354 0.16529
 O99 O 0.08956 0.94050 0.08435
 C100 C 0.08087 0.89811 0.14563
 Zr101 Zr -0.00267 0.92316 0.11791
 O102 O -0.00097 0.93228 0.26281
 O103 O -0.00492 0.82292 0.13376
 Zr104 Zr 0.00050 1.08356 0.10910
 O105 O 0.00317 1.08692 0.25430
 O106 O -0.00130 1.18437 0.10282
 O107 O -0.03400 1.00589 0.12945
 O108 O 0.03054 1.00157 0.13286
 O109 O 0.05086 0.87890 -0.15237
 O110 O 0.09142 0.93837 -0.07104
 C111 C 0.08400 0.89406 -0.12944
 O112 O -0.04641 1.11001 -0.18066
 O113 O -0.08937 1.06071 -0.09034
 C114 C -0.08002 1.09974 -0.15607
 O115 O 0.05560 1.10823 -0.16695
 O116 O 0.09385 1.04722 -0.07736
 C117 C 0.08778 1.08931 -0.14128
 O118 O -0.05096 0.88941 -0.16712
 O119 O -0.09127 0.95300 -0.08820
 C120 C -0.08365 0.90959 -0.14854
 Zr121 Zr -0.00014 0.91832 -0.11309
 O122 O 0.00514 0.91430 -0.25794
 O123 O -0.00533 0.81790 -0.10634
 Zr124 Zr 0.00325 1.07947 -0.12074
 O125 O 0.00732 1.08577 -0.26534
 O126 O 0.00206 1.18026 -0.11392
 Zr127 Zr -0.05463 1.00491 -0.00579
 Zr128 Zr 0.05487 0.99716 0.00192
 O129 O 0.03325 0.99626 -0.13209
 O130 O -0.03072 1.00080 -0.13785
 O131 O 0.03097 0.90580 0.00517
 O132 O -0.02995 1.09539 -0.00859
 O133 O -0.03366 0.91142 0.00056
 O134 O 0.03509 1.09158 -0.00422
 H135 H 0.04639 1.00162 0.18792
 H136 H -0.04566 1.13391 -0.01116
 H137 H 0.04983 0.99373 -0.18587
 H138 H -0.05103 0.87536 0.00033
 H139 H 0.01949 1.19896 0.06474
 H140 H 0.02598 1.19498 -0.09132
 H141 H 0.00244 1.04266 -0.28899
 H142 H -0.01495 0.93984 -0.28494
 H143 H 0.01440 0.80149 -0.06621
 H144 H -0.01458 0.80524 0.07606
 H145 H -0.02442 0.95103 0.28332
 H146 H -0.01681 1.06007 0.27878
 O147 O 0.44711 0.38269 0.15032
 O148 O 0.40840 0.44845 0.07133
 C149 C 0.41453 0.40331 0.13039
 O150 O 0.55368 0.59987 0.17384
 O151 O 0.59356 0.54113 0.08595
 C152 C 0.58630 0.58081 0.15193
 O153 O 0.45182 0.60248 0.17537
 O154 O 0.41097 0.55265 0.08079
 C155 C 0.41888 0.58935 0.14903
 O156 O 0.54931 0.36891 0.14287
 O157 O 0.59135 0.43152 0.06964
 C158 C 0.58281 0.38451 0.12386
 Zr159 Zr 0.49937 0.41141 0.10319
 O160 O 0.50197 0.40020 0.24778
 O161 O 0.49557 0.31185 0.08422
 Zr162 Zr 0.50250 0.57276 0.11951
 O163 O 0.50261 0.57419 0.26473
 O164 O 0.50384 0.67333 0.11278
 O165 O 0.46862 0.49311 0.12964
 O166 O 0.53216 0.48879 0.12914
 O167 O 0.55128 0.38784 -0.17294
 O168 O 0.59265 0.44121 -0.08528
 C169 C 0.58464 0.40105 -0.14960
 O170 O 0.45361 0.61806 -0.16531
 O171 O 0.41193 0.55861 -0.08385
 C172 C 0.42054 0.60034 -0.14613
 O173 O 0.55529 0.61918 -0.15108
 O174 O 0.59433 0.55139 -0.07442
 C175 C 0.58764 0.59807 -0.13115
 O176 O 0.44903 0.39961 -0.18093
 O177 O 0.40943 0.45337 -0.08782
 C178 C 0.41616 0.41562 -0.15570
 Zr179 Zr 0.50068 0.42416 -0.12660
 O180 O 0.50509 0.43176 -0.27143
 O181 O 0.49579 0.32397 -0.13686
 Zr182 Zr 0.50360 0.58491 -0.10971
 O183 O 0.50845 0.59745 -0.25356
 O184 O 0.50109 0.68498 -0.09204
 Zr185 Zr 0.44704 0.50128 -0.00406
 Zr186 Zr 0.55623 0.49432 -0.00199
 O187 O 0.53384 0.50332 -0.13462
 O188 O 0.46988 0.50729 -0.13707
 O189 O 0.53258 0.40332 -0.01227
 O190 O 0.47086 0.59212 0.00533
 O191 O 0.46788 0.40805 -0.01329
 O192 O 0.53646 0.58869 0.00698
 H193 H 0.54742 0.48373 0.18443
 H194 H 0.45455 0.62987 0.00772
 H195 H 0.55024 0.50500 -0.18883
 H196 H 0.45074 0.37172 -0.01690
 H197 H 0.50278 0.68815 0.17722
 H198 H 0.52265 0.69757 -0.05571
 H199 H 0.49355 0.56396 -0.28243
 H200 H 0.48421 0.45759 -0.29356
 H201 H 0.51252 0.30488 -0.09094
 H202 H 0.49455 0.29267 0.14660
 H203 H 0.48265 0.42746 0.27468
 H204 H 0.50339 0.52930 0.28549
 C205 C 0.39252 0.32731 0.24816
 C206 C 0.36869 0.30985 0.31770
 C207 C 0.33448 0.33905 0.32671
 C208 C 0.32325 0.38426 0.25937
 C209 C 0.34685 0.39927 0.18421
 C210 C 0.38340 0.37494 0.18376
 C211 C 0.33277 0.43893 0.11410
 N212 N 0.29949 0.46663 0.12379
 N213 N 0.27900 0.45700 0.19819
 C214 C 0.28981 0.41711 0.26650
 H215 H 0.41928 0.30517 0.24847
 H216 H 0.37770 0.27450 0.36753
 H217 H 0.34700 0.44716 0.05049
 H218 H 0.27198 0.41086 0.32521
 C219 C -0.13541 0.92993 0.25378
 C220 C -0.15950 0.90754 0.32023
 C221 C -0.16661 0.84204 0.33047
 C222 C -0.14949 0.79858 0.26891
 C223 C -0.12557 0.82214 0.19945
 C224 C -0.11789 0.88816 0.19385
 C225 C -0.10891 0.77841 0.13966
 N226 N -0.11482 0.71508 0.15081
 N227 N -0.13600 0.69266 0.21809
 C228 C -0.15318 0.73203 0.27796
 H229 H -0.12816 0.97976 0.25416
 H230 H -0.17137 0.94160 0.36755
 H231 H -0.09122 0.79406 0.08433
 H232 H -0.16930 0.71076 0.33226
 C233 C 0.62688 0.66695 0.20772
 C234 C 0.65102 0.69207 0.27243
 C235 C 0.66594 0.65338 0.34231
 C236 C 0.65759 0.58714 0.34281
 C237 C 0.63195 0.56247 0.27975
 C238 C 0.61652 0.60271 0.21136
 C239 C 0.62131 0.49860 0.29049
 N240 N 0.63642 0.46154 0.35695
 N241 N 0.66222 0.48350 0.41228
 C242 C 0.67379 0.54460 0.40641
 H243 H 0.61472 0.69868 0.15727
 H244 H 0.65588 0.74298 0.27174
 H245 H 0.60123 0.47762 0.24688
 H246 H 0.69521 0.55967 0.45233
 C247 C 0.10185 1.16132 0.27124
 C248 C 0.12599 1.17898 0.33898
 C249 C 0.16314 1.16310 0.33401
 C250 C 0.17623 1.13212 0.25321
 C251 C 0.15162 1.11837 0.18017
 C252 C 0.11350 1.12791 0.19309
 C253 C 0.16634 1.09651 0.09674
 N254 N 0.20258 1.08402 0.08983
 N255 N 0.22488 1.09034 0.16126
 C256 C 0.21275 1.11224 0.24334
 H257 H 0.07329 1.17201 0.28318
 H258 H 0.11510 1.20434 0.39778
 H259 H 0.14981 1.09108 0.03610
 H260 H 0.23198 1.11540 0.29927
 C261 C 0.60282 0.31663 -0.25808
 C262 C 0.62449 0.29175 -0.32739
 C263 C 0.65918 0.31623 -0.34592
 C264 C 0.67275 0.36605 -0.28967
 C265 C 0.65082 0.39089 -0.21653
 C266 C 0.61416 0.36856 -0.20458
 C267 C 0.66650 0.43820 -0.16083
 N268 N 0.70012 0.46148 -0.18045
 N269 N 0.71944 0.44099 -0.25193
 C270 C 0.70681 0.39464 -0.30754
 H271 H 0.57589 0.29623 -0.24944
 H272 H 0.61360 0.25345 -0.36868
 H273 H 0.65304 0.45770 -0.10192
 H274 H 0.72358 0.38079 -0.36529
 C275 C 0.10450 0.80666 -0.23066
 C276 C 0.12697 0.78305 -0.29953
 C277 C 0.16011 0.81241 -0.32041
 C278 C 0.17257 0.86284 -0.26454
 C279 C 0.15057 0.88491 -0.19027
 C280 C 0.11436 0.86044 -0.17913
 C281 C 0.16584 0.93125 -0.13218
 N282 N 0.19900 0.95661 -0.15150
 N283 N 0.21828 0.93879 -0.22458
 C284 C 0.20614 0.89306 -0.28196
 H285 H 0.07802 0.78461 -0.22170
 H286 H 0.11734 0.74378 -0.34086
 H287 H 0.15267 0.94729 -0.07070
 H288 H 0.22306 0.88042 -0.34005
 C289 C 0.37719 0.57940 -0.26808
 C290 C 0.35177 0.59757 -0.33346
 C291 C 0.33974 0.66106 -0.34077
 C292 C 0.35376 0.70693 -0.27830
 C293 C 0.37931 0.68751 -0.21007
 C294 C 0.39118 0.62341 -0.20625
 C295 C 0.39287 0.73334 -0.14929
 N296 N 0.38236 0.79510 -0.15814
 N297 N 0.35948 0.81395 -0.22398
 C298 C 0.34513 0.77226 -0.28478
 H299 H 0.38715 0.53074 -0.26811
 H300 H 0.34208 0.56177 -0.38089
 H301 H 0.41183 0.72060 -0.09524
 H302 H 0.32736 0.79077 -0.33778
 C303 C -0.14387 1.10526 -0.21583
 C304 C -0.16868 1.12536 -0.28281
 C305 C -0.15983 1.17516 -0.34370
 C306 C -0.12746 1.21042 -0.32853
 C307 C -0.10274 1.19088 -0.25898
 C308 C -0.10932 1.13360 -0.20873
 C309 C -0.07293 1.23083 -0.24025
 N310 N -0.06727 1.28428 -0.29114
 N311 N -0.08981 1.30134 -0.35855
 C312 C -0.11980 1.26658 -0.37852
 H313 H -0.15100 1.06483 -0.17296
 H314 H -0.19373 1.09874 -0.29145
 H315 H -0.05509 1.22204 -0.18297
 H316 H -0.13802 1.28423 -0.43121
 C317 C 0.63553 0.58243 -0.24576
 C318 C 0.65785 0.60487 -0.31602
 C319 C 0.66343 0.67053 -0.32965
 C320 C 0.64674 0.71417 -0.26765
 C321 C 0.62436 0.69068 -0.19494
 C322 C 0.61804 0.62441 -0.18590
 C323 C 0.60801 0.73460 -0.13499
 N324 N 0.61280 0.79800 -0.14878
 N325 N 0.63260 0.82027 -0.21879
 C326 C 0.64941 0.78071 -0.27905
 H327 H 0.62945 0.53205 -0.24303
 H328 H 0.66974 0.57053 -0.36288
 H329 H 0.59158 0.71898 -0.07720
 H330 H 0.66448 0.80175 -0.33544
 C331 C 0.13914 1.06999 -0.24644
 C332 C 0.16347 1.09050 -0.31401
 C333 C 0.16778 1.15559 -0.33330
 C334 C 0.14879 1.20096 -0.27907
 C335 C 0.12498 1.17983 -0.20815
 C336 C 0.11907 1.11382 -0.19461
 C337 C 0.10718 1.22569 -0.15409
 N338 N 0.11194 1.28859 -0.17231
 N339 N 0.13322 1.30852 -0.24101
 C340 C 0.15162 1.26697 -0.29529
 H341 H 0.13380 1.01954 -0.23969
 H342 H 0.17724 1.05520 -0.35582
 H343 H 0.08992 1.21200 -0.09694
 H344 H 0.16827 1.28605 -0.35029
 C345 C 0.39383 0.33294 -0.26079
 C346 C 0.36995 0.30929 -0.32572
 C347 C 0.33646 0.33892 -0.34158
 C348 C 0.32538 0.39038 -0.28568
 C349 C 0.34930 0.41409 -0.21689
 C350 C 0.38528 0.38737 -0.20880
 C351 C 0.33613 0.46450 -0.16194
 N352 N 0.30258 0.48989 -0.17721
 N353 N 0.28095 0.46867 -0.24340
 C354 C 0.29125 0.42000 -0.29832
 H355 H 0.42010 0.30950 -0.25428
 H356 H 0.37854 0.26944 -0.36770
 H357 H 0.35142 0.48496 -0.10705
 H358 H 0.27249 0.40462 -0.35086
 C359 C -0.13552 0.92633 -0.25282
 C360 C -0.16020 0.90526 -0.31825
 C361 C -0.16357 0.84025 -0.33735
 C362 C -0.14292 0.79538 -0.28574
 C363 C -0.11838 0.81698 -0.21743
 C364 C -0.11382 0.88325 -0.20343
 C365 C -0.09888 0.77130 -0.16607
 N366 N -0.10295 0.70840 -0.18421
 N367 N -0.12514 0.68822 -0.25016
 C368 C -0.14512 0.72950 -0.30180
 H369 H -0.13140 0.97687 -0.24553
 H370 H -0.17526 0.94023 -0.35826
 H371 H -0.08075 0.78494 -0.11116
 H372 H -0.16261 0.71038 -0.35449
 C373 C 0.36385 0.57365 0.24328
 C374 C 0.33764 0.59486 0.30540
 C375 C 0.33531 0.65944 0.32830
 C376 C 0.35818 0.70402 0.28307
 C377 C 0.38474 0.68239 0.21932
 C378 C 0.38834 0.61631 0.20225
 C379 C 0.40706 0.72782 0.17556
 N380 N 0.40327 0.79050 0.19597
 N381 N 0.37875 0.81067 0.25709
 C382 C 0.35617 0.76959 0.30159
 H383 H 0.36675 0.52303 0.23218
 H384 H 0.32080 0.56008 0.34086
 H385 H 0.42721 0.71419 0.12485
 H386 H 0.33664 0.78855 0.35026
 C387 C -0.14573 1.10133 0.20005
 C388 C -0.16941 1.11843 0.27105
 C389 C -0.16182 1.17118 0.32653
 C390 C -0.13223 1.21153 0.30269
 C391 C -0.10858 1.19450 0.22967
 C392 C -0.11344 1.13548 0.18419
 C393 C -0.08127 1.23802 0.20331
 N394 N -0.07710 1.29329 0.24980
 N395 N -0.09872 1.30850 0.32002
 C396 C -0.12624 1.26979 0.34768
 H397 H -0.15136 1.05838 0.16192
 H398 H -0.19246 1.08788 0.28655
 H399 H -0.06422 1.22994 0.14394
 H400 H -0.14382 1.28573 0.40277
 C401 C 0.60070 0.29936 0.23393
 C402 C 0.62270 0.27719 0.30489
 C403 C 0.65698 0.30374 0.32028
 C404 C 0.67089 0.34936 0.25693
 C405 C 0.64926 0.36939 0.18076
 C406 C 0.61218 0.34888 0.17480
 C407 C 0.66556 0.41061 0.11583
 N408 N 0.69941 0.43422 0.13061
 N409 N 0.71838 0.41921 0.20554
 C410 C 0.70525 0.37785 0.26927
 H411 H 0.57339 0.28005 0.22957
 H412 H 0.61197 0.24136 0.35162
 H413 H 0.65270 0.42281 0.05190
 H414 H 0.72184 0.36782 0.32892
 C415 C 0.09924 0.81482 0.25849
 C416 C 0.12181 0.79023 0.32681
 C417 C 0.15633 0.81587 0.34228
 C418 C 0.16933 0.86484 0.28345
 C419 C 0.14715 0.88795 0.20984
 C420 C 0.11028 0.86584 0.20148
 C421 C 0.16319 0.93242 0.14896
 N422 N 0.19747 0.95394 0.16377
 N423 N 0.21697 0.93543 0.23605
 C424 C 0.20388 0.89229 0.29701
 H425 H 0.07211 0.79489 0.25300
 H426 H 0.11153 0.75248 0.37094
 H427 H 0.15009 0.94947 0.08798
 H428 H 0.22092 0.87939 0.35469
   
