data_POSCAR
  _audit_creation_date              2014-09-24
  _audit_creation_method            'ToBaCCo'
  _symmetry_space_group_name_H-M    'P1'
  _symmetry_Int_Tables_number       1
  _symmetry_cell_setting            triclinic
  loop_
  _symmetry_equiv_pos_as_xyz
 x,y,z
_cell_length_a 49.3385
_cell_length_b 49.5545
_cell_length_c 49.7834
_cell_angle_alpha 90.774100
_cell_angle_beta 90.148700
_cell_angle_gamma 89.781300
loop_
  _atom_site_label
  _atom_site_type_symbol
  _atom_site_fract_x
  _atom_site_fract_y
  _atom_site_fract_z
N1 N 0.30465 0.25374 0.22882
 N2 N 0.28995 0.27238 0.21710
 C3 C 0.30304 0.28103 0.19519
 C4 C 0.32717 0.26688 0.19283
 C5 C 0.32750 0.24969 0.21456
 H6 H 0.29511 0.29579 0.18140
 H7 H 0.34306 0.23513 0.21947
 Cu8 Cu 0.25420 0.28226 0.23015
 Cu9 Cu 0.29249 0.23563 0.26111
 Cu10 Cu 0.23271 0.25895 0.28961
 N11 N 0.22295 0.29774 0.24829
 N12 N 0.21477 0.28889 0.27166
 C13 C 0.19254 0.30282 0.27925
 C14 C 0.18636 0.32132 0.25949
 C15 C 0.20616 0.31749 0.24015
 H16 H 0.18123 0.29918 0.29741
 H17 H 0.20819 0.32824 0.22151
 N18 N 0.25389 0.22879 0.30457
 N19 N 0.27673 0.22002 0.29376
 C20 C 0.28581 0.19876 0.30780
 C21 C 0.26779 0.19375 0.32843
 C22 C 0.24780 0.21326 0.32571
 H23 H 0.30371 0.18715 0.30276
 H24 H 0.22989 0.21571 0.33797
 H25 H 0.25114 0.24121 0.25656
 H26 H 0.27022 0.26878 0.27420
 N27 N 0.69684 -0.24776 0.22454
 N28 N 0.70873 -0.26925 0.21424
 C29 C 0.69646 -0.27592 0.19092
 C30 C 0.67589 -0.25738 0.18605
 C31 C 0.67689 -0.23972 0.20794
 H32 H 0.70269 -0.29254 0.17808
 H33 H 0.66388 -0.22253 0.21184
 Cu34 Cu 0.74002 -0.28553 0.23155
 Cu35 Cu 0.70774 -0.23220 0.25903
 Cu36 Cu 0.76244 -0.26213 0.29119
 N37 N 0.77127 -0.30154 0.24917
 N38 N 0.77940 -0.29284 0.27287
 C39 C 0.80133 -0.30709 0.28042
 C40 C 0.80768 -0.32563 0.26016
 C41 C 0.78800 -0.32141 0.24064
 H42 H 0.81238 -0.30333 0.29884
 H43 H 0.78596 -0.33187 0.22158
 N44 N 0.74260 -0.23081 0.30629
 N45 N 0.72174 -0.21955 0.29407
 C46 C 0.71320 -0.19820 0.30881
 C47 C 0.72958 -0.19570 0.33129
 C48 C 0.74802 -0.21673 0.32901
 H49 H 0.69693 -0.18478 0.30307
 H50 H 0.76444 -0.22117 0.34268
 H51 H 0.74804 -0.24387 0.25691
 H52 H 0.72441 -0.26708 0.27443
 N53 N 0.69754 0.25918 0.77334
 N54 N 0.71229 0.27759 0.78566
 C55 C 0.69934 0.28597 0.80805
 C56 C 0.67527 0.27185 0.81000
 C57 C 0.67484 0.25501 0.78758
 H58 H 0.70728 0.30056 0.82233
 H59 H 0.65927 0.24063 0.78214
 Cu60 Cu 0.74780 0.28774 0.77247
 Cu61 Cu 0.70932 0.24141 0.74030
 Cu62 Cu 0.76795 0.26548 0.71138
 N63 N 0.77852 0.30349 0.75416
 N64 N 0.78582 0.29536 0.73003
 C65 C 0.80766 0.30946 0.72237
 C66 C 0.81477 0.32733 0.74299
 C67 C 0.79560 0.32287 0.76283
 H68 H 0.81810 0.30609 0.70357
 H69 H 0.79405 0.33288 0.78218
 N70 N 0.74697 0.23523 0.69583
 N71 N 0.72458 0.22615 0.70690
 C72 C 0.71572 0.20466 0.69263
 C73 C 0.73344 0.19979 0.67158
 C74 C 0.75301 0.21964 0.67426
 H75 H 0.69830 0.19270 0.69788
 H76 H 0.77070 0.22218 0.66180
 H77 H 0.75078 0.24719 0.74423
 H78 H 0.73085 0.27497 0.72827
 N79 N 0.29718 -0.23834 0.77714
 N80 N 0.28078 -0.25360 0.79103
 C81 C 0.29162 -0.25774 0.81547
 C82 C 0.31621 -0.24437 0.81698
 C83 C 0.31906 -0.23231 0.79222
 H84 H 0.28241 -0.26983 0.83085
 H85 H 0.33555 -0.21963 0.78583
 Cu86 Cu 0.24680 -0.26679 0.77612
 Cu87 Cu 0.28819 -0.22631 0.74117
 Cu88 Cu 0.23267 -0.25610 0.71079
 N89 N 0.21929 -0.28748 0.75700
 N90 N 0.21429 -0.28372 0.73141
 C91 C 0.19454 -0.30065 0.72337
 C92 C 0.18643 -0.31589 0.74519
 C93 C 0.20277 -0.30682 0.76622
 H94 H 0.18631 -0.30116 0.70325
 H95 H 0.20284 -0.31369 0.78672
 N96 N 0.25409 -0.22765 0.69351
 N97 N 0.27560 -0.21670 0.70499
 C98 C 0.28510 -0.19711 0.68916
 C99 C 0.26870 -0.19541 0.66664
 C100 C 0.24923 -0.21514 0.67010
 H101 H 0.30179 -0.18397 0.69437
 H102 H 0.23232 -0.21955 0.65693
 H103 H 0.24652 -0.23188 0.74211
 H104 H 0.26784 -0.26190 0.73252
 N105 N 0.69440 -0.25411 0.76691
 N106 N 0.70565 -0.27641 0.77569
 C107 C 0.69196 -0.28476 0.79742
 C108 C 0.67106 -0.26667 0.80261
 C109 C 0.67328 -0.24748 0.78275
 H110 H 0.69735 -0.30219 0.80914
 H111 H 0.66073 -0.22977 0.78019
 Cu112 Cu 0.73799 -0.29127 0.75862
 Cu113 Cu 0.70880 -0.23443 0.73647
 Cu114 Cu 0.76598 -0.26129 0.70554
 N115 N 0.77021 -0.30617 0.74133
 N116 N 0.78038 -0.29474 0.71997
 C117 C 0.80245 -0.30856 0.71191
 C118 C 0.80682 -0.32976 0.72938
 C119 C 0.78579 -0.32752 0.74785
 H120 H 0.81505 -0.30268 0.69528
 H121 H 0.78211 -0.34030 0.76486
 N122 N 0.74847 -0.22762 0.69393
 N123 N 0.72649 -0.21759 0.70544
 C124 C 0.71990 -0.19425 0.69347
 C125 C 0.73875 -0.18923 0.67363
 C126 C 0.75655 -0.21081 0.67452
 H127 H 0.70319 -0.18134 0.69935
 H128 H 0.77422 -0.21390 0.66205
 H129 H 0.72653 -0.26729 0.71771
 H130 H 0.74854 -0.24699 0.74079
 N131 N 0.30388 0.24534 0.77278
 N132 N 0.29440 0.26884 0.78103
 C133 C 0.30788 0.27655 0.80338
 C134 C 0.32676 0.25679 0.80956
 C135 C 0.32359 0.23726 0.78965
 H136 H 0.30375 0.29482 0.81477
 H137 H 0.33475 0.21853 0.78760
 Cu138 Cu 0.26452 0.28669 0.76266
 Cu139 Cu 0.28965 0.22680 0.74112
 Cu140 Cu 0.23500 0.25636 0.70911
 N141 N 0.23291 0.30217 0.74498
 N142 N 0.22173 0.29034 0.72396
 C143 C 0.20019 0.30492 0.71600
 C144 C 0.19752 0.32708 0.73301
 C145 C 0.21865 0.32464 0.75124
 H146 H 0.18693 0.29930 0.69955
 H147 H 0.22316 0.33809 0.76791
 N148 N 0.25127 0.22205 0.69693
 N149 N 0.27248 0.21108 0.70879
 C150 C 0.27901 0.18800 0.69574
 C151 C 0.26090 0.18413 0.67478
 C152 C 0.24356 0.20608 0.67619
 H153 H 0.29532 0.17460 0.70143
 H154 H 0.22667 0.21015 0.66296
 H155 H 0.27464 0.26050 0.72199
 H156 H 0.25096 0.24265 0.74496
 N157 N 0.30717 -0.26108 0.22759
 N158 N 0.29593 -0.28348 0.21866
 C159 C 0.30958 -0.29236 0.19684
 C160 C 0.33044 -0.27449 0.19173
 C161 C 0.32825 -0.25492 0.21177
 H162 H 0.30410 -0.30992 0.18495
 H163 H 0.34070 -0.23718 0.21439
 Cu164 Cu 0.26353 -0.29767 0.23559
 Cu165 Cu 0.29254 -0.24039 0.25789
 Cu166 Cu 0.23474 -0.26552 0.28799
 N167 N 0.23127 -0.31188 0.25274
 N168 N 0.22046 -0.29927 0.27351
 C169 C 0.19824 -0.31262 0.28134
 C170 C 0.19473 -0.33479 0.26452
 C171 C 0.21609 -0.33366 0.24654
 H172 H 0.18504 -0.30607 0.29746
 H173 H 0.22007 -0.34750 0.23003
 N174 N 0.25224 -0.23174 0.29977
 N175 N 0.27455 -0.22244 0.28870
 C176 C 0.28130 -0.19902 0.30097
 C177 C 0.26221 -0.19319 0.32055
 C178 C 0.24409 -0.21438 0.31919
 H179 H 0.29838 -0.18666 0.29554
 H180 H 0.22626 -0.21691 0.33145
 H181 H 0.27436 -0.27247 0.27656
 H182 H 0.25286 -0.25267 0.25297
 N183 N 0.69592 0.24551 0.22939
 N184 N 0.70488 0.26926 0.22215
 C185 C 0.69163 0.27690 0.19982
 C186 C 0.67347 0.25680 0.19257
 C187 C 0.67680 0.23716 0.21184
 H188 H 0.69553 0.29532 0.18913
 H189 H 0.66618 0.21817 0.21299
 Cu190 Cu 0.73403 0.28762 0.24143
 Cu191 Cu 0.71011 0.22698 0.26061
 Cu192 Cu 0.76444 0.25648 0.29344
 N193 N 0.76601 0.30248 0.25918
 N194 N 0.77754 0.29037 0.27958
 C195 C 0.79937 0.30454 0.28755
 C196 C 0.80187 0.32671 0.27117
 C197 C 0.78035 0.32473 0.25331
 H198 H 0.81301 0.29859 0.30345
 H199 H 0.77566 0.33826 0.23708
 N200 N 0.74839 0.22228 0.30472
 N201 N 0.72725 0.21133 0.29260
 C202 C 0.72081 0.18833 0.30514
 C203 C 0.73893 0.18454 0.32602
 C204 C 0.75616 0.20642 0.32512
 H205 H 0.70454 0.17497 0.29918
 H206 H 0.77298 0.21054 0.33849
 H207 H 0.72453 0.26056 0.28094
 H208 H 0.74834 0.24337 0.25693
 C209 C 0.25957 0.00165 0.42361
 C210 C 0.26342 0.02506 0.43922
 C211 C 0.26399 0.02308 0.46734
 C212 C 0.25944 -0.00180 0.48017
 C213 C 0.25528 -0.02493 0.46375
 C214 C 0.25637 -0.02355 0.43560
 C215 C 0.25942 -0.00376 0.51039
 C216 C 0.26412 -0.02868 0.52320
 C217 C 0.26343 -0.03073 0.55130
 C218 C 0.25922 -0.00739 0.56691
 C219 C 0.25607 0.01788 0.55500
 C220 C 0.25513 0.01936 0.52683
 H221 H 0.25883 0.00307 0.40193
 H222 H 0.26873 0.04107 0.47885
 H223 H 0.25163 -0.04431 0.47259
 H224 H 0.26910 -0.04664 0.51171
 H225 H 0.25829 -0.00891 0.58857
 H226 H 0.25152 0.03879 0.51800
 C227 C 0.74340 0.00525 0.57521
 C228 C 0.73934 0.02857 0.56010
 C229 C 0.73829 0.02637 0.53196
 C230 C 0.74263 0.00137 0.51859
 C231 C 0.74698 -0.02167 0.53449
 C232 C 0.74631 -0.02008 0.56269
 C233 C 0.74218 -0.00078 0.48835
 C234 C 0.73723 -0.02575 0.47513
 C235 C 0.73758 -0.02803 0.44700
 C236 C 0.74163 -0.00487 0.43178
 C237 C 0.74488 0.02048 0.44413
 C238 C 0.74623 0.02219 0.47230
 H239 H 0.74446 0.00684 0.59690
 H240 H 0.73334 0.04430 0.52087
 H241 H 0.75042 -0.04115 0.52520
 H242 H 0.73233 -0.04355 0.48636
 H243 H 0.74231 -0.00658 0.41008
 H244 H 0.74997 0.04167 0.48144
 C245 C 0.42845 0.25902 0.00270
 C246 C 0.44311 0.26326 0.02652
 C247 C 0.47154 0.26407 0.02543
 C248 C 0.48557 0.25925 0.00112
 C249 C 0.47014 0.25472 -0.02248
 C250 C 0.44167 0.25566 -0.02201
 C251 C 0.51605 0.25948 0.00031
 C252 C 0.52994 0.26527 -0.02370
 C253 C 0.55837 0.26476 -0.02489
 C254 C 0.57315 0.25983 -0.00140
 C255 C 0.56007 0.25569 0.02313
 C256 C 0.53162 0.25443 0.02362
 H257 H 0.40654 0.25809 0.00334
 H258 H 0.48246 0.26914 0.04362
 H259 H 0.48003 0.25092 -0.04148
 H260 H 0.51888 0.27087 -0.04154
 H261 H 0.59508 0.25905 -0.00215
 H262 H 0.52185 0.25000 0.04242
 C263 C 0.57270 0.74602 -0.00577
 C264 C 0.56010 0.74792 0.01941
 C265 C 0.53161 0.74774 0.02054
 C266 C 0.51576 0.74402 -0.00287
 C267 C 0.52923 0.74053 -0.02768
 C268 C 0.55759 0.74185 -0.02931
 C269 C 0.48536 0.74338 -0.00141
 C270 C 0.46939 0.75048 -0.02380
 C271 C 0.44096 0.74935 -0.02288
 C272 C 0.42829 0.74246 0.00124
 C273 C 0.44358 0.73610 0.02408
 C274 C 0.47199 0.73585 0.02237
 H275 H 0.59451 0.74783 -0.00717
 H276 H 0.52192 0.75015 0.03983
 H277 H 0.51789 0.73604 -0.04580
 H278 H 0.47886 0.75738 -0.04202
 H279 H 0.40638 0.74206 0.00228
 H280 H 0.48340 0.72931 0.03967
 C281 C -0.00683 0.42588 0.25911
 C282 C 0.01822 0.43838 0.25518
 C283 C 0.01915 0.46662 0.25312
 C284 C -0.00427 0.48272 0.25725
 C285 C -0.02890 0.46942 0.26275
 C286 C -0.03047 0.44114 0.26292
 C287 C -0.00290 0.51310 0.25628
 C288 C -0.02651 0.52892 0.25247
 C289 C -0.02543 0.55728 0.25255
 C290 C -0.00011 0.56991 0.25424
 C291 C 0.02366 0.55491 0.25799
 C292 C 0.02202 0.52672 0.25967
 H293 H -0.00791 0.40405 0.25899
 H294 H 0.03841 0.47575 0.24876
 H295 H -0.04703 0.48070 0.26760
 H296 H -0.04601 0.51948 0.24992
 H297 H 0.00112 0.59164 0.25261
 H298 H 0.04035 0.51581 0.26441
 C299 C -0.00033 0.57385 0.74559
 C300 C 0.02496 0.56139 0.74889
 C301 C 0.02631 0.53309 0.75001
 C302 C 0.00301 0.51704 0.74550
 C303 C -0.02180 0.53037 0.74026
 C304 C -0.02379 0.55865 0.74099
 C305 C 0.00462 0.48667 0.74570
 C306 C -0.01881 0.47089 0.74990
 C307 C -0.01771 0.44253 0.74904
 C308 C 0.00755 0.42983 0.74610
 C309 C 0.03114 0.44479 0.74186
 C310 C 0.02945 0.47305 0.74114
 H311 H -0.00166 0.59566 0.74656
 H312 H 0.04574 0.52385 0.75389
 H313 H -0.03969 0.51906 0.73482
 H314 H -0.03818 0.48043 0.75339
 H315 H 0.00888 0.40805 0.74715
 H316 H 0.04756 0.48409 0.73623
 C317 C 0.38195 0.26986 0.12574
 C318 C 0.38094 0.24691 0.14203
 C319 C 0.36376 0.24623 0.16430
 C320 C 0.34697 0.26835 0.17060
 C321 C 0.34843 0.29154 0.15476
 C322 C 0.36582 0.29234 0.13269
 C323 C 0.39870 0.26983 0.10091
 C324 C 0.38902 0.28225 0.07752
 C325 C 0.40383 0.28086 0.05369
 C326 C 0.42856 0.26670 0.05249
 C327 C 0.43862 0.25486 0.07603
 C328 C 0.42391 0.25648 0.09998
 H329 H 0.36293 0.22797 0.17596
 H330 H 0.33607 0.30909 0.15936
 H331 H 0.39572 0.29065 0.03608
 H332 H 0.45750 0.24366 0.07577
 H333 H 0.36650 0.31057 0.12096
 H334 H 0.36958 0.29243 0.07735
 H335 H 0.39271 0.22906 0.13707
 H336 H 0.43218 0.24707 0.11771
 C337 C 0.62488 0.74579 0.11724
 C338 C 0.62564 0.76747 0.13575
 C339 C 0.64191 0.76623 0.15877
 C340 C 0.65842 0.74351 0.16361
 C341 C 0.65726 0.72171 0.14523
 C342 C 0.64052 0.72270 0.12266
 C343 C 0.60837 0.74722 0.09216
 C344 C 0.61726 0.73402 0.06859
 C345 C 0.60159 0.73430 0.04528
 C346 C 0.57688 0.74854 0.04442
 C347 C 0.56824 0.76235 0.06778
 C348 C 0.58366 0.76149 0.09141
 H349 H 0.64212 0.78359 0.17216
 H350 H 0.66888 0.70346 0.14829
 H351 H 0.60877 0.72286 0.02804
 H352 H 0.54956 0.77387 0.06791
 H353 H 0.63981 0.70515 0.10950
 H354 H 0.63644 0.72337 0.06801
 H355 H 0.61417 0.78574 0.13219
 H356 H 0.57594 0.77169 0.10918
 C357 C 0.61991 0.27413 -0.12329
 C358 C 0.62111 0.25146 -0.14057
 C359 C 0.63856 0.25101 -0.16262
 C360 C 0.65545 0.27308 -0.16776
 C361 C 0.65388 0.29597 -0.15089
 C362 C 0.63620 0.29656 -0.12901
 C363 C 0.60288 0.27373 -0.09868
 C364 C 0.61233 0.28553 -0.07460
 C365 C 0.59742 0.28344 -0.05094
 C366 C 0.57283 0.26920 -0.05063
 C367 C 0.56293 0.25812 -0.07485
 C368 C 0.57773 0.26044 -0.09862
 H369 H 0.63947 0.23295 -0.17507
 H370 H 0.66633 0.31347 -0.15457
 H371 H 0.60540 0.29269 -0.03276
 H372 H 0.54414 0.24690 -0.07531
 H373 H 0.63541 0.31456 -0.11647
 H374 H 0.63171 0.29567 -0.07377
 H375 H 0.60925 0.23363 -0.13655
 H376 H 0.56961 0.25153 -0.11689
 C377 C 0.37121 0.75894 -0.11576
 C378 C 0.38036 0.76472 -0.14174
 C379 C 0.36247 0.76390 -0.16356
 C380 C 0.33512 0.75700 -0.15988
 C381 C 0.32600 0.75131 -0.13386
 C382 C 0.34382 0.75237 -0.11204
 C383 C 0.39021 0.75885 -0.09264
 C384 C 0.38250 0.77023 -0.06781
 C385 C 0.39945 0.76814 -0.04541
 C386 C 0.42438 0.75441 -0.04729
 C387 C 0.43252 0.74392 -0.07240
 C388 C 0.41564 0.74619 -0.09486
 H389 H 0.37019 0.76826 -0.18335
 H390 H 0.30504 0.74616 -0.13026
 H391 H 0.39285 0.77699 -0.02652
 H392 H 0.45145 0.73296 -0.07447
 H393 H 0.33628 0.74751 -0.09228
 H394 H 0.36321 0.78054 -0.06568
 H395 H 0.40135 0.76997 -0.14514
 H396 H 0.42199 0.73705 -0.11371
 C397 C 0.11681 0.37408 0.25690
 C398 C 0.13077 0.36712 0.23321
 C399 C 0.15365 0.35039 0.23409
 C400 C 0.16294 0.34010 0.25864
 C401 C 0.14931 0.34746 0.28236
 C402 C 0.12662 0.36436 0.28152
 C403 C 0.09162 0.39064 0.25598
 C404 C 0.06988 0.38473 0.27306
 C405 C 0.04624 0.40020 0.27261
 C406 C 0.04346 0.42183 0.25481
 C407 C 0.06508 0.42767 0.23750
 C408 C 0.08892 0.41225 0.23810
 H409 H 0.16355 0.34494 0.21541
 H410 H 0.15621 0.34028 0.30164
 H411 H 0.03022 0.39539 0.28655
 H412 H 0.06353 0.44404 0.22339
 H413 H 0.11674 0.36983 0.30022
 H414 H 0.07102 0.36795 0.28673
 H415 H 0.12360 0.37397 0.21389
 H416 H 0.10536 0.41747 0.22480
 C417 C 0.12164 0.62788 0.74750
 C418 C 0.13058 0.63836 0.72300
 C419 C 0.15209 0.65653 0.72221
 C420 C 0.16562 0.66463 0.74593
 C421 C 0.15736 0.65314 0.77036
 C422 C 0.13559 0.63512 0.77113
 C423 C 0.09710 0.61052 0.74830
 C424 C 0.09533 0.58849 0.76578
 C425 C 0.07197 0.57245 0.76622
 C426 C 0.04991 0.57819 0.74924
 C427 C 0.05184 0.60018 0.73181
 C428 C 0.07497 0.61619 0.73148
 H429 H 0.15790 0.66410 0.70281
 H430 H 0.16703 0.65854 0.78918
 H431 H 0.07108 0.55576 0.77998
 H432 H 0.03548 0.60492 0.71810
 H433 H 0.12913 0.62756 0.79037
 H434 H 0.11210 0.58347 0.77888
 H435 H 0.12081 0.63262 0.70429
 H436 H 0.07537 0.63324 0.71812
 C437 C -0.12396 0.62196 0.25659
 C438 C -0.14097 0.62495 0.23414
 C439 C -0.16385 0.64168 0.23546
 C440 C -0.17015 0.65628 0.25917
 C441 C -0.15334 0.65272 0.28178
 C442 C -0.13079 0.63566 0.28055
 C443 C -0.09878 0.60532 0.25495
 C444 C -0.07547 0.61334 0.26916
 C445 C -0.05189 0.59778 0.26821
 C446 C -0.05066 0.57396 0.25258
 C447 C -0.07382 0.56607 0.23797
 C448 C -0.09765 0.58150 0.23924
 H449 H -0.17595 0.64366 0.21746
 H450 H -0.15751 0.66286 0.30069
 H451 H -0.03471 0.60431 0.28016
 H452 H -0.07357 0.54803 0.22546
 H453 H -0.11867 0.63323 0.29852
 H454 H -0.07530 0.63181 0.28102
 H455 H -0.13624 0.61496 0.21525
 H456 H -0.11527 0.57455 0.22820
 C457 C -0.11637 0.37863 0.74639
 C458 C -0.12391 0.36558 0.72228
 C459 C -0.14663 0.34890 0.72112
 C460 C -0.16289 0.34505 0.74396
 C461 C -0.15586 0.35898 0.76787
 C462 C -0.13282 0.37535 0.76910
 C463 C -0.09107 0.39495 0.74783
 C464 C -0.08940 0.41842 0.76401
 C465 C -0.06555 0.43368 0.76490
 C466 C -0.04290 0.42597 0.74945
 C467 C -0.04465 0.40246 0.73340
 C468 C -0.06823 0.38705 0.73283
 H469 H -0.15135 0.33926 0.70207
 H470 H -0.16753 0.35675 0.78604
 H471 H -0.06490 0.45146 0.77775
 H472 H -0.02791 0.39607 0.72080
 H473 H -0.12754 0.38483 0.78810
 H474 H -0.10664 0.42526 0.77569
 H475 H -0.11225 0.36825 0.70413
 H476 H -0.06844 0.36882 0.72061
 C477 C 0.26978 0.12584 0.38178
 C478 C 0.29326 0.13391 0.36818
 C479 C 0.29274 0.15625 0.35134
 C480 C 0.26874 0.17116 0.34773
 C481 C 0.24548 0.16365 0.36204
 C482 C 0.24598 0.14123 0.37882
 C483 C 0.26971 0.10067 0.39777
 C484 C 0.25491 0.09905 0.42181
 C485 C 0.25349 0.07473 0.43573
 C486 C 0.26678 0.05150 0.42587
 C487 C 0.28224 0.05338 0.40230
 C488 C 0.28363 0.07761 0.38840
 H489 H 0.31119 0.16169 0.34107
 H490 H 0.22659 0.17452 0.35969
 H491 H 0.24130 0.07389 0.45376
 H492 H 0.29303 0.03596 0.39438
 H493 H 0.22744 0.13540 0.38873
 H494 H 0.24424 0.11653 0.42976
 H495 H 0.31207 0.12283 0.37042
 H496 H 0.29497 0.07803 0.36982
 C497 C 0.73245 0.13048 0.61828
 C498 C 0.75597 0.14621 0.62108
 C499 C 0.75613 0.16912 0.63780
 C500 C 0.73279 0.17678 0.65218
 C501 C 0.70904 0.16153 0.64870
 C502 C 0.70886 0.13870 0.63194
 C503 C 0.73288 0.10489 0.60232
 C504 C 0.71947 0.08193 0.61180
 C505 C 0.72102 0.05741 0.59775
 C506 C 0.73612 0.05517 0.57392
 C507 C 0.74900 0.07825 0.56405
 C508 C 0.74743 0.10284 0.57812
 H509 H 0.77483 0.18025 0.64007
 H510 H 0.69054 0.16708 0.65904
 H511 H 0.71056 0.04010 0.60569
 H512 H 0.76092 0.07712 0.54583
 H513 H 0.69025 0.12735 0.62980
 H514 H 0.70836 0.08269 0.63052
 H515 H 0.77458 0.14028 0.61110
 H516 H 0.75772 0.12023 0.57012
 C517 C 0.27119 -0.13110 0.60934
 C518 C 0.24753 -0.14651 0.61236
 C519 C 0.24697 -0.16811 0.63018
 C520 C 0.27000 -0.17466 0.64548
 C521 C 0.29398 -0.16005 0.64152
 C522 C 0.29459 -0.13861 0.62361
 C523 C 0.27093 -0.10615 0.59302
 C524 C 0.28442 -0.08291 0.60239
 C525 C 0.28269 -0.05878 0.58836
 C526 C 0.26726 -0.05714 0.56467
 C527 C 0.25443 -0.08054 0.55477
 C528 C 0.25621 -0.10479 0.56882
 H529 H 0.22814 -0.17887 0.63278
 H530 H 0.31225 -0.16491 0.65253
 H531 H 0.29315 -0.04123 0.59631
 H532 H 0.24230 -0.07988 0.53663
 H533 H 0.31333 -0.12759 0.62128
 H534 H 0.29563 -0.08308 0.62111
 H535 H 0.22908 -0.14116 0.60187
 H536 H 0.24583 -0.12240 0.56090
 C537 C 0.72864 -0.12895 0.38755
 C538 C 0.70506 -0.13629 0.37336
 C539 C 0.70522 -0.15836 0.35562
 C540 C 0.72888 -0.17376 0.35179
 C541 C 0.75214 -0.16717 0.36681
 C542 C 0.75206 -0.14495 0.38442
 C543 C 0.72928 -0.10376 0.40415
 C544 C 0.74422 -0.10234 0.42824
 C545 C 0.74630 -0.07796 0.44263
 C546 C 0.73352 -0.05450 0.43320
 C547 C 0.71788 -0.05619 0.40962
 C548 C 0.71587 -0.08045 0.39523
 H549 H 0.68680 -0.16320 0.34474
 H550 H 0.77076 -0.17851 0.36421
 H551 H 0.75860 -0.07727 0.46067
 H552 H 0.70744 -0.03859 0.40204
 H553 H 0.77067 -0.13969 0.39476
 H554 H 0.75450 -0.12000 0.43584
 H555 H 0.68651 -0.12477 0.37574
 H556 H 0.70447 -0.08069 0.37662
 C557 C 0.61742 0.73370 -0.12913
 C558 C 0.63109 0.70996 -0.13706
 C559 C 0.64813 0.70973 -0.15944
 C560 C 0.65184 0.73320 -0.17451
 C561 C 0.63759 0.75674 -0.16702
 C562 C 0.62063 0.75700 -0.14456
 C563 C 0.60100 0.73451 -0.10412
 C564 C 0.57664 0.74931 -0.10272
 C565 C 0.56214 0.75122 -0.07863
 C566 C 0.57177 0.73845 -0.05543
 C567 C 0.59575 0.72312 -0.05705
 C568 C 0.61021 0.72122 -0.08105
 H569 H 0.65841 0.69113 -0.16486
 H570 H 0.64010 0.77527 -0.17797
 H571 H 0.54379 0.76327 -0.07796
 H572 H 0.60348 0.71272 -0.03962
 H573 H 0.61072 0.77572 -0.13879
 H574 H 0.56885 0.75953 -0.12023
 H575 H 0.62868 0.69154 -0.12588
 H576 H 0.62903 0.70992 -0.08132
 C577 C 0.37886 0.25530 -0.12083
 C578 C 0.37284 0.23132 -0.13499
 C579 C 0.35633 0.23181 -0.15789
 C580 C 0.34538 0.25627 -0.16703
 C581 C 0.35191 0.28028 -0.15323
 C582 C 0.36853 0.27982 -0.13050
 C583 C 0.39504 0.25483 -0.09556
 C584 C 0.38797 0.27193 -0.07394
 C585 C 0.40307 0.27197 -0.05023
 C586 C 0.42554 0.25473 -0.04731
 C587 C 0.43258 0.23742 -0.06883
 C588 C 0.41747 0.23746 -0.09271
 H589 H 0.35156 0.21292 -0.16795
 H590 H 0.34426 0.29953 -0.16001
 H591 H 0.39732 0.28588 -0.03426
 H592 H 0.44965 0.22375 -0.06717
 H593 H 0.37330 0.29874 -0.12048
 H594 H 0.37057 0.28524 -0.07523
 H595 H 0.38023 0.21206 -0.12794
 H596 H 0.42356 0.22416 -0.10905
 C597 C 0.38372 0.72497 0.12314
 C598 C 0.36957 0.70156 0.13020
 C599 C 0.35262 0.70158 0.15269
 C600 C 0.34946 0.72500 0.16865
 C601 C 0.36407 0.74823 0.16187
 C602 C 0.38094 0.74822 0.13938
 C603 C 0.40041 0.72564 0.09833
 C604 C 0.42499 0.73988 0.09789
 C605 C 0.43949 0.74243 0.07397
 C606 C 0.42973 0.73080 0.04995
 C607 C 0.40568 0.71571 0.05059
 C608 C 0.39118 0.71317 0.07450
 H609 H 0.34201 0.68321 0.15749
 H610 H 0.36198 0.76674 0.17345
 H611 H 0.45784 0.75435 0.07409
 H612 H 0.39782 0.70622 0.03248
 H613 H 0.39120 0.76673 0.13427
 H614 H 0.43284 0.74942 0.11598
 H615 H 0.37161 0.68319 0.11834
 H616 H 0.37221 0.70225 0.07408
 C617 C 0.62277 0.25479 0.12194
 C618 C 0.63219 0.27944 0.13266
 C619 C 0.64839 0.28006 0.15569
 C620 C 0.65540 0.25607 0.16874
 C621 C 0.64544 0.23145 0.15848
 C622 C 0.62936 0.23081 0.13528
 C623 C 0.60682 0.25424 0.09654
 C624 C 0.58482 0.23655 0.09293
 C625 C 0.56970 0.23666 0.06906
 C626 C 0.57632 0.25444 0.04832
 C627 C 0.59846 0.27190 0.05194
 C628 C 0.61356 0.27171 0.07563
 H629 H 0.65531 0.29940 0.16331
 H630 H 0.65064 0.21258 0.16792
 H631 H 0.55292 0.22279 0.06681
 H632 H 0.60391 0.28614 0.03657
 H633 H 0.62271 0.21147 0.12738
 H634 H 0.57902 0.22293 0.10872
 H635 H 0.62698 0.29834 0.12325
 H636 H 0.63066 0.28525 0.07751
 C637 C -0.12523 0.61733 0.73011
 C638 C -0.13068 0.63349 0.70775
 C639 C -0.15321 0.65059 0.70737
 C640 C -0.17135 0.65175 0.72917
 C641 C -0.16660 0.63451 0.75099
 C642 C -0.14372 0.61775 0.75156
 C643 C -0.09970 0.60122 0.73155
 C644 C -0.09880 0.57632 0.74479
 C645 C -0.07433 0.56220 0.74743
 C646 C -0.05023 0.57254 0.73670
 C647 C -0.05135 0.59695 0.72268
 C648 C -0.07565 0.61121 0.72037
 H649 H -0.15625 0.66275 0.68974
 H650 H -0.17984 0.63456 0.76826
 H651 H -0.07418 0.54353 0.75848
 H652 H -0.03333 0.60526 0.71363
 H653 H -0.14009 0.60586 0.76929
 H654 H -0.11697 0.56776 0.75326
 H655 H -0.11741 0.63311 0.69047
 H656 H -0.07533 0.63047 0.71038
 C657 C -0.13093 0.38183 0.27164
 C658 C -0.14705 0.37854 0.24849
 C659 C -0.16941 0.36128 0.24852
 C660 C -0.17597 0.34677 0.27164
 C661 C -0.16040 0.35070 0.29501
 C662 C -0.13821 0.36810 0.29505
 C663 C -0.10581 0.39828 0.27098
 C664 C -0.08231 0.38947 0.28432
 C665 C -0.05815 0.40386 0.28242
 C666 C -0.05679 0.42730 0.26692
 C667 C -0.08044 0.43657 0.25416
 C668 C -0.10469 0.42223 0.25618
 H669 H -0.18090 0.35857 0.23014
 H670 H -0.16523 0.34023 0.31332
 H671 H -0.04041 0.39641 0.29285
 H672 H -0.08000 0.45448 0.24194
 H673 H -0.12661 0.37062 0.31339
 H674 H -0.08231 0.37096 0.29563
 H675 H -0.14182 0.38852 0.23001
 H676 H -0.12252 0.42977 0.24597
 C677 C 0.13124 0.38390 0.73276
 C678 C 0.13822 0.36937 0.70933
 C679 C 0.16010 0.35142 0.70929
 C680 C 0.17567 0.34768 0.73262
 C681 C 0.16942 0.36300 0.75576
 C682 C 0.14738 0.38086 0.75586
 C683 C 0.10626 0.40078 0.73356
 C684 C 0.10542 0.42527 0.74816
 C685 C 0.08124 0.44001 0.75029
 C686 C 0.05741 0.43054 0.73788
 C687 C 0.05853 0.40653 0.72258
 C688 C 0.08258 0.39179 0.72053
 H689 H 0.16467 0.34035 0.69096
 H690 H 0.18090 0.36052 0.77411
 H691 H 0.08099 0.45840 0.76230
 H692 H 0.04064 0.39892 0.71241
 H693 H 0.14238 0.39149 0.77434
 H694 H 0.12339 0.43292 0.75813
 H695 H 0.12658 0.37166 0.69103
 H696 H 0.08238 0.37288 0.70939
 C697 C 0.12549 0.61262 0.26433
 C698 C 0.13324 0.62666 0.28782
 C699 C 0.15608 0.64319 0.28800
 C700 C 0.17184 0.64596 0.26475
 C701 C 0.16477 0.63112 0.24154
 C702 C 0.14177 0.61467 0.24131
 C703 C 0.09982 0.59703 0.26357
 C704 C 0.09800 0.57240 0.24932
 C705 C 0.07342 0.55847 0.24786
 C706 C 0.05014 0.56889 0.26057
 C707 C 0.05212 0.59326 0.27519
 C708 C 0.07661 0.60719 0.27659
 H709 H 0.16126 0.65391 0.30637
 H710 H 0.17638 0.63292 0.22325
 H711 H 0.07247 0.53984 0.23628
 H712 H 0.03466 0.60165 0.28551
 H713 H 0.13623 0.60433 0.22282
 H714 H 0.11558 0.56391 0.23929
 H715 H 0.12151 0.62502 0.30607
 H716 H 0.07718 0.62627 0.28742
 C717 C 0.74340 -0.11825 0.62490
 C718 C 0.71855 -0.12648 0.63585
 C719 C 0.71705 -0.14959 0.65149
 C720 C 0.74028 -0.16524 0.65631
 C721 C 0.76501 -0.15745 0.64488
 C722 C 0.76659 -0.13415 0.62944
 C723 C 0.74507 -0.09294 0.60928
 C724 C 0.76202 -0.09111 0.58670
 C725 C 0.76300 -0.06734 0.57185
 C726 C 0.74690 -0.04494 0.57914
 C727 C 0.73021 -0.04677 0.60190
 C728 C 0.72945 -0.07034 0.61684
 H729 H 0.69761 -0.15528 0.65964
 H730 H 0.78335 -0.16894 0.64843
 H731 H 0.77634 -0.06656 0.55465
 H732 H 0.71720 -0.03012 0.60791
 H733 H 0.78610 -0.12825 0.62161
 H734 H 0.77419 -0.10819 0.58019
 H735 H 0.70015 -0.11511 0.63223
 H736 H 0.71657 -0.07081 0.63440
 C737 C 0.25836 -0.12186 0.37086
 C738 C 0.23490 -0.13706 0.36553
 C739 C 0.23619 -0.16043 0.34952
 C740 C 0.26092 -0.16900 0.33829
 C741 C 0.28441 -0.15402 0.34384
 C742 C 0.28318 -0.13084 0.36005
 C743 C 0.25704 -0.09652 0.38718
 C744 C 0.27328 -0.07439 0.38050
 C745 C 0.27277 -0.05080 0.39608
 C746 C 0.25573 -0.04849 0.41860
 C747 C 0.23908 -0.07043 0.42506
 C748 C 0.23978 -0.09421 0.40957
 H749 H 0.21767 -0.17139 0.34542
 H750 H 0.30385 -0.16032 0.33585
 H751 H 0.28618 -0.03450 0.39072
 H752 H 0.22549 -0.06925 0.44207
 H753 H 0.30177 -0.12002 0.36424
 H754 H 0.28643 -0.07523 0.36314
 H755 H 0.21539 -0.13055 0.37321
 H756 H 0.22714 -0.11094 0.41541
 C757 C 0.74214 0.11680 0.37909
 C758 C 0.76559 0.13192 0.37399
 C759 C 0.76448 0.15424 0.35712
 C760 C 0.73998 0.16170 0.34478
 C761 C 0.71650 0.14689 0.35017
 C762 C 0.71751 0.12485 0.36730
 C763 C 0.74339 0.09221 0.39585
 C764 C 0.72742 0.06971 0.38910
 C765 C 0.72807 0.04665 0.40477
 C766 C 0.74508 0.04516 0.42741
 C767 C 0.76136 0.06752 0.43407
 C768 C 0.76045 0.09084 0.41849
 H769 H 0.78297 0.16516 0.35316
 H770 H 0.69724 0.15245 0.34132
 H771 H 0.71485 0.03008 0.39928
 H772 H 0.77489 0.06701 0.45120
 H773 H 0.69891 0.11413 0.37131
 H774 H 0.71444 0.06978 0.37154
 H775 H 0.78495 0.12611 0.38244
 H776 H 0.77286 0.10789 0.42441
 C777 C 0.25785 0.11533 0.62113
 C778 C 0.28244 0.12345 0.63305
 C779 C 0.28341 0.14589 0.65027
 C780 C 0.25992 0.16103 0.65567
 C781 C 0.23549 0.15356 0.64310
 C782 C 0.23443 0.13085 0.62612
 C783 C 0.25668 0.09034 0.60425
 C784 C 0.23983 0.08864 0.58143
 C785 C 0.23917 0.06507 0.56560
 C786 C 0.25547 0.04274 0.57215
 C787 C 0.27217 0.04450 0.59504
 C788 C 0.27259 0.06783 0.61096
 H789 H 0.30265 0.15146 0.65922
 H790 H 0.21701 0.16476 0.64699
 H791 H 0.22585 0.06435 0.54830
 H792 H 0.28536 0.02793 0.60049
 H793 H 0.21511 0.12506 0.61752
 H794 H 0.22746 0.10566 0.57556
 H795 H 0.30104 0.11247 0.62909
 H796 H 0.28539 0.06815 0.62865
   
