data_POSCAR
  _audit_creation_date              2014-09-24
  _audit_creation_method            'ToBaCCo'
  _symmetry_space_group_name_H-M    'P1'
  _symmetry_Int_Tables_number       1
  _symmetry_cell_setting            triclinic
  loop_
  _symmetry_equiv_pos_as_xyz
 x,y,z
_cell_length_a 27.0179
_cell_length_b 27.0161
_cell_length_c 27.0674
_cell_angle_alpha 96.936800
_cell_angle_beta 82.998900
_cell_angle_gamma 98.980000
loop_
  _atom_site_label
  _atom_site_type_symbol
  _atom_site_fract_x
  _atom_site_fract_y
  _atom_site_fract_z
O1 O 0.54742 0.50227 0.04627
 O2 O 0.41181 0.49071 0.03179
 O3 O 0.47196 0.42981 0.04886
 O4 O 0.48589 0.56460 0.03386
 O5 O 0.50196 0.54794 -0.04780
 O6 O 0.48899 0.41242 -0.03261
 O7 O 0.42875 0.47325 -0.04960
 O8 O 0.56366 0.48576 -0.03538
 Cu9 Cu 0.47773 0.49864 0.04834
 Cu10 Cu 0.49760 0.47825 -0.04950
 C11 C 0.57870 0.49545 0.00783
 C12 C 0.39703 0.48001 -0.01163
 C13 C 0.47823 0.39801 0.01094
 C14 C 0.49556 0.57942 -0.00947
 O15 O -0.04257 0.56336 0.50511
 O16 O -0.02730 0.42902 0.49558
 O17 O -0.02980 0.50185 0.56812
 O18 O -0.04404 0.49043 0.43398
 O19 O 0.03797 0.51140 0.41697
 O20 O 0.05239 0.52198 0.55191
 O21 O 0.05472 0.44966 0.47859
 O22 O 0.03957 0.58349 0.48895
 Cu23 Cu -0.04409 0.49397 0.50245
 Cu24 Cu 0.05443 0.51843 0.48254
 C25 C -0.00411 0.59648 0.49799
 C26 C 0.01651 0.41639 0.48544
 C27 C 0.01359 0.51392 0.58313
 C28 C -0.00583 0.49995 0.40256
 O29 O 0.51169 0.03772 0.58348
 O30 O 0.52121 0.05128 0.44833
 O31 O 0.44956 0.05452 0.52232
 O32 O 0.58313 0.03836 0.51080
 O33 O 0.56230 -0.04384 0.49533
 O34 O 0.42824 -0.02749 0.50608
 O35 O 0.50039 -0.03088 0.43283
 O36 O 0.49008 -0.04419 0.56721
 Cu37 Cu 0.51826 0.05373 0.51772
 Cu38 Cu 0.49299 -0.04476 0.49869
 C39 C 0.50015 -0.00592 0.59842
 C40 C 0.51262 0.01235 0.41742
 C41 C 0.41600 0.01648 0.51603
 C42 C 0.59560 -0.00550 0.50190
 C43 C 0.50397 -0.10450 -0.09601
 C44 C 0.50706 -0.05445 -0.10551
 C45 C 0.50756 -0.01611 -0.06583
 C46 C 0.50174 -0.02741 -0.01554
 C47 C 0.49767 -0.07857 -0.00681
 C48 C 0.50004 -0.11655 -0.04685
 C49 C 0.49941 0.01377 0.02708
 C50 C 0.50996 0.00682 0.07557
 C51 C 0.50696 0.04539 0.11502
 C52 C 0.49590 0.09212 0.10622
 C53 C 0.48630 0.10008 0.05857
 C54 C 0.48654 0.06094 0.01975
 H55 H 0.50440 -0.13411 -0.12688
 H56 H 0.51257 0.02230 -0.07501
 H57 H 0.49208 -0.08963 0.03075
 H58 H 0.52082 -0.02808 0.08329
 H59 H 0.49479 0.12232 0.13647
 H60 H 0.47644 0.06805 -0.01589
 C61 C -0.10586 0.50312 1.09442
 C62 C -0.11724 0.49936 1.04506
 C63 C -0.07870 0.49748 1.00544
 C64 C -0.02769 0.50194 1.01484
 C65 C -0.01713 0.50760 1.06531
 C66 C -0.05597 0.50658 1.10451
 C67 C 0.01419 0.50035 0.97278
 C68 C 0.06144 0.48801 0.98069
 C69 C 0.10115 0.48856 0.94235
 C70 C 0.09372 0.49845 0.89463
 C71 C 0.04698 0.50899 0.88532
 C72 C 0.00782 0.51120 0.92426
 H73 H -0.13584 0.50319 1.12498
 H74 H -0.08920 0.49205 0.96769
 H75 H 0.02111 0.51292 1.07499
 H76 H 0.06814 0.47769 1.01638
 H77 H 0.12432 0.49789 0.86471
 H78 H -0.02710 0.52167 0.91613
 C79 C -0.09362 -0.09557 0.49984
 C80 C -0.04401 -0.10508 0.49648
 C81 C -0.00416 -0.06511 0.49527
 C82 C -0.01349 -0.01449 0.50031
 C83 C -0.06430 -0.00588 0.50511
 C84 C -0.10377 -0.04616 0.50344
 C85 C 0.02916 0.02876 0.50063
 C86 C 0.02214 0.07721 0.49037
 C87 C 0.06148 0.11765 0.49211
 C88 C 0.10930 0.10990 0.50128
 C89 C 0.11757 0.06215 0.51013
 C90 C 0.07763 0.02231 0.51123
 H91 H -0.12437 -0.12665 0.49968
 H92 H 0.03373 -0.07434 0.49009
 H93 H -0.07407 0.03181 0.51049
 H94 H -0.01356 0.08432 0.48071
 H95 H 0.14003 0.14098 0.50150
 H96 H 0.08514 -0.01334 0.52064
 C97 C -0.26456 0.49816 1.02388
 C98 C -0.29868 0.50704 1.06612
 C99 C -0.34959 0.50686 1.06095
 C100 C -0.36706 0.49777 1.01335
 C101 C -0.33235 0.48934 0.97106
 C102 C -0.28146 0.48954 0.97634
 C103 C -0.21232 0.49784 1.02958
 C104 C -0.16879 0.49803 1.03565
 H105 H -0.28597 0.51385 1.10312
 H106 H -0.37529 0.51340 1.09424
 H107 H -0.34454 0.48215 0.93388
 H108 H -0.25538 0.48271 0.94338
 C109 C 0.24359 0.47409 0.96805
 C110 C 0.25906 0.48424 1.01618
 C111 C 0.30968 0.48526 1.02323
 C112 C 0.34567 0.47639 0.98203
 C113 C 0.32922 0.46511 0.93389
 C114 C 0.27866 0.46407 0.92706
 C115 C 0.19252 0.47702 0.96005
 C116 C 0.15045 0.48123 0.95237
 H117 H 0.23219 0.49227 1.04815
 H118 H 0.32063 0.49393 1.06085
 H119 H 0.35548 0.45787 0.90119
 H120 H 0.26709 0.45639 0.88962
 C121 C -0.02169 -0.25092 0.49739
 C122 C -0.06385 -0.28700 0.50692
 C123 C -0.05811 -0.33739 0.50785
 C124 C -0.00989 -0.35255 0.49915
 C125 C 0.03236 -0.31561 0.49017
 C126 C 0.02640 -0.26525 0.48929
 C127 C -0.02802 -0.19921 0.49609
 C128 C -0.03447 -0.15613 0.49564
 H129 H -0.10127 -0.27621 0.51341
 H130 H -0.09157 -0.36445 0.51492
 H131 H 0.07010 -0.32554 0.48334
 H132 H 0.05931 -0.23756 0.48204
 C133 C 0.03748 0.26129 0.48066
 C134 C -0.01096 0.27485 0.49102
 C135 C -0.01802 0.32519 0.49180
 C136 C 0.02338 0.36267 0.48234
 C137 C 0.07180 0.34848 0.47120
 C138 C 0.07875 0.29818 0.47043
 C139 C 0.04531 0.21010 0.48292
 C140 C 0.05246 0.16770 0.48622
 H141 H -0.04316 0.24664 0.49922
 H142 H -0.05576 0.33483 0.50051
 H143 H 0.10448 0.37634 0.46371
 H144 H 0.11643 0.28817 0.46257
 C145 C 0.50379 -0.02652 -0.24985
 C146 C 0.51465 0.02196 -0.26528
 C147 C 0.51258 0.02913 -0.31532
 C148 C 0.49966 -0.01228 -0.35071
 C149 C 0.48804 -0.06078 -0.33432
 C150 C 0.49016 -0.06772 -0.28438
 C151 C 0.50634 -0.03452 -0.19867
 C152 C 0.50749 -0.04284 -0.15610
 H153 H 0.52504 0.05416 -0.23874
 H154 H 0.52175 0.06701 -0.32628
 H155 H 0.47786 -0.09367 -0.36011
 H156 H 0.48145 -0.10539 -0.27276
 C157 C 0.51922 0.02653 0.26020
 C158 C 0.50779 -0.02101 0.27770
 C159 C 0.50638 -0.02568 0.32876
 C160 C 0.51625 0.01724 0.36310
 C161 C 0.52850 0.06481 0.34503
 C162 C 0.52989 0.06937 0.29393
 C163 C 0.51706 0.03177 0.20822
 C164 C 0.51351 0.03716 0.16527
 H165 H 0.49919 -0.05439 0.25199
 H166 H 0.49688 -0.06286 0.34138
 H167 H 0.53631 0.09856 0.37043
 H168 H 0.53848 0.10641 0.28082
 C169 C 0.49906 -0.26393 -0.02620
 C170 C 0.49074 -0.28060 0.02147
 C171 C 0.49035 -0.33146 0.02696
 C172 C 0.49828 -0.36637 -0.01524
 C173 C 0.50713 -0.34912 -0.06298
 C174 C 0.50750 -0.29823 -0.06836
 C175 C 0.49877 -0.21174 -0.03204
 C176 C 0.49890 -0.16820 -0.03797
 H177 H 0.48425 -0.25436 0.05436
 H178 H 0.48336 -0.34349 0.06423
 H179 H 0.51328 -0.37500 -0.09619
 H180 H 0.51407 -0.28568 -0.10545
 C181 C 0.47132 0.24230 0.03276
 C182 C 0.46020 0.27743 0.07335
 C183 C 0.46140 0.32791 0.06604
 C184 C 0.47388 0.34396 0.01793
 C185 C 0.48388 0.30814 -0.02287
 C186 C 0.48270 0.25761 -0.01543
 C187 C 0.47430 0.19139 0.04121
 C188 C 0.47866 0.14939 0.04895
 H189 H 0.45161 0.26601 0.11083
 H190 H 0.45343 0.35449 0.09823
 H191 H 0.49360 0.31930 -0.06034
 H192 H 0.49164 0.23071 -0.04706
 C193 C -0.24962 -0.02430 0.50226
 C194 C -0.26357 0.02399 0.50967
 C195 C -0.31384 0.03018 0.50876
 C196 C -0.35083 -0.01194 0.50040
 C197 C -0.33630 -0.06030 0.49247
 C198 C -0.28600 -0.06638 0.49341
 C199 C -0.19802 -0.03082 0.50361
 C200 C -0.15494 -0.03716 0.50414
 H201 H -0.23566 0.05681 0.51642
 H202 H -0.32378 0.06791 0.51508
 H203 H -0.36384 -0.09346 0.48605
 H204 H -0.27552 -0.10393 0.48749
 C205 C 0.26118 0.03844 0.52169
 C206 C 0.29836 0.07958 0.53128
 C207 C 0.34859 0.07232 0.53027
 C208 C 0.36238 0.02371 0.51954
 C209 C 0.32459 -0.01754 0.51079
 C210 C 0.27433 -0.01016 0.51180
 C211 C 0.21008 0.04649 0.51950
 C212 C 0.16769 0.05357 0.51616
 H213 H 0.28864 0.11739 0.53877
 H214 H 0.37670 0.10489 0.53721
 H215 H 0.33393 -0.05542 0.50241
 H216 H 0.24588 -0.04227 0.50411
 C217 C -0.02814 0.50326 1.24877
 C218 C -0.06894 0.48871 1.28349
 C219 C -0.06145 0.48664 1.33328
 C220 C -0.01291 0.49912 1.34909
 C221 C 0.02807 0.51305 1.31375
 C222 C 0.02044 0.51510 1.26386
 C223 C -0.03655 0.50579 1.19775
 C224 C -0.04487 0.50695 1.15521
 H225 H -0.10667 0.47929 1.27215
 H226 H -0.09382 0.47583 1.35950
 H227 H 0.06585 0.52301 1.32477
 H228 H 0.05232 0.52625 1.23718
 C229 C 0.02855 0.52134 0.74014
 C230 C -0.01915 0.51047 0.72304
 C231 C -0.02406 0.50883 0.67204
 C232 C 0.01878 0.51792 0.63737
 C233 C 0.06653 0.52968 0.65503
 C234 C 0.07133 0.53128 0.70610
 C235 C 0.03393 0.51924 0.79205
 C236 C 0.03921 0.51565 0.83501
 H237 H -0.05248 0.50243 0.74902
 H238 H -0.06137 0.49974 0.65972
 H239 H 0.10022 0.53688 0.62936
 H240 H 0.10849 0.53944 0.71892
   
