data_POSCAR
  _audit_creation_date              2014-09-24
  _audit_creation_method            'ToBaCCo'
  _symmetry_space_group_name_H-M    'P1'
  _symmetry_Int_Tables_number       1
  _symmetry_cell_setting            triclinic
  loop_
  _symmetry_equiv_pos_as_xyz
 x,y,z
_cell_length_a 42.4746
_cell_length_b 42.8388
_cell_length_c 42.9698
_cell_angle_alpha 89.182600
_cell_angle_beta 89.044500
_cell_angle_gamma 82.609600
loop_
  _atom_site_label
  _atom_site_type_symbol
  _atom_site_fract_x
  _atom_site_fract_y
  _atom_site_fract_z
N1 N 0.32560 0.21803 0.20777
 N2 N 0.31109 0.24322 0.19380
 C3 C 0.32917 0.25105 0.16959
 C4 C 0.35638 0.22948 0.16816
 C5 C 0.35324 0.20883 0.19278
 H6 H 0.32281 0.27064 0.15382
 H7 H 0.36999 0.18880 0.19951
 Cu8 Cu 0.26971 0.26296 0.20825
 Cu9 Cu 0.30782 0.19938 0.24465
 Cu10 Cu 0.23488 0.23515 0.27190
 N11 N 0.22893 0.28296 0.22397
 N12 N 0.21559 0.27214 0.24901
 C13 C 0.18818 0.29061 0.25523
 C14 C 0.18399 0.31431 0.23283
 C15 C 0.21035 0.30864 0.21334
 H16 H 0.17245 0.28698 0.27461
 H17 H 0.21592 0.32261 0.19333
 N18 N 0.25814 0.19749 0.29186
 N19 N 0.28601 0.18403 0.28162
 C20 C 0.29594 0.15934 0.30032
 C21 C 0.27321 0.15701 0.32343
 C22 C 0.24956 0.18161 0.31725
 H23 H 0.31798 0.14398 0.29719
 H24 H 0.22790 0.18776 0.33057
 H25 H 0.26074 0.21414 0.23493
 H26 H 0.28128 0.24035 0.25984
 N27 N 0.67273 -0.22216 0.21286
 N28 N 0.68452 -0.24996 0.20246
 C29 C 0.66664 -0.25772 0.17892
 C30 C 0.64223 -0.23331 0.17405
 C31 C 0.64712 -0.21109 0.19613
 H32 H 0.67148 -0.27939 0.16614
 H33 H 0.63278 -0.18882 0.20042
 Cu34 Cu 0.72217 -0.27348 0.22042
 Cu35 Cu 0.69038 -0.20321 0.24840
 Cu36 Cu 0.76134 -0.24086 0.27658
 N37 N 0.76483 -0.29087 0.23234
 N38 N 0.77956 -0.27877 0.25497
 C39 C 0.80777 -0.29631 0.25942
 C40 C 0.81122 -0.32077 0.23819
 C41 C 0.78336 -0.31628 0.22127
 H42 H 0.82458 -0.29120 0.27663
 H43 H 0.77650 -0.33079 0.20283
 N44 N 0.73898 -0.20215 0.29503
 N45 N 0.71188 -0.18788 0.28429
 C46 C 0.70232 -0.16255 0.30186
 C47 C 0.72453 -0.16062 0.32471
 C48 C 0.74750 -0.18611 0.31961
 H49 H 0.68087 -0.14652 0.29815
 H50 H 0.76860 -0.19276 0.33311
 H51 H 0.73625 -0.22347 0.23794
 H52 H 0.71396 -0.24363 0.26850
 N53 N 0.72586 0.24889 0.77621
 N54 N 0.73822 0.27309 0.78699
 C55 C 0.72270 0.28277 0.81345
 C56 C 0.69956 0.26343 0.81969
 C57 C 0.70232 0.24218 0.79552
 H58 H 0.72802 0.30223 0.82733
 H59 H 0.68792 0.22353 0.79194
 Cu60 Cu 0.77354 0.28943 0.76550
 Cu61 Cu 0.74068 0.22818 0.73766
 Cu62 Cu 0.80171 0.25827 0.69755
 N63 N 0.80756 0.30625 0.74231
 N64 N 0.81782 0.29448 0.71540
 C65 C 0.84069 0.31065 0.70406
 C66 C 0.84546 0.33385 0.72512
 C67 C 0.82385 0.33019 0.74918
 H68 H 0.85330 0.30529 0.68237
 H69 H 0.81986 0.34409 0.76997
 N70 N 0.78242 0.22171 0.68320
 N71 N 0.75890 0.21046 0.69825
 C72 C 0.75095 0.18563 0.68264
 C73 C 0.77058 0.18085 0.65665
 C74 C 0.79023 0.20416 0.65780
 H75 H 0.73269 0.17160 0.68995
 H76 H 0.80874 0.20814 0.64121
 H77 H 0.78653 0.23937 0.73887
 H78 H 0.75682 0.26730 0.71745
 N79 N 0.27443 -0.24361 0.79320
 N80 N 0.26035 -0.26559 0.80727
 C81 C 0.27608 -0.27492 0.83340
 C82 C 0.30126 -0.25763 0.83605
 C83 C 0.29943 -0.23792 0.81012
 H84 H 0.26944 -0.29270 0.84946
 H85 H 0.31541 -0.22110 0.80375
 Cu86 Cu 0.22252 -0.27962 0.79057
 Cu87 Cu 0.25956 -0.22471 0.75371
 Cu88 Cu 0.19916 -0.25770 0.71824
 N89 N 0.19287 -0.30160 0.76837
 N90 N 0.18406 -0.29347 0.73994
 C91 C 0.16370 -0.31285 0.73029
 C92 C 0.15929 -0.33431 0.75414
 C93 C 0.17839 -0.32623 0.77791
 H94 H 0.15262 -0.31096 0.70778
 H95 H 0.18198 -0.33746 0.80046
 N96 N 0.21781 -0.22131 0.70041
 N97 N 0.24109 -0.20908 0.71377
 C98 C 0.24861 -0.18471 0.69627
 C99 C 0.22901 -0.18122 0.67073
 C100 C 0.20973 -0.20481 0.67416
 H101 H 0.26651 -0.17006 0.70207
 H102 H 0.19124 -0.20965 0.65863
 H103 H 0.21276 -0.23378 0.75615
 H104 H 0.24260 -0.26548 0.73979
 N105 N 0.67662 -0.22005 0.79255
 N106 N 0.69031 -0.24640 0.80510
 C107 C 0.67313 -0.25368 0.83018
 C108 C 0.64741 -0.23054 0.83358
 C109 C 0.65047 -0.20955 0.80930
 H110 H 0.67894 -0.27416 0.84498
 H111 H 0.63446 -0.18855 0.80380
 Cu112 Cu 0.72911 -0.26856 0.78717
 Cu113 Cu 0.69291 -0.20181 0.75482
 Cu114 Cu 0.76180 -0.24110 0.72228
 N115 N 0.76846 -0.28972 0.76938
 N116 N 0.78047 -0.27934 0.74345
 C117 C 0.80682 -0.29859 0.73551
 C118 C 0.81200 -0.32240 0.75784
 C119 C 0.78706 -0.31578 0.77908
 H120 H 0.82134 -0.29495 0.71524
 H121 H 0.78233 -0.32919 0.79972
 N122 N 0.73941 -0.20198 0.70442
 N123 N 0.71306 -0.18716 0.71669
 C124 C 0.70348 -0.16149 0.69917
 C125 C 0.72492 -0.15995 0.67480
 C126 C 0.74741 -0.18599 0.67890
 H127 H 0.68268 -0.14486 0.70404
 H128 H 0.76791 -0.19294 0.66416
 H129 H 0.71561 -0.24343 0.73703
 H130 H 0.73987 -0.22000 0.76129
 N131 N 0.32775 0.21972 0.78963
 N132 N 0.31437 0.24637 0.80154
 C133 C 0.33199 0.25407 0.82535
 C134 C 0.35772 0.23093 0.82863
 C135 C 0.35418 0.20948 0.80556
 H136 H 0.32633 0.27473 0.83953
 H137 H 0.36989 0.18821 0.80043
 Cu138 Cu 0.27506 0.26821 0.78497
 Cu139 Cu 0.31028 0.20053 0.75405
 Cu140 Cu 0.23988 0.23848 0.72457
 N141 N 0.23496 0.28865 0.76877
 N142 N 0.22162 0.27705 0.74489
 C143 C 0.19475 0.29584 0.73791
 C144 C 0.19085 0.32056 0.75860
 C145 C 0.21682 0.31516 0.77794
 H146 H 0.17905 0.29163 0.71932
 H147 H 0.22232 0.32976 0.79690
 N148 N 0.26193 0.19920 0.70715
 N149 N 0.28889 0.18488 0.71816
 C150 C 0.29821 0.15916 0.70100
 C151 C 0.27596 0.15709 0.67818
 C152 C 0.25329 0.18288 0.68285
 H153 H 0.31948 0.14295 0.70497
 H154 H 0.23232 0.18957 0.66918
 H155 H 0.28662 0.24153 0.73552
 H156 H 0.26367 0.21873 0.76316
 N157 N 0.27944 -0.25058 0.22640
 N158 N 0.26894 -0.27612 0.21637
 C159 C 0.28504 -0.28566 0.19021
 C160 C 0.30668 -0.26489 0.18338
 C161 C 0.30241 -0.24289 0.20688
 H162 H 0.28101 -0.30592 0.17684
 H163 H 0.31530 -0.22298 0.20981
 Cu164 Cu 0.23478 -0.29378 0.23822
 Cu165 Cu 0.26271 -0.22934 0.26411
 Cu166 Cu 0.20190 -0.26099 0.30350
 N167 N 0.20085 -0.31150 0.26040
 N168 N 0.18815 -0.29867 0.28603
 C169 C 0.16497 -0.31509 0.29629
 C170 C 0.16287 -0.33945 0.27587
 C171 C 0.18608 -0.33641 0.25340
 H172 H 0.15019 -0.30921 0.31663
 H173 H 0.19173 -0.35120 0.23340
 N174 N 0.21921 -0.22303 0.31738
 N175 N 0.24266 -0.21131 0.30265
 C176 C 0.24952 -0.18596 0.31807
 C177 C 0.22932 -0.18133 0.34363
 C178 C 0.21037 -0.20524 0.34241
 H179 H 0.26762 -0.17162 0.31103
 H180 H 0.19186 -0.20962 0.35885
 H181 H 0.24773 -0.26834 0.28584
 H182 H 0.21785 -0.24302 0.26214
 N183 N 0.71976 0.25279 0.21413
 N184 N 0.73039 0.27858 0.20384
 C185 C 0.71508 0.28833 0.17753
 C186 C 0.69389 0.26738 0.17089
 C187 C 0.69757 0.24514 0.19467
 H188 H 0.71929 0.30889 0.16400
 H189 H 0.68473 0.22508 0.19786
 Cu190 Cu 0.76356 0.29648 0.22570
 Cu191 Cu 0.73516 0.23104 0.25208
 Cu192 Cu 0.79307 0.26324 0.29215
 N193 N 0.79567 0.31460 0.24891
 N194 N 0.80670 0.30162 0.27509
 C195 C 0.82864 0.31833 0.28626
 C196 C 0.83179 0.34310 0.26594
 C197 C 0.81047 0.33999 0.24244
 H198 H 0.84203 0.31231 0.30715
 H199 H 0.80615 0.35502 0.22214
 N200 N 0.77628 0.22453 0.30579
 N201 N 0.75380 0.21253 0.29090
 C202 C 0.74716 0.18647 0.30626
 C203 C 0.76660 0.18173 0.33186
 C204 C 0.78475 0.20628 0.33079
 H205 H 0.72984 0.17170 0.29911
 H206 H 0.80253 0.21072 0.34729
 H207 H 0.74818 0.27029 0.27324
 H208 H 0.77967 0.24550 0.25052
 O209 O 0.22388 0.02809 0.47391
 O210 O 0.22574 -0.03334 0.53499
 O211 O 0.22435 0.02777 0.53462
 O212 O 0.22575 -0.03301 0.47467
 O213 O 0.27811 -0.03804 0.47355
 O214 O 0.27670 0.02242 0.53368
 O215 O 0.27810 -0.03841 0.53420
 O216 O 0.27623 0.02283 0.47287
 Cu217 Cu 0.21968 -0.00201 0.50465
 Cu218 Cu 0.28252 -0.00828 0.50348
 C219 C 0.24971 0.03586 0.46279
 C220 C 0.25225 -0.04646 0.54499
 C221 C 0.25030 0.03540 0.54452
 C222 C 0.25221 -0.04598 0.46390
 O223 O 0.77233 0.03266 0.52591
 O224 O 0.77422 -0.02879 0.46668
 O225 O 0.77171 0.03233 0.46557
 O226 O 0.77430 -0.02845 0.52715
 O227 O 0.72195 -0.02343 0.52831
 O228 O 0.71936 0.03702 0.46645
 O229 O 0.72188 -0.02389 0.46766
 O230 O 0.71998 0.03747 0.52715
 Cu231 Cu 0.77839 0.00143 0.49623
 Cu232 Cu 0.71554 0.00727 0.49751
 C233 C 0.74587 0.04562 0.53665
 C234 C 0.74839 -0.03684 0.45698
 C235 C 0.74511 0.04507 0.45547
 C236 C 0.74853 -0.03633 0.53830
 O237 O 0.50055 0.22429 0.02723
 O238 O 0.56220 0.22041 -0.03426
 O239 O 0.56203 0.22090 0.02663
 O240 O 0.50062 0.22444 -0.03328
 O241 O 0.49717 0.27626 -0.03412
 O242 O 0.55850 0.27272 0.02583
 O243 O 0.55902 0.27221 -0.03497
 O244 O 0.49671 0.27614 0.02623
 Cu245 Cu 0.53181 0.21732 -0.00335
 Cu246 Cu 0.52760 0.27952 -0.00434
 C247 C 0.48791 0.25085 0.03713
 C248 C 0.57107 0.24558 -0.04528
 C249 C 0.57060 0.24621 0.03669
 C250 C 0.48825 0.25099 -0.04385
 O251 O 0.50249 0.77657 0.03491
 O252 O 0.44147 0.78222 -0.02536
 O253 O 0.44098 0.78126 0.03559
 O254 O 0.50307 0.77702 -0.02553
 O255 O 0.50546 0.72527 -0.02564
 O256 O 0.44378 0.72949 0.03580
 O257 O 0.44360 0.73050 -0.02497
 O258 O 0.50560 0.72475 0.03453
 Cu259 Cu 0.47162 0.78447 0.00488
 Cu260 Cu 0.47472 0.72231 0.00493
 C261 C 0.51471 0.74972 0.04482
 C262 C 0.43218 0.75734 -0.03559
 C263 C 0.43198 0.75605 0.04641
 C264 C 0.51505 0.75041 -0.03590
 O265 O 0.03188 0.46643 0.22572
 O266 O -0.03049 0.53523 0.22527
 O267 O 0.03152 0.52724 0.22516
 O268 O -0.03000 0.47471 0.22304
 O269 O -0.03241 0.47377 0.27435
 O270 O 0.03025 0.52603 0.27651
 O271 O -0.03116 0.53444 0.27667
 O272 O 0.02931 0.46523 0.27703
 Cu273 Cu 0.00095 0.50101 0.21966
 Cu274 Cu -0.00118 0.49968 0.28127
 C275 C 0.04113 0.45402 0.25162
 C276 C -0.04125 0.54665 0.25107
 C277 C 0.04144 0.53572 0.25102
 C278 C -0.04192 0.46535 0.24821
 O279 O 0.03122 0.53003 0.75857
 O280 O -0.02642 0.47299 0.76350
 O281 O 0.03550 0.46881 0.76068
 O282 O -0.03049 0.53384 0.76075
 O283 O -0.03118 0.53277 0.70942
 O284 O 0.03410 0.46762 0.70942
 O285 O -0.02752 0.47150 0.71222
 O286 O 0.03010 0.52901 0.70729
 Cu287 Cu 0.00264 0.50149 0.76601
 Cu288 Cu 0.00129 0.50002 0.70445
 C289 C 0.04034 0.53952 0.73218
 C290 C -0.03695 0.46257 0.73874
 C291 C 0.04602 0.45704 0.73497
 C292 C -0.04198 0.54449 0.73502
 C293 C 0.40231 0.20007 0.13916
 C294 C 0.38278 0.22848 0.14506
 C295 C 0.38848 0.25585 0.12858
 C296 C 0.41325 0.25485 0.10643
 C297 C 0.43241 0.22604 0.10036
 C298 C 0.42681 0.19883 0.11693
 C299 C 0.45680 0.22490 0.07780
 C300 C 0.46259 0.25229 0.06137
 C301 C 0.44371 0.28092 0.06797
 C302 C 0.41919 0.28217 0.09019
 H303 H 0.37389 0.27801 0.13316
 H304 H 0.44130 0.17655 0.11262
 H305 H 0.47130 0.20270 0.07311
 H306 H 0.40481 0.30448 0.09461
 H307 H 0.39835 0.17860 0.15134
 H308 H 0.44762 0.30233 0.05563
 C309 C 0.59698 0.79653 0.14758
 C310 C 0.61781 0.76844 0.15197
 C311 C 0.61348 0.74211 0.13387
 C312 C 0.58897 0.74377 0.11217
 C313 C 0.56870 0.77225 0.10783
 C314 C 0.57291 0.79844 0.12565
 C315 C 0.54452 0.77407 0.08580
 C316 C 0.53992 0.74757 0.06833
 C317 C 0.55985 0.71916 0.07321
 C318 C 0.58429 0.71732 0.09480
 H319 H 0.62866 0.72001 0.13683
 H320 H 0.55752 0.82047 0.12266
 H321 H 0.52913 0.79605 0.08243
 H322 H 0.59951 0.69522 0.09789
 H323 H 0.59935 0.81746 0.16063
 H324 H 0.55686 0.69844 0.05999
 C325 C 0.66856 0.29344 -0.13765
 C326 C 0.67661 0.26516 -0.15382
 C327 C 0.66238 0.23853 -0.14468
 C328 C 0.64032 0.24012 -0.11989
 C329 C 0.63202 0.26880 -0.10412
 C330 C 0.64637 0.29529 -0.11312
 C331 C 0.60948 0.27051 -0.07969
 C332 C 0.59534 0.24378 -0.07058
 C333 C 0.60420 0.21528 -0.08617
 C334 C 0.62637 0.21349 -0.11065
 H335 H 0.66866 0.21644 -0.15660
 H336 H 0.64036 0.31747 -0.10127
 H337 H 0.60302 0.29260 -0.06777
 H338 H 0.63253 0.19129 -0.12242
 H339 H 0.67899 0.31436 -0.14429
 H340 H 0.59366 0.19436 -0.07971
 C341 C 0.33160 0.71225 -0.12129
 C342 C 0.32494 0.74017 -0.13887
 C343 C 0.34091 0.76601 -0.13223
 C344 C 0.36316 0.76405 -0.10826
 C345 C 0.36996 0.73572 -0.09100
 C346 C 0.35404 0.70997 -0.09770
 C347 C 0.39252 0.73363 -0.06730
 C348 C 0.40809 0.75966 -0.06029
 C349 C 0.40079 0.78786 -0.07733
 C350 C 0.37865 0.78999 -0.10119
 H351 H 0.33570 0.78781 -0.14534
 H352 H 0.35891 0.68808 -0.08467
 H353 H 0.39778 0.71180 -0.05422
 H354 H 0.37366 0.81193 -0.11411
 H355 H 0.31980 0.69193 -0.12607
 H356 H 0.41250 0.80822 -0.07246
 C357 C 0.15162 0.35734 0.20268
 C358 C 0.15768 0.34059 0.23079
 C359 C 0.13869 0.34940 0.25712
 C360 C 0.11429 0.37474 0.25555
 C361 C 0.10840 0.39143 0.22718
 C362 C 0.12713 0.38243 0.20085
 C363 C 0.08413 0.41700 0.22576
 C364 C 0.06598 0.42639 0.25250
 C365 C 0.07211 0.40952 0.28054
 C366 C 0.09592 0.38389 0.28202
 H367 H 0.14323 0.33702 0.27906
 H368 H 0.12298 0.39491 0.17889
 H369 H 0.07977 0.42987 0.20403
 H370 H 0.10012 0.37138 0.30396
 H371 H 0.16565 0.35094 0.18195
 H372 H 0.05844 0.41614 0.30146
 C373 C 0.13552 0.62393 0.78204
 C374 C 0.13959 0.64148 0.75454
 C375 C 0.12334 0.63431 0.72766
 C376 C 0.10348 0.61045 0.72837
 C377 C 0.09936 0.59365 0.75633
 C378 C 0.11557 0.60048 0.78293
 C379 C 0.07895 0.57037 0.75733
 C380 C 0.06273 0.56331 0.73059
 C381 C 0.06747 0.57969 0.70267
 C382 C 0.08756 0.60314 0.70160
 H383 H 0.12611 0.64695 0.70601
 H384 H 0.11274 0.58774 0.80456
 H385 H 0.07571 0.55777 0.77897
 H386 H 0.09051 0.61567 0.67987
 H387 H 0.14723 0.62841 0.80335
 H388 H 0.05522 0.57476 0.68175
 C389 C -0.16140 0.63389 0.20993
 C390 C -0.16318 0.65489 0.23510
 C391 C -0.13902 0.65062 0.25747
 C392 C -0.11433 0.62561 0.25527
 C393 C -0.11285 0.60490 0.22985
 C394 C -0.13638 0.60941 0.20721
 C395 C -0.08826 0.57967 0.22790
 C396 C -0.06581 0.57432 0.25167
 C397 C -0.06762 0.59499 0.27691
 C398 C -0.09143 0.62060 0.27854
 H399 H -0.13971 0.66595 0.27733
 H400 H -0.13568 0.59375 0.18755
 H401 H -0.08722 0.56361 0.20852
 H402 H -0.09223 0.63619 0.29826
 H403 H -0.17908 0.63634 0.19195
 H404 H -0.05047 0.59135 0.29542
 C405 C -0.11472 0.35884 0.69500
 C406 C -0.13253 0.35589 0.72268
 C407 C -0.12763 0.37538 0.74790
 C408 C -0.10537 0.39690 0.74565
 C409 C -0.08806 0.39972 0.71763
 C410 C -0.09296 0.38062 0.69247
 C411 C -0.06596 0.42142 0.71532
 C412 C -0.06047 0.43994 0.74093
 C413 C -0.07757 0.43666 0.76883
 C414 C -0.09995 0.41551 0.77110
 H415 H -0.14049 0.37359 0.76966
 H416 H -0.07985 0.38241 0.67080
 H417 H -0.05275 0.42355 0.69375
 H418 H -0.11293 0.41361 0.79283
 H419 H -0.11770 0.34472 0.67488
 H420 H -0.07386 0.45072 0.78888
 C421 C 0.30305 0.11607 0.35794
 C422 C 0.27412 0.13346 0.34920
 C423 C 0.24609 0.12812 0.36522
 C424 C 0.24693 0.10566 0.38943
 C425 C 0.27618 0.08842 0.39801
 C426 C 0.30409 0.09385 0.38215
 C427 C 0.27701 0.06592 0.42218
 C428 C 0.24890 0.06012 0.43775
 C429 C 0.21992 0.07739 0.42894
 C430 C 0.21896 0.10000 0.40508
 H431 H 0.22353 0.14103 0.35861
 H432 H 0.32674 0.08087 0.38843
 H433 H 0.29952 0.05271 0.42859
 H434 H 0.19630 0.11297 0.39880
 H435 H 0.32507 0.11982 0.34632
 H436 H 0.19792 0.07346 0.44053
 C437 C 0.79867 0.14654 0.61546
 C438 C 0.77097 0.15590 0.63308
 C439 C 0.74372 0.14127 0.62802
 C440 C 0.74409 0.11773 0.60555
 C441 C 0.77220 0.10833 0.58821
 C442 C 0.79934 0.12288 0.59335
 C443 C 0.77268 0.08463 0.56594
 C444 C 0.74527 0.07044 0.56035
 C445 C 0.71734 0.08021 0.57749
 C446 C 0.71680 0.10352 0.60000
 H447 H 0.72209 0.14850 0.64116
 H448 H 0.82108 0.11598 0.58025
 H449 H 0.79432 0.07750 0.55273
 H450 H 0.69501 0.11049 0.61300
 H451 H 0.82007 0.15719 0.61905
 H452 H 0.69593 0.06962 0.57368
 C453 C 0.20072 -0.14830 0.62850
 C454 C 0.22837 -0.15692 0.64576
 C455 C 0.25535 -0.14191 0.63927
 C456 C 0.25472 -0.11855 0.61596
 C457 C 0.22663 -0.10972 0.59910
 C458 C 0.19980 -0.12481 0.60549
 C459 C 0.22587 -0.08603 0.57610
 C460 C 0.25301 -0.07132 0.56936
 C461 C 0.28094 -0.08062 0.58601
 C462 C 0.28175 -0.10389 0.60920
 H463 H 0.27698 -0.14860 0.65207
 H464 H 0.17807 -0.11840 0.59274
 H465 H 0.20426 -0.07927 0.56325
 H466 H 0.30352 -0.11043 0.62184
 H467 H 0.17954 -0.15930 0.63314
 H468 H 0.30215 -0.06965 0.58131
 C469 C 0.69486 -0.11871 0.35793
 C470 C 0.72371 -0.13657 0.34927
 C471 C 0.75174 -0.13116 0.36411
 C472 C 0.75101 -0.10809 0.38709
 C473 C 0.72183 -0.09039 0.39565
 C474 C 0.69391 -0.09593 0.38097
 C475 C 0.72107 -0.06734 0.41863
 C476 C 0.74919 -0.06144 0.43301
 C477 C 0.77810 -0.07910 0.42419
 C478 C 0.77899 -0.10228 0.40153
 H479 H 0.77422 -0.14447 0.35748
 H480 H 0.67132 -0.08259 0.38725
 H481 H 0.69862 -0.05382 0.42507
 H482 H 0.80159 -0.11559 0.39523
 H483 H 0.67286 -0.12255 0.34716
 H484 H 0.80010 -0.07510 0.43491
 C485 C 0.60417 0.80021 -0.13512
 C486 C 0.62180 0.77115 -0.14251
 C487 C 0.61458 0.74370 -0.12716
 C488 C 0.58996 0.74521 -0.10485
 C489 C 0.57256 0.77461 -0.09743
 C490 C 0.57987 0.80196 -0.11268
 C491 C 0.54811 0.77617 -0.07494
 C492 C 0.54054 0.74866 -0.05992
 C493 C 0.55778 0.71951 -0.06774
 C494 C 0.58234 0.71781 -0.08992
 H495 H 0.62771 0.72108 -0.13291
 H496 H 0.56677 0.82469 -0.10729
 H497 H 0.53492 0.79879 -0.06925
 H498 H 0.59537 0.69506 -0.09538
 H499 H 0.60939 0.82174 -0.14642
 H500 H 0.55250 0.69797 -0.05648
 C501 C 0.40134 0.20054 -0.14065
 C502 C 0.38339 0.22946 -0.14825
 C503 C 0.39013 0.25695 -0.13363
 C504 C 0.41445 0.25561 -0.11174
 C505 C 0.43211 0.22635 -0.10405
 C506 C 0.42538 0.19898 -0.11867
 C507 C 0.45618 0.22496 -0.08190
 C508 C 0.46311 0.25251 -0.06749
 C509 C 0.44560 0.28152 -0.07560
 C510 C 0.42144 0.28305 -0.09744
 H511 H 0.37680 0.27948 -0.13953
 H512 H 0.43869 0.17634 -0.11308
 H513 H 0.46958 0.20244 -0.07600
 H514 H 0.40820 0.30569 -0.10311
 H515 H 0.39653 0.17896 -0.15134
 H516 H 0.45038 0.30309 -0.06483
 C517 C 0.33870 0.70560 0.14118
 C518 C 0.32941 0.73400 0.15678
 C519 C 0.34204 0.76131 0.14684
 C520 C 0.36370 0.76025 0.12174
 C521 C 0.37314 0.73148 0.10649
 C522 C 0.36043 0.70432 0.11634
 C523 C 0.39521 0.73029 0.08175
 C524 C 0.40792 0.75757 0.07185
 C525 C 0.39800 0.78617 0.08691
 C526 C 0.37615 0.78748 0.11167
 H527 H 0.33482 0.78346 0.15836
 H528 H 0.36738 0.68205 0.10491
 H529 H 0.40253 0.70810 0.07028
 H530 H 0.36912 0.80977 0.12303
 H531 H 0.32956 0.68416 0.14846
 H532 H 0.40743 0.80752 0.07980
 C533 C 0.66266 0.29696 0.12831
 C534 C 0.67187 0.26851 0.14437
 C535 C 0.65964 0.24115 0.13513
 C536 C 0.63831 0.24219 0.11044
 C537 C 0.62883 0.27102 0.09480
 C538 C 0.64126 0.29822 0.10382
 C539 C 0.60694 0.27218 0.07054
 C540 C 0.59451 0.24481 0.06155
 C541 C 0.60455 0.21619 0.07698
 C542 C 0.62619 0.21490 0.10123
 H543 H 0.66684 0.21894 0.14696
 H544 H 0.63430 0.32053 0.09206
 H545 H 0.59954 0.29440 0.05877
 H546 H 0.63328 0.19257 0.11291
 H547 H 0.67154 0.31843 0.13500
 H548 H 0.59536 0.19477 0.07058
 C549 C -0.15846 0.63248 0.78502
 C550 C -0.16306 0.65242 0.75863
 C551 C -0.14213 0.64654 0.73292
 C552 C -0.11749 0.62141 0.73346
 C553 C -0.11292 0.60204 0.76028
 C554 C -0.13354 0.60778 0.78592
 C555 C -0.08796 0.57712 0.76090
 C556 C -0.06801 0.57089 0.73469
 C557 C -0.07311 0.59001 0.70796
 C558 C -0.09745 0.61521 0.70743
 H559 H -0.14515 0.66093 0.71203
 H560 H -0.13047 0.59309 0.80666
 H561 H -0.08441 0.56230 0.78153
 H562 H -0.10069 0.62975 0.68660
 H563 H -0.17368 0.63607 0.80542
 H564 H -0.05797 0.58573 0.68753
 C565 C -0.13242 0.37250 0.29694
 C566 C -0.14559 0.36653 0.26815
 C567 C -0.13628 0.38240 0.24137
 C568 C -0.11362 0.40339 0.24317
 C569 C -0.10037 0.40905 0.27221
 C570 C -0.11013 0.39366 0.29898
 C571 C -0.07730 0.42967 0.27390
 C572 C -0.06697 0.44440 0.24682
 C573 C -0.08045 0.43865 0.21811
 C574 C -0.10362 0.41844 0.21632
 H575 H -0.14594 0.37782 0.21896
 H576 H -0.10030 0.39774 0.32145
 H577 H -0.06706 0.43381 0.29617
 H578 H -0.11351 0.41438 0.19387
 H579 H -0.13940 0.36088 0.31801
 H580 H -0.07306 0.44978 0.19690
 C581 C 0.15771 0.36435 0.78680
 C582 C 0.16479 0.34709 0.75943
 C583 C 0.14677 0.35533 0.73271
 C584 C 0.12203 0.38038 0.73328
 C585 C 0.11487 0.39737 0.76100
 C586 C 0.13288 0.38917 0.78763
 C587 C 0.08991 0.42229 0.76157
 C588 C 0.07225 0.43071 0.73462
 C589 C 0.07985 0.41377 0.70713
 C590 C 0.10440 0.38878 0.70649
 H591 H 0.15220 0.34258 0.71130
 H592 H 0.12778 0.40195 0.80909
 H593 H 0.08443 0.43527 0.78287
 H594 H 0.10963 0.37604 0.68503
 H595 H 0.17107 0.35840 0.80776
 H596 H 0.06661 0.41968 0.68607
 C597 C 0.12379 0.63112 0.30469
 C598 C 0.13992 0.63725 0.27687
 C599 C 0.13368 0.62126 0.24977
 C600 C 0.11148 0.59971 0.25029
 C601 C 0.09540 0.59368 0.27835
 C602 C 0.10182 0.60943 0.30546
 C603 C 0.07292 0.57231 0.27871
 C604 C 0.06601 0.55725 0.25121
 C605 C 0.08226 0.56346 0.22349
 C606 C 0.10487 0.58438 0.22305
 H607 H 0.14554 0.62598 0.22803
 H608 H 0.08973 0.60512 0.32720
 H609 H 0.06044 0.56786 0.30020
 H610 H 0.11698 0.58874 0.20134
 H611 H 0.12828 0.64290 0.32597
 H612 H 0.07749 0.55213 0.20201
 C613 C 0.69535 -0.11717 0.64237
 C614 C 0.72407 -0.13563 0.64991
 C615 C 0.75199 -0.13062 0.63359
 C616 C 0.75127 -0.10742 0.61015
 C617 C 0.72221 -0.08917 0.60263
 C618 C 0.69440 -0.09424 0.61887
 C619 C 0.72145 -0.06610 0.57908
 C620 C 0.74944 -0.06073 0.56308
 C621 C 0.77826 -0.07884 0.57094
 C622 C 0.77916 -0.10206 0.59418
 H623 H 0.77438 -0.14438 0.63940
 H624 H 0.67191 -0.08046 0.61341
 H625 H 0.69908 -0.05219 0.57339
 H626 H 0.80166 -0.11578 0.59969
 H627 H 0.67346 -0.12070 0.65436
 H628 H 0.80016 -0.07523 0.55895
 C629 C 0.20051 -0.14731 0.38469
 C630 C 0.22836 -0.15634 0.36719
 C631 C 0.25535 -0.14138 0.37236
 C632 C 0.25462 -0.11781 0.39478
 C633 C 0.22639 -0.10869 0.41203
 C634 C 0.19948 -0.12358 0.40680
 C635 C 0.22562 -0.08499 0.43435
 C636 C 0.25288 -0.07058 0.44002
 C637 C 0.28089 -0.08005 0.42291
 C638 C 0.28171 -0.10333 0.40038
 H639 H 0.27712 -0.14839 0.35935
 H640 H 0.17765 -0.11693 0.41984
 H641 H 0.20394 -0.07808 0.44755
 H642 H 0.30357 -0.11008 0.38742
 H643 H 0.17932 -0.15828 0.38102
 H644 H 0.30219 -0.06928 0.42679
 C645 C 0.79571 0.14715 0.37217
 C646 C 0.76781 0.15610 0.35538
 C647 C 0.74105 0.14069 0.36148
 C648 C 0.74199 0.11691 0.38438
 C649 C 0.77024 0.10800 0.40100
 C650 C 0.79698 0.12319 0.39465
 C651 C 0.77121 0.08426 0.42389
 C652 C 0.74413 0.06961 0.43085
 C653 C 0.71608 0.07880 0.41435
 C654 C 0.71507 0.10211 0.39119
 H655 H 0.71929 0.14763 0.34894
 H656 H 0.81882 0.11666 0.40717
 H657 H 0.79292 0.07755 0.43661
 H658 H 0.69319 0.10869 0.37875
 H659 H 0.81674 0.15845 0.36771
 H660 H 0.69492 0.06781 0.41923
 C661 C 0.30499 0.11443 0.64533
 C662 C 0.27642 0.13286 0.65383
 C663 C 0.24829 0.12810 0.63879
 C664 C 0.24867 0.10531 0.61560
 C665 C 0.27759 0.08714 0.60707
 C666 C 0.30560 0.09186 0.62210
 C667 C 0.27801 0.06450 0.58373
 C668 C 0.24981 0.05950 0.56895
 C669 C 0.22114 0.07755 0.57781
 C670 C 0.22059 0.10032 0.60084
 H671 H 0.22599 0.14180 0.64532
 H672 H 0.32799 0.07813 0.61588
 H673 H 0.30027 0.05063 0.57728
 H674 H 0.19819 0.11400 0.60713
 H675 H 0.32706 0.11772 0.65630
 H676 H 0.19909 0.07421 0.56680
   
