data_POSCAR
  _audit_creation_date              2014-09-24
  _audit_creation_method            'ToBaCCo'
  _symmetry_space_group_name_H-M    'P1'
  _symmetry_Int_Tables_number       1
  _symmetry_cell_setting            triclinic
  loop_
  _symmetry_equiv_pos_as_xyz
 x,y,z
_cell_length_a 47.8192
_cell_length_b 47.9475
_cell_length_c 47.6413
_cell_angle_alpha 90.017700
_cell_angle_beta 89.925800
_cell_angle_gamma 89.945000
loop_
  _atom_site_label
  _atom_site_type_symbol
  _atom_site_fract_x
  _atom_site_fract_y
  _atom_site_fract_z
N1 N 0.15366 0.17131 0.22893
 N2 N 0.16801 0.14829 0.22495
 C3 C 0.16159 0.12990 0.24526
 C4 C 0.14220 0.14208 0.26330
 C5 C 0.13787 0.16856 0.25216
 H6 H 0.17080 0.10939 0.24689
 H7 H 0.12400 0.18463 0.25991
 Cu8 Cu 0.19450 0.14502 0.19417
 Cu9 Cu 0.15682 0.20307 0.20354
 Cu10 Cu 0.18816 0.18804 0.13940
 N11 N 0.22276 0.14622 0.16481
 N12 N 0.21975 0.16239 0.14278
 C13 C 0.24111 0.15788 0.12490
 C14 C 0.25888 0.13799 0.13655
 C15 C 0.24637 0.13120 0.16202
 H16 H 0.24352 0.16869 0.10515
 H17 H 0.25339 0.11601 0.17720
 N18 N 0.16420 0.22096 0.14560
 N19 N 0.15316 0.22719 0.17021
 C20 C 0.13859 0.25111 0.16786
 C21 C 0.14056 0.26052 0.14041
 C22 C 0.15703 0.24079 0.12694
 H23 H 0.12693 0.26060 0.18482
 H24 H 0.16370 0.24098 0.10526
 H25 H 0.16043 0.17557 0.17144
 H26 H 0.19336 0.19414 0.18091
 N27 N -0.14291 0.83912 0.21819
 N28 N -0.16376 0.85691 0.21952
 C29 C -0.16096 0.87262 0.24279
 C30 C -0.13684 0.86437 0.25666
 C31 C -0.12591 0.84308 0.24031
 H32 H -0.17509 0.88920 0.24883
 H33 H -0.10717 0.83109 0.24430
 Cu34 Cu -0.19168 0.85879 0.18985
 Cu35 Cu -0.13929 0.81245 0.18764
 Cu36 Cu -0.19995 0.80188 0.14911
 N37 N -0.22417 0.85425 0.16584
 N38 N -0.22793 0.83150 0.15099
 C39 C -0.25195 0.83380 0.13646
 C40 C -0.26396 0.85962 0.14226
 C41 C -0.24555 0.87193 0.16115
 H42 H -0.25940 0.81819 0.12193
 H43 H -0.24742 0.89219 0.17090
 N44 N -0.16845 0.77518 0.14948
 N45 N -0.14499 0.77988 0.16322
 C46 C -0.12698 0.75888 0.15815
 C47 C -0.13962 0.73995 0.14025
 C48 C -0.16595 0.75101 0.13524
 H49 H -0.10629 0.75738 0.16712
 H50 H -0.18183 0.74247 0.12162
 H51 H -0.16711 0.82752 0.15708
 H52 H -0.18203 0.80909 0.18814
 N53 N -0.14760 0.16685 -0.22308
 N54 N -0.16412 0.14520 -0.21986
 C55 C -0.15950 0.12703 -0.24096
 C56 C -0.13904 0.13799 -0.25842
 C57 C -0.13202 0.16330 -0.24633
 H58 H -0.17055 0.10755 -0.24364
 H59 H -0.11653 0.17797 -0.25373
 Cu60 Cu -0.19047 0.14291 -0.18874
 Cu61 Cu -0.14729 0.19792 -0.19688
 Cu62 Cu -0.20056 0.19969 -0.14800
 N63 N -0.22277 0.14639 -0.16406
 N64 N -0.22707 0.16890 -0.14894
 C65 C -0.25088 0.16585 -0.13420
 C66 C -0.26223 0.13983 -0.14015
 C67 C -0.24362 0.12812 -0.15930
 H68 H -0.25881 0.18128 -0.11970
 H69 H -0.24509 0.10797 -0.16933
 N70 N -0.17141 0.22865 -0.15027
 N71 N -0.15069 0.22756 -0.16854
 C72 C -0.13337 0.24921 -0.16400
 C73 C -0.14373 0.26481 -0.14186
 C74 C -0.16794 0.25117 -0.13373
 H75 H -0.11460 0.25334 -0.17594
 H76 H -0.18155 0.25680 -0.11649
 H77 H -0.16559 0.17868 -0.16236
 H78 H -0.18978 0.19348 -0.18954
 N79 N 0.14722 0.83309 -0.22331
 N80 N 0.16378 0.85471 -0.22012
 C81 C 0.15924 0.87286 -0.24122
 C82 C 0.13879 0.86193 -0.25867
 C83 C 0.13169 0.83665 -0.24655
 H84 H 0.17035 0.89230 -0.24393
 H85 H 0.11619 0.82200 -0.25395
 Cu86 Cu 0.19011 0.85696 -0.18903
 Cu87 Cu 0.14685 0.80201 -0.19711
 Cu88 Cu 0.20004 0.80022 -0.14826
 N89 N 0.22234 0.85349 -0.16433
 N90 N 0.22658 0.83099 -0.14920
 C91 C 0.25034 0.83403 -0.13444
 C92 C 0.26174 0.86003 -0.14038
 C93 C 0.24320 0.87174 -0.15955
 H94 H 0.25820 0.81860 -0.11993
 H95 H 0.24472 0.89189 -0.16958
 N96 N 0.17088 0.77128 -0.15052
 N97 N 0.15018 0.77236 -0.16877
 C98 C 0.13287 0.75070 -0.16421
 C99 C 0.14319 0.73512 -0.14208
 C100 C 0.16738 0.74877 -0.13398
 H101 H 0.11412 0.74655 -0.17615
 H102 H 0.18096 0.74316 -0.11676
 H103 H 0.16515 0.82124 -0.16259
 H104 H 0.18935 0.80638 -0.18978
 N105 N 0.16839 1.15034 0.77431
 N106 N 0.14607 1.16589 0.77815
 C107 C 0.12800 1.16139 0.75698
 C108 C 0.13971 1.14199 0.73885
 C109 C 0.16536 1.13549 0.75057
 H110 H 0.10796 1.17161 0.75486
 H111 H 0.18045 1.12057 0.74279
 Cu112 Cu 0.14251 1.19053 0.81036
 Cu113 Cu 0.19905 1.14931 0.80098
 Cu114 Cu 0.19743 1.19820 0.85408
 N115 N 0.14485 1.22136 0.83676
 N116 N 0.16644 1.22440 0.85351
 C117 C 0.16293 1.24754 0.86906
 C118 C 0.13771 1.25971 0.86175
 C119 C 0.12676 1.24245 0.84119
 H120 H 0.17755 1.25481 0.88471
 H121 H 0.10735 1.24527 0.82992
 N122 N 0.22695 1.16984 0.85089
 N123 N 0.22791 1.15155 0.83023
 C124 C 0.25044 1.13507 0.83370
 C125 C 0.26423 1.14327 0.85784
 C126 C 0.24872 1.16537 0.86819
 H127 H 0.25600 1.11787 0.82012
 H128 H 0.25303 1.17737 0.88690
 H129 H 0.17786 1.16406 0.83584
 H130 H 0.19320 1.19074 0.81148
 N131 N 0.83355 0.85231 0.77577
 N132 N 0.85360 0.83355 0.77669
 C133 C 0.87167 0.83835 0.75552
 C134 C 0.86230 0.86123 0.74047
 C135 C 0.83807 0.86953 0.75398
 H136 H 0.88981 0.82569 0.75085
 H137 H 0.82468 0.88685 0.74840
 Cu138 Cu 0.85286 0.80397 0.80462
 Cu139 Cu 0.80278 0.85292 0.80253
 Cu140 Cu 0.80095 0.79983 0.85193
 N141 N 0.85213 0.77461 0.83277
 N142 N 0.83131 0.77278 0.85071
 C143 C 0.83526 0.75044 0.86730
 C144 C 0.85996 0.73756 0.85944
 C145 C 0.87014 0.75350 0.83745
 H146 H 0.82139 0.74430 0.88413
 H147 H 0.88898 0.74971 0.82548
 N148 N 0.77237 0.82936 0.84977
 N149 N 0.77342 0.84988 0.83136
 C150 C 0.75177 0.86727 0.83595
 C151 C 0.73628 0.85715 0.85824
 C152 C 0.74990 0.83304 0.86644
 H153 H 0.74748 0.88586 0.82388
 H154 H 0.74423 0.81957 0.88371
 H155 H 0.82326 0.83250 0.83478
 H156 H 0.80261 0.81050 0.81002
 N157 N 0.16513 0.85269 1.22163
 N158 N 0.15142 0.82954 1.22693
 C159 C 0.13676 0.83269 1.25084
 C160 C 0.14144 0.85933 1.26108
 C161 C 0.15952 0.87145 1.24188
 H162 H 0.12328 0.81693 1.25977
 H163 H 0.16824 0.89223 1.24263
 Cu164 Cu 0.15299 0.79792 1.20154
 Cu165 Cu 0.18895 0.85683 1.18874
 Cu166 Cu 0.20383 0.79541 1.15336
 N167 N 0.15247 0.77056 1.17145
 N168 N 0.17232 0.76977 1.15238
 C169 C 0.16728 0.74864 1.13450
 C170 C 0.14290 0.73543 1.14286
 C171 C 0.13410 0.74992 1.16643
 H172 H 0.18070 0.74300 1.11711
 H173 H 0.11567 0.74584 1.17894
 N174 N 0.22624 0.82944 1.14915
 N175 N 0.22009 0.85310 1.16187
 C176 C 0.23926 0.87240 1.15474
 C177 C 0.25845 0.86026 1.13662
 C178 C 0.24940 0.83300 1.13354
 H179 H 0.23968 0.89344 1.16290
 H180 H 0.25885 0.81686 1.12083
 H181 H 0.17478 0.82407 1.16347
 H182 H 0.19990 0.81597 1.19235
 N183 N 0.83105 1.14916 1.22605
 N184 N 0.84945 1.16950 1.22654
 C185 C 0.86637 1.16603 1.24887
 C186 C 0.85819 1.14212 1.26296
 C187 C 0.83570 1.13200 1.24786
 H188 H 0.88374 1.17945 1.25413
 H189 H 0.82352 1.11357 1.25245
 Cu190 Cu 0.84995 1.19759 1.19712
 Cu191 Cu 0.80250 1.14620 1.19717
 Cu192 Cu 0.80373 1.19578 1.14414
 N193 N 0.85018 1.22573 1.16777
 N194 N 0.83249 1.22446 1.14672
 C195 C 0.83739 1.24583 1.12911
 C196 C 0.85928 1.26148 1.13975
 C197 C 0.86686 1.24810 1.16434
 H198 H 0.82559 1.24995 1.11022
 H199 H 0.88351 1.25402 1.17844
 N200 N 0.77623 1.16517 1.14557
 N201 N 0.77544 1.14672 1.16611
 C202 C 0.75362 1.12950 1.16201
 C203 C 0.74005 1.13737 1.13766
 C204 C 0.75502 1.16000 1.12773
 H205 H 0.74799 1.11245 1.17572
 H206 H 0.75028 1.17228 1.10931
 H207 H 0.82542 1.16559 1.16595
 H208 H 0.80107 1.18807 1.18663
 N209 N 0.46984 0.95056 0.96962
 N210 N 0.44825 0.93376 0.96625
 N211 N 0.52889 0.96933 0.95028
 N212 N 0.55017 0.96561 0.93302
 N213 N 0.52878 0.95013 0.96991
 N214 N 0.55005 0.93288 0.96662
 N215 N 0.47016 0.96980 0.95001
 N216 N 0.44891 0.96649 0.93266
 C217 C 0.43540 0.94391 0.94306
 C218 C 0.56318 0.94278 0.94348
 N219 N 0.52973 1.04861 0.96986
 N220 N 0.55130 1.06546 0.96652
 N221 N 0.47066 1.02988 0.95007
 N222 N 0.44944 1.03352 0.93277
 N223 N 0.47090 1.04938 0.96942
 N224 N 0.44993 1.06689 0.96575
 N225 N 0.52947 1.02940 0.95022
 N226 N 0.55077 1.03276 0.93288
 Mn227 Mn 0.49978 0.99961 0.94980
 C228 C 0.56423 1.05534 0.94333
 C229 C 0.43672 1.05672 0.94280
 N230 N 0.52848 0.95016 1.03035
 N231 N 0.54976 0.93296 1.03395
 N232 N 0.46941 0.96996 1.04942
 N233 N 0.44751 0.96706 1.06607
 N234 N 0.46954 0.95059 1.02996
 N235 N 0.44771 0.93401 1.03278
 N236 N 0.52824 0.96937 1.04999
 N237 N 0.54923 0.96567 1.06757
 Mn238 Mn 0.49918 0.95001 0.99996
 C239 C 0.56251 0.94286 1.05730
 C240 C 0.43419 0.94449 1.05545
 N241 N 0.47031 1.04949 1.02990
 N242 N 0.44894 1.06668 1.03297
 N243 N 0.52879 1.02943 1.04976
 N244 N 0.55042 1.03232 1.06670
 N245 N 0.52904 1.04878 1.03028
 N246 N 0.55071 1.06546 1.03351
 N247 N 0.46980 1.03001 1.04926
 N248 N 0.44794 1.03331 1.06590
 Mn249 Mn 0.50001 1.04940 0.99987
 Mn250 Mn 0.49905 0.99971 1.04997
 Cl251 Cl 0.49950 0.99968 0.99990
 C252 C 0.43516 1.05634 1.05554
 C253 C 0.56385 1.05497 1.05634
 N254 N -0.03001 0.52950 0.05091
 N255 N -0.03333 0.55081 0.06817
 N256 N -0.04994 0.47108 0.03139
 N257 N -0.06707 0.44975 0.03456
 N258 N -0.03045 0.47076 0.05076
 N259 N -0.03371 0.44914 0.06757
 N260 N -0.04932 0.52976 0.03135
 N261 N -0.06626 0.55125 0.03474
 C262 C -0.05607 0.56421 0.05782
 C263 C -0.05670 0.43626 0.05726
 N264 N -0.03051 0.47087 -0.04864
 N265 N -0.03436 0.44981 -0.06606
 N266 N -0.04918 0.52975 -0.02904
 N267 N -0.06600 0.55132 -0.03236
 N268 N -0.02983 0.52946 -0.04861
 N269 N -0.03304 0.55073 -0.06586
 N270 N -0.04984 0.47100 -0.02904
 N271 N -0.06728 0.44996 -0.03252
 Mn272 Mn -0.04992 0.50040 0.00116
 C273 C -0.05738 0.43693 -0.05573
 C274 C -0.05570 0.56420 -0.05546
 N275 N 0.02973 0.47006 0.05076
 N276 N 0.03287 0.44857 0.06781
 N277 N 0.04972 0.52856 0.03139
 N278 N 0.06691 0.54983 0.03468
 N279 N 0.03018 0.52886 0.05077
 N280 N 0.03344 0.55042 0.06767
 N281 N 0.04914 0.46991 0.03126
 N282 N 0.06601 0.44835 0.03451
 Mn283 Mn -0.00013 0.49979 0.05116
 C284 C 0.05564 0.43521 0.05743
 C285 C 0.05649 0.56327 0.05742
 N286 N 0.03040 0.52880 -0.04867
 N287 N 0.03424 0.54983 -0.06611
 N288 N 0.04908 0.46994 -0.02916
 N289 N 0.06577 0.44823 -0.03241
 N290 N 0.02972 0.47021 -0.04866
 N291 N 0.03276 0.44878 -0.06578
 N292 N 0.04969 0.52871 -0.02909
 N293 N 0.06710 0.54978 -0.03260
 Mn294 Mn -0.00006 0.49983 -0.04898
 Mn295 Mn 0.04976 0.49928 0.00110
 Cl296 Cl -0.00009 0.49983 0.00111
 C297 C 0.05722 0.56276 -0.05582
 C298 C 0.05536 0.43525 -0.05539
 N299 N 0.95075 0.03001 0.52965
 N300 N 0.93372 0.03303 0.55126
 N301 N 0.97022 0.04966 0.47066
 N302 N 0.96685 0.06681 0.44928
 N303 N 0.95079 0.03035 0.47066
 N304 N 0.93355 0.03392 0.44935
 N305 N 0.97011 0.04939 0.52981
 N306 N 0.96684 0.06607 0.55163
 C307 C 0.94399 0.05565 0.56480
 C308 C 0.94385 0.05676 0.43619
 N309 N 1.05000 0.03081 0.47067
 N310 N 1.06732 0.03455 0.44942
 N311 N 1.03027 0.04976 0.52963
 N312 N 1.03351 0.06694 0.55100
 N313 N 1.04974 0.03046 0.52973
 N314 N 1.06675 0.03395 0.55125
 N315 N 1.03032 0.04992 0.47059
 N316 N 1.03362 0.06708 0.44919
 Mn317 Mn 1.00022 0.05002 0.50017
 C318 C 1.05683 0.05726 0.43617
 C319 C 1.05636 0.05683 0.56432
 N320 N 0.95120 -0.02968 0.47016
 N321 N 0.93427 -0.03281 0.44853
 N322 N 0.97057 -0.04937 0.52912
 N323 N 0.96751 -0.06634 0.55071
 N324 N 0.95117 -0.03000 0.52933
 N325 N 0.93446 -0.03316 0.55116
 N326 N 0.97062 -0.04905 0.47009
 N327 N 0.96733 -0.06598 0.44848
 Mn328 Mn 0.95063 0.00015 0.49995
 C329 C 0.94453 -0.05560 0.43520
 C330 C 0.94486 -0.05598 0.56425
 N331 N 1.05014 -0.02961 0.52940
 N332 N 1.06704 -0.03279 0.55104
 N333 N 1.03091 -0.04870 0.47019
 N334 N 1.03434 -0.06558 0.44857
 N335 N 1.05027 -0.02931 0.47034
 N336 N 1.06744 -0.03251 0.44886
 N337 N 1.03079 -0.04902 0.52934
 N338 N 1.03397 -0.06587 0.55104
 Mn339 Mn 1.05039 0.00058 0.50004
 Mn340 Mn 1.00074 -0.04939 0.49967
 Cl341 Cl 1.00050 0.00034 0.49995
 C342 C 1.05674 -0.05552 0.56436
 C343 C 1.05725 -0.05525 0.43547
 C344 C 1.10533 0.10622 0.33616
 C345 C 1.12233 0.09019 0.31828
 C346 C 1.13453 0.10200 0.29443
 C347 C 1.12984 0.13019 0.28745
 C348 C 1.11249 0.14612 0.30527
 C349 C 1.10058 0.13434 0.32933
 C350 C 1.09279 0.09365 0.36186
 C351 C 1.06592 0.10154 0.37101
 C352 C 1.05428 0.08980 0.39522
 C353 C 1.06911 0.06971 0.41063
 C354 C 1.09581 0.06163 0.40148
 C355 C 1.10760 0.07360 0.37749
 H356 H 1.14730 0.08863 0.28139
 H357 H 1.10833 0.16790 0.30113
 H358 H 1.03354 0.09624 0.40170
 H359 H 1.10776 0.04627 0.41306
 H360 H 1.08799 0.14748 0.34286
 H361 H 1.05369 0.11654 0.35929
 H362 H 1.12599 0.06831 0.32250
 H363 H 1.12853 0.06739 0.37145
 C364 C 0.89769 -0.10167 0.33302
 C365 C 0.86917 -0.09824 0.32663
 C366 C 0.85799 -0.10913 0.30182
 C367 C 0.87498 -0.12397 0.28293
 C368 C 0.90344 -0.12756 0.28934
 C369 C 0.91467 -0.11644 0.31400
 C370 C 0.90967 -0.08988 0.35933
 C371 C 0.93069 -0.10424 0.37412
 C372 C 0.94209 -0.09306 0.39868
 C373 C 0.93256 -0.06739 0.40918
 C374 C 0.91151 -0.05304 0.39458
 C375 C 0.90028 -0.06409 0.36987
 H376 H 0.83592 -0.10629 0.29770
 H377 H 0.91721 -0.13856 0.27509
 H378 H 0.95821 -0.10464 0.40958
 H379 H 0.90389 -0.03311 0.40209
 H380 H 0.93682 -0.11905 0.31791
 H381 H 0.93811 -0.12435 0.36693
 H382 H 0.85533 -0.08746 0.34100
 H383 H 0.88450 -0.05220 0.35883
 C384 C 0.89615 0.10215 0.66635
 C385 C 0.88221 0.08526 0.68604
 C386 C 0.87057 0.09688 0.71034
 C387 C 0.87279 0.12562 0.71562
 C388 C 0.88663 0.14251 0.69592
 C389 C 0.89807 0.13095 0.67156
 C390 C 0.90862 0.08990 0.64048
 C391 C 0.93411 0.10003 0.62980
 C392 C 0.94558 0.08892 0.60521
 C393 C 0.93194 0.06730 0.59087
 C394 C 0.90665 0.05691 0.60162
 C395 C 0.89507 0.06815 0.62611
 H396 H 0.86029 0.08323 0.72520
 H397 H 0.88836 0.16479 0.69907
 H398 H 0.96522 0.09718 0.59752
 H399 H 0.89565 0.04027 0.59095
 H400 H 0.90811 0.14468 0.65660
 H401 H 0.94538 0.11640 0.64059
 H402 H 0.88068 0.06295 0.68291
 H403 H 0.87524 0.06010 0.63350
 C404 C 1.10397 -0.10224 0.66600
 C405 C 1.11791 -0.08536 0.68568
 C406 C 1.12942 -0.09698 0.71001
 C407 C 1.12707 -0.12570 0.71535
 C408 C 1.11321 -0.14257 0.69566
 C409 C 1.10191 -0.13101 0.67127
 C410 C 1.09168 -0.08999 0.64008
 C411 C 1.06620 -0.10004 0.62932
 C412 C 1.05488 -0.08889 0.60471
 C413 C 1.06866 -0.06730 0.59041
 C414 C 1.09394 -0.05702 0.60122
 C415 C 1.10537 -0.06830 0.62572
 H416 H 1.13971 -0.08334 0.72486
 H417 H 1.11139 -0.16484 0.69885
 H418 H 1.03524 -0.09707 0.59698
 H419 H 1.10505 -0.04042 0.59059
 H420 H 1.09186 -0.14474 0.65633
 H421 H 1.05482 -0.11636 0.64009
 H422 H 1.11955 -0.06306 0.68252
 H423 H 1.12520 -0.06032 0.63315
 C424 C 0.33357 1.10396 1.10186
 C425 C 0.32554 1.09785 1.12956
 C426 C 0.30098 1.10895 1.14092
 C427 C 0.28379 1.12691 1.12507
 C428 C 0.29215 1.13336 1.09743
 C429 C 0.31653 1.12188 1.08595
 C430 C 0.35956 1.09164 1.08969
 C431 C 0.37610 1.10687 1.07063
 C432 C 0.40051 1.09529 1.05933
 C433 C 0.40917 1.06842 1.06715
 C434 C 0.39278 1.05316 1.08615
 C435 C 0.36817 1.06455 1.09714
 H436 H 0.29594 1.10362 1.16238
 H437 H 0.27969 1.14681 1.08420
 H438 H 0.41283 1.10755 1.04479
 H439 H 0.39883 1.03226 1.09231
 H440 H 0.32174 1.12674 1.06439
 H441 H 0.37048 1.12794 1.06476
 H442 H 0.33843 1.08470 1.14273
 H443 H 0.35574 1.05193 1.11126
 C444 C 0.33525 0.89603 0.89446
 C445 C 0.32831 0.86805 0.89977
 C446 C 0.30416 0.85625 0.88837
 C447 C 0.28628 0.87195 0.87094
 C448 C 0.29352 0.89991 0.86533
 C449 C 0.31753 0.91179 0.87707
 C450 C 0.36083 0.90863 0.90705
 C451 C 0.37668 0.92843 0.89213
 C452 C 0.40075 0.94008 0.90394
 C453 C 0.40972 0.93195 0.93076
 C454 C 0.39398 0.91223 0.94573
 C455 C 0.36973 0.90083 0.93410
 H456 H 0.29996 0.83461 0.89310
 H457 H 0.28050 0.91303 0.85232
 H458 H 0.41257 0.95518 0.89190
 H459 H 0.40027 0.90579 0.96658
 H460 H 0.32191 0.93353 0.87285
 H461 H 0.37080 0.93461 0.87110
 H462 H 0.34175 0.85504 0.91251
 H463 H 0.35780 0.88612 0.94647
 C464 C 0.66208 0.89447 1.10696
 C465 C 0.67956 0.91052 1.12430
 C466 C 0.70365 0.89899 1.13621
 C467 C 0.71130 0.87108 1.13083
 C468 C 0.69368 0.85505 1.11345
 C469 C 0.66940 0.86652 1.10186
 C470 C 0.63642 0.90684 1.09421
 C471 C 0.62763 0.89888 1.06717
 C472 C 0.60353 0.91044 1.05525
 C473 C 0.58786 0.93046 1.06994
 C474 C 0.59664 0.93861 1.09682
 C475 C 0.62051 0.92680 1.10890
 H476 H 0.71643 0.91238 1.14916
 H477 H 0.69823 0.83343 1.10889
 H478 H 0.59736 0.90394 1.03439
 H479 H 0.58485 0.95390 1.10869
 H480 H 0.65617 0.85329 1.08914
 H481 H 0.63958 0.88400 1.05497
 H482 H 0.67494 0.93226 1.12834
 H483 H 0.62626 0.93309 1.12994
 C484 C 0.66422 1.10371 0.89464
 C485 C 0.68204 1.08798 0.87727
 C486 C 0.70605 1.09990 0.86555
 C487 C 0.71321 1.12788 0.87115
 C488 C 0.69523 1.14356 0.88856
 C489 C 0.67106 1.13171 0.89994
 C490 C 0.63866 1.09102 0.90723
 C491 C 0.62968 1.09877 0.93429
 C492 C 0.60547 1.08724 0.94595
 C493 C 0.58986 1.06743 0.93100
 C494 C 0.59890 1.05936 0.90415
 C495 C 0.62292 1.07114 0.89231
 H496 H 0.71914 1.08679 0.85256
 H497 H 0.69938 1.16521 0.89328
 H498 H 0.59911 1.09367 0.96680
 H499 H 0.58717 1.04420 0.89210
 H500 H 0.65754 1.14469 0.91268
 H501 H 0.64152 1.11355 0.94666
 H502 H 0.67773 1.06621 0.87307
 H503 H 0.62887 1.06499 0.87128
 C504 C 0.10334 0.33457 0.10477
 C505 C 0.10448 0.33088 0.13402
 C506 C 0.11651 0.30689 0.14556
 C507 C 0.12771 0.28598 0.12814
 C508 C 0.12652 0.28966 0.09889
 C509 C 0.11446 0.31363 0.08735
 C510 C 0.09088 0.36025 0.09250
 C511 C 0.10321 0.37310 0.06902
 C512 C 0.09169 0.39738 0.05761
 C513 C 0.06762 0.40940 0.06943
 C514 C 0.05516 0.39656 0.09280
 C515 C 0.06667 0.37225 0.10422
 H516 H 0.11732 0.30502 0.16816
 H517 H 0.13463 0.27394 0.08477
 H518 H 0.10176 0.40682 0.03959
 H519 H 0.03648 0.40527 0.10225
 H520 H 0.11353 0.31561 0.06474
 H521 H 0.12207 0.36463 0.05972
 H522 H 0.09652 0.34680 0.14804
 H523 H 0.05643 0.36266 0.12204
 C524 C -0.10705 0.33820 -0.10485
 C525 C -0.09059 0.31938 -0.12038
 C526 C -0.10253 0.29568 -0.13248
 C527 C -0.13117 0.29005 -0.12913
 C528 C -0.14762 0.30870 -0.11347
 C529 C -0.13574 0.33257 -0.10158
 C530 C -0.09433 0.36359 -0.09220
 C531 C -0.10325 0.37341 -0.06582
 C532 C -0.09132 0.39729 -0.05402
 C533 C -0.07006 0.41174 -0.06821
 C534 C -0.06100 0.40194 -0.09446
 C535 C -0.07309 0.37822 -0.10639
 H536 H -0.08917 0.28153 -0.14407
 H537 H -0.16981 0.30513 -0.11076
 H538 H -0.09857 0.40430 -0.03365
 H539 H -0.04474 0.41277 -0.10593
 H540 H -0.14915 0.34684 -0.09018
 H541 H -0.11919 0.36242 -0.05408
 H542 H -0.06834 0.32272 -0.12286
 H543 H -0.06604 0.37157 -0.12693
 C544 C 0.10664 0.66161 -0.10508
 C545 C 0.09015 0.68039 -0.12058
 C546 C 0.10204 0.70413 -0.13268
 C547 C 0.13066 0.70984 -0.12936
 C548 C 0.14714 0.69123 -0.11373
 C549 C 0.13530 0.66732 -0.10184
 C550 C 0.09398 0.63620 -0.09239
 C551 C 0.10293 0.62641 -0.06604
 C552 C 0.09107 0.60249 -0.05421
 C553 C 0.06985 0.58797 -0.06834
 C554 C 0.06076 0.59774 -0.09456
 C555 C 0.07277 0.62150 -0.10652
 H556 H 0.08866 0.71825 -0.14424
 H557 H 0.16931 0.69485 -0.11104
 H558 H 0.09835 0.59552 -0.03386
 H559 H 0.04451 0.58687 -0.10598
 H560 H 0.14874 0.65309 -0.09048
 H561 H 0.11884 0.63745 -0.05434
 H562 H 0.06791 0.67698 -0.12304
 H563 H 0.06568 0.62813 -0.12703
 C564 C -0.10395 0.66465 0.10564
 C565 C -0.08678 0.68503 0.11797
 C566 C -0.09835 0.70935 0.12930
 C567 C -0.12738 0.71396 0.12851
 C568 C -0.14456 0.69356 0.11624
 C569 C -0.13299 0.66919 0.10499
 C570 C -0.09160 0.63886 0.09339
 C571 C -0.10229 0.62753 0.06838
 C572 C -0.09073 0.60330 0.05685
 C573 C -0.06818 0.58988 0.07004
 C574 C -0.05737 0.60119 0.09494
 C575 C -0.06898 0.62539 0.10653
 H576 H -0.08441 0.72469 0.13827
 H577 H -0.16702 0.69620 0.11556
 H578 H -0.09939 0.59516 0.03752
 H579 H -0.04002 0.59125 0.10559
 H580 H -0.14687 0.65371 0.09609
 H581 H -0.11938 0.63761 0.05746
 H582 H -0.06429 0.68242 0.11843
 H583 H -0.06048 0.63333 0.12600
 C584 C 1.10378 0.10618 0.66427
 C585 C 1.13280 0.10530 0.66878
 C586 C 1.14443 0.11704 0.69290
 C587 C 1.12734 0.13010 0.71301
 C588 C 1.09836 0.13128 0.70839
 C589 C 1.08669 0.11937 0.68433
 C590 C 1.09143 0.09335 0.63876
 C591 C 1.06908 0.10634 0.62474
 C592 C 1.05761 0.09437 0.60065
 C593 C 1.06833 0.06924 0.58996
 C594 C 1.09058 0.05616 0.60394
 C595 C 1.10197 0.06805 0.62813
 H596 H 1.16688 0.11611 0.69560
 H597 H 1.08457 0.14089 0.72361
 H598 H 1.04049 0.10493 0.59024
 H599 H 1.09911 0.03667 0.59625
 H600 H 1.06422 0.12006 0.68170
 H601 H 1.06074 0.12602 0.63213
 H602 H 1.14660 0.09579 0.65349
 H603 H 1.11885 0.05727 0.63869
 C604 C 0.89844 -0.10285 0.66600
 C605 C 0.86990 -0.09926 0.67212
 C606 C 0.85826 -0.11077 0.69637
 C607 C 0.87481 -0.12639 0.71495
 C608 C 0.90330 -0.13015 0.70884
 C609 C 0.91503 -0.11838 0.68471
 C610 C 0.91072 -0.09063 0.64010
 C611 C 0.93130 -0.10513 0.62482
 C612 C 0.94254 -0.09377 0.60027
 C613 C 0.93324 -0.06782 0.59034
 C614 C 0.91276 -0.05325 0.60555
 C615 C 0.90171 -0.06446 0.63024
 H616 H 0.83614 -0.10786 0.70023
 H617 H 0.91666 -0.14184 0.72291
 H618 H 0.95828 -0.10547 0.58889
 H619 H 0.90541 -0.03306 0.59850
 H620 H 0.93718 -0.12117 0.68090
 H621 H 0.93840 -0.12550 0.63154
 H622 H 0.85637 -0.08795 0.65790
 H623 H 0.88630 -0.05248 0.64175
 C624 C 1.10598 -0.10367 0.33550
 C625 C 1.10582 -0.13274 0.33176
 C626 C 1.11736 -0.14472 0.30766
 C627 C 1.12945 -0.12792 0.28676
 C628 C 1.12984 -0.09885 0.29059
 C629 C 1.11819 -0.08686 0.31466
 C630 C 1.09334 -0.09097 0.36097
 C631 C 1.10615 -0.06814 0.37429
 C632 C 1.09433 -0.05640 0.39841
 C633 C 1.06953 -0.06732 0.40974
 C634 C 1.05661 -0.08999 0.39638
 C635 C 1.06837 -0.10167 0.37223
 H636 H 1.11705 -0.16719 0.30564
 H637 H 1.13870 -0.08525 0.27481
 H638 H 1.10474 -0.03894 0.40830
 H639 H 1.03736 -0.09869 0.40454
 H640 H 1.11832 -0.06437 0.31672
 H641 H 1.12557 -0.05963 0.36634
 H642 H 1.09705 -0.14631 0.34766
 H643 H 1.05773 -0.11892 0.36220
 C644 C 0.89536 0.10566 0.33654
 C645 C 0.87983 0.08923 0.31775
 C646 C 0.86769 0.10111 0.29395
 C647 C 0.87104 0.12964 0.28822
 C648 C 0.88675 0.14607 0.30681
 C649 C 0.89867 0.13424 0.33079
 C650 C 0.90792 0.09302 0.36207
 C651 C 0.93428 0.10175 0.37175
 C652 C 0.94594 0.08999 0.39588
 C653 C 0.93160 0.06911 0.41068
 C654 C 0.90542 0.06018 0.40096
 C655 C 0.89363 0.07211 0.37700
 H656 H 0.85605 0.08781 0.27983
 H657 H 0.88943 0.16818 0.30313
 H658 H 0.96629 0.09709 0.40281
 H659 H 0.89388 0.04418 0.41206
 H660 H 0.91008 0.14760 0.34506
 H661 H 0.94608 0.11743 0.36049
 H662 H 0.87733 0.06706 0.32121
 H663 H 0.87311 0.06522 0.37042
 C664 C 0.10193 0.33455 -0.10336
 C665 C 0.08495 0.31502 -0.11728
 C666 C 0.09657 0.29084 -0.12885
 C667 C 0.12538 0.28557 -0.12657
 C668 C 0.14236 0.30514 -0.11278
 C669 C 0.13079 0.32938 -0.10142
 C670 C 0.08967 0.36021 -0.09088
 C671 C 0.09964 0.37059 -0.06515
 C672 C 0.08849 0.39498 -0.05363
 C673 C 0.06702 0.40940 -0.06748
 C674 C 0.05681 0.39895 -0.09302
 C675 C 0.06807 0.37465 -0.10465
 H676 H 0.08288 0.27605 -0.13909
 H677 H 0.16469 0.30196 -0.11104
 H678 H 0.09660 0.40246 -0.03379
 H679 H 0.04029 0.40971 -0.10417
 H680 H 0.14456 0.34426 -0.09138
 H681 H 0.11590 0.35971 -0.05375
 H682 H 0.06259 0.31818 -0.11882
 H683 H 0.06018 0.36745 -0.12467
 C684 C -0.10436 0.33565 0.10419
 C685 C -0.11932 0.31685 0.08726
 C686 C -0.13121 0.29286 0.09882
 C687 C -0.12820 0.28695 0.12753
 C688 C -0.11313 0.30562 0.14446
 C689 C -0.10146 0.32975 0.13296
 C690 C -0.09197 0.36136 0.09196
 C691 C -0.06595 0.37132 0.10134
 C692 C -0.05450 0.39568 0.09009
 C693 C -0.06873 0.41048 0.06907
 C694 C -0.09457 0.40047 0.05946
 C695 C -0.10614 0.37625 0.07087
 H696 H -0.14239 0.27873 0.08513
 H697 H -0.11074 0.30187 0.16673
 H698 H -0.03442 0.40282 0.09771
 H699 H -0.10601 0.41153 0.04331
 H700 H -0.09053 0.34401 0.14672
 H701 H -0.05423 0.36012 0.11718
 H702 H -0.12154 0.32047 0.06494
 H703 H -0.12640 0.36944 0.06346
 C704 C -0.10335 0.66401 -0.10405
 C705 C -0.08678 0.68296 -0.11925
 C706 C -0.09870 0.70675 -0.13126
 C707 C -0.12739 0.71225 -0.12812
 C708 C -0.14394 0.69337 -0.11289
 C709 C -0.13209 0.66948 -0.10110
 C710 C -0.09081 0.63858 -0.09141
 C711 C -0.10005 0.62878 -0.06517
 C712 C -0.08866 0.60458 -0.05351
 C713 C -0.06762 0.58982 -0.06773
 C714 C -0.05811 0.59969 -0.09377
 C715 C -0.06966 0.62376 -0.10556
 H716 H -0.08532 0.72104 -0.14261
 H717 H -0.16619 0.69677 -0.11044
 H718 H -0.09620 0.59755 -0.03327
 H719 H -0.04195 0.58864 -0.10521
 H720 H -0.14558 0.65506 -0.09004
 H721 H -0.11592 0.63996 -0.05346
 H722 H -0.06450 0.67962 -0.12154
 H723 H -0.06234 0.63047 -0.12597
 C724 C 0.10474 0.66312 0.10546
 C725 C 0.10007 0.66965 0.13387
 C726 C 0.11221 0.69328 0.14591
 C727 C 0.12958 0.71075 0.12993
 C728 C 0.13428 0.70431 0.10156
 C729 C 0.12186 0.68087 0.08941
 C730 C 0.09210 0.63773 0.09275
 C731 C 0.10693 0.62203 0.07268
 C732 C 0.09523 0.59799 0.06101
 C733 C 0.06861 0.58893 0.06940
 C734 C 0.05371 0.60452 0.08938
 C735 C 0.06525 0.62875 0.10081
 H736 H 0.10846 0.69750 0.16791
 H737 H 0.14727 0.71759 0.08861
 H738 H 0.10721 0.58626 0.04573
 H739 H 0.03302 0.59811 0.09602
 H740 H 0.12547 0.67682 0.06735
 H741 H 0.12782 0.62800 0.06633
 H742 H 0.08747 0.65620 0.14703
 H743 H 0.05300 0.64058 0.11579
 C744 C 0.33784 1.10631 0.89405
 C745 C 0.31910 1.12169 0.91076
 C746 C 0.29532 1.13384 0.89897
 C747 C 0.28959 1.13067 0.87025
 C748 C 0.30819 1.11522 0.85352
 C749 C 0.33213 1.10328 0.86526
 C750 C 0.36322 1.09353 0.90658
 C751 C 0.37268 1.06722 0.89757
 C752 C 0.39664 1.05529 0.90927
 C753 C 0.41147 1.06931 0.93038
 C754 C 0.40201 1.09549 0.93954
 C755 C 0.37821 1.10754 0.92767
 H756 H 0.28119 1.14529 0.91249
 H757 H 0.30453 1.11269 0.83125
 H758 H 0.40339 1.03497 0.90197
 H759 H 0.41316 1.10680 0.95571
 H760 H 0.34636 1.09201 0.85169
 H761 H 0.36137 1.05565 0.88171
 H762 H 0.32258 1.12399 0.93310
 H763 H 0.37179 1.12802 0.93477
 C764 C 0.33244 0.89750 1.10098
 C765 C 0.31127 0.91432 1.11256
 C766 C 0.28720 0.90229 1.12404
 C767 C 0.28376 0.87317 1.12417
 C768 C 0.30491 0.85640 1.11250
 C769 C 0.32896 0.86841 1.10111
 C770 C 0.35816 0.91009 1.08896
 C771 C 0.37022 0.89906 1.06442
 C772 C 0.39485 0.91033 1.05350
 C773 C 0.40794 0.93291 1.06685
 C774 C 0.39578 0.94422 1.09117
 C775 C 0.37115 0.93290 1.10214
 H776 H 0.27122 0.91587 1.13255
 H777 H 0.30322 0.83391 1.11253
 H778 H 0.40365 0.90134 1.03458
 H779 H 0.40544 0.96165 1.10187
 H780 H 0.34508 0.85483 1.09282
 H781 H 0.36051 0.88179 1.05352
 H782 H 0.31315 0.93682 1.11243
 H783 H 0.36258 0.94165 1.12127
 C784 C 0.66561 1.10116 1.10241
 C785 C 0.68435 1.11619 1.08540
 C786 C 0.70847 1.12802 1.09684
 C787 C 0.71456 1.12482 1.12548
 C788 C 0.69601 1.10961 1.14246
 C789 C 0.67175 1.09804 1.13109
 C790 C 0.63962 1.08909 1.09041
 C791 C 0.62945 1.06318 1.09981
 C792 C 0.60474 1.05212 1.08885
 C793 C 0.58985 1.06661 1.06809
 C794 C 0.60006 1.09233 1.05850
 C795 C 0.62459 1.10353 1.06963
 H796 H 0.72254 1.13933 1.08315
 H797 H 0.69989 1.10709 1.16469
 H798 H 0.59743 1.03213 1.09645
 H799 H 0.58891 1.10399 1.04257
 H800 H 0.65753 1.08707 1.14492
 H801 H 0.64074 1.05128 1.11543
 H802 H 0.68055 1.11856 1.06313
 H803 H 0.63153 1.12373 1.06226
 C804 C 0.66274 0.89379 0.89513
 C805 C 0.66834 0.86518 0.89836
 C806 C 0.69228 0.85330 0.88650
 C807 C 0.71101 0.86972 0.87093
 C808 C 0.70542 0.89828 0.86763
 C809 C 0.68164 0.91021 0.87971
 C810 C 0.63723 0.90644 0.90765
 C811 C 0.62245 0.92738 0.89326
 C812 C 0.59849 0.93930 0.90500
 C813 C 0.58863 0.93033 0.93124
 C814 C 0.60326 0.90939 0.94565
 C815 C 0.62738 0.89764 0.93404
 H816 H 0.69584 0.83116 0.88913
 H817 H 0.71965 0.91157 0.85610
 H818 H 0.58751 0.95533 0.89339
 H819 H 0.59619 0.90224 0.96602
 H820 H 0.67827 0.93241 0.87726
 H821 H 0.62916 0.93432 0.87271
 H822 H 0.65399 0.85182 0.90968
 H823 H 0.63851 0.88191 0.94590
   
