data_POSCAR
  _audit_creation_date              2014-09-24
  _audit_creation_method            'ToBaCCo'
  _symmetry_space_group_name_H-M    'P1'
  _symmetry_Int_Tables_number       1
  _symmetry_cell_setting            triclinic
  loop_
  _symmetry_equiv_pos_as_xyz
 x,y,z
_cell_length_a 43.1765
_cell_length_b 43.1532
_cell_length_c 33.0728
_cell_angle_alpha 89.953300
_cell_angle_beta 89.930000
_cell_angle_gamma 89.453200
loop_
  _atom_site_label
  _atom_site_type_symbol
  _atom_site_fract_x
  _atom_site_fract_y
  _atom_site_fract_z
O1 O 0.02917 0.29531 -0.03861
 O2 O -0.03209 0.29500 0.03962
 O3 O 0.02864 0.29557 0.04014
 O4 O -0.03151 0.29495 -0.03923
 O5 O -0.03042 0.24370 -0.03873
 O6 O 0.02927 0.24432 0.04009
 O7 O -0.03097 0.24376 0.03957
 O8 O 0.02978 0.24406 -0.03812
 Cu9 Cu -0.00155 0.30042 0.00047
 Cu10 Cu -0.00051 0.23883 0.00074
 C11 C 0.03995 0.26962 -0.05129
 C12 C -0.04199 0.26921 0.05255
 C13 C 0.03927 0.26993 0.05319
 C14 C -0.04121 0.26911 -0.05215
 O15 O 0.46896 0.79396 0.53899
 O16 O 0.52878 0.79418 0.45899
 O17 O 0.46807 0.79368 0.46017
 O18 O 0.52965 0.79428 0.53778
 O19 O 0.53025 0.74303 0.53777
 O20 O 0.46914 0.74243 0.46068
 O21 O 0.52939 0.74293 0.45949
 O22 O 0.47001 0.74271 0.53899
 Cu23 Cu 0.49878 0.79923 0.49895
 Cu24 Cu 0.49978 0.73765 0.49926
 C25 C 0.45927 0.76819 0.55225
 C26 C 0.53932 0.76849 0.44601
 C27 C 0.45810 0.76784 0.44758
 C28 C 0.54046 0.76864 0.55062
 O29 O 1.03096 0.70697 0.03867
 O30 O 0.97065 0.70735 -0.04061
 O31 O 1.03141 0.70715 -0.04001
 O32 O 0.97021 0.70717 0.03821
 O33 O 0.97012 0.75842 0.03810
 O34 O 1.03083 0.75840 -0.03963
 O35 O 0.97053 0.75859 -0.04021
 O36 O 1.03040 0.75821 0.03856
 Cu37 Cu 1.00081 0.70195 -0.00096
 Cu38 Cu 1.00041 0.76353 -0.00078
 C39 C 1.04104 0.73264 0.05167
 C40 C 0.96028 0.73314 -0.05353
 C41 C 1.04164 0.73288 -0.05267
 C42 C 0.95972 0.73291 0.05110
 O43 O 0.53123 0.20490 0.53902
 O44 O 0.46951 0.20335 0.46187
 O45 O 0.53035 0.20428 0.46034
 O46 O 0.47057 0.20441 0.54053
 O47 O 0.46973 0.25566 0.53927
 O48 O 0.52896 0.25552 0.45961
 O49 O 0.46860 0.25460 0.46109
 O50 O 0.52994 0.25615 0.53780
 Cu51 Cu 0.50053 0.19903 0.50048
 Cu52 Cu 0.49920 0.26061 0.49929
 C53 C 0.54113 0.23088 0.55116
 C54 C 0.45839 0.22880 0.44889
 C55 C 0.53997 0.23001 0.44684
 C56 C 0.45993 0.23018 0.55317
 O57 O 0.70339 -0.02845 0.03598
 O58 O 0.70384 0.03253 -0.04260
 O59 O 0.70387 -0.02825 -0.04286
 O60 O 0.70338 0.03232 0.03608
 O61 O 0.75461 0.03158 0.03625
 O62 O 0.75509 -0.02849 -0.04214
 O63 O 0.75506 0.03179 -0.04189
 O64 O 0.75461 -0.02870 0.03614
 Cu65 Cu 0.69841 0.00206 -0.00340
 Cu66 Cu 0.75997 0.00147 -0.00287
 C67 C 0.72904 -0.03897 0.04908
 C68 C 0.72964 0.04263 -0.05518
 C69 C 0.72968 -0.03871 -0.05557
 C70 C 0.72903 0.04234 0.04915
 O71 O 0.20266 0.53099 0.46331
 O72 O 0.20400 0.47058 0.54265
 O73 O 0.20368 0.53137 0.54203
 O74 O 0.20280 0.47016 0.46390
 O75 O 0.25402 0.47007 0.46287
 O76 O 0.25489 0.53083 0.54048
 O77 O 0.25521 0.47052 0.54109
 O78 O 0.25388 0.53040 0.46228
 Cu79 Cu 0.19808 0.50080 0.50310
 Cu80 Cu 0.25962 0.50042 0.50154
 C81 C 0.22817 0.54106 0.44973
 C82 C 0.22994 0.46021 0.55497
 C83 C 0.22954 0.54158 0.55414
 C84 C 0.22838 0.45962 0.45051
 O85 O 0.29455 1.03186 0.04212
 O86 O 0.29638 0.97122 -0.03677
 O87 O 0.29527 1.03205 -0.03681
 O88 O 0.29574 0.97106 0.04169
 O89 O 0.24452 0.97080 0.04079
 O90 O 0.24407 1.03135 -0.03724
 O91 O 0.24516 0.97097 -0.03723
 O92 O 0.24336 1.03115 0.04119
 Cu93 Cu 0.30068 1.00169 0.00262
 Cu94 Cu 0.23915 1.00111 0.00180
 C95 C 0.26853 1.04183 0.05479
 C96 C 0.27098 0.96056 -0.04982
 C97 C 0.26948 1.04209 -0.05008
 C98 C 0.27012 0.96034 0.05399
 O99 O 0.79706 0.47058 0.45814
 O100 O 0.79702 0.53139 0.53672
 O101 O 0.79782 0.47059 0.53659
 O102 O 0.79625 0.53138 0.45783
 O103 O 0.74505 0.53097 0.45899
 O104 O 0.74659 0.47063 0.53728
 O105 O 0.74581 0.53096 0.53738
 O106 O 0.74584 0.47062 0.45927
 Cu107 Cu 0.80225 0.50109 0.49722
 Cu108 Cu 0.74069 0.50085 0.49832
 C109 C 0.77136 0.46004 0.44594
 C110 C 0.77129 0.54152 0.55011
 C111 C 0.77236 0.46006 0.54975
 C112 C 0.77028 0.54152 0.44533
 C113 C 0.23322 0.19473 0.19573
 C114 C 0.20529 0.20701 0.18124
 C115 C 0.19380 0.23563 0.19452
 C116 C 0.21046 0.25260 0.22370
 C117 C 0.23856 0.24019 0.23938
 C118 C 0.25000 0.21115 0.22538
 C119 C 0.27748 0.19900 0.24206
 C120 C 0.29365 0.21518 0.27154
 C121 C 0.28298 0.24414 0.28543
 C122 C 0.25510 0.25675 0.26936
 C123 C 0.19953 0.28133 0.23811
 C124 C 0.21592 0.29771 0.26719
 C125 C 0.24356 0.28571 0.28354
 C126 C 0.26015 0.30194 0.31354
 C127 C 0.28756 0.28919 0.32899
 C128 C 0.29906 0.26061 0.31563
 H129 H 0.28655 0.17663 0.23284
 H130 H 0.31455 0.20464 0.28355
 H131 H 0.17808 0.29140 0.22716
 H132 H 0.20661 0.31987 0.27684
 H133 H 0.19262 0.19441 0.15830
 H134 H 0.30000 0.30157 0.35235
 C135 C 0.73437 0.69609 0.30358
 C136 C 0.70562 0.70739 0.31665
 C137 C 0.69385 0.73592 0.30338
 C138 C 0.71094 0.75357 0.27521
 C139 C 0.73995 0.74220 0.26108
 C140 C 0.75180 0.71341 0.27542
 C141 C 0.78051 0.70257 0.26088
 C142 C 0.79752 0.71981 0.23322
 C143 C 0.78622 0.74831 0.21849
 C144 C 0.75719 0.75967 0.23259
 C145 C 0.69963 0.78206 0.26046
 C146 C 0.71663 0.79929 0.23279
 C147 C 0.74536 0.78847 0.21828
 C148 C 0.76283 0.80583 0.19020
 C149 C 0.79160 0.79453 0.17716
 C150 C 0.80335 0.76600 0.19040
 H151 H 0.79011 0.68056 0.27065
 H152 H 0.81972 0.71058 0.22361
 H153 H 0.67743 0.79129 0.27008
 H154 H 0.70703 0.82130 0.22298
 H155 H 0.69263 0.69422 0.33879
 H156 H 0.80465 0.80775 0.15513
 C157 C 0.80399 0.23588 0.19112
 C158 C 0.79190 0.20818 0.17633
 C159 C 0.76333 0.19700 0.18945
 C160 C 0.74621 0.21373 0.21879
 C161 C 0.75841 0.24160 0.23475
 C162 C 0.78740 0.25274 0.22090
 C163 C 0.79935 0.27998 0.23785
 C164 C 0.78303 0.29620 0.26750
 C165 C 0.75412 0.28582 0.28129
 C166 C 0.74173 0.25818 0.26493
 C167 C 0.71755 0.20308 0.23310
 C168 C 0.70106 0.21950 0.26238
 C169 C 0.71288 0.24689 0.27906
 C170 C 0.69657 0.26344 0.30937
 C171 C 0.70908 0.29065 0.32506
 C172 C 0.73754 0.30193 0.31169
 H173 H 0.82167 0.28881 0.22873
 H174 H 0.79344 0.31688 0.27973
 H175 H 0.70763 0.18181 0.22194
 H176 H 0.67896 0.21041 0.27191
 H177 H 0.80464 0.19543 0.15333
 H178 H 0.69663 0.30306 0.34864
 C179 C 0.30254 0.73459 0.30791
 C180 C 0.29029 0.70684 0.32241
 C181 C 0.26174 0.69582 0.30905
 C182 C 0.24480 0.71281 0.27978
 C183 C 0.25718 0.74073 0.26412
 C184 C 0.28615 0.75168 0.27820
 C185 C 0.29828 0.77898 0.26152
 C186 C 0.28215 0.79545 0.23195
 C187 C 0.25327 0.78527 0.21794
 C188 C 0.24069 0.75758 0.23400
 C189 C 0.21616 0.70236 0.26526
 C190 C 0.19987 0.71903 0.23602
 C191 C 0.21185 0.74649 0.21966
 C192 C 0.19573 0.76332 0.18945
 C193 C 0.20843 0.79057 0.17405
 C194 C 0.23689 0.80164 0.18761
 H195 H 0.32059 0.78767 0.27080
 H196 H 0.29268 0.81618 0.21994
 H197 H 0.20611 0.68107 0.27621
 H198 H 0.17777 0.71009 0.22629
 H199 H 0.30289 0.69391 0.34536
 H200 H 0.19614 0.80319 0.15053
 C201 C 0.69860 0.26387 0.68687
 C202 C 0.71136 0.29103 0.67130
 C203 C 0.73987 0.30203 0.68475
 C204 C 0.75622 0.28570 0.71514
 C205 C 0.74358 0.25808 0.73133
 C206 C 0.71470 0.24705 0.71709
 C207 C 0.70264 0.21966 0.73357
 C208 C 0.71893 0.20297 0.76278
 C209 C 0.74760 0.21337 0.77723
 C210 C 0.76002 0.24125 0.76148
 C211 C 0.78511 0.29586 0.72911
 C212 C 0.80118 0.27942 0.75877
 C213 C 0.78899 0.25219 0.77554
 C214 C 0.80529 0.23516 0.80537
 C215 C 0.79305 0.20742 0.81991
 C216 C 0.76451 0.19639 0.80653
 H217 H 0.68050 0.21076 0.72394
 H218 H 0.70883 0.18172 0.77380
 H219 H 0.79568 0.31654 0.71703
 H220 H 0.82351 0.28809 0.76803
 H221 H 0.69907 0.30362 0.64775
 H222 H 0.80560 0.19454 0.84295
 C223 C 0.30553 0.73534 0.69525
 C224 C 0.29333 0.70761 0.68070
 C225 C 0.26471 0.69662 0.69392
 C226 C 0.24767 0.71361 0.72310
 C227 C 0.26003 0.74149 0.73885
 C228 C 0.28907 0.75241 0.72492
 C229 C 0.30119 0.77966 0.74167
 C230 C 0.28496 0.79612 0.77119
 C231 C 0.25599 0.78598 0.78504
 C232 C 0.24343 0.75835 0.76886
 C233 C 0.21892 0.70323 0.73744
 C234 C 0.20250 0.71993 0.76653
 C235 C 0.21447 0.74734 0.78297
 C236 C 0.19821 0.76419 0.81303
 C237 C 0.21089 0.79136 0.82859
 C238 C 0.23948 0.80235 0.81529
 H239 H 0.32356 0.78831 0.73250
 H240 H 0.29547 0.81681 0.78326
 H241 H 0.20888 0.68197 0.72645
 H242 H 0.18031 0.71104 0.77608
 H243 H 0.30599 0.69472 0.65776
 H244 H 0.19847 0.80398 0.85201
 C245 C 0.23624 0.19572 0.80951
 C246 C 0.20761 0.20733 0.82261
 C247 C 0.19610 0.23594 0.80929
 C248 C 0.21335 0.25341 0.78110
 C249 C 0.24223 0.24172 0.76689
 C250 C 0.25381 0.21284 0.78127
 C251 C 0.28239 0.20168 0.76665
 C252 C 0.29948 0.21867 0.73880
 C253 C 0.28843 0.24723 0.72400
 C254 C 0.25958 0.25895 0.73826
 C255 C 0.20233 0.28200 0.76636
 C256 C 0.21945 0.29901 0.73858
 C257 C 0.24799 0.28783 0.72390
 C258 C 0.26551 0.30492 0.69558
 C259 C 0.29410 0.29328 0.68237
 C260 C 0.30562 0.26465 0.69567
 H261 H 0.29178 0.17960 0.77649
 H262 H 0.32155 0.20918 0.72910
 H263 H 0.18027 0.29149 0.77608
 H264 H 0.21007 0.32111 0.72883
 H265 H 0.19447 0.19429 0.84473
 H266 H 0.30717 0.30628 0.66014
 C267 C 0.73694 0.69652 0.69094
 C268 C 0.70828 0.70788 0.67765
 C269 C 0.69654 0.73646 0.69068
 C270 C 0.71358 0.75415 0.71878
 C271 C 0.74249 0.74271 0.73315
 C272 C 0.75431 0.71385 0.71906
 C273 C 0.78291 0.70294 0.73383
 C274 C 0.79982 0.72015 0.76154
 C275 C 0.78854 0.74870 0.77607
 C276 C 0.75964 0.76016 0.76166
 C277 C 0.70232 0.78272 0.73325
 C278 C 0.71923 0.79994 0.76094
 C279 C 0.74782 0.78901 0.77575
 C280 C 0.76515 0.80632 0.80393
 C281 C 0.79378 0.79495 0.81728
 C282 C 0.80554 0.76635 0.80426
 H283 H 0.79248 0.68088 0.72421
 H284 H 0.82192 0.71085 0.77137
 H285 H 0.68022 0.79203 0.72341
 H286 H 0.70967 0.82201 0.77052
 H287 H 0.69532 0.69466 0.65561
 H288 H 0.80669 0.80813 0.83941
 C289 C 0.25958 0.11174 0.13327
 C290 C 0.27849 0.13790 0.13111
 C291 C 0.27085 0.16454 0.15323
 C292 C 0.26727 0.06493 0.08259
 C293 C 0.22595 0.13856 0.18074
 C294 C 0.23363 0.11196 0.15870
 C295 C 0.26466 0.08599 0.10634
 C296 C 0.24424 0.16519 0.17771
 H297 H 0.29840 0.13813 0.11116
 H298 H 0.28489 0.18505 0.14997
 H299 H 0.20514 0.13879 0.19908
 H300 H 0.21865 0.09199 0.16029
 C301 C 0.76350 0.61331 0.62932
 C302 C 0.78131 0.64007 0.62487
 C303 C 0.77366 0.66686 0.64663
 C304 C 0.77058 0.56606 0.57930
 C305 C 0.73101 0.63988 0.67832
 C306 C 0.73869 0.61312 0.65662
 C307 C 0.76827 0.58731 0.60276
 C308 C 0.74816 0.66705 0.67303
 H309 H 0.80029 0.64059 0.60343
 H310 H 0.78678 0.68779 0.64165
 H311 H 0.71104 0.63976 0.69817
 H312 H 0.72454 0.59267 0.65995
 C313 C 0.73647 0.88903 0.12823
 C314 C 0.76110 0.88926 0.15572
 C315 C 0.76871 0.86250 0.17751
 C316 C 0.72957 0.93639 0.07821
 C317 C 0.72632 0.83544 0.14553
 C318 C 0.71875 0.86223 0.12368
 C319 C 0.73177 0.91508 0.10165
 C320 C 0.75165 0.83529 0.17214
 H321 H 0.77519 0.90973 0.15914
 H322 H 0.78856 0.86265 0.19751
 H323 H 0.71329 0.81448 0.14049
 H324 H 0.69990 0.86167 0.10211
 C325 C 0.23891 0.38819 0.63382
 C326 C 0.22103 0.36146 0.62968
 C327 C 0.22878 0.33464 0.65135
 C328 C 0.23113 0.43564 0.58416
 C329 C 0.27177 0.36148 0.68225
 C330 C 0.26398 0.38828 0.66063
 C331 C 0.23380 0.41431 0.60750
 C332 C 0.25447 0.33437 0.67737
 H333 H 0.20184 0.36101 0.60862
 H334 H 0.21554 0.31376 0.64668
 H335 H 0.29188 0.36155 0.70180
 H336 H 0.27820 0.40869 0.66371
 C337 C 0.88734 0.26135 0.12990
 C338 C 0.86108 0.28059 0.12742
 C339 C 0.83429 0.27321 0.14911
 C340 C 0.93461 0.26845 0.07998
 C341 C 0.86028 0.22790 0.17678
 C342 C 0.88703 0.23532 0.15519
 C343 C 0.91332 0.26616 0.10338
 C344 C 0.83358 0.24653 0.17344
 H345 H 0.86092 0.30057 0.10757
 H346 H 0.81372 0.28753 0.14564
 H347 H 0.86001 0.20704 0.19502
 H348 H 0.90708 0.22008 0.15700
 C349 C 0.38841 0.76049 0.63283
 C350 C 0.36221 0.77982 0.63074
 C351 C 0.33559 0.77255 0.65285
 C352 C 0.43506 0.76745 0.58194
 C353 C 0.36169 0.72718 0.68019
 C354 C 0.38827 0.73449 0.65817
 C355 C 0.41409 0.76518 0.60581
 C356 C 0.33502 0.74589 0.67722
 H357 H 0.36193 0.79978 0.61085
 H358 H 0.31504 0.78693 0.64965
 H359 H 0.36151 0.70633 0.69846
 H360 H 0.40828 0.71918 0.65967
 C361 C 0.11186 0.73927 0.12879
 C362 C 0.11252 0.76498 0.15456
 C363 C 0.13946 0.77191 0.17594
 C364 C 0.06437 0.73309 0.07915
 C365 C 0.16494 0.72676 0.14707
 C366 C 0.13796 0.71987 0.12559
 C367 C 0.08571 0.73500 0.10247
 C368 C 0.16598 0.75311 0.17191
 H369 H 0.09261 0.78035 0.15691
 H370 H 0.14002 0.79254 0.19457
 H371 H 0.18538 0.71233 0.14308
 H372 H 0.13784 0.70014 0.10535
 C373 C 0.61433 0.23931 0.62765
 C374 C 0.64046 0.21999 0.62418
 C375 C 0.66764 0.22716 0.64503
 C376 C 0.56617 0.23206 0.57952
 C377 C 0.64230 0.27246 0.67376
 C378 C 0.61517 0.26527 0.65298
 C379 C 0.58784 0.23454 0.60216
 C380 C 0.66882 0.25368 0.66953
 H381 H 0.64018 0.20008 0.60426
 H382 H 0.68807 0.21274 0.64092
 H383 H 0.64298 0.29320 0.69216
 H384 H 0.59521 0.28056 0.65552
 C385 C 0.73769 0.11367 0.86816
 C386 C 0.72021 0.14094 0.87312
 C387 C 0.72798 0.16766 0.85150
 C388 C 0.73044 0.06612 0.91756
 C389 C 0.77013 0.13964 0.81908
 C390 C 0.76233 0.11296 0.84060
 C391 C 0.73278 0.08755 0.89439
 C392 C 0.75328 0.16726 0.82478
 H393 H 0.70137 0.14186 0.89475
 H394 H 0.71508 0.18893 0.85673
 H395 H 0.78994 0.13907 0.79894
 H396 H 0.77623 0.09212 0.83689
 C397 C 0.23518 0.61310 0.37085
 C398 C 0.25974 0.61241 0.34317
 C399 C 0.26743 0.63907 0.32155
 C400 C 0.22843 0.56570 0.42062
 C401 C 0.22528 0.66703 0.35407
 C402 C 0.21764 0.64032 0.37579
 C403 C 0.23050 0.58705 0.39728
 C404 C 0.25053 0.66667 0.32728
 H405 H 0.27370 0.59160 0.33947
 H406 H 0.28720 0.63853 0.30136
 H407 H 0.21235 0.68829 0.35932
 H408 H 0.19886 0.64124 0.39752
 C409 C 0.26620 0.88483 0.87724
 C410 C 0.26770 0.85608 0.89683
 C411 C 0.26032 0.82904 0.87595
 C412 C 0.27108 0.93512 0.92227
 C413 C 0.25099 0.85916 0.81517
 C414 C 0.25830 0.88630 0.83618
 C415 C 0.26967 0.91268 0.90067
 C416 C 0.25150 0.83045 0.83519
 H417 H 0.27347 0.85469 0.92866
 H418 H 0.26049 0.80710 0.89189
 H419 H 0.24382 0.86062 0.78385
 H420 H 0.25673 0.90844 0.82084
 C421 C 0.76482 0.38430 0.37344
 C422 C 0.76592 0.35560 0.39319
 C423 C 0.75820 0.32861 0.37245
 C424 C 0.77081 0.43458 0.41814
 C425 C 0.74919 0.35869 0.31154
 C426 C 0.75685 0.38578 0.33241
 C427 C 0.76887 0.41213 0.39667
 C428 C 0.74942 0.33003 0.33167
 H429 H 0.77174 0.35422 0.42501
 H430 H 0.75819 0.30670 0.38845
 H431 H 0.74209 0.36015 0.28019
 H432 H 0.75559 0.40790 0.31697
 C433 C 0.11245 0.26206 0.87040
 C434 C 0.13911 0.27997 0.87506
 C435 C 0.16605 0.27244 0.85352
 C436 C 0.06475 0.26902 0.91983
 C437 C 0.13946 0.22968 0.82168
 C438 C 0.11255 0.23724 0.84315
 C439 C 0.08622 0.26678 0.89665
 C440 C 0.16652 0.24696 0.82713
 H441 H 0.13942 0.29896 0.89645
 H442 H 0.18689 0.28566 0.85862
 H443 H 0.13955 0.20972 0.80184
 H444 H 0.09219 0.22301 0.83966
 C445 C 0.61062 0.76138 0.36580
 C446 C 0.63711 0.77961 0.36980
 C447 C 0.66387 0.77232 0.34776
 C448 C 0.56362 0.76794 0.41642
 C449 C 0.63739 0.72917 0.31667
 C450 C 0.61065 0.73650 0.33865
 C451 C 0.58472 0.76584 0.39266
 C452 C 0.66431 0.74676 0.32151
 H453 H 0.63747 0.79866 0.39111
 H454 H 0.68462 0.78577 0.35242
 H455 H 0.63747 0.70914 0.29695
 H456 H 0.59042 0.72202 0.33566
 C457 C 0.88865 0.74082 0.86690
 C458 C 0.88868 0.76570 0.83969
 C459 C 0.86199 0.77306 0.81769
 C460 C 0.93581 0.73393 0.91715
 C461 C 0.83538 0.72996 0.84890
 C462 C 0.86211 0.72264 0.87096
 C463 C 0.91461 0.73620 0.89360
 C464 C 0.83502 0.75551 0.82255
 H465 H 0.90895 0.78014 0.83664
 H466 H 0.86198 0.79308 0.79791
 H467 H 0.81461 0.71654 0.85358
 H468 H 0.86169 0.70358 0.89229
 C469 C 0.38218 0.23373 0.37690
 C470 C 0.35357 0.23218 0.39672
 C471 C 0.32633 0.23964 0.37607
 C472 C 0.43274 0.22877 0.42141
 C473 C 0.35601 0.24913 0.31508
 C474 C 0.38335 0.24175 0.33586
 C475 C 0.41016 0.23022 0.40008
 C476 C 0.32743 0.24857 0.33532
 H477 H 0.35242 0.22632 0.42855
 H478 H 0.30446 0.23943 0.39216
 H479 H 0.35721 0.25638 0.28376
 H480 H 0.40539 0.24335 0.32036
 C481 C 0.73811 0.88948 0.86538
 C482 C 0.72038 0.86267 0.86973
 C483 C 0.72823 0.83588 0.84809
 C484 C 0.73058 0.93677 0.91523
 C485 C 0.77096 0.86297 0.81673
 C486 C 0.76307 0.88972 0.83831
 C487 C 0.73308 0.91550 0.89182
 C488 C 0.75385 0.83575 0.82189
 H489 H 0.70128 0.86210 0.89099
 H490 H 0.71514 0.81491 0.85297
 H491 H 0.79102 0.86313 0.79703
 H492 H 0.77717 0.91021 0.83508
 C493 C 0.23522 0.38658 0.37301
 C494 C 0.21623 0.36059 0.37692
 C495 C 0.22339 0.33333 0.35583
 C496 C 0.22873 0.43468 0.42186
 C497 C 0.26797 0.35832 0.32592
 C498 C 0.26077 0.38554 0.34691
 C499 C 0.23075 0.41304 0.39892
 C500 C 0.24959 0.33191 0.33068
 H501 H 0.19664 0.36101 0.39742
 H502 H 0.20930 0.31299 0.36037
 H503 H 0.28848 0.35747 0.30704
 H504 H 0.27582 0.40536 0.34401
 C505 C 0.26196 0.11257 0.87201
 C506 C 0.23721 0.11247 0.84469
 C507 C 0.22981 0.13918 0.82272
 C508 C 0.26871 0.06536 0.92232
 C509 C 0.27263 0.16594 0.85414
 C510 C 0.27999 0.13919 0.87619
 C511 C 0.26653 0.08660 0.89875
 C512 C 0.24719 0.16624 0.82771
 H513 H 0.22289 0.09213 0.84156
 H514 H 0.20988 0.13915 0.80286
 H515 H 0.28592 0.18679 0.85891
 H516 H 0.29895 0.13965 0.89761
 C517 C 0.76130 0.61324 0.36598
 C518 C 0.77897 0.64010 0.37011
 C519 C 0.77118 0.66678 0.34816
 C520 C 0.76903 0.56605 0.41608
 C521 C 0.72861 0.63947 0.31693
 C522 C 0.73644 0.61283 0.33883
 C523 C 0.76638 0.58728 0.39259
 C524 C 0.74567 0.66675 0.32184
 H525 H 0.79800 0.64079 0.39141
 H526 H 0.78421 0.68779 0.35287
 H527 H 0.70863 0.63918 0.29717
 H528 H 0.72239 0.59230 0.33574
 C529 C 0.11355 0.73997 0.87193
 C530 C 0.13963 0.72062 0.87572
 C531 C 0.16693 0.72764 0.85493
 C532 C 0.06532 0.73347 0.92035
 C533 C 0.14182 0.77284 0.82559
 C534 C 0.11456 0.76578 0.84630
 C535 C 0.08701 0.73553 0.89754
 C536 C 0.16829 0.75405 0.83018
 H537 H 0.13924 0.70083 0.89588
 H538 H 0.18732 0.71322 0.85932
 H539 H 0.14262 0.79349 0.80700
 H540 H 0.09465 0.78111 0.84352
 C541 C 0.61245 0.23797 0.36880
 C542 C 0.61310 0.26404 0.34358
 C543 C 0.64017 0.27151 0.32270
 C544 C 0.56463 0.23072 0.41777
 C545 C 0.66583 0.22625 0.35103
 C546 C 0.63872 0.21881 0.37200
 C547 C 0.58612 0.23309 0.39469
 C548 C 0.66683 0.25290 0.32669
 H549 H 0.59306 0.27923 0.34127
 H550 H 0.64068 0.29235 0.30444
 H551 H 0.68636 0.21195 0.35498
 H552 H 0.63862 0.19883 0.39185
 C553 C 0.88789 0.26079 0.86774
 C554 C 0.86160 0.27999 0.86974
 C555 C 0.83505 0.27252 0.84772
 C556 C 0.93453 0.26820 0.91834
 C557 C 0.86140 0.22717 0.82070
 C558 C 0.88791 0.23468 0.84264
 C559 C 0.91355 0.26573 0.89461
 C560 C 0.83465 0.24579 0.82354
 H561 H 0.86120 0.30002 0.88946
 H562 H 0.81443 0.28682 0.85080
 H563 H 0.86135 0.20628 0.80256
 H564 H 0.90800 0.21948 0.84122
 C565 C 0.38584 0.75964 0.36934
 C566 C 0.35962 0.77893 0.37186
 C567 C 0.33284 0.77165 0.35019
 C568 C 0.43328 0.76692 0.41880
 C569 C 0.35875 0.72630 0.32250
 C570 C 0.38549 0.73362 0.34409
 C571 C 0.41190 0.76449 0.39564
 C572 C 0.33210 0.74503 0.32581
 H573 H 0.35950 0.79891 0.39168
 H574 H 0.31231 0.78604 0.35365
 H575 H 0.35845 0.70549 0.30422
 H576 H 0.40551 0.71835 0.34223
 C577 C 0.26415 0.88433 0.12635
 C578 C 0.25598 0.88563 0.16735
 C579 C 0.24842 0.85842 0.18811
 C580 C 0.26975 0.93480 0.08175
 C581 C 0.25797 0.82858 0.12717
 C582 C 0.26561 0.85569 0.10655
 C583 C 0.26799 0.91227 0.10317
 C584 C 0.24894 0.82983 0.16789
 H585 H 0.25445 0.90770 0.18283
 H586 H 0.24110 0.85975 0.21940
 H587 H 0.25817 0.80672 0.11110
 H588 H 0.27158 0.85444 0.07475
 C589 C 0.76715 0.38439 0.62280
 C590 C 0.75890 0.38592 0.66376
 C591 C 0.75137 0.35881 0.68477
 C592 C 0.77235 0.43463 0.57768
 C593 C 0.76116 0.32863 0.62419
 C594 C 0.76877 0.35563 0.60331
 C595 C 0.77080 0.41221 0.59932
 C596 C 0.75201 0.33010 0.66485
 H597 H 0.75723 0.40808 0.67900
 H598 H 0.74396 0.36031 0.71601
 H599 H 0.76145 0.30667 0.60834
 H600 H 0.77480 0.35421 0.57155
 C601 C 0.73676 0.11446 0.12752
 C602 C 0.71929 0.14173 0.12259
 C603 C 0.72702 0.16840 0.14424
 C604 C 0.72959 0.06703 0.07810
 C605 C 0.76913 0.14032 0.17661
 C606 C 0.76136 0.11369 0.15505
 C607 C 0.73188 0.08840 0.10129
 C608 C 0.75226 0.16794 0.17096
 H609 H 0.70048 0.14269 0.10097
 H610 H 0.71411 0.18968 0.13908
 H611 H 0.78888 0.13971 0.19676
 H612 H 0.77526 0.09285 0.15873
 C613 C 0.23802 0.61402 0.63207
 C614 C 0.26264 0.61326 0.65959
 C615 C 0.27040 0.63989 0.68117
 C616 C 0.23053 0.56643 0.58288
 C617 C 0.22826 0.66796 0.64888
 C618 C 0.22053 0.64128 0.62721
 C619 C 0.23303 0.58789 0.60593
 C620 C 0.25352 0.66751 0.67559
 H621 H 0.27654 0.59241 0.66325
 H622 H 0.29018 0.63927 0.70128
 H623 H 0.21534 0.68923 0.64372
 H624 H 0.20169 0.64225 0.60563
 C625 C 0.88718 0.74047 0.12934
 C626 C 0.88688 0.76537 0.15646
 C627 C 0.85991 0.77277 0.17789
 C628 C 0.93493 0.73360 0.07999
 C629 C 0.83368 0.72969 0.14625
 C630 C 0.86068 0.72233 0.12476
 C631 C 0.91345 0.73583 0.10316
 C632 C 0.83301 0.75524 0.17254
 H633 H 0.90712 0.77978 0.15988
 H634 H 0.85966 0.79278 0.19765
 H635 H 0.81296 0.71628 0.14122
 H636 H 0.86053 0.70326 0.10346
 C637 C 0.38862 0.23814 0.63329
 C638 C 0.38882 0.26311 0.66029
 C639 C 0.36215 0.27080 0.68222
 C640 C 0.43563 0.23093 0.58278
 C641 C 0.33522 0.22784 0.65136
 C642 C 0.36192 0.22019 0.62937
 C643 C 0.41451 0.23330 0.60650
 C644 C 0.33504 0.25348 0.67748
 H645 H 0.40921 0.27738 0.66321
 H646 H 0.36229 0.29089 0.70183
 H647 H 0.31433 0.21459 0.64678
 H648 H 0.36136 0.20107 0.60818
 C649 C 0.11100 0.26248 0.13237
 C650 C 0.11055 0.23794 0.16007
 C651 C 0.13722 0.23015 0.18181
 C652 C 0.06377 0.26947 0.08239
 C653 C 0.16468 0.27217 0.14935
 C654 C 0.13797 0.27992 0.12752
 C655 C 0.08503 0.26727 0.10583
 C656 C 0.16457 0.24693 0.17617
 H657 H 0.08994 0.22407 0.16370
 H658 H 0.13689 0.21039 0.20202
 H659 H 0.18576 0.28501 0.14418
 H660 H 0.13869 0.29869 0.10578
 C661 C 0.61296 0.76166 0.62891
 C662 C 0.61314 0.73694 0.65636
 C663 C 0.64001 0.72969 0.67805
 C664 C 0.56531 0.76819 0.57939
 C665 C 0.66638 0.77259 0.64604
 C666 C 0.63948 0.77980 0.62428
 C667 C 0.58677 0.76612 0.60257
 C668 C 0.66693 0.74720 0.67264
 H669 H 0.59289 0.72254 0.65986
 H670 H 0.64016 0.70980 0.69805
 H671 H 0.68712 0.78598 0.64095
 H672 H 0.63972 0.79873 0.60275
   
