data_POSCAR
  _audit_creation_date              2014-09-24
  _audit_creation_method            'ToBaCCo'
  _symmetry_space_group_name_H-M    'P1'
  _symmetry_Int_Tables_number       1
  _symmetry_cell_setting            triclinic
  loop_
  _symmetry_equiv_pos_as_xyz
 x,y,z
_cell_length_a 37.0346
_cell_length_b 36.8436
_cell_length_c 36.5179
_cell_angle_alpha 88.810600
_cell_angle_beta 89.846400
_cell_angle_gamma 90.071200
loop_
  _atom_site_label
  _atom_site_type_symbol
  _atom_site_fract_x
  _atom_site_fract_y
  _atom_site_fract_z
C1 C 0.29077 0.47069 0.99173
 C2 C 0.27289 0.50388 0.99447
 C3 C 0.29251 0.53625 0.99571
 C4 C 0.33045 0.53619 0.99258
 C5 C 0.34810 0.50220 0.99174
 C6 C 0.32868 0.46925 0.99153
 C7 C 0.23327 0.50466 0.99571
 C8 C 0.21533 0.50460 1.02944
 C9 C 0.17732 0.50584 1.03113
 C10 C 0.15804 0.50433 0.99783
 C11 C 0.17578 0.50326 0.96366
 C12 C 0.21368 0.50458 0.96307
 H13 H 0.27459 0.44645 0.98972
 H14 H 0.27784 0.56136 0.99913
 H15 H 0.23146 0.50287 1.05406
 H16 H 0.22848 0.50578 0.93755
 H17 H 0.37727 0.50093 0.99181
 H18 H 0.12883 0.50364 0.99834
 C19 C 0.71361 0.46947 0.00574
 C20 C 0.73144 0.50295 0.00495
 C21 C 0.71169 0.53525 0.00535
 C22 C 0.67381 0.53460 0.00773
 C23 C 0.65620 0.50064 0.00735
 C24 C 0.67568 0.46783 0.00604
 C25 C 0.77107 0.50410 0.00393
 C26 C 0.78924 0.50178 -0.02953
 C27 C 0.82722 0.50382 -0.03120
 C28 C 0.84633 0.50476 0.00225
 C29 C 0.82838 0.50580 0.03632
 C30 C 0.79044 0.50679 0.03654
 H31 H 0.72982 0.44514 0.00657
 H32 H 0.72606 0.56084 0.00365
 H33 H 0.77334 0.49804 -0.05397
 H34 H 0.77542 0.50956 0.06169
 H35 H 0.62706 0.49938 0.00744
 H36 H 0.87554 0.50425 0.00203
 C37 C 0.02946 0.20736 0.49953
 C38 C -0.00249 0.22752 0.49902
 C39 C -0.03589 0.20995 0.49697
 C40 C -0.03781 0.17183 0.49639
 C41 C -0.00525 0.15199 0.49568
 C42 C 0.02867 0.16940 0.49659
 C43 C -0.00087 0.26732 0.49987
 C44 C -0.00018 0.28747 0.46702
 C45 C 0.00333 0.32556 0.46700
 C46 C 0.00265 0.34289 0.50118
 C47 C 0.00065 0.32300 0.53456
 C48 C 0.00016 0.28489 0.53341
 H49 H 0.05501 0.22147 0.50185
 H50 H -0.05991 0.22647 0.49544
 H51 H -0.00247 0.27305 0.44160
 H52 H 0.00079 0.26841 0.55820
 H53 H -0.00685 0.12277 0.49509
 H54 H 0.00324 0.37219 0.50214
 C55 C 1.03129 0.78990 0.50045
 C56 C 0.99928 0.76978 0.50098
 C57 C 0.96594 0.78732 0.50314
 C58 C 0.96411 0.82541 0.50346
 C59 C 0.99668 0.84527 0.50416
 C60 C 1.03070 0.82791 0.50389
 C61 C 1.00079 0.72999 0.50022
 C62 C 0.99880 0.70989 0.53304
 C63 C 1.00226 0.67181 0.53335
 C64 C 1.00410 0.65444 0.49926
 C65 C 1.00484 0.67428 0.46581
 C66 C 1.00444 0.71240 0.46688
 H67 H 1.05663 0.77556 0.49767
 H68 H 0.94190 0.77078 0.50476
 H69 H 0.99446 0.72440 0.55813
 H70 H 1.00696 0.72891 0.44225
 H71 H 0.99507 0.87455 0.50436
 H72 H 1.00459 0.62510 0.49843
 C73 C 0.49176 0.03187 0.21270
 C74 C 0.49405 -0.00192 0.23067
 C75 C 0.49487 -0.03376 0.21055
 C76 C 0.49208 -0.03247 0.17218
 C77 C 0.49102 0.00186 0.15438
 C78 C 0.49128 0.03431 0.17422
 C79 C 0.49566 -0.00396 0.27081
 C80 C 0.46377 -0.00335 0.29130
 C81 C 0.46461 -0.00661 0.32969
 C82 C 0.49855 -0.00787 0.34712
 C83 C 0.53106 -0.00716 0.32688
 C84 C 0.52907 -0.00638 0.28841
 H85 H 0.49034 0.05574 0.22924
 H86 H 0.49752 -0.05961 0.22499
 H87 H 0.43822 -0.00059 0.27714
 H88 H 0.55304 -0.00775 0.27164
 H89 H 0.49084 0.00387 0.12485
 H90 H 0.50020 -0.00860 0.37662
 C91 C 0.50271 0.03663 0.78695
 C92 C 0.50009 0.00320 0.76981
 C93 C 0.50019 -0.02906 0.79060
 C94 C 0.50440 -0.02866 0.82893
 C95 C 0.50539 0.00550 0.84589
 C96 C 0.50432 0.03833 0.82532
 C97 C 0.49824 0.00186 0.72971
 C98 C 0.53014 0.00191 0.70921
 C99 C 0.52927 -0.00137 0.67098
 C100 C 0.49533 -0.00199 0.65356
 C101 C 0.46282 -0.00055 0.67372
 C102 C 0.46478 0.00014 0.71217
 H103 H 0.50373 0.06084 0.76984
 H104 H 0.49729 -0.05455 0.77660
 H105 H 0.55573 0.00412 0.72331
 H106 H 0.44071 -0.00099 0.72892
 H107 H 0.50630 0.00716 0.87535
 H108 H 0.49377 -0.00296 0.62410
 C109 C 0.30185 0.02947 0.45979
 H110 H 0.30074 0.04974 0.48078
 C111 C 0.33033 0.02968 0.43477
 H112 H 0.35097 0.05035 0.43685
 C113 C 0.27833 -0.02439 0.43475
 H114 H 0.25906 -0.04642 0.43613
 C115 C 0.30643 -0.02523 0.40913
 H116 H 0.30803 -0.04824 0.39137
 N117 N 0.27689 0.00244 0.45969
 C118 C 0.19173 0.03967 0.53216
 H119 H 0.19316 0.01838 0.55297
 C120 C 0.16346 0.06460 0.53270
 H121 H 0.14333 0.06208 0.55414
 C122 C 0.21401 0.06556 0.47667
 H123 H 0.23268 0.06455 0.45391
 C124 C 0.18611 0.09111 0.47612
 H125 H 0.18399 0.10923 0.45260
 Zn126 Zn 0.24610 -0.00081 0.50085
 N127 N 0.21594 0.04023 0.50418
 C128 C 0.27977 0.02006 0.56749
 N129 N 0.27715 -0.00567 0.54150
 C130 C 0.30097 -0.03359 0.54010
 C131 C 0.32942 -0.03605 0.56491
 C132 C 0.30783 0.01857 0.59304
 C133 C 0.19004 -0.03929 0.47018
 C134 C 0.16172 -0.06419 0.46917
 C135 C 0.18460 -0.09235 0.52470
 C136 C 0.21253 -0.06678 0.52467
 N137 N 0.21451 -0.04080 0.49779
 H138 H 0.26136 0.04280 0.56721
 H139 H 0.29897 -0.05291 0.51828
 H140 H 0.34910 -0.05728 0.56121
 H141 H 0.31056 0.04040 0.61222
 H142 H 0.19154 -0.01750 0.44991
 H143 H 0.14150 -0.06095 0.44803
 H144 H 0.18250 -0.11124 0.54765
 H145 H 0.23140 -0.06654 0.54719
 C146 C 0.16007 0.09083 0.50436
 C147 C 0.33320 0.00200 0.40894
 C148 C 0.15863 -0.09147 0.49655
 C149 C 0.33331 -0.00978 0.59207
 C150 C 0.69201 0.02949 0.53825
 H151 H 0.69302 0.04886 0.51559
 C152 C 0.66357 0.03056 0.56327
 H153 H 0.64287 0.05102 0.55955
 C154 C 0.71574 -0.02310 0.56773
 H155 H 0.73509 -0.04503 0.56816
 C156 C 0.68768 -0.02307 0.59341
 H157 H 0.68624 -0.04532 0.61306
 N158 N 0.71703 0.00264 0.54056
 C159 C 0.80202 0.03630 0.46467
 H160 H 0.80069 0.01373 0.44623
 C161 C 0.83025 0.06125 0.46151
 H162 H 0.85037 0.05695 0.44059
 C163 C 0.77952 0.06548 0.51718
 H164 H 0.76077 0.06587 0.53990
 C165 C 0.80732 0.09116 0.51497
 H166 H 0.80944 0.11114 0.53618
 Zn167 Zn 0.74765 -0.00238 0.49967
 N168 N 0.77774 0.03849 0.49245
 C169 C 0.71387 0.01556 0.43164
 N170 N 0.71648 -0.00914 0.45965
 C171 C 0.69260 -0.03697 0.46337
 C172 C 0.66403 -0.04033 0.43890
 C173 C 0.68570 0.01316 0.40639
 C174 C 0.80398 -0.03879 0.53337
 C175 C 0.83252 -0.06326 0.53651
 C176 C 0.80932 -0.09455 0.48407
 C177 C 0.78121 -0.06933 0.48187
 N178 N 0.77931 -0.04197 0.50619
 H179 H 0.73235 0.03827 0.43001
 H180 H 0.69462 -0.05543 0.48670
 H181 H 0.64434 -0.06140 0.44436
 H182 H 0.68298 0.03421 0.38546
 H183 H 0.80249 -0.01597 0.55149
 H184 H 0.85282 -0.05832 0.55700
 H185 H 0.81140 -0.11494 0.46327
 H186 H 0.76210 -0.07051 0.45961
 C187 C 0.83342 0.08928 0.48693
 C188 C 0.66077 0.00391 0.59130
 C189 C 0.83561 -0.09185 0.51171
 C190 C 0.66008 -0.01503 0.40977
 C191 C 0.46595 0.19688 1.03387
 H192 H 0.44875 0.19879 1.01001
 C193 C 0.46173 0.16801 1.05879
 H194 H 0.44132 0.14796 1.05314
 C195 C 0.51628 0.21881 1.06665
 H196 H 0.53852 0.23769 1.06857
 C197 C 0.51297 0.19037 1.09236
 H198 H 0.53285 0.18782 1.11393
 N199 N 0.49312 0.22124 1.03791
 C200 C 0.46619 0.30976 0.96238
 H201 H 0.48954 0.30863 0.94458
 C202 C 0.44190 0.33849 0.95876
 H203 H 0.44748 0.35919 0.93815
 C204 C 0.43407 0.28598 1.01366
 H205 H 0.43216 0.26643 1.03606
 C206 C 0.40904 0.31424 1.01100
 H207 H 0.38799 0.31594 1.03151
 Zn208 Zn 0.50148 0.25296 0.99761
 N209 N 0.46215 0.28454 0.98973
 C210 C 0.48534 0.22155 0.92903
 N211 N 0.50896 0.22260 0.95739
 C212 C 0.53556 0.19751 0.96132
 C213 C 0.53864 0.16924 0.93673
 C214 C 0.48749 0.19374 0.90367
 C215 C 0.53781 0.30759 1.03282
 C216 C 0.56259 0.33576 1.03652
 C217 C 0.59533 0.31309 0.98451
 C218 C 0.56977 0.28533 0.98173
 N219 N 0.54153 0.28340 1.00552
 H220 H 0.46351 0.24094 0.92726
 H221 H 0.55310 0.19828 0.98495
 H222 H 0.55855 0.14848 0.94233
 H223 H 0.46712 0.19223 0.88256
 H224 H 0.51431 0.30616 1.05046
 H225 H 0.55727 0.35583 1.05700
 H226 H 0.61641 0.31532 0.96401
 H227 H 0.57140 0.26668 0.95934
 C228 C 0.41270 0.34121 0.98332
 C229 C 0.48546 0.16424 1.08868
 C230 C 0.59204 0.33895 1.01221
 C231 C 0.51436 0.16687 0.90727
 C232 C 0.47146 0.80774 -0.03894
 H233 H 0.45107 0.80565 -0.01773
 C234 C 0.47067 0.83669 -0.06409
 H235 H 0.44951 0.85674 -0.06171
 C236 C 0.52598 0.78617 -0.06454
 H237 H 0.54839 0.76743 -0.06338
 C238 C 0.52622 0.81476 -0.09035
 H239 H 0.54920 0.81742 -0.10850
 N240 N 0.49900 0.78346 -0.03932
 C241 C 0.46175 0.69480 0.03174
 H242 H 0.48259 0.69576 0.05241
 C243 C 0.43685 0.66639 0.03228
 H244 H 0.43925 0.64558 0.05345
 C245 C 0.43686 0.71869 -0.02333
 H246 H 0.43817 0.73812 -0.04588
 C247 C 0.41135 0.69070 -0.02384
 H248 H 0.39348 0.68909 -0.04711
 Zn249 Zn 0.50176 0.75146 0.00158
 N250 N 0.46156 0.71999 0.00407
 C251 C 0.47644 0.78278 0.06744
 N252 N 0.50380 0.78161 0.04263
 C253 C 0.53091 0.80646 0.04259
 C254 C 0.53072 0.83454 0.06757
 C255 C 0.47520 0.81046 0.09304
 C256 C 0.54257 0.69694 -0.02879
 C257 C 0.56764 0.66878 -0.02930
 C258 C 0.59287 0.69088 0.02694
 C259 C 0.56716 0.71866 0.02640
 N260 N 0.54248 0.72089 -0.00103
 H261 H 0.45439 0.76362 0.06600
 H262 H 0.55163 0.80561 0.02168
 H263 H 0.55150 0.85516 0.06544
 H264 H 0.45186 0.81195 0.11075
 H265 H 0.52179 0.69859 -0.04952
 H266 H 0.56558 0.64886 -0.05055
 H267 H 0.61061 0.68847 0.05030
 H268 H 0.56564 0.73709 0.04900
 C269 C 0.41090 0.66398 0.00434
 C270 C 0.49823 0.84066 -0.09048
 C271 C 0.59345 0.66529 -0.00123
 C272 C 0.50258 0.83706 0.09336
 C273 C 1.04573 0.47071 0.19331
 H274 H 1.02345 0.45170 0.19460
 C275 C 1.07048 0.46926 0.16456
 H276 H 1.06647 0.44910 0.14386
 C277 C 1.07450 0.52281 0.21653
 H278 H 1.07480 0.54470 0.23578
 C279 C 1.09995 0.52234 0.18819
 H280 H 1.11943 0.54418 0.18615
 N281 N 1.04789 0.49741 0.21828
 C282 C 0.97512 0.46251 0.30589
 H283 H 0.95625 0.48489 0.30470
 C284 C 0.97294 0.43692 0.33447
 H285 H 0.95230 0.44025 0.35514
 C286 C 1.02751 0.43424 0.28258
 H287 H 1.04976 0.43445 0.26336
 C288 C 1.02632 0.40797 0.31075
 H289 H 1.04803 0.38846 0.31266
 Zn290 Zn 1.00774 0.50206 0.24967
 N291 N 1.00229 0.46098 0.28093
 C292 C 0.94069 0.48331 0.21689
 N293 N 0.96762 0.50830 0.21843
 C294 C 0.96989 0.53615 0.19358
 C295 C 0.94490 0.53934 0.16521
 C296 C 0.91500 0.48551 0.18897
 C297 C 1.04031 0.53881 0.30593
 C298 C 1.04270 0.56316 0.33455
 C299 C 0.98981 0.59376 0.31082
 C300 C 0.98837 0.56868 0.28267
 N301 N 1.01324 0.54168 0.28104
 H302 H 0.94016 0.46062 0.23612
 H303 H 0.99236 0.55489 0.19475
 H304 H 0.94910 0.56057 0.14483
 H305 H 0.89480 0.46436 0.18721
 H306 H 1.05895 0.51628 0.30465
 H307 H 1.06321 0.55839 0.35502
 H308 H 0.96869 0.61392 0.31272
 H309 H 0.96630 0.56966 0.26338
 C310 C 0.99866 0.40891 0.33731
 C311 C 1.09831 0.49523 0.16159
 C312 C 1.01717 0.59125 0.33749
 C313 C 0.91680 0.51377 0.16243
 C314 C -0.04350 0.46288 0.80700
 H315 H -0.02192 0.44315 0.80610
 C316 C -0.06815 0.46182 0.83595
 H317 H -0.06478 0.44113 0.85707
 C318 C -0.07024 0.51654 0.78281
 H319 H -0.06968 0.53889 0.76318
 C320 C -0.09549 0.51651 0.81132
 H321 H -0.11405 0.53907 0.81303
 N322 N -0.04462 0.49023 0.78152
 C323 C 0.02951 0.45756 0.69558
 H324 H 0.04814 0.48014 0.69692
 C325 C 0.03250 0.43294 0.66728
 H326 H 0.05341 0.43751 0.64702
 C327 C -0.02301 0.42793 0.71819
 H328 H -0.04556 0.42721 0.73705
 C329 C -0.02098 0.40254 0.69030
 H330 H -0.04222 0.38251 0.68815
 Zn331 Zn -0.00394 0.49515 0.75061
 N332 N 0.00190 0.45494 0.72002
 C333 C 0.06304 0.47597 0.78430
 N334 N 0.03575 0.50053 0.78227
 C335 C 0.03309 0.52785 0.80651
 C336 C 0.05830 0.53115 0.83450
 C337 C 0.08899 0.47832 0.81189
 C338 C -0.03508 0.53444 0.69334
 C339 C -0.03634 0.55986 0.66454
 C340 C 0.01731 0.58795 0.68857
 C341 C 0.01754 0.56194 0.71694
 N342 N -0.00827 0.53571 0.71858
 H343 H 0.06383 0.45362 0.76561
 H344 H 0.01034 0.54621 0.80499
 H345 H 0.05398 0.55194 0.85448
 H346 H 0.10948 0.45747 0.81405
 H347 H -0.05443 0.51242 0.69454
 H348 H -0.05671 0.55662 0.64371
 H349 H 0.03939 0.60715 0.68668
 H350 H 0.03950 0.56152 0.73637
 C351 C 0.00710 0.40472 0.66421
 C352 C -0.09475 0.48892 0.83861
 C353 C -0.00999 0.58737 0.66179
 C354 C 0.08712 0.50640 0.83744
 C355 C 0.06406 0.14816 0.49736
 C356 C 0.07953 0.14504 0.53630
 C357 C 0.11162 0.12722 0.53857
 C358 C 0.12567 0.11340 0.50168
 C359 C 0.09449 0.09087 0.48629
 C360 C 0.06257 0.10884 0.48373
 C361 C 0.09473 0.16564 0.47436
 C362 C 0.12691 0.14784 0.47693
 H363 H 0.06669 0.15676 0.56005
 H364 H 0.12620 0.12434 0.56421
 H365 H 0.09783 0.06357 0.47614
 H366 H 0.03965 0.09671 0.47023
 H367 H 0.09162 0.19019 0.45774
 H368 H 0.15098 0.15841 0.46354
 C369 C 0.65252 0.57006 0.00672
 C370 C 0.61401 0.56813 0.02279
 C371 C 0.59536 0.59977 0.01977
 C372 C 0.61656 0.63115 0.00156
 C373 C 0.65158 0.63369 0.02416
 C374 C 0.67005 0.60177 0.02721
 C375 C 0.64778 0.58459 -0.03269
 C376 C 0.62936 0.61642 -0.03543
 H377 H 0.60299 0.54499 0.03788
 H378 H 0.56849 0.60279 0.03126
 H379 H 0.66173 0.65840 0.03607
 H380 H 0.69482 0.59949 0.04289
 H381 H 0.65910 0.57147 -0.05646
 H382 H 0.62569 0.63053 -0.06154
 C383 C 0.92833 -0.15419 0.50525
 C384 C 0.92209 -0.13835 0.54332
 C385 C 0.89134 -0.11850 0.54632
 C386 C 0.86929 -0.11551 0.51062
 C387 C 0.89608 -0.10124 0.48153
 C388 C 0.92657 -0.12141 0.47852
 C389 C 0.89325 -0.17545 0.49731
 C390 C 0.86256 -0.15532 0.50050
 H391 H 0.93944 -0.14407 0.56665
 H392 H 0.88254 -0.10852 0.57258
 H393 H 0.89105 -0.07757 0.46408
 H394 H 0.94722 -0.11505 0.45821
 H395 H 0.89197 -0.20328 0.48848
 H396 H 0.83599 -0.16675 0.49581
 C397 C 0.34946 0.43357 0.98949
 C398 C 0.32826 0.39772 0.99561
 C399 C 0.34883 0.36728 0.99242
 C400 C 0.38893 0.37492 0.98411
 C401 C 0.38795 0.39883 0.94895
 C402 C 0.36765 0.42936 0.95196
 C403 C 0.38042 0.43082 1.01740
 C404 C 0.40100 0.40054 1.01442
 H405 H 0.30008 0.39562 1.00324
 H406 H 0.33753 0.34024 0.99599
 H407 H 0.39958 0.39145 0.92289
 H408 H 0.36319 0.44789 0.92891
 H409 H 0.38533 0.45071 1.03835
 H410 H 0.42358 0.39493 1.03257
 C411 C 0.92635 0.15146 0.49430
 C412 C 0.92442 0.11816 0.52036
 C413 C 0.89388 0.09808 0.51703
 C414 C 0.86717 0.11295 0.48833
 C415 C 0.86056 0.15253 0.49932
 C416 C 0.89132 0.17256 0.50281
 C417 C 0.92013 0.13640 0.45592
 C418 C 0.88931 0.11665 0.45261
 H419 H 0.94497 0.11139 0.54051
 H420 H 0.88873 0.07409 0.53403
 H421 H 0.83402 0.16384 0.50440
 H422 H 0.89016 0.20019 0.51226
 H423 H 0.93754 0.14259 0.43264
 H424 H 0.88053 0.10724 0.42616
 C425 C 0.35076 0.56974 -0.00555
 C426 C 0.33225 0.60371 -0.02255
 C427 C 0.35119 0.63512 -0.01848
 C428 C 0.38762 0.63004 0.00128
 C429 C 0.37724 0.61130 0.03792
 C430 C 0.35839 0.57990 0.03430
 C431 C 0.38808 0.56966 -0.02451
 C432 C 0.40722 0.60081 -0.02055
 H433 H 0.30689 0.60331 -0.03734
 H434 H 0.34086 0.66104 -0.02839
 H435 H 0.38240 0.62260 0.06460
 H436 H 0.34842 0.56440 0.05786
 H437 H 0.39783 0.54828 -0.04196
 H438 H 0.43328 0.60508 -0.03365
 C439 C 0.06408 -0.15154 0.50328
 C440 C 0.06269 -0.11382 0.52092
 C441 C 0.09404 -0.09479 0.51815
 C442 C 0.12471 -0.11484 0.49876
 C443 C 0.12797 -0.15131 0.51998
 C444 C 0.09635 -0.17014 0.52282
 C445 C 0.07741 -0.14431 0.46390
 C446 C 0.10897 -0.12553 0.46150
 H447 H 0.04030 -0.10382 0.53703
 H448 H 0.09745 -0.06857 0.53076
 H449 H 0.15287 -0.16199 0.53140
 H450 H 0.09464 -0.19568 0.53807
 H451 H 0.06373 -0.15427 0.43982
 H452 H 0.12224 -0.12025 0.43540
 C453 C 0.65505 0.43192 1.00718
 C454 C 0.67605 0.39686 0.99842
 C455 C 0.65572 0.36602 1.00109
 C456 C 0.61599 0.37263 1.01157
 C457 C 0.61851 0.39342 1.04769
 C458 C 0.63855 0.42431 1.04521
 C459 C 0.62290 0.43135 0.98059
 C460 C 0.60253 0.40071 0.98310
 H461 H 0.70390 0.39575 0.98945
 H462 H 0.66699 0.33945 0.99589
 H463 H 0.60795 0.38364 1.07380
 H464 H 0.64393 0.44085 1.06885
 H465 H 0.61712 0.45287 0.96072
 H466 H 0.57927 0.39643 0.96566
 C467 C 0.48983 0.07053 1.15320
 C468 C 0.45307 0.07627 1.13457
 C469 C 0.45068 0.10729 1.11389
 C470 C 0.48563 0.13012 1.11299
 C471 C 0.49350 0.13672 1.15369
 C472 C 0.49604 0.10578 1.17466
 C473 C 0.51768 0.07303 1.12193
 C474 C 0.51531 0.10380 1.10096
 H475 H 0.43007 0.05841 1.13908
 H476 H 0.42518 0.11575 1.10202
 H477 H 0.49712 0.16344 1.16511
 H478 H 0.50306 0.10709 1.20334
 H479 H 0.53814 0.05259 1.11709
 H480 H 0.53349 0.10928 1.07813
 C481 C 0.00000 0.65077 0.56723
 C482 C 0.02186 0.61512 0.56780
 C483 C 0.01773 0.59476 0.59897
 C484 C -0.00724 0.61163 0.62761
 C485 C 0.00861 0.64973 0.63359
 C486 C 0.01294 0.66991 0.60220
 C487 C -0.03906 0.63928 0.57585
 C488 C -0.04294 0.61921 0.60729
 H489 H 0.04074 0.60736 0.54658
 H490 H 0.03236 0.56956 0.60359
 H491 H 0.01615 0.66006 0.66011
 H492 H 0.02581 0.69636 0.60253
 H493 H -0.06209 0.64768 0.55940
 H494 H -0.06941 0.61157 0.61764
 C495 C 0.50415 0.93748 -0.15013
 C496 C 0.51951 0.93852 -0.11086
 C497 C 0.51714 0.90639 -0.09207
 C498 C 0.50038 0.87540 -0.11380
 C499 C 0.46366 0.89008 -0.12702
 C500 C 0.46563 0.92238 -0.14560
 C501 C 0.52561 0.90633 -0.16771
 C502 C 0.52322 0.87394 -0.14912
 H503 H 0.53423 0.96110 -0.09952
 H504 H 0.52853 0.90267 -0.06488
 H505 H 0.43827 0.87569 -0.12336
 H506 H 0.44187 0.93555 -0.15706
 H507 H 0.54139 0.90931 -0.19269
 H508 H 0.53578 0.84963 -0.15945
 C509 C 1.00336 0.34647 0.43294
 C510 C 0.96477 0.35568 0.42052
 C511 C 0.96293 0.37526 0.38862
 C512 C 0.99997 0.38472 0.37165
 C513 C 1.02106 0.40318 0.40228
 C514 C 1.02323 0.38330 0.43395
 C515 C 1.02069 0.32784 0.39961
 C516 C 1.01842 0.34751 0.36767
 H517 H 0.94071 0.34634 0.43496
 H518 H 0.93727 0.38180 0.37584
 H519 H 1.03493 0.42899 0.39863
 H520 H 1.03987 0.39214 0.45649
 H521 H 1.03449 0.30188 0.40085
 H522 H 1.02868 0.33713 0.34211
 C523 C 0.49357 0.93234 0.15091
 C524 C 0.47998 0.93425 0.11104
 C525 C 0.48322 0.90255 0.09298
 C526 C 0.49920 0.87117 0.11600
 C527 C 0.53527 0.88584 0.13049
 C528 C 0.53231 0.91771 0.14838
 C529 C 0.47169 0.90071 0.16827
 C530 C 0.47493 0.86875 0.15039
 H531 H 0.46612 0.95724 0.09858
 H532 H 0.47322 0.89946 0.06529
 H533 H 0.56087 0.87177 0.12807
 H534 H 0.55544 0.93090 0.16059
 H535 H 0.45527 0.90304 0.19276
 H536 H 0.46231 0.84407 0.16085
 C537 C 0.00165 0.34326 0.57061
 C538 C -0.02277 0.37703 0.57083
 C539 C -0.02017 0.39682 0.60168
 C540 C 0.00615 0.38121 0.63035
 C541 C -0.00664 0.34182 0.63703
 C542 C -0.00937 0.32210 0.60594
 C543 C 0.03973 0.35751 0.57863
 C544 C 0.04226 0.37694 0.60975
 H545 H -0.04145 0.38424 0.54901
 H546 H -0.03628 0.42101 0.60579
 H547 H -0.01338 0.33037 0.66380
 H548 H -0.01991 0.29466 0.60693
 H549 H 0.06325 0.35106 0.56219
 H550 H 0.06823 0.38587 0.61986
 C551 C 0.50669 0.07421 0.84538
 C552 C 0.48039 0.07617 0.87795
 C553 C 0.48379 0.10663 0.89797
 C554 C 0.51284 0.13321 0.88377
 C555 C 0.54771 0.11050 0.88169
 C556 C 0.54431 0.07978 0.86199
 C557 C 0.49941 0.10977 0.82334
 C558 C 0.50298 0.14042 0.84333
 H559 H 0.46015 0.05563 0.88432
 H560 H 0.46670 0.11175 0.92151
 H561 H 0.57371 0.11886 0.89218
 H562 H 0.56706 0.06201 0.85686
 H563 H 0.49090 0.11148 0.79503
 H564 H 0.49887 0.16730 0.83135
 C565 C 1.00791 0.65377 0.43005
 C566 C 1.00158 0.67517 0.39373
 C567 C 1.00574 0.65489 0.36319
 C568 C 1.01521 0.61484 0.37124
 C569 C 1.04955 0.61693 0.39494
 C570 C 1.04554 0.63693 0.42555
 C571 C 0.98145 0.62166 0.42794
 C572 C 0.98546 0.60136 0.39759
 H573 H 0.99304 0.70321 0.39150
 H574 H 1.00205 0.66631 0.33583
 H575 H 1.07574 0.60637 0.38730
 H576 H 1.06789 0.64213 0.44391
 H577 H 0.96067 0.61582 0.44824
 H578 H 0.96835 0.57808 0.39237
 C579 C 1.15813 0.50424 0.06574
 C580 C 1.12249 0.52587 0.06616
 C581 C 1.10340 0.52216 0.09782
 C582 C 1.12146 0.49785 0.12708
 C583 C 1.12868 0.46161 0.10809
 C584 C 1.14742 0.46504 0.07616
 C585 C 1.17835 0.51815 0.09978
 C586 C 1.15942 0.51431 0.13171
 H587 H 1.11375 0.54413 0.04422
 H588 H 1.07830 0.53665 0.10229
 H589 H 1.12169 0.43517 0.11965
 H590 H 1.15545 0.44161 0.06052
 H591 H 1.20450 0.53142 0.09914
 H592 H 1.17057 0.52259 0.15767
 C593 C 0.56465 -0.00132 0.64944
 C594 C 0.56302 -0.01557 0.61008
 C595 C 0.59501 -0.01367 0.59184
 C596 C 0.62635 0.00176 0.61421
 C597 C 0.61275 0.03872 0.62744
 C598 C 0.58061 0.03709 0.64552
 C599 C 0.59498 -0.02407 0.66744
 C600 C 0.62722 -0.02215 0.64942
 H601 H 0.53991 -0.02892 0.59815
 H602 H 0.59826 -0.02428 0.56451
 H603 H 0.62757 0.06396 0.62377
 H604 H 0.56799 0.06099 0.65679
 H605 H 0.59162 -0.04010 0.69249
 H606 H 0.65104 -0.03541 0.66042
 C607 C -0.15356 0.50087 0.93437
 C608 C -0.17391 0.51379 0.89948
 C609 C -0.15527 0.50881 0.86774
 C610 C -0.11741 0.49235 0.87328
 C611 C -0.09895 0.51749 0.90058
 C612 C -0.11776 0.52228 0.93209
 C613 C -0.14320 0.46134 0.92682
 C614 C -0.12470 0.45679 0.89503
 H615 H -0.19996 0.52721 0.89936
 H616 H -0.16648 0.51640 0.84126
 H617 H -0.07379 0.53170 0.89484
 H618 H -0.10873 0.54125 0.95250
 H619 H -0.15130 0.43849 0.94424
 H620 H -0.11811 0.42995 0.88540
 C621 C 0.42925 -0.00563 0.35123
 C622 C 0.39850 -0.02818 0.33456
 C623 C 0.36630 -0.02544 0.35246
 C624 C 0.36761 -0.00097 0.38623
 C625 C 0.39866 -0.01650 0.40952
 C626 C 0.43061 -0.01922 0.39143
 C627 C 0.41400 0.03307 0.35287
 C628 C 0.38189 0.03552 0.37082
 H629 H 0.40156 -0.04459 0.31041
 H630 H 0.34220 -0.03846 0.34227
 H631 H 0.39521 -0.02657 0.43747
 H632 H 0.45346 -0.03273 0.40418
 H633 H 0.42703 0.05656 0.34014
 H634 H 0.36749 0.06104 0.37285
 C635 C 0.15347 0.50337 0.92859
 C636 C 0.17285 0.49286 0.89277
 C637 C 0.15143 0.49484 0.86248
 C638 C 0.11225 0.50635 0.87040
 C639 C 0.09919 0.47946 0.90031
 C640 C 0.12068 0.47766 0.93039
 C641 C 0.13763 0.54111 0.92020
 C642 C 0.11648 0.54286 0.88986
 H643 H 0.20035 0.48309 0.89096
 H644 H 0.16153 0.48834 0.83548
 H645 H 0.07544 0.46244 0.89758
 H646 H 0.11536 0.45872 0.95292
 H647 H 0.14420 0.56502 0.93576
 H648 H 0.10618 0.56860 0.87949
 C649 C 0.56695 -0.00894 0.34732
 C650 C 0.57334 -0.04674 0.36459
 C651 C 0.60419 -0.04966 0.38453
 C652 C 0.62621 -0.01416 0.38615
 C653 C 0.63271 -0.00381 0.34559
 C654 C 0.60192 -0.00071 0.32537
 C655 C 0.56882 0.01734 0.37946
 C656 C 0.59941 0.01441 0.39971
 H657 H 0.55602 -0.06993 0.35972
 H658 H 0.61308 -0.07574 0.39538
 H659 H 0.65922 0.00118 0.33378
 H660 H 0.60306 0.00829 0.29699
 H661 H 0.54815 0.03729 0.38532
 H662 H 0.60450 0.03156 0.42297
 C663 C 0.85059 0.50767 0.07142
 C664 C 0.86822 0.54511 0.07547
 C665 C 0.88951 0.54810 0.10554
 C666 C 0.89198 0.51299 0.12919
 C667 C 0.85233 0.50388 0.13825
 C668 C 0.83080 0.50071 0.10827
 C669 C 0.88214 0.48054 0.07268
 C670 C 0.90372 0.48352 0.10249
 H671 H 0.86271 0.56808 0.05723
 H672 H 0.90085 0.57407 0.11284
 H673 H 0.84211 0.49953 0.16588
 H674 H 0.80292 0.49225 0.11122
 H675 H 0.88668 0.46003 0.05226
 H676 H 0.92678 0.46585 0.10711
 C677 C 0.42687 -0.00236 0.65348
 C678 C 0.42560 0.02194 0.61871
 C679 C 0.39481 0.01864 0.59894
 C680 C 0.36723 -0.00820 0.61556
 C681 C 0.38812 -0.04411 0.62085
 C682 C 0.41918 -0.04088 0.64025
 C683 C 0.39234 0.00826 0.67463
 C684 C 0.36131 0.00484 0.65494
 H685 H 0.44670 0.04105 0.61080
 H686 H 0.39003 0.03457 0.57408
 H687 H 0.37831 -0.07048 0.61276
 H688 H 0.43581 -0.06420 0.64745
 H689 H 0.39183 0.01906 0.70198
 H690 H 0.33506 0.01131 0.66633
   
