data_POSCAR
  _audit_creation_date              2014-09-24
  _audit_creation_method            'ToBaCCo'
  _symmetry_space_group_name_H-M    'P1'
  _symmetry_Int_Tables_number       1
  _symmetry_cell_setting            triclinic
  loop_
  _symmetry_equiv_pos_as_xyz
 x,y,z
_cell_length_a 29.9364
_cell_length_b 30.7989
_cell_length_c 7.3099
_cell_angle_alpha 90.454300
_cell_angle_beta 90.000700
_cell_angle_gamma 90.201400
loop_
  _atom_site_label
  _atom_site_type_symbol
  _atom_site_fract_x
  _atom_site_fract_y
  _atom_site_fract_z
O1 O 0.21958 0.28698 0.01991
 O2 O 0.30095 0.20469 0.16330
 O3 O 0.21745 0.20356 0.05627
 O4 O 0.30165 0.28854 0.14381
 O5 O 0.28012 0.29569 0.43121
 O6 O 0.19792 0.20877 0.34667
 O7 O 0.28154 0.21176 0.45318
 O8 O 0.19825 0.29207 0.30792
 Cu9 Cu 0.26253 0.24525 0.06836
 Cu10 Cu 0.23687 0.25264 0.41235
 C11 C 0.19408 0.30292 0.14161
 C12 C 0.30638 0.19517 0.33024
 C13 C 0.19235 0.19241 0.18833
 C14 C 0.30569 0.30633 0.30036
 O15 O 0.80071 0.29258 0.30974
 O16 O 0.71696 0.21210 0.45476
 O17 O 0.80058 0.20933 0.34837
 O18 O 0.71880 0.29607 0.43288
 O19 O 0.69733 0.28890 0.14538
 O20 O 0.78095 0.20397 0.05790
 O21 O 0.69752 0.20499 0.16504
 O22 O 0.77940 0.28736 0.02169
 Cu23 Cu 0.76183 0.25310 0.41406
 Cu24 Cu 0.73616 0.24563 0.07007
 C25 C 0.80501 0.30333 0.14336
 C26 C 0.69197 0.19540 0.33201
 C27 C 0.80595 0.19297 0.19013
 C28 C 0.69335 0.30670 0.30188
 O29 O 0.72186 0.79887 0.56924
 O30 O 0.80197 0.71040 0.64418
 O31 O 0.71828 0.71483 0.54428
 O32 O 0.80375 0.79371 0.69706
 O33 O 0.78044 0.79023 0.98260
 O34 O 0.70002 0.70658 0.83441
 O35 O 0.78398 0.70674 0.93641
 O36 O 0.69880 0.79040 0.85349
 Cu37 Cu 0.76407 0.75517 0.58629
 Cu38 Cu 0.73826 0.74782 0.92907
 C39 C 0.69545 0.80867 0.69885
 C40 C 0.80810 0.69471 0.80201
 C41 C 0.69394 0.69759 0.66675
 C42 C 0.80721 0.80522 0.86394
 O43 O 0.19678 0.79239 0.69791
 O44 O 0.28189 0.71369 0.54547
 O45 O 0.19824 0.70901 0.64566
 O46 O 0.27872 0.79769 0.57032
 O47 O 0.30181 0.78928 0.85448
 O48 O 0.21602 0.70566 0.93796
 O49 O 0.30003 0.70544 0.83568
 O50 O 0.22018 0.78914 0.98353
 Cu51 Cu 0.23630 0.75390 0.58743
 Cu52 Cu 0.26207 0.74670 0.93024
 C53 C 0.19351 0.80394 0.86463
 C54 C 0.30612 0.69649 0.66801
 C55 C 0.19177 0.69349 0.80380
 C56 C 0.30521 0.80755 0.69983
 C57 C 1.04106 0.08826 0.08876
 C58 C 1.00001 0.10937 0.06884
 C59 C 0.95890 0.08809 0.08844
 C60 C 0.95870 0.04200 0.07730
 C61 C 0.99987 0.01900 0.07272
 C62 C 1.04112 0.04215 0.07790
 C63 C 1.08106 0.01858 0.06440
 C64 C 1.08100 -0.02644 0.05724
 C65 C 1.04091 -0.05028 0.05424
 C66 C 0.99978 -0.02729 0.06195
 C67 C 0.91868 0.01832 0.06291
 C68 C 0.91857 -0.02670 0.05561
 C69 C 0.95857 -0.05041 0.05350
 C70 C 0.95859 -0.09656 0.04506
 C71 C 0.99958 -0.11764 0.06926
 C72 C 1.04069 -0.09643 0.04570
 H73 H 1.11316 0.03446 0.05536
 H74 H 1.11319 -0.04209 0.05531
 H75 H 0.88666 0.03409 0.05326
 H76 H 0.88631 -0.04241 0.05283
 H77 H 1.00003 0.14340 0.03653
 H78 H 0.99951 -0.15136 0.10494
 C79 C 0.54107 0.59588 0.50083
 C80 C 0.49993 0.61750 0.49751
 C81 C 0.45878 0.59562 0.50137
 C82 C 0.45877 0.55033 0.46360
 C83 C 0.49989 0.52754 0.45166
 C84 C 0.54104 0.55059 0.46310
 C85 C 0.58065 0.52812 0.42421
 C86 C 0.58067 0.48344 0.39791
 C87 C 0.54110 0.45895 0.41018
 C88 C 0.49987 0.48157 0.42597
 C89 C 0.41911 0.52761 0.42523
 C90 C 0.41904 0.48294 0.39886
 C91 C 0.45862 0.45869 0.41033
 C92 C 0.45855 0.41269 0.39289
 C93 C 0.49984 0.39203 0.36883
 C94 C 0.54113 0.41294 0.39331
 H95 H 0.61209 0.54493 0.40739
 H96 H 0.61216 0.46888 0.36130
 H97 H 0.38767 0.54422 0.40887
 H98 H 0.38750 0.46819 0.36299
 H99 H 0.49994 0.65248 0.49279
 H100 H 0.49987 0.35903 0.31943
 C101 C -0.04138 0.40370 -0.01783
 C102 C -0.00005 0.38278 0.00075
 C103 C 0.04142 0.40372 -0.01844
 C104 C 0.04141 0.44976 -0.03481
 C105 C 0.00024 0.47248 -0.05038
 C106 C -0.04108 0.44973 -0.03451
 C107 C -0.08050 0.47422 -0.01993
 C108 C -0.08031 0.51892 -0.04116
 C109 C -0.04071 0.54164 -0.07758
 C110 C 0.00038 0.51860 -0.07090
 C111 C 0.08099 0.47429 -0.02017
 C112 C 0.08108 0.51900 -0.04137
 C113 C 0.04161 0.54169 -0.07766
 C114 C 0.04174 0.58730 -0.10477
 C115 C 0.00063 0.60885 -0.09662
 C116 C -0.04059 0.58724 -0.10482
 H117 H -0.11210 0.45984 0.01607
 H118 H -0.11161 0.53550 -0.01981
 H119 H 0.11248 0.45993 0.01596
 H120 H 0.11248 0.53561 -0.02007
 H121 H -0.00012 0.34994 0.04872
 H122 H 0.00071 0.64371 -0.08155
 C123 C 0.54132 1.09528 0.49444
 C124 C 0.50018 1.11683 0.50016
 C125 C 0.45910 1.09489 0.49498
 C126 C 0.45913 1.04970 0.53164
 C127 C 0.50031 1.02701 0.54389
 C128 C 0.54143 1.05005 0.53082
 C129 C 0.58119 1.02771 0.56661
 C130 C 0.58128 0.98320 0.59480
 C131 C 0.54162 0.95867 0.58737
 C132 C 0.50035 0.98118 0.57136
 C133 C 0.41945 1.02706 0.56856
 C134 C 0.41945 0.98256 0.59662
 C135 C 0.45913 0.95835 0.58819
 C136 C 0.45909 0.91250 0.60906
 C137 C 0.50042 0.89206 0.63478
 C138 C 0.54172 0.91281 0.60841
 H139 H 0.61277 1.04450 0.57987
 H140 H 0.61297 0.96884 0.62887
 H141 H 0.38789 1.04362 0.58276
 H142 H 0.38783 0.96795 0.63134
 H143 H 0.50010 1.15178 0.50825
 H144 H 0.50044 0.85952 0.68699
 C145 C 1.15498 0.16435 0.15962
 C146 C 1.15375 0.12453 0.28524
 C147 C 1.11597 0.09993 0.26659
 C148 C 1.08327 0.11630 0.11896
 C149 C 1.07426 0.16349 0.18361
 C150 C 1.11137 0.18833 0.20190
 C151 C 1.14879 0.14593 -0.03516
 C152 C 1.11145 0.12100 -0.05580
 H153 H 1.17932 0.11736 0.38586
 H154 H 1.10924 0.07235 0.35404
 H155 H 1.04263 0.17536 0.23551
 H156 H 1.10994 0.22081 0.26066
 H157 H 1.17172 0.15170 -0.14753
 H158 H 1.10269 0.10576 -0.18541
 C159 C 0.65475 0.66909 0.61759
 C160 C 0.65573 0.62377 0.70380
 C161 C 0.61817 0.59970 0.67040
 C162 C 0.58340 0.62243 0.54767
 C163 C 0.57441 0.66496 0.65542
 C164 C 0.61133 0.68918 0.68940
 C165 C 0.64654 0.66090 0.41268
 C166 C 0.60939 0.63664 0.37661
 H167 H 0.68253 0.61247 0.79119
 H168 H 0.61288 0.56830 0.73333
 H169 H 0.54307 0.67304 0.72156
 H170 H 0.61021 0.71756 0.77831
 H171 H 0.66826 0.67259 0.30488
 H172 H 0.59949 0.62792 0.23819
 C173 C -0.15589 0.33145 0.09126
 C174 C -0.16261 0.36308 -0.06821
 C175 C -0.12486 0.38605 -0.11205
 C176 C -0.08422 0.37653 0.01229
 C177 C -0.10117 0.38282 0.20892
 C178 C -0.13832 0.35968 0.24988
 C179 C -0.11620 0.30357 0.03122
 C180 C -0.07911 0.32675 -0.01198
 H181 H -0.19340 0.36555 -0.14578
 H182 H -0.12352 0.40749 -0.22908
 H183 H -0.08533 0.40437 0.30792
 H184 H -0.15414 0.36191 0.38330
 H185 H -0.11872 0.26901 0.00287
 H186 H -0.05157 0.31107 -0.08233
 C187 C 0.34432 0.83732 0.66784
 C188 C 0.34043 0.87015 0.51104
 C189 C 0.37835 0.89436 0.48547
 C190 C 0.41629 0.88459 0.62305
 C191 C 0.39483 0.88889 0.81321
 C192 C 0.35742 0.86454 0.83640
 C193 C 0.38590 0.81091 0.61926
 C194 C 0.42317 0.83521 0.59389
 H195 H 0.31144 0.87277 0.42274
 H196 H 0.38167 0.91696 0.37304
 H197 H 0.40789 0.90991 0.92068
 H198 H 0.33856 0.86501 0.96329
 H199 H 0.38483 0.77676 0.58261
 H200 H 0.45250 0.82073 0.53157
 C201 C -0.15311 0.66439 -0.17149
 C202 C -0.15736 0.62034 -0.27039
 C203 C -0.12035 0.59474 -0.25415
 C204 C -0.08281 0.61487 -0.13481
 C205 C -0.07382 0.65837 -0.23293
 C206 C -0.11011 0.68407 -0.24952
 C207 C -0.14194 0.65332 0.02790
 C208 C -0.10540 0.62759 0.04658
 H209 H -0.18588 0.61109 -0.35390
 H210 H -0.11726 0.56416 -0.32776
 H211 H -0.04329 0.66615 -0.30581
 H212 H -0.10923 0.71319 -0.33212
 H213 H -0.16112 0.66454 0.14496
 H214 H -0.09360 0.61698 0.17933
 C215 C 0.34548 1.16698 0.37878
 C216 C 0.34507 1.12182 0.28802
 C217 C 0.38262 1.09811 0.32152
 C218 C 0.41682 1.12106 0.44840
 C219 C 0.42593 1.16391 0.34536
 C220 C 0.38901 1.18776 0.31179
 C221 C 0.35300 1.15851 0.58335
 C222 C 0.39016 1.13465 0.61929
 H223 H 0.31859 1.11030 0.19830
 H224 H 0.38825 1.06678 0.25672
 H225 H 0.45741 1.17252 0.28167
 H226 H 0.39029 1.21642 0.22642
 H227 H 0.33080 1.16967 0.69098
 H228 H 0.39961 1.12579 0.75742
 C229 C 1.15447 -0.16821 -0.08042
 C230 C 1.11133 -0.19483 -0.08893
 C231 C 1.07392 -0.17197 -0.05060
 C232 C 1.08253 -0.12367 -0.00060
 C233 C 1.11731 -0.12529 0.15491
 C234 C 1.15490 -0.14838 0.11322
 C235 C 1.14619 -0.12979 -0.20861
 C236 C 1.10840 -0.10708 -0.16912
 H237 H 1.10999 -0.22860 -0.13029
 H238 H 1.04162 -0.18698 -0.07285
 H239 H 1.11261 -0.10962 0.28704
 H240 H 1.18221 -0.15214 0.20939
 H241 H 1.16743 -0.12193 -0.32417
 H242 H 1.09733 -0.08029 -0.25320
 C243 C 0.65475 0.33691 0.33388
 C244 C 0.66035 0.37194 0.48353
 C245 C 0.62289 0.39662 0.51010
 C246 C 0.58373 0.38504 0.37997
 C247 C 0.60355 0.38658 0.18645
 C248 C 0.64044 0.36176 0.16239
 C249 C 0.61341 0.31136 0.39342
 C250 C 0.57665 0.33616 0.41954
 H251 H 0.69007 0.37556 0.56738
 H252 H 0.62068 0.42059 0.61934
 H253 H 0.58988 0.40623 0.07734
 H254 H 0.65824 0.36051 0.03304
 H255 H 0.61439 0.27767 0.43515
 H256 H 0.54753 0.32275 0.48745
 C257 C 0.84444 -0.16843 -0.08338
 C258 C 0.84385 -0.14834 0.11013
 C259 C 0.88159 -0.12530 0.15253
 C260 C 0.91665 -0.12388 -0.00193
 C261 C 0.92495 -0.17224 -0.05075
 C262 C 0.88743 -0.19512 -0.08990
 C263 C 0.85333 -0.13005 -0.21184
 C264 C 0.89125 -0.10741 -0.17149
 H265 H 0.81634 -0.15178 0.20575
 H266 H 0.88618 -0.10948 0.28447
 H267 H 0.95716 -0.18734 -0.07119
 H268 H 0.88864 -0.22897 -0.13017
 H269 H 0.83236 -0.12208 -0.32799
 H270 H 0.90268 -0.08065 -0.25539
 C271 C 0.34450 0.33651 0.33262
 C272 C 0.35855 0.36197 0.16216
 C273 C 0.39564 0.38677 0.18633
 C274 C 0.41588 0.38462 0.37904
 C275 C 0.37706 0.39568 0.51124
 C276 C 0.33942 0.37102 0.48460
 C277 C 0.38583 0.31084 0.38895
 C278 C 0.42279 0.33561 0.41531
 H279 H 0.34047 0.36109 0.03338
 H280 H 0.40921 0.40678 0.07788
 H281 H 0.37960 0.41937 0.62150
 H282 H 0.30989 0.37435 0.56957
 H283 H 0.38476 0.27700 0.42855
 H284 H 0.45190 0.32199 0.48176
 C285 C 0.15471 0.66478 -0.17065
 C286 C 0.11170 0.68438 -0.24844
 C287 C 0.07533 0.65853 -0.23221
 C288 C 0.08412 0.61502 -0.13445
 C289 C 0.12159 0.59504 -0.25380
 C290 C 0.15873 0.62073 -0.26982
 C291 C 0.14339 0.65353 0.02891
 C292 C 0.10673 0.62771 0.04709
 H293 H 0.11080 0.71353 -0.33093
 H294 H 0.04486 0.66624 -0.30525
 H295 H 0.11838 0.56447 -0.32749
 H296 H 0.18721 0.61148 -0.35328
 H297 H 0.16248 0.66468 0.14661
 H298 H 0.09484 0.61699 0.17967
 C299 C 0.65481 1.16847 0.37829
 C300 C 0.61110 1.18906 0.31314
 C301 C 0.57427 1.16485 0.34658
 C302 C 0.58352 1.12187 0.44787
 C303 C 0.61757 1.09940 0.31958
 C304 C 0.65508 1.12341 0.28607
 C305 C 0.64751 1.15945 0.58299
 C306 C 0.61037 1.13529 0.61866
 H307 H 0.60957 1.21789 0.22875
 H308 H 0.54274 1.17334 0.28355
 H309 H 0.61189 1.06810 0.25421
 H310 H 0.68145 1.11212 0.19567
 H311 H 0.66983 1.17033 0.69099
 H312 H 0.60113 1.12600 0.75658
 C313 C 0.15526 0.33117 0.08968
 C314 C 0.13779 0.35915 0.24894
 C315 C 0.10089 0.38242 0.20818
 C316 C 0.08406 0.37651 0.01117
 C317 C 0.12488 0.38621 -0.11227
 C318 C 0.16240 0.36310 -0.06862
 C319 C 0.11539 0.30346 0.02808
 C320 C 0.07854 0.32679 -0.01487
 H321 H 0.15352 0.36114 0.38262
 H322 H 0.08518 0.40385 0.30760
 H323 H 0.12383 0.40782 -0.22877
 H324 H 0.19327 0.36563 -0.14574
 H325 H 0.11762 0.26896 -0.00153
 H326 H 0.05088 0.31130 -0.08602
 C327 C 0.65642 0.83829 0.66691
 C328 C 0.61481 0.81167 0.61819
 C329 C 0.57759 0.83577 0.59279
 C330 C 0.58453 0.88519 0.62215
 C331 C 0.60599 0.88958 0.81232
 C332 C 0.64336 0.86542 0.83552
 C333 C 0.66037 0.87117 0.51019
 C334 C 0.62249 0.89519 0.48463
 H335 H 0.61581 0.77753 0.58146
 H336 H 0.54824 0.82116 0.53030
 H337 H 0.59298 0.91053 0.91980
 H338 H 0.66222 0.86597 0.96240
 H339 H 0.68937 0.87394 0.42190
 H340 H 0.61920 0.91776 0.37218
 C341 C 0.84518 0.16351 0.16008
 C342 C 0.88874 0.18769 0.20303
 C343 C 0.92584 0.16310 0.18434
 C344 C 0.91676 0.11591 0.11888
 C345 C 0.88400 0.09925 0.26621
 C346 C 0.84628 0.12366 0.28511
 C347 C 0.85131 0.14539 -0.03473
 C348 C 0.88860 0.12065 -0.05588
 H349 H 0.89008 0.22012 0.26232
 H350 H 0.95751 0.17510 0.23627
 H351 H 0.89068 0.07165 0.35338
 H352 H 0.82068 0.11640 0.38560
 H353 H 0.82834 0.15129 -0.14663
 H354 H 0.89735 0.10562 -0.18581
 C355 C 0.34524 0.66817 0.61882
 C356 C 0.35339 0.66004 0.41388
 C357 C 0.39048 0.63598 0.37763
 C358 C 0.41650 0.62191 0.54854
 C359 C 0.42558 0.66448 0.65628
 C360 C 0.38871 0.68849 0.69048
 C361 C 0.34422 0.62285 0.70502
 C362 C 0.38173 0.59898 0.67145
 H363 H 0.33165 0.67160 0.30617
 H364 H 0.40033 0.62732 0.23916
 H365 H 0.45696 0.67272 0.72228
 H366 H 0.38989 0.71686 0.77950
 H367 H 0.31743 0.61141 0.79256
 H368 H 0.38701 0.56762 0.73439
   
