data_POSCAR
  _audit_creation_date              2014-09-24
  _audit_creation_method            'ToBaCCo'
  _symmetry_space_group_name_H-M    'P1'
  _symmetry_Int_Tables_number       1
  _symmetry_cell_setting            triclinic
  loop_
  _symmetry_equiv_pos_as_xyz
 x,y,z
_cell_length_a 22.3990
_cell_length_b 22.2923
_cell_length_c 24.5999
_cell_angle_alpha 89.932500
_cell_angle_beta 90.013100
_cell_angle_gamma 90.031300
loop_
  _atom_site_label
  _atom_site_type_symbol
  _atom_site_fract_x
  _atom_site_fract_y
  _atom_site_fract_z
C1 C 0.47188 1.00267 -0.57414
 C2 C 0.53490 1.00185 -0.57530
 C3 C 0.56670 1.00277 -0.52607
 C4 C 0.53689 1.00433 -0.47583
 C5 C 0.47393 1.00479 -0.47486
 C6 C 0.44225 1.00400 -0.52396
 H7 H 0.39377 1.00449 -0.52301
 H8 H 0.61521 1.00237 -0.52686
 C9 C -0.55014 1.46766 0.13666
 C10 C -0.55044 1.53068 0.13402
 C11 C -0.49665 1.56206 0.13876
 C12 C -0.44206 1.53158 0.13850
 C13 C -0.44172 1.46853 0.14060
 C14 C -0.49588 1.43744 0.14332
 H15 H -0.49535 1.38869 0.14280
 H16 H -0.49695 1.61060 0.13479
 C17 C -0.01174 0.46600 0.42555
 C18 C -0.01769 0.52884 0.42425
 C19 C -0.01898 0.56100 0.47309
 C20 C -0.01462 0.53142 0.52318
 C21 C -0.00993 0.46854 0.52447
 C22 C -0.00841 0.43639 0.47568
 H23 H -0.00413 0.38786 0.47685
 H24 H -0.02281 0.60954 0.47209
 O25 O -0.15132 1.00385 -0.09735
 O26 O 0.15687 0.99761 -0.09634
 O27 O 0.00208 1.08299 -0.16252
 O28 O 0.00349 0.92022 -0.16457
 O29 O 0.00242 0.84641 -0.09866
 O30 O 0.00257 1.15471 -0.09487
 O31 O 0.08435 0.99931 -0.16321
 O32 O -0.07831 1.00429 -0.16375
 Zr33 Zr 0.00282 1.00091 -0.11950
 O34 O 0.05668 0.94514 -0.07373
 O35 O -0.05127 1.05528 -0.07270
 C36 C -0.13347 1.00532 -0.14747
 C37 C 0.13940 0.99802 -0.14659
 C38 C 0.00175 1.13792 -0.14524
 C39 C 0.00328 0.86475 -0.14860
 H40 H 0.08348 1.07978 -0.09398
 O41 O 0.05742 1.05361 -0.07179
 H42 H -0.07824 0.92127 -0.09641
 O43 O -0.05216 0.94666 -0.07354
 O44 O 0.15627 0.99839 0.05048
 O45 O -0.15187 0.99801 0.04918
 O46 O 0.08403 1.15228 -0.01719
 O47 O 0.08091 0.84426 -0.02511
 O48 O -0.07869 0.84621 -0.02106
 O49 O -0.07575 1.15454 -0.02107
 O50 O 0.00525 1.07885 0.11740
 O51 O -0.00264 0.91529 0.11524
 O52 O 0.00624 1.15244 0.05121
 O53 O -0.00257 0.84399 0.04719
 O54 O 0.15668 1.07887 -0.01693
 O55 O -0.15010 1.08277 -0.02153
 O56 O -0.15146 0.91948 -0.01909
 O57 O 0.15516 0.91607 -0.02348
 O58 O 0.08333 0.99814 0.11695
 O59 O -0.07965 0.99605 0.11631
 Zr60 Zr 0.10774 0.99806 -0.02307
 Zr61 Zr -0.10274 1.00067 -0.02384
 Zr62 Zr 0.00358 1.10425 -0.02232
 Zr63 Zr 0.00154 0.89454 -0.02500
 Zr64 Zr 0.00210 0.99777 0.07276
 O65 O -0.05203 0.94541 0.02476
 O66 O 0.05679 1.05186 0.02664
 C67 C 0.13847 0.99890 0.10061
 C68 C -0.13464 0.99601 0.09941
 C69 C 0.13862 1.13398 -0.01356
 C70 C 0.13610 0.86113 -0.02335
 C71 C -0.13323 0.86432 -0.01655
 C72 C -0.13094 1.13765 -0.01929
 C73 C 0.00696 1.13426 0.10119
 C74 C -0.00488 0.86052 0.09754
 H75 H -0.07554 1.07813 0.05026
 O76 O -0.05075 1.05285 0.02627
 H77 H 0.08007 0.91780 0.04885
 O78 O 0.05552 0.94406 0.02543
 C79 C 0.26895 1.00166 0.21745
 C80 C 0.25287 1.01162 0.27236
 C81 C 0.29760 1.01241 0.31338
 C82 C 0.35830 1.00315 0.29933
 C83 C 0.37447 0.99359 0.24442
 C84 C 0.32968 0.99279 0.20334
 C85 C 0.34700 0.98302 0.14875
 C86 C 0.40680 0.97447 0.13509
 C87 C 0.45050 0.97528 0.17524
 C88 C 0.43478 0.98468 0.22937
 C89 C 0.28024 1.02244 0.36800
 C90 C 0.22053 1.03121 0.38169
 C91 C 0.17685 1.03026 0.34161
 C92 C 0.19256 1.02073 0.28752
 C93 C 0.40336 1.00272 0.34191
 C94 C 0.43756 1.00254 0.37985
 C95 C 0.22288 1.00052 0.17574
 C96 C 0.18420 0.99972 0.14155
 H97 H 0.31461 0.98198 0.11612
 H98 H 0.41930 0.96730 0.09311
 H99 H 0.49687 0.96863 0.16439
 H100 H 0.47032 0.98502 0.25920
 H101 H 0.31247 1.02362 0.40072
 H102 H 0.20810 1.03874 0.42365
 H103 H 0.13051 1.03682 0.35249
 H104 H 0.15690 1.02050 0.25783
 C105 C -0.27097 0.99481 0.21040
 C106 C -0.29976 1.04944 0.22369
 C107 C -0.34548 1.05023 0.26383
 C108 C -0.36196 0.99648 0.29067
 C109 C -0.33555 0.94137 0.27512
 C110 C -0.29000 0.94052 0.23482
 C111 C -0.26429 0.88489 0.22002
 C112 C -0.28322 0.83157 0.24412
 C113 C -0.32746 0.83244 0.28372
 C114 C -0.35342 0.88658 0.29927
 C115 C -0.37349 1.10536 0.27646
 C116 C -0.35686 1.15824 0.25019
 C117 C -0.31200 1.15752 0.21116
 C118 C -0.28367 1.10388 0.19785
 C119 C -0.40243 0.99845 0.33694
 C120 C -0.43331 1.00010 0.37718
 C121 C -0.22166 0.99460 0.17192
 C122 C -0.18118 0.99491 0.13953
 H123 H -0.22959 0.88196 0.18953
 H124 H -0.26325 0.78939 0.23214
 H125 H -0.34184 0.79090 0.30244
 H126 H -0.38797 0.88496 0.32998
 H127 H -0.40878 1.10807 0.30639
 H128 H -0.37892 1.19999 0.26016
 H129 H -0.29922 1.19872 0.19092
 H130 H -0.24932 1.10555 0.16695
 C131 C -0.26466 1.01010 -0.26374
 C132 C -0.25995 1.05025 -0.30818
 C133 C -0.30439 1.05034 -0.34951
 C134 C -0.35332 1.01011 -0.34635
 C135 C -0.35860 0.97072 -0.30142
 C136 C -0.31434 0.97091 -0.25988
 C137 C -0.32082 0.93126 -0.21529
 C138 C -0.36950 0.89246 -0.21186
 C139 C -0.41245 0.89198 -0.25266
 C140 C -0.40723 0.93048 -0.29707
 C141 C -0.29843 1.09079 -0.39361
 C142 C -0.25007 1.12999 -0.39678
 C143 C -0.20666 1.12987 -0.35641
 C144 C -0.21130 1.09055 -0.31255
 C145 C -0.39635 1.00765 -0.39068
 C146 C -0.42939 1.00591 -0.42948
 C147 C -0.21798 1.00857 -0.22254
 C148 C -0.17914 1.00723 -0.18848
 H149 H -0.28849 0.92991 -0.18263
 H150 H -0.37383 0.86252 -0.17740
 H151 H -0.45014 0.86171 -0.24983
 H152 H -0.44171 0.92845 -0.32783
 H153 H -0.33105 1.09269 -0.42601
 H154 H -0.24627 1.16064 -0.43077
 H155 H -0.16918 1.16041 -0.35906
 H156 H -0.17642 1.09220 -0.28214
 C157 C 0.27036 1.00273 -0.26305
 C158 C 0.33133 0.99668 -0.24857
 C159 C 0.37631 0.99906 -0.28942
 C160 C 0.36010 1.00692 -0.34458
 C161 C 0.29915 1.01382 -0.35896
 C162 C 0.25425 1.01177 -0.31812
 C163 C 0.19374 1.01881 -0.33358
 C164 C 0.17799 1.02765 -0.38779
 C165 C 0.22181 1.02968 -0.42771
 C166 C 0.28171 1.02283 -0.41372
 C167 C 0.43685 0.99354 -0.27390
 C168 C 0.45266 0.98550 -0.21958
 C169 C 0.40876 0.98273 -0.17970
 C170 C 0.34872 0.98828 -0.19379
 C171 C 0.40531 1.00657 -0.38712
 C172 C 0.43927 1.00590 -0.42526
 C173 C 0.22413 1.00022 -0.22148
 C174 C 0.18535 0.99874 -0.18737
 H175 H 0.15798 1.01762 -0.30404
 H176 H 0.13152 1.03291 -0.39888
 H177 H 0.20935 1.03663 -0.46976
 H178 H 0.31404 1.02489 -0.44632
 H179 H 0.47248 0.99577 -0.30352
 H180 H 0.49922 0.98152 -0.20835
 H181 H 0.42129 0.97641 -0.13758
 H182 H 0.31620 0.98603 -0.16133
 C183 C 0.25289 1.26509 0.03485
 C184 C 0.31562 1.26013 0.03064
 C185 C 0.35264 1.30480 0.05412
 C186 C 0.32653 1.35412 0.08166
 C187 C 0.26384 1.35890 0.08615
 C188 C 0.22678 1.31434 0.06242
 C189 C 0.16404 1.32001 0.06733
 C190 C 0.13880 1.36819 0.09508
 C191 C 0.17517 1.41148 0.11864
 C192 C 0.23704 1.40715 0.11433
 C193 C 0.41546 1.29863 0.04975
 C194 C 0.44076 1.24971 0.02314
 C195 C 0.40440 1.20605 0.00016
 C196 C 0.34252 1.21099 0.00368
 C197 C 0.36506 1.39950 0.10479
 C198 C 0.40210 1.43388 0.12153
 C199 C 0.21511 1.21793 0.01371
 C200 C 0.18180 1.17892 -0.00101
 H201 H 0.13386 1.28742 0.04979
 H202 H 0.09079 1.37197 0.09831
 H203 H 0.15535 1.44873 0.14017
 H204 H 0.26359 1.44180 0.13342
 H205 H 0.44577 1.33128 0.06691
 H206 H 0.48883 1.24569 0.02036
 H207 H 0.42424 1.16813 -0.02051
 H208 H 0.31607 1.17593 -0.01490
 C209 C 0.25264 0.72923 0.01781
 C210 C 0.23203 0.66937 0.02246
 C211 C 0.26841 0.62547 0.04809
 C212 C 0.32486 0.64192 0.06907
 C213 C 0.34613 0.70149 0.06303
 C214 C 0.30988 0.74524 0.03723
 C215 C 0.33186 0.80455 0.03175
 C216 C 0.38824 0.82011 0.05107
 C217 C 0.42381 0.77733 0.07631
 C218 C 0.40323 0.71871 0.08238
 C219 C 0.24721 0.56584 0.05207
 C220 C 0.19148 0.55002 0.03129
 C221 C 0.15570 0.59303 0.00649
 C222 C 0.17546 0.65215 0.00213
 C223 C 0.36281 0.59772 0.09489
 C224 C 0.39922 0.56453 0.11457
 C225 C 0.21307 0.77552 -0.00220
 C226 C 0.17898 0.81480 -0.01472
 H227 H 0.30594 0.83938 0.01219
 H228 H 0.40445 0.86555 0.04629
 H229 H 0.46764 0.78956 0.09121
 H230 H 0.43264 0.68722 0.10234
 H231 H 0.27357 0.53096 0.07101
 H232 H 0.17597 0.50417 0.03440
 H233 H 0.11241 0.58054 -0.00947
 H234 H 0.14620 0.68400 -0.01771
 C235 C -0.24489 0.73213 0.03462
 C236 C -0.30686 0.73148 0.02392
 C237 C -0.34333 0.68654 0.04776
 C238 C -0.31740 0.64246 0.08208
 C239 C -0.25536 0.64284 0.09251
 C240 C -0.21889 0.68796 0.06877
 C241 C -0.15690 0.68792 0.08019
 C242 C -0.13178 0.64440 0.11391
 C243 C -0.16755 0.60023 0.13703
 C244 C -0.22872 0.59926 0.12659
 C245 C -0.40548 0.68714 0.03676
 C246 C -0.43065 0.73085 0.00335
 C247 C -0.39482 0.77476 -0.01997
 C248 C -0.33360 0.77528 -0.00998
 C249 C -0.35572 0.59776 0.10666
 C250 C -0.39327 0.56419 0.12390
 C251 C -0.20815 0.77964 0.01251
 C252 C -0.17579 0.81904 -0.00320
 H253 H -0.12722 0.72134 0.06318
 H254 H -0.08431 0.64490 0.12206
 H255 H -0.14782 0.56656 0.16318
 H256 H -0.25488 0.56414 0.14550
 H257 H -0.43540 0.65399 0.05374
 H258 H -0.47821 0.73057 -0.00452
 H259 H -0.41454 0.80861 -0.04595
 H260 H -0.30755 0.81032 -0.02911
 C261 C -0.24343 1.26744 0.03413
 C262 C -0.22314 1.32755 0.03744
 C263 C -0.25813 1.37112 0.06495
 C264 C -0.31309 1.35424 0.08871
 C265 C -0.33295 1.29393 0.08609
 C266 C -0.29800 1.25040 0.05865
 C267 C -0.31873 1.19040 0.05641
 C268 C -0.37265 1.17397 0.08044
 C269 C -0.40696 1.21658 0.10724
 C270 C -0.38754 1.27587 0.11023
 C271 C -0.23716 1.43092 0.06788
 C272 C -0.18299 1.44726 0.04425
 C273 C -0.14882 1.40469 0.01712
 C274 C -0.16837 1.34543 0.01373
 C275 C -0.35236 1.39925 0.11130
 C276 C -0.39006 1.43343 0.12699
 C277 C -0.20603 1.22206 0.00953
 C278 C -0.17323 1.18343 -0.00684
 H279 H -0.29367 1.15561 0.03599
 H280 H -0.38778 1.12790 0.07840
 H281 H -0.44874 1.20361 0.12598
 H282 H -0.41563 1.30717 0.13193
 H283 H -0.26228 1.46547 0.08861
 H284 H -0.16749 1.49317 0.04697
 H285 H -0.10685 1.41762 -0.00131
 H286 H -0.14026 1.31393 -0.00778
 C287 C 0.00906 1.26566 0.21677
 C288 C 0.02492 1.25123 0.27091
 C289 C 0.02177 1.29587 0.31192
 C290 C 0.00276 1.35468 0.29852
 C291 C -0.01144 1.36960 0.24414
 C292 C -0.00821 1.32493 0.20305
 C293 C -0.02267 1.34084 0.14891
 C294 C -0.03927 1.39935 0.13572
 C295 C -0.04255 1.44297 0.17596
 C296 C -0.02914 1.42842 0.22970
 C297 C 0.03758 1.28026 0.36590
 C298 C 0.05596 1.22229 0.37889
 C299 C 0.05903 1.17866 0.33871
 C300 C 0.04375 1.19268 0.28529
 C301 C -0.00327 1.39885 0.34135
 C302 C -0.00775 1.43228 0.37953
 C303 C 0.00909 1.21906 0.17569
 C304 C 0.00848 1.17998 0.14194
 H305 H -0.02072 1.30847 0.11621
 H306 H -0.04948 1.41093 0.09403
 H307 H -0.05553 1.48832 0.16550
 H308 H -0.03261 1.46369 0.25971
 H309 H 0.03610 1.31259 0.39863
 H310 H 0.06788 1.21120 0.42035
 H311 H 0.07329 1.13370 0.34899
 H312 H 0.04702 1.15718 0.25547
 C313 C 0.00286 1.26975 -0.26075
 C314 C 0.02563 1.25635 -0.31301
 C315 C 0.02455 1.30077 -0.35443
 C316 C 0.00058 1.35830 -0.34334
 C317 C -0.02124 1.37203 -0.29085
 C318 C -0.01975 1.32771 -0.24927
 C319 C -0.04137 1.34257 -0.19694
 C320 C -0.06385 1.39961 -0.18604
 C321 C -0.06574 1.44277 -0.22686
 C322 C -0.04501 1.42926 -0.27883
 C323 C 0.04735 1.28620 -0.40649
 C324 C 0.07057 1.22946 -0.41724
 C325 C 0.07168 1.18606 -0.37667
 C326 C 0.04950 1.19907 -0.32511
 C327 C -0.00326 1.40207 -0.38685
 C328 C -0.00636 1.43487 -0.42567
 C329 C 0.00203 1.22350 -0.21925
 C330 C 0.00163 1.18444 -0.18538
 H331 H -0.04096 1.31042 -0.16395
 H332 H -0.08005 1.41031 -0.14574
 H333 H -0.08339 1.48695 -0.21825
 H334 H -0.04780 1.46406 -0.30941
 H335 H 0.04763 1.31840 -0.43943
 H336 H 0.08782 1.21916 -0.45726
 H337 H 0.08982 1.14208 -0.38518
 H338 H 0.05141 1.16379 -0.29491
 C339 C -0.00425 0.73487 -0.26546
 C340 C 0.01576 0.67582 -0.25443
 C341 C 0.01274 0.63126 -0.29564
 C342 C -0.01096 0.64588 -0.34730
 C343 C -0.03192 0.70468 -0.35800
 C344 C -0.02844 0.74933 -0.31699
 C345 C -0.04940 0.80787 -0.32871
 C346 C -0.07319 0.82186 -0.37949
 C347 C -0.07665 0.77819 -0.41962
 C348 C -0.05631 0.72024 -0.40926
 C349 C 0.03385 0.57283 -0.28407
 C350 C 0.05633 0.55845 -0.23286
 C351 C 0.05884 0.60186 -0.19238
 C352 C 0.03904 0.66002 -0.20287
 C353 C -0.01245 0.60141 -0.39027
 C354 C -0.01361 0.56746 -0.42830
 C355 C -0.00030 0.78083 -0.22392
 C356 C 0.00202 0.81936 -0.18969
 H357 H -0.04771 0.84341 -0.29883
 H358 H -0.08905 0.86682 -0.38772
 H359 H -0.09519 0.78925 -0.45902
 H360 H -0.06006 0.68789 -0.44183
 H361 H 0.03320 0.53777 -0.31442
 H362 H 0.07191 0.51339 -0.22458
 H363 H 0.07638 0.59049 -0.15267
 H364 H 0.04208 0.69233 -0.17018
 C365 C -0.02253 0.72465 0.20777
 C366 C 0.01350 0.67272 0.20319
 C367 C 0.01086 0.62767 0.24402
 C368 C -0.02798 0.63475 0.28888
 C369 C -0.06646 0.68503 0.29179
 C370 C -0.06364 0.73021 0.25113
 C371 C -0.10168 0.78070 0.25541
 C372 C -0.14122 0.78645 0.29880
 C373 C -0.14422 0.74210 0.33845
 C374 C -0.10737 0.69188 0.33521
 C375 C 0.04815 0.57674 0.23934
 C376 C 0.08664 0.57025 0.19527
 C377 C 0.08906 0.61416 0.15516
 C378 C 0.05303 0.66495 0.15887
 C379 C -0.02490 0.59346 0.33435
 C380 C -0.02169 0.56219 0.37418
 C381 C -0.01602 0.77316 0.16897
 C382 C -0.01061 0.81354 0.13681
 H383 H -0.10124 0.81624 0.22540
 H384 H -0.16961 0.82557 0.30172
 H385 H -0.17516 0.74669 0.37198
 H386 H -0.11142 0.65851 0.36698
 H387 H 0.04787 0.54146 0.26958
 H388 H 0.11488 0.53107 0.19240
 H389 H 0.11918 0.60899 0.12113
 H390 H 0.05643 0.69790 0.12667
   
