data_POSCAR
  _audit_creation_date              2014-09-24
  _audit_creation_method            'ToBaCCo'
  _symmetry_space_group_name_H-M    'P1'
  _symmetry_Int_Tables_number       1
  _symmetry_cell_setting            triclinic
  loop_
  _symmetry_equiv_pos_as_xyz
 x,y,z
_cell_length_a 49.7877
_cell_length_b 49.8040
_cell_length_c 49.9781
_cell_angle_alpha 90.033900
_cell_angle_beta 90.123400
_cell_angle_gamma 89.933900
loop_
  _atom_site_label
  _atom_site_type_symbol
  _atom_site_fract_x
  _atom_site_fract_y
  _atom_site_fract_z
C1 C 0.34550 0.38589 1.36691
 C2 C 0.36547 0.38613 1.34720
 C3 C 0.38502 0.36637 1.34693
 C4 C 0.38487 0.34611 1.36642
 C5 C 0.36513 0.34588 1.38588
 C6 C 0.34532 0.36593 1.38615
 C7 C 0.32340 0.40189 1.37129
 N8 N 0.30978 0.39215 1.39273
 C9 C 0.32310 0.37017 1.40200
 C10 C 0.36925 0.32338 1.40135
 N11 N 0.39102 0.30997 1.39176
 C12 C 0.40072 0.32379 1.37042
 C13 C 0.40095 0.37091 1.32491
 N14 N 0.39152 0.39294 1.31189
 C15 C 0.36985 0.40240 1.32540
 H16 H 0.31746 0.41911 1.35943
 H17 H 0.31685 0.35784 1.41870
 H18 H 0.35703 0.31704 1.41809
 H19 H 0.41776 0.31783 1.35835
 H20 H 0.41783 0.35879 1.31853
 H21 H 0.35780 0.41951 1.31946
 C22 C 1.15320 0.61142 0.86881
 C23 C 1.13326 0.61059 0.84897
 C24 C 1.11324 0.62987 0.84856
 C25 C 1.11286 0.65021 0.86795
 C26 C 1.13254 0.65103 0.88753
 C27 C 1.15283 0.63146 0.88800
 C28 C 1.17577 0.59611 0.87328
 N29 N 1.18914 0.60634 0.89473
 C30 C 1.17520 0.62795 0.90390
 C31 C 1.12798 0.67367 0.90269
 N32 N 1.10604 0.68659 0.89276
 C33 C 1.09662 0.67231 0.87154
 C34 C 1.09755 0.62499 0.82639
 N35 N 1.10758 0.60324 0.81338
 C36 C 1.12941 0.59426 0.82705
 H37 H 1.18222 0.57905 0.86146
 H38 H 1.18115 0.64056 0.92055
 H39 H 1.14011 0.68050 0.91936
 H40 H 1.07960 0.67788 0.85920
 H41 H 1.08047 0.63677 0.81986
 H42 H 1.14194 0.57752 0.82112
 C43 C 0.65162 -0.11114 0.12995
 C44 C 0.63223 -0.11044 0.15028
 C45 C 0.61213 -0.12961 0.15090
 C46 C 0.61112 -0.14970 0.13125
 C47 C 0.63024 -0.15036 0.11123
 C48 C 0.65060 -0.13094 0.11054
 C49 C 0.67422 -0.09601 0.12511
 N50 N 0.68692 -0.10616 0.10324
 C51 C 0.67253 -0.12751 0.09417
 C52 C 0.62522 -0.17275 0.09588
 N53 N 0.60354 -0.18572 0.10613
 C54 C 0.59472 -0.17168 0.12774
 C55 C 0.59705 -0.12493 0.17345
 N56 N 0.60745 -0.10339 0.18651
 C57 C 0.62896 -0.09435 0.17248
 H58 H 0.68117 -0.07919 0.13698
 H59 H 0.67792 -0.14002 0.07728
 H60 H 0.63691 -0.17942 0.07887
 H61 H 0.57805 -0.17736 0.14040
 H62 H 0.58007 -0.13668 0.18017
 H63 H 0.64166 -0.07771 0.17834
 C64 C -0.15243 1.11736 -0.36849
 C65 C -0.13281 1.11704 -0.34831
 C66 C -0.11295 1.13646 -0.34788
 C67 C -0.11240 1.15642 -0.36768
 C68 C -0.13177 1.15670 -0.38757
 C69 C -0.15191 1.13705 -0.38800
 C70 C -0.17480 1.10181 -0.37315
 N71 N -0.18786 1.11160 -0.39500
 C72 C -0.17393 1.13314 -0.40425
 C73 C -0.12706 1.17888 -0.40326
 N74 N -0.10529 1.19208 -0.39338
 C75 C -0.09615 1.17842 -0.37164
 C76 C -0.09750 1.13197 -0.32545
 N77 N -0.10749 1.11031 -0.31232
 C78 C -0.12906 1.10102 -0.32617
 H79 H -0.18132 1.08492 -0.36118
 H80 H -0.17966 1.14542 -0.42121
 H81 H -0.13892 1.18518 -0.42033
 H82 H -0.07928 1.18432 -0.35926
 H83 H -0.08054 1.14388 -0.31889
 H84 H -0.14146 1.08420 -0.32026
 C85 C 0.64192 0.60316 0.62395
 C86 C 0.62225 0.60334 0.64398
 C87 C 0.60295 0.62337 0.64438
 C88 C 0.60281 0.64323 0.62449
 C89 C 0.62228 0.64308 0.60478
 C90 C 0.64180 0.62277 0.60434
 C91 C 0.66455 0.58774 0.62012
 N92 N 0.67784 0.59730 0.59846
 C93 C 0.66407 0.61864 0.58859
 C94 C 0.61891 0.66603 0.58984
 N95 N 0.59760 0.67990 0.59974
 C96 C 0.58750 0.66598 0.62083
 C97 C 0.58827 0.62012 0.66746
 N98 N 0.59797 0.59842 0.68076
 C99 C 0.61865 0.58793 0.66653
 H100 H 0.67124 0.57124 0.63256
 H101 H 0.67049 0.63099 0.57197
 H102 H 0.63140 0.67241 0.57330
 H103 H 0.57099 0.67249 0.63335
 H104 H 0.57220 0.63299 0.67445
 H105 H 0.63097 0.57114 0.67281
 C106 C 0.85783 0.39485 0.12499
 C107 C 0.87946 0.39700 0.14296
 C108 C 0.89837 0.37660 0.14442
 C109 C 0.89617 0.35406 0.12775
 C110 C 0.87459 0.35174 0.11049
 C111 C 0.85533 0.37221 0.10911
 C112 C 0.83555 0.41065 0.12024
 N113 N 0.81963 0.39797 0.10204
 C114 C 0.83162 0.37443 0.09520
 C115 C 0.87652 0.32711 0.09817
 N116 N 0.89908 0.31462 0.10718
 C117 C 0.91122 0.33097 0.12532
 C118 C 0.91492 0.38217 0.16575
 N119 N 0.90662 0.40543 0.17724
 C120 C 0.88515 0.41485 0.16329
 H121 H 0.83094 0.42957 0.12989
 H122 H 0.82351 0.35975 0.08138
 H123 H 0.86256 0.31895 0.08365
 H124 H 0.92937 0.32622 0.13633
 H125 H 0.93081 0.36942 0.17336
 H126 H 0.87329 0.43221 0.16883
 C127 C 0.35320 0.10702 0.87420
 C128 C 0.37300 0.10546 0.85435
 C129 C 0.39330 0.12440 0.85346
 C130 C 0.39389 0.14532 0.87225
 C131 C 0.37434 0.14684 0.89186
 C132 C 0.35374 0.12769 0.89270
 C133 C 0.33049 0.09210 0.87910
 N134 N 0.31700 0.10347 0.89984
 C135 C 0.33109 0.12528 0.90827
 C136 C 0.37931 0.16966 0.90661
 N137 N 0.40116 0.18211 0.89620
 C138 C 0.41017 0.16745 0.87515
 C139 C 0.40882 0.11872 0.83139
 N140 N 0.39819 0.09705 0.81876
 C141 C 0.37627 0.08881 0.83261
 H142 H 0.32386 0.07476 0.86780
 H143 H 0.32513 0.13866 0.92429
 H144 H 0.36743 0.17711 0.92315
 H145 H 0.42711 0.17272 0.86265
 H146 H 0.42594 0.13012 0.82445
 H147 H 0.36333 0.07230 0.82693
 C148 C 0.14696 0.89397 0.37484
 C149 C 0.12810 0.89406 0.35402
 C150 C 0.10585 0.87757 0.35533
 C151 C 0.10244 0.86040 0.37725
 C152 C 0.12093 0.86042 0.39800
 C153 C 0.14330 0.87757 0.39689
 C154 C 0.17127 0.90663 0.37789
 N155 N 0.18242 0.89860 0.40140
 C156 C 0.16540 0.88088 0.41325
 C157 C 0.11398 0.83980 0.41503
 N158 N 0.09206 0.82716 0.40481
 C159 C 0.08478 0.83976 0.38185
 C160 C 0.09149 0.88113 0.33203
 N161 N 0.10459 0.89933 0.31666
 C162 C 0.12710 0.90724 0.32984
 H163 H 0.18033 0.92041 0.36380
 H164 H 0.16922 0.87047 0.43189
 H165 H 0.12516 0.83326 0.43245
 H166 H 0.06876 0.83336 0.36862
 H167 H 0.07312 0.87093 0.32647
 H168 H 0.14166 0.92150 0.32236
 Zn169 Zn 0.03194 0.98232 0.00781
 Zn170 Zn -0.02017 0.97942 -0.02232
 Zn171 Zn -0.01732 1.00712 0.03073
 Zn172 Zn 0.00940 1.03197 -0.01632
 O173 O 0.00091 1.00017 -0.00012
 O174 O 0.03302 0.94978 -0.00689
 O175 O -0.05261 0.97167 -0.00803
 O176 O -0.00042 0.99492 0.05996
 O177 O -0.00488 0.94747 -0.03010
 O178 O 0.03668 0.97733 0.04297
 O179 O -0.04971 0.99226 0.03113
 O180 O -0.00222 1.06080 0.00181
 O181 O -0.02678 0.99582 -0.05375
 O182 O -0.02306 1.04212 0.03614
 O183 O -0.00501 1.03441 -0.04903
 O184 O 0.04479 1.03667 -0.02070
 O185 O 0.06144 0.99912 -0.00382
 C186 C 0.01716 0.93719 -0.02229
 C187 C -0.06265 0.97815 0.01443
 C188 C 0.02194 0.98304 0.06285
 C189 C -0.01586 1.06271 0.02313
 C190 C -0.01956 1.01858 -0.06272
 C191 C 0.06461 1.02163 -0.01519
 Zn192 Zn 0.49179 -0.03219 0.48334
 Zn193 Zn 0.51900 -0.00987 0.53162
 Zn194 Zn 0.52044 0.02063 0.48009
 Zn195 Zn 0.46880 0.01537 0.51093
 O196 O 0.50004 -0.00144 0.50145
 O197 O 0.50314 -0.06192 0.50011
 O198 O 0.55129 0.00535 0.53234
 O199 O 0.52764 0.00587 0.44792
 O200 O 0.52484 -0.04517 0.53507
 O201 O 0.50648 -0.03312 0.45087
 O202 O 0.55264 0.02872 0.49470
 O203 O 0.46641 0.04839 0.49701
 O204 O 0.50273 0.00087 0.56180
 O205 O 0.50402 0.05215 0.47358
 O206 O 0.46524 0.01914 0.54633
 O207 O 0.43922 -0.00200 0.49987
 O208 O 0.45658 -0.03651 0.47802
 C209 C 0.51710 -0.06502 0.52115
 C210 C 0.56338 0.02104 0.51646
 C211 C 0.52088 -0.01662 0.43798
 C212 C 0.48178 0.06165 0.48168
 C213 C 0.48046 0.01264 0.56565
 C214 C 0.43647 -0.02308 0.48590
 Zn215 Zn 1.01610 0.51523 0.46746
 Zn216 Zn 1.02027 0.48296 0.51821
 Zn217 Zn 0.98948 0.53443 0.51725
 Zn218 Zn 0.96811 0.48662 0.48833
 O219 O 0.99855 0.50477 0.49783
 O220 O 1.04928 0.50143 0.46565
 O221 O 1.02770 0.49684 0.55073
 O222 O 1.00025 0.56519 0.50212
 O223 O 1.05210 0.47681 0.50252
 O224 O 1.01966 0.55091 0.46491
 O225 O 1.00403 0.53446 0.54977
 O226 O 0.93796 0.50288 0.49945
 O227 O 1.00552 0.45058 0.52440
 O228 O 0.95407 0.53744 0.52232
 O229 O 0.96709 0.45363 0.50218
 O230 O 0.96474 0.48221 0.45297
 O231 O 0.99960 0.50471 0.43727
 C232 C 1.06215 0.48555 0.48087
 C233 C 1.01964 0.51835 0.56176
 C234 C 1.01255 0.56980 0.48041
 C235 C 0.93446 0.52353 0.51393
 C236 C 0.98331 0.44058 0.51684
 C237 C 0.97872 0.49062 0.43354
 Zn238 Zn 0.48572 0.49034 0.96894
 Zn239 Zn 0.53339 0.51783 0.99230
 Zn240 Zn 0.48082 0.52007 1.02113
 Zn241 Zn 0.51160 0.46834 1.01782
 O242 O 0.50283 0.49919 1.00009
 O243 O 0.50294 0.50198 0.93979
 O244 O 0.53365 0.55041 1.00684
 O245 O 0.44886 0.52643 1.00550
 O246 O 0.53792 0.52321 0.95714
 O247 O 0.45269 0.50432 0.96716
 O248 O 0.49500 0.55258 1.02855
 O249 O 0.49727 0.46703 1.05045
 O250 O 0.56325 0.50159 1.00425
 O251 O 0.47374 0.50474 1.05300
 O252 O 0.54706 0.46442 1.02239
 O253 O 0.50023 0.43853 1.00122
 O254 O 0.48170 0.45493 0.96444
 C255 C 0.52419 0.51571 0.93709
 C256 C 0.51712 0.56303 1.02143
 C257 C 0.43930 0.51895 0.98311
 C258 C 0.48181 0.48277 1.06314
 C259 C 0.56668 0.47946 1.01637
 C260 C 0.48813 0.43519 0.97912
 C261 C 1.23928 0.42190 0.42172
 N262 N 1.25124 0.40045 0.43354
 N263 N 1.27436 0.39080 0.42418
 C264 C 1.28643 0.40225 0.40264
 N265 N 1.27447 0.42382 0.39096
 N266 N 1.25133 0.43342 0.40029
 C267 C 1.21344 0.43219 0.43152
 N268 N 1.20071 0.45241 0.41842
 N269 N 1.17698 0.46139 0.42685
 C270 C 1.16513 0.45053 0.44875
 N271 N 1.17791 0.43038 0.46195
 N272 N 1.20163 0.42135 0.45347
 C273 C 1.13866 0.46006 0.45757
 N274 N 1.12708 0.45002 0.48002
 N275 N 1.10280 0.45832 0.48762
 C276 C 1.08921 0.47690 0.47302
 N277 N 1.10083 0.48697 0.45062
 N278 N 1.12511 0.47873 0.44306
 C279 C 0.26064 0.57888 0.92384
 N280 N 0.24801 0.59992 0.93569
 N281 N 0.22456 0.60882 0.92628
 C282 C 0.21283 0.59700 0.90469
 N283 N 0.22546 0.57584 0.89300
 N284 N 0.24891 0.56699 0.90236
 C285 C 0.28681 0.56939 0.93366
 N286 N 0.30025 0.54985 0.92028
 N287 N 0.32425 0.54154 0.92872
 C288 C 0.33568 0.55239 0.95090
 N289 N 0.32220 0.57186 0.96438
 N290 N 0.29820 0.58024 0.95588
 C291 C 0.36240 0.54347 0.95972
 N292 N 0.37349 0.55296 0.98271
 N293 N 0.39793 0.54504 0.99034
 C294 C 0.41216 0.52742 0.97520
 N295 N 0.40104 0.51794 0.95225
 N296 N 0.37661 0.52578 0.94468
 C297 C -0.24187 0.92024 0.07290
 N298 N -0.25510 0.89951 0.06117
 N299 N -0.27847 0.89098 0.07097
 C300 C -0.28953 0.90289 0.09284
 N301 N -0.27631 0.92375 0.10441
 N302 N -0.25293 0.93222 0.09466
 C303 C -0.21569 0.92924 0.06280
 N304 N -0.20180 0.94850 0.07612
 N305 N -0.17776 0.95634 0.06757
 C306 C -0.16669 0.94532 0.04533
 N307 N -0.18062 0.92613 0.03187
 N308 N -0.20469 0.91821 0.04048
 C309 C -0.13984 0.95381 0.03663
 N310 N -0.12875 0.94450 0.01358
 N311 N -0.10419 0.95225 0.00623
 C312 C -0.08986 0.96949 0.02176
 N313 N -0.10101 0.97874 0.04474
 N314 N -0.12551 0.97109 0.05201
 C315 C 0.74127 0.08351 0.57507
 N316 N 0.75388 0.10455 0.56328
 N317 N 0.77714 0.11364 0.57295
 C318 C 0.78868 0.10202 0.59475
 N319 N 0.77608 0.08086 0.60639
 N320 N 0.75283 0.07182 0.59675
 C321 C 0.71526 0.07382 0.56505
 N322 N 0.70220 0.05386 0.57810
 N323 N 0.67834 0.04535 0.56958
 C324 C 0.66663 0.05641 0.54765
 N325 N 0.67973 0.07630 0.53446
 N326 N 0.70362 0.08488 0.54304
 C327 C 0.64000 0.04717 0.53891
 N328 N 0.62817 0.05703 0.51642
 N329 N 0.60380 0.04868 0.50902
 C330 C 0.59040 0.03024 0.52391
 N331 N 0.60228 0.02042 0.54632
 N332 N 0.62661 0.02869 0.55366
 C333 C 0.42011 0.23886 0.42012
 N334 N 0.39825 0.25049 0.43145
 N335 N 0.38885 0.27381 0.42231
 C336 C 0.40091 0.28639 0.40141
 N337 N 0.42286 0.27473 0.39015
 N338 N 0.43229 0.25143 0.39934
 C339 C 0.43010 0.21287 0.42992
 N340 N 0.45256 0.20161 0.41936
 N341 N 0.46130 0.17783 0.42798
 C342 C 0.44785 0.16441 0.44743
 N343 N 0.42542 0.17570 0.45800
 N344 N 0.41673 0.19950 0.44943
 C345 C 0.45706 0.13792 0.45661
 N346 N 0.44238 0.12381 0.47462
 N347 N 0.45037 0.09959 0.48266
 C348 C 0.47337 0.08858 0.47306
 N349 N 0.48813 0.10272 0.45512
 N350 N 0.48010 0.12694 0.44702
 C351 C 0.92465 0.26257 0.57794
 N352 N 0.93645 0.25020 0.59913
 N353 N 0.92679 0.22707 0.60842
 C354 C 0.90497 0.21541 0.59685
 N355 N 0.89332 0.22777 0.57554
 N356 N 0.90295 0.25091 0.56631
 C357 C 0.93467 0.28847 0.56809
 N358 N 0.92137 0.30160 0.54829
 N359 N 0.92989 0.32541 0.53972
 C360 C 0.95206 0.33697 0.55055
 N361 N 0.96548 0.32379 0.57026
 N362 N 0.95691 0.29997 0.57890
 C363 C 0.96081 0.36359 0.54144
 N364 N 0.98366 0.37499 0.55106
 N365 N 0.99107 0.39942 0.54307
 C366 C 0.97584 0.41334 0.52525
 N367 N 0.95306 0.40190 0.51563
 N368 N 0.94571 0.37748 0.52353
 C369 C 0.07638 0.75816 -0.08073
 N370 N 0.09818 0.74684 -0.06888
 N371 N 0.10772 0.72336 -0.07738
 C372 C 0.09588 0.71027 -0.09815
 N373 N 0.07396 0.72158 -0.10992
 N374 N 0.06439 0.74507 -0.10137
 C375 C 0.06642 0.78441 -0.07168
 N376 N 0.04422 0.79569 -0.08285
 N377 N 0.03565 0.81978 -0.07488
 C378 C 0.04904 0.83346 -0.05549
 N379 N 0.07119 0.82213 -0.04432
 N380 N 0.07970 0.79806 -0.05224
 C381 C 0.04023 0.86027 -0.04689
 N382 N 0.05511 0.87425 -0.02890
 N383 N 0.04761 0.89869 -0.02116
 C384 C 0.02490 0.91010 -0.03103
 N385 N 0.00990 0.89612 -0.04899
 N386 N 0.01746 0.87164 -0.05682
 C387 C 0.57356 0.74297 1.07938
 N388 N 0.59499 0.75451 1.06723
 N389 N 0.60460 0.77792 1.07580
 C390 C 0.59320 0.79073 1.09695
 N391 N 0.57163 0.77921 1.10901
 N392 N 0.56198 0.75579 1.10038
 C393 C 0.56372 0.71671 1.07028
 N394 N 0.54180 0.70514 1.08160
 N395 N 0.53347 0.68098 1.07361
 C396 C 0.54684 0.66751 1.05409
 N397 N 0.56867 0.67914 1.04278
 N398 N 0.57693 0.70328 1.05069
 C399 C 0.53847 0.64055 1.04557
 N400 N 0.55374 0.62666 1.02788
 N401 N 0.54676 0.60204 1.02027
 C402 C 0.52419 0.59035 1.02997
 N403 N 0.50877 0.60424 1.04761
 N404 N 0.51583 0.62891 1.05533
 C405 C 0.42067 0.42308 1.24024
 N406 N 0.43171 0.40081 1.25142
 N407 N 0.42252 0.39127 1.27454
 C408 C 0.40189 0.40363 1.28734
 N409 N 0.39091 0.42598 1.27619
 N410 N 0.40014 0.43554 1.25308
 C411 C 0.43043 0.43309 1.21439
 N412 N 0.41985 0.45561 1.20322
 N413 N 0.42838 0.46424 1.17946
 C414 C 0.44776 0.45061 1.16601
 N415 N 0.45836 0.42815 1.17723
 N416 N 0.44988 0.41956 1.20097
 C417 C 0.45682 0.45952 1.13951
 N418 N 0.47489 0.44462 1.12565
 N419 N 0.48286 0.45219 1.10141
 C420 C 0.47313 0.47499 1.09010
 N421 N 0.45512 0.49001 1.10398
 N422 N 0.44708 0.48238 1.12825
 C423 C 0.58057 -0.07394 0.25941
 N424 N 0.56906 -0.09592 0.24816
 N425 N 0.57756 -0.10520 0.22467
 C426 C 0.59797 -0.09290 0.21153
 N427 N 0.60947 -0.07085 0.22275
 N428 N 0.60090 -0.06152 0.24625
 C429 C 0.57139 -0.06428 0.28563
 N430 N 0.58190 -0.04174 0.29684
 N431 N 0.57371 -0.03343 0.32086
 C432 C 0.55478 -0.04742 0.33454
 N433 N 0.54429 -0.06989 0.32328
 N434 N 0.55241 -0.07814 0.29928
 C435 C 0.54593 -0.03889 0.36126
 N436 N 0.52866 -0.05445 0.37533
 N437 N 0.52072 -0.04721 0.39970
 C438 C 0.52968 -0.02407 0.41093
 N439 N 0.54692 -0.00839 0.39686
 N440 N 0.55494 -0.01570 0.37246
 C441 C -0.07961 1.08050 -0.23986
 N442 N -0.06856 1.10284 -0.25079
 N443 N -0.07736 1.11228 -0.27415
 C444 C -0.09762 1.09977 -0.28745
 N445 N -0.10864 1.07737 -0.27653
 N446 N -0.09978 1.06789 -0.25318
 C447 C -0.07018 1.07048 -0.21383
 N448 N -0.08035 1.04754 -0.20322
 N449 N -0.07203 1.03878 -0.17940
 C450 C -0.05329 1.05268 -0.16530
 N451 N -0.04311 1.07557 -0.17594
 N452 N -0.05138 1.08429 -0.19976
 C453 C -0.04437 1.04345 -0.13880
 N454 N -0.02715 1.05859 -0.12411
 N455 N -0.01925 1.05057 -0.09993
 C456 C -0.02821 1.02706 -0.08954
 N457 N -0.04538 1.01183 -0.10425
 N458 N -0.05335 1.01990 -0.12844
 C459 C 1.07951 0.57344 0.74102
 N460 N 1.10046 0.56142 0.75370
 N461 N 1.10935 0.57083 0.77707
 C462 C 1.09760 0.59257 0.78861
 N463 N 1.07656 0.60446 0.77597
 N464 N 1.06771 0.59508 0.75262
 C465 C 1.07008 0.56380 0.71486
 N466 N 1.05019 0.57709 0.70182
 N467 N 1.04197 0.56900 0.67779
 C468 C 1.05328 0.54727 0.66587
 N469 N 1.07310 0.53384 0.67895
 N470 N 1.08138 0.54198 0.70302
 C471 C 1.04443 0.53908 0.63904
 N472 N 1.05464 0.51687 0.62693
 N473 N 1.04669 0.51000 0.60234
 C474 C 1.02834 0.52518 0.58902
 N475 N 1.01817 0.54731 0.60118
 N476 N 1.02603 0.55411 0.62572
 C477 C 0.75246 0.57220 0.57174
 N478 N 0.74524 0.56870 0.59767
 N479 N 0.72104 0.57629 0.60613
 C480 C 0.70334 0.58800 0.58903
 N481 N 0.71059 0.59155 0.56310
 N482 N 0.73466 0.58361 0.55455
 C483 C 0.77939 0.56453 0.56271
 N484 N 0.78429 0.55930 0.53650
 N485 N 0.80889 0.55261 0.52839
 C486 C 0.82952 0.55133 0.54616
 N487 N 0.82464 0.55671 0.57232
 N488 N 0.79998 0.56301 0.58048
 C489 C 0.85674 0.54445 0.53735
 N490 N 0.87833 0.55234 0.55196
 N491 N 0.90311 0.54600 0.54421
 C492 C 0.90717 0.53123 0.52175
 N493 N 0.88557 0.52321 0.50717
 N494 N 0.86078 0.52989 0.51473
 C495 C 0.74677 0.42352 1.07471
 N496 N 0.76205 0.43970 1.09044
 N497 N 0.78588 0.43139 1.09943
 C498 C 0.79544 0.40669 1.09278
 N499 N 0.78018 0.39067 1.07683
 N500 N 0.75626 0.39886 1.06811
 C501 C 0.72020 0.43219 1.06531
 N502 N 0.70222 0.41383 1.05626
 N503 N 0.67793 0.42147 1.04803
 C504 C 0.67084 0.44778 1.04826
 N505 N 0.68889 0.46619 1.05713
 N506 N 0.71310 0.45852 1.06565
 C507 C 0.64394 0.45603 1.03947
 N508 N 0.63871 0.48198 1.03297
 N509 N 0.61416 0.48940 1.02521
 C510 C 0.59393 0.47118 1.02396
 N511 N 0.59915 0.44525 1.03054
 N512 N 0.62375 0.43779 1.03799
 C513 C 0.24462 1.07869 -0.07139
 N514 N 0.25814 1.06363 -0.08955
 N515 N 0.28181 1.07171 -0.09892
 C516 C 0.29303 1.09502 -0.09025
 N517 N 0.27957 1.10993 -0.07183
 N518 N 0.25573 1.10200 -0.06271
 C519 C 0.21817 1.07014 -0.06174
 N520 N 0.20086 1.08819 -0.05089
 N521 N 0.17653 1.08054 -0.04288
 C522 C 0.16878 1.05451 -0.04512
 N523 N 0.18618 1.03642 -0.05573
 N524 N 0.21037 1.04413 -0.06405
 C525 C 0.14185 1.04610 -0.03671
 N526 N 0.13654 1.01985 -0.03174
 N527 N 0.11199 1.01212 -0.02453
 C528 C 0.09180 1.03032 -0.02236
 N529 N 0.09708 1.05657 -0.02742
 N530 N 0.12172 1.06434 -0.03431
 C531 C 0.25615 -0.07871 0.42876
 N532 N 0.24789 -0.07193 0.40379
 N533 N 0.22367 -0.07907 0.39503
 C534 C 0.20690 -0.09366 0.41074
 N535 N 0.21525 -0.10055 0.43574
 N536 N 0.23936 -0.09302 0.44467
 C537 C 0.28300 -0.07098 0.43802
 N538 N 0.28822 -0.06723 0.46444
 N539 N 0.31262 -0.05974 0.47257
 C540 C 0.33272 -0.05617 0.45458
 N541 N 0.32752 -0.06017 0.42823
 N542 N 0.30305 -0.06723 0.42008
 C543 C 0.35965 -0.04805 0.46327
 N544 N 0.38140 -0.05452 0.44826
 N545 N 0.40590 -0.04685 0.45574
 C546 C 0.40949 -0.03203 0.47825
 N547 N 0.38773 -0.02541 0.49322
 N548 N 0.36324 -0.03346 0.48596
 C549 C 0.57206 -0.24661 0.57447
 N550 N 0.59524 -0.25730 0.56499
 N551 N 0.60333 -0.28154 0.57288
 C552 C 0.58879 -0.29580 0.59094
 N553 N 0.56561 -0.28499 0.60046
 N554 N 0.55728 -0.26094 0.59220
 C555 C 0.56353 -0.21970 0.56620
 N556 N 0.53708 -0.21312 0.56518
 N557 N 0.52944 -0.18855 0.55778
 C558 C 0.54801 -0.16960 0.55165
 N559 N 0.57445 -0.17614 0.55288
 N560 N 0.58207 -0.20082 0.55981
 C561 C 0.53973 -0.14244 0.54397
 N562 N 0.55569 -0.12110 0.54964
 N563 N 0.54826 -0.09637 0.54267
 C564 C 0.52483 -0.09217 0.52939
 N565 N 0.50895 -0.11353 0.52354
 N566 N 0.51616 -0.13822 0.53093
 C567 C 1.06252 0.75371 0.43027
 N568 N 1.07725 0.76928 0.44713
 N569 N 1.08644 0.79310 0.43915
 C570 C 1.08098 0.80232 0.41414
 N571 N 1.06595 0.78687 0.39747
 N572 N 1.05700 0.76298 0.40534
 C573 C 1.05371 0.72678 0.43823
 N574 N 1.04605 0.70874 0.41934
 N575 N 1.03892 0.68393 0.42623
 C576 C 1.03891 0.67633 0.45229
 N577 N 1.04632 0.69443 0.47125
 N578 N 1.05375 0.71918 0.46433
 C579 C 1.03161 0.64877 0.45965
 N580 N 1.02501 0.64250 0.48523
 N581 N 1.01863 0.61737 0.49181
 C582 C 1.01892 0.59759 0.47310
 N583 N 1.02561 0.60386 0.44755
 N584 N 1.03169 0.62902 0.44092
 C585 C -0.07478 1.24074 0.08372
 N586 N -0.05892 1.25674 0.09902
 N587 N -0.06755 1.28081 0.10691
 C588 C -0.09219 1.28995 0.09943
 N589 N -0.10791 1.27393 0.08392
 N590 N -0.09946 1.24971 0.07641
 C591 C -0.06552 1.21414 0.07522
 N592 N -0.08350 1.19425 0.07037
 N593 N -0.07520 1.17004 0.06262
 C594 C -0.04867 1.16499 0.05900
 N595 N -0.03068 1.18493 0.06365
 N596 N -0.03895 1.20903 0.07183
 C597 C -0.03973 1.13842 0.05009
 N598 N -0.01685 1.13555 0.03561
 N599 N -0.00921 1.11142 0.02693
 C600 C -0.02395 1.08928 0.03281
 N601 N -0.04666 1.09214 0.04752
 N602 N -0.05453 1.11631 0.05581
 C603 C 0.43151 0.25532 0.92160
 N604 N 0.41636 0.24007 0.93825
 N605 N 0.40666 0.21651 0.93012
 C606 C 0.41202 0.20721 0.90514
 N607 N 0.42739 0.22236 0.88858
 N608 N 0.43683 0.24606 0.89662
 C609 C 0.44142 0.28169 0.93025
 N610 N 0.44973 0.30002 0.91197
 N611 N 0.45794 0.32426 0.91973
 C612 C 0.45842 0.33093 0.94606
 N613 N 0.45035 0.31251 0.96436
 N614 N 0.44185 0.28837 0.95658
 C615 C 0.46687 0.35785 0.95455
 N616 N 0.47358 0.36277 0.98044
 N617 N 0.48074 0.38735 0.98820
 C618 C 0.48116 0.40794 0.97041
 N619 N 0.47440 0.40302 0.94454
 N620 N 0.46753 0.37839 0.93672
 C621 C 0.57492 0.57278 0.75612
 N622 N 0.58527 0.55513 0.73817
 N623 N 0.59259 0.56335 0.71389
 C624 C 0.58941 0.58941 0.70656
 N625 N 0.57878 0.60699 0.72442
 N626 N 0.57183 0.59885 0.74883
 C627 C 0.56761 0.56394 0.78312
 N628 N 0.56693 0.58176 0.80366
 N629 N 0.56067 0.57371 0.82828
 C630 C 0.55452 0.54763 0.83316
 N631 N 0.55501 0.52984 0.81258
 N632 N 0.56165 0.53781 0.78803
 C633 C 0.54720 0.53893 0.86020
 N634 N 0.53186 0.51673 0.86390
 N635 N 0.52460 0.50926 0.88844
 C636 C 0.53278 0.52348 0.91015
 N637 N 0.54836 0.54551 0.90646
 N638 N 0.55529 0.55320 0.88191
 C639 C 0.42411 0.06647 0.74608
 N640 N 0.44086 0.08139 0.76154
 N641 N 0.43261 0.09108 0.78499
 C642 C 0.40739 0.08596 0.79394
 N643 N 0.39074 0.07080 0.77859
 N644 N 0.39891 0.06135 0.75502
 C645 C 0.43275 0.05679 0.71972
 N646 N 0.41433 0.04861 0.70139
 N647 N 0.42201 0.04073 0.67711
 C648 C 0.44840 0.04046 0.67036
 N649 N 0.46685 0.04838 0.68878
 N650 N 0.45915 0.05654 0.71298
 C651 C 0.45671 0.03250 0.64334
 N652 N 0.48270 0.02618 0.63805
 N653 N 0.49024 0.01947 0.61336
 C654 C 0.47210 0.01914 0.59303
 N655 N 0.44614 0.02551 0.59832
 N656 N 0.43855 0.03193 0.62305
 C657 C 0.08025 0.92579 0.24181
 N658 N 0.06260 0.91354 0.25846
 N659 N 0.07046 0.90492 0.28247
 C660 C 0.09620 0.90846 0.29078
 N661 N 0.11381 0.92085 0.27417
 N662 N 0.10601 0.92923 0.25006
 C663 C 0.07164 0.93503 0.21528
 N664 N 0.09004 0.94155 0.19637
 N665 N 0.08221 0.94960 0.17216
 C666 C 0.05570 0.95168 0.16610
 N667 N 0.03730 0.94533 0.18507
 N668 N 0.04513 0.93703 0.20919
 C669 C 0.04705 0.96031 0.13938
 N670 N 0.02122 0.96783 0.13486
 N671 N 0.01329 0.97537 0.11052
 C672 C 0.03085 0.97543 0.08978
 N673 N 0.05667 0.96785 0.09429
 N674 N 0.06466 0.96056 0.11868
 C675 C 0.93116 0.43383 0.25130
 N676 N 0.93461 0.40766 0.24459
 N677 N 0.92734 0.39876 0.22053
 C678 C 0.91603 0.41562 0.20238
 N679 N 0.91256 0.44184 0.20907
 N680 N 0.92019 0.45083 0.23305
 C681 C 0.93822 0.44311 0.27827
 N682 N 0.94370 0.46936 0.28321
 N683 N 0.95004 0.47750 0.30786
 C684 C 0.95070 0.45973 0.32847
 N685 N 0.94504 0.43356 0.32352
 N686 N 0.93910 0.42537 0.29885
 C687 C 0.95739 0.46844 0.35572
 N688 N 0.94907 0.45381 0.37704
 N689 N 0.95550 0.46121 0.40184
 C690 C 0.97081 0.48331 0.40621
 N691 N 0.97923 0.49793 0.38489
 N692 N 0.97246 0.49073 0.36007
   
