data_POSCAR
  _audit_creation_date              2014-09-24
  _audit_creation_method            'ToBaCCo'
  _symmetry_space_group_name_H-M    'P1'
  _symmetry_Int_Tables_number       1
  _symmetry_cell_setting            triclinic
  loop_
  _symmetry_equiv_pos_as_xyz
 x,y,z
_cell_length_a 53.0074
_cell_length_b 27.7183
_cell_length_c 15.5652
_cell_angle_alpha 90.006500
_cell_angle_beta 89.990000
_cell_angle_gamma 89.998700
loop_
  _atom_site_label
  _atom_site_type_symbol
  _atom_site_fract_x
  _atom_site_fract_y
  _atom_site_fract_z
C1 C 0.72912 0.26656 0.54735
 C2 C 0.72919 0.26610 0.45669
 C3 C 0.75040 0.24932 0.41215
 C4 C 0.77161 0.23291 0.45720
 C5 C 0.77155 0.23332 0.54807
 C6 C 0.75031 0.25015 0.59257
 H7 H 0.75026 0.25047 0.66233
 H8 H 0.75035 0.24908 0.34242
 C9 C 0.22924 0.76628 0.54795
 C10 C 0.22912 0.76636 0.45742
 C11 C 0.25020 0.74962 0.41219
 C12 C 0.27142 0.73281 0.45665
 C13 C 0.27157 0.73274 0.54735
 C14 C 0.25045 0.74949 0.59256
 H15 H 0.25046 0.74951 0.66228
 H16 H 0.25010 0.74969 0.34250
 C17 C 0.27047 0.26640 -0.54575
 C18 C 0.27048 0.26607 -0.45524
 C19 C 0.24931 0.24939 -0.41036
 C20 C 0.22805 0.23296 -0.45518
 C21 C 0.22805 0.23328 -0.54607
 C22 C 0.24928 0.25001 -0.59076
 H23 H 0.24935 0.25030 -0.66048
 H24 H 0.24943 0.24923 -0.34064
 C25 C -0.22959 0.76648 -0.54579
 C26 C -0.22947 0.76605 -0.45528
 C27 C -0.25054 0.74903 -0.41035
 C28 C -0.27177 0.73238 -0.45512
 C29 C -0.27189 0.73281 -0.54601
 C30 C -0.25076 0.74989 -0.59075
 H31 H -0.25073 0.75029 -0.66047
 H32 H -0.25038 0.74877 -0.34063
 N33 N -0.02676 1.05284 -0.15124
 N34 N -0.04630 1.05809 -0.20294
 N35 N 0.02638 1.08641 -0.09189
 N36 N 0.04595 1.11542 -0.10156
 N37 N 0.02635 1.05282 -0.15144
 N38 N 0.04587 1.05804 -0.20331
 N39 N -0.02675 1.08641 -0.09167
 N40 N -0.04630 1.11545 -0.10113
 C41 C -0.05816 1.09732 -0.17089
 C42 C 0.05778 1.09726 -0.17142
 N43 N 0.02639 1.05302 0.15282
 N44 N 0.04593 1.05833 0.20453
 N45 N -0.02675 1.08651 0.09337
 N46 N -0.04632 1.11552 0.10298
 N47 N -0.02670 1.05300 0.15303
 N48 N -0.04622 1.05826 0.20491
 N49 N 0.02638 1.08652 0.09315
 N50 N 0.04593 1.11558 0.10255
 Mn51 Mn -0.00018 1.08707 0.00074
 C52 C 0.05778 1.09753 0.17238
 C53 C -0.05813 1.09744 0.17292
 N54 N 0.02631 0.94895 -0.15125
 N55 N 0.04584 0.94364 -0.20306
 N56 N -0.02679 0.91545 -0.09141
 N57 N -0.04629 0.88629 -0.10107
 N58 N -0.02679 0.94896 -0.15109
 N59 N -0.04627 0.94354 -0.20303
 N60 N 0.02634 0.91546 -0.09155
 N61 N 0.04588 0.88642 -0.10104
 Mn62 Mn -0.00022 1.00089 -0.15230
 C63 C 0.05771 0.90445 -0.17095
 C64 C -0.05813 0.90428 -0.17103
 N65 N -0.02667 0.94915 0.15321
 N66 N -0.04619 0.94395 0.20502
 N67 N 0.02643 0.91557 0.09349
 N68 N 0.04594 0.88644 0.10325
 N69 N 0.02643 0.94916 0.15303
 N70 N 0.04591 0.94383 0.20498
 N71 N -0.02670 0.91558 0.09363
 N72 N -0.04626 0.88659 0.10321
 Mn73 Mn -0.00014 1.00108 0.15406
 Mn74 Mn -0.00018 0.91491 0.00104
 Cl75 Cl -0.00018 1.00099 0.00088
 C76 C -0.05808 0.90474 0.17305
 C77 C 0.05777 0.90453 0.17313
 N78 N 0.47366 0.41363 -0.09434
 N79 N 0.45413 0.38456 -0.10381
 N80 N 0.52676 0.44715 -0.15419
 N81 N 0.54633 0.44196 -0.20588
 N82 N 0.52680 0.41363 -0.09453
 N83 N 0.54640 0.38469 -0.10396
 N84 N 0.47366 0.44714 -0.15400
 N85 N 0.45413 0.44183 -0.20576
 C86 C 0.44228 0.40261 -0.17367
 C87 C 0.55825 0.40280 -0.17380
 N88 N 0.52674 0.58457 -0.09469
 N89 N 0.54631 0.61355 -0.10420
 N90 N 0.47361 0.55102 -0.15408
 N91 N 0.45406 0.55629 -0.20580
 N92 N 0.47361 0.58458 -0.09448
 N93 N 0.45406 0.61363 -0.10397
 N94 N 0.52671 0.55102 -0.15429
 N95 N 0.54625 0.55621 -0.20605
 Mn96 Mn 0.50018 0.49908 -0.15518
 C97 C 0.55815 0.59540 -0.17402
 C98 C 0.44218 0.59553 -0.17376
 N99 N 0.52679 0.41368 0.09051
 N100 N 0.54628 0.38452 0.10020
 N101 N 0.47371 0.44728 0.15030
 N102 N 0.45419 0.44209 0.20218
 N103 N 0.47366 0.41372 0.09072
 N104 N 0.45408 0.38473 0.10038
 N105 N 0.52680 0.44725 0.15008
 N106 N 0.54628 0.44189 0.20199
 Mn107 Mn 0.50022 0.41306 -0.00192
 C108 C 0.55811 0.40260 0.17007
 C109 C 0.44226 0.40289 0.17027
 N110 N 0.47372 0.58464 0.09056
 N111 N 0.45419 0.61371 0.10022
 N112 N 0.52686 0.55111 0.14996
 N113 N 0.54636 0.55649 0.20184
 N114 N 0.52685 0.58464 0.09033
 N115 N 0.54636 0.61378 0.09996
 N116 N 0.47377 0.55113 0.15021
 N117 N 0.45428 0.55643 0.20215
 Mn118 Mn 0.50023 0.58521 -0.00208
 Mn119 Mn 0.50029 0.49919 0.15117
 Cl120 Cl 0.50023 0.49914 -0.00200
 C121 C 0.44240 0.59564 0.17018
 C122 C 0.55821 0.59576 0.16985
 C123 C 0.33457 0.31683 0.33565
 C124 C 0.34053 0.29655 0.24617
 C125 C 0.36246 0.31377 0.21216
 C126 C 0.37626 0.34956 0.27099
 C127 C 0.37986 0.32260 0.35624
 C128 C 0.35795 0.30539 0.39020
 C129 C 0.33489 0.37186 0.32470
 C130 C 0.35680 0.38907 0.29067
 C131 C 0.31110 0.29840 0.37324
 C132 C 0.29226 0.28358 0.40766
 C133 C 0.39988 0.36818 0.23457
 C134 C 0.41926 0.38379 0.20504
 H135 H 0.32858 0.27097 0.21249
 H136 H 0.36930 0.30292 0.14930
 H137 H 0.39800 0.31761 0.38737
 H138 H 0.35734 0.28566 0.45046
 H139 H 0.31929 0.39526 0.34228
 H140 H 0.35997 0.42722 0.27909
 C141 C -0.16571 0.81779 0.33624
 C142 C -0.14241 0.80664 0.39136
 C143 C -0.12050 0.82413 0.35791
 C144 C -0.12404 0.85103 0.27259
 C145 C -0.14367 0.89031 0.29178
 C146 C -0.16559 0.87282 0.32530
 C147 C -0.15952 0.79756 0.24693
 C148 C -0.13759 0.81506 0.21343
 C149 C -0.18914 0.79906 0.37333
 C150 C -0.20792 0.78397 0.40758
 C151 C -0.10045 0.86990 0.23674
 C152 C -0.08108 0.88563 0.20758
 H153 H -0.14307 0.78692 0.45160
 H154 H -0.10240 0.81939 0.38945
 H155 H -0.14061 0.92849 0.28025
 H156 H -0.18130 0.89601 0.34251
 H157 H -0.17131 0.77183 0.21299
 H158 H -0.13059 0.80430 0.15073
 C159 C 0.66546 0.68318 0.33615
 C160 C 0.66881 0.66122 0.24637
 C161 C 0.64698 0.64375 0.21209
 C162 C 0.62395 0.64996 0.27099
 C163 C 0.62299 0.70411 0.29144
 C164 C 0.64482 0.72157 0.32574
 C165 C 0.65323 0.64314 0.39012
 C166 C 0.63142 0.62569 0.35588
 C167 C 0.68882 0.70182 0.37417
 C168 C 0.70756 0.71665 0.40925
 C169 C 0.60044 0.63103 0.23434
 C170 C 0.58114 0.61514 0.20472
 H171 H 0.68673 0.65958 0.21269
 H172 H 0.64619 0.62712 0.14899
 H173 H 0.60660 0.72673 0.28013
 H174 H 0.64712 0.75914 0.34384
 H175 H 0.66098 0.62979 0.45017
 H176 H 0.62050 0.59739 0.38659
 C177 C 0.16534 1.18418 0.33651
 C178 C 0.16855 1.16199 0.24687
 C179 C 0.14663 1.14466 0.21299
 C180 C 0.12370 1.15125 0.27217
 C181 C 0.12290 1.20545 0.29221
 C182 C 0.14480 1.22276 0.32610
 C183 C 0.15307 1.14438 0.39094
 C184 C 0.13118 1.12708 0.35712
 C185 C 0.18875 1.20263 0.37413
 C186 C 0.20750 1.21731 0.40912
 C187 C 0.10013 1.13249 0.23603
 C188 C 0.08076 1.11674 0.20681
 H189 H 0.18642 1.16009 0.21298
 H190 H 0.14573 1.12789 0.15003
 H191 H 0.10655 1.22819 0.28094
 H192 H 0.14723 1.26035 0.34390
 H193 H 0.16085 1.13109 0.45100
 H194 H 0.12021 1.09896 0.38816
 C195 C 0.66616 0.31640 -0.33713
 C196 C 0.65994 0.29593 -0.24801
 C197 C 0.63797 0.31327 -0.21444
 C198 C 0.62439 0.34936 -0.27333
 C199 C 0.62093 0.32266 -0.35891
 C200 C 0.64288 0.30533 -0.39242
 C201 C 0.66596 0.37141 -0.32569
 C202 C 0.64400 0.38873 -0.29212
 C203 C 0.68965 0.29785 -0.37434
 C204 C 0.70848 0.28293 -0.40874
 C205 C 0.60074 0.36809 -0.23740
 C206 C 0.58131 0.38374 -0.20824
 H207 H 0.67174 0.27016 -0.21423
 H208 H 0.63096 0.30232 -0.15188
 H209 H 0.60285 0.31792 -0.39058
 H210 H 0.64358 0.28576 -0.45283
 H211 H 0.68165 0.39470 -0.34262
 H212 H 0.64090 0.42688 -0.28027
 C213 C 0.16534 0.81717 -0.33371
 C214 C 0.15309 0.85662 -0.38899
 C215 C 0.13118 0.87413 -0.35562
 C216 C 0.12366 0.85049 -0.27022
 C217 C 0.14656 0.85746 -0.21108
 C218 C 0.16849 0.83992 -0.24450
 C219 C 0.14479 0.77865 -0.32262
 C220 C 0.12287 0.79617 -0.28918
 C221 C 0.18877 0.79845 -0.37077
 C222 C 0.20757 0.78349 -0.40513
 C223 C 0.10007 0.86943 -0.23448
 C224 C 0.08070 0.88525 -0.20541
 H225 H 0.16090 0.86953 -0.44927
 H226 H 0.12022 0.90204 -0.38726
 H227 H 0.14563 0.87463 -0.14846
 H228 H 0.18635 0.84205 -0.21057
 H229 H 0.14723 0.74095 -0.33965
 H230 H 0.10653 0.77348 -0.27753
 C231 C 0.33450 0.68278 -0.33718
 C232 C 0.34688 0.64353 -0.39261
 C233 C 0.36879 0.62606 -0.35911
 C234 C 0.37619 0.64952 -0.27341
 C235 C 0.35322 0.64228 -0.21463
 C236 C 0.33129 0.65977 -0.24818
 C237 C 0.35498 0.72138 -0.32550
 C238 C 0.37690 0.70390 -0.29193
 C239 C 0.31104 0.70147 -0.37437
 C240 C 0.29221 0.71640 -0.40875
 C241 C 0.39980 0.63059 -0.23748
 C242 C 0.41918 0.61477 -0.20830
 H243 H 0.33916 0.63072 -0.45308
 H244 H 0.37983 0.59829 -0.39086
 H245 H 0.35411 0.62496 -0.15215
 H246 H 0.31340 0.65746 -0.21447
 H247 H 0.35250 0.75910 -0.34224
 H248 H 0.39319 0.72665 -0.27990
 C249 C -0.16577 1.18412 -0.33448
 C250 C -0.16898 1.16155 -0.24514
 C251 C -0.14705 1.14416 -0.21142
 C252 C -0.12411 1.15108 -0.27042
 C253 C -0.12336 1.20536 -0.28974
 C254 C -0.14527 1.22274 -0.32348
 C255 C -0.15344 1.14459 -0.38939
 C256 C -0.13154 1.12723 -0.35573
 C257 C -0.18918 1.20263 -0.37198
 C258 C -0.20793 1.21734 -0.40698
 C259 C -0.10053 1.13226 -0.23444
 C260 C -0.08115 1.11650 -0.20531
 H261 H -0.18686 1.15945 -0.21135
 H262 H -0.14615 1.12714 -0.14868
 H263 H -0.10704 1.22813 -0.27810
 H264 H -0.14773 1.26039 -0.34077
 H265 H -0.16118 1.13151 -0.44964
 H266 H -0.12053 1.09928 -0.38710
 C267 C 0.66570 0.68221 -0.33798
 C268 C 0.66555 0.62718 -0.32712
 C269 C 0.64366 0.60973 -0.29333
 C270 C 0.62408 0.64904 -0.27380
 C271 C 0.62046 0.67599 -0.35902
 C272 C 0.64234 0.69344 -0.39275
 C273 C 0.65963 0.70242 -0.24855
 C274 C 0.63773 0.68496 -0.21477
 C275 C 0.68908 0.70088 -0.37549
 C276 C 0.70778 0.71589 -0.41040
 C277 C 0.60052 0.63021 -0.23774
 C278 C 0.58115 0.61450 -0.20852
 H279 H 0.68123 0.60396 -0.34457
 H280 H 0.64059 0.57155 -0.28180
 H281 H 0.60233 0.68080 -0.39031
 H282 H 0.64294 0.71319 -0.45297
 H283 H 0.67149 0.72810 -0.21474
 H284 H 0.63081 0.69570 -0.15196
 C285 C 0.16533 1.18352 -0.33751
 C286 C 0.15938 1.20399 -0.24817
 C287 C 0.13749 1.18674 -0.21392
 C288 C 0.12371 1.15074 -0.27242
 C289 C 0.14322 1.11128 -0.29190
 C290 C 0.16509 1.12852 -0.32615
 C291 C 0.14191 1.19472 -0.39204
 C292 C 0.12004 1.17748 -0.35785
 C293 C 0.18874 1.20196 -0.37548
 C294 C 0.20750 1.21674 -0.41051
 C295 C 0.10013 1.13207 -0.23582
 C296 C 0.08077 1.11641 -0.20623
 H297 H 0.17131 1.22971 -0.21474
 H298 H 0.13066 1.19770 -0.15112
 H299 H 0.14010 1.07315 -0.28000
 H300 H 0.18071 1.10516 -0.34362
 H301 H 0.14247 1.21431 -0.45244
 H302 H 0.10188 1.18231 -0.38893
 C303 C 0.33459 0.31608 -0.33700
 C304 C 0.34698 0.35542 -0.39215
 C305 C 0.36891 0.37270 -0.35861
 C306 C 0.37631 0.34896 -0.27318
 C307 C 0.37697 0.29463 -0.29221
 C308 C 0.35502 0.27734 -0.32582
 C309 C 0.33143 0.33882 -0.24777
 C310 C 0.35339 0.35612 -0.21418
 C311 C 0.31112 0.29764 -0.37419
 C312 C 0.29227 0.28294 -0.40853
 C313 C 0.39992 0.36769 -0.23727
 C314 C 0.41930 0.38342 -0.20812
 H315 H 0.33924 0.36844 -0.45245
 H316 H 0.37997 0.40052 -0.39014
 H317 H 0.39324 0.27178 -0.28048
 H318 H 0.35249 0.23968 -0.34292
 H319 H 0.31356 0.34111 -0.21395
 H320 H 0.35433 0.37325 -0.15153
 C321 C -0.16546 0.81676 -0.33657
 C322 C -0.16875 0.83897 -0.24696
 C323 C -0.14688 0.85647 -0.21294
 C324 C -0.12389 0.85003 -0.27190
 C325 C -0.13138 0.87410 -0.35697
 C326 C -0.15322 0.85662 -0.39094
 C327 C -0.14484 0.77834 -0.32593
 C328 C -0.12299 0.79582 -0.29189
 C329 C -0.18887 0.79808 -0.37418
 C330 C -0.20768 0.78318 -0.40862
 C331 C -0.10036 0.86899 -0.23546
 C332 C -0.08105 0.88489 -0.20590
 H333 H -0.18664 0.84077 -0.21319
 H334 H -0.14606 0.87327 -0.14999
 H335 H -0.12044 0.90228 -0.38797
 H336 H -0.16099 0.86983 -0.45107
 H337 H -0.14718 0.74073 -0.34371
 H338 H -0.10661 0.77319 -0.28048
 C339 C 0.33509 0.68226 0.33621
 C340 C 0.34095 0.70246 0.24663
 C341 C 0.36281 0.68511 0.21236
 C342 C 0.37663 0.64930 0.27112
 C343 C 0.35715 0.60989 0.29113
 C344 C 0.33530 0.62723 0.32540
 C345 C 0.35854 0.69365 0.39045
 C346 C 0.38037 0.67631 0.35624
 C347 C 0.31174 0.70079 0.37415
 C348 C 0.29302 0.71565 0.40912
 C349 C 0.40014 0.63056 0.23454
 C350 C 0.41946 0.61484 0.20496
 H351 H 0.32899 0.72807 0.21306
 H352 H 0.36959 0.69586 0.14939
 H353 H 0.36026 0.57172 0.27958
 H354 H 0.31970 0.60392 0.34324
 H355 H 0.35801 0.71342 0.45067
 H356 H 0.39856 0.68124 0.38710
 C357 C -0.16565 1.18349 0.33958
 C358 C -0.14219 1.19497 0.39372
 C359 C -0.12033 1.17779 0.35937
 C360 C -0.12404 1.15082 0.27418
 C361 C -0.13795 1.18660 0.21560
 C362 C -0.15984 1.20378 0.25001
 C363 C -0.16533 1.12846 0.32861
 C364 C -0.14346 1.11128 0.29419
 C365 C -0.18905 1.20188 0.37768
 C366 C -0.20781 1.21665 0.41269
 C367 C -0.10048 1.13222 0.23741
 C368 C -0.08112 1.11659 0.20773
 H369 H -0.14272 1.21469 0.45399
 H370 H -0.10214 1.18281 0.39018
 H371 H -0.13121 1.19744 0.15263
 H372 H -0.17185 1.22934 0.21655
 H373 H -0.18089 1.10504 0.34646
 H374 H -0.14029 1.07314 0.28254
 C375 C 0.66538 0.31596 0.33627
 C376 C 0.65310 0.35599 0.39014
 C377 C 0.63126 0.37325 0.35588
 C378 C 0.62383 0.34880 0.27110
 C379 C 0.62296 0.29468 0.29172
 C380 C 0.64481 0.27741 0.32605
 C381 C 0.66869 0.33782 0.24642
 C382 C 0.64683 0.35510 0.21211
 C383 C 0.68875 0.29756 0.37424
 C384 C 0.70751 0.28291 0.40921
 C385 C 0.60032 0.36753 0.23448
 C386 C 0.58102 0.38330 0.20488
 H387 H 0.66083 0.36946 0.45013
 H388 H 0.62028 0.40151 0.38649
 H389 H 0.60661 0.27195 0.28052
 H390 H 0.64719 0.23988 0.34429
 H391 H 0.68660 0.33954 0.21270
 H392 H 0.64600 0.37165 0.14895
 C393 C 0.16511 0.81732 0.33905
 C394 C 0.14170 0.80642 0.39383
 C395 C 0.11986 0.82387 0.35978
 C396 C 0.12355 0.85051 0.27425
 C397 C 0.13718 0.81431 0.21572
 C398 C 0.15904 0.79685 0.24981
 C399 C 0.16503 0.87232 0.32755
 C400 C 0.14318 0.88977 0.29345
 C401 C 0.18852 0.79866 0.37669
 C402 C 0.20733 0.78368 0.41103
 C403 C 0.10001 0.86939 0.23772
 C404 C 0.08070 0.88522 0.20808
 H405 H 0.14225 0.78688 0.45427
 H406 H 0.10170 0.81926 0.39104
 H407 H 0.13028 0.80337 0.15301
 H408 H 0.17087 0.77098 0.21633
 H409 H 0.18073 0.89553 0.34483
 H410 H 0.14017 0.92793 0.28149
   
