data_POSCAR
  _audit_creation_date              2014-09-24
  _audit_creation_method            'ToBaCCo'
  _symmetry_space_group_name_H-M    'P1'
  _symmetry_Int_Tables_number       1
  _symmetry_cell_setting            triclinic
  loop_
  _symmetry_equiv_pos_as_xyz
 x,y,z
_cell_length_a 36.8251
_cell_length_b 38.5127
_cell_length_c 34.8019
_cell_angle_alpha 91.852000
_cell_angle_beta 88.395100
_cell_angle_gamma 92.198500
loop_
  _atom_site_label
  _atom_site_type_symbol
  _atom_site_fract_x
  _atom_site_fract_y
  _atom_site_fract_z
C1 C 0.17493 0.19871 0.20878
 N2 N 0.16359 0.22838 0.19371
 C3 C 0.18219 0.24249 0.16332
 N4 N 0.21182 0.22671 0.14781
 C5 C 0.22303 0.19706 0.16302
 N6 N 0.20451 0.18314 0.19332
 C7 C -0.19795 0.80037 0.23060
 N8 N -0.18497 0.77036 0.21503
 C9 C -0.19995 0.75584 0.18273
 N10 N -0.22739 0.77166 0.16572
 C11 C -0.24020 0.80166 0.18138
 N12 N -0.22534 0.81598 0.21359
 C13 C -0.22172 0.21565 -0.26433
 N14 N -0.20858 0.24625 -0.24883
 C15 C -0.22666 0.26177 -0.21873
 N16 N -0.25724 0.24615 -0.20351
 C17 C -0.27029 0.21558 -0.21910
 N18 N -0.25229 0.20027 -0.24916
 C19 C 0.19735 0.80052 -0.25124
 N20 N 0.18517 0.76922 -0.23818
 C21 C 0.20479 0.75264 -0.21234
 N22 N 0.23616 0.76769 -0.19904
 C23 C 0.24828 0.79894 -0.21223
 N24 N 0.22872 0.81537 -0.23804
 C25 C 0.20964 1.19571 0.77872
 N26 N 0.19292 1.22322 0.79549
 C27 C 0.20481 1.23749 0.82915
 N28 N 0.23343 1.22396 0.84648
 C29 C 0.25034 1.19635 0.82972
 N30 N 0.23824 1.18205 0.79597
 C31 C 0.81259 0.80812 0.76886
 N32 N 0.82742 0.78031 0.78440
 C33 C 0.81168 0.76565 0.81593
 N34 N 0.78117 0.77905 0.83229
 C35 C 0.76620 0.80690 0.81679
 N36 N 0.78207 0.82160 0.78520
 C37 C 0.21351 0.77788 1.26296
 N38 N 0.19760 0.74828 1.24816
 C39 C 0.21277 0.73176 1.21705
 N40 N 0.24359 0.74530 1.20012
 C41 C 0.25965 0.77493 1.21494
 N42 N 0.24433 0.79143 1.24609
 C43 C 0.80886 1.20321 1.26257
 N44 N 0.82323 1.23311 1.24802
 C45 C 0.80595 1.24915 1.22004
 N46 N 0.77448 1.23498 1.20612
 C47 C 0.75997 1.20507 1.22064
 N48 N 0.77735 1.18900 1.24865
 O49 O 0.52192 0.95478 0.95195
 O50 O 0.46445 0.96511 1.08314
 O51 O 0.57576 0.99114 1.04368
 O52 O 0.45633 0.95278 0.96195
 O53 O 0.53324 0.96628 1.08096
 O54 O 0.47461 0.98209 0.91253
 O55 O 0.45549 0.94009 1.02834
 O56 O 0.57089 0.98131 0.97354
 C57 C 0.55550 0.95524 0.95693
 C58 C 0.45423 0.93896 1.06377
 C59 C 0.56562 0.96912 1.06858
 C60 C 0.45188 0.95932 0.92703
 O61 O 0.47954 1.03868 0.95244
 O62 O 0.53449 1.03261 1.08769
 O63 O 0.54670 1.04875 0.97015
 O64 O 0.42660 1.00297 1.04696
 O65 O 0.46656 1.03318 1.08054
 O66 O 0.53709 1.01378 0.92431
 O67 O 0.43117 1.01726 0.97946
 O68 O 0.55198 1.05675 1.03568
 Co69 Co 0.49953 0.99647 0.95457
 Co70 Co 0.49964 0.99936 1.07634
 Co71 Co 0.55673 1.01777 1.00598
 Co72 Co 0.44740 0.98020 1.00485
 O73 O 0.50240 0.99979 1.01291
 C74 C 0.44679 1.04098 0.96090
 C75 C 0.55069 1.05688 1.07105
 C76 C 0.55153 1.04154 0.93562
 C77 C 0.43512 1.02896 1.06825
 O78 O 0.03727 0.47822 0.04841
 O79 O 0.03251 0.53170 -0.08596
 O80 O -0.00016 0.42842 -0.04737
 O81 O 0.04831 0.54210 0.03202
 O82 O 0.03186 0.46665 -0.08024
 O83 O 0.01126 0.53333 0.07720
 O84 O 0.05761 0.54738 -0.03330
 O85 O 0.01461 0.43236 0.02033
 C86 C 0.03936 0.44690 0.03947
 C87 C 0.05805 0.54650 -0.06869
 C88 C 0.02702 0.43646 -0.06857
 C89 C 0.04032 0.54724 0.06635
 O90 O -0.05009 0.51933 0.04829
 O91 O -0.03921 0.46578 -0.08335
 O92 O -0.05252 0.45658 0.03781
 O93 O -0.01029 0.57138 -0.04221
 O94 O -0.03697 0.53163 -0.08025
 O95 O -0.02196 0.47371 0.08758
 O96 O -0.02179 0.56611 0.02755
 O97 O -0.06564 0.45639 -0.02893
 Co98 Co -0.00668 0.49775 0.04601
 Co99 Co -0.00294 0.49884 -0.07572
 Co100 Co -0.02389 0.44823 -0.00513
 Co101 Co 0.01661 0.55240 -0.00428
 O102 O -0.00286 0.50077 -0.01226
 C103 C -0.04931 0.55147 0.04358
 C104 C -0.06652 0.45546 -0.06442
 C105 C -0.04544 0.45184 0.07260
 C106 C -0.03318 0.56250 -0.06766
 O107 O 1.07267 0.04129 0.46403
 O108 O 0.92670 0.01440 0.53945
 O109 O 0.97692 0.02326 0.42716
 O110 O 1.03130 0.05940 0.55634
 O111 O 0.95179 0.04195 0.47957
 O112 O 1.08071 0.03765 0.53546
 O113 O 0.96939 0.05005 0.55105
 O114 O 1.04128 0.01182 0.42087
 C115 C 1.06143 0.03769 0.43057
 C116 C 0.93685 0.04190 0.55571
 C117 C 0.95873 0.04564 0.44492
 C118 C 1.06473 0.06046 0.55439
 O119 O 1.07629 -0.02852 0.53112
 O120 O 0.91571 -0.01575 0.47211
 O121 O 1.02634 -0.05305 0.44922
 O122 O 0.97428 -0.01828 0.57333
 O123 O 0.95417 -0.04340 0.52076
 O124 O 1.07727 -0.02631 0.45855
 O125 O 1.04078 -0.00720 0.57791
 O126 O 0.96329 -0.04273 0.45145
 Co127 Co 1.07030 0.00590 0.49735
 Co128 Co 0.95526 -0.00085 0.49877
 Co129 Co 1.00267 -0.01343 0.44253
 Co130 Co 1.00414 0.01945 0.55967
 O131 O 1.01038 0.00419 0.50130
 C132 C 1.06515 -0.02766 0.56567
 C133 C 0.92997 -0.03735 0.44727
 C134 C 1.05988 -0.05314 0.44828
 C135 C 0.95872 -0.04398 0.55624
 C136 C 1.07580 0.13008 0.32589
 C137 C 1.10557 0.15926 0.33181
 C138 C 1.12502 0.14650 0.29466
 C139 C 1.09555 0.11772 0.28825
 C140 C 1.09856 0.10547 0.34846
 C141 C 1.11802 0.09281 0.31129
 C142 C 1.12802 0.13424 0.35489
 C143 C 1.14766 0.12185 0.31730
 C144 C 1.14129 0.16781 0.26409
 C145 C 1.15631 0.18342 0.23833
 C146 C 1.08473 0.08178 0.37803
 C147 C 1.07396 0.06178 0.40209
 H148 H 1.04606 0.13315 0.32978
 H149 H 1.10061 0.18683 0.33988
 H150 H 1.08232 0.11119 0.26053
 H151 H 1.12303 0.06527 0.30314
 H152 H 1.14126 0.14074 0.38261
 H153 H 1.17740 0.11870 0.31349
 C154 C 0.89696 -0.12906 0.34684
 C155 C 0.86618 -0.15684 0.35410
 C156 C 0.84706 -0.14478 0.31849
 C157 C 0.87758 -0.11736 0.31083
 C158 C 0.87551 -0.10259 0.37147
 C159 C 0.85639 -0.09061 0.33584
 C160 C 0.84500 -0.13000 0.37925
 C161 C 0.82559 -0.11833 0.34311
 C162 C 0.83129 -0.16698 0.28780
 C163 C 0.81791 -0.18342 0.26139
 C164 C 0.89265 -0.07883 0.39988
 C165 C 0.90853 -0.05951 0.42215
 H166 H 0.92652 -0.13317 0.34867
 H167 H 0.87008 -0.18431 0.36123
 H168 H 0.89090 -0.11243 0.28241
 H169 H 0.85248 -0.06315 0.32864
 H170 H 0.83173 -0.13485 0.40770
 H171 H 0.79603 -0.11422 0.34124
 C172 C 0.88021 0.11932 0.65868
 C173 C 0.87696 0.15821 0.64994
 C174 C 0.83597 0.15487 0.65911
 C175 C 0.83896 0.11630 0.66818
 C176 C 0.87236 0.10978 0.61645
 C177 C 0.83137 0.10641 0.62561
 C178 C 0.86942 0.14834 0.60730
 C179 C 0.82803 0.14539 0.61688
 C180 C 0.81579 0.17883 0.68443
 C181 C 0.79892 0.19684 0.70694
 C182 C 0.89362 0.08469 0.59378
 C183 C 0.91249 0.06459 0.57602
 H184 H 0.90182 0.10828 0.67567
 H185 H 0.89548 0.17978 0.66016
 H186 H 0.82624 0.10338 0.69353
 H187 H 0.81288 0.08482 0.61539
 H188 H 0.88218 0.16119 0.58193
 H189 H 0.80639 0.15646 0.59996
 C190 C 1.09192 -0.11295 0.67245
 C191 C 1.10620 -0.14867 0.65832
 C192 C 1.14151 -0.14042 0.67981
 C193 C 1.12753 -0.10513 0.69434
 C194 C 1.10978 -0.09631 0.63675
 C195 C 1.14507 -0.08815 0.65827
 C196 C 1.12373 -0.13160 0.62220
 C197 C 1.15929 -0.12375 0.64410
 C198 C 1.16040 -0.16383 0.70412
 C199 C 1.17720 -0.18152 0.72474
 C200 C 1.09303 -0.07149 0.61236
 C201 C 1.07999 -0.05121 0.59156
 H202 H 1.06404 -0.10816 0.68384
 H203 H 1.09046 -0.17383 0.65860
 H204 H 1.12929 -0.09453 0.72430
 H205 H 1.16086 -0.06301 0.65804
 H206 H 1.12198 -0.14218 0.59223
 H207 H 1.18717 -0.12850 0.63266
 C208 C 0.33350 1.11658 1.07264
 C209 C 0.29942 1.10700 1.09779
 C210 C 0.30583 1.14075 1.12181
 C211 C 0.33944 1.15075 1.09688
 C212 C 0.35695 1.09777 1.10065
 C213 C 0.36341 1.13151 1.12464
 C214 C 0.32331 1.08786 1.12555
 C215 C 0.32933 1.12190 1.14973
 C216 C 0.27663 1.16332 1.13498
 C217 C 0.25179 1.18016 1.14739
 C218 C 0.38502 1.07329 1.08937
 C219 C 0.40792 1.05296 1.08004
 H220 H 0.33556 1.11404 1.04079
 H221 H 0.27279 1.09722 1.08683
 H222 H 0.34571 1.17686 1.08522
 H223 H 0.39006 1.14125 1.13560
 H224 H 0.31698 1.06177 1.13724
 H225 H 0.32733 1.12438 1.18159
 C226 C 0.36643 0.86108 0.88325
 C227 C 0.32757 0.87155 0.87398
 C228 C 0.33195 0.85396 0.83397
 C229 C 0.37043 0.84311 0.84293
 C230 C 0.38148 0.89527 0.86639
 C231 C 0.38599 0.87772 0.82637
 C232 C 0.34299 0.90602 0.85738
 C233 C 0.34701 0.88815 0.81709
 C234 C 0.30304 0.83208 0.81669
 C235 C 0.27789 0.81561 0.80296
 C236 C 0.40790 0.91850 0.88589
 C237 C 0.42854 0.93744 0.90367
 H238 H 0.37472 0.85024 0.91071
 H239 H 0.30328 0.86874 0.89341
 H240 H 0.38134 0.81698 0.83682
 H241 H 0.41033 0.88060 0.80702
 H242 H 0.33200 0.93213 0.86348
 H243 H 0.33868 0.89899 0.78965
 C244 C 0.62866 0.87288 1.13561
 C245 C 0.65155 0.84741 1.11049
 C246 C 0.68510 0.85871 1.13365
 C247 C 0.66262 0.88378 1.15898
 C248 C 0.63876 0.90181 1.10744
 C249 C 0.67232 0.91303 1.13060
 C250 C 0.66119 0.87676 1.08203
 C251 C 0.69518 0.88764 1.10546
 C252 C 0.71143 0.83595 1.14946
 C253 C 0.73381 0.81887 1.16383
 C254 C 0.61299 0.92611 1.09346
 C255 C 0.59157 0.94601 1.08217
 H256 H 0.60101 0.86715 1.14788
 H257 H 0.64335 0.82018 1.10240
 H258 H 0.66347 0.88637 1.19081
 H259 H 0.68056 0.94025 1.13872
 H260 H 0.66030 0.87424 1.05019
 H261 H 0.72283 0.89339 1.09320
 C262 C 0.63618 1.13752 0.88974
 C263 C 0.66638 1.12799 0.85996
 C264 C 0.65314 1.15591 0.83365
 C265 C 0.62324 1.16581 0.86317
 C266 C 0.61036 1.11079 0.86981
 C267 C 0.59696 1.13866 0.84355
 C268 C 0.64028 1.10095 0.84030
 C269 C 0.62735 1.12920 0.81365
 C270 C 0.67882 1.17978 0.81415
 C271 C 0.70189 1.19766 0.79844
 C272 C 0.58798 1.08550 0.89128
 C273 C 0.57078 1.06501 0.91058
 H274 H 0.63960 1.14061 0.92128
 H275 H 0.69520 1.12390 0.86657
 H276 H 0.61654 1.19274 0.87234
 H277 H 0.56811 1.14265 0.83703
 H278 H 0.64704 1.07404 0.83113
 H279 H 0.62399 1.12614 0.78211
 C280 C 0.13378 0.35399 0.06086
 C281 C 0.16140 0.35802 0.09377
 C282 C 0.14140 0.32779 0.11425
 C283 C 0.11418 0.32334 0.08164
 C284 C 0.10898 0.37928 0.08308
 C285 C 0.08918 0.34895 0.10359
 C286 C 0.13619 0.38384 0.11569
 C287 C 0.11659 0.35309 0.13639
 C288 C 0.15755 0.29815 0.13186
 C289 C 0.16935 0.27305 0.14633
 C290 C 0.08795 0.40631 0.06639
 C291 C 0.06746 0.42634 0.05351
 H292 H 0.14069 0.35470 0.02964
 H293 H 0.19134 0.36138 0.08996
 H294 H 0.10521 0.29819 0.06783
 H295 H 0.05925 0.34545 0.10749
 H296 H 0.14507 0.40904 0.12944
 H297 H 0.10960 0.35240 0.16760
 C298 C -0.13325 0.35400 -0.12251
 C299 C -0.17464 0.34641 -0.11772
 C300 C -0.17752 0.34499 -0.16172
 C301 C -0.13638 0.35226 -0.16671
 C302 C -0.14017 0.39311 -0.12255
 C303 C -0.14303 0.39170 -0.16655
 C304 C -0.18131 0.38594 -0.11743
 C305 C -0.18459 0.38406 -0.16189
 C306 C -0.19663 0.31675 -0.18309
 C307 C -0.21094 0.29226 -0.19991
 C308 C -0.11697 0.41808 -0.10090
 C309 C -0.09532 0.43648 -0.08369
 H310 H -0.11195 0.34183 -0.10609
 H311 H -0.18779 0.32747 -0.09784
 H312 H -0.11805 0.33817 -0.18715
 H313 H -0.12983 0.41064 -0.18641
 H314 H -0.19954 0.40008 -0.09694
 H315 H -0.20592 0.39609 -0.17838
 C316 C 0.15922 0.60933 -0.15470
 C317 C 0.14176 0.63348 -0.18330
 C318 C 0.16026 0.66510 -0.16286
 C319 C 0.17809 0.64153 -0.13460
 C320 C 0.12615 0.61360 -0.12729
 C321 C 0.14466 0.64525 -0.10693
 C322 C 0.10843 0.63724 -0.15558
 C323 C 0.12717 0.66918 -0.13544
 C324 C 0.17762 0.69512 -0.18176
 C325 C 0.19058 0.72090 -0.19629
 C326 C 0.10484 0.58677 -0.10682
 C327 C 0.08481 0.56696 -0.08951
 H328 H 0.17218 0.58440 -0.16233
 H329 H 0.14072 0.62899 -0.21493
 H330 H 0.20697 0.64365 -0.12621
 H331 H 0.14569 0.64981 -0.07531
 H332 H 0.07956 0.63522 -0.16402
 H333 H 0.11410 0.69404 -0.12771
 C334 C -0.15497 0.61495 0.11816
 C335 C -0.13895 0.63978 0.14990
 C336 C -0.15405 0.67080 0.12965
 C337 C -0.17045 0.64651 0.09822
 C338 C -0.11953 0.61986 0.09427
 C339 C -0.13463 0.65089 0.07405
 C340 C -0.10326 0.64422 0.12572
 C341 C -0.11861 0.67556 0.10575
 C342 C -0.17170 0.70020 0.14923
 C343 C -0.18503 0.72521 0.16489
 C344 C -0.09780 0.59297 0.07507
 C345 C -0.07717 0.57276 0.06007
 H346 H -0.16972 0.58973 0.12298
 H347 H -0.14085 0.63555 0.18130
 H348 H -0.19833 0.64782 0.08714
 H349 H -0.13270 0.65515 0.04264
 H350 H -0.07540 0.64303 0.13687
 H351 H -0.10376 0.70073 0.10086
 C352 C 1.10738 0.13937 0.66571
 C353 C 1.13393 0.12087 0.69118
 C354 C 1.16181 0.15116 0.68597
 C355 C 1.13553 0.16996 0.66089
 C356 C 1.12427 0.12108 0.63002
 C357 C 1.15214 0.15137 0.62464
 C358 C 1.15057 0.10235 0.65514
 C359 C 1.17878 0.13289 0.65031
 C360 C 1.18136 0.16729 0.71846
 C361 C 1.19567 0.18048 0.74634
 C362 C 1.10285 0.10243 0.60050
 C363 C 1.08518 0.08470 0.57819
 H364 H 1.07783 0.14192 0.67173
 H365 H 1.12667 0.10840 0.71881
 H366 H 1.12959 0.19799 0.66363
 H367 H 1.15931 0.16376 0.59695
 H368 H 1.15654 0.07432 0.65248
 H369 H 1.20835 0.13034 0.64437
 C370 C 0.88098 -0.09419 0.65937
 C371 C 0.85070 -0.12226 0.65148
 C372 C 0.86704 -0.14500 0.68155
 C373 C 0.89705 -0.11715 0.68979
 C374 C 0.90524 -0.11166 0.62828
 C375 C 0.92160 -0.13438 0.65837
 C376 C 0.87523 -0.13949 0.61993
 C377 C 0.89126 -0.16260 0.65054
 C378 C 0.84615 -0.16251 0.71230
 C379 C 0.82979 -0.17636 0.73851
 C380 C 0.92594 -0.09079 0.60010
 C381 C 0.94183 -0.07095 0.57880
 H382 H 0.87695 -0.06582 0.66277
 H383 H 0.82136 -0.11739 0.64898
 H384 H 0.90578 -0.10804 0.71880
 H385 H 0.95095 -0.13921 0.66087
 H386 H 0.86656 -0.14852 0.59088
 H387 H 0.89522 -0.19098 0.64725
 C388 C 1.10231 -0.15549 0.36120
 C389 C 1.12861 -0.14231 0.32894
 C390 C 1.15762 -0.16637 0.34265
 C391 C 1.13165 -0.17995 0.37458
 C392 C 1.11765 -0.12666 0.38835
 C393 C 1.14664 -0.15067 0.40221
 C394 C 1.14365 -0.11322 0.35638
 C395 C 1.17296 -0.13754 0.36979
 C396 C 1.17928 -0.18742 0.31549
 C397 C 1.19606 -0.20398 0.29151
 C398 C 1.09578 -0.10278 0.41203
 C399 C 1.07866 -0.08119 0.42964
 H400 H 1.07305 -0.16263 0.35794
 H401 H 1.12144 -0.13901 0.29853
 H402 H 1.12703 -0.20767 0.38176
 H403 H 1.15373 -0.15388 0.43265
 H404 H 1.14835 -0.08553 0.34908
 H405 H 1.20222 -0.13037 0.37301
 C406 C 0.88059 0.14362 0.39642
 C407 C 0.89598 0.16752 0.36427
 C408 C 0.86710 0.15173 0.33710
 C409 C 0.85140 0.12823 0.36880
 C410 C 0.90651 0.11541 0.38199
 C411 C 0.87760 0.09975 0.35476
 C412 C 0.92224 0.13889 0.35029
 C413 C 0.89303 0.12350 0.32276
 C414 C 0.84516 0.17097 0.31113
 C415 C 0.82763 0.18623 0.28877
 C416 C 0.92735 0.09323 0.40596
 C417 C 0.94286 0.07276 0.42450
 H418 H 0.87579 0.15171 0.42699
 H419 H 0.90323 0.19565 0.36790
 H420 H 0.82207 0.12400 0.37612
 H421 H 0.87027 0.07163 0.35104
 H422 H 0.95158 0.14308 0.34297
 H423 H 0.89786 0.11534 0.29222
 C424 C 0.11941 0.33958 -0.07592
 C425 C 0.10947 0.30708 -0.10146
 C426 C 0.14411 0.31408 -0.12606
 C427 C 0.15449 0.34614 -0.10077
 C428 C 0.09861 0.36193 -0.10304
 C429 C 0.13325 0.36896 -0.12762
 C430 C 0.08831 0.32985 -0.12832
 C431 C 0.12328 0.33648 -0.15309
 C432 C 0.16821 0.28692 -0.14040
 C433 C 0.18638 0.26397 -0.15388
 C434 C 0.07289 0.38843 -0.09085
 C435 C 0.05175 0.41027 -0.08090
 H436 H 0.11744 0.34117 -0.04402
 H437 H 0.10000 0.28133 -0.09079
 H438 H 0.18197 0.35251 -0.08958
 H439 H 0.14269 0.39471 -0.13829
 H440 H 0.06086 0.32343 -0.13953
 H441 H 0.12517 0.33495 -0.18499
 C442 C -0.09934 0.36976 0.17556
 C443 C -0.14098 0.36894 0.18377
 C444 C -0.14307 0.33070 0.16973
 C445 C -0.10179 0.33110 0.16186
 C446 C -0.10592 0.38037 0.13424
 C447 C -0.10807 0.34211 0.12029
 C448 C -0.14720 0.38003 0.14206
 C449 C -0.14962 0.34133 0.12840
 C450 C -0.16286 0.30209 0.18875
 C451 C -0.17810 0.27761 0.20375
 C452 C -0.08471 0.40705 0.11352
 C453 C -0.06689 0.42803 0.09542
 H454 H -0.07842 0.38175 0.19470
 H455 H -0.15478 0.37962 0.21009
 H456 H -0.08333 0.31067 0.17020
 H457 H -0.09430 0.33135 0.09398
 H458 H -0.16560 0.40049 0.13368
 H459 H -0.17052 0.32933 0.10923
 C460 C -0.08034 0.66815 -0.13244
 C461 C -0.11091 0.66203 -0.16181
 C462 C -0.13500 0.68631 -0.13726
 C463 C -0.10472 0.69281 -0.10811
 C464 C -0.09623 0.63738 -0.10962
 C465 C -0.12031 0.66164 -0.08502
 C466 C -0.12651 0.63085 -0.13876
 C467 C -0.15096 0.65557 -0.11443
 C468 C -0.15556 0.71400 -0.15324
 C469 C -0.17126 0.73730 -0.16699
 C470 C -0.07408 0.61042 -0.09455
 C471 C -0.05549 0.58845 -0.08230
 H472 H -0.05108 0.67303 -0.13969
 H473 H -0.10729 0.66248 -0.19357
 H474 H -0.09600 0.71859 -0.09565
 H475 H -0.12389 0.66116 -0.05325
 H476 H -0.13519 0.60505 -0.15120
 H477 H -0.18022 0.65072 -0.10721
 C478 C 0.09643 0.63978 0.15768
 C479 C 0.12502 0.63057 0.18718
 C480 C 0.15311 0.65448 0.16656
 C481 C 0.12485 0.66402 0.13740
 C482 C 0.10887 0.60945 0.13144
 C483 C 0.13699 0.63339 0.11089
 C484 C 0.13709 0.59977 0.16057
 C485 C 0.16562 0.62417 0.14031
 C486 C 0.17665 0.68099 0.18536
 C487 C 0.19451 0.70423 0.20037
 C488 C 0.08401 0.58569 0.11040
 C489 C 0.06374 0.56744 0.09131
 H490 H 0.06774 0.64594 0.16462
 H491 H 0.12042 0.62971 0.21880
 H492 H 0.12009 0.69071 0.12799
 H493 H 0.14161 0.63432 0.07927
 H494 H 0.14176 0.57305 0.16989
 H495 H 0.19432 0.61807 0.13337
 C496 C 0.35461 1.13641 0.93843
 C497 C 0.36292 1.16398 0.90747
 C498 C 0.33148 1.14807 0.88374
 C499 C 0.32277 1.12091 0.91438
 C500 C 0.38044 1.11175 0.91670
 C501 C 0.34893 1.09599 0.89295
 C502 C 0.38922 1.13889 0.88606
 C503 C 0.35733 1.12337 0.86210
 C504 C 0.30334 1.16676 0.86475
 C505 C 0.27949 1.18083 0.84882
 C506 C 0.40638 1.08931 0.93402
 C507 C 0.42599 1.06852 0.94705
 H508 H 0.35381 1.14158 0.97000
 H509 H 0.36834 1.19220 0.91322
 H510 H 0.29518 1.11363 0.92584
 H511 H 0.34339 1.06780 0.88712
 H512 H 0.41684 1.14610 0.87464
 H513 H 0.35816 1.11813 0.83054
 C514 C 0.35474 0.85203 1.10347
 C515 C 0.36157 0.81551 1.11862
 C516 C 0.34317 0.82620 1.15717
 C517 C 0.33601 0.86236 1.14225
 C518 C 0.39138 0.86529 1.11946
 C519 C 0.37291 0.87587 1.15800
 C520 C 0.39873 0.82914 1.13431
 C521 C 0.37979 0.83943 1.17323
 C522 C 0.31484 0.80609 1.17814
 C523 C 0.29026 0.79111 1.19515
 C524 C 0.41646 0.88910 1.09878
 C525 C 0.43499 0.91076 1.08235
 H526 H 0.34468 0.85741 1.07457
 H527 H 0.35659 0.79044 1.10266
 H528 H 0.30997 0.87588 1.14571
 H529 H 0.37781 0.90093 1.17403
 H530 H 0.42482 0.81574 1.13077
 H531 H 0.38979 0.83404 1.20216
 C532 C 0.64749 1.14790 1.11327
 C533 C 0.64158 1.17382 1.14771
 C534 C 0.67189 1.15668 1.16898
 C535 C 0.67817 1.13111 1.13484
 C536 C 0.61978 1.12229 1.13190
 C537 C 0.65015 1.10528 1.15321
 C538 C 0.61336 1.14783 1.16604
 C539 C 0.64421 1.13108 1.18764
 C540 C 0.70217 1.17479 1.18872
 C541 C 0.72808 1.18890 1.20391
 C542 C 0.59245 1.10137 1.11061
 C543 C 0.57205 1.08219 1.09266
 H544 H 0.64854 1.15466 1.08248
 H545 H 0.63839 1.20224 1.14568
 H546 H 0.70509 1.12434 1.12220
 H547 H 0.65344 1.07687 1.15529
 H548 H 0.58638 1.15452 1.17860
 H549 H 0.64319 1.12431 1.21843
 C550 C 0.65640 0.86906 0.92670
 C551 C 0.65086 0.83703 0.89901
 C552 C 0.67907 0.85327 0.87083
 C553 C 0.68502 0.88493 0.89824
 C554 C 0.62650 0.88739 0.90609
 C555 C 0.65479 0.90350 0.87790
 C556 C 0.62043 0.85574 0.87870
 C557 C 0.64918 0.87161 0.85024
 C558 C 0.70931 0.83562 0.85116
 C559 C 0.73493 0.82213 0.83523
 C560 C 0.59867 0.90862 0.92524
 C561 C 0.57768 0.92852 0.94026
 H562 H 0.65906 0.86818 0.95835
 H563 H 0.64958 0.80945 0.90747
 H564 H 0.71184 0.89684 0.90608
 H565 H 0.65618 0.93106 0.86937
 H566 H 0.59357 0.84391 0.87092
 H567 H 0.64652 0.87254 0.81860
   
