data_POSCAR
  _audit_creation_date              2014-09-24
  _audit_creation_method            'ToBaCCo'
  _symmetry_space_group_name_H-M    'P1'
  _symmetry_Int_Tables_number       1
  _symmetry_cell_setting            triclinic
  loop_
  _symmetry_equiv_pos_as_xyz
 x,y,z
_cell_length_a 13.2727
_cell_length_b 13.2727
_cell_length_c 13.2727
_cell_angle_alpha 87.455700
_cell_angle_beta 92.544400
_cell_angle_gamma 92.544300
loop_
  _atom_site_label
  _atom_site_type_symbol
  _atom_site_fract_x
  _atom_site_fract_y
  _atom_site_fract_z
C1 C -0.01113 0.48888 0.24983
 C2 C 0.01117 0.51118 0.74983
 C3 C 0.25002 -0.01112 0.51098
 C4 C 0.75002 0.01118 0.48868
 C5 C 0.51117 0.25003 1.01098
 C6 C 0.48887 0.75003 0.98868
 B7 B 1.00373 1.10292 0.05991
 B8 B 1.06685 1.00068 0.10446
 B9 B 0.93994 0.99632 0.10272
 B10 B 0.89713 1.06011 -0.00388
 B11 B 0.99937 1.10466 -0.06700
 B12 B 1.10465 1.06686 -0.00082
 B13 B 0.99631 0.89714 -0.06025
 B14 B 0.93319 0.99938 -0.10480
 B15 B 1.06010 1.00375 -0.10306
 B16 B 1.10291 0.93995 0.00354
 B17 B 1.00067 0.89540 0.06666
 B18 B 0.89539 0.93320 0.00048
 B19 B 0.60291 0.50375 0.43975
 B20 B 0.60465 0.49938 0.56666
 B21 B 0.56685 0.60466 0.50048
 B22 B 0.50067 0.56686 0.39520
 B23 B 0.49631 0.43995 0.39694
 B24 B 0.56010 0.39714 0.50354
 B25 B 0.39713 0.49632 0.55991
 B26 B 0.39539 0.50068 0.43300
 B27 B 0.43319 0.39540 0.49918
 B28 B 0.49937 0.43320 0.60446
 B29 B 0.50373 0.56011 0.60272
 B30 B 0.43994 0.60292 0.49612
 N31 N 1.04168 1.38348 0.10852
 C32 C 0.98511 1.39255 0.19010
 N33 N 0.94502 1.30639 0.23500
 N34 N 0.95340 1.21682 0.19655
 C35 C 1.00599 1.20807 0.11305
 N36 N 1.05106 1.29301 0.07054
 N37 N 1.07450 0.63028 0.14840
 C38 C 0.98774 0.58843 0.18577
 N39 N 0.90727 0.64872 0.18831
 N40 N 0.91297 0.74515 0.15659
 C41 C 1.00043 0.78729 0.12275
 N42 N 1.08020 0.72713 0.11686
 N43 N 1.09277 1.35135 -0.18865
 C44 C 1.01230 1.41163 -0.18610
 N45 N 0.92554 1.36979 -0.14873
 N46 N 0.91984 1.27294 -0.11719
 C47 C 0.99961 1.21278 -0.12308
 N48 N 1.08707 1.25491 -0.15693
 N49 N 1.05502 0.69367 -0.23534
 C50 C 1.01493 0.60752 -0.19043
 N51 N 0.95836 0.61658 -0.10886
 N52 N 0.94898 0.70705 -0.07088
 C53 C 0.99405 0.79199 -0.11339
 N54 N 1.04663 0.78325 -0.19688
 N55 N 1.18850 0.90728 0.35114
 C56 C 1.18596 0.98775 0.41143
 N57 N 1.14859 1.07451 0.36959
 N58 N 1.11704 1.08021 0.27274
 C59 C 1.12293 1.00045 0.21258
 N60 N 1.15678 0.91299 0.25471
 N61 N 1.10871 1.04169 -0.38362
 C62 C 1.19028 0.98512 -0.39269
 N63 N 1.23519 0.94503 -0.30653
 N64 N 1.19673 0.95342 -0.21695
 C65 C 1.11324 1.00601 -0.20821
 N66 N 1.07073 1.05107 -0.29315
 N67 N 0.76485 1.05503 0.30619
 C68 C 0.80975 1.01494 0.39235
 N69 N 0.89133 0.95837 0.38328
 N70 N 0.92931 0.94900 0.29281
 C71 C 0.88680 0.99406 0.20787
 N72 N 0.80330 1.04665 0.21661
 N73 N 0.81154 1.09278 -0.35148
 C74 C 0.81408 1.01232 -0.41177
 N75 N 0.85145 0.92556 -0.36992
 N76 N 0.88299 0.91986 -0.27307
 C77 C 0.87710 0.99962 -0.21292
 N78 N 0.84326 1.08708 -0.25505
 N79 N 1.36977 1.14860 -0.07465
 C80 C 1.41162 1.18597 0.01211
 N81 N 1.35133 1.18851 0.09258
 N82 N 1.25490 1.15679 0.08688
 C83 C 1.21277 1.12295 -0.00058
 N84 N 1.27292 1.11706 -0.08035
 N85 N 0.61657 1.10872 -0.04183
 C86 C 0.60750 1.19030 0.01474
 N87 N 0.69366 1.23521 0.05483
 N88 N 0.78324 1.19675 0.04645
 C89 C 0.79198 1.11325 -0.00614
 N90 N 0.70704 1.07074 -0.05121
 N91 N 1.38347 0.89134 0.04149
 C92 C 1.39254 0.80977 -0.01508
 N93 N 1.30638 0.76486 -0.05517
 N94 N 1.21680 0.80332 -0.04678
 C95 C 1.20806 0.88681 0.00580
 N96 N 1.29300 0.92932 0.05087
 N97 N 0.64871 0.81156 -0.09292
 C98 C 0.58842 0.81410 -0.01245
 N99 N 0.63026 0.85147 0.07431
 N100 N 0.72711 0.88301 0.08001
 C101 C 0.78727 0.87712 0.00024
 N102 N 0.74514 0.84327 -0.08722
 N103 N 0.80638 0.44503 0.26466
 C104 C 0.89254 0.48512 0.30957
 N105 N 0.88347 0.54169 0.39114
 N106 N 0.79300 0.55107 0.42912
 C107 C 0.70806 0.50601 0.38661
 N108 N 0.71680 0.45342 0.30312
 N109 N 0.13027 0.57451 0.35126
 C110 C 0.08842 0.48775 0.31389
 N111 N 0.14871 0.40728 0.31135
 N112 N 0.24514 0.41299 0.34307
 C113 C 0.28727 0.50045 0.37692
 N114 N 0.22711 0.58021 0.38281
 N115 N 0.86977 0.42556 0.64840
 C116 C 0.91162 0.51232 0.68577
 N117 N 0.85133 0.59278 0.68831
 N118 N 0.75490 0.58708 0.65659
 C119 C 0.71277 0.49962 0.62275
 N120 N 0.77292 0.41986 0.61686
 N121 N 0.11657 0.45837 0.60852
 C122 C 0.10750 0.51494 0.69010
 N123 N 0.19366 0.55503 0.73500
 N124 N 0.28324 0.54665 0.69655
 C125 C 0.29198 0.49406 0.61305
 N126 N 0.20704 0.44900 0.57054
 N127 N 0.40727 0.68851 0.14852
 C128 C 0.48774 0.68597 0.08823
 N129 N 0.57450 0.64860 0.13008
 N130 N 0.58020 0.61706 0.22693
 C131 C 0.50043 0.62295 0.28708
 N132 N 0.41297 0.65679 0.24495
 N133 N 0.44502 0.73521 0.80619
 C134 C 0.48511 0.69030 0.89235
 N135 N 0.54168 0.60872 0.88328
 N136 N 0.55106 0.57074 0.79281
 C137 C 0.50599 0.61325 0.70787
 N138 N 0.45340 0.69675 0.71661
 N139 N 0.45836 0.39134 0.11638
 C140 C 0.51493 0.30977 0.10731
 N141 N 0.55502 0.26486 0.19347
 N142 N 0.54663 0.30332 0.28305
 C143 C 0.49405 0.38681 0.29179
 N144 N 0.44898 0.42932 0.20685
 N145 N 0.59277 0.31156 0.85114
 C146 C 0.51230 0.31410 0.91143
 N147 N 0.42554 0.35147 0.86959
 N148 N 0.41984 0.38301 0.77274
 C149 C 0.49961 0.37712 0.71258
 N150 N 0.58707 0.34327 0.75471
 N151 N 0.68850 0.85135 0.40708
 C152 C 0.68596 0.91163 0.48755
 N153 N 0.64859 0.86979 0.57431
 N154 N 0.61704 0.77294 0.58001
 C155 C 0.62293 0.71278 0.50024
 N156 N 0.65678 0.75491 0.41278
 N157 N 0.73519 0.19367 0.44483
 C158 C 0.69028 0.10752 0.48492
 N159 N 0.60871 0.11658 0.54149
 N160 N 0.57073 0.20705 0.55087
 C161 C 0.61324 0.29199 0.50580
 N162 N 0.69673 0.28325 0.45322
 N163 N 0.26485 0.80639 0.55483
 C164 C 0.30975 0.89255 0.51474
 N165 N 0.39133 0.88348 0.45817
 N166 N 0.42931 0.79301 0.44879
 C167 C 0.38680 0.70807 0.49386
 N168 N 0.30330 0.71682 0.54645
 N169 N 0.35145 0.13028 0.42535
 C170 C 0.31408 0.08843 0.51211
 N171 N 0.31154 0.14872 0.59258
 N172 N 0.34326 0.24515 0.58688
 C173 C 0.37710 0.28729 0.49942
 N174 N 0.38299 0.22713 0.41965
   
