data_POSCAR
  _audit_creation_date              2014-09-24
  _audit_creation_method            'ToBaCCo'
  _symmetry_space_group_name_H-M    'P1'
  _symmetry_Int_Tables_number       1
  _symmetry_cell_setting            triclinic
  loop_
  _symmetry_equiv_pos_as_xyz
 x,y,z
_cell_length_a 32.8789
_cell_length_b 32.3489
_cell_length_c 62.7219
_cell_angle_alpha 90.288600
_cell_angle_beta 91.753000
_cell_angle_gamma 120.463100
loop_
  _atom_site_label
  _atom_site_type_symbol
  _atom_site_fract_x
  _atom_site_fract_y
  _atom_site_fract_z
C1 C 0.03194 0.09156 0.52715
 H2 H 0.06499 0.09195 0.52658
 C3 C 0.02954 0.12696 0.53886
 H4 H 0.06081 0.15419 0.54754
 C5 C -0.04878 0.05574 0.51621
 H6 H -0.07888 0.02856 0.50695
 C7 C -0.05284 0.09038 0.52786
 H8 H -0.08622 0.08949 0.52750
 N9 N -0.00680 0.05698 0.51610
 C10 C 0.02107 -0.05980 0.50693
 H11 H 0.01997 -0.06220 0.48969
 C12 C 0.02546 -0.09358 0.51900
 H13 H 0.02766 -0.12196 0.51089
 C14 C 0.01618 -0.02171 0.53832
 H15 H 0.01133 0.00558 0.54577
 C16 C 0.02045 -0.05476 0.55100
 H17 H 0.01989 -0.05184 0.56818
 Zn18 Zn 0.00263 0.01423 0.49921
 N19 N 0.01622 -0.02501 0.51669
 C20 C 0.09357 0.05052 0.48160
 N21 N 0.05330 0.05264 0.48156
 C22 C 0.04859 0.08513 0.46972
 C23 C 0.08516 0.11714 0.45716
 C24 C 0.13114 0.08193 0.46920
 C25 C -0.09126 -0.05927 0.49259
 C26 C -0.13097 -0.09451 0.48108
 C27 C -0.08934 -0.06345 0.44863
 C28 C -0.05062 -0.02879 0.46083
 N29 N -0.05208 -0.02753 0.48240
 H30 H 0.09692 0.02501 0.49144
 H31 H 0.01648 0.08657 0.47032
 H32 H 0.08095 0.14340 0.44825
 H33 H 0.16287 0.07963 0.46933
 H34 H -0.09105 -0.05825 0.50984
 H35 H -0.15975 -0.12022 0.49034
 H36 H -0.08638 -0.06127 0.43153
 H37 H -0.01898 -0.00351 0.45297
 C38 C 0.02442 -0.09178 0.54135
 C39 C -0.01315 0.12688 0.53918
 C40 C -0.13076 -0.09832 0.45853
 C41 C 0.12725 0.11596 0.45682
 C42 C 1.06632 -0.00863 0.13149
 H43 H 1.06313 0.02299 0.13041
 C44 C 1.09854 -0.01286 0.11910
 H45 H 1.12011 0.01564 0.10843
 C46 C 1.04358 -0.08312 0.14755
 H47 H 1.02268 -0.10985 0.15898
 C48 C 1.07616 -0.08835 0.13572
 H49 H 1.07978 -0.11954 0.13789
 N50 N 1.03944 -0.04359 0.14525
 C51 C 0.92763 -0.01226 0.15671
 H52 H 0.93074 -0.00852 0.17393
 C53 C 0.89190 -0.00912 0.14559
 H54 H 0.86757 -0.00300 0.15441
 C55 C 0.95395 -0.02777 0.12452
 H56 H 0.97728 -0.03641 0.11640
 C57 C 0.91873 -0.02490 0.11276
 H58 H 0.91628 -0.03005 0.09560
 Zn59 Zn 1.00101 -0.03113 0.16277
 N60 N 0.95779 -0.02137 0.14610
 C61 C 1.04191 0.06567 0.17843
 N62 N 1.04260 0.02402 0.17948
 C63 C 1.07565 0.02083 0.19174
 C64 C 1.10939 0.06023 0.20390
 C65 C 1.07532 0.10621 0.19027
 C66 C 0.93141 -0.12536 0.17070
 C67 C 0.89830 -0.16300 0.18271
 C68 C 0.93425 -0.11404 0.21462
 C69 C 0.96656 -0.07729 0.20200
 N70 N 0.96423 -0.08335 0.18043
 H71 H 1.01601 0.06777 0.16820
 H72 H 1.07595 -0.01246 0.19190
 H73 H 1.13576 0.05707 0.21334
 H74 H 1.07433 0.13910 0.18934
 H75 H 0.92977 -0.12883 0.15348
 H76 H 0.87121 -0.19535 0.17455
 H77 H 0.93627 -0.10825 0.23173
 H78 H 0.99214 -0.04332 0.20942
 C79 C 0.88684 -0.01589 0.12331
 C80 C 1.10410 -0.05283 0.12132
 C81 C 0.89884 -0.15723 0.20495
 C82 C 1.10960 0.10370 0.20323
 C83 C 0.04696 0.99169 0.86950
 H84 H 0.01145 0.96139 0.87033
 C85 C 0.08345 0.99298 0.88192
 H86 H 0.07524 0.96397 0.89269
 C87 C 0.10010 1.06599 0.85423
 H88 H 0.10643 1.09367 0.84299
 C89 C 0.13797 1.06835 0.86614
 H90 H 0.17326 1.09806 0.86387
 N91 N 0.05578 1.02778 0.85601
 C92 C -0.08742 0.99900 0.84334
 H93 H -0.09008 0.99427 0.82616
 C94 C -0.12502 0.99646 0.85422
 H95 H -0.15576 0.99043 0.84483
 C96 C -0.04166 1.01699 0.87552
 H97 H -0.00873 1.02603 0.88374
 C98 C -0.07812 1.01528 0.88704
 H99 H -0.07271 1.02080 0.90414
 Zn100 Zn 0.00457 1.01793 0.83792
 N101 N -0.04687 1.00890 0.85407
 C102 C -0.05352 0.92201 0.82091
 N103 N -0.01090 0.96332 0.82076
 C104 C 0.02478 0.96661 0.80912
 C105 C 0.01822 0.92774 0.79669
 C106 C -0.06157 0.88200 0.80874
 C107 C 0.03066 1.11314 0.83076
 C108 C 0.03564 1.15187 0.81898
 C109 C 0.02143 1.10475 0.78668
 C110 C 0.01638 1.06683 0.79908
 N111 N 0.02052 1.07148 0.82072
 H112 H -0.08102 0.91970 0.83071
 H113 H 0.05865 0.99955 0.80969
 H114 H 0.04739 0.93100 0.78780
 H115 H -0.09567 0.84938 0.80896
 H116 H 0.03286 1.11552 0.84801
 H117 H 0.04155 1.18389 0.82737
 H118 H 0.01747 1.10009 0.76949
 H119 H 0.00729 1.03316 0.79137
 C120 C -0.12085 1.00529 0.87650
 C121 C 0.12998 1.03110 0.88002
 C122 C 0.03004 1.14762 0.79663
 C123 C -0.02537 0.88467 0.79640
 C124 C 0.50170 -0.00841 0.01133
 C125 C 0.50481 0.00139 -0.00983
 C126 C 0.46726 0.00569 -0.02140
 C127 C 0.54441 0.00652 -0.02254
 C128 C 0.53838 -0.01322 0.02350
 C129 C 0.46115 -0.01426 0.02335
 C130 C 0.42252 -0.03478 -0.02540
 C131 C 0.38684 -0.03023 -0.03577
 C132 C 0.39512 0.01501 -0.04216
 C133 C 0.44031 0.05541 -0.03819
 C134 C 0.47612 0.05069 -0.02804
 C135 C 0.53455 -0.02259 -0.04084
 C136 C 0.57116 -0.02086 -0.05223
 C137 C 0.61853 0.01006 -0.04555
 C138 C 0.62838 0.04056 -0.02766
 C139 C 0.59166 0.03910 -0.01637
 C140 C 0.56224 0.01771 0.04102
 C141 C 0.59911 0.01608 0.05184
 C142 C 0.61259 -0.01682 0.04544
 C143 C 0.58748 -0.04900 0.02834
 C144 C 0.55055 -0.04732 0.01750
 C145 C 0.45580 0.02518 0.02775
 C146 C 0.41644 0.01896 0.03840
 C147 C 0.38144 -0.02696 0.04466
 C148 C 0.38739 -0.06629 0.04032
 C149 C 0.42708 -0.05988 0.02992
 H150 H 0.41535 -0.06983 -0.02049
 H151 H 0.35288 -0.06227 -0.03895
 H152 H 0.44781 0.09086 -0.04258
 H153 H 0.51052 0.08227 -0.02495
 H154 H 0.49837 -0.04761 -0.04603
 H155 H 0.56233 -0.04397 -0.06623
 H156 H 0.60007 0.06261 -0.00254
 H157 H 0.55309 0.04401 0.04598
 H158 H 0.61718 0.04068 0.06520
 H159 H 0.59718 -0.07463 0.02300
 H160 H 0.53208 -0.07192 0.00417
 H161 H 0.48209 0.06070 0.02288
 H162 H 0.41362 0.05021 0.04185
 H163 H 0.36091 -0.10223 0.04456
 H164 H 0.43071 -0.09069 0.02650
 H165 H 0.66442 0.06467 -0.02202
 C166 C -0.00782 0.51080 0.68020
 C167 C -0.00662 0.51178 0.65849
 C168 C -0.00986 0.47127 0.64575
 C169 C -0.00195 0.55342 0.64651
 C170 C -0.01468 0.54597 0.69260
 C171 C -0.00223 0.47462 0.69248
 C172 C 0.02405 0.47992 0.63068
 C173 C 0.02140 0.44198 0.61876
 C174 C -0.01558 0.39464 0.62149
 C175 C -0.04995 0.38623 0.63639
 C176 C -0.04717 0.42419 0.64835
 C177 C 0.03465 0.60021 0.65179
 C178 C 0.03874 0.63925 0.64056
 C179 C 0.00650 0.63222 0.62371
 C180 C -0.02964 0.58524 0.61824
 C181 C -0.03367 0.54622 0.62947
 C182 C -0.05249 0.55315 0.68744
 C183 C -0.05826 0.58689 0.69887
 C184 C -0.02665 0.61373 0.71584
 C185 C 0.01052 0.60564 0.72129
 C186 C 0.01635 0.57198 0.70981
 C187 C -0.03429 0.44814 0.70815
 C188 C -0.02937 0.41394 0.71965
 C189 C 0.00786 0.40566 0.71576
 C190 C 0.04043 0.43291 0.70032
 C191 C 0.03562 0.46726 0.68891
 H192 H 0.05305 0.51600 0.62842
 H193 H 0.04878 0.44964 0.60764
 H194 H -0.07933 0.35037 0.63860
 H195 H -0.07424 0.41690 0.65960
 H196 H 0.06002 0.60649 0.66465
 H197 H 0.06675 0.67501 0.64524
 H198 H -0.06188 0.51037 0.62501
 H199 H -0.07752 0.53262 0.67454
 H200 H -0.08771 0.59170 0.69454
 H201 H 0.03573 0.62611 0.73414
 H202 H 0.04562 0.56684 0.71410
 H203 H -0.06343 0.45363 0.71133
 H204 H -0.05454 0.39422 0.73171
 H205 H 0.06927 0.42719 0.69680
 H206 H 0.06140 0.48803 0.67723
 H207 H -0.05455 0.57863 0.60512
 C208 C 0.50186 0.49470 0.34181
 C209 C 0.50184 0.49191 0.32012
 C210 C 0.54328 0.52659 0.30802
 C211 C 0.46022 0.45418 0.30755
 C212 C 0.46517 0.45489 0.35419
 C213 C 0.53815 0.53787 0.35408
 C214 C 0.53718 0.55029 0.29064
 C215 C 0.57605 0.58333 0.27938
 C216 C 0.62179 0.59309 0.28519
 C217 C 0.62768 0.56856 0.30235
 C218 C 0.58878 0.53548 0.31358
 C219 C 0.41487 0.44673 0.31066
 C220 C 0.37576 0.41075 0.29911
 C221 C 0.38131 0.38195 0.28399
 C222 C 0.42689 0.39026 0.28052
 C223 C 0.46598 0.42611 0.29217
 C224 C 0.45646 0.40792 0.35154
 C225 C 0.42106 0.37038 0.36278
 C226 C 0.39380 0.37917 0.37691
 C227 C 0.40325 0.42640 0.37986
 C228 C 0.43882 0.46396 0.36869
 C229 C 0.56353 0.53308 0.37132
 C230 C 0.59794 0.57360 0.38279
 C231 C 0.60732 0.61970 0.37737
 C232 C 0.58118 0.62425 0.36032
 C233 C 0.54684 0.58373 0.34884
 H234 H 0.50234 0.54361 0.28595
 H235 H 0.57026 0.60103 0.26601
 H236 H 0.66245 0.57552 0.30733
 H237 H 0.59419 0.51690 0.32669
 H238 H 0.40977 0.46883 0.32205
 H239 H 0.34120 0.40575 0.30185
 H240 H 0.50068 0.43145 0.28944
 H241 H 0.47689 0.40031 0.34064
 H242 H 0.41438 0.33433 0.36011
 H243 H 0.38324 0.43430 0.39088
 H244 H 0.44525 0.50001 0.37107
 H245 H 0.55722 0.49799 0.37566
 H246 H 0.61781 0.56891 0.39567
 H247 H 0.58689 0.65911 0.35599
 H248 H 0.52688 0.58810 0.33590
 H249 H 0.43219 0.36838 0.26909
 C250 C -0.01902 0.23951 0.57331
 C251 C -0.05576 0.19161 0.57465
 C252 C -0.05420 0.15499 0.56340
 C253 C -0.01564 0.16554 0.55080
 C254 C 0.02095 0.21345 0.54942
 C255 C 0.01923 0.25003 0.56051
 C256 C -0.02004 0.27847 0.58541
 C257 C -0.00661 0.32253 0.57584
 C258 C -0.00575 0.35994 0.58745
 C259 C -0.01806 0.35426 0.60895
 C260 C -0.03207 0.30993 0.61844
 C261 C -0.03317 0.27241 0.60678
 H262 H -0.08275 0.11834 0.56484
 H263 H 0.05084 0.22271 0.53963
 H264 H 0.00429 0.39327 0.57953
 H265 H -0.04110 0.30459 0.63505
 H266 H 0.04825 0.28653 0.55933
 H267 H 0.00299 0.32795 0.55929
 H268 H -0.08583 0.18254 0.58427
 H269 H -0.04308 0.23905 0.61464
 C270 C 0.78409 0.73515 0.24050
 C271 C 0.80336 0.78417 0.24538
 C272 C 0.84113 0.81889 0.23413
 C273 C 0.86071 0.80548 0.21776
 C274 C 0.84206 0.75641 0.21314
 C275 C 0.80419 0.72162 0.22441
 C276 C 0.74250 0.69848 0.25187
 C277 C 0.73934 0.65527 0.25805
 C278 C 0.70016 0.62100 0.26881
 C279 C 0.66325 0.62915 0.27358
 C280 C 0.66638 0.67228 0.26732
 C281 C 0.70550 0.70651 0.25658
 H282 H 0.85417 0.85634 0.23791
 H283 H 0.85661 0.74491 0.20074
 H284 H 0.69857 0.58792 0.27323
 H285 H 0.63881 0.67989 0.27096
 H286 H 0.78992 0.68415 0.22017
 H287 H 0.76743 0.64820 0.25479
 H288 H 0.78911 0.79575 0.25788
 H289 H 0.70656 0.73913 0.25179
 C290 C 0.24463 0.02858 -0.08579
 C291 C 0.24681 0.07242 -0.08951
 C292 C 0.20961 0.07344 -0.10048
 C293 C 0.16979 0.03064 -0.10821
 C294 C 0.16831 -0.01306 -0.10474
 C295 C 0.20507 -0.01408 -0.09352
 C296 C 0.28345 0.02692 -0.07402
 C297 C 0.27339 -0.00587 -0.05761
 C298 C 0.30965 -0.00912 -0.04706
 C299 C 0.35679 0.01988 -0.05288
 C300 C 0.36680 0.05312 -0.06919
 C301 C 0.33052 0.05681 -0.07954
 H302 H 0.21177 0.10767 -0.10263
 H303 H 0.13901 -0.04663 -0.11095
 H304 H 0.30070 -0.03425 -0.03424
 H305 H 0.40252 0.07554 -0.07433
 H306 H 0.20297 -0.04826 -0.09118
 H307 H 0.23739 -0.02888 -0.05289
 H308 H 0.27692 0.10578 -0.08358
 H309 H 0.33906 0.08205 -0.09230
 C310 C 0.02089 0.79396 0.57785
 C311 C 0.05172 0.81367 0.56094
 C312 C 0.05351 0.85128 0.54930
 C313 C 0.02465 0.87012 0.55437
 C314 C -0.00554 0.85095 0.57153
 C315 C -0.00740 0.81332 0.58313
 C316 C 0.01743 0.75270 0.58968
 C317 C -0.02683 0.71466 0.59529
 C318 C -0.03033 0.67562 0.60630
 C319 C 0.01035 0.67372 0.61197
 C320 C 0.05465 0.71178 0.60639
 C321 C 0.05814 0.75080 0.59532
 H322 H 0.07740 0.86556 0.53628
 H323 H -0.02865 0.86424 0.57569
 H324 H -0.06490 0.64710 0.61057
 H325 H 0.08659 0.71112 0.61037
 H326 H -0.03108 0.79929 0.59623
 H327 H -0.05889 0.71480 0.59095
 H328 H 0.07369 0.79927 0.55640
 H329 H 0.09275 0.77974 0.59136
 C330 C 0.22047 0.22602 0.23818
 C331 C 0.20646 0.23105 0.21741
 C332 C 0.16965 0.19163 0.20624
 C333 C 0.14636 0.14630 0.21555
 C334 C 0.15982 0.14151 0.23645
 C335 C 0.19639 0.18093 0.24766
 C336 C 0.26097 0.26716 0.24972
 C337 C 0.25900 0.27541 0.27158
 C338 C 0.29786 0.31298 0.28263
 C339 C 0.33962 0.34298 0.27208
 C340 C 0.34144 0.33503 0.25017
 C341 C 0.30248 0.29760 0.23910
 H342 H 0.16029 0.19631 0.19010
 H343 H 0.14219 0.10711 0.24411
 H344 H 0.29557 0.31799 0.29954
 H345 H 0.37298 0.35786 0.24159
 H346 H 0.20665 0.17584 0.26355
 H347 H 0.22735 0.25279 0.28014
 H348 H 0.22408 0.26548 0.20979
 H349 H 0.30520 0.29182 0.22231
 C350 C 0.76887 0.00701 -0.09015
 C351 C 0.75871 -0.02053 -0.10900
 C352 C 0.79476 -0.02123 -0.11994
 C353 C 0.84226 0.00533 -0.11224
 C354 C 0.85188 0.03254 -0.09309
 C355 C 0.81578 0.03352 -0.08232
 C356 C 0.73057 0.00796 -0.07867
 C357 C 0.73648 0.05142 -0.07071
 C358 C 0.70017 0.05225 -0.06003
 C359 C 0.65726 0.00956 -0.05697
 C360 C 0.65163 -0.03393 -0.06483
 C361 C 0.68778 -0.03469 -0.07562
 H362 H 0.78461 -0.04416 -0.13404
 H363 H 0.88752 0.05505 -0.08667
 H364 H 0.70545 0.08641 -0.05445
 H365 H 0.61948 -0.06760 -0.06235
 H366 H 0.82458 0.05495 -0.06776
 H367 H 0.76893 0.08491 -0.07306
 H368 H 0.72277 -0.04132 -0.11542
 H369 H 0.68255 -0.06878 -0.08130
 C370 C 0.21638 -0.05179 0.08744
 C371 C 0.18202 -0.04524 0.07658
 C372 C 0.14490 -0.04676 0.08749
 C373 C 0.14078 -0.05569 0.10941
 C374 C 0.17384 -0.06412 0.12016
 C375 C 0.21144 -0.06186 0.10933
 C376 C 0.25800 -0.04637 0.07617
 C377 C 0.27818 -0.07443 0.08157
 C378 C 0.31821 -0.06805 0.07145
 C379 C 0.33881 -0.03384 0.05548
 C380 C 0.31826 -0.00624 0.04990
 C381 C 0.27864 -0.01217 0.06020
 H382 H 0.11950 -0.04061 0.07883
 H383 H 0.17168 -0.07049 0.13713
 H384 H 0.33334 -0.08957 0.07637
 H385 H 0.33258 0.01986 0.03744
 H386 H 0.23750 -0.06636 0.11833
 H387 H 0.26297 -0.10154 0.09358
 H388 H 0.18393 -0.03862 0.05964
 H389 H 0.26468 0.01069 0.05583
 C390 C 0.75560 0.78663 0.42368
 C391 C 0.74907 0.79998 0.44400
 C392 C 0.78632 0.83843 0.45544
 C393 C 0.83190 0.86526 0.44697
 C394 C 0.83736 0.85180 0.42614
 C395 C 0.80003 0.81324 0.41484
 C396 C 0.71660 0.74442 0.41190
 C397 C 0.71008 0.74532 0.38969
 C398 C 0.67449 0.70502 0.37853
 C399 C 0.64449 0.66287 0.38932
 C400 C 0.65064 0.66215 0.41156
 C401 C 0.68629 0.70243 0.42272
 H402 H 0.77789 0.84767 0.47059
 H403 H 0.87104 0.86842 0.41868
 H404 H 0.67101 0.70661 0.36138
 H405 H 0.62776 0.63045 0.42038
 H406 H 0.80655 0.80324 0.39936
 H407 H 0.73248 0.77727 0.38091
 H408 H 0.71480 0.78097 0.45104
 H409 H 0.69068 0.70035 0.43979
 C410 C 0.02486 0.25892 0.76114
 C411 C 0.05779 0.27081 0.77827
 C412 C 0.06027 0.23486 0.78953
 C413 C 0.02983 0.18622 0.78392
 C414 C -0.00253 0.17447 0.76656
 C415 C -0.00486 0.21035 0.75528
 C416 C 0.02074 0.29681 0.74965
 C417 C -0.02385 0.28921 0.74306
 C418 C -0.02796 0.32450 0.73213
 C419 C 0.01239 0.36840 0.72760
 C420 C 0.05700 0.37617 0.73430
 C421 C 0.06112 0.34077 0.74519
 H422 H 0.08590 0.24517 0.80268
 H423 H -0.02700 0.13741 0.76197
 H424 H -0.06280 0.31710 0.72698
 H425 H 0.08875 0.40981 0.73128
 H426 H -0.03012 0.19997 0.74196
 H427 H -0.05573 0.25606 0.74651
 H428 H 0.08095 0.30785 0.78331
 H429 H 0.09601 0.34761 0.74987
 C430 C 0.77115 -0.01561 0.08912
 C431 C 0.78497 -0.04872 0.08358
 C432 C 0.82273 -0.04852 0.09454
 C433 C 0.84756 -0.01519 0.11129
 C434 C 0.83389 0.01810 0.11676
 C435 C 0.79614 0.01789 0.10580
 C436 C 0.73070 -0.01609 0.07764
 C437 C 0.73270 0.02713 0.07254
 C438 C 0.69445 0.02679 0.06204
 C439 C 0.65329 -0.01678 0.05638
 C440 C 0.65139 -0.06004 0.06128
 C441 C 0.68966 -0.05970 0.07183
 H442 H 0.83197 -0.07503 0.09011
 H443 H 0.85256 0.04450 0.12946
 H444 H 0.69731 0.06070 0.05812
 H445 H 0.61995 -0.09415 0.05733
 H446 H 0.78605 0.04355 0.11061
 H447 H 0.76411 0.06130 0.07644
 H448 H 0.76677 -0.07464 0.07066
 H449 H 0.68677 -0.09360 0.07580
 C450 C 0.24219 0.22314 0.42127
 C451 C 0.19561 0.20074 0.41282
 C452 C 0.15855 0.16511 0.42409
 C453 C 0.16716 0.15121 0.44414
 C454 C 0.21394 0.17279 0.45236
 C455 C 0.25108 0.20832 0.44101
 C456 C 0.28109 0.26281 0.40980
 C457 C 0.32496 0.26558 0.40828
 C458 C 0.36155 0.30326 0.39756
 C459 C 0.35513 0.33913 0.38831
 C460 C 0.31131 0.33639 0.38989
 C461 C 0.27467 0.29860 0.40046
 H462 H 0.12306 0.14852 0.41712
 H463 H 0.22171 0.16338 0.46787
 H464 H 0.39508 0.30467 0.39671
 H465 H 0.30519 0.36326 0.38272
 H466 H 0.28657 0.22530 0.44801
 H467 H 0.33080 0.23834 0.41521
 H468 H 0.18784 0.21081 0.39745
 H469 H 0.24142 0.29769 0.40159
 C470 C -0.03780 0.76408 0.76101
 C471 C -0.05737 0.75773 0.78120
 C472 C -0.05462 0.79656 0.79245
 C473 C -0.03202 0.84259 0.78379
 C474 C -0.01356 0.84864 0.76338
 C475 C -0.01645 0.80985 0.75212
 C476 C -0.03776 0.72377 0.74960
 C477 C -0.04605 0.71757 0.72738
 C478 C -0.04317 0.68141 0.71649
 C479 C -0.03183 0.65069 0.72756
 C480 C -0.02438 0.65633 0.74983
 C481 C -0.02738 0.69242 0.76073
 H482 H -0.06887 0.79087 0.80821
 H483 H 0.00359 0.88359 0.75621
 H484 H -0.04870 0.67823 0.69931
 H485 H -0.01612 0.63286 0.75883
 H486 H -0.00065 0.81603 0.73670
 H487 H -0.05457 0.74086 0.71839
 H488 H -0.07450 0.72276 0.78835
 H489 H -0.02033 0.69660 0.77782
   
