data_POSCAR
  _audit_creation_date              2014-09-24
  _audit_creation_method            'ToBaCCo'
  _symmetry_space_group_name_H-M    'P1'
  _symmetry_Int_Tables_number       1
  _symmetry_cell_setting            triclinic
  loop_
  _symmetry_equiv_pos_as_xyz
 x,y,z
_cell_length_a 54.7531
_cell_length_b 54.7848
_cell_length_c 54.7136
_cell_angle_alpha 90.085600
_cell_angle_beta 89.984400
_cell_angle_gamma 89.774300
loop_
  _atom_site_label
  _atom_site_type_symbol
  _atom_site_fract_x
  _atom_site_fract_y
  _atom_site_fract_z
C1 C 0.18010 1.21388 0.21362
 C2 C 0.16993 1.23486 0.20297
 C3 C 0.18017 1.24474 0.18170
 C4 C 0.20078 1.23381 0.17104
 C5 C 0.21118 1.21282 0.18146
 C6 C 0.20081 1.20277 0.20284
 C7 C 0.16970 1.20357 0.23463
 C8 C 0.17971 1.18232 0.24485
 C9 C 0.20032 1.17134 0.23424
 C10 C 0.21095 1.18142 0.21323
 C11 C 0.23127 1.17029 0.20219
 C12 C 0.24144 1.18022 0.18093
 C13 C 0.23150 1.20145 0.17066
 H14 H 0.15390 1.24334 0.21106
 H15 H 0.20855 1.24147 0.15451
 H16 H 0.15366 1.21191 0.24285
 H17 H 0.20792 1.15482 0.24216
 H18 H 0.23902 1.15377 0.20992
 H19 H 0.23943 1.20892 0.15412
 C20 C 0.81963 0.78778 0.21426
 C21 C 0.83012 0.76697 0.20351
 C22 C 0.81967 0.75661 0.18255
 C23 C 0.79855 0.76690 0.17230
 C24 C 0.78784 0.78771 0.18282
 C25 C 0.79841 0.79824 0.20389
 C26 C 0.83021 0.79855 0.23497
 C27 C 0.81985 0.81961 0.24531
 C28 C 0.79873 0.82995 0.23511
 C29 C 0.78793 0.81941 0.21440
 C30 C 0.76705 0.82986 0.20378
 C31 C 0.75667 0.81944 0.18284
 C32 C 0.76696 0.79840 0.17245
 H33 H 0.84653 0.75899 0.21129
 H34 H 0.79061 0.75886 0.15600
 H35 H 0.84663 0.79071 0.24288
 H36 H 0.79086 0.84632 0.24312
 H37 H 0.75901 0.84622 0.21161
 H38 H 0.75885 0.79055 0.15616
 C39 C 0.81817 1.21374 -0.21216
 C40 C 0.82847 1.23451 -0.20131
 C41 C 0.81794 1.24475 -0.18032
 C42 C 0.79692 1.23443 -0.17009
 C43 C 0.78637 1.21366 -0.18070
 C44 C 0.79703 1.20323 -0.20182
 C45 C 0.82883 1.20307 -0.23293
 C46 C 0.81863 1.18206 -0.24336
 C47 C 0.79760 1.17167 -0.23319
 C48 C 0.78671 1.18211 -0.21242
 C49 C 0.76593 1.17160 -0.20183
 C50 C 0.75547 1.18192 -0.18084
 C51 C 0.76559 1.20291 -0.17035
 H52 H 0.84482 1.24257 -0.20901
 H53 H 0.78898 1.24243 -0.15376
 H54 H 0.84518 1.21096 -0.24082
 H55 H 0.78986 1.15534 -0.24128
 H56 H 0.75802 1.15527 -0.20974
 H57 H 0.75742 1.21069 -0.15403
 C58 C 0.18257 0.78438 -0.21441
 C59 C 0.17197 0.76375 -0.20363
 C60 C 0.18235 0.75335 -0.18265
 C61 C 0.20352 0.76341 -0.17240
 C62 C 0.21435 0.78403 -0.18295
 C63 C 0.20385 0.79460 -0.20404
 C64 C 0.17206 0.79521 -0.23513
 C65 C 0.18254 0.81607 -0.24547
 C66 C 0.20369 0.82618 -0.23529
 C67 C 0.21444 0.81559 -0.21457
 C68 C 0.23535 0.82583 -0.20395
 C69 C 0.24566 0.81538 -0.18298
 C70 C 0.23527 0.79451 -0.17257
 H71 H 0.15551 0.75596 -0.21141
 H72 H 0.21140 0.75535 -0.15608
 H73 H 0.15561 0.78761 -0.24308
 H74 H 0.21159 0.84241 -0.24336
 H75 H 0.24347 0.84206 -0.21180
 H76 H 0.24332 0.78664 -0.15625
 C77 C 0.53645 1.03320 -0.00812
 H78 H 0.53679 1.03321 0.01165
 C79 C 0.55287 1.04765 -0.02114
 H80 H 0.56587 1.05890 -0.01140
 C81 C 0.51955 1.01802 -0.04504
 H82 H 0.50689 1.00609 -0.05428
 C83 C 0.53568 1.03219 -0.05876
 H84 H 0.53524 1.03130 -0.07854
 N85 N 0.52013 1.01889 -0.02017
 C86 C 0.46169 1.00585 0.03231
 H87 H 0.46149 0.98610 0.03226
 C88 C 0.44462 1.01881 0.04620
 H89 H 0.43124 1.00904 0.05698
 C90 C 0.47888 1.04276 0.01775
 H91 H 0.49192 1.05202 0.00625
 C92 C 0.46210 1.05642 0.03138
 H93 H 0.46241 1.07617 0.03051
 Zn94 Zn 0.49967 0.99878 -0.00100
 N95 N 0.47845 1.01792 0.01855
 C96 C 0.51899 0.98004 0.04357
 N97 N 0.52032 0.97927 0.01873
 C98 C 0.53749 0.96547 0.00712
 C99 C 0.55404 0.95145 0.02056
 C100 C 0.53522 0.96628 0.05772
 C101 C 0.46295 0.99062 -0.03537
 C102 C 0.44681 0.97716 -0.04978
 C103 C 0.46528 0.94008 -0.03445
 C104 C 0.48110 0.95423 -0.02031
 N105 N 0.47974 0.97904 -0.02113
 H106 H 0.50564 0.99156 0.05247
 H107 H 0.53840 0.96554 -0.01264
 H108 H 0.56771 0.94058 0.01117
 H109 H 0.53417 0.96708 0.07747
 H110 H 0.46199 1.01035 -0.03533
 H111 H 0.43342 0.98652 -0.06097
 H112 H 0.46632 0.92035 -0.03358
 H113 H 0.49412 0.94536 -0.00844
 C114 C 0.44479 1.04432 0.04568
 C115 C 0.55250 1.04709 -0.04669
 C116 C 0.44796 0.95167 -0.04926
 C117 C 0.55291 0.95189 0.04609
 C118 C -0.00705 0.53834 1.03412
 H119 H 0.01270 0.53890 1.03393
 C120 C -0.02019 0.55490 1.04846
 H121 H -0.01057 0.56824 1.05943
 C122 C -0.04380 0.52071 1.01957
 H123 H -0.05294 0.50769 1.00794
 C124 C -0.05765 0.53697 1.03364
 H125 H -0.07741 0.53628 1.03297
 N126 N -0.01896 0.52159 1.02018
 C127 C 0.03421 0.46341 1.00773
 H128 H 0.03403 0.46271 0.98797
 C129 C 0.04851 0.44688 1.02091
 H130 H 0.05946 0.43344 1.01131
 C131 C 0.01966 0.48134 1.04447
 H132 H 0.00803 0.49446 1.05360
 C133 C 0.03368 0.46513 1.05836
 H134 H 0.03299 0.46596 1.07813
 Zn135 Zn 0.00037 0.50089 1.00024
 N136 N 0.02028 0.48029 1.01962
 C137 C 0.04458 0.52018 0.98090
 N138 N 0.01974 0.52130 0.98027
 C139 C 0.00787 0.53810 0.96629
 C140 C 0.02105 0.55446 0.95192
 C141 C 0.05846 0.53623 0.96679
 C142 C -0.03355 0.46370 0.99280
 C143 C -0.04783 0.44723 0.97963
 C144 C -0.03293 0.46514 0.94217
 C145 C -0.01891 0.48131 0.95604
 N146 N -0.01958 0.48039 0.98090
 H147 H 0.05368 0.50714 0.99257
 H148 H -0.01188 0.53886 0.96648
 H149 H 0.01146 0.56783 0.94091
 H150 H 0.07822 0.53534 0.96747
 H151 H -0.03339 0.46309 1.01256
 H152 H -0.05881 0.43392 0.98925
 H153 H -0.03219 0.46586 0.92240
 H154 H -0.00725 0.49427 0.94691
 C155 C 0.04820 0.44774 1.04645
 C156 C -0.04571 0.55423 1.04818
 C157 C -0.04747 0.44794 0.95409
 C158 C 0.04657 0.55353 0.95221
 C159 C 1.03437 -0.00686 0.53779
 H160 H 1.03433 0.01288 0.53860
 C161 C 1.04867 -0.02027 0.55412
 H162 H 1.05977 -0.01087 0.56752
 C163 C 1.01946 -0.04329 0.51978
 H164 H 1.00769 -0.05220 0.50672
 C165 C 1.03348 -0.05740 0.53580
 H166 H 1.03265 -0.07713 0.53487
 N167 N 1.02026 -0.01848 0.52096
 C168 C 1.00802 0.03526 0.46349
 H169 H 0.98826 0.03533 0.46291
 C170 C 1.02124 0.04951 0.44704
 H171 H 1.01169 0.06068 0.43379
 C172 C 1.04468 0.02009 0.48101
 H173 H 1.05374 0.00824 0.49392
 C174 C 1.05861 0.03406 0.46487
 H175 H 1.07836 0.03309 0.46555
 Zn176 Zn 1.00041 0.00120 0.50060
 N177 N 1.01984 0.02105 0.48012
 C178 C 0.98141 0.04543 0.52059
 N179 N 0.98064 0.02061 0.52139
 C180 C 0.96664 0.00875 0.53810
 C181 C 0.95240 0.02193 0.55472
 C182 C 0.96745 0.05932 0.53691
 C183 C 0.99262 -0.03237 0.46299
 C184 C 0.97932 -0.04645 0.44643
 C185 C 0.94204 -0.03128 0.46472
 C186 C 0.95604 -0.01747 0.48096
 N187 N 0.98088 -0.01838 0.47991
 H188 H 0.99310 0.05452 0.50760
 H189 H 0.96670 -0.01099 0.53860
 H190 H 0.94137 0.01235 0.56803
 H191 H 0.96824 0.07906 0.53628
 H192 H 1.01237 -0.03241 0.46229
 H193 H 0.98882 -0.05747 0.43296
 H194 H 0.92229 -0.03037 0.46555
 H195 H 0.94703 -0.00580 0.49411
 C196 C 1.04676 0.04885 0.44772
 C197 C 1.04818 -0.04576 0.55313
 C198 C 0.95381 -0.04586 0.44729
 C199 C 0.95285 0.04744 0.55413
 C200 C 0.16964 0.26457 1.17095
 C201 C 0.16012 0.28189 1.16122
 C202 C 0.14850 0.30226 1.14933
 C203 C 0.16100 0.31543 1.13139
 C204 C 0.14939 0.33465 1.11919
 C205 C 0.12507 0.34093 1.12478
 C206 C 0.11275 0.32774 1.14304
 C207 C 0.12440 0.30853 1.15520
 C208 C 0.11239 0.36075 1.11125
 C209 C 0.09662 0.37704 1.12349
 C210 C 0.08412 0.39519 1.11056
 C211 C 0.08720 0.39732 1.08526
 C212 C 0.10300 0.38137 1.07296
 C213 C 0.11553 0.36322 1.08584
 C214 C 0.07368 0.41543 1.07180
 C215 C 0.06217 0.43032 1.06034
 H216 H 0.17967 0.31074 1.12671
 H217 H 0.15945 0.34464 1.10544
 H218 H 0.09393 0.33190 1.14753
 H219 H 0.11451 0.29837 1.16897
 H220 H 0.09405 0.37580 1.14307
 H221 H 0.07193 0.40746 1.12027
 H222 H 0.10543 0.38278 1.05336
 H223 H 0.12726 0.35077 1.07584
 C224 C -0.16956 0.73692 1.17172
 C225 C -0.15983 0.71971 1.16193
 C226 C -0.14798 0.69945 1.15000
 C227 C -0.13033 0.68572 1.16243
 C228 C -0.11821 0.66659 1.15054
 C229 C -0.12359 0.66094 1.12602
 C230 C -0.14155 0.67470 1.11378
 C231 C -0.15364 0.69383 1.12570
 C232 C -0.11015 0.64117 1.11309
 C233 C -0.12239 0.62544 1.09688
 C234 C -0.10955 0.60731 1.08418
 C235 C -0.08434 0.60466 1.08750
 C236 C -0.07204 0.62007 1.10374
 C237 C -0.08483 0.63819 1.11646
 C238 C -0.07096 0.58656 1.07384
 C239 C -0.05956 0.57167 1.06223
 H240 H -0.12583 0.68991 1.18125
 H241 H -0.10470 0.65614 1.16055
 H242 H -0.14587 0.67104 1.09482
 H243 H -0.16719 0.70442 1.11587
 H244 H -0.14191 0.62707 1.09412
 H245 H -0.11926 0.59546 1.07167
 H246 H -0.05250 0.61825 1.10635
 H247 H -0.07483 0.65022 1.12853
 C248 C -0.17085 0.26551 0.83120
 C249 C -0.16126 0.28266 0.84107
 C250 C -0.14957 0.30286 0.85311
 C251 C -0.13434 0.31850 0.83991
 C252 C -0.12236 0.33764 0.85179
 C253 C -0.12545 0.34136 0.87707
 C254 C -0.14099 0.32565 0.89011
 C255 C -0.15294 0.30653 0.87819
 C256 C -0.11213 0.36116 0.88990
 C257 C -0.12365 0.37494 0.90836
 C258 C -0.11083 0.39306 0.92093
 C259 C -0.08636 0.39766 0.91523
 C260 C -0.07481 0.38422 0.89675
 C261 C -0.08759 0.36611 0.88415
 C262 C -0.07290 0.41571 0.92873
 C263 C -0.06142 0.43056 0.94021
 H264 H -0.13162 0.31583 0.82047
 H265 H -0.11076 0.34959 0.84120
 H266 H -0.14349 0.32781 0.90963
 H267 H -0.16460 0.29445 0.88860
 H268 H -0.14260 0.37178 0.91300
 H269 H -0.11995 0.40338 0.93519
 H270 H -0.05584 0.38755 0.89227
 H271 H -0.07811 0.35560 0.87028
 C272 C 0.17145 0.73387 0.82821
 C273 C 0.16161 0.71684 0.83803
 C274 C 0.14961 0.69682 0.84999
 C275 C 0.13132 0.68380 0.83785
 C276 C 0.11905 0.66491 0.84978
 C277 C 0.12494 0.65881 0.87406
 C278 C 0.14355 0.67185 0.88601
 C279 C 0.15577 0.69074 0.87405
 C280 C 0.11137 0.63932 0.88707
 C281 C 0.12364 0.62301 0.90271
 C282 C 0.11071 0.60513 0.91547
 C283 C 0.08536 0.60331 0.91276
 C284 C 0.07302 0.61931 0.89710
 C285 C 0.08591 0.63719 0.88432
 C286 C 0.07191 0.58544 0.92647
 C287 C 0.06046 0.57074 0.93811
 H288 H 0.12642 0.68835 0.81921
 H289 H 0.10504 0.65502 0.83999
 H290 H 0.14827 0.66783 0.90480
 H291 H 0.16983 0.70078 0.88366
 H292 H 0.14326 0.62399 0.90499
 H293 H 0.12044 0.59281 0.92753
 H294 H 0.05338 0.61814 0.89496
 H295 H 0.07589 0.64968 0.87269
 C296 C 1.16896 0.17188 0.26469
 C297 C 1.15924 0.16241 0.28201
 C298 C 1.14741 0.15081 0.30238
 C299 C 1.16045 0.13461 0.31726
 C300 C 1.14870 0.12264 0.33649
 C301 C 1.12372 0.12673 0.34107
 C302 C 1.11085 0.14327 0.32616
 C303 C 1.12263 0.15520 0.30694
 C304 C 1.11097 0.11339 0.36092
 C305 C 1.09343 0.12526 0.37557
 C306 C 1.08089 0.11244 0.39371
 C307 C 1.08572 0.08762 0.39746
 C308 C 1.10330 0.07571 0.38316
 C309 C 1.11586 0.08849 0.36502
 C310 C 1.07220 0.07420 0.41552
 C311 C 1.06070 0.06275 0.43036
 H312 H 1.17964 0.13109 0.31390
 H313 H 1.15917 0.11025 0.34783
 H314 H 1.09154 0.14655 0.32899
 H315 H 1.11234 0.16762 0.29545
 H316 H 1.08947 0.14447 0.37306
 H317 H 1.06732 0.12184 0.40470
 H318 H 1.10709 0.05647 0.38584
 H319 H 1.12901 0.07875 0.35384
 C320 C 1.17111 -0.17238 0.73385
 C321 C 1.16135 -0.16246 0.71677
 C322 C 1.14948 -0.15035 0.69669
 C323 C 1.16204 -0.13282 0.68306
 C324 C 1.15022 -0.12041 0.66411
 C325 C 1.12564 -0.12538 0.65854
 C326 C 1.11326 -0.14322 0.67219
 C327 C 1.12511 -0.15560 0.69114
 C328 C 1.11279 -0.11163 0.63898
 C329 C 1.09639 -0.12352 0.62319
 C330 C 1.08376 -0.11038 0.60527
 C331 C 1.08736 -0.08522 0.60289
 C332 C 1.10379 -0.07327 0.61836
 C333 C 1.11644 -0.08637 0.63627
 C334 C 1.07376 -0.07154 0.58502
 C335 C 1.06219 -0.05989 0.57033
 H336 H 1.18092 -0.12862 0.68719
 H337 H 1.16034 -0.10700 0.65374
 H338 H 1.09425 -0.14723 0.66859
 H339 H 1.11518 -0.16905 0.70166
 H340 H 1.09341 -0.14299 0.62462
 H341 H 1.07110 -0.11982 0.59337
 H342 H 1.10662 -0.05378 0.61675
 H343 H 1.12867 -0.07662 0.64835
 C344 C 0.83071 -0.16956 0.26490
 C345 C 0.84053 -0.15981 0.28203
 C346 C 0.85249 -0.14795 0.30220
 C347 C 0.87716 -0.15271 0.30696
 C348 C 0.88905 -0.14064 0.32605
 C349 C 0.87641 -0.12359 0.34064
 C350 C 0.85154 -0.11909 0.33583
 C351 C 0.83968 -0.13120 0.31673
 C352 C 0.88926 -0.11020 0.36042
 C353 C 0.88484 -0.08515 0.36419
 C354 C 0.89748 -0.07237 0.38231
 C355 C 0.91467 -0.08442 0.39692
 C356 C 0.91904 -0.10938 0.39348
 C357 C 0.90643 -0.12220 0.37536
 C358 C 0.92824 -0.07103 0.41499
 C359 C 0.93980 -0.05965 0.42986
 H360 H 0.88728 -0.16555 0.29575
 H361 H 0.90827 -0.14425 0.32906
 H362 H 0.84124 -0.10630 0.34692
 H363 H 0.82057 -0.12740 0.31322
 H364 H 0.87200 -0.07532 0.35278
 H365 H 0.89404 -0.05303 0.38474
 H366 H 0.93229 -0.11889 0.40470
 H367 H 0.91001 -0.14152 0.37311
 C368 C 0.82956 0.17132 0.73699
 C369 C 0.83941 0.16162 0.71980
 C370 C 0.85139 0.14977 0.69956
 C371 C 0.83879 0.13266 0.68540
 C372 C 0.85068 0.12054 0.66626
 C373 C 0.87536 0.12539 0.66105
 C374 C 0.88778 0.14282 0.67525
 C375 C 0.87586 0.15490 0.69438
 C376 C 0.88827 0.11197 0.64125
 C377 C 0.90493 0.12405 0.62590
 C378 C 0.91758 0.11120 0.60774
 C379 C 0.91375 0.08614 0.60468
 C380 C 0.89708 0.07400 0.61971
 C381 C 0.88440 0.08681 0.63786
 C382 C 0.92734 0.07274 0.58654
 C383 C 0.93888 0.06131 0.57162
 H384 H 0.81983 0.12857 0.68925
 H385 H 0.84054 0.10746 0.65547
 H386 H 0.90687 0.14671 0.67192
 H387 H 0.88582 0.16803 0.70531
 H388 H 0.90808 0.14345 0.62786
 H389 H 0.93043 0.12078 0.59619
 H390 H 0.89406 0.05458 0.61757
 H391 H 0.87197 0.07691 0.64958
 C392 C 0.26163 1.16810 0.16915
 C393 C 0.27826 1.15770 0.15907
 C394 C 0.29777 1.14498 0.14679
 C395 C 0.32029 1.15639 0.14306
 C396 C 0.33905 1.14408 0.13073
 C397 C 0.33548 1.12021 0.12193
 C398 C 0.31281 1.10887 0.12593
 C399 C 0.29411 1.12118 0.13827
 C400 C 0.35519 1.10721 0.10847
 C401 C 0.34965 1.09297 0.08779
 C402 C 0.36812 1.08057 0.07520
 C403 C 0.39237 1.08220 0.08307
 C404 C 0.39811 1.09638 0.10356
 C405 C 0.37965 1.10884 0.11618
 C406 C 0.41123 1.06913 0.07015
 C407 C 0.42671 1.05794 0.05911
 H408 H 0.32329 1.17484 0.14952
 H409 H 0.35619 1.15340 0.12770
 H410 H 0.30961 1.09039 0.11970
 H411 H 0.27677 1.11216 0.14111
 H412 H 0.33106 1.09164 0.08118
 H413 H 0.36348 1.06969 0.05932
 H414 H 0.41682 1.09771 0.10985
 H415 H 0.38445 1.11943 0.13219
 C416 C 0.73469 1.17049 -0.16958
 C417 C 0.71752 1.16071 -0.15994
 C418 C 0.69732 1.14879 -0.14819
 C419 C 0.68322 1.16135 -0.13089
 C420 C 0.66412 1.14950 -0.11886
 C421 C 0.65888 1.12488 -0.12399
 C422 C 0.67301 1.11250 -0.14159
 C423 C 0.69211 1.12439 -0.15359
 C424 C 0.63913 1.11200 -0.11066
 C425 C 0.62376 1.09549 -0.12292
 C426 C 0.60567 1.08282 -0.11017
 C427 C 0.60270 1.08649 -0.08502
 C428 C 0.61774 1.10303 -0.07270
 C429 C 0.63582 1.11572 -0.08541
 C430 C 0.58467 1.07283 -0.07172
 C431 C 0.56985 1.06120 -0.06040
 H432 H 0.68709 1.18026 -0.12660
 H433 H 0.65338 1.15960 -0.10563
 H434 H 0.66966 1.09347 -0.14570
 H435 H 0.70299 1.11446 -0.16686
 H436 H 0.62565 1.09245 -0.14239
 H437 H 0.59411 1.07007 -0.11988
 H438 H 0.61567 1.10591 -0.05321
 H439 H 0.64756 1.12804 -0.07539
 C440 C 0.26653 0.82658 -0.17166
 C441 C 0.28377 0.83621 -0.16197
 C442 C 0.30403 0.84801 -0.15017
 C443 C 0.30883 0.84356 -0.12545
 C444 C 0.32793 0.85568 -0.11369
 C445 C 0.34248 0.87248 -0.12650
 C446 C 0.33766 0.87664 -0.15142
 C447 C 0.31855 0.86447 -0.16316
 C448 C 0.36218 0.88604 -0.11375
 C449 C 0.36581 0.91102 -0.11841
 C450 C 0.38379 0.92401 -0.10581
 C451 C 0.39839 0.91222 -0.08845
 C452 C 0.39511 0.88733 -0.08386
 C453 C 0.37713 0.87430 -0.09643
 C454 C 0.41625 0.92586 -0.07486
 C455 C 0.43088 0.93751 -0.06330
 H456 H 0.29762 0.83094 -0.11520
 H457 H 0.33095 0.85234 -0.09442
 H458 H 0.34872 0.88923 -0.16185
 H459 H 0.31500 0.86804 -0.18230
 H460 H 0.35438 0.92066 -0.13137
 H461 H 0.38609 0.94331 -0.10941
 H462 H 0.40633 0.87802 -0.07046
 H463 H 0.37498 0.85503 -0.09266
 C464 C 0.73581 0.83080 0.17153
 C465 C 0.71857 0.84050 0.16181
 C466 C 0.69828 0.85229 0.14992
 C467 C 0.68342 0.83913 0.13384
 C468 C 0.66424 0.85080 0.12163
 C469 C 0.65968 0.87584 0.12534
 C470 C 0.67457 0.88884 0.14174
 C471 C 0.69375 0.87713 0.15392
 C472 C 0.63985 0.88848 0.11176
 C473 C 0.62519 0.90620 0.12337
 C474 C 0.60703 0.91860 0.11033
 C475 C 0.60328 0.91347 0.08555
 C476 C 0.61761 0.89574 0.07390
 C477 C 0.63576 0.88330 0.08690
 C478 C 0.58519 0.92682 0.07189
 C479 C 0.57031 0.93816 0.06024
 H480 H 0.68676 0.81988 0.13063
 H481 H 0.65291 0.84023 0.10936
 H482 H 0.67176 0.90819 0.14473
 H483 H 0.70522 0.88752 0.16623
 H484 H 0.62769 0.91038 0.14255
 H485 H 0.59603 0.93229 0.11953
 H486 H 0.61493 0.89171 0.05469
 H487 H 0.64695 0.87002 0.07735
   
