data_POSCAR
  _audit_creation_date              2014-09-24
  _audit_creation_method            'ToBaCCo'
  _symmetry_space_group_name_H-M    'P1'
  _symmetry_Int_Tables_number       1
  _symmetry_cell_setting            triclinic
  loop_
  _symmetry_equiv_pos_as_xyz
 x,y,z
_cell_length_a 23.3868
_cell_length_b 23.4923
_cell_length_c 23.4993
_cell_angle_alpha 102.891900
_cell_angle_beta 89.148700
_cell_angle_gamma 80.342300
loop_
  _atom_site_label
  _atom_site_type_symbol
  _atom_site_fract_x
  _atom_site_fract_y
  _atom_site_fract_z
C1 C 0.56012 0.52396 0.01951
 C2 C 0.51975 0.56916 0.00231
 C3 C 0.46373 0.55741 -0.01188
 C4 C 0.44547 0.50369 -0.00968
 C5 C 0.48650 0.45819 0.00499
 C6 C 0.54212 0.46949 0.01979
 H7 H 0.57363 0.43280 0.02722
 H8 H 0.43134 0.59375 -0.01851
 C9 C -0.00571 0.42866 0.52273
 C10 C 0.00602 0.47316 0.56991
 C11 C 0.01317 0.52824 0.55983
 C12 C 0.00663 0.54205 0.50457
 C13 C -0.00845 0.49785 0.45783
 C14 C -0.01335 0.44199 0.46781
 H15 H -0.02270 0.40768 0.43170
 H16 H 0.02157 0.56188 0.59700
 C17 C 0.48138 -0.00074 0.43424
 C18 C 0.44012 -0.00850 0.47503
 C19 C 0.45689 -0.01061 0.53179
 C20 C 0.51356 -0.00539 0.55015
 C21 C 0.55564 0.00133 0.50831
 C22 C 0.53790 0.00357 0.45151
 H23 H 0.56986 0.00439 0.41797
 H24 H 0.42331 -0.01205 0.56344
 O25 O 0.45386 0.00540 -0.08518
 O26 O 0.44396 0.02420 0.07438
 O27 O 0.44440 0.09690 0.00363
 O28 O 0.45616 -0.06488 -0.01538
 O29 O 0.55160 -0.07429 -0.01175
 O30 O 0.53994 0.08702 0.00624
 O31 O 0.53936 0.01701 0.07609
 O32 O 0.54935 -0.00287 -0.08444
 Cu33 Cu 0.43995 0.01677 -0.00569
 Cu34 Cu 0.55474 0.00565 -0.00372
 C35 C 0.50301 -0.00269 -0.11209
 C36 C 0.48999 0.02360 0.10234
 C37 C 0.49037 0.11939 0.00870
 C38 C 0.50579 -0.09696 -0.01645
 O39 O -0.07697 0.57963 1.03276
 O40 O 0.08277 0.54877 1.01806
 O41 O -0.00122 0.55935 0.94866
 O42 O 0.00717 0.57110 1.10646
 O43 O 0.00153 0.47609 1.09318
 O44 O 0.00307 0.46241 0.93385
 O45 O 0.08256 0.45334 1.01053
 O46 O -0.07716 0.48331 1.01730
 Cu47 Cu 0.00317 0.57450 1.02851
 Cu48 Cu 0.00258 0.45905 1.01238
 C49 C -0.10417 0.53630 1.02540
 C50 C 0.10979 0.49606 1.01254
 C51 C -0.00092 0.50920 0.91444
 C52 C 0.00535 0.52563 1.12669
 O53 O -0.00384 -0.10936 0.42282
 O54 O 0.00417 0.04740 0.43465
 O55 O 0.08025 -0.04625 0.42479
 O56 O -0.07975 -0.01154 0.43710
 O57 O -0.07855 -0.00335 0.53258
 O58 O 0.08118 -0.03043 0.52109
 O59 O 0.00086 0.06314 0.53104
 O60 O 0.00236 -0.09632 0.51844
 Cu61 Cu -0.00009 -0.03188 0.42008
 Cu62 Cu 0.00149 -0.01531 0.53548
 C63 C -0.00161 -0.12966 0.46859
 C64 C 0.00413 0.08190 0.48455
 C65 C 0.10782 -0.04243 0.47127
 C66 C -0.10632 -0.00226 0.48677
 C67 C -0.35350 0.50011 1.07375
 C68 C -0.38086 0.52774 1.03118
 C69 C -0.34692 0.55517 0.99879
 C70 C -0.28773 0.55481 1.00866
 C71 C -0.26103 0.52444 1.04957
 C72 C -0.29444 0.49798 1.08236
 C73 C -0.20105 0.51985 1.05612
 C74 C -0.16771 0.54691 1.02361
 C75 C -0.19478 0.57970 0.98527
 C76 C -0.25431 0.58307 0.97730
 H77 H -0.36553 0.57461 0.96410
 H78 H -0.27487 0.47538 1.11462
 H79 H -0.18009 0.49470 1.08589
 H80 H -0.27400 0.60700 0.94607
 H81 H -0.37796 0.48016 1.10110
 H82 H -0.16934 0.60043 0.95957
 C83 C 0.35481 0.52880 0.94248
 C84 C 0.38600 0.49965 0.98200
 C85 C 0.35520 0.47096 1.01601
 C86 C 0.29509 0.47298 1.01191
 C87 C 0.26456 0.50540 0.97454
 C88 C 0.29495 0.53205 0.93920
 C89 C 0.20392 0.51187 0.97415
 C90 C 0.17354 0.48494 1.00949
 C91 C 0.20420 0.45014 1.04424
 C92 C 0.26457 0.44474 1.04599
 H93 H 0.37682 0.45023 1.04853
 H94 H 0.27235 0.55605 0.90941
 H95 H 0.18022 0.53825 0.94683
 H96 H 0.28725 0.41926 1.07457
 H97 H 0.37670 0.54936 0.91366
 H98 H 0.18116 0.42915 1.07179
 C99 C 0.05683 -0.37290 0.53116
 C100 C 0.01397 -0.40037 0.49951
 C101 C -0.02220 -0.36785 0.46587
 C102 C -0.01528 -0.31009 0.46366
 C103 C 0.02655 -0.28311 0.49746
 C104 C 0.06265 -0.31504 0.53056
 C105 C 0.03115 -0.22427 0.49831
 C106 C -0.00437 -0.19245 0.46441
 C107 C -0.04414 -0.22010 0.42882
 C108 C -0.05010 -0.27834 0.42899
 H109 H -0.05747 -0.38597 0.44341
 H110 H 0.09557 -0.29531 0.55599
 H111 H 0.06233 -0.20312 0.52535
 H112 H -0.08211 -0.29838 0.40236
 H113 H 0.08698 -0.39653 0.55605
 H114 H -0.07195 -0.19593 0.40248
 C115 C -0.04608 0.35576 0.56945
 C116 C -0.00865 0.36735 0.52772
 C117 C 0.02496 0.31971 0.48772
 C118 C 0.02074 0.26122 0.48838
 C119 C -0.01631 0.24959 0.53092
 C120 C -0.04925 0.29726 0.57159
 C121 C -0.02063 0.19061 0.53096
 C122 C 0.00999 0.14381 0.48758
 C123 C 0.04628 0.15611 0.44544
 C124 C 0.05220 0.21425 0.44624
 H125 H 0.05383 0.32837 0.45533
 H126 H -0.07830 0.28933 0.60419
 H127 H -0.04903 0.18121 0.56327
 H128 H 0.08064 0.22253 0.41330
 H129 H -0.07326 0.39191 0.59992
 H130 H 0.07055 0.12046 0.41201
 C131 C 0.55643 0.03827 -0.35775
 C132 C 0.52341 -0.00200 -0.38954
 C133 C 0.49657 -0.03659 -0.35879
 C134 C 0.50088 -0.03007 -0.29839
 C135 C 0.53434 0.01013 -0.26732
 C136 C 0.56249 0.04358 -0.29763
 C137 C 0.53738 0.01737 -0.20633
 C138 C 0.50537 -0.01350 -0.17634
 C139 C 0.47232 -0.05325 -0.20781
 C140 C 0.47078 -0.06218 -0.26838
 H141 H 0.47220 -0.06916 -0.38192
 H142 H 0.58773 0.07527 -0.27451
 H143 H 0.56240 0.04863 -0.18201
 H144 H 0.44482 -0.09310 -0.29157
 H145 H 0.57581 0.06759 -0.37868
 H146 H 0.44756 -0.07746 -0.18530
 C147 C 0.44307 -0.04305 0.33663
 C148 C 0.46929 0.00066 0.37236
 C149 C 0.48973 0.04312 0.34740
 C150 C 0.48690 0.04033 0.28739
 C151 C 0.46033 -0.00364 0.25180
 C152 C 0.43762 -0.04448 0.27708
 C153 C 0.45906 -0.00729 0.19130
 C154 C 0.48647 0.03065 0.16604
 C155 C 0.51307 0.07380 0.20166
 C156 C 0.51239 0.07935 0.26206
 H157 H 0.51008 0.07703 0.37450
 H158 H 0.41762 -0.07887 0.25040
 H159 H 0.43922 -0.04120 0.16355
 H160 H 0.53326 0.11303 0.28873
 H161 H 0.42822 -0.07708 0.35439
 H162 H 0.53430 0.10329 0.18262
 C163 C 0.55818 -0.34056 0.04977
 C164 C 0.52964 -0.37229 0.00388
 C165 C 0.50626 -0.34255 -0.03886
 C166 C 0.50897 -0.28276 -0.03485
 C167 C 0.53788 -0.25171 0.01115
 C168 C 0.56308 -0.28131 0.05275
 C169 C 0.53917 -0.19117 0.01569
 C170 C 0.50968 -0.16130 -0.02382
 C171 C 0.48095 -0.19258 -0.06913
 C172 C 0.48142 -0.25308 -0.07525
 H173 H 0.48523 -0.36596 -0.07547
 H174 H 0.58478 -0.25804 0.08881
 H175 H 0.56073 -0.16676 0.05120
 H176 H 0.45885 -0.27628 -0.11063
 H177 H 0.57471 -0.36055 0.08485
 H178 H 0.45810 -0.17004 -0.09985
 C179 C 0.45289 0.36592 -0.05100
 C180 C 0.47628 0.39614 -0.00062
 C181 C 0.49374 0.36572 0.04315
 C182 C 0.48984 0.30567 0.03602
 C183 C 0.46590 0.27574 -0.01460
 C184 C 0.44685 0.30656 -0.05749
 C185 C 0.46341 0.21509 -0.02225
 C186 C 0.48683 0.18391 0.01894
 C187 C 0.51067 0.21393 0.06884
 C188 C 0.51132 0.27456 0.07784
 H189 H 0.51179 0.38855 0.08220
 H190 H 0.42888 0.28429 -0.09681
 H191 H 0.44579 0.19160 -0.06124
 H192 H 0.53006 0.29675 0.11670
 H193 H 0.44012 0.38801 -0.08581
 H194 H 0.52898 0.19021 0.10081
 C195 C -0.35334 -0.03882 0.54935
 C196 C -0.38420 -0.00003 0.51788
 C197 C -0.35254 0.03403 0.49099
 C198 C -0.29205 0.02733 0.49252
 C199 C -0.26190 -0.01167 0.52414
 C200 C -0.29309 -0.04374 0.55326
 C201 C -0.20099 -0.01937 0.52425
 C202 C -0.17016 0.00947 0.49091
 C203 C -0.20056 0.04786 0.45943
 C204 C -0.26111 0.05759 0.46106
 H205 H -0.37495 0.06565 0.46798
 H206 H -0.27060 -0.07445 0.57714
 H207 H -0.17745 -0.04964 0.54802
 H208 H -0.28367 0.08747 0.43637
 H209 H -0.37510 -0.06764 0.56870
 H210 H -0.17733 0.07048 0.43369
 C211 C 0.34494 0.02998 0.43592
 C212 C 0.37844 -0.01190 0.46187
 C213 C 0.35168 -0.05484 0.47982
 C214 C 0.29210 -0.05472 0.47401
 C215 C 0.25890 -0.01268 0.44748
 C216 C 0.28594 0.02892 0.42781
 C217 C 0.19884 -0.01140 0.44345
 C218 C 0.17145 -0.04977 0.46804
 C219 C 0.20461 -0.09118 0.49446
 C220 C 0.26471 -0.09443 0.49645
 H221 H 0.37703 -0.08725 0.50006
 H222 H 0.26105 0.06191 0.40800
 H223 H 0.17290 0.02144 0.42413
 H224 H 0.28948 -0.12665 0.51728
 H225 H 0.36407 0.06442 0.42309
 H226 H 0.18381 -0.12064 0.51396
 C227 C -0.06450 0.48850 1.36765
 C228 C -0.01564 0.50488 1.39685
 C229 C 0.02683 0.52445 1.36669
 C230 C 0.02015 0.52811 1.30825
 C231 C -0.02814 0.50924 1.27885
 C232 C -0.07041 0.49004 1.30907
 C233 C -0.03299 0.50916 1.21949
 C234 C 0.00862 0.52971 1.18968
 C235 C 0.05496 0.55110 1.21956
 C236 C 0.06113 0.54962 1.27835
 H237 H 0.06500 0.53648 1.38860
 H238 H -0.10795 0.47604 1.28737
 H239 H -0.06905 0.49312 1.19637
 H240 H 0.09808 0.56483 1.30025
 H241 H -0.09788 0.47363 1.39017
 H242 H 0.08745 0.56693 1.19678
 C243 C 0.04726 0.41988 0.64646
 C244 C 0.00872 0.46594 0.63097
 C245 C -0.02583 0.50875 0.67482
 C246 C -0.02084 0.50715 0.73358
 C247 C 0.01773 0.46064 0.74922
 C248 C 0.05112 0.41675 0.70517
 C249 C 0.02317 0.46002 0.80861
 C250 C -0.00781 0.50664 0.85195
 C251 C -0.04573 0.55253 0.83567
 C252 C -0.05279 0.55242 0.77699
 H253 H -0.05568 0.54438 0.66307
 H254 H 0.08123 0.38099 0.71623
 H255 H 0.05276 0.42474 0.82116
 H256 H -0.08239 0.58836 0.76559
 H257 H 0.07492 0.38695 0.61329
 H258 H -0.07035 0.58844 0.86860
   
