data_POSCAR
  _audit_creation_date              2014-09-24
  _audit_creation_method            'ToBaCCo'
  _symmetry_space_group_name_H-M    'P1'
  _symmetry_Int_Tables_number       1
  _symmetry_cell_setting            triclinic
  loop_
  _symmetry_equiv_pos_as_xyz
 x,y,z
_cell_length_a 47.9846
_cell_length_b 51.1147
_cell_length_c 48.5889
_cell_angle_alpha 85.806000
_cell_angle_beta 95.244600
_cell_angle_gamma 94.279200
loop_
  _atom_site_label
  _atom_site_type_symbol
  _atom_site_fract_x
  _atom_site_fract_y
  _atom_site_fract_z
C1 C 0.22440 0.27833 0.27792
 C2 C 0.24332 0.29511 0.25872
 C3 C 0.25832 0.28058 0.24369
 C4 C 0.25314 0.25070 0.24910
 C5 C 0.20606 0.26005 0.25893
 C6 C 0.22120 0.24563 0.24390
 C7 C 0.24406 0.26033 0.29577
 C8 C 0.25905 0.24590 0.28060
 H9 H 0.24465 0.31648 0.25708
 H10 H 0.26541 0.23892 0.23681
 H11 H 0.18328 0.25854 0.25761
 H12 H 0.24576 0.25892 0.31828
 C13 C 0.72293 0.77706 0.27671
 C14 C 0.74190 0.79398 0.25767
 C15 C 0.75706 0.77957 0.24267
 C16 C 0.75199 0.74967 0.24796
 C17 C 0.70478 0.75877 0.25758
 C18 C 0.72008 0.74448 0.24258
 C19 C 0.74259 0.75908 0.29460
 C20 C 0.75775 0.74479 0.27947
 H21 H 0.74315 0.81534 0.25612
 H22 H 0.76441 0.73799 0.23569
 H23 H 0.68199 0.75716 0.25615
 H24 H 0.74419 0.75762 0.31711
 C25 C 0.72346 0.27794 0.77579
 C26 C 0.74149 0.29385 0.75772
 C27 C 0.75730 0.27859 0.74208
 C28 C 0.75232 0.25030 0.74725
 C29 C 0.70510 0.25952 0.75687
 C30 C 0.72035 0.24504 0.74194
 C31 C 0.74291 0.25982 0.79389
 C32 C 0.75800 0.24533 0.77882
 H33 H 0.74294 0.31523 0.75615
 H34 H 0.76464 0.23843 0.73507
 H35 H 0.68232 0.25795 0.75555
 H36 H 0.74445 0.25844 0.81640
 C37 C 0.22228 0.77781 0.77748
 C38 C 0.24109 0.79439 0.75802
 C39 C 0.25566 0.77967 0.74276
 C40 C 0.25019 0.74983 0.74823
 C41 C 0.20349 0.75967 0.75873
 C42 C 0.21818 0.74506 0.74346
 C43 C 0.24194 0.75962 0.79508
 C44 C 0.25650 0.74502 0.77969
 H45 H 0.24278 0.81575 0.75649
 H46 H 0.26210 0.73790 0.73575
 H47 H 0.18072 0.75835 0.75775
 H48 H 0.24404 0.75831 0.81759
 C49 C 0.04586 0.03631 0.00705
 H50 H 0.04576 0.03828 -0.01528
 C51 C 0.06290 0.05370 0.02321
 H52 H 0.07608 0.06907 0.01335
 C53 C 0.02827 0.01431 0.04724
 H54 H 0.01434 -0.00067 0.05652
 C55 C 0.04497 0.03129 0.06415
 H56 H 0.04407 0.02913 0.08640
 N57 N 0.02916 0.01697 0.01924
 C58 C 0.01292 -0.04269 -0.04122
 H59 H -0.00976 -0.04455 -0.04275
 C60 C 0.02760 -0.05834 -0.05646
 H61 H 0.01623 -0.07226 -0.06987
 C62 C 0.05556 -0.02252 -0.02162
 H63 H 0.06640 -0.00885 -0.00772
 C64 C 0.07105 -0.03781 -0.03648
 H65 H 0.09376 -0.03566 -0.03420
 Zn66 Zn 0.00554 -0.00485 -0.00422
 N67 N 0.02701 -0.02500 -0.02448
 C68 C -0.01681 0.01742 -0.05644
 N69 N -0.01668 0.01755 -0.02841
 C70 C -0.03178 0.03452 -0.01657
 C71 C -0.04842 0.05183 -0.03307
 C72 C -0.03319 0.03445 -0.07372
 C73 C -0.00490 -0.04688 0.03469
 C74 C -0.02089 -0.06463 0.05112
 C75 C -0.06274 -0.04520 0.03005
 C76 C -0.04598 -0.02780 0.01403
 N77 N -0.01757 -0.02864 0.01694
 H78 H -0.00416 0.00427 -0.06548
 H79 H -0.03093 0.03449 0.00576
 H80 H -0.06053 0.06514 -0.02346
 H81 H -0.03332 0.03418 -0.09600
 H82 H 0.01769 -0.04738 0.03627
 H83 H -0.01062 -0.07882 0.06551
 H84 H -0.08532 -0.04419 0.02787
 H85 H -0.05575 -0.01365 -0.00065
 C86 C 0.05692 -0.05580 -0.05412
 C87 C 0.06242 0.05115 0.05201
 C88 C -0.05006 -0.06364 0.04889
 C89 C -0.04919 0.05173 -0.06189
 C90 C 0.04421 0.53420 0.50773
 H91 H 0.04445 0.53639 0.48544
 C92 C 0.06089 0.55152 0.52429
 H93 H 0.07413 0.56706 0.51477
 C94 C 0.02606 0.51176 0.54743
 H95 H 0.01204 0.49665 0.55636
 C96 C 0.04239 0.52866 0.56472
 H97 H 0.04109 0.52630 0.58691
 N98 N 0.02738 0.51469 0.51949
 C99 C 0.01204 0.45569 0.45824
 H100 H -0.01065 0.45378 0.45646
 C101 C 0.02696 0.44025 0.44299
 H102 H 0.01576 0.42645 0.42932
 C103 C 0.05444 0.47575 0.47847
 H104 H 0.06509 0.48930 0.49261
 C105 C 0.07016 0.46068 0.46360
 H106 H 0.09286 0.46286 0.46614
 Zn107 Zn 0.00410 0.49307 0.49554
 N108 N 0.02590 0.47322 0.47530
 C109 C -0.01774 0.51584 0.44334
 N110 N -0.01791 0.51566 0.47136
 C111 C -0.03319 0.53247 0.48324
 C112 C -0.04968 0.54993 0.46677
 C113 C -0.03396 0.53301 0.42609
 C114 C -0.00668 0.45066 0.53388
 C115 C -0.02282 0.43279 0.55006
 C116 C -0.06452 0.45237 0.52884
 C117 C -0.04763 0.46988 0.51308
 N118 N -0.01921 0.46903 0.51620
 H119 H -0.00497 0.50280 0.43429
 H120 H -0.03258 0.53221 0.50557
 H121 H -0.06192 0.56312 0.47640
 H122 H -0.03385 0.53298 0.40381
 H123 H 0.01591 0.45016 0.53565
 H124 H -0.01266 0.41852 0.56443
 H125 H -0.08709 0.45342 0.52652
 H126 H -0.05727 0.48415 0.49845
 C127 C 0.05627 0.44284 0.44565
 C128 C 0.05992 0.54872 0.55303
 C129 C -0.05198 0.43381 0.54765
 C130 C -0.05013 0.55013 0.43794
 C131 C 0.54575 0.03393 0.50688
 H132 H 0.54564 0.03602 0.48455
 C133 C 0.56292 0.05115 0.52313
 H134 H 0.57618 0.06651 0.51334
 C135 C 0.52807 0.01184 0.54697
 H136 H 0.51406 -0.00311 0.55619
 C137 C 0.54490 0.02864 0.56397
 H138 H 0.54400 0.02638 0.58623
 N139 N 0.52894 0.01463 0.51897
 C140 C 0.51211 -0.04455 0.45805
 H141 H 0.48942 -0.04626 0.45654
 C142 C 0.52663 -0.06019 0.44263
 H143 H 0.51513 -0.07394 0.42911
 C144 C 0.55492 -0.02480 0.47776
 H145 H 0.56589 -0.01129 0.49176
 C146 C 0.57024 -0.04008 0.46272
 H147 H 0.59296 -0.03809 0.46498
 Zn148 Zn 0.50511 -0.00691 0.49539
 N149 N 0.52637 -0.02707 0.47492
 C150 C 0.48287 0.01586 0.44335
 N151 N 0.48305 0.01579 0.47139
 C152 C 0.46813 0.03279 0.48341
 C153 C 0.45162 0.05033 0.46707
 C154 C 0.46663 0.03311 0.42623
 C155 C 0.49441 -0.04907 0.53406
 C156 C 0.47832 -0.06679 0.55043
 C157 C 0.43662 -0.04697 0.52955
 C158 C 0.45347 -0.02962 0.51358
 N159 N 0.48187 -0.03067 0.51644
 H160 H 0.49538 0.00268 0.43418
 H161 H 0.46902 0.03260 0.50575
 H162 H 0.43966 0.06366 0.47682
 H163 H 0.46647 0.03299 0.40393
 H164 H 0.51698 -0.04973 0.53560
 H165 H 0.48849 -0.08111 0.56474
 H166 H 0.41406 -0.04579 0.52742
 H167 H 0.44381 -0.01533 0.49900
 C168 C 0.55596 -0.05786 0.44494
 C169 C 0.56245 0.04847 0.55193
 C170 C 0.44917 -0.06558 0.54827
 C171 C 0.45081 0.05043 0.43823
 C172 C 0.54555 0.53539 0.00502
 H173 H 0.54537 0.53739 -0.01732
 C174 C 0.56264 0.55277 0.02115
 H175 H 0.57577 0.56816 0.01126
 C176 C 0.52811 0.51334 0.04525
 H177 H 0.51423 0.49834 0.05457
 C178 C 0.54487 0.53030 0.06213
 H179 H 0.54403 0.52811 0.08439
 N180 N 0.52890 0.51602 0.01724
 C181 C 0.51245 0.45642 -0.04328
 H182 H 0.48976 0.45454 -0.04472
 C183 C 0.52708 0.44081 -0.05861
 H184 H 0.51567 0.42690 -0.07201
 C185 C 0.55513 0.47660 -0.02379
 H186 H 0.56601 0.49026 -0.00991
 C187 C 0.57057 0.46135 -0.03875
 H188 H 0.59328 0.46352 -0.03655
 Zn189 Zn 0.50520 0.49421 -0.00616
 N190 N 0.52659 0.47410 -0.02655
 C191 C 0.48260 0.51653 -0.05828
 N192 N 0.48289 0.51663 -0.03024
 C193 C 0.46787 0.53360 -0.01829
 C194 C 0.45116 0.55093 -0.03469
 C195 C 0.46616 0.53357 -0.07546
 C196 C 0.49494 0.45217 0.03278
 C197 C 0.47904 0.43447 0.04936
 C198 C 0.43711 0.45394 0.02852
 C199 C 0.45378 0.47128 0.01236
 N200 N 0.48219 0.47041 0.01509
 H201 H 0.49518 0.50337 -0.06740
 H202 H 0.46884 0.53356 0.00405
 H203 H 0.43913 0.56424 -0.02500
 H204 H 0.46591 0.53331 -0.09775
 H205 H 0.51753 0.45165 0.03423
 H206 H 0.48937 0.42030 0.06371
 H207 H 0.41454 0.45499 0.02650
 H208 H 0.44396 0.48543 -0.00227
 C209 C 0.55640 0.44337 -0.05637
 C210 C 0.56226 0.55019 0.04996
 C211 C 0.44988 0.43552 0.04733
 C212 C 0.45024 0.55085 -0.06352
 C213 C 0.20656 -0.20643 -0.20608
 C214 C 0.19361 -0.19345 -0.19263
 C215 C 0.17812 -0.17793 -0.17662
 C216 C 0.18819 -0.15228 -0.17108
 C217 C 0.17311 -0.13714 -0.15563
 C218 C 0.14771 -0.14747 -0.14552
 C219 C 0.13779 -0.17330 -0.15120
 C220 C 0.15292 -0.18841 -0.16664
 C221 C 0.13161 -0.13136 -0.12920
 C222 C 0.10216 -0.13196 -0.13343
 C223 C 0.08704 -0.11670 -0.11813
 C224 C 0.10110 -0.10068 -0.09842
 C225 C 0.13037 -0.09998 -0.09402
 C226 C 0.14555 -0.11520 -0.10930
 C227 C 0.08552 -0.08491 -0.08277
 C228 C 0.07248 -0.07166 -0.06969
 H229 H 0.20764 -0.14395 -0.17879
 H230 H 0.18111 -0.11722 -0.15192
 H231 H 0.11851 -0.18193 -0.14341
 H232 H 0.14497 -0.20827 -0.17076
 H233 H 0.09086 -0.14392 -0.14884
 H234 H 0.06439 -0.11733 -0.12176
 H235 H 0.14146 -0.08770 -0.07875
 H236 H 0.16815 -0.11458 -0.10531
 C237 C 0.20824 0.29392 0.29412
 C238 C 0.19499 0.30678 0.30741
 C239 C 0.17921 0.32219 0.32324
 C240 C 0.16356 0.30996 0.34410
 C241 C 0.14821 0.32493 0.35948
 C242 C 0.14835 0.35238 0.35421
 C243 C 0.16417 0.36448 0.33319
 C244 C 0.17948 0.34947 0.31782
 C245 C 0.13207 0.36832 0.37053
 C246 C 0.14339 0.39285 0.37925
 C247 C 0.12801 0.40787 0.39455
 C248 C 0.10115 0.39861 0.40133
 C249 C 0.08971 0.37423 0.39278
 C250 C 0.10505 0.35916 0.37750
 C251 C 0.08532 0.41414 0.41699
 C252 C 0.07207 0.42720 0.43007
 H253 H 0.16327 0.28886 0.34851
 H254 H 0.13654 0.31508 0.37575
 H255 H 0.16441 0.38552 0.32838
 H256 H 0.19146 0.35913 0.30167
 H257 H 0.16426 0.40028 0.37453
 H258 H 0.13710 0.42669 0.40113
 H259 H 0.06890 0.36691 0.39786
 H260 H 0.09562 0.34053 0.37079
 C261 C 0.70659 -0.20749 0.29288
 C262 C 0.69322 -0.19472 0.30614
 C263 C 0.67730 -0.17941 0.32194
 C264 C 0.68076 -0.18162 0.35091
 C265 C 0.66543 -0.16661 0.36627
 C266 C 0.64644 -0.14916 0.35283
 C267 C 0.64309 -0.14712 0.32369
 C268 C 0.65842 -0.16216 0.30837
 C269 C 0.63027 -0.13307 0.36912
 C270 C 0.62614 -0.10665 0.36053
 C271 C 0.61101 -0.09149 0.37592
 C272 C 0.59979 -0.10252 0.40007
 C273 C 0.60375 -0.12879 0.40879
 C274 C 0.61890 -0.14398 0.39344
 C275 C 0.58429 -0.08686 0.41592
 C276 C 0.57135 -0.07367 0.42917
 H277 H 0.69539 -0.19485 0.36162
 H278 H 0.66875 -0.16837 0.38865
 H279 H 0.62837 -0.13412 0.31275
 H280 H 0.65553 -0.16034 0.28595
 H281 H 0.63495 -0.09758 0.34212
 H282 H 0.60814 -0.07115 0.36903
 H283 H 0.59509 -0.13754 0.42742
 H284 H 0.62141 -0.16435 0.40040
 C285 C 0.70721 0.29357 -0.20810
 C286 C 0.69394 0.30647 -0.19487
 C287 C 0.67817 0.32195 -0.17909
 C288 C 0.65693 0.30983 -0.16371
 C289 C 0.64165 0.32487 -0.14834
 C290 C 0.64745 0.35226 -0.14813
 C291 C 0.66885 0.36424 -0.16368
 C292 C 0.68409 0.34917 -0.17905
 C293 C 0.63128 0.36827 -0.13177
 C294 C 0.64486 0.38888 -0.11687
 C295 C 0.62962 0.40398 -0.10153
 C296 C 0.60064 0.39873 -0.10088
 C297 C 0.58693 0.37827 -0.11560
 C298 C 0.60213 0.36312 -0.13094
 C299 C 0.58498 0.41438 -0.08518
 C300 C 0.57192 0.42756 -0.07204
 H301 H 0.65223 0.28876 -0.16354
 H302 H 0.62555 0.31503 -0.13631
 H303 H 0.67357 0.38531 -0.16425
 H304 H 0.70044 0.35875 -0.19095
 H305 H 0.66731 0.39310 -0.11679
 H306 H 0.64044 0.41973 -0.09015
 H307 H 0.56449 0.37408 -0.11530
 H308 H 0.59103 0.34762 -0.14246
 C309 C -0.22275 0.22682 -0.20841
 C310 C -0.20676 0.21136 -0.19740
 C311 C -0.18782 0.19298 -0.18385
 C312 C -0.19194 0.16624 -0.18860
 C313 C -0.17404 0.14828 -0.17474
 C314 C -0.15177 0.15685 -0.15591
 C315 C -0.14766 0.18382 -0.15149
 C316 C -0.16559 0.20174 -0.16536
 C317 C -0.13326 0.13773 -0.14050
 C318 C -0.10420 0.14391 -0.13591
 C319 C -0.08696 0.12619 -0.12066
 C320 C -0.09849 0.10209 -0.10983
 C321 C -0.12731 0.09565 -0.11449
 C322 C -0.14459 0.11332 -0.12974
 C323 C -0.08091 0.08424 -0.09333
 C324 C -0.06636 0.06937 -0.07918
 H325 H -0.20907 0.15925 -0.20290
 H326 H -0.17754 0.12770 -0.17884
 H327 H -0.13096 0.19100 -0.13686
 H328 H -0.16229 0.22239 -0.16143
 H329 H -0.09480 0.16239 -0.14421
 H330 H -0.06466 0.13136 -0.11719
 H331 H -0.13648 0.07710 -0.10608
 H332 H -0.16691 0.10814 -0.13259
 C333 C -0.22293 0.72630 0.29218
 C334 C -0.20691 0.71085 0.30312
 C335 C -0.18797 0.69243 0.31660
 C336 C -0.19126 0.66593 0.31068
 C337 C -0.17340 0.64789 0.32445
 C338 C -0.15199 0.65614 0.34435
 C339 C -0.14871 0.68287 0.34995
 C340 C -0.16660 0.70087 0.33617
 C341 C -0.13355 0.63689 0.35964
 C342 C -0.10471 0.64347 0.36550
 C343 C -0.08757 0.62561 0.38065
 C344 C -0.09899 0.60096 0.39014
 C345 C -0.12757 0.59413 0.38420
 C346 C -0.14475 0.61194 0.36904
 C347 C -0.08156 0.58294 0.40657
 C348 C -0.06713 0.56793 0.42069
 H349 H -0.20772 0.65920 0.29554
 H350 H -0.17624 0.62751 0.31943
 H351 H -0.13270 0.68977 0.36542
 H352 H -0.16395 0.72131 0.34101
 H353 H -0.09540 0.66238 0.35826
 H354 H -0.06546 0.63109 0.38511
 H355 H -0.13666 0.57514 0.39156
 H356 H -0.16692 0.60642 0.36521
 C357 C 0.27829 0.22734 0.29327
 C358 C 0.29425 0.21181 0.30417
 C359 C 0.31312 0.19329 0.31759
 C360 C 0.30943 0.16674 0.31195
 C361 C 0.32723 0.14861 0.32566
 C362 C 0.34899 0.15684 0.34521
 C363 C 0.35268 0.18363 0.35053
 C364 C 0.33484 0.20171 0.33682
 C365 C 0.36739 0.13752 0.36044
 C366 C 0.39633 0.14386 0.36585
 C367 C 0.41346 0.12594 0.38092
 C368 C 0.40192 0.10146 0.39077
 C369 C 0.37322 0.09487 0.38529
 C370 C 0.35605 0.11275 0.37021
 C371 C 0.41935 0.08337 0.40709
 C372 C 0.43379 0.06830 0.42111
 H373 H 0.29270 0.16002 0.29708
 H374 H 0.32408 0.12819 0.32087
 H375 H 0.36896 0.19053 0.36574
 H376 H 0.33780 0.22220 0.34143
 H377 H 0.40574 0.16263 0.35831
 H378 H 0.43566 0.13123 0.38502
 H379 H 0.36404 0.07603 0.39293
 H380 H 0.33381 0.10743 0.36673
 C381 C 0.27586 0.72644 -0.20790
 C382 C 0.29194 0.71094 -0.19718
 C383 C 0.31098 0.69248 -0.18394
 C384 C 0.30655 0.66573 -0.18856
 C385 C 0.32453 0.64769 -0.17496
 C386 C 0.34719 0.65621 -0.15654
 C387 C 0.35161 0.68319 -0.15227
 C388 C 0.33360 0.70118 -0.16587
 C389 C 0.36577 0.63701 -0.14137
 C390 C 0.39490 0.64301 -0.13729
 C391 C 0.41223 0.62525 -0.12224
 C392 C 0.40070 0.60127 -0.11109
 C393 C 0.37181 0.59500 -0.11526
 C394 C 0.35444 0.61272 -0.13031
 C395 C 0.41837 0.58339 -0.09475
 C396 C 0.43300 0.56850 -0.08070
 H397 H 0.28912 0.65879 -0.20253
 H398 H 0.32078 0.62710 -0.17894
 H399 H 0.36861 0.69033 -0.13794
 H400 H 0.33714 0.72184 -0.16205
 H401 H 0.40429 0.66140 -0.14583
 H402 H 0.43458 0.63028 -0.11915
 H403 H 0.36265 0.57654 -0.10660
 H404 H 0.33208 0.60767 -0.13276
 C405 C -0.22396 -0.20839 0.22338
 C406 C -0.20822 -0.19790 0.20733
 C407 C -0.18960 -0.18487 0.18829
 C408 C -0.20049 -0.17015 0.16488
 C409 C -0.18244 -0.15663 0.14689
 C410 C -0.15319 -0.15761 0.15210
 C411 C -0.14245 -0.17271 0.17554
 C412 C -0.16055 -0.18624 0.19350
 C413 C -0.13401 -0.14239 0.13355
 C414 C -0.10946 -0.12877 0.14467
 C415 C -0.09196 -0.11360 0.12731
 C416 C -0.09872 -0.11186 0.09863
 C417 C -0.12289 -0.12559 0.08733
 C418 C -0.14043 -0.14077 0.10466
 C419 C -0.08132 -0.09533 0.08093
 C420 C -0.06695 -0.08109 0.06624
 H421 H -0.22294 -0.16886 0.16073
 H422 H -0.19135 -0.14489 0.12926
 H423 H -0.12006 -0.17411 0.17993
 H424 H -0.15190 -0.19759 0.21156
 H425 H -0.10413 -0.12931 0.16683
 H426 H -0.07337 -0.10293 0.13628
 H427 H -0.12831 -0.12440 0.06516
 H428 H -0.15899 -0.15129 0.09545
 C429 C -0.22453 0.28985 0.72395
 C430 C -0.20857 0.30019 0.70802
 C431 C -0.18966 0.31305 0.68915
 C432 C -0.16562 0.32768 0.69936
 C433 C -0.14780 0.34109 0.68107
 C434 C -0.15383 0.34007 0.65225
 C435 C -0.17789 0.32504 0.64220
 C436 C -0.19568 0.31163 0.66055
 C437 C -0.13550 0.35520 0.63282
 C438 C -0.14729 0.36884 0.60886
 C439 C -0.13012 0.38394 0.59114
 C440 C -0.10098 0.38560 0.59706
 C441 C -0.08902 0.37186 0.62065
 C442 C -0.10615 0.35674 0.63842
 C443 C -0.08348 0.40210 0.57943
 C444 C -0.06901 0.41633 0.56483
 H445 H -0.16085 0.32902 0.72147
 H446 H -0.12968 0.35277 0.68945
 H447 H -0.18292 0.32361 0.62015
 H448 H -0.21424 0.30034 0.65242
 H449 H -0.16981 0.36835 0.60418
 H450 H -0.13961 0.39462 0.57301
 H451 H -0.06648 0.37300 0.62543
 H452 H -0.09643 0.34622 0.65651
 C453 C 0.27460 -0.20863 0.72328
 C454 C 0.29036 -0.19841 0.70709
 C455 C 0.30904 -0.18568 0.68794
 C456 C 0.33807 -0.18705 0.69327
 C457 C 0.35625 -0.17374 0.67524
 C458 C 0.34560 -0.15885 0.65162
 C459 C 0.31636 -0.15788 0.64627
 C460 C 0.29823 -0.17119 0.66433
 C461 C 0.36486 -0.14380 0.63303
 C462 C 0.35856 -0.14241 0.60412
 C463 C 0.37617 -0.12737 0.58676
 C464 C 0.40029 -0.11354 0.59804
 C465 C 0.40692 -0.11504 0.62673
 C466 C 0.38936 -0.13008 0.64413
 C467 C 0.41776 -0.09712 0.58030
 C468 C 0.43219 -0.08296 0.56560
 H469 H 0.34666 -0.19823 0.71149
 H470 H 0.37863 -0.17513 0.67974
 H471 H 0.30751 -0.14631 0.62848
 H472 H 0.27579 -0.16989 0.66008
 H473 H 0.34005 -0.15300 0.59493
 H474 H 0.37085 -0.12634 0.56457
 H475 H 0.42547 -0.10430 0.63569
 H476 H 0.39459 -0.13044 0.66630
 C477 C 0.27716 0.29247 0.22420
 C478 C 0.29278 0.30282 0.20795
 C479 C 0.31125 0.31568 0.18867
 C480 C 0.30023 0.33054 0.16543
 C481 C 0.31815 0.34387 0.14718
 C482 C 0.34740 0.34255 0.15198
 C483 C 0.35826 0.32732 0.17526
 C484 C 0.34028 0.31398 0.19348
 C485 C 0.36646 0.35754 0.13315
 C486 C 0.39133 0.37089 0.14394
 C487 C 0.40871 0.38588 0.12632
 C488 C 0.40153 0.38769 0.09772
 C489 C 0.37704 0.37422 0.08673
 C490 C 0.35961 0.35923 0.10431
 C491 C 0.41882 0.40406 0.07977
 C492 C 0.43309 0.41818 0.06489
 H493 H 0.27779 0.33209 0.16159
 H494 H 0.30916 0.35572 0.12968
 H495 H 0.38065 0.32565 0.17933
 H496 H 0.34903 0.30251 0.21140
 H497 H 0.39699 0.37029 0.16605
 H498 H 0.42755 0.39634 0.13506
 H499 H 0.37129 0.37548 0.06461
 H500 H 0.34080 0.34892 0.09535
 C501 C 0.20814 0.22701 0.22501
 C502 C 0.19696 0.21145 0.20931
 C503 C 0.18327 0.19291 0.19071
 C504 C 0.17501 0.16744 0.20079
 C505 C 0.16103 0.14962 0.18290
 C506 C 0.15508 0.15707 0.15463
 C507 C 0.16367 0.18268 0.14466
 C508 C 0.17768 0.20046 0.16259
 C509 C 0.13953 0.13838 0.13577
 C510 C 0.11861 0.14706 0.11569
 C511 C 0.10350 0.12936 0.09838
 C512 C 0.10908 0.10277 0.10086
 C513 C 0.12998 0.09396 0.12062
 C514 C 0.14512 0.11163 0.13798
 C515 C 0.09299 0.08449 0.08349
 C516 C 0.07921 0.06925 0.06907
 H517 H 0.17914 0.16143 0.22255
 H518 H 0.15436 0.13018 0.19128
 H519 H 0.15972 0.18890 0.12295
 H520 H 0.18402 0.22013 0.15456
 H521 H 0.11354 0.16744 0.11374
 H522 H 0.08728 0.13637 0.08323
 H523 H 0.13450 0.07342 0.12269
 H524 H 0.16131 0.10440 0.15299
 C525 C 0.20459 0.72647 0.72482
 C526 C 0.19284 0.71097 0.70938
 C527 C 0.17832 0.69252 0.69114
 C528 C 0.19301 0.67380 0.67989
 C529 C 0.17872 0.65569 0.66246
 C530 C 0.14953 0.65607 0.65613
 C531 C 0.13502 0.67506 0.66747
 C532 C 0.14933 0.69314 0.68485
 C533 C 0.13421 0.63669 0.63791
 C534 C 0.10781 0.62510 0.64416
 C535 C 0.09321 0.60708 0.62690
 C536 C 0.10477 0.60037 0.60317
 C537 C 0.13107 0.61168 0.59681
 C538 C 0.14573 0.62971 0.61408
 C539 C 0.08942 0.58207 0.58529
 C540 C 0.07618 0.56682 0.57048
 H541 H 0.21545 0.67310 0.68470
 H542 H 0.19043 0.64113 0.65432
 H543 H 0.11263 0.67611 0.66267
 H544 H 0.13778 0.70760 0.69339
 H545 H 0.09857 0.62977 0.66256
 H546 H 0.07290 0.59838 0.63205
 H547 H 0.14016 0.60668 0.57844
 H548 H 0.16586 0.63852 0.60854
 C549 C 0.70742 0.22626 0.72317
 C550 C 0.69633 0.21058 0.70755
 C551 C 0.68274 0.19192 0.68904
 C552 C 0.66457 0.20043 0.66654
 C553 C 0.65075 0.18226 0.64894
 C554 C 0.65491 0.15528 0.65365
 C555 C 0.67340 0.14694 0.67622
 C556 C 0.68721 0.16516 0.69378
 C557 C 0.63963 0.13591 0.63539
 C558 C 0.62829 0.11173 0.64671
 C559 C 0.61325 0.09379 0.62961
 C560 C 0.60938 0.09973 0.60101
 C561 C 0.62077 0.12362 0.58951
 C562 C 0.63580 0.14160 0.60657
 C563 C 0.59320 0.08156 0.58357
 C564 C 0.57935 0.06642 0.56908
 H565 H 0.66087 0.22109 0.66275
 H566 H 0.63637 0.18926 0.63199
 H567 H 0.67730 0.12636 0.68018
 H568 H 0.70127 0.15836 0.71112
 H569 H 0.63053 0.10692 0.66883
 H570 H 0.60441 0.07540 0.63874
 H571 H 0.61793 0.12840 0.56738
 H572 H 0.64457 0.15989 0.59720
 C573 C 0.70722 0.72586 0.22361
 C574 C 0.69619 0.71029 0.20784
 C575 C 0.68265 0.69175 0.18915
 C576 C 0.67347 0.66657 0.19934
 C577 C 0.65963 0.64876 0.18135
 C578 C 0.65473 0.65593 0.15289
 C579 C 0.66425 0.68124 0.14283
 C580 C 0.67811 0.69901 0.16086
 C581 C 0.63931 0.63727 0.13392
 C582 C 0.61920 0.64615 0.11309
 C583 C 0.60415 0.62849 0.09570
 C584 C 0.60899 0.60173 0.09884
 C585 C 0.62910 0.59272 0.11933
 C586 C 0.64418 0.61035 0.13676
 C587 C 0.59289 0.58349 0.08143
 C588 C 0.57909 0.56827 0.06700
 H589 H 0.67678 0.66078 0.22123
 H590 H 0.65223 0.62957 0.18980
 H591 H 0.66112 0.68723 0.12099
 H592 H 0.68517 0.71845 0.15275
 H593 H 0.61469 0.66668 0.11062
 H594 H 0.58854 0.63566 0.07999
 H595 H 0.63304 0.57204 0.12192
 H596 H 0.65975 0.60296 0.15236
   
