data_POSCAR
  _audit_creation_date              2014-09-24
  _audit_creation_method            'ToBaCCo'
  _symmetry_space_group_name_H-M    'P1'
  _symmetry_Int_Tables_number       1
  _symmetry_cell_setting            triclinic
  loop_
  _symmetry_equiv_pos_as_xyz
 x,y,z
_cell_length_a 40.9118
_cell_length_b 40.8704
_cell_length_c 40.8692
_cell_angle_alpha 81.102600
_cell_angle_beta 96.233000
_cell_angle_gamma 97.120800
loop_
  _atom_site_label
  _atom_site_type_symbol
  _atom_site_fract_x
  _atom_site_fract_y
  _atom_site_fract_z
C1 C 0.58034 0.52985 -0.00027
 C2 C 0.57302 0.56241 0.00051
 C3 C 0.54044 0.57070 -0.00192
 C4 C 0.51392 0.54531 -0.00649
 C5 C 0.52053 0.51179 -0.00497
 C6 C 0.55373 0.50393 -0.00150
 C7 C 0.55928 0.47016 0.00231
 C8 C 0.53325 0.44515 -0.00046
 C9 C 0.50033 0.45256 -0.00556
 C10 C 0.49378 0.48606 -0.00732
 C11 C 0.48116 0.55281 -0.01517
 C12 C 0.45518 0.52780 -0.01797
 C13 C 0.46058 0.49400 -0.01202
 C14 C 0.43387 0.46814 -0.01345
 C15 C 0.44128 0.43547 -0.01354
 C16 C 0.47380 0.42738 -0.00940
 H17 H 0.58384 0.46246 0.00790
 H18 H 0.53934 0.41987 0.00152
 H19 H 0.47524 0.57824 -0.02091
 H20 H 0.43082 0.53543 -0.02574
 H21 H 0.59328 0.58192 0.00283
 H22 H 0.42149 0.41528 -0.01456
 C23 C -0.00865 0.57066 0.46259
 C24 C -0.00786 0.56406 0.43017
 C25 C -0.00480 0.53197 0.42327
 C26 C -0.00436 0.50516 0.45016
 C27 C -0.00472 0.51169 0.48330
 C28 C -0.00654 0.54457 0.48952
 C29 C -0.00606 0.55058 0.52254
 C30 C -0.00460 0.52475 0.54895
 C31 C -0.00318 0.49188 0.54348
 C32 C -0.00366 0.48519 0.51035
 C33 C -0.00570 0.47175 0.44481
 C34 C -0.00446 0.44590 0.47123
 C35 C -0.00335 0.45203 0.50421
 C36 C -0.00210 0.42585 0.53124
 C37 C -0.00126 0.43291 0.56372
 C38 C -0.00187 0.46540 0.57022
 H39 H -0.00676 0.57539 0.52840
 H40 H -0.00486 0.53089 0.57372
 H41 H -0.00847 0.46492 0.42009
 H42 H -0.00464 0.42095 0.46538
 H43 H -0.00813 0.58485 0.41015
 H44 H -0.00029 0.41272 0.58432
 C45 C 0.52827 0.01857 0.57345
 C46 C 0.56090 0.02111 0.56480
 C47 C 0.56829 0.01730 0.53293
 C48 C 0.54184 0.01398 0.50760
 C49 C 0.50860 0.01226 0.51542
 C50 C 0.50172 0.01465 0.54827
 C51 C 0.46860 0.01557 0.55433
 C52 C 0.44278 0.01161 0.52971
 C53 C 0.44895 0.00839 0.49733
 C54 C 0.48214 0.00908 0.48997
 C55 C 0.54778 0.01507 0.47411
 C56 C 0.52197 0.01121 0.44951
 C57 C 0.48894 0.00727 0.45702
 C58 C 0.46252 0.00307 0.43209
 C59 C 0.42995 0.00186 0.43996
 C60 C 0.42282 0.00490 0.47196
 H61 H 0.46209 0.02017 0.57800
 H62 H 0.41789 0.01158 0.53634
 H63 H 0.57251 0.01981 0.46622
 H64 H 0.52828 0.01217 0.42433
 H65 H 0.58098 0.02236 0.58437
 H66 H 0.40979 -0.00109 0.42072
 O67 O 0.47598 -0.00510 -0.04289
 O68 O 0.47167 -0.01318 0.04749
 O69 O 0.47193 0.03608 -0.00109
 O70 O 0.47643 -0.05430 0.00580
 O71 O 0.53084 -0.04572 0.01331
 O72 O 0.52636 0.04447 0.00624
 O73 O 0.52608 -0.00459 0.05498
 O74 O 0.53041 0.00331 -0.03556
 Cu75 Cu 0.46855 -0.00999 0.00159
 Cu76 Cu 0.53387 0.00019 0.01048
 C77 C 0.50391 0.00039 -0.05473
 C78 C 0.49808 -0.01006 0.06671
 C79 C 0.49840 0.05574 0.00153
 C80 C 0.50447 -0.06547 0.01062
 O81 O -0.03294 0.52914 0.99103
 O82 O 0.05700 0.52550 0.99551
 O83 O 0.00892 0.52493 0.94851
 O84 O 0.01526 0.52997 1.03816
 O85 O 0.00731 0.47515 1.04893
 O86 O 0.00101 0.47011 0.95924
 O87 O 0.04905 0.47068 1.00629
 O88 O -0.04084 0.47432 1.00176
 Cu89 Cu 0.01284 0.53288 0.99227
 Cu90 Cu 0.00333 0.46708 1.00517
 C91 C -0.05230 0.50235 0.99566
 C92 C 0.06841 0.49743 1.00142
 C93 C 0.00406 0.49665 0.93851
 C94 C 0.01226 0.50345 1.05891
 O95 O -0.01491 -0.04246 0.47068
 O96 O -0.00756 0.04722 0.47596
 O97 O 0.03388 0.00489 0.47163
 O98 O -0.05615 -0.00002 0.47555
 O99 O -0.04902 -0.01099 0.53026
 O100 O 0.04089 -0.00596 0.52634
 O101 O -0.00055 0.03640 0.53067
 O102 O -0.00778 -0.05343 0.52537
 Cu103 Cu -0.01187 0.00345 0.46797
 Cu104 Cu -0.00339 -0.00963 0.53364
 C105 C -0.01252 -0.06332 0.49708
 C106 C -0.00302 0.05718 0.50421
 C107 C 0.05281 0.00030 0.49833
 C108 C -0.06798 -0.00609 0.50363
 C109 C -0.34298 0.50249 0.97495
 C110 C -0.31866 0.51761 0.99626
 C111 C -0.32781 0.53642 1.01890
 C112 C -0.36109 0.54015 1.02029
 C113 C -0.38603 0.52471 0.99930
 C114 C -0.37635 0.50613 0.97629
 C115 C -0.28424 0.51436 0.99470
 C116 C -0.25526 0.51209 0.99373
 C117 C -0.22119 0.50988 0.99299
 C118 C -0.19199 0.50830 0.99267
 C119 C -0.15702 0.50672 0.99265
 C120 C -0.13560 0.53607 0.98700
 C121 C -0.10155 0.53468 0.98774
 C122 C -0.08844 0.50383 0.99419
 C123 C -0.11021 0.47443 0.99963
 C124 C -0.14427 0.47590 0.99888
 H125 H -0.33614 0.48824 0.95699
 H126 H -0.30917 0.54829 1.03549
 H127 H -0.36734 0.55450 1.03845
 H128 H -0.39448 0.49527 0.95857
 H129 H -0.14520 0.56007 0.98220
 H130 H -0.08549 0.55776 0.98345
 H131 H -0.10094 0.45029 1.00467
 H132 H -0.16062 0.45302 1.00334
 C133 C 0.35791 0.49725 1.01091
 C134 C 0.33312 0.48068 0.99124
 C135 C 0.34168 0.46035 0.96969
 C136 C 0.37487 0.45652 0.96780
 C137 C 0.40028 0.47337 0.98719
 C138 C 0.39114 0.49353 1.00907
 C139 C 0.29886 0.48396 0.99361
 C140 C 0.27008 0.48638 0.99556
 C141 C 0.23629 0.48885 0.99770
 C142 C 0.20734 0.49068 0.99933
 C143 C 0.17265 0.49252 1.00096
 C144 C 0.15126 0.46328 1.00752
 C145 C 0.11740 0.46489 1.00811
 C146 C 0.10445 0.49582 1.00210
 C147 C 0.12623 0.52511 0.99590
 C148 C 0.16010 0.52343 0.99531
 H149 H 0.35153 0.51268 1.02805
 H150 H 0.32267 0.44734 0.95438
 H151 H 0.38065 0.44095 0.95052
 H152 H 0.40960 0.50551 1.02572
 H153 H 0.16071 0.43921 1.01189
 H154 H 0.10133 0.44188 1.01295
 H155 H 0.11707 0.54931 0.99116
 H156 H 0.17643 0.54622 0.99018
 C157 C 0.01353 -0.33684 0.46335
 C158 C -0.01466 -0.32807 0.47503
 C159 C -0.04098 -0.35247 0.48267
 C160 C -0.03907 -0.38556 0.47871
 C161 C -0.01073 -0.39447 0.46726
 C162 C 0.01546 -0.36988 0.45940
 C163 C -0.01647 -0.29396 0.47894
 C164 C -0.01750 -0.26525 0.48196
 C165 C -0.01815 -0.23146 0.48517
 C166 C -0.01826 -0.20246 0.48761
 C167 C -0.01787 -0.16768 0.49015
 C168 C -0.01313 -0.15681 0.52132
 C169 C -0.01170 -0.12287 0.52366
 C170 C -0.01496 -0.09936 0.49478
 C171 C -0.02002 -0.11060 0.46357
 C172 C -0.02144 -0.14453 0.46131
 H173 H 0.03398 -0.31814 0.45728
 H174 H -0.06294 -0.34593 0.49161
 H175 H -0.05961 -0.40422 0.48454
 H176 H 0.03739 -0.37634 0.45034
 H177 H -0.01027 -0.17452 0.54380
 H178 H -0.00778 -0.11504 0.54804
 H179 H -0.02263 -0.09318 0.44086
 H180 H -0.02506 -0.15268 0.43705
 C181 C -0.02896 0.33929 0.50926
 C182 C -0.00061 0.32336 0.52069
 C183 C 0.02730 0.34109 0.53519
 C184 C 0.02686 0.37460 0.53831
 C185 C -0.00143 0.39071 0.52678
 C186 C -0.02942 0.37282 0.51238
 C187 C -0.00027 0.28871 0.51803
 C188 C 0.00008 0.25965 0.51604
 C189 C 0.00045 0.22557 0.51391
 C190 C 0.00063 0.19642 0.51220
 C191 C 0.00059 0.16158 0.51019
 C192 C 0.00408 0.13870 0.53925
 C193 C 0.00327 0.10474 0.53735
 C194 C -0.00106 0.09323 0.50628
 C195 C -0.00424 0.11649 0.47718
 C196 C -0.00343 0.15042 0.47916
 H197 H -0.05073 0.32575 0.49814
 H198 H 0.04930 0.32898 0.54423
 H199 H 0.04853 0.38801 0.54975
 H200 H -0.05157 0.38482 0.50377
 H201 H 0.00719 0.14709 0.56340
 H202 H 0.00577 0.08751 0.56020
 H203 H -0.00762 0.10846 0.45289
 H204 H -0.00616 0.16793 0.45651
 C205 C 0.54020 0.03931 -0.33984
 C206 C 0.51777 0.01504 -0.32392
 C207 C 0.49845 -0.00791 -0.34204
 C208 C 0.50150 -0.00657 -0.37600
 C209 C 0.52367 0.01810 -0.39256
 C210 C 0.54334 0.04070 -0.37374
 C211 C 0.51518 0.01330 -0.28883
 C212 C 0.51336 0.01194 -0.25940
 C213 C 0.51155 0.01038 -0.22489
 C214 C 0.51016 0.00902 -0.19539
 C215 C 0.50860 0.00728 -0.16013
 C216 C 0.47795 0.00175 -0.14685
 C217 C 0.47640 -0.00031 -0.11257
 C218 C 0.50555 0.00314 -0.09110
 C219 C 0.53624 0.00884 -0.10472
 C220 C 0.53772 0.01089 -0.13902
 H221 H 0.55540 0.05710 -0.32601
 H222 H 0.48138 -0.02716 -0.32984
 H223 H 0.48729 -0.02557 -0.38902
 H224 H 0.56076 0.05996 -0.38542
 H225 H 0.45525 -0.00108 -0.16297
 H226 H 0.45238 -0.00473 -0.10290
 H227 H 0.55913 0.01159 -0.08889
 H228 H 0.56158 0.01518 -0.14904
 C229 C 0.48703 -0.02976 0.35748
 C230 C 0.47648 -0.00578 0.33144
 C231 C 0.46148 0.02106 0.33838
 C232 C 0.45709 0.02397 0.37119
 C233 C 0.46782 0.00015 0.39742
 C234 C 0.48263 -0.02688 0.39034
 C235 C 0.48071 -0.00868 0.29754
 C236 C 0.48390 -0.01065 0.26896
 C237 C 0.48719 -0.01239 0.23527
 C238 C 0.48960 -0.01339 0.20632
 C239 C 0.49196 -0.01398 0.17153
 C240 C 0.46318 -0.01893 0.15024
 C241 C 0.46520 -0.01813 0.11620
 C242 C 0.49610 -0.01231 0.10298
 C243 C 0.52494 -0.00780 0.12466
 C244 C 0.52285 -0.00860 0.15872
 H245 H 0.49853 -0.05070 0.35237
 H246 H 0.45314 0.03970 0.31842
 H247 H 0.44543 0.04484 0.37621
 H248 H 0.49067 -0.04569 0.41026
 H249 H 0.43914 -0.02305 0.15989
 H250 H 0.44253 -0.02170 0.10022
 H251 H 0.54909 -0.00325 0.11528
 H252 H 0.54528 -0.00467 0.17498
 C253 C 0.55109 -0.33615 -0.01202
 C254 C 0.52707 -0.32992 0.00739
 C255 C 0.50758 -0.35657 0.02398
 C256 C 0.51189 -0.38935 0.02093
 C257 C 0.53556 -0.39607 0.00086
 C258 C 0.55549 -0.36885 -0.01510
 C259 C 0.52254 -0.29610 0.01011
 C260 C 0.51916 -0.26756 0.01187
 C261 C 0.51571 -0.23389 0.01335
 C262 C 0.51320 -0.20495 0.01413
 C263 C 0.51078 -0.17017 0.01450
 C264 C 0.47986 -0.15797 0.00967
 C265 C 0.47771 -0.12395 0.00881
 C266 C 0.50652 -0.10167 0.01271
 C267 C 0.53745 -0.11427 0.01790
 C268 C 0.53952 -0.14827 0.01877
 H269 H 0.56635 -0.31569 -0.02496
 H270 H 0.48918 -0.35203 0.03943
 H271 H 0.49718 -0.40949 0.03493
 H272 H 0.57380 -0.37272 -0.03097
 H273 H 0.45745 -0.17470 0.00627
 H274 H 0.45353 -0.11506 0.00475
 H275 H 0.56009 -0.09783 0.02100
 H276 H 0.56359 -0.15744 0.02245
 C277 C 0.47374 0.34308 -0.03665
 C278 C 0.48479 0.32404 -0.00693
 C279 C 0.49289 0.33900 0.02194
 C280 C 0.48978 0.37283 0.02111
 C281 C 0.47876 0.39199 -0.00866
 C282 C 0.47063 0.37688 -0.03750
 C283 C 0.48716 0.28905 -0.00599
 C284 C 0.48884 0.25971 -0.00533
 C285 C 0.49057 0.22532 -0.00464
 C286 C 0.49194 0.19593 -0.00403
 C287 C 0.49354 0.16082 -0.00318
 C288 C 0.52422 0.14817 0.00131
 C289 C 0.52582 0.11401 0.00260
 C290 C 0.49670 0.09202 -0.00058
 C291 C 0.46597 0.10501 -0.00528
 C292 C 0.46444 0.13919 -0.00656
 H293 H 0.46727 0.33174 -0.05909
 H294 H 0.50130 0.32446 0.04510
 H295 H 0.49568 0.38404 0.04367
 H296 H 0.46175 0.39127 -0.06056
 H297 H 0.54690 0.16468 0.00396
 H298 H 0.54986 0.10484 0.00626
 H299 H 0.44311 0.08877 -0.00780
 H300 H 0.44056 0.14872 -0.01005
 C301 C -0.35693 -0.01393 0.50852
 C302 C -0.33161 0.00782 0.52174
 C303 C -0.33939 0.03274 0.53854
 C304 C -0.37238 0.03604 0.54201
 C305 C -0.39830 0.01474 0.52825
 C306 C -0.38996 -0.01068 0.51191
 C307 C -0.29759 0.00435 0.51848
 C308 C -0.26902 0.00163 0.51595
 C309 C -0.23544 -0.00126 0.51327
 C310 C -0.20664 -0.00340 0.51123
 C311 C -0.17210 -0.00546 0.50914
 C312 C -0.15118 -0.01236 0.53819
 C313 C -0.11737 -0.01308 0.53638
 C314 C -0.10402 -0.00687 0.50541
 C315 C -0.12534 -0.00041 0.47629
 C316 C -0.15916 0.00030 0.47818
 H317 H -0.35114 -0.03365 0.49590
 H318 H -0.31994 0.04965 0.54899
 H319 H -0.37762 0.05587 0.55479
 H320 H -0.40893 -0.02875 0.50259
 H321 H -0.16094 -0.01681 0.56228
 H322 H -0.10165 -0.01812 0.55925
 H323 H -0.11585 0.00449 0.45209
 H324 H -0.17514 0.00571 0.45554
 C325 C 0.34219 0.03381 0.48749
 C326 C 0.32021 0.00505 0.48457
 C327 C 0.33198 -0.02390 0.47827
 C328 C 0.36554 -0.02407 0.47469
 C329 C 0.38766 0.00467 0.47758
 C330 C 0.37578 0.03366 0.48390
 C331 C 0.28548 0.00540 0.48725
 C332 C 0.25631 0.00550 0.48914
 C333 C 0.22206 0.00539 0.49102
 C334 C 0.19275 0.00508 0.49242
 C335 C 0.15769 0.00444 0.49394
 C336 C 0.13679 0.00986 0.46462
 C337 C 0.10266 0.00869 0.46602
 C338 C 0.08900 0.00206 0.49682
 C339 C 0.11026 -0.00320 0.52617
 C340 C 0.14437 -0.00202 0.52470
 H341 H 0.33332 0.05640 0.49219
 H342 H 0.31516 -0.04623 0.47582
 H343 H 0.37428 -0.04652 0.46947
 H344 H 0.39248 0.05618 0.48571
 H345 H 0.14686 0.01484 0.44068
 H346 H 0.08700 0.01284 0.44298
 H347 H 0.10054 -0.00836 0.55027
 H348 H 0.16033 -0.00628 0.54755
 C349 C 0.02694 0.50714 1.34914
 C350 C 0.00640 0.52263 1.32327
 C351 C -0.01755 0.54138 1.33049
 C352 C -0.02123 0.54441 1.36344
 C353 C -0.00134 0.52823 1.38993
 C354 C 0.02330 0.51010 1.38216
 C355 C 0.00972 0.51936 1.28926
 C356 C 0.01191 0.51684 1.26060
 C357 C 0.01380 0.51414 1.22686
 C358 C 0.01487 0.51204 1.19790
 C359 C 0.01550 0.50977 1.16319
 C360 C 0.01983 0.53879 1.14024
 C361 C 0.01917 0.53675 1.10634
 C362 C 0.01412 0.50557 1.09493
 C363 C 0.01015 0.47651 1.11825
 C364 C 0.01082 0.47863 1.15215
 H365 H 0.04591 0.49296 1.34378
 H366 H -0.03352 0.55357 1.31064
 H367 H -0.04043 0.55862 1.36821
 H368 H 0.04033 0.49884 1.40158
 H369 H 0.02340 0.56303 1.14851
 H370 H 0.02231 0.55959 1.08906
 H371 H 0.00621 0.45214 1.11030
 H372 H 0.00736 0.45601 1.16970
 C373 C 0.02616 0.49194 0.65451
 C374 C -0.00065 0.47797 0.67256
 C375 C -0.02787 0.46019 0.65702
 C376 C -0.02831 0.45635 0.62359
 C377 C -0.00159 0.47042 0.60535
 C378 C 0.02575 0.48810 0.62105
 C379 C -0.00013 0.48140 0.70713
 C380 C 0.00012 0.48393 0.73615
 C381 C 0.00029 0.48653 0.77020
 C382 C 0.00043 0.48851 0.79933
 C383 C 0.00071 0.49062 0.83419
 C384 C -0.00338 0.46152 0.85708
 C385 C -0.00259 0.46346 0.89102
 C386 C 0.00233 0.49460 0.90250
 C387 C 0.00618 0.52372 0.87924
 C388 C 0.00538 0.52171 0.84531
 H389 H 0.04741 0.50561 0.66635
 H390 H -0.04867 0.44917 0.67078
 H391 H -0.04945 0.44242 0.61189
 H392 H 0.04672 0.49874 0.60739
 H393 H -0.00701 0.43732 0.84873
 H394 H -0.00562 0.44058 0.90825
 H395 H 0.01003 0.54807 0.88725
 H396 H 0.00857 0.54439 0.82779
   
