data_POSCAR
  _audit_creation_date              2014-09-24
  _audit_creation_method            'ToBaCCo'
  _symmetry_space_group_name_H-M    'P1'
  _symmetry_Int_Tables_number       1
  _symmetry_cell_setting            triclinic
  loop_
  _symmetry_equiv_pos_as_xyz
 x,y,z
_cell_length_a 47.4069
_cell_length_b 46.6676
_cell_length_c 46.6700
_cell_angle_alpha 89.906400
_cell_angle_beta 89.754300
_cell_angle_gamma 89.655400
loop_
  _atom_site_label
  _atom_site_type_symbol
  _atom_site_fract_x
  _atom_site_fract_y
  _atom_site_fract_z
C1 C 0.19818 0.16153 0.19361
 C2 C 0.18371 0.14860 0.21650
 C3 C 0.15805 0.16019 0.22693
 C4 C 0.14788 0.18586 0.21459
 C5 C 0.16255 0.19935 0.19228
 C6 C 0.18741 0.18681 0.18124
 C7 C 0.22297 0.14914 0.18257
 C8 C 0.23693 0.16114 0.15861
 C9 C 0.22570 0.18647 0.14639
 C10 C 0.20142 0.19955 0.15779
 C11 C 0.19099 0.22529 0.14620
 C12 C 0.16691 0.23848 0.15801
 C13 C 0.15266 0.22527 0.18083
 H14 H 0.19180 0.12858 0.22501
 H15 H 0.12904 0.19613 0.22299
 H16 H 0.23041 0.12922 0.19186
 H17 H 0.23645 0.19686 0.12871
 H18 H 0.20184 0.23538 0.12839
 H19 H 0.13366 0.23509 0.18946
 C20 C -0.18558 0.86049 0.18898
 C21 C -0.17043 0.87206 0.21195
 C22 C -0.14526 0.85902 0.22173
 C23 C -0.13579 0.83375 0.20801
 C24 C -0.15121 0.82150 0.18561
 C25 C -0.17617 0.83494 0.17603
 C26 C -0.20990 0.87431 0.17866
 C27 C -0.22562 0.86261 0.15588
 C28 C -0.21627 0.83650 0.14371
 C29 C -0.19160 0.82291 0.15332
 C30 C -0.18184 0.79768 0.14019
 C31 C -0.15702 0.78417 0.14967
 C32 C -0.14193 0.79605 0.17254
 H33 H -0.17770 0.89204 0.22127
 H34 H -0.11705 0.82270 0.21549
 H35 H -0.21703 0.89371 0.18923
 H36 H -0.22721 0.82736 0.12559
 H37 H -0.19356 0.78847 0.12259
 H38 H -0.12260 0.78581 0.17967
 C39 C -0.19591 0.15823 -0.19581
 C40 C -0.18443 0.14690 -0.22118
 C41 C -0.16087 0.15970 -0.23414
 C42 C -0.14905 0.18434 -0.22199
 C43 C -0.16072 0.19636 -0.19708
 C44 C -0.18409 0.18310 -0.18378
 C45 C -0.21859 0.14471 -0.18195
 C46 C -0.22929 0.15520 -0.15563
 C47 C -0.21763 0.18054 -0.14435
 C48 C -0.19549 0.19461 -0.15834
 C49 C -0.18444 0.21999 -0.14711
 C50 C -0.16152 0.23345 -0.16046
 C51 C -0.14939 0.22135 -0.18515
 H52 H -0.19331 0.12771 -0.23050
 H53 H -0.13092 0.19422 -0.23213
 H54 H -0.22662 0.12502 -0.19097
 H55 H -0.22629 0.19004 -0.12504
 H56 H -0.19336 0.22914 -0.12771
 H57 H -0.13150 0.23170 -0.19525
 C58 C 0.19002 0.84178 -0.18867
 C59 C 0.17695 0.85387 -0.21283
 C60 C 0.15129 0.84281 -0.22332
 C61 C 0.13968 0.81855 -0.20966
 C62 C 0.15296 0.80577 -0.18614
 C63 C 0.17807 0.81750 -0.17538
 C64 C 0.21432 0.85412 -0.17694
 C65 C 0.22631 0.84274 -0.15190
 C66 C 0.21489 0.81808 -0.13931
 C67 C 0.19100 0.80517 -0.15106
 C68 C 0.17944 0.78052 -0.13854
 C69 C 0.15464 0.76862 -0.14953
 C70 C 0.14134 0.78148 -0.17308
 H71 H 0.18599 0.87296 -0.22229
 H72 H 0.12071 0.80875 -0.21789
 H73 H 0.22328 0.87321 -0.18653
 H74 H 0.22441 0.80927 -0.12010
 H75 H 0.18938 0.77083 -0.11998
 H76 H 0.12207 0.77230 -0.18139
 C77 C 0.14690 1.18794 0.81805
 C78 C 0.13496 1.17403 0.79451
 C79 C 0.14923 1.15143 0.78043
 C80 C 0.17622 1.14330 0.79042
 C81 C 0.18803 1.15651 0.81454
 C82 C 0.17341 1.17911 0.82825
 C83 C 0.13243 1.21041 0.83162
 C84 C 0.14413 1.22476 0.85533
 C85 C 0.17073 1.21556 0.86548
 C86 C 0.18505 1.19252 0.85252
 C87 C 0.21036 1.18199 0.86401
 C88 C 0.22440 1.15873 0.85116
 C89 C 0.21365 1.14667 0.82596
 H90 H 0.11478 1.18164 0.78666
 H91 H 0.18737 1.12545 0.78067
 H92 H 0.11247 1.21742 0.82274
 H93 H 0.17977 1.22529 0.88437
 H94 H 0.21889 1.19140 0.88334
 H95 H 0.22453 1.12865 0.81615
 C96 C 0.83874 0.80458 0.79895
 C97 C 0.85073 0.81830 0.77505
 C98 C 0.83572 0.83967 0.75982
 C99 C 0.80861 0.84761 0.76977
 C100 C 0.79683 0.83477 0.79418
 C101 C 0.81163 0.81270 0.80841
 C102 C 0.85349 0.78279 0.81343
 C103 C 0.84132 0.76833 0.83707
 C104 C 0.81404 0.77678 0.84615
 C105 C 0.79942 0.79902 0.83235
 C106 C 0.77307 0.80835 0.84266
 C107 C 0.75902 0.83142 0.82954
 C108 C 0.77074 0.84419 0.80501
 H109 H 0.87131 0.81125 0.76761
 H110 H 0.79708 0.86485 0.75943
 H111 H 0.87399 0.77634 0.80530
 H112 H 0.80455 0.76715 0.86497
 H113 H 0.76401 0.79851 0.86162
 H114 H 0.75967 0.86175 0.79466
 C115 C 0.16539 0.79802 1.19554
 C116 C 0.15357 0.80918 1.22078
 C117 C 0.16599 0.83259 1.23459
 C118 C 0.19061 0.84477 1.22315
 C119 C 0.20301 0.83348 1.19821
 C120 C 0.19032 0.81000 1.18432
 C121 C 0.15258 0.77507 1.18141
 C122 C 0.16460 0.76313 1.15635
 C123 C 0.18986 0.77513 1.14561
 C124 C 0.20248 0.79861 1.15915
 C125 C 0.22697 0.81107 1.14774
 C126 C 0.23970 0.83443 1.16145
 C127 C 0.22775 0.84537 1.18680
 H128 H 0.13437 0.80003 1.22948
 H129 H 0.20018 0.86287 1.23384
 H130 H 0.13383 0.76577 1.19086
 H131 H 0.19918 0.76716 1.12593
 H132 H 0.23631 0.80253 1.12827
 H133 H 0.23745 0.86353 1.19728
 C134 C 0.83987 1.18606 1.19427
 C135 C 0.85362 1.17250 1.21720
 C136 C 0.84584 1.14472 1.22627
 C137 C 0.82370 1.13089 1.21162
 C138 C 0.80933 1.14453 1.18913
 C139 C 0.81731 1.17229 1.18051
 C140 C 0.84878 1.21298 1.18448
 C141 C 0.83516 1.22652 1.16141
 C142 C 0.81183 1.21329 1.14863
 C143 C 0.80293 1.18615 1.15789
 C144 C 0.78033 1.17235 1.14447
 C145 C 0.77244 1.14459 1.15284
 C146 C 0.78707 1.13077 1.17508
 H147 H 0.87132 1.18324 1.22699
 H148 H 0.81657 1.10995 1.21843
 H149 H 0.86654 1.22337 1.19461
 H150 H 0.80133 1.22365 1.13077
 H151 H 0.76927 1.18288 1.12706
 H152 H 0.78087 1.10939 1.18159
 O153 O 0.45722 1.05316 1.04104
 O154 O 0.42751 1.02557 1.01392
 C155 C 0.43232 1.04574 1.03234
 O156 O 0.54090 1.04528 0.94046
 O157 O 0.57075 1.02219 0.97159
 C158 C 0.56590 1.03861 0.94970
 O159 O 0.46166 1.04954 0.94044
 O160 O 0.42975 1.02356 0.96662
 C161 C 0.43603 1.04251 0.94732
 O162 O 0.53638 1.05129 1.04621
 O163 O 0.56847 1.02405 1.02125
 C164 C 0.56207 1.04353 1.04002
 Zr165 Zr 0.49750 1.03699 1.02919
 O166 O 0.50015 1.08221 1.02714
 O167 O 0.49274 1.03866 1.07428
 Zr168 Zr 0.50066 1.03444 0.95689
 O169 O 0.50407 1.07967 0.95739
 O170 O 0.49945 1.03530 0.91161
 O171 O 0.47390 1.04136 0.99177
 O172 O 0.52361 1.04093 0.99378
 O173 O 0.53656 0.95075 1.04950
 O174 O 0.56861 0.97658 1.02312
 C175 C 0.56216 0.95821 1.04295
 O176 O 0.46202 0.94587 0.94430
 O177 O 0.42990 0.97399 0.96827
 C178 C 0.43635 0.95373 0.95035
 O179 O 0.54139 0.94805 0.94548
 O180 O 0.57090 0.97529 0.97304
 C181 C 0.56632 0.95630 0.95338
 O182 O 0.45732 0.94897 1.04435
 O183 O 0.42767 0.97550 1.01586
 C184 C 0.43234 0.95620 1.03534
 Zr185 Zr 0.49760 0.96454 1.03191
 O186 O 0.50047 0.91932 1.03413
 O187 O 0.49268 0.96696 1.07696
 Zr188 Zr 0.50090 0.96183 0.95961
 O189 O 0.50403 0.91663 0.96257
 O190 O 0.49999 0.95930 0.91434
 Zr191 Zr 0.45733 0.99954 0.99255
 Zr192 Zr 0.54098 0.99942 0.99611
 O193 O 0.52378 0.95797 0.99694
 O194 O 0.47409 0.95765 0.99488
 O195 O 0.52244 1.00090 1.03722
 O196 O 0.47669 0.99800 0.95192
 O197 O 0.47283 1.00099 1.03470
 O198 O 0.52596 0.99787 0.95366
 H199 H 0.53658 1.05751 0.99347
 H200 H 0.46486 0.99747 0.93448
 H201 H 0.53670 0.94122 0.99792
 H202 H 0.45925 1.00154 1.05089
 H203 H 0.51128 1.01918 0.90479
 H204 H 0.51570 0.97104 0.90688
 H205 H 0.48661 0.90964 0.97193
 H206 H 0.48603 0.91150 1.02111
 H207 H 0.50906 0.97749 1.08459
 H208 H 0.50792 1.02675 1.08270
 H209 H 0.48460 1.08909 1.01481
 H210 H 0.48617 1.08751 0.96513
 O211 O 0.03661 0.54472 -0.04643
 O212 O 0.00888 0.57375 -0.01837
 C213 C 0.02754 0.56976 -0.03835
 O214 O -0.05863 0.45712 -0.04205
 O215 O -0.02860 0.42781 -0.01699
 C216 C -0.04885 0.43197 -0.03508
 O217 O -0.06251 0.53779 -0.04339
 O218 O -0.03770 0.57076 -0.01725
 C219 C -0.05642 0.56392 -0.03624
 O220 O 0.04512 0.46449 -0.04440
 O221 O 0.01950 0.43118 -0.01934
 C222 C 0.03898 0.43825 -0.03750
 Zr223 Zr 0.02571 0.50343 -0.03106
 O224 O 0.02282 0.50047 -0.07623
 O225 O 0.06977 0.50964 -0.03442
 Zr226 Zr -0.04546 0.49840 -0.02853
 O227 O -0.04638 0.49594 -0.07380
 O228 O -0.09010 0.49826 -0.02687
 O229 O -0.01189 0.52648 -0.03515
 O230 O -0.00818 0.47619 -0.03531
 O231 O 0.04771 0.46327 0.05305
 O232 O 0.02210 0.43066 0.02737
 C233 C 0.04227 0.43730 0.04469
 O234 O -0.05866 0.53711 0.06118
 O235 O -0.03692 0.57011 0.03217
 C236 C -0.05378 0.56328 0.05296
 O237 O -0.05594 0.45623 0.05743
 O238 O -0.02657 0.42737 0.03084
 C239 C -0.04627 0.43124 0.04981
 O240 O 0.03952 0.54374 0.05667
 O241 O 0.00994 0.57350 0.03138
 C242 C 0.02978 0.56892 0.04991
 Zr243 Zr 0.02782 0.50267 0.04162
 O244 O 0.02760 0.49888 0.08685
 O245 O 0.07201 0.50873 0.04204
 Zr246 Zr -0.04329 0.49777 0.04394
 O247 O -0.04166 0.49404 0.08911
 O248 O -0.08793 0.49807 0.04540
 Zr249 Zr -0.01181 0.54299 0.00687
 Zr250 Zr -0.00564 0.45830 0.00600
 O251 O -0.00570 0.47530 0.04772
 O252 O -0.00940 0.52572 0.04859
 O253 O 0.03416 0.47819 0.00479
 O254 O -0.05127 0.52254 0.00812
 O255 O 0.03015 0.52806 0.00537
 O256 O -0.04799 0.47222 0.00764
 H257 H -0.00764 0.46330 -0.05215
 H258 H -0.06869 0.53435 0.00883
 H259 H -0.00401 0.46196 0.06418
 H260 H 0.04588 0.54195 0.00496
 H261 H -0.09584 0.48158 -0.01517
 H262 H -0.09451 0.48168 0.03385
 H263 H -0.03040 0.51026 0.09630
 H264 H 0.01802 0.51607 0.09469
 H265 H 0.08027 0.49550 0.02772
 H266 H 0.07884 0.49653 -0.02053
 H267 H 0.01249 0.51762 -0.08309
 H268 H -0.03614 0.51277 -0.08135
 O269 O 1.05851 -0.05188 0.53739
 O270 O 1.03265 -0.02633 0.57044
 C271 C 1.05180 -0.04507 0.56355
 O272 O 1.06036 0.05002 0.46014
 O273 O 1.03114 0.02681 0.42881
 C274 C 1.05167 0.04411 0.43450
 O275 O 1.06450 0.04514 0.54032
 O276 O 1.03586 0.02093 0.57167
 C277 C 1.05681 0.03774 0.56602
 O278 O 1.05255 -0.05277 0.45674
 O279 O 1.02801 -0.02220 0.42735
 C280 C 1.04535 -0.04332 0.43156
 Zr281 Zr 1.04085 -0.03764 0.49812
 O282 O 1.08486 -0.04360 0.49318
 O283 O 1.03563 -0.08262 0.50052
 Zr284 Zr 1.04603 0.03479 0.50032
 O285 O 1.09046 0.03286 0.49591
 O286 O 1.04769 0.07991 0.50470
 O287 O 1.04966 -0.00266 0.52436
 O288 O 1.04797 -0.00100 0.47439
 O289 O 0.95365 -0.04488 0.46046
 O290 O 0.98118 -0.01939 0.42895
 C291 C 0.96119 -0.03736 0.43473
 O292 O 0.96043 0.05301 0.54397
 O293 O 0.98705 0.02444 0.57353
 C294 C 0.96820 0.04420 0.56920
 O295 O 0.96155 0.05869 0.46318
 O296 O 0.98403 0.02981 0.43042
 C297 C 0.96729 0.05082 0.43705
 O298 O 0.95404 -0.04541 0.54134
 O299 O 0.98444 -0.02317 0.57211
 C300 C 0.96327 -0.03976 0.56693
 Zr301 Zr 0.96981 -0.03201 0.50073
 O302 O 0.92526 -0.02920 0.49937
 O303 O 0.96769 -0.07729 0.50232
 Zr304 Zr 0.97493 0.04042 0.50270
 O305 O 0.93053 0.04494 0.50092
 O306 O 0.97915 0.08530 0.50737
 Zr307 Zr 1.00907 0.00004 0.54284
 Zr308 Zr 1.00680 0.00281 0.45801
 O309 O 0.96656 0.00540 0.47715
 O310 O 0.96752 0.00380 0.52732
 O311 O 1.00423 -0.03953 0.47364
 O312 O 1.01150 0.04201 0.52657
 O313 O 1.00574 -0.04082 0.52419
 O314 O 1.01022 0.04402 0.47606
 H315 H 1.06434 -0.00193 0.46115
 H316 H 1.01297 0.05814 0.54025
 H317 H 0.94963 0.00714 0.46488
 H318 H 1.00515 -0.05784 0.53690
 H319 H 1.03866 0.08845 0.48760
 H320 H 0.98989 0.09239 0.49060
 H321 H 0.92246 0.03177 0.51537
 H322 H 0.91915 -0.01681 0.51544
 H323 H 0.97710 -0.08476 0.48489
 H324 H 1.02612 -0.08879 0.48275
 H325 H 1.09412 -0.02906 0.50523
 H326 H 1.09752 0.01874 0.51002
 C327 C 1.09790 0.13414 0.27187
 C328 C 1.11176 0.11851 0.29367
 C329 C 1.14164 0.11784 0.29318
 C330 C 1.15672 0.13093 0.27080
 C331 C 1.14275 0.14639 0.24913
 C332 C 1.11310 0.14798 0.25030
 C333 C 1.15643 0.10446 0.31527
 C334 C 1.14225 0.09251 0.33840
 C335 C 1.11250 0.09259 0.33985
 C336 C 1.09703 0.10423 0.31630
 C337 C 1.06746 0.10070 0.31591
 C338 C 1.05338 0.08712 0.33826
 C339 C 1.06801 0.07759 0.36236
 C340 C 1.09771 0.08085 0.36383
 C341 C 1.11131 0.07291 0.38958
 C342 C 1.09612 0.06145 0.41246
 C343 C 1.06705 0.05708 0.41034
 C344 C 1.05306 0.06505 0.38519
 H345 H 1.07530 0.13671 0.27128
 H346 H 1.17957 0.13033 0.27136
 H347 H 1.10122 0.15905 0.23386
 H348 H 1.17929 0.10365 0.31495
 H349 H 1.15524 0.08244 0.35447
 H350 H 1.05464 0.10740 0.29807
 H351 H 1.03071 0.08456 0.33690
 H352 H 1.13354 0.07607 0.39306
 H353 H 1.10730 0.05559 0.43183
 H354 H 1.03042 0.06217 0.38370
 C355 C 0.91486 -0.11922 0.26846
 C356 C 0.90101 -0.10464 0.29107
 C357 C 0.87116 -0.10342 0.29056
 C358 C 0.85614 -0.11470 0.26733
 C359 C 0.87010 -0.12900 0.24477
 C360 C 0.89968 -0.13139 0.24603
 C361 C 0.85635 -0.09127 0.31344
 C362 C 0.87047 -0.08099 0.33727
 C363 C 0.90020 -0.08145 0.33866
 C364 C 0.91572 -0.09191 0.31447
 C365 C 0.94532 -0.08864 0.31419
 C366 C 0.95936 -0.07633 0.33711
 C367 C 0.94467 -0.06790 0.36167
 C368 C 0.91496 -0.07108 0.36315
 C369 C 0.90133 -0.06434 0.38937
 C370 C 0.91653 -0.05398 0.41266
 C371 C 0.94559 -0.04951 0.41046
 C372 C 0.95958 -0.05646 0.38490
 H373 H 0.93741 -0.12224 0.26785
 H374 H 0.83330 -0.11366 0.26781
 H375 H 0.91153 -0.14172 0.22903
 H376 H 0.83350 -0.09012 0.31315
 H377 H 0.85748 -0.07180 0.35393
 H378 H 0.95817 -0.09448 0.29599
 H379 H 0.98205 -0.07383 0.33578
 H380 H 0.87908 -0.06759 0.39281
 H381 H 0.90540 -0.04896 0.43236
 H382 H 0.98222 -0.05354 0.38335
 C383 C 0.84816 0.13142 0.69048
 C384 C 0.87674 0.12233 0.69018
 C385 C 0.89231 0.12504 0.71593
 C386 C 0.88006 0.13778 0.74024
 C387 C 0.85192 0.14690 0.73994
 C388 C 0.83597 0.14329 0.71510
 C389 C 0.91996 0.11485 0.71739
 C390 C 0.93242 0.10129 0.69407
 C391 C 0.91792 0.09816 0.66791
 C392 C 0.89020 0.11018 0.66548
 C393 C 0.87719 0.11028 0.63832
 C394 C 0.89048 0.09840 0.61450
 C395 C 0.91676 0.08505 0.61694
 C396 C 0.93053 0.08405 0.64384
 C397 C 0.95611 0.06839 0.64566
 C398 C 0.96788 0.05526 0.62156
 C399 C 0.95498 0.05763 0.59471
 C400 C 0.92928 0.07249 0.59260
 H401 H 0.83445 0.12894 0.67230
 H402 H 0.89223 0.14007 0.75972
 H403 H 0.81404 0.14993 0.71469
 H404 H 0.93202 0.11705 0.73694
 H405 H 0.95393 0.09429 0.69692
 H406 H 0.85700 0.12029 0.63455
 H407 H 0.87985 0.09935 0.59399
 H408 H 0.96714 0.06515 0.66555
 H409 H 0.98729 0.04324 0.62404
 H410 H 0.91869 0.07382 0.57209
 C411 C 1.09328 -0.13143 0.72908
 C412 C 1.10811 -0.11807 0.70646
 C413 C 1.13797 -0.11881 0.70727
 C414 C 1.15215 -0.13091 0.73083
 C415 C 1.13714 -0.14411 0.75332
 C416 C 1.10750 -0.14431 0.75180
 C417 C 1.15357 -0.10787 0.68435
 C418 C 1.14017 -0.09678 0.66030
 C419 C 1.11047 -0.09515 0.65870
 C420 C 1.09427 -0.10459 0.68282
 C421 C 1.06486 -0.09962 0.68285
 C422 C 1.05158 -0.08662 0.65979
 C423 C 1.06685 -0.07888 0.63545
 C424 C 1.09640 -0.08366 0.63415
 C425 C 1.11047 -0.07707 0.60811
 C426 C 1.09584 -0.06526 0.58493
 C427 C 1.06698 -0.05927 0.58712
 C428 C 1.05262 -0.06629 0.61234
 H429 H 1.07062 -0.13298 0.72956
 H430 H 1.17500 -0.13139 0.73070
 H431 H 1.09486 -0.15351 0.76881
 H432 H 1.17643 -0.10830 0.68480
 H433 H 1.15374 -0.08869 0.64359
 H434 H 1.05156 -0.10460 0.70093
 H435 H 1.02900 -0.08284 0.66094
 H436 H 1.13262 -0.08131 0.60481
 H437 H 1.10727 -0.06020 0.56543
 H438 H 1.03015 -0.06232 0.61380
 C439 C 0.30452 1.11963 1.15313
 C440 C 0.31056 1.12081 1.12346
 C441 C 0.29096 1.13518 1.10559
 C442 C 0.26726 1.14912 1.11736
 C443 C 0.26144 1.14791 1.14696
 C444 C 0.28038 1.13264 1.16450
 C445 C 0.29484 1.13523 1.07594
 C446 C 0.31737 1.12066 1.06350
 C447 C 0.33762 1.10624 1.08039
 C448 C 0.33497 1.10765 1.11089
 C449 C 0.35708 1.09643 1.12780
 C450 C 0.38056 1.08347 1.11539
 C451 C 0.38254 1.08026 1.08576
 C452 C 0.36081 1.09098 1.06781
 C453 C 0.36297 1.08545 1.03804
 C454 C 0.38608 1.07057 1.02673
 C455 C 0.40788 1.06111 1.04448
 C456 C 0.40611 1.06613 1.07397
 H457 H 0.31767 1.10817 1.16809
 H458 H 0.25250 1.15951 1.10298
 H459 H 0.27728 1.13150 1.18747
 H460 H 0.28000 1.14628 1.06212
 H461 H 0.31887 1.12188 1.04048
 H462 H 0.35729 1.09819 1.15082
 H463 H 0.39717 1.07547 1.12921
 H464 H 0.34684 1.09166 1.02302
 H465 H 0.38717 1.06685 1.00391
 H466 H 0.42280 1.05833 1.08782
 C467 C 0.26719 0.88396 0.90325
 C468 C 0.29423 0.88631 0.89047
 C469 C 0.29859 0.87301 0.86346
 C470 C 0.27623 0.85940 0.84935
 C471 C 0.24968 0.85764 0.86233
 C472 C 0.24541 0.86968 0.88939
 C473 C 0.32528 0.87313 0.85081
 C474 C 0.34802 0.88554 0.86465
 C475 C 0.34475 0.89925 0.89143
 C476 C 0.31713 0.90086 0.90383
 C477 C 0.31320 0.91749 0.92879
 C478 C 0.33557 0.93141 0.94170
 C479 C 0.36287 0.92865 0.93083
 C480 C 0.36803 0.91204 0.90592
 C481 C 0.39639 0.90861 0.89684
 C482 C 0.41841 0.92181 0.91147
 C483 C 0.41301 0.93909 0.93542
 C484 C 0.38510 0.94245 0.94487
 H485 H 0.26238 0.89218 0.92427
 H486 H 0.27958 0.84958 0.82855
 H487 H 0.22500 0.86812 0.89980
 H488 H 0.32874 0.86313 0.83013
 H489 H 0.36786 0.88481 0.85333
 H490 H 0.29278 0.92097 0.93843
 H491 H 0.33148 0.94421 0.96066
 H492 H 0.40235 0.89533 0.87893
 H493 H 0.43978 0.91863 0.90374
 H494 H 0.38058 0.95569 0.96337
 C495 C 0.72498 0.92116 1.13307
 C496 C 0.70263 0.90575 1.12051
 C497 C 0.70382 0.87545 1.12195
 C498 C 0.72748 0.86142 1.13348
 C499 C 0.75013 0.87691 1.14507
 C500 C 0.74804 0.90702 1.14529
 C501 C 0.68137 0.85920 1.11188
 C502 C 0.65756 0.87234 1.10052
 C503 C 0.65566 0.90242 1.09785
 C504 C 0.67908 0.91932 1.10687
 C505 C 0.67860 0.94903 1.10104
 C506 C 0.65596 0.96184 1.08708
 C507 C 0.63246 0.94584 1.07934
 C508 C 0.63151 0.91609 1.08549
 C509 C 0.60628 0.90132 1.07920
 C510 C 0.58363 0.91528 1.06609
 C511 C 0.58548 0.94420 1.05848
 C512 C 0.60985 0.95944 1.06536
 H513 H 0.72511 0.94422 1.13416
 H514 H 0.72758 0.83821 1.13438
 H515 H 0.76492 0.92006 1.15362
 H516 H 0.68212 0.83600 1.11292
 H517 H 0.64139 0.85817 1.09289
 H518 H 0.69603 0.96286 1.10598
 H519 H 0.65678 0.98460 1.08251
 H520 H 0.60316 0.87910 1.08461
 H521 H 0.56478 0.90321 1.06127
 H522 H 0.61104 0.98202 1.06016
 C523 C 0.72669 1.12661 0.90452
 C524 C 0.70555 1.11124 0.88998
 C525 C 0.70622 1.11143 0.85962
 C526 C 0.72810 1.12522 0.84472
 C527 C 0.74905 1.14055 0.85938
 C528 C 0.74774 1.14111 0.88953
 C529 C 0.68475 1.09827 0.84422
 C530 C 0.66202 1.08582 0.85825
 C531 C 0.66036 1.08518 0.88846
 C532 C 0.68334 1.09648 0.90453
 C533 C 0.68355 1.09228 0.93450
 C534 C 0.66142 1.07867 0.94847
 C535 C 0.63780 1.06966 0.93334
 C536 C 0.63666 1.07324 0.90316
 C537 C 0.61145 1.06557 0.88906
 C538 C 0.58861 1.05451 0.90431
 C539 C 0.59026 1.05022 0.93393
 C540 C 0.61503 1.05751 0.94831
 H541 H 0.72713 1.12851 0.92752
 H542 H 0.72770 1.12531 0.82150
 H543 H 0.76368 1.15192 0.90196
 H544 H 0.68521 1.09809 0.82099
 H545 H 0.64638 1.07608 0.84478
 H546 H 0.70100 1.09858 0.94774
 H547 H 0.66255 1.07576 0.97150
 H548 H 0.60832 1.06879 0.86643
 H549 H 0.56956 1.04912 0.89282
 H550 H 0.61621 1.05465 0.97135
 C551 C 0.13815 0.31409 0.15446
 C552 C 0.13195 0.31742 0.12498
 C553 C 0.13833 0.29414 0.10646
 C554 C 0.15085 0.26899 0.11715
 C555 C 0.15620 0.26594 0.14643
 C556 C 0.14988 0.28867 0.16492
 C557 C 0.13159 0.29578 0.07748
 C558 C 0.11731 0.31941 0.06661
 C559 C 0.10973 0.34277 0.08429
 C560 C 0.11871 0.34253 0.11349
 C561 C 0.11416 0.36739 0.13016
 C562 C 0.09998 0.39109 0.11918
 C563 C 0.08906 0.39071 0.09150
 C564 C 0.09354 0.36643 0.07371
 C565 C 0.08071 0.36641 0.04640
 C566 C 0.06432 0.38950 0.03727
 C567 C 0.06037 0.41357 0.05474
 C568 C 0.07315 0.41426 0.08169
 H569 H 0.13326 0.33027 0.17018
 H570 H 0.15535 0.25122 0.10285
 H571 H 0.15385 0.28666 0.18768
 H572 H 0.13680 0.27826 0.06313
 H573 H 0.11294 0.31895 0.04398
 H574 H 0.12181 0.36942 0.15176
 H575 H 0.09694 0.40967 0.13278
 H576 H 0.08209 0.34850 0.03192
 H577 H 0.05465 0.38849 0.01629
 H578 H 0.06987 0.43271 0.09543
 C579 C -0.15708 0.30910 -0.13242
 C580 C -0.12913 0.31032 -0.12189
 C581 C -0.11209 0.28533 -0.12448
 C582 C -0.12241 0.26076 -0.13810
 C583 C -0.15011 0.26002 -0.14816
 C584 C -0.16738 0.28421 -0.14509
 C585 C -0.08499 0.28479 -0.11304
 C586 C -0.07467 0.30815 -0.09811
 C587 C -0.09085 0.33343 -0.09474
 C588 C -0.11783 0.33512 -0.10822
 C589 C -0.13234 0.36164 -0.10799
 C590 C -0.12126 0.38548 -0.09435
 C591 C -0.09583 0.38363 -0.07953
 C592 C -0.08062 0.35737 -0.07889
 C593 C -0.05608 0.35596 -0.06184
 C594 C -0.04646 0.37995 -0.04720
 C595 C -0.06062 0.40634 -0.04926
 C596 C -0.08551 0.40793 -0.06530
 H597 H -0.17183 0.32664 -0.13029
 H598 H -0.10924 0.24176 -0.14002
 H599 H -0.18901 0.28377 -0.15248
 H600 H -0.07176 0.26588 -0.11520
 H601 H -0.05346 0.30605 -0.09013
 H602 H -0.15202 0.36493 -0.11902
 H603 H -0.13295 0.40551 -0.09508
 H604 H -0.04419 0.33645 -0.05877
 H605 H -0.02760 0.37777 -0.03438
 H606 H -0.09702 0.42804 -0.06655
 C607 C 0.14591 0.69268 -0.12304
 C608 C 0.11750 0.69256 -0.11349
 C609 C 0.10221 0.71877 -0.11451
 C610 C 0.11445 0.74338 -0.12639
 C611 C 0.14229 0.74283 -0.13634
 C612 C 0.15808 0.71755 -0.13413
 C613 C 0.07480 0.72032 -0.10371
 C614 C 0.06229 0.69655 -0.09123
 C615 C 0.07648 0.66990 -0.08991
 C616 C 0.10391 0.66751 -0.10259
 C617 C 0.11648 0.64009 -0.10464
 C618 C 0.10310 0.61593 -0.09390
 C619 C 0.07722 0.61824 -0.07975
 C620 C 0.06385 0.64536 -0.07692
 C621 C 0.03876 0.64690 -0.06047
 C622 C 0.02722 0.62244 -0.04804
 C623 C 0.03977 0.59548 -0.05207
 C624 C 0.06483 0.59358 -0.06801
 H625 H 0.15945 0.67411 -0.12166
 H626 H 0.10241 0.76319 -0.12763
 H627 H 0.17978 0.71691 -0.14148
 H628 H 0.06296 0.74025 -0.10462
 H629 H 0.04096 0.69948 -0.08368
 H630 H 0.13636 0.63644 -0.11535
 H631 H 0.11339 0.59525 -0.09626
 H632 H 0.02812 0.66685 -0.05586
 H633 H 0.00849 0.62480 -0.03491
 H634 H 0.07523 0.57298 -0.07060
 C635 C -0.13243 0.73400 0.09107
 C636 C -0.12365 0.70938 0.10653
 C637 C -0.12767 0.70941 0.13666
 C638 C -0.13843 0.73382 0.15063
 C639 C -0.14627 0.75821 0.13498
 C640 C -0.14357 0.75789 0.10513
 C641 C -0.12088 0.68512 0.15271
 C642 C -0.11029 0.66059 0.13956
 C643 C -0.10525 0.65966 0.10973
 C644 C -0.11119 0.68480 0.09311
 C645 C -0.10370 0.68487 0.06380
 C646 C -0.09112 0.66121 0.05104
 C647 C -0.08610 0.63627 0.06668
 C648 C -0.09366 0.63474 0.09606
 C649 C -0.08935 0.60823 0.11037
 C650 C -0.07704 0.58482 0.09628
 C651 C -0.06841 0.58713 0.06768
 C652 C -0.07330 0.61285 0.05297
 H653 H -0.13140 0.73540 0.06806
 H654 H -0.14102 0.73379 0.17373
 H655 H -0.14970 0.77647 0.09262
 H656 H -0.12392 0.68499 0.17575
 H657 H -0.10538 0.64293 0.15359
 H658 H -0.10640 0.70333 0.05019
 H659 H -0.08531 0.66246 0.02857
 H660 H -0.09555 0.60476 0.13233
 H661 H -0.07373 0.56502 0.10799
 H662 H -0.06724 0.61462 0.03059
 C663 C 1.09389 0.11924 0.73403
 C664 C 1.10978 0.10782 0.71104
 C665 C 1.13934 0.11206 0.71116
 C666 C 1.15242 0.12562 0.73446
 C667 C 1.13635 0.13691 0.75731
 C668 C 1.10688 0.13363 0.75646
 C669 C 1.15564 0.10319 0.68778
 C670 C 1.14312 0.09098 0.66387
 C671 C 1.11379 0.08605 0.66291
 C672 C 1.09717 0.09308 0.68760
 C673 C 1.06863 0.08468 0.68831
 C674 C 1.05633 0.07109 0.66519
 C675 C 1.07168 0.06609 0.64015
 C676 C 1.10049 0.07386 0.63834
 C677 C 1.11449 0.06976 0.61174
 C678 C 1.10038 0.05816 0.58821
 C679 C 1.07218 0.04977 0.59062
 C680 C 1.05811 0.05361 0.61675
 H681 H 1.07121 0.11815 0.73499
 H682 H 1.17504 0.12878 0.73383
 H683 H 1.09355 0.14122 0.77377
 H684 H 1.17829 0.10627 0.68770
 H685 H 1.15715 0.08479 0.64670
 H686 H 1.05536 0.08753 0.70691
 H687 H 1.03436 0.06489 0.66674
 H688 H 1.13604 0.07613 0.60818
 H689 H 1.11163 0.05558 0.56812
 H690 H 1.03616 0.04762 0.61864
 C691 C 0.84230 -0.12466 0.68822
 C692 C 0.87163 -0.11982 0.68605
 C693 C 0.88866 -0.12799 0.70960
 C694 C 0.87688 -0.14211 0.73336
 C695 C 0.84765 -0.14693 0.73534
 C696 C 0.83059 -0.13756 0.71251
 C697 C 0.91737 -0.12167 0.70956
 C698 C 0.92947 -0.10663 0.68700
 C699 C 0.91345 -0.09827 0.66294
 C700 C 0.88451 -0.10653 0.66167
 C701 C 0.86969 -0.10188 0.63586
 C702 C 0.88258 -0.08903 0.61231
 C703 C 0.91023 -0.07908 0.61397
 C704 C 0.92568 -0.08268 0.63969
 C705 C 0.95255 -0.06988 0.64138
 C706 C 0.96405 -0.05541 0.61802
 C707 C 0.94964 -0.05371 0.59190
 C708 C 0.92252 -0.06541 0.59011
 H709 H 0.82772 -0.11797 0.67183
 H710 H 0.89049 -0.14779 0.75111
 H711 H 0.80805 -0.14114 0.71270
 H712 H 0.93060 -0.12799 0.72741
 H713 H 0.95182 -0.10280 0.68851
 H714 H 0.84833 -0.10901 0.63283
 H715 H 0.87059 -0.08642 0.59274
 H716 H 0.96484 -0.06991 0.66077
 H717 H 0.98453 -0.04566 0.62045
 H718 H 0.91079 -0.06348 0.57030
 C719 C 1.13341 -0.16188 0.30852
 C720 C 1.12566 -0.13255 0.31013
 C721 C 1.13133 -0.11506 0.28590
 C722 C 1.14525 -0.12637 0.26178
 C723 C 1.15275 -0.15536 0.26069
 C724 C 1.14654 -0.17303 0.28408
 C725 C 1.12284 -0.08643 0.28568
 C726 C 1.10816 -0.07478 0.30870
 C727 C 1.10199 -0.09120 0.33336
 C728 C 1.11203 -0.12015 0.33463
 C729 C 1.10865 -0.13549 0.36053
 C730 C 1.09547 -0.12319 0.38420
 C731 C 1.08434 -0.09550 0.38280
 C732 C 1.08677 -0.07937 0.35713
 C733 C 1.07354 -0.05213 0.35622
 C734 C 1.05970 -0.04098 0.38018
 C735 C 1.05860 -0.05641 0.40594
 C736 C 1.07081 -0.08380 0.40703
 H737 H 1.12893 -0.17696 0.32541
 H738 H 1.14954 -0.11278 0.24341
 H739 H 1.15196 -0.19561 0.28345
 H740 H 1.12729 -0.07291 0.26731
 H741 H 1.10266 -0.05243 0.30684
 H742 H 1.11680 -0.15687 0.36353
 H743 H 1.09377 -0.13563 0.40376
 H744 H 1.07305 -0.03905 0.33719
 H745 H 1.05024 -0.01985 0.37860
 H746 H 1.06962 -0.09613 0.42671
 C747 C 0.87742 0.08751 0.27271
 C748 C 0.88921 0.10341 0.29543
 C749 C 0.88520 0.13350 0.29515
 C750 C 0.87141 0.14700 0.27213
 C751 C 0.86005 0.13103 0.24936
 C752 C 0.86302 0.10101 0.25037
 C753 C 0.89472 0.15001 0.31802
 C754 C 0.90772 0.13729 0.34149
 C755 C 0.91259 0.10744 0.34262
 C756 C 0.90433 0.09043 0.31860
 C757 C 0.91203 0.06116 0.31822
 C758 C 0.92657 0.04871 0.34083
 C759 C 0.93333 0.06462 0.36507
 C760 C 0.92599 0.09407 0.36668
 C761 C 0.93194 0.10868 0.39256
 C762 C 0.94513 0.09467 0.41546
 C763 C 0.95322 0.06589 0.41315
 C764 C 0.94727 0.05104 0.38785
 H765 H 0.87844 0.06446 0.27179
 H766 H 0.86836 0.17002 0.27289
 H767 H 0.85528 0.08764 0.23324
 H768 H 0.89179 0.17307 0.31795
 H769 H 0.91454 0.15162 0.35812
 H770 H 0.90788 0.04738 0.30026
 H771 H 0.93227 0.02621 0.33944
 H772 H 0.92605 0.13073 0.39609
 H773 H 0.94925 0.10648 0.43495
 H774 H 0.95289 0.02853 0.38613
 C775 C 0.08492 0.27082 -0.11797
 C776 C 0.09920 0.29434 -0.10586
 C777 C 0.12904 0.29440 -0.10743
 C778 C 0.14380 0.27098 -0.11925
 C779 C 0.12936 0.24771 -0.13139
 C780 C 0.09968 0.24822 -0.13063
 C781 C 0.14402 0.31809 -0.09768
 C782 C 0.13000 0.34210 -0.08707
 C783 C 0.10031 0.34292 -0.08478
 C784 C 0.08481 0.31803 -0.09291
 C785 C 0.05553 0.31738 -0.08728
 C786 C 0.04168 0.34056 -0.07498
 C787 C 0.05619 0.36560 -0.06860
 C788 C 0.08558 0.36751 -0.07397
 C789 C 0.09882 0.39414 -0.06867
 C790 C 0.08357 0.41739 -0.05757
 C791 C 0.05489 0.41468 -0.05106
 C792 C 0.04135 0.38880 -0.05678
 H793 H 0.06226 0.26955 -0.11876
 H794 H 0.16661 0.27187 -0.12049
 H795 H 0.08750 0.23057 -0.13895
 H796 H 0.16687 0.31831 -0.09872
 H797 H 0.14312 0.35944 -0.07995
 H798 H 0.04279 0.29878 -0.09125
 H799 H 0.01923 0.33896 -0.07071
 H800 H 0.12077 0.39785 -0.07338
 H801 H 0.09437 0.43735 -0.05349
 H802 H 0.01900 0.38684 -0.05234
 C803 C -0.16079 0.30245 0.13262
 C804 C -0.13175 0.30517 0.12579
 C805 C -0.11405 0.28106 0.13076
 C806 C -0.12493 0.25593 0.14297
 C807 C -0.15363 0.25370 0.14966
 C808 C -0.17148 0.27704 0.14418
 C809 C -0.08558 0.28197 0.12330
 C810 C -0.07425 0.30604 0.11026
 C811 C -0.09089 0.33059 0.10465
 C812 C -0.11978 0.33063 0.11372
 C813 C -0.13554 0.35625 0.11083
 C814 C -0.12375 0.38075 0.09888
 C815 C -0.09610 0.38055 0.08854
 C816 C -0.07943 0.35530 0.09074
 C817 C -0.05211 0.35569 0.07839
 C818 C -0.04168 0.38026 0.06514
 C819 C -0.05788 0.40541 0.06389
 C820 C -0.08510 0.40544 0.07572
 H821 H -0.17593 0.31928 0.12867
 H822 H -0.11112 0.23767 0.14659
 H823 H -0.19380 0.27565 0.14900
 H824 H -0.07192 0.26369 0.12729
 H825 H -0.05202 0.30496 0.10548
 H826 H -0.15698 0.35830 0.11831
 H827 H -0.13660 0.39998 0.09736
 H828 H -0.03845 0.33717 0.07793
 H829 H -0.02064 0.37957 0.05598
 H830 H -0.09798 0.42467 0.07439
 C831 C -0.09974 0.72460 -0.13179
 C832 C -0.11426 0.70190 -0.11822
 C833 C -0.14396 0.70114 -0.12111
 C834 C -0.15843 0.72322 -0.13546
 C835 C -0.14387 0.74607 -0.14849
 C836 C -0.11423 0.74601 -0.14677
 C837 C -0.15918 0.67821 -0.10987
 C838 C -0.14553 0.65561 -0.09627
 C839 C -0.11600 0.65548 -0.09253
 C840 C -0.10030 0.67969 -0.10241
 C841 C -0.07135 0.68119 -0.09557
 C842 C -0.05801 0.65946 -0.08031
 C843 C -0.07266 0.63494 -0.07210
 C844 C -0.10171 0.63224 -0.07865
 C845 C -0.11507 0.60607 -0.07155
 C846 C -0.10027 0.58396 -0.05798
 C847 C -0.07193 0.58733 -0.05059
 C848 C -0.05829 0.61290 -0.05762
 H849 H -0.07707 0.72618 -0.13170
 H850 H -0.18112 0.72166 -0.13759
 H851 H -0.10193 0.76322 -0.15593
 H852 H -0.18194 0.67753 -0.11189
 H853 H -0.15889 0.63889 -0.08803
 H854 H -0.05855 0.69944 -0.10095
 H855 H -0.03583 0.66169 -0.07526
 H856 H -0.13669 0.60167 -0.07693
 H857 H -0.11113 0.56420 -0.05301
 H858 H -0.03618 0.61527 -0.05260
 C859 C 0.15526 0.69491 0.11554
 C860 C 0.12571 0.69102 0.11658
 C861 C 0.10921 0.71279 0.12963
 C862 C 0.12213 0.73626 0.14294
 C863 C 0.15165 0.73958 0.14252
 C864 C 0.16786 0.71879 0.12798
 C865 C 0.07984 0.71117 0.12923
 C866 C 0.06637 0.68853 0.11581
 C867 C 0.08187 0.66592 0.10312
 C868 C 0.11200 0.66653 0.10476
 C869 C 0.12738 0.64230 0.09535
 C870 C 0.11388 0.61853 0.08415
 C871 C 0.08466 0.61832 0.08089
 C872 C 0.06823 0.64229 0.08958
 C873 C 0.03889 0.64174 0.08387
 C874 C 0.02649 0.61803 0.07082
 C875 C 0.04275 0.59398 0.06361
 C876 C 0.07180 0.59424 0.06874
 H877 H 0.16924 0.68011 0.10478
 H878 H 0.10883 0.75263 0.15252
 H879 H 0.19064 0.72005 0.12724
 H880 H 0.06705 0.72776 0.13918
 H881 H 0.04366 0.68880 0.11668
 H882 H 0.14996 0.64060 0.09737
 H883 H 0.12653 0.60022 0.07762
 H884 H 0.02509 0.65959 0.08848
 H885 H 0.00402 0.61837 0.06662
 H886 H 0.08457 0.57590 0.06249
 C887 C 0.26790 1.11995 0.90656
 C888 C 0.29400 1.11570 0.89230
 C889 C 0.29738 1.12805 0.86470
 C890 C 0.27467 1.14209 0.85128
 C891 C 0.24880 1.14527 0.86549
 C892 C 0.24579 1.13462 0.89334
 C893 C 0.32336 1.12628 0.85067
 C894 C 0.34630 1.11292 0.86359
 C895 C 0.34383 1.09975 0.89075
 C896 C 0.31688 1.09995 0.90464
 C897 C 0.31342 1.08366 0.92992
 C898 C 0.33572 1.06837 0.94172
 C899 C 0.36254 1.06949 0.92945
 C900 C 0.36722 1.08572 0.90419
 C901 C 0.39526 1.08760 0.89377
 C902 C 0.41745 1.07365 0.90774
 C903 C 0.41247 1.05695 0.93221
 C904 C 0.38480 1.05462 0.94258
 H905 H 0.26407 1.11271 0.92816
 H906 H 0.27712 1.15078 0.82985
 H907 H 0.22596 1.13715 0.90471
 H908 H 0.32609 1.13562 0.82956
 H909 H 0.36555 1.11234 0.85124
 H910 H 0.29336 1.08146 0.94061
 H911 H 0.33200 1.05590 0.96098
 H912 H 0.40088 1.10044 0.87543
 H913 H 0.43862 1.07596 0.89927
 H914 H 0.38056 1.04161 0.96135
 C915 C 0.31332 0.86470 1.15394
 C916 C 0.31402 0.87377 1.12494
 C917 C 0.28921 0.87010 1.10847
 C918 C 0.26539 0.85673 1.12033
 C919 C 0.26522 0.84776 1.14895
 C920 C 0.28922 0.85210 1.16569
 C921 C 0.28818 0.87998 1.08030
 C922 C 0.31097 0.89415 1.06817
 C923 C 0.33617 0.89836 1.08359
 C924 C 0.33819 0.88680 1.11193
 C925 C 0.36444 0.88816 1.12605
 C926 C 0.38771 0.90097 1.11326
 C927 C 0.38561 0.91376 1.08632
 C928 C 0.35965 0.91322 1.07135
 C929 C 0.35813 0.92814 1.04496
 C930 C 0.38159 0.94218 1.03370
 C931 C 0.40753 0.94159 1.04795
 C932 C 0.40935 0.92732 1.07435
 H933 H 0.33077 0.86767 1.16832
 H934 H 0.24661 0.85390 1.10746
 H935 H 0.28938 0.84550 1.18796
 H936 H 0.26936 0.87705 1.06754
 H937 H 0.30844 0.90084 1.04623
 H938 H 0.36794 0.87872 1.14682
 H939 H 0.40751 0.90120 1.12480
 H940 H 0.33892 0.93006 1.03283
 H941 H 0.37935 0.95351 1.01361
 H942 H 0.42915 0.92722 1.08591
 C943 C 0.73129 1.08855 1.11236
 C944 C 0.70437 1.10156 1.10944
 C945 C 0.70020 1.12888 1.12213
 C946 C 0.72256 1.14297 1.13575
 C947 C 0.74907 1.12985 1.13809
 C948 C 0.75314 1.10247 1.12660
 C949 C 0.67370 1.14195 1.12134
 C950 C 0.65095 1.12832 1.10874
 C951 C 0.65399 1.10125 1.09557
 C952 C 0.68141 1.08826 1.09481
 C953 C 0.68511 1.06280 1.07888
 C954 C 0.66273 1.05011 1.06470
 C955 C 0.63559 1.06167 1.06654
 C956 C 0.63066 1.08705 1.08250
 C957 C 0.60245 1.09693 1.08496
 C958 C 0.58038 1.08264 1.07149
 C959 C 0.58553 1.05815 1.05490
 C960 C 0.61332 1.04788 1.05249
 H961 H 0.73600 1.06736 1.10448
 H962 H 0.71921 1.16398 1.14511
 H963 H 0.77346 1.09188 1.12843
 H964 H 0.67040 1.16288 1.13089
 H965 H 0.63132 1.14005 1.10892
 H966 H 0.70537 1.05255 1.07616
 H967 H 0.66668 1.03082 1.05238
 H968 H 0.59659 1.11529 1.09767
 H969 H 0.55915 1.09102 1.07395
 H970 H 0.61769 1.02894 1.03979
 C971 C 0.68623 0.83735 0.86284
 C972 C 0.68448 0.86685 0.86994
 C973 C 0.70810 0.88423 0.86343
 C974 C 0.73180 0.87265 0.84944
 C975 C 0.73310 0.84349 0.84262
 C976 C 0.71029 0.82592 0.84960
 C977 C 0.70820 0.91304 0.87122
 C978 C 0.68567 0.92498 0.88613
 C979 C 0.66164 0.90866 0.89323
 C980 C 0.66046 0.87953 0.88379
 C981 C 0.63516 0.86425 0.88804
 C982 C 0.61205 0.87673 0.90165
 C983 C 0.61344 0.90455 0.91237
 C984 C 0.63847 0.92073 0.90891
 C985 C 0.63938 0.94819 0.92174
 C986 C 0.61612 0.95932 0.93646
 C987 C 0.59110 0.94370 0.93872
 C988 C 0.58991 0.91628 0.92664
 H989 H 0.66975 0.82238 0.86797
 H990 H 0.74974 0.88617 0.84462
 H991 H 0.71109 0.80323 0.84477
 H992 H 0.72612 0.92646 0.86610
 H993 H 0.68740 0.94742 0.89111
 H994 H 0.63224 0.84274 0.88031
 H995 H 0.59295 0.86428 0.90411
 H996 H 0.65793 0.96140 0.92134
 H997 H 0.61763 0.98053 0.94575
 H998 H 0.57075 0.90386 0.92875
   
