data_POSCAR
  _audit_creation_date              2014-09-24
  _audit_creation_method            'ToBaCCo'
  _symmetry_space_group_name_H-M    'P1'
  _symmetry_Int_Tables_number       1
  _symmetry_cell_setting            triclinic
  loop_
  _symmetry_equiv_pos_as_xyz
 x,y,z
_cell_length_a 19.6893
_cell_length_b 19.2971
_cell_length_c 49.9715
_cell_angle_alpha 89.593000
_cell_angle_beta 89.869200
_cell_angle_gamma 121.960700
loop_
  _atom_site_label
  _atom_site_type_symbol
  _atom_site_fract_x
  _atom_site_fract_y
  _atom_site_fract_z
C1 C 0.03847 0.11084 0.54048
 H2 H 0.09132 0.10762 0.53791
 C3 C 0.04017 0.16717 0.55803
 H4 H 0.09455 0.20650 0.56902
 C5 C -0.09600 0.06265 0.52893
 H6 H -0.14890 0.02138 0.51767
 C7 C -0.09718 0.11817 0.54664
 H8 H -0.15123 0.11950 0.54869
 N9 N -0.02805 0.06120 0.52595
 C10 C -0.05831 -0.12199 0.53985
 H11 H -0.11161 -0.11974 0.53712
 C12 C -0.05993 -0.17890 0.55744
 H13 H -0.11483 -0.21978 0.56827
 C14 C 0.07748 -0.07045 0.52870
 H15 H 0.13070 -0.02779 0.51746
 C16 C 0.07873 -0.12651 0.54643
 H17 H 0.13330 -0.12673 0.54862
 Zn18 Zn -0.00869 -0.00331 0.50257
 N19 N 0.00906 -0.07002 0.52566
 C20 C 0.12499 0.04940 0.46648
 N21 N 0.07869 0.07014 0.48025
 C22 C 0.08624 0.14371 0.47617
 C23 C 0.14247 0.20028 0.45813
 C24 C 0.18283 0.10484 0.44818
 C25 C -0.14524 -0.05801 0.46779
 C26 C -0.20207 -0.11318 0.44961
 C27 C -0.14940 -0.20031 0.45579
 C28 C -0.09462 -0.14417 0.47385
 N29 N -0.09380 -0.07511 0.47979
 H30 H 0.11591 -0.01059 0.46923
 H31 H 0.04667 0.15795 0.48630
 H32 H 0.14641 0.25798 0.45525
 H33 H 0.21879 0.08728 0.43721
 H34 H -0.14127 -0.00103 0.47182
 H35 H -0.24219 -0.09783 0.44035
 H36 H -0.14730 -0.25421 0.45169
 H37 H -0.05113 -0.15514 0.48272
 C38 C 0.00892 -0.18218 0.56089
 C39 C -0.02786 0.17211 0.56118
 C40 C -0.20455 -0.18575 0.44313
 C41 C 0.19146 0.18126 0.44368
 C42 C 1.09389 0.03008 0.11452
 H43 H 1.07318 0.07110 0.11073
 C44 C 1.14994 0.03095 0.09728
 H45 H 1.17028 0.07123 0.07996
 C46 C 1.09664 -0.06766 0.14270
 H47 H 1.08069 -0.10123 0.16137
 C48 C 1.15188 -0.06993 0.12558
 H49 H 1.17514 -0.10805 0.13077
 N50 N 1.06850 -0.01828 0.13681
 C51 C 0.88078 -0.04969 0.12815
 H52 H 0.87966 -0.10529 0.13248
 C53 C 0.82281 -0.05222 0.11163
 H54 H 0.77744 -0.11028 0.10338
 C55 C 0.94273 0.09317 0.13367
 H56 H 0.99023 0.14962 0.14208
 C57 C 0.88574 0.09354 0.11697
 H58 H 0.88962 0.15068 0.11284
 Zn59 Zn 1.00920 0.00744 0.16045
 N60 N 0.93887 0.02188 0.13889
 C61 C 1.06769 0.15197 0.19274
 N62 N 1.08540 0.10140 0.17987
 C63 C 1.15755 0.10889 0.18326
 C64 C 1.21383 0.16630 0.20071
 C65 C 1.12277 0.21082 0.21046
 C66 C 0.92429 -0.15328 0.18638
 C67 C 0.86818 -0.20956 0.20487
 C68 C 0.84597 -0.10504 0.22052
 C69 C 0.90282 -0.05092 0.20211
 N70 N 0.94129 -0.07510 0.18560
 H71 H 1.01003 0.14513 0.19003
 H72 H 1.17066 0.06782 0.17335
 H73 H 1.26975 0.16905 0.20346
 H74 H 1.10674 0.24885 0.22113
 H75 H 0.95153 -0.17330 0.17219
 H76 H 0.85490 -0.27166 0.20514
 H77 H 0.81623 -0.08388 0.23331
 H78 H 0.91472 0.01031 0.20050
 C79 C 0.82464 0.01990 0.10575
 C80 C 1.18035 -0.01874 0.10286
 C81 C 0.82788 -0.18557 0.22212
 C82 C 1.19620 0.21695 0.21511
 C83 C 0.06278 0.96419 0.88085
 H84 H -0.00016 0.91813 0.88298
 C85 C 0.11764 0.96267 0.89796
 H86 H 0.09603 0.91636 0.91356
 C87 C 0.16701 1.07716 0.85689
 H88 H 0.18662 1.11807 0.83986
 C89 C 0.22420 1.07865 0.87394
 H90 H 0.28709 1.12298 0.87035
 N91 N 0.08781 1.02036 0.86070
 C92 C -0.15141 0.90854 0.86491
 H93 H -0.16051 0.85167 0.85763
 C94 C -0.20902 0.90792 0.88168
 H95 H -0.26258 0.84997 0.88673
 C96 C -0.06929 1.05244 0.86815
 H97 H -0.01405 1.10861 0.86308
 C98 C -0.12490 1.05485 0.88464
 H99 H -0.11118 1.11364 0.89188
 Zn100 Zn 0.00312 0.99637 0.83692
 N101 N -0.08333 0.98048 0.85844
 C102 C -0.08625 0.84464 0.80715
 N103 N -0.01460 0.90502 0.81686
 C104 C 0.05458 0.90956 0.81009
 C105 C 0.05404 0.85250 0.79314
 C106 C -0.08956 0.78579 0.78994
 C107 C 0.07926 1.15981 0.81326
 C108 C 0.07884 1.21589 0.79539
 C109 C -0.04224 1.10545 0.77594
 C110 C -0.03885 1.05171 0.79379
 N111 N 0.02104 1.07914 0.81199
 H112 H -0.14035 0.84361 0.81187
 H113 H 0.11116 0.95927 0.81725
 H114 H 0.11045 0.85871 0.78795
 H115 H -0.14677 0.73904 0.78199
 H116 H 0.12366 1.18169 0.82880
 H117 H 0.12481 1.28003 0.79687
 H118 H -0.09115 1.08189 0.76187
 H119 H -0.08589 0.98790 0.79371
 C120 C -0.19617 0.98205 0.89183
 C121 C 0.19959 1.01974 0.89446
 C122 C 0.01673 1.18882 0.77668
 C123 C -0.01841 0.79004 0.78250
 O124 O 0.54230 -0.05980 0.02433
 O125 O 0.40495 -0.06170 -0.02653
 O126 O 0.53165 -0.07396 -0.02762
 O127 O 0.40412 -0.07175 0.02535
 O128 O 0.46961 0.06300 0.02314
 O129 O 0.60509 0.06090 -0.02784
 O130 O 0.47928 0.07305 -0.02870
 O131 O 0.60883 0.07506 0.02407
 Cu132 Cu 0.46402 -0.08009 -0.00107
 Cu133 Cu 0.54775 0.08127 -0.00239
 C134 C 0.59896 0.00863 0.03290
 C135 C 0.41908 0.00605 -0.03617
 C136 C 0.59085 -0.00752 -0.03642
 C137 C 0.41353 -0.00471 0.03287
 O138 O -0.06728 0.39160 0.69547
 O139 O -0.06757 0.53156 0.64440
 O140 O -0.08142 0.38925 0.64366
 O141 O -0.07973 0.52036 0.69649
 O142 O 0.05249 0.59355 0.69570
 O143 O 0.05079 0.45742 0.64359
 O144 O 0.06461 0.59998 0.64351
 O145 O 0.06495 0.46591 0.69541
 Cu146 Cu -0.08696 0.45136 0.67008
 Cu147 Cu 0.07113 0.53630 0.66945
 C148 C -0.00030 0.40552 0.70407
 C149 C -0.00080 0.58969 0.63525
 C150 C -0.01624 0.39979 0.63486
 C151 C -0.01402 0.57943 0.70501
 O152 O 0.59495 0.54118 0.35862
 O153 O 0.46077 0.40778 0.30506
 O154 O 0.60353 0.53804 0.30660
 O155 O 0.46271 0.39713 0.35718
 O156 O 0.40100 0.46502 0.35786
 O157 O 0.54280 0.60696 0.30627
 O158 O 0.39894 0.47556 0.30575
 O159 O 0.53305 0.60892 0.35810
 Cu160 Cu 0.53640 0.46423 0.33192
 Cu161 Cu 0.46275 0.54565 0.33199
 C162 C 0.58696 0.59851 0.36723
 C163 C 0.40691 0.41953 0.29631
 C164 C 0.59762 0.59625 0.29776
 C165 C 0.40797 0.40651 0.36618
 N166 N 0.04578 0.29287 0.58993
 C167 C -0.02520 0.23320 0.57967
 N168 N -0.09305 0.23017 0.58718
 N169 N -0.08996 0.28402 0.60449
 C170 C -0.01893 0.34321 0.61481
 N171 N 0.04894 0.34684 0.60714
 N172 N 0.76178 0.68572 0.24829
 C173 C 0.76651 0.75633 0.24140
 N174 N 0.71431 0.77330 0.25290
 N175 N 0.65978 0.72201 0.27062
 C176 C 0.65564 0.65186 0.27762
 N177 N 0.70757 0.63463 0.26613
 N178 N 0.33305 0.08194 -0.08491
 C179 C 0.25831 0.01556 -0.08828
 N180 N 0.23792 -0.05491 -0.07514
 N181 N 0.28976 -0.05876 -0.05909
 C182 C 0.36401 0.00791 -0.05548
 N183 N 0.38470 0.07829 -0.06868
 N184 N -0.06408 0.69666 0.59034
 C185 C 0.00671 0.75681 0.57966
 N186 N 0.07486 0.76041 0.58700
 N187 N 0.07223 0.70656 0.60450
 C188 C 0.00139 0.64685 0.61523
 N189 N -0.06678 0.64270 0.60776
 N190 N 0.24140 0.32782 0.24805
 C191 C 0.25247 0.27195 0.23577
 N192 N 0.31496 0.26528 0.24353
 N193 N 0.36423 0.31223 0.26277
 C194 C 0.35300 0.36789 0.27501
 N195 N 0.29089 0.37506 0.26724
 N196 N 0.68061 -0.08548 -0.08267
 C197 C 0.74841 -0.01574 -0.09087
 N198 N 0.76241 0.05673 -0.08149
 N199 N 0.71169 0.05953 -0.06454
 C200 C 0.64459 -0.01018 -0.05623
 N201 N 0.62985 -0.08274 -0.06565
 N202 N 0.29316 0.05491 0.07123
 C203 C 0.24339 -0.01429 0.08548
 N204 N 0.25207 -0.07922 0.08307
 N205 N 0.30736 -0.07552 0.06664
 C206 C 0.35679 -0.00641 0.05234
 N207 N 0.34896 0.05891 0.05502
 N208 N 0.74458 0.69323 0.41812
 C209 C 0.74333 0.76081 0.42496
 N210 N 0.68906 0.77344 0.41273
 N211 N 0.63893 0.72130 0.39457
 C212 C 0.64105 0.65446 0.38776
 N213 N 0.69476 0.64131 0.39988
 N214 N -0.05856 0.22545 0.74644
 C215 C 0.01180 0.24660 0.75838
 N216 N 0.07742 0.32123 0.75287
 N217 N 0.07304 0.37209 0.73582
 C218 C 0.00277 0.35069 0.72384
 N219 N -0.06309 0.27654 0.72953
 N220 N 0.70278 -0.05529 0.07839
 C221 C 0.76393 0.01735 0.08756
 N222 N 0.76912 0.08706 0.07911
 N223 N 0.71582 0.08412 0.06200
 C224 C 0.65515 0.01141 0.05276
 N225 N 0.64945 -0.05828 0.06134
 N226 N 0.24613 0.30688 0.41631
 C227 C 0.24873 0.24023 0.42354
 N228 N 0.30426 0.22886 0.41175
 N229 N 0.35508 0.28206 0.39356
 C230 C 0.35215 0.34848 0.38636
 N231 N 0.29669 0.35990 0.39806
 N232 N 0.05244 0.74383 0.75407
 C233 C -0.01803 0.73288 0.76290
 N234 N -0.08729 0.67025 0.75275
 N235 N -0.08595 0.62094 0.73450
 C236 C -0.01535 0.63245 0.72564
 N237 N 0.05384 0.69471 0.73580
   
