data_POSCAR
  _audit_creation_date              2014-09-24
  _audit_creation_method            'ToBaCCo'
  _symmetry_space_group_name_H-M    'P1'
  _symmetry_Int_Tables_number       1
  _symmetry_cell_setting            triclinic
  loop_
  _symmetry_equiv_pos_as_xyz
 x,y,z
_cell_length_a 39.8904
_cell_length_b 38.3550
_cell_length_c 40.3765
_cell_angle_alpha 89.993900
_cell_angle_beta 90.103300
_cell_angle_gamma 90.536000
loop_
  _atom_site_label
  _atom_site_type_symbol
  _atom_site_fract_x
  _atom_site_fract_y
  _atom_site_fract_z
C1 C 0.26911 0.39857 -0.00335
 C2 C 0.28151 0.38447 0.02606
 C3 C 0.30880 0.36213 0.02493
 C4 C 0.32506 0.35445 -0.00530
 C5 C 0.31270 0.37017 -0.03469
 C6 C 0.28354 0.39067 -0.03421
 C7 C 0.35281 0.32806 -0.00592
 C8 C 0.36020 0.30889 -0.03500
 C9 C 0.38217 0.28035 -0.03419
 C10 C 0.39672 0.27109 -0.00368
 C11 C 0.39033 0.28997 0.02515
 C12 C 0.37004 0.31935 0.02359
 H13 H 0.24909 0.41733 -0.00167
 H14 H 0.31619 0.35009 0.04794
 H15 H 0.32481 0.36567 -0.05821
 H16 H 0.34766 0.31457 -0.05809
 H17 H 0.41462 0.25015 -0.00204
 H18 H 0.36702 0.33435 0.04600
 C19 C 0.71943 0.58767 0.00478
 C20 C 0.70218 0.59361 0.03439
 C21 C 0.67414 0.61525 0.03424
 C22 C 0.66505 0.63420 0.00552
 C23 C 0.68343 0.62804 -0.02394
 C24 C 0.71015 0.60457 -0.02453
 C25 C 0.63827 0.66174 0.00688
 C26 C 0.62411 0.67557 -0.02247
 C27 C 0.60313 0.70480 -0.02168
 C28 C 0.59273 0.71748 0.00932
 C29 C 0.60491 0.70326 0.03890
 C30 C 0.62802 0.67611 0.03753
 H31 H 0.73979 0.56918 0.00450
 H32 H 0.66035 0.61764 0.05709
 H33 H 0.67826 0.64206 -0.04651
 H34 H 0.63004 0.66463 -0.04636
 H35 H 0.57370 0.73729 0.01078
 H36 H 0.63834 0.66733 0.06075
 C37 C 0.74290 0.38125 0.99919
 C38 C 0.72158 0.38241 0.97166
 C39 C 0.69030 0.36570 0.97320
 C40 C 0.68131 0.34517 1.00098
 C41 C 0.70332 0.34459 1.02856
 C42 C 0.73384 0.36299 1.02767
 C43 C 0.65071 0.32223 0.99985
 C44 C 0.63455 0.31114 1.02929
 C45 C 0.60907 0.28556 1.02837
 C46 C 0.59714 0.27442 0.99729
 C47 C 0.61244 0.28510 0.96787
 C48 C 0.63919 0.30879 0.96919
 H49 H 0.76659 0.39534 0.99884
 H50 H 0.67363 0.36790 0.95214
 H51 H 0.69783 0.32882 1.05011
 H52 H 0.64270 0.32107 1.05309
 H53 H 0.57522 0.25766 0.99554
 H54 H 0.65176 0.31526 0.94625
 C55 C 0.28070 0.60029 1.00073
 C56 C 0.29168 0.61381 0.97049
 C57 C 0.31865 0.63717 0.97000
 C58 C 0.33526 0.64722 0.99952
 C59 C 0.32366 0.63315 1.02995
 C60 C 0.29563 0.61059 1.03067
 C61 C 0.36247 0.67445 0.99797
 C62 C 0.36791 0.69822 1.02438
 C63 C 0.38895 0.72768 1.02007
 C64 C 0.40348 0.73353 0.98900
 C65 C 0.39960 0.70967 0.96316
 C66 C 0.38067 0.67940 0.96824
 H67 H 0.26035 0.58135 1.00094
 H68 H 0.32539 0.64854 0.94640
 H69 H 0.33568 0.64014 1.05308
 H70 H 0.35414 0.69525 1.04723
 H71 H 0.41898 0.75655 0.98492
 H72 H 0.37881 0.66082 0.94815
 C73 C 0.01888 0.27035 0.40010
 C74 C 0.04514 0.29445 0.39629
 C75 C 0.04032 0.32411 0.37670
 C76 C 0.01003 0.32856 0.35896
 C77 C -0.01625 0.30397 0.36357
 C78 C -0.01186 0.27508 0.38435
 C79 C 0.00707 0.35633 0.33315
 C80 C -0.02452 0.37010 0.32459
 C81 C -0.02830 0.39116 0.29640
 C82 C 0.00064 0.40159 0.27891
 C83 C 0.03246 0.38948 0.28773
 C84 C 0.03547 0.36675 0.31465
 H85 H 0.02243 0.24761 0.41567
 H86 H 0.06071 0.34275 0.37430
 H87 H -0.03939 0.30592 0.34971
 H88 H -0.04656 0.36295 0.33878
 H89 H -0.00127 0.42056 0.25918
 H90 H 0.05993 0.35621 0.32013
 C91 C -0.00719 0.71368 0.58352
 C92 C 0.02363 0.70020 0.59343
 C93 C 0.02463 0.67552 0.61892
 C94 C -0.00456 0.66708 0.63743
 C95 C -0.03530 0.68239 0.62751
 C96 C -0.03665 0.70545 0.60060
 C97 C -0.00241 0.64522 0.66847
 C98 C -0.03162 0.63074 0.68324
 C99 C -0.03045 0.61483 0.71459
 C100 C 0.00102 0.60959 0.72939
 C101 C 0.03055 0.62188 0.71470
 C102 C 0.02869 0.64016 0.68480
 H103 H -0.00805 0.73162 0.56278
 H104 H 0.04868 0.66443 0.62475
 H105 H -0.05812 0.67829 0.64134
 H106 H -0.05570 0.63249 0.67111
 H107 H 0.00304 0.59373 0.75144
 H108 H 0.05182 0.65081 0.67521
 C109 C 0.99845 0.73660 0.38556
 C110 C 0.96851 0.71917 0.37788
 C111 C 0.96923 0.68992 0.35724
 C112 C 0.99931 0.67962 0.34155
 C113 C 1.02926 0.69797 0.34981
 C114 C 1.02917 0.72635 0.37183
 C115 C 0.99906 0.65160 0.31527
 C116 C 1.02915 0.63564 0.30476
 C117 C 1.02970 0.61383 0.27685
 C118 C 0.99906 0.60385 0.26224
 C119 C 0.96863 0.61761 0.27304
 C120 C 0.96889 0.64198 0.29886
 H121 H 0.99759 0.75699 0.40402
 H122 H 0.94595 0.67595 0.35331
 H123 H 1.05279 0.69164 0.33822
 H124 H 1.05264 0.64100 0.31716
 H125 H 0.99871 0.58361 0.24361
 H126 H 0.94525 0.65362 0.30526
 C127 C 1.00186 0.28492 0.59293
 C128 C 0.97161 0.30149 0.60025
 C129 C 0.97154 0.32909 0.62293
 C130 C 1.00074 0.33815 0.64107
 C131 C 1.03078 0.32030 0.63368
 C132 C 1.03157 0.29410 0.60947
 C133 C 0.99933 0.36423 0.66893
 C134 C 1.02892 0.38043 0.68132
 C135 C 1.02835 0.40058 0.71037
 C136 C 0.99713 0.40832 0.72452
 C137 C 0.96733 0.39389 0.71221
 C138 C 0.96854 0.37155 0.68489
 H139 H 1.00228 0.26526 0.57370
 H140 H 0.94823 0.34262 0.62670
 H141 H 1.05363 0.32553 0.64726
 H142 H 1.05279 0.37649 0.66935
 H143 H 0.99555 0.42705 0.74448
 H144 H 0.94533 0.35930 0.67718
 C145 C 0.40994 -0.00087 0.29042
 C146 C 0.39793 0.03135 0.30132
 C147 C 0.37857 0.03273 0.33013
 C148 C 0.37187 0.00231 0.34889
 C149 C 0.38644 -0.02940 0.33855
 C150 C 0.40346 -0.03175 0.30823
 C151 C 0.34710 0.00294 0.37689
 C152 C 0.32830 -0.02742 0.38489
 C153 C 0.30224 -0.02635 0.40798
 C154 C 0.29464 0.00529 0.42331
 C155 C 0.31219 0.03588 0.41538
 C156 C 0.33929 0.03443 0.39342
 H157 H 0.42585 -0.00143 0.26874
 H158 H 0.36779 0.05750 0.33674
 H159 H 0.38305 -0.05290 0.35301
 H160 H 0.33227 -0.05173 0.37202
 H161 H 0.27450 0.00641 0.44126
 H162 H 0.35305 0.05826 0.38844
 C163 C 0.61278 0.00166 0.73074
 C164 C 0.61786 0.03283 0.71339
 C165 C 0.63720 0.03271 0.68453
 C166 C 0.65383 0.00215 0.67417
 C167 C 0.64830 -0.02899 0.69244
 C168 C 0.62779 -0.02957 0.72068
 C169 C 0.67809 0.00307 0.64563
 C170 C 0.68733 -0.02794 0.62907
 C171 C 0.71288 -0.02763 0.60538
 C172 C 0.72712 0.00414 0.59555
 C173 C 0.71811 0.03544 0.61076
 C174 C 0.69389 0.03475 0.63590
 H175 H 0.59515 0.00180 0.75106
 H176 H 0.63937 0.05675 0.67070
 H177 H 0.66093 -0.05280 0.68589
 H178 H 0.67560 -0.05269 0.63485
 H179 H 0.74519 0.00426 0.57555
 H180 H 0.68852 0.05900 0.64832
 C181 C 0.41693 0.99417 0.70911
 C182 C 0.40860 0.96250 0.69390
 C183 C 0.38429 0.96186 0.66876
 C184 C 0.36583 0.99224 0.66087
 C185 C 0.37418 1.02360 0.67775
 C186 C 0.39963 1.02464 0.70157
 C187 C 0.33608 0.99087 0.63778
 C188 C 0.32267 1.02191 0.62434
 C189 C 0.29150 1.02200 0.60814
 C190 C 0.27577 0.98985 0.60143
 C191 C 0.28959 0.95839 0.61220
 C192 C 0.31927 0.95901 0.63077
 H193 H 0.43660 0.99486 0.72769
 H194 H 0.37924 0.93725 0.65667
 H195 H 0.36000 1.04714 0.67417
 H196 H 0.33567 1.04656 0.62729
 H197 H 0.25371 0.98876 0.58583
 H198 H 0.32822 0.93447 0.64023
 C199 C 0.59624 0.99929 0.27135
 C200 C 0.60375 0.96885 0.28881
 C201 C 0.62325 0.97116 0.31756
 C202 C 0.63776 1.00329 0.32760
 C203 C 0.63009 1.03358 0.30905
 C204 C 0.60943 1.03189 0.28086
 C205 C 0.66242 1.00481 0.35582
 C206 C 0.66964 1.03659 0.37232
 C207 C 0.69594 1.03888 0.39526
 C208 C 0.71337 1.00879 0.40411
 C209 C 0.70591 0.97664 0.38927
 C210 C 0.68078 0.97487 0.36505
 H211 H 0.57819 0.99746 0.25141
 H212 H 0.62719 0.94758 0.33164
 H213 H 0.64124 1.05851 0.31531
 H214 H 0.65584 1.06001 0.36686
 H215 H 0.73274 1.01059 0.42291
 H216 H 0.67691 0.95018 0.35267
 O217 O 0.85337 0.90280 0.52806
 O218 O 0.89736 0.86004 0.46019
 O219 O 0.85282 0.90823 0.46440
 O220 O 0.89956 0.85649 0.52422
 O221 O 0.86046 0.81531 0.52358
 O222 O 0.81314 0.86774 0.46186
 O223 O 0.85897 0.81817 0.45885
 O224 O 0.81312 0.86285 0.52609
 Cu225 Cu 0.87970 0.88585 0.49436
 Cu226 Cu 0.83244 0.83678 0.49234
 C227 C 0.82559 0.89065 0.53829
 C228 C 0.88610 0.83170 0.44823
 C229 C 0.82495 0.89735 0.45324
 C230 C 0.88836 0.82732 0.53416
 O231 O 0.15523 0.10372 0.53289
 O232 O 0.12042 0.15636 0.46618
 O233 O 0.16554 0.10979 0.47021
 O234 O 0.10898 0.15079 0.52921
 O235 O 0.14660 0.19198 0.53959
 O236 O 0.20423 0.15033 0.47931
 O237 O 0.15746 0.19835 0.47592
 O238 O 0.19436 0.14370 0.54225
 Cu239 Cu 0.13366 0.12620 0.49889
 Cu240 Cu 0.17942 0.17541 0.51049
 C241 C 0.18136 0.11392 0.54806
 C242 C 0.13279 0.18607 0.45953
 C243 C 0.19439 0.12263 0.46475
 C244 C 0.11767 0.17851 0.54409
 O245 O 0.09804 0.85325 0.52734
 O246 O 0.14915 0.90765 0.47259
 O247 O 0.10048 0.86348 0.46426
 O248 O 0.14598 0.89770 0.53588
 O249 O 0.18352 0.85595 0.53165
 O250 O 0.13632 0.82021 0.45950
 O251 O 0.18617 0.86548 0.46773
 O252 O 0.13424 0.81020 0.52330
 Cu253 Cu 0.11982 0.88474 0.50039
 Cu254 Cu 0.16385 0.83362 0.49503
 C255 C 0.10704 0.82255 0.53448
 C256 C 0.17648 0.89622 0.46115
 C257 C 0.10997 0.83584 0.45006
 C258 C 0.17254 0.88318 0.54585
 O259 O 0.83807 0.12615 0.45066
 O260 O 0.89032 0.16577 0.51465
 O261 O 0.84607 0.11642 0.51371
 O262 O 0.87960 0.17850 0.45276
 O263 O 0.83813 0.21456 0.46319
 O264 O 0.80612 0.15341 0.52683
 O265 O 0.85108 0.20438 0.52557
 O266 O 0.79593 0.16059 0.46341
 Cu267 Cu 0.86745 0.14308 0.48166
 Cu268 Cu 0.81863 0.18695 0.49587
 C269 C 0.80805 0.13563 0.44657
 C270 C 0.88022 0.19208 0.53053
 C271 C 0.82051 0.12428 0.53074
 C272 C 0.86493 0.20732 0.44785
 O273 O 0.47499 0.89432 0.83982
 O274 O 0.53027 0.85020 0.89777
 O275 O 0.53862 0.89696 0.85209
 O276 O 0.46719 0.84743 0.88415
 O277 O 0.47622 0.80526 0.84802
 O278 O 0.54765 0.85668 0.81413
 O279 O 0.53968 0.80850 0.86128
 O280 O 0.48306 0.85366 0.80197
 Cu281 Cu 0.50211 0.87635 0.87208
 Cu282 Cu 0.51279 0.82690 0.82745
 C283 C 0.46925 0.88178 0.81134
 C284 C 0.54367 0.82154 0.89004
 C285 C 0.55486 0.88592 0.82734
 C286 C 0.45973 0.81788 0.87205
 O287 O 0.51856 0.14422 0.09819
 O288 O 0.45758 0.09811 0.14962
 O289 O 0.45422 0.14503 0.10395
 O290 O 0.52196 0.09726 0.14363
 O291 O 0.52701 0.13784 0.18220
 O292 O 0.45941 0.18752 0.14063
 O293 O 0.46180 0.13903 0.18794
 O294 O 0.52426 0.18587 0.13565
 Cu295 Cu 0.48759 0.11710 0.12013
 Cu296 Cu 0.49344 0.16678 0.16558
 C297 C 0.53160 0.17278 0.10768
 C298 C 0.44959 0.11019 0.17767
 C299 C 0.44579 0.17465 0.11480
 C300 C 0.53579 0.10889 0.16970
 O301 O 0.53302 0.09577 0.84975
 O302 O 0.46563 0.13571 0.89712
 O303 O 0.46823 0.09050 0.84956
 O304 O 0.53017 0.13906 0.89788
 O305 O 0.52894 0.18266 0.86212
 O306 O 0.46590 0.13300 0.81271
 O307 O 0.46333 0.17937 0.86152
 O308 O 0.53114 0.13814 0.81271
 Cu309 Cu 0.49928 0.11096 0.87708
 Cu310 Cu 0.49693 0.16273 0.83355
 C311 C 0.54366 0.10990 0.82335
 C312 C 0.45345 0.16457 0.88801
 C313 C 0.45689 0.10290 0.82277
 C314 C 0.54021 0.16889 0.88854
 O315 O 0.45135 0.82215 0.12862
 O316 O 0.51543 0.88213 0.16156
 O317 O 0.51544 0.83664 0.11693
 O318 O 0.45249 0.87821 0.16737
 O319 O 0.46207 0.84216 0.20900
 O320 O 0.52416 0.79663 0.15533
 O321 O 0.52628 0.84474 0.20175
 O322 O 0.46027 0.78563 0.16974
 Cu323 Cu 0.48177 0.85733 0.13954
 Cu324 Cu 0.49387 0.81323 0.18790
 C325 C 0.44504 0.79348 0.14325
 C326 C 0.53167 0.87371 0.18743
 C327 C 0.53069 0.80991 0.12701
 C328 C 0.44755 0.86888 0.19700
 O329 O 0.90131 0.53800 0.85687
 O330 O 0.85672 0.46771 0.89960
 O331 O 0.90196 0.47071 0.85485
 O332 O 0.85696 0.53502 0.90382
 O333 O 0.81668 0.53707 0.86628
 O334 O 0.86244 0.47116 0.81642
 O335 O 0.81600 0.46941 0.86244
 O336 O 0.86230 0.53915 0.81799
 Cu337 Cu 0.88315 0.50296 0.88255
 Cu338 Cu 0.83528 0.50461 0.83687
 C339 C 0.89010 0.54988 0.82978
 C340 C 0.82884 0.45663 0.88853
 C341 C 0.89017 0.45982 0.82756
 C342 C 0.82896 0.54647 0.89406
 O343 O 0.14332 0.46527 0.09594
 O344 O 0.10313 0.53644 0.13955
 O345 O 0.15026 0.53259 0.09628
 O346 O 0.09827 0.46951 0.14154
 O347 O 0.13673 0.46623 0.18083
 O348 O 0.18907 0.53093 0.13533
 O349 O 0.14039 0.53383 0.18004
 O350 O 0.18298 0.46286 0.13412
 Cu351 Cu 0.12006 0.50119 0.11440
 Cu352 Cu 0.16634 0.49820 0.16152
 C353 C 0.17004 0.45214 0.10707
 C354 C 0.11403 0.54675 0.16736
 C355 C 0.17836 0.54256 0.10782
 C356 C 0.10827 0.45747 0.16906
 O357 O 0.83488 0.51090 0.11126
 O358 O 0.87844 0.44590 0.15999
 O359 O 0.82427 0.44549 0.12444
 O360 O 0.88545 0.51223 0.15100
 O361 O 0.85307 0.52567 0.19336
 O362 O 0.79303 0.45672 0.16816
 O363 O 0.84891 0.45905 0.20443
 O364 O 0.80108 0.52238 0.15310
 Cu365 Cu 0.85879 0.47727 0.13244
 Cu366 Cu 0.82070 0.49201 0.18413
 C367 C 0.81053 0.52746 0.12334
 C368 C 0.87236 0.44215 0.19050
 C369 C 0.79802 0.43996 0.14157
 C370 C 0.87974 0.53029 0.17673
 O371 O 0.09845 0.47797 0.85218
 O372 O 0.14469 0.54269 0.90038
 O373 O 0.10026 0.54534 0.85428
 O374 O 0.14424 0.47561 0.89739
 O375 O 0.18446 0.47609 0.85984
 O376 O 0.13915 0.54648 0.81539
 O377 O 0.18487 0.54385 0.86277
 O378 O 0.13726 0.47846 0.81320
 Cu379 Cu 0.11798 0.51021 0.87975
 Cu380 Cu 0.16548 0.51128 0.83383
 C381 C 0.10934 0.46750 0.82451
 C382 C 0.17276 0.55397 0.89025
 C383 C 0.11185 0.55767 0.82748
 C384 C 0.17197 0.46439 0.88665
 C385 C 0.26656 0.39436 0.05819
 C386 C 0.23345 0.39790 0.06123
 C387 C 0.21824 0.41699 0.08893
 C388 C 0.18587 0.42521 0.08682
 H389 H 0.21737 0.38971 0.04092
 H390 H 0.23392 0.42786 0.10838
 H391 H 0.28305 0.40087 0.07868
 H392 H 0.17111 0.41504 0.06633
 C393 C 0.71406 0.57779 0.06570
 C394 C 0.74685 0.57680 0.07247
 C395 C 0.76095 0.55753 0.10075
 C396 C 0.79402 0.55254 0.10154
 H397 H 0.76426 0.58911 0.05536
 H398 H 0.74460 0.54482 0.11854
 H399 H 0.69599 0.56736 0.08317
 H400 H 0.80946 0.56375 0.08209
 C401 C 0.73238 0.40112 0.94140
 C402 C 0.76436 0.39986 0.93168
 C403 C 0.77873 0.42401 0.90717
 C404 C 0.81193 0.42881 0.90704
 H405 H 0.78141 0.38257 0.94451
 H406 H 0.76255 0.44009 0.89206
 H407 H 0.71450 0.41698 0.92808
 H408 H 0.82734 0.41397 0.92403
 C409 C 0.27484 0.60355 0.93931
 C410 C 0.24152 0.60047 0.93788
 C411 C 0.22411 0.58390 0.90979
 C412 C 0.19121 0.57789 0.91211
 H413 H 0.22676 0.60812 0.95919
 H414 H 0.23839 0.57349 0.88928
 H415 H 0.28995 0.59781 0.91774
 H416 H 0.17773 0.58765 0.93346
 C417 C 0.07775 0.28697 0.41201
 C418 C 0.09105 0.25541 0.40791
 C419 C 0.11516 0.24020 0.43132
 C420 C 0.11735 0.20547 0.43234
 H421 H 0.07990 0.23822 0.38947
 H422 H 0.12716 0.25626 0.45007
 H423 H 0.08834 0.30535 0.42960
 H424 H 0.10312 0.19002 0.41461
 C425 C 0.05486 0.71495 0.57920
 C426 C 0.05802 0.74959 0.57635
 C427 C 0.08592 0.76726 0.55917
 C428 C 0.08446 0.80186 0.55550
 H429 H 0.03813 0.76583 0.58599
 H430 H 0.10573 0.75231 0.54781
 H431 H 0.07498 0.69788 0.57178
 H432 H 0.06373 0.81585 0.56648
 C433 C 0.93663 0.73168 0.39223
 C434 C 0.93096 0.76594 0.39449
 C435 C 0.90449 0.78083 0.41538
 C436 C 0.90595 0.81491 0.42228
 H437 H 0.94854 0.78391 0.38288
 H438 H 0.88648 0.76392 0.42765
 H439 H 0.91879 0.71300 0.40220
 H440 H 0.92536 0.83085 0.41088
 C441 C 0.93989 0.28945 0.58464
 C442 C 0.93383 0.25539 0.58028
 C443 C 0.90466 0.24174 0.56177
 C444 C 0.90367 0.20779 0.55436
 H445 H 0.95191 0.23678 0.58949
 H446 H 0.88604 0.25935 0.55192
 H447 H 0.92136 0.30844 0.57732
 H448 H 0.92370 0.19117 0.56309
 C449 C 0.40637 0.06369 0.28289
 C450 C 0.40758 0.06394 0.24980
 C451 C 0.42337 0.09253 0.23081
 C452 C 0.42692 0.08880 0.19810
 H453 H 0.39907 0.04102 0.23635
 H454 H 0.43508 0.11427 0.24366
 H455 H 0.41306 0.08695 0.29673
 H456 H 0.41572 0.06620 0.18611
 C457 C 0.60181 0.06508 0.72558
 C458 C 0.60083 0.07143 0.75816
 C459 C 0.57735 0.09602 0.77349
 C460 C 0.57081 0.09226 0.80578
 H461 H 0.61524 0.05488 0.77458
 H462 H 0.56322 0.11406 0.75839
 H463 H 0.58887 0.08185 0.70828
 H464 H 0.58406 0.07250 0.81975
 C465 C 0.42350 0.93007 0.70706
 C466 C 0.42346 0.92499 0.73986
 C467 C 0.44371 0.89866 0.75721
 C468 C 0.44608 0.90127 0.79017
 H469 H 0.40978 0.94334 0.75509
 H470 H 0.45842 0.87993 0.74355
 H471 H 0.43538 0.91175 0.69050
 H472 H 0.43192 0.92137 0.80270
 C473 C 0.59011 0.93483 0.27730
 C474 C 0.58618 0.92833 0.24491
 C475 C 0.56653 0.89851 0.23233
 C476 C 0.55620 0.89877 0.20079
 H477 H 0.59561 0.94703 0.22698
 H478 H 0.55804 0.87832 0.24922
 H479 H 0.58228 0.91563 0.29547
 H480 H 0.56352 0.92026 0.18480
 C481 C 0.39004 0.26236 0.93632
 C482 C 0.40218 0.22983 0.93633
 C483 C 0.41807 0.21356 0.90730
 C484 C 0.42902 0.18084 0.91023
 H485 H 0.40185 0.21467 0.95895
 H486 H 0.42408 0.22910 0.88566
 H487 H 0.38614 0.27527 0.91275
 H488 H 0.42268 0.16616 0.93236
 C489 C 0.59305 0.72053 0.94828
 C490 C 0.58237 0.75357 0.94653
 C491 C 0.57032 0.76980 0.91564
 C492 C 0.56264 0.80366 0.91609
 H493 H 0.58288 0.76992 0.96838
 H494 H 0.56549 0.75400 0.89388
 H495 H 0.59596 0.70617 0.92534
 H496 H 0.56730 0.81854 0.93851
 C497 C 0.39583 0.75256 0.04476
 C498 C 0.39248 0.74802 0.07750
 C499 C 0.40649 0.77542 0.09926
 C500 C 0.42149 0.76817 0.12804
 H501 H 0.38386 0.72352 0.08790
 H502 H 0.40904 0.80145 0.08900
 H503 H 0.40788 0.77665 0.03673
 H504 H 0.41983 0.74209 0.13828
 C505 C 0.59632 0.27095 0.05797
 C506 C 0.58232 0.23895 0.05847
 C507 C 0.56574 0.22313 0.08747
 C508 C 0.55441 0.19033 0.08450
 H509 H 0.58314 0.22293 0.03641
 H510 H 0.56064 0.23848 0.10938
 H511 H 0.59971 0.28481 0.08115
 H512 H 0.55985 0.17598 0.06200
 C513 C 0.27715 0.05391 0.59831
 C514 C 0.24423 0.05732 0.59229
 C515 C 0.22968 0.08900 0.57771
 C516 C 0.19681 0.08933 0.57118
 H517 H 0.22713 0.03594 0.59749
 H518 H 0.24596 0.10985 0.56905
 H519 H 0.29305 0.07694 0.59676
 H520 H 0.18134 0.06742 0.57898
 C521 C 0.70704 0.07287 0.40882
 C522 C 0.73925 0.08230 0.40594
 C523 C 0.75471 0.11135 0.42457
 C524 C 0.78792 0.11576 0.42254
 H525 H 0.75559 0.06589 0.39130
 H526 H 0.74014 0.12583 0.44244
 H527 H 0.68943 0.08912 0.42197
 H528 H 0.80189 0.09977 0.40532
 C529 C 0.72608 0.93965 0.59137
 C530 C 0.75926 0.93541 0.58943
 C531 C 0.77505 0.90818 0.56929
 C532 C 0.80806 0.91045 0.56390
 H533 H 0.77554 0.95486 0.60080
 H534 H 0.75973 0.88911 0.55628
 H535 H 0.70892 0.92008 0.58171
 H536 H 0.82249 0.93080 0.57618
 C537 C 0.28225 0.94193 0.41556
 C538 C 0.24911 0.94375 0.42000
 C539 C 0.22911 0.91472 0.43367
 C540 C 0.19696 0.92017 0.44111
 H541 H 0.23659 0.96828 0.41542
 H542 H 0.24113 0.89048 0.44035
 H543 H 0.29496 0.91723 0.41820
 H544 H 0.18582 0.94505 0.43495
 C545 C 0.05849 0.41287 0.72487
 C546 C 0.06045 0.42044 0.75730
 C547 C 0.08943 0.43764 0.77333
 C548 C 0.08772 0.44327 0.80598
 H549 H 0.03946 0.41408 0.77325
 H550 H 0.10970 0.44846 0.75862
 H551 H 0.08103 0.41459 0.70996
 H552 H 0.06658 0.43263 0.81966
 C553 C 0.06044 0.60203 0.26396
 C554 C 0.06362 0.59377 0.23184
 C555 C 0.09328 0.57699 0.21744
 C556 C 0.09389 0.57280 0.18459
 H557 H 0.04311 0.59906 0.21498
 H558 H 0.11159 0.56455 0.23327
 H559 H 0.08247 0.60159 0.27971
 H560 H 0.07468 0.58518 0.16971
 C561 C 0.93941 0.40107 0.28583
 C562 C 0.93285 0.40793 0.25391
 C563 C 0.90062 0.42117 0.24150
 C564 C 0.89503 0.41931 0.20890
 H565 H 0.95202 0.40334 0.23547
 H566 H 0.88433 0.43591 0.25761
 H567 H 0.91881 0.40066 0.30331
 H568 H 0.91215 0.40428 0.19380
 C569 C 0.93973 0.60336 0.73013
 C570 C 0.93778 0.59842 0.76301
 C571 C 0.90933 0.58079 0.77937
 C572 C 0.91117 0.57521 0.81203
 H573 H 0.95838 0.60660 0.77879
 H574 H 0.88937 0.56921 0.76470
 H575 H 0.91736 0.59936 0.71526
 H576 H 0.93211 0.58616 0.82585
 C577 C 0.72781 0.59692 0.94402
 C578 C 0.76089 0.59157 0.94337
 C579 C 0.77813 0.57646 0.91448
 C580 C 0.81083 0.56955 0.91682
 H581 H 0.77541 0.59612 0.96572
 H582 H 0.76373 0.56780 0.89317
 H583 H 0.71320 0.59439 0.92148
 H584 H 0.82437 0.57784 0.93882
 C585 C 0.26953 0.40361 0.93604
 C586 C 0.23704 0.41243 0.93387
 C587 C 0.22199 0.43129 0.90570
 C588 C 0.18922 0.43846 0.90719
 H589 H 0.22034 0.40619 0.95420
 H590 H 0.23768 0.44211 0.88631
 H591 H 0.28500 0.40532 0.91404
 H592 H 0.17456 0.42774 0.92745
 C593 C 0.28116 0.59746 0.06225
 C594 C 0.24777 0.59496 0.06557
 C595 C 0.23076 0.57419 0.09148
 C596 C 0.19789 0.56762 0.08791
 H597 H 0.23212 0.60626 0.04643
 H598 H 0.24506 0.56200 0.11108
 H599 H 0.29766 0.58811 0.08157
 H600 H 0.18470 0.57918 0.06717
 C601 C 0.75781 0.36345 0.05540
 C602 C 0.75052 0.37876 0.08416
 C603 C 0.77798 0.39401 0.10410
 C604 C 0.77198 0.41565 0.12928
 H605 H 0.72478 0.38531 0.08986
 H606 H 0.80349 0.39115 0.09530
 H607 H 0.78392 0.35933 0.04916
 H608 H 0.74670 0.41829 0.13870
 C609 C 0.93173 0.72269 0.59087
 C610 C 0.93191 0.75682 0.58399
 C611 C 0.90459 0.77464 0.56632
 C612 C 0.90946 0.80791 0.55749
 H613 H 0.95457 0.77177 0.58916
 H614 H 0.88264 0.76021 0.55806
 H615 H 0.90911 0.70719 0.58771
 H616 H 0.93209 0.82126 0.56573
 C617 C 0.96222 0.24789 0.38907
 C618 C 0.93019 0.25486 0.39580
 C619 C 0.90888 0.22689 0.40971
 C620 C 0.88037 0.23358 0.42577
 H621 H 0.92128 0.28146 0.39516
 H622 H 0.91881 0.20066 0.41022
 H623 H 0.97098 0.22139 0.39223
 H624 H 0.87028 0.25972 0.42561
 C625 C 0.06367 0.27707 0.60080
 C626 C 0.06474 0.24350 0.59183
 C627 C 0.09471 0.22760 0.57691
 C628 C 0.09260 0.19487 0.56565
 H629 H 0.04216 0.22767 0.59366
 H630 H 0.11700 0.24329 0.57250
 H631 H 0.08647 0.29265 0.60087
 H632 H 0.06963 0.18013 0.56970
 C633 C 0.05961 0.74288 0.38102
 C634 C 0.06083 0.77520 0.39373
 C635 C 0.09024 0.78957 0.41141
 C636 C 0.08826 0.82186 0.42371
 H637 H 0.03877 0.79142 0.39279
 H638 H 0.11102 0.77284 0.41777
 H639 H 0.08289 0.72888 0.37788
 H640 H 0.06684 0.83770 0.41716
 C641 C 0.62098 0.93866 0.73721
 C642 C 0.60987 0.93742 0.76856
 C643 C 0.59340 0.90646 0.78313
 C644 C 0.58093 0.90909 0.81375
 H645 H 0.61076 0.96073 0.78369
 H646 H 0.58760 0.88402 0.76777
 H647 H 0.62438 0.91437 0.72394
 H648 H 0.58656 0.93232 0.82814
 C649 C 0.41330 0.93537 0.29605
 C650 C 0.41676 0.92931 0.26352
 C651 C 0.42944 0.89647 0.24947
 C652 C 0.42602 0.89153 0.21686
 H653 H 0.40976 0.94932 0.24593
 H654 H 0.44477 0.87933 0.26437
 H655 H 0.41570 0.91368 0.31309
 H656 H 0.41087 0.90972 0.20286
 C657 C 0.60097 0.06260 0.26358
 C658 C 0.59011 0.06203 0.23211
 C659 C 0.57286 0.09141 0.21617
 C660 C 0.56108 0.08681 0.18544
 H661 H 0.59221 0.03832 0.21771
 H662 H 0.56650 0.11437 0.23040
 H663 H 0.60316 0.08750 0.27616
 H664 H 0.56745 0.06320 0.17215
 C665 C 0.40754 0.05716 0.71981
 C666 C 0.41198 0.05636 0.75261
 C667 C 0.42725 0.08538 0.77135
 C668 C 0.43415 0.08052 0.80340
 H669 H 0.40669 0.03224 0.76576
 H670 H 0.43599 0.10857 0.75854
 H671 H 0.41092 0.08125 0.70617
 H672 H 0.42587 0.05657 0.81527
 C673 C 0.59254 0.71598 0.07137
 C674 C 0.58541 0.74960 0.07608
 C675 C 0.56633 0.76233 0.10489
 C676 C 0.55570 0.79524 0.10441
 H677 H 0.59173 0.76817 0.05676
 H678 H 0.55837 0.74452 0.12424
 H679 H 0.58807 0.69729 0.09103
 H680 H 0.56308 0.81187 0.08387
 C681 C 0.40429 0.27791 0.05710
 C682 C 0.40174 0.24422 0.06536
 C683 C 0.42062 0.22853 0.09289
 C684 C 0.42068 0.19380 0.09566
 H685 H 0.38729 0.22693 0.04940
 H686 H 0.43730 0.24452 0.10787
 H687 H 0.41715 0.29628 0.07317
 H688 H 0.40505 0.17838 0.07910
 C689 C 0.60064 0.27019 0.93602
 C690 C 0.59344 0.23613 0.93408
 C691 C 0.57407 0.22023 0.90680
 C692 C 0.56461 0.18688 0.90993
 H693 H 0.59971 0.21965 0.95501
 H694 H 0.56527 0.23598 0.88633
 H695 H 0.59640 0.28724 0.91507
 H696 H 0.57339 0.17215 0.93115
 C697 C 0.41472 0.71773 0.93064
 C698 C 0.40981 0.74912 0.91720
 C699 C 0.43214 0.76409 0.89184
 C700 C 0.43200 0.79863 0.88747
 H701 H 0.39155 0.76618 0.92857
 H702 H 0.45154 0.74830 0.88078
 H703 H 0.43203 0.69950 0.91965
 H704 H 0.41376 0.81412 0.90070
 C705 C 0.72412 0.94480 0.39933
 C706 C 0.75679 0.94595 0.40678
 C707 C 0.77436 0.91666 0.42263
 C708 C 0.80654 0.92088 0.43113
 H709 H 0.77068 0.97002 0.40280
 H710 H 0.76058 0.89339 0.42984
 H711 H 0.71032 0.92042 0.40132
 H712 H 0.81945 0.94477 0.42408
 C713 C 0.27369 0.92496 0.60201
 C714 C 0.24030 0.92174 0.60082
 C715 C 0.22311 0.89569 0.57978
 C716 C 0.19047 0.89984 0.57354
 H717 H 0.22521 0.94189 0.61212
 H718 H 0.23755 0.87670 0.56613
 H719 H 0.28943 0.90458 0.59214
 H720 H 0.17703 0.92014 0.58655
 C721 C 0.29956 0.06944 0.42810
 C722 C 0.26710 0.07678 0.42393
 C723 C 0.24936 0.10397 0.44258
 C724 C 0.21585 0.10381 0.44147
 H725 H 0.25211 0.05943 0.40848
 H726 H 0.26286 0.12082 0.45964
 H727 H 0.31592 0.08649 0.44229
 H728 H 0.20310 0.08531 0.42535
 C729 C 0.73331 0.06891 0.59958
 C730 C 0.76481 0.07054 0.58818
 C731 C 0.77809 0.10089 0.56987
 C732 C 0.80757 0.09826 0.55434
 H733 H 0.78065 0.04783 0.59029
 H734 H 0.76280 0.12387 0.56678
 H735 H 0.71787 0.09201 0.59923
 H736 H 0.82198 0.07458 0.55711
 C737 C 0.93631 0.60490 0.25890
 C738 C 0.93382 0.59259 0.22791
 C739 C 0.90426 0.57260 0.21644
 C740 C 0.90534 0.55582 0.18739
 H741 H 0.95491 0.59512 0.21120
 H742 H 0.88297 0.56918 0.23281
 H743 H 0.91458 0.60395 0.27497
 H744 H 0.92723 0.55890 0.17173
 C745 C 0.93502 0.40331 0.72782
 C746 C 0.93295 0.40667 0.76074
 C747 C 0.90611 0.42619 0.77738
 C748 C 0.91028 0.43432 0.80933
 H749 H 0.95386 0.39799 0.77577
 H750 H 0.88551 0.43684 0.76321
 H751 H 0.91401 0.41020 0.71217
 H752 H 0.93187 0.42416 0.82243
 C753 C 0.06345 0.61324 0.72967
 C754 C 0.06724 0.61165 0.76256
 C755 C 0.09457 0.59210 0.77845
 C756 C 0.09191 0.58440 0.81064
 H757 H 0.04739 0.62145 0.77825
 H758 H 0.11406 0.58054 0.76347
 H759 H 0.08356 0.60503 0.71352
 H760 H 0.07125 0.59514 0.82466
 C761 C 0.06272 0.40118 0.26930
 C762 C 0.06170 0.40777 0.23675
 C763 C 0.08948 0.42521 0.21904
 C764 C 0.08531 0.43418 0.18729
 H765 H 0.03897 0.40189 0.22299
 H766 H 0.11185 0.43316 0.23243
 H767 H 0.08591 0.40513 0.28287
 H768 H 0.06232 0.42662 0.17469
   
