data_POSCAR
  _audit_creation_date              2014-09-24
  _audit_creation_method            'ToBaCCo'
  _symmetry_space_group_name_H-M    'P1'
  _symmetry_Int_Tables_number       1
  _symmetry_cell_setting            triclinic
  loop_
  _symmetry_equiv_pos_as_xyz
 x,y,z
_cell_length_a 19.3374
_cell_length_b 19.0348
_cell_length_c 19.5187
_cell_angle_alpha 71.327000
_cell_angle_beta 112.095600
_cell_angle_gamma 61.778700
loop_
  _atom_site_label
  _atom_site_type_symbol
  _atom_site_fract_x
  _atom_site_fract_y
  _atom_site_fract_z
O1 O 0.63731 0.45955 0.03670
 O2 O 0.49577 0.43509 0.11092
 O3 O 0.61425 0.33308 0.08218
 O4 O 0.51924 0.56296 0.06307
 O5 O 0.38259 0.65462 -0.08188
 O6 O 0.48059 0.42536 -0.06452
 O7 O 0.36333 0.52620 -0.03592
 O8 O 0.50180 0.55694 -0.11040
 Cu9 Cu 0.57980 0.43825 0.08808
 Cu10 Cu 0.41937 0.54934 -0.08798
 C11 C 0.59200 0.51560 -0.04982
 C12 C 0.40589 0.47558 0.05031
 C13 C 0.56257 0.34026 0.01226
 C14 C 0.43558 0.64777 -0.01284
 O15 O -0.03184 0.63571 0.44384
 O16 O -0.12448 0.50613 0.42980
 O17 O -0.11685 0.59885 0.50361
 O18 O -0.03747 0.54313 0.36982
 O19 O 0.11106 0.39740 0.50063
 O20 O 0.03336 0.45510 0.63465
 O21 O 0.02539 0.36240 0.56108
 O22 O 0.11946 0.49104 0.57221
 Cu23 Cu -0.09225 0.58475 0.42382
 Cu24 Cu 0.08688 0.41262 0.58016
 C25 C 0.05923 0.58568 0.51143
 C26 C -0.06480 0.41193 0.49202
 C27 C -0.05405 0.53759 0.59211
 C28 C 0.04921 0.45986 0.41226
 O29 O 0.43504 0.10946 0.51593
 O30 O 0.46158 0.04096 0.36520
 O31 O 0.33554 0.09150 0.39924
 O32 O 0.56002 0.06085 0.47798
 O33 O 0.65585 -0.09674 0.59690
 O34 O 0.43134 -0.06629 0.51783
 O35 O 0.55856 -0.11814 0.48185
 O36 O 0.53165 -0.04953 0.63273
 Cu37 Cu 0.43833 0.09149 0.42846
 Cu38 Cu 0.55425 -0.09892 0.56841
 C39 C 0.47774 0.04256 0.59929
 C40 C 0.51561 -0.05101 0.39859
 C41 C 0.34480 0.01875 0.44538
 C42 C 0.64652 -0.02389 0.55073
 O43 O 0.40367 0.09993 -0.15000
 O44 O 0.43600 0.03250 0.06592
 O45 O 0.46415 0.13008 -0.03016
 O46 O 0.37454 0.00053 -0.05518
 O47 O 0.53194 -0.14045 0.02699
 O48 O 0.62152 -0.01112 0.05239
 O49 O 0.59154 -0.11017 0.14664
 O50 O 0.55936 -0.04243 -0.06954
 Cu51 Cu 0.40362 0.07979 -0.05056
 Cu52 Cu 0.59216 -0.09005 0.04735
 C53 C 0.47570 0.04100 -0.14669
 C54 C 0.51936 -0.05104 0.14309
 C55 C 0.55787 0.08170 0.01505
 C56 C 0.43833 -0.09228 -0.01783
 O57 O -0.16221 0.60468 0.93405
 O58 O 0.06498 0.56631 1.00440
 O59 O -0.07957 0.61212 0.85837
 O60 O -0.01450 0.55026 1.08490
 O61 O 0.07607 0.38960 1.14513
 O62 O 0.01074 0.45140 0.91912
 O63 O 0.15495 0.40496 1.06747
 O64 O -0.07319 0.44340 0.99746
 Cu65 Cu -0.05645 0.59940 0.96461
 Cu66 Cu 0.05080 0.40631 1.03776
 C67 C -0.15657 0.53098 0.95356
 C68 C 0.14852 0.47918 1.04840
 C69 C -0.04599 0.54230 0.85016
 C70 C 0.04248 0.45901 1.15369
 O71 O -0.02597 -0.06931 0.43352
 O72 O -0.11798 0.15920 0.41883
 O73 O -0.00276 0.05966 0.38656
 O74 O -0.14138 0.03267 0.46384
 O75 O -0.00660 -0.06222 0.61060
 O76 O 0.13199 -0.03494 0.53329
 O77 O 0.01766 0.06631 0.56457
 O78 O 0.10967 -0.16166 0.57910
 Cu79 Cu -0.08521 0.05477 0.41101
 Cu80 Cu 0.07625 -0.05728 0.58663
 C81 C 0.05729 -0.15457 0.50941
 C82 C -0.06518 0.15177 0.48865
 C83 C 0.08778 0.01785 0.44670
 C84 C -0.09711 -0.02050 0.55041
 N85 N -0.34257 0.63645 0.84738
 N86 N -0.40879 0.63041 0.84426
 C87 C -0.35833 0.53937 0.91982
 C88 C -0.25508 0.48402 0.97250
 C89 C -0.24864 0.54861 0.92376
 H90 H -0.19419 0.41074 1.04006
 H91 H -0.36198 0.70130 0.80015
 H92 H -0.48726 0.69032 0.79485
 N93 N 0.32071 0.40640 1.16749
 N94 N 0.39310 0.40616 1.16790
 C95 C 0.35373 0.46296 1.07834
 C96 C 0.25629 0.50152 1.01948
 C97 C 0.23921 0.46375 1.07797
 H98 H 0.20564 0.54812 0.94400
 H99 H 0.32901 0.36974 1.22666
 H100 H 0.46529 0.36616 1.22774
 N101 N 0.18753 -0.33719 0.58820
 N102 N 0.18760 -0.41102 0.58995
 C103 C 0.09214 -0.36439 0.52161
 C104 C 0.03018 -0.26083 0.47377
 C105 C 0.09218 -0.24732 0.51927
 H106 H -0.05139 -0.20396 0.42028
 H107 H 0.24994 -0.35129 0.63614
 H108 H 0.24976 -0.48845 0.64035
 N109 N -0.19326 0.33496 0.41111
 N110 N -0.19326 0.40411 0.41200
 C111 C -0.09859 0.35853 0.48112
 C112 C -0.03581 0.25551 0.52712
 C113 C -0.09862 0.24395 0.47953
 H114 H 0.04573 0.19858 0.58069
 H115 H -0.25634 0.35065 0.36197
 H116 H -0.25604 0.48148 0.36293
 N117 N 0.40215 0.16732 -0.30672
 N118 N 0.40390 0.16743 -0.37749
 C119 C 0.46344 0.07123 -0.34638
 C120 C 0.50243 0.00793 -0.25533
 C121 C 0.46145 0.07114 -0.23369
 H122 H 0.55118 -0.07309 -0.21175
 H123 H 0.36281 0.23127 -0.31057
 H124 H 0.36379 0.23182 -0.44304
 N125 N 0.59235 -0.17603 0.30386
 N126 N 0.59074 -0.17605 0.37095
 C127 C 0.53031 -0.08032 0.34075
 C128 C 0.49070 -0.01631 0.24995
 C129 C 0.53287 -0.08032 0.22967
 H130 H 0.44143 0.06475 0.20628
 H131 H 0.63256 -0.24061 0.30881
 H132 H 0.63136 -0.24080 0.43648
 N133 N 0.30768 -0.10085 -0.08826
 N134 N 0.30689 -0.17048 -0.08648
 C135 C 0.40288 -0.26028 -0.02311
 C136 C 0.46750 -0.24767 0.01715
 C137 C 0.40438 -0.14544 -0.02695
 H138 H 0.54949 -0.30356 0.06558
 H139 H 0.24370 -0.02390 -0.13396
 H140 H 0.24214 -0.15592 -0.13028
 N141 N 0.68902 0.08898 0.08777
 N142 N 0.69037 0.15810 0.08674
 C143 C 0.59479 0.24844 0.02233
 C144 C 0.52982 0.23666 -0.01932
 C145 C 0.59234 0.13435 0.02500
 H146 H 0.44787 0.29316 -0.06882
 H147 H 0.75252 0.01183 0.13403
 H148 H 0.75514 0.14285 0.13178
 N149 N -0.10460 -0.11218 0.66738
 N150 N -0.17214 -0.11417 0.66712
 C151 C -0.26244 -0.03920 0.58076
 C152 C -0.25202 0.01251 0.52339
 C153 C -0.15051 -0.03672 0.58088
 H154 H -0.30861 0.07291 0.44905
 H155 H -0.02762 -0.16469 0.72476
 H156 H -0.15570 -0.16783 0.72451
 N157 N 0.09547 0.10849 0.32941
 N158 N 0.16325 0.10971 0.32938
 C159 C 0.25359 0.03457 0.41568
 C160 C 0.24298 -0.01643 0.47335
 C161 C 0.14129 0.03340 0.41606
 H162 H 0.29959 -0.07673 0.54771
 H163 H 0.01842 0.16124 0.27212
 H164 H 0.14696 0.16300 0.27185
 N165 N 0.14699 0.33723 1.32497
 N166 N 0.15057 0.33772 1.39366
 C167 C 0.07661 0.43282 1.35858
 C168 C 0.02398 0.49599 1.26338
 C169 C 0.07125 0.43199 1.24510
 H170 H -0.04194 0.57594 1.21402
 H171 H 0.19422 0.27264 1.33258
 H172 H 0.19982 0.27324 1.46233
 N173 N -0.15189 0.66215 0.67829
 N174 N -0.15622 0.66053 0.60976
 C175 C -0.08115 0.56540 0.64569
 C176 C -0.02712 0.50344 0.74134
 C177 C -0.07473 0.56818 0.75894
 H178 H 0.03967 0.42378 0.79131
 H179 H -0.19979 0.72689 0.67007
 H180 H -0.20703 0.72436 0.54041
   
