data_POSCAR
  _audit_creation_date              2014-09-24
  _audit_creation_method            'ToBaCCo'
  _symmetry_space_group_name_H-M    'P1'
  _symmetry_Int_Tables_number       1
  _symmetry_cell_setting            triclinic
  loop_
  _symmetry_equiv_pos_as_xyz
 x,y,z
_cell_length_a 46.5471
_cell_length_b 42.1596
_cell_length_c 25.1080
_cell_angle_alpha 90.088700
_cell_angle_beta 89.826600
_cell_angle_gamma 120.257800
loop_
  _atom_site_label
  _atom_site_type_symbol
  _atom_site_fract_x
  _atom_site_fract_y
  _atom_site_fract_z
C1 C 0.45843 0.92094 0.55215
 C2 C 0.44527 0.90318 0.50341
 C3 C 0.45581 0.92168 0.45479
 C4 C 0.47988 0.95950 0.45412
 C5 C 0.49169 0.97884 0.50279
 C6 C 0.48092 0.95960 0.55194
 C7 C 0.49182 0.97986 0.59947
 C8 C 0.51450 1.01726 0.59903
 C9 C 0.52577 1.03699 0.55099
 C10 C 0.51462 1.01745 0.50225
 C11 C 0.49329 0.97817 0.40607
 C12 C 0.51680 1.01540 0.40563
 C13 C 0.52675 1.03616 0.45298
 C14 C 0.55039 1.07450 0.45262
 C15 C 0.56250 1.09264 0.50153
 C16 C 0.54939 1.07525 0.55051
 H17 H 0.48282 0.96720 0.63794
 H18 H 0.52349 1.03026 0.63727
 H19 H 0.48638 0.96396 0.36824
 H20 H 0.52756 1.02747 0.36750
 H21 H 0.42794 0.87382 0.50269
 H22 H 0.57963 1.12206 0.50142
 C23 C -0.06644 0.49416 0.44686
 C24 C -0.08361 0.49091 0.49412
 C25 C -0.06828 0.49688 0.54418
 C26 C -0.03363 0.50901 0.54637
 C27 C -0.01562 0.51382 0.49832
 C28 C -0.03210 0.50627 0.44852
 C29 C -0.01371 0.51178 0.40148
 C30 C 0.02011 0.52392 0.40316
 C31 C 0.03704 0.53164 0.45192
 C32 C 0.01909 0.52657 0.49996
 C33 C -0.01598 0.51873 0.59479
 C34 C 0.01778 0.53030 0.59645
 C35 C 0.03586 0.53454 0.54953
 C36 C 0.07030 0.54657 0.55074
 C37 C 0.08745 0.55079 0.50300
 C38 C 0.07150 0.54424 0.45382
 H39 H -0.02519 0.50715 0.36268
 H40 H 0.03286 0.52720 0.36568
 H41 H -0.02783 0.51817 0.63211
 H42 H 0.02958 0.53625 0.63509
 H43 H -0.11015 0.48062 0.49182
 H44 H 0.11393 0.56063 0.50406
 C45 C 0.54248 0.46864 0.45031
 C46 C 0.55650 0.46651 0.49817
 C47 C 0.54446 0.47044 0.54769
 C48 C 0.51824 0.47872 0.54865
 C49 C 0.50529 0.48330 0.49987
 C50 C 0.51742 0.47810 0.45067
 C51 C 0.50457 0.48295 0.40284
 C52 C 0.48032 0.49285 0.40307
 C53 C 0.46806 0.49854 0.45115
 C54 C 0.48023 0.49328 0.50010
 C55 C 0.50572 0.48444 0.59655
 C56 C 0.47998 0.49219 0.59677
 C57 C 0.46746 0.49801 0.54910
 C58 C 0.44147 0.50665 0.54866
 C59 C 0.42959 0.51102 0.49940
 C60 C 0.44357 0.50890 0.45124
 H61 H 0.51345 0.47958 0.36456
 H62 H 0.47100 0.49561 0.36496
 H63 H 0.51566 0.48323 0.63479
 H64 H 0.47010 0.49344 0.63517
 H65 H 0.57544 0.45871 0.49671
 H66 H 0.41101 0.51935 0.49849
 O67 O 0.36637 0.64606 -0.06043
 O68 O 0.36999 0.70871 -0.04203
 C69 C 0.34973 0.71473 -0.06806
 O70 O 0.31906 0.69940 -0.05681
 O71 O 0.26158 0.64050 -0.04264
 C72 C 0.25639 0.61329 -0.07156
 O73 O 0.27059 0.59485 -0.06334
 O74 O 0.32338 0.58953 -0.04855
 C75 C 0.34998 0.61239 -0.07261
 O76 O 0.36589 0.63306 0.04504
 O77 O 0.36714 0.69418 0.06381
 C78 C 0.35289 0.71201 0.07580
 O79 O 0.32836 0.70920 0.04958
 O80 O 0.27235 0.64791 0.06345
 C81 C 0.25577 0.61361 0.07160
 O82 O 0.25894 0.59057 0.04296
 O83 O 0.31329 0.58867 0.05766
 C84 C 0.34384 0.60474 0.06966
 Cr85 Cr 0.36552 0.66961 0.00155
 Cr86 Cr 0.29620 0.67320 0.00331
 Cr87 Cr 0.29252 0.59291 -0.00274
 O88 O 0.31812 0.64522 0.00066
 O89 O 0.62955 0.35173 -0.04433
 O90 O 0.63490 0.29341 -0.05683
 C91 C 0.65251 0.27897 -0.06712
 O92 O 0.67867 0.28645 -0.04112
 O93 O 0.73141 0.34924 -0.06184
 C94 C 0.74434 0.38240 -0.07638
 O95 O 0.73779 0.40510 -0.05396
 O96 O 0.67928 0.39762 -0.06833
 C97 C 0.64809 0.37853 -0.07458
 O98 O 0.63509 0.34688 0.06162
 O99 O 0.63642 0.28608 0.04944
 C100 C 0.65860 0.28421 0.07625
 O101 O 0.68916 0.30264 0.06445
 O102 O 0.74278 0.36434 0.04307
 C103 C 0.74642 0.39321 0.06559
 O104 O 0.73007 0.40851 0.05216
 O105 O 0.67286 0.40403 0.03778
 C106 C 0.64950 0.38139 0.06804
 Cr107 Cr 0.63583 0.32063 0.00231
 Cr108 Cr 0.70944 0.32651 0.00105
 Cr109 Cr 0.70419 0.40180 -0.00789
 O110 O 0.68325 0.34968 -0.00162
 C111 C 0.47412 0.90257 -0.36477
 C112 C 0.46535 0.88030 -0.31946
 C113 C 0.43209 0.85406 -0.30956
 C114 C 0.40763 0.84979 -0.34622
 C115 C 0.41636 0.87175 -0.39174
 C116 C 0.44966 0.89914 -0.40115
 N117 N 0.42367 0.83197 -0.26240
 N118 N 0.39348 0.81043 -0.24936
 C119 C 0.38377 0.78758 -0.20302
 C120 C 0.34996 0.76705 -0.19057
 C121 C 0.33911 0.74389 -0.14638
 C122 C 0.36199 0.74058 -0.11369
 C123 C 0.39609 0.76136 -0.12616
 C124 C 0.40694 0.78482 -0.17045
 H125 H 0.50020 0.92191 -0.37202
 H126 H 0.48452 0.88348 -0.29199
 H127 H 0.38174 0.82946 -0.33977
 H128 H 0.39681 0.86805 -0.41878
 H129 H 0.33190 0.76892 -0.21544
 H130 H 0.31266 0.72822 -0.13828
 H131 H 0.41432 0.75940 -0.10189
 H132 H 0.43326 0.80044 -0.17949
 C133 C 0.09531 0.58636 -0.36886
 C134 C 0.11530 0.59616 -0.32339
 C135 C 0.13008 0.57576 -0.30800
 C136 C 0.12429 0.54502 -0.33836
 C137 C 0.10429 0.53520 -0.38372
 C138 C 0.08963 0.55575 -0.39922
 N139 N 0.15142 0.58720 -0.26236
 N140 N 0.16618 0.57019 -0.24771
 C141 C 0.18806 0.58131 -0.20284
 C142 C 0.20345 0.56113 -0.19034
 C143 C 0.22549 0.57142 -0.14761
 C144 C 0.23255 0.60225 -0.11636
 C145 C 0.21687 0.62242 -0.12884
 C146 C 0.19480 0.61206 -0.17177
 H147 H 0.08460 0.60286 -0.38080
 H148 H 0.11968 0.61998 -0.30051
 H149 H 0.13547 0.52883 -0.32742
 H150 H 0.10043 0.51174 -0.40704
 H151 H 0.19847 0.53742 -0.21406
 H152 H 0.23707 0.55523 -0.13923
 H153 H 0.22179 0.64632 -0.10568
 H154 H 0.18320 0.62812 -0.18077
 C155 C 0.39325 0.49719 -0.39913
 C156 C 0.37966 0.50533 -0.35511
 C157 C 0.40036 0.53041 -0.31670
 C158 C 0.43504 0.54686 -0.32224
 C159 C 0.44869 0.53837 -0.36586
 C160 C 0.42798 0.51316 -0.40482
 N161 N 0.38567 0.53964 -0.27358
 N162 N 0.40317 0.56634 -0.24245
 C163 C 0.38911 0.57649 -0.19953
 C164 C 0.40945 0.60940 -0.17277
 C165 C 0.39661 0.62097 -0.13172
 C166 C 0.36312 0.59946 -0.11606
 C167 C 0.34277 0.56600 -0.14238
 C168 C 0.35561 0.55469 -0.18412
 H169 H 0.37653 0.47793 -0.42852
 H170 H 0.35292 0.49261 -0.35147
 H171 H 0.45160 0.56666 -0.29331
 H172 H 0.47550 0.55270 -0.37023
 H173 H 0.43529 0.62638 -0.18423
 H174 H 0.41304 0.64674 -0.11202
 H175 H 0.31689 0.54889 -0.13123
 H176 H 0.33944 0.52903 -0.20423
 C177 C 0.53452 0.09571 -0.36766
 C178 C 0.54377 0.11798 -0.32241
 C179 C 0.57731 0.14222 -0.31138
 C180 C 0.60170 0.14477 -0.34703
 C181 C 0.59248 0.12294 -0.39287
 C182 C 0.55879 0.09728 -0.40304
 N183 N 0.58582 0.16438 -0.26435
 N184 N 0.61550 0.18255 -0.24708
 C185 C 0.62381 0.20532 -0.20069
 C186 C 0.65585 0.22071 -0.17945
 C187 C 0.66497 0.24387 -0.13508
 C188 C 0.64221 0.25243 -0.11167
 C189 C 0.60996 0.23670 -0.13290
 C190 C 0.60077 0.21320 -0.17681
 H191 H 0.50828 0.07775 -0.37561
 H192 H 0.52472 0.11628 -0.29573
 H193 H 0.62780 0.16375 -0.33968
 H194 H 0.61181 0.12529 -0.41952
 H195 H 0.67384 0.21489 -0.19756
 H196 H 0.69007 0.25576 -0.11993
 H197 H 0.59185 0.24272 -0.11576
 H198 H 0.57586 0.20173 -0.19259
 C199 C 0.88779 0.50014 -0.40632
 C200 C 0.86612 0.49006 -0.36286
 C201 C 0.86659 0.46713 -0.32317
 C202 C 0.88955 0.45487 -0.32680
 C203 C 0.91165 0.46541 -0.36979
 C204 C 0.91125 0.48841 -0.41012
 N205 N 0.84311 0.45613 -0.28030
 N206 N 0.83821 0.43043 -0.24842
 C207 C 0.81479 0.41923 -0.20547
 C208 C 0.80671 0.38700 -0.17786
 C209 C 0.78361 0.37489 -0.13624
 C210 C 0.76853 0.39522 -0.12091
 C211 C 0.77697 0.42785 -0.14834
 C212 C 0.79976 0.43966 -0.19054
 H213 H 0.88661 0.51772 -0.43662
 H214 H 0.84848 0.49962 -0.36056
 H215 H 0.89021 0.43687 -0.29673
 H216 H 0.92817 0.45436 -0.37254
 H217 H 0.81817 0.37107 -0.18895
 H218 H 0.77780 0.34976 -0.11571
 H219 H 0.76572 0.44405 -0.13754
 H220 H 0.80573 0.46476 -0.21125
 C221 C 0.59325 0.48062 -0.40182
 C222 C 0.60743 0.47273 -0.35868
 C223 C 0.58732 0.44791 -0.31950
 C224 C 0.55257 0.43132 -0.32342
 C225 C 0.53828 0.43940 -0.36644
 C226 C 0.55844 0.46441 -0.40616
 N227 N 0.60288 0.43941 -0.27718
 N228 N 0.58633 0.41511 -0.24218
 C229 C 0.60232 0.40662 -0.20047
 C230 C 0.58276 0.37856 -0.16456
 C231 C 0.59760 0.36930 -0.12380
 C232 C 0.63242 0.38816 -0.11814
 C233 C 0.65201 0.41642 -0.15430
 C234 C 0.63712 0.42555 -0.19513
 H235 H 0.60959 0.49982 -0.43169
 H236 H 0.63423 0.48560 -0.35617
 H237 H 0.53649 0.41167 -0.29385
 H238 H 0.51142 0.42486 -0.36977
 H239 H 0.55594 0.36375 -0.16829
 H240 H 0.58174 0.34743 -0.09665
 H241 H 0.67887 0.43147 -0.15114
 H242 H 0.65281 0.44736 -0.22246
 C243 C 0.91093 0.45140 0.36921
 C244 C 0.89120 0.43857 0.32361
 C245 C 0.87409 0.45578 0.30532
 C246 C 0.87714 0.48637 0.33302
 C247 C 0.89692 0.49924 0.37866
 C248 C 0.91404 0.48192 0.39692
 N249 N 0.85320 0.44109 0.25950
 N250 N 0.83662 0.45507 0.24105
 C251 C 0.81518 0.43984 0.19592
 C252 C 0.79740 0.45641 0.17831
 C253 C 0.77539 0.44157 0.13557
 C254 C 0.77077 0.40973 0.10956
 C255 C 0.78900 0.39338 0.12699
 C256 C 0.81101 0.40829 0.16979
 H257 H 0.92352 0.43732 0.38329
 H258 H 0.88888 0.41487 0.30281
 H259 H 0.86404 0.50004 0.31977
 H260 H 0.89877 0.52258 0.39992
 H261 H 0.80038 0.48071 0.19816
 H262 H 0.76175 0.45487 0.12328
 H263 H 0.78604 0.36884 0.10796
 H264 H 0.82449 0.39496 0.18272
 C265 C 0.59413 0.12345 0.39792
 C266 C 0.60398 0.14589 0.35274
 C267 C 0.58040 0.14196 0.31460
 C268 C 0.54699 0.11537 0.32229
 C269 C 0.53710 0.09276 0.36725
 C270 C 0.56058 0.09604 0.40552
 N271 N 0.58955 0.16498 0.26840
 N272 N 0.61966 0.18865 0.25777
 C273 C 0.62875 0.21200 0.21192
 C274 C 0.66247 0.23584 0.20107
 C275 C 0.67222 0.25918 0.15689
 C276 C 0.64828 0.25920 0.12281
 C277 C 0.61438 0.23522 0.13393
 C278 C 0.60469 0.21177 0.17799
 H279 H 0.61298 0.12703 0.42640
 H280 H 0.62997 0.16642 0.34785
 H281 H 0.52849 0.11246 0.29359
 H282 H 0.51083 0.07350 0.37292
 H283 H 0.68124 0.23633 0.22698
 H284 H 0.69853 0.27735 0.14965
 H285 H 0.59529 0.23451 0.10855
 H286 H 0.57844 0.19363 0.18561
 C287 C 0.52986 0.42491 0.37517
 C288 C 0.53957 0.41304 0.33029
 C289 C 0.57204 0.43356 0.31059
 C290 C 0.59488 0.46637 0.33631
 C291 C 0.58523 0.47813 0.38156
 C292 C 0.55262 0.45751 0.40107
 N293 N 0.58130 0.41988 0.26545
 N294 N 0.60943 0.43821 0.24259
 C295 C 0.61860 0.42368 0.19832
 C296 C 0.64830 0.44646 0.17122
 C297 C 0.65818 0.43290 0.12840
 C298 C 0.63856 0.39605 0.11236
 C299 C 0.60873 0.37321 0.13975
 C300 C 0.59875 0.38693 0.18219
 H301 H 0.50472 0.40846 0.39022
 H302 H 0.52184 0.38765 0.31098
 H303 H 0.62020 0.48255 0.32197
 H304 H 0.60314 0.50316 0.40148
 H305 H 0.66386 0.47479 0.18339
 H306 H 0.68140 0.45114 0.10836
 H307 H 0.59305 0.34474 0.12836
 H308 H 0.57572 0.36871 0.20268
 C309 C 0.09908 0.58422 0.37517
 C310 C 0.11928 0.59346 0.32998
 C311 C 0.13263 0.57172 0.31402
 C312 C 0.12560 0.54043 0.34395
 C313 C 0.10557 0.53132 0.38952
 C314 C 0.09210 0.55311 0.40516
 N315 N 0.15388 0.58273 0.26822
 N316 N 0.16495 0.56323 0.24813
 C317 C 0.18694 0.57576 0.20310
 C318 C 0.19599 0.55211 0.17890
 C319 C 0.21797 0.56404 0.13552
 C320 C 0.23152 0.60009 0.11610
 C321 C 0.22225 0.62367 0.14047
 C322 C 0.20011 0.61162 0.18334
 H323 H 0.08907 0.60145 0.38706
 H324 H 0.12467 0.61771 0.30738
 H325 H 0.13585 0.52337 0.33253
 H326 H 0.10053 0.50735 0.41257
 H327 H 0.18608 0.52443 0.19380
 H328 H 0.22476 0.54529 0.11778
 H329 H 0.23212 0.65155 0.12643
 H330 H 0.19361 0.63051 0.20138
 C331 C 0.42161 0.90603 0.37146
 C332 C 0.40777 0.88413 0.32616
 C333 C 0.41429 0.85586 0.31440
 C334 C 0.43498 0.84979 0.34853
 C335 C 0.44867 0.87152 0.39376
 C336 C 0.44215 0.89982 0.40550
 N337 N 0.39958 0.83343 0.26817
 N338 N 0.40610 0.80849 0.25545
 C339 C 0.39210 0.78500 0.21018
 C340 C 0.40281 0.76021 0.19871
 C341 C 0.39003 0.73666 0.15515
 C342 C 0.36596 0.73727 0.12205
 C343 C 0.35495 0.76208 0.13383
 C344 C 0.36802 0.78591 0.17755
 H345 H 0.41610 0.92757 0.38028
 H346 H 0.39185 0.88907 0.30033
 H347 H 0.44041 0.82811 0.34053
 H348 H 0.46433 0.86626 0.41976
 H349 H 0.42127 0.75920 0.22369
 H350 H 0.39900 0.71783 0.14758
 H351 H 0.33645 0.76321 0.10916
 H352 H 0.35930 0.80485 0.18588
 C353 C 0.45875 0.55214 0.37454
 C354 C 0.45028 0.56491 0.32938
 C355 C 0.41738 0.54732 0.31149
 C356 C 0.39285 0.51655 0.33938
 C357 C 0.40132 0.50376 0.38465
 C358 C 0.43439 0.52132 0.40229
 N359 N 0.40954 0.56162 0.26561
 N360 N 0.38016 0.54697 0.24715
 C361 C 0.37210 0.56148 0.20176
 C362 C 0.33915 0.54392 0.18431
 C363 C 0.33010 0.55775 0.14108
 C364 C 0.35399 0.58958 0.11432
 C365 C 0.38722 0.60701 0.13163
 C366 C 0.39622 0.59309 0.17501
 H367 H 0.48430 0.56642 0.38814
 H368 H 0.46934 0.58873 0.30846
 H369 H 0.36719 0.50260 0.32643
 H370 H 0.38217 0.48019 0.40591
 H371 H 0.32036 0.51957 0.20461
 H372 H 0.30428 0.54359 0.12894
 H373 H 0.40620 0.63159 0.11202
 H374 H 0.42191 0.60717 0.18784
   
