data_POSCAR
  _audit_creation_date              2014-09-24
  _audit_creation_method            'ToBaCCo'
  _symmetry_space_group_name_H-M    'P1'
  _symmetry_Int_Tables_number       1
  _symmetry_cell_setting            triclinic
  loop_
  _symmetry_equiv_pos_as_xyz
 x,y,z
_cell_length_a 25.3048
_cell_length_b 33.5513
_cell_length_c 31.3448
_cell_angle_alpha 90.562900
_cell_angle_beta 89.636400
_cell_angle_gamma 90.194400
loop_
  _atom_site_label
  _atom_site_type_symbol
  _atom_site_fract_x
  _atom_site_fract_y
  _atom_site_fract_z
C1 C 0.27569 0.28907 0.22131
 C2 C 0.25300 0.26805 0.25519
 C3 C 0.23134 0.28884 0.28998
 C4 C 0.23118 0.33065 0.29098
 C5 C 0.25571 0.35145 0.25743
 C6 C 0.27836 0.33095 0.22244
 C7 C 0.25119 0.22419 0.25427
 C8 C 0.27812 0.20247 0.28523
 C9 C 0.27517 0.16066 0.28583
 C10 C 0.24339 0.14099 0.25547
 C11 C 0.21697 0.16248 0.22392
 C12 C 0.22156 0.20410 0.22317
 H13 H 0.29142 0.27255 0.19425
 H14 H 0.21411 0.27223 0.31606
 H15 H 0.30259 0.21839 0.30785
 H16 H 0.20060 0.22099 0.19936
 H17 H 0.25693 0.38357 0.25859
 H18 H 0.23949 0.10884 0.25595
 C19 C 0.77843 0.79824 0.20559
 C20 C 0.76111 0.77586 0.24047
 C21 C 0.73982 0.79502 0.27643
 C22 C 0.73348 0.83669 0.27760
 C23 C 0.74982 0.85852 0.24150
 C24 C 0.77381 0.84017 0.20553
 C25 C 0.76398 0.73197 0.23883
 C26 C 0.79359 0.71117 0.26899
 C27 C 0.79498 0.66938 0.26799
 C28 C 0.76630 0.64867 0.23656
 C29 C 0.73584 0.66899 0.20644
 C30 C 0.73532 0.71088 0.20772
 H31 H 0.79687 0.78220 0.17948
 H32 H 0.72857 0.77701 0.30347
 H33 H 0.81500 0.72754 0.29337
 H34 H 0.71120 0.72735 0.18564
 H35 H 0.74069 0.88983 0.24016
 H36 H 0.76830 0.61645 0.23533
 C37 C 0.76289 0.30586 0.70881
 C38 C 0.74522 0.28340 0.74351
 C39 C 0.72181 0.30251 0.77875
 C40 C 0.71448 0.34421 0.77949
 C41 C 0.73172 0.36605 0.74361
 C42 C 0.75673 0.34741 0.70852
 C43 C 0.75224 0.23976 0.74294
 C44 C 0.78369 0.22141 0.77372
 C45 C 0.79436 0.18019 0.77139
 C46 C 0.77024 0.15771 0.73852
 C47 C 0.73711 0.17546 0.70834
 C48 C 0.72904 0.21677 0.71048
 H49 H 0.78286 0.29069 0.68271
 H50 H 0.71041 0.28454 0.80579
 H51 H 0.80224 0.23996 0.79785
 H52 H 0.70375 0.23119 0.68760
 H53 H 0.72403 0.39762 0.74179
 H54 H 0.77581 0.12582 0.73675
 C55 C 0.27486 0.79718 0.71659
 C56 C 0.24418 0.77840 0.74795
 C57 C 0.21355 0.80122 0.77627
 C58 C 0.21286 0.84287 0.77327
 C59 C 0.24454 0.86143 0.74224
 C60 C 0.27628 0.83915 0.71349
 C61 C 0.24419 0.73462 0.75105
 C62 C 0.26547 0.71634 0.78702
 C63 C 0.26595 0.67466 0.79025
 C64 C 0.24469 0.65149 0.75691
 C65 C 0.22217 0.66938 0.72092
 C66 C 0.22256 0.71121 0.71821
 H67 H 0.29660 0.77844 0.69445
 H68 H 0.19026 0.78638 0.80054
 H69 H 0.28160 0.73468 0.81249
 H70 H 0.20471 0.72592 0.69134
 H71 H 0.24487 0.89361 0.74130
 H72 H 0.24640 0.61932 0.75871
 C73 C 0.08693 0.04124 0.02950
 H74 H 0.10653 0.02652 0.00306
 C75 C 0.11696 0.06197 0.05974
 H76 H 0.15954 0.06310 0.05631
 C77 C 0.00800 0.05689 0.06715
 H78 H -0.03455 0.05466 0.06975
 C79 C 0.03660 0.07712 0.09858
 H80 H 0.01591 0.09070 0.12532
 N81 N 0.03341 0.03929 0.03360
 C82 C 0.02907 -0.06179 -0.04370
 H83 H 0.00316 -0.07698 -0.02171
 C84 C 0.05756 -0.08405 -0.07385
 H85 H 0.05420 -0.11621 -0.07366
 C86 C 0.06399 -0.00166 -0.07123
 H87 H 0.06534 0.03058 -0.07055
 C88 C 0.09296 -0.02269 -0.10199
 H89 H 0.11652 -0.00626 -0.12483
 Zn90 Zn -0.00898 0.01031 -0.00538
 N91 N 0.03295 -0.02133 -0.04278
 C92 C -0.07618 0.02839 -0.07186
 N93 N -0.04715 0.04544 -0.04024
 C94 C -0.04202 0.08572 -0.03674
 C95 C -0.06575 0.11052 -0.06665
 C96 C -0.10048 0.05197 -0.10232
 C97 C -0.03458 -0.04949 0.05320
 C98 C -0.06735 -0.07307 0.07862
 C99 C -0.14292 -0.03802 0.05105
 C100 C -0.10881 -0.01562 0.02550
 N101 N -0.05572 -0.02184 0.02686
 H102 H -0.07921 -0.00374 -0.07401
 H103 H -0.01809 0.09859 -0.01166
 H104 H -0.05994 0.14246 -0.06427
 H105 H -0.12314 0.03765 -0.12736
 H106 H 0.00785 -0.05306 0.05452
 H107 H -0.05025 -0.09497 0.09957
 H108 H -0.18506 -0.03253 0.05030
 H109 H -0.12472 0.00727 0.00532
 C110 C 0.08968 -0.06450 -0.10386
 C111 C 0.09172 0.07984 0.09495
 C112 C -0.12205 -0.06719 0.07767
 C113 C -0.09441 0.09359 -0.10058
 C114 C 0.07804 0.55842 0.52302
 H115 H 0.08645 0.55958 0.48917
 C116 C 0.10943 0.58008 0.55163
 H117 H 0.14217 0.59707 0.53891
 C118 C 0.02757 0.53222 0.57996
 H119 H -0.00361 0.51293 0.59125
 C120 C 0.05747 0.55366 0.60956
 H121 H 0.04717 0.55047 0.64266
 N122 N 0.03789 0.53506 0.53751
 C123 C 0.01985 0.44614 0.43521
 H124 H -0.02207 0.44692 0.42960
 C125 C 0.05164 0.42216 0.40915
 H126 H 0.03362 0.40584 0.38314
 C127 C 0.09425 0.46723 0.47494
 H128 H 0.11085 0.48448 0.50086
 C129 C 0.12755 0.44356 0.44959
 H130 H 0.16946 0.44294 0.45631
 Zn131 Zn -0.00326 0.50415 0.49856
 N132 N 0.04146 0.46876 0.46690
 C133 C -0.07842 0.51981 0.43642
 N134 N -0.03993 0.53749 0.46006
 C135 C -0.02904 0.57704 0.45601
 C136 C -0.05543 0.59977 0.42563
 C137 C -0.10512 0.54114 0.40541
 C138 C -0.05192 0.43464 0.53296
 C139 C -0.08901 0.41417 0.55781
 C140 C -0.13115 0.47700 0.57448
 C141 C -0.09376 0.49616 0.54897
 N142 N -0.05462 0.47497 0.52948
 H143 H -0.08857 0.48896 0.44161
 H144 H 0.00025 0.59110 0.47603
 H145 H -0.04607 0.63114 0.42318
 H146 H -0.13402 0.52562 0.38607
 H147 H -0.02035 0.41843 0.51728
 H148 H -0.08552 0.38221 0.56122
 H149 H -0.16145 0.49446 0.59043
 H150 H -0.09506 0.52818 0.54545
 C151 C 0.10633 0.42090 0.41591
 C152 C 0.09927 0.57828 0.59587
 C153 C -0.12880 0.43552 0.57945
 C154 C -0.09338 0.58165 0.39909
 C155 C 0.54798 0.07216 0.53502
 H156 H 0.51929 0.08593 0.51458
 C157 C 0.57961 0.09619 0.56127
 H158 H 0.57409 0.12816 0.56121
 C159 C 0.59012 0.01409 0.56002
 H160 H 0.59577 -0.01771 0.55834
 C161 C 0.62239 0.03687 0.58665
 H162 H 0.65178 0.02199 0.60569
 N163 N 0.55340 0.03178 0.53505
 C164 C 0.53272 -0.06497 0.44325
 H165 H 0.49077 -0.07048 0.44673
 C166 C 0.56278 -0.08838 0.41522
 H167 H 0.54295 -0.11135 0.39718
 C168 C 0.60787 -0.02616 0.46109
 H169 H 0.62509 -0.00125 0.47818
 C170 C 0.63946 -0.04905 0.43375
 H171 H 0.68113 -0.04202 0.43115
 Zn172 Zn 0.51119 -0.00144 0.49904
 N173 N 0.55546 -0.03433 0.46516
 C174 C 0.47955 0.02865 0.41955
 N175 N 0.46971 0.03045 0.46222
 C176 C 0.43055 0.05399 0.47834
 C177 C 0.39779 0.07526 0.45104
 C178 C 0.44833 0.04985 0.39122
 C179 C 0.48936 -0.05986 0.56118
 C180 C 0.45814 -0.08278 0.58847
 C181 C 0.38051 -0.05634 0.55487
 C182 C 0.41324 -0.03388 0.52824
 N183 N 0.46669 -0.03489 0.53274
 H184 H 0.51163 0.01067 0.40725
 H185 H 0.42381 0.05535 0.51245
 H186 H 0.36554 0.09231 0.46456
 H187 H 0.45748 0.04812 0.35748
 H188 H 0.53173 -0.06194 0.56311
 H189 H 0.47720 -0.10113 0.61202
 H190 H 0.33832 -0.05469 0.55061
 H191 H 0.39558 -0.01569 0.50406
 C192 C 0.61693 -0.08031 0.40972
 C193 C 0.61740 0.07852 0.58766
 C194 C 0.40284 -0.08059 0.58617
 C195 C 0.40606 0.07299 0.40670
 C196 C 0.56618 0.56281 0.02013
 H197 H 0.57084 0.56450 -0.01415
 C198 C 0.59895 0.58550 0.04669
 H199 H 0.62944 0.60362 0.03217
 C200 C 0.52200 0.53578 0.07997
 H201 H 0.49155 0.51676 0.09301
 C202 C 0.55341 0.55827 0.10764
 H203 H 0.54586 0.55584 0.14133
 N204 N 0.52955 0.53766 0.03706
 C205 C 0.50927 0.44460 -0.06113
 H206 H 0.46704 0.44029 -0.06030
 C207 C 0.53988 0.42157 -0.08919
 H208 H 0.52019 0.40135 -0.11085
 C209 C 0.58583 0.47599 -0.03370
 H210 H 0.60413 0.49636 -0.01145
 C211 C 0.61791 0.45353 -0.06114
 H212 H 0.66038 0.45744 -0.05999
 Zn213 Zn 0.48784 0.50457 0.00053
 N214 N 0.53228 0.47216 -0.03499
 C215 C 0.41023 0.52031 -0.06226
 N216 N 0.44351 0.53739 -0.03340
 C217 C 0.44501 0.57768 -0.02792
 C218 C 0.41306 0.60233 -0.05240
 C219 C 0.37766 0.54382 -0.08742
 C220 C 0.47214 0.44279 0.05804
 C221 C 0.44443 0.41828 0.08615
 C222 C 0.36332 0.44942 0.06406
 C223 C 0.39271 0.47378 0.03678
 N224 N 0.44617 0.47026 0.03458
 H225 H 0.40818 0.48836 -0.06553
 H226 H 0.47057 0.59094 -0.00426
 H227 H 0.41469 0.63427 -0.04724
 H228 H 0.35234 0.52941 -0.11065
 H229 H 0.51474 0.44079 0.05579
 H230 H 0.46644 0.39788 0.10572
 H231 H 0.32084 0.45251 0.06494
 H232 H 0.37281 0.49589 0.01796
 C233 C 0.59497 0.42625 -0.08979
 C234 C 0.59332 0.58321 0.09133
 C235 C 0.38919 0.42155 0.08974
 C236 C 0.37877 0.58548 -0.08271
 C237 C 0.19482 -0.09457 -0.18458
 C238 C 0.17885 -0.13263 -0.19800
 C239 C 0.12835 -0.14573 -0.18469
 C240 C 0.09841 -0.12323 -0.15504
 C241 C 0.11832 -0.08712 -0.13782
 C242 C 0.16549 -0.07251 -0.15536
 C243 C 0.21386 -0.05687 -0.13381
 C244 C 0.24602 -0.08106 -0.16592
 H245 H 0.11240 -0.17372 -0.19638
 H246 H 0.06032 -0.13466 -0.14503
 H247 H 0.21758 -0.06756 -0.10049
 H248 H 0.21855 -0.02416 -0.13780
 H249 H 0.26846 -0.10582 -0.15129
 H250 H 0.26909 -0.06225 -0.18837
 C251 C 0.15644 0.33812 0.34369
 C252 C 0.20346 0.35240 0.32601
 C253 C 0.22102 0.38983 0.34206
 C254 C 0.19048 0.41165 0.37248
 C255 C 0.14107 0.39700 0.38731
 C256 C 0.12650 0.35944 0.37192
 C257 C 0.08210 0.33011 0.37073
 C258 C 0.11577 0.30625 0.33851
 H259 H 0.25782 0.40261 0.33082
 H260 H 0.20460 0.44060 0.38294
 H261 H 0.04566 0.34220 0.35622
 H262 H 0.07641 0.31490 0.40177
 H263 H 0.09892 0.30550 0.30584
 H264 H 0.12897 0.27706 0.35096
 C265 C 0.67799 -0.16434 0.34289
 C266 C 0.71040 -0.14391 0.31365
 C267 C 0.71796 -0.10265 0.32199
 C268 C 0.68840 -0.08256 0.35363
 C269 C 0.65000 -0.10268 0.37821
 C270 C 0.64775 -0.14428 0.37340
 C271 C 0.60255 -0.17273 0.36831
 C272 C 0.63596 -0.19499 0.33562
 H273 H 0.74611 -0.08521 0.30393
 H274 H 0.69388 -0.05068 0.35716
 H275 H 0.56722 -0.15942 0.35330
 H276 H 0.59481 -0.19014 0.39769
 H277 H 0.61964 -0.19414 0.30277
 H278 H 0.64794 -0.22502 0.34661
 C279 C 0.65796 0.34292 -0.15579
 C280 C 0.69040 0.36358 -0.18485
 C281 C 0.69744 0.40491 -0.17636
 C282 C 0.66749 0.42474 -0.14470
 C283 C 0.62892 0.40428 -0.12073
 C284 C 0.62733 0.36273 -0.12542
 C285 C 0.58272 0.33376 -0.12996
 C286 C 0.61634 0.31187 -0.16289
 H287 H 0.72561 0.42255 -0.19418
 H288 H 0.67269 0.45659 -0.14052
 H289 H 0.54679 0.34659 -0.14449
 H290 H 0.57590 0.31636 -0.10043
 H291 H 0.59978 0.31263 -0.19566
 H292 H 0.62890 0.28194 -0.15203
 C293 C -0.16161 0.17835 -0.15844
 C294 C -0.17120 0.16187 -0.19915
 C295 C -0.14439 0.12586 -0.20910
 C296 C -0.11705 0.10479 -0.17767
 C297 C -0.11563 0.11879 -0.13517
 C298 C -0.13480 0.15727 -0.12732
 C299 C -0.16994 0.17223 -0.09240
 C300 C -0.19946 0.19526 -0.12623
 H301 H -0.14476 0.11323 -0.24096
 H302 H -0.09879 0.07673 -0.18646
 H303 H -0.14847 0.19182 -0.06951
 H304 H -0.19394 0.14814 -0.07765
 H305 H -0.19513 0.22809 -0.12253
 H306 H -0.24066 0.18458 -0.13111
 C307 C -0.19447 0.61125 0.31628
 C308 C -0.17436 0.64674 0.29969
 C309 C -0.12346 0.65870 0.31280
 C310 C -0.09637 0.63740 0.34450
 C311 C -0.11992 0.60395 0.36433
 C312 C -0.16825 0.59064 0.34776
 C313 C -0.21870 0.58046 0.37023
 C314 C -0.24737 0.60298 0.33556
 H315 H -0.10491 0.68474 0.29903
 H316 H -0.05746 0.64763 0.35366
 H317 H -0.22191 0.59486 0.40225
 H318 H -0.22710 0.54792 0.36950
 H319 H -0.26737 0.63045 0.34738
 H320 H -0.27190 0.58335 0.31484
 C321 C 0.31715 0.15111 0.35818
 C322 C 0.30652 0.13744 0.31687
 C323 C 0.32885 0.09998 0.30584
 C324 C 0.36032 0.07869 0.33510
 C325 C 0.37083 0.09403 0.37656
 C326 C 0.34675 0.13033 0.38651
 C327 C 0.34236 0.16173 0.42028
 C328 C 0.30874 0.18510 0.38846
 H329 H 0.32330 0.08736 0.27428
 H330 H 0.37622 0.05020 0.32500
 H331 H 0.38106 0.17604 0.42732
 H332 H 0.31943 0.15169 0.44857
 H333 H 0.32830 0.21305 0.37798
 H334 H 0.26665 0.18812 0.39828
 C335 C 0.33414 0.67077 -0.15204
 C336 C 0.28894 0.65531 -0.17179
 C337 C 0.26728 0.61995 -0.15489
 C338 C 0.29476 0.59820 -0.12389
 C339 C 0.34465 0.61124 -0.10921
 C340 C 0.36130 0.64930 -0.12163
 C341 C 0.41373 0.66312 -0.13798
 C342 C 0.38392 0.68667 -0.17126
 H343 H 0.23047 0.60802 -0.16707
 H344 H 0.27804 0.57031 -0.11309
 H345 H 0.43775 0.63843 -0.15180
 H346 H 0.43462 0.68241 -0.11445
 H347 H 0.39063 0.67568 -0.20444
 H348 H 0.38762 0.71947 -0.16682
 C349 C -0.20157 -0.09468 0.17462
 C350 C -0.20770 -0.13641 0.17068
 C351 C -0.19381 -0.15317 0.13025
 C352 C -0.16817 -0.13023 0.09881
 C353 C -0.15693 -0.08979 0.10627
 C354 C -0.17720 -0.07211 0.14321
 C355 C -0.15035 -0.04543 0.17457
 C356 C -0.17645 -0.07003 0.20922
 H357 H -0.20104 -0.18411 0.12252
 H358 H -0.15499 -0.14453 0.06951
 H359 H -0.16536 -0.01438 0.17326
 H360 H -0.10659 -0.04836 0.17368
 H361 H -0.20586 -0.05266 0.22814
 H362 H -0.14787 -0.08729 0.22845
 C363 C -0.20779 0.41166 0.67861
 C364 C -0.22269 0.37174 0.67235
 C365 C -0.21556 0.35574 0.63074
 C366 C -0.18721 0.37709 0.59941
 C367 C -0.16624 0.41519 0.60866
 C368 C -0.18067 0.43281 0.64762
 C369 C -0.14742 0.45404 0.67982
 C370 C -0.17704 0.43082 0.71385
 H371 H -0.22952 0.32611 0.62276
 H372 H -0.17973 0.36306 0.56872
 H373 H -0.15569 0.48655 0.68098
 H374 H -0.10489 0.44604 0.67723
 H375 H -0.20218 0.45006 0.73465
 H376 H -0.15177 0.40927 0.73103
 C377 C 0.30008 -0.10125 0.67195
 C378 C 0.30892 -0.14123 0.68305
 C379 C 0.35302 -0.15997 0.66321
 C380 C 0.38293 -0.14054 0.63149
 C381 C 0.36957 -0.10198 0.61782
 C382 C 0.32888 -0.08247 0.64002
 C383 C 0.28124 -0.06108 0.62422
 C384 C 0.25001 -0.08108 0.65947
 H385 H 0.36555 -0.18947 0.67212
 H386 H 0.41584 -0.15622 0.61692
 H387 H 0.26836 -0.07130 0.59208
 H388 H 0.28458 -0.02825 0.62853
 H389 H 0.21961 -0.10238 0.64754
 H390 H 0.23585 -0.05961 0.68421
 C391 C 0.28917 0.39036 0.17376
 C392 C 0.30539 0.35287 0.18742
 C393 C 0.35017 0.33694 0.16581
 C394 C 0.37662 0.35854 0.13329
 C395 C 0.35936 0.39694 0.12105
 C396 C 0.31405 0.41077 0.14198
 C397 C 0.27881 0.44605 0.14656
 C398 C 0.25045 0.42298 0.18216
 H399 H 0.36592 0.30826 0.17464
 H400 H 0.41069 0.34501 0.11804
 H401 H 0.25362 0.45062 0.11813
 H402 H 0.30035 0.47291 0.15825
 H403 H 0.20938 0.41401 0.17403
 H404 H 0.25539 0.43734 0.21397
 C405 C 0.18956 0.14859 0.14851
 C406 C 0.18433 0.14140 0.19197
 C407 C 0.14611 0.11248 0.20367
 C408 C 0.11523 0.09261 0.17222
 C409 C 0.12273 0.10049 0.12824
 C410 C 0.16110 0.12879 0.11836
 C411 C 0.18717 0.14996 0.08235
 C412 C 0.21976 0.17219 0.11655
 H413 H 0.13969 0.10554 0.23697
 H414 H 0.08622 0.07076 0.18223
 H415 H 0.15928 0.16947 0.06506
 H416 H 0.21120 0.12962 0.06191
 H417 H 0.21088 0.20456 0.11874
 H418 H 0.26242 0.16442 0.11598
 C419 C 0.17383 0.60753 0.69736
 C420 C 0.19697 0.64420 0.68724
 C421 C 0.19299 0.65661 0.64451
 C422 C 0.16166 0.63527 0.61501
 C423 C 0.13342 0.60056 0.62705
 C424 C 0.14248 0.58658 0.66856
 C425 C 0.10534 0.57444 0.70366
 C426 C 0.14059 0.59660 0.73481
 H427 H 0.21236 0.68363 0.63402
 H428 H 0.15767 0.64750 0.58342
 H429 H 0.10509 0.54168 0.70864
 H430 H 0.06572 0.58845 0.70122
 H431 H 0.16161 0.57652 0.75697
 H432 H 0.12123 0.62283 0.75012
 C433 C 0.69805 0.11053 0.68337
 C434 C 0.71102 0.15033 0.67512
 C435 C 0.69915 0.16475 0.63405
 C436 C 0.66986 0.14130 0.60487
 C437 C 0.65196 0.10281 0.61599
 C438 C 0.66957 0.08749 0.65471
 C439 C 0.63932 0.06733 0.68943
 C440 C 0.67057 0.09264 0.72092
 H441 H 0.71119 0.19441 0.62473
 H442 H 0.66029 0.15371 0.57414
 H443 H 0.64865 0.03504 0.69123
 H444 H 0.59646 0.07455 0.68899
 H445 H 0.69781 0.07485 0.74082
 H446 H 0.64592 0.11460 0.73880
 C447 C 0.68447 0.60805 0.18435
 C448 C 0.70376 0.64611 0.17481
 C449 C 0.69037 0.66166 0.13461
 C450 C 0.65441 0.64149 0.10773
 C451 C 0.63062 0.60509 0.12009
 C452 C 0.64852 0.58836 0.15827
 C453 C 0.61944 0.57228 0.19625
 C454 C 0.65974 0.59308 0.22435
 H455 H 0.70635 0.68993 0.12424
 H456 H 0.64371 0.65548 0.07808
 H457 H 0.62150 0.53924 0.19791
 H458 H 0.57931 0.58519 0.20045
 H459 H 0.68583 0.57198 0.24130
 H460 H 0.64273 0.61736 0.24451
   
