data_POSCAR
  _audit_creation_date              2014-09-24
  _audit_creation_method            'ToBaCCo'
  _symmetry_space_group_name_H-M    'P1'
  _symmetry_Int_Tables_number       1
  _symmetry_cell_setting            triclinic
  loop_
  _symmetry_equiv_pos_as_xyz
 x,y,z
_cell_length_a 20.2987
_cell_length_b 20.2960
_cell_length_c 33.0001
_cell_angle_alpha 81.335500
_cell_angle_beta 98.347500
_cell_angle_gamma 85.883800
loop_
  _atom_site_label
  _atom_site_type_symbol
  _atom_site_fract_x
  _atom_site_fract_y
  _atom_site_fract_z
O1 O -0.05828 0.57390 0.94981
 O2 O -0.07908 0.42714 1.02588
 O3 O -0.07835 0.55472 1.02659
 O4 O -0.05914 0.44466 0.94898
 O5 O 0.05013 0.43093 0.97017
 O6 O 0.03100 0.54081 1.04767
 O7 O 0.03026 0.41342 1.04695
 O8 O 0.05099 0.55995 0.97099
 Cu9 Cu -0.07971 0.50153 0.98546
 Cu10 Cu 0.05167 0.48491 1.01086
 C11 C -0.00019 0.59229 0.94800
 C12 C -0.02790 0.39573 1.04940
 C13 C -0.02688 0.56610 1.05032
 C14 C -0.00132 0.41848 0.94687
 O15 O 0.55535 0.05899 0.44700
 O16 O 0.44483 0.07832 0.52460
 O17 O 0.57229 0.07902 0.52376
 O18 O 0.42606 0.05818 0.44795
 O19 O 0.43991 -0.05119 0.46949
 O20 O 0.58590 -0.03043 0.54519
 O21 O 0.45864 -0.03114 0.54603
 O22 O 0.56897 -0.05036 0.46854
 Cu23 Cu 0.49822 0.07963 0.48341
 Cu24 Cu 0.51471 -0.05187 0.50924
 C25 C 0.58162 0.00112 0.44509
 C26 C 0.43338 0.02683 0.54854
 C27 C 0.60349 0.02779 0.54743
 C28 C 0.40768 0.00005 0.44640
 C29 C -0.04972 -0.12081 0.22762
 C30 C -0.10533 -0.11730 0.25422
 C31 C -0.10432 -0.06389 0.27487
 C32 C -0.04793 -0.01894 0.26718
 C33 C -0.05801 -0.05293 0.19901
 C34 C -0.05697 0.00026 0.21972
 C35 C 0.01560 -0.12052 0.25745
 C36 C 0.01648 -0.06707 0.27806
 H37 H -0.14247 -0.15314 0.25617
 H38 H -0.04735 0.02447 0.28409
 H39 H -0.06089 -0.04751 0.16551
 H40 H 0.05832 -0.15740 0.26055
 C41 C 0.12103 0.04976 0.72705
 C42 C 0.12058 -0.01572 0.75700
 C43 C 0.06709 -0.01664 0.77771
 C44 C 0.01905 0.04787 0.76680
 C45 C 0.05331 0.05822 0.69856
 C46 C 0.00007 0.05712 0.71935
 C47 C 0.11746 0.10529 0.75357
 C48 C 0.06400 0.10422 0.77433
 H49 H 0.15749 -0.05845 0.76018
 H50 H -0.02440 0.04725 0.78378
 H51 H 0.04803 0.06121 0.66506
 H52 H 0.15339 0.14232 0.75547
 C53 C -0.03400 -0.39091 0.08042
 C54 C -0.03906 -0.35391 0.10535
 C55 C -0.04386 -0.30918 0.13384
 C56 C -0.04693 -0.26940 0.15729
 C57 C -0.04926 -0.22065 0.18344
 C58 C -0.05013 -0.17689 0.20434
 C59 C -0.03527 0.34169 0.07743
 C60 C -0.04104 0.29296 0.10200
 C61 C -0.04674 0.23466 0.13001
 C62 C -0.05066 0.18348 0.15294
 C63 C -0.05411 0.12174 0.17828
 C64 C -0.05602 0.06731 0.19825
 C65 C 0.39044 0.03401 0.57875
 C66 C 0.35356 0.03911 0.60383
 C67 C 0.30902 0.04395 0.63254
 C68 C 0.26940 0.04704 0.65620
 C69 C 0.22081 0.04937 0.68257
 C70 C 0.17712 0.05022 0.70364
 C71 C -0.33979 0.03560 0.57708
 C72 C -0.29136 0.04132 0.60166
 C73 C -0.23341 0.04699 0.62971
 C74 C -0.18252 0.05089 0.65268
 C75 C -0.12107 0.05431 0.67803
 C76 C -0.06683 0.05620 0.69798
 C77 C 0.00777 -0.34818 0.92027
 C78 C 0.01502 -0.29740 0.89786
 C79 C 0.02425 -0.23743 0.87233
 C80 C 0.03281 -0.18617 0.85086
 C81 C 0.04374 -0.12638 0.82579
 C82 C 0.05390 -0.07592 0.80416
 C83 C 0.00601 0.37250 0.91839
 C84 C 0.01279 0.33254 0.89535
 C85 C 0.02153 0.28465 0.86915
 C86 C 0.02978 0.24325 0.84725
 C87 C 0.04047 0.19452 0.82190
 C88 C 0.05059 0.15312 0.80030
 C89 C -0.37455 -0.00582 0.41823
 C90 C -0.33433 -0.01256 0.39525
 C91 C -0.28608 -0.02126 0.36917
 C92 C -0.24436 -0.02950 0.34739
 C93 C -0.19525 -0.04021 0.32219
 C94 C -0.15353 -0.05038 0.30072
 C95 C 0.34820 -0.00788 0.41889
 C96 C 0.29742 -0.01511 0.39671
 C97 C 0.23741 -0.02430 0.37150
 C98 C 0.18610 -0.03283 0.35031
 C99 C 0.12626 -0.04372 0.32557
 C100 C 0.07576 -0.05387 0.30421
   
