data_POSCAR
  _audit_creation_date              2014-09-24
  _audit_creation_method            'ToBaCCo'
  _symmetry_space_group_name_H-M    'P1'
  _symmetry_Int_Tables_number       1
  _symmetry_cell_setting            triclinic
  loop_
  _symmetry_equiv_pos_as_xyz
 x,y,z
_cell_length_a 24.8060
_cell_length_b 26.4000
_cell_length_c 7.6919
_cell_angle_alpha 90.406600
_cell_angle_beta 92.212600
_cell_angle_gamma 90.121100
loop_
  _atom_site_label
  _atom_site_type_symbol
  _atom_site_fract_x
  _atom_site_fract_y
  _atom_site_fract_z
O1 O 0.30793 0.21273 0.08894
 O2 O 0.20644 0.31271 0.13990
 O3 O 0.30997 0.30460 0.20877
 O4 O 0.20377 0.22063 0.02158
 O5 O 0.18811 0.19328 0.28596
 O6 O 0.29418 0.27726 0.47314
 O7 O 0.19047 0.28539 0.40420
 O8 O 0.29205 0.18543 0.35333
 Cu9 Cu 0.25866 0.26548 0.08827
 Cu10 Cu 0.23953 0.23241 0.40552
 C11 C 0.31785 0.18280 0.21435
 C12 C 0.18081 0.31551 0.27914
 C13 C 0.32052 0.30468 0.37148
 C14 C 0.17736 0.19329 0.12340
 O15 O 0.81271 0.28980 0.38425
 O16 O 0.70878 0.18989 0.38421
 O17 O 0.81082 0.19429 0.30654
 O18 O 0.71102 0.28539 0.46304
 O19 O 0.68776 0.30380 0.19047
 O20 O 0.78766 0.21275 0.03395
 O21 O 0.68553 0.20834 0.11164
 O22 O 0.78937 0.30829 0.11171
 Cu23 Cu 0.76330 0.23789 0.41155
 Cu24 Cu 0.73510 0.26012 0.08481
 C25 C 0.81917 0.31533 0.24745
 C26 C 0.67887 0.18295 0.24861
 C27 C 0.81694 0.18888 0.14461
 C28 C 0.68188 0.30941 0.35247
 O29 O 0.70590 0.77886 0.52668
 O30 O 0.81127 0.69497 0.71219
 O31 O 0.70767 0.68713 0.64339
 O32 O 0.81009 0.78657 0.59447
 O33 O 0.79442 0.81466 0.85928
 O34 O 0.69193 0.71522 0.90821
 O35 O 0.79573 0.72308 0.97707
 O36 O 0.69042 0.80699 0.79155
 Cu37 Cu 0.76034 0.73400 0.59259
 Cu38 Cu 0.74149 0.76798 0.91048
 C39 C 0.67971 0.80655 0.62895
 C40 C 0.82181 0.69528 0.87490
 C41 C 0.68200 0.68481 0.78256
 C42 C 0.82026 0.81683 0.72038
 O43 O 0.31115 0.80642 0.81129
 O44 O 0.21147 0.71508 0.96530
 O45 O 0.31323 0.71111 0.88742
 O46 O 0.20903 0.81038 0.88800
 O47 O 0.18601 0.79100 0.61501
 O48 O 0.29010 0.69170 0.61446
 O49 O 0.18843 0.69574 0.69232
 O50 O 0.28820 0.78704 0.53829
 Cu51 Cu 0.26365 0.76279 0.91512
 Cu52 Cu 0.23574 0.73946 0.58782
 C53 C 0.31733 0.81143 0.64947
 C54 C 0.18248 0.69054 0.85420
 C55 C 0.31983 0.68522 0.75031
 C56 C 0.17920 0.81676 0.75227
 C57 C 0.99706 0.13766 0.01482
 C58 C 1.04558 0.11540 -0.02941
 C59 C 1.04592 0.06634 -0.09959
 C60 C 0.99785 0.03723 -0.11617
 C61 C 0.94926 0.06050 -0.06584
 C62 C 0.94887 0.11063 -0.00506
 C63 C 0.99875 -0.01719 -0.17846
 C64 C 0.95039 -0.04324 -0.22719
 C65 C 0.95092 -0.09481 -0.27062
 C66 C 0.99973 -0.12059 -0.27805
 C67 C 1.04812 -0.09566 -0.23615
 C68 C 1.04772 -0.04482 -0.18287
 H69 H 0.99694 0.17579 0.06849
 H70 H 1.08421 0.05157 -0.13808
 H71 H 0.91142 0.04026 -0.06878
 H72 H 0.91170 -0.02466 -0.22904
 H73 H 0.99994 -0.16063 -0.31096
 H74 H 1.08586 -0.02823 -0.14099
 C75 C 0.50096 0.61970 0.78200
 C76 C 0.54970 0.59386 0.77393
 C77 C 0.55014 0.54239 0.72907
 C78 C 0.50171 0.51653 0.67971
 C79 C 0.45282 0.54426 0.68452
 C80 C 0.45255 0.59498 0.73911
 C81 C 0.50242 0.46221 0.61632
 C82 C 0.45424 0.43329 0.59945
 C83 C 0.45438 0.38435 0.52831
 C84 C 0.50276 0.36201 0.48341
 C85 C 0.55103 0.38883 0.50357
 C86 C 0.55091 0.43887 0.56537
 H87 H 0.50083 0.65968 0.81587
 H88 H 0.58880 0.52373 0.73025
 H89 H 0.41465 0.52788 0.64188
 H90 H 0.41602 0.44808 0.63855
 H91 H 0.50269 0.32395 0.42909
 H92 H 0.58883 0.45898 0.56869
 C93 C 0.00039 0.38109 0.27974
 C94 C -0.04786 0.40571 0.23710
 C95 C -0.04731 0.45625 0.18315
 C96 C 0.00174 0.48392 0.17876
 C97 C 0.05003 0.45818 0.22772
 C98 C 0.04928 0.40684 0.27198
 C99 C 0.00273 0.53806 0.11624
 C100 C 0.05131 0.56121 0.06527
 C101 C 0.05166 0.61108 0.00426
 C102 C 0.00352 0.63787 -0.01506
 C103 C -0.04493 0.61571 0.02990
 C104 C -0.04530 0.56698 0.10026
 H105 H 0.00004 0.34121 0.31313
 H106 H -0.08538 0.47253 0.14062
 H107 H 0.08879 0.47680 0.22905
 H108 H 0.08912 0.54107 0.06804
 H109 H 0.00363 0.67578 -0.06874
 H110 H -0.08356 0.55234 0.13951
 C111 C 0.49726 0.86316 0.52010
 C112 C 0.44905 0.88984 0.49979
 C113 C 0.44933 0.93952 0.43712
 C114 C 0.49785 0.96257 0.38524
 C115 C 0.54593 0.93379 0.40222
 C116 C 0.54570 0.88526 0.47431
 C117 C 0.49866 1.01649 0.32064
 C118 C 0.54756 1.04435 0.31579
 C119 C 0.54791 1.09476 0.26025
 C120 C 0.49951 1.11907 0.21657
 C121 C 0.45073 1.09307 0.22451
 C122 C 0.45029 1.04184 0.27015
 H123 H 0.49721 0.82539 0.57495
 H124 H 0.41150 0.95961 0.43373
 H125 H 0.58414 0.94841 0.36233
 H126 H 0.58568 1.02831 0.35915
 H127 H 0.49966 1.15886 0.18205
 H128 H 0.41165 1.02299 0.26872
 C129 C 1.13493 0.16538 0.05995
 C130 C 1.09520 0.14191 0.01280
 C131 C 0.63828 0.64951 0.79206
 C132 C 0.59907 0.62248 0.78987
 C133 C -0.13677 0.35050 0.24332
 C134 C -0.09740 0.37725 0.23983
 C135 C 0.36068 0.84252 0.59257
 C136 C 0.39975 0.86573 0.54865
 C137 C -0.13393 0.66554 -0.05814
 C138 C -0.09444 0.64205 -0.01157
 C139 C 0.36183 1.14788 0.20509
 C140 C 0.40125 1.12128 0.20774
 C141 C 1.13715 -0.15049 -0.24330
 C142 C 1.09767 -0.12397 -0.23938
 C143 C 0.63893 0.34089 0.41026
 C144 C 0.60015 0.36445 0.45466
 C145 C 0.86210 -0.15024 -0.28798
 C146 C 0.90148 -0.12341 -0.28614
 C147 C 0.36505 0.33444 0.43898
 C148 C 0.40472 0.35795 0.48607
 C149 C 0.13959 0.65896 -0.08865
 C150 C 0.10083 0.63536 -0.04451
 C151 C 0.63685 1.15001 0.25295
 C152 C 0.59741 1.12332 0.25688
 C153 C 0.13743 0.35102 0.28928
 C154 C 0.09846 0.37818 0.28751
 C155 C 0.63509 0.83594 0.56233
 C156 C 0.59535 0.85913 0.51598
 C157 C 0.86038 0.15791 0.08715
 C158 C 0.89952 0.13476 0.04327
 C159 C 0.36387 0.65019 0.74600
 C160 C 0.40316 0.62347 0.74225
   
