data_POSCAR
  _audit_creation_date              2014-09-24
  _audit_creation_method            'ToBaCCo'
  _symmetry_space_group_name_H-M    'P1'
  _symmetry_Int_Tables_number       1
  _symmetry_cell_setting            triclinic
  loop_
  _symmetry_equiv_pos_as_xyz
 x,y,z
_cell_length_a 46.5818
_cell_length_b 44.6363
_cell_length_c 34.4977
_cell_angle_alpha 90.391500
_cell_angle_beta 89.977100
_cell_angle_gamma 89.954900
loop_
  _atom_site_label
  _atom_site_type_symbol
  _atom_site_fract_x
  _atom_site_fract_y
  _atom_site_fract_z
C1 C 0.29573 0.29004 0.23562
 H2 H 0.29759 0.28972 0.26687
 C3 C 0.31377 0.30838 0.21386
 H4 H 0.32954 0.32233 0.22834
 C5 C 0.27286 0.27234 0.17846
 H6 H 0.25711 0.25807 0.16474
 C7 C 0.29048 0.29038 0.15560
 H8 H 0.28805 0.29018 0.12437
 N9 N 0.27545 0.27289 0.21778
 C10 C 0.20838 0.26136 0.30484
 H11 H 0.20681 0.23719 0.30576
 C12 C 0.19033 0.27900 0.32798
 H13 H 0.17486 0.26845 0.34695
 C14 C 0.23013 0.30479 0.27863
 H15 H 0.24528 0.31482 0.25893
 C16 C 0.21252 0.32321 0.30125
 H17 H 0.21442 0.34734 0.29920
 Zn18 Zn 0.25154 0.24939 0.24993
 N19 N 0.22803 0.27444 0.28114
 C20 C 0.27426 0.22607 0.32042
 N21 N 0.27587 0.22548 0.28101
 C22 C 0.29539 0.20792 0.26224
 C23 C 0.31358 0.18915 0.28314
 C24 C 0.29211 0.20763 0.34245
 C25 C 0.20704 0.23810 0.19678
 C26 C 0.18842 0.22074 0.17418
 C27 C 0.21061 0.17619 0.20003
 C28 C 0.22879 0.19434 0.22212
 N29 N 0.22700 0.22471 0.21973
 H30 H 0.25910 0.24066 0.33486
 H31 H 0.29647 0.20822 0.23092
 H32 H 0.32869 0.17483 0.26793
 H33 H 0.29044 0.20785 0.37378
 H34 H 0.20573 0.26228 0.19596
 H35 H 0.17276 0.23153 0.15572
 H36 H 0.21232 0.15204 0.20191
 H37 H 0.24419 0.18406 0.24126
 C38 C 0.19252 0.31020 0.32621
 C39 C 0.31096 0.30871 0.17352
 C40 C 0.19034 0.18951 0.17574
 C41 C 0.31175 0.18884 0.32358
 C42 C 0.79637 0.79133 0.23407
 H43 H 0.79834 0.79104 0.26532
 C44 C 0.81418 0.80983 0.21219
 H45 H 0.82989 0.82390 0.22665
 C46 C 0.77341 0.77344 0.17709
 H47 H 0.75771 0.75904 0.16349
 C48 C 0.79079 0.79162 0.15409
 H49 H 0.78816 0.79135 0.12287
 N50 N 0.77614 0.77403 0.21638
 C51 C 0.70919 0.76222 0.30355
 H52 H 0.70770 0.73804 0.30443
 C53 C 0.69109 0.77976 0.32674
 H54 H 0.67566 0.76914 0.34569
 C55 C 0.73080 0.80575 0.27743
 H56 H 0.74592 0.81586 0.25775
 C57 C 0.71314 0.82408 0.30009
 H58 H 0.71497 0.84822 0.29810
 Zn59 Zn 0.75240 0.75043 0.24865
 N60 N 0.72880 0.77539 0.27988
 C61 C 0.77515 0.72719 0.31916
 N62 N 0.77684 0.72665 0.27975
 C63 C 0.79641 0.70913 0.26102
 C64 C 0.81453 0.69029 0.28195
 C65 C 0.79291 0.70868 0.34121
 C66 C 0.70784 0.73885 0.19568
 C67 C 0.68924 0.72137 0.17319
 C68 C 0.71172 0.67697 0.19903
 C69 C 0.72987 0.69524 0.22100
 N70 N 0.72792 0.72560 0.21857
 H71 H 0.75994 0.74174 0.33357
 H72 H 0.79755 0.70945 0.22970
 H73 H 0.82963 0.67595 0.26676
 H74 H 0.79113 0.70881 0.37253
 H75 H 0.70640 0.76303 0.19482
 H76 H 0.67349 0.73205 0.15478
 H77 H 0.71356 0.65283 0.20094
 H78 H 0.74536 0.68506 0.24009
 C79 C 0.69319 0.81098 0.32504
 C80 C 0.81120 0.81015 0.17184
 C81 C 0.69134 0.69015 0.17479
 C82 C 0.81257 0.68988 0.32238
 C83 C 0.79457 0.29074 0.73668
 H84 H 0.79612 0.29098 0.76797
 C85 C 0.81276 0.30877 0.71470
 H86 H 0.82834 0.32303 0.72904
 C87 C 0.77233 0.27194 0.67965
 H88 H 0.75676 0.25738 0.66607
 C89 C 0.79011 0.28965 0.65657
 H90 H 0.78796 0.28890 0.62531
 N91 N 0.77453 0.27320 0.71899
 C92 C 0.70635 0.26300 0.80476
 H93 H 0.70475 0.23886 0.80626
 C94 C 0.68807 0.28099 0.82712
 H95 H 0.67240 0.27073 0.84606
 C96 C 0.72845 0.30601 0.77797
 H97 H 0.74386 0.31575 0.75838
 C98 C 0.71062 0.32477 0.79979
 H99 H 0.71260 0.34886 0.79724
 Zn100 Zn 0.75033 0.25020 0.75136
 N101 N 0.72631 0.27572 0.78120
 C102 C 0.77200 0.22826 0.82315
 N103 N 0.77436 0.22707 0.78383
 C104 C 0.79441 0.20946 0.76620
 C105 C 0.81245 0.19127 0.78821
 C106 C 0.78961 0.21041 0.84630
 C107 C 0.70649 0.23758 0.69773
 C108 C 0.68825 0.21967 0.67527
 C109 C 0.71058 0.17579 0.70275
 C110 C 0.72837 0.19448 0.72467
 N111 N 0.72632 0.22479 0.72141
 H112 H 0.75642 0.24289 0.83666
 H113 H 0.79607 0.20928 0.73492
 H114 H 0.82800 0.17699 0.77373
 H115 H 0.78723 0.21121 0.87756
 H116 H 0.70497 0.26173 0.69621
 H117 H 0.67268 0.23000 0.65623
 H118 H 0.71249 0.15170 0.70532
 H119 H 0.74368 0.18468 0.74434
 C120 C 0.69035 0.31215 0.82469
 C121 C 0.81033 0.30838 0.67431
 C122 C 0.69044 0.18850 0.67773
 C123 C 0.80987 0.19157 0.82864
 C124 C 0.29350 0.79136 0.73674
 H125 H 0.29492 0.79161 0.76804
 C126 C 0.31181 0.80934 0.71489
 H127 H 0.32736 0.82358 0.72935
 C128 C 0.27148 0.77256 0.67955
 H129 H 0.25596 0.75801 0.66586
 C130 C 0.28940 0.79022 0.65660
 H131 H 0.28741 0.78944 0.62532
 N132 N 0.27351 0.77384 0.71891
 C133 C 0.20514 0.76359 0.80440
 H134 H 0.20356 0.73944 0.80589
 C135 C 0.18681 0.78155 0.82671
 H136 H 0.17112 0.77128 0.84560
 C137 C 0.22725 0.80662 0.77768
 H138 H 0.24269 0.81637 0.75816
 C139 C 0.20938 0.82536 0.79946
 H140 H 0.21135 0.84945 0.79693
 Zn141 Zn 0.24922 0.75082 0.75113
 N142 N 0.22512 0.77632 0.78089
 C143 C 0.27080 0.72889 0.82300
 N144 N 0.27317 0.72768 0.78367
 C145 C 0.29325 0.71007 0.76609
 C146 C 0.31129 0.69194 0.78816
 C147 C 0.28843 0.71108 0.84616
 C148 C 0.20555 0.73823 0.69723
 C149 C 0.18737 0.72033 0.67467
 C150 C 0.20957 0.67644 0.70232
 C151 C 0.22730 0.69512 0.72434
 N152 N 0.22529 0.72543 0.72105
 H153 H 0.25519 0.74350 0.83650
 H154 H 0.29494 0.70987 0.73481
 H155 H 0.32691 0.67764 0.77389
 H156 H 0.28615 0.71180 0.87741
 H157 H 0.20405 0.76239 0.69568
 H158 H 0.17188 0.73066 0.65553
 H159 H 0.21146 0.65235 0.70492
 H160 H 0.24254 0.68532 0.74412
 C161 C 0.18907 0.81272 0.82429
 C162 C 0.30959 0.80891 0.67449
 C163 C 0.18952 0.68915 0.67717
 C164 C 0.30870 0.69230 0.82852
 C165 C -0.03389 -0.02202 0.01583
 C166 C -0.01880 0.00217 -0.00016
 C167 C -0.03408 0.02630 -0.01600
 C168 C -0.06414 0.02608 -0.01620
 C169 C -0.07905 0.00205 0.00013
 C170 C -0.06395 -0.02192 0.01631
 C171 C 0.01290 0.00221 -0.00033
 C172 C 0.02809 -0.02190 -0.01686
 C173 C 0.05814 -0.02171 -0.01733
 C174 C 0.07313 0.00227 -0.00063
 C175 C 0.05815 0.02621 0.01622
 C176 C 0.02809 0.02636 0.01604
 H177 H -0.02225 -0.04060 0.02846
 H178 H -0.02259 0.04492 -0.02875
 H179 H 0.01653 -0.04049 -0.02989
 H180 H 0.01653 0.04491 0.02921
 H181 H -0.10234 0.00200 0.00022
 H182 H 0.09642 0.00228 -0.00074
 C183 C -0.03152 0.47458 0.51643
 C184 C -0.01627 0.49847 0.49998
 C185 C -0.03138 0.52209 0.48263
 C186 C -0.06143 0.52163 0.48134
 C187 C -0.07650 0.49790 0.49812
 C188 C -0.06158 0.47447 0.51585
 C189 C 0.01540 0.49863 0.50066
 C190 C 0.03088 0.47445 0.48480
 C191 C 0.06094 0.47477 0.48501
 C192 C 0.07563 0.49892 0.50177
 C193 C 0.06034 0.52293 0.51799
 C194 C 0.03029 0.52296 0.51709
 H195 H -0.02001 0.45639 0.53016
 H196 H -0.01974 0.54044 0.46948
 H197 H 0.01955 0.45574 0.47172
 H198 H 0.01849 0.54157 0.52970
 H199 H -0.09978 0.49764 0.49732
 H200 H 0.09892 0.49904 0.50218
 C201 C 0.46893 -0.02566 0.51705
 C202 C 0.48419 -0.00179 0.50058
 C203 C 0.46910 0.02185 0.48326
 C204 C 0.43905 0.02144 0.48203
 C205 C 0.42396 -0.00227 0.49884
 C206 C 0.43887 -0.02573 0.51653
 C207 C 0.51587 -0.00166 0.50122
 C208 C 0.53132 -0.02576 0.48513
 C209 C 0.56138 -0.02544 0.48525
 C210 C 0.57609 -0.00136 0.50216
 C211 C 0.56083 0.02257 0.51860
 C212 C 0.53077 0.02260 0.51778
 H213 H 0.48043 -0.04387 0.53076
 H214 H 0.48074 0.04019 0.47010
 H215 H 0.51997 -0.04441 0.47193
 H216 H 0.51899 0.04117 0.53055
 H217 H 0.40068 -0.00250 0.49809
 H218 H 0.59938 -0.00123 0.50249
 C219 C 0.46763 0.47725 0.01670
 C220 C 0.48259 0.50149 0.00064
 C221 C 0.46717 0.52558 -0.01509
 C222 C 0.43711 0.52526 -0.01509
 C223 C 0.42234 0.50117 0.00130
 C224 C 0.43757 0.47724 0.01737
 C225 C 0.51429 0.50165 0.00026
 C226 C 0.52950 0.47755 -0.01627
 C227 C 0.55956 0.47784 -0.01691
 C228 C 0.57452 0.50190 -0.00038
 C229 C 0.55951 0.52583 0.01647
 C230 C 0.52945 0.52588 0.01646
 H231 H 0.47937 0.45871 0.02925
 H232 H 0.47856 0.54425 -0.02789
 H233 H 0.51796 0.45890 -0.02917
 H234 H 0.51789 0.54442 0.02963
 H235 H 0.39905 0.50105 0.00154
 H236 H 0.59781 0.50199 -0.00061
 C237 C 0.10480 -0.08794 -0.07065
 C238 C 0.09135 -0.11176 -0.09093
 C239 C 0.10831 -0.13314 -0.11138
 C240 C 0.13860 -0.13055 -0.11142
 C241 C 0.15207 -0.10708 -0.09043
 C242 C 0.13512 -0.08572 -0.06998
 C243 C 0.14907 -0.06237 -0.04937
 C244 C 0.17890 -0.06019 -0.04898
 C245 C 0.19548 -0.08108 -0.06899
 C246 C 0.18234 -0.10429 -0.08953
 C247 C 0.09439 -0.15668 -0.13162
 C248 C 0.06456 -0.15904 -0.13163
 C249 C 0.04798 -0.13813 -0.11164
 C250 C 0.06111 -0.11470 -0.09148
 C251 C 0.15595 -0.15142 -0.13387
 C252 C 0.17080 -0.16813 -0.15281
 C253 C 0.08756 -0.06518 -0.05137
 C254 C 0.07380 -0.04569 -0.03569
 H255 H 0.13712 -0.04560 -0.03331
 H256 H 0.18921 -0.04221 -0.03305
 H257 H 0.21865 -0.07930 -0.06859
 H258 H 0.19617 -0.12000 -0.10460
 H259 H 0.10639 -0.17350 -0.14754
 H260 H 0.05425 -0.17719 -0.14723
 H261 H 0.02482 -0.14007 -0.11174
 H262 H 0.04732 -0.09900 -0.07631
 C263 C 0.10808 0.40845 0.43268
 C264 C 0.09471 0.38504 0.41153
 C265 C 0.11175 0.36376 0.39102
 C266 C 0.14206 0.36605 0.39180
 C267 C 0.15545 0.38902 0.41377
 C268 C 0.13841 0.41028 0.43427
 C269 C 0.15228 0.43317 0.45582
 C270 C 0.18212 0.43499 0.45710
 C271 C 0.19878 0.41421 0.43705
 C272 C 0.18572 0.39145 0.41557
 C273 C 0.09790 0.34066 0.36987
 C274 C 0.06805 0.33862 0.36903
 C275 C 0.05139 0.35943 0.38907
 C276 C 0.06445 0.38243 0.41012
 C277 C 0.15950 0.34547 0.36902
 C278 C 0.17435 0.32903 0.34970
 C279 C 0.09077 0.43125 0.45175
 C280 C 0.07688 0.45078 0.46714
 H281 H 0.14025 0.44985 0.47196
 H282 H 0.19237 0.45263 0.47374
 H283 H 0.22196 0.41571 0.43813
 H284 H 0.19961 0.37579 0.40052
 H285 H 0.10996 0.32393 0.35388
 H286 H 0.05780 0.32080 0.35273
 H287 H 0.02821 0.35774 0.38833
 H288 H 0.05059 0.39805 0.42530
 C289 C 0.60857 -0.09138 0.43221
 C290 C 0.59524 -0.11479 0.41100
 C291 C 0.61232 -0.13592 0.39030
 C292 C 0.64263 -0.13349 0.39094
 C293 C 0.65597 -0.11051 0.41295
 C294 C 0.63889 -0.08940 0.43364
 C295 C 0.65272 -0.06650 0.45523
 C296 C 0.68256 -0.06454 0.45636
 C297 C 0.69926 -0.08518 0.43613
 C298 C 0.68624 -0.10794 0.41461
 C299 C 0.59852 -0.15903 0.36911
 C300 C 0.56868 -0.16121 0.36841
 C301 C 0.55198 -0.14055 0.38864
 C302 C 0.56499 -0.11754 0.40973
 C303 C 0.66010 -0.15394 0.36802
 C304 C 0.67498 -0.17029 0.34861
 C305 C 0.59122 -0.06873 0.45151
 C306 C 0.57730 -0.04932 0.46712
 H307 H 0.64067 -0.04993 0.47152
 H308 H 0.69277 -0.04690 0.47304
 H309 H 0.72243 -0.08357 0.43710
 H310 H 0.70016 -0.12349 0.39941
 H311 H 0.61061 -0.17565 0.35297
 H312 H 0.55846 -0.17904 0.35208
 H313 H 0.52881 -0.14234 0.38800
 H314 H 0.55111 -0.10203 0.42505
 C315 C 0.60619 0.41158 -0.07020
 C316 C 0.59271 0.38788 -0.09070
 C317 C 0.60965 0.36648 -0.11114
 C318 C 0.63996 0.36892 -0.11097
 C319 C 0.65345 0.39226 -0.08976
 C320 C 0.63652 0.41364 -0.06932
 C321 C 0.65050 0.43686 -0.04850
 C322 C 0.68034 0.43889 -0.04790
 C323 C 0.69690 0.41798 -0.06789
 C324 C 0.68373 0.39489 -0.08864
 C325 C 0.59570 0.34307 -0.13159
 C326 C 0.56586 0.34086 -0.13182
 C327 C 0.54930 0.36179 -0.11183
 C328 C 0.56246 0.38509 -0.09147
 C329 C 0.65729 0.34805 -0.13343
 C330 C 0.67211 0.33133 -0.15239
 C331 C 0.58898 0.43436 -0.05093
 C332 C 0.57523 0.45387 -0.03525
 H333 H 0.63857 0.45365 -0.03244
 H334 H 0.69067 0.45678 -0.03181
 H335 H 0.72008 0.41964 -0.06733
 H336 H 0.69754 0.37916 -0.10369
 H337 H 0.60768 0.32624 -0.14752
 H338 H 0.55553 0.32280 -0.14758
 H339 H 0.52613 0.35996 -0.11209
 H340 H 0.54869 0.40081 -0.07631
 C341 C -0.10963 0.09312 -0.06851
 C342 C -0.09619 0.11200 -0.09587
 C343 C -0.11268 0.13360 -0.11622
 C344 C -0.14251 0.13621 -0.10904
 C345 C -0.15581 0.11785 -0.08096
 C346 C -0.13933 0.09623 -0.06065
 C347 C -0.15315 0.07796 -0.03293
 C348 C -0.18241 0.08101 -0.02545
 C349 C -0.19852 0.10217 -0.04528
 C350 C -0.18550 0.12043 -0.07276
 C351 C -0.09881 0.15207 -0.14364
 C352 C -0.06947 0.14932 -0.15072
 C353 C -0.05334 0.12821 -0.13081
 C354 C -0.06643 0.10969 -0.10368
 C355 C -0.15969 0.15703 -0.13141
 C356 C -0.17420 0.17383 -0.15041
 C357 C -0.09318 0.06987 -0.04940
 C358 C -0.07978 0.05013 -0.03400
 H359 H -0.14152 0.06121 -0.01672
 H360 H -0.19263 0.06688 -0.00414
 H361 H -0.22124 0.10446 -0.03936
 H362 H -0.19892 0.13659 -0.08739
 H363 H -0.11045 0.16885 -0.15981
 H364 H -0.05919 0.16365 -0.17177
 H365 H -0.03055 0.12616 -0.13641
 H366 H -0.05298 0.09364 -0.08888
 C367 C -0.10629 0.58644 0.42364
 C368 C -0.10795 0.61624 0.43782
 C369 C -0.12420 0.63797 0.41732
 C370 C -0.13866 0.62977 0.38276
 C371 C -0.13685 0.60001 0.36845
 C372 C -0.12064 0.57829 0.38896
 C373 C -0.11921 0.54867 0.37412
 C374 C -0.13337 0.54074 0.33999
 C375 C -0.14921 0.56199 0.31993
 C376 C -0.15101 0.59131 0.33385
 C377 C -0.12560 0.66759 0.43209
 C378 C -0.11134 0.67553 0.46614
 C379 C -0.09544 0.65430 0.48616
 C380 C -0.09369 0.62495 0.47230
 C381 C -0.15562 0.65175 0.36198
 C382 C -0.16997 0.66947 0.34422
 C383 C -0.09006 0.56406 0.44474
 C384 C -0.07685 0.54499 0.46174
 H385 H -0.10715 0.53133 0.38866
 H386 H -0.13204 0.51799 0.32906
 H387 H -0.16017 0.55573 0.29343
 H388 H -0.16359 0.60701 0.31718
 H389 H -0.13770 0.68488 0.41751
 H390 H -0.11262 0.69830 0.47703
 H391 H -0.08439 0.66059 0.51259
 H392 H -0.08106 0.60922 0.48887
 C393 C 0.39429 0.08640 0.42444
 C394 C 0.38726 0.11404 0.44245
 C395 C 0.37080 0.13565 0.42204
 C396 C 0.36150 0.12948 0.38375
 C397 C 0.36880 0.10196 0.36559
 C398 C 0.38523 0.08036 0.38600
 C399 C 0.39217 0.05297 0.36726
 C400 C 0.38315 0.04710 0.32946
 C401 C 0.36709 0.06823 0.30951
 C402 C 0.35993 0.09537 0.32721
 C403 C 0.36395 0.16308 0.44068
 C404 C 0.37312 0.16901 0.47840
 C405 C 0.38922 0.14790 0.49835
 C406 C 0.39627 0.12068 0.48073
 C407 C 0.34411 0.15117 0.36310
 C408 C 0.32946 0.16865 0.34541
 C409 C 0.41046 0.06394 0.44551
 C410 C 0.42364 0.04483 0.46248
 H411 H 0.40464 0.03583 0.38156
 H412 H 0.38866 0.02605 0.31559
 H413 H 0.36014 0.06357 0.28014
 H414 H 0.34742 0.11109 0.31046
 H415 H 0.35148 0.18020 0.42632
 H416 H 0.36770 0.19012 0.49223
 H417 H 0.39630 0.15263 0.52764
 H418 H 0.40885 0.10497 0.49739
 C419 C 0.39132 0.59225 -0.06702
 C420 C 0.40453 0.61077 -0.09500
 C421 C 0.38792 0.63235 -0.11521
 C422 C 0.35822 0.63531 -0.10728
 C423 C 0.34518 0.61731 -0.07859
 C424 C 0.36178 0.59571 -0.05841
 C425 C 0.34822 0.57782 -0.03006
 C426 C 0.31910 0.58121 -0.02183
 C427 C 0.30288 0.60235 -0.04154
 C428 C 0.31565 0.62025 -0.06963
 C429 C 0.40155 0.65046 -0.14326
 C430 C 0.43076 0.64736 -0.15109
 C431 C 0.44700 0.62626 -0.13131
 C432 C 0.43414 0.60811 -0.10357
 C433 C 0.34090 0.65609 -0.12950
 C434 C 0.32632 0.67287 -0.14841
 C435 C 0.40786 0.56900 -0.04804
 C436 C 0.42135 0.54928 -0.03276
 H437 H 0.35995 0.56110 -0.01391
 H438 H 0.30908 0.56736 -0.00004
 H439 H 0.28027 0.60491 -0.03504
 H440 H 0.30215 0.63641 -0.08414
 H441 H 0.38983 0.66721 -0.15935
 H442 H 0.44085 0.66141 -0.17261
 H443 H 0.46968 0.62395 -0.13749
 H444 H 0.44767 0.59205 -0.08891
 C445 C -0.10880 -0.08934 0.06870
 C446 C -0.13847 -0.09270 0.06091
 C447 C -0.15471 -0.11455 0.08115
 C448 C -0.14119 -0.13288 0.10909
 C449 C -0.11138 -0.12999 0.11621
 C450 C -0.09514 -0.10816 0.09594
 C451 C -0.06540 -0.10558 0.10369
 C452 C -0.05209 -0.12406 0.13068
 C453 C -0.06797 -0.14539 0.15052
 C454 C -0.09729 -0.14841 0.14350
 C455 C -0.18437 -0.11740 0.07301
 C456 C -0.19761 -0.09919 0.04565
 C457 C -0.18174 -0.07781 0.02589
 C458 C -0.15251 -0.07449 0.03333
 C459 C -0.15812 -0.15399 0.13132
 C460 C -0.17241 -0.17106 0.15018
 C461 C -0.09259 -0.06592 0.04959
 C462 C -0.07938 -0.04607 0.03417
 H463 H -0.05213 -0.08935 0.08894
 H464 H -0.02932 -0.12181 0.13623
 H465 H -0.05753 -0.15968 0.17146
 H466 H -0.10874 -0.16535 0.15961
 H467 H -0.19762 -0.13374 0.08759
 H468 H -0.22031 -0.10168 0.03976
 H469 H -0.19213 -0.06371 0.00467
 H470 H -0.14107 -0.05757 0.01717
 C471 C -0.10690 0.40788 0.56927
 C472 C -0.09430 0.39152 0.59991
 C473 C -0.11084 0.37006 0.62039
 C474 C -0.13988 0.36505 0.61007
 C475 C -0.15225 0.38086 0.57879
 C476 C -0.13572 0.40235 0.55834
 C477 C -0.14862 0.41804 0.52736
 C478 C -0.17704 0.41262 0.51685
 C479 C -0.19320 0.39159 0.53682
 C480 C -0.18107 0.37584 0.56747
 C481 C -0.09785 0.35414 0.65109
 C482 C -0.06931 0.35925 0.66125
 C483 C -0.05313 0.38023 0.64121
 C484 C -0.06537 0.39626 0.61088
 C485 C -0.15726 0.34439 0.63238
 C486 C -0.17192 0.32771 0.65130
 C487 C -0.09053 0.43101 0.54982
 C488 C -0.07719 0.45062 0.53410
 H489 H -0.13691 0.43458 0.51091
 H490 H -0.18656 0.42480 0.49306
 H491 H -0.21526 0.38745 0.52853
 H492 H -0.19448 0.35967 0.58208
 H493 H -0.10955 0.33756 0.66750
 H494 H -0.05970 0.34686 0.68479
 H495 H -0.03096 0.38411 0.64920
 H496 H -0.05191 0.41231 0.59612
 C497 C 0.39341 -0.09218 0.57003
 C498 C 0.40509 -0.10686 0.60269
 C499 C 0.38836 -0.12821 0.62310
 C500 C 0.36007 -0.13478 0.61069
 C501 C 0.34866 -0.12066 0.57744
 C502 C 0.36538 -0.09929 0.55706
 C503 C 0.35344 -0.08531 0.52407
 C504 C 0.32579 -0.09228 0.51154
 C505 C 0.30945 -0.11319 0.53145
 C506 C 0.32064 -0.12728 0.56406
 C507 C 0.40042 -0.14243 0.65584
 C508 C 0.42823 -0.13579 0.66803
 C509 C 0.44459 -0.11492 0.64806
 C510 C 0.43326 -0.10055 0.61575
 C511 C 0.34241 -0.15530 0.63282
 C512 C 0.32754 -0.17187 0.65160
 C513 C 0.40985 -0.06911 0.55055
 C514 C 0.42323 -0.04955 0.53481
 H515 H 0.36533 -0.06892 0.50759
 H516 H 0.31700 -0.08139 0.48623
 H517 H 0.28799 -0.11854 0.52159
 H518 H 0.30713 -0.14343 0.57854
 H519 H 0.38855 -0.15886 0.67228
 H520 H 0.43712 -0.14689 0.69311
 H521 H 0.46618 -0.10985 0.65764
 H522 H 0.44683 -0.08452 0.60113
 C523 C 0.39321 0.40964 0.07009
 C524 C 0.40486 0.39549 0.10315
 C525 C 0.38849 0.37371 0.12333
 C526 C 0.36057 0.36620 0.11028
 C527 C 0.34921 0.37979 0.07664
 C528 C 0.36557 0.40160 0.05649
 C529 C 0.35368 0.41505 0.02310
 C530 C 0.32642 0.40715 0.00995
 C531 C 0.31043 0.38581 0.02962
 C532 C 0.32158 0.37222 0.06261
 C533 C 0.40050 0.36003 0.15648
 C534 C 0.42793 0.36762 0.16931
 C535 C 0.44395 0.38890 0.14956
 C536 C 0.43265 0.40275 0.11686
 C537 C 0.34320 0.34526 0.13217
 C538 C 0.32860 0.32834 0.15079
 C539 C 0.40923 0.43313 0.05084
 C540 C 0.42229 0.45304 0.03533
 H541 H 0.36531 0.43173 0.00678
 H542 H 0.31766 0.41763 -0.01567
 H543 H 0.28927 0.37974 0.01928
 H544 H 0.30835 0.35572 0.07690
 H545 H 0.38889 0.34332 0.17277
 H546 H 0.43681 0.35692 0.19470
 H547 H 0.46525 0.39470 0.15963
 H548 H 0.44595 0.41913 0.10245
 C549 C 0.10496 0.09227 0.06942
 C550 C 0.13527 0.09080 0.06684
 C551 C 0.15240 0.11188 0.08746
 C552 C 0.13911 0.13431 0.11051
 C553 C 0.10880 0.13624 0.11230
 C554 C 0.09167 0.11514 0.09169
 C555 C 0.06141 0.11738 0.09411
 C556 C 0.04844 0.13985 0.11623
 C557 C 0.06519 0.16048 0.13639
 C558 C 0.09504 0.15879 0.13457
 C559 C 0.18266 0.10983 0.08465
 C560 C 0.19563 0.08761 0.06209
 C561 C 0.17888 0.06701 0.04193
 C562 C 0.14905 0.06847 0.04418
 C563 C 0.15670 0.15470 0.13329
 C564 C 0.17178 0.17096 0.15251
 C565 C 0.08762 0.06962 0.05016
 C566 C 0.07382 0.05017 0.03451
 H567 H 0.04750 0.10187 0.07888
 H568 H 0.02527 0.14127 0.11774
 H569 H 0.05500 0.17790 0.15353
 H570 H 0.10717 0.17537 0.15069
 H571 H 0.19662 0.12537 0.09974
 H572 H 0.21880 0.08639 0.06025
 H573 H 0.18906 0.04979 0.02444
 H574 H 0.13696 0.05195 0.02791
 C575 C 0.10622 0.58968 0.57125
 C576 C 0.09251 0.61308 0.59208
 C577 C 0.10924 0.63456 0.61264
 C578 C 0.13958 0.63248 0.61223
 C579 C 0.15329 0.60946 0.59066
 C580 C 0.13656 0.58800 0.57011
 C581 C 0.15077 0.56509 0.54895
 C582 C 0.18063 0.56343 0.54811
 C583 C 0.19699 0.58441 0.56821
 C584 C 0.18360 0.60720 0.58929
 C585 C 0.09507 0.65765 0.63345
 C586 C 0.06520 0.65950 0.63392
 C587 C 0.04884 0.63850 0.61382
 C588 C 0.06222 0.61550 0.59310
 C589 C 0.15672 0.65336 0.63489
 C590 C 0.17141 0.67005 0.65402
 C591 C 0.08923 0.56675 0.55196
 C592 C 0.07571 0.54710 0.53629
 H593 H 0.13899 0.54826 0.53279
 H594 H 0.19113 0.54577 0.53176
 H595 H 0.22018 0.58303 0.56746
 H596 H 0.19726 0.62301 0.60440
 H597 H 0.10689 0.67453 0.64948
 H598 H 0.05470 0.67732 0.64996
 H599 H 0.02565 0.64003 0.61428
 H600 H 0.04860 0.59971 0.57787
 C601 C 0.60682 0.08914 0.57205
 C602 C 0.59317 0.11244 0.59315
 C603 C 0.60997 0.13388 0.61369
 C604 C 0.64030 0.13186 0.61300
 C605 C 0.65395 0.10894 0.59118
 C606 C 0.63716 0.08752 0.57065
 C607 C 0.65130 0.06471 0.54923
 C608 C 0.68116 0.06311 0.54811
 C609 C 0.69758 0.08405 0.56819
 C610 C 0.68425 0.10674 0.58954
 C611 C 0.59586 0.15687 0.63476
 C612 C 0.56599 0.15866 0.63550
 C613 C 0.54957 0.13770 0.61543
 C614 C 0.56289 0.11480 0.59445
 C615 C 0.65752 0.15271 0.63560
 C616 C 0.67227 0.16939 0.65467
 C617 C 0.58978 0.06628 0.55273
 C618 C 0.57622 0.04669 0.53700
 H619 H 0.63948 0.04791 0.53307
 H620 H 0.69161 0.04552 0.53157
 H621 H 0.72077 0.08271 0.56724
 H622 H 0.69796 0.12252 0.60462
 H623 H 0.60772 0.17371 0.65079
 H624 H 0.55553 0.17641 0.65174
 H625 H 0.52638 0.13919 0.61610
 H626 H 0.54922 0.09904 0.57925
 C627 C 0.60621 0.59222 0.06918
 C628 C 0.63652 0.59086 0.06656
 C629 C 0.65359 0.61209 0.08701
 C630 C 0.64025 0.63455 0.10995
 C631 C 0.60993 0.63636 0.11178
 C632 C 0.59285 0.61512 0.09133
 C633 C 0.56259 0.61725 0.09379
 C634 C 0.54956 0.63975 0.11580
 C635 C 0.56625 0.66052 0.13579
 C636 C 0.59611 0.65895 0.13393
 C637 C 0.68386 0.61014 0.08417
 C638 C 0.69689 0.58789 0.06173
 C639 C 0.68020 0.56714 0.04173
 C640 C 0.65036 0.56849 0.04402
 C641 C 0.65778 0.65509 0.13258
 C642 C 0.67281 0.67146 0.15169
 C643 C 0.58893 0.56944 0.05009
 C644 C 0.57517 0.54989 0.03458
 H645 H 0.54872 0.60163 0.07869
 H646 H 0.52638 0.64108 0.11734
 H647 H 0.55602 0.67796 0.15284
 H648 H 0.60819 0.67563 0.14993
 H649 H 0.69777 0.62579 0.09914
 H650 H 0.72006 0.58676 0.05986
 H651 H 0.69042 0.54990 0.02434
 H652 H 0.63831 0.55187 0.02788
   
