data_POSCAR
  _audit_creation_date              2014-09-24
  _audit_creation_method            'ToBaCCo'
  _symmetry_space_group_name_H-M    'P1'
  _symmetry_Int_Tables_number       1
  _symmetry_cell_setting            triclinic
  loop_
  _symmetry_equiv_pos_as_xyz
 x,y,z
_cell_length_a 51.2433
_cell_length_b 51.3137
_cell_length_c 32.8878
_cell_angle_alpha 89.962800
_cell_angle_beta 90.157900
_cell_angle_gamma 119.885400
loop_
  _atom_site_label
  _atom_site_type_symbol
  _atom_site_fract_x
  _atom_site_fract_y
  _atom_site_fract_z
C1 C 0.05316 0.53953 0.10414
 C2 C 0.05324 0.51288 0.10336
 C3 C 0.03476 0.49630 0.07135
 N4 N 0.02317 0.51181 0.05271
 C5 C 0.03465 0.53839 0.07256
 C6 C 0.03158 0.46895 0.05689
 C7 C 0.00828 0.45001 0.03008
 C8 C 0.00810 0.42781 0.00602
 C9 C -0.01874 0.41458 -0.01511
 C10 C -0.03455 0.42871 -0.00267
 N11 N -0.01769 0.45032 0.02481
 C12 C -0.06381 0.42211 -0.01520
 C13 C -0.07321 0.44321 -0.00666
 C14 C -0.10259 0.43637 0.00065
 C15 C -0.10244 0.46313 0.00103
 C16 C -0.07298 0.48542 -0.00607
 N17 N -0.05499 0.47327 -0.01003
 C18 C -0.06334 0.51598 -0.01422
 C19 C -0.03421 0.53830 -0.00095
 C20 C -0.01832 0.56844 -0.01228
 C21 C 0.00825 0.58157 0.00948
 C22 C 0.00823 0.55909 0.03272
 N23 N -0.01762 0.53300 0.02644
 C24 C 0.03132 0.56283 0.05958
 H25 H 0.06572 0.55787 0.12512
 H26 H 0.06587 0.50662 0.12365
 H27 H -0.02453 0.51304 0.04239
 H28 H 0.02578 0.42222 0.00318
 H29 H -0.02494 0.39721 -0.03770
 H30 H -0.12213 0.41433 0.00478
 H31 H -0.12184 0.46590 0.00544
 H32 H 0.02591 0.60483 0.00753
 H33 H -0.02450 0.46317 0.04148
 H34 H -0.02423 0.58014 -0.03446
 C35 C 0.44396 0.52983 0.04549
 C36 C 0.47061 0.55642 0.04643
 C37 C 0.49212 0.55105 0.02908
 N38 N 0.47933 0.52176 0.01801
 C39 C 0.44974 0.50878 0.02753
 C40 C 0.52333 0.57247 0.02712
 C41 C 0.54494 0.56634 0.00971
 C42 C 0.57594 0.58384 0.01453
 C43 C 0.58876 0.57094 -0.00875
 C44 C 0.56533 0.54627 -0.02774
 N45 N 0.53879 0.54372 -0.01649
 C46 C 0.56863 0.52785 -0.05664
 C47 C 0.54400 0.50106 -0.07132
 C48 C 0.54406 0.48726 -0.10743
 C49 C 0.51730 0.46087 -0.10911
 C50 C 0.50192 0.45910 -0.07356
 N51 N 0.51816 0.48398 -0.05065
 C52 C 0.47431 0.43387 -0.06156
 C53 C 0.45487 0.43676 -0.03350
 C54 C 0.43050 0.41319 -0.01413
 C55 C 0.41750 0.42563 0.00960
 C56 C 0.43468 0.45657 0.00515
 N57 N 0.45720 0.46313 -0.02151
 C58 C 0.42842 0.47769 0.02394
 H59 H 0.42303 0.52643 0.05810
 H60 H 0.47373 0.57700 0.05993
 H61 H 0.47167 0.48422 -0.03365
 H62 H 0.58831 0.60396 0.03262
 H63 H 0.61263 0.57914 -0.01178
 H64 H 0.56153 0.49548 -0.13029
 H65 H 0.50997 0.44484 -0.13385
 H66 H 0.39780 0.41305 0.02830
 H67 H 0.51795 0.52934 -0.02948
 H68 H 0.42288 0.38944 -0.01605
 C69 C 0.55112 1.09684 -0.02720
 C70 C 0.52440 1.09670 -0.02518
 C71 C 0.50197 1.06686 -0.02237
 N72 N 0.51421 1.04875 -0.02325
 C73 C 0.54429 1.06706 -0.02694
 C74 C 0.47065 1.05622 -0.02386
 C75 C 0.44949 1.02739 -0.00933
 C76 C 0.41852 1.01328 -0.01467
 C77 C 0.40633 0.98680 0.00696
 C78 C 0.43016 0.98564 0.02517
 N79 N 0.45628 1.01054 0.01538
 C80 C 0.42754 0.96280 0.05161
 C81 C 0.45247 0.95972 0.06297
 C82 C 0.45253 0.94191 0.09462
 C83 C 0.47958 0.94261 0.09297
 C84 C 0.49513 0.96077 0.06028
 N85 N 0.47862 0.97138 0.04209
 C86 C 0.52253 0.96457 0.04499
 C87 C 0.54014 0.98715 0.01659
 C88 C 0.56183 0.98696 -0.00815
 C89 C 0.57367 1.01280 -0.03110
 C90 C 0.55935 1.02851 -0.01907
 N91 N 0.53880 1.01248 0.00993
 C92 C 0.56518 1.05696 -0.03398
 H93 H 0.57312 1.11677 -0.02882
 H94 H 0.52229 1.11659 -0.02539
 H95 H 0.52617 1.01952 0.02665
 H96 H 0.40580 1.02129 -0.03159
 H97 H 0.38261 0.97046 0.00926
 H98 H 0.43482 0.92948 0.11644
 H99 H 0.48678 0.93075 0.11319
 H100 H 0.59029 1.01851 -0.05468
 H101 H 0.47727 1.01717 0.02817
 H102 H 0.56792 0.96962 -0.01027
 C103 C 0.94775 0.48080 0.60499
 C104 C 0.94786 0.45415 0.60457
 C105 C 0.96629 0.45586 0.57269
 N106 N 0.97765 0.48275 0.55377
 C107 C 0.96607 0.49791 0.57332
 C108 C 0.96955 0.43164 0.55859
 C109 C 0.99256 0.43567 0.53158
 C110 C 0.99253 0.41343 0.50780
 C111 C 1.01904 0.42678 0.48610
 C112 C 1.03491 0.45682 0.49796
 N113 N 1.01837 0.46183 0.52568
 C114 C 1.06392 0.47934 0.48480
 C115 C 1.07347 0.50978 0.49374
 C116 C 1.10293 0.53208 0.50101
 C117 C 1.10292 0.55877 0.50159
 C118 C 1.07345 0.55186 0.49466
 N119 N 1.05534 0.52182 0.49060
 C120 C 1.06387 0.57292 0.48689
 C121 C 1.03471 0.56615 0.49988
 C122 C 1.01873 0.58032 0.48816
 C123 C 0.99214 0.56696 0.50964
 C124 C 0.99226 0.54465 0.53316
 N125 N 1.01817 0.54438 0.52721
 C126 C 0.96925 0.52553 0.56003
 H127 H 0.93520 0.48668 0.62584
 H128 H 0.93535 0.43543 0.62496
 H129 H 1.02520 0.53146 0.54338
 H130 H 0.97491 0.39016 0.50552
 H131 H 1.02496 0.41532 0.46362
 H132 H 1.12244 0.52938 0.50490
 H133 H 1.12241 0.58080 0.50603
 H134 H 0.97440 0.57252 0.50734
 H135 H 1.02528 0.48161 0.54205
 H136 H 1.02463 0.59779 0.46584
 C137 C 0.56245 0.47742 0.54819
 C138 C 0.53604 0.45061 0.54851
 C139 C 0.51456 0.45544 0.52969
 N140 N 0.52713 0.48467 0.51847
 C141 C 0.55657 0.49812 0.52922
 C142 C 0.48355 0.43354 0.52630
 C143 C 0.46182 0.43903 0.50749
 C144 C 0.43083 0.42064 0.51069
 C145 C 0.41785 0.43330 0.48716
 C146 C 0.44116 0.45877 0.46956
 N147 N 0.46784 0.46196 0.48183
 C148 C 0.43745 0.47759 0.44153
 C149 C 0.46147 0.50546 0.42843
 C150 C 0.46029 0.52131 0.39498
 C151 C 0.48671 0.54814 0.39476
 C152 C 0.50319 0.54785 0.42808
 N153 N 0.48777 0.52168 0.44858
 C154 C 0.53088 0.57247 0.44074
 C155 C 0.55035 0.56967 0.46867
 C156 C 0.57565 0.59350 0.48601
 C157 C 0.58909 0.58130 0.50955
 C158 C 0.57135 0.55026 0.50654
 N159 N 0.54803 0.54344 0.48110
 C160 C 0.57780 0.52924 0.52528
 H161 H 0.58327 0.48122 0.56185
 H162 H 0.53306 0.43023 0.56249
 H163 H 0.53324 0.52226 0.46956
 H164 H 0.41854 0.40014 0.52797
 H165 H 0.39392 0.42450 0.48329
 H166 H 0.44224 0.51430 0.37303
 H167 H 0.49302 0.56588 0.37259
 H168 H 0.60964 0.59406 0.52676
 H169 H 0.48880 0.47710 0.47006
 H170 H 0.58381 0.61726 0.48195
 C171 C 0.51838 0.05789 0.59523
 C172 C 0.54518 0.05801 0.59511
 C173 C 0.54366 0.03955 0.56337
 N174 N 0.51673 0.02794 0.54423
 C175 C 0.50135 0.03938 0.56351
 C176 C 0.56797 0.03622 0.54976
 C177 C 0.56395 0.01313 0.52289
 C178 C 0.58621 0.01312 0.49921
 C179 C 0.57288 -0.01355 0.47782
 C180 C 0.54287 -0.02945 0.48981
 N181 N 0.53782 -0.01277 0.51723
 C182 C 0.52043 -0.05868 0.47719
 C183 C 0.48997 -0.06841 0.48632
 C184 C 0.46795 -0.09781 0.49432
 C185 C 0.44106 -0.09813 0.49490
 C186 C 0.44757 -0.06893 0.48722
 N187 N 0.47756 -0.05063 0.48271
 C188 C 0.42615 -0.05982 0.47922
 C189 C 0.43273 -0.03059 0.49151
 C190 C 0.41812 -0.01512 0.47953
 C191 C 0.43155 0.01183 0.50028
 C192 C 0.45431 0.01238 0.52367
 N193 N 0.45480 -0.01344 0.51833
 C194 C 0.47355 0.03585 0.55004
 H195 H 0.51231 0.07034 0.61599
 H196 H 0.56383 0.07061 0.61571
 H197 H 0.46809 -0.01998 0.53461
 H198 H 0.60945 0.03079 0.49680
 H199 H 0.58437 -0.01954 0.45549
 H200 H 0.47097 -0.11705 0.49871
 H201 H 0.41915 -0.11768 0.49985
 H202 H 0.42568 0.02931 0.49763
 H203 H 0.51807 -0.01965 0.53368
 H204 H 0.40028 -0.02161 0.45750
 O205 O 0.23793 0.42041 0.28013
 O206 O 0.18299 0.41809 0.20478
 O207 O 0.23466 0.41784 0.20151
 O208 O 0.18739 0.42164 0.28403
 O209 O 0.21272 0.47116 0.27924
 O210 O 0.25897 0.46741 0.19752
 O211 O 0.20877 0.46764 0.20089
 O212 O 0.26255 0.47000 0.27640
 Cu213 Cu 0.20810 0.41442 0.24281
 Cu214 Cu 0.23827 0.47396 0.23813
 C215 C 0.25966 0.44577 0.29090
 C216 C 0.18651 0.44263 0.19037
 C217 C 0.25510 0.44217 0.18593
 C218 C 0.19217 0.44733 0.29547
 O219 O 0.58255 0.76975 0.19648
 O220 O 0.57871 0.81776 0.27784
 O221 O 0.58118 0.76793 0.27508
 O222 O 0.58101 0.82078 0.19840
 O223 O 0.53138 0.79403 0.19565
 O224 O 0.53148 0.74235 0.27246
 O225 O 0.52909 0.79147 0.27416
 O226 O 0.53285 0.74449 0.19358
 Cu227 Cu 0.58594 0.79682 0.23701
 Cu228 Cu 0.52629 0.76550 0.23368
 C229 C 0.55816 0.74867 0.18172
 C230 C 0.55296 0.81258 0.28971
 C231 C 0.55618 0.74605 0.28661
 C232 C 0.55601 0.81640 0.18430
 O233 O 0.23310 0.81306 0.21473
 O234 O 0.18620 0.75905 0.29474
 O235 O 0.23672 0.81043 0.29356
 O236 O 0.18166 0.76091 0.21581
 O237 O 0.20763 0.73743 0.20848
 O238 O 0.26166 0.78598 0.28534
 O239 O 0.21178 0.73524 0.28660
 O240 O 0.25752 0.78803 0.20726
 Cu241 Cu 0.20680 0.78833 0.25522
 Cu242 Cu 0.23713 0.75928 0.24616
 C243 C 0.25360 0.80980 0.19788
 C244 C 0.19122 0.73790 0.30413
 C245 C 0.25866 0.80648 0.30246
 C246 C 0.18524 0.74047 0.19938
 O247 O 0.76642 0.58081 0.78128
 O248 O 0.82102 0.58142 0.70697
 O249 O 0.77063 0.58419 0.70268
 O250 O 0.81604 0.57798 0.78605
 O251 O 0.78936 0.52853 0.78071
 O252 O 0.74493 0.53466 0.69795
 O253 O 0.79384 0.53195 0.70252
 O254 O 0.74044 0.53127 0.77672
 Cu255 Cu 0.79630 0.58617 0.74447
 Cu256 Cu 0.76447 0.52671 0.73900
 C257 C 0.74410 0.55570 0.79154
 C258 C 0.81676 0.55659 0.69256
 C259 C 0.74981 0.56031 0.68657
 C260 C 0.81029 0.55196 0.79738
 O261 O 0.41699 0.18468 0.77773
 O262 O 0.41955 0.23625 0.69728
 O263 O 0.41816 0.18382 0.69870
 O264 O 0.41848 0.23663 0.77608
 O265 O 0.46821 0.26036 0.77590
 O266 O 0.46785 0.20767 0.70105
 O267 O 0.46922 0.25876 0.69734
 O268 O 0.46671 0.20957 0.78017
 Cu269 Cu 0.41323 0.20787 0.73712
 Cu270 Cu 0.47293 0.23636 0.73864
 C271 C 0.44155 0.18870 0.79289
 C272 C 0.44491 0.25648 0.68402
 C273 C 0.44315 0.18668 0.68726
 C274 C 0.44369 0.25771 0.78875
 O275 O 0.81091 0.23649 0.79199
 O276 O 0.76424 0.18358 0.71049
 O277 O 0.81635 0.23479 0.71318
 O278 O 0.75948 0.18569 0.78907
 O279 O 0.73561 0.21111 0.77956
 O280 O 0.79163 0.25949 0.70504
 O281 O 0.74112 0.20981 0.70194
 O282 O 0.78640 0.26132 0.78312
 Cu283 Cu 0.79027 0.20759 0.75190
 Cu284 Cu 0.76138 0.23800 0.74168
 C285 C 0.80645 0.25801 0.80121
 C286 C 0.74444 0.18765 0.69281
 C287 C 0.81360 0.25567 0.69651
 C288 C 0.73760 0.18999 0.79665
 C289 C 0.09829 0.45041 0.09721
 N290 N 0.06879 0.42885 0.09915
 N291 N 0.04749 0.43420 0.08491
 C292 C 0.05497 0.46132 0.06839
 N293 N 0.08449 0.48250 0.06557
 N294 N 0.10571 0.47717 0.07974
 C295 C 0.12176 0.44659 0.11745
 N296 N 0.11523 0.42055 0.13659
 N297 N 0.13618 0.41867 0.15856
 C298 C 0.16429 0.44284 0.16232
 N299 N 0.17083 0.46864 0.14269
 N300 N 0.15002 0.47044 0.12060
 C301 C 0.54872 0.65573 0.08144
 N302 N 0.56027 0.63860 0.09518
 N303 N 0.55280 0.61243 0.07742
 C304 C 0.53374 0.60261 0.04505
 N305 N 0.52269 0.62006 0.03089
 N306 N 0.52986 0.64601 0.04892
 C307 C 0.55369 0.68250 0.10397
 N308 N 0.53319 0.69181 0.10130
 N309 N 0.53542 0.71383 0.12502
 C310 C 0.55853 0.72775 0.15179
 N311 N 0.57950 0.71896 0.15386
 N312 N 0.57702 0.69658 0.13051
 C313 C 0.34476 0.89722 0.09924
 N314 N 0.36273 0.88938 0.07867
 N315 N 0.38850 0.91027 0.06251
 C316 C 0.39741 0.93986 0.06636
 N317 N 0.37918 0.94779 0.08623
 N318 N 0.35331 0.92682 0.10246
 C319 C 0.31841 0.87402 0.12104
 N320 N 0.30023 0.88087 0.14310
 N321 N 0.27845 0.86007 0.16629
 C322 C 0.27426 0.83178 0.16832
 N323 N 0.29213 0.82492 0.14575
 N324 N 0.31368 0.84558 0.12247
 C325 C 0.90380 0.54534 0.60193
 N326 N 0.89581 0.51824 0.58509
 N327 N 0.91659 0.51239 0.57071
 C328 C 0.94624 0.53337 0.57272
 N329 N 0.95428 0.56079 0.58874
 N330 N 0.93342 0.56665 0.60318
 C331 C 0.88078 0.55001 0.62177
 N332 N 0.88791 0.57641 0.64035
 N333 N 0.86724 0.57913 0.66166
 C334 C 0.83881 0.55550 0.66523
 N335 N 0.83169 0.52934 0.64616
 N336 N 0.85222 0.52668 0.62476
 C337 C 0.45878 0.35107 0.58278
 N338 N 0.44626 0.36772 0.59470
 N339 N 0.45357 0.39360 0.57623
 C340 C 0.47338 0.40358 0.54484
 N341 N 0.48543 0.38660 0.53248
 N342 N 0.47845 0.36096 0.55129
 C343 C 0.45339 0.32438 0.60592
 N344 N 0.47437 0.31560 0.60617
 N345 N 0.47116 0.29327 0.63016
 C346 C 0.44658 0.27855 0.65427
 N347 N 0.42526 0.28690 0.65343
 N348 N 0.42870 0.30956 0.62987
 C349 C 0.65253 0.10149 0.59330
 N350 N 0.64400 0.07185 0.59571
 N351 N 0.61761 0.05101 0.58041
 C352 C 0.59880 0.05910 0.56239
 N353 N 0.60773 0.08874 0.55915
 N354 N 0.63405 0.10950 0.57433
 C355 C 0.67933 0.12447 0.61482
 N356 N 0.69729 0.11717 0.63681
 N357 N 0.71921 0.13767 0.66029
 C358 C 0.72380 0.16609 0.66268
 N359 N 0.70620 0.17341 0.64011
 N360 N 0.68448 0.15305 0.61657
 C361 C 0.44681 0.11074 0.90904
 N362 N 0.46362 0.12135 0.94337
 N363 N 0.46984 0.10358 0.96597
 C364 C 0.45996 0.07468 0.95477
 N365 N 0.44263 0.06393 0.92082
 N366 N 0.43602 0.08157 0.89850
 C367 C 0.44351 0.13134 0.88137
 N368 N 0.42063 0.12098 0.85393
 N369 N 0.41936 0.13949 0.82652
 C370 C 0.44124 0.16883 0.82513
 N371 N 0.46404 0.17915 0.85261
 N372 N 0.46503 0.16079 0.88040
 C373 C 0.65088 0.54605 0.89241
 N374 N 0.64340 0.56800 0.89400
 N375 N 0.61781 0.56284 0.91163
 C376 C 0.59891 0.53558 0.92834
 N377 N 0.60683 0.51399 0.92745
 N378 N 0.63225 0.51910 0.90982
 C379 C 0.67689 0.54981 0.86898
 N380 N 0.67973 0.52542 0.86098
 N381 N 0.70158 0.52762 0.83700
 C382 C 0.72162 0.55436 0.82028
 N383 N 0.71917 0.57898 0.82871
 N384 N 0.69707 0.57672 0.85253
 C385 C 0.87962 0.34818 0.91406
 N386 N 0.87514 0.37192 0.91781
 N387 N 0.89322 0.39527 0.94092
 C388 C 0.91663 0.39612 0.96164
 N389 N 0.92086 0.37204 0.95810
 N390 N 0.90281 0.34856 0.93471
 C391 C 0.86003 0.32341 0.88666
 N392 N 0.86521 0.30043 0.87829
 N393 N 0.84790 0.27913 0.85157
 C394 C 0.82486 0.28010 0.83240
 N395 N 0.81964 0.30292 0.84113
 N396 N 0.83687 0.32412 0.86769
 C397 C 0.53772 0.88559 0.40455
 N398 N 0.56070 0.90903 0.42440
 N399 N 0.55533 0.92681 0.44844
 C400 C 0.52691 0.92205 0.45344
 N401 N 0.50420 0.89839 0.43347
 N402 N 0.50941 0.88058 0.40975
 C403 C 0.54267 0.86619 0.37655
 N404 N 0.51850 0.84239 0.35929
 N405 N 0.52207 0.82523 0.33222
 C406 C 0.54997 0.83118 0.32119
 N407 N 0.57432 0.85489 0.33861
 N408 N 0.57072 0.87213 0.36589
 C409 C 0.35422 0.45729 0.39116
 N410 N 0.36333 0.43655 0.39023
 N411 N 0.38927 0.44236 0.40753
 C412 C 0.40692 0.46908 0.42644
 N413 N 0.39737 0.48942 0.42814
 N414 N 0.37158 0.48368 0.41076
 C415 C 0.32781 0.45300 0.36805
 N416 N 0.32376 0.47684 0.36138
 N417 N 0.30157 0.47421 0.33753
 C418 C 0.28239 0.44756 0.31970
 N419 N 0.28606 0.42349 0.32685
 N420 N 0.30850 0.42620 0.35048
 C421 C 0.11941 0.64721 0.41653
 N422 N 0.12412 0.62359 0.41974
 N423 N 0.10639 0.60012 0.44278
 C424 C 0.08312 0.59905 0.46395
 N425 N 0.07869 0.62303 0.46097
 N426 N 0.09638 0.64662 0.43765
 C427 C 0.13857 0.67208 0.38919
 N428 N 0.13291 0.69476 0.38094
 N429 N 0.14986 0.71617 0.35425
 C430 C 0.17300 0.71557 0.33500
 N431 N 0.17870 0.69304 0.34360
 N432 N 0.16181 0.67173 0.37011
 C433 C 0.88122 0.53429 0.91356
 N434 N 0.87627 0.50596 0.91787
 N435 N 0.89396 0.50040 0.94150
 C436 C 0.91742 0.52275 0.96225
 N437 N 0.92208 0.55117 0.95818
 N438 N 0.90444 0.55690 0.93423
 C439 C 0.86215 0.53976 0.88545
 N440 N 0.86841 0.56799 0.87542
 N441 N 0.85166 0.57216 0.84782
 C442 C 0.82812 0.54822 0.82944
 N443 N 0.82182 0.52012 0.83986
 N444 N 0.83851 0.51598 0.86726
 C445 C 0.45602 0.35259 0.88817
 N446 N 0.43304 0.35761 0.89733
 N447 N 0.43862 0.38346 0.91460
 C448 C 0.46738 0.40537 0.92287
 N449 N 0.49004 0.39977 0.91432
 N450 N 0.48452 0.37403 0.89741
 C451 C 0.45127 0.32582 0.86577
 N452 N 0.47546 0.32290 0.85663
 N453 N 0.47259 0.30059 0.83310
 C454 C 0.44538 0.28021 0.81776
 N455 N 0.42091 0.28270 0.82736
 N456 N 0.42382 0.30519 0.85096
 C457 C 0.64038 0.11185 0.89667
 N458 N 0.61494 0.11358 0.89388
 N459 N 0.59092 0.09570 0.91596
 C460 C 0.59114 0.07534 0.94221
 N461 N 0.61671 0.07347 0.94466
 N462 N 0.64085 0.09132 0.92231
 C463 C 0.66658 0.13233 0.87212
 N464 N 0.69122 0.12904 0.86876
 N465 N 0.71425 0.14757 0.84514
 C466 C 0.71342 0.17009 0.82440
 N467 N 0.68890 0.17340 0.82815
 N468 N 0.66594 0.15488 0.85147
 C469 C 0.11942 0.46232 0.41115
 N470 N 0.12409 0.49049 0.41613
 N471 N 0.10635 0.49562 0.44015
 C472 C 0.08311 0.47295 0.46065
 N473 N 0.07866 0.44466 0.45583
 N474 N 0.09638 0.43938 0.43150
 C475 C 0.13877 0.45747 0.38290
 N476 N 0.13323 0.42949 0.37263
 N477 N 0.15042 0.42596 0.34520
 C478 C 0.17370 0.45029 0.32721
 N479 N 0.17925 0.47812 0.33784
 N480 N 0.16214 0.48162 0.36507
 C481 C 0.54846 0.65425 0.38885
 N482 N 0.52237 0.63663 0.40887
 N483 N 0.51750 0.61136 0.42676
 C484 C 0.53847 0.60259 0.42520
 N485 N 0.56492 0.62052 0.40590
 N486 N 0.56984 0.64595 0.38808
 C487 C 0.55176 0.68000 0.36518
 N488 N 0.52735 0.68317 0.35857
 N489 N 0.52908 0.70470 0.33427
 C490 C 0.55537 0.72409 0.31589
 N491 N 0.58001 0.72131 0.32296
 N492 N 0.57821 0.69953 0.34705
 C493 C 0.35117 0.88259 0.41074
 N494 N 0.35164 0.90581 0.43120
 N495 N 0.37549 0.92424 0.45383
 C496 C 0.39983 0.92033 0.45679
 N497 N 0.39891 0.89691 0.43622
 N498 N 0.37520 0.87847 0.41387
 C499 C 0.32592 0.86242 0.38437
 N500 N 0.32657 0.83912 0.36592
 N501 N 0.30482 0.82121 0.34042
 C502 C 0.28153 0.82587 0.33224
 N503 N 0.28064 0.84907 0.35085
 N504 N 0.30249 0.86706 0.37653
 C505 C 0.54437 0.90082 0.08773
 N506 N 0.56520 0.93057 0.08895
 N507 N 0.55886 0.95094 0.07382
 C508 C 0.53144 0.94223 0.05706
 N509 N 0.51101 0.91245 0.05493
 N510 N 0.51734 0.89218 0.07000
 C511 C 0.54921 0.87836 0.10902
 N512 N 0.52590 0.84990 0.11308
 N513 N 0.52861 0.83001 0.13598
 C514 C 0.55480 0.83768 0.15555
 N515 N 0.57842 0.86600 0.15092
 N516 N 0.57564 0.88604 0.12814
 C517 C 0.34596 0.45150 0.08123
 N518 N 0.36373 0.44042 0.09406
 N519 N 0.38955 0.44802 0.07520
 C520 C 0.39837 0.46671 0.04256
 N521 N 0.38027 0.47726 0.02926
 N522 N 0.35466 0.46996 0.04841
 C523 C 0.31971 0.44656 0.10509
 N524 N 0.31007 0.46681 0.10313
 N525 N 0.28860 0.46464 0.12794
 C526 C 0.27558 0.44184 0.15518
 N527 N 0.28469 0.42113 0.15658
 N528 N 0.30653 0.42356 0.13212
 C529 C 0.09728 0.64698 0.10328
 N530 N 0.10503 0.62833 0.08438
 N531 N 0.08405 0.60214 0.06923
 C532 C 0.05444 0.59349 0.07243
 N533 N 0.04661 0.61245 0.09042
 N534 N 0.06768 0.63873 0.10567
 C535 C 0.12058 0.67381 0.12438
 N536 N 0.11374 0.69238 0.14552
 N537 N 0.13463 0.71464 0.16818
 C538 C 0.16300 0.71896 0.17058
 N539 N 0.16984 0.70068 0.14894
 N540 N 0.14909 0.67863 0.12621
 C541 C 0.45371 0.10111 0.59228
 N542 N 0.43231 0.07155 0.59313
 N543 N 0.43812 0.05074 0.57837
 C544 C 0.46555 0.05879 0.56237
 N545 N 0.48656 0.08840 0.56061
 N546 N 0.48079 0.10912 0.57535
 C547 C 0.44932 0.12397 0.61309
 N548 N 0.47320 0.15196 0.61846
 N549 N 0.47073 0.17213 0.64096
 C550 C 0.44422 0.16524 0.65876
 N551 N 0.42004 0.13742 0.65279
 N552 N 0.42258 0.11708 0.63043
 C553 C 0.66074 0.55473 0.58106
 N554 N 0.64357 0.56641 0.59405
 N555 N 0.61766 0.55919 0.57551
 C556 C 0.60815 0.54025 0.54308
 N557 N 0.62571 0.52919 0.52954
 N558 N 0.65141 0.53613 0.54834
 C559 C 0.68677 0.55886 0.60492
 N560 N 0.69555 0.53795 0.60279
 N561 N 0.71658 0.53919 0.62784
 C562 C 0.73001 0.56169 0.65550
 N563 N 0.72179 0.58307 0.65705
 N564 N 0.70038 0.58157 0.63235
 C565 C 0.90289 0.34752 0.60057
 N566 N 0.89550 0.36615 0.58079
 N567 N 0.91675 0.39228 0.56600
 C568 C 0.94628 0.40086 0.57043
 N569 N 0.95378 0.38190 0.58926
 N570 N 0.93243 0.35568 0.60416
 C571 C 0.87926 0.32098 0.62159
 N572 N 0.85089 0.31656 0.62249
 N573 N 0.82983 0.29494 0.64526
 C574 C 0.83622 0.27671 0.66788
 N575 N 0.86445 0.28060 0.66641
 N576 N 0.88566 0.30245 0.64373
   
