data_POSCAR
  _audit_creation_date              2014-09-24
  _audit_creation_method            'ToBaCCo'
  _symmetry_space_group_name_H-M    'P1'
  _symmetry_Int_Tables_number       1
  _symmetry_cell_setting            triclinic
  loop_
  _symmetry_equiv_pos_as_xyz
 x,y,z
_cell_length_a 17.8319
_cell_length_b 17.5379
_cell_length_c 17.0885
_cell_angle_alpha 89.653600
_cell_angle_beta 90.740800
_cell_angle_gamma 91.092000
loop_
  _atom_site_label
  _atom_site_type_symbol
  _atom_site_fract_x
  _atom_site_fract_y
  _atom_site_fract_z
O1 O 0.56930 0.14912 0.06789
 O2 O 0.41543 -0.07807 -0.15514
 O3 O 0.59097 0.03244 -0.14949
 O4 O 0.40319 0.13480 -0.05310
 O5 O 0.55354 -0.08417 -0.15921
 O6 O 0.42689 0.14761 0.06781
 O7 O 0.41196 0.03998 -0.14382
 O8 O 0.62435 0.12712 -0.04326
 C9 C 0.61729 0.16633 0.01670
 C10 C 0.39950 -0.01511 -0.18552
 C11 C 0.58648 -0.02674 -0.18837
 C12 C 0.40320 0.17557 0.00472
 O13 O 0.42999 0.01052 0.13732
 O14 O 0.55356 -0.14507 -0.01193
 O15 O 0.65613 0.01494 0.05308
 O16 O 0.33901 -0.06279 -0.04476
 O17 O 0.42525 -0.13177 -0.00288
 O18 O 0.57161 0.02414 0.14478
 O19 O 0.34169 0.03730 0.05464
 O20 O 0.64366 -0.07706 -0.05471
 Co21 Co 0.49798 0.07536 0.09257
 Co22 Co 0.48734 -0.09916 -0.07735
 Co23 Co 0.61571 0.02244 -0.04646
 Co24 Co 0.38399 0.03413 -0.04421
 O25 O 0.49752 0.00842 -0.01630
 C26 C 0.36204 0.01503 0.12191
 C27 C 0.62105 -0.13732 -0.02364
 C28 C 0.63740 0.01216 0.12431
 C29 C 0.35787 -0.12273 -0.00978
 O30 O -0.14664 0.45056 0.01384
 O31 O 0.05236 0.56577 0.15258
 O32 O 0.03274 0.33775 0.05788
 O33 O -0.06452 0.69112 -0.02720
 O34 O 0.04328 0.42085 0.15310
 O35 O -0.13619 0.58948 -0.00590
 O36 O -0.04207 0.61736 0.09426
 O37 O -0.08059 0.35293 -0.01685
 C38 C -0.13810 0.38043 0.01527
 C39 C 0.00000 0.61112 0.15360
 C40 C 0.02700 0.35474 0.12930
 C41 C -0.13230 0.66057 -0.02299
 O42 O -0.07723 0.56363 -0.14707
 O43 O 0.15119 0.42162 0.05590
 O44 O 0.00932 0.41547 -0.13743
 O45 O 0.07682 0.65583 0.02063
 O46 O 0.15489 0.56473 0.04447
 O47 O -0.10562 0.42463 -0.13156
 O48 O 0.02572 0.61443 -0.10926
 O49 O 0.11830 0.39111 -0.06045
 Co50 Co -0.10467 0.50635 -0.06215
 Co51 Co 0.09109 0.49387 0.09185
 Co52 Co 0.01805 0.38338 -0.03774
 Co53 Co -0.00949 0.60791 -0.00906
 O54 O 0.00571 0.49460 -0.00176
 C55 C -0.01957 0.60155 -0.16360
 C56 C 0.16640 0.39121 -0.00701
 C57 C -0.05138 0.39917 -0.16744
 C58 C 0.14286 0.63414 0.03041
 O59 O -0.08458 -0.15535 0.42877
 O60 O 0.14892 0.06539 0.54987
 O61 O 0.12329 -0.04659 0.40279
 O62 O 0.03181 -0.13047 0.62096
 O63 O 0.12970 0.07241 0.40635
 O64 O -0.07717 -0.15689 0.56954
 O65 O 0.11019 -0.01224 0.64281
 O66 O 0.03166 -0.14263 0.41884
 C67 C -0.02404 -0.18426 0.41104
 C68 C 0.16124 0.02484 0.60931
 C69 C 0.15762 0.01185 0.38422
 C70 C -0.01797 -0.17856 0.60480
 O71 O -0.14441 -0.01174 0.56294
 O72 O -0.00121 0.13595 0.42429
 O73 O -0.07283 -0.05339 0.34214
 O74 O -0.01294 0.06670 0.66035
 O75 O 0.02783 0.14712 0.57139
 O76 O -0.13857 -0.00968 0.43165
 O77 O -0.08859 -0.05537 0.65963
 O78 O 0.01603 0.04832 0.33727
 Co79 Co -0.10160 -0.07809 0.49921
 Co80 Co 0.06832 0.09326 0.48966
 Co81 Co 0.02269 -0.04609 0.38584
 Co82 Co 0.00921 -0.03103 0.63149
 O83 O 0.00115 -0.01410 0.50298
 C84 C -0.14687 -0.02819 0.63167
 C85 C -0.00499 0.11464 0.35478
 C86 C -0.13148 -0.02117 0.36180
 C87 C -0.00257 0.13414 0.63634
 C88 C -0.18972 0.25054 0.03232
 C89 C -0.24991 0.19974 0.02824
 C90 C -0.32389 0.22473 0.03208
 C91 C -0.33704 0.30162 0.05017
 C92 C -0.27515 0.35395 0.05699
 C93 C -0.20102 0.32883 0.04029
 C94 C -0.29064 0.42902 0.08001
 N95 N -0.36254 0.45047 0.09029
 N96 N -0.42025 0.40219 0.07976
 C97 C -0.40997 0.32847 0.05999
 H98 H -0.13413 0.22854 0.02330
 H99 H -0.23836 0.14021 0.01856
 H100 H -0.24697 0.47039 0.09328
 H101 H -0.45880 0.29157 0.05265
 C102 C 0.18482 0.76287 -0.01238
 C103 C 0.23464 0.82432 -0.01828
 C104 C 0.30842 0.82027 0.01058
 C105 C 0.32883 0.75271 0.05423
 C106 C 0.27707 0.68926 0.05977
 C107 C 0.20418 0.69409 0.02496
 C108 C 0.29996 0.62418 0.10212
 N109 N 0.36794 0.62274 0.13788
 N110 N 0.41499 0.68214 0.13537
 C111 C 0.39789 0.74667 0.09588
 H112 H 0.12991 0.76959 -0.03905
 H113 H 0.21559 0.87419 -0.05006
 H114 H 0.26550 0.57410 0.10880
 H115 H 0.43827 0.79259 0.10116
 C116 C 0.26009 0.31477 0.06313
 C117 C 0.32032 0.26611 0.06797
 C118 C 0.35916 0.24642 0.00096
 C119 C 0.34178 0.28412 -0.07109
 C120 C 0.27926 0.33336 -0.07625
 C121 C 0.23619 0.34630 -0.00882
 C122 C 0.26328 0.36874 -0.14842
 N123 N 0.30709 0.35579 -0.21103
 N124 N 0.36607 0.31050 -0.20616
 C125 C 0.38514 0.27465 -0.13846
 H126 H 0.22925 0.32434 0.11631
 H127 H 0.33245 0.23894 0.12371
 H128 H 0.21753 0.40772 -0.15559
 H129 H 0.43525 0.24093 -0.13757
 C130 C -0.25152 0.70604 -0.07897
 C131 C -0.31439 0.75214 -0.07763
 C132 C -0.32742 0.79898 -0.01332
 C133 C -0.27962 0.79509 0.05255
 C134 C -0.21210 0.75465 0.04834
 C135 C -0.19856 0.70883 -0.01778
 C136 C -0.16085 0.76186 0.11093
 N137 N -0.18015 0.79961 0.17649
 N138 N -0.24695 0.83133 0.18298
 C139 C -0.29729 0.83056 0.12288
 H140 H -0.24241 0.67062 -0.12958
 H141 H -0.35180 0.75308 -0.12802
 H142 H -0.10582 0.73825 0.10844
 H143 H -0.35125 0.85630 0.13062
 C144 C -0.08367 -0.28047 0.32192
 C145 C -0.07704 -0.32640 0.25573
 C146 C -0.00634 -0.34248 0.22580
 C147 C 0.05912 -0.31924 0.26978
 C148 C 0.05111 -0.28222 0.34234
 C149 C -0.01964 -0.25447 0.36334
 C150 C 0.11519 -0.27065 0.39025
 N151 N 0.18396 -0.28676 0.36300
 N152 N 0.19274 -0.31348 0.29115
 C153 C 0.13317 -0.32920 0.24347
 H154 H -0.13887 -0.26180 0.33810
 H155 H -0.12738 -0.34694 0.22597
 H156 H 0.11107 -0.24916 0.44918
 H157 H 0.14530 -0.34765 0.18538
 C158 C 0.01579 0.27027 0.67407
 C159 C 0.00210 0.33522 0.71808
 C160 C -0.05570 0.33679 0.77285
 C161 C -0.10311 0.27088 0.78013
 C162 C -0.08629 0.20259 0.73857
 C163 C -0.02562 0.20195 0.68444
 C164 C -0.13135 0.13760 0.75334
 N165 N -0.19016 0.14083 0.80245
 N166 N -0.20731 0.20485 0.83865
 C167 C -0.16596 0.26967 0.82936
 H168 H 0.06221 0.27273 0.63380
 H169 H 0.03948 0.38425 0.71148
 H170 H -0.12133 0.08404 0.72683
 H171 H -0.18436 0.31936 0.85955
 C172 C 0.02141 0.16066 0.22171
 C173 C 0.03322 0.22037 0.16958
 C174 C 0.00633 0.29323 0.18484
 C175 C -0.04061 0.30365 0.25022
 C176 C -0.05225 0.24249 0.30398
 C177 C -0.01650 0.17193 0.29192
 C178 C -0.10072 0.25368 0.36701
 N179 N -0.13440 0.32170 0.37578
 N180 N -0.12345 0.37901 0.32552
 C181 C -0.07814 0.37227 0.26293
 H182 H 0.04728 0.10674 0.20938
 H183 H 0.06694 0.21016 0.11850
 H184 H -0.11430 0.20842 0.40791
 H185 H -0.07366 0.42005 0.22301
 C186 C -0.07791 -0.29615 0.66068
 C187 C -0.07749 -0.35208 0.71934
 C188 C -0.01206 -0.36536 0.76479
 C189 C 0.05715 -0.33511 0.73671
 C190 C 0.05694 -0.28200 0.67354
 C191 C -0.01210 -0.25569 0.64185
 C192 C 0.12620 -0.25727 0.64344
 N193 N 0.19106 -0.28266 0.67545
 N194 N 0.19154 -0.33181 0.73500
 C195 C 0.12706 -0.35929 0.76636
 H196 H -0.13126 -0.27974 0.63536
 H197 H -0.13121 -0.37690 0.73576
 H198 H 0.12926 -0.22029 0.59281
 H199 H 0.13151 -0.40236 0.81153
 C200 C 0.27039 0.07900 0.68020
 C201 C 0.33100 0.06852 0.73081
 C202 C 0.35941 -0.00525 0.74680
 C203 C 0.33659 -0.06516 0.69545
 C204 C 0.27481 -0.05376 0.64332
 C205 C 0.23810 0.01718 0.64101
 C206 C 0.25257 -0.11329 0.59332
 N207 N 0.29191 -0.17864 0.59260
 N208 N 0.35064 -0.18908 0.64010
 C209 C 0.37401 -0.13501 0.69183
 H210 H 0.24476 0.13450 0.67684
 H211 H 0.35001 0.11809 0.76368
 H212 H 0.20558 -0.10742 0.55330
 H213 H 0.42378 -0.14597 0.72634
 C214 C -0.17469 0.00783 0.22749
 C215 C -0.22980 0.01308 0.16947
 C216 C -0.30546 -0.00191 0.18635
 C217 C -0.32534 -0.02287 0.26407
 C218 C -0.27093 -0.01701 0.32506
 C219 C -0.19368 -0.00683 0.30552
 C220 C -0.29676 -0.02371 0.40271
 N221 N -0.36850 -0.04587 0.41687
 N222 N -0.41669 -0.06142 0.35898
 C223 C -0.39747 -0.05146 0.28323
 H224 H -0.11651 0.01630 0.21140
 H225 H -0.21283 0.02825 0.11070
 H226 H -0.26272 -0.00971 0.45291
 H227 H -0.43834 -0.06845 0.23932
 C228 C 0.21205 0.06799 0.26373
 C229 C 0.25667 0.06554 0.19736
 C230 C 0.30786 0.00695 0.18706
 C231 C 0.31289 -0.05116 0.24512
 C232 C 0.26636 -0.04946 0.31223
 C233 C 0.21502 0.01073 0.32148
 C234 C 0.27442 -0.10744 0.36878
 N235 N 0.32419 -0.16378 0.35804
 N236 N 0.36663 -0.16610 0.29466
 C237 C 0.36269 -0.11184 0.23804
 H238 H 0.17359 0.11461 0.26911
 H239 H 0.25288 0.11145 0.15484
 H240 H 0.24263 -0.10820 0.42192
 H241 H 0.39829 -0.11688 0.18797
 C242 C -0.23920 -0.08995 0.71866
 C243 C -0.30848 -0.09405 0.75505
 C244 C -0.35952 -0.03454 0.74779
 C245 C -0.34295 0.02717 0.69696
 C246 C -0.27255 0.03167 0.65937
 C247 C -0.21945 -0.02697 0.67224
 C248 C -0.25687 0.09679 0.61312
 N249 N -0.30915 0.15136 0.60360
 N250 N -0.37586 0.14582 0.63745
 C251 C -0.39445 0.08576 0.68400
 H252 H -0.20045 -0.13621 0.72733
 H253 H -0.31953 -0.14126 0.79435
 H254 H -0.20321 0.10630 0.58590
 H255 H -0.44953 0.08378 0.70992
   
