data_POSCAR
  _audit_creation_date              2014-09-24
  _audit_creation_method            'ToBaCCo'
  _symmetry_space_group_name_H-M    'P1'
  _symmetry_Int_Tables_number       1
  _symmetry_cell_setting            triclinic
  loop_
  _symmetry_equiv_pos_as_xyz
 x,y,z
_cell_length_a 30.9810
_cell_length_b 30.1537
_cell_length_c 31.0784
_cell_angle_alpha 92.240700
_cell_angle_beta 90.574500
_cell_angle_gamma 90.833100
loop_
  _atom_site_label
  _atom_site_type_symbol
  _atom_site_fract_x
  _atom_site_fract_y
  _atom_site_fract_z
C1 C 0.25784 0.27791 0.22481
 C2 C 0.28950 0.27676 0.19291
 C3 C 0.32182 0.24472 0.19305
 C4 C 0.32204 0.21306 0.22496
 C5 C 0.29017 0.21336 0.25675
 C6 C 0.25803 0.24606 0.25687
 C7 C 0.22593 0.31032 0.22505
 C8 C 0.19415 0.31144 0.25692
 C9 C 0.19408 0.27943 0.28856
 C10 C 0.22599 0.24679 0.28889
 C11 C 0.22636 0.21475 0.32048
 C12 C 0.25793 0.18178 0.32007
 C13 C 0.28984 0.18140 0.28830
 H14 H 0.28925 0.30097 0.16801
 H15 H 0.34664 0.18791 0.22484
 H16 H 0.22566 0.33437 0.20008
 H17 H 0.16919 0.28001 0.31283
 H18 H 0.20194 0.21515 0.34524
 H19 H 0.31461 0.15645 0.28818
 C20 C 0.75959 -0.28786 0.20438
 C21 C 0.72859 -0.28702 0.17115
 C22 C 0.69555 -0.25549 0.17255
 C23 C 0.69399 -0.22440 0.20734
 C24 C 0.72497 -0.22450 0.24049
 C25 C 0.75761 -0.25666 0.23934
 C26 C 0.79234 -0.31959 0.20341
 C27 C 0.82287 -0.32077 0.23714
 C28 C 0.82025 -0.28999 0.27213
 C29 C 0.78816 -0.25770 0.27327
 C30 C 0.78618 -0.22634 0.30773
 C31 C 0.75425 -0.19378 0.30849
 C32 C 0.72379 -0.19302 0.27485
 H33 H 0.72992 -0.31142 0.14472
 H34 H 0.66847 -0.20014 0.20865
 H35 H 0.79355 -0.34363 0.17664
 H36 H 0.84344 -0.29108 0.29844
 H37 H 0.80991 -0.22688 0.33351
 H38 H 0.69916 -0.16781 0.27553
 C39 C 0.74086 0.28910 0.78541
 C40 C 0.71120 0.28875 0.81922
 C41 C 0.67773 0.25675 0.81931
 C42 C 0.67429 0.22475 0.78527
 C43 C 0.70408 0.22424 0.75160
 C44 C 0.73720 0.25688 0.75137
 C45 C 0.77412 0.32116 0.78508
 C46 C 0.80327 0.32202 0.75073
 C47 C 0.79949 0.28976 0.71697
 C48 C 0.76677 0.25716 0.71715
 C49 C 0.76346 0.22451 0.68389
 C50 C 0.73144 0.19121 0.68469
 C51 C 0.70151 0.19147 0.71830
 H52 H 0.71397 0.31386 0.84501
 H53 H 0.64845 0.20007 0.78515
 H54 H 0.77726 0.34561 0.81151
 H55 H 0.82233 0.28943 0.69080
 H56 H 0.78629 0.22440 0.65767
 H57 H 0.67639 0.16615 0.71871
 C58 C 0.25060 -0.27787 0.78535
 C59 C 0.28462 -0.27648 0.81547
 C60 C 0.31837 -0.24526 0.81261
 C61 C 0.31803 -0.21506 0.77936
 C62 C 0.28387 -0.21558 0.74933
 C63 C 0.24989 -0.24697 0.75242
 C64 C 0.21737 -0.30973 0.78759
 C65 C 0.18321 -0.31101 0.75743
 C66 C 0.18195 -0.27925 0.72552
 C67 C 0.21520 -0.24744 0.72261
 C68 C 0.21448 -0.21626 0.69026
 C69 C 0.24825 -0.18505 0.68706
 C70 C 0.28300 -0.18514 0.71637
 H71 H 0.28504 -0.29978 0.84117
 H72 H 0.34392 -0.19078 0.77716
 H73 H 0.21830 -0.33336 0.81291
 H74 H 0.15533 -0.27974 0.70256
 H75 H 0.18790 -0.21668 0.66735
 H76 H 0.30915 -0.16115 0.71366
 C77 C 0.74749 -0.27652 0.77609
 C78 C 0.71566 -0.27534 0.80782
 C79 C 0.68240 -0.24433 0.80655
 C80 C 0.68119 -0.21395 0.77348
 C81 C 0.71298 -0.21449 0.74166
 C82 C 0.74622 -0.24596 0.74288
 C83 C 0.78060 -0.30768 0.77705
 C84 C 0.81298 -0.30819 0.74570
 C85 C 0.81145 -0.27782 0.71257
 C86 C 0.77827 -0.24680 0.71095
 C87 C 0.77674 -0.21647 0.67796
 C88 C 0.74380 -0.18510 0.67667
 C89 C 0.71221 -0.18401 0.70870
 H90 H 0.71659 -0.29857 0.83356
 H91 H 0.65581 -0.18969 0.77262
 H92 H 0.78130 -0.33147 0.80233
 H93 H 0.83572 -0.27848 0.68773
 H94 H 0.80159 -0.21693 0.65370
 H95 H 0.68705 -0.15944 0.70784
 C96 C 0.24055 0.28400 0.79574
 C97 C 0.27269 0.28343 0.82780
 C98 C 0.30467 0.25092 0.82624
 C99 C 0.30454 0.21885 0.79230
 C100 C 0.27238 0.21870 0.76022
 C101 C 0.24027 0.25144 0.76185
 C102 C 0.20891 0.31682 0.79680
 C103 C 0.17686 0.31724 0.76459
 C104 C 0.17626 0.28439 0.73134
 C105 C 0.20802 0.25175 0.72946
 C106 C 0.20831 0.21968 0.69555
 C107 C 0.24034 0.18725 0.69373
 C108 C 0.27196 0.18660 0.72634
 H109 H 0.27313 0.30869 0.85355
 H110 H 0.32957 0.19410 0.79091
 H111 H 0.20920 0.34184 0.82276
 H112 H 0.15132 0.28471 0.70663
 H113 H 0.18358 0.21997 0.67070
 H114 H 0.29648 0.16131 0.72498
 C115 C 0.25861 -0.28660 0.20844
 C116 C 0.28915 -0.28575 0.17546
 C117 C 0.32264 -0.25373 0.17663
 C118 C 0.32530 -0.22229 0.21121
 C119 C 0.29470 -0.22237 0.24417
 C120 C 0.26151 -0.25498 0.24307
 C121 C 0.22527 -0.31866 0.20740
 C122 C 0.19497 -0.31973 0.24074
 C123 C 0.19857 -0.28867 0.27554
 C124 C 0.23128 -0.25603 0.27667
 C125 C 0.23398 -0.22413 0.31065
 C126 C 0.26599 -0.19073 0.31111
 C127 C 0.29659 -0.19027 0.27811
 H128 H 0.28704 -0.31050 0.14929
 H129 H 0.35120 -0.19766 0.21237
 H130 H 0.22333 -0.34295 0.18082
 H131 H 0.17556 -0.28966 0.30157
 H132 H 0.21064 -0.22462 0.33640
 H133 H 0.32174 -0.16494 0.27870
 C134 C 0.75331 0.28048 0.21835
 C135 C 0.72146 0.28192 0.18609
 C136 C 0.68646 0.25182 0.18530
 C137 C 0.68291 0.22063 0.21745
 C138 C 0.71471 0.21849 0.24969
 C139 C 0.75028 0.24831 0.24998
 C140 C 0.78812 0.31072 0.21952
 C141 C 0.82052 0.30868 0.25132
 C142 C 0.81776 0.27606 0.28232
 C143 C 0.78275 0.24601 0.28194
 C144 C 0.77954 0.21381 0.31313
 C145 C 0.74394 0.18453 0.31330
 C146 C 0.71164 0.18693 0.28153
 H147 H 0.72393 0.30654 0.16178
 H148 H 0.65556 0.19776 0.21698
 H149 H 0.79008 0.33593 0.19563
 H150 H 0.84231 0.27439 0.30723
 H151 H 0.80457 0.21162 0.33757
 H152 H 0.68443 0.16397 0.28122
 O153 O 0.29034 0.04198 0.46463
 O154 O 0.28803 -0.04209 0.54738
 O155 O 0.29396 -0.04449 0.46355
 O156 O 0.28522 0.04389 0.54793
 O157 O 0.21403 0.03871 0.54364
 O158 O 0.22284 -0.04720 0.45692
 O159 O 0.21703 -0.04750 0.54052
 O160 O 0.21911 0.03868 0.45977
 Cu161 Cu 0.29658 0.00015 0.50636
 Cu162 Cu 0.21107 -0.00473 0.49968
 C163 C 0.25512 0.05470 0.44832
 C164 C 0.25211 -0.05899 0.55799
 C165 C 0.25987 -0.06048 0.44565
 C166 C 0.24817 0.05595 0.56036
 O167 O 0.77213 0.04561 0.54035
 O168 O 0.78007 -0.04113 0.45438
 O169 O 0.77632 0.04515 0.45686
 O170 O 0.77662 -0.04002 0.53808
 O171 O 0.70534 -0.04423 0.53484
 O172 O 0.70526 0.03910 0.45129
 O173 O 0.70887 -0.04709 0.45146
 O174 O 0.70092 0.04216 0.53516
 Cu175 Cu 0.78348 0.00289 0.49775
 Cu176 Cu 0.69787 -0.00291 0.49278
 C177 C 0.73522 0.05867 0.55221
 C178 C 0.74581 -0.05908 0.43864
 C179 C 0.74082 0.05640 0.44014
 C180 C 0.74110 -0.05637 0.55042
 O181 O 0.45749 0.28544 0.04830
 O182 O 0.53833 0.28982 -0.03750
 O183 O 0.45434 0.28794 -0.03543
 O184 O 0.54091 0.28859 0.04623
 O185 O 0.54195 0.21524 0.04191
 O186 O 0.45503 0.21460 -0.03984
 O187 O 0.53949 0.21648 -0.04155
 O188 O 0.45804 0.21209 0.04353
 Cu189 Cu 0.49765 0.29535 0.00572
 Cu190 Cu 0.49872 0.20719 0.00045
 C191 C 0.44419 0.24801 0.06051
 C192 C 0.55282 0.25385 -0.05382
 C193 C 0.43986 0.25123 -0.05131
 C194 C 0.55596 0.25207 0.05804
 O195 O 0.54956 0.78554 0.03966
 O196 O 0.46316 0.78968 -0.04230
 O197 O 0.46497 0.78629 0.04108
 O198 O 0.54698 0.78968 -0.04356
 O199 O 0.54545 0.71635 -0.04955
 O200 O 0.46369 0.71297 0.03537
 O201 O 0.46205 0.71636 -0.04833
 O202 O 0.54782 0.71222 0.03406
 Cu203 Cu 0.50631 0.79520 -0.00051
 Cu204 Cu 0.50461 0.70707 -0.00754
 C205 C 0.56348 0.74817 0.05054
 C206 C 0.44824 0.75368 -0.05943
 C207 C 0.45023 0.74908 0.05236
 C208 C 0.55987 0.75361 -0.06107
 O209 O 0.04865 0.45647 0.28648
 O210 O -0.03465 0.54202 0.28033
 O211 O -0.03570 0.45602 0.28530
 O212 O 0.04915 0.54240 0.28134
 O213 O 0.04939 0.53488 0.21029
 O214 O -0.03510 0.44821 0.21428
 O215 O -0.03517 0.53413 0.20931
 O216 O 0.04850 0.44920 0.21541
 Cu217 Cu 0.00683 0.49992 0.29054
 Cu218 Cu 0.00688 0.49098 0.20514
 C219 C 0.06279 0.43847 0.25191
 C220 C -0.04910 0.55246 0.24380
 C221 C -0.04972 0.43748 0.25045
 C222 C 0.06373 0.55315 0.24514
 O223 O 0.03545 0.55021 0.79361
 O224 O -0.05145 0.46555 0.79174
 O225 O 0.03269 0.46372 0.79578
 O226 O -0.04820 0.55147 0.78959
 O227 O -0.04638 0.54562 0.71848
 O228 O 0.03638 0.45997 0.72473
 O229 O -0.04765 0.45961 0.72075
 O230 O 0.03774 0.54573 0.72249
 Cu231 Cu -0.00808 0.50815 0.79989
 Cu232 Cu -0.00473 0.50223 0.71443
 C233 C 0.05118 0.56242 0.75836
 C234 C -0.06432 0.44834 0.75588
 C235 C 0.04848 0.44727 0.76129
 C236 C -0.06122 0.56312 0.75295
 C237 C 0.42208 0.25978 0.14293
 C238 C 0.37977 0.28640 0.14477
 C239 C 0.35541 0.24446 0.15850
 C240 C 0.39744 0.21780 0.15707
 C241 C 0.34537 0.23104 0.11115
 C242 C 0.37003 0.27294 0.09705
 C243 C 0.41193 0.24631 0.09568
 C244 C 0.38772 0.20436 0.10933
 H245 H 0.45401 0.27165 0.15559
 H246 H 0.37634 0.32020 0.15970
 H247 H 0.40930 0.19510 0.18168
 H248 H 0.31349 0.21914 0.09838
 H249 H 0.35906 0.29561 0.07198
 H250 H 0.39119 0.17058 0.09437
 C251 C 0.64593 0.76126 0.07456
 C252 C 0.64698 0.78682 0.11875
 C253 C 0.66275 0.74458 0.13999
 C254 C 0.66218 0.71900 0.09606
 C255 C 0.61589 0.72991 0.14833
 C256 C 0.59973 0.77210 0.12677
 C257 C 0.59918 0.74656 0.08300
 C258 C 0.61491 0.70434 0.10408
 H259 H 0.65786 0.77421 0.04384
 H260 H 0.66046 0.82082 0.12483
 H261 H 0.68763 0.69717 0.08257
 H262 H 0.60375 0.71692 0.17895
 H263 H 0.57368 0.79391 0.13910
 H264 H 0.60136 0.67039 0.09788
 C265 C 0.63341 0.24135 -0.08079
 C266 C 0.63148 0.21495 -0.12452
 C267 C 0.64665 0.25690 -0.14712
 C268 C 0.64903 0.28332 -0.10366
 C269 C 0.59959 0.27090 -0.15398
 C270 C 0.58404 0.22899 -0.13104
 C271 C 0.58646 0.25539 -0.08774
 C272 C 0.60159 0.29731 -0.11019
 H273 H 0.64693 0.22916 -0.05029
 H274 H 0.64406 0.18100 -0.13048
 H275 H 0.67556 0.30567 -0.09144
 H276 H 0.58589 0.28313 -0.18438
 H277 H 0.55695 0.20668 -0.14196
 H278 H 0.58894 0.33121 -0.10409
 C279 C 0.42123 0.74108 -0.14089
 C280 C 0.37832 0.71416 -0.14090
 C281 C 0.35404 0.75573 -0.15422
 C282 C 0.39664 0.78271 -0.15461
 C283 C 0.34700 0.76967 -0.10667
 C284 C 0.37159 0.72811 -0.09300
 C285 C 0.41407 0.75504 -0.09345
 C286 C 0.38995 0.79665 -0.10668
 H287 H 0.45218 0.72930 -0.15458
 H288 H 0.37336 0.68018 -0.15531
 H289 H 0.40755 0.80521 -0.17987
 H290 H 0.31612 0.78148 -0.09286
 H291 H 0.36160 0.70569 -0.06730
 H292 H 0.39494 0.83061 -0.09224
 C293 C 0.11503 0.37915 0.21431
 C294 C 0.16143 0.38893 0.23120
 C295 C 0.15951 0.34586 0.25630
 C296 C 0.11338 0.33586 0.23949
 C297 C 0.14177 0.37137 0.29606
 C298 C 0.14330 0.41471 0.27090
 C299 C 0.09730 0.40461 0.25399
 C300 C 0.09519 0.36176 0.27916
 H301 H 0.10379 0.38246 0.18058
 H302 H 0.18853 0.40103 0.21152
 H303 H 0.10135 0.30310 0.22652
 H304 H 0.15311 0.36800 0.32975
 H305 H 0.15523 0.44753 0.28381
 H306 H 0.06754 0.35095 0.29884
 C307 C 0.08658 0.63825 0.73197
 C308 C 0.10317 0.66605 0.77188
 C309 C 0.14987 0.65593 0.75879
 C310 C 0.13370 0.62848 0.71883
 C311 C 0.14968 0.61408 0.78579
 C312 C 0.10257 0.62388 0.79888
 C313 C 0.08647 0.59659 0.75894
 C314 C 0.13306 0.58641 0.74581
 H315 H 0.06025 0.64782 0.70985
 H316 H 0.09112 0.69911 0.78266
 H317 H 0.14677 0.63044 0.68582
 H318 H 0.17527 0.60305 0.80801
 H319 H 0.08941 0.62177 0.83184
 H320 H 0.14495 0.55328 0.73507
 C321 C -0.09721 0.61726 0.27931
 C322 C -0.09670 0.65694 0.24915
 C323 C -0.14422 0.64659 0.23700
 C324 C -0.14502 0.60728 0.26710
 C325 C -0.13022 0.61594 0.19895
 C326 C -0.08234 0.62589 0.21126
 C327 C -0.08328 0.58666 0.24137
 C328 C -0.13064 0.57625 0.22913
 H329 H -0.08337 0.61762 0.31240
 H330 H -0.08278 0.69040 0.25727
 H331 H -0.17111 0.59979 0.29006
 H332 H -0.14321 0.61503 0.16552
 H333 H -0.05614 0.63323 0.18838
 H334 H -0.14423 0.54266 0.22102
 C335 C -0.14084 0.41759 0.72683
 C336 C -0.13584 0.36825 0.71225
 C337 C -0.16290 0.35464 0.75109
 C338 C -0.16831 0.40368 0.76553
 C339 C -0.12190 0.35164 0.77910
 C340 C -0.09444 0.36560 0.74031
 C341 C -0.09989 0.41447 0.75479
 C342 C -0.12688 0.40102 0.79357
 H343 H -0.14827 0.44514 0.70540
 H344 H -0.13921 0.35550 0.67839
 H345 H -0.19894 0.41937 0.77575
 H346 H -0.11434 0.32418 0.80059
 H347 H -0.06365 0.35029 0.73005
 H348 H -0.12291 0.41478 0.82705
 C349 C 0.29665 0.11417 0.40097
 C350 C 0.28398 0.10440 0.35322
 C351 C 0.25759 0.14737 0.35387
 C352 C 0.27022 0.15742 0.40130
 C353 C 0.21697 0.12171 0.36758
 C354 C 0.24335 0.07849 0.36731
 C355 C 0.25606 0.08861 0.41462
 C356 C 0.22964 0.13140 0.41541
 H357 H 0.32949 0.11090 0.41500
 H358 H 0.30636 0.09240 0.32782
 H359 H 0.28134 0.19021 0.41501
 H360 H 0.18414 0.12498 0.35353
 H361 H 0.23227 0.04564 0.35368
 H362 H 0.20731 0.14216 0.44137
 C363 C 0.75929 0.13707 0.58836
 C364 C 0.71872 0.16294 0.60252
 C365 C 0.73038 0.15521 0.64985
 C366 C 0.77094 0.12964 0.63603
 C367 C 0.70347 0.11179 0.64860
 C368 C 0.69181 0.11912 0.60083
 C369 C 0.73245 0.09377 0.58715
 C370 C 0.74411 0.08597 0.63438
 H371 H 0.78227 0.14714 0.56323
 H372 H 0.70822 0.19495 0.58972
 H373 H 0.80356 0.13413 0.65081
 H374 H 0.68043 0.10083 0.67328
 H375 H 0.65925 0.11451 0.58595
 H376 H 0.75460 0.05391 0.64711
 C377 C 0.22066 -0.09027 0.63079
 C378 C 0.20959 -0.14022 0.62302
 C379 C 0.24794 -0.15172 0.65230
 C380 C 0.25890 -0.10210 0.66041
 C381 C 0.27826 -0.15394 0.61340
 C382 C 0.23995 -0.14209 0.58372
 C383 C 0.25096 -0.09262 0.59194
 C384 C 0.28926 -0.10402 0.62115
 H385 H 0.19701 -0.06367 0.63765
 H386 H 0.17647 -0.15469 0.62355
 H387 H 0.26659 -0.08577 0.69225
 H388 H 0.30195 -0.18049 0.60650
 H389 H 0.23226 -0.15820 0.55178
 H390 H 0.32209 -0.08886 0.62016
 C391 C 0.72366 -0.09569 0.36165
 C392 C 0.76514 -0.10998 0.33787
 C393 C 0.75292 -0.15890 0.34431
 C394 C 0.71142 -0.14498 0.36777
 C395 C 0.77814 -0.15816 0.38732
 C396 C 0.79036 -0.10885 0.38121
 C397 C 0.74886 -0.09502 0.40452
 C398 C 0.73658 -0.14382 0.41109
 H399 H 0.70128 -0.06960 0.35141
 H400 H 0.77696 -0.09635 0.30741
 H401 H 0.67892 -0.16019 0.36207
 H402 H 0.80054 -0.18380 0.39848
 H403 H 0.82284 -0.09362 0.38694
 H404 H 0.72479 -0.15732 0.44163
 C405 C 0.63413 0.72827 -0.09723
 C406 C 0.62444 0.71441 -0.14488
 C407 C 0.64882 0.75620 -0.15892
 C408 C 0.65882 0.77003 -0.11165
 C409 C 0.60679 0.78289 -0.15775
 C410 C 0.58214 0.74106 -0.14330
 C411 C 0.59224 0.75493 -0.09614
 C412 C 0.61648 0.79674 -0.11010
 H413 H 0.64505 0.70583 -0.07195
 H414 H 0.62790 0.68050 -0.15955
 H415 H 0.69069 0.78202 -0.09894
 H416 H 0.59488 0.80541 -0.18249
 H417 H 0.55021 0.72910 -0.15590
 H418 H 0.61301 0.83063 -0.09541
 C419 C 0.40425 0.22624 -0.12776
 C420 C 0.35769 0.20933 -0.11968
 C421 C 0.33997 0.25111 -0.14023
 C422 C 0.38611 0.26796 -0.14865
 C423 C 0.33986 0.27603 -0.09600
 C424 C 0.35800 0.23426 -0.07517
 C425 C 0.40403 0.25118 -0.08369
 C426 C 0.38635 0.29292 -0.10413
 H427 H 0.43112 0.20580 -0.14049
 H428 H 0.34554 0.17489 -0.12621
 H429 H 0.39736 0.28188 -0.17919
 H430 H 0.31343 0.29645 -0.08233
 H431 H 0.34686 0.22038 -0.04457
 H432 H 0.39847 0.32737 -0.09758
 C433 C 0.41847 0.77262 0.12989
 C434 C 0.37172 0.78871 0.12304
 C435 C 0.35455 0.74648 0.14384
 C436 C 0.40089 0.73044 0.15105
 C437 C 0.35216 0.72172 0.09950
 C438 C 0.36978 0.76396 0.07846
 C439 C 0.41601 0.74786 0.08574
 C440 C 0.39887 0.70568 0.10640
 H441 H 0.44610 0.79351 0.14205
 H442 H 0.36027 0.82295 0.12991
 H443 H 0.41347 0.71658 0.18119
 H444 H 0.32509 0.70087 0.08602
 H445 H 0.35737 0.77777 0.04822
 H446 H 0.41038 0.67149 0.09937
 C447 C 0.63730 0.23792 0.08301
 C448 C 0.65400 0.27948 0.10932
 C449 C 0.65248 0.25276 0.15055
 C450 C 0.63619 0.21121 0.12454
 C451 C 0.60580 0.26722 0.15892
 C452 C 0.60697 0.29398 0.11739
 C453 C 0.59075 0.25244 0.09150
 C454 C 0.58912 0.22573 0.13258
 H455 H 0.64984 0.22583 0.05140
 H456 H 0.68052 0.30167 0.09905
 H457 H 0.64855 0.17711 0.12771
 H458 H 0.59315 0.27933 0.19046
 H459 H 0.59461 0.32808 0.11425
 H460 H 0.56206 0.20363 0.14178
 C461 C -0.11746 0.61154 0.70898
 C462 C -0.16111 0.61077 0.73288
 C463 C -0.15374 0.65974 0.74707
 C464 C -0.11040 0.66093 0.72317
 C465 C -0.13077 0.64614 0.78860
 C466 C -0.13780 0.59674 0.77437
 C467 C -0.09463 0.59796 0.75047
 C468 C -0.08716 0.64683 0.76472
 H469 H -0.11175 0.59697 0.67621
 H470 H -0.19183 0.59617 0.71972
 H471 H -0.09829 0.68724 0.70220
 H472 H -0.13626 0.66064 0.82144
 H473 H -0.14868 0.56995 0.79541
 H474 H -0.05635 0.66123 0.77784
 C475 C -0.12580 0.40276 0.22463
 C476 C -0.11937 0.35309 0.21223
 C477 C -0.14499 0.34053 0.25230
 C478 C -0.15174 0.38983 0.26466
 C479 C -0.10313 0.34026 0.27951
 C480 C -0.07721 0.35330 0.23940
 C481 C -0.08408 0.40249 0.25178
 C482 C -0.10953 0.38999 0.29185
 H483 H -0.13479 0.42886 0.20210
 H484 H -0.12351 0.33762 0.17942
 H485 H -0.18271 0.40464 0.27509
 H486 H -0.09292 0.31474 0.30213
 H487 H -0.04614 0.33870 0.22900
 H488 H -0.10525 0.40554 0.32461
 C489 C 0.09562 0.38802 0.80370
 C490 C 0.09554 0.34402 0.77617
 C491 C 0.14317 0.35260 0.76515
 C492 C 0.14364 0.39624 0.79268
 C493 C 0.12975 0.37755 0.72496
 C494 C 0.08177 0.36928 0.73598
 C495 C 0.08231 0.41278 0.76347
 C496 C 0.12983 0.42144 0.75242
 H497 H 0.08121 0.39258 0.83610
 H498 H 0.08174 0.31182 0.78597
 H499 H 0.16905 0.40794 0.81602
 H500 H 0.14410 0.37311 0.69252
 H501 H 0.05595 0.35852 0.71267
 H502 H 0.14355 0.45369 0.74263
 C503 C 0.09852 0.62698 0.21367
 C504 C 0.11406 0.65780 0.25192
 C505 C 0.16119 0.64760 0.24023
 C506 C 0.14601 0.61719 0.20183
 C507 C 0.16121 0.60809 0.27007
 C508 C 0.11377 0.61789 0.28181
 C509 C 0.09869 0.58754 0.24351
 C510 C 0.14565 0.57730 0.23174
 H511 H 0.07230 0.63443 0.19056
 H512 H 0.10111 0.69118 0.26011
 H513 H 0.15864 0.61652 0.16853
 H514 H 0.18732 0.60049 0.29325
 H515 H 0.10021 0.61796 0.31474
 H516 H 0.15826 0.54377 0.22355
 C517 C 0.72802 -0.13940 0.57518
 C518 C 0.76878 -0.15373 0.59997
 C519 C 0.74300 -0.15166 0.64212
 C520 C 0.70223 -0.13775 0.61763
 C521 C 0.75642 -0.10275 0.65049
 C522 C 0.78225 -0.10450 0.60808
 C523 C 0.74154 -0.09061 0.58367
 C524 C 0.71572 -0.08842 0.62565
 H525 H 0.71631 -0.15406 0.54380
 H526 H 0.79059 -0.18053 0.58867
 H527 H 0.66928 -0.15179 0.62176
 H528 H 0.76817 -0.08796 0.68180
 H529 H 0.81523 -0.09052 0.60400
 H530 H 0.69392 -0.06116 0.63584
 C531 C 0.23623 -0.13838 0.40782
 C532 C 0.22550 -0.13007 0.36010
 C533 C 0.26632 -0.15540 0.34661
 C534 C 0.27706 -0.16402 0.39397
 C535 C 0.29323 -0.11198 0.34912
 C536 C 0.25234 -0.08641 0.36300
 C537 C 0.26309 -0.09509 0.41027
 C538 C 0.30397 -0.12021 0.39692
 H539 H 0.21277 -0.14892 0.43232
 H540 H 0.19317 -0.13428 0.34464
 H541 H 0.28729 -0.19628 0.40640
 H542 H 0.31675 -0.10053 0.32511
 H543 H 0.24212 -0.05410 0.35065
 H544 H 0.33625 -0.11589 0.41247
 C545 C 0.78033 0.11936 0.39566
 C546 C 0.77080 0.10968 0.34724
 C547 C 0.74136 0.15032 0.34705
 C548 C 0.75085 0.16034 0.39521
 C549 C 0.70194 0.12134 0.35813
 C550 C 0.73141 0.08033 0.35866
 C551 C 0.74097 0.09044 0.40666
 C552 C 0.71152 0.13100 0.40665
 H553 H 0.81261 0.11833 0.41139
 H554 H 0.79518 0.10117 0.32244
 H555 H 0.75879 0.19358 0.41006
 H556 H 0.66936 0.12198 0.34303
 H557 H 0.72348 0.04700 0.34400
 H558 H 0.68718 0.13943 0.43151
 C559 C 0.25710 0.13997 0.59007
 C560 C 0.21568 0.15353 0.61449
 C561 C 0.24116 0.15303 0.65730
 C562 C 0.28252 0.13989 0.63317
 C563 C 0.22906 0.10388 0.66247
 C564 C 0.20357 0.10397 0.61930
 C565 C 0.24495 0.09093 0.59535
 C566 C 0.27040 0.09038 0.63803
 H567 H 0.26868 0.15442 0.55989
 H568 H 0.19316 0.17946 0.60423
 H569 H 0.31505 0.15498 0.63906
 H570 H 0.21747 0.08933 0.69259
 H571 H 0.17109 0.08883 0.61332
 H572 H 0.29292 0.06404 0.64737
   
