data_POSCAR
  _audit_creation_date              2014-09-24
  _audit_creation_method            'ToBaCCo'
  _symmetry_space_group_name_H-M    'P1'
  _symmetry_Int_Tables_number       1
  _symmetry_cell_setting            triclinic
  loop_
  _symmetry_equiv_pos_as_xyz
 x,y,z
_cell_length_a 42.9463
_cell_length_b 44.3065
_cell_length_c 34.2177
_cell_angle_alpha 90.148900
_cell_angle_beta 90.661600
_cell_angle_gamma 89.997300
loop_
  _atom_site_label
  _atom_site_type_symbol
  _atom_site_fract_x
  _atom_site_fract_y
  _atom_site_fract_z
C1 C 1.27941 0.22160 0.26569
 C2 C 1.25311 0.23583 0.24963
 C3 C 1.22962 0.21850 0.23193
 C4 C 1.23279 0.18704 0.22855
 C5 C 1.25961 0.17312 0.24424
 C6 C 1.28296 0.18998 0.26389
 C7 C 1.25102 0.26909 0.24986
 C8 C 1.27485 0.28614 0.23301
 C9 C 1.27350 0.31795 0.23207
 C10 C 1.24786 0.33216 0.24997
 C11 C 1.22418 0.31532 0.26773
 C12 C 1.22557 0.28371 0.26676
 H13 H 1.29748 0.23564 0.27848
 H14 H 1.20912 0.22972 0.22032
 H15 H 1.29345 0.27411 0.21866
 H16 H 1.20756 0.27048 0.28057
 H17 H 1.26156 0.14887 0.24215
 H18 H 1.24659 0.35652 0.25157
 C19 C 0.77530 -0.28036 0.26532
 C20 C 0.74932 -0.26631 0.24812
 C21 C 0.72564 -0.28383 0.23127
 C22 C 0.72796 -0.31535 0.23062
 C23 C 0.75410 -0.32928 0.24788
 C24 C 0.77806 -0.31212 0.26589
 C25 C 0.74720 -0.23313 0.24672
 C26 C 0.77052 -0.21628 0.22850
 C27 C 0.76828 -0.18467 0.22594
 C28 C 0.74267 -0.17020 0.24310
 C29 C 0.71981 -0.18677 0.26271
 C30 C 0.72183 -0.21834 0.26358
 H31 H 0.79363 -0.26615 0.27717
 H32 H 0.70595 -0.27275 0.21735
 H33 H 0.79032 -0.22796 0.21628
 H34 H 0.70438 -0.23139 0.27872
 H35 H 0.75462 -0.35367 0.24890
 H36 H 0.74021 -0.14594 0.24102
 C37 C 0.77513 0.21920 -0.23339
 C38 C 0.75090 0.23525 -0.25169
 C39 C 0.72587 0.21957 -0.26884
 C40 C 0.72493 0.18798 -0.26794
 C41 C 0.74867 0.17221 -0.24824
 C42 C 0.77402 0.18751 -0.23092
 C43 C 0.75115 0.26853 -0.25217
 C44 C 0.77598 0.28442 -0.26878
 C45 C 0.77554 0.31629 -0.27088
 C46 C 0.75018 0.33162 -0.25382
 C47 C 0.72566 0.31587 -0.23635
 C48 C 0.72605 0.28432 -0.23634
 H49 H 0.79457 0.23153 -0.22078
 H50 H 0.70764 0.23202 -0.28390
 H51 H 0.79442 0.27153 -0.28218
 H52 H 0.70731 0.27194 -0.22274
 H53 H 0.74696 0.14790 -0.24595
 H54 H 0.74965 0.35602 -0.25286
 C55 C 1.27717 -0.27902 -0.23206
 C56 C 1.25178 -0.26360 -0.24847
 C57 C 1.22736 -0.27979 -0.26599
 C58 C 1.22858 -0.31138 -0.26814
 C59 C 1.25417 -0.32665 -0.25144
 C60 C 1.27872 -0.31080 -0.23271
 C61 C 1.25157 -0.23035 -0.24814
 C62 C 1.27606 -0.21447 -0.26530
 C63 C 1.27665 -0.18287 -0.26440
 C64 C 1.25305 -0.16729 -0.24476
 C65 C 1.22820 -0.18284 -0.22750
 C66 C 1.22745 -0.21454 -0.22997
 H67 H 1.29611 -0.26577 -0.21985
 H68 H 1.20808 -0.26767 -0.27931
 H69 H 1.29416 -0.22680 -0.28034
 H70 H 1.20838 -0.22708 -0.21745
 H71 H 1.25385 -0.35107 -0.25149
 H72 H 1.25448 -0.14295 -0.24247
 C73 C 0.21310 0.26927 0.73071
 C74 C 0.22971 0.24560 0.74816
 C75 C 0.21361 0.22101 0.76391
 C76 C 0.18073 0.21997 0.76315
 C77 C 0.16464 0.24360 0.74389
 C78 C 0.18049 0.26827 0.72756
 C79 C 0.26413 0.24639 0.74951
 C80 C 0.27988 0.27075 0.76700
 C81 C 0.31282 0.27212 0.76797
 C82 C 0.32922 0.24860 0.74904
 C83 C 0.31367 0.22427 0.73085
 C84 C 0.28107 0.22311 0.73214
 H85 H 0.22583 0.28832 0.71919
 H86 H 0.22707 0.20380 0.77881
 H87 H 0.26593 0.28882 0.77886
 H88 H 0.26863 0.20430 0.71906
 H89 H 0.13968 0.24218 0.73980
 H90 H 0.35430 0.24850 0.74886
 C91 C 0.71337 0.76998 0.72887
 C92 C 0.73060 0.74774 0.74832
 C93 C 0.71528 0.72424 0.76745
 C94 C 0.68242 0.72252 0.76746
 C95 C 0.66566 0.74455 0.74586
 C96 C 0.68058 0.76871 0.72664
 C97 C 0.76497 0.74956 0.74889
 C98 C 0.77988 0.77444 0.76611
 C99 C 0.81245 0.77719 0.76533
 C100 C 0.82991 0.75512 0.74560
 C101 C 0.81530 0.72995 0.72794
 C102 C 0.78270 0.72718 0.73059
 H103 H 0.72611 0.78856 0.71632
 H104 H 0.72944 0.70851 0.78394
 H105 H 0.76599 0.79171 0.78007
 H106 H 0.77085 0.70785 0.71795
 H107 H 0.64095 0.74150 0.74154
 H108 H 0.85494 0.75759 0.74416
 C109 C 0.71648 0.27368 0.23822
 C110 C 0.73222 0.24943 0.25571
 C111 C 0.71525 0.22623 0.27315
 C112 C 0.68260 0.22726 0.27429
 C113 C 0.66705 0.25130 0.25565
 C114 C 0.68370 0.27452 0.23707
 C115 C 0.76656 0.24807 0.25613
 C116 C 0.78403 0.27085 0.27444
 C117 C 0.81666 0.26856 0.27781
 C118 C 0.83160 0.24349 0.26077
 C119 C 0.81436 0.22105 0.24093
 C120 C 0.78176 0.22329 0.23956
 H121 H 0.72991 0.29166 0.22522
 H122 H 0.72775 0.20745 0.28612
 H123 H 0.77194 0.29014 0.28649
 H124 H 0.76807 0.20573 0.22548
 H125 H 0.64190 0.25188 0.25555
 H126 H 0.85667 0.24143 0.26268
 C127 C 0.21783 0.77196 0.23511
 C128 C 0.23340 0.74787 0.25287
 C129 C 0.21654 0.72554 0.27211
 C130 C 0.18371 0.72686 0.27422
 C131 C 0.16846 0.75139 0.25552
 C132 C 0.18513 0.77414 0.23568
 C133 C 0.26774 0.74708 0.25281
 C134 C 0.28449 0.77004 0.27171
 C135 C 0.31713 0.77078 0.27046
 C136 C 0.33277 0.74836 0.24915
 C137 C 0.31638 0.72463 0.23068
 C138 C 0.28366 0.72409 0.23312
 H139 H 0.23178 0.78950 0.22202
 H140 H 0.22972 0.70829 0.28726
 H141 H 0.27188 0.78700 0.28800
 H142 H 0.27039 0.70606 0.21951
 H143 H 0.14336 0.75156 0.25359
 H144 H 0.35778 0.74984 0.24626
 N145 N 0.96784 -0.03301 0.07336
 N146 N 0.94637 -0.03887 0.09957
 N147 N 1.03297 -0.05369 0.04566
 N148 N 1.05255 -0.07574 0.05382
 N149 N 1.03305 -0.03348 0.07381
 N150 N 1.05247 -0.04163 0.10218
 N151 N 0.96744 -0.05350 0.04555
 N152 N 0.94545 -0.07364 0.05183
 C153 C 0.93240 -0.06412 0.08551
 C154 C 1.06490 -0.06781 0.08886
 N155 N 1.03201 -0.03270 -0.06575
 N156 N 1.05285 -0.03879 -0.09266
 N157 N 0.96696 -0.05355 -0.03847
 N158 N 0.94735 -0.07553 -0.04701
 N159 N 0.96679 -0.03310 -0.06619
 N160 N 0.94715 -0.04094 -0.09454
 N161 N 1.03246 -0.05336 -0.03831
 N162 N 1.05391 -0.07389 -0.04556
 Mn163 Mn 0.99996 -0.05374 0.00362
 C164 C 1.06657 -0.06436 -0.07941
 C165 C 0.93479 -0.06727 -0.08177
 N166 N 1.03320 0.03205 0.07394
 N167 N 1.05495 0.03801 0.10045
 N168 N 0.96758 0.05278 0.04634
 N169 N 0.94801 0.07470 0.05474
 N170 N 0.96793 0.03238 0.07412
 N171 N 0.94870 0.04016 0.10235
 N172 N 1.03308 0.05265 0.04640
 N173 N 1.05497 0.07294 0.05315
 Mn174 Mn 1.00052 -0.00051 0.07421
 C175 C 1.06855 0.06343 0.08682
 C176 C 0.93604 0.06643 0.08946
 N177 N 0.96679 0.03233 -0.06553
 N178 N 0.94612 0.03902 -0.09300
 N179 N 1.03212 0.05311 -0.03764
 N180 N 1.05113 0.07541 -0.04617
 N181 N 1.03208 0.03263 -0.06546
 N182 N 1.05114 0.04067 -0.09373
 N183 N 0.96669 0.05285 -0.03775
 N184 N 0.94569 0.07383 -0.04536
 Mn185 Mn 0.99941 -0.00021 -0.06610
 Mn186 Mn 0.99985 0.05304 0.00437
 Cl187 Cl 0.99993 -0.00035 0.00402
 C188 C 0.93285 0.06474 -0.07974
 C189 C 1.06325 0.06724 -0.08091
 N190 N 1.05635 0.53176 0.54260
 N191 N 1.07871 0.55138 0.54983
 N192 N 1.03310 0.46926 0.57057
 N193 N 1.03826 0.44814 0.59702
 N194 N 1.05435 0.46828 0.54331
 N195 N 1.07432 0.44623 0.55022
 N196 N 1.03533 0.53258 0.57016
 N197 N 1.04310 0.55278 0.59712
 C198 C 1.07008 0.56460 0.58365
 C199 C 1.06391 0.43376 0.58373
 N200 N 0.94455 0.47179 0.54156
 N201 N 0.92216 0.45230 0.54845
 N202 N 0.96785 0.53455 0.56929
 N203 N 0.96237 0.55556 0.59577
 N204 N 0.94658 0.53527 0.54141
 N205 N 0.92626 0.55703 0.54801
 N206 N 0.96569 0.47114 0.56958
 N207 N 0.95803 0.45112 0.59645
 Mn208 Mn 1.00049 0.50189 0.57035
 C209 C 0.93093 0.43928 0.58252
 C210 C 0.93652 0.56963 0.58192
 N211 N 1.05444 0.46791 0.45938
 N212 N 1.07586 0.44740 0.45238
 N213 N 1.03478 0.53192 0.43112
 N214 N 1.04041 0.55347 0.40561
 N215 N 1.05647 0.53131 0.45845
 N216 N 1.07760 0.55233 0.45209
 N217 N 1.03346 0.46841 0.43119
 N218 N 1.04033 0.44824 0.40400
 Mn219 Mn 1.05565 0.49981 0.50096
 C220 C 1.06667 0.43499 0.41803
 C221 C 1.06716 0.56612 0.41914
 N222 N 0.94657 0.53456 0.45725
 N223 N 0.92538 0.55521 0.44920
 N224 N 0.96612 0.47033 0.43039
 N225 N 0.96040 0.44859 0.40487
 N226 N 0.94473 0.47092 0.45749
 N227 N 0.92404 0.44930 0.45138
 N228 N 0.96764 0.53356 0.42978
 N229 N 0.96109 0.55336 0.40206
 Mn230 Mn 0.94533 0.50316 0.49941
 Mn231 Mn 1.00050 0.50104 0.43021
 Cl232 Cl 1.00048 0.50148 0.50025
 C233 C 0.93488 0.56702 0.41493
 C234 C 0.93419 0.43553 0.41847
 N235 N 0.55577 0.03021 0.54146
 N236 N 0.57774 0.05032 0.54831
 N237 N 0.53275 -0.03235 0.56984
 N238 N 0.53760 -0.05377 0.59598
 N239 N 0.55413 -0.03324 0.54276
 N240 N 0.57392 -0.05546 0.54949
 N241 N 0.53469 0.03103 0.56892
 N242 N 0.54192 0.05176 0.59537
 C243 C 0.56871 0.06385 0.58177
 C244 C 0.56326 -0.06816 0.58272
 N245 N 0.44407 -0.02987 0.54088
 N246 N 0.42174 -0.04935 0.54815
 N247 N 0.46746 0.03278 0.56800
 N248 N 0.46153 0.05325 0.59498
 N249 N 0.44624 0.03355 0.54006
 N250 N 0.42549 0.05481 0.54713
 N251 N 0.46539 -0.03042 0.56870
 N252 N 0.45793 -0.05025 0.59582
 Mn253 Mn 0.50008 0.00023 0.56931
 C254 C 0.43079 -0.06216 0.58226
 C255 C 0.43551 0.06708 0.58133
 N256 N 0.55421 -0.03424 0.45897
 N257 N 0.57558 -0.05485 0.45216
 N258 N 0.53447 0.02892 0.42956
 N259 N 0.54025 0.04981 0.40325
 N260 N 0.55572 0.02927 0.45743
 N261 N 0.57641 0.05069 0.45105
 N262 N 0.53292 -0.03431 0.43116
 N263 N 0.53942 -0.05491 0.40447
 Mn264 Mn 0.55525 -0.00197 0.50017
 C265 C 0.56592 -0.06786 0.41835
 C266 C 0.56636 0.06335 0.41718
 N267 N 0.44632 0.03232 0.45583
 N268 N 0.42559 0.05338 0.44769
 N269 N 0.46587 -0.03250 0.43039
 N270 N 0.46021 -0.05449 0.40528
 N271 N 0.44397 -0.03106 0.45677
 N272 N 0.42265 -0.05198 0.45014
 N273 N 0.46742 0.03084 0.42843
 N274 N 0.46142 0.05079 0.40072
 Mn275 Mn 0.44485 0.00129 0.49839
 Mn276 Mn 0.50015 -0.00180 0.42948
 Cl277 Cl 0.50007 -0.00055 0.49936
 C278 C 0.43545 0.06496 0.41344
 C279 C 0.43324 -0.06655 0.41805
 N280 N 0.55580 0.52846 0.03934
 N281 N 0.57863 0.54746 0.04706
 N282 N 0.53220 0.46625 0.06761
 N283 N 0.53816 0.44633 0.09531
 N284 N 0.55347 0.46503 0.04038
 N285 N 0.57424 0.44393 0.04860
 N286 N 0.53473 0.52946 0.06682
 N287 N 0.54293 0.54914 0.09420
 C288 C 0.57021 0.56051 0.08108
 C289 C 0.56423 0.43229 0.08279
 N290 N 0.44358 0.46908 0.03863
 N291 N 0.42039 0.45076 0.04666
 N292 N 0.46731 0.53171 0.06596
 N293 N 0.46143 0.55217 0.09299
 N294 N 0.44600 0.53247 0.03815
 N295 N 0.42526 0.55372 0.04532
 N296 N 0.46478 0.46844 0.06660
 N297 N 0.45637 0.44961 0.09450
 Mn298 Mn 0.49976 0.49897 0.06714
 C299 C 0.42877 0.43842 0.08129
 C300 C 0.43534 0.56599 0.07948
 N301 N 0.55343 0.46444 -0.04359
 N302 N 0.57512 0.44432 -0.05102
 N303 N 0.53423 0.52842 -0.07219
 N304 N 0.54045 0.54930 -0.09840
 N305 N 0.55592 0.52779 -0.04485
 N306 N 0.57761 0.54816 -0.05189
 N307 N 0.53244 0.46501 -0.07179
 N308 N 0.53961 0.44533 -0.09940
 Mn309 Mn 0.55489 0.49642 -0.00217
 C310 C 0.56609 0.43223 -0.08561
 C311 C 0.56751 0.56158 -0.08527
 N312 N 0.44605 0.53159 -0.04585
 N313 N 0.42501 0.55239 -0.05375
 N314 N 0.46507 0.46728 -0.07263
 N315 N 0.45824 0.44668 -0.09927
 N316 N 0.44367 0.46808 -0.04554
 N317 N 0.42183 0.44777 -0.05288
 N318 N 0.46706 0.53046 -0.07337
 N319 N 0.46060 0.55032 -0.10105
 Mn320 Mn 0.44458 0.50031 -0.00367
 Mn321 Mn 0.49971 0.49778 -0.07289
 Cl322 Cl 0.49973 0.49835 -0.00288
 C323 C 0.43452 0.56414 -0.08802
 C324 C 0.43136 0.43446 -0.08639
 C325 C 1.16294 0.13324 0.16862
 C326 C 1.16976 0.16273 0.15612
 C327 C 1.19233 0.18008 0.17547
 C328 C 1.20832 0.16869 0.20835
 C329 C 1.20105 0.13945 0.22135
 C330 C 1.17894 0.12187 0.20152
 C331 C 1.13928 0.11453 0.14744
 C332 C 1.12064 0.09372 0.16765
 C333 C 1.09823 0.07648 0.14777
 C334 C 1.09349 0.08012 0.10744
 C335 C 1.11205 0.10069 0.08711
 C336 C 1.13492 0.11745 0.10677
 H337 H 1.19752 0.20231 0.16423
 H338 H 1.21235 0.13007 0.24701
 H339 H 1.08398 0.06093 0.16415
 H340 H 1.10899 0.10371 0.05589
 H341 H 1.17472 0.09918 0.21182
 H342 H 1.12280 0.09117 0.19900
 H343 H 1.15755 0.17261 0.13145
 H344 H 1.14927 0.13258 0.08995
 C345 C 1.15690 0.63943 0.66976
 C346 C 1.14889 0.66299 0.69531
 C347 C 1.17209 0.67898 0.71567
 C348 C 1.20368 0.67149 0.71112
 C349 C 1.21155 0.64766 0.68597
 C350 C 1.18846 0.63184 0.66556
 C351 C 1.13276 0.62277 0.64706
 C352 C 1.13804 0.61543 0.60776
 C353 C 1.11697 0.59747 0.58697
 C354 C 1.09005 0.58642 0.60493
 C355 C 1.08391 0.59483 0.64370
 C356 C 1.10511 0.61291 0.66462
 H357 H 1.16535 0.69709 0.73512
 H358 H 1.23568 0.64156 0.68155
 H359 H 1.12217 0.59165 0.55698
 H360 H 1.06331 0.58662 0.65821
 H361 H 1.19533 0.61351 0.64651
 H362 H 1.15879 0.62325 0.59320
 H363 H 1.12476 0.66936 0.69900
 H364 H 1.10050 0.61820 0.69492
 C365 C 0.65365 0.13981 0.66840
 C366 C 0.64565 0.16454 0.69200
 C367 C 0.66872 0.18028 0.71292
 C368 C 0.70004 0.17123 0.71095
 C369 C 0.70785 0.14622 0.68779
 C370 C 0.68494 0.13072 0.66673
 C371 C 0.62983 0.12331 0.64516
 C372 C 0.63613 0.11508 0.60642
 C373 C 0.61551 0.09677 0.58546
 C374 C 0.58811 0.08624 0.60277
 C375 C 0.58092 0.09565 0.64086
 C376 C 0.60164 0.11414 0.66191
 H377 H 0.66209 0.19939 0.73078
 H378 H 0.73183 0.13894 0.68540
 H379 H 0.62150 0.09018 0.55599
 H380 H 0.55990 0.08788 0.65482
 H381 H 0.69169 0.11148 0.64918
 H382 H 0.65741 0.12234 0.59258
 H383 H 0.62168 0.17200 0.69368
 H384 H 0.59629 0.12017 0.69177
 C385 C 0.65743 0.63323 0.16969
 C386 C 0.64894 0.65705 0.19454
 C387 C 0.67177 0.67351 0.21484
 C388 C 0.70349 0.66633 0.21085
 C389 C 0.71184 0.64205 0.18669
 C390 C 0.68908 0.62570 0.16636
 C391 C 0.63363 0.61653 0.14652
 C392 C 0.63953 0.60891 0.10745
 C393 C 0.61832 0.59158 0.08600
 C394 C 0.59066 0.58144 0.10306
 C395 C 0.58406 0.58995 0.14166
 C396 C 0.60538 0.60740 0.16323
 H397 H 0.66464 0.69192 0.23360
 H398 H 0.73607 0.63614 0.18276
 H399 H 0.62391 0.58562 0.05617
 H400 H 0.56290 0.58240 0.15550
 H401 H 0.69628 0.60714 0.14789
 H402 H 0.66075 0.61620 0.09351
 H403 H 0.62474 0.66340 0.19756
 H404 H 0.60028 0.61290 0.19334
 C405 C 0.83781 -0.13226 0.16589
 C406 C 0.82268 -0.12053 0.19885
 C407 C 0.80062 -0.13766 0.21863
 C408 C 0.79250 -0.16677 0.20550
 C409 C 0.80750 -0.17845 0.17243
 C410 C 0.83006 -0.16156 0.15314
 C411 C 0.86161 -0.11410 0.14503
 C412 C 0.86531 -0.11702 0.10435
 C413 C 0.88827 -0.10069 0.08501
 C414 C 0.90754 -0.08056 0.10572
 C415 C 0.90352 -0.07699 0.14607
 C416 C 0.88106 -0.09382 0.16560
 H417 H 0.79007 -0.12805 0.24440
 H418 H 0.80162 -0.20055 0.16104
 H419 H 0.89079 -0.10363 0.05377
 H420 H 0.91834 -0.06179 0.16272
 H421 H 0.84156 -0.17167 0.12837
 H422 H 0.85036 -0.13178 0.08728
 H423 H 0.82758 -0.09793 0.20929
 H424 H 0.87944 -0.09133 0.19698
 C425 C 0.84590 0.36464 0.66867
 C426 C 0.81570 0.37627 0.67169
 C427 C 0.79286 0.36064 0.69196
 C428 C 0.79935 0.33253 0.70968
 C429 C 0.83000 0.32107 0.70667
 C430 C 0.85302 0.33711 0.68676
 C431 C 0.86933 0.38116 0.64561
 C432 C 0.89901 0.38780 0.66113
 C433 C 0.91967 0.40608 0.64031
 C434 C 0.91099 0.41766 0.60355
 C435 C 0.88187 0.40976 0.58746
 C436 C 0.86125 0.39185 0.60830
 H437 H 0.76968 0.37019 0.69174
 H438 H 0.83674 0.30016 0.72065
 H439 H 0.94202 0.41176 0.65333
 H440 H 0.87457 0.41810 0.55908
 H441 H 0.87625 0.32774 0.68488
 H442 H 0.90570 0.37981 0.68990
 H443 H 0.80965 0.39755 0.65803
 H444 H 0.83869 0.38668 0.59548
 C445 C 0.34642 -0.13501 0.67137
 C446 C 0.31515 -0.12576 0.67014
 C447 C 0.29273 -0.14106 0.69151
 C448 C 0.30104 -0.16602 0.71456
 C449 C 0.33239 -0.17513 0.71623
 C450 C 0.35495 -0.15962 0.69496
 C451 C 0.36972 -0.11894 0.64762
 C452 C 0.39866 -0.11033 0.66370
 C453 C 0.41923 -0.09267 0.64203
 C454 C 0.41116 -0.08351 0.60397
 C455 C 0.38287 -0.09333 0.58738
 C456 C 0.36238 -0.11083 0.60898
 H457 H 0.26871 -0.13374 0.68935
 H458 H 0.33943 -0.19418 0.73401
 H459 H 0.44094 -0.08542 0.65545
 H460 H 0.37616 -0.08686 0.55797
 H461 H 0.37890 -0.16721 0.69632
 H462 H 0.40483 -0.11626 0.69348
 H463 H 0.30802 -0.10658 0.65262
 H464 H 0.34049 -0.11767 0.59564
 C465 C 0.34265 0.36806 0.17193
 C466 C 0.31241 0.37949 0.17590
 C467 C 0.28994 0.36340 0.19635
 C468 C 0.29690 0.33506 0.21314
 C469 C 0.32769 0.32407 0.20958
 C470 C 0.35025 0.34047 0.18949
 C471 C 0.36569 0.38458 0.14825
 C472 C 0.39615 0.38975 0.16224
 C473 C 0.41711 0.40679 0.14025
 C474 C 0.40799 0.41856 0.10379
 C475 C 0.37787 0.41247 0.08939
 C476 C 0.35694 0.39580 0.11144
 H477 H 0.26668 0.37273 0.19688
 H478 H 0.33490 0.30314 0.22313
 H479 H 0.44020 0.41114 0.15200
 H480 H 0.37018 0.42111 0.06132
 H481 H 0.37350 0.33125 0.18696
 H482 H 0.40341 0.38133 0.19060
 H483 H 0.30602 0.40086 0.16276
 H484 H 0.33377 0.39171 0.09972
 C485 C 0.84350 0.13597 -0.16758
 C486 C 0.83559 0.16536 -0.15551
 C487 C 0.81333 0.18216 -0.17614
 C488 C 0.79879 0.17027 -0.20984
 C489 C 0.80739 0.14126 -0.22255
 C490 C 0.82910 0.12422 -0.20147
 C491 C 0.86638 0.11754 -0.14486
 C492 C 0.88582 0.09667 -0.16384
 C493 C 0.90687 0.07901 -0.14251
 C494 C 0.90954 0.08234 -0.10186
 C495 C 0.89048 0.10325 -0.08274
 C496 C 0.86887 0.12041 -0.10393
 H497 H 0.80711 0.20425 -0.16513
 H498 H 0.79727 0.13153 -0.24881
 H499 H 0.92163 0.06328 -0.15797
 H500 H 0.89205 0.10607 -0.05133
 H501 H 0.83413 0.10159 -0.21152
 H502 H 0.88521 0.09422 -0.19531
 H503 H 0.84659 0.17550 -0.13007
 H504 H 0.85389 0.13567 -0.08808
 C505 C 0.85281 0.64343 0.32495
 C506 C 0.84328 0.67228 0.33672
 C507 C 0.81938 0.68729 0.31667
 C508 C 0.80382 0.67357 0.28460
 C509 C 0.81421 0.64479 0.27248
 C510 C 0.83846 0.63008 0.29223
 C511 C 0.87609 0.62636 0.34825
 C512 C 0.90033 0.61061 0.32997
 C513 C 0.92052 0.59234 0.35191
 C514 C 0.91639 0.58912 0.39234
 C515 C 0.89274 0.60557 0.41072
 C516 C 0.87292 0.62417 0.38893
 H517 H 0.81206 0.70889 0.32812
 H518 H 0.80421 0.63363 0.24713
 H519 H 0.93855 0.57984 0.33704
 H520 H 0.88912 0.60353 0.44188
 H521 H 0.84539 0.60780 0.28257
 H522 H 0.90334 0.61210 0.29865
 H523 H 0.85404 0.68304 0.36193
 H524 H 0.85426 0.63589 0.40367
 C525 C 0.35690 0.14431 0.32284
 C526 C 0.34678 0.17262 0.33589
 C527 C 0.32329 0.18813 0.31576
 C528 C 0.30879 0.17549 0.28220
 C529 C 0.32004 0.14742 0.26858
 C530 C 0.34381 0.13218 0.28853
 C531 C 0.37927 0.12639 0.34647
 C532 C 0.40390 0.11084 0.32874
 C533 C 0.42316 0.09178 0.35083
 C534 C 0.41774 0.08763 0.39086
 C535 C 0.39371 0.10386 0.40876
 C536 C 0.37477 0.12318 0.38683
 H537 H 0.31532 0.20913 0.32835
 H538 H 0.31100 0.13719 0.24206
 H539 H 0.44154 0.07950 0.33635
 H540 H 0.38909 0.10112 0.43960
 H541 H 0.35126 0.11035 0.27780
 H542 H 0.40794 0.11312 0.29770
 H543 H 0.35662 0.18250 0.36227
 H544 H 0.35576 0.13468 0.40114
 C545 C 0.35261 0.64191 -0.17592
 C546 C 0.34391 0.67073 -0.16320
 C547 C 0.32012 0.68651 -0.18231
 C548 C 0.30398 0.67373 -0.21458
 C549 C 0.31345 0.64488 -0.22761
 C550 C 0.33755 0.62933 -0.20866
 C551 C 0.37573 0.62413 -0.15338
 C552 C 0.39946 0.60808 -0.17228
 C553 C 0.41971 0.58954 -0.15082
 C554 C 0.41613 0.58642 -0.11030
 C555 C 0.39296 0.60310 -0.09135
 C556 C 0.37308 0.62191 -0.11264
 H557 H 0.31343 0.70802 -0.17000
 H558 H 0.30290 0.63436 -0.25306
 H559 H 0.43736 0.57681 -0.16608
 H560 H 0.38975 0.60111 -0.06011
 H561 H 0.34383 0.60703 -0.21898
 H562 H 0.40205 0.60961 -0.20366
 H563 H 0.35520 0.68089 -0.13794
 H564 H 0.35482 0.63384 -0.09743
 C565 C 1.15831 -0.13260 -0.16492
 C566 C 1.16702 -0.16175 -0.15279
 C567 C 1.18955 -0.17805 -0.17306
 C568 C 1.20351 -0.16591 -0.20650
 C569 C 1.19423 -0.13708 -0.21917
 C570 C 1.17226 -0.12051 -0.19841
 C571 C 1.13490 -0.11483 -0.14276
 C572 C 1.11476 -0.09464 -0.16223
 C573 C 1.09306 -0.07773 -0.14144
 C574 C 1.09046 -0.08119 -0.10091
 C575 C 1.11025 -0.10141 -0.08131
 C576 C 1.13251 -0.11780 -0.10193
 H577 H 1.19634 -0.19998 -0.16203
 H578 H 1.20393 -0.12717 -0.24522
 H579 H 1.07776 -0.06250 -0.15724
 H580 H 1.10875 -0.10427 -0.04996
 H581 H 1.16662 -0.09801 -0.20844
 H582 H 1.11531 -0.09218 -0.19366
 H583 H 1.15641 -0.17213 -0.12765
 H584 H 1.14801 -0.13253 -0.08572
 C585 C 1.15204 0.36087 0.33141
 C586 C 1.14432 0.33745 0.30527
 C587 C 1.16770 0.32244 0.28456
 C588 C 1.19907 0.33097 0.28922
 C589 C 1.20662 0.35458 0.31508
 C590 C 1.18341 0.36930 0.33594
 C591 C 1.12785 0.37670 0.35429
 C592 C 1.13331 0.38306 0.39399
 C593 C 1.11257 0.40088 0.41491
 C594 C 1.08587 0.41286 0.39665
 C595 C 1.07943 0.40528 0.35748
 C596 C 1.10027 0.38725 0.33645
 H597 H 1.16129 0.30437 0.26467
 H598 H 1.23061 0.36140 0.31959
 H599 H 1.11799 0.40603 0.44519
 H600 H 1.05898 0.41418 0.34273
 H601 H 1.19000 0.38752 0.35552
 H602 H 1.15405 0.37473 0.40868
 H603 H 1.12032 0.33047 0.30135
 H604 H 1.09555 0.38270 0.30584
 C605 C 0.64924 -0.14148 0.32883
 C606 C 0.64115 -0.16596 0.30461
 C607 C 0.66397 -0.18072 0.28278
 C608 C 0.69509 -0.17088 0.28443
 C609 C 0.70294 -0.14608 0.30817
 C610 C 0.68029 -0.13159 0.33016
 C611 C 0.62573 -0.12598 0.35295
 C612 C 0.63289 -0.11849 0.39190
 C613 C 0.61262 -0.10076 0.41362
 C614 C 0.58478 -0.09005 0.39683
 C615 C 0.57672 -0.09886 0.35856
 C616 C 0.59706 -0.11679 0.33677
 H617 H 0.65734 -0.19972 0.26453
 H618 H 0.72679 -0.13825 0.31034
 H619 H 0.61929 -0.09461 0.44321
 H620 H 0.55534 -0.09096 0.34498
 H621 H 0.68706 -0.11251 0.34819
 H622 H 0.65460 -0.12578 0.40526
 H623 H 0.61734 -0.17398 0.30316
 H624 H 0.59106 -0.12227 0.30675
 C625 C 0.65305 0.36213 -0.17481
 C626 C 0.68431 0.37093 -0.17027
 C627 C 0.70772 0.35627 -0.19086
 C628 C 0.70040 0.33239 -0.21637
 C629 C 0.66908 0.32382 -0.22144
 C630 C 0.64555 0.33872 -0.20100
 C631 C 0.62872 0.37720 -0.15146
 C632 C 0.60077 0.38725 -0.16883
 C633 C 0.57946 0.40416 -0.14710
 C634 C 0.58581 0.41108 -0.10772
 C635 C 0.61295 0.39959 -0.08999
 C636 C 0.63417 0.38289 -0.11162
 H637 H 0.73167 0.36313 -0.18609
 H638 H 0.66284 0.30558 -0.24115
 H639 H 0.55868 0.41274 -0.16144
 H640 H 0.61832 0.40428 -0.05957
 H641 H 0.62162 0.33149 -0.20493
 H642 H 0.59605 0.38312 -0.19954
 H643 H 0.69068 0.38919 -0.15065
 H644 H 0.65521 0.37485 -0.09732
 C645 C 1.13259 0.15111 -0.17516
 C646 C 1.16175 0.14511 -0.19138
 C647 C 1.17753 0.16751 -0.21212
 C648 C 1.16426 0.19644 -0.21779
 C649 C 1.13431 0.20167 -0.20247
 C650 C 1.11891 0.17945 -0.18129
 C651 C 1.11677 0.12858 -0.15037
 C652 C 1.10522 0.13738 -0.11390
 C653 C 1.08882 0.11702 -0.09096
 C654 C 1.08321 0.08744 -0.10416
 C655 C 1.09539 0.07830 -0.14027
 C656 C 1.11228 0.09869 -0.16309
 H657 H 1.19984 0.16166 -0.22439
 H658 H 1.12318 0.22351 -0.20460
 H659 H 1.07985 0.12474 -0.06323
 H660 H 1.09145 0.05562 -0.15109
 H661 H 1.09632 0.18457 -0.16916
 H662 H 1.10875 0.16018 -0.10322
 H663 H 1.17270 0.12331 -0.18718
 H664 H 1.12099 0.09142 -0.19116
 C665 C 1.13319 0.65976 0.33689
 C666 C 1.16293 0.65354 0.32259
 C667 C 1.17928 0.67527 0.30161
 C668 C 1.16662 0.70432 0.29468
 C669 C 1.13649 0.71019 0.30931
 C670 C 1.12003 0.68819 0.32981
 C671 C 1.11591 0.63649 0.35890
 C672 C 1.08470 0.63002 0.34950
 C673 C 1.06880 0.60725 0.36925
 C674 C 1.08367 0.59085 0.39919
 C675 C 1.11466 0.59777 0.40919
 C676 C 1.13072 0.62022 0.38901
 H677 H 1.20142 0.66846 0.28978
 H678 H 1.12573 0.73215 0.30669
 H679 H 1.04489 0.60241 0.36101
 H680 H 1.12668 0.58547 0.43214
 H681 H 1.09722 0.69366 0.34102
 H682 H 1.07284 0.64213 0.32624
 H683 H 1.17332 0.63150 0.32695
 H684 H 1.15469 0.62497 0.39703
 C685 C 0.63165 0.15832 0.33605
 C686 C 0.66125 0.16772 0.34917
 C687 C 0.67747 0.19020 0.32942
 C688 C 0.66496 0.20345 0.29537
 C689 C 0.63546 0.19389 0.28204
 C690 C 0.61889 0.17190 0.30234
 C691 C 0.61438 0.13426 0.35718
 C692 C 0.59465 0.11420 0.33669
 C693 C 0.57865 0.09153 0.35639
 C694 C 0.58259 0.08789 0.39684
 C695 C 0.60231 0.10763 0.41747
 C696 C 0.61774 0.13082 0.39795
 H697 H 0.69980 0.19732 0.34117
 H698 H 0.62517 0.20315 0.25566
 H699 H 0.56374 0.07637 0.33980
 H700 H 0.60546 0.10539 0.44878
 H701 H 0.59596 0.16575 0.29161
 H702 H 0.59194 0.11554 0.30527
 H703 H 0.67221 0.15754 0.37452
 H704 H 0.63206 0.14617 0.41499
 C705 C 0.63439 0.65428 -0.16872
 C706 C 0.66529 0.64979 -0.18018
 C707 C 0.68108 0.67197 -0.20127
 C708 C 0.66649 0.69958 -0.21135
 C709 C 0.63541 0.70383 -0.19906
 C710 C 0.61967 0.68151 -0.17836
 C711 C 0.61734 0.63057 -0.14706
 C712 C 0.58662 0.62305 -0.15780
 C713 C 0.57047 0.60069 -0.13763
 C714 C 0.58457 0.58559 -0.10602
 C715 C 0.61518 0.59325 -0.09501
 C716 C 0.63149 0.61540 -0.11550
 H717 H 0.70432 0.66655 -0.21079
 H718 H 0.62320 0.72486 -0.20378
 H719 H 0.54691 0.59524 -0.14679
 H720 H 0.62663 0.58194 -0.07078
 H721 H 0.59604 0.68584 -0.16915
 H722 H 0.57524 0.63419 -0.18221
 H723 H 0.67706 0.62875 -0.17362
 H724 H 0.65504 0.62095 -0.10640
 C725 C 0.85926 -0.15070 -0.17240
 C726 C 0.83327 -0.16520 -0.15637
 C727 C 0.81792 -0.18820 -0.17687
 C728 C 0.82812 -0.19730 -0.21397
 C729 C 0.85369 -0.18236 -0.23044
 C730 C 0.86905 -0.15925 -0.20991
 C731 C 0.87705 -0.12802 -0.14906
 C732 C 0.88897 -0.10171 -0.16636
 C733 C 0.90693 -0.08127 -0.14431
 C734 C 0.91351 -0.08694 -0.10469
 C735 C 0.90108 -0.11290 -0.08731
 C736 C 0.88306 -0.13315 -0.10918
 H737 H 0.79849 -0.19941 -0.16318
 H738 H 0.86188 -0.18858 -0.25916
 H739 H 0.91626 -0.06146 -0.15847
 H740 H 0.90577 -0.11790 -0.05684
 H741 H 0.88915 -0.14868 -0.22292
 H742 H 0.88447 -0.09701 -0.19694
 H743 H 0.82494 -0.15892 -0.12773
 H744 H 0.87461 -0.15335 -0.09507
 C745 C 0.86876 0.33790 0.33967
 C746 C 0.83861 0.32977 0.35137
 C747 C 0.82208 0.30705 0.33180
 C748 C 0.83485 0.29220 0.29929
 C749 C 0.86499 0.30030 0.28755
 C750 C 0.88182 0.32259 0.30768
 C751 C 0.88619 0.36253 0.36030
 C752 C 0.90686 0.38124 0.33983
 C753 C 0.92283 0.40457 0.35896
 C754 C 0.91801 0.41022 0.39878
 C755 C 0.89741 0.39177 0.41940
 C756 C 0.88196 0.36796 0.40051
 H757 H 0.79926 0.30110 0.34239
 H758 H 0.87556 0.28975 0.26241
 H759 H 0.93843 0.41866 0.34233
 H760 H 0.89354 0.39552 0.45026
 H761 H 0.90515 0.32768 0.29812
 H762 H 0.91030 0.37837 0.30877
 H763 H 0.82742 0.34124 0.37538
 H764 H 0.86689 0.35372 0.41761
 C765 C 0.36748 -0.16056 0.33450
 C766 C 0.33894 -0.15376 0.31620
 C767 C 0.32290 -0.17581 0.29480
 C768 C 0.33482 -0.20531 0.29180
 C769 C 0.36346 -0.21200 0.31022
 C770 C 0.37972 -0.18979 0.33108
 C771 C 0.38452 -0.13712 0.35688
 C772 C 0.41622 -0.13193 0.34999
 C773 C 0.43210 -0.10908 0.37013
 C774 C 0.41668 -0.09138 0.39798
 C775 C 0.38515 -0.09701 0.40552
 C776 C 0.36912 -0.11953 0.38486
 H777 H 0.30128 -0.16964 0.28035
 H778 H 0.37306 -0.23458 0.30920
 H779 H 0.45643 -0.10521 0.36385
 H780 H 0.37273 -0.08363 0.42680
 H781 H 0.40160 -0.19558 0.34524
 H782 H 0.42851 -0.14513 0.32839
 H783 H 0.32930 -0.13121 0.31800
 H784 H 0.34472 -0.12332 0.39083
 C785 C 0.36199 0.34251 -0.17123
 C786 C 0.33082 0.33602 -0.16257
 C787 C 0.31465 0.31320 -0.18256
 C788 C 0.32895 0.29613 -0.21244
 C789 C 0.36013 0.30345 -0.22147
 C790 C 0.37635 0.32589 -0.20099
 C791 C 0.37955 0.36635 -0.14932
 C792 C 0.40243 0.38369 -0.16803
 C793 C 0.41947 0.40548 -0.14739
 C794 C 0.41364 0.41095 -0.10775
 C795 C 0.39059 0.39408 -0.08899
 C796 C 0.37392 0.37182 -0.10944
 H797 H 0.29130 0.30845 -0.17294
 H798 H 0.37233 0.29269 -0.24514
 H799 H 0.43690 0.41842 -0.16268
 H800 H 0.38576 0.39778 -0.05835
 H801 H 0.40040 0.32996 -0.20843
 H802 H 0.40700 0.38075 -0.19884
 H803 H 0.31873 0.34858 -0.14021
 H804 H 0.35697 0.35862 -0.09375
 C805 C 1.13821 -0.15384 0.17694
 C806 C 1.16735 -0.16391 0.16429
 C807 C 1.18284 -0.18726 0.18374
 C808 C 1.16952 -0.20163 0.21642
 C809 C 1.14021 -0.19112 0.22907
 C810 C 1.12494 -0.16744 0.20976
 C811 C 1.12106 -0.13035 0.15460
 C812 C 1.10610 -0.10633 0.17371
 C813 C 1.08885 -0.08507 0.15229
 C814 C 1.08586 -0.08781 0.11152
 C815 C 1.10129 -0.11148 0.09244
 C816 C 1.11883 -0.13240 0.11371
 H817 H 1.20462 -0.19483 0.17158
 H818 H 1.12923 -0.20039 0.25467
 H819 H 1.07704 -0.06710 0.16771
 H820 H 1.09937 -0.11414 0.06103
 H821 H 1.10239 -0.16015 0.22005
 H822 H 1.10766 -0.10413 0.20520
 H823 H 1.17810 -0.15383 0.13899
 H824 H 1.12988 -0.15080 0.09824
 C825 C 1.12949 0.33829 0.66603
 C826 C 1.15956 0.32980 0.65434
 C827 C 1.17592 0.30710 0.67406
 C828 C 1.16301 0.29261 0.70663
 C829 C 1.13311 0.30138 0.71868
 C830 C 1.11648 0.32365 0.69844
 C831 C 1.11193 0.36236 0.64465
 C832 C 1.09132 0.38164 0.66450
 C833 C 1.07517 0.40437 0.64451
 C834 C 1.07975 0.40881 0.60441
 C835 C 1.10019 0.38970 0.58443
 C836 C 1.11582 0.36653 0.60419
 H837 H 1.19861 0.30072 0.66337
 H838 H 1.12251 0.29117 0.74396
 H839 H 1.05971 0.41900 0.66066
 H840 H 1.10390 0.39251 0.55339
 H841 H 1.09324 0.32912 0.70810
 H842 H 1.08808 0.37966 0.69570
 H843 H 1.17073 0.34084 0.63006
 H844 H 1.13080 0.35178 0.58756
 C845 C 0.62857 -0.16413 0.66407
 C846 C 0.65997 -0.16959 0.65561
 C847 C 0.67687 -0.19171 0.67569
 C848 C 0.66314 -0.20903 0.70560
 C849 C 0.63147 -0.20326 0.71392
 C850 C 0.61452 -0.18138 0.69337
 C851 C 0.61077 -0.14028 0.64274
 C852 C 0.58816 -0.12285 0.66195
 C853 C 0.57218 -0.09987 0.64219
 C854 C 0.57879 -0.09349 0.60301
 C855 C 0.60107 -0.11099 0.58361
 C856 C 0.61668 -0.13427 0.60313
 H857 H 0.70049 -0.19555 0.66638
 H858 H 0.61961 -0.21467 0.73733
 H859 H 0.55522 -0.08659 0.65790
 H860 H 0.60639 -0.10672 0.55326
 H861 H 0.59028 -0.17805 0.70054
 H862 H 0.58329 -0.12641 0.69255
 H863 H 0.67179 -0.15656 0.63354
 H864 H 0.63334 -0.14762 0.58705
 C865 C 0.63326 0.34326 0.17251
 C866 C 0.66281 0.33350 0.16039
 C867 C 0.67917 0.31148 0.18140
 C868 C 0.66682 0.29902 0.21568
 C869 C 0.63769 0.30943 0.22844
 C870 C 0.62100 0.33092 0.20693
 C871 C 0.61526 0.36600 0.14930
 C872 C 0.59493 0.38634 0.16780
 C873 C 0.57784 0.40737 0.14604
 C874 C 0.58124 0.40913 0.10540
 C875 C 0.60159 0.38915 0.08675
 C876 C 0.61811 0.36757 0.10836
 H877 H 0.70129 0.30384 0.17020
 H878 H 0.62759 0.30098 0.25508
 H879 H 0.56252 0.42280 0.16116
 H880 H 0.60443 0.38997 0.05535
 H881 H 0.59819 0.33740 0.21711
 H882 H 0.59251 0.38645 0.19924
 H883 H 0.67348 0.34284 0.13461
 H884 H 0.63284 0.35193 0.09277
 C885 C 0.86139 0.14950 0.17939
 C886 C 0.87155 0.15822 0.21698
 C887 C 0.85616 0.18119 0.23728
 C888 C 0.83022 0.19580 0.22048
 C889 C 0.81972 0.18655 0.18327
 C890 C 0.83507 0.16369 0.16303
 C891 C 0.87910 0.12697 0.15629
 C892 C 0.88459 0.13215 0.11648
 C893 C 0.90236 0.11197 0.09476
 C894 C 0.91507 0.08604 0.11223
 C895 C 0.90905 0.08033 0.15180
 C896 C 0.89132 0.10071 0.17371
 H897 H 0.86460 0.18757 0.26607
 H898 H 0.80001 0.19752 0.16931
 H899 H 0.90663 0.11700 0.06433
 H900 H 0.91862 0.06054 0.16602
 H901 H 0.82648 0.15726 0.13432
 H902 H 0.87589 0.15234 0.10231
 H903 H 0.89191 0.14787 0.23022
 H904 H 0.88722 0.09599 0.20425
 C905 C 0.86889 0.66304 0.66478
 C906 C 0.88164 0.67790 0.69769
 C907 C 0.86428 0.69927 0.71834
 C908 C 0.83384 0.70687 0.70630
 C909 C 0.82126 0.69228 0.67311
 C910 C 0.83836 0.67051 0.65294
 C911 C 0.88710 0.63968 0.64318
 C912 C 0.88279 0.63543 0.60263
 C913 C 0.89888 0.61275 0.58274
 C914 C 0.92020 0.59419 0.60267
 C915 C 0.92519 0.59876 0.64285
 C916 C 0.90863 0.62101 0.66295
 H917 H 0.87473 0.70958 0.74402
 H918 H 0.79817 0.69782 0.66232
 H919 H 0.89481 0.60986 0.55165
 H920 H 0.94133 0.58459 0.65900
 H921 H 0.82738 0.65931 0.62827
 H922 H 0.86709 0.64972 0.58605
 H923 H 0.90520 0.67325 0.70749
 H924 H 0.91225 0.62302 0.69419
 C925 C 0.36610 0.15693 0.66751
 C926 C 0.37822 0.16995 0.70203
 C927 C 0.36100 0.19112 0.72305
 C928 C 0.33147 0.20050 0.70966
 C929 C 0.31936 0.18752 0.67514
 C930 C 0.33626 0.16582 0.65462
 C931 C 0.38442 0.13420 0.64513
 C932 C 0.38144 0.13197 0.60416
 C933 C 0.39802 0.11014 0.58339
 C934 C 0.41853 0.09059 0.60296
 C935 C 0.42212 0.09307 0.64362
 C936 C 0.40499 0.11435 0.66454
 H937 H 0.37094 0.20006 0.74988
 H938 H 0.29694 0.19442 0.66349
 H939 H 0.39506 0.10877 0.55195
 H940 H 0.43757 0.07799 0.65943
 H941 H 0.32573 0.15595 0.62871
 H942 H 0.36650 0.14723 0.58793
 H943 H 0.40125 0.16414 0.71274
 H944 H 0.40750 0.11477 0.69603
 C945 C 0.36702 0.65670 0.16588
 C946 C 0.38008 0.67022 0.19952
 C947 C 0.36345 0.69165 0.22082
 C948 C 0.33354 0.70086 0.20863
 C949 C 0.32048 0.68747 0.17489
 C950 C 0.33686 0.66551 0.15404
 C951 C 0.38476 0.63355 0.14342
 C952 C 0.38095 0.63070 0.10261
 C953 C 0.39733 0.60872 0.08180
 C954 C 0.41842 0.58958 0.10114
 C955 C 0.42268 0.59258 0.14166
 C956 C 0.40580 0.61403 0.16262
 H957 H 0.37415 0.70089 0.24701
 H958 H 0.29773 0.69419 0.16414
 H959 H 0.39378 0.60693 0.05049
 H960 H 0.43855 0.57783 0.15734
 H961 H 0.32567 0.65532 0.12877
 H962 H 0.36556 0.64564 0.08654
 H963 H 0.40338 0.66456 0.20936
 H964 H 0.40893 0.61488 0.19402
   
