data_POSCAR
  _audit_creation_date              2014-09-24
  _audit_creation_method            'ToBaCCo'
  _symmetry_space_group_name_H-M    'P1'
  _symmetry_Int_Tables_number       1
  _symmetry_cell_setting            triclinic
  loop_
  _symmetry_equiv_pos_as_xyz
 x,y,z
_cell_length_a 49.3803
_cell_length_b 58.2176
_cell_length_c 15.7780
_cell_angle_alpha 90.227300
_cell_angle_beta 90.294900
_cell_angle_gamma 90.215700
loop_
  _atom_site_label
  _atom_site_type_symbol
  _atom_site_fract_x
  _atom_site_fract_y
  _atom_site_fract_z
C1 C 0.17888 0.24901 0.17384
 C2 C 0.19277 0.22783 0.17438
 C3 C 0.21951 0.22768 0.20722
 C4 C 0.23129 0.24749 0.24399
 C5 C 0.21594 0.26779 0.24695
 C6 C 0.19018 0.26891 0.20989
 C7 C 0.25949 0.24723 0.27961
 C8 C 0.27524 0.26741 0.28016
 C9 C 0.30101 0.26798 0.31751
 C10 C 0.31187 0.24773 0.35117
 C11 C 0.29731 0.22683 0.34801
 C12 C 0.27081 0.22706 0.31374
 H13 H 0.15960 0.25052 0.14165
 H14 H 0.23107 0.21202 0.20685
 H15 H 0.22384 0.28288 0.27892
 H16 H 0.26772 0.28284 0.25031
 H17 H 0.33221 0.24832 0.37681
 H18 H 0.25849 0.21173 0.31749
 C19 C 0.81977 0.24861 0.16715
 C20 C 0.80771 0.26911 0.19425
 C21 C 0.78089 0.26854 0.22308
 C22 C 0.76545 0.24813 0.22063
 C23 C 0.77804 0.22778 0.19261
 C24 C 0.80541 0.22776 0.16828
 C25 C 0.73642 0.24834 0.24802
 C26 C 0.72409 0.22879 0.28404
 C27 C 0.69671 0.22902 0.31020
 C28 C 0.68260 0.25002 0.30456
 C29 C 0.69439 0.26962 0.26883
 C30 C 0.72091 0.26840 0.23854
 H31 H 0.84034 0.24889 0.14371
 H32 H 0.77227 0.28412 0.24879
 H33 H 0.76681 0.21182 0.19037
 H34 H 0.73579 0.21329 0.28946
 H35 H 0.66270 0.25171 0.33203
 H36 H 0.72934 0.28326 0.20706
 C37 C 0.67971 0.75018 0.66519
 C38 C 0.69338 0.72910 0.66773
 C39 C 0.71955 0.72834 0.70327
 C40 C 0.73144 0.74804 0.74062
 C41 C 0.71644 0.76861 0.74137
 C42 C 0.69098 0.77000 0.70196
 C43 C 0.75923 0.74723 0.77931
 C44 C 0.77565 0.76711 0.78226
 C45 C 0.80116 0.76722 0.82310
 C46 C 0.81080 0.74632 0.85625
 C47 C 0.79548 0.72605 0.85005
 C48 C 0.76952 0.72676 0.81384
 H49 H 0.66029 0.75123 0.63328
 H50 H 0.73042 0.71227 0.70240
 H51 H 0.72421 0.78364 0.77397
 H52 H 0.76799 0.78280 0.75525
 H53 H 0.83110 0.74529 0.88213
 H54 H 0.75740 0.71125 0.81389
 C55 C 0.32031 0.74956 0.66805
 C56 C 0.30855 0.76976 0.69924
 C57 C 0.28246 0.76872 0.73382
 C58 C 0.26743 0.74808 0.73386
 C59 C 0.27970 0.72805 0.70150
 C60 C 0.30640 0.72852 0.67100
 C61 C 0.23931 0.74753 0.76915
 C62 C 0.22859 0.72740 0.80559
 C63 C 0.20232 0.72688 0.84056
 C64 C 0.18740 0.74750 0.84218
 C65 C 0.19757 0.76770 0.80583
 C66 C 0.22313 0.76737 0.76772
 H67 H 0.34031 0.75022 0.64032
 H68 H 0.27421 0.78407 0.76243
 H69 H 0.26877 0.71193 0.70102
 H70 H 0.24122 0.71236 0.81069
 H71 H 0.16729 0.74784 0.86880
 H72 H 0.23017 0.78268 0.73594
 O73 O 0.97282 -0.01954 -0.12824
 O74 O 1.02590 0.02463 -0.10232
 O75 O 1.02535 -0.01951 -0.13419
 O76 O 0.97329 0.02455 -0.09581
 O77 O 0.97488 0.01694 0.04096
 O78 O 1.02724 -0.02656 0.00297
 O79 O 1.02765 0.01746 0.03474
 O80 O 0.97511 -0.02702 0.00858
 Cu81 Cu 0.99916 0.00330 -0.12888
 Cu82 Cu 1.00141 -0.00542 0.03559
 C83 C 0.96522 -0.03111 -0.06443
 C84 C 1.03572 0.02872 -0.02921
 C85 C 1.03490 -0.03081 -0.07216
 C86 C 0.96522 0.02829 -0.02069
 O87 O 0.52713 0.47546 0.47322
 O88 O 0.47518 0.51887 0.51696
 O89 O 0.47496 0.47517 0.48151
 O90 O 0.52790 0.51925 0.50878
 O91 O 0.52526 0.52750 0.37267
 O92 O 0.47262 0.48304 0.34504
 O93 O 0.47270 0.52700 0.38071
 O94 O 0.52506 0.48358 0.33690
 Cu95 Cu 0.50156 0.49647 0.50881
 Cu96 Cu 0.49867 0.50613 0.34516
 C97 C 0.53471 0.47181 0.39758
 C98 C 0.46507 0.53042 0.45652
 C99 C 0.46501 0.47130 0.40842
 C100 C 0.53552 0.53104 0.44558
 O101 O -0.02520 0.47808 0.00448
 O102 O 0.02755 0.52190 -0.02697
 O103 O 0.02685 0.47819 0.00702
 O104 O -0.02550 0.52189 -0.02919
 O105 O -0.02588 0.52994 0.10753
 O106 O 0.02672 0.48624 0.14377
 O107 O 0.02679 0.53025 0.10954
 O108 O -0.02575 0.48598 0.14133
 Cu109 Cu 0.00095 0.49938 -0.02499
 Cu110 Cu 0.00044 0.50898 0.13922
 C111 C -0.03410 0.47416 0.07844
 C112 C 0.03618 0.53359 0.03577
 C113 C 0.03537 0.47441 0.08174
 C114 C -0.03468 0.53338 0.03288
 O115 O 0.52684 0.98678 0.64112
 O116 O 0.47451 1.03088 0.60852
 O117 O 0.47434 0.98679 0.64084
 O118 O 0.52716 1.03076 0.60863
 O119 O 0.52675 1.02325 0.47151
 O120 O 0.47451 0.97901 0.50389
 O121 O 0.47377 1.02282 0.47174
 O122 O 0.52666 0.97935 0.50390
 Cu123 Cu 0.50073 1.00963 0.63849
 Cu124 Cu 0.50042 1.00048 0.47393
 C125 C 0.53542 0.97527 0.57816
 C126 C 0.46516 1.03434 0.53453
 C127 C 0.46578 0.97506 0.57800
 C128 C 0.53593 1.03458 0.53442
 C129 C 1.15344 0.16651 0.08786
 C130 C 1.13839 0.18543 0.11541
 C131 C 1.15129 0.20544 0.14325
 C132 C 1.17987 0.20741 0.14390
 C133 C 1.19484 0.18818 0.11544
 C134 C 1.18178 0.16805 0.08825
 C135 C 1.13933 0.14513 0.06100
 C136 C 1.14802 0.12363 0.09048
 C137 C 1.13316 0.10375 0.07127
 C138 C 1.10951 0.10497 0.02154
 C139 C 1.10140 0.12639 -0.01031
 C140 C 1.11611 0.14625 0.00941
 C141 C 1.09245 0.08430 0.00648
 C142 C 1.08060 0.08022 -0.07336
 C143 C 1.06276 0.06179 -0.08558
 C144 C 1.05623 0.04714 -0.01803
 C145 C 1.06864 0.05087 0.06125
 C146 C 1.08661 0.06922 0.07329
 H147 H 1.11649 0.18451 0.11791
 H148 H 1.13846 0.21885 0.16814
 H149 H 1.21666 0.18864 0.11092
 H150 H 1.19387 0.15375 0.06628
 H151 H 1.16576 0.12230 0.13077
 H152 H 1.14000 0.08743 0.09603
 H153 H 1.08314 0.12791 -0.04814
 H154 H 1.10911 0.16258 -0.01481
 H155 H 1.08497 0.09143 -0.12621
 H156 H 1.05361 0.05935 -0.14750
 H157 H 1.06407 0.03988 0.11454
 H158 H 1.09520 0.07208 0.13575
 C159 C 0.65305 0.66779 0.57702
 C160 C 0.63862 0.68505 0.61930
 C161 C 0.65180 0.70476 0.64875
 C162 C 0.67974 0.70790 0.63568
 C163 C 0.69422 0.69056 0.59331
 C164 C 0.68102 0.67063 0.56473
 C165 C 0.63873 0.64685 0.54718
 C166 C 0.64901 0.62493 0.56514
 C167 C 0.63412 0.60524 0.54348
 C168 C 0.60891 0.60715 0.50240
 C169 C 0.59913 0.62907 0.48190
 C170 C 0.61382 0.64871 0.50443
 C171 C 0.59203 0.58654 0.48490
 C172 C 0.57833 0.58408 0.40712
 C173 C 0.56060 0.56565 0.39338
 C174 C 0.55598 0.54944 0.45752
 C175 C 0.57022 0.55159 0.53455
 C176 C 0.58816 0.56989 0.54793
 H177 H 0.61715 0.68308 0.63103
 H178 H 0.64011 0.71741 0.68306
 H179 H 0.71567 0.69250 0.58125
 H180 H 0.69255 0.65758 0.53189
 H181 H 0.66809 0.62307 0.59848
 H182 H 0.64218 0.58853 0.55951
 H183 H 0.57965 0.63105 0.45097
 H184 H 0.60556 0.66542 0.48935
 H185 H 0.58114 0.59658 0.35723
 H186 H 0.54997 0.56447 0.33331
 H187 H 0.56716 0.53934 0.58511
 H188 H 0.59826 0.57150 0.60876
 C189 C -0.14758 0.33267 0.17638
 C190 C -0.17551 0.33210 0.15951
 C191 C -0.19006 0.31156 0.16640
 C192 C -0.17703 0.29118 0.19106
 C193 C -0.14918 0.29195 0.21007
 C194 C -0.13461 0.31245 0.20243
 C195 C -0.13181 0.35409 0.16375
 C196 C -0.10704 0.35344 0.12055
 C197 C -0.09243 0.37361 0.10618
 C198 C -0.10216 0.39484 0.13533
 C199 C -0.12678 0.39551 0.17947
 C200 C -0.14158 0.37532 0.19303
 C201 C -0.08648 0.41614 0.11956
 C202 C -0.08181 0.43214 0.18494
 C203 C -0.06534 0.45137 0.17121
 C204 C -0.05349 0.45507 0.09155
 C205 C -0.05901 0.43946 0.02544
 C206 C -0.07523 0.42016 0.03942
 H207 H -0.18594 0.34739 0.13837
 H208 H -0.21138 0.31152 0.15003
 H209 H -0.13862 0.27670 0.23089
 H210 H -0.11315 0.31251 0.21701
 H211 H -0.09918 0.33734 0.09657
 H212 H -0.07336 0.37259 0.07278
 H213 H -0.13476 0.41168 0.20228
 H214 H -0.16056 0.37626 0.22691
 H215 H -0.09016 0.42937 0.24742
 H216 H -0.06148 0.46309 0.22339
 H217 H -0.05021 0.44179 -0.03668
 H218 H -0.07882 0.40825 -0.01237
 C219 C 0.35243 0.83364 0.67815
 C220 C 0.32423 0.83303 0.66619
 C221 C 0.30994 0.81238 0.67425
 C222 C 0.32352 0.79195 0.69509
 C223 C 0.35164 0.79277 0.70940
 C224 C 0.36593 0.81336 0.70067
 C225 C 0.36789 0.85516 0.66416
 C226 C 0.39200 0.85471 0.61735
 C227 C 0.40647 0.87492 0.60255
 C228 C 0.39728 0.89600 0.63475
 C229 C 0.37328 0.89648 0.68216
 C230 C 0.35861 0.87625 0.69626
 C231 C 0.41297 0.91731 0.61912
 C232 C 0.41847 0.93287 0.68533
 C233 C 0.43506 0.95202 0.67166
 C234 C 0.44626 0.95607 0.59129
 C235 C 0.43990 0.94091 0.52446
 C236 C 0.42353 0.92171 0.53832
 H237 H 0.31337 0.84837 0.64797
 H238 H 0.28836 0.81230 0.66174
 H239 H 0.36263 0.77747 0.72734
 H240 H 0.38761 0.81344 0.71160
 H241 H 0.39947 0.83874 0.59114
 H242 H 0.42507 0.87402 0.56661
 H243 H 0.36571 0.91253 0.70736
 H244 H 0.34015 0.87703 0.73293
 H245 H 0.41069 0.92980 0.74834
 H246 H 0.43957 0.96339 0.72441
 H247 H 0.44815 0.94354 0.46176
 H248 H 0.41930 0.91015 0.48592
 C249 C -0.16449 0.66321 -0.08252
 C250 C -0.16410 0.68204 -0.02655
 C251 C -0.17786 0.70224 -0.04696
 C252 C -0.19251 0.70390 -0.12327
 C253 C -0.19386 0.68471 -0.17743
 C254 C -0.17988 0.66461 -0.15746
 C255 C -0.14757 0.64275 -0.06533
 C256 C -0.13143 0.63340 -0.12974
 C257 C -0.11425 0.61495 -0.11304
 C258 C -0.11298 0.60523 -0.03164
 C259 C -0.12955 0.61435 0.03245
 C260 C -0.14655 0.63300 0.01587
 C261 C -0.09387 0.58612 -0.01346
 C262 C -0.08014 0.58498 0.06475
 C263 C -0.06130 0.56761 0.08038
 C264 C -0.05554 0.55112 0.01785
 C265 C -0.06947 0.55204 -0.05989
 C266 C -0.08852 0.56924 -0.07517
 H267 H -0.15228 0.68147 0.03139
 H268 H -0.17665 0.71675 -0.00390
 H269 H -0.20483 0.68558 -0.23695
 H270 H -0.18071 0.65025 -0.20128
 H271 H -0.13148 0.64084 -0.19256
 H272 H -0.10142 0.60873 -0.16350
 H273 H -0.12947 0.60705 0.09544
 H274 H -0.15898 0.63976 0.06644
 H275 H -0.08339 0.59786 0.11326
 H276 H -0.05078 0.56743 0.14078
 H277 H -0.06566 0.53944 -0.10903
 H278 H -0.09909 0.56929 -0.13545
 C279 C 0.33682 1.16517 0.42144
 C280 C 0.31642 1.16473 0.35937
 C281 C 0.30260 1.18481 0.33777
 C282 C 0.30935 1.20607 0.37619
 C283 C 0.32942 1.20609 0.44042
 C284 C 0.34277 1.18589 0.46306
 C285 C 0.35299 1.14439 0.43952
 C286 C 0.35762 1.13731 0.52323
 C287 C 0.37422 1.11844 0.54007
 C288 C 0.38698 1.10651 0.47358
 C289 C 0.38200 1.11358 0.38971
 C290 C 0.36503 1.13218 0.37291
 C291 C 0.40609 1.08733 0.49146
 C292 C 0.40852 1.06874 0.43469
 C293 C 0.42760 1.05148 0.44890
 C294 C 0.44434 1.05215 0.52103
 C295 C 0.44149 1.07031 0.57907
 C296 C 0.42277 1.08780 0.56411
 H297 H 0.31147 1.14888 0.32655
 H298 H 0.28787 1.18373 0.28687
 H299 H 0.33463 1.22159 0.47489
 H300 H 0.35839 1.18661 0.51148
 H301 H 0.34835 1.14639 0.57557
 H302 H 0.37705 1.11325 0.60529
 H303 H 0.39184 1.10522 0.33687
 H304 H 0.36204 1.13754 0.30787
 H305 H 0.39565 1.06745 0.37912
 H306 H 0.42917 1.03754 0.40355
 H307 H 0.45429 1.07134 0.63492
 H308 H 0.42194 1.10200 0.60849
 C309 C 1.15087 -0.17004 -0.17695
 C310 C 1.17914 -0.16944 -0.16719
 C311 C 1.19431 -0.18957 -0.17410
 C312 C 1.18155 -0.21073 -0.19151
 C313 C 1.15332 -0.21117 -0.20366
 C314 C 1.13815 -0.19107 -0.19610
 C315 C 1.13457 -0.14901 -0.16386
 C316 C 1.11090 -0.14990 -0.11496
 C317 C 1.09584 -0.13006 -0.10019
 C318 C 1.10400 -0.10892 -0.13447
 C319 C 1.12748 -0.10803 -0.18426
 C320 C 1.14273 -0.12788 -0.19837
 C321 C 1.08790 -0.08795 -0.11793
 C322 C 1.08133 -0.07281 -0.18397
 C323 C 1.06460 -0.05389 -0.16894
 C324 C 1.05437 -0.04964 -0.08738
 C325 C 1.06174 -0.06439 -0.02090
 C326 C 1.07823 -0.08337 -0.03608
 H327 H 1.18943 -0.15351 -0.15148
 H328 H 1.21597 -0.18868 -0.16335
 H329 H 1.14293 -0.22707 -0.21899
 H330 H 1.11642 -0.19195 -0.20523
 H331 H 1.10429 -0.16590 -0.08687
 H332 H 1.07765 -0.13127 -0.06237
 H333 H 1.13426 -0.09193 -0.21110
 H334 H 1.16082 -0.12676 -0.23670
 H335 H 1.08842 -0.07602 -0.24775
 H336 H 1.05930 -0.04284 -0.22147
 H337 H 1.05424 -0.06161 0.04268
 H338 H 1.08331 -0.09459 0.01619
 C339 C 0.64934 0.33279 0.27808
 C340 C 0.67747 0.33291 0.29161
 C341 C 0.69224 0.31251 0.28625
 C342 C 0.67919 0.29162 0.26668
 C343 C 0.65121 0.29175 0.24969
 C344 C 0.63645 0.31209 0.25567
 C345 C 0.63324 0.35388 0.29225
 C346 C 0.60924 0.35278 0.33942
 C347 C 0.59444 0.37263 0.35616
 C348 C 0.60320 0.39401 0.32561
 C349 C 0.62699 0.39513 0.27730
 C350 C 0.64201 0.37524 0.26129
 C351 C 0.58744 0.41498 0.34480
 C352 C 0.58111 0.43080 0.28079
 C353 C 0.56449 0.44965 0.29816
 C354 C 0.55415 0.45311 0.38009
 C355 C 0.56136 0.43770 0.44465
 C356 C 0.57772 0.41880 0.42710
 H357 H 0.68787 0.34860 0.30979
 H358 H 0.71370 0.31297 0.30071
 H359 H 0.64066 0.27604 0.23276
 H360 H 0.61484 0.31161 0.24361
 H361 H 0.60218 0.33659 0.36486
 H362 H 0.57601 0.37126 0.39275
 H363 H 0.63421 0.41143 0.25330
 H364 H 0.66039 0.37652 0.22446
 H365 H 0.58827 0.42817 0.21673
 H366 H 0.55932 0.46124 0.24711
 H367 H 0.55379 0.43988 0.50846
 H368 H 0.58262 0.40702 0.47783
 C369 C 0.84645 -0.17075 -0.14850
 C370 C 0.84884 -0.18842 -0.08889
 C371 C 0.83436 -0.20890 -0.09904
 C372 C 0.81664 -0.21223 -0.16869
 C373 C 0.81449 -0.19429 -0.22850
 C374 C 0.82934 -0.17395 -0.21874
 C375 C 0.86185 -0.14906 -0.13715
 C376 C 0.87637 -0.13953 -0.20478
 C377 C 0.89178 -0.11957 -0.19294
 C378 C 0.89275 -0.10856 -0.11339
 C379 C 0.87762 -0.11787 -0.04638
 C380 C 0.86248 -0.13796 -0.05801
 C381 C 0.91017 -0.08794 -0.09959
 C382 C 0.92420 -0.08488 -0.02254
 C383 C 0.94145 -0.06608 -0.01047
 C384 C 0.94536 -0.05000 -0.07544
 C385 C 0.93109 -0.05281 -0.15207
 C386 C 0.91358 -0.07151 -0.16386
 H387 H 0.86203 -0.18640 -0.03428
 H388 H 0.83628 -0.22162 -0.04957
 H389 H 0.80215 -0.19607 -0.28497
 H390 H 0.82723 -0.16057 -0.26580
 H391 H 0.87640 -0.14790 -0.26621
 H392 H 0.90352 -0.11314 -0.24558
 H393 H 0.87741 -0.10961 0.01520
 H394 H 0.85111 -0.14479 -0.00521
 H395 H 0.92248 -0.09736 0.02783
 H396 H 0.95232 -0.06450 0.04908
 H397 H 0.93357 -0.04063 -0.20317
 H398 H 0.90274 -0.07309 -0.22342
 C399 C 0.34608 0.33144 0.33313
 C400 C 0.31816 0.33098 0.34978
 C401 C 0.30355 0.31043 0.34397
 C402 C 0.31654 0.28986 0.32149
 C403 C 0.34442 0.29034 0.30407
 C404 C 0.35902 0.31091 0.30978
 C405 C 0.36176 0.35315 0.34163
 C406 C 0.38204 0.35873 0.28293
 C407 C 0.39734 0.37883 0.29251
 C408 C 0.39274 0.39378 0.36109
 C409 C 0.37222 0.38835 0.41914
 C410 C 0.35690 0.36827 0.40949
 C411 C 0.40992 0.41451 0.37358
 C412 C 0.41935 0.42052 0.45491
 C413 C 0.43671 0.43928 0.46640
 C414 C 0.44504 0.45250 0.39682
 C415 C 0.43512 0.44683 0.31570
 C416 C 0.41777 0.42802 0.30420
 H417 H 0.30756 0.34655 0.36702
 H418 H 0.28214 0.31056 0.35844
 H419 H 0.35492 0.27483 0.28566
 H420 H 0.38057 0.31066 0.29740
 H421 H 0.38606 0.34756 0.22948
 H422 H 0.41319 0.38241 0.24724
 H423 H 0.36803 0.39963 0.47216
 H424 H 0.34160 0.36435 0.45623
 H425 H 0.41393 0.41029 0.50949
 H426 H 0.44402 0.44314 0.52971
 H427 H 0.44111 0.45669 0.26080
 H428 H 0.41055 0.42400 0.24093
 C429 C 0.16407 0.66499 -0.08081
 C430 C 0.15807 0.68583 -0.04046
 C431 C 0.17108 0.70610 -0.06461
 C432 C 0.19082 0.70607 -0.12919
 C433 C 0.19772 0.68472 -0.16607
 C434 C 0.18425 0.66455 -0.14291
 C435 C 0.14807 0.64412 -0.06176
 C436 C 0.13602 0.63150 -0.12790
 C437 C 0.11915 0.61282 -0.11038
 C438 C 0.11428 0.60607 -0.02620
 C439 C 0.12704 0.61841 0.03987
 C440 C 0.14354 0.63737 0.02226
 C441 C 0.09527 0.58678 -0.00770
 C442 C 0.07860 0.58740 0.06441
 C443 C 0.05988 0.56983 0.07962
 C444 C 0.05705 0.55145 0.02237
 C445 C 0.07383 0.55061 -0.04908
 C446 C 0.09290 0.56794 -0.06352
 H447 H 0.14263 0.68656 0.00799
 H448 H 0.16581 0.72170 -0.03117
 H449 H 0.21223 0.68360 -0.21708
 H450 H 0.18926 0.64861 -0.17471
 H451 H 0.13889 0.63660 -0.19320
 H452 H 0.10929 0.60414 -0.16295
 H453 H 0.12428 0.61348 0.10532
 H454 H 0.15281 0.64677 0.07427
 H455 H 0.07941 0.60177 0.10807
 H456 H 0.04705 0.57098 0.13493
 H457 H 0.07228 0.53650 -0.09378
 H458 H 0.10578 0.56654 -0.11859
 C459 C 0.65623 1.16892 0.39998
 C460 C 0.64162 1.18720 0.36535
 C461 C 0.65490 1.20673 0.33582
 C462 C 0.68344 1.20889 0.34085
 C463 C 0.69797 1.19022 0.37579
 C464 C 0.68453 1.17052 0.40446
 C465 C 0.64168 1.14818 0.42970
 C466 C 0.65021 1.12614 0.40539
 C467 C 0.63490 1.10678 0.42702
 C468 C 0.61100 1.10911 0.47428
 C469 C 0.60306 1.13109 0.50111
 C470 C 0.61818 1.15043 0.47876
 C471 C 0.59351 1.08894 0.49187
 C472 C 0.58163 1.08610 0.57188
 C473 C 0.56345 1.06809 0.58637
 C474 C 0.55658 1.05267 0.52086
 C475 C 0.56895 1.05522 0.44138
 C476 C 0.58731 1.07310 0.42716
 H477 H 0.61979 1.18615 0.35905
 H478 H 0.64247 1.21960 0.30564
 H479 H 0.71967 1.19086 0.38455
 H480 H 0.69625 1.15667 0.43174
 H481 H 0.66818 1.12398 0.36716
 H482 H 0.64156 1.09000 0.40610
 H483 H 0.58462 1.13342 0.53693
 H484 H 0.61130 1.16722 0.49886
 H485 H 0.58624 1.09796 0.62308
 H486 H 0.55432 1.06658 0.64835
 H487 H 0.56415 1.04358 0.38970
 H488 H 0.59595 1.07502 0.36463
 C489 C 0.14660 0.33271 0.18978
 C490 C 0.17489 0.33231 0.18137
 C491 C 0.18908 0.31169 0.18935
 C492 C 0.17529 0.29105 0.20652
 C493 C 0.14705 0.29162 0.21734
 C494 C 0.13286 0.31220 0.20876
 C495 C 0.13132 0.35423 0.17542
 C496 C 0.10764 0.35393 0.12575
 C497 C 0.09346 0.37418 0.11014
 C498 C 0.10256 0.39518 0.14426
 C499 C 0.12610 0.39549 0.19465
 C500 C 0.14045 0.37522 0.20965
 C501 C 0.08727 0.41655 0.12735
 C502 C 0.08145 0.43205 0.19323
 C503 C 0.06521 0.45126 0.17812
 C504 C 0.05468 0.45544 0.09666
 C505 C 0.06140 0.44037 0.03025
 C506 C 0.07743 0.42112 0.04550
 H507 H 0.18594 0.34782 0.16581
 H508 H 0.21076 0.31181 0.17944
 H509 H 0.13589 0.27612 0.23220
 H510 H 0.11110 0.31210 0.21688
 H511 H 0.10029 0.33805 0.09783
 H512 H 0.07520 0.37340 0.07191
 H513 H 0.13359 0.41147 0.22142
 H514 H 0.15858 0.37590 0.24853
 H515 H 0.08867 0.42886 0.25701
 H516 H 0.06041 0.46255 0.23061
 H517 H 0.05368 0.44310 -0.03327
 H518 H 0.08195 0.40963 -0.00668
 C519 C 0.64780 0.83393 0.67995
 C520 C 0.67614 0.83347 0.67328
 C521 C 0.69021 0.81281 0.68196
 C522 C 0.67624 0.79219 0.69803
 C523 C 0.64794 0.79283 0.70719
 C524 C 0.63389 0.81345 0.69797
 C525 C 0.63264 0.85549 0.66517
 C526 C 0.60914 0.85526 0.61464
 C527 C 0.59489 0.87549 0.59950
 C528 C 0.60372 0.89641 0.63493
 C529 C 0.62716 0.89667 0.68582
 C530 C 0.64159 0.87641 0.70039
 C531 C 0.58816 0.91772 0.61938
 C532 C 0.58221 0.93286 0.68625
 C533 C 0.56568 0.95196 0.67255
 C534 C 0.55495 0.95639 0.59154
 C535 C 0.56177 0.94169 0.52411
 C536 C 0.57812 0.92254 0.53795
 H537 H 0.68734 0.84897 0.65859
 H538 H 0.71196 0.81286 0.67349
 H539 H 0.63663 0.77736 0.72133
 H540 H 0.61208 0.81338 0.70487
 H541 H 0.60195 0.83943 0.58593
 H542 H 0.57672 0.87473 0.56086
 H543 H 0.63446 0.91258 0.71357
 H544 H 0.65957 0.87704 0.73995
 H545 H 0.58956 0.92946 0.74975
 H546 H 0.56082 0.96297 0.72579
 H547 H 0.55391 0.94463 0.46089
 H548 H 0.58271 0.91134 0.48503
 C549 C 0.84672 0.16449 0.10930
 C550 C 0.85963 0.18198 0.15619
 C551 C 0.84617 0.20237 0.17495
 C552 C 0.81948 0.20596 0.14674
 C553 C 0.80653 0.18855 0.09941
 C554 C 0.82002 0.16803 0.08086
 C555 C 0.86130 0.14277 0.09034
 C556 C 0.85879 0.13201 0.01073
 C557 C 0.87375 0.11228 -0.00810
 C558 C 0.89158 0.10288 0.05221
 C559 C 0.89362 0.11341 0.13234
 C560 C 0.87860 0.13301 0.15125
 C561 C 0.90878 0.08273 0.03121
 C562 C 0.91467 0.06609 0.09296
 C563 C 0.93259 0.04820 0.07554
 C564 C 0.94486 0.04636 -0.00431
 C565 C 0.93829 0.06249 -0.06709
 C566 C 0.92053 0.08052 -0.04943
 H567 H 0.88032 0.18000 0.17795
 H568 H 0.85662 0.21526 0.21258
 H569 H 0.78607 0.19086 0.07610
 H570 H 0.80943 0.15483 0.04516
 H571 H 0.84579 0.13917 -0.03781
 H572 H 0.87142 0.10444 -0.07005
 H573 H 0.90738 0.10686 0.18003
 H574 H 0.88068 0.14062 0.21368
 H575 H 0.90555 0.06698 0.15513
 H576 H 0.93703 0.03590 0.12499
 H577 H 0.94749 0.06157 -0.12917
 H578 H 0.91674 0.09317 -0.09814
 C579 C 0.34745 0.66586 0.60259
 C580 C 0.32024 0.66918 0.57895
 C581 C 0.30683 0.68954 0.60040
 C582 C 0.32039 0.70700 0.64575
 C583 C 0.34762 0.70366 0.66886
 C584 C 0.36098 0.68343 0.64729
 C585 C 0.36189 0.64425 0.58127
 C586 C 0.38010 0.63455 0.63962
 C587 C 0.39495 0.61502 0.61847
 C588 C 0.39184 0.60454 0.53859
 C589 C 0.37313 0.61390 0.48083
 C590 C 0.35832 0.63355 0.50194
 C591 C 0.40882 0.58447 0.51519
 C592 C 0.41972 0.58245 0.43331
 C593 C 0.43741 0.56453 0.41345
 C594 C 0.44473 0.54833 0.47518
 C595 C 0.43326 0.54996 0.55625
 C596 C 0.41543 0.56775 0.57590
 H597 H 0.30920 0.65591 0.54497
 H598 H 0.28593 0.69166 0.58105
 H599 H 0.35856 0.71660 0.70487
 H600 H 0.38205 0.68161 0.66531
 H601 H 0.38301 0.64214 0.70178
 H602 H 0.40939 0.60849 0.66415
 H603 H 0.37002 0.60609 0.41915
 H604 H 0.34457 0.64067 0.45539
 H605 H 0.41533 0.59516 0.38534
 H606 H 0.44597 0.56376 0.35046
 H607 H 0.43827 0.53761 0.60497
 H608 H 0.40697 0.56851 0.63902
   
