data_POSCAR
  _audit_creation_date              2014-09-24
  _audit_creation_method            'ToBaCCo'
  _symmetry_space_group_name_H-M    'P1'
  _symmetry_Int_Tables_number       1
  _symmetry_cell_setting            triclinic
  loop_
  _symmetry_equiv_pos_as_xyz
 x,y,z
_cell_length_a 28.9329
_cell_length_b 28.6971
_cell_length_c 51.1761
_cell_angle_alpha 90.201100
_cell_angle_beta 90.056900
_cell_angle_gamma 126.569100
loop_
  _atom_site_label
  _atom_site_type_symbol
  _atom_site_fract_x
  _atom_site_fract_y
  _atom_site_fract_z
C1 C 0.02398 0.47029 1.27488
 C2 C -0.03330 0.45260 1.27490
 C3 C -0.06185 0.44327 1.25112
 C4 C -0.03381 0.45182 1.22735
 C5 C 0.02341 0.46968 1.22732
 C6 C 0.05188 0.47867 1.25107
 H7 H 0.09599 0.49272 1.25095
 H8 H -0.10579 0.42976 1.25111
 C9 C 0.50081 0.53039 1.27275
 C10 C 0.53031 0.50512 1.27261
 C11 C 0.54522 0.49316 1.24883
 C12 C 0.53104 0.50624 1.22519
 C13 C 0.50170 0.53158 1.22531
 C14 C 0.48676 0.54359 1.24908
 H15 H 0.46412 0.56309 1.24909
 H16 H 0.56767 0.47350 1.24872
 C17 C 0.46047 0.97209 1.27478
 C18 C 0.47923 1.03025 1.27503
 C19 C 0.48756 1.05876 1.25139
 C20 C 0.47738 1.02989 1.22758
 C21 C 0.45858 0.97193 1.22735
 C22 C 0.45009 0.94328 1.25091
 H23 H 0.43567 0.89864 1.25062
 H24 H 0.50239 1.10353 1.25146
 C25 C 0.97426 0.48047 0.72675
 C26 C 1.03023 0.49516 0.72643
 C27 C 1.05684 0.49788 0.74984
 C28 C 1.02801 0.48584 0.77365
 C29 C 0.97180 0.47074 0.77400
 C30 C 0.94524 0.46812 0.75055
 H31 H 0.90209 0.45659 0.75083
 H32 H 1.10011 0.50964 0.74949
 C33 C 0.54565 0.51973 0.72679
 C34 C 0.51641 0.54520 0.72697
 C35 C 0.50307 0.55876 0.75077
 C36 C 0.51846 0.54687 0.77443
 C37 C 0.54777 0.52146 0.77424
 C38 C 0.56126 0.50807 0.75042
 H39 H 0.58346 0.48815 0.75028
 H40 H 0.48039 0.57818 0.75089
 C41 C 0.46637 -0.03619 0.77322
 C42 C 0.48370 0.02134 0.77308
 C43 C 0.49586 0.05061 0.74941
 C44 C 0.49127 0.02329 0.72584
 C45 C 0.47459 -0.03403 0.72589
 C46 C 0.46192 -0.06361 0.74962
 H47 H 0.44879 -0.10780 0.74973
 H48 H 0.50930 0.09489 0.74933
 O49 O 0.43082 0.67096 0.97823
 O50 O 0.41388 0.74882 0.97006
 C51 C 0.37992 0.76136 0.96452
 O52 O 0.33616 0.74562 0.97815
 O53 O 0.25094 0.63838 0.96941
 C54 C 0.23262 0.58709 0.96384
 O55 O 0.24258 0.55740 0.97776
 O56 O 0.34536 0.58750 0.96926
 C57 C 0.39784 0.62601 0.96418
 O58 O 0.42467 0.68396 1.03044
 O59 O 0.41362 0.76599 1.02225
 C60 C 0.37350 0.75975 1.03581
 O61 O 0.32072 0.72405 1.03022
 O62 O 0.23186 0.61819 1.02156
 C63 C 0.23347 0.58245 1.03540
 O64 O 0.26388 0.56554 1.02986
 O65 O 0.36413 0.58934 1.02123
 C66 C 0.40247 0.63146 1.03541
 Cr67 Cr 0.41795 0.71546 1.00023
 Cr68 Cr 0.28661 0.68074 0.99984
 Cr69 Cr 0.30505 0.57772 0.99954
 O70 O 0.33656 0.65803 0.99989
 O71 O 0.59029 0.34802 0.96886
 O72 O 0.56300 0.24534 0.97745
 C73 C 0.59371 0.23638 0.96386
 O74 O 0.64486 0.25635 0.96969
 O75 O 0.75020 0.34365 0.97930
 C76 C 0.76578 0.38777 0.96576
 O77 O 0.75204 0.42111 0.97107
 O78 O 0.67211 0.43509 0.97793
 C79 C 0.62771 0.40114 0.96384
 O80 O 0.58945 0.36608 1.02068
 O81 O 0.56871 0.26643 1.02950
 C82 C 0.58655 0.23685 1.03523
 O83 O 0.62287 0.23621 1.02161
 O84 O 0.72672 0.32714 1.03108
 C85 C 0.76087 0.38031 1.03703
 O86 O 0.76620 0.42058 1.02367
 O87 O 0.68268 0.42918 1.03051
 C88 C 0.63011 0.40536 1.03509
 Cr89 Cr 0.58068 0.30760 0.99915
 Cr90 Cr 0.68527 0.29253 1.00041
 Cr91 Cr 0.71635 0.42367 1.00077
 O92 O 0.66087 0.34137 1.00010
 O93 O 0.67963 0.43704 0.52884
 O94 O 0.76820 0.43703 0.52110
 C95 C 0.76595 0.40048 0.53613
 O96 O 0.73544 0.34654 0.53146
 O97 O 0.63563 0.24880 0.52278
 C98 C 0.59805 0.24601 0.53690
 O99 O 0.57620 0.27201 0.53154
 O100 O 0.58650 0.36620 0.52160
 C101 C 0.62699 0.40920 0.53470
 O102 O 0.66270 0.43562 0.47655
 O103 O 0.74784 0.43000 0.46864
 C104 C 0.76671 0.40069 0.46438
 O105 O 0.75767 0.36124 0.47958
 O106 O 0.65477 0.26749 0.47085
 C107 C 0.60224 0.24295 0.46557
 O108 O 0.56906 0.24780 0.47962
 O109 O 0.58453 0.34479 0.46983
 C110 C 0.61791 0.39771 0.46358
 Cr111 Cr 0.71297 0.43219 0.49882
 Cr112 Cr 0.69483 0.30744 0.50114
 Cr113 Cr 0.58183 0.30905 0.50062
 O114 O 0.66314 0.34965 0.50018
 O115 O 0.36537 0.58514 0.52182
 O116 O 0.27008 0.57197 0.53069
 C117 C 0.24309 0.59301 0.53551
 O118 O 0.24463 0.62939 0.52080
 O119 O 0.33975 0.73136 0.52965
 C120 C 0.39307 0.76308 0.53477
 O121 O 0.43054 0.76672 0.52008
 O122 O 0.43347 0.67966 0.52887
 C123 C 0.40723 0.62692 0.53492
 O124 O 0.34541 0.58152 0.46975
 O125 O 0.24739 0.56284 0.47847
 C126 C 0.24160 0.59502 0.46396
 O127 O 0.26467 0.64791 0.46889
 O128 O 0.35578 0.75297 0.47769
 C129 C 0.39638 0.76341 0.46311
 O130 O 0.42621 0.74555 0.46792
 O131 O 0.43441 0.66189 0.47683
 C132 C 0.39792 0.61654 0.46369
 Cr133 Cr 0.30831 0.57807 0.50015
 Cr134 Cr 0.30270 0.68946 0.49925
 Cr135 Cr 0.42841 0.71172 0.49845
 O136 O 0.34655 0.65968 0.49924
 C137 C 0.44232 0.58600 0.39358
 C138 C 0.45010 0.62185 0.37248
 C139 C 0.45964 0.60989 0.34689
 C140 C 0.46080 0.56188 0.34254
 C141 C 0.45180 0.52534 0.36356
 C142 C 0.44380 0.53819 0.38925
 C143 C 0.43714 0.50240 0.41011
 C144 C 0.43749 0.45467 0.40563
 C145 C 0.44363 0.44109 0.38040
 C146 C 0.45047 0.47574 0.35952
 C147 C 0.46739 0.64633 0.32611
 C148 C 0.46562 0.69322 0.33048
 C149 C 0.45630 0.70496 0.35550
 C150 C 0.44854 0.66981 0.37633
 C151 C 0.47366 0.55131 0.31676
 C152 C 0.48572 0.54200 0.29581
 C153 C 0.42931 0.59640 0.41935
 C154 C 0.41634 0.60529 0.44013
 H155 H 0.43177 0.51100 0.43005
 H156 H 0.43258 0.42787 0.42181
 H157 H 0.44348 0.40375 0.37697
 H158 H 0.45490 0.46332 0.34025
 H159 H 0.47455 0.63878 0.30629
 H160 H 0.47144 0.72054 0.31435
 H161 H 0.45483 0.74135 0.35879
 H162 H 0.44141 0.68072 0.39542
 C163 C 0.42285 0.84600 0.39383
 C164 C 0.47324 0.90213 0.38842
 C165 C 0.48153 0.92627 0.36314
 C166 C 0.43903 0.89436 0.34353
 C167 C 0.38803 0.83880 0.34913
 C168 C 0.37976 0.81464 0.37439
 C169 C 0.32779 0.75953 0.37969
 C170 C 0.28513 0.72944 0.36064
 C171 C 0.29362 0.75268 0.33582
 C172 C 0.34443 0.80669 0.33000
 C173 C 0.53204 0.98272 0.35825
 C174 C 0.57272 1.01471 0.37788
 C175 C 0.56450 0.99114 0.40261
 C176 C 0.51554 0.93538 0.40790
 C177 C 0.44634 0.92024 0.31816
 C178 C 0.45264 0.94349 0.29755
 C179 C 0.41549 0.81977 0.41914
 C180 C 0.40790 0.79566 0.43964
 H181 H 0.31923 0.73940 0.39866
 H182 H 0.24528 0.68780 0.36513
 H183 H 0.26054 0.72883 0.32102
 H184 H 0.34898 0.82311 0.31044
 H185 H 0.54027 1.00303 0.33935
 H186 H 0.61075 1.05808 0.37388
 H187 H 0.59621 1.01618 0.41780
 H188 H 0.51093 0.91894 0.42746
 C189 C 0.15711 0.53351 0.39405
 C190 C 0.09655 0.49385 0.39182
 C191 C 0.07032 0.47675 0.36670
 C192 C 0.10458 0.50143 0.34398
 C193 C 0.16528 0.53962 0.34619
 C194 C 0.19167 0.55503 0.37130
 C195 C 0.25252 0.59223 0.37301
 C196 C 0.28624 0.61400 0.35057
 C197 C 0.26039 0.59971 0.32604
 C198 C 0.20060 0.56294 0.32376
 C199 C 0.00993 0.43505 0.36494
 C200 C -0.02379 0.41213 0.38735
 C201 C 0.00168 0.43030 0.41191
 C202 C 0.06120 0.47051 0.41425
 C203 C 0.07714 0.48969 0.31856
 C204 C 0.05312 0.48055 0.29783
 C205 C 0.18412 0.55293 0.41963
 C206 C 0.20867 0.57091 0.44035
 H207 H 0.27467 0.60498 0.39164
 H208 H 0.33264 0.64257 0.35223
 H209 H 0.28680 0.61707 0.30869
 H210 H 0.18244 0.55263 0.30426
 H211 H -0.01171 0.41938 0.34627
 H212 H -0.06995 0.38028 0.38564
 H213 H -0.02476 0.41272 0.42925
 H214 H 0.07918 0.48276 0.43377
 C215 C 0.58236 0.43967 0.39407
 C216 C 0.59205 0.49345 0.38950
 C217 C 0.58419 0.50718 0.36401
 C218 C 0.56586 0.46665 0.34334
 C219 C 0.55437 0.41212 0.34811
 C220 C 0.56240 0.39846 0.37358
 C221 C 0.54953 0.34317 0.37799
 C222 C 0.52899 0.30250 0.35784
 C223 C 0.52194 0.31620 0.33286
 C224 C 0.53447 0.37034 0.32792
 C225 C 0.59394 0.56116 0.35991
 C226 C 0.60993 0.59994 0.38051
 C227 C 0.61733 0.58634 0.40546
 C228 C 0.60886 0.53389 0.40999
 C229 C 0.55533 0.47972 0.31764
 C230 C 0.54488 0.49087 0.29678
 C231 C 0.59440 0.42708 0.41956
 C232 C 0.60499 0.41499 0.44013
 H233 H 0.55450 0.33048 0.39707
 H234 H 0.51849 0.26012 0.36163
 H235 H 0.50643 0.28460 0.31724
 H236 H 0.52808 0.37893 0.30818
 H237 H 0.58854 0.57363 0.34087
 H238 H 0.61647 0.64069 0.37709
 H239 H 0.62970 0.61659 0.42141
 H240 H 0.61497 0.52513 0.42975
 C241 C 0.54529 0.16004 0.39517
 C242 C 0.57153 0.19573 0.37290
 C243 C 0.55554 0.17060 0.34750
 C244 C 0.51281 0.11017 0.34456
 C245 C 0.48446 0.07505 0.36678
 C246 C 0.50160 0.09985 0.39220
 C247 C 0.47439 0.06348 0.41416
 C248 C 0.43068 0.00438 0.41106
 C249 C 0.41275 -0.01958 0.38618
 C250 C 0.43915 0.01518 0.36423
 C251 C 0.58285 0.20689 0.32553
 C252 C 0.62444 0.26649 0.32855
 C253 C 0.63980 0.29119 0.35337
 C254 C 0.61394 0.25642 0.37537
 C255 C 0.50035 0.08341 0.31892
 C256 C 0.49046 0.05953 0.29806
 C257 C 0.56318 0.18576 0.42103
 C258 C 0.57981 0.20986 0.44191
 H259 H 0.48651 0.08032 0.43390
 H260 H 0.41036 -0.02288 0.42805
 H261 H 0.37853 -0.06543 0.38385
 H262 H 0.42371 -0.00539 0.34527
 H263 H 0.57202 0.18968 0.30582
 H264 H 0.64477 0.29366 0.31153
 H265 H 0.67210 0.33751 0.35562
 H266 H 0.62752 0.27771 0.39425
 C267 C 0.84718 0.42222 0.39501
 C268 C 0.81837 0.37462 0.37737
 C269 C 0.84087 0.38069 0.35189
 C270 C 0.89252 0.43398 0.34435
 C271 C 0.92263 0.48074 0.36239
 C272 C 0.89986 0.47483 0.38778
 C273 C 0.93105 0.52184 0.40556
 C274 C 0.98358 0.57307 0.39856
 C275 C 1.00599 0.57879 0.37378
 C276 C 0.97596 0.53340 0.35579
 C277 C 0.81123 0.33264 0.33458
 C278 C 0.76137 0.27970 0.34237
 C279 C 0.73991 0.27345 0.36741
 C280 C 0.76753 0.32037 0.38470
 C281 C 0.91668 0.43975 0.31866
 C282 C 0.93890 0.44526 0.29785
 C283 C 0.82178 0.41711 0.42031
 C284 C 0.79833 0.41112 0.44082
 H285 H 0.91551 0.51927 0.42512
 H286 H 1.00709 0.60847 0.41246
 H287 H 1.04689 0.61861 0.36846
 H288 H 0.99528 0.53988 0.33679
 H289 H 0.82645 0.33532 0.31494
 H290 H 0.73937 0.24328 0.32893
 H291 H 0.70133 0.23213 0.37340
 H292 H 0.74889 0.31342 0.40390
 C293 C 0.58933 0.44516 1.10387
 C294 C 0.56613 0.40251 1.12368
 C295 C 0.55623 0.41519 1.14903
 C296 C 0.56903 0.47020 1.15434
 C297 C 0.59045 0.51215 1.13429
 C298 C 0.60034 0.49946 1.10894
 C299 C 0.62054 0.54151 1.08907
 C300 C 0.63033 0.59451 1.09405
 C301 C 0.62081 0.60702 1.11886
 C302 C 0.60145 0.56663 1.13887
 C303 C 0.53320 0.37200 1.16855
 C304 C 0.51941 0.31745 1.16306
 C305 C 0.52828 0.30473 1.13818
 C306 C 0.55191 0.34676 1.11871
 C307 C 0.55730 0.48257 1.17997
 C308 C 0.54614 0.49305 1.20086
 C309 C 0.60337 0.43348 1.07862
 C310 C 0.61553 0.42204 1.05827
 H311 H 0.62836 0.53362 1.06944
 H312 H 0.64535 0.62602 1.07857
 H313 H 0.62837 0.64819 1.12263
 H314 H 0.59448 0.57829 1.15781
 H315 H 0.52528 0.37977 1.18818
 H316 H 0.50147 0.28476 1.17816
 H317 H 0.51673 0.26203 1.13394
 H318 H 0.55818 0.33478 1.09969
 C319 C 0.84389 0.41166 1.10678
 C320 C 0.81478 0.36628 1.12532
 C321 C 0.83790 0.37481 1.15090
 C322 C 0.89039 0.42836 1.15769
 C323 C 0.92057 0.47296 1.13885
 C324 C 0.89725 0.46454 1.11332
 C325 C 0.92866 0.50925 1.09470
 C326 C 0.98193 0.56064 1.10102
 C327 C 1.00482 0.56885 1.12595
 C328 C 0.97456 0.52579 1.14476
 C329 C 0.80797 0.32891 1.16909
 C330 C 0.75718 0.27568 1.16210
 C331 C 0.73504 0.26699 1.13698
 C332 C 0.76299 0.31177 1.11881
 C333 C 0.91532 0.43632 1.18345
 C334 C 0.93798 0.44324 1.20435
 C335 C 0.81813 0.40382 1.08122
 C336 C 0.79393 0.39493 1.06057
 H337 H 0.91273 0.50469 1.07501
 H338 H 1.00562 0.59423 1.08648
 H339 H 1.04628 0.60879 1.13074
 H340 H 0.99427 0.53414 1.16385
 H341 H 0.82365 0.33352 1.18884
 H342 H 0.73494 0.24094 1.17622
 H343 H 0.69565 0.22548 1.13162
 H344 H 0.74378 0.30294 1.09958
 C345 C 0.53601 0.15638 1.10592
 C346 C 0.49121 0.09672 1.10936
 C347 C 0.47576 0.07321 1.13495
 C348 C 0.50682 0.10900 1.15683
 C349 C 0.55068 0.16895 1.15344
 C350 C 0.56518 0.19281 1.12790
 C351 C 0.60893 0.25304 1.12500
 C352 C 0.63710 0.28867 1.14671
 C353 C 0.62309 0.26521 1.17167
 C354 C 0.58052 0.20603 1.17511
 C355 C 0.42932 0.01393 1.13800
 C356 C 0.40012 -0.02153 1.11636
 C357 C 0.41636 0.00110 1.09130
 C358 C 0.46119 0.05962 1.08772
 C359 C 0.49600 0.08328 1.18251
 C360 C 0.48751 0.06021 1.20338
 C361 C 0.55160 0.18098 1.07993
 C362 C 0.56630 0.20437 1.05895
 H363 H 0.62162 0.27335 1.10599
 H364 H 0.67026 0.33465 1.14413
 H365 H 0.64531 0.29301 1.18847
 H366 H 0.57088 0.18979 1.19492
 H367 H 0.41517 -0.00562 1.15711
 H368 H 0.36506 -0.06693 1.11906
 H369 H 0.39390 -0.02674 1.07454
 H370 H 0.47197 0.07543 1.06786
 C371 C 0.44527 0.59632 1.10470
 C372 C 0.45069 0.62927 1.12675
 C373 C 0.46005 0.61550 1.15191
 C374 C 0.46348 0.56862 1.15488
 C375 C 0.45705 0.53507 1.13289
 C376 C 0.44904 0.54968 1.10764
 C377 C 0.44469 0.51678 1.08583
 C378 C 0.44735 0.47019 1.08894
 C379 C 0.45363 0.45492 1.11371
 C380 C 0.45823 0.48672 1.13550
 C381 C 0.46538 0.64901 1.17367
 C382 C 0.46148 0.69481 1.17065
 C383 C 0.45238 0.70836 1.14604
 C384 C 0.44694 0.67607 1.12428
 C385 C 0.47559 0.55603 1.18033
 C386 C 0.48681 0.54529 1.20110
 C387 C 0.43264 0.60857 1.07931
 C388 C 0.42015 0.61884 1.05878
 H389 H 0.43934 0.52679 1.06620
 H390 H 0.44416 0.44560 1.07205
 H391 H 0.45528 0.41846 1.11606
 H392 H 0.46286 0.47307 1.15437
 H393 H 0.47233 0.64002 1.19322
 H394 H 0.46549 0.71990 1.18751
 H395 H 0.44929 0.74392 1.14379
 H396 H 0.43986 0.68829 1.10555
 C397 C 0.15180 0.52956 1.10586
 C398 C 0.09165 0.48805 1.10875
 C399 C 0.06715 0.47226 1.13414
 C400 C 0.10261 0.50000 1.15645
 C401 C 0.16293 0.54048 1.15359
 C402 C 0.18769 0.55476 1.12823
 C403 C 0.24828 0.59442 1.12590
 C404 C 0.28328 0.61944 1.14796
 C405 C 0.25898 0.60609 1.17272
 C406 C 0.19950 0.56712 1.17562
 C407 C 0.00727 0.42869 1.13658
 C408 C -0.02769 0.40266 1.11456
 C409 C -0.00400 0.41949 1.08972
 C410 C 0.05503 0.46150 1.08672
 C411 C 0.07660 0.48887 1.18211
 C412 C 0.05356 0.48012 1.20301
 C413 C 0.17722 0.54619 1.08000
 C414 C 0.20094 0.56161 1.05911
 H415 H 0.26926 0.60662 1.10706
 H416 H 0.32944 0.64983 1.14580
 H417 H 0.28637 0.62599 1.18978
 H418 H 0.18259 0.55775 1.19529
 H419 H -0.01306 0.41409 1.15549
 H420 H -0.07346 0.36953 1.11680
 H421 H -0.03143 0.39952 1.07268
 H422 H 0.07164 0.47269 1.06701
 C423 C 0.40831 0.84456 1.10545
 C424 C 0.45951 0.90045 1.11061
 C425 C 0.47054 0.92453 1.13617
 C426 C 0.42990 0.89281 1.15631
 C427 C 0.37806 0.83751 1.15099
 C428 C 0.36709 0.81340 1.12546
 C429 C 0.31438 0.75849 1.12049
 C430 C 0.27360 0.72854 1.14014
 C431 C 0.28471 0.75177 1.16519
 C432 C 0.33630 0.80559 1.17068
 C433 C 0.52185 0.98072 1.14082
 C434 C 0.56064 1.01257 1.12071
 C435 C 0.54971 0.98907 1.09570
 C436 C 0.49993 0.93354 1.09062
 C437 C 0.43988 0.91866 1.18202
 C438 C 0.44815 0.94175 1.20296
 C439 C 0.39828 0.81815 1.07986
 C440 C 0.38822 0.79338 1.05923
 H441 H 0.30381 0.73837 1.10135
 H442 H 0.23325 0.68694 1.13593
 H443 H 0.25310 0.72804 1.18044
 H444 H 0.34291 0.82197 1.19046
 H445 H 0.53215 1.00095 1.15992
 H446 H 0.59929 1.05576 1.12454
 H447 H 0.57994 1.01401 1.08013
 H448 H 0.49317 0.91713 1.07084
 C449 C 0.59112 0.45056 0.60440
 C450 C 0.57906 0.41316 0.62555
 C451 C 0.57211 0.42755 0.65113
 C452 C 0.57741 0.47930 0.65541
 C453 C 0.58909 0.51648 0.63422
 C454 C 0.59503 0.50157 0.60857
 C455 C 0.60463 0.53828 0.58758
 C456 C 0.60847 0.58850 0.59181
 C457 C 0.60370 0.60367 0.61694
 C458 C 0.59454 0.56846 0.63800
 C459 C 0.56000 0.38949 0.67195
 C460 C 0.55462 0.33848 0.66760
 C461 C 0.56112 0.32423 0.64258
 C462 C 0.57349 0.36110 0.62175
 C463 C 0.56810 0.49301 0.68131
 C464 C 0.55883 0.50476 0.70237
 C465 C 0.60211 0.43762 0.57870
 C466 C 0.61269 0.42564 0.55805
 H467 H 0.60876 0.52831 0.56769
 H468 H 0.61539 0.61588 0.57550
 H469 H 0.60683 0.64277 0.62015
 H470 H 0.59107 0.58206 0.65717
 H471 H 0.55460 0.39874 0.69176
 H472 H 0.54533 0.30985 0.68375
 H473 H 0.55689 0.28454 0.63930
 H474 H 0.57825 0.34812 0.60266
 C475 C 0.55464 0.15958 0.60615
 C476 C 0.59813 0.18275 0.62554
 C477 C 0.58463 0.15708 0.65070
 C478 C 0.52801 0.10787 0.65614
 C479 C 0.48499 0.08362 0.63649
 C480 C 0.49832 0.10969 0.61143
 C481 C 0.45482 0.08449 0.59202
 C482 C 0.39977 0.03461 0.59717
 C483 C 0.38679 0.00891 0.62165
 C484 C 0.42870 0.03300 0.64118
 C485 C 0.62875 0.18088 0.66978
 C486 C 0.68492 0.22792 0.66399
 C487 C 0.69835 0.25236 0.63923
 C488 C 0.65552 0.23072 0.62026
 C489 C 0.51500 0.07974 0.68131
 C490 C 0.50426 0.05484 0.70180
 C491 C 0.56796 0.18763 0.58093
 C492 C 0.58054 0.21288 0.56043
 H493 H 0.46298 0.10275 0.57263
 H494 H 0.36706 0.01573 0.58206
 H495 H 0.34401 -0.02991 0.62554
 H496 H 0.41655 0.01139 0.65989
 H497 H 0.62045 0.16313 0.68928
 H498 H 0.71826 0.24536 0.67875
 H499 H 0.74217 0.28857 0.63477
 H500 H 0.66808 0.25155 0.60136
 C501 C 0.84831 0.45024 0.60678
 C502 C 0.81301 0.42868 0.62930
 C503 C 0.83826 0.43820 0.65444
 C504 C 0.89873 0.47047 0.65695
 C505 C 0.93419 0.49622 0.63464
 C506 C 0.90888 0.48517 0.60943
 C507 C 0.94512 0.50975 0.58733
 C508 C 1.00477 0.54562 0.59013
 C509 C 1.02950 0.55786 0.61483
 C510 C 0.99485 0.53321 0.63689
 C511 C 0.80207 0.41507 0.67660
 C512 C 0.74265 0.38433 0.67405
 C513 C 0.71805 0.37580 0.64952
 C514 C 0.75254 0.39729 0.62731
 C515 C 0.92430 0.47481 0.68216
 C516 C 0.94624 0.47748 0.70273
 C517 C 0.82206 0.43522 0.58100
 C518 C 0.79821 0.42070 0.56004
 H519 H 0.92778 0.50215 0.56775
 H520 H 1.03195 0.56459 0.57306
 H521 H 1.07576 0.58686 0.61689
 H522 H 1.01597 0.54433 0.65572
 H523 H 0.81934 0.42104 0.69610
 H524 H 0.71556 0.36706 0.69120
 H525 H 0.67192 0.35167 0.64764
 H526 H 0.73129 0.38914 0.60864
 C527 C 0.45269 0.59634 0.60479
 C528 C 0.46850 0.63723 0.62502
 C529 C 0.47909 0.62664 0.65065
 C530 C 0.47389 0.57533 0.65589
 C531 C 0.45851 0.53467 0.63562
 C532 C 0.44872 0.54565 0.60990
 C533 C 0.43537 0.50542 0.58978
 C534 C 0.43163 0.45561 0.59493
 C535 C 0.44026 0.44436 0.62015
 C536 C 0.45314 0.48307 0.64037
 C537 C 0.49475 0.66804 0.67056
 C538 C 0.50035 0.71878 0.66524
 C539 C 0.49059 0.72944 0.64013
 C540 C 0.47442 0.68913 0.62021
 C541 C 0.48725 0.56563 0.68174
 C542 C 0.49974 0.55697 0.70272
 C543 C 0.43806 0.60546 0.57911
 C544 C 0.42464 0.61422 0.55842
 H545 H 0.42818 0.51228 0.56986
 H546 H 0.42181 0.42550 0.57927
 H547 H 0.43723 0.40557 0.62407
 H548 H 0.45954 0.47244 0.65965
 H549 H 0.50287 0.66168 0.69040
 H550 H 0.51248 0.75006 0.68068
 H551 H 0.49549 0.76915 0.63607
 H552 H 0.46712 0.69936 0.60102
 C553 C 0.43990 0.84290 0.60609
 C554 C 0.41672 0.80612 0.62818
 C555 C 0.42732 0.83054 0.65364
 C556 C 0.46183 0.89152 0.65685
 C557 C 0.48896 0.92816 0.63493
 C558 C 0.47700 0.90382 0.60942
 C559 C 0.50290 0.94137 0.58772
 C560 C 0.54091 1.00128 0.59121
 C561 C 0.55413 1.02495 0.61622
 C562 C 0.52830 0.98905 0.63789
 C563 C 0.40315 0.79303 0.67541
 C564 C 0.37025 0.73303 0.67216
 C565 C 0.36040 0.70913 0.64729
 C566 C 0.38288 0.74501 0.62546
 C567 C 0.46689 0.91669 0.68233
 C568 C 0.47044 0.93889 0.70303
 C569 C 0.42528 0.81781 0.58005
 C570 C 0.41159 0.79474 0.55889
 H571 H 0.49458 0.92483 0.56791
 H572 H 0.56073 1.02942 0.57444
 H573 H 0.58462 1.07139 0.61883
 H574 H 0.54027 1.00933 0.65698
 H575 H 0.41007 0.80970 0.69515
 H576 H 0.35239 0.70494 0.68903
 H577 H 0.33484 0.66251 0.64486
 H578 H 0.37385 0.72434 0.60651
 C579 C 0.15917 0.55293 0.60523
 C580 C 0.18070 0.59874 0.62352
 C581 C 0.15671 0.58682 0.64899
 C582 C 0.11070 0.52936 0.65584
 C583 C 0.08791 0.48391 0.63726
 C584 C 0.11237 0.49571 0.61190
 C585 C 0.08881 0.44966 0.59363
 C586 C 0.04211 0.39357 0.60017
 C587 C 0.01799 0.38206 0.62493
 C588 C 0.04049 0.42652 0.64335
 C589 C 0.17881 0.63327 0.66694
 C590 C 0.22255 0.69007 0.65975
 C591 C 0.24530 0.70188 0.63470
 C592 C 0.22526 0.65686 0.61681
 C593 C 0.08432 0.51757 0.68138
 C594 C 0.06068 0.50756 0.70216
 C595 C 0.18605 0.56476 0.57980
 C596 C 0.21053 0.57627 0.55916
 H597 H 0.10593 0.45657 0.57408
 H598 H 0.02448 0.35887 0.58592
 H599 H -0.01835 0.33843 0.62990
 H600 H 0.02022 0.41541 0.66234
 H601 H 0.16223 0.62627 0.68661
 H602 H 0.23876 0.72515 0.67367
 H603 H 0.27911 0.74613 0.62919
 H604 H 0.24467 0.66825 0.59762
 C605 C 0.45320 0.60331 0.89529
 C606 C 0.45854 0.63670 0.87358
 C607 C 0.47089 0.62548 0.84845
 C608 C 0.47730 0.58060 0.84514
 C609 C 0.47121 0.54676 0.86681
 C610 C 0.46025 0.55890 0.89204
 C611 C 0.45605 0.52562 0.91352
 C612 C 0.46162 0.48099 0.91009
 C613 C 0.47074 0.46805 0.88531
 C614 C 0.47536 0.50033 0.86385
 C615 C 0.47596 0.65934 0.82705
 C616 C 0.46884 0.70295 0.83036
 C617 C 0.45672 0.71393 0.85492
 C618 C 0.45156 0.68131 0.87635
 C619 C 0.49112 0.56972 0.81963
 C620 C 0.50321 0.55992 0.79880
 C621 C 0.43663 0.61213 0.92052
 C622 C 0.42045 0.61874 0.94093
 H623 H 0.44852 0.53380 0.93314
 H624 H 0.45843 0.45604 0.92673
 H625 H 0.47451 0.43299 0.88270
 H626 H 0.48216 0.48845 0.84496
 H627 H 0.48520 0.65231 0.80755
 H628 H 0.47268 0.72832 0.81376
 H629 H 0.45112 0.74778 0.85739
 H630 H 0.44212 0.69151 0.89506
 C631 C 0.15263 0.52728 0.89306
 C632 C 0.09246 0.48621 0.88981
 C633 C 0.06807 0.47235 0.86431
 C634 C 0.10370 0.50160 0.84237
 C635 C 0.16414 0.54043 0.84551
 C636 C 0.18877 0.55275 0.87092
 C637 C 0.24942 0.59101 0.87357
 C638 C 0.28465 0.61644 0.85173
 C639 C 0.26048 0.60501 0.82691
 C640 C 0.20091 0.56755 0.82372
 C641 C 0.00814 0.42939 0.86142
 C642 C -0.02695 0.40194 0.88314
 C643 C -0.00336 0.41694 0.90813
 C644 C 0.05572 0.45845 0.91155
 C645 C 0.07782 0.49478 0.81700
 C646 C 0.05525 0.49031 0.79638
 C647 C 0.17758 0.54492 0.91904
 C648 C 0.20083 0.56239 0.94003
 H649 H 0.27027 0.60155 0.89247
 H650 H 0.33089 0.64562 0.85411
 H651 H 0.28804 0.62524 0.81004
 H652 H 0.18407 0.55959 0.80402
 H653 H -0.01207 0.41627 0.84235
 H654 H -0.07274 0.36915 0.88058
 H655 H -0.03089 0.39593 0.92495
 H656 H 0.07229 0.46814 0.93134
 C657 C 0.40921 0.84245 0.89463
 C658 C 0.46088 0.89780 0.88947
 C659 C 0.47296 0.92035 0.86370
 C660 C 0.43291 0.88767 0.84330
 C661 C 0.38044 0.83309 0.84862
 C662 C 0.36843 0.81051 0.87439
 C663 C 0.31522 0.75628 0.87935
 C664 C 0.27490 0.72551 0.85945
 C665 C 0.28699 0.74724 0.83417
 C666 C 0.33913 0.80037 0.82870
 C667 C 0.52477 0.97603 0.85905
 C668 C 0.56302 1.00882 0.87936
 C669 C 0.55107 0.98681 0.90458
 C670 C 0.50079 0.93182 0.90967
 C671 C 0.44425 0.91208 0.81730
 C672 C 0.45424 0.93485 0.79625
 C673 C 0.39914 0.81692 0.92032
 C674 C 0.39061 0.79326 0.94103
 H675 H 0.30391 0.73741 0.89867
 H676 H 0.23417 0.68442 0.86363
 H677 H 0.25574 0.72286 0.81874
 H678 H 0.34656 0.81559 0.80875
 H679 H 0.53590 0.99516 0.83978
 H680 H 0.60207 1.05160 0.87551
 H681 H 0.58089 1.01248 0.92031
 H682 H 0.49321 0.91663 0.92963
 C683 C 0.60139 0.45293 0.89470
 C684 C 0.61526 0.50861 0.89032
 C685 C 0.60706 0.52338 0.86512
 C686 C 0.58471 0.48224 0.84449
 C687 C 0.56965 0.42613 0.84901
 C688 C 0.57770 0.41131 0.87422
 C689 C 0.56098 0.35441 0.87839
 C690 C 0.53674 0.31338 0.85830
 C691 C 0.52970 0.32817 0.83358
 C692 C 0.54594 0.38385 0.82886
 C693 C 0.62050 0.57906 0.86131
 C694 C 0.64088 0.61875 0.88186
 C695 C 0.64889 0.60428 0.90648
 C696 C 0.63650 0.54997 0.91076
 C697 C 0.57377 0.49636 0.81911
 C698 C 0.56287 0.50776 0.79841
 C699 C 0.61163 0.43811 0.92009
 C700 C 0.61955 0.42315 0.94056
 H701 H 0.56581 0.34078 0.89724
 H702 H 0.52331 0.26982 0.86193
 H703 H 0.51127 0.29623 0.81799
 H704 H 0.53938 0.39322 0.80932
 H705 H 0.61478 0.59224 0.84253
 H706 H 0.65045 0.66095 0.87865
 H707 H 0.66474 0.63529 0.92238
 H708 H 0.64320 0.54057 0.93027
 C709 C 0.84968 0.41635 0.89680
 C710 C 0.82010 0.37282 0.87728
 C711 C 0.84275 0.38375 0.85155
 C712 C 0.89522 0.43783 0.84561
 C713 C 0.92636 0.48014 0.86550
 C714 C 0.90350 0.46932 0.89118
 C715 C 0.93569 0.51182 0.91082
 C716 C 0.98933 0.56331 0.90533
 C717 C 1.01182 0.57383 0.88026
 C718 C 0.98077 0.53302 0.86046
 C719 C 0.81235 0.33968 0.83235
 C720 C 0.76161 0.28588 0.83851
 C721 C 0.73993 0.27487 0.86376
 C722 C 0.76827 0.31789 0.88292
 C723 C 0.91921 0.44872 0.81953
 C724 C 0.94152 0.45832 0.79840
 C725 C 0.82330 0.40743 0.92220
 C726 C 0.79881 0.39922 0.94262
 H727 H 0.92012 0.50536 0.93066
 H728 H 1.01364 0.59516 0.92064
 H729 H 1.05359 0.61381 0.87611
 H730 H 1.00021 0.54311 0.84130
 H731 H 0.82769 0.34614 0.81246
 H732 H 0.73905 0.25250 0.82364
 H733 H 0.70064 0.23290 0.86847
 H734 H 0.74951 0.30733 0.90224
 C735 C 0.53603 0.15349 0.89347
 C736 C 0.49184 0.09342 0.89049
 C737 C 0.47666 0.06809 0.86513
 C738 C 0.50725 0.10257 0.84306
 C739 C 0.54991 0.16303 0.84594
 C740 C 0.56417 0.18867 0.87123
 C741 C 0.60689 0.24931 0.87364
 C742 C 0.63437 0.28361 0.85167
 C743 C 0.62057 0.25844 0.82695
 C744 C 0.57898 0.19882 0.82400
 C745 C 0.43110 0.00831 0.86250
 C746 C 0.40235 -0.02580 0.88436
 C747 C 0.41826 -0.00134 0.90923
 C748 C 0.46234 0.05765 0.91237
 C749 C 0.49769 0.07517 0.81777
 C750 C 0.49093 0.05142 0.79717
 C751 C 0.55335 0.17944 0.91930
 C752 C 0.57020 0.20361 0.94016
 H753 H 0.61927 0.27096 0.89245
 H754 H 0.66674 0.32993 0.85387
 H755 H 0.64222 0.28523 0.80996
 H756 H 0.56947 0.18122 0.80436
 H757 H 0.41732 -0.01264 0.84355
 H758 H 0.36790 -0.07158 0.88200
 H759 H 0.39614 -0.02814 0.92617
 H760 H 0.47287 0.07490 0.93208
   
