data_POSCAR
  _audit_creation_date              2014-09-24
  _audit_creation_method            'ToBaCCo'
  _symmetry_space_group_name_H-M    'P1'
  _symmetry_Int_Tables_number       1
  _symmetry_cell_setting            triclinic
  loop_
  _symmetry_equiv_pos_as_xyz
 x,y,z
_cell_length_a 43.5823
_cell_length_b 43.7827
_cell_length_c 43.6086
_cell_angle_alpha 89.985700
_cell_angle_beta 89.950800
_cell_angle_gamma 89.990700
loop_
  _atom_site_label
  _atom_site_type_symbol
  _atom_site_fract_x
  _atom_site_fract_y
  _atom_site_fract_z
N1 N 0.14843 0.16956 0.23344
 N2 N 0.16949 0.14813 0.23280
 C3 C 0.16484 0.12889 0.25649
 C4 C 0.13936 0.13878 0.27301
 C5 C 0.12966 0.16476 0.25746
 H6 H 0.17906 0.10927 0.26127
 H7 H 0.11045 0.17932 0.26304
 Cu8 Cu 0.20116 0.14810 0.20120
 Cu9 Cu 0.14672 0.20229 0.20315
 Cu10 Cu 0.20305 0.20230 0.14685
 N11 N 0.23279 0.14814 0.16955
 N12 N 0.23342 0.16957 0.14850
 C13 C 0.25746 0.16477 0.12973
 C14 C 0.27304 0.13878 0.13942
 C15 C 0.25650 0.12889 0.16489
 H16 H 0.26304 0.17933 0.11054
 H17 H 0.26128 0.10927 0.17910
 N18 N 0.17032 0.23339 0.14907
 N19 N 0.14891 0.23338 0.17047
 C20 C 0.12991 0.25717 0.16568
 C21 C 0.13974 0.27305 0.13997
 C22 C 0.16548 0.25720 0.13011
 H23 H 0.11030 0.26243 0.17987
 H24 H 0.17966 0.26251 0.11051
 H25 H 0.16806 0.17866 0.16824
 H26 H 0.19304 0.20265 0.19321
 N27 N -0.14924 0.82989 0.23333
 N28 N -0.17086 0.85081 0.23324
 C29 C -0.16634 0.86988 0.25707
 C30 C -0.14045 0.86042 0.27300
 C31 C -0.13031 0.83489 0.25713
 H32 H -0.18077 0.88924 0.26231
 H33 H -0.11050 0.82098 0.26227
 Cu34 Cu -0.20212 0.85120 0.20131
 Cu35 Cu -0.14688 0.79764 0.20257
 Cu36 Cu -0.20511 0.79592 0.14856
 N37 N -0.23349 0.85136 0.16943
 N38 N -0.23406 0.82991 0.14838
 C39 C -0.25776 0.83499 0.12930
 C40 C -0.27320 0.86114 0.13883
 C41 C -0.25689 0.87085 0.16446
 H42 H -0.26332 0.82038 0.11014
 H43 H -0.26172 0.89046 0.17869
 N44 N -0.17091 0.76638 0.14873
 N45 N -0.14890 0.76695 0.16947
 C46 C -0.12946 0.74365 0.16413
 C47 C -0.13960 0.72750 0.13874
 C48 C -0.16595 0.74276 0.12957
 H49 H -0.10952 0.73871 0.17795
 H50 H -0.18065 0.73699 0.11051
 H51 H -0.16966 0.82059 0.16800
 H52 H -0.19296 0.79668 0.19474
 N53 N -0.14862 0.16987 -0.23286
 N54 N -0.16950 0.14823 -0.23203
 C55 C -0.16475 0.12897 -0.25566
 C56 C -0.13948 0.13905 -0.27223
 C57 C -0.12991 0.16511 -0.25691
 H58 H -0.17880 0.10925 -0.26053
 H59 H -0.11083 0.17973 -0.26278
 Cu60 Cu -0.20129 0.14849 -0.20059
 Cu61 Cu -0.14706 0.20290 -0.20288
 Cu62 Cu -0.20146 0.20070 -0.14486
 N63 N -0.23337 0.14877 -0.16936
 N64 N -0.23368 0.16991 -0.14799
 C65 C -0.25788 0.16530 -0.12939
 C66 C -0.27383 0.13969 -0.13948
 C67 C -0.25743 0.12992 -0.16507
 H68 H -0.26304 0.17947 -0.10979
 H69 H -0.26240 0.11051 -0.17949
 N70 N -0.17039 0.23333 -0.14816
 N71 N -0.14956 0.23396 -0.17013
 C72 C -0.13106 0.25819 -0.16573
 C73 C -0.14064 0.27372 -0.13973
 C74 C -0.16576 0.25725 -0.12931
 H75 H -0.11184 0.26386 -0.18029
 H76 H -0.17951 0.26207 -0.10928
 H77 H -0.16662 0.17825 -0.16847
 H78 H -0.19307 0.20263 -0.19149
 N79 N 0.14874 0.83040 -0.23288
 N80 N 0.16965 0.85202 -0.23206
 C81 C 0.16496 0.87130 -0.25570
 C82 C 0.13970 0.86127 -0.27227
 C83 C 0.13007 0.83521 -0.25694
 H84 H 0.17905 0.89101 -0.26056
 H85 H 0.11098 0.82062 -0.26281
 Cu86 Cu 0.20139 0.85173 -0.20060
 Cu87 Cu 0.14710 0.79736 -0.20287
 Cu88 Cu 0.20144 0.79950 -0.14488
 N89 N 0.23345 0.85141 -0.16939
 N90 N 0.23371 0.83026 -0.14802
 C91 C 0.25790 0.83485 -0.12943
 C92 C 0.27390 0.86045 -0.13953
 C93 C 0.25753 0.87023 -0.16512
 H94 H 0.26303 0.82068 -0.10982
 H95 H 0.26254 0.88965 -0.17956
 N96 N 0.17032 0.76690 -0.14813
 N97 N 0.14951 0.76629 -0.17009
 C98 C 0.13098 0.74208 -0.16565
 C99 C 0.14051 0.72654 -0.13963
 C100 C 0.16564 0.74299 -0.12925
 H101 H 0.11177 0.73641 -0.18019
 H102 H 0.17937 0.73817 -0.10923
 H103 H 0.16664 0.82197 -0.16847
 H104 H 0.19309 0.79759 -0.19150
 N105 N 0.17017 1.14931 0.76624
 N106 N 0.14897 1.17063 0.76645
 C107 C 0.12981 1.16601 0.74266
 C108 C 0.13951 1.14033 0.72668
 C109 C 0.16527 1.13044 0.74245
 H110 H 0.11023 1.18023 0.73748
 H111 H 0.17947 1.11091 0.73719
 Cu112 Cu 0.14866 1.20191 0.79818
 Cu113 Cu 0.20250 1.14717 0.79692
 Cu114 Cu 0.20204 1.20270 0.85361
 N115 N 0.14869 1.23328 0.82982
 N116 N 0.16957 1.23320 0.85152
 C117 C 0.16452 1.25684 0.87054
 C118 C 0.13904 1.27282 0.86030
 C119 C 0.12964 1.25711 0.83430
 H120 H 0.17849 1.26191 0.89034
 H121 H 0.11038 1.26254 0.81971
 N122 N 0.23294 1.16991 0.85163
 N123 N 0.23320 1.14890 0.82997
 C124 C 0.25711 1.13002 0.83469
 C125 C 0.27276 1.13951 0.86064
 C126 C 0.25668 1.16492 0.87073
 H127 H 0.26268 1.11081 0.82021
 H128 H 0.26184 1.17885 0.89049
 H129 H 0.17814 1.16832 0.83166
 H130 H 0.20307 1.19315 0.80734
 N131 N 0.83059 0.85107 0.76696
 N132 N 0.85187 0.82982 0.76716
 C133 C 0.87070 0.83416 0.74303
 C134 C 0.86069 0.85959 0.72682
 C135 C 0.83508 0.86961 0.74280
 H136 H 0.89030 0.81997 0.73783
 H137 H 0.82086 0.88913 0.73762
 Cu138 Cu 0.85219 0.79870 0.79912
 Cu139 Cu 0.79981 0.85430 0.79915
 Cu140 Cu 0.79760 0.79656 0.85346
 N141 N 0.85248 0.76748 0.83091
 N142 N 0.83075 0.76669 0.85181
 C143 C 0.83550 0.74273 0.87048
 C144 C 0.86164 0.72743 0.86086
 C145 C 0.87180 0.74391 0.83560
 H146 H 0.82079 0.73691 0.88955
 H147 H 0.89158 0.73901 0.82151
 N148 N 0.76646 0.82920 0.85102
 N149 N 0.76714 0.85105 0.83019
 C150 C 0.74318 0.86990 0.83479
 C151 C 0.72664 0.85963 0.85991
 C152 C 0.74214 0.83370 0.86952
 H153 H 0.73841 0.88983 0.82100
 H154 H 0.73641 0.81927 0.88877
 H155 H 0.82243 0.83072 0.83386
 H156 H 0.79784 0.80786 0.80746
 N157 N 0.16974 0.85057 1.23303
 N158 N 0.14806 0.82975 1.23238
 C159 C 0.12873 0.83455 1.25602
 C160 C 0.13886 0.85980 1.27239
 C161 C 0.16501 0.86928 1.25699
 H162 H 0.10883 0.82067 1.26092
 H163 H 0.17969 0.88832 1.26268
 Cu164 Cu 0.14801 0.79830 1.20083
 Cu165 Cu 0.20252 0.85228 1.20276
 Cu166 Cu 0.20231 0.79652 1.14628
 N167 N 0.14794 0.76700 1.16915
 N168 N 0.16945 0.76644 1.14804
 C169 C 0.16464 0.74254 1.12930
 C170 C 0.13865 0.72709 1.13909
 C171 C 0.12868 0.74338 1.16453
 H172 H 0.17922 0.73687 1.11009
 H173 H 0.10897 0.73839 1.17872
 N174 N 0.23351 0.82901 1.14852
 N175 N 0.23361 0.85013 1.17007
 C176 C 0.25744 0.86907 1.16529
 C177 C 0.27321 0.85951 1.13943
 C178 C 0.25730 0.83397 1.12945
 H179 H 0.26276 0.88849 1.17958
 H180 H 0.26251 0.82005 1.10969
 H181 H 0.17862 0.83121 1.16782
 H182 H 0.20275 0.80612 1.19264
 N183 N 0.83016 1.14907 1.23302
 N184 N 0.85152 1.17024 1.23265
 C185 C 0.87080 1.16548 1.25630
 C186 C 0.86104 1.13989 1.27237
 C187 C 0.83513 1.13015 1.25678
 H188 H 0.89040 1.17968 1.26145
 H189 H 0.82077 1.11079 1.26222
 Cu190 Cu 0.85149 1.20226 1.20164
 Cu191 Cu 0.79736 1.14735 1.20286
 Cu192 Cu 0.79941 1.20139 1.14508
 N193 N 0.85064 1.23389 1.17020
 N194 N 0.82976 1.23373 1.14849
 C195 C 0.83444 1.25763 1.12971
 C196 C 0.85975 1.27380 1.14006
 C197 C 0.86936 1.25799 1.16592
 H198 H 0.82060 1.26250 1.10976
 H199 H 0.88872 1.26337 1.18040
 N200 N 0.76698 1.17027 1.14814
 N201 N 0.76638 1.14956 1.17009
 C202 C 0.74213 1.13107 1.16567
 C203 C 0.72655 1.14056 1.13966
 C204 C 0.74302 1.16560 1.12925
 H205 H 0.73644 1.11196 1.18025
 H206 H 0.73813 1.17933 1.10926
 H207 H 0.82274 1.16731 1.16896
 H208 H 0.79739 1.19326 1.19171
 N209 N 0.53230 1.05417 0.96703
 N210 N 0.55558 1.07310 0.96311
 N211 N 0.46778 1.03292 0.94573
 N212 N 0.44460 1.03684 0.92668
 N213 N 0.46772 1.05411 0.96705
 N214 N 0.44450 1.07306 0.96311
 N215 N 0.53234 1.03294 0.94575
 N216 N 0.55564 1.03682 0.92675
 C217 C 0.56982 1.06192 0.93792
 C218 C 0.43043 1.06193 0.93788
 N219 N 0.46768 0.94590 0.96700
 N220 N 0.44442 0.92697 0.96305
 N221 N 0.53230 0.96716 0.94575
 N222 N 0.55562 0.96332 0.92681
 N223 N 0.53229 0.94595 0.96706
 N224 N 0.55559 0.92707 0.96323
 N225 N 0.46770 0.96713 0.94571
 N226 N 0.44446 0.96325 0.92669
 Mn227 Mn 0.50003 1.00003 0.94537
 C228 C 0.43024 0.93814 0.93784
 C229 C 0.56980 0.93827 0.93807
 N230 N 0.46749 1.05409 1.03315
 N231 N 0.44420 1.07300 1.03716
 N232 N 0.53214 1.03297 1.05439
 N233 N 0.55543 1.03688 1.07332
 N234 N 0.53209 1.05418 1.03309
 N235 N 0.55533 1.07312 1.03689
 N236 N 0.46755 1.03286 1.05445
 N237 N 0.44432 1.03673 1.07353
 Mn238 Mn 0.49989 1.05450 1.00008
 C239 C 0.43006 1.06182 1.06240
 C240 C 0.56955 1.06197 1.06204
 N241 N 0.53236 0.94593 1.03312
 N242 N 0.55562 0.92699 1.03709
 N243 N 0.46775 0.96707 1.05438
 N244 N 0.44443 0.96318 1.07332
 N245 N 0.46780 0.94589 1.03306
 N246 N 0.44454 0.92698 1.03686
 N247 N 0.53232 0.96715 1.05441
 N248 N 0.55554 0.96325 1.07346
 Mn249 Mn 0.50003 0.94555 1.00006
 Mn250 Mn 0.49994 1.00001 1.05478
 Cl251 Cl 0.49997 1.00003 1.00008
 C252 C 0.56976 0.93814 1.06231
 C253 C 0.43032 0.93811 1.06202
 N254 N 0.03291 0.46766 0.05438
 N255 N 0.03672 0.44447 0.07336
 N256 N 0.05436 0.53191 0.03315
 N257 N 0.07334 0.55508 0.03709
 N258 N 0.03298 0.53191 0.05440
 N259 N 0.03679 0.55506 0.07340
 N260 N 0.05426 0.46762 0.03309
 N261 N 0.07321 0.44440 0.03700
 C262 C 0.06192 0.43029 0.06218
 C263 C 0.06203 0.56917 0.06227
 N264 N 0.03322 0.53204 -0.05426
 N265 N 0.03707 0.55534 -0.07311
 N266 N 0.05439 0.46768 -0.03300
 N267 N 0.07335 0.44448 -0.03695
 N268 N 0.03309 0.46776 -0.05430
 N269 N 0.03694 0.44464 -0.07333
 N270 N 0.05449 0.53200 -0.03293
 N271 N 0.07341 0.55526 -0.03667
 Mn272 Mn 0.05475 0.49980 0.00008
 C273 C 0.06220 0.56949 -0.06180
 C274 C 0.06210 0.43045 -0.06217
 N275 N -0.03310 0.53213 0.05433
 N276 N -0.03703 0.55529 0.07333
 N277 N -0.05446 0.46789 0.03302
 N278 N -0.07341 0.44468 0.03684
 N279 N -0.03316 0.46785 0.05431
 N280 N -0.03701 0.44463 0.07323
 N281 N -0.05436 0.53218 0.03300
 N282 N -0.07335 0.55537 0.03686
 Mn283 Mn -0.00009 0.49989 0.05472
 C284 C -0.06219 0.56946 0.06208
 C285 C -0.06217 0.43051 0.06199
 N286 N -0.03299 0.46781 -0.05431
 N287 N -0.03684 0.44455 -0.07320
 N288 N -0.05422 0.53215 -0.03308
 N289 N -0.07316 0.55535 -0.03705
 N290 N -0.03285 0.53208 -0.05434
 N291 N -0.03664 0.55521 -0.07339
 N292 N -0.05434 0.46787 -0.03302
 N293 N -0.07331 0.44468 -0.03682
 Mn294 Mn 0.00012 0.49992 -0.05466
 Mn295 Mn -0.05471 0.50003 -0.00002
 Cl296 Cl 0.00002 0.49991 0.00003
 C297 C -0.06205 0.43046 -0.06194
 C298 C -0.06184 0.56939 -0.06226
 N299 N 1.03327 0.05433 0.53181
 N300 N 1.03709 0.07327 0.55503
 N301 N 1.05455 0.03298 0.46728
 N302 N 1.07362 0.03684 0.44406
 N303 N 1.03328 0.05424 0.46728
 N304 N 1.03727 0.07317 0.44403
 N305 N 1.05461 0.03314 0.53183
 N306 N 1.07357 0.03706 0.55510
 C307 C 1.06228 0.06216 0.56922
 C308 C 1.06249 0.06196 0.42987
 N309 N 1.03309 -0.05400 0.46756
 N310 N 1.03686 -0.07301 0.44439
 N311 N 1.05460 -0.03267 0.53196
 N312 N 1.07371 -0.03655 0.55512
 N313 N 1.03329 -0.05388 0.53207
 N314 N 1.03730 -0.07280 0.55532
 N315 N 1.05446 -0.03284 0.46742
 N316 N 1.07339 -0.03686 0.44411
 Mn317 Mn 1.05493 0.00015 0.49962
 C318 C 1.06205 -0.06198 0.43009
 C319 C 1.06257 -0.06163 0.56937
 N320 N 0.96718 0.05430 0.46751
 N321 N 0.96331 0.07327 0.44430
 N322 N 0.94587 0.03314 0.53207
 N323 N 0.92680 0.03706 0.55528
 N324 N 0.96717 0.05436 0.53203
 N325 N 0.96319 0.07334 0.55524
 N326 N 0.94582 0.03314 0.46755
 N327 N 0.92679 0.03711 0.44434
 Mn328 Mn 1.00022 0.05467 0.49966
 C329 C 0.93807 0.06220 0.43018
 C330 C 0.93795 0.06218 0.56941
 N331 N 0.96720 -0.05384 0.53214
 N332 N 0.96338 -0.07279 0.55537
 N333 N 0.94575 -0.03266 0.46764
 N334 N 0.92674 -0.03647 0.44440
 N335 N 0.96702 -0.05392 0.46762
 N336 N 0.96308 -0.07280 0.44434
 N337 N 0.94586 -0.03266 0.53219
 N338 N 0.92689 -0.03659 0.55548
 Mn339 Mn 1.00015 -0.05427 0.49985
 Mn340 Mn 0.94545 0.00024 0.49986
 Cl341 Cl 1.00019 0.00020 0.49975
 C342 C 0.93819 -0.06169 0.56960
 C343 C 0.93789 -0.06156 0.43019
 C344 C 1.10035 0.09941 0.35291
 C345 C 1.12609 0.08607 0.33923
 C346 C 1.13900 0.09898 0.31286
 C347 C 1.12636 0.12559 0.29961
 C348 C 1.10033 0.13872 0.31377
 C349 C 1.08753 0.12572 0.34012
 C350 C 1.08706 0.08614 0.38007
 C351 C 1.07585 0.07511 0.40281
 H352 H 1.13623 0.06565 0.34896
 H353 H 1.15889 0.08788 0.30310
 H354 H 1.08959 0.15907 0.30477
 H355 H 1.06757 0.13625 0.35053
 C356 C 0.90001 -0.09890 0.35332
 C357 C 0.87380 -0.08596 0.34014
 C358 C 0.86066 -0.09908 0.31402
 C359 C 0.87356 -0.12542 0.30066
 C360 C 0.90005 -0.13812 0.31410
 C361 C 0.91312 -0.12495 0.34020
 C362 C 0.91337 -0.08563 0.38039
 C363 C 0.92458 -0.07464 0.40311
 H364 H 0.86347 -0.06574 0.35010
 H365 H 0.84039 -0.08850 0.30447
 H366 H 0.91079 -0.15828 0.30466
 H367 H 0.93344 -0.13516 0.35019
 C368 C 0.90005 0.09948 0.64636
 C369 C 0.87436 0.08601 0.66004
 C370 C 0.86149 0.09880 0.68649
 C371 C 0.87416 0.12532 0.69967
 C372 C 0.90004 0.13864 0.68563
 C373 C 0.91284 0.12581 0.65921
 C374 C 0.91337 0.08632 0.61919
 C375 C 0.92461 0.07534 0.59645
 H376 H 0.86425 0.06561 0.65027
 H377 H 0.84163 0.08781 0.69644
 H378 H 0.91056 0.15899 0.69488
 H379 H 0.93273 0.13644 0.64880
 C380 C 1.10039 -0.09900 0.64632
 C381 C 1.12608 -0.08559 0.66002
 C382 C 1.13888 -0.09844 0.68646
 C383 C 1.12614 -0.12495 0.69963
 C384 C 1.10027 -0.13821 0.68557
 C385 C 1.08754 -0.12532 0.65915
 C386 C 1.08715 -0.08577 0.61914
 C387 C 1.07594 -0.07476 0.59641
 H388 H 1.13625 -0.06520 0.65027
 H389 H 1.15874 -0.08749 0.69643
 H390 H 1.08970 -0.15855 0.69481
 H391 H 1.06764 -0.13590 0.64873
 C392 C 0.35301 1.09933 1.10036
 C393 C 0.33931 1.08601 1.12610
 C394 C 0.31293 1.09895 1.13903
 C395 C 0.29967 1.12558 1.12641
 C396 C 0.31384 1.13869 1.10039
 C397 C 0.34020 1.12567 1.08757
 C398 C 0.38020 1.08603 1.08704
 C399 C 0.40296 1.07498 1.07581
 H400 H 0.34903 1.06559 1.13623
 H401 H 0.30317 1.08786 1.15892
 H402 H 0.30483 1.15905 1.08968
 H403 H 0.35060 1.13620 1.06762
 C404 C 0.35342 0.90033 0.89985
 C405 C 0.34054 0.87407 0.91275
 C406 C 0.31436 0.86087 0.89978
 C407 C 0.30045 0.87372 0.87352
 C408 C 0.31379 0.90028 0.86080
 C409 C 0.33997 0.91339 0.87388
 C410 C 0.38049 0.91377 0.91324
 C411 C 0.40318 0.92491 0.92448
 H412 H 0.35075 0.86373 0.93288
 H413 H 0.30529 0.84057 0.91057
 H414 H 0.30421 0.91120 0.84075
 H415 H 0.34973 0.93377 0.86368
 C416 C 0.64694 0.90070 1.09985
 C417 C 0.66049 0.91384 1.12572
 C418 C 0.68690 0.90093 1.13854
 C419 C 0.70031 0.87446 1.12573
 C420 C 0.68634 0.86158 1.09952
 C421 C 0.65996 0.87459 1.08679
 C422 C 0.61969 0.91395 1.08669
 C423 C 0.59688 0.92499 1.07559
 H424 H 0.65061 0.93410 1.13604
 H425 H 0.69650 0.91186 1.15857
 H426 H 0.69552 0.84139 1.08862
 H427 H 0.64967 0.86420 1.06673
 C428 C 0.64667 1.09973 0.89997
 C429 C 0.66016 1.08668 0.87399
 C430 C 0.68634 1.09982 0.86089
 C431 C 0.69963 1.12639 0.87360
 C432 C 0.68568 1.13923 0.89987
 C433 C 0.65951 1.12600 0.91285
 C434 C 0.61960 1.08629 0.91335
 C435 C 0.59690 1.07515 0.92458
 H436 H 0.65042 1.06630 0.86381
 H437 H 0.69595 1.08891 0.84084
 H438 H 0.69472 1.15953 0.91065
 H439 H 0.64926 1.13632 0.93299
 C440 C 0.09942 0.35352 0.09978
 C441 C 0.12556 0.34038 0.08666
 C442 C 0.13864 0.31423 0.09965
 C443 C 0.12575 0.30079 0.12604
 C444 C 0.09935 0.31421 0.13896
 C445 C 0.08633 0.34036 0.12592
 C446 C 0.08613 0.38057 0.08651
 C447 C 0.07506 0.40326 0.07540
 H448 H 0.13589 0.35037 0.06640
 H449 H 0.15885 0.30474 0.08890
 H450 H 0.08862 0.30470 0.15917
 H451 H 0.06606 0.35033 0.13627
 C452 C -0.09994 0.35386 -0.09936
 C453 C -0.08716 0.34094 -0.12576
 C454 C -0.10035 0.31495 -0.13889
 C455 C -0.12661 0.30142 -0.12578
 C456 C -0.13920 0.31461 -0.09912
 C457 C -0.12594 0.34062 -0.08605
 C458 C -0.08650 0.38081 -0.08608
 C459 C -0.07530 0.40345 -0.07505
 H460 H -0.06700 0.35099 -0.13624
 H461 H -0.08984 0.30562 -0.15929
 H462 H -0.15930 0.30502 -0.08825
 H463 H -0.13602 0.35042 -0.06557
 C464 C 0.09985 0.64634 -0.09917
 C465 C 0.12582 0.65962 -0.08589
 C466 C 0.13904 0.68566 -0.09898
 C467 C 0.12646 0.69885 -0.12564
 C468 C 0.10021 0.68529 -0.13869
 C469 C 0.08705 0.65927 -0.12554
 C470 C 0.08650 0.61930 -0.08590
 C471 C 0.07538 0.59658 -0.07488
 H472 H 0.13591 0.64983 -0.06543
 H473 H 0.15912 0.69527 -0.08813
 H474 H 0.08970 0.69463 -0.15908
 H475 H 0.06691 0.64920 -0.13600
 C476 C -0.09974 0.64644 0.09926
 C477 C -0.12599 0.65943 0.08623
 C478 C -0.13890 0.68580 0.09894
 C479 C -0.12572 0.69962 0.12496
 C480 C -0.09924 0.68632 0.13781
 C481 C -0.08640 0.65995 0.12505
 C482 C -0.08650 0.61926 0.08618
 C483 C -0.07540 0.59651 0.07521
 H484 H -0.13653 0.64916 0.06624
 H485 H -0.15920 0.69519 0.08828
 H486 H -0.08833 0.69607 0.15779
 H487 H -0.06606 0.65009 0.13534
 C488 C 1.09935 0.09994 0.64617
 C489 C 1.12549 0.08699 0.65940
 C490 C 1.13849 0.10005 0.68556
 C491 C 1.12552 0.12636 0.69894
 C492 C 1.09909 0.13911 0.68546
 C493 C 1.08613 0.12597 0.65927
 C494 C 1.08623 0.08658 0.61906
 C495 C 1.07533 0.07538 0.59631
 H496 H 1.13587 0.06680 0.64945
 H497 H 1.15872 0.08942 0.69511
 H498 H 1.08833 0.15923 0.69498
 H499 H 1.06584 0.13615 0.64922
 C500 C 0.90083 -0.09990 0.64628
 C501 C 0.87450 -0.08717 0.65938
 C502 C 0.86145 -0.10033 0.68549
 C503 C 0.87457 -0.12651 0.69897
 C504 C 0.90113 -0.13909 0.68556
 C505 C 0.91414 -0.12585 0.65941
 C506 C 0.91406 -0.08637 0.61928
 C507 C 0.92505 -0.07503 0.59661
 H508 H 0.86402 -0.06705 0.64939
 H509 H 0.84109 -0.08986 0.69495
 H510 H 0.91200 -0.15913 0.69512
 H511 H 0.93457 -0.13589 0.64944
 C512 C 1.09909 -0.10010 0.35328
 C513 C 1.12559 -0.08755 0.34036
 C514 C 1.13849 -0.10054 0.31410
 C515 C 1.12504 -0.12637 0.30030
 C516 C 1.09833 -0.13880 0.31354
 C517 C 1.08547 -0.12573 0.33984
 C518 C 1.08598 -0.08667 0.38036
 C519 C 1.07508 -0.07535 0.40307
 H520 H 1.13632 -0.06769 0.35060
 H521 H 1.15899 -0.09021 0.30479
 H522 H 1.08725 -0.15860 0.30374
 H523 H 1.06492 -0.13563 0.34968
 C524 C 0.90085 0.10003 0.35333
 C525 C 0.87477 0.08700 0.34008
 C526 C 0.86187 0.09989 0.31378
 C527 C 0.87490 0.12610 0.30027
 C528 C 0.90121 0.13899 0.31382
 C529 C 0.91406 0.12602 0.34015
 C530 C 0.91399 0.08670 0.38044
 C531 C 0.92494 0.07548 0.40316
 H532 H 0.86436 0.06686 0.35011
 H533 H 0.84170 0.08919 0.30420
 H534 H 0.91197 0.15909 0.30425
 H535 H 0.93429 0.13630 0.35024
 C536 C 0.09920 0.35363 -0.09989
 C537 C 0.12510 0.34025 -0.08660
 C538 C 0.13799 0.31399 -0.09946
 C539 C 0.12516 0.30065 -0.12592
 C540 C 0.09900 0.31430 -0.13903
 C541 C 0.08616 0.34059 -0.12610
 C542 C 0.08609 0.38074 -0.08663
 C543 C 0.07517 0.40345 -0.07545
 H544 H 0.13537 0.35016 -0.06629
 H545 H 0.15802 0.30432 -0.08856
 H546 H 0.08834 0.30483 -0.15927
 H547 H 0.06607 0.35076 -0.13657
 C548 C -0.09968 0.35391 0.09965
 C549 C -0.08678 0.34095 0.12596
 C550 C -0.09991 0.31494 0.13912
 C551 C -0.12621 0.30146 0.12611
 C552 C -0.13889 0.31470 0.09954
 C553 C -0.12570 0.34070 0.08644
 C554 C -0.08637 0.38087 0.08630
 C555 C -0.07532 0.40352 0.07516
 H556 H -0.06658 0.35099 0.13635
 H557 H -0.08935 0.30554 0.15946
 H558 H -0.15902 0.30514 0.08873
 H559 H -0.13585 0.35055 0.06603
 C560 C -0.09892 0.64620 -0.09990
 C561 C -0.12529 0.65909 -0.08702
 C562 C -0.13808 0.68546 -0.09973
 C563 C -0.12466 0.69941 -0.12560
 C564 C -0.09809 0.68619 -0.13836
 C565 C -0.08535 0.65978 -0.12558
 C566 C -0.08581 0.61908 -0.08670
 C567 C -0.07489 0.59638 -0.07555
 H568 H -0.13599 0.64874 -0.06713
 H569 H -0.15847 0.69476 -0.08915
 H570 H -0.08704 0.69607 -0.15821
 H571 H -0.06491 0.64996 -0.13573
 C572 C 0.09909 0.64600 0.09979
 C573 C 0.08561 0.65950 0.12556
 C574 C 0.09840 0.68586 0.13836
 C575 C 0.12491 0.69913 0.12552
 C576 C 0.13822 0.68528 0.09955
 C577 C 0.12538 0.65894 0.08683
 C578 C 0.08599 0.61888 0.08661
 C579 C 0.07507 0.59617 0.07549
 H580 H 0.06522 0.64964 0.13578
 H581 H 0.08742 0.69569 0.15828
 H582 H 0.15856 0.69462 0.08891
 H583 H 0.13600 0.64866 0.06686
 C584 C 0.35364 1.09951 0.90039
 C585 C 0.34057 1.08666 0.87414
 C586 C 0.31427 1.09959 0.86124
 C587 C 0.30063 1.12564 0.87444
 C588 C 0.31402 1.13831 0.90093
 C589 C 0.34033 1.12531 0.91378
 C590 C 0.38074 1.08624 0.91357
 C591 C 0.40345 1.07513 0.92464
 H592 H 0.35072 1.06664 0.86361
 H593 H 0.30479 1.08905 0.84094
 H594 H 0.30435 1.15826 0.91187
 H595 H 0.35029 1.13542 0.93414
 C596 C 0.35351 0.90028 1.09924
 C597 C 0.34038 0.91303 1.12553
 C598 C 0.31427 0.89985 1.13856
 C599 C 0.30088 0.87363 1.12546
 C600 C 0.31430 0.86109 1.09890
 C601 C 0.34042 0.87434 1.08592
 C602 C 0.38055 0.91370 1.08608
 C603 C 0.40326 0.92490 1.07511
 H604 H 0.35036 0.93315 1.13600
 H605 H 0.30477 0.91030 1.15891
 H606 H 0.30480 0.84103 1.08804
 H607 H 0.35044 0.86431 1.06552
 C608 C 0.64622 1.09993 1.09942
 C609 C 0.65923 1.08721 1.12576
 C610 C 0.68530 1.10039 1.13886
 C611 C 0.69878 1.12657 1.12576
 C612 C 0.68547 1.13912 1.09916
 C613 C 0.65939 1.12587 1.08612
 C614 C 0.61923 1.08648 1.08618
 C615 C 0.59657 1.07524 1.07516
 H616 H 0.64921 1.06709 1.13622
 H617 H 0.69473 1.08992 1.15922
 H618 H 0.69503 1.15917 1.08831
 H619 H 0.64947 1.13589 1.06568
 C620 C 0.64649 0.90047 0.90044
 C621 C 0.65926 0.87414 0.91331
 C622 C 0.68527 0.86083 0.90017
 C623 C 0.69893 0.87372 0.87389
 C624 C 0.68588 0.90031 0.86122
 C625 C 0.65986 0.91356 0.87442
 C626 C 0.61952 0.91391 0.91377
 C627 C 0.59684 0.92508 0.92488
 H628 H 0.64907 0.86385 0.93350
 H629 H 0.69452 0.84049 0.91073
 H630 H 0.69558 0.91102 0.84110
 H631 H 0.65015 0.93398 0.86430
   
