data_POSCAR
  _audit_creation_date              2014-09-24
  _audit_creation_method            'ToBaCCo'
  _symmetry_space_group_name_H-M    'P1'
  _symmetry_Int_Tables_number       1
  _symmetry_cell_setting            triclinic
  loop_
  _symmetry_equiv_pos_as_xyz
 x,y,z
_cell_length_a 27.6540
_cell_length_b 27.2635
_cell_length_c 25.7444
_cell_angle_alpha 91.314100
_cell_angle_beta 90.481600
_cell_angle_gamma 92.102900
loop_
  _atom_site_label
  _atom_site_type_symbol
  _atom_site_fract_x
  _atom_site_fract_y
  _atom_site_fract_z
C1 C 1.21601 0.23153 0.24315
 C2 C 1.25027 0.26142 0.20853
 C3 C 1.28663 0.28634 0.23528
 C4 C 1.28536 0.27892 0.29429
 C5 C 1.24867 0.19824 0.27357
 C6 C 1.28527 0.22279 0.30029
 C7 C 1.19841 0.26852 0.28344
 C8 C 1.23445 0.29390 0.30988
 H9 H 1.24410 0.26500 0.16723
 H10 H 1.31487 0.29930 0.31611
 H11 H 1.24466 0.15866 0.27079
 H12 H 1.16041 0.27459 0.28996
 C13 C 0.72463 -0.29085 0.21505
 C14 C 0.75434 -0.25028 0.18876
 C15 C 0.77253 -0.21485 0.22247
 C16 C 0.75941 -0.22335 0.27950
 C17 C 0.75832 -0.31035 0.25658
 C18 C 0.77650 -0.27504 0.29038
 C19 C 0.68600 -0.26441 0.24556
 C20 C 0.70375 -0.22906 0.27916
 H21 H 0.76265 -0.25144 0.14773
 H22 H 0.77491 -0.19465 0.30666
 H23 H 0.76855 -0.34829 0.25763
 H24 H 0.64761 -0.27299 0.24073
 C25 C 0.72156 0.22580 -0.27763
 C26 C 0.75017 0.26431 -0.30325
 C27 C 0.78503 0.28947 -0.26955
 C28 C 0.78362 0.27198 -0.21643
 C29 C 0.75663 0.19342 -0.25410
 C30 C 0.79123 0.21935 -0.22044
 C31 C 0.69962 0.25002 -0.23353
 C32 C 0.73346 0.27546 -0.19948
 H33 H 0.74851 0.27000 -0.34474
 H34 H 0.80977 0.29210 -0.18973
 H35 H 0.75604 0.15396 -0.25946
 H36 H 0.66077 0.25094 -0.22849
 C37 C 1.23260 -0.29563 -0.25940
 C38 C 1.25357 -0.25247 -0.29059
 C39 C 1.27321 -0.21497 -0.26005
 C40 C 1.26949 -0.22389 -0.20123
 C41 C 1.27401 -0.31055 -0.22442
 C42 C 1.29372 -0.27323 -0.19411
 C43 C 1.19664 -0.27237 -0.22260
 C44 C 1.21519 -0.23495 -0.19229
 H45 H 1.25647 -0.25322 -0.33242
 H46 H 1.28568 -0.19369 -0.17637
 H47 H 1.28623 -0.34783 -0.22339
 H48 H 1.15864 -0.28374 -0.22196
 C49 C 0.21408 0.20830 0.76266
 C50 C 0.25304 0.23519 0.79086
 C51 C 0.27720 0.27202 0.76026
 C52 C 0.25774 0.27491 0.70756
 C53 C 0.18096 0.24771 0.74335
 C54 C 0.20312 0.28242 0.71418
 C55 C 0.23768 0.18781 0.71369
 C56 C 0.26158 0.22243 0.68502
 H57 H 0.26139 0.22999 0.83137
 H58 H 0.27622 0.30317 0.68354
 H59 H 0.14276 0.24818 0.75250
 H60 H 0.24195 0.14876 0.70781
 C61 C 0.69571 0.73959 0.77888
 C62 C 0.73887 0.75830 0.80662
 C63 C 0.77836 0.77188 0.77348
 C64 C 0.76736 0.76202 0.71818
 C65 C 0.68463 0.77753 0.74251
 C66 C 0.72432 0.79059 0.70886
 C67 C 0.71088 0.69853 0.74655
 C68 C 0.75059 0.71002 0.71341
 H69 H 0.74019 0.76294 0.84851
 H70 H 0.79765 0.77266 0.69229
 H71 H 0.64894 0.79232 0.73917
 H72 H 0.69351 0.66220 0.74720
 C73 C 0.70912 0.21491 0.28841
 C74 C 0.73973 0.25218 0.32142
 C75 C 0.76798 0.28313 0.29271
 C76 C 0.76340 0.27346 0.23363
 C77 C 0.68096 0.24640 0.25102
 C78 C 0.70909 0.27708 0.22218
 C79 C 0.74496 0.18808 0.25368
 C80 C 0.77345 0.21868 0.22482
 H81 H 0.73934 0.25337 0.36348
 H82 H 0.78661 0.29850 0.21020
 H83 H 0.64184 0.24660 0.25050
 H84 H 0.74796 0.14859 0.25286
 C85 C 0.20810 0.71941 0.24873
 C86 C 0.24705 0.74527 0.28280
 C87 C 0.28397 0.76680 0.25576
 C88 C 0.27909 0.75921 0.19623
 C89 C 0.19224 0.75868 0.21128
 C90 C 0.22925 0.77969 0.18378
 C91 C 0.23496 0.68300 0.21484
 C92 C 0.27213 0.70314 0.18733
 H93 H 0.24506 0.74637 0.32479
 H94 H 0.30915 0.77665 0.17417
 H95 H 0.15494 0.76874 0.20670
 H96 H 0.22498 0.64418 0.21270
 O97 O 1.06272 0.09477 0.10014
 O98 O 1.11799 0.04843 0.05705
 C99 C 1.10672 0.08205 0.09062
 O100 O 0.92531 -0.08337 0.09290
 O101 O 0.87494 -0.04180 0.03951
 C102 C 0.88279 -0.07322 0.07536
 O103 O 1.05934 -0.07149 0.10997
 O104 O 1.11735 -0.03331 0.06001
 C105 C 1.10391 -0.06040 0.09863
 O106 O 0.92775 0.09517 0.08676
 O107 O 0.87611 0.04425 0.03807
 C108 C 0.88471 0.07989 0.07185
 Zr109 Zr 0.99598 0.06838 0.06654
 O110 O 0.98709 0.07640 0.14786
 O111 O 0.99897 0.14511 0.05626
 Zr112 Zr 0.99433 -0.05545 0.07169
 O113 O 0.98368 -0.05493 0.15295
 O114 O 0.99912 -0.13278 0.07205
 O115 O 1.03739 0.00825 0.08294
 O116 O 0.95266 0.00570 0.07537
 O117 O 0.93756 0.08477 -0.09530
 O118 O 0.88089 0.03833 -0.05162
 C119 C 0.89310 0.07065 -0.08583
 O120 O 1.07165 -0.08632 -0.08034
 O121 O 1.12269 -0.03649 -0.03001
 C122 C 1.11454 -0.07114 -0.06454
 O123 O 0.93617 -0.09396 -0.08961
 O124 O 0.88052 -0.04787 -0.04666
 C125 C 0.89199 -0.08280 -0.07901
 O126 O 1.07309 0.08234 -0.08954
 O127 O 1.12329 0.04486 -0.03242
 C128 C 1.11571 0.07312 -0.07127
 Zr129 Zr 1.00340 0.06099 -0.06327
 O130 O 1.00678 0.06391 -0.14517
 O131 O 1.00554 0.13846 -0.05694
 Zr132 Zr 1.00206 -0.06300 -0.05893
 O133 O 1.00427 -0.06664 -0.14114
 O134 O 0.99815 -0.14072 -0.05629
 Zr135 Zr 1.07096 0.00441 0.00982
 Zr136 Zr 0.92655 0.00033 -0.00169
 O137 O 0.96126 -0.00282 -0.07402
 O138 O 1.04627 -0.00035 -0.06801
 O139 O 0.95613 0.07270 -0.00216
 O140 O 1.04032 -0.06725 0.01029
 O141 O 1.04239 0.07460 0.00454
 O142 O 0.95499 -0.07004 0.00342
 H143 H 0.92956 0.00659 0.10456
 H144 H 1.06253 -0.09463 0.01408
 H145 H 0.94135 -0.00532 -0.10620
 H146 H 1.06484 0.10379 0.00504
 H147 H 0.97475 -0.14669 0.04689
 H148 H 1.02593 -0.15181 -0.03580
 H149 H 1.03276 -0.04659 -0.15221
 H150 H 1.00111 0.03000 -0.15873
 H151 H 1.00942 0.15035 -0.09280
 H152 H 0.99831 0.16021 0.09161
 H153 H 1.01128 0.05604 0.16474
 H154 H 1.00235 -0.02620 0.16759
 O155 O 1.08613 0.59334 0.58796
 O156 O 1.12899 0.54730 0.52988
 C157 C 1.12631 0.57911 0.56787
 O158 O 0.93479 0.42584 0.59954
 O159 O 0.88043 0.47594 0.56153
 C160 C 0.89100 0.44011 0.59145
 O161 O 1.06971 0.42398 0.58625
 O162 O 1.12097 0.46408 0.53023
 C163 C 1.11237 0.43341 0.56717
 O164 O 0.95524 0.61256 0.59678
 O165 O 0.88975 0.56778 0.56326
 C166 C 0.90920 0.60412 0.59142
 Zr167 Zr 1.01369 0.57429 0.56814
 O168 O 1.01933 0.56807 0.64961
 O169 O 1.02732 0.65108 0.57371
 Zr170 Zr 1.00141 0.45223 0.56816
 O171 O 1.00763 0.45970 0.65008
 O172 O 0.99687 0.37508 0.57520
 O173 O 1.05204 0.51055 0.57171
 O174 O 0.96599 0.51640 0.58365
 O175 O 0.92857 0.60542 0.42393
 O176 O 0.87685 0.56132 0.47622
 C177 C 0.88586 0.59447 0.44198
 O178 O 1.04451 0.42598 0.39608
 O179 O 1.10898 0.46383 0.43944
 C180 C 1.09041 0.43481 0.40326
 O181 O 0.91377 0.42602 0.42197
 O182 O 0.86949 0.47399 0.47686
 C183 C 0.87318 0.43924 0.44146
 O184 O 1.06079 0.59370 0.39980
 O185 O 1.11629 0.54671 0.44052
 C186 C 1.10444 0.57898 0.40679
 Zr187 Zr 0.99621 0.57404 0.43865
 O188 O 0.98799 0.57568 0.35676
 O189 O 1.00496 0.65131 0.44451
 Zr190 Zr 0.98488 0.45099 0.43791
 O191 O 0.96904 0.44996 0.35733
 O192 O 0.98355 0.37326 0.43774
 Zr193 Zr 1.07076 0.50813 0.49242
 Zr194 Zr 0.92688 0.51731 0.51334
 O195 O 0.94730 0.51483 0.43484
 O196 O 1.03177 0.50980 0.42191
 O197 O 0.96335 0.58643 0.50949
 O198 O 1.03391 0.43951 0.49679
 O199 O 1.04755 0.58062 0.49737
 O200 O 0.94992 0.44440 0.50880
 H201 H 0.94725 0.51856 0.61622
 H202 H 1.05296 0.40962 0.49272
 H203 H 0.92153 0.51514 0.40794
 H204 H 1.07149 0.60838 0.49471
 H205 H 1.00085 0.36059 0.54007
 H206 H 0.95879 0.36235 0.46295
 H207 H 0.98841 0.47719 0.34211
 H208 H 0.95648 0.55963 0.34697
 H209 H 1.00183 0.66341 0.40868
 H210 H 1.01353 0.66498 0.54192
 H211 H 1.02495 0.60194 0.66369
 H212 H 1.04008 0.47452 0.65838
 O213 O 0.56216 0.08506 0.59569
 O214 O 0.61565 0.03282 0.55797
 C215 C 0.60573 0.06948 0.58817
 O216 O 0.41811 -0.08869 0.59953
 O217 O 0.36961 -0.05014 0.54171
 C218 C 0.37610 -0.07910 0.58033
 O219 O 0.55033 -0.07389 0.62223
 O220 O 0.61081 -0.04870 0.56759
 C221 C 0.59543 -0.06864 0.61014
 O222 O 0.42577 0.08961 0.57701
 O223 O 0.37406 0.03515 0.53281
 C224 C 0.38281 0.07409 0.56154
 Zr225 Zr 0.49397 0.05783 0.56457
 O226 O 0.48356 0.06534 0.64570
 O227 O 0.50133 0.13497 0.55852
 Zr228 Zr 0.48821 -0.06528 0.57702
 O229 O 0.47643 -0.06518 0.65802
 O230 O 0.49322 -0.14252 0.57985
 O231 O 0.53310 -0.00234 0.58490
 O232 O 0.44833 -0.00271 0.57629
 O233 O 0.43734 0.06927 0.40385
 O234 O 0.37915 0.02482 0.44758
 C235 C 0.39255 0.05725 0.41411
 O236 O 0.56669 -0.10390 0.42553
 O237 O 0.61888 -0.05572 0.47618
 C238 C 0.60987 -0.08988 0.44131
 O239 O 0.43203 -0.10995 0.41639
 O240 O 0.37666 -0.06049 0.45527
 C241 C 0.38811 -0.09653 0.42436
 O242 O 0.57248 0.06285 0.41021
 O243 O 0.62154 0.02556 0.46845
 C244 C 0.61471 0.05358 0.42913
 Zr245 Zr 0.50237 0.04247 0.43486
 O246 O 0.50298 0.03382 0.35292
 O247 O 0.50829 0.11979 0.43038
 Zr248 Zr 0.49790 -0.08076 0.44802
 O249 O 0.50243 -0.09787 0.36774
 O250 O 0.49579 -0.15619 0.46524
 Zr251 Zr 0.56786 -0.01147 0.51279
 Zr252 Zr 0.42371 -0.01212 0.49904
 O253 O 0.45897 -0.02038 0.42763
 O254 O 0.54366 -0.01998 0.43506
 O255 O 0.45559 0.05909 0.49468
 O256 O 0.53538 -0.08213 0.51775
 O257 O 0.54073 0.05895 0.50262
 O258 O 0.44932 -0.08303 0.50928
 H259 H 0.42430 0.00102 0.60430
 H260 H 0.55695 -0.10985 0.52315
 H261 H 0.43932 -0.02312 0.39527
 H262 H 0.56341 0.08791 0.50169
 H263 H 0.46369 -0.15731 0.56298
 H264 H 0.49994 -0.17391 0.43165
 H265 H 0.49846 -0.06687 0.34933
 H266 H 0.52974 0.01208 0.34408
 H267 H 0.51058 0.12719 0.39295
 H268 H 0.48604 0.14337 0.52517
 H269 H 0.51075 0.04944 0.66306
 H270 H 0.47741 -0.03039 0.66980
 O271 O 0.42680 0.41129 -0.11533
 O272 O 0.45916 0.36122 -0.05469
 C273 C 0.43265 0.36850 -0.09551
 O274 O 0.61071 0.54371 -0.08645
 O275 O 0.55938 0.60438 -0.06275
 C276 C 0.59909 0.58912 -0.08358
 O277 O 0.59611 0.40950 -0.08474
 O278 O 0.54114 0.35993 -0.04252
 C279 C 0.57950 0.36684 -0.07064
 O280 O 0.43319 0.54689 -0.12526
 O281 O 0.47315 0.60638 -0.07476
 C282 C 0.44522 0.59220 -0.11354
 Zr283 Zr 0.45103 0.48176 -0.08841
 O284 O 0.45910 0.47610 -0.16996
 O285 O 0.37477 0.48276 -0.09388
 Zr286 Zr 0.57086 0.47977 -0.06866
 O287 O 0.57420 0.47474 -0.15055
 O288 O 0.64677 0.47432 -0.06275
 O289 O 0.50949 0.43570 -0.08498
 O290 O 0.51537 0.52289 -0.09191
 O291 O 0.40960 0.56573 0.05605
 O292 O 0.46355 0.61558 0.01274
 C293 C 0.42610 0.60864 0.04231
 O294 O 0.57192 0.42722 0.09672
 O295 O 0.52963 0.36879 0.04716
 C296 C 0.55873 0.38206 0.08508
 O297 O 0.58524 0.56289 0.08049
 O298 O 0.54840 0.61397 0.02392
 C299 C 0.57818 0.60579 0.06160
 O300 O 0.40575 0.43057 0.07468
 O301 O 0.44934 0.37039 0.03502
 C302 C 0.41605 0.38492 0.06634
 Zr303 Zr 0.43441 0.49501 0.03992
 O304 O 0.41755 0.50683 0.11903
 O305 O 0.36028 0.49317 0.01901
 Zr306 Zr 0.55477 0.49320 0.05992
 O307 O 0.54410 0.50622 0.14038
 O308 O 0.63055 0.48994 0.07000
 Zr309 Zr 0.49809 0.41416 -0.00790
 Zr310 Zr 0.50769 0.56125 -0.02081
 O311 O 0.49635 0.53788 0.05572
 O312 O 0.49051 0.45159 0.06405
 O313 O 0.43618 0.53256 -0.02959
 O314 O 0.56891 0.44388 0.00079
 O315 O 0.43105 0.44554 -0.02176
 O316 O 0.57490 0.52981 -0.00662
 H317 H 0.52147 0.54191 -0.12370
 H318 H 0.59633 0.42239 0.00733
 H319 H 0.49450 0.56277 0.08423
 H320 H 0.40146 0.42392 -0.02377
 H321 H 0.65576 0.48390 -0.02654
 H322 H 0.63702 0.49366 0.10786
 H323 H 0.52497 0.47787 0.15366
 H324 H 0.44714 0.50025 0.13903
 H325 H 0.34232 0.49546 0.05206
 H326 H 0.36663 0.47844 -0.13130
 H327 H 0.48566 0.45351 -0.17666
 H328 H 0.60904 0.47421 -0.15904
 C329 C 1.17485 0.20505 0.21445
 C330 C 1.18196 0.16920 0.17957
 C331 C 1.14056 0.14417 0.15277
 C332 C 1.14714 0.10744 0.11878
 H333 H 1.21842 0.15825 0.17115
 H334 H 1.10434 0.15603 0.16093
 H335 H 1.13820 0.21585 0.22227
 H336 H 1.18350 0.09588 0.11081
 C337 C 1.20831 0.66107 0.71240
 C338 C 1.20946 0.65139 0.66136
 C339 C 1.17263 0.61650 0.63927
 C340 C 1.17118 0.60228 0.58934
 H341 H 1.23337 0.67169 0.63592
 H342 H 1.14288 0.60525 0.66412
 H343 H 1.18509 0.63788 0.73613
 H344 H 1.20122 0.61059 0.56387
 C345 C 0.68434 0.20381 0.68910
 C346 C 0.68522 0.15758 0.66502
 C347 C 0.64366 0.13710 0.64066
 C348 C 0.64550 0.09283 0.61305
 H349 H 0.71812 0.13725 0.66499
 H350 H 0.60992 0.15608 0.64270
 H351 H 0.65230 0.22491 0.68267
 H352 H 0.68036 0.07621 0.60868
 C353 C 0.70385 0.67015 0.17860
 C354 C 0.67069 0.68026 0.14280
 C355 C 0.64487 0.64008 0.11456
 C356 C 0.60634 0.64762 0.08454
 H357 H 0.66013 0.71776 0.13755
 H358 H 0.65631 0.60300 0.12072
 H359 H 0.71349 0.63242 0.18423
 H360 H 0.59528 0.68458 0.07723
 C361 C 0.80620 -0.17497 0.20687
 C362 C 0.80461 -0.15578 0.15965
 C363 C 0.84365 -0.12238 0.14229
 C364 C 0.84077 -0.09990 0.09688
 H365 H 0.77564 -0.16662 0.13268
 H366 H 0.87633 -0.11820 0.16581
 H367 H 0.83358 -0.16187 0.23472
 H368 H 0.80744 -0.10239 0.07434
 C369 C 0.82074 0.32376 0.71447
 C370 C 0.81829 0.35005 0.66862
 C371 C 0.85754 0.37977 0.65271
 C372 C 0.85212 0.41458 0.61426
 H373 H 0.78499 0.34897 0.64606
 H374 H 0.89256 0.37634 0.67128
 H375 H 0.85106 0.33199 0.74063
 H376 H 0.81584 0.42241 0.60126
 C377 C 0.30281 -0.17356 0.71970
 C378 C 0.29893 -0.15724 0.67120
 C379 C 0.33642 -0.12319 0.65093
 C380 C 0.33350 -0.10396 0.60361
 H381 H 0.27021 -0.17128 0.64547
 H382 H 0.36894 -0.11634 0.67423
 H383 H 0.33042 -0.15725 0.74550
 H384 H 0.30053 -0.10884 0.58074
 C385 C 0.32057 0.32196 0.21129
 C386 C 0.33463 0.31737 0.16195
 C387 C 0.36508 0.35573 0.13782
 C388 C 0.38778 0.34669 0.09322
 H389 H 0.32340 0.28513 0.13887
 H390 H 0.36873 0.39173 0.15655
 H391 H 0.33456 0.35261 0.23516
 H392 H 0.38621 0.30990 0.07624
 C393 C 0.82783 0.19788 -0.19180
 C394 C 0.82553 0.14936 -0.17563
 C395 C 0.86288 0.13156 -0.14538
 C396 C 0.85586 0.09020 -0.11493
 H397 H 0.79292 0.12681 -0.18251
 H398 H 0.89717 0.15218 -0.14296
 H399 H 0.85682 0.22191 -0.17620
 H400 H 0.81969 0.07379 -0.11189
 C401 C 0.81222 0.71485 0.33100
 C402 C 0.80913 0.67352 0.35773
 C403 C 0.84945 0.65816 0.39019
 C404 C 0.84422 0.61869 0.41966
 H405 H 0.77762 0.64891 0.35282
 H406 H 0.88458 0.67671 0.38653
 H407 H 0.84206 0.74113 0.33788
 H408 H 0.80865 0.60139 0.42441
 C409 C 0.32429 0.19822 0.32819
 C410 C 0.32024 0.15138 0.34261
 C411 C 0.36066 0.12696 0.36745
 C412 C 0.35392 0.08223 0.38697
 H413 H 0.28658 0.13044 0.33658
 H414 H 0.39576 0.14592 0.37063
 H415 H 0.35736 0.21944 0.33698
 H416 H 0.31812 0.06461 0.38587
 C417 C 0.33389 0.71901 -0.15731
 C418 C 0.36946 0.68956 -0.17098
 C419 C 0.40147 0.66695 -0.13297
 C420 C 0.42619 0.62827 -0.14887
 H421 H 0.37115 0.67685 -0.21118
 H422 H 0.39939 0.67664 -0.09199
 H423 H 0.33201 0.73414 -0.11815
 H424 H 0.42451 0.61713 -0.18959
 C425 C 1.18262 -0.20854 -0.15736
 C426 C 1.19152 -0.16376 -0.13672
 C427 C 1.15161 -0.13930 -0.11027
 C428 C 1.15671 -0.09513 -0.08706
 H429 H 1.22598 -0.14445 -0.14195
 H430 H 1.11625 -0.15794 -0.11079
 H431 H 1.14712 -0.22583 -0.15164
 H432 H 1.19205 -0.07670 -0.08417
 C433 C 1.22431 0.33408 0.34725
 C434 C 1.18869 0.36425 0.33672
 C435 C 1.16628 0.39604 0.37595
 C436 C 1.12164 0.41053 0.36582
 H437 H 1.17171 0.36154 0.29853
 H438 H 1.18322 0.40314 0.41362
 H439 H 1.24373 0.33685 0.38395
 H440 H 1.10461 0.39969 0.32897
 C441 C 0.67000 -0.20026 0.30994
 C442 C 0.68241 -0.16989 0.34954
 C443 C 0.64348 -0.14515 0.37685
 C444 C 0.65108 -0.11392 0.41701
 H445 H 0.71966 -0.16392 0.36199
 H446 H 0.60679 -0.15279 0.36289
 H447 H 0.63193 -0.20549 0.29980
 H448 H 0.68750 -0.10521 0.43109
 C449 C 0.71923 0.30227 -0.15570
 C450 C 0.67320 0.29529 -0.13440
 C451 C 0.65207 0.33230 -0.10597
 C452 C 0.60522 0.32632 -0.08640
 H453 H 0.65184 0.26199 -0.14324
 H454 H 0.67124 0.36768 -0.10231
 H455 H 0.74415 0.32995 -0.13882
 H456 H 0.58870 0.28984 -0.08321
 C457 C 1.18416 0.16921 -0.21049
 C458 C 1.19189 0.15116 -0.16341
 C459 C 1.15354 0.11945 -0.14104
 C460 C 1.15796 0.09789 -0.09527
 H461 H 1.22402 0.16121 -0.14083
 H462 H 1.11937 0.11545 -0.16202
 H463 H 1.15194 0.15627 -0.23181
 H464 H 1.19223 0.10000 -0.07446
 C465 C 1.16743 0.69592 0.27922
 C466 C 1.17529 0.65963 0.31212
 C467 C 1.13553 0.63705 0.34202
 C468 C 1.14344 0.60098 0.37519
 H469 H 1.21160 0.64661 0.31700
 H470 H 1.09942 0.65057 0.33715
 H471 H 1.13119 0.70915 0.27457
 H472 H 1.17972 0.58793 0.38012
 C473 C 0.67513 0.18246 0.31879
 C474 C 0.68830 0.14514 0.34800
 C475 C 0.64968 0.11605 0.37328
 C476 C 0.65692 0.07884 0.40521
 H477 H 0.72593 0.13605 0.35206
 H478 H 0.61288 0.12640 0.36538
 H479 H 0.63709 0.19084 0.31720
 H480 H 0.69326 0.06857 0.41516
 C481 C 0.65661 0.72639 -0.18704
 C482 C 0.66288 0.69015 -0.15048
 C483 C 0.62492 0.66730 -0.12382
 C484 C 0.63352 0.62150 -0.10371
 H485 H 0.69871 0.67540 -0.14710
 H486 H 0.58879 0.68140 -0.12457
 H487 H 0.62079 0.74024 -0.19324
 H488 H 0.66883 0.60645 -0.11064
 C489 C 0.81949 -0.20033 -0.20884
 C490 C 0.81935 -0.17230 -0.16235
 C491 C 0.85939 -0.14412 -0.14389
 C492 C 0.85382 -0.10992 -0.10300
 H493 H 0.78600 -0.16967 -0.14092
 H494 H 0.89434 -0.14805 -0.16197
 H495 H 0.85018 -0.19621 -0.23448
 H496 H 0.81754 -0.10317 -0.08947
 C497 C 0.80117 0.32221 0.31458
 C498 C 0.79466 0.34662 0.35983
 C499 C 0.83253 0.38260 0.37853
 C500 C 0.82945 0.41124 0.42170
 H501 H 0.76285 0.33932 0.38309
 H502 H 0.86575 0.38403 0.35644
 H503 H 0.83214 0.33220 0.29100
 H504 H 0.79616 0.41198 0.44350
 C505 C 0.32358 -0.20337 0.28128
 C506 C 0.31714 -0.17905 0.32648
 C507 C 0.35701 -0.15149 0.35350
 C508 C 0.34871 -0.12338 0.39571
 H509 H 0.28174 -0.17924 0.34418
 H510 H 0.39346 -0.15448 0.33887
 H511 H 0.35815 -0.20043 0.26190
 H512 H 0.31195 -0.11906 0.40890
 C513 C 0.31567 0.30324 -0.22256
 C514 C 0.34242 0.29721 -0.17703
 C515 C 0.37688 0.33323 -0.16130
 C516 C 0.40653 0.32831 -0.11762
 H517 H 0.33669 0.26496 -0.15378
 H518 H 0.37936 0.36695 -0.18285
 H519 H 0.32631 0.33332 -0.24739
 H520 H 0.40713 0.29331 -0.09849
 C521 C 1.22130 -0.18134 0.14598
 C522 C 1.19246 -0.14454 0.15797
 C523 C 1.17284 -0.11156 0.11891
 C524 C 1.13988 -0.07973 0.13409
 H525 H 1.17915 -0.14153 0.19743
 H526 H 1.17959 -0.11807 0.07795
 H527 H 1.23723 -0.18427 0.10780
 H528 H 1.13161 -0.07641 0.17511
 C529 C 1.17462 0.32269 0.69412
 C530 C 1.18549 0.34896 0.65232
 C531 C 1.14869 0.38187 0.63242
 C532 C 1.15336 0.40647 0.58826
 H533 H 1.21869 0.34366 0.63125
 H534 H 1.11521 0.38420 0.65386
 H535 H 1.14004 0.32807 0.71267
 H536 H 1.18690 0.40578 0.56685
 C537 C 0.72209 -0.17192 0.67235
 C538 C 0.68801 -0.13581 0.67812
 C539 C 0.67067 -0.10739 0.63806
 C540 C 0.62702 -0.08490 0.64751
 H541 H 0.67059 -0.13260 0.71555
 H542 H 0.68575 -0.10935 0.59938
 H543 H 0.74720 -0.17071 0.64030
 H544 H 0.61126 -0.08922 0.68578
 C545 C 0.68919 0.31402 0.18756
 C546 C 0.64414 0.30978 0.16799
 C547 C 0.62313 0.34938 0.13849
 C548 C 0.57976 0.34306 0.11539
 H549 H 0.62193 0.27692 0.17408
 H550 H 0.64343 0.38399 0.13547
 H551 H 0.71201 0.34583 0.17868
 H552 H 0.56067 0.30764 0.11618
 C553 C 0.81138 0.20163 0.18901
 C554 C 0.80747 0.15908 0.16172
 C555 C 0.84795 0.14172 0.12975
 C556 C 0.84282 0.10252 0.09727
 H557 H 0.77458 0.13635 0.16373
 H558 H 0.88311 0.16023 0.13469
 H559 H 0.84308 0.22559 0.18419
 H560 H 0.80736 0.08492 0.09142
 C561 C 0.76882 0.67321 0.68036
 C562 C 0.81345 0.67677 0.65581
 C563 C 0.83246 0.63735 0.62738
 C564 C 0.88186 0.63915 0.61721
 H565 H 0.83629 0.70936 0.66282
 H566 H 0.81036 0.60487 0.61712
 H567 H 0.74883 0.63825 0.67742
 H568 H 0.90260 0.67053 0.63361
 C569 C 0.29964 0.20929 0.64776
 C570 C 0.29876 0.16577 0.62282
 C571 C 0.34249 0.14575 0.59960
 C572 C 0.34022 0.10062 0.57833
 H573 H 0.26629 0.14229 0.62371
 H574 H 0.37682 0.16611 0.60325
 H575 H 0.33117 0.23386 0.64504
 H576 H 0.30534 0.08136 0.57406
 C577 C 0.30049 0.67086 0.15323
 C578 C 0.33756 0.68435 0.12285
 C579 C 0.36192 0.64509 0.09363
 C580 C 0.40129 0.65182 0.06410
 H581 H 0.35018 0.72226 0.12056
 H582 H 0.34739 0.60799 0.09835
 H583 H 0.28981 0.63215 0.15377
 H584 H 0.41644 0.68844 0.05817
   
