data_POSCAR
  _audit_creation_date              2014-09-24
  _audit_creation_method            'ToBaCCo'
  _symmetry_space_group_name_H-M    'P1'
  _symmetry_Int_Tables_number       1
  _symmetry_cell_setting            triclinic
  loop_
  _symmetry_equiv_pos_as_xyz
 x,y,z
_cell_length_a 21.2806
_cell_length_b 13.3068
_cell_length_c 13.2839
_cell_angle_alpha 89.785200
_cell_angle_beta 90.160100
_cell_angle_gamma 89.848900
loop_
  _atom_site_label
  _atom_site_type_symbol
  _atom_site_fract_x
  _atom_site_fract_y
  _atom_site_fract_z
O1 O 0.08899 0.16941 0.18621
 O2 O 0.15764 0.08009 0.08805
 C3 C 0.14543 0.14385 0.15897
 O4 O -0.08751 -0.18723 0.17335
 O5 O -0.15630 -0.08947 0.08263
 C6 C -0.14403 -0.16021 0.14709
 O7 O 0.08968 -0.17734 0.18347
 O8 O 0.15790 -0.08624 0.08664
 C9 C 0.14636 -0.15165 0.15697
 O10 O -0.08781 0.18046 0.17606
 O11 O -0.15658 0.08515 0.08407
 C12 C -0.14433 0.15452 0.14950
 Zr13 Zr 0.00061 0.12322 0.12916
 O14 O -0.00234 0.11085 0.28772
 O15 O 0.00681 0.28177 0.13594
 Zr16 Zr 0.00093 -0.13070 0.12618
 O17 O -0.00456 -0.13349 0.28518
 O18 O 0.00820 -0.28938 0.12326
 O19 O 0.05682 -0.00398 0.14699
 O20 O -0.05395 -0.00376 0.14611
 O21 O -0.08825 0.18399 -0.17298
 O22 O -0.15667 0.08521 -0.08401
 C23 C -0.14461 0.15643 -0.14783
 O24 O 0.08853 -0.17324 -0.18586
 O25 O 0.15740 -0.08384 -0.08823
 C26 C 0.14502 -0.14755 -0.15910
 O27 O -0.08823 -0.18278 -0.17591
 O28 O -0.15683 -0.08743 -0.08358
 C29 C -0.14469 -0.15657 -0.14934
 O30 O 0.08842 0.17500 -0.18215
 O31 O 0.15738 0.08242 -0.08653
 C32 C 0.14498 0.14833 -0.15599
 Zr33 Zr 0.00022 0.12718 -0.12566
 O34 O -0.00706 0.13000 -0.28462
 O35 O 0.00716 0.28586 -0.12285
 Zr36 Zr 0.00033 -0.12718 -0.12820
 O37 O -0.00717 -0.12588 -0.28714
 O38 O 0.00769 -0.28589 -0.12864
 Zr39 Zr 0.09373 -0.00188 0.00010
 Zr40 Zr -0.09272 -0.00144 0.00035
 O41 O -0.05418 0.00035 -0.14537
 O42 O 0.05613 0.00017 -0.14685
 O43 O -0.05554 0.14518 0.00190
 O44 O 0.05531 -0.14738 -0.00122
 O45 O 0.05490 0.14359 0.00194
 O46 O -0.05539 -0.14839 -0.00114
 H47 H -0.08252 -0.00435 0.20489
 H48 H 0.08409 -0.20603 -0.00167
 H49 H -0.08269 0.00092 -0.20448
 H50 H 0.08334 0.20242 0.00260
 H51 H -0.02780 -0.31499 0.08380
 H52 H -0.02778 -0.31261 -0.08882
 H53 H 0.02710 -0.08313 -0.31330
 H54 H 0.02762 0.08849 -0.31150
 H55 H -0.02893 0.31168 -0.08385
 H56 H -0.02446 0.30921 0.08794
 H57 H -0.00225 0.18058 0.31363
 H58 H 0.02374 -0.08027 0.31040
 O59 O 0.58810 0.67488 0.68163
 O60 O 0.65679 0.58524 0.58413
 C61 C 0.64458 0.64950 0.65459
 O62 O 0.41161 0.31645 0.67335
 O63 O 0.34265 0.41543 0.58426
 C64 C 0.35505 0.34428 0.64839
 O65 O 0.58815 0.32589 0.68338
 O66 O 0.65672 0.41483 0.58478
 C67 C 0.64456 0.35099 0.65598
 O68 O 0.41129 0.68403 0.67131
 O69 O 0.34227 0.58797 0.58037
 C70 C 0.35475 0.65791 0.64505
 Zr71 Zr 0.49979 0.62695 0.62524
 O72 O 0.49277 0.62555 0.78423
 O73 O 0.50661 0.78562 0.62609
 Zr74 Zr 0.49978 0.37284 0.62559
 O75 O 0.49370 0.36805 0.78455
 O76 O 0.50294 0.21440 0.61624
 O77 O 0.55586 0.49976 0.64551
 O78 O 0.44529 0.50014 0.64387
 O79 O 0.41066 0.68391 0.32260
 O80 O 0.34215 0.58628 0.41278
 C81 C 0.35418 0.65687 0.34815
 O82 O 0.58827 0.32494 0.31603
 O83 O 0.65691 0.41494 0.41350
 C84 C 0.64476 0.35038 0.34324
 O85 O 0.41228 0.31405 0.32522
 O86 O 0.34350 0.41165 0.41450
 C87 C 0.35584 0.34071 0.35090
 O88 O 0.58805 0.67364 0.31386
 O89 O 0.65687 0.58242 0.41126
 C90 C 0.64459 0.64715 0.34076
 Zr91 Zr 0.49938 0.62723 0.37037
 O92 O 0.49215 0.62691 0.21139
 O93 O 0.50630 0.78592 0.36956
 Zr94 Zr 0.49978 0.37351 0.37130
 O95 O 0.49253 0.37683 0.21228
 O96 O 0.50585 0.21479 0.37020
 Zr97 Zr 0.59300 0.50018 0.49863
 Zr98 Zr 0.40622 0.50061 0.49821
 O99 O 0.44481 0.50034 0.35250
 O100 O 0.55570 0.50027 0.35136
 O101 O 0.44363 0.64717 0.49768
 O102 O 0.55441 0.35477 0.49882
 O103 O 0.55399 0.64562 0.49780
 O104 O 0.44369 0.35398 0.49852
 H105 H 0.41703 0.50035 0.70303
 H106 H 0.58271 0.29550 0.49917
 H107 H 0.41619 0.49996 0.29354
 H108 H 0.58235 0.70456 0.49743
 H109 H 0.50296 0.18931 0.68657
 H110 H 0.47928 0.18994 0.42595
 H111 H 0.52959 0.41312 0.18612
 H112 H 0.52720 0.58565 0.18533
 H113 H 0.47118 0.81237 0.41035
 H114 H 0.47261 0.81215 0.58252
 H115 H 0.52903 0.58697 0.81080
 H116 H 0.52533 0.41542 0.81112
 C117 C 0.26128 0.16598 0.18480
 C118 C 0.19925 0.19167 0.21066
 C119 C 0.18928 0.26498 0.28484
 C120 C 0.24010 0.31259 0.33098
 C121 C 0.30211 0.28796 0.30406
 C122 C 0.31211 0.21355 0.23099
 H123 H 0.27071 0.10961 0.12817
 H124 H 0.14215 0.28646 0.30673
 H125 H 0.23065 0.36928 0.38728
 H126 H 0.35923 0.19256 0.20864
 C127 C 0.74003 0.81424 0.16761
 C128 C 0.80199 0.78817 0.19452
 C129 C 0.81162 0.71368 0.26821
 C130 C 0.76053 0.66736 0.31490
 C131 C 0.69858 0.69440 0.28896
 C132 C 0.68895 0.76789 0.21427
 H133 H 0.73083 0.87110 0.11087
 H134 H 0.85865 0.69163 0.29061
 H135 H 0.76974 0.61077 0.37191
 H136 H 0.64191 0.79036 0.19228
 C137 C 0.73951 0.18249 0.82984
 C138 C 0.80148 0.20816 0.80389
 C139 C 0.81130 0.28261 0.73035
 C140 C 0.76038 0.32942 0.68295
 C141 C 0.69842 0.30296 0.70807
 C142 C 0.68858 0.22939 0.78250
 H143 H 0.73021 0.12566 0.88641
 H144 H 0.85838 0.30432 0.70865
 H145 H 0.76969 0.38604 0.62617
 H146 H 0.64150 0.20733 0.80381
 C147 C 0.26074 0.83064 0.81391
 C148 C 0.19864 0.80506 0.78843
 C149 C 0.18840 0.73251 0.71357
 C150 C 0.23905 0.68556 0.66635
 C151 C 0.30115 0.71010 0.69285
 C152 C 0.31140 0.78372 0.76664
 H153 H 0.27036 0.88644 0.87103
 H154 H 0.14120 0.71117 0.69193
 H155 H 0.22941 0.62943 0.60957
 H156 H 0.35860 0.80461 0.78873
 C157 C 0.18847 0.27155 0.71882
 C158 C 0.19869 0.19697 0.79236
 C159 C 0.26086 0.17014 0.81694
 C160 C 0.31154 0.21738 0.76984
 C161 C 0.30132 0.29268 0.69702
 C162 C 0.23914 0.31884 0.67176
 H163 H 0.14125 0.29403 0.69788
 H164 H 0.27054 0.11285 0.87304
 H165 H 0.35875 0.19517 0.79105
 H166 H 0.22946 0.37629 0.61583
 C167 C 0.81137 0.71890 0.72781
 C168 C 0.80142 0.79224 0.80204
 C169 C 0.73933 0.81706 0.82847
 C170 C 0.68849 0.77037 0.78119
 C171 C 0.69845 0.69774 0.70626
 C172 C 0.76054 0.67226 0.68049
 H173 H 0.85851 0.69779 0.70563
 H174 H 0.72986 0.87303 0.88548
 H175 H 0.64134 0.79173 0.80308
 H176 H 0.77002 0.61646 0.62332
 C177 C 0.25837 0.82899 0.17799
 C178 C 0.19591 0.80417 0.20419
 C179 C 0.18685 0.73128 0.28032
 C180 C 0.23808 0.68431 0.32713
 C181 C 0.30000 0.70860 0.29975
 C182 C 0.30946 0.78193 0.22508
 H183 H 0.26835 0.88461 0.12045
 H184 H 0.14013 0.70941 0.30389
 H185 H 0.22897 0.62842 0.38472
 H186 H 0.35649 0.80272 0.20224
 C187 C 0.81168 0.27971 0.27175
 C188 C 0.80178 0.20630 0.19757
 C189 C 0.73970 0.18192 0.17057
 C190 C 0.68882 0.22907 0.21725
 C191 C 0.69871 0.30175 0.29214
 C192 C 0.76079 0.32684 0.31846
 H193 H 0.85881 0.30048 0.29434
 H194 H 0.73025 0.12592 0.11357
 H195 H 0.64169 0.20800 0.19493
 H196 H 0.77022 0.38265 0.37564
   
