data_POSCAR
  _audit_creation_date              2014-09-24
  _audit_creation_method            'ToBaCCo'
  _symmetry_space_group_name_H-M    'P1'
  _symmetry_Int_Tables_number       1
  _symmetry_cell_setting            triclinic
  loop_
  _symmetry_equiv_pos_as_xyz
 x,y,z
_cell_length_a 57.8277
_cell_length_b 57.7353
_cell_length_c 57.8371
_cell_angle_alpha 90.004000
_cell_angle_beta 89.998900
_cell_angle_gamma 89.996500
loop_
  _atom_site_label
  _atom_site_type_symbol
  _atom_site_fract_x
  _atom_site_fract_y
  _atom_site_fract_z
C1 C 0.61508 0.64456 0.61574
 C2 C 0.63490 0.63466 0.60585
 C3 C 0.64468 0.61509 0.61561
 C4 C 0.63477 0.60515 0.63539
 C5 C 0.61522 0.61491 0.64515
 C6 C 0.60531 0.63475 0.63526
 C7 C 0.60189 0.66354 0.60997
 N8 N 0.58439 0.66545 0.62551
 C9 C 0.58633 0.64792 0.64105
 C10 C 0.60943 0.60170 0.66409
 N11 N 0.62499 0.58416 0.66606
 C12 C 0.64056 0.58615 0.64855
 C13 C 0.66365 0.60932 0.60244
 N14 N 0.66559 0.62492 0.58497
 C15 C 0.64809 0.64048 0.58691
 H16 H 0.60481 0.67512 0.59554
 H17 H 0.57479 0.64498 0.65549
 H18 H 0.59493 0.60467 0.67558
 H19 H 0.65505 0.57464 0.64556
 H20 H 0.67519 0.59485 0.60534
 H21 H 0.64517 0.65497 0.57539
 C22 C 0.88554 0.35490 0.11534
 C23 C 0.86576 0.36484 0.10542
 C24 C 0.85602 0.38444 0.11516
 C25 C 0.86593 0.39435 0.13497
 C26 C 0.88544 0.38453 0.14475
 C27 C 0.89531 0.36468 0.13487
 C28 C 0.89868 0.33588 0.10958
 N29 N 0.91619 0.33389 0.12515
 C30 C 0.91424 0.35146 0.14068
 C31 C 0.89124 0.39773 0.16370
 N32 N 0.87572 0.41528 0.16562
 C33 C 0.86018 0.41336 0.14813
 C34 C 0.83709 0.39026 0.10197
 N35 N 0.83514 0.37467 0.08449
 C36 C 0.85259 0.35906 0.08646
 H37 H 0.89569 0.32435 0.09511
 H38 H 0.92573 0.35443 0.15517
 H39 H 0.90568 0.39478 0.17525
 H40 H 0.84575 0.42496 0.14519
 H41 H 0.82558 0.40476 0.10486
 H42 H 0.85549 0.34456 0.07494
 C43 C 0.38483 0.14441 -0.11567
 C44 C 0.36504 0.13449 -0.10575
 C45 C 0.35526 0.11492 -0.11552
 C46 C 0.36515 0.10501 -0.13533
 C47 C 0.38467 0.11480 -0.14511
 C48 C 0.39458 0.13462 -0.13521
 C49 C 0.39802 0.16340 -0.10990
 N50 N 0.41549 0.16533 -0.12548
 C51 C 0.41353 0.14781 -0.14102
 C52 C 0.39045 0.10162 -0.16407
 N53 N 0.37490 0.08406 -0.16604
 C54 C 0.35936 0.08602 -0.14850
 C55 C 0.33632 0.10911 -0.10234
 N56 N 0.33438 0.12469 -0.08485
 C57 C 0.35187 0.14027 -0.08679
 H58 H 0.39512 0.17497 -0.09546
 H59 H 0.42505 0.14488 -0.15549
 H60 H 0.40493 0.10461 -0.17557
 H61 H 0.34489 0.07449 -0.14552
 H62 H 0.32478 0.09463 -0.10525
 H63 H 0.35478 0.15475 -0.07525
 C64 C 0.11453 0.85552 0.38433
 C65 C 0.13431 0.86545 0.39423
 C66 C 0.14407 0.88502 0.38446
 C67 C 0.13417 0.89492 0.36465
 C68 C 0.11465 0.88512 0.35489
 C69 C 0.10476 0.86528 0.36479
 C70 C 0.10137 0.83652 0.39012
 N71 N 0.08386 0.83453 0.37456
 C72 C 0.08581 0.85208 0.35900
 C73 C 0.10884 0.89829 0.33592
 N74 N 0.12438 0.91585 0.33395
 C75 C 0.13994 0.91391 0.35147
 C76 C 0.16301 0.89084 0.39764
 N77 N 0.16496 0.87526 0.41513
 C78 C 0.14748 0.85967 0.41319
 H79 H 0.10436 0.82500 0.40460
 H80 H 0.07432 0.85504 0.34451
 H81 H 0.09437 0.89528 0.32443
 H82 H 0.15440 0.92545 0.35445
 H83 H 0.17454 0.90532 0.39473
 H84 H 0.14457 0.84519 0.42472
 N85 N 0.09742 0.16192 0.11588
 N86 N 0.08819 0.15233 0.13432
 C87 C 0.06941 0.16462 0.14066
 C88 C 0.06683 0.18282 0.12534
 C89 C 0.08487 0.18059 0.10985
 H90 H 0.05839 0.16069 0.15525
 H91 H 0.08852 0.19172 0.09526
 Cu92 Cu 0.10168 0.12470 0.14810
 Cu93 Cu 0.12483 0.14939 0.10086
 Cu94 Cu 0.14889 0.09991 0.12496
 N95 N 0.11544 0.09707 0.16162
 N96 N 0.13387 0.08744 0.15240
 C97 C 0.13987 0.06877 0.16497
 C98 C 0.12438 0.06660 0.18302
 C99 C 0.10909 0.08481 0.18041
 H100 H 0.15445 0.05761 0.16132
 H101 H 0.09451 0.08878 0.19143
 N102 N 0.16160 0.11517 0.09723
 N103 N 0.15253 0.13409 0.08816
 C104 C 0.16510 0.14033 0.06956
 C105 C 0.18288 0.12460 0.06686
 C106 C 0.18018 0.10889 0.08464
 H107 H 0.16165 0.15520 0.05873
 H108 H 0.19100 0.09402 0.08810
 H109 H 0.11983 0.11551 0.11114
 H110 H 0.13866 0.13380 0.12992
 N111 N 0.40208 0.83812 0.61581
 N112 N 0.41126 0.84771 0.63429
 C113 C 0.42998 0.83537 0.64071
 C114 C 0.43261 0.81718 0.62539
 C115 C 0.41463 0.81943 0.60983
 H116 H 0.44091 0.83924 0.65539
 H117 H 0.41098 0.80828 0.59526
 Cu118 Cu 0.39752 0.87524 0.64801
 Cu119 Cu 0.37456 0.85054 0.60081
 Cu120 Cu 0.35004 0.89966 0.62530
 N121 N 0.38378 0.90276 0.66173
 N122 N 0.36512 0.91216 0.65273
 C123 C 0.35905 0.93077 0.66535
 C124 C 0.37472 0.93314 0.68321
 C125 C 0.39018 0.91510 0.68046
 H126 H 0.34433 0.94178 0.66183
 H127 H 0.40493 0.91131 0.69131
 N128 N 0.33741 0.88442 0.59752
 N129 N 0.34674 0.86574 0.58820
 C130 C 0.33429 0.85960 0.56948
 C131 C 0.31633 0.87515 0.56695
 C132 C 0.31879 0.89064 0.58496
 H133 H 0.33797 0.84495 0.55844
 H134 H 0.30781 0.90536 0.58857
 H135 H 0.37911 0.88446 0.61122
 H136 H 0.36061 0.86582 0.62996
 N137 N 0.90297 0.66228 0.38460
 N138 N 0.91202 0.65283 0.36599
 C139 C 0.93064 0.66528 0.35948
 C140 C 0.93332 0.68340 0.37486
 C141 C 0.91549 0.68099 0.39056
 H142 H 0.94145 0.66152 0.34469
 H143 H 0.91192 0.69206 0.40522
 Cu144 Cu 0.89844 0.62527 0.35219
 Cu145 Cu 0.87559 0.64974 0.39970
 Cu146 Cu 0.85117 0.60059 0.37522
 N147 N 0.88466 0.59769 0.33858
 N148 N 0.86615 0.58815 0.34773
 C149 C 0.86011 0.56950 0.33514
 C150 C 0.87566 0.56725 0.31715
 C151 C 0.89101 0.58541 0.31980
 H152 H 0.84550 0.55838 0.33876
 H153 H 0.90565 0.58932 0.30885
 N154 N 0.83857 0.61574 0.40306
 N155 N 0.84787 0.63443 0.41239
 C156 C 0.83536 0.64060 0.43105
 C157 C 0.81738 0.62507 0.43353
 C158 C 0.81991 0.60954 0.41556
 H159 H 0.83896 0.65531 0.44205
 H160 H 0.80889 0.59486 0.41190
 H161 H 0.88028 0.61596 0.38915
 H162 H 0.86158 0.63457 0.37058
 N163 N 0.59753 0.33827 -0.11576
 N164 N 0.58858 0.34762 -0.13446
 C165 C 0.56987 0.33527 -0.14089
 C166 C 0.56706 0.31726 -0.12539
 C167 C 0.58488 0.31968 -0.10967
 H168 H 0.55908 0.33900 -0.15570
 H169 H 0.58839 0.30868 -0.09495
 Cu170 Cu 0.60242 0.37506 -0.14827
 Cu171 Cu 0.62504 0.35069 -0.10074
 Cu172 Cu 0.64995 0.39942 -0.12558
 N173 N 0.61625 0.40251 -0.16206
 N174 N 0.63491 0.41190 -0.15305
 C175 C 0.64092 0.43058 -0.16560
 C176 C 0.62518 0.43304 -0.18339
 C177 C 0.60973 0.41497 -0.18066
 H178 H 0.65561 0.44162 -0.16203
 H179 H 0.59488 0.41129 -0.19142
 N180 N 0.66251 0.38424 -0.09774
 N181 N 0.65295 0.36579 -0.08820
 C182 C 0.66539 0.35964 -0.06949
 C183 C 0.68359 0.37494 -0.06718
 C184 C 0.68128 0.39029 -0.08533
 H185 H 0.66158 0.34512 -0.05832
 H186 H 0.69249 0.40479 -0.08914
 H187 H 0.62069 0.38458 -0.11149
 H188 H 0.63919 0.36561 -0.12991
 N189 N -0.03427 0.30054 0.14180
 C190 C -0.03417 0.28382 0.12535
 N191 N -0.05077 0.28399 0.10880
 N192 N -0.06700 0.30038 0.10872
 C193 C -0.06721 0.31718 0.12519
 N194 N -0.05050 0.31692 0.14173
 C195 C -0.01671 0.26617 0.12544
 C196 C -0.00201 0.25137 0.12549
 C197 C 0.01554 0.23380 0.12546
 N198 N 0.01566 0.21703 0.14188
 N199 N 0.03200 0.20075 0.14185
 C200 C 0.04877 0.20071 0.12541
 N201 N 0.04859 0.21753 0.10899
 N202 N 0.03225 0.23380 0.10902
 N203 N 0.53386 0.69956 0.64210
 C204 C 0.53374 0.71627 0.62563
 N205 N 0.55037 0.71614 0.60911
 N206 N 0.56665 0.69980 0.60906
 C207 C 0.56684 0.68303 0.62554
 N208 N 0.55013 0.68322 0.64206
 C209 C 0.51622 0.73388 0.62569
 C210 C 0.50148 0.74864 0.62570
 C211 C 0.48389 0.76618 0.62565
 N212 N 0.48370 0.78293 0.64210
 N213 N 0.46735 0.79920 0.64204
 C214 C 0.45064 0.79925 0.62553
 N215 N 0.45089 0.78246 0.60909
 N216 N 0.46724 0.76619 0.60915
 N217 N 1.05079 0.78470 0.39100
 C218 C 1.03417 0.78453 0.37447
 N219 N 1.03428 0.80121 0.35799
 N220 N 1.05052 0.81757 0.35802
 C221 C 1.06725 0.81784 0.37454
 N222 N 1.06704 0.80106 0.39104
 C223 C 1.01668 0.76691 0.37444
 C224 C 1.00197 0.75212 0.37443
 C225 C 0.98443 0.73455 0.37449
 N226 N 0.96788 0.73442 0.39109
 N227 N 0.95158 0.71811 0.39118
 C228 C 0.95128 0.70139 0.37467
 N229 N 0.96788 0.70157 0.35806
 N230 N 0.98419 0.71788 0.35797
 N231 N 0.46600 0.19941 -0.14217
 C232 C 0.46617 0.21612 -0.12570
 N233 N 0.44958 0.21600 -0.10914
 N234 N 0.43329 0.19968 -0.10906
 C235 C 0.43304 0.18290 -0.12554
 N236 N 0.44972 0.18308 -0.14209
 C237 C 0.48370 0.23371 -0.12579
 C238 C 0.49843 0.24849 -0.12583
 C239 C 0.51599 0.26606 -0.12577
 N240 N 0.51623 0.28273 -0.14230
 N241 N 0.53251 0.29907 -0.14219
 C242 C 0.54908 0.29928 -0.12555
 N243 N 0.54878 0.28256 -0.10904
 N244 N 0.53251 0.26623 -0.10915
 N245 N 0.10776 -0.05093 0.28432
 C246 C 0.12421 -0.03421 0.28419
 N247 N 0.14075 -0.03434 0.30080
 N248 N 0.14082 -0.05067 0.31707
 C249 C 0.12434 -0.06749 0.31731
 N250 N 0.10782 -0.06727 0.30058
 C251 C 0.12414 -0.01661 0.26669
 C252 C 0.12411 -0.00183 0.25196
 C253 C 0.12416 0.01570 0.23437
 N254 N 0.10778 0.03250 0.23423
 N255 N 0.10784 0.04875 0.21786
 C256 C 0.12429 0.04873 0.20110
 N257 N 0.14067 0.03188 0.20131
 N258 N 0.14061 0.01564 0.21767
 N259 N 0.60840 0.55085 -0.28437
 C260 C 0.62489 0.53417 -0.28425
 N261 N 0.64143 0.53434 -0.30085
 N262 N 0.64148 0.55069 -0.31710
 C263 C 0.62497 0.56747 -0.31733
 N264 N 0.60844 0.56721 -0.30062
 C265 C 0.62484 0.51655 -0.26675
 C266 C 0.62481 0.50177 -0.25203
 C267 C 0.62485 0.48421 -0.23447
 N268 N 0.64149 0.48403 -0.21796
 N269 N 0.64156 0.46772 -0.20167
 C270 C 0.62500 0.45105 -0.20133
 N271 N 0.60834 0.45128 -0.21788
 N272 N 0.60827 0.46760 -0.23418
 N273 N 0.35848 1.03427 0.80081
 C274 C 0.37501 1.03415 0.78419
 N275 N 0.39148 1.05084 0.78432
 N276 N 0.39144 1.06718 0.80059
 C277 C 0.37492 1.06740 0.81733
 N278 N 0.35844 1.05060 0.81709
 C279 C 0.37505 1.01656 0.76667
 C280 C 0.37507 1.00179 0.75194
 C281 C 0.37502 0.98423 0.73438
 N282 N 0.39152 0.96755 0.73415
 N283 N 0.39144 0.95124 0.71784
 C284 C 0.37484 0.95108 0.70123
 N285 N 0.35834 0.96782 0.70151
 N286 N 0.35843 0.98412 0.71782
 N287 N 0.85938 0.46602 0.19959
 C288 C 0.87590 0.46615 0.21622
 N289 N 0.89235 0.44941 0.21611
 N290 N 0.89229 0.43306 0.19986
 C291 C 0.87577 0.43287 0.18315
 N292 N 0.85931 0.44967 0.18333
 C293 C 0.87597 0.48377 0.23372
 C294 C 0.87600 0.49856 0.24844
 C295 C 0.87594 0.51615 0.26598
 N296 N 0.89234 0.53294 0.26609
 N297 N 0.89226 0.54926 0.28239
 C298 C 0.87578 0.54932 0.29912
 N299 N 0.85938 0.53248 0.29894
 N300 N 0.85946 0.51617 0.28265
 N301 N 0.30034 0.14117 -0.03428
 C302 C 0.28371 0.12462 -0.03414
 N303 N 0.28386 0.10809 -0.05079
 N304 N 0.30014 0.10811 -0.06709
 C305 C 0.31684 0.12466 -0.06730
 N306 N 0.31663 0.14119 -0.05057
 C307 C 0.26618 0.12459 -0.01659
 C308 C 0.25145 0.12458 -0.00184
 C309 C 0.23392 0.12458 0.01572
 N310 N 0.23362 0.10787 0.03219
 N311 N 0.21734 0.10788 0.04850
 C312 C 0.20082 0.12459 0.04888
 N313 N 0.20118 0.14131 0.03236
 N314 N 0.21745 0.14130 0.01605
 N315 N 0.69964 0.64153 0.53445
 C316 C 0.71629 0.62500 0.53429
 N317 N 0.71616 0.60845 0.55092
 N318 N 0.69987 0.60842 0.56721
 C319 C 0.68314 0.62495 0.56743
 N320 N 0.68334 0.64150 0.55074
 C321 C 0.73384 0.62503 0.51675
 C322 C 0.74858 0.62507 0.50201
 C323 C 0.76614 0.62510 0.48448
 N324 N 0.76634 0.60854 0.46786
 N325 N 0.78268 0.60853 0.45161
 C326 C 0.79936 0.62509 0.45144
 N327 N 0.79911 0.64165 0.46811
 N328 N 0.78277 0.64166 0.48436
 N329 N 0.80110 0.35816 0.03393
 C330 C 0.78449 0.37474 0.03376
 N331 N 0.78465 0.39128 0.05039
 N332 N 0.80092 0.39127 0.06670
 C333 C 0.81760 0.37469 0.06693
 N334 N 0.81738 0.35814 0.05023
 C335 C 0.76696 0.37476 0.01621
 C336 C 0.75222 0.37479 0.00146
 C337 C 0.73468 0.37483 -0.01608
 N338 N 0.71784 0.35849 -0.01608
 N339 N 0.70156 0.35852 -0.03237
 C340 C 0.70156 0.37490 -0.04922
 N341 N 0.71844 0.39125 -0.04918
 N342 N 0.73473 0.39122 -0.03288
 N343 N 0.21548 0.89183 0.44921
 C344 C 0.21561 0.87529 0.46584
 N345 N 0.19898 0.85875 0.46570
 N346 N 0.18270 0.85873 0.44940
 C347 C 0.18249 0.87527 0.43269
 N348 N 0.19919 0.89182 0.43290
 C349 C 0.23315 0.87530 0.48339
 C350 C 0.24788 0.87530 0.49815
 C351 C 0.26540 0.87528 0.51571
 N352 N 0.28203 0.85873 0.51587
 N353 N 0.29828 0.85869 0.53221
 C354 C 0.29844 0.87521 0.54892
 N355 N 0.28176 0.89177 0.54871
 N356 N 0.26551 0.89180 0.53237
   
