data_POSCAR
  _audit_creation_date              2014-09-24
  _audit_creation_method            'ToBaCCo'
  _symmetry_space_group_name_H-M    'P1'
  _symmetry_Int_Tables_number       1
  _symmetry_cell_setting            triclinic
  loop_
  _symmetry_equiv_pos_as_xyz
 x,y,z
_cell_length_a 26.8072
_cell_length_b 26.4162
_cell_length_c 26.5935
_cell_angle_alpha 89.775800
_cell_angle_beta 90.341000
_cell_angle_gamma 89.919600
loop_
  _atom_site_label
  _atom_site_type_symbol
  _atom_site_fract_x
  _atom_site_fract_y
  _atom_site_fract_z
C1 C 0.28872 0.25191 0.21348
 N2 N 0.28897 0.21551 0.24960
 C3 C 0.25321 0.21516 0.28551
 N4 N 0.21728 0.25140 0.28536
 C5 C 0.21706 0.28792 0.24934
 N6 N 0.25277 0.28808 0.21341
 C7 C 0.71490 -0.25151 0.20970
 N8 N 0.75133 -0.28724 0.20968
 C9 C 0.78758 -0.28685 0.24554
 N10 N 0.78736 -0.25050 0.28148
 C11 C 0.75100 -0.21471 0.28162
 N12 N 0.71474 -0.21534 0.24580
 C13 C 0.71377 0.24938 0.78591
 N14 N 0.71387 0.21311 0.74996
 C15 C 0.74966 0.21312 0.71406
 N16 N 0.78525 0.24964 0.71405
 C17 C 0.78508 0.28609 0.74991
 N18 N 0.74935 0.28579 0.78580
 C19 C 0.28434 -0.25212 0.79051
 N20 N 0.24786 -0.28770 0.79096
 C21 C 0.21183 -0.28742 0.75492
 N22 N 0.21230 -0.25151 0.71835
 C23 C 0.24879 -0.21600 0.71765
 N24 N 0.28477 -0.21630 0.75376
 C25 C 0.70778 -0.25298 0.78658
 N26 N 0.70812 -0.21670 0.75028
 C27 C 0.74423 -0.21660 0.71473
 N28 N 0.78010 -0.25289 0.71550
 C29 C 0.77996 -0.28925 0.75172
 N30 N 0.74384 -0.28912 0.78731
 C31 C 0.28416 0.25143 0.78794
 N32 N 0.28421 0.21559 0.75152
 C33 C 0.24813 0.21566 0.71550
 N34 N 0.21192 0.25161 0.71599
 C35 C 0.21185 0.28756 0.75230
 N36 N 0.24799 0.28740 0.78824
 C37 C 0.28926 -0.25167 0.21367
 N38 N 0.25242 -0.28694 0.21308
 C39 C 0.21621 -0.28613 0.24858
 N40 N 0.21700 -0.25001 0.28475
 C41 C 0.25361 -0.21464 0.28536
 N42 N 0.28968 -0.21551 0.24982
 C43 C 0.71887 0.25251 0.21148
 N44 N 0.71926 0.21644 0.24793
 C45 C 0.75528 0.21664 0.28400
 N46 N 0.79099 0.25304 0.28357
 C47 C 0.79061 0.28930 0.24723
 N48 N 0.75452 0.28891 0.21121
 O49 O 0.29377 0.04898 0.45380
 O50 O 0.29194 -0.04979 0.55164
 O51 O 0.29406 -0.04978 0.45402
 O52 O 0.29151 0.04893 0.55128
 O53 O 0.20905 0.04847 0.54918
 O54 O 0.21161 -0.04958 0.45135
 O55 O 0.20947 -0.04964 0.54951
 O56 O 0.21131 0.04858 0.45118
 Cu57 Cu 0.30116 -0.00043 0.50291
 Cu58 Cu 0.20203 -0.00059 0.50005
 C59 C 0.25286 0.06548 0.43593
 C60 C 0.25038 -0.06628 0.56727
 C61 C 0.25324 -0.06629 0.43614
 C62 C 0.24985 0.06532 0.56676
 O63 O 0.79102 0.04691 0.54846
 O64 O 0.79126 -0.05086 0.45017
 O65 O 0.79345 0.04737 0.45037
 O66 O 0.78938 -0.05130 0.54839
 O67 O 0.70694 -0.04990 0.54579
 O68 O 0.71100 0.04940 0.44839
 O69 O 0.70881 -0.04934 0.44821
 O70 O 0.70858 0.04880 0.54585
 Cu71 Cu 0.79960 -0.00218 0.49958
 Cu72 Cu 0.70052 -0.00010 0.49682
 C73 C 0.74972 0.06445 0.56371
 C74 C 0.75004 -0.06666 0.43260
 C75 C 0.75290 0.06514 0.43285
 C76 C 0.74749 -0.06731 0.56367
 O77 O 0.45373 0.29399 0.04877
 O78 O 0.54912 0.29302 -0.04996
 O79 O 0.45242 0.29370 -0.04920
 O80 O 0.55049 0.29398 0.04803
 O81 O 0.55072 0.21028 0.04864
 O82 O 0.45195 0.21000 -0.04821
 O83 O 0.54929 0.20931 -0.04889
 O84 O 0.45329 0.21029 0.04931
 Cu85 Cu 0.50146 0.30213 -0.00067
 Cu86 Cu 0.50130 0.20150 0.00031
 C87 C 0.43728 0.25229 0.06565
 C88 C 0.56539 0.25102 -0.06609
 C89 C 0.43553 0.25185 -0.06513
 C90 C 0.56728 0.25222 0.06474
 O91 O 0.54829 0.78884 0.04896
 O92 O 0.44979 0.78878 -0.04808
 O93 O 0.45083 0.78906 0.04942
 O94 O 0.54710 0.78910 -0.04858
 O95 O 0.54706 0.70541 -0.04856
 O96 O 0.45111 0.70537 0.05014
 O97 O 0.45025 0.70508 -0.04795
 O98 O 0.54808 0.70515 0.04959
 Cu99 Cu 0.49899 0.79739 0.00043
 Cu100 Cu 0.49915 0.69681 0.00087
 C101 C 0.56485 0.74698 0.06568
 C102 C 0.43341 0.74689 -0.06448
 C103 C 0.43459 0.74727 0.06632
 C104 C 0.56337 0.74730 -0.06520
 O105 O 0.05081 0.45326 0.28892
 O106 O -0.04655 0.55164 0.28780
 O107 O -0.04646 0.45342 0.28810
 O108 O 0.05103 0.55137 0.28884
 O109 O 0.05117 0.55193 0.20571
 O110 O -0.04588 0.45339 0.20496
 O111 O -0.04585 0.55216 0.20467
 O112 O 0.05081 0.45329 0.20577
 Cu113 Cu 0.00216 0.50247 0.29681
 Cu114 Cu 0.00257 0.50278 0.19689
 C115 C 0.06721 0.43657 0.24750
 C116 C -0.06273 0.56848 0.24603
 C117 C -0.06256 0.43670 0.24639
 C118 C 0.06776 0.56808 0.24744
 O119 O 0.04323 0.54950 0.79601
 O120 O -0.05272 0.45023 0.79406
 O121 O 0.04392 0.45095 0.79517
 O122 O -0.05374 0.54896 0.79520
 O123 O -0.05382 0.54977 0.71207
 O124 O 0.04447 0.45227 0.71203
 O125 O -0.05278 0.45153 0.71091
 O126 O 0.04378 0.55032 0.71287
 Cu127 Cu -0.00490 0.49986 0.80350
 Cu128 Cu -0.00460 0.50117 0.70356
 C129 C 0.05998 0.56647 0.75475
 C130 C -0.06895 0.43404 0.75220
 C131 C 0.06077 0.43508 0.75362
 C132 C -0.07044 0.56583 0.75365
 C133 C 0.34338 0.23815 0.09534
 C134 C 0.34413 0.20556 0.14385
 C135 C 0.32803 0.25224 0.17409
 C136 C 0.32675 0.28486 0.12605
 C137 C 0.38276 0.26663 0.18386
 C138 C 0.39941 0.21998 0.15312
 C139 C 0.39809 0.25257 0.10511
 C140 C 0.38196 0.29927 0.13533
 H141 H 0.32767 0.22647 0.05845
 H142 H 0.32813 0.16702 0.14778
 H143 H 0.29649 0.31154 0.11519
 H144 H 0.39850 0.27834 0.22071
 H145 H 0.42976 0.19334 0.16382
 H146 H 0.39791 0.33784 0.13153
 C147 C 0.65945 0.76187 0.09402
 C148 C 0.65969 0.79442 0.14233
 C149 C 0.67686 0.74780 0.17262
 C150 C 0.67724 0.71522 0.12480
 C151 C 0.62252 0.73297 0.18328
 C152 C 0.60474 0.77954 0.15244
 C153 C 0.60509 0.74701 0.10462
 C154 C 0.62234 0.70040 0.13493
 H155 H 0.67415 0.77372 0.05685
 H156 H 0.67546 0.83310 0.14573
 H157 H 0.70736 0.68875 0.11359
 H158 H 0.60773 0.72108 0.22039
 H159 H 0.57448 0.80594 0.16339
 H160 H 0.60658 0.66171 0.13161
 C161 C 0.65916 0.23593 -0.09581
 C162 C 0.65825 0.20314 -0.14393
 C163 C 0.67439 0.24960 -0.17475
 C164 C 0.67583 0.28241 -0.12710
 C165 C 0.61969 0.26426 -0.18460
 C166 C 0.60297 0.21784 -0.15326
 C167 C 0.60447 0.25064 -0.10565
 C168 C 0.62066 0.29710 -0.13648
 H169 H 0.67491 0.22434 -0.05881
 H170 H 0.67414 0.16450 -0.14745
 H171 H 0.70616 0.30898 -0.11658
 H172 H 0.60391 0.27590 -0.22157
 H173 H 0.57253 0.19133 -0.16358
 H174 H 0.60483 0.33579 -0.13312
 C175 C 0.33897 0.76190 -0.09362
 C176 C 0.33905 0.79416 -0.14238
 C177 C 0.32213 0.74740 -0.17215
 C178 C 0.32143 0.71511 -0.12389
 C179 C 0.37654 0.73238 -0.18222
 C180 C 0.39408 0.77909 -0.15189
 C181 C 0.39340 0.74685 -0.10364
 C182 C 0.37640 0.70010 -0.13343
 H183 H 0.32401 0.77400 -0.05673
 H184 H 0.32328 0.83285 -0.14643
 H185 H 0.29125 0.68878 -0.11253
 H186 H 0.39160 0.72023 -0.21906
 H187 H 0.42441 0.80535 -0.16297
 H188 H 0.39215 0.66140 -0.12946
 C189 C 0.12316 0.36639 0.20170
 C190 C 0.17828 0.37582 0.21645
 C191 C 0.17739 0.32752 0.24892
 C192 C 0.12275 0.31760 0.23421
 C193 C 0.16101 0.35803 0.29511
 C194 C 0.16137 0.40682 0.26265
 C195 C 0.10675 0.39690 0.24789
 C196 C 0.10580 0.34863 0.28035
 H197 H 0.10722 0.37011 0.16325
 H198 H 0.20845 0.38676 0.19015
 H199 H 0.10731 0.28047 0.22252
 H200 H 0.17702 0.35416 0.33352
 H201 H 0.17678 0.44398 0.27430
 H202 H 0.07553 0.33788 0.30659
 C203 C 0.10000 0.65368 0.72267
 C204 C 0.11706 0.68463 0.76898
 C205 C 0.17165 0.67362 0.75541
 C206 C 0.15515 0.64315 0.70908
 C207 C 0.17158 0.62550 0.78817
 C208 C 0.11647 0.63601 0.80175
 C209 C 0.09995 0.60558 0.75539
 C210 C 0.15454 0.59458 0.74179
 H211 H 0.07011 0.66485 0.69576
 H212 H 0.10211 0.72211 0.78017
 H213 H 0.17151 0.64649 0.67096
 H214 H 0.20140 0.61419 0.81510
 H215 H 0.10014 0.63279 0.83989
 H216 H 0.16946 0.55706 0.73063
 C217 C -0.11944 0.63828 0.19907
 C218 C -0.17450 0.62792 0.21293
 C219 C -0.17437 0.67600 0.24539
 C220 C -0.11986 0.68690 0.23152
 C221 C -0.15776 0.64546 0.29189
 C222 C -0.15728 0.59689 0.25947
 C223 C -0.10274 0.60772 0.24557
 C224 C -0.10263 0.65579 0.27798
 H225 H -0.10328 0.63505 0.16088
 H226 H -0.20436 0.61660 0.18615
 H227 H -0.10487 0.72432 0.22001
 H228 H -0.17394 0.64877 0.33008
 H229 H -0.17218 0.55942 0.27094
 H230 H -0.07262 0.66682 0.30469
 C231 C -0.12430 0.36306 0.79768
 C232 C -0.17944 0.37210 0.78261
 C233 C -0.17774 0.32398 0.75024
 C234 C -0.12311 0.31442 0.76531
 C235 C -0.16154 0.35485 0.70404
 C236 C -0.16264 0.40348 0.73640
 C237 C -0.10799 0.39398 0.75151
 C238 C -0.10628 0.34589 0.71917
 H239 H -0.10862 0.36673 0.83622
 H240 H -0.20982 0.38276 0.80873
 H241 H -0.10726 0.27739 0.77719
 H242 H -0.17726 0.35107 0.66553
 H243 H -0.17839 0.44058 0.72457
 H244 H -0.07571 0.33559 0.69314
 C245 C 0.22121 0.15345 0.39677
 C246 C 0.26720 0.18476 0.38058
 C247 C 0.25348 0.17518 0.32524
 C248 C 0.20746 0.14436 0.34088
 C249 C 0.28579 0.12702 0.32462
 C250 C 0.29952 0.13610 0.38047
 C251 C 0.25348 0.10530 0.39613
 C252 C 0.23973 0.09572 0.34080
 H253 H 0.19468 0.16389 0.42691
 H254 H 0.27849 0.22183 0.39650
 H255 H 0.16960 0.14819 0.32416
 H256 H 0.31235 0.11642 0.29457
 H257 H 0.33742 0.13239 0.39715
 H258 H 0.22847 0.05861 0.32493
 C259 C 0.70356 0.13493 0.61914
 C260 C 0.71724 0.12537 0.67499
 C261 C 0.74963 0.17339 0.67437
 C262 C 0.73596 0.18343 0.61901
 C263 C 0.79561 0.14248 0.65877
 C264 C 0.76325 0.09396 0.65885
 C265 C 0.74955 0.10401 0.60351
 C266 C 0.78191 0.15201 0.60285
 H267 H 0.66566 0.13154 0.60246
 H268 H 0.69063 0.11466 0.70502
 H269 H 0.72474 0.22066 0.60305
 H270 H 0.83347 0.14601 0.67552
 H271 H 0.77444 0.05670 0.67477
 H272 H 0.80847 0.16254 0.57272
 C273 C 0.26410 -0.16158 0.59868
 C274 C 0.29553 -0.16047 0.64770
 C275 C 0.24914 -0.17647 0.67749
 C276 C 0.21767 -0.17813 0.62896
 C277 C 0.23475 -0.12084 0.68602
 C278 C 0.28112 -0.10428 0.65572
 C279 C 0.24967 -0.10597 0.60721
 C280 C 0.20327 -0.12200 0.63700
 H281 H 0.27614 -0.17786 0.56228
 H282 H 0.33348 -0.17671 0.65254
 H283 H 0.19156 -0.20888 0.61823
 H284 H 0.22268 -0.10453 0.72238
 H285 H 0.30719 -0.07343 0.66629
 H286 H 0.16529 -0.10581 0.63229
 C287 C 0.78213 -0.15439 0.39388
 C288 C 0.73620 -0.18530 0.37643
 C289 C 0.75063 -0.17513 0.32146
 C290 C 0.79660 -0.14472 0.33835
 C291 C 0.71856 -0.12681 0.32026
 C292 C 0.70411 -0.13648 0.37572
 C293 C 0.75009 -0.10608 0.39265
 C294 C 0.76455 -0.09591 0.33770
 H295 H 0.80824 -0.16533 0.42461
 H296 H 0.72454 -0.22249 0.39192
 H297 H 0.83464 -0.14853 0.32254
 H298 H 0.69241 -0.11572 0.28961
 H299 H 0.66603 -0.13282 0.39147
 H300 H 0.77619 -0.05869 0.32224
 C301 C 0.59247 0.73269 -0.16016
 C302 C 0.62271 0.77956 -0.17737
 C303 C 0.67050 0.74726 -0.17595
 C304 C 0.64076 0.70041 -0.15936
 C305 C 0.68033 0.76193 -0.12092
 C306 C 0.63203 0.79423 -0.12180
 C307 C 0.60225 0.74741 -0.10511
 C308 C 0.65004 0.71515 -0.10373
 H309 H 0.55589 0.72069 -0.17583
 H310 H 0.61162 0.80609 -0.20794
 H311 H 0.64472 0.66180 -0.17520
 H312 H 0.71685 0.77398 -0.10515
 H313 H 0.62817 0.83286 -0.10598
 H314 H 0.66087 0.68869 -0.07301
 C315 C 0.39598 0.21943 -0.15211
 C316 C 0.34090 0.20483 -0.14242
 C317 C 0.32412 0.25156 -0.17278
 C318 C 0.37863 0.26612 -0.18296
 C319 C 0.32363 0.28401 -0.12488
 C320 C 0.34096 0.23726 -0.09404
 C321 C 0.39546 0.25186 -0.10423
 C322 C 0.37864 0.29860 -0.13459
 H323 H 0.42619 0.19289 -0.16289
 H324 H 0.32493 0.16626 -0.14606
 H325 H 0.39369 0.27800 -0.21996
 H326 H 0.29352 0.31059 -0.11393
 H327 H 0.32594 0.22541 -0.05701
 H328 H 0.39453 0.33722 -0.13110
 C329 C 0.34732 0.71581 0.10435
 C330 C 0.35605 0.70071 0.16011
 C331 C 0.32666 0.74787 0.17631
 C332 C 0.31736 0.76291 0.12117
 C333 C 0.37477 0.77954 0.17793
 C334 C 0.40467 0.73236 0.16112
 C335 C 0.39542 0.74745 0.10596
 C336 C 0.36597 0.79457 0.12227
 H337 H 0.33646 0.68963 0.07364
 H338 H 0.35160 0.66209 0.17606
 H339 H 0.28107 0.77549 0.10510
 H340 H 0.38595 0.80580 0.20847
 H341 H 0.44102 0.71983 0.17710
 H342 H 0.37030 0.83322 0.10637
 C343 C 0.66200 0.23802 0.09362
 C344 C 0.67909 0.28488 0.12401
 C345 C 0.67889 0.25249 0.17220
 C346 C 0.66235 0.20565 0.14230
 C347 C 0.62430 0.26686 0.18234
 C348 C 0.62401 0.29928 0.13368
 C349 C 0.60743 0.25244 0.10378
 C350 C 0.60720 0.22007 0.15195
 H351 H 0.67703 0.22618 0.05667
 H352 H 0.70903 0.31155 0.11278
 H353 H 0.67857 0.16714 0.14625
 H354 H 0.60923 0.27874 0.21926
 H355 H 0.60787 0.33783 0.12987
 H356 H 0.57717 0.19344 0.16303
 C357 C -0.11028 0.65335 0.72131
 C358 C -0.16532 0.64323 0.70637
 C359 C -0.18220 0.67334 0.75263
 C360 C -0.12775 0.68401 0.76752
 C361 C -0.18260 0.62494 0.78498
 C362 C -0.16510 0.59433 0.73869
 C363 C -0.11063 0.60495 0.75361
 C364 C -0.12759 0.63507 0.79987
 H365 H -0.08010 0.66464 0.69518
 H366 H -0.18124 0.64693 0.66789
 H367 H -0.11278 0.72128 0.77939
 H368 H -0.21265 0.61341 0.81117
 H369 H -0.17997 0.55700 0.72686
 H370 H -0.11167 0.63143 0.83834
 C371 C -0.10057 0.34863 0.27870
 C372 C -0.15578 0.35781 0.29307
 C373 C -0.17211 0.32719 0.24677
 C374 C -0.11749 0.31746 0.23245
 C375 C -0.17355 0.37547 0.21421
 C376 C -0.15661 0.40657 0.26054
 C377 C -0.10197 0.39690 0.24619
 C378 C -0.11838 0.36627 0.19990
 H379 H -0.07010 0.33802 0.30517
 H380 H -0.17153 0.35396 0.33140
 H381 H -0.10178 0.28041 0.22090
 H382 H -0.20386 0.38637 0.18766
 H383 H -0.17223 0.44368 0.27205
 H384 H -0.10264 0.37004 0.16156
 C385 C 0.10010 0.34794 0.72084
 C386 C 0.15519 0.35799 0.70669
 C387 C 0.17192 0.32694 0.75284
 C388 C 0.11738 0.31639 0.76695
 C389 C 0.17250 0.37479 0.78563
 C390 C 0.15524 0.40632 0.73945
 C391 C 0.10072 0.39576 0.75359
 C392 C 0.11747 0.36473 0.79976
 H393 H 0.06986 0.33730 0.69422
 H394 H 0.17114 0.35481 0.66841
 H395 H 0.10225 0.27898 0.77826
 H396 H 0.20265 0.38559 0.81229
 H397 H 0.17034 0.44377 0.72818
 H398 H 0.10158 0.36778 0.83808
 C399 C 0.09965 0.66299 0.23267
 C400 C 0.13003 0.67949 0.27956
 C401 C 0.17803 0.67690 0.24821
 C402 C 0.14816 0.66100 0.20134
 C403 C 0.18614 0.62129 0.26333
 C404 C 0.13763 0.62335 0.29467
 C405 C 0.10771 0.60735 0.24783
 C406 C 0.15570 0.60478 0.21652
 H407 H 0.06363 0.67968 0.22010
 H408 H 0.11959 0.71051 0.30553
 H409 H 0.15288 0.67685 0.16294
 H410 H 0.22210 0.60449 0.27594
 H411 H 0.13301 0.60753 0.33309
 H412 H 0.16583 0.57360 0.19062
 C413 C 0.75924 -0.09742 0.65908
 C414 C 0.71272 -0.12824 0.67486
 C415 C 0.74461 -0.17671 0.67482
 C416 C 0.79107 -0.14636 0.65957
 C417 C 0.73144 -0.18637 0.61935
 C418 C 0.69954 -0.13740 0.61888
 C419 C 0.74603 -0.10708 0.60362
 C420 C 0.77788 -0.15553 0.60355
 H421 H 0.77065 -0.06037 0.67496
 H422 H 0.68591 -0.11728 0.70456
 H423 H 0.82872 -0.15044 0.67672
 H424 H 0.71999 -0.22339 0.60343
 H425 H 0.66186 -0.13343 0.60176
 H426 H 0.80467 -0.16636 0.57378
 C427 C 0.24093 -0.09551 0.34081
 C428 C 0.28687 -0.12721 0.32499
 C429 C 0.25413 -0.17499 0.32517
 C430 C 0.20824 -0.14376 0.34047
 C431 C 0.26723 -0.18529 0.38063
 C432 C 0.29999 -0.13700 0.38097
 C433 C 0.25406 -0.10581 0.39626
 C434 C 0.22136 -0.15358 0.39646
 H435 H 0.23015 -0.05813 0.32490
 H436 H 0.31382 -0.11665 0.29522
 H437 H 0.17050 -0.14695 0.32339
 H438 H 0.27805 -0.22264 0.39658
 H439 H 0.33775 -0.13392 0.39802
 H440 H 0.19445 -0.16403 0.42630
 C441 C 0.74067 0.16106 0.40264
 C442 C 0.78716 0.17744 0.37231
 C443 C 0.75543 0.17678 0.32393
 C444 C 0.70900 0.16093 0.35378
 C445 C 0.76908 0.12106 0.31466
 C446 C 0.80082 0.12120 0.36355
 C447 C 0.75435 0.10536 0.39337
 C448 C 0.72268 0.10470 0.34499
 H449 H 0.72899 0.17705 0.43928
 H450 H 0.81369 0.20774 0.38326
 H451 H 0.67122 0.17769 0.34937
 H452 H 0.78079 0.10503 0.27805
 H453 H 0.83862 0.10446 0.36787
 H454 H 0.69617 0.07434 0.33413
 C455 C 0.26291 0.16083 0.59698
 C456 C 0.21651 0.17736 0.62729
 C457 C 0.24821 0.17604 0.67568
 C458 C 0.29457 0.16006 0.64586
 C459 C 0.23424 0.12039 0.68495
 C460 C 0.20252 0.12120 0.63606
 C461 C 0.24890 0.10519 0.60626
 C462 C 0.28057 0.10386 0.65464
 H463 H 0.27468 0.17700 0.56033
 H464 H 0.19015 0.20797 0.61631
 H465 H 0.33243 0.17647 0.65030
 H466 H 0.22244 0.10418 0.72156
 H467 H 0.16463 0.10483 0.63174
 H468 H 0.30690 0.07318 0.66548
   
