data_POSCAR
  _audit_creation_date              2014-09-24
  _audit_creation_method            'ToBaCCo'
  _symmetry_space_group_name_H-M    'P1'
  _symmetry_Int_Tables_number       1
  _symmetry_cell_setting            triclinic
  loop_
  _symmetry_equiv_pos_as_xyz
 x,y,z
_cell_length_a 35.3363
_cell_length_b 35.7079
_cell_length_c 21.1477
_cell_angle_alpha 90.122700
_cell_angle_beta 89.880000
_cell_angle_gamma 114.908700
loop_
  _atom_site_label
  _atom_site_type_symbol
  _atom_site_fract_x
  _atom_site_fract_y
  _atom_site_fract_z
C1 C -0.06743 0.30949 -0.03431
 C2 C -0.06670 0.31119 0.03036
 C3 C -0.04751 0.28650 0.05060
 N4 N -0.03626 0.27000 0.00026
 C5 C -0.04850 0.28402 -0.05166
 C6 C -0.04141 0.27886 0.11458
 C7 C -0.01486 0.25972 0.13195
 C8 C -0.01665 0.23998 0.18908
 C9 C 0.01534 0.22795 0.18911
 C10 C 0.03502 0.23886 0.13088
 N11 N 0.01646 0.25835 0.09628
 C12 C 0.07079 0.23308 0.11267
 C13 C 0.08376 0.23420 0.04914
 C14 C 0.11878 0.22895 0.03022
 C15 C 0.11811 0.22751 -0.03418
 C16 C 0.08273 0.23216 -0.05356
 N17 N 0.06146 0.23549 -0.00207
 C18 C 0.06795 0.22789 -0.11695
 C19 C 0.03030 0.23120 -0.13327
 C20 C 0.00979 0.22066 -0.19120
 C21 C -0.02238 0.23241 -0.18937
 C22 C -0.02014 0.25150 -0.13167
 N23 N 0.01166 0.25030 -0.09751
 C24 C -0.04475 0.27256 -0.11443
 H25 H -0.08010 0.32557 -0.06501
 H26 H -0.07834 0.32922 0.05897
 H27 H 0.02330 0.26677 -0.05606
 H28 H -0.03892 0.23418 0.22708
 H29 H 0.02254 0.21269 0.22815
 H30 H 0.14159 0.22433 0.05923
 H31 H 0.14020 0.22103 -0.06230
 H32 H -0.04413 0.22833 -0.22750
 H33 H 0.02735 0.27375 0.05373
 H34 H 0.01710 0.20739 -0.23255
 C35 C 0.40175 0.78286 0.46837
 C36 C 0.40126 0.78280 0.53324
 C37 C 0.41884 0.75656 0.55241
 N38 N 0.42999 0.74056 0.50139
 C39 C 0.41963 0.75666 0.44991
 C40 C 0.42250 0.74622 0.61591
 C41 C 0.44563 0.72375 0.63386
 C42 C 0.44277 0.70501 0.69212
 C43 C 0.47314 0.69062 0.69352
 C44 C 0.49306 0.69964 0.63526
 N45 N 0.47609 0.71995 0.59923
 C46 C 0.52816 0.69228 0.61839
 C47 C 0.54127 0.69240 0.55508
 C48 C 0.57567 0.68573 0.53686
 C49 C 0.57653 0.68627 0.47229
 C50 C 0.54259 0.69320 0.45263
 N51 N 0.52061 0.69611 0.50338
 C52 C 0.53106 0.69387 0.38877
 C53 C 0.49614 0.70103 0.37031
 C54 C 0.47738 0.69211 0.31127
 C55 C 0.44665 0.70605 0.31137
 C56 C 0.44818 0.72449 0.36964
 N57 N 0.47816 0.72088 0.40555
 C58 C 0.42429 0.74646 0.38659
 H59 H 0.39050 0.80050 0.43838
 H60 H 0.38953 0.80036 0.56277
 H61 H 0.48930 0.73579 0.44833
 H62 H 0.42141 0.70228 0.73037
 H63 H 0.47946 0.67555 0.73363
 H64 H 0.59739 0.67972 0.56649
 H65 H 0.59900 0.68074 0.44353
 H66 H 0.42591 0.70315 0.27229
 H67 H 0.48815 0.73508 0.55695
 H68 H 0.48466 0.67732 0.27153
 C69 C 1.07575 0.71724 -0.03069
 C70 C 1.07649 0.71786 0.03407
 C71 C 1.05809 0.74349 0.05327
 N72 N 1.04585 0.75833 0.00199
 C73 C 1.05689 0.74249 -0.04952
 C74 C 1.05285 0.75290 0.11710
 C75 C 1.02633 0.77235 0.13331
 C76 C 1.02926 0.79468 0.18830
 C77 C 0.99544 0.80401 0.18980
 C78 C 0.97349 0.78896 0.13425
 N79 N 0.99274 0.76989 0.09978
 C80 C 0.93510 0.79023 0.11857
 C81 C 0.92006 0.78578 0.05589
 C82 C 0.88268 0.78666 0.03798
 C83 C 0.88161 0.78550 -0.02653
 C84 C 0.91838 0.78400 -0.04642
 N85 N 0.94207 0.78473 0.00409
 C86 C 0.93146 0.78652 -0.11001
 C87 C 0.96950 0.78503 -0.12771
 C88 C 0.98994 0.79890 -0.18476
 C89 C 1.02413 0.79015 -0.18457
 C90 C 1.02285 0.76921 -0.12882
 N91 N 0.98995 0.76712 -0.09363
 C92 C 1.05024 0.75067 -0.11327
 H93 H 1.08660 0.69895 -0.06015
 H94 H 1.08801 0.70013 0.06334
 H95 H 0.97934 0.75006 -0.05229
 H96 H 1.05317 0.80332 0.22428
 H97 H 0.98845 0.82011 0.22805
 H98 H 0.85919 0.78980 0.06749
 H99 H 0.85717 0.78757 -0.05490
 H100 H 1.04721 0.79834 -0.22185
 H101 H 0.98091 0.75180 0.05963
 H102 H 0.98180 0.81392 -0.22314
 C103 C 0.61015 0.21423 0.46912
 C104 C 0.60930 0.21381 0.53372
 C105 C 0.57681 0.22359 0.55204
 N106 N 0.55733 0.22917 0.50022
 C107 C 0.57815 0.22423 0.44933
 C108 C 0.56447 0.22470 0.61566
 C109 C 0.53103 0.23461 0.63360
 C110 C 0.51304 0.22848 0.69334
 C111 C 0.48325 0.24359 0.69209
 C112 C 0.48442 0.25981 0.63230
 N113 N 0.51363 0.25421 0.59695
 C114 C 0.46014 0.28083 0.61317
 C115 C 0.45613 0.29070 0.54967
 C116 C 0.43668 0.31532 0.53054
 C117 C 0.43729 0.31550 0.46580
 C118 C 0.45710 0.29095 0.44739
 N119 N 0.46855 0.27578 0.49876
 C120 C 0.46219 0.28133 0.38404
 C121 C 0.48726 0.26089 0.36559
 C122 C 0.48749 0.24527 0.30563
 C123 C 0.51758 0.23052 0.30539
 C124 C 0.53433 0.23617 0.36587
 N125 N 0.51595 0.25525 0.40198
 C126 C 0.56736 0.22601 0.38519
 H127 H 0.63134 0.20667 0.44044
 H128 H 0.62972 0.20584 0.56332
 H129 H 0.52562 0.26782 0.44650
 H130 H 0.52027 0.21493 0.73447
 H131 H 0.46334 0.24290 0.73139
 H132 H 0.42347 0.33159 0.56008
 H133 H 0.42467 0.33196 0.43579
 H134 H 0.52580 0.21744 0.26446
 H135 H 0.52438 0.26725 0.55304
 H136 H 0.46829 0.24471 0.26557
 C137 C 0.75224 -0.11110 -0.02787
 C138 C 0.75296 -0.11035 0.03701
 C139 C 0.73280 -0.08619 0.05586
 N140 N 0.72015 -0.07198 0.00463
 C141 C 0.73165 -0.08739 -0.04661
 C142 C 0.72581 -0.07712 0.11881
 C143 C 0.71466 -0.04412 0.13087
 C144 C 0.69185 -0.04079 0.18239
 C145 C 0.69407 -0.00143 0.18133
 C146 C 0.71758 0.01777 0.12872
 N147 N 0.72884 -0.00882 0.09702
 C148 C 0.73278 0.06011 0.11473
 C149 C 0.74100 0.07389 0.05165
 C150 C 0.76267 0.11434 0.03180
 C151 C 0.76129 0.11359 -0.03320
 C152 C 0.73860 0.07264 -0.05077
 N153 N 0.72655 0.04858 0.00125
 C154 C 0.72798 0.05697 -0.11294
 C155 C 0.71325 0.01401 -0.12348
 C156 C 0.68574 -0.00832 -0.17066
 C157 C 0.68436 -0.04735 -0.16970
 C158 C 0.71091 -0.04772 -0.12177
 N159 N 0.72715 -0.01072 -0.09218
 C160 C 0.72288 -0.08005 -0.10938
 H161 H 0.76682 -0.12612 -0.05721
 H162 H 0.76825 -0.12464 0.06621
 H163 H 0.75061 -0.00137 -0.05797
 H164 H 0.67611 -0.06395 0.21791
 H165 H 0.68072 0.01185 0.21603
 H166 H 0.77871 0.14152 0.06058
 H167 H 0.77651 0.14018 -0.06332
 H168 H 0.66634 -0.07244 -0.20123
 H169 H 0.75007 -0.00129 0.05959
 H170 H 0.66884 0.00253 -0.20296
 C171 C 0.17797 0.57899 0.53308
 C172 C 0.17831 0.57927 0.46830
 C173 C 0.20266 0.55932 0.44939
 N174 N 0.21723 0.54688 0.50063
 C175 C 0.20213 0.55888 0.55191
 C176 C 0.21250 0.55474 0.38578
 C177 C 0.23274 0.52949 0.36695
 C178 C 0.24933 0.52997 0.30734
 C179 C 0.26348 0.49964 0.30638
 C180 C 0.25671 0.48202 0.36618
 N181 N 0.23734 0.50011 0.40251
 C182 C 0.26692 0.44908 0.38473
 C183 C 0.26731 0.43692 0.44850
 C184 C 0.27855 0.40582 0.46743
 C185 C 0.27811 0.40549 0.53191
 C186 C 0.26664 0.43641 0.55124
 N187 N 0.26063 0.45597 0.50001
 C188 C 0.26551 0.44799 0.61520
 C189 C 0.25519 0.48082 0.63424
 C190 C 0.26154 0.49805 0.69437
 C191 C 0.24750 0.52846 0.69381
 C192 C 0.23136 0.52839 0.63411
 N193 N 0.23616 0.49919 0.59808
 C194 C 0.21136 0.55383 0.61555
 H195 H 0.16153 0.59196 0.56282
 H196 H 0.16220 0.59250 0.43860
 H197 H 0.22335 0.48956 0.55365
 H198 H 0.25115 0.54994 0.26800
 H199 H 0.27700 0.49186 0.26544
 H200 H 0.28799 0.38624 0.43855
 H201 H 0.28716 0.38562 0.56059
 H202 H 0.24915 0.54823 0.73347
 H203 H 0.22420 0.49019 0.44669
 H204 H 0.27473 0.48999 0.73527
 C205 C 0.27831 0.89661 0.03037
 C206 C 0.27837 0.89638 -0.03414
 C207 C 0.28096 0.93454 -0.05390
 N208 N 0.28320 0.95813 -0.00247
 C209 C 0.28109 0.93487 0.04910
 C210 C 0.28740 0.94917 -0.11750
 C211 C 0.29080 0.98944 -0.13347
 C212 C 0.30520 1.00982 -0.19063
 C213 C 0.29991 1.04558 -0.18875
 C214 C 0.28018 1.04576 -0.13228
 N215 N 0.27555 1.01196 -0.09817
 C216 C 0.26451 1.07525 -0.11571
 C217 C 0.25673 1.08224 -0.05196
 C218 C 0.23374 1.10361 -0.03288
 C219 C 0.23382 1.10375 0.03177
 C220 C 0.25680 1.08240 0.05061
 N221 N 0.27059 1.06897 -0.00073
 C222 C 0.26447 1.07541 0.11430
 C223 C 0.27902 1.04508 0.13048
 C224 C 0.29875 1.04417 0.18667
 C225 C 0.30383 1.00820 0.18706
 C226 C 0.28884 0.98857 0.12978
 N227 N 0.27381 1.01140 0.09543
 C228 C 0.28667 0.94927 0.11240
 H229 H 0.27856 0.87185 0.05936
 H230 H 0.27920 0.87136 -0.06194
 H231 H 0.25660 1.00227 0.05385
 H232 H 0.31718 1.00061 -0.23161
 H233 H 0.30890 1.06841 -0.22601
 H234 H 0.21714 1.11652 -0.06212
 H235 H 0.21729 1.11675 0.06120
 H236 H 0.31693 0.99822 0.22601
 H237 H 0.25793 1.00237 -0.05701
 H238 H 0.30847 1.06693 0.22415
 C239 C 0.77461 0.39277 0.53279
 C240 C 0.77282 0.39293 0.46799
 C241 C 0.77925 0.43254 0.45030
 N242 N 0.78406 0.45615 0.50251
 C243 C 0.78070 0.43187 0.55309
 C244 C 0.78286 0.44784 0.38771
 C245 C 0.78686 0.48821 0.37682
 C246 C 0.80628 0.51245 0.32499
 C247 C 0.79649 0.54583 0.32646
 C248 C 0.77158 0.54095 0.37931
 N249 N 0.76670 0.50631 0.41059
 C250 C 0.74994 0.56512 0.39393
 C251 C 0.73691 0.56770 0.45608
 C252 C 0.71052 0.58557 0.47399
 C253 C 0.70784 0.58308 0.53876
 C254 C 0.73269 0.56376 0.55798
 N255 N 0.75045 0.55451 0.50740
 C256 C 0.74080 0.55705 0.62117
 C257 C 0.76121 0.53181 0.63752
 C258 C 0.77912 0.53199 0.69574
 C259 C 0.79161 0.50045 0.69483
 C260 C 0.78196 0.48221 0.63538
 N261 N 0.76334 0.50164 0.60083
 C262 C 0.78579 0.44577 0.61666
 H263 H 0.77132 0.36635 0.56086
 H264 H 0.76733 0.36644 0.43855
 H265 H 0.74815 0.49161 0.55784
 H266 H 0.82442 0.50599 0.28880
 H267 H 0.80566 0.57027 0.29167
 H268 H 0.69458 0.59872 0.44382
 H269 H 0.68945 0.59400 0.56812
 H270 H 0.80501 0.49172 0.73480
 H271 H 0.74542 0.49241 0.44693
 H272 H 0.78228 0.55220 0.73549
 O273 O 0.25384 0.20175 0.27980
 O274 O 0.26486 0.30697 0.31529
 O275 O 0.20391 0.23742 0.28150
 O276 O 0.31488 0.26911 0.31752
 O277 O 0.33156 0.28585 0.21748
 O278 O 0.22095 0.25864 0.18307
 O279 O 0.28504 0.32580 0.21694
 O280 O 0.26897 0.21900 0.17959
 Cu281 Cu 0.25788 0.25235 0.30873
 Cu282 Cu 0.27810 0.27407 0.18915
 C283 C 0.25928 0.19238 0.22358
 C284 C 0.27731 0.33439 0.27237
 C285 C 0.19366 0.24277 0.22602
 C286 C 0.34192 0.28193 0.27368
 O287 O 0.74164 0.80253 0.28909
 O288 O 0.74084 0.70156 0.32336
 O289 O 0.79756 0.77371 0.28915
 O290 O 0.68475 0.73157 0.32190
 O291 O 0.67069 0.71231 0.22207
 O292 O 0.78331 0.75343 0.18976
 O293 O 0.72597 0.68296 0.22343
 O294 O 0.72790 0.78450 0.18878
 Cu295 Cu 0.74253 0.75396 0.31613
 Cu296 Cu 0.72568 0.73174 0.19571
 C297 C 0.73486 0.81065 0.23306
 C298 C 0.73325 0.67513 0.27940
 C299 C 0.80948 0.77045 0.23358
 C300 C 0.65865 0.71491 0.27779
 O301 O 0.82723 0.27225 0.27983
 O302 O 0.71613 0.23940 0.31575
 O303 O 0.76282 0.20143 0.28373
 O304 O 0.78068 0.30915 0.31095
 O305 O 0.76660 0.31432 0.21040
 O306 O 0.75044 0.20707 0.18257
 O307 O 0.70269 0.24230 0.21427
 O308 O 0.81477 0.27728 0.17857
 Cu309 Cu 0.77295 0.25486 0.30772
 Cu310 Cu 0.75752 0.26122 0.18619
 C311 C 0.83984 0.27987 0.22309
 C312 C 0.69057 0.23521 0.27135
 C313 C 0.75411 0.18611 0.22851
 C314 C 0.77581 0.32974 0.26548
 O315 O 0.26043 0.79855 0.18213
 O316 O 0.22322 0.68766 0.21750
 O317 O 0.18849 0.73660 0.18232
 O318 O 0.29620 0.75125 0.21671
 O319 O 0.28768 0.76145 0.31789
 O320 O 0.18068 0.74796 0.28319
 O321 O 0.21685 0.69987 0.31852
 O322 O 0.25516 0.81113 0.28339
 Cu323 Cu 0.24277 0.74207 0.18966
 Cu324 Cu 0.23365 0.75637 0.31071
 C325 C 0.26449 0.82367 0.22686
 C326 C 0.21471 0.67507 0.27417
 C327 C 0.16652 0.74050 0.22712
 C328 C 0.31005 0.75840 0.27300
 O329 O 0.77659 0.30189 0.68552
 O330 O 0.75466 0.19387 0.71687
 O331 O 0.71029 0.23393 0.68567
 O332 O 0.82123 0.26334 0.71798
 O333 O 0.81021 0.26914 0.81977
 O334 O 0.69943 0.24180 0.78685
 O335 O 0.74351 0.20189 0.81786
 O336 O 0.76882 0.31146 0.78724
 Cu337 Cu 0.76661 0.24723 0.69134
 Cu338 Cu 0.75412 0.25718 0.81313
 C339 C 0.77719 0.32516 0.73112
 C340 C 0.74578 0.17956 0.77256
 C341 C 0.68611 0.23295 0.73062
 C342 C 0.83443 0.27070 0.77449
 O343 O 0.29364 0.75114 0.78428
 O344 O 0.18577 0.73545 0.81912
 O345 O 0.22112 0.68696 0.78388
 O346 O 0.25716 0.79813 0.81751
 O347 O 0.25200 0.80956 0.71589
 O348 O 0.21436 0.69826 0.68273
 O349 O 0.17751 0.74597 0.71821
 O350 O 0.28476 0.76006 0.68286
 Cu351 Cu 0.24014 0.74157 0.81124
 Cu352 Cu 0.23054 0.75460 0.68995
 C353 C 0.30738 0.75786 0.72788
 C354 C 0.16354 0.73877 0.77447
 C355 C 0.21262 0.67391 0.72736
 C356 C 0.26125 0.82274 0.77216
 O357 O 0.31230 0.26750 0.67976
 O358 O 0.20130 0.23530 0.71583
 O359 O 0.26225 0.30510 0.68324
 O360 O 0.25167 0.19999 0.71849
 O361 O 0.26679 0.21748 0.81866
 O362 O 0.28177 0.32378 0.78186
 O363 O 0.21786 0.25599 0.81460
 O364 O 0.32880 0.28447 0.77978
 Cu365 Cu 0.25538 0.25043 0.68919
 Cu366 Cu 0.27524 0.27218 0.80885
 C367 C 0.33929 0.28067 0.72348
 C368 C 0.19074 0.24022 0.77142
 C369 C 0.27438 0.33245 0.72642
 C370 C 0.25726 0.19081 0.77469
 O371 O 0.72271 0.77968 0.82346
 O372 O 0.71826 0.67676 0.79035
 O373 O 0.77731 0.74741 0.82260
 O374 O 0.66464 0.70809 0.78968
 O375 O 0.67950 0.72626 0.68962
 O376 O 0.79183 0.76725 0.72314
 O377 O 0.73432 0.69481 0.69053
 O378 O 0.73640 0.79668 0.72283
 Cu379 Cu 0.71950 0.72650 0.81686
 Cu380 Cu 0.73701 0.74776 0.69631
 C381 C 0.72970 0.80541 0.77870
 C382 C 0.72544 0.66833 0.73458
 C383 C 0.80362 0.76424 0.77874
 C384 C 0.65307 0.71052 0.73363
 C385 C 0.25779 0.09967 0.16269
 C386 C 0.24450 0.08628 0.22364
 C387 C 0.24287 0.11915 0.25416
 C388 C 0.25488 0.15029 0.20995
 O389 O 0.26355 0.13858 0.15438
 H390 H 0.23594 0.05584 0.24335
 H391 H 0.23395 0.12031 0.30286
 C392 C 0.72964 0.57942 0.67174
 C393 C 0.71076 0.56242 0.72840
 C394 C 0.70702 0.59386 0.76043
 C395 C 0.72339 0.62740 0.72051
 O396 O 0.73699 0.61876 0.66674
 H397 H 0.70095 0.53092 0.74428
 H398 H 0.69359 0.59244 0.80689
 C399 C 0.73052 0.89946 0.16959
 C400 C 0.74009 0.91320 0.23144
 C401 C 0.74278 0.88151 0.26367
 C402 C 0.73492 0.85082 0.21947
 O403 O 0.72765 0.86150 0.16264
 H404 H 0.74628 0.94333 0.25064
 H405 H 0.75025 0.88106 0.31319
 C406 C 0.27725 0.42479 0.66420
 C407 C 0.31018 0.44203 0.70588
 C408 C 0.31190 0.40958 0.73765
 C409 C 0.28088 0.37488 0.71154
 O410 O 0.25988 0.38392 0.66703
 H411 H 0.33146 0.47426 0.71075
 H412 H 0.33455 0.41087 0.77295
 C413 C 0.93522 0.28800 0.16174
 C414 C 0.94843 0.30065 0.22293
 C415 C 0.91474 0.30122 0.25350
 C416 C 0.88360 0.28960 0.20876
 O417 O 0.89597 0.28212 0.15302
 H418 H 0.97883 0.30797 0.24325
 H419 H 0.91269 0.30801 0.30296
 C420 C 0.39924 0.75761 0.66551
 C421 C 0.41491 0.77386 0.72417
 C422 C 0.38235 0.77620 0.75596
 C423 C 0.34962 0.76215 0.71384
 O424 O 0.35972 0.75103 0.65897
 H425 H 0.44609 0.78209 0.74202
 H426 H 0.38238 0.78681 0.80394
 C427 C 0.07547 0.74375 0.16563
 C428 C 0.06233 0.73425 0.22779
 C429 C 0.09447 0.73093 0.25886
 C430 C 0.12466 0.73773 0.21362
 O431 O 0.11320 0.74502 0.15706
 H432 H 0.03272 0.73000 0.24831
 H433 H 0.09588 0.72461 0.30862
 C434 C 0.58964 0.21690 0.66586
 C435 C 0.57491 0.18635 0.71136
 C436 C 0.60922 0.19000 0.74510
 C437 C 0.64224 0.22157 0.71633
 O438 O 0.63061 0.23773 0.66830
 H439 H 0.54325 0.16335 0.71784
 H440 H 0.61039 0.17053 0.78350
 C441 C 0.73190 0.08381 0.83571
 C442 C 0.73621 0.07543 0.77263
 C443 C 0.74082 0.10993 0.74012
 C444 C 0.73916 0.13696 0.78529
 O445 O 0.73389 0.12142 0.84296
 H446 H 0.73808 0.04837 0.75257
 H447 H 0.74614 0.11526 0.68986
 C448 C 0.20335 0.57990 0.33693
 C449 C 0.18447 0.56529 0.27930
 C450 C 0.18559 0.59911 0.24791
 C451 C 0.20406 0.63163 0.28927
 O452 O 0.21474 0.62010 0.34328
 H453 H 0.17245 0.53393 0.26170
 H454 H 0.17470 0.60009 0.20042
 C455 C 0.29009 0.92226 0.83476
 C456 C 0.32016 0.93222 0.78771
 C457 C 0.31142 0.89657 0.75495
 C458 C 0.27767 0.86710 0.78537
 O459 O 0.26492 0.88229 0.83370
 H460 H 0.34781 0.96068 0.78153
 H461 H 0.32950 0.89190 0.71687
 C462 C 0.78045 0.42123 0.33188
 C463 C 0.76453 0.42457 0.27337
 C464 C 0.76372 0.39217 0.23849
 C465 C 0.77848 0.37102 0.27837
 O466 O 0.78882 0.38855 0.33458
 H467 H 0.75258 0.44655 0.25883
 H468 H 0.75111 0.38340 0.19140
 C469 C 0.09279 0.22143 0.83546
 C470 C 0.07924 0.19147 0.78866
 C471 C 0.11420 0.19577 0.75613
 C472 C 0.14656 0.22711 0.78642
 O473 O 0.13384 0.24252 0.83435
 H474 H 0.04838 0.16704 0.78199
 H475 H 0.11620 0.17672 0.71754
 C476 C 0.55875 0.68913 0.33952
 C477 C 0.54740 0.65850 0.29410
 C478 C 0.58337 0.66514 0.26231
 C479 C 0.61400 0.69850 0.29204
 O480 O 0.59925 0.71300 0.33873
 H481 H 0.51699 0.63346 0.28653
 H482 H 0.58719 0.64676 0.22418
 C483 C 0.90361 0.79095 0.84075
 C484 C 0.91390 0.82374 0.79950
 C485 C 0.87801 0.81672 0.76752
 C486 C 0.84828 0.78099 0.79314
 O487 O 0.86359 0.76537 0.83745
 H488 H 0.94332 0.85065 0.79546
 H489 H 0.87342 0.83657 0.73267
 C490 C 0.43727 0.29066 0.33521
 C491 C 0.45276 0.31157 0.27941
 C492 C 0.41890 0.31157 0.24849
 C493 C 0.38552 0.29121 0.28823
 O494 O 0.39657 0.27866 0.34084
 H495 H 0.48477 0.32465 0.26304
 H496 H 0.41848 0.32456 0.20244
 C497 C 0.72610 0.89526 0.84029
 C498 C 0.73279 0.90720 0.77736
 C499 C 0.73510 0.87500 0.74583
 C500 C 0.72973 0.84575 0.79140
 O501 O 0.72439 0.85782 0.84847
 H502 H 0.73720 0.93649 0.75685
 H503 H 0.74048 0.87321 0.69574
 C504 C 0.27921 0.42630 0.33546
 C505 C 0.31249 0.44387 0.29434
 C506 C 0.31468 0.41164 0.26223
 C507 C 0.28353 0.37674 0.28760
 O508 O 0.26204 0.38545 0.33192
 H509 H 0.33370 0.47615 0.29010
 H510 H 0.33769 0.41321 0.22724
 C511 C 0.25701 0.09892 0.83596
 C512 C 0.24336 0.08499 0.77532
 C513 C 0.24119 0.11749 0.74463
 C514 C 0.25325 0.14892 0.78846
 O515 O 0.26245 0.13776 0.84394
 H516 H 0.23506 0.05448 0.75593
 H517 H 0.23195 0.11821 0.69605
 C518 C 0.74057 0.58797 0.34251
 C519 C 0.72680 0.57208 0.28302
 C520 C 0.72218 0.60289 0.25096
 C521 C 0.73317 0.63505 0.29347
 O522 O 0.74424 0.62614 0.34903
 H523 H 0.72076 0.54161 0.26538
 H524 H 0.71193 0.60202 0.20257
 C525 C 0.07249 0.74131 0.83766
 C526 C 0.05871 0.73078 0.77598
 C527 C 0.09083 0.72774 0.74416
 C528 C 0.12162 0.73564 0.78859
 O529 O 0.11057 0.74338 0.84527
 H530 H 0.02868 0.72565 0.75627
 H531 H 0.09180 0.72077 0.69452
 C532 C 0.59333 0.21799 0.33612
 C533 C 0.57906 0.18759 0.29024
 C534 C 0.61373 0.19119 0.25730
 C535 C 0.64653 0.22251 0.28695
 O536 O 0.63439 0.23866 0.33471
 H537 H 0.54739 0.16492 0.28264
 H538 H 0.61519 0.17215 0.21834
 C539 C 0.93006 0.28092 0.83607
 C540 C 0.94455 0.29749 0.77716
 C541 C 0.91039 0.29626 0.74569
 C542 C 0.87799 0.27992 0.78829
 O543 O 0.88977 0.27077 0.84310
 H544 H 0.97599 0.30808 0.75892
 H545 H 0.90913 0.30579 0.69749
 C546 C 0.40132 0.75749 0.33624
 C547 C 0.41734 0.77347 0.27758
 C548 C 0.38502 0.77586 0.24535
 C549 C 0.35208 0.76217 0.28722
 O550 O 0.36183 0.75120 0.34233
 H551 H 0.44862 0.78164 0.26009
 H552 H 0.38539 0.78641 0.19732
 C553 C 0.29146 0.92185 0.16198
 C554 C 0.32599 0.93165 0.20029
 C555 C 0.31873 0.89668 0.23392
 C556 C 0.28097 0.86782 0.21235
 O557 O 0.26451 0.88277 0.16857
 H558 H 0.35410 0.96014 0.20125
 H559 H 0.33974 0.89189 0.26670
 C560 C 0.79405 0.42033 0.66560
 C561 C 0.82786 0.43411 0.70612
 C562 C 0.82387 0.40045 0.74075
 C563 C 0.78859 0.36860 0.71764
 O564 O 0.77067 0.38038 0.67197
 H565 H 0.85324 0.46463 0.70840
 H566 H 0.84562 0.39864 0.77526
 C567 C 0.74079 0.09017 0.16740
 C568 C 0.75388 0.08550 0.22731
 C569 C 0.75914 0.12042 0.25947
 C570 C 0.74937 0.14398 0.21668
 O571 O 0.73826 0.12584 0.16099
 H572 H 0.76005 0.06019 0.24493
 H573 H 0.77020 0.12841 0.30747
 C574 C 0.20202 0.57885 0.66467
 C575 C 0.18308 0.56422 0.72230
 C576 C 0.18403 0.59802 0.75385
 C577 C 0.20245 0.63051 0.71256
 O578 O 0.21326 0.61902 0.65849
 H579 H 0.17107 0.53287 0.73976
 H580 H 0.17297 0.59898 0.80132
 C581 C 0.90851 0.79561 0.16920
 C582 C 0.91957 0.82915 0.20934
 C583 C 0.88420 0.82282 0.24264
 C584 C 0.85404 0.78667 0.21883
 O585 O 0.86861 0.77018 0.17457
 H586 H 0.94903 0.85614 0.21160
 H587 H 0.88016 0.84344 0.27683
 C588 C 0.43502 0.29050 0.66147
 C589 C 0.45029 0.31142 0.71736
 C590 C 0.41626 0.31112 0.74840
 C591 C 0.38301 0.29053 0.70866
 O592 O 0.39428 0.27815 0.65588
 H593 H 0.48224 0.32451 0.73386
 H594 H 0.41565 0.32392 0.79462
 C595 C 0.09644 0.22530 0.16203
 C596 C 0.08290 0.19178 0.20232
 C597 C 0.11748 0.19527 0.23502
 C598 C 0.14961 0.22983 0.21066
 O599 O 0.13706 0.24802 0.16651
 H600 H 0.05202 0.16682 0.20551
 H601 H 0.11954 0.17389 0.26957
 C602 C 0.55455 0.68678 0.66889
 C603 C 0.54193 0.65586 0.71383
 C604 C 0.57716 0.66180 0.74706
 C605 C 0.60864 0.69508 0.71860
 O606 O 0.59509 0.71017 0.67140
 H607 H 0.51123 0.63103 0.72007
 H608 H 0.57999 0.64292 0.78510
   
