data_POSCAR
  _audit_creation_date              2014-09-24
  _audit_creation_method            'ToBaCCo'
  _symmetry_space_group_name_H-M    'P1'
  _symmetry_Int_Tables_number       1
  _symmetry_cell_setting            triclinic
  loop_
  _symmetry_equiv_pos_as_xyz
 x,y,z
_cell_length_a 30.0343
_cell_length_b 28.9392
_cell_length_c 72.0712
_cell_angle_alpha 88.420900
_cell_angle_beta 89.382300
_cell_angle_gamma 116.343400
loop_
  _atom_site_label
  _atom_site_type_symbol
  _atom_site_fract_x
  _atom_site_fract_y
  _atom_site_fract_z
C1 C 0.02025 0.09076 0.49781
 H2 H 0.04900 0.10467 0.48711
 C3 C 0.01464 0.12642 0.50895
 H4 H 0.03867 0.16714 0.50641
 C5 C -0.04472 0.02152 0.51444
 H6 H -0.06660 -0.01956 0.51693
 C7 C -0.05134 0.05611 0.52609
 H8 H -0.07851 0.04128 0.53741
 N9 N -0.00781 0.03922 0.50113
 C10 C 0.04590 -0.07934 0.49959
 H11 H 0.05242 -0.08084 0.48492
 C12 C 0.04978 -0.11563 0.51182
 H13 H 0.05879 -0.14507 0.50639
 C14 C 0.02455 -0.04067 0.52448
 H15 H 0.01494 -0.01146 0.52950
 C16 C 0.02734 -0.07660 0.53714
 H17 H 0.01947 -0.07480 0.55174
 Zn18 Zn 0.01251 -0.00576 0.48847
 N19 N 0.03134 -0.04417 0.50595
 C20 C 0.11403 0.05642 0.47807
 N21 N 0.06629 0.03581 0.47233
 C22 C 0.05431 0.05089 0.45587
 C23 C 0.09075 0.08940 0.44469
 C24 C 0.15182 0.09536 0.46728
 C25 C -0.08719 -0.06498 0.47589
 C26 C -0.12296 -0.10327 0.46538
 C27 C -0.05724 -0.11624 0.45052
 C28 C -0.02314 -0.07785 0.46123
 N29 N -0.03841 -0.05372 0.47388
 H30 H 0.12230 0.04463 0.49144
 H31 H 0.01590 0.03473 0.45184
 H32 H 0.08021 0.10153 0.43181
 H33 H 0.18929 0.11310 0.47239
 H34 H -0.09871 -0.04519 0.48595
 H35 H -0.16132 -0.11242 0.46840
 H36 H -0.04200 -0.13190 0.44017
 H37 H 0.01604 -0.06670 0.45922
 C38 C 0.03843 -0.11569 0.53074
 C39 C -0.01996 0.10924 0.52381
 C40 C -0.10880 -0.13098 0.45250
 C41 C 0.14000 0.11325 0.45059
 C42 C 1.09151 0.07095 0.14533
 H43 H 1.09020 0.10772 0.14531
 C44 C 1.12662 0.06497 0.13420
 H45 H 1.15129 0.09712 0.12529
 C46 C 1.06019 -0.01538 0.15698
 H47 H 1.03482 -0.04614 0.16619
 C48 C 1.09531 -0.02291 0.14618
 H49 H 1.09655 -0.05971 0.14720
 N50 N 1.05894 0.03105 0.15629
 C51 C 0.93800 0.07198 0.16636
 H52 H 0.93725 0.07160 0.18138
 C53 C 0.89964 0.07547 0.15657
 H54 H 0.86972 0.07857 0.16409
 C55 C 0.97596 0.06460 0.13832
 H56 H 1.00426 0.05783 0.13125
 C57 C 0.93890 0.06896 0.12798
 H58 H 0.93948 0.06611 0.11303
 Zn59 Zn 1.01674 0.04708 0.17166
 N60 N 0.97455 0.06554 0.15718
 C61 C 1.06158 0.14930 0.18577
 N62 N 1.05950 0.10137 0.18625
 C63 C 1.09136 0.09027 0.19655
 C64 C 1.12710 0.12795 0.20702
 C65 C 1.09724 0.18852 0.19599
 C66 C 0.94109 -0.05305 0.17922
 C67 C 0.90330 -0.09194 0.18998
 C68 C 0.93476 -0.04066 0.21698
 C69 C 0.97204 -0.00299 0.20577
 N70 N 0.97419 -0.00947 0.18721
 H71 H 1.03636 0.15737 0.17720
 H72 H 1.08903 0.05188 0.19651
 H73 H 1.15144 0.11778 0.21534
 H74 H 1.09920 0.22679 0.19519
 H75 H 0.94277 -0.05657 0.16435
 H76 H 0.87621 -0.12561 0.18332
 H77 H 0.93301 -0.03436 0.23166
 H78 H 0.99763 0.03250 0.21179
 C79 C 0.89943 0.07300 0.13716
 C80 C 1.12938 0.01776 0.13465
 C81 C 0.89919 -0.08534 0.20905
 C82 C 1.13091 0.17811 0.20669
 C83 C 0.03972 0.93878 0.86672
 H84 H 0.01011 0.90030 0.86545
 C85 C 0.07856 0.94672 0.87861
 H86 H 0.07708 0.91439 0.88696
 C87 C 0.07779 1.02691 0.85694
 H88 H 0.07782 1.05785 0.84820
 C89 C 0.11784 1.03650 0.86850
 H90 H 0.14835 1.07492 0.86846
 N91 N 0.03954 0.97868 0.85637
 C92 C -0.10416 0.96686 0.84669
 H93 H -0.09637 0.98653 0.83322
 C94 C -0.14467 0.96350 0.85731
 H95 H -0.16764 0.97995 0.85142
 C96 C -0.08483 0.91960 0.86979
 H97 H -0.06101 0.90337 0.87486
 C98 C -0.12538 0.91468 0.88081
 H99 H -0.13051 0.89551 0.89431
 Zn100 Zn -0.01365 0.96252 0.83987
 N101 N -0.07401 0.94678 0.85331
 C102 C -0.06147 0.86214 0.82502
 N103 N -0.01809 0.90563 0.82647
 C104 C 0.02473 0.91038 0.81825
 C105 C 0.02483 0.87110 0.80753
 C106 C -0.06303 0.82160 0.81447
 C107 C -0.00067 1.06277 0.82977
 C108 C 0.00208 1.10244 0.81760
 C109 C 0.00718 1.05299 0.79190
 C110 C 0.00317 1.01380 0.80450
 N111 N -0.00098 1.01909 0.82306
 H112 H -0.09492 0.85914 0.83187
 H113 H 0.05872 0.94539 0.81973
 H114 H 0.05906 0.87665 0.80058
 H115 H -0.09786 0.78723 0.81344
 H116 H -0.00464 1.06581 0.84456
 H117 H 0.00087 1.13638 0.82305
 H118 H 0.00943 1.04779 0.77715
 H119 H 0.00185 0.97859 0.79933
 C120 C -0.15528 0.93848 0.87502
 C121 C 0.11861 0.99605 0.87956
 C122 C 0.00571 1.09747 0.79842
 C123 C -0.01951 0.82604 0.80538
 O124 O 0.44997 -0.02525 -0.00921
 O125 O 0.54740 -0.00202 0.02523
 O126 O 0.45701 -0.01075 0.02622
 O127 O 0.53819 -0.02191 -0.00995
 O128 O 0.56777 0.06120 -0.01709
 O129 O 0.49021 0.07344 0.02080
 O130 O 0.58019 0.08127 0.01790
 O131 O 0.48011 0.05878 -0.01456
 Cu132 Cu 0.49507 -0.02335 0.00872
 Cu133 Cu 0.53275 0.07705 0.00116
 C134 C 0.44804 0.01314 -0.01755
 C135 C 0.58100 0.04375 0.02716
 C136 C 0.45952 0.03305 0.02972
 C137 C 0.56658 0.01743 -0.01983
 O138 O -0.01445 0.51598 0.68185
 O139 O -0.01575 0.42819 0.64523
 O140 O -0.00920 0.52097 0.64566
 O141 O -0.01247 0.42696 0.68116
 O142 O -0.09444 0.39092 0.68226
 O143 O -0.09113 0.48588 0.64595
 O144 O -0.09767 0.39239 0.64600
 O145 O -0.09640 0.47997 0.68188
 Cu146 Cu -0.00485 0.47661 0.66341
 Cu147 Cu -0.10308 0.43357 0.66402
 C148 C -0.05559 0.51300 0.68801
 C149 C -0.05724 0.39494 0.63946
 C150 C -0.04917 0.52003 0.63976
 C151 C -0.05354 0.39290 0.68783
 O152 O 0.54272 0.57818 0.31185
 O153 O 0.45933 0.48582 0.34801
 O154 O 0.53818 0.57462 0.34796
 O155 O 0.45873 0.49393 0.31207
 O156 O 0.50174 0.44891 0.31146
 O157 O 0.58445 0.53313 0.34687
 O158 O 0.50556 0.44422 0.34748
 O159 O 0.58522 0.53264 0.31071
 Cu160 Cu 0.49536 0.53749 0.33005
 Cu161 Cu 0.54870 0.48546 0.32907
 C162 C 0.57820 0.57068 0.30506
 C163 C 0.46842 0.44903 0.35387
 C164 C 0.57511 0.56835 0.35349
 C165 C 0.46586 0.45723 0.30576
 C166 C 0.02753 0.21967 0.55668
 C167 C -0.01655 0.21850 0.56436
 C168 C -0.06253 0.17982 0.55833
 C169 C -0.06377 0.14416 0.54520
 C170 C -0.01963 0.14642 0.53767
 C171 C 0.02582 0.18432 0.54365
 C172 C -0.10707 0.17692 0.56542
 C173 C -0.10730 0.21149 0.57837
 C174 C -0.06264 0.25073 0.58486
 C175 C -0.01649 0.25420 0.57776
 C176 C 0.02819 0.29322 0.58432
 C177 C 0.02804 0.32749 0.59735
 C178 C -0.01644 0.32469 0.60441
 C179 C -0.06251 0.28652 0.59826
 C180 C -0.10645 0.28591 0.60587
 C181 C -0.10445 0.32121 0.61905
 C182 C -0.05879 0.35846 0.62515
 C183 C -0.01490 0.36002 0.61768
 H184 H 0.06415 0.24723 0.56040
 H185 H -0.09915 0.11504 0.54063
 H186 H 0.06056 0.18629 0.53839
 H187 H -0.14233 0.14748 0.56090
 H188 H -0.14346 0.20615 0.58305
 H189 H 0.06439 0.29851 0.57971
 H190 H 0.06335 0.35662 0.60198
 H191 H -0.14311 0.25872 0.60202
 H192 H -0.13906 0.31905 0.62453
 H193 H 0.02070 0.38870 0.62226
 C194 C 0.79082 0.85844 0.24358
 C195 C 0.77455 0.80461 0.24240
 C196 C 0.80098 0.78783 0.23000
 C197 C 0.84104 0.82365 0.21902
 C198 C 0.85656 0.87670 0.22044
 C199 C 0.83111 0.89363 0.23281
 C200 C 0.78767 0.73540 0.22873
 C201 C 0.74976 0.69907 0.23994
 C202 C 0.72285 0.71372 0.25276
 C203 C 0.73388 0.76709 0.25338
 C204 C 0.70375 0.78108 0.26487
 C205 C 0.66577 0.74469 0.27606
 C206 C 0.65678 0.69310 0.27658
 C207 C 0.68523 0.67679 0.26499
 C208 C 0.67590 0.62440 0.26659
 C209 C 0.64047 0.59024 0.27928
 C210 C 0.61256 0.60660 0.29068
 C211 C 0.62022 0.65792 0.28901
 H212 H 0.77396 0.87479 0.25295
 H213 H 0.86095 0.81026 0.20964
 H214 H 0.84217 0.93447 0.23405
 H215 H 0.80732 0.72227 0.21913
 H216 H 0.74191 0.65947 0.23798
 H217 H 0.70809 0.82001 0.26536
 H218 H 0.64383 0.75735 0.28472
 H219 H 0.69645 0.60881 0.25873
 H220 H 0.63529 0.55073 0.28032
 H221 H 0.59919 0.67106 0.29794
 C222 C 0.22440 0.05912 -0.08716
 C223 C 0.24115 0.02085 -0.08423
 C224 C 0.21608 -0.02619 -0.09341
 C225 C 0.17722 -0.03345 -0.10543
 C226 C 0.16105 0.00484 -0.10818
 C227 C 0.18504 0.05105 -0.09886
 C228 C 0.22963 -0.06603 -0.09050
 C229 C 0.26681 -0.06091 -0.07828
 C230 C 0.29294 -0.01496 -0.06874
 C231 C 0.28124 0.02731 -0.07234
 C232 C 0.31052 0.07483 -0.06418
 C233 C 0.34898 0.08061 -0.05253
 C234 C 0.35924 0.03916 -0.04818
 C235 C 0.33102 -0.00950 -0.05595
 C236 C 0.34171 -0.05078 -0.05034
 C237 C 0.37941 -0.04348 -0.03787
 C238 C 0.40797 0.00509 -0.03070
 C239 C 0.39759 0.04622 -0.03595
 H240 H 0.23992 0.09522 -0.08023
 H241 H 0.15961 -0.06917 -0.11271
 H242 H 0.17273 0.08088 -0.10031
 H243 H 0.21080 -0.10196 -0.09758
 H244 H 0.27500 -0.09348 -0.07694
 H245 H 0.30546 0.10896 -0.06687
 H246 H 0.37066 0.11798 -0.04670
 H247 H 0.32102 -0.08946 -0.05499
 H248 H 0.38636 -0.07603 -0.03390
 H249 H 0.41893 0.08383 -0.03024
 C250 C 0.06630 0.78306 0.55537
 C251 C 0.02355 0.75652 0.56706
 C252 C -0.01427 0.77316 0.56629
 C253 C -0.00835 0.81559 0.55482
 C254 C 0.03427 0.84147 0.54348
 C255 C 0.07126 0.82459 0.54373
 C256 C -0.05807 0.74718 0.57683
 C257 C -0.06571 0.70445 0.58807
 C258 C -0.02917 0.68648 0.58953
 C259 C 0.01680 0.71389 0.57928
 C260 C 0.05484 0.69846 0.58188
 C261 C 0.04832 0.65768 0.59396
 C262 C 0.00341 0.62983 0.60366
 C263 C -0.03649 0.64286 0.60131
 C264 C -0.08200 0.61151 0.61090
 C265 C -0.08657 0.57079 0.62293
 C266 C -0.04612 0.55998 0.62585
 C267 C -0.00149 0.58924 0.61592
 H268 H 0.09616 0.77213 0.55456
 H269 H -0.03770 0.82773 0.55433
 H270 H 0.10428 0.84376 0.53492
 H271 H -0.08705 0.75983 0.57631
 H272 H -0.10041 0.68709 0.59584
 H273 H 0.09091 0.71810 0.57515
 H274 H 0.07894 0.64784 0.59573
 H275 H -0.11489 0.61716 0.60936
 H276 H -0.12164 0.54842 0.63029
 H277 H 0.02986 0.58063 0.61781
 C278 C 0.19593 0.29132 0.23786
 C279 C 0.24349 0.29281 0.23979
 C280 C 0.25341 0.25637 0.23005
 C281 C 0.21728 0.22058 0.21886
 C282 C 0.17004 0.21887 0.21744
 C283 C 0.15999 0.25492 0.22691
 C284 C 0.29909 0.25518 0.23170
 C285 C 0.33486 0.28819 0.24335
 C286 C 0.32665 0.32455 0.25369
 C287 C 0.28099 0.32825 0.25133
 C288 C 0.27442 0.36729 0.26053
 C289 C 0.31019 0.40032 0.27216
 C290 C 0.35364 0.39549 0.27535
 C291 C 0.36264 0.35752 0.26627
 C292 C 0.40687 0.35358 0.27051
 C293 C 0.44041 0.38604 0.28316
 C294 C 0.43131 0.42366 0.29193
 C295 C 0.38791 0.42829 0.28782
 H296 H 0.18464 0.31669 0.24503
 H297 H 0.22596 0.19356 0.21132
 H298 H 0.12364 0.25411 0.22630
 H299 H 0.30703 0.22774 0.22412
 H300 H 0.36899 0.28456 0.24377
 H301 H 0.24210 0.37390 0.25888
 H302 H 0.30338 0.42963 0.27896
 H303 H 0.41626 0.32513 0.26464
 H304 H 0.47350 0.38141 0.28614
 H305 H 0.38014 0.45696 0.29463
 C306 C 0.74805 -0.09701 -0.08686
 C307 C 0.73528 -0.05547 -0.08778
 C308 C 0.75907 -0.01657 -0.10178
 C309 C 0.79355 -0.01982 -0.11435
 C310 C 0.80691 -0.06075 -0.11311
 C311 C 0.78319 -0.09934 -0.09916
 C312 C 0.74927 0.02621 -0.10298
 C313 C 0.71746 0.03223 -0.09022
 C314 C 0.69332 -0.00496 -0.07581
 C315 C 0.70078 -0.05056 -0.07504
 C316 C 0.67342 -0.08972 -0.06160
 C317 C 0.64128 -0.08393 -0.04894
 C318 C 0.63561 -0.03867 -0.04890
 C319 C 0.66170 0.00171 -0.06221
 C320 C 0.65573 0.04749 -0.06106
 C321 C 0.62492 0.05243 -0.04739
 C322 C 0.59876 0.01203 -0.03448
 C323 C 0.60419 -0.03353 -0.03541
 H324 H 0.73242 -0.12800 -0.07655
 H325 H 0.81223 0.01185 -0.12435
 H326 H 0.79054 -0.13263 -0.09787
 H327 H 0.76704 0.05594 -0.11376
 H328 H 0.71203 0.06637 -0.09223
 H329 H 0.67536 -0.12596 -0.06063
 H330 H 0.62108 -0.11510 -0.03889
 H331 H 0.67512 0.08070 -0.07022
 H332 H 0.62165 0.08819 -0.04694
 H333 H 0.58455 -0.06494 -0.02537
 C334 C 0.19270 -0.03979 0.10323
 C335 C 0.24033 0.00204 0.09988
 C336 C 0.25073 0.04897 0.10856
 C337 C 0.21518 0.05307 0.12030
 C338 C 0.16788 0.01162 0.12321
 C339 C 0.15722 -0.03486 0.11463
 C340 C 0.29632 0.09196 0.10531
 C341 C 0.33143 0.09024 0.09305
 C342 C 0.32273 0.04481 0.08377
 C343 C 0.27743 -0.00067 0.08791
 C344 C 0.27095 -0.04735 0.08007
 C345 C 0.30645 -0.04925 0.06805
 C346 C 0.34931 -0.00469 0.06300
 C347 C 0.35802 0.04315 0.07061
 C348 C 0.40114 0.08753 0.06433
 C349 C 0.43407 0.08416 0.05120
 C350 C 0.42557 0.03659 0.04403
 C351 C 0.38323 -0.00774 0.05013
 H352 H 0.18098 -0.07636 0.09678
 H353 H 0.22444 0.08902 0.12710
 H354 H 0.12079 -0.06729 0.11632
 H355 H 0.30467 0.12778 0.11209
 H356 H 0.36562 0.12517 0.09139
 H357 H 0.23904 -0.08357 0.08322
 H358 H 0.29983 -0.08602 0.06239
 H359 H 0.40988 0.12569 0.06887
 H360 H 0.46630 0.11906 0.04662
 H361 H 0.37585 -0.04471 0.04446
 C362 C 0.83545 0.75403 0.42345
 C363 C 0.78769 0.74997 0.42008
 C364 C 0.77480 0.78626 0.42842
 C365 C 0.80874 0.82510 0.43943
 C366 C 0.85714 0.83005 0.44235
 C367 C 0.86906 0.79285 0.43423
 C368 C 0.72819 0.78430 0.42552
 C369 C 0.69431 0.74781 0.41422
 C370 C 0.70561 0.71135 0.40527
 C371 C 0.75269 0.71171 0.40856
 C372 C 0.76333 0.67413 0.40009
 C373 C 0.72996 0.63841 0.38843
 C374 C 0.68470 0.63860 0.38459
 C375 C 0.67161 0.67481 0.39300
 C376 C 0.62532 0.67345 0.38846
 C377 C 0.59417 0.63843 0.37594
 C378 C 0.60759 0.60322 0.36751
 C379 C 0.65273 0.60311 0.37211
 H380 H 0.84844 0.72783 0.41798
 H381 H 0.79755 0.85314 0.44462
 H382 H 0.90379 0.79131 0.43672
 H383 H 0.71782 0.81168 0.43195
 H384 H 0.65939 0.74941 0.41282
 H385 H 0.79739 0.67111 0.40212
 H386 H 0.74005 0.61064 0.38215
 H387 H 0.61215 0.69937 0.39404
 H388 H 0.55943 0.63938 0.37273
 H389 H 0.66360 0.57612 0.36566
 C390 C 0.04132 0.19380 0.75796
 C391 C 0.00245 0.20896 0.75813
 C392 C -0.03543 0.18635 0.77208
 C393 C -0.03303 0.15169 0.78562
 C394 C 0.00564 0.13718 0.78512
 C395 C 0.04251 0.15824 0.77117
 C396 C -0.07597 0.19770 0.77227
 C397 C -0.08058 0.23006 0.75862
 C398 C -0.04387 0.25371 0.74446
 C399 C -0.00066 0.24472 0.74472
 C400 C 0.03840 0.27241 0.73176
 C401 C 0.03494 0.30657 0.71866
 C402 C -0.00785 0.31378 0.71763
 C403 C -0.04833 0.28694 0.73026
 C404 C -0.09172 0.29415 0.72792
 C405 C -0.09386 0.32777 0.71400
 C406 C -0.05287 0.35553 0.70210
 C407 C -0.01015 0.34800 0.70397
 H408 H 0.07055 0.20735 0.74747
 H409 H -0.06226 0.13447 0.79620
 H410 H 0.07235 0.14691 0.77045
 H411 H -0.10495 0.18069 0.78294
 H412 H -0.11297 0.23683 0.75983
 H413 H 0.07300 0.26967 0.73167
 H414 H 0.06612 0.32732 0.70911
 H415 H -0.12490 0.27381 0.73641
 H416 H -0.12748 0.33256 0.71272
 H417 H 0.02152 0.36861 0.69461
 C418 C 0.76761 0.02677 0.12112
 C419 C 0.77410 0.05512 0.10414
 C420 C 0.82267 0.09340 0.09925
 C421 C 0.86322 0.09990 0.11026
 C422 C 0.85628 0.06983 0.12656
 C423 C 0.80810 0.03418 0.13210
 C424 C 0.83074 0.12451 0.08326
 C425 C 0.79167 0.11865 0.07191
 C426 C 0.74285 0.08015 0.07583
 C427 C 0.73424 0.04673 0.09187
 C428 C 0.68662 0.00493 0.09472
 C429 C 0.64860 -0.00379 0.08244
 C430 C 0.65586 0.02956 0.06715
 C431 C 0.70264 0.07287 0.06390
 C432 C 0.70705 0.10729 0.04887
 C433 C 0.66734 0.09787 0.03724
 C434 C 0.62203 0.05376 0.04002
 C435 C 0.61646 0.01980 0.05506
 H436 H 0.73173 -0.00122 0.12638
 H437 H 0.90042 0.12821 0.10609
 H438 H 0.80188 0.01068 0.14472
 H439 H 0.86778 0.15383 0.07945
 H440 H 0.80144 0.14380 0.05970
 H441 H 0.67795 -0.02306 0.10603
 H442 H 0.61296 -0.03695 0.08502
 H443 H 0.74035 0.14240 0.04590
 H444 H 0.67242 0.12504 0.02583
 H445 H 0.58114 -0.01391 0.05752
 C446 C 0.19978 0.23891 0.42226
 C447 C 0.24874 0.24528 0.41890
 C448 C 0.26135 0.20701 0.42653
 C449 C 0.22619 0.16446 0.43700
 C450 C 0.17776 0.15857 0.43991
 C451 C 0.16517 0.19639 0.43256
 C452 C 0.30884 0.21103 0.42354
 C453 C 0.34402 0.25149 0.41275
 C454 C 0.33319 0.29009 0.40450
 C455 C 0.28518 0.28767 0.40802
 C456 C 0.27513 0.32754 0.40047
 C457 C 0.30985 0.36729 0.38930
 C458 C 0.35595 0.36906 0.38508
 C459 C 0.36858 0.33080 0.39271
 C460 C 0.41583 0.33439 0.38782
 C461 C 0.44821 0.37335 0.37562
 C462 C 0.43512 0.41044 0.36789
 C463 C 0.38917 0.40852 0.37296
 H464 H 0.18659 0.26564 0.41701
 H465 H 0.23622 0.13523 0.44254
 H466 H 0.12826 0.19334 0.43489
 H467 H 0.31886 0.18217 0.42946
 H468 H 0.37960 0.25128 0.41120
 H469 H 0.24055 0.32938 0.40290
 H470 H 0.30015 0.39667 0.38367
 H471 H 0.42874 0.30719 0.39281
 H472 H 0.48356 0.37392 0.37203
 H473 H 0.37855 0.43694 0.36705
 C474 C 0.02130 0.73794 0.77972
 C475 C -0.01810 0.71312 0.76743
 C476 C -0.05989 0.72352 0.76899
 C477 C -0.06055 0.75939 0.78159
 C478 C -0.02032 0.78518 0.79312
 C479 C 0.02007 0.77326 0.79229
 C480 C -0.10062 0.69873 0.75777
 C481 C -0.10114 0.66354 0.74500
 C482 C -0.06024 0.65232 0.74263
 C483 C -0.01749 0.67854 0.75369
 C484 C 0.02487 0.67042 0.75026
 C485 C 0.02542 0.63755 0.73667
 C486 C -0.01642 0.61051 0.72619
 C487 C -0.06021 0.61667 0.72925
 C488 C -0.10232 0.58653 0.71883
 C489 C -0.10041 0.55309 0.70565
 C490 C -0.05663 0.54837 0.70227
 C491 C -0.01470 0.57718 0.71264
 H492 H 0.05347 0.73066 0.78014
 H493 H -0.09198 0.76832 0.78200
 H494 H 0.05106 0.79138 0.80141
 H495 H -0.13261 0.70663 0.75887
 H496 H -0.13388 0.64685 0.73678
 H497 H 0.05897 0.69006 0.75755
 H498 H 0.05903 0.63308 0.73440
 H499 H -0.13769 0.58710 0.72068
 H500 H -0.13356 0.53100 0.69796
 H501 H 0.01917 0.57325 0.71033
   
