data_POSCAR
  _audit_creation_date              2014-09-24
  _audit_creation_method            'ToBaCCo'
  _symmetry_space_group_name_H-M    'P1'
  _symmetry_Int_Tables_number       1
  _symmetry_cell_setting            triclinic
  loop_
  _symmetry_equiv_pos_as_xyz
 x,y,z
_cell_length_a 33.8196
_cell_length_b 33.8873
_cell_length_c 33.9789
_cell_angle_alpha 103.294700
_cell_angle_beta 77.169800
_cell_angle_gamma 66.617400
loop_
  _atom_site_label
  _atom_site_type_symbol
  _atom_site_fract_x
  _atom_site_fract_y
  _atom_site_fract_z
C1 C 0.51268 0.47722 -0.00028
 C2 C 0.47589 0.51381 -0.00055
 C3 C 0.43328 0.51166 -0.00303
 C4 C 0.47624 0.55803 0.00112
 C5 C 0.55709 0.47750 -0.00232
 C6 C 0.51050 0.43497 0.00286
 C7 C 0.43515 0.47553 -0.03484
 C8 C 0.39473 0.47473 -0.03733
 C9 C 0.35115 0.51085 -0.00878
 C10 C 0.34975 0.54741 0.02258
 C11 C 0.39021 0.54760 0.02544
 C12 C 0.46269 0.57847 -0.02847
 C13 C 0.46335 0.61953 -0.02786
 C14 C 0.47828 0.64059 0.00192
 C15 C 0.49108 0.62070 0.03205
 C16 C 0.48915 0.58029 0.03224
 C17 C 0.57909 0.49015 -0.03359
 C18 C 0.61977 0.49186 -0.03377
 C19 C 0.64018 0.47911 -0.00387
 C20 C 0.61933 0.46452 0.02611
 C21 C 0.57802 0.46408 0.02710
 C22 C 0.47523 0.43739 0.03588
 C23 C 0.47463 0.39720 0.03908
 C24 C 0.50984 0.35381 0.00990
 C25 C 0.54536 0.35153 -0.02275
 C26 C 0.54562 0.39168 -0.02625
 H27 H 0.46794 0.44804 -0.05801
 H28 H 0.39795 0.44599 -0.06225
 H29 H 0.31740 0.57605 0.04537
 H30 H 0.38789 0.57604 0.05004
 H31 H 0.45217 0.56224 -0.05249
 H32 H 0.45331 0.63420 -0.05142
 H33 H 0.49829 0.56608 0.05632
 H34 H 0.56451 0.49920 -0.05754
 H35 H 0.63558 0.50261 -0.05762
 H36 H 0.63437 0.45454 0.04952
 H37 H 0.56200 0.45380 0.05127
 H38 H 0.44841 0.47036 0.05939
 H39 H 0.44699 0.40011 0.06481
 H40 H 0.57292 0.31870 -0.04583
 H41 H 0.57333 0.38899 -0.05177
 H42 H 0.50207 0.63669 0.05576
 C43 C 0.00565 0.51691 0.50652
 C44 C 0.00212 0.48645 0.47533
 C45 C -0.00240 0.44613 0.48173
 C46 C 0.00154 0.49179 0.43327
 C47 C 0.00921 0.55797 0.50149
 C48 C 0.00503 0.51154 0.54862
 C49 C 0.02926 0.41458 0.49429
 C50 C 0.02464 0.37667 0.49941
 C51 C -0.01063 0.36861 0.49041
 C52 C -0.04158 0.39947 0.47683
 C53 C -0.03771 0.43802 0.47288
 C54 C 0.03251 0.45470 0.39502
 C55 C 0.03048 0.45716 0.35508
 C56 C -0.00270 0.49683 0.35246
 C57 C -0.03337 0.53433 0.39082
 C58 C -0.03148 0.53169 0.43093
 C59 C -0.02066 0.60110 0.53403
 C60 C -0.01636 0.63988 0.53210
 C61 C 0.01784 0.63662 0.49741
 C62 C 0.04740 0.59358 0.46432
 C63 C 0.04342 0.55444 0.46657
 C64 C -0.03571 0.52025 0.57921
 C65 C -0.03635 0.51779 0.61985
 C66 C 0.00398 0.50560 0.62997
 C67 C 0.04486 0.49610 0.59891
 C68 C 0.04516 0.49982 0.55880
 H69 H 0.05796 0.41883 0.49953
 H70 H 0.04944 0.35291 0.50919
 H71 H -0.06906 0.39403 0.46968
 H72 H -0.06227 0.46156 0.46272
 H73 H 0.05803 0.42351 0.39618
 H74 H 0.05475 0.42772 0.32625
 H75 H -0.05635 0.56034 0.46014
 H76 H -0.04732 0.60476 0.56128
 H77 H -0.03995 0.67251 0.55794
 H78 H 0.07425 0.58996 0.43729
 H79 H 0.06751 0.52137 0.44153
 H80 H -0.06704 0.52978 0.57185
 H81 H -0.06825 0.52520 0.64330
 H82 H 0.07627 0.48703 0.60608
 H83 H 0.07674 0.49337 0.53554
 H84 H -0.05947 0.56529 0.38994
 C85 C 0.51722 0.00542 0.49396
 C86 C 0.48712 0.00192 0.52532
 C87 C 0.49273 0.00158 0.56746
 C88 C 0.44661 -0.00251 0.51906
 C89 C 0.51110 0.00480 0.45198
 C90 C 0.55863 0.00881 0.49853
 C91 C 0.53297 -0.03077 0.56998
 C92 C 0.53578 -0.03241 0.61016
 C93 C 0.49800 -0.00227 0.64863
 C94 C 0.45794 0.03024 0.64564
 C95 C 0.45545 0.03207 0.60564
 C96 C 0.43877 -0.03797 0.52749
 C97 C 0.40007 -0.04178 0.52361
 C98 C 0.36880 -0.01061 0.51054
 C99 C 0.37656 0.02483 0.50201
 C100 C 0.41463 0.02939 0.50706
 C101 C 0.49919 0.04487 0.44188
 C102 C 0.49519 0.04446 0.40178
 C103 C 0.50462 0.00353 0.37057
 C104 C 0.51690 -0.03671 0.38063
 C105 C 0.51962 -0.03596 0.42127
 C106 C 0.55605 0.04198 0.53399
 C107 C 0.59555 0.04546 0.53605
 C108 C 0.63821 0.01664 0.50207
 C109 C 0.64026 -0.01631 0.46663
 C110 C 0.60116 -0.02026 0.46508
 H111 H 0.56184 -0.05531 0.54084
 H112 H 0.56723 -0.05802 0.61084
 H113 H 0.42807 0.05428 0.67417
 H114 H 0.42397 0.05711 0.60442
 H115 H 0.46265 -0.06270 0.53724
 H116 H 0.39482 -0.06938 0.53042
 H117 H 0.41871 0.05819 0.50217
 H118 H 0.49290 0.07647 0.46518
 H119 H 0.48605 0.07582 0.39469
 H120 H 0.52426 -0.06866 0.35710
 H121 H 0.52932 -0.06726 0.42850
 H122 H 0.52341 0.06560 0.55974
 H123 H 0.59230 0.07143 0.56383
 H124 H 0.67218 -0.03945 0.43983
 H125 H 0.60416 -0.04611 0.43735
 H126 H 0.35248 0.04980 0.49263
 O127 O 0.46436 0.00894 -0.03523
 O128 O 0.46463 0.01815 0.07491
 O129 O 0.46629 0.06789 0.02719
 O130 O 0.46105 -0.04068 0.01284
 O131 O 0.53698 -0.07936 -0.01142
 O132 O 0.54221 0.02915 0.00048
 O133 O 0.54057 -0.02065 0.04915
 O134 O 0.54021 -0.03110 -0.06114
 Cu135 Cu 0.45647 0.01736 0.02247
 Cu136 Cu 0.54764 -0.02932 -0.00836
 C137 C 0.50222 -0.01225 -0.06685
 C138 C 0.50270 -0.00007 0.08066
 C139 C 0.50509 0.06695 0.01567
 C140 C 0.49805 -0.07835 -0.00092
 O141 O -0.07870 0.53668 1.01027
 O142 O 0.02953 0.54220 1.00060
 O143 O -0.01970 0.54069 0.95093
 O144 O -0.03090 0.53958 1.06084
 O145 O 0.00933 0.46374 1.03429
 O146 O 0.01919 0.46475 0.92449
 O147 O 0.06855 0.46630 0.97298
 O148 O -0.03987 0.46076 0.98539
 Cu149 Cu -0.02878 0.54744 1.00835
 Cu150 Cu 0.01814 0.45625 0.97667
 C151 C -0.07759 0.49772 0.99914
 C152 C 0.06743 0.50516 0.98529
 C153 C 0.00101 0.50295 0.91914
 C154 C -0.01212 0.50148 1.06618
 O155 O 0.03000 -0.06733 0.46280
 O156 O 0.00231 0.05029 0.46561
 O157 O 0.07399 -0.01849 0.46386
 O158 O -0.04196 0.00233 0.46614
 O159 O -0.06787 0.03056 0.53746
 O160 O 0.04983 0.00311 0.53502
 O161 O -0.01905 0.07466 0.53677
 O162 O 0.00213 -0.04134 0.53411
 Cu163 Cu 0.01863 -0.01087 0.45743
 Cu164 Cu -0.01133 0.01934 0.54302
 C165 C 0.01954 -0.07404 0.49805
 C166 C -0.01173 0.08212 0.50157
 C167 C 0.08158 -0.01106 0.49910
 C168 C -0.07460 0.01979 0.50212
 C169 C -0.23995 0.48713 0.99898
 N170 N -0.24828 0.45441 1.01001
 N171 N -0.28639 0.45186 1.00910
 C172 C -0.31728 0.48151 0.99652
 N173 N -0.30871 0.51400 0.98516
 N174 N -0.27087 0.51691 0.98658
 C175 C -0.19814 0.49019 1.00022
 N176 N -0.19559 0.52938 1.00133
 N177 N -0.15745 0.53203 1.00191
 C178 C -0.12034 0.49545 1.00097
 N179 N -0.12283 0.45620 0.99977
 N180 N -0.16119 0.45374 0.99973
 C181 C 0.23260 0.51009 0.98408
 N182 N 0.23121 0.54641 1.01253
 N183 N 0.26994 0.54659 1.01484
 C184 C 0.31180 0.51061 0.98865
 N185 N 0.31289 0.47442 0.95995
 N186 N 0.27415 0.47406 0.95785
 C187 C 0.18982 0.50933 0.98265
 N188 N 0.19067 0.46978 0.96106
 N189 N 0.15167 0.46864 0.96136
 C190 C 0.11045 0.50710 0.98292
 N191 N 0.10963 0.54677 1.00411
 N192 N 0.14861 0.54782 1.00408
 C193 C 0.02873 -0.24440 0.49641
 N194 N 0.04892 -0.28185 0.45955
 N195 N 0.04604 -0.31997 0.45975
 C196 C 0.02255 -0.32187 0.49674
 N197 N 0.00263 -0.28440 0.53349
 N198 N 0.00571 -0.24650 0.53335
 C199 C 0.02972 -0.20143 0.49651
 N200 N 0.01169 -0.16562 0.53432
 N201 N 0.00974 -0.12550 0.53476
 C202 C 0.02566 -0.11960 0.49740
 N203 N 0.04412 -0.15552 0.45954
 N204 N 0.04623 -0.19579 0.45911
 C205 C -0.01978 0.25104 0.49943
 N206 N -0.03329 0.26925 0.47013
 N207 N -0.03097 0.30700 0.46770
 C208 C -0.01445 0.32759 0.49406
 N209 N -0.00085 0.30927 0.52331
 N210 N -0.00369 0.27183 0.52609
 C211 C -0.02075 0.20853 0.50109
 N212 N -0.01837 0.19632 0.53618
 N213 N -0.01703 0.15666 0.53685
 C214 C -0.01758 0.12757 0.50228
 N215 N -0.02008 0.13983 0.46722
 N216 N -0.02198 0.17975 0.46677
 C217 C 0.50115 -0.01006 -0.23243
 N218 N 0.46250 0.01998 -0.23617
 N219 N 0.46174 0.02257 -0.27450
 C220 C 0.49950 -0.00484 -0.31085
 N221 N 0.53823 -0.03499 -0.30697
 N222 N 0.53909 -0.03745 -0.26852
 C223 C 0.50159 -0.01223 -0.18980
 N224 N 0.54129 -0.03759 -0.18432
 N225 N 0.54148 -0.03818 -0.14524
 C226 C 0.50194 -0.01369 -0.11033
 N227 N 0.46225 0.01134 -0.11592
 N228 N 0.46209 0.01210 -0.15490
 C229 C 0.50243 0.00228 0.24747
 N230 N 0.47276 0.04023 0.28299
 N231 N 0.47329 0.04055 0.32216
 C232 C 0.50305 0.00271 0.32732
 N233 N 0.53240 -0.03541 0.29178
 N234 N 0.53226 -0.03553 0.25257
 C235 C 0.50260 0.00220 0.20420
 N236 N 0.53991 -0.02892 0.16869
 N237 N 0.54017 -0.02907 0.12940
 C238 C 0.50297 0.00161 0.12414
 N239 N 0.46556 0.03264 0.15963
 N240 N 0.46552 0.03316 0.19899
 C241 C 0.48721 -0.24044 -0.00183
 N242 N 0.51692 -0.27116 0.01077
 N243 N 0.51375 -0.30873 0.01242
 C244 C 0.48104 -0.31722 0.00111
 N245 N 0.45147 -0.28655 -0.01169
 N246 N 0.45429 -0.24869 -0.01284
 C247 C 0.49043 -0.19882 -0.00311
 N248 N 0.45402 -0.16189 -0.00269
 N249 N 0.45656 -0.12359 -0.00249
 C250 C 0.49583 -0.12114 -0.00336
 N251 N 0.53239 -0.15825 -0.00426
 N252 N 0.52967 -0.19632 -0.00393
 C253 C 0.50938 0.23236 0.01847
 N254 N 0.47105 0.27364 0.04020
 N255 N 0.47127 0.31226 0.03783
 C256 C 0.50973 0.31107 0.01338
 N257 N 0.54806 0.26970 -0.00826
 N258 N 0.54792 0.23111 -0.00572
 C259 C 0.50874 0.18961 0.01978
 N260 N 0.54794 0.14873 0.00080
 N261 N 0.54701 0.10968 0.00036
 C262 C 0.50681 0.11011 0.01875
 N263 N 0.46766 0.15101 0.03794
 N264 N 0.46863 0.19006 0.03857
 C265 C -0.24427 0.02672 0.50320
 N266 N -0.24449 -0.00168 0.46802
 N267 N -0.28243 -0.00481 0.46789
 C268 C -0.32196 0.02049 0.50280
 N269 N -0.32175 0.04927 0.53799
 N270 N -0.28357 0.05214 0.53829
 C271 C -0.20149 0.02831 0.50312
 N272 N -0.19679 0.04789 0.54025
 N273 N -0.15665 0.04627 0.53996
 C274 C -0.12000 0.02538 0.50248
 N275 N -0.12501 0.00644 0.46537
 N276 N -0.16494 0.00778 0.46571
 C277 C 0.25092 -0.01958 0.50144
 N278 N 0.27156 -0.00353 0.47492
 N279 N 0.30911 -0.00076 0.47773
 C280 C 0.32769 -0.01440 0.50685
 N281 N 0.30726 -0.03090 0.53307
 N282 N 0.26940 -0.03315 0.53062
 C283 C 0.20829 -0.02043 0.49975
 N284 N 0.17959 -0.02147 0.53402
 N285 N 0.13955 -0.01943 0.53353
 C286 C 0.12710 -0.01697 0.49848
 N287 N 0.15611 -0.01662 0.46396
 N288 N 0.19589 -0.01810 0.46467
 C289 C -0.01114 0.49974 1.23166
 N290 N -0.03579 0.53867 1.26727
 N291 N -0.03321 0.53788 1.30570
 C292 C -0.00569 0.49822 1.30991
 N293 N 0.01889 0.45940 1.27416
 N294 N 0.01622 0.46013 1.23583
 C295 C -0.01314 0.50030 1.18907
 N296 N 0.00995 0.46062 1.15424
 N297 N 0.00952 0.46095 1.11523
 C298 C -0.01400 0.50100 1.10960
 N299 N -0.03731 0.54070 1.14445
 N300 N -0.03698 0.54035 1.18353
 C301 C 0.00324 0.50341 0.75279
 N302 N -0.03460 0.53338 0.74779
 N303 N -0.03464 0.53355 0.70863
 C304 C 0.00334 0.50408 0.67309
 N305 N 0.04121 0.47417 0.67816
 N306 N 0.04105 0.47362 0.71727
 C307 C 0.00330 0.50347 0.79592
 N308 N 0.03425 0.46628 0.80093
 N309 N 0.03377 0.46615 0.84021
 C310 C 0.00280 0.50349 0.87581
 N311 N -0.02785 0.54082 0.87076
 N312 N -0.02774 0.54073 0.83153
   
