data_POSCAR
  _audit_creation_date              2014-09-24
  _audit_creation_method            'ToBaCCo'
  _symmetry_space_group_name_H-M    'P1'
  _symmetry_Int_Tables_number       1
  _symmetry_cell_setting            triclinic
  loop_
  _symmetry_equiv_pos_as_xyz
 x,y,z
_cell_length_a 29.3851
_cell_length_b 29.4105
_cell_length_c 79.8332
_cell_angle_alpha 82.441800
_cell_angle_beta 92.564500
_cell_angle_gamma 120.545400
loop_
  _atom_site_label
  _atom_site_type_symbol
  _atom_site_fract_x
  _atom_site_fract_y
  _atom_site_fract_z
C1 C -0.02429 0.10787 0.51974
 H2 H 0.01458 0.11263 0.51890
 C3 C -0.03301 0.13772 0.52998
 H4 H -0.00064 0.16509 0.53712
 C5 C -0.11402 0.06468 0.51186
 H6 H -0.14540 0.03610 0.50478
 C7 C -0.12462 0.09359 0.52207
 H8 H -0.16422 0.08718 0.52271
 N9 N -0.06464 0.07173 0.51113
 C10 C -0.03321 -0.05630 0.50727
 H11 H -0.03036 -0.05525 0.49375
 C12 C -0.03205 -0.09696 0.51823
 H13 H -0.02819 -0.12710 0.51305
 C14 C -0.04484 -0.02010 0.53044
 H15 H -0.05091 0.00912 0.53522
 C16 C -0.04399 -0.05989 0.54178
 H17 H -0.04832 -0.06002 0.55519
 Zn18 Zn -0.04833 0.03149 0.49852
 N19 N -0.03978 -0.01907 0.51352
 C20 C 0.05540 0.07117 0.48463
 N21 N 0.01433 0.07976 0.48569
 C22 C 0.01558 0.12342 0.47706
 C23 C 0.05810 0.15926 0.46621
 C24 C 0.09887 0.10610 0.47386
 C25 C -0.14958 -0.04893 0.49019
 C26 C -0.18905 -0.08012 0.47945
 C27 C -0.13334 -0.02163 0.45560
 C28 C -0.09497 0.00778 0.46680
 N29 N -0.10351 -0.00614 0.48374
 H30 H 0.05394 0.03658 0.49176
 H31 H -0.01736 0.12958 0.47828
 H32 H 0.05789 0.19338 0.45930
 H33 H 0.13029 0.09764 0.47264
 H34 H -0.15540 -0.05934 0.50375
 H35 H -0.22537 -0.11268 0.48537
 H36 H -0.12238 -0.00989 0.44234
 H37 H -0.05762 0.04097 0.46181
 C38 C -0.03838 -0.09951 0.53573
 C39 C -0.08383 0.13041 0.53138
 C40 C -0.18171 -0.06742 0.46164
 C41 C 0.09997 0.15022 0.46420
 C42 C 1.17865 0.08218 0.14199
 H43 H 1.18415 0.12178 0.13997
 C44 C 1.21036 0.07036 0.13311
 H45 H 1.23980 0.10105 0.12410
 C46 C 1.13220 -0.00620 0.15585
 H47 H 1.10187 -0.03579 0.16479
 C48 C 1.16301 -0.01983 0.14719
 H49 H 1.15611 -0.05997 0.14959
 N50 N 1.13991 0.04388 0.15287
 C51 C 1.01801 0.08653 0.15318
 H52 H 1.01539 0.08885 0.16648
 C53 C 0.98271 0.09212 0.14198
 H54 H 0.95345 0.09955 0.14673
 C55 C 1.05855 0.07266 0.13093
 H56 H 1.08710 0.06360 0.12671
 C57 C 1.02423 0.07816 0.11931
 H58 H 1.02690 0.07320 0.10626
 Zn59 Zn 1.09777 0.06391 0.16357
 N60 N 1.05496 0.07696 0.14751
 C61 C 1.13983 0.17011 0.17121
 N62 N 1.14384 0.12563 0.17376
 C63 C 1.18054 0.12302 0.18417
 C64 C 1.21332 0.16517 0.19321
 C65 C 1.17184 0.21327 0.18003
 C66 C 1.01181 -0.03708 0.17539
 C67 C 0.97374 -0.07597 0.18718
 C68 C 1.01876 -0.01935 0.20887
 C69 C 1.05577 0.01836 0.19670
 N70 N 1.05161 0.00913 0.18029
 H71 H 1.11113 0.17183 0.16262
 H72 H 1.18306 0.08726 0.18587
 H73 H 1.24063 0.16122 0.20199
 H74 H 1.16754 0.24801 0.17810
 H75 H 1.00877 -0.04300 0.16220
 H76 H 0.94142 -0.11176 0.18297
 H77 H 1.02275 -0.01100 0.22183
 H78 H 1.08690 0.05560 0.20036
 C79 C 0.98536 0.08759 0.12480
 C80 C 1.20240 0.01862 0.13552
 C81 C 0.97650 -0.06688 0.20414
 C82 C 1.20859 0.21073 0.19143
 C83 C 0.03843 0.88680 0.85734
 H84 H 0.00367 0.84819 0.85657
 C85 C 0.07920 0.89131 0.86791
 H86 H 0.07578 0.85576 0.87508
 C87 C 0.08468 0.97993 0.84888
 H88 H 0.08643 1.01436 0.84152
 C89 C 0.12646 0.98630 0.85935
 H90 H 0.15978 1.02588 0.86011
 N91 N 0.04124 0.93085 0.84841
 C92 C -0.11872 0.90369 0.84488
 H93 H -0.12337 0.90816 0.83135
 C94 C -0.15792 0.89746 0.85583
 H95 H -0.19308 0.89545 0.85032
 C96 C -0.06700 0.90029 0.86802
 H97 H -0.03084 0.90312 0.87280
 C98 C -0.10521 0.89345 0.87941
 H99 H -0.09615 0.89233 0.89268
 Zn100 Zn -0.01905 0.92016 0.83597
 N101 N -0.07421 0.90529 0.85111
 C102 C -0.08898 0.82058 0.82394
 N103 N -0.03864 0.86254 0.82359
 C104 C 0.00038 0.86478 0.81436
 C105 C -0.01072 0.82444 0.80463
 C106 C -0.10192 0.77936 0.81430
 C107 C 0.00384 1.02587 0.82750
 C108 C 0.01088 1.07070 0.81678
 C109 C 0.00090 1.02416 0.79286
 C110 C -0.00620 0.98025 0.80401
 N111 N -0.00452 0.98183 0.82099
 H112 H -0.11922 0.81919 0.83156
 H113 H 0.04012 0.89848 0.81441
 H114 H 0.02069 0.82779 0.79703
 H115 H -0.14220 0.74636 0.81463
 H116 H 0.00410 1.02578 0.84106
 H117 H 0.01731 1.10536 0.82217
 H118 H -0.00184 1.02154 0.77941
 H119 H -0.01420 0.94457 0.79904
 C120 C -0.15165 0.89258 0.87351
 C121 C 0.12347 0.94170 0.86931
 C122 C 0.00923 1.07007 0.79919
 C123 C -0.06252 0.78116 0.80442
 C124 C 0.40872 -0.03389 0.00425
 C125 C 0.43099 -0.02841 -0.01158
 C126 C 0.48148 -0.02222 -0.01246
 C127 C 0.50891 -0.02369 0.00236
 C128 C 0.48520 -0.03017 0.01814
 C129 C 0.43554 -0.03452 0.01917
 C130 C 0.56174 -0.01923 0.00139
 C131 C 0.59984 0.00446 0.01366
 C132 C 0.64896 0.00738 0.01312
 C133 C 0.66062 -0.01224 -0.00015
 C134 C 0.62369 -0.03535 -0.01265
 C135 C 0.57422 -0.03925 -0.01169
 H136 H 0.37079 -0.03630 0.00492
 H137 H 0.49899 -0.01674 -0.02473
 H138 H 0.50466 -0.03300 0.02974
 H139 H 0.59186 0.02147 0.02357
 H140 H 0.69857 -0.00981 -0.00071
 H141 H 0.54511 -0.05923 -0.02095
 C142 C -0.08512 0.56691 0.67007
 C143 C -0.09144 0.53345 0.68510
 C144 C -0.08776 0.48792 0.68453
 C145 C -0.07620 0.47645 0.66921
 C146 C -0.06895 0.51135 0.65434
 C147 C -0.07437 0.55598 0.65463
 C148 C -0.07185 0.42818 0.66873
 C149 C -0.08663 0.40135 0.65430
 C150 C -0.08172 0.35659 0.65359
 C151 C -0.06332 0.33751 0.66772
 C152 C -0.04912 0.36298 0.68236
 C153 C -0.05282 0.40862 0.68268
 H154 H -0.08693 0.60265 0.67046
 H155 H -0.09481 0.46109 0.69605
 H156 H -0.05933 0.50388 0.64246
 H157 H -0.10296 0.41451 0.64362
 H158 H -0.05994 0.30267 0.66733
 H159 H -0.03974 0.42937 0.69373
 C160 C 0.63488 0.68106 0.33288
 C161 C 0.62718 0.65471 0.31870
 C162 C 0.58207 0.60430 0.31820
 C163 C 0.54324 0.58122 0.33132
 C164 C 0.55161 0.60909 0.34532
 C165 C 0.59758 0.65855 0.34627
 C166 C 0.49351 0.52915 0.33015
 C167 C 0.46634 0.49470 0.34486
 C168 C 0.41813 0.44723 0.34382
 C169 C 0.39839 0.43275 0.32786
 C170 C 0.42501 0.46576 0.31304
 C171 C 0.47197 0.51416 0.31429
 H172 H 0.67071 0.71897 0.33364
 H173 H 0.57707 0.58365 0.30740
 H174 H 0.52191 0.59337 0.35533
 H175 H 0.48199 0.50498 0.35720
 H176 H 0.36240 0.39506 0.32699
 H177 H 0.49069 0.54058 0.30281
 C178 C -0.10768 0.21154 0.56795
 C179 C -0.06375 0.23894 0.55686
 C180 C -0.05702 0.21316 0.54452
 C181 C -0.09416 0.15949 0.54313
 C182 C -0.13928 0.13284 0.55390
 C183 C -0.14587 0.15871 0.56628
 C184 C -0.11089 0.23631 0.58189
 C185 C -0.11129 0.25705 0.59389
 C186 C -0.10914 0.28172 0.60855
 C187 C -0.08424 0.33719 0.60746
 C188 C -0.07692 0.36150 0.62205
 C189 C -0.09419 0.33057 0.63795
 C190 C -0.12066 0.27478 0.63884
 C191 C -0.12799 0.25056 0.62423
 H192 H -0.03388 0.27979 0.55806
 H193 H -0.02225 0.23488 0.53626
 H194 H -0.16823 0.09137 0.55325
 H195 H -0.17983 0.13701 0.57488
 H196 H -0.06908 0.36171 0.59540
 H197 H -0.05590 0.40454 0.62099
 H198 H -0.13501 0.24991 0.65087
 H199 H -0.14715 0.20760 0.62523
 C200 C 0.85420 0.82367 0.24067
 C201 C 0.87186 0.80413 0.22896
 C202 C 0.91165 0.83957 0.21700
 C203 C 0.93427 0.89491 0.21670
 C204 C 0.91589 0.91391 0.22848
 C205 C 0.87626 0.87857 0.24036
 C206 C 0.81355 0.78826 0.25313
 C207 C 0.77985 0.76153 0.26397
 C208 C 0.74027 0.73332 0.27729
 C209 C 0.72001 0.67897 0.28251
 C210 C 0.68274 0.65292 0.29589
 C211 C 0.66567 0.68114 0.30423
 C212 C 0.68587 0.73553 0.29871
 C213 C 0.72287 0.76134 0.28537
 H214 H 0.85505 0.76167 0.22910
 H215 H 0.92522 0.82379 0.20815
 H216 H 0.93168 0.95619 0.22838
 H217 H 0.86270 0.89413 0.24930
 H218 H 0.73334 0.65694 0.27636
 H219 H 0.66810 0.61110 0.29994
 H220 H 0.67281 0.75810 0.30468
 H221 H 0.73818 0.80337 0.28142
 C222 C 0.24155 -0.04096 -0.09416
 C223 C 0.25691 -0.01070 -0.11011
 C224 C 0.21867 -0.01631 -0.12210
 C225 C 0.16469 -0.05237 -0.11825
 C226 C 0.14989 -0.08245 -0.10218
 C227 C 0.18802 -0.07680 -0.09026
 C228 C 0.27987 -0.03541 -0.08151
 C229 C 0.30934 -0.03284 -0.07019
 C230 C 0.34118 -0.03223 -0.05590
 C231 C 0.39533 0.00518 -0.05604
 C232 C 0.42503 0.00619 -0.04171
 C233 C 0.40068 -0.03006 -0.02710
 C234 C 0.34644 -0.06788 -0.02723
 C235 C 0.31698 -0.06889 -0.04152
 H236 H 0.29829 0.01719 -0.11325
 H237 H 0.23130 0.00714 -0.13441
 H238 H 0.10867 -0.10975 -0.09869
 H239 H 0.17566 -0.10017 -0.07793
 H240 H 0.41441 0.03385 -0.06710
 H241 H 0.46664 0.03600 -0.04191
 H242 H 0.32680 -0.09682 -0.01627
 H243 H 0.27513 -0.09809 -0.04129
 C244 C -0.04624 0.77353 0.57133
 C245 C -0.00900 0.79594 0.55792
 C246 C -0.00676 0.83679 0.54610
 C247 C -0.04152 0.85579 0.54768
 C248 C -0.07929 0.83225 0.56103
 C249 C -0.08155 0.79153 0.57275
 C250 C -0.04794 0.73326 0.58409
 C251 C -0.05144 0.70023 0.59546
 C252 C -0.05800 0.66186 0.60974
 C253 C -0.02264 0.64310 0.61242
 C254 C -0.02828 0.60787 0.62689
 C255 C -0.06918 0.59138 0.63886
 C256 C -0.10490 0.60984 0.63588
 C257 C -0.09930 0.64480 0.62144
 H258 H 0.01862 0.78237 0.55674
 H259 H 0.02287 0.85437 0.53599
 H260 H -0.10723 0.84530 0.56240
 H261 H -0.11062 0.77437 0.58304
 H262 H 0.00963 0.65625 0.60347
 H263 H 0.00005 0.59461 0.62893
 H264 H -0.13722 0.59722 0.64474
 H265 H -0.12691 0.65904 0.61949
 C266 C 0.29424 0.32628 0.22557
 C267 C 0.24250 0.31287 0.22140
 C268 C 0.21532 0.27687 0.20976
 C269 C 0.23953 0.25359 0.20220
 C270 C 0.29223 0.26881 0.20603
 C271 C 0.31933 0.30485 0.21767
 C272 C 0.31967 0.35801 0.23905
 C273 C 0.33969 0.38227 0.25091
 C274 C 0.36196 0.40835 0.26570
 C275 C 0.32839 0.40441 0.27840
 C276 C 0.34907 0.42464 0.29359
 C277 C 0.40372 0.44900 0.29631
 C278 C 0.43741 0.45445 0.28325
 C279 C 0.41659 0.43405 0.26806
 H280 H 0.22253 0.32885 0.22756
 H281 H 0.17459 0.26545 0.20727
 H282 H 0.31214 0.25208 0.20027
 H283 H 0.35932 0.31480 0.22085
 H284 H 0.28604 0.38450 0.27673
 H285 H 0.32226 0.42054 0.30333
 H286 H 0.47958 0.47260 0.28505
 H287 H 0.44290 0.43698 0.25835
 C288 C 0.74395 -0.10805 -0.09115
 C289 C 0.74550 -0.08731 -0.10804
 C290 C 0.77823 -0.08891 -0.11988
 C291 C 0.81085 -0.11067 -0.11498
 C292 C 0.80671 -0.13354 -0.09797
 C293 C 0.77382 -0.13202 -0.08624
 C294 C 0.71526 -0.10118 -0.07851
 C295 C 0.69385 -0.09406 -0.06744
 C296 C 0.67141 -0.08394 -0.05373
 C297 C 0.64305 -0.05737 -0.05694
 C298 C 0.62592 -0.04306 -0.04353
 C299 C 0.63734 -0.05485 -0.02676
 C300 C 0.66447 -0.08296 -0.02366
 C301 C 0.68140 -0.09732 -0.03706
 H302 H 0.72276 -0.06825 -0.11196
 H303 H 0.78016 -0.06972 -0.13256
 H304 H 0.82825 -0.15342 -0.09355
 H305 H 0.77256 -0.14867 -0.07321
 H306 H 0.63542 -0.04649 -0.06981
 H307 H 0.60551 -0.02105 -0.04629
 H308 H 0.67316 -0.09323 -0.01087
 H309 H 0.70341 -0.11778 -0.03443
 C310 C 0.29034 -0.01736 0.10341
 C311 C 0.31573 0.02995 0.11076
 C312 C 0.28762 0.04089 0.12168
 C313 C 0.23360 0.00467 0.12534
 C314 C 0.20888 -0.04360 0.11834
 C315 C 0.23707 -0.05443 0.10740
 C316 C 0.31763 -0.02570 0.09070
 C317 C 0.33972 -0.03138 0.07948
 C318 C 0.36495 -0.03663 0.06541
 C319 C 0.41954 -0.00377 0.06246
 C320 C 0.44299 -0.00461 0.04772
 C321 C 0.41196 -0.03810 0.03570
 C322 C 0.35747 -0.07237 0.03910
 C323 C 0.33416 -0.07154 0.05384
 H324 H 0.35691 0.05902 0.10771
 H325 H 0.30793 0.07805 0.12706
 H326 H 0.16722 -0.07199 0.12074
 H327 H 0.21691 -0.09098 0.10167
 H328 H 0.44368 0.02369 0.07128
 H329 H 0.48493 0.02257 0.04537
 H330 H 0.33272 -0.09909 0.03018
 H331 H 0.29186 -0.09705 0.05597
 C332 C 0.71249 0.83456 0.42719
 C333 C 0.70938 0.81437 0.44420
 C334 C 0.74302 0.84725 0.45586
 C335 C 0.78162 0.90134 0.45070
 C336 C 0.78184 0.92113 0.43347
 C337 C 0.74799 0.88815 0.42196
 C338 C 0.68256 0.80010 0.41473
 C339 C 0.66057 0.77300 0.40360
 C340 C 0.63810 0.74296 0.38957
 C341 C 0.61544 0.68755 0.39178
 C342 C 0.59999 0.65957 0.37772
 C343 C 0.60756 0.68687 0.36130
 C344 C 0.62843 0.74223 0.35929
 C345 C 0.64363 0.77003 0.37333
 H346 H 0.68216 0.77267 0.44837
 H347 H 0.74064 0.82821 0.46857
 H348 H 0.80699 0.96255 0.42862
 H349 H 0.75021 0.90445 0.40883
 H350 H 0.61138 0.66625 0.40428
 H351 H 0.58440 0.61701 0.37961
 H352 H 0.63407 0.76416 0.34681
 H353 H 0.66130 0.81291 0.37146
 C354 C 0.01311 0.19510 0.76364
 C355 C -0.01368 0.18096 0.77923
 C356 C -0.01337 0.14161 0.79109
 C357 C 0.01350 0.11569 0.78744
 C358 C 0.04172 0.13145 0.77196
 C359 C 0.04145 0.17083 0.76015
 C360 C 0.00810 0.23113 0.75069
 C361 C 0.00244 0.25927 0.73941
 C362 C -0.00603 0.29032 0.72548
 C363 C -0.03862 0.31117 0.72760
 C364 C -0.05121 0.33649 0.71365
 C365 C -0.03158 0.34096 0.69739
 C366 C 0.00251 0.32139 0.69549
 C367 C 0.01510 0.29618 0.70945
 H368 H -0.03609 0.19919 0.78201
 H369 H -0.03595 0.12993 0.80281
 H370 H 0.06332 0.11270 0.76888
 H371 H 0.06221 0.18137 0.74811
 H372 H -0.05549 0.30651 0.73993
 H373 H -0.07794 0.35072 0.71546
 H374 H 0.01882 0.32491 0.68317
 H375 H 0.04027 0.28010 0.70766
 C376 C 0.87091 0.08589 0.08907
 C377 C 0.85499 0.06171 0.10571
 C378 C 0.89243 0.06375 0.11751
 C379 C 0.94630 0.08982 0.11277
 C380 C 0.96205 0.11534 0.09614
 C381 C 0.92457 0.11331 0.08438
 C382 C 0.83203 0.07909 0.07649
 C383 C 0.79972 0.07162 0.06572
 C384 C 0.76158 0.06057 0.05261
 C385 C 0.70744 0.02978 0.05665
 C386 C 0.67060 0.01417 0.04379
 C387 C 0.68754 0.02893 0.02671
 C388 C 0.74195 0.06141 0.02280
 C389 C 0.77868 0.07703 0.03567
 H390 H 0.81350 0.04000 0.10944
 H391 H 0.87897 0.04315 0.13015
 H392 H 1.00329 0.13626 0.09217
 H393 H 0.93733 0.13204 0.07151
 H394 H 0.69379 0.01650 0.06973
 H395 H 0.62903 -0.01129 0.04719
 H396 H 0.75612 0.07397 0.00977
 H397 H 0.82049 0.10077 0.03240
 C398 C 0.22297 0.25187 0.42695
 C399 C 0.23587 0.23421 0.44260
 C400 C 0.19598 0.20094 0.45480
 C401 C 0.14287 0.18526 0.45146
 C402 C 0.13054 0.20304 0.43563
 C403 C 0.17026 0.23608 0.42352
 C404 C 0.26293 0.28620 0.41417
 C405 C 0.29340 0.31487 0.40271
 C406 C 0.32587 0.34865 0.38821
 C407 C 0.38074 0.37014 0.38799
 C408 C 0.41117 0.40254 0.37360
 C409 C 0.38688 0.41349 0.35928
 C410 C 0.33183 0.39196 0.35975
 C411 C 0.30165 0.35980 0.37408
 H412 H 0.27659 0.24621 0.44539
 H413 H 0.20668 0.18810 0.46690
 H414 H 0.08999 0.19085 0.43252
 H415 H 0.15979 0.24926 0.41141
 H416 H 0.39987 0.36172 0.39887
 H417 H 0.45344 0.41830 0.37355
 H418 H 0.31209 0.40043 0.34907
 H419 H 0.25927 0.34359 0.37414
 C420 C -0.09434 0.66767 0.77025
 C421 C -0.13055 0.68429 0.77222
 C422 C -0.12120 0.71980 0.78378
 C423 C -0.07528 0.73938 0.79344
 C424 C -0.04003 0.72106 0.79175
 C425 C -0.04950 0.68552 0.78021
 C426 C -0.10066 0.63611 0.75705
 C427 C -0.10411 0.61197 0.74551
 C428 C -0.10606 0.58606 0.73118
 C429 C -0.13621 0.58760 0.71729
 C430 C -0.13315 0.56846 0.70251
 C431 C -0.09969 0.54768 0.70142
 C432 C -0.07115 0.54433 0.71568
 C433 C -0.07421 0.56358 0.73046
 H434 H -0.16516 0.67108 0.76447
 H435 H -0.14876 0.73361 0.78467
 H436 H -0.00471 0.73487 0.79917
 H437 H -0.02112 0.67305 0.77875
 H438 H -0.16087 0.60505 0.71769
 H439 H -0.15610 0.57092 0.69179
 H440 H -0.04466 0.52905 0.71516
 H441 H -0.05038 0.56259 0.74110
   
