data_POSCAR
  _audit_creation_date              2014-09-24
  _audit_creation_method            'ToBaCCo'
  _symmetry_space_group_name_H-M    'P1'
  _symmetry_Int_Tables_number       1
  _symmetry_cell_setting            triclinic
  loop_
  _symmetry_equiv_pos_as_xyz
 x,y,z
_cell_length_a 17.8385
_cell_length_b 17.8687
_cell_length_c 44.2249
_cell_angle_alpha 90.028200
_cell_angle_beta 91.226700
_cell_angle_gamma 120.090200
loop_
  _atom_site_label
  _atom_site_type_symbol
  _atom_site_fract_x
  _atom_site_fract_y
  _atom_site_fract_z
C1 C -0.10319 0.06307 0.51536
 C2 C -0.17287 0.00343 0.49214
 C3 C -0.15129 -0.04905 0.47644
 C4 C -0.06128 -0.03616 0.48549
 C5 C -0.08725 0.00235 0.53526
 C6 C -0.06589 -0.04971 0.51986
 C7 C -0.02068 0.11174 0.49701
 C8 C 0.00209 0.06113 0.48135
 H9 H -0.23495 0.00011 0.48981
 H10 H -0.04433 -0.07932 0.47308
 H11 H -0.09470 -0.00085 0.55956
 H12 H 0.01605 0.18157 0.49584
 C13 C 0.93378 -0.18277 0.18358
 C14 C 0.99199 -0.19018 0.16018
 C15 C 1.04217 -0.11487 0.14501
 C16 C 1.02850 -0.03937 0.15482
 C17 C 0.99203 -0.11059 0.20297
 C18 C 1.04467 -0.03154 0.18755
 C19 C 0.88177 -0.15007 0.16542
 C20 C 0.93029 -0.07531 0.15032
 H21 H 0.99611 -0.24813 0.15729
 H22 H 1.06894 0.02010 0.14198
 H23 H 0.99552 -0.11624 0.22730
 H24 H 0.81167 -0.18442 0.16405
 C25 C 0.15405 1.11272 0.85436
 C26 C 0.14780 1.17679 0.83279
 C27 C 0.06870 1.14387 0.81824
 C28 C 0.00366 1.04902 0.82633
 C29 C 0.07756 1.08369 0.87535
 C30 C -0.00068 1.05181 0.86094
 C31 C 0.12941 1.03314 0.83453
 C32 C 0.05158 0.99936 0.81978
 H33 H 0.19995 1.24270 0.83013
 H34 H -0.06021 1.02149 0.81451
 H35 H 0.08574 1.09498 0.89959
 H36 H 0.17172 1.00670 0.83157
 O37 O 0.46659 0.00883 -0.03380
 O38 O 0.56786 -0.04491 0.02845
 O39 O 0.42736 -0.03516 0.02276
 O40 O 0.60047 -0.00772 -0.02794
 O41 O 0.67543 0.13091 -0.01525
 O42 O 0.50447 0.10226 0.03657
 O43 O 0.64765 0.09330 0.04110
 O44 O 0.53793 0.14691 -0.02036
 Cu45 Cu 0.50722 -0.03362 -0.00376
 Cu46 Cu 0.59846 0.13237 0.01196
 C47 C 0.48569 0.08650 -0.03818
 C48 C 0.62679 0.01475 0.04486
 C49 C 0.43653 0.02850 0.03848
 C50 C 0.66761 0.06635 -0.03012
 O51 O -0.10893 0.56065 0.64635
 O52 O -0.05306 0.43606 0.69968
 O53 O -0.06594 0.57675 0.70314
 O54 O -0.10568 0.41626 0.64257
 O55 O 0.03108 0.49550 0.62978
 O56 O 0.07132 0.65063 0.69039
 O57 O 0.08345 0.51173 0.68629
 O58 O 0.02839 0.63672 0.63362
 Cu59 Cu -0.09726 0.48914 0.67435
 Cu60 Cu 0.06736 0.58080 0.65894
 C61 C -0.04938 0.62026 0.63104
 C62 C 0.02508 0.45284 0.70204
 C63 C 0.00970 0.64176 0.70669
 C64 C -0.04401 0.43058 0.62528
 O65 O 0.44074 0.30578 0.31418
 O66 O 0.59043 0.48265 0.36549
 O67 O 0.44102 0.33801 0.37074
 O68 O 0.59128 0.44700 0.30778
 O69 O 0.51991 0.51535 0.29697
 O70 O 0.37644 0.41308 0.35997
 O71 O 0.52369 0.55517 0.35413
 O72 O 0.37282 0.37754 0.30297
 Cu73 Cu 0.52353 0.38677 0.34068
 Cu74 Cu 0.44192 0.47295 0.32753
 C75 C 0.38064 0.31108 0.30023
 C76 C 0.58251 0.54905 0.36867
 C77 C 0.38244 0.35684 0.37568
 C78 C 0.57908 0.49824 0.29121
 C79 C -0.06695 0.26515 0.55340
 C80 C -0.12760 0.23350 0.57647
 N81 N -0.18739 0.14759 0.57682
 C82 C -0.18688 0.09179 0.55581
 C83 C -0.12215 0.12298 0.53390
 N84 N -0.06563 0.20954 0.53307
 N85 N -0.00527 0.34977 0.55311
 C86 C 0.00041 0.40440 0.57541
 C87 C -0.05754 0.37291 0.59942
 N88 N -0.12169 0.28809 0.59913
 H89 H -0.23287 0.02329 0.55730
 H90 H 0.05124 0.47152 0.57474
 C91 C 0.73592 0.64260 0.21959
 C92 C 0.77085 0.61433 0.24259
 N93 N 0.85754 0.64371 0.24339
 C94 C 0.91100 0.70268 0.22297
 C95 C 0.87659 0.73606 0.20136
 N96 N 0.78928 0.70255 0.19995
 N97 N 0.65033 0.61614 0.21886
 C98 C 0.59800 0.56487 0.24078
 C99 C 0.63299 0.53998 0.26491
 N100 N 0.71867 0.56375 0.26497
 H101 H 0.98013 0.72752 0.22481
 H102 H 0.53016 0.54637 0.23996
 C103 C 0.34390 0.10838 -0.11111
 C104 C 0.36343 0.16253 -0.08566
 N105 N 0.32479 0.21128 -0.08311
 C106 C 0.26439 0.20481 -0.10405
 C107 C 0.23896 0.14430 -0.12804
 N108 N 0.28233 0.10036 -0.13127
 N109 N 0.37899 0.05688 -0.11355
 C110 C 0.43025 0.05418 -0.09107
 C111 C 0.44596 0.10402 -0.06463
 N112 N 0.41389 0.15899 -0.06276
 H113 H 0.23160 0.24119 -0.10071
 H114 H 0.45542 0.01051 -0.09323
 C115 C -0.09969 0.78138 0.57491
 C116 C -0.02990 0.76848 0.56924
 N117 N 0.02375 0.81108 0.54616
 C118 C 0.01152 0.86722 0.52882
 C119 C -0.05596 0.88304 0.53541
 N120 N -0.11028 0.83904 0.55821
 N121 N -0.15430 0.73798 0.59757
 C122 C -0.14160 0.68293 0.61523
 C123 C -0.06973 0.67248 0.61048
 N124 N -0.01574 0.71533 0.58740
 H125 H 0.05600 0.90168 0.51093
 H126 H -0.18543 0.65005 0.63344
 C127 C 0.19436 0.09910 0.24828
 C128 C 0.23179 0.18289 0.23671
 N129 N 0.20786 0.19470 0.20855
 C130 C 0.14809 0.12647 0.19141
 C131 C 0.10840 0.04221 0.20334
 N132 N 0.13319 0.03177 0.23164
 N133 N 0.22015 0.08598 0.27585
 C134 C 0.28171 0.15334 0.29259
 C135 C 0.31752 0.23779 0.28158
 N136 N 0.29159 0.25083 0.25382
 H137 H 0.13005 0.13922 0.16936
 H138 H 0.30097 0.14138 0.31462
 C139 C 0.87265 0.09435 -0.08369
 C140 C 0.78802 0.02627 -0.08947
 N141 N 0.77300 -0.03120 -0.11224
 C142 C 0.83913 -0.02399 -0.12926
 C143 C 0.92420 0.04252 -0.12271
 N144 N 0.93836 0.10024 -0.10014
 N145 N 0.88818 0.15312 -0.06151
 C146 C 0.82278 0.14664 -0.04453
 C147 C 0.73812 0.07725 -0.04955
 N148 N 0.72267 0.01854 -0.07204
 H149 H 0.82583 -0.07081 -0.14711
 H150 H 0.83723 0.19406 -0.02679
 C151 C 0.23966 -0.00844 0.09868
 C152 C 0.23538 -0.07863 0.08291
 N153 N 0.16781 -0.15949 0.08734
 C154 C 0.10446 -0.17353 0.10698
 C155 C 0.10861 -0.10332 0.12301
 N156 N 0.17634 -0.02232 0.11820
 N157 N 0.30749 0.07238 0.09445
 C158 C 0.37154 0.08627 0.07519
 C159 C 0.36766 0.01610 0.05929
 N160 N 0.29915 -0.06486 0.06358
 H161 H 0.05117 -0.23868 0.10970
 H162 H 0.42487 0.15143 0.07234
 C163 C 0.75101 0.75075 0.42903
 C164 C 0.68132 0.75247 0.41446
 N165 N 0.66745 0.81923 0.42008
 C166 C 0.71985 0.88421 0.43975
 C167 C 0.78979 0.88263 0.45456
 N168 N 0.80344 0.81564 0.44856
 N169 N 0.76481 0.68391 0.42361
 C170 C 0.71187 0.61838 0.40427
 C171 C 0.64178 0.61964 0.38955
 N172 N 0.62847 0.68717 0.39505
 H173 H 0.70735 0.93674 0.44341
 H174 H 0.72451 0.56593 0.40046
 C175 C 0.09057 0.30965 0.76259
 C176 C 0.00449 0.29090 0.75893
 N177 N -0.05854 0.22584 0.77491
 C178 C -0.03968 0.17800 0.79419
 C179 C 0.04639 0.19573 0.79773
 N180 N 0.10961 0.26198 0.78190
 N181 N 0.15361 0.37477 0.74660
 C182 C 0.13449 0.42195 0.72705
 C183 C 0.04818 0.40331 0.72324
 N184 N -0.01473 0.33800 0.73944
 H185 H -0.09144 0.12778 0.80696
 H186 H 0.18621 0.47340 0.71460
 C187 C 0.75805 -0.06413 0.10570
 C188 C 0.80099 0.01979 0.09414
 N189 N 0.88658 0.07268 0.10118
 C190 C 0.93104 0.04513 0.11914
 C191 C 0.88781 -0.03942 0.13060
 N192 N 0.80213 -0.09115 0.12347
 N193 N 0.67331 -0.11824 0.09855
 C194 C 0.62928 -0.09274 0.07990
 C195 C 0.67177 -0.00912 0.06781
 N196 N 0.75694 0.04578 0.07542
 H197 H 0.99871 0.08910 0.12450
 H198 H 0.56193 -0.13785 0.07423
 C199 C 0.18458 0.23029 0.43849
 C200 C 0.21877 0.18460 0.42406
 N201 N 0.18235 0.09808 0.42882
 C202 C 0.11301 0.05537 0.44718
 C203 C 0.07824 0.10138 0.46142
 N204 N 0.11610 0.18791 0.45658
 N205 N 0.21851 0.31595 0.43360
 C206 C 0.28473 0.35834 0.41442
 C207 C 0.31886 0.31315 0.39941
 N208 N 0.28549 0.22699 0.40476
 H209 H 0.08602 -0.01321 0.45051
 H210 H 0.30957 0.42651 0.41051
 C211 C 0.06749 0.84368 0.76889
 C212 C -0.01833 0.78912 0.75896
 N213 N -0.08128 0.80465 0.76868
 C214 C -0.06203 0.87217 0.78793
 C215 C 0.02423 0.92643 0.79804
 N216 N 0.08619 0.90998 0.78801
 N217 N 0.13126 0.83007 0.75927
 C218 C 0.11342 0.76432 0.73981
 C219 C 0.02769 0.70914 0.72951
 N220 N -0.03669 0.72261 0.73947
 H221 H -0.11362 0.88205 0.79557
 H222 H 0.16595 0.75554 0.73236
   
