data_POSCAR
  _audit_creation_date              2014-09-24
  _audit_creation_method            'ToBaCCo'
  _symmetry_space_group_name_H-M    'P1'
  _symmetry_Int_Tables_number       1
  _symmetry_cell_setting            triclinic
  loop_
  _symmetry_equiv_pos_as_xyz
 x,y,z
_cell_length_a 27.2055
_cell_length_b 23.6237
_cell_length_c 13.6527
_cell_angle_alpha 89.945800
_cell_angle_beta 90.104700
_cell_angle_gamma 90.446500
loop_
  _atom_site_label
  _atom_site_type_symbol
  _atom_site_fract_x
  _atom_site_fract_y
  _atom_site_fract_z
C1 C 0.66857 0.30392 0.61426
 C2 C 0.64706 0.32475 0.52822
 C3 C 0.66503 0.31185 0.43578
 C4 C 0.70756 0.27801 0.42706
 C5 C 0.73172 0.25872 0.51301
 C6 C 0.71283 0.27267 0.60700
 C7 C 0.74034 0.25772 0.69023
 C8 C 0.78205 0.22459 0.68259
 C9 C 0.80009 0.20783 0.59084
 C10 C 0.77486 0.22530 0.50498
 C11 C 0.72696 0.26341 0.33524
 C12 C 0.76722 0.22772 0.32753
 C13 C 0.79240 0.20876 0.41126
 C14 C 0.83252 0.17067 0.40512
 C15 C 0.85259 0.14909 0.49118
 C16 C 0.84063 0.17092 0.58240
 H17 H 0.73065 0.27207 0.76262
 H18 H 0.79892 0.21088 0.75016
 H19 H 0.71097 0.27877 0.26790
 H20 H 0.77741 0.21416 0.25487
 H21 H 0.61272 0.34756 0.53189
 H22 H 0.88411 0.12149 0.48634
 C23 C 0.18370 0.84351 0.59878
 C24 C 0.16106 0.85940 0.51002
 C25 C 0.17578 0.83580 0.41992
 C26 C 0.21546 0.79705 0.41839
 C27 C 0.23860 0.78093 0.50717
 C28 C 0.22139 0.80251 0.59742
 C29 C 0.24089 0.78059 0.68485
 C30 C 0.27938 0.74244 0.68374
 C31 C 0.30135 0.72576 0.59536
 C32 C 0.27864 0.74230 0.50605
 C33 C 0.23239 0.77344 0.33017
 C34 C 0.27057 0.73456 0.32927
 C35 C 0.29516 0.71945 0.41596
 C36 C 0.33484 0.68087 0.41572
 C37 C 0.35698 0.66580 0.50397
 C38 C 0.34259 0.68915 0.59355
 H39 H 0.22577 0.79147 0.75552
 H40 H 0.29033 0.72477 0.75332
 H41 H 0.21629 0.78462 0.26039
 H42 H 0.28002 0.71600 0.25958
 H43 H 0.13134 0.88969 0.51125
 H44 H 0.38897 0.63880 0.50117
 C45 C 0.15963 0.18075 -0.40988
 C46 C 0.14159 0.15624 -0.49533
 C47 C 0.15803 0.17342 -0.58717
 C48 C 0.19901 0.21093 -0.59329
 C49 C 0.21826 0.23613 -0.50696
 C50 C 0.19772 0.22176 -0.41475
 C51 C 0.21671 0.24759 -0.33027
 C52 C 0.25486 0.28682 -0.33618
 C53 C 0.27800 0.29929 -0.42604
 C54 C 0.25859 0.27496 -0.51272
 C55 C 0.22403 0.21986 -0.68178
 C56 C 0.26413 0.25657 -0.68692
 C57 C 0.27999 0.28805 -0.60478
 C58 C 0.31900 0.32875 -0.61123
 C59 C 0.33990 0.34952 -0.52295
 C60 C 0.32024 0.33478 -0.43059
 H61 H 0.20288 0.23737 -0.25823
 H62 H 0.26607 0.30689 -0.26858
 H63 H 0.21418 0.19653 -0.74721
 H64 H 0.28348 0.25840 -0.75590
 H65 H 0.11036 0.12762 -0.48980
 H66 H 0.37096 0.37846 -0.52559
 C67 C -0.31569 0.63858 -0.41459
 C68 C -0.33967 0.62416 -0.50336
 C69 C -0.32557 0.64843 -0.59381
 C70 C -0.28404 0.68533 -0.59525
 C71 C -0.26337 0.70536 -0.50643
 C72 C -0.27951 0.68257 -0.41588
 C73 C -0.26085 0.70678 -0.32903
 C74 C -0.22513 0.74911 -0.33110
 C75 C -0.20798 0.77170 -0.42011
 C76 C -0.22655 0.74879 -0.50860
 C77 C -0.26023 0.69984 -0.68318
 C78 C -0.22333 0.74064 -0.68520
 C79 C -0.20891 0.76940 -0.59955
 C80 C -0.17481 0.81529 -0.60258
 C81 C -0.15526 0.83608 -0.51354
 C82 C -0.17281 0.81640 -0.42244
 H83 H -0.27458 0.69481 -0.25777
 H84 H -0.21113 0.76373 -0.26136
 H85 H -0.26910 0.67887 -0.75141
 H86 H -0.20588 0.74894 -0.75493
 H87 H -0.36951 0.59354 -0.50204
 H88 H -0.13004 0.87183 -0.51464
 O89 O -0.04992 0.91520 0.12955
 O90 O 0.05017 0.91548 -0.12728
 O91 O -0.10128 0.96033 -0.09075
 O92 O 0.09496 0.97246 0.11524
 O93 O -0.04081 0.92070 -0.17148
 O94 O 0.03569 0.91494 0.12981
 O95 O 0.10469 0.97162 -0.06382
 O96 O -0.10664 0.97147 0.09126
 C97 C -0.09383 0.92640 0.13019
 C98 C 0.09411 0.92811 -0.11358
 C99 C -0.08571 0.92573 -0.15357
 C100 C 0.07952 0.92504 0.14259
 O101 O 0.03827 1.02191 0.21129
 O102 O -0.02948 1.02896 -0.21250
 O103 O -0.07111 1.07590 0.07184
 O104 O 0.06576 1.07813 -0.06843
 O105 O 0.06004 1.02223 -0.18875
 O106 O -0.05151 1.02505 0.19695
 O107 O 0.04904 1.07646 0.09287
 O108 O -0.07902 1.06706 -0.10516
 Co109 Co -0.00643 0.97152 0.15267
 Co110 Co 0.00905 0.97327 -0.15740
 Co111 Co -0.08073 1.01578 -0.00646
 Co112 Co 0.07201 1.02129 0.01795
 O113 O -0.00224 0.99365 -0.00074
 C114 C 0.05028 1.06985 0.18075
 C115 C -0.05945 1.06657 -0.18689
 C116 C -0.06760 1.07066 0.16096
 C117 C 0.06958 1.07036 -0.15632
 O118 O 0.45980 0.42119 0.14019
 O119 O 0.54935 0.43690 -0.18758
 O120 O 0.39922 0.47829 -0.10826
 O121 O 0.54972 0.41450 0.11543
 O122 O 0.45764 0.43361 -0.18712
 O123 O 0.52815 0.45839 0.24735
 O124 O 0.55998 0.39583 -0.05097
 O125 O 0.39952 0.46645 0.07171
 C126 C 0.41480 0.42545 0.12303
 C127 C 0.56425 0.39555 -0.14036
 C128 C 0.41328 0.43970 -0.16721
 C129 C 0.55575 0.42049 0.20631
 O130 O 0.52703 0.55361 0.15626
 O131 O 0.45536 0.54132 -0.20659
 O132 O 0.44191 0.57334 0.08637
 O133 O 0.60097 0.50166 -0.08413
 O134 O 0.54761 0.54538 -0.17924
 O135 O 0.44418 0.52027 0.20790
 O136 O 0.59223 0.51886 0.09529
 O137 O 0.44232 0.58529 -0.07577
 Co138 Co 0.49554 0.48669 0.14068
 Co139 Co 0.50187 0.48973 -0.17233
 Co140 Co 0.42605 0.52310 -0.00672
 Co141 Co 0.56935 0.46084 0.01672
 O142 O 0.49654 0.49173 -0.01080
 C143 C 0.57210 0.55546 0.14732
 C144 C 0.44194 0.58496 -0.16509
 C145 C 0.42944 0.56534 0.17189
 C146 C 0.59111 0.53707 -0.15231
 N147 N 0.33216 0.38262 0.14321
 N148 N 0.30509 0.35812 0.21891
 C149 C 0.33525 0.35013 0.29650
 C150 C 0.38205 0.37054 0.27154
 C151 C 0.37861 0.38950 0.17466
 H152 H 0.41399 0.37356 0.31869
 H153 H 0.31733 0.39727 0.07737
 H154 H 0.26687 0.35362 0.21751
 N155 N -0.17620 0.88523 0.16370
 N156 N -0.19855 0.85428 0.23853
 C157 C -0.16446 0.84393 0.30841
 C158 C -0.11998 0.86839 0.27971
 C159 C -0.12877 0.89255 0.18812
 H160 H -0.08571 0.86869 0.32009
 H161 H -0.19397 0.90051 0.10127
 H162 H -0.23617 0.84528 0.24168
 N163 N 0.61160 0.64942 0.17347
 N164 N 0.63984 0.67516 0.24653
 C165 C 0.64647 0.63739 0.32000
 C166 C 0.62126 0.58763 0.29618
 C167 C 0.60121 0.59664 0.20356
 H168 H 0.61915 0.54898 0.33870
 H169 H 0.60073 0.66847 0.10794
 H170 H 0.65076 0.71764 0.24524
 N171 N 0.08522 1.16534 0.19678
 N172 N 0.11977 1.19232 0.25591
 C173 C 0.12920 1.15766 0.33184
 C174 C 0.10056 1.10845 0.32318
 C175 C 0.07435 1.11469 0.23726
 H176 H 0.10133 1.07130 0.36963
 H177 H 0.07330 1.18063 0.12903
 H178 H 0.13218 1.23383 0.24556
 N179 N 0.60959 0.30410 -0.15035
 N180 N 0.64075 0.27922 -0.21901
 C181 C 0.64349 0.31430 -0.29724
 C182 C 0.61354 0.36046 -0.28088
 C183 C 0.59342 0.35273 -0.18965
 H184 H 0.60862 0.39708 -0.32757
 H185 H 0.60138 0.28769 -0.08119
 H186 H 0.65458 0.23826 -0.21294
 N187 N 0.18034 0.91557 -0.16876
 N188 N 0.20315 0.89688 -0.24759
 C189 C 0.17014 0.87180 -0.30760
 C190 C 0.12406 0.87442 -0.26434
 C191 C 0.13222 0.90241 -0.17574
 H192 H 0.08937 0.86011 -0.29473
 H193 H 0.19728 0.93905 -0.11320
 H194 H 0.24074 0.90205 -0.26065
 N195 N 0.40944 0.68239 -0.18008
 N196 N 0.37981 0.71116 -0.24673
 C197 C 0.37129 0.67625 -0.32332
 C198 C 0.39687 0.62617 -0.30889
 C199 C 0.41925 0.63138 -0.21868
 H200 H 0.39609 0.58863 -0.35432
 H201 H 0.41982 0.69746 -0.11113
 H202 H 0.36968 0.75349 -0.23953
 N203 N -0.07689 1.16636 -0.21529
 N204 N -0.11101 1.19468 -0.27303
 C205 C -0.12727 1.15771 -0.34085
 C206 C -0.10300 1.10649 -0.32986
 C207 C -0.07273 1.11321 -0.25009
 H208 H -0.11080 1.06725 -0.36803
 H209 H -0.06276 1.18171 -0.14917
 H210 H -0.11945 1.23756 -0.26657
 N211 N 0.67828 0.56625 -0.18242
 N212 N 0.70409 0.59419 -0.25668
 C213 C 0.67170 0.60935 -0.32713
 C214 C 0.62512 0.59042 -0.29997
 C215 C 0.63065 0.56500 -0.20849
 H216 H 0.59121 0.59530 -0.34060
 H217 H 0.69394 0.54894 -0.11936
 H218 H 0.74232 0.59846 -0.25872
 N219 N 0.08876 1.17079 -0.19043
 N220 N 0.11462 1.20029 -0.25453
 C221 C 0.13449 1.16400 -0.31902
 C222 C 0.11940 1.10931 -0.29690
 C223 C 0.09064 1.11567 -0.21520
 H224 H 0.12811 1.07052 -0.33508
 H225 H 0.06966 1.18832 -0.13163
 H226 H 0.11680 1.24444 -0.25587
 N227 N 0.37698 0.34538 -0.19228
 N228 N 0.35701 0.31680 -0.26543
 C229 C 0.34560 0.35293 -0.33841
 C230 C 0.36002 0.40723 -0.31035
 C231 C 0.37883 0.40066 -0.21580
 H232 H 0.35920 0.44544 -0.35409
 H233 H 0.39200 0.32670 -0.12975
 H234 H 0.35243 0.27286 -0.26608
 N235 N -0.17068 0.89513 -0.19633
 N236 N -0.19339 0.86862 -0.26870
 C237 C -0.15968 0.84806 -0.33139
 C238 C -0.11311 0.86300 -0.29757
 C239 C -0.12183 0.89250 -0.21091
 H240 H -0.07815 0.85535 -0.33268
 H241 H -0.18862 0.91650 -0.13997
 H242 H -0.23156 0.86597 -0.27612
 N243 N 0.39662 0.66197 0.18677
 N244 N 0.37070 0.69230 0.24872
 C245 C 0.35811 0.65934 0.32528
 C246 C 0.37824 0.60576 0.31246
 C247 C 0.40219 0.60945 0.22355
 H248 H 0.37650 0.56983 0.36162
 H249 H 0.41132 0.67765 0.12142
 H250 H 0.36399 0.73551 0.24035
 N251 N -0.09958 1.16717 0.18268
 N252 N -0.13216 1.19374 0.24602
 C253 C -0.14263 1.15680 0.31843
 C254 C -0.11658 1.10689 0.30317
 C255 C -0.09036 1.11514 0.21856
 H256 H -0.11825 1.06829 0.34595
 H257 H -0.08693 1.18431 0.11674
 H258 H -0.14118 1.23657 0.24239
 N259 N 0.58895 0.32421 0.22246
 N260 N 0.61926 0.29592 0.27946
 C261 C 0.63469 0.33045 0.35174
 C262 C 0.61157 0.38267 0.34217
 C263 C 0.58318 0.37677 0.25879
 H264 H 0.61561 0.41970 0.38821
 H265 H 0.57230 0.30747 0.15972
 H266 H 0.62781 0.25324 0.27020
 N267 N 0.10025 0.82932 0.20333
 N268 N 0.12351 0.80635 0.27826
 C269 C 0.14666 0.84738 0.32943
 C270 C 0.13784 0.89926 0.28404
 C271 C 0.10841 0.88561 0.20341
 H272 H 0.14897 0.94092 0.30889
 H273 H 0.07760 0.80687 0.15495
 H274 H 0.12242 0.76326 0.29546
   
