data_POSCAR
  _audit_creation_date              2014-09-24
  _audit_creation_method            'ToBaCCo'
  _symmetry_space_group_name_H-M    'P1'
  _symmetry_Int_Tables_number       1
  _symmetry_cell_setting            triclinic
  loop_
  _symmetry_equiv_pos_as_xyz
 x,y,z
_cell_length_a 22.1083
_cell_length_b 22.2701
_cell_length_c 22.1279
_cell_angle_alpha 90.139300
_cell_angle_beta 90.228300
_cell_angle_gamma 90.136700
loop_
  _atom_site_label
  _atom_site_type_symbol
  _atom_site_fract_x
  _atom_site_fract_y
  _atom_site_fract_z
C1 C 0.52871 1.00011 -0.50183
 C2 C 0.46751 0.99987 -0.50182
 C3 C 0.43156 0.99872 -0.55829
 C4 C 0.43208 1.00082 -0.44530
 C5 C 0.56465 0.99899 -0.44536
 C6 C 0.56422 1.00140 -0.55828
 C7 C 0.43353 1.04664 -0.59937
 C8 C 0.39329 1.04815 -0.64832
 C9 C 0.35090 1.00177 -0.65629
 C10 C 0.35009 0.95319 -0.61626
 C11 C 0.39007 0.95181 -0.56747
 C12 C 0.39068 1.04755 -0.43602
 C13 C 0.35146 1.04608 -0.38693
 C14 C 0.35298 0.99773 -0.34680
 C15 C 0.39512 0.95152 -0.35488
 C16 C 0.43463 0.95301 -0.40410
 C17 C 0.60604 0.95216 -0.43646
 C18 C 0.64590 0.95358 -0.38757
 C19 C 0.64503 1.00199 -0.34725
 C20 C 0.60287 1.04826 -0.35491
 C21 C 0.56271 1.04681 -0.40394
 C22 C 0.56223 0.95340 -0.59952
 C23 C 0.60239 0.95191 -0.64822
 C24 C 0.64459 0.99832 -0.65575
 C25 C 0.64540 1.04697 -0.61571
 C26 C 0.60555 1.04843 -0.56714
 H27 H 0.46458 1.08369 -0.59226
 H28 H 0.39429 1.08619 -0.67880
 H29 H 0.31754 0.91704 -0.62169
 H30 H 0.38773 0.91478 -0.53588
 H31 H 0.38787 1.08448 -0.46768
 H32 H 0.31889 1.08190 -0.38116
 H33 H 0.46560 0.91609 -0.41126
 H34 H 0.60838 0.91521 -0.46830
 H35 H 0.67848 0.91770 -0.38211
 H36 H 0.60215 1.08608 -0.32404
 H37 H 0.53175 1.08380 -0.41081
 H38 H 0.53133 0.91626 -0.59266
 H39 H 0.60171 0.91391 -0.67888
 H40 H 0.67800 1.08296 -0.62107
 H41 H 0.60794 1.08550 -0.53542
 H42 H 0.39632 0.91374 -0.32416
 C43 C -0.46794 1.50119 -0.00005
 C44 C -0.52930 1.50111 0.00024
 C45 C -0.56523 1.44482 -0.00075
 C46 C -0.56511 1.55729 0.00149
 C47 C -0.43202 1.55747 -0.00138
 C48 C -0.43217 1.44498 0.00100
 C49 C -0.60764 1.43599 -0.04732
 C50 C -0.64735 1.38729 -0.04576
 C51 C -0.64542 1.34696 0.00255
 C52 C -0.60232 1.35461 0.04860
 C53 C -0.56231 1.40346 0.04701
 C54 C -0.56295 1.59859 -0.04636
 C55 C -0.60307 1.64717 -0.04778
 C56 C -0.64552 1.65463 -0.00147
 C57 C -0.64665 1.61441 0.04694
 C58 C -0.60684 1.56597 0.04834
 C59 C -0.43426 1.59915 0.04632
 C60 C -0.39421 1.64799 0.04761
 C61 C -0.35167 1.65533 0.00130
 C62 C -0.35047 1.61463 -0.04698
 C63 C -0.39025 1.56596 -0.04820
 C64 C -0.38968 1.43655 0.04751
 C65 C -0.35024 1.38781 0.04606
 C66 C -0.35251 1.34703 -0.00206
 C67 C -0.39565 1.35431 -0.04806
 C68 C -0.43538 1.40320 -0.04660
 H69 H -0.61085 1.46772 -0.08422
 H70 H -0.68058 1.38193 -0.08150
 H71 H -0.60068 1.32379 0.08637
 H72 H -0.53065 1.41019 0.08389
 H73 H -0.53184 1.59197 -0.08345
 H74 H -0.60205 1.67791 -0.08563
 H75 H -0.60947 1.53428 0.08531
 H76 H -0.46542 1.59268 0.08338
 H77 H -0.39545 1.67900 0.08541
 H78 H -0.31778 1.61960 -0.08302
 H79 H -0.38758 1.53398 -0.08506
 H80 H -0.38624 1.46858 0.08429
 H81 H -0.31697 1.38273 0.08177
 H82 H -0.39754 1.32315 -0.08569
 H83 H -0.46709 1.40961 -0.08343
 H84 H -0.67938 1.61962 0.08289
 C85 C 0.00017 0.49890 0.53209
 C86 C 0.00006 0.49883 0.47061
 C87 C -0.00134 0.44246 0.43449
 C88 C 0.00137 0.55514 0.43467
 C89 C -0.00122 0.55531 0.56815
 C90 C 0.00162 0.44261 0.56806
 C91 C 0.04619 0.40073 0.43704
 C92 C 0.04767 0.35222 0.39650
 C93 C 0.00171 0.34515 0.35306
 C94 C -0.04642 0.38587 0.35155
 C95 C -0.04782 0.43420 0.39181
 C96 C 0.04776 0.56335 0.39227
 C97 C 0.04635 0.61177 0.35235
 C98 C -0.00163 0.65258 0.35392
 C99 C -0.04750 0.64555 0.39700
 C100 C -0.04607 0.59697 0.43722
 C101 C -0.04757 0.56334 0.61061
 C102 C -0.04633 0.61199 0.65051
 C103 C 0.00150 0.65327 0.64886
 C104 C 0.04737 0.64636 0.60569
 C105 C 0.04605 0.59753 0.56552
 C106 C -0.04572 0.40045 0.56518
 C107 C -0.04707 0.35189 0.60543
 C108 C -0.00118 0.34519 0.64893
 C109 C 0.04675 0.38637 0.65080
 C110 C 0.04803 0.43475 0.61082
 H111 H 0.08307 0.40694 0.46881
 H112 H 0.08537 0.32125 0.39811
 H113 H -0.08225 0.38120 0.31826
 H114 H -0.08456 0.46617 0.38876
 H115 H 0.08442 0.53131 0.38921
 H116 H 0.08200 0.61654 0.31923
 H117 H -0.08288 0.59081 0.46876
 H118 H -0.08411 0.53101 0.61372
 H119 H -0.08207 0.61652 0.68361
 H120 H 0.08484 0.67775 0.60399
 H121 H 0.08283 0.59152 0.53392
 H122 H -0.08255 0.40634 0.53334
 H123 H -0.08462 0.32056 0.60354
 H124 H 0.08252 0.38200 0.68415
 H125 H 0.08463 0.46704 0.61413
 H126 H -0.08504 0.67668 0.39848
 O127 O -0.15544 1.00217 -0.08150
 O128 O 0.15564 0.99772 -0.08055
 O129 O -0.00192 1.08094 -0.15564
 O130 O 0.00200 0.91876 -0.15586
 O131 O 0.00204 0.84517 -0.08240
 O132 O -0.00182 1.15469 -0.08199
 O133 O 0.08212 0.99748 -0.15494
 O134 O -0.08208 1.00224 -0.15545
 Zr135 Zr 0.00007 0.99991 -0.10631
 O136 O 0.05468 0.94543 -0.05456
 O137 O -0.05443 1.05452 -0.05475
 C138 C -0.13770 1.00343 -0.13712
 C139 C 0.13778 0.99635 -0.13629
 C140 C -0.00296 1.13641 -0.13778
 C141 C 0.00310 0.86333 -0.13813
 H142 H 0.08066 1.07996 -0.07993
 O143 O 0.05471 1.05444 -0.05426
 H144 H -0.08047 0.91991 -0.08066
 O145 O -0.05446 0.94548 -0.05476
 O146 O 0.15580 1.00254 0.08179
 O147 O -0.15532 0.99765 0.08076
 O148 O 0.08267 1.15479 0.00290
 O149 O 0.08219 0.84539 -0.00213
 O150 O -0.08231 0.84526 0.00198
 O151 O -0.08180 1.15466 -0.00217
 O152 O 0.00249 1.08122 0.15618
 O153 O -0.00193 0.91910 0.15591
 O154 O 0.00265 1.15485 0.08276
 O155 O -0.00217 0.84534 0.08227
 O156 O 0.15589 1.08100 0.00296
 O157 O -0.15527 1.08076 -0.00247
 O158 O -0.15554 0.91905 0.00179
 O159 O 0.15563 0.91933 -0.00175
 O160 O 0.08243 1.00263 0.15574
 O161 O -0.08186 0.99767 0.15520
 Zr162 Zr 0.10616 1.00012 0.00047
 Zr163 Zr -0.10581 0.99994 -0.00020
 Zr164 Zr 0.00035 1.10620 0.00031
 Zr165 Zr 0.00001 0.89384 -0.00000
 Zr166 Zr 0.00025 1.00012 0.10660
 O167 O -0.05452 0.94544 0.05468
 O168 O 0.05496 1.05471 0.05521
 C169 C 0.13806 1.00383 0.13742
 C170 C -0.13752 0.99643 0.13650
 C171 C 0.13831 1.13642 0.00418
 C172 C 0.13789 0.86388 -0.00310
 C173 C -0.13795 0.86364 0.00300
 C174 C -0.13750 1.13620 -0.00353
 C175 C 0.00371 1.13666 0.13849
 C176 C -0.00318 0.86362 0.13804
 H177 H -0.08007 1.07999 0.08043
 O178 O -0.05419 1.05446 0.05469
 H179 H 0.08055 0.92020 0.08070
 O180 O 0.05463 0.94569 0.05488
 C181 C 0.31008 1.00472 0.30110
 C182 C 0.27103 1.00619 0.26309
 C183 C 0.22439 1.00643 0.21964
 C184 C 0.18454 1.00564 0.18250
 C185 C -0.31033 0.99505 0.29791
 C186 C -0.27095 0.99376 0.26058
 C187 C -0.22399 0.99370 0.21785
 C188 C -0.18399 0.99458 0.18120
 C189 C -0.31007 1.00512 -0.30036
 C190 C -0.27086 1.00630 -0.26253
 C191 C -0.22409 1.00625 -0.21923
 C192 C -0.18418 1.00530 -0.18216
 C193 C 0.30874 0.99458 -0.29964
 C194 C 0.27003 0.99340 -0.26163
 C195 C 0.22373 0.99345 -0.21819
 C196 C 0.18411 0.99442 -0.18113
 C197 C 0.31003 1.29989 0.00570
 C198 C 0.27117 1.26187 0.00690
 C199 C 0.22470 1.21833 0.00692
 C200 C 0.18495 1.18123 0.00603
 C201 C 0.30973 0.70134 -0.00450
 C202 C 0.27074 0.73905 -0.00564
 C203 C 0.22418 0.78228 -0.00565
 C204 C 0.18442 0.81918 -0.00481
 C205 C -0.30946 0.69991 0.00407
 C206 C -0.27067 0.73803 0.00527
 C207 C -0.22429 0.78166 0.00535
 C208 C -0.18457 0.81881 0.00459
 C209 C -0.30828 1.29984 -0.00508
 C210 C -0.26969 1.26173 -0.00621
 C211 C -0.22351 1.21811 -0.00619
 C212 C -0.18396 1.18098 -0.00531
 C213 C 0.00458 1.30075 0.31047
 C214 C 0.00584 1.26271 0.27147
 C215 C 0.00599 1.21902 0.22490
 C216 C 0.00529 1.18176 0.18514
 C217 C -0.00392 1.30066 -0.30881
 C218 C -0.00509 1.26252 -0.27008
 C219 C -0.00520 1.21874 -0.22380
 C220 C -0.00450 1.18146 -0.18425
 C221 C 0.00417 0.69812 -0.30900
 C222 C 0.00529 0.73656 -0.27038
 C223 C 0.00535 0.78066 -0.22419
 C224 C 0.00463 0.81815 -0.18466
 C225 C -0.00455 0.69961 0.30924
 C226 C -0.00562 0.73764 0.27043
 C227 C -0.00561 0.78134 0.22408
 C228 C -0.00481 0.81859 0.18451
   
