data_POSCAR
  _audit_creation_date              2014-09-24
  _audit_creation_method            'ToBaCCo'
  _symmetry_space_group_name_H-M    'P1'
  _symmetry_Int_Tables_number       1
  _symmetry_cell_setting            triclinic
  loop_
  _symmetry_equiv_pos_as_xyz
 x,y,z
_cell_length_a 47.0205
_cell_length_b 47.1951
_cell_length_c 16.4158
_cell_angle_alpha 89.840200
_cell_angle_beta 90.080700
_cell_angle_gamma 120.407000
loop_
  _atom_site_label
  _atom_site_type_symbol
  _atom_site_fract_x
  _atom_site_fract_y
  _atom_site_fract_z
O1 O 0.26418 0.47751 0.56903
 O2 O 0.21212 0.48264 0.40644
 O3 O 0.26683 0.48077 0.41175
 O4 O 0.20531 0.47057 0.56071
 O5 O 0.22957 0.52436 0.57559
 O6 O 0.29311 0.53470 0.42598
 O7 O 0.23872 0.53654 0.42007
 O8 O 0.28829 0.53122 0.58490
 Cu9 Cu 0.23468 0.47261 0.48543
 Cu10 Cu 0.26498 0.53703 0.50335
 C11 C 0.28530 0.50385 0.60448
 C12 C 0.21645 0.51066 0.38608
 C13 C 0.29055 0.50898 0.39377
 C14 C 0.20627 0.49545 0.59237
 O15 O 0.52193 -0.26101 0.42061
 O16 O 0.51315 -0.20984 0.57498
 O17 O 0.52206 -0.26010 0.57618
 O18 O 0.51303 -0.21076 0.41745
 O19 O 0.45899 -0.24370 0.41720
 O20 O 0.46819 -0.29381 0.57699
 O21 O 0.45919 -0.24313 0.57647
 O22 O 0.46800 -0.29422 0.41819
 Cu23 Cu 0.52286 -0.23198 0.49726
 Cu24 Cu 0.45812 -0.27207 0.49735
 C25 C 0.49669 -0.28669 0.39393
 C26 C 0.48484 -0.21745 0.60181
 C27 C 0.49685 -0.28591 0.60232
 C28 C 0.48471 -0.21840 0.39073
 O29 O 1.27707 0.77541 0.42567
 O30 O 1.22004 0.72048 0.58301
 O31 O 1.27669 0.77506 0.58291
 O32 O 1.22070 0.72027 0.42581
 O33 O 1.24683 0.69240 0.42603
 O34 O 1.30330 0.74766 0.58472
 O35 O 1.24642 0.69290 0.58568
 O36 O 1.30349 0.74783 0.42587
 Cu37 Cu 1.24604 0.75057 0.50414
 Cu38 Cu 1.27758 0.71731 0.50559
 C39 C 1.30018 0.77137 0.39950
 C40 C 1.22331 0.69719 0.61121
 C41 C 1.29969 0.77105 0.61011
 C42 C 1.22392 0.69680 0.39961
 O43 O 0.73536 0.53916 0.57781
 O44 O 0.79486 0.54654 0.42111
 O45 O 0.73587 0.53940 0.41929
 O46 O 0.79545 0.54842 0.57660
 O47 O 0.77382 0.49455 0.57893
 O48 O 0.71404 0.48554 0.42105
 O49 O 0.77266 0.49260 0.42165
 O50 O 0.71429 0.48546 0.58054
 Cu51 Cu 0.76730 0.54877 0.49858
 Cu52 Cu 0.74136 0.48411 0.50088
 C53 C 0.71458 0.51100 0.60595
 C54 C 0.79433 0.52081 0.39616
 C55 C 0.71485 0.51109 0.39325
 C56 C 0.79544 0.52309 0.60266
 O57 O 0.47617 0.20970 0.57903
 O58 O 0.46872 0.26155 0.42303
 O59 O 0.47625 0.21043 0.42098
 O60 O 0.46844 0.26068 0.57949
 O61 O 0.52248 0.29363 0.58058
 O62 O 0.53035 0.24291 0.42084
 O63 O 0.52278 0.29430 0.42214
 O64 O 0.53019 0.24240 0.58050
 Cu65 Cu 0.46705 0.23222 0.50055
 Cu66 Cu 0.53191 0.27152 0.50104
 C67 C 0.50435 0.21700 0.60645
 C68 C 0.49431 0.28708 0.39701
 C69 C 0.50449 0.21785 0.39408
 C70 C 0.49396 0.28608 0.60597
 O71 O 0.80660 0.24865 0.57744
 O72 O 0.74890 0.19197 0.42428
 O73 O 0.80556 0.24684 0.42162
 O74 O 0.75011 0.19312 0.58177
 O75 O 0.72335 0.22037 0.58086
 O76 O 0.77929 0.27458 0.41974
 O77 O 0.72258 0.21964 0.42204
 O78 O 0.77986 0.27588 0.57800
 Cu79 Cu 0.78030 0.21727 0.50153
 Cu80 Cu 0.74857 0.25036 0.50016
 C81 C 0.80361 0.27246 0.60258
 C82 C 0.72577 0.19591 0.39740
 C83 C 0.80241 0.27032 0.39466
 C84 C 0.72696 0.19711 0.60777
 O85 O 0.95079 0.42485 0.13871
 O86 O 0.91476 0.43351 0.06314
 C87 C 0.92125 0.41752 0.11732
 O88 O 1.04160 0.57284 0.15144
 O89 O 1.07914 0.56589 0.07807
 C90 C 1.07154 0.58069 0.13275
 O91 O 0.94915 0.52317 0.15064
 O92 O 0.91407 0.48001 0.06901
 C93 C 0.91987 0.50086 0.12706
 O94 O 1.04289 0.46892 0.13482
 O95 O 1.07988 0.51704 0.07106
 C96 C 1.07266 0.49219 0.11843
 Zr97 Zr 0.99725 0.46293 0.09753
 O98 O 0.99941 0.46078 0.22605
 O99 O 0.99613 0.41786 0.08367
 Zr100 Zr 0.99611 0.53394 0.10796
 O101 O 0.99814 0.53175 0.23658
 O102 O 0.99210 0.57654 0.11576
 O103 O 0.96717 0.48295 0.11716
 O104 O 1.02517 0.51280 0.11976
 O105 O 1.04657 0.47700 -0.14542
 O106 O 1.08129 0.52140 -0.06677
 C107 C 1.07576 0.50008 -0.12299
 O108 O 0.95171 0.52908 -0.14345
 O109 O 0.91551 0.48295 -0.07167
 C110 C 0.92208 0.50578 -0.12484
 O111 O 1.04440 0.57870 -0.13318
 O112 O 1.08047 0.56891 -0.06123
 C113 C 1.07398 0.58558 -0.11334
 O114 O 0.95370 0.43058 -0.15557
 O115 O 0.91624 0.43659 -0.07887
 C116 C 0.92376 0.42255 -0.13599
 Zr117 Zr 0.99939 0.46766 -0.10719
 O118 O 1.00362 0.47247 -0.23555
 O119 O 0.99780 0.42209 -0.11312
 Zr120 Zr 0.99804 0.53865 -0.09724
 O121 O 1.00234 0.54357 -0.22552
 O122 O 0.99393 0.58122 -0.08899
 Zr123 Zr 0.94872 0.47552 -0.00266
 Zr124 Zr 1.04695 0.52625 0.00368
 O125 O 1.02734 0.51819 -0.11520
 O126 O 0.96951 0.48834 -0.12018
 O127 O 1.02798 0.47522 -0.00364
 O128 O 0.96836 0.52662 0.00427
 O129 O 0.96963 0.44535 -0.00718
 O130 O 1.02658 0.55707 0.00791
 H131 H 1.03955 0.51915 0.16851
 H132 H 0.95325 0.53550 0.00539
 H133 H 1.04229 0.52670 -0.16285
 H134 H 0.95499 0.42119 -0.00999
 H135 H 1.00960 0.59358 0.08103
 H136 H 1.01318 0.59789 -0.05790
 H137 H 0.98509 0.52259 -0.24920
 H138 H 0.98442 0.47364 -0.25584
 H139 H 1.01287 0.42239 -0.07053
 H140 H 0.99550 0.40949 0.13947
 H141 H 0.98209 0.46460 0.24822
 H142 H 0.97832 0.51128 0.25470
 O143 O 0.42566 0.46717 0.14764
 O144 O 0.42662 0.50798 0.06916
 C145 C 0.41464 0.48646 0.12728
 O146 O 0.57461 0.54211 0.13672
 O147 O 0.57184 0.49871 0.06674
 C148 C 0.58564 0.52264 0.11854
 O149 O 0.51572 0.57343 0.14244
 O150 O 0.46915 0.55827 0.06659
 C151 C 0.49034 0.57588 0.12234
 O152 O 0.47938 0.42990 0.13947
 O153 O 0.52718 0.44613 0.06813
 C154 C 0.50482 0.42739 0.12053
 Zr155 Zr 0.46578 0.46410 0.09970
 O156 O 0.46645 0.46141 0.22833
 O157 O 0.42370 0.41661 0.09153
 Zr158 Zr 0.53147 0.54154 0.09744
 O159 O 0.53476 0.54234 0.22612
 O160 O 0.57149 0.59020 0.08734
 O161 O 0.48060 0.51359 0.11425
 O162 O 0.51626 0.49247 0.11455
 O163 O 0.47881 0.42852 -0.14057
 O164 O 0.52693 0.44550 -0.06983
 C165 C 0.50436 0.42626 -0.12102
 O166 O 0.51547 0.57243 -0.15329
 O167 O 0.46886 0.55748 -0.07790
 C168 C 0.49003 0.57485 -0.13382
 O169 O 0.57453 0.54142 -0.14429
 O170 O 0.57160 0.49817 -0.07251
 C171 C 0.58553 0.52200 -0.12495
 O172 O 0.42460 0.46508 -0.15225
 O173 O 0.42574 0.50662 -0.07727
 C174 C 0.41328 0.48424 -0.13344
 Zr175 Zr 0.46547 0.46326 -0.10462
 O176 O 0.46758 0.46126 -0.23314
 O177 O 0.42246 0.41618 -0.10182
 Zr178 Zr 0.53105 0.54055 -0.10700
 O179 O 0.53243 0.53800 -0.23561
 O180 O 0.57025 0.58992 -0.10890
 Zr181 Zr 0.46785 0.52039 -0.00448
 Zr182 Zr 0.52892 0.48442 -0.00244
 O183 O 0.51592 0.49139 -0.12044
 O184 O 0.48008 0.51257 -0.12262
 O185 O 0.47896 0.44703 -0.00160
 O186 O 0.51802 0.55710 -0.00540
 O187 O 0.44295 0.46875 -0.00270
 O188 O 0.55459 0.53616 -0.00426
 H189 H 0.52529 0.48728 0.16320
 H190 H 0.52409 0.58050 -0.00610
 H191 H 0.52495 0.48572 -0.16812
 H192 H 0.41851 0.45648 -0.00221
 H193 H 0.57834 0.59813 0.14381
 H194 H 0.58595 0.59214 -0.06569
 H195 H 0.51091 0.53377 -0.25675
 H196 H 0.46768 0.48082 -0.25526
 H197 H 0.42605 0.40302 -0.06042
 H198 H 0.41707 0.40898 0.14834
 H199 H 0.47007 0.48256 0.24960
 H200 H 0.51248 0.53510 0.24775
 O201 O 0.52583 -0.04208 0.14657
 O202 O 0.48202 -0.08010 0.07088
 C203 C 0.50444 -0.07204 0.12650
 O204 O 0.46370 0.04362 0.14124
 O205 O 0.50918 0.08197 0.07063
 C206 C 0.48543 0.07371 0.12251
 O207 O 0.42417 -0.04754 0.14955
 O208 O 0.43356 -0.08272 0.07339
 C209 C 0.41803 -0.07673 0.12996
 O210 O 0.57128 0.04952 0.13885
 O211 O 0.55995 0.08481 0.06854
 C212 C 0.57727 0.07876 0.11987
 Zr213 Zr 0.53287 0.00293 0.10129
 O214 O 0.53536 0.00606 0.23001
 O215 O 0.57818 0.00381 0.09360
 Zr216 Zr 0.45922 -0.00104 0.10233
 O217 O 0.45970 0.00199 0.23101
 O218 O 0.41236 -0.00523 0.09465
 O219 O 0.48242 -0.02841 0.11779
 O220 O 0.50941 0.02950 0.11730
 O221 O 0.57131 0.05004 -0.13900
 O222 O 0.55978 0.08502 -0.06854
 C223 C 0.57723 0.07918 -0.11965
 O224 O 0.42296 -0.04715 -0.14693
 O225 O 0.43231 -0.08253 -0.07072
 C226 C 0.41668 -0.07637 -0.12673
 O227 O 0.46296 0.04409 -0.13917
 O228 O 0.50883 0.08218 -0.06943
 C229 C 0.48488 0.07411 -0.12072
 O230 O 0.52561 -0.04144 -0.14977
 O231 O 0.48163 -0.07981 -0.07498
 C232 C 0.50403 -0.07155 -0.13083
 Zr233 Zr 0.53251 0.00328 -0.10325
 O234 O 0.53333 0.00740 -0.23184
 O235 O 0.57719 0.00268 -0.10535
 Zr236 Zr 0.45891 -0.00070 -0.10204
 O237 O 0.46113 0.00312 -0.23073
 O238 O 0.41139 -0.00614 -0.10200
 Zr239 Zr 0.47288 -0.04833 -0.00075
 Zr240 Zr 0.51885 0.05038 0.00003
 O241 O 0.50908 0.03000 -0.11765
 O242 O 0.48196 -0.02810 -0.11916
 O243 O 0.55206 0.03281 -0.00076
 O244 O 0.44032 -0.03003 0.00027
 O245 O 0.52461 -0.02545 -0.00124
 O246 O 0.46713 0.02833 0.00051
 H247 H 0.51635 0.04402 0.16563
 H248 H 0.41623 -0.04570 0.00102
 H249 H 0.51603 0.04493 -0.16538
 H250 H 0.53492 -0.03929 -0.00182
 H251 H 0.40509 -0.00566 0.15150
 H252 H 0.41107 0.00799 -0.05801
 H253 H 0.46288 -0.01552 -0.25208
 H254 H 0.51335 -0.01214 -0.25309
 H255 H 0.59081 0.01653 -0.05961
 H256 H 0.58554 0.00426 0.15044
 H257 H 0.51470 -0.01259 0.25162
 H258 H 0.46586 -0.01379 0.25232
 C259 C 1.14661 0.48631 0.25031
 C260 C 1.15117 0.51694 0.22629
 N261 N 1.17817 0.54485 0.25240
 C262 C 1.20055 0.54360 0.30260
 C263 C 1.19575 0.51290 0.32835
 N264 N 1.16895 0.48500 0.30028
 N265 N 1.11904 0.45838 0.22681
 C266 C 1.09548 0.45966 0.18163
 C267 C 1.09962 0.49028 0.15865
 N268 N 1.12768 0.51826 0.18086
 H269 H 1.22152 0.56640 0.32323
 H270 H 1.07345 0.43698 0.16495
 C271 C 0.47741 0.64466 0.25806
 C272 C 0.50895 0.64938 0.24398
 N273 N 0.53573 0.67601 0.27570
 C274 C 0.53247 0.69799 0.32210
 C275 C 0.50077 0.69271 0.33983
 N276 N 0.47396 0.66608 0.30654
 N277 N 0.45076 0.61845 0.22394
 C278 C 0.45422 0.59653 0.17736
 C279 C 0.48568 0.60045 0.16621
 N280 N 0.51231 0.62701 0.19967
 H281 H 0.55445 0.71876 0.34705
 H282 H 0.43258 0.57583 0.15120
 C283 C 0.34448 -0.15350 0.27286
 C284 C 0.36948 -0.15716 0.23677
 N285 N 0.37094 -0.18469 0.25268
 C286 C 0.34870 -0.20854 0.30346
 C287 C 0.32377 -0.20475 0.34009
 N288 N 0.32234 -0.17724 0.32317
 N289 N 0.34329 -0.12579 0.25922
 C290 C 0.36622 -0.10126 0.21182
 C291 C 0.39160 -0.10448 0.17594
 N292 N 0.39246 -0.13263 0.18882
 H293 H 0.35070 -0.23002 0.31571
 H294 H 0.36476 -0.07930 0.20276
 C295 C 0.83999 0.49764 0.25307
 C296 C 0.87103 0.52641 0.25141
 N297 N 0.87571 0.55341 0.29223
 C298 C 0.85085 0.55279 0.33586
 C299 C 0.82009 0.52359 0.34047
 N300 N 0.81541 0.49670 0.29846
 N301 N 0.83516 0.47089 0.21072
 C302 C 0.86014 0.47147 0.16763
 C303 C 0.89165 0.49980 0.16863
 N304 N 0.89618 0.52671 0.21025
 H305 H 0.85548 0.57447 0.36921
 H306 H 0.85559 0.44985 0.13437
 C307 C 0.51497 0.35628 0.25433
 C308 C 0.48404 0.35357 0.24397
 N309 N 0.45707 0.32845 0.27990
 C310 C 0.45959 0.30607 0.32678
 C311 C 0.49066 0.30920 0.33974
 N312 N 0.51767 0.33429 0.30266
 N313 N 0.54184 0.38133 0.21747
 C314 C 0.53925 0.40400 0.17150
 C315 C 0.50844 0.40190 0.16328
 N316 N 0.48158 0.37653 0.19969
 H317 H 0.43765 0.28658 0.35554
 H318 H 0.56115 0.42397 0.14381
 C319 C 0.65525 0.15496 0.25344
 C320 C 0.65341 0.12464 0.24185
 N321 N 0.67604 0.11886 0.27738
 C322 C 0.70029 0.14189 0.32514
 C323 C 0.70169 0.17195 0.33940
 N324 N 0.67911 0.17781 0.30260
 N325 N 0.63258 0.16062 0.21716
 C326 C 0.60787 0.13713 0.17075
 C327 C 0.60535 0.10631 0.16156
 N328 N 0.62843 0.10104 0.19720
 H329 H 0.71770 0.13634 0.35354
 H330 H 0.58980 0.14207 0.14375
 C331 C 0.47942 0.14613 -0.26184
 C332 C 0.50972 0.15238 -0.22966
 N333 N 0.53771 0.18061 -0.25029
 C334 C 0.53685 0.20269 -0.30239
 C335 C 0.50651 0.19623 -0.33592
 N336 N 0.47854 0.16808 -0.31372
 N337 N 0.45149 0.11759 -0.24344
 C338 C 0.45249 0.09465 -0.19535
 C339 C 0.48283 0.10042 -0.16403
 N340 N 0.51079 0.12943 -0.18140
 H341 H 0.55967 0.22477 -0.31819
 H342 H 0.42986 0.07186 -0.18287
 C343 C 0.66558 0.53291 -0.26560
 C344 C 0.64297 0.50242 -0.23112
 N345 N 0.64519 0.47557 -0.24911
 C346 C 0.66877 0.47768 -0.30085
 C347 C 0.69135 0.50817 -0.33649
 N348 N 0.68925 0.53511 -0.31692
 N349 N 0.66264 0.55954 -0.25009
 C350 C 0.63777 0.55698 -0.20260
 C351 C 0.61480 0.52639 -0.16870
 N352 N 0.61821 0.49986 -0.18332
 H353 H 0.66956 0.45566 -0.31450
 H354 H 0.63567 0.57851 -0.19239
 C355 C 0.84695 0.34500 -0.26915
 C356 C 0.87647 0.34538 -0.25331
 N357 N 0.88045 0.32060 -0.28137
 C358 C 0.85645 0.29565 -0.32576
 C359 C 0.82728 0.29583 -0.34495
 N360 N 0.82330 0.32058 -0.31535
 N361 N 0.84263 0.36933 -0.23913
 C362 C 0.86665 0.39420 -0.19452
 C363 C 0.89670 0.39528 -0.18091
 N364 N 0.90079 0.37066 -0.21061
 H365 H 0.86068 0.27652 -0.34802
 H366 H 0.86263 0.41332 -0.17161
 C367 C 0.50902 -0.14359 -0.27260
 C368 C 0.47905 -0.15054 -0.23686
 N369 N 0.45139 -0.17982 -0.25264
 C370 C 0.45233 -0.20230 -0.30296
 C371 C 0.48237 -0.19519 -0.33927
 N372 N 0.50994 -0.16594 -0.32247
 N373 N 0.53658 -0.11419 -0.25902
 C374 C 0.53558 -0.09110 -0.21202
 C375 C 0.50563 -0.09761 -0.17653
 N376 N 0.47798 -0.12745 -0.18933
 H377 H 0.42987 -0.22524 -0.31513
 H378 H 0.55799 -0.06775 -0.20295
 C379 C 0.33568 0.47747 -0.27876
 C380 C 0.35413 0.50470 -0.22804
 N381 N 0.34860 0.53025 -0.23007
 C382 C 0.32579 0.53007 -0.28138
 C383 C 0.30758 0.50308 -0.33334
 N384 N 0.31284 0.47724 -0.33008
 N385 N 0.34191 0.45237 -0.27843
 C386 C 0.36607 0.45343 -0.23054
 C387 C 0.38498 0.48090 -0.18051
 N388 N 0.37822 0.50576 -0.18012
 H389 H 0.32230 0.55104 -0.28249
 H390 H 0.37072 0.43320 -0.23240
 C391 C 1.15080 0.65808 -0.25780
 C392 C 1.15366 0.63252 -0.22260
 N393 N 1.18001 0.62932 -0.24144
 C394 C 1.20355 0.65035 -0.29453
 C395 C 1.20069 0.67594 -0.33068
 N396 N 1.17433 0.67917 -0.31041
 N397 N 1.12386 0.66058 -0.24149
 C398 C 1.09933 0.63837 -0.19248
 C399 C 1.10187 0.61248 -0.15767
 N400 N 1.12925 0.61041 -0.17325
 H401 H 1.22405 0.64687 -0.30873
 H402 H 1.07781 0.64057 -0.18191
 C403 C 0.84188 0.50230 -0.25048
 C404 C 0.87337 0.53051 -0.25402
 N405 N 0.87813 0.55657 -0.29969
 C406 C 0.85294 0.55549 -0.34308
 C407 C 0.82174 0.52672 -0.34238
 N408 N 0.81699 0.50083 -0.29562
 N409 N 0.83684 0.47658 -0.20320
 C410 C 0.86201 0.47752 -0.16027
 C411 C 0.89398 0.50508 -0.16660
 N412 N 0.89877 0.53113 -0.21293
 H413 H 0.85758 0.57636 -0.38036
 H414 H 0.85710 0.45673 -0.12246
 C415 C 0.51449 0.35486 -0.25154
 C416 C 0.48349 0.35186 -0.24052
 N417 N 0.45646 0.32654 -0.27550
 C418 C 0.45904 0.30424 -0.32223
 C419 C 0.49020 0.30775 -0.33609
 N420 N 0.51724 0.33300 -0.29979
 N421 N 0.54144 0.38016 -0.21581
 C422 C 0.53884 0.40287 -0.17048
 C423 C 0.50795 0.40054 -0.16189
 N424 N 0.48101 0.37488 -0.19698
 H425 H 0.43706 0.28460 -0.35037
 H426 H 0.56080 0.42310 -0.14386
 C427 C 0.65587 0.15599 -0.25025
 C428 C 0.65456 0.12600 -0.23643
 N429 N 0.67792 0.12071 -0.26909
 C430 C 0.70235 0.14386 -0.31635
 C431 C 0.70313 0.17350 -0.33320
 N432 N 0.67987 0.17892 -0.29906
 N433 N 0.63244 0.16116 -0.21685
 C434 C 0.60748 0.13746 -0.17128
 C435 C 0.60548 0.10694 -0.16018
 N436 N 0.62932 0.10218 -0.19279
 H437 H 0.72030 0.13865 -0.34267
 H438 H 0.58881 0.14198 -0.14659
 C439 C 1.15730 0.51168 -0.25797
 C440 C 1.12718 0.48175 -0.25887
 N441 N 1.12396 0.45668 -0.30567
 C442 C 1.14940 0.46024 -0.35226
 C443 C 1.17934 0.49046 -0.35323
 N444 N 1.18256 0.51549 -0.30570
 N445 N 1.16062 0.53660 -0.21036
 C446 C 1.13508 0.53309 -0.16418
 C447 C 1.10456 0.50344 -0.16671
 N448 N 1.10145 0.47843 -0.21408
 H449 H 1.14596 0.43989 -0.38967
 H450 H 1.13836 0.55358 -0.12763
 C451 C 0.47722 0.64418 -0.26668
 C452 C 0.50885 0.64958 -0.24961
 N453 N 0.53576 0.67720 -0.27729
 C454 C 0.53255 0.69950 -0.32274
 C455 C 0.50086 0.69354 -0.34342
 N456 N 0.47392 0.66600 -0.31396
 N457 N 0.45035 0.61683 -0.23722
 C458 C 0.45370 0.59444 -0.19218
 C459 C 0.48534 0.59926 -0.17771
 N460 N 0.51216 0.62687 -0.20663
 H461 H 0.55462 0.72105 -0.34474
 H462 H 0.43191 0.57273 -0.16984
 C463 C 0.34314 -0.15368 -0.26598
 C464 C 0.36811 -0.15711 -0.22868
 N465 N 0.36973 -0.18464 -0.24256
 C466 C 0.34766 -0.20874 -0.29272
 C467 C 0.32283 -0.20510 -0.33067
 N468 N 0.32120 -0.17765 -0.31564
 N469 N 0.34189 -0.12591 -0.25450
 C470 C 0.36481 -0.10107 -0.20810
 C471 C 0.39014 -0.10412 -0.17124
 N472 N 0.39102 -0.13231 -0.18186
 H473 H 0.34975 -0.23022 -0.30359
 H474 H 0.36341 -0.07902 -0.20070
 C475 C 0.50933 -0.14484 0.26440
 C476 C 0.47934 -0.15141 0.22940
 N477 N 0.45152 -0.18056 0.24526
 C478 C 0.45233 -0.20325 0.29527
 C479 C 0.48236 -0.19641 0.33105
 N480 N 0.51009 -0.16738 0.31395
 N481 N 0.53702 -0.11553 0.25103
 C482 C 0.53612 -0.09211 0.20499
 C483 C 0.50613 -0.09826 0.17054
 N484 N 0.47838 -0.12801 0.18292
 H485 H 0.42975 -0.22606 0.30788
 H486 H 0.55858 -0.06878 0.19603
 C487 C 0.33947 0.48304 0.27330
 C488 C 0.36223 0.51221 0.23385
 N489 N 0.36123 0.54012 0.24693
 C490 C 0.33845 0.54016 0.29802
 C491 C 0.31549 0.51085 0.33702
 N492 N 0.31662 0.48303 0.32322
 N493 N 0.34108 0.45539 0.26285
 C494 C 0.36471 0.45560 0.21497
 C495 C 0.38751 0.48470 0.17507
 N496 N 0.38557 0.51232 0.18518
 H497 H 0.33820 0.56271 0.30779
 H498 H 0.36572 0.43331 0.20826
 C499 C 1.14773 0.65331 0.27697
 C500 C 1.15209 0.62970 0.23615
 N501 N 1.18027 0.62886 0.24774
 C502 C 1.20423 0.65045 0.29892
 C503 C 1.19983 0.67405 0.34015
 N504 N 1.17166 0.67490 0.32753
 N505 N 1.11919 0.65356 0.26768
 C506 C 1.09452 0.63097 0.21997
 C507 C 1.09864 0.60711 0.17931
 N508 N 1.12754 0.60725 0.18803
 H509 H 1.22629 0.64904 0.30772
 H510 H 1.07184 0.63147 0.21440
 C511 C 0.47977 0.14548 0.26268
 C512 C 0.50990 0.15228 0.22820
 N513 N 0.53772 0.18109 0.24609
 C514 C 0.53683 0.20322 0.29765
 C515 C 0.50671 0.19615 0.33323
 N516 N 0.47891 0.16746 0.31403
 N517 N 0.45205 0.11644 0.24699
 C518 C 0.45309 0.09351 0.19941
 C519 C 0.48327 0.09982 0.16588
 N520 N 0.51101 0.12933 0.18048
 H521 H 0.55944 0.22578 0.31162
 H522 H 0.43063 0.07034 0.18900
 C523 C 0.66463 0.53300 0.26256
 C524 C 0.64306 0.50296 0.22483
 N525 N 0.64597 0.47627 0.24068
 C526 C 0.66927 0.47819 0.29331
 C527 C 0.69066 0.50818 0.33195
 N528 N 0.68787 0.53492 0.31486
 N529 N 0.66115 0.55944 0.24895
 C530 C 0.63667 0.55712 0.20026
 C531 C 0.61466 0.52696 0.16330
 N532 N 0.61862 0.50062 0.17598
 H533 H 0.67081 0.45646 0.30552
 H534 H 0.63411 0.57846 0.19159
 C535 C 0.84396 0.33864 0.24616
 C536 C 0.87561 0.34261 0.24322
 N537 N 0.88199 0.32164 0.28503
 C538 C 0.85827 0.29712 0.33098
 C539 C 0.82692 0.29388 0.33704
 N540 N 0.82046 0.31470 0.29390
 N541 N 0.83754 0.35933 0.20286
 C542 C 0.86155 0.38422 0.15796
 C543 C 0.89368 0.38918 0.15816
 N544 N 0.89972 0.36793 0.20037
 H545 H 0.86428 0.28114 0.36491
 H546 H 0.85579 0.40035 0.12417
   
