data_POSCAR
  _audit_creation_date              2014-09-24
  _audit_creation_method            'ToBaCCo'
  _symmetry_space_group_name_H-M    'P1'
  _symmetry_Int_Tables_number       1
  _symmetry_cell_setting            triclinic
  loop_
  _symmetry_equiv_pos_as_xyz
 x,y,z
_cell_length_a 26.9815
_cell_length_b 27.1152
_cell_length_c 27.0368
_cell_angle_alpha 89.959400
_cell_angle_beta 90.070800
_cell_angle_gamma 90.113500
loop_
  _atom_site_label
  _atom_site_type_symbol
  _atom_site_fract_x
  _atom_site_fract_y
  _atom_site_fract_z
C1 C 0.52467 1.00056 -0.50050
 C2 C 0.47463 1.00065 -0.50009
 C3 C 0.44491 1.00424 -0.54588
 C4 C 0.44613 0.99719 -0.45366
 C5 C 0.55414 1.00258 -0.45453
 C6 C 0.55345 0.99868 -0.54682
 C7 C 0.41342 1.04454 -0.55205
 C8 C 0.38056 1.04650 -0.59172
 C9 C 0.37731 1.00751 -0.62657
 C10 C 0.41132 0.96789 -0.62074
 C11 C 0.44432 0.96628 -0.58081
 C12 C 0.44343 1.03707 -0.42084
 C13 C 0.41077 1.03537 -0.38071
 C14 C 0.38047 0.99373 -0.37300
 C15 C 0.38514 0.95311 -0.40491
 C16 C 0.41739 0.95502 -0.44506
 C17 C 0.55727 0.96181 -0.42279
 C18 C 0.59052 0.96238 -0.38302
 C19 C 0.62103 1.00373 -0.37465
 C20 C 0.61606 1.04516 -0.40551
 C21 C 0.58319 1.04441 -0.44526
 C22 C 0.58231 0.95693 -0.55643
 C23 C 0.61493 0.95643 -0.59629
 C24 C 0.61988 0.99805 -0.62691
 C25 C 0.58945 1.03928 -0.61828
 C26 C 0.55642 1.03958 -0.57841
 H27 H 0.41400 1.07458 -0.52564
 H28 H 0.35901 1.07985 -0.59506
 H29 H 0.41074 0.93582 -0.64435
 H30 H 0.46796 0.93439 -0.57602
 H31 H 0.46503 1.07012 -0.42748
 H32 H 0.40768 1.06741 -0.35704
 H33 H 0.41916 0.92398 -0.47020
 H34 H 0.53544 0.92902 -0.42995
 H35 H 0.59382 0.92976 -0.36014
 H36 H 0.63825 1.07792 -0.39942
 H37 H 0.58109 1.07615 -0.46953
 H38 H 0.58035 0.92509 -0.53227
 H39 H 0.63703 0.92375 -0.60260
 H40 H 0.59272 1.07203 -0.64098
 H41 H 0.53472 1.07231 -0.57098
 H42 H 0.36313 0.92014 -0.39938
 C43 C -0.47463 1.50056 -0.00033
 C44 C -0.52474 1.49970 -0.00155
 C45 C -0.55292 1.45293 -0.00122
 C46 C -0.55481 1.54520 -0.00290
 C47 C -0.44600 1.54696 0.00387
 C48 C -0.44489 1.45492 -0.00353
 C49 C -0.55626 1.42344 -0.04367
 C50 C -0.58797 1.38252 -0.04434
 C51 C -0.61632 1.37041 -0.00239
 C52 C -0.61154 1.39928 0.04048
 C53 C -0.58040 1.44039 0.04089
 C54 C -0.58498 1.55414 -0.04412
 C55 C -0.61807 1.59354 -0.04424
 C56 C -0.62221 1.62447 -0.00275
 C57 C -0.59072 1.61635 0.03803
 C58 C -0.55726 1.57693 0.03795
 C59 C -0.41524 1.55379 0.04493
 C60 C -0.38292 1.59386 0.04723
 C61 C -0.37969 1.62815 0.00792
 C62 C -0.41269 1.62193 -0.03244
 C63 C -0.44525 1.58169 -0.03444
 C64 C -0.44257 1.42160 0.03608
 C65 C -0.40922 1.38213 0.03475
 C66 C -0.37776 1.37548 -0.00624
 C67 C -0.38183 1.40802 -0.04656
 C68 C -0.41478 1.44752 -0.04501
 H69 H -0.53556 1.43305 -0.07661
 H70 H -0.59084 1.36068 -0.07774
 H71 H -0.63340 1.39118 0.07307
 H72 H -0.57849 1.46315 0.07375
 H73 H -0.58348 1.52996 -0.07597
 H74 H -0.64095 1.59939 -0.07664
 H75 H -0.53463 1.57008 0.07035
 H76 H -0.41575 1.52748 0.07511
 H77 H -0.36109 1.59781 0.08054
 H78 H -0.41158 1.64593 -0.06434
 H79 H -0.46831 1.57647 -0.06685
 H80 H -0.46514 1.42728 0.06867
 H81 H -0.40667 1.35805 0.06660
 H82 H -0.35897 1.40338 -0.07910
 H83 H -0.41617 1.47303 -0.07584
 H84 H -0.59332 1.63923 0.07072
 C85 C -0.00295 0.49868 0.52627
 C86 C -0.00126 0.50007 0.47618
 C87 C -0.00287 0.45460 0.44575
 C88 C 0.00086 0.54698 0.44809
 C89 C -0.00410 0.54392 0.55704
 C90 C -0.00300 0.45147 0.55375
 C91 C 0.03690 0.42153 0.44492
 C92 C 0.03754 0.38249 0.41100
 C93 C -0.00154 0.37579 0.37654
 C94 C -0.04218 0.40856 0.37944
 C95 C -0.04256 0.44741 0.41323
 C96 C 0.04143 0.55586 0.41701
 C97 C 0.04127 0.59586 0.38454
 C98 C 0.00010 0.62749 0.38183
 C99 C -0.03981 0.61960 0.41446
 C100 C -0.03943 0.57961 0.44734
 C101 C -0.04378 0.55136 0.58941
 C102 C -0.04325 0.59039 0.62297
 C103 C -0.00250 0.62318 0.62578
 C104 C 0.03656 0.61630 0.59147
 C105 C 0.03577 0.57705 0.55776
 C106 C -0.04717 0.42573 0.56219
 C107 C -0.04797 0.38533 0.59446
 C108 C -0.00430 0.36927 0.61862
 C109 C 0.04034 0.39446 0.60775
 C110 C 0.04072 0.43534 0.57630
 H111 H 0.06846 0.42720 0.46906
 H112 H 0.07042 0.35983 0.41020
 H113 H -0.07459 0.40421 0.35632
 H114 H -0.07375 0.47251 0.41355
 H115 H 0.07278 0.53096 0.41705
 H116 H 0.07309 0.60147 0.36083
 H117 H -0.07141 0.57282 0.47055
 H118 H -0.07527 0.52652 0.58902
 H119 H -0.07569 0.59492 0.64591
 H120 H 0.06947 0.63905 0.59217
 H121 H 0.06721 0.57141 0.53356
 H122 H -0.08130 0.43788 0.54497
 H123 H -0.08292 0.36644 0.59963
 H124 H 0.07477 0.38519 0.62599
 H125 H 0.07501 0.45541 0.57066
 H126 H -0.07227 0.64295 0.41305
 O127 O -0.12666 1.00217 -0.06680
 O128 O 0.12790 0.99692 -0.06582
 O129 O -0.00017 1.06524 -0.12799
 O130 O 0.00225 0.93216 -0.12613
 O131 O 0.00153 0.87257 -0.06526
 O132 O -0.00091 1.12649 -0.06879
 O133 O 0.06791 0.99701 -0.12653
 O134 O -0.06640 1.00053 -0.12707
 Zr135 Zr 0.00068 0.99925 -0.08669
 O136 O 0.04501 0.95459 -0.04388
 O137 O -0.04388 1.04500 -0.04541
 C138 C -0.11224 1.00193 -0.11254
 C139 C 0.11368 0.99604 -0.11165
 C140 C -0.00131 1.11112 -0.11434
 C141 C 0.00277 0.88662 -0.11125
 H142 H 0.06695 1.06475 -0.06621
 O143 O 0.04558 1.04415 -0.04485
 H144 H -0.06576 0.93431 -0.06494
 O145 O -0.04449 0.95547 -0.04400
 O146 O 0.12764 1.00182 0.06715
 O147 O -0.12699 1.00045 0.06636
 O148 O 0.06899 1.12692 -0.00034
 O149 O 0.06650 0.87292 0.00105
 O150 O -0.06804 0.87401 0.00308
 O151 O -0.06567 1.12783 -0.00280
 O152 O 0.00277 1.06852 0.12666
 O153 O -0.00222 0.93542 0.12850
 O154 O 0.00355 1.12818 0.06586
 O155 O -0.00320 0.87438 0.06916
 O156 O 0.12834 1.06586 0.00165
 O157 O -0.12624 1.06775 -0.00288
 O158 O -0.12753 0.93488 0.00228
 O159 O 0.12712 0.93292 -0.00017
 O160 O 0.06746 1.00305 0.12749
 O161 O -0.06699 1.00121 0.12708
 Zr162 Zr 0.08723 0.99971 0.00055
 Zr163 Zr -0.08635 1.00102 -0.00008
 Zr164 Zr 0.00126 1.08747 -0.00093
 Zr165 Zr -0.00038 0.91339 0.00142
 Zr166 Zr 0.00030 1.00149 0.08721
 O167 O -0.04493 0.95645 0.04558
 O168 O 0.04565 1.04550 0.04466
 C169 C 0.11332 1.00325 0.11289
 C170 C -0.11279 1.00045 0.11221
 C171 C 0.11463 1.11171 0.00114
 C172 C 0.11246 0.88730 0.00002
 C173 C -0.11374 0.88906 0.00355
 C174 C -0.11161 1.11337 -0.00378
 C175 C 0.00416 1.11406 0.11185
 C176 C -0.00384 0.88955 0.11476
 H177 H -0.06482 1.06736 0.06494
 O178 O -0.04382 1.04593 0.04415
 H179 H 0.06545 0.93504 0.06721
 O180 O 0.04456 0.95595 0.04569
 C181 C 0.26709 1.00642 0.26229
 C182 C 0.26230 1.03660 0.30392
 C183 C 0.29889 1.03736 0.34036
 C184 C 0.34207 1.00769 0.33673
 C185 C 0.34633 0.97763 0.29400
 C186 C 0.30956 0.97718 0.25754
 C187 C 0.22769 1.00548 0.22405
 C188 C 0.24000 1.00529 0.17363
 C189 C 0.20289 1.00480 0.13763
 C190 C 0.15255 1.00436 0.15124
 C191 C 0.14028 1.00457 0.20175
 C192 C 0.17745 1.00512 0.23774
 H193 H 0.29088 1.05954 0.37250
 H194 H 0.37880 0.95558 0.28676
 H195 H 0.21377 1.00483 0.09909
 H196 H 0.10195 1.00408 0.21359
 H197 H 0.31425 0.95349 0.22566
 H198 H 0.27838 1.00621 0.16201
 H199 H 0.22998 1.05978 0.30847
 H200 H 0.16688 1.00465 0.27636
 C201 C -0.26666 1.00094 0.26117
 C202 C -0.25762 0.97949 0.30758
 C203 C -0.29445 0.97872 0.34369
 C204 C -0.34138 0.99910 0.33421
 C205 C -0.35050 1.02072 0.28786
 C206 C -0.31351 1.02159 0.25167
 C207 C -0.22731 1.00140 0.22289
 C208 C -0.23896 0.99228 0.17309
 C209 C -0.20178 0.99188 0.13722
 C210 C -0.15205 1.00046 0.15038
 C211 C -0.14040 1.00959 0.20021
 C212 C -0.17763 1.01019 0.23602
 H213 H -0.28593 0.96256 0.37932
 H214 H -0.38636 1.03649 0.27940
 H215 H -0.21204 0.98443 0.09921
 H216 H -0.10256 1.01676 0.21156
 H217 H -0.32141 1.03887 0.21643
 H218 H -0.27676 0.98463 0.16193
 H219 H -0.22216 0.96276 0.31587
 H220 H -0.16757 1.01807 0.27399
 C221 C -0.26567 1.00185 -0.26231
 C222 C -0.25650 1.02298 -0.30883
 C223 C -0.29328 1.02344 -0.34509
 C224 C -0.34027 1.00305 -0.33565
 C225 C -0.34952 0.98178 -0.28916
 C226 C -0.31259 0.98122 -0.25283
 C227 C -0.22639 1.00161 -0.22388
 C228 C -0.23808 1.01105 -0.17418
 C229 C -0.20100 1.01135 -0.13812
 C230 C -0.15133 1.00234 -0.15097
 C231 C -0.13963 0.99301 -0.20071
 C232 C -0.17676 0.99253 -0.23673
 H233 H -0.28468 1.03936 -0.38081
 H234 H -0.38544 0.96603 -0.28073
 H235 H -0.21130 1.01898 -0.10019
 H236 H -0.10183 0.98553 -0.21183
 H237 H -0.32059 0.96419 -0.21749
 H238 H -0.27583 1.01895 -0.16325
 H239 H -0.22097 1.03967 -0.31710
 H240 H -0.16668 0.98443 -0.27461
 C241 C 0.26760 0.99404 -0.26048
 C242 C 0.25834 0.97331 -0.30716
 C243 C 0.29505 0.97319 -0.34341
 C244 C 0.34206 0.99350 -0.33379
 C245 C 0.35147 1.01414 -0.28706
 C246 C 0.31460 1.01439 -0.25075
 C247 C 0.22818 0.99450 -0.22229
 C248 C 0.23960 0.98505 -0.17248
 C249 C 0.20240 0.98528 -0.13663
 C250 C 0.15289 0.99484 -0.14982
 C251 C 0.14145 1.00409 -0.19968
 C252 C 0.17869 1.00406 -0.23547
 H253 H 0.28630 0.95775 -0.37930
 H254 H 0.38741 1.02979 -0.27847
 H255 H 0.21245 0.97768 -0.09859
 H256 H 0.10379 1.01202 -0.21103
 H257 H 0.32268 1.03111 -0.21528
 H258 H 0.27723 0.97680 -0.16129
 H259 H 0.22275 0.95682 -0.31563
 H260 H 0.16882 1.01224 -0.27342
 C261 C 0.27199 1.25701 -0.00282
 C262 C 0.27680 1.28927 -0.04323
 C263 C 0.31416 1.32507 -0.04382
 C264 C 0.34707 1.32963 -0.00378
 C265 C 0.34272 1.29688 0.03628
 C266 C 0.30571 1.26077 0.03664
 C267 C 0.23153 1.21997 -0.00147
 C268 C 0.24117 1.17135 0.01354
 C269 C 0.20313 1.13636 0.01465
 C270 C 0.15448 1.14933 0.00121
 C271 C 0.14474 1.19818 -0.01322
 C272 C 0.18295 1.23306 -0.01480
 H273 H 0.31639 1.35017 -0.07492
 H274 H 0.36778 1.29949 0.06750
 H275 H 0.21189 1.09909 0.02612
 H276 H 0.10772 1.20932 -0.02393
 H277 H 0.30267 1.23655 0.06837
 H278 H 0.27833 1.16021 0.02372
 H279 H 0.25161 1.28681 -0.07434
 H280 H 0.17442 1.27047 -0.02597
 C281 C 0.26501 0.73704 0.00024
 C282 C 0.25540 0.69065 -0.02082
 C283 C 0.29194 0.65432 -0.02154
 C284 C 0.33919 0.66348 -0.00151
 C285 C 0.34886 0.70980 0.01973
 C286 C 0.31217 0.74620 0.02059
 C287 C 0.22597 0.77564 0.00063
 C288 C 0.23807 0.82526 -0.00840
 C289 C 0.20124 0.86142 -0.00869
 C290 C 0.15138 0.84880 -0.00012
 C291 C 0.13928 0.79916 0.00886
 C292 C 0.17615 0.76305 0.00937
 H293 H 0.28295 0.61876 -0.03743
 H294 H 0.38495 0.71811 0.03520
 H295 H 0.21189 0.89925 -0.01604
 H296 H 0.10134 0.78818 0.01599
 H297 H 0.32058 0.78137 0.03760
 H298 H 0.27594 0.83608 -0.01604
 H299 H 0.21973 0.68254 -0.03732
 H300 H 0.16568 0.72528 0.01720
 C301 C -0.26861 0.74058 0.00730
 C302 C -0.31244 0.74648 -0.02007
 C303 C -0.34916 0.70996 -0.01968
 C304 C -0.34328 0.66630 0.00836
 C305 C -0.29908 0.66122 0.03613
 C306 C -0.26255 0.69769 0.03556
 C307 C -0.22901 0.77871 0.00618
 C308 C -0.17886 0.76490 0.00411
 C309 C -0.14148 0.80062 0.00347
 C310 C -0.15335 0.85107 0.00478
 C311 C -0.20358 0.86485 0.00684
 C312 C -0.24095 0.82909 0.00749
 H313 H -0.38263 0.71717 -0.04043
 H314 H -0.29091 0.62812 0.05684
 H315 H -0.10327 0.78860 0.00166
 H316 H -0.21416 0.90333 0.00808
 H317 H -0.22933 0.69219 0.05738
 H318 H -0.16848 0.72639 0.00235
 H319 H -0.31815 0.77917 -0.04237
 H320 H -0.27920 0.84087 0.00974
 C321 C -0.26477 1.26302 -0.00573
 C322 C -0.25531 1.30986 -0.02590
 C323 C -0.29196 1.34610 -0.02599
 C324 C -0.33919 1.33640 -0.00624
 C325 C -0.34876 1.28954 0.01389
 C326 C -0.31195 1.25326 0.01416
 C327 C -0.22546 1.22467 -0.00544
 C328 C -0.23721 1.17503 -0.01478
 C329 C -0.20025 1.13901 -0.01449
 C330 C -0.15057 1.15180 -0.00505
 C331 C -0.13875 1.20149 0.00395
 C332 C -0.17578 1.23746 0.00392
 H333 H -0.28301 1.38204 -0.04103
 H334 H -0.38483 1.28077 0.02907
 H335 H -0.21064 1.10114 -0.02195
 H336 H -0.10096 1.21259 0.01172
 H337 H -0.32027 1.21774 0.03050
 H338 H -0.27494 1.16405 -0.02294
 H339 H -0.21962 1.31845 -0.04205
 H340 H -0.16555 1.27523 0.01200
 C341 C 0.00463 1.26486 0.26428
 C342 C 0.03162 1.25949 0.30838
 C343 C 0.02967 1.29564 0.34528
 C344 C 0.00037 1.33846 0.33940
 C345 C -0.02655 1.34332 0.29469
 C346 C -0.02442 1.30720 0.25795
 C347 C 0.00614 1.22628 0.22517
 C348 C 0.00724 1.23936 0.17481
 C349 C 0.00701 1.20308 0.13803
 C350 C 0.00569 1.15278 0.15071
 C351 C 0.00519 1.13976 0.20113
 C352 C 0.00541 1.17603 0.23784
 H353 H 0.05001 1.28859 0.37900
 H354 H -0.04807 1.37589 0.28648
 H355 H 0.00767 1.21454 0.09967
 H356 H 0.00412 1.10144 0.21240
 H357 H -0.04596 1.31239 0.22454
 H358 H 0.00855 1.27773 0.16380
 H359 H 0.05457 1.22731 0.31435
 H360 H 0.00392 1.16469 0.27622
 C361 C -0.00558 1.25704 -0.27076
 C362 C 0.03683 1.26525 -0.29953
 C363 C 0.03714 1.30158 -0.33622
 C364 C -0.00534 1.33053 -0.34583
 C365 C -0.04834 1.32081 -0.31755
 C366 C -0.04819 1.28501 -0.28025
 C367 C -0.00509 1.21962 -0.23072
 C368 C -0.02285 1.23120 -0.18328
 C369 C -0.02119 1.19619 -0.14523
 C370 C -0.00251 1.14866 -0.15414
 C371 C 0.01479 1.13704 -0.20178
 C372 C 0.01387 1.17226 -0.23952
 H373 H 0.07060 1.30571 -0.35782
 H374 H -0.08165 1.34248 -0.32201
 H375 H -0.03502 1.20614 -0.10900
 H376 H 0.02960 1.10082 -0.20978
 H377 H -0.08150 1.27919 -0.25868
 H378 H -0.03730 1.26760 -0.17548
 H379 H 0.07017 1.24400 -0.29307
 H380 H 0.02753 1.16235 -0.27583
 C381 C 0.00344 0.73504 -0.26286
 C382 C 0.03050 0.74019 -0.30690
 C383 C 0.02869 0.70370 -0.34349
 C384 C -0.00058 0.66079 -0.33737
 C385 C -0.02755 0.65616 -0.29272
 C386 C -0.02554 0.69259 -0.25629
 C387 C 0.00486 0.77388 -0.22402
 C388 C 0.00604 0.76108 -0.17360
 C389 C 0.00570 0.79754 -0.13703
 C390 C 0.00418 0.84777 -0.14996
 C391 C 0.00359 0.86053 -0.20045
 C392 C 0.00393 0.82406 -0.23698
 H393 H 0.04910 0.71054 -0.37718
 H394 H -0.04903 0.62354 -0.28432
 H395 H 0.00650 0.78628 -0.09860
 H396 H 0.00236 0.89879 -0.21190
 H397 H -0.04713 0.68757 -0.22292
 H398 H 0.00753 0.72278 -0.16237
 H399 H 0.05341 0.77245 -0.31303
 H400 H 0.00238 0.83517 -0.27542
 C401 C -0.00589 0.74022 0.26880
 C402 C -0.02491 0.74939 0.31637
 C403 C -0.02301 0.71302 0.35315
 C404 C -0.00199 0.66667 0.34323
 C405 C 0.01671 0.65752 0.29558
 C406 C 0.01496 0.69381 0.25897
 C407 C -0.00716 0.77883 0.22959
 C408 C -0.01631 0.76608 0.17997
 C409 C -0.01548 0.80195 0.14280
 C410 C -0.00578 0.85159 0.15432
 C411 C 0.00254 0.86450 0.20405
 C412 C 0.00197 0.82856 0.24119
 H413 H -0.03751 0.72139 0.38951
 H414 H 0.03234 0.62197 0.28629
 H415 H -0.02256 0.79071 0.10501
 H416 H 0.01033 0.90234 0.21430
 H417 H 0.03056 0.68563 0.22303
 H418 H -0.02438 0.72829 0.16982
 H419 H -0.04171 0.78455 0.32506
 H420 H 0.00982 0.83961 0.27886
   
