data_POSCAR
  _audit_creation_date              2014-09-24
  _audit_creation_method            'ToBaCCo'
  _symmetry_space_group_name_H-M    'P1'
  _symmetry_Int_Tables_number       1
  _symmetry_cell_setting            triclinic
  loop_
  _symmetry_equiv_pos_as_xyz
 x,y,z
_cell_length_a 28.4222
_cell_length_b 28.3412
_cell_length_c 28.7146
_cell_angle_alpha 89.553100
_cell_angle_beta 90.464400
_cell_angle_gamma 88.240400
loop_
  _atom_site_label
  _atom_site_type_symbol
  _atom_site_fract_x
  _atom_site_fract_y
  _atom_site_fract_z
N1 N 0.55571 0.08634 0.01637
 N2 N 0.59119 0.11237 0.02985
 N3 N 0.45830 0.08584 -0.03576
 N4 N 0.42584 0.11211 -0.05780
 N5 N 0.45666 0.09333 0.00934
 N6 N 0.42272 0.12460 0.01912
 N7 N 0.55701 0.07995 -0.02890
 N8 N 0.59364 0.10009 -0.04721
 C9 C 0.61453 0.12022 -0.01048
 C10 C 0.40374 0.13593 -0.02314
 N11 N 0.46308 -0.04212 -0.09045
 N12 N 0.43045 -0.06211 -0.11543
 N13 N 0.56050 0.00039 -0.08883
 N14 N 0.59432 0.01138 -0.11796
 N15 N 0.56135 -0.04512 -0.08022
 N16 N 0.59758 -0.06717 -0.10518
 N17 N 0.46167 0.00382 -0.09655
 N18 N 0.42813 0.01640 -0.12676
 Mn19 Mn 0.50899 0.04293 -0.06288
 C20 C 0.40904 -0.02545 -0.13783
 C21 C 0.61690 -0.03031 -0.12751
 N22 N 0.44826 0.03172 0.08866
 N23 N 0.41349 0.05448 0.10992
 N24 N 0.54199 -0.02227 0.10428
 N25 N 0.57198 -0.03945 0.13573
 N26 N 0.54733 0.02320 0.09781
 N27 N 0.58332 0.03844 0.12738
 N28 N 0.44402 -0.01416 0.09305
 N29 N 0.40659 -0.02381 0.11782
 Mn30 Mn 0.50238 0.05924 0.05357
 C31 C 0.38777 0.01939 0.12775
 C32 C 0.59714 -0.00239 0.14969
 N33 N 0.55204 -0.10612 -0.00062
 N34 N 0.59205 -0.12888 -0.00919
 N35 N 0.44687 -0.09610 0.03197
 N36 N 0.40944 -0.11879 0.04632
 N37 N 0.45391 -0.10261 -0.01271
 N38 N 0.42175 -0.12920 -0.03145
 N39 N 0.54559 -0.10190 0.04435
 N40 N 0.58116 -0.12189 0.06775
 Mn41 Mn 0.50796 -0.07428 -0.04611
 Mn42 Mn 0.49411 -0.05888 0.06880
 Cl43 Cl 0.50328 -0.00759 0.00343
 C44 C 0.60959 -0.13868 0.03381
 C45 C 0.39181 -0.14081 0.00511
 N46 N 0.08448 0.45500 0.03013
 N47 N 0.11259 0.42311 0.05072
 N48 N 0.08065 0.55263 -0.02096
 N49 N 0.10634 0.58828 -0.03512
 N50 N 0.07569 0.55394 0.02454
 N51 N 0.09660 0.59051 0.04227
 N52 N 0.08910 0.45314 -0.01541
 N53 N 0.12044 0.41978 -0.02681
 C54 C 0.13466 0.40126 0.01488
 C55 C 0.11560 0.61161 0.00503
 N56 N -0.03236 0.53924 -0.10250
 N57 N -0.05153 0.57093 -0.13123
 N58 N 0.02279 0.44466 -0.09259
 N59 N 0.04324 0.40903 -0.11516
 N60 N -0.02320 0.44084 -0.09361
 N61 N -0.03527 0.40266 -0.11592
 N62 N 0.01333 0.54433 -0.09880
 N63 N 0.02652 0.58208 -0.12720
 Mn64 Mn 0.05213 0.49891 -0.05755
 C65 C -0.01552 0.59695 -0.14618
 C66 C 0.00626 0.38323 -0.12925
 N67 N -0.00101 0.55443 0.08898
 N68 N 0.00929 0.59022 0.11621
 N69 N -0.03933 0.45411 0.09097
 N70 N -0.05674 0.42152 0.11806
 N71 N 0.00657 0.45521 0.09548
 N72 N 0.02171 0.42357 0.12673
 N73 N -0.04672 0.55248 0.08318
 N74 N -0.06880 0.58654 0.10594
 Mn75 Mn 0.04193 0.50447 0.06012
 C76 C -0.03358 0.60999 0.12608
 C77 C -0.01850 0.40274 0.14000
 N78 N -0.10040 0.44079 -0.02908
 N79 N -0.12107 0.40186 -0.04258
 N80 N -0.11100 0.54388 0.00719
 N81 N -0.13354 0.58336 0.01849
 N82 N -0.10845 0.53984 -0.03817
 N83 N -0.12948 0.57646 -0.05911
 N84 N -0.10317 0.44524 0.01619
 N85 N -0.12460 0.40947 0.03503
 Mn86 Mn -0.06633 0.48990 -0.06626
 Mn87 Mn -0.07531 0.49910 0.04945
 Cl88 Cl -0.01163 0.49808 -0.00363
 C89 C -0.13577 0.38286 -0.00180
 C90 C -0.14514 0.60299 -0.02321
 N91 N 0.03265 0.09162 0.44352
 N92 N 0.04908 0.11461 0.40751
 N93 N -0.00410 0.10132 0.54575
 N94 N -0.01374 0.13071 0.58025
 N95 N 0.04158 0.09602 0.54060
 N96 N 0.06428 0.12105 0.57149
 N97 N -0.01281 0.09952 0.44793
 N98 N -0.02858 0.12896 0.41498
 C99 C 0.01064 0.13753 0.38999
 C100 C 0.02954 0.14241 0.59600
 N101 N -0.08698 -0.00848 0.55440
 N102 N -0.11419 -0.02167 0.58894
 N103 N -0.09012 0.03659 0.45591
 N104 N -0.11726 0.05677 0.42364
 N105 N -0.09461 -0.00949 0.45618
 N106 N -0.12556 -0.02162 0.42383
 N107 N -0.08236 0.03767 0.55351
 N108 N -0.10629 0.05840 0.58737
 Mn109 Mn -0.04777 0.06916 0.50101
 C110 C -0.12764 0.02095 0.61166
 C111 C -0.13913 0.02038 0.40377
 N112 N 0.10566 0.01760 0.53900
 N113 N 0.13259 0.03486 0.57176
 N114 N 0.09440 -0.03311 0.44514
 N115 N 0.11656 -0.05433 0.41061
 N116 N 0.09770 0.01279 0.44178
 N117 N 0.12254 0.02423 0.40492
 N118 N 0.10211 -0.02833 0.54287
 N119 N 0.12712 -0.04532 0.57860
 Mn120 Mn 0.06958 0.05468 0.49097
 C121 C 0.14768 -0.00452 0.59848
 C122 C 0.13374 -0.01815 0.38577
 N123 N -0.02783 -0.09055 0.45457
 N124 N -0.04778 -0.11441 0.42058
 N125 N 0.02538 -0.09168 0.55062
 N126 N 0.04350 -0.11848 0.58419
 N127 N -0.02077 -0.08897 0.55311
 N128 N -0.03521 -0.11461 0.58890
 N129 N 0.01834 -0.09551 0.45340
 N130 N 0.03246 -0.12237 0.41872
 Mn131 Mn -0.05818 -0.04987 0.50445
 Mn132 Mn 0.06023 -0.06248 0.49822
 Cl133 Cl 0.00571 0.00281 0.49873
 C134 C -0.00886 -0.13580 0.39618
 C135 C 0.00568 -0.13252 0.60794
 C136 C -0.34355 0.14830 -0.01616
 C137 C -0.33152 0.18398 0.01419
 C138 C -0.29516 0.21849 0.00265
 C139 C -0.27494 0.24419 0.03867
 C140 C -0.24150 0.27791 0.02900
 C141 C -0.22732 0.28656 -0.01718
 C142 C -0.24837 0.26168 -0.05332
 C143 C -0.28196 0.22807 -0.04365
 C144 C -0.19293 0.32306 -0.02875
 C145 C -0.16115 0.33917 0.00403
 H146 H -0.35003 0.18741 0.04690
 H147 H -0.28527 0.23837 0.07445
 H148 H -0.22798 0.29783 0.05784
 H149 H -0.23900 0.26847 -0.08920
 H150 H -0.29818 0.21075 -0.07279
 H151 H -0.19384 0.33883 -0.06327
 H152 H -0.32424 0.14309 -0.04807
 H153 H -0.15860 0.32265 0.03805
 C154 C 0.34632 0.82464 -0.00362
 C155 C 0.31887 0.80382 0.03001
 C156 C 0.28217 0.77009 0.01675
 C157 C 0.25784 0.74655 0.05176
 C158 C 0.22431 0.71331 0.04038
 C159 C 0.21382 0.70315 -0.00653
 C160 C 0.23831 0.72655 -0.04158
 C161 C 0.27193 0.75981 -0.03018
 C162 C 0.17935 0.66689 -0.01954
 C163 C 0.14359 0.65399 0.01042
 H164 H 0.32570 0.81067 0.06652
 H165 H 0.26537 0.75328 0.08811
 H166 H 0.20779 0.69484 0.06865
 H167 H 0.23139 0.71911 -0.07790
 H168 H 0.29008 0.77712 -0.05822
 H169 H 0.18296 0.64924 -0.05271
 H170 H 0.36817 0.84290 0.00601
 H171 H 0.13850 0.67302 0.04256
 C172 C 0.36468 0.17077 -0.03134
 C173 C 0.34331 0.19612 0.00487
 C174 C 0.30484 0.23278 -0.00138
 C175 C 0.29192 0.26067 0.03699
 C176 C 0.25622 0.29574 0.03315
 C177 C 0.23201 0.30366 -0.00932
 C178 C 0.24492 0.27584 -0.04773
 C179 C 0.28064 0.24071 -0.04389
 C180 C 0.19433 0.34114 -0.01534
 C181 C 0.17078 0.36313 0.02163
 H182 H 0.35642 0.18960 0.03995
 H183 H 0.30989 0.25564 0.07015
 H184 H 0.24855 0.31694 0.06342
 H185 H 0.22707 0.28112 -0.08093
 H186 H 0.28862 0.21989 -0.07431
 H187 H 0.18402 0.35121 -0.05053
 H188 H 0.35378 0.17689 -0.06704
 H189 H 0.17839 0.35225 0.05710
 C190 C -0.34552 0.83629 0.04248
 C191 C -0.31373 0.82953 0.00632
 C192 C -0.27328 0.79579 0.00857
 C193 C -0.25320 0.78083 -0.03345
 C194 C -0.21944 0.74416 -0.03384
 C195 C -0.20534 0.72172 0.00802
 C196 C -0.22252 0.73925 0.05031
 C197 C -0.25622 0.77602 0.05071
 C198 C -0.17485 0.67878 0.00906
 C199 C -0.16949 0.64877 -0.02883
 H200 H -0.32183 0.84598 -0.02713
 H201 H -0.26501 0.79628 -0.06632
 H202 H -0.20537 0.73312 -0.06700
 H203 H -0.21127 0.72320 0.08308
 H204 H -0.26929 0.78781 0.08400
 H205 H -0.15963 0.66791 0.04234
 H206 H -0.33913 0.82165 0.07686
 H207 H -0.18416 0.65772 -0.06270
 C208 C -0.04276 -0.35001 0.15714
 C209 C -0.00809 -0.33038 0.18469
 C210 C -0.01874 -0.29383 0.22009
 C211 C 0.01782 -0.26603 0.23618
 C212 C 0.00967 -0.23246 0.27078
 C213 C -0.03536 -0.22620 0.29044
 C214 C -0.07204 -0.25375 0.27416
 C215 C -0.06387 -0.28741 0.23956
 C216 C -0.04417 -0.19265 0.32894
 C217 C -0.00686 -0.17055 0.34990
 H218 H 0.02820 -0.34216 0.18014
 H219 H 0.05289 -0.27040 0.22204
 H220 H 0.03891 -0.21181 0.28235
 H221 H -0.10687 -0.24995 0.28897
 H222 H -0.09277 -0.30908 0.22935
 H223 H -0.07946 -0.18739 0.34244
 H224 H -0.07883 -0.33700 0.15916
 H225 H -0.01317 -0.15252 0.37322
 C226 C 0.00860 0.33973 0.84358
 C227 C 0.03803 0.33387 0.80542
 C228 C 0.02957 0.29811 0.76894
 C229 C 0.06601 0.28544 0.73843
 C230 C 0.05852 0.25344 0.70241
 C231 C 0.01415 0.23334 0.69611
 C232 C -0.02246 0.24672 0.72607
 C233 C -0.01502 0.27873 0.76193
 C234 C 0.00419 0.19971 0.65810
 C235 C 0.03933 0.17479 0.63433
 H236 H 0.06648 0.35800 0.80066
 H237 H 0.10033 0.30061 0.74227
 H238 H 0.08738 0.24560 0.67918
 H239 H -0.05717 0.23254 0.72155
 H240 H -0.04486 0.28897 0.78305
 H241 H -0.03223 0.19338 0.64934
 H242 H -0.01921 0.31530 0.84957
 H243 H 0.07588 0.17850 0.64381
 C244 C -0.02248 0.36554 0.17500
 C245 C 0.01327 0.35280 0.20623
 C246 C 0.00568 0.31774 0.24351
 C247 C 0.04399 0.29040 0.26045
 C248 C 0.03727 0.25525 0.29384
 C249 C -0.00815 0.24677 0.31081
 C250 C -0.04600 0.27585 0.29570
 C251 C -0.03923 0.31109 0.26246
 C252 C -0.01684 0.20899 0.34515
 C253 C 0.01362 0.17010 0.35065
 H254 H 0.04777 0.36751 0.20228
 H255 H 0.07906 0.29572 0.24727
 H256 H 0.06787 0.23530 0.30641
 H257 H -0.08100 0.27094 0.30923
 H258 H -0.06927 0.33313 0.25196
 H259 H -0.04775 0.21205 0.36691
 H260 H -0.05617 0.34893 0.17701
 H261 H 0.04380 0.16549 0.32828
 C262 C -0.02262 -0.36703 0.82374
 C263 C 0.01275 -0.33888 0.80620
 C264 C 0.00270 -0.30021 0.77171
 C265 C 0.03838 -0.28691 0.74131
 C266 C 0.02993 -0.25168 0.70756
 C267 C -0.01438 -0.22805 0.70389
 C268 C -0.05003 -0.24116 0.73447
 C269 C -0.04158 -0.27649 0.76824
 C270 C -0.02449 -0.19084 0.66784
 C271 C 0.01121 -0.16464 0.64833
 H272 H 0.04912 -0.34716 0.81555
 H273 H 0.07271 -0.30457 0.74300
 H274 H 0.05804 -0.24404 0.68378
 H275 H -0.08443 -0.22367 0.73252
 H276 H -0.06972 -0.28458 0.79184
 H277 H -0.06053 -0.18395 0.65656
 H278 H -0.05844 -0.36034 0.81181
 H279 H 0.04677 -0.16956 0.66153
 C280 C 0.37054 -0.03247 0.82950
 C281 C 0.35110 0.00311 0.80140
 C282 C 0.31477 -0.00733 0.76640
 C283 C 0.28113 0.02771 0.75417
 C284 C 0.24593 0.01829 0.72174
 C285 C 0.24418 -0.02638 0.70061
 C286 C 0.27803 -0.06128 0.71264
 C287 C 0.31330 -0.05179 0.74490
 C288 C 0.20898 -0.03642 0.66442
 C289 C 0.18318 0.00031 0.64411
 H290 H 0.36147 0.03923 0.80621
 H291 H 0.28179 0.06222 0.77009
 H292 H 0.22028 0.04609 0.71318
 H293 H 0.27779 -0.09562 0.69632
 H294 H 0.33980 -0.07913 0.75218
 H295 H 0.20631 -0.07189 0.65091
 H296 H 0.35775 -0.06796 0.82722
 H297 H 0.16493 -0.00626 0.62142
 C298 C -0.36858 -0.00774 0.18194
 C299 C -0.34100 0.02832 0.19922
 C300 C -0.30386 0.01908 0.23555
 C301 C -0.29168 0.05536 0.26592
 C302 C -0.25797 0.04735 0.30129
 C303 C -0.23485 0.00284 0.30672
 C304 C -0.24672 -0.03329 0.27603
 C305 C -0.28043 -0.02528 0.24069
 C306 C -0.19907 -0.00727 0.34419
 C307 C -0.17401 0.02816 0.36584
 H308 H -0.34850 0.06444 0.18812
 H309 H -0.30906 0.08982 0.26291
 H310 H -0.25107 0.07597 0.32480
 H311 H -0.22951 -0.06783 0.27911
 H312 H -0.28748 -0.05387 0.21717
 H313 H -0.19109 -0.04369 0.35385
 H314 H -0.36280 -0.04300 0.19602
 H315 H -0.17943 0.06434 0.35436
 C316 C 0.34639 0.02771 0.15707
 C317 C 0.32286 -0.00971 0.17706
 C318 C 0.28549 -0.00362 0.21223
 C319 C 0.27637 -0.04180 0.24177
 C320 C 0.24307 -0.03730 0.27700
 C321 C 0.21748 0.00549 0.28297
 C322 C 0.22606 0.04351 0.25296
 C323 C 0.25951 0.03902 0.21770
 C324 C 0.18346 0.01227 0.32129
 C325 C 0.16308 -0.02517 0.34455
 H326 H 0.33512 -0.04540 0.16949
 H327 H 0.29599 -0.07497 0.23837
 H328 H 0.23872 -0.06708 0.30012
 H329 H 0.20683 0.07683 0.25683
 H330 H 0.26460 0.06892 0.19491
 H331 H 0.17420 0.04804 0.33161
 H332 H 0.33662 0.06388 0.16511
 H333 H 0.16910 -0.06108 0.33312
 C334 C -0.34687 -0.03550 0.84319
 C335 C -0.32768 0.00250 0.81917
 C336 C -0.28990 -0.00263 0.78386
 C337 C -0.26627 0.03776 0.76956
 C338 C -0.23185 0.03501 0.73501
 C339 C -0.22043 -0.00837 0.71378
 C340 C -0.24377 -0.04879 0.72822
 C341 C -0.27824 -0.04605 0.76267
 C342 C -0.18561 -0.01242 0.67577
 C343 C -0.16372 0.02651 0.65703
 H344 H -0.34074 0.03800 0.82652
 H345 H -0.27466 0.07171 0.78501
 H346 H -0.21458 0.06692 0.72470
 H347 H -0.23589 -0.08258 0.71220
 H348 H -0.29624 -0.07788 0.77146
 H349 H -0.17836 -0.04685 0.66075
 H350 H -0.33244 -0.07082 0.83828
 H351 H -0.14524 0.02341 0.63376
   
