data_POSCAR
  _audit_creation_date              2014-09-24
  _audit_creation_method            'ToBaCCo'
  _symmetry_space_group_name_H-M    'P1'
  _symmetry_Int_Tables_number       1
  _symmetry_cell_setting            triclinic
  loop_
  _symmetry_equiv_pos_as_xyz
 x,y,z
_cell_length_a 29.0318
_cell_length_b 29.0450
_cell_length_c 72.9567
_cell_angle_alpha 87.418300
_cell_angle_beta 91.271100
_cell_angle_gamma 120.052300
loop_
  _atom_site_label
  _atom_site_type_symbol
  _atom_site_fract_x
  _atom_site_fract_y
  _atom_site_fract_z
C1 C 0.01607 0.08921 0.52437
 H2 H 0.05395 0.09067 0.52358
 C3 C 0.01050 0.12368 0.53560
 H4 H 0.04414 0.15171 0.54355
 C5 C -0.07394 0.05117 0.51481
 H6 H -0.10645 0.02321 0.50652
 C7 C -0.08123 0.08510 0.52592
 H8 H -0.11952 0.08298 0.52629
 N9 N -0.02590 0.05360 0.51440
 C10 C 0.01044 -0.07242 0.50598
 H11 H 0.01218 -0.07170 0.49117
 C12 C 0.01466 -0.11170 0.51644
 H13 H 0.02007 -0.14112 0.50969
 C14 C -0.00169 -0.03686 0.53291
 H15 H -0.00975 -0.00881 0.53929
 C16 C 0.00239 -0.07532 0.54385
 H17 H -0.00188 -0.07625 0.55860
 Zn18 Zn -0.01170 0.01063 0.49947
 N19 N 0.00217 -0.03618 0.51433
 C20 C 0.09336 0.05557 0.48453
 N21 N 0.04761 0.05773 0.48480
 C22 C 0.04276 0.09596 0.47494
 C23 C 0.08456 0.13351 0.46397
 C24 C 0.13632 0.09253 0.47369
 C25 C -0.11595 -0.07102 0.49252
 C26 C -0.15781 -0.10794 0.48189
 C27 C -0.10536 -0.06399 0.45467
 C28 C -0.06457 -0.02807 0.46580
 N29 N -0.07037 -0.03232 0.48437
 H30 H 0.09671 0.02548 0.49274
 H31 H 0.00616 0.09711 0.47563
 H32 H 0.08016 0.16361 0.45610
 H33 H 0.17262 0.09061 0.47343
 H34 H -0.11904 -0.07420 0.50733
 H35 H -0.19339 -0.13935 0.48857
 H36 H -0.09963 -0.06083 0.43993
 H37 H -0.02762 0.00191 0.45959
 C38 C 0.01004 -0.11341 0.53554
 C39 C -0.03854 0.12159 0.53642
 C40 C -0.15217 -0.10474 0.46278
 C41 C 0.13172 0.13177 0.46331
 C42 C 1.11205 0.04578 0.14199
 H43 H 1.11340 0.08362 0.14240
 C44 C 1.14780 0.04077 0.13098
 H45 H 1.17671 0.07479 0.12282
 C46 C 1.07291 -0.04474 0.15225
 H47 H 1.04399 -0.07769 0.16072
 C48 C 1.10809 -0.05148 0.14138
 H49 H 1.10597 -0.08979 0.14137
 N50 N 1.07527 0.00329 0.15219
 C51 C 0.94756 0.03830 0.15955
 H52 H 0.94646 0.03915 0.17434
 C53 C 0.90925 0.04267 0.14885
 H54 H 0.87877 0.04733 0.15539
 C55 C 0.98668 0.02814 0.13295
 H56 H 1.01573 0.02076 0.12680
 C57 C 0.94925 0.03242 0.12178
 H58 H 0.95011 0.02898 0.10708
 Zn59 Zn 1.03036 0.01650 0.16672
 N60 N 0.98508 0.03090 0.15148
 C61 C 1.07277 0.12054 0.18097
 N62 N 1.07548 0.07506 0.18106
 C63 C 1.11273 0.06991 0.19115
 C64 C 1.14859 0.11104 0.20201
 C65 C 1.10805 0.16282 0.19169
 C66 C 0.94811 -0.08825 0.17425
 C67 C 0.91007 -0.13076 0.18510
 C68 C 0.95072 -0.07987 0.21200
 C69 C 0.98787 -0.03834 0.20068
 N70 N 0.98578 -0.04307 0.18216
 H71 H 1.04350 0.12415 0.17260
 H72 H 1.11435 0.03355 0.19076
 H73 H 1.17787 0.10636 0.21008
 H74 H 1.10564 0.19885 0.19168
 H75 H 0.94661 -0.09049 0.15947
 H76 H 0.87939 -0.16606 0.17869
 H77 H 0.95191 -0.07522 0.22668
 H78 H 1.01703 -0.00170 0.20670
 C79 C 0.90985 0.03914 0.12981
 C80 C 1.14576 -0.00827 0.13064
 C81 C 0.91110 -0.12620 0.20413
 C82 C 1.14619 0.15785 0.20233
 C83 C 0.04712 0.94711 0.85809
 H84 H 0.01062 0.90918 0.85758
 C85 C 0.08935 0.95195 0.86892
 H86 H 0.08538 0.91770 0.87686
 C87 C 0.09703 1.03800 0.84822
 H88 H 0.09994 1.07117 0.83995
 C89 C 0.14039 1.04457 0.85891
 H90 H 0.17656 1.08296 0.85900
 N91 N 0.05142 0.98987 0.84816
 C92 C -0.11248 0.95424 0.84109
 H93 H -0.11604 0.95404 0.82629
 C94 C -0.15395 0.94957 0.85187
 H95 H -0.18973 0.94531 0.84536
 C96 C -0.06027 0.96332 0.86761
 H97 H -0.02313 0.97049 0.87369
 C98 C -0.10069 0.95871 0.87888
 H99 H -0.09457 0.96169 0.89359
 Zn100 Zn -0.00844 0.97703 0.83373
 N101 N -0.06665 0.96136 0.84907
 C102 C -0.07095 0.87389 0.81865
 N103 N -0.02294 0.91962 0.81888
 C104 C 0.01876 0.92595 0.80875
 C105 C 0.01292 0.88578 0.79754
 C106 C -0.07851 0.83253 0.80757
 C107 C 0.01306 1.08198 0.82710
 C108 C 0.01682 1.12525 0.81662
 C109 C 0.00400 1.07623 0.78927
 C110 C 0.00038 1.03392 0.80023
 N111 N 0.00474 1.03740 0.81880
 H112 H -0.10325 0.86937 0.82706
 H113 H 0.05663 0.96248 0.80940
 H114 H 0.04634 0.89137 0.78946
 H115 H -0.11680 0.79626 0.80734
 H116 H 0.01520 1.08324 0.84191
 H117 H 0.02230 1.16016 0.82334
 H118 H -0.00064 1.07265 0.77454
 H119 H -0.00770 0.99774 0.79389
 C120 C -0.14768 0.95248 0.87094
 C121 C 0.13635 1.00108 0.86937
 C122 C 0.01171 1.12205 0.79754
 C123 C -0.03611 0.83870 0.79691
 C124 C 0.35800 -0.02920 -0.01004
 C125 C 0.35791 -0.03036 0.00877
 C126 C 0.40945 -0.01498 0.01431
 N127 N 0.44091 -0.00473 -0.00046
 C128 C 0.40947 -0.01361 -0.01535
 C129 C 0.42755 -0.00689 0.03266
 C130 C 0.47927 0.00456 0.03787
 C131 C 0.50348 0.02611 0.05435
 C132 C 0.55241 0.02937 0.05439
 C133 C 0.55654 0.00926 0.03800
 N134 N 0.51167 -0.00593 0.02804
 C135 C 0.59966 0.00254 0.03315
 C136 C 0.60688 -0.00997 0.01534
 C137 C 0.64243 -0.02637 0.01086
 C138 C 0.63937 -0.03155 -0.00779
 C139 C 0.60240 -0.01764 -0.01410
 N140 N 0.58264 -0.00442 0.00006
 C141 C 0.59019 -0.01376 -0.03277
 C142 C 0.54932 -0.00348 -0.03853
 C143 C 0.54471 0.01431 -0.05606
 C144 C 0.49898 0.01746 -0.05626
 C145 C 0.47664 0.00101 -0.03889
 N146 N 0.50754 -0.01183 -0.02820
 C147 C 0.42730 -0.00478 -0.03371
 H148 H 0.32406 -0.03872 -0.01881
 H149 H 0.32388 -0.04076 0.01736
 H150 H 0.49777 -0.03077 -0.01528
 H151 H 0.48761 0.03837 0.06520
 H152 H 0.58142 0.04444 0.06534
 H153 H 0.66790 -0.03386 0.02007
 H154 H 0.66219 -0.04363 -0.01579
 H155 H 0.48370 0.02996 -0.06794
 H156 H 0.50124 -0.02754 0.01619
 H157 H 0.57159 0.02414 -0.06750
 C158 C -0.05463 0.33069 0.65910
 C159 C -0.05120 0.33150 0.67787
 C160 C -0.03548 0.38306 0.68252
 N161 N -0.02868 0.41388 0.66724
 C162 C -0.04037 0.38194 0.65290
 C163 C -0.02440 0.40160 0.70054
 C164 C -0.01844 0.45095 0.70534
 C165 C 0.00015 0.47403 0.72214
 C166 C -0.00319 0.51966 0.72178
 C167 C -0.02325 0.52345 0.70471
 N168 N -0.03283 0.48125 0.69483
 C169 C -0.03403 0.56421 0.69896
 C170 C -0.04014 0.57565 0.68033
 C171 C -0.05440 0.61264 0.67415
 C172 C -0.05116 0.61517 0.65537
 C173 C -0.03553 0.57928 0.65070
 N174 N -0.02862 0.55533 0.66597
 C175 C -0.02464 0.57173 0.63266
 C176 C -0.01876 0.52831 0.62785
 C177 C -0.00033 0.52375 0.61103
 C178 C -0.00371 0.47476 0.61140
 C179 C -0.02364 0.45096 0.62849
 N180 N -0.03309 0.48363 0.63838
 C181 C -0.03442 0.39942 0.63426
 H182 H -0.06567 0.29643 0.65096
 H183 H -0.05927 0.29798 0.68706
 H184 H -0.05342 0.47354 0.65079
 H185 H 0.01432 0.45938 0.73355
 H186 H 0.00813 0.54706 0.73280
 H187 H -0.06534 0.63590 0.68231
 H188 H -0.05929 0.64058 0.64619
 H189 H 0.00749 0.45862 0.60037
 H190 H -0.05326 0.47096 0.68245
 H191 H 0.01377 0.55253 0.59960
 C192 C 0.38185 0.36465 0.32354
 C193 C 0.38064 0.36215 0.34235
 C194 C 0.41624 0.41293 0.34799
 N195 N 0.43929 0.44626 0.33327
 C196 C 0.41848 0.41676 0.31832
 C197 C 0.42411 0.42865 0.36637
 C198 C 0.46390 0.47963 0.37168
 C199 C 0.46466 0.50168 0.38823
 C200 C 0.51045 0.55053 0.38836
 C201 C 0.53665 0.55676 0.37196
 N202 N 0.50804 0.51324 0.36191
 C203 C 0.58717 0.60044 0.36719
 C204 C 0.60907 0.60990 0.34939
 C205 C 0.66165 0.64590 0.34497
 C206 C 0.66601 0.64521 0.32632
 C207 C 0.61581 0.60916 0.31994
 N208 N 0.58106 0.58767 0.33407
 C209 C 0.60195 0.59936 0.30125
 C210 C 0.55136 0.55936 0.29542
 C211 C 0.53109 0.55706 0.27789
 C212 C 0.48212 0.51144 0.27759
 C213 C 0.47406 0.48687 0.29491
 N214 N 0.51656 0.51632 0.30567
 C215 C 0.42978 0.43690 0.29999
 H216 H 0.35844 0.33185 0.31471
 H217 H 0.35593 0.32704 0.35087
 H218 H 0.52414 0.50485 0.31856
 H219 H 0.43521 0.48443 0.39905
 H220 H 0.52318 0.57809 0.39937
 H221 H 0.69356 0.67012 0.35423
 H222 H 0.70194 0.66896 0.31836
 H223 H 0.45573 0.49770 0.26589
 H224 H 0.52058 0.50432 0.35003
 H225 H 0.54962 0.58538 0.26649
 C226 C -0.08036 0.30846 0.59403
 C227 C -0.04239 0.29216 0.59408
 C228 C -0.00123 0.31178 0.60703
 C229 C 0.00172 0.34714 0.61999
 C230 C -0.04423 0.15706 0.54810
 C231 C -0.07746 0.34385 0.60701
 C232 C -0.04557 0.25496 0.58103
 C233 C -0.04692 0.22379 0.57036
 C234 C -0.04657 0.18754 0.55820
 C235 C -0.03664 0.36305 0.62016
 H236 H -0.11231 0.29359 0.58405
 H237 H 0.02842 0.29953 0.60716
 H238 H 0.03363 0.36185 0.62997
 H239 H -0.10728 0.35586 0.60695
 C240 C 0.69736 0.72137 0.27259
 C241 C 0.71874 0.69980 0.26093
 C242 C 0.70102 0.64518 0.26217
 C243 C 0.66249 0.61236 0.27517
 C244 C 0.86973 0.83298 0.21555
 C245 C 0.65885 0.68861 0.28557
 C246 C 0.75964 0.73413 0.24800
 C247 C 0.79421 0.76398 0.23746
 C248 C 0.83493 0.80041 0.22547
 C249 C 0.64154 0.63397 0.28706
 H250 H 0.71076 0.76356 0.27173
 H251 H 0.71729 0.62808 0.25322
 H252 H 0.64945 0.57026 0.27614
 H253 H 0.64285 0.70583 0.29458
 C254 C 0.33592 -0.03449 -0.07484
 C255 C 0.32439 0.00688 -0.07449
 C256 C 0.34763 0.04516 -0.06112
 C257 C 0.38177 0.04176 -0.04803
 C258 C 0.17980 0.00622 -0.11932
 C259 C 0.37007 -0.03795 -0.06174
 C260 C 0.28685 0.00870 -0.08729
 C261 C 0.25431 0.00929 -0.09770
 C262 C 0.21482 0.00852 -0.10953
 C263 C 0.39289 -0.00005 -0.04816
 H264 H 0.31794 -0.06446 -0.08508
 H265 H 0.33882 0.07719 -0.06067
 H266 H 0.39911 0.07133 -0.03764
 H267 H 0.37812 -0.07052 -0.06198
 C268 C -0.04636 0.63894 0.59024
 C269 C -0.00423 0.69127 0.59168
 C270 C 0.03175 0.70411 0.60627
 C271 C 0.02538 0.66499 0.61947
 C272 C 0.00982 0.84422 0.54662
 C273 C -0.05278 0.59973 0.60345
 C274 C 0.00087 0.73235 0.57869
 C275 C 0.00463 0.76731 0.56819
 C276 C 0.00807 0.80870 0.55634
 C277 C -0.01713 0.61263 0.61822
 H278 H -0.07457 0.62864 0.57905
 H279 H 0.06434 0.74448 0.60756
 H280 H 0.05327 0.67553 0.63077
 H281 H -0.08584 0.55955 0.60232
 C282 C 0.37356 0.35093 0.25865
 C283 C 0.32052 0.33919 0.25892
 C284 C 0.30363 0.36056 0.27231
 C285 C 0.33946 0.39302 0.28551
 C286 C 0.18283 0.20007 0.21370
 C287 C 0.40944 0.38339 0.27186
 C288 C 0.28287 0.30329 0.24601
 C289 C 0.25117 0.27204 0.23551
 C290 C 0.21412 0.23397 0.22357
 C291 C 0.39249 0.40431 0.28546
 H292 H 0.38697 0.33439 0.24841
 H293 H 0.26265 0.35155 0.27270
 H294 H 0.32579 0.40890 0.29591
 H295 H 0.45017 0.39160 0.27167
 C296 C 0.70892 0.01347 -0.06157
 C297 C 0.68612 -0.02966 -0.07315
 C298 C 0.63167 -0.06684 -0.07184
 C299 C 0.60029 -0.06125 -0.05884
 C300 C 0.81479 -0.04706 -0.11830
 C301 C 0.67760 0.01910 -0.04858
 C302 C 0.71908 -0.03617 -0.08604
 C303 C 0.74786 -0.04082 -0.09653
 C304 C 0.78312 -0.04498 -0.10845
 C305 C 0.62318 -0.01853 -0.04701
 H306 H 0.75099 0.04248 -0.06247
 H307 H 0.61364 -0.10036 -0.08073
 H308 H 0.55834 -0.09055 -0.05781
 H309 H 0.69578 0.05244 -0.03962
 C310 C 0.33963 0.02799 0.05943
 C311 C 0.32025 -0.01214 0.07330
 C312 C 0.33707 -0.04974 0.07418
 C313 C 0.37264 -0.04759 0.06108
 C314 C 0.18235 -0.01352 0.11912
 C315 C 0.37515 0.03018 0.04635
 C316 C 0.28251 -0.01487 0.08639
 C317 C 0.25074 -0.01604 0.09704
 C318 C 0.21365 -0.01569 0.10912
 C319 C 0.39149 -0.00791 0.04698
 H320 H 0.32694 0.05733 0.05865
 H321 H 0.32237 -0.08090 0.08486
 H322 H 0.38495 -0.07721 0.06176
 H323 H 0.38956 0.06119 0.03561
 C324 C 0.66011 0.72930 0.39227
 C325 C 0.67973 0.71388 0.40762
 C326 C 0.66820 0.66101 0.40995
 C327 C 0.63757 0.62382 0.39690
 C328 C 0.81130 0.85883 0.45257
 C329 C 0.62949 0.69218 0.37923
 C330 C 0.71355 0.75288 0.42051
 C331 C 0.74301 0.78602 0.43097
 C332 C 0.77903 0.82520 0.44282
 C333 C 0.61830 0.63927 0.38140
 H334 H 0.66896 0.77012 0.39029
 H335 H 0.68342 0.64873 0.42173
 H336 H 0.62939 0.58319 0.39874
 H337 H 0.61485 0.70470 0.36736
 C338 C 0.03222 0.32577 0.72683
 C339 C -0.00366 0.30259 0.74146
 C340 C -0.04579 0.31272 0.74297
 C341 C -0.05232 0.34549 0.72977
 C342 C 0.01113 0.16400 0.78645
 C343 C 0.02575 0.35850 0.71366
 C344 C 0.00155 0.26665 0.75443
 C345 C 0.00546 0.23550 0.76492
 C346 C 0.00914 0.19766 0.77674
 C347 C -0.01676 0.36828 0.71497
 H348 H 0.06480 0.31804 0.72550
 H349 H -0.07393 0.29478 0.75418
 H350 H -0.08537 0.35256 0.73095
 H351 H 0.05355 0.37586 0.70233
 C352 C 0.73167 0.05899 0.05807
 C353 C 0.71814 0.02406 0.07345
 C354 C 0.66555 -0.01740 0.07585
 C355 C 0.62675 -0.02420 0.06284
 C356 C 0.86843 0.03891 0.11853
 C357 C 0.69294 0.05225 0.04506
 C358 C 0.75869 0.02956 0.08634
 C359 C 0.79307 0.03354 0.09682
 C360 C 0.83366 0.03712 0.10872
 C361 C 0.64029 0.01042 0.04730
 H362 H 0.77225 0.09106 0.05604
 H363 H 0.65471 -0.04480 0.08766
 H364 H 0.58634 -0.05672 0.06473
 H365 H 0.70398 0.07934 0.03317
 C366 C 0.29790 0.33713 0.39294
 C367 C 0.31691 0.31569 0.40668
 C368 C 0.37127 0.33238 0.40757
 C369 C 0.40637 0.36985 0.39461
 C370 C 0.17476 0.17034 0.45189
 C371 C 0.33291 0.37456 0.37998
 C372 C 0.28021 0.27590 0.41959
 C373 C 0.24826 0.24242 0.43008
 C374 C 0.20937 0.20333 0.44201
 C375 C 0.38729 0.39074 0.38062
 H376 H 0.25594 0.32456 0.39214
 H377 H 0.38639 0.31608 0.41816
 H378 H 0.44823 0.38201 0.39528
 H379 H 0.31764 0.39050 0.36933
 C380 C -0.07941 0.60949 0.73927
 C381 C -0.04132 0.66378 0.73918
 C382 C -0.00029 0.68524 0.72617
 C383 C 0.00241 0.65274 0.71319
 C384 C -0.04210 0.79742 0.78523
 C385 C -0.07675 0.57691 0.72627
 C386 C -0.04423 0.69788 0.75226
 C387 C -0.04534 0.72779 0.76294
 C388 C -0.04470 0.76449 0.77512
 C389 C -0.03605 0.59845 0.71306
 H390 H -0.11126 0.59247 0.74929
 H391 H 0.02945 0.72715 0.72600
 H392 H 0.03423 0.66988 0.70316
 H393 H -0.10664 0.53507 0.72637
   
