data_POSCAR
  _audit_creation_date              2014-09-24
  _audit_creation_method            'ToBaCCo'
  _symmetry_space_group_name_H-M    'P1'
  _symmetry_Int_Tables_number       1
  _symmetry_cell_setting            triclinic
  loop_
  _symmetry_equiv_pos_as_xyz
 x,y,z
_cell_length_a 75.2700
_cell_length_b 75.3195
_cell_length_c 20.4315
_cell_angle_alpha 90.061200
_cell_angle_beta 90.000500
_cell_angle_gamma 119.922300
loop_
  _atom_site_label
  _atom_site_type_symbol
  _atom_site_fract_x
  _atom_site_fract_y
  _atom_site_fract_z
C1 C 0.23065 0.49413 0.46721
 C2 C 0.23055 0.49364 0.53640
 C3 C 0.24670 0.49346 0.57010
 C4 C 0.26294 0.49375 0.53564
 C5 C 0.26304 0.49429 0.46661
 C6 C 0.24694 0.49449 0.43288
 H7 H 0.24709 0.49484 0.37977
 H8 H 0.24658 0.49302 0.62323
 C9 C 0.50556 -0.26322 0.46517
 C10 C 0.50541 -0.26321 0.53424
 C11 C 0.50533 -0.24709 0.56828
 C12 C 0.50546 -0.23090 0.53415
 C13 C 0.50563 -0.23090 0.46507
 C14 C 0.50565 -0.24705 0.43104
 H15 H 0.50582 -0.24695 0.37792
 H16 H 0.50526 -0.24714 0.62140
 C17 C 1.26364 0.76930 0.46309
 C18 C 1.26340 0.76898 0.53216
 C19 C 1.24718 0.75272 0.56543
 C20 C 1.23116 0.73674 0.53056
 C21 C 1.23143 0.73700 0.46161
 C22 C 1.24764 0.75324 0.42823
 H23 H 1.24772 0.75340 0.37511
 H24 H 1.24698 0.75254 0.61852
 C25 C 0.76919 0.50607 0.46903
 C26 C 0.76894 0.50554 0.53809
 C27 C 0.75269 0.50535 0.57226
 C28 C 0.73671 0.50571 0.53822
 C29 C 0.73697 0.50622 0.46917
 C30 C 0.75318 0.50637 0.43506
 H31 H 0.75340 0.50683 0.38198
 H32 H 0.75253 0.50500 0.62540
 C33 C 0.49440 0.26353 0.46972
 C34 C 0.49434 0.26340 0.53879
 C35 C 0.49426 0.24716 0.57255
 C36 C 0.49422 0.23104 0.53806
 C37 C 0.49435 0.23123 0.46899
 C38 C 0.49444 0.24746 0.43531
 H39 H 0.49446 0.24755 0.38221
 H40 H 0.49414 0.24703 0.62570
 C41 C 0.73700 0.23120 0.46693
 C42 C 0.73678 0.23139 0.53588
 C43 C 0.75280 0.24757 0.57017
 C44 C 0.76909 0.26357 0.53624
 C45 C 0.76929 0.26339 0.46717
 C46 C 0.75323 0.24722 0.43296
 H47 H 0.75342 0.24704 0.37988
 H48 H 0.75260 0.24761 0.62329
 N49 N 0.97843 0.52052 0.06873
 N50 N 0.96302 0.52395 0.07755
 N51 N 1.02165 0.52992 0.11411
 N52 N 1.03718 0.54006 0.15460
 N53 N 1.02156 0.54214 0.06842
 N54 N 1.03703 0.56093 0.07650
 N55 N 0.97853 0.50830 0.11440
 N56 N 0.96319 0.50308 0.15558
 C57 C 0.95371 0.51294 0.13178
 C58 C 1.04655 0.55931 0.13036
 N59 N 1.02186 0.47936 0.06983
 N60 N 1.03725 0.47592 0.07902
 N61 N 0.97869 0.47014 0.11522
 N62 N 0.96337 0.46012 0.15647
 N63 N 0.97871 0.45773 0.07002
 N64 N 0.96340 0.43892 0.07921
 N65 N 1.02183 0.49177 0.11501
 N66 N 1.03720 0.49712 0.15622
 Mn67 Mn 1.00017 0.50004 0.11545
 C68 C 1.04663 0.48713 0.13295
 C69 C 0.95403 0.44073 0.13316
 N70 N 1.02150 0.54189 -0.07258
 N71 N 1.03683 0.56070 -0.08182
 N72 N 0.97837 0.50784 -0.11749
 N73 N 0.96292 0.50237 -0.15841
 N74 N 0.97835 0.52024 -0.07229
 N75 N 0.96288 0.52357 -0.08115
 N76 N 1.02152 0.52947 -0.11775
 N77 N 1.03685 0.53948 -0.15900
 Mn78 Mn 0.99996 0.53141 -0.00193
 C79 C 1.04621 0.55888 -0.13578
 C80 C 0.95346 0.51231 -0.13493
 N81 N 0.97858 0.45744 -0.07099
 N82 N 0.96319 0.43860 -0.07948
 N83 N 1.02163 0.49128 -0.11687
 N84 N 1.03705 0.49661 -0.15775
 N85 N 1.02171 0.47907 -0.07118
 N86 N 1.03719 0.47573 -0.07965
 N87 N 0.97851 0.46966 -0.11667
 N88 N 0.96308 0.45950 -0.15753
 Mn89 Mn 1.00021 0.46819 -0.00058
 Mn90 Mn 1.00000 0.49956 -0.11796
 Cl91 Cl 1.00009 0.49980 -0.00126
 C92 C 0.95373 0.44021 -0.13354
 C93 C 1.04654 0.48679 -0.13372
 N94 N 0.47952 0.45804 0.07097
 N95 N 0.47618 0.43926 0.08006
 N96 N 0.47012 0.49190 0.11592
 N97 N 0.46006 0.49738 0.15647
 N98 N 0.45780 0.47949 0.07058
 N99 N 0.43899 0.47617 0.07899
 N100 N 0.49184 0.47046 0.11630
 N101 N 0.49723 0.46049 0.15751
 C102 C 0.48735 0.44112 0.13409
 C103 C 0.44073 0.48744 0.13265
 N104 N 0.52052 0.54249 0.07019
 N105 N 0.52395 0.56132 0.07905
 N106 N 0.52997 0.50876 0.11603
 N107 N 0.54013 0.50360 0.15727
 N108 N 0.54226 0.52104 0.07049
 N109 N 0.56113 0.52459 0.07943
 N110 N 0.50824 0.53020 0.11573
 N111 N 0.50297 0.54031 0.15686
 Mn112 Mn 0.50004 0.50033 0.11676
 C113 C 0.51287 0.55964 0.13316
 C114 C 0.55947 0.51358 0.13360
 N115 N 0.45768 0.47928 -0.07042
 N116 N 0.43882 0.47578 -0.07934
 N117 N 0.49171 0.47012 -0.11558
 N118 N 0.49706 0.46003 -0.15649
 N119 N 0.47943 0.45784 -0.07004
 N120 N 0.47607 0.43903 -0.07865
 N121 N 0.46997 0.49157 -0.11596
 N122 N 0.45982 0.49676 -0.15715
 Mn123 Mn 0.46839 0.46845 0.00029
 C124 C 0.44047 0.48681 -0.13350
 C125 C 0.48719 0.44073 -0.13263
 N126 N 0.54219 0.52081 -0.07052
 N127 N 0.56104 0.52426 -0.07926
 N128 N 0.50813 0.52982 -0.11617
 N129 N 0.50263 0.53976 -0.15711
 N130 N 0.52045 0.54224 -0.07083
 N131 N 0.52369 0.56098 -0.07961
 N132 N 0.52986 0.50840 -0.11585
 N133 N 0.53997 0.50305 -0.15672
 Mn134 Mn 0.53156 0.53186 -0.00018
 Mn135 Mn 0.49992 0.49998 -0.11666
 Cl136 Cl 0.49998 0.50015 0.00005
 C137 C 0.55933 0.51306 -0.13310
 C138 C 0.51246 0.55911 -0.13350
 N139 N 0.45761 -0.02138 0.07052
 N140 N 0.43881 -0.03676 0.07964
 N141 N 0.49162 0.02179 0.11530
 N142 N 0.49706 0.03726 0.15608
 N143 N 0.47920 0.02174 0.07005
 N144 N 0.47584 0.03720 0.07875
 N145 N 0.47004 -0.02133 0.11577
 N146 N 0.46004 -0.03667 0.15696
 C147 C 0.44064 -0.04610 0.13363
 C148 C 0.48710 0.04667 0.13248
 N149 N 0.54212 0.02166 0.06908
 N150 N 0.56099 0.03697 0.07779
 N151 N 0.50830 -0.02135 0.11510
 N152 N 0.50297 -0.03673 0.15607
 N153 N 0.52054 -0.02144 0.06948
 N154 N 0.52390 -0.03689 0.07809
 N155 N 0.52987 0.02174 0.11470
 N156 N 0.54004 0.03711 0.15574
 Mn157 Mn 0.49996 0.00021 0.11598
 C158 C 0.55936 0.04642 0.13188
 C159 C 0.51282 -0.04621 0.13218
 N160 N 0.47898 0.02158 -0.07095
 N161 N 0.47560 0.03701 -0.07965
 N162 N 0.46967 -0.02161 -0.11610
 N163 N 0.45957 -0.03715 -0.15658
 N164 N 0.45742 -0.02153 -0.07048
 N165 N 0.43863 -0.03701 -0.07860
 N166 N 0.49123 0.02149 -0.11657
 N167 N 0.49653 0.03686 -0.15760
 Mn168 Mn 0.46809 0.00010 -0.00022
 C169 C 0.48666 0.04634 -0.13377
 C170 C 0.44030 -0.04653 -0.13240
 N171 N 0.52030 -0.02168 -0.07153
 N172 N 0.52371 -0.03710 -0.08038
 N173 N 0.52946 0.02140 -0.11719
 N174 N 0.53944 0.03677 -0.15826
 N175 N 0.54187 0.02144 -0.07193
 N176 N 0.56066 0.03685 -0.08090
 N177 N 0.50789 -0.02172 -0.11679
 N178 N 0.50250 -0.03716 -0.15772
 Mn179 Mn 0.53142 -0.00001 -0.00123
 Mn180 Mn 0.49956 -0.00011 -0.11743
 Cl181 Cl 0.49976 0.00005 -0.00073
 C182 C 0.51248 -0.04656 -0.13421
 C183 C 0.55882 0.04619 -0.13482
 C184 C 1.21500 0.49411 0.43297
 C185 C 1.20091 0.49401 0.40451
 C186 C 1.18378 0.49379 0.37230
 C187 C 1.17265 0.50150 0.40458
 C188 C 1.15570 0.50089 0.37425
 C189 C 1.14965 0.49256 0.31105
 C190 C 1.16103 0.48496 0.27885
 C191 C 1.17796 0.48555 0.30935
 C192 C 1.13147 0.49167 0.27911
 C193 C 1.13171 0.49591 0.21192
 C194 C 1.11456 0.49502 0.18200
 C195 C 1.09695 0.48987 0.21873
 C196 C 1.09655 0.48563 0.28555
 C197 C 1.11368 0.48652 0.31558
 C198 C 1.07927 0.48893 0.18799
 C199 C 1.06440 0.48812 0.16266
 H200 H 1.17704 0.50795 0.45328
 H201 H 1.14745 0.50712 0.40000
 H202 H 1.15661 0.47821 0.23057
 H203 H 1.18641 0.47945 0.28404
 H204 H 1.14525 0.50017 0.18268
 H205 H 1.11507 0.49839 0.13027
 H206 H 1.08298 0.48157 0.31444
 H207 H 1.11289 0.48290 0.36714
 C208 C 0.50576 0.72125 0.43103
 C209 C 0.50598 0.70730 0.40268
 C210 C 0.50628 0.69041 0.37069
 C211 C 0.51497 0.69289 0.30844
 C212 C 0.51560 0.67655 0.27815
 C213 C 0.50758 0.65749 0.30986
 C214 C 0.49881 0.65514 0.37236
 C215 C 0.49817 0.67149 0.40248
 C216 C 0.50848 0.64017 0.27815
 C217 C 0.51316 0.62728 0.31515
 C218 C 0.51403 0.61100 0.28536
 C219 C 0.51024 0.60736 0.21824
 C220 C 0.50556 0.62008 0.18097
 C221 C 0.50469 0.63638 0.21066
 C222 C 0.51114 0.59057 0.18775
 C223 C 0.51192 0.57648 0.16262
 H224 H 0.52138 0.70749 0.28351
 H225 H 0.52269 0.67893 0.23043
 H226 H 0.49226 0.64061 0.39770
 H227 H 0.49137 0.66938 0.45062
 H228 H 0.51644 0.62994 0.36697
 H229 H 0.51773 0.60130 0.31466
 H230 H 0.50254 0.61738 0.12901
 H231 H 0.50080 0.64585 0.18099
 C232 C 0.27918 -0.21483 0.42965
 C233 C 0.29309 -0.20052 0.40187
 C234 C 0.30987 -0.18312 0.37052
 C235 C 0.32101 -0.16472 0.40502
 C236 C 0.33740 -0.14778 0.37511
 C237 C 0.34288 -0.14900 0.31008
 C238 C 0.33157 -0.16757 0.27576
 C239 C 0.31519 -0.18451 0.30584
 C240 C 0.36029 -0.13096 0.27825
 C241 C 0.35895 -0.12615 0.21253
 C242 C 0.37526 -0.10904 0.18290
 C243 C 0.39313 -0.09652 0.21845
 C244 C 0.39465 -0.10122 0.28373
 C245 C 0.37836 -0.11830 0.31347
 C246 C 0.40986 -0.07879 0.18816
 C247 C 0.42389 -0.06389 0.16311
 H248 H 0.31698 -0.16345 0.45503
 H249 H 0.34560 -0.13365 0.40257
 H250 H 0.33556 -0.16908 0.22596
 H251 H 0.30672 -0.19870 0.27874
 H252 H 0.34516 -0.13542 0.18434
 H253 H 0.37388 -0.10553 0.13239
 H254 H 0.40843 -0.09167 0.31168
 H255 H 0.37999 -0.12173 0.36382
 C256 C 0.78585 0.50649 0.43256
 C257 C 0.80009 0.50692 0.40412
 C258 C 0.81740 0.50751 0.37205
 C259 C 0.83570 0.51416 0.40660
 C260 C 0.85254 0.51463 0.37605
 C261 C 0.85131 0.50847 0.31036
 C262 C 0.83285 0.50186 0.27598
 C263 C 0.81600 0.50137 0.30670
 C264 C 0.86923 0.50898 0.27795
 C265 C 0.87429 0.51573 0.21284
 C266 C 0.89130 0.51641 0.18270
 C267 C 0.90346 0.51034 0.21714
 C268 C 0.89850 0.50352 0.28179
 C269 C 0.88151 0.50284 0.31203
 C270 C 0.92111 0.51125 0.18645
 C271 C 0.93596 0.51202 0.16123
 H272 H 0.83697 0.51902 0.45715
 H273 H 0.86661 0.52007 0.40357
 H274 H 0.83134 0.49679 0.22564
 H275 H 0.80187 0.49613 0.27958
 H276 H 0.86529 0.52079 0.18558
 H277 H 0.89504 0.52177 0.13269
 H278 H 0.90777 0.49873 0.30885
 H279 H 0.87786 0.49731 0.36186
 C280 C 0.49418 0.27992 0.43365
 C281 C 0.49389 0.29383 0.40549
 C282 C 0.49339 0.31061 0.37370
 C283 C 0.48654 0.32212 0.40815
 C284 C 0.48607 0.33850 0.37778
 C285 C 0.49245 0.34359 0.31237
 C286 C 0.49931 0.33190 0.27812
 C287 C 0.49978 0.31553 0.30866
 C288 C 0.49189 0.36096 0.28007
 C289 C 0.48533 0.35935 0.21472
 C290 C 0.48456 0.37563 0.18469
 C291 C 0.49035 0.39373 0.21948
 C292 C 0.49699 0.39552 0.28437
 C293 C 0.49776 0.37927 0.31451
 C294 C 0.48933 0.41041 0.18888
 C295 C 0.48844 0.42441 0.16366
 H296 H 0.48148 0.31839 0.45845
 H297 H 0.48045 0.34700 0.40518
 H298 H 0.50455 0.33559 0.22801
 H299 H 0.50518 0.30676 0.28162
 H300 H 0.48047 0.34538 0.18717
 H301 H 0.47934 0.37406 0.13448
 H302 H 0.50156 0.40949 0.31171
 H303 H 0.50314 0.38109 0.36455
 C304 C 0.72075 0.21452 0.43074
 C305 C 0.70694 0.20024 0.40250
 C306 C 0.69026 0.18287 0.37068
 C307 C 0.67862 0.16468 0.40559
 C308 C 0.66235 0.14775 0.37518
 C309 C 0.65750 0.14877 0.30928
 C310 C 0.66928 0.16715 0.27461
 C311 C 0.68556 0.18408 0.30517
 C312 C 0.64024 0.13073 0.27694
 C313 C 0.62696 0.13318 0.23417
 C314 C 0.61062 0.11615 0.20424
 C315 C 0.60735 0.09647 0.21656
 C316 C 0.62050 0.09387 0.25882
 C317 C 0.63684 0.11087 0.28882
 C318 C 0.59043 0.07890 0.18624
 C319 C 0.57626 0.06411 0.16123
 H320 H 0.68210 0.16360 0.45639
 H321 H 0.65341 0.13393 0.40347
 H322 H 0.66608 0.16834 0.22364
 H323 H 0.69449 0.19809 0.27767
 H324 H 0.62901 0.14823 0.22465
 H325 H 0.60049 0.11833 0.17176
 H326 H 0.61815 0.07871 0.26857
 H327 H 0.64694 0.10849 0.32076
 C328 C 0.49385 0.21521 -0.42816
 C329 C 0.49342 0.20090 -0.40022
 C330 C 0.49277 0.18350 -0.36888
 C331 C 0.48521 0.16502 -0.40313
 C332 C 0.48468 0.14807 -0.37334
 C333 C 0.49170 0.14936 -0.30871
 C334 C 0.49924 0.16801 -0.27461
 C335 C 0.49979 0.18497 -0.30458
 C336 C 0.49111 0.13132 -0.27708
 C337 C 0.48522 0.12662 -0.21115
 C338 C 0.48445 0.10949 -0.18173
 C339 C 0.48957 0.09686 -0.21771
 C340 C 0.49554 0.10146 -0.28320
 C341 C 0.49631 0.11856 -0.31273
 C342 C 0.48858 0.07910 -0.18768
 C343 C 0.48771 0.06417 -0.16290
 H344 H 0.47967 0.16370 -0.45285
 H345 H 0.47853 0.13387 -0.40057
 H346 H 0.50499 0.16956 -0.22512
 H347 H 0.50574 0.19922 -0.27772
 H348 H 0.48089 0.13599 -0.18264
 H349 H 0.47975 0.10604 -0.13104
 H350 H 0.49960 0.09182 -0.31147
 H351 H 0.50117 0.12193 -0.36327
 C352 C 0.72111 0.50572 -0.42757
 C353 C 0.70710 0.50582 -0.39925
 C354 C 0.69015 0.50602 -0.36746
 C355 C 0.69247 0.51437 -0.30473
 C356 C 0.67608 0.51500 -0.27477
 C357 C 0.65716 0.50732 -0.30733
 C358 C 0.65498 0.49885 -0.37027
 C359 C 0.67136 0.49821 -0.40006
 C360 C 0.63983 0.50828 -0.27607
 C361 C 0.62730 0.51343 -0.31318
 C362 C 0.61102 0.51438 -0.28380
 C363 C 0.60702 0.51019 -0.21703
 C364 C 0.61939 0.50505 -0.17966
 C365 C 0.63570 0.50410 -0.20893
 C366 C 0.59024 0.51118 -0.18698
 C367 C 0.57615 0.51203 -0.16220
 H368 H 0.70698 0.52055 -0.27921
 H369 H 0.67832 0.52185 -0.22667
 H370 H 0.64055 0.49257 -0.39625
 H371 H 0.66940 0.49168 -0.44860
 H372 H 0.63026 0.51701 -0.36473
 H373 H 0.60159 0.51843 -0.31316
 H374 H 0.61640 0.50172 -0.12795
 H375 H 0.64490 0.49985 -0.17923
 C376 C 0.78471 0.27910 -0.42941
 C377 C 0.79881 0.29303 -0.40093
 C378 C 0.81597 0.30988 -0.36891
 C379 C 0.82204 0.30741 -0.30645
 C380 C 0.83906 0.32370 -0.27627
 C381 C 0.85025 0.34267 -0.30835
 C382 C 0.84393 0.34501 -0.37102
 C383 C 0.82691 0.32872 -0.40103
 C384 C 0.86853 0.35990 -0.27688
 C385 C 0.88618 0.37247 -0.31395
 C386 C 0.90339 0.38867 -0.28440
 C387 C 0.90324 0.39255 -0.21747
 C388 C 0.88578 0.38014 -0.18012
 C389 C 0.86854 0.36390 -0.20957
 C390 C 0.92098 0.40929 -0.18731
 C391 C 0.93591 0.42337 -0.16252
 H392 H 0.81373 0.29286 -0.28130
 H393 H 0.84368 0.32134 -0.22838
 H394 H 0.85205 0.35948 -0.39662
 H395 H 0.82231 0.33080 -0.44936
 H396 H 0.88677 0.36961 -0.36563
 H397 H 0.91685 0.39815 -0.31374
 H398 H 0.88547 0.38304 -0.12830
 H399 H 0.85511 0.35466 -0.17989
 C400 C 0.50555 -0.21522 -0.43170
 C401 C 0.50569 -0.20110 -0.40329
 C402 C 0.50592 -0.18396 -0.37112
 C403 C 0.49908 -0.17227 -0.40451
 C404 C 0.49962 -0.15538 -0.37405
 C405 C 0.50702 -0.14993 -0.30963
 C406 C 0.51379 -0.16184 -0.27640
 C407 C 0.51324 -0.17873 -0.30699
 C408 C 0.50780 -0.13182 -0.27750
 C409 C 0.52469 -0.11856 -0.23845
 C410 C 0.52554 -0.10139 -0.20892
 C411 C 0.50953 -0.09724 -0.21789
 C412 C 0.49263 -0.11038 -0.25639
 C413 C 0.49175 -0.12755 -0.28601
 C414 C 0.51053 -0.07941 -0.18808
 C415 C 0.51141 -0.06444 -0.16337
 H416 H 0.49345 -0.17614 -0.45425
 H417 H 0.49457 -0.14637 -0.40130
 H418 H 0.51932 -0.15821 -0.22653
 H419 H 0.51855 -0.18769 -0.28066
 H420 H 0.53741 -0.12126 -0.23164
 H421 H 0.53873 -0.09129 -0.17940
 H422 H 0.48012 -0.10734 -0.26355
 H423 H 0.47842 -0.13759 -0.31503
 C424 C 0.27841 0.49332 -0.43058
 C425 C 0.29229 0.49286 -0.40255
 C426 C 0.30906 0.49223 -0.37097
 C427 C 0.31440 0.49902 -0.30636
 C428 C 0.33082 0.49851 -0.27614
 C429 C 0.34215 0.49122 -0.31025
 C430 C 0.33664 0.48442 -0.37519
 C431 C 0.32021 0.48492 -0.40524
 C432 C 0.35964 0.49068 -0.27834
 C433 C 0.37770 0.49607 -0.31359
 C434 C 0.39407 0.49539 -0.28376
 C435 C 0.39265 0.48932 -0.21836
 C436 C 0.37479 0.48400 -0.18278
 C437 C 0.35839 0.48468 -0.21250
 C438 C 0.40948 0.48845 -0.18798
 C439 C 0.42360 0.48771 -0.16292
 H440 H 0.30592 0.50479 -0.27945
 H441 H 0.33483 0.50409 -0.22642
 H442 H 0.34486 0.47846 -0.40249
 H443 H 0.31617 0.47955 -0.45520
 H444 H 0.37926 0.50102 -0.36403
 H445 H 0.40784 0.49960 -0.31173
 H446 H 0.37349 0.47922 -0.13217
 H447 H 0.34462 0.48020 -0.18428
 C448 C 1.21443 0.72028 -0.43410
 C449 C 1.20014 0.70634 -0.40634
 C450 C 1.18281 0.68954 -0.37479
 C451 C 1.18418 0.68454 -0.30975
 C452 C 1.16729 0.66818 -0.27940
 C453 C 1.14879 0.65657 -0.31382
 C454 C 1.14759 0.66173 -0.37922
 C455 C 1.16447 0.67811 -0.40941
 C456 C 1.13080 0.63919 -0.28168
 C457 C 1.11834 0.62094 -0.31629
 C458 C 1.10132 0.60467 -0.28626
 C459 C 1.09648 0.60639 -0.22128
 C460 C 1.10880 0.62445 -0.18634
 C461 C 1.12585 0.64074 -0.21626
 C462 C 1.07881 0.58967 -0.19069
 C463 C 1.06395 0.57564 -0.16544
 H464 H 1.19832 0.69325 -0.28256
 H465 H 1.16880 0.66444 -0.22930
 H466 H 1.13350 0.65329 -0.40678
 H467 H 1.16321 0.68190 -0.45969
 H468 H 1.12189 0.61915 -0.36638
 H469 H 1.09192 0.59074 -0.31373
 H470 H 1.10517 0.62598 -0.13607
 H471 H 1.13497 0.65467 -0.18856
 C472 C 0.78448 0.50539 -0.42782
 C473 C 0.79851 0.50534 -0.39962
 C474 C 0.81560 0.50537 -0.36801
 C475 C 0.82168 0.51367 -0.30525
 C476 C 0.83865 0.51418 -0.27549
 C477 C 0.84980 0.50643 -0.30830
 C478 C 0.84347 0.49801 -0.37126
 C479 C 0.82648 0.49749 -0.40085
 C480 C 0.86806 0.50730 -0.27732
 C481 C 0.88571 0.51248 -0.31459
 C482 C 0.90295 0.51341 -0.28542
 C483 C 0.90280 0.50918 -0.21869
 C484 C 0.88532 0.50399 -0.18118
 C485 C 0.86806 0.50306 -0.21025
 C486 C 0.92060 0.51022 -0.18881
 C487 C 0.93558 0.51116 -0.16407
 H488 H 0.81341 0.51990 -0.27956
 H489 H 0.84330 0.52099 -0.22736
 H490 H 0.85156 0.49168 -0.39742
 H491 H 0.82188 0.49101 -0.44943
 H492 H 0.88630 0.51610 -0.36610
 H493 H 0.91643 0.51750 -0.31486
 H494 H 0.88503 0.50064 -0.12950
 H495 H 0.85462 0.49879 -0.18045
 C496 C 0.49425 0.27890 -0.42672
 C497 C 0.49414 0.29287 -0.39827
 C498 C 0.49398 0.30983 -0.36646
 C499 C 0.48524 0.30742 -0.30436
 C500 C 0.48466 0.32383 -0.27443
 C501 C 0.49279 0.34285 -0.30641
 C502 C 0.50164 0.34513 -0.36871
 C503 C 0.50223 0.32872 -0.39847
 C504 C 0.49189 0.36020 -0.27524
 C505 C 0.48715 0.37297 -0.31270
 C506 C 0.48625 0.38927 -0.28340
 C507 C 0.49007 0.39306 -0.21637
 C508 C 0.49480 0.38047 -0.17865
 C509 C 0.49570 0.36413 -0.20784
 C510 C 0.48910 0.40985 -0.18641
 C511 C 0.48825 0.42393 -0.16168
 H512 H 0.47872 0.29283 -0.27932
 H513 H 0.47752 0.32153 -0.22683
 H514 H 0.50827 0.35964 -0.39420
 H515 H 0.50906 0.33074 -0.44653
 H516 H 0.48385 0.37017 -0.36448
 H517 H 0.48251 0.39889 -0.31301
 H518 H 0.49783 0.38330 -0.12672
 H519 H 0.49963 0.35474 -0.17788
 C520 C 0.72028 0.21494 -0.42820
 C521 C 0.70625 0.20087 -0.40015
 C522 C 0.68929 0.18377 -0.36855
 C523 C 0.67046 0.17299 -0.40095
 C524 C 0.65407 0.15601 -0.37130
 C525 C 0.65631 0.14959 -0.30872
 C526 C 0.67527 0.16062 -0.27635
 C527 C 0.69166 0.17759 -0.30617
 C528 C 0.63899 0.13135 -0.27764
 C529 C 0.63494 0.13133 -0.21038
 C530 C 0.61867 0.11410 -0.18122
 C531 C 0.60625 0.09669 -0.21883
 C532 C 0.61015 0.09657 -0.28573
 C533 C 0.62640 0.11377 -0.31500
 C534 C 0.58954 0.07894 -0.18886
 C535 C 0.57553 0.06401 -0.16405
 H536 H 0.66846 0.17768 -0.44923
 H537 H 0.63959 0.14801 -0.39710
 H538 H 0.67755 0.15589 -0.22853
 H539 H 0.70622 0.18577 -0.28082
 H540 H 0.64420 0.14471 -0.18050
 H541 H 0.61575 0.11437 -0.12940
 H542 H 0.60066 0.08314 -0.31525
 H543 H 0.62929 0.11321 -0.36666
 C544 C 1.21482 0.49317 -0.42882
 C545 C 1.20060 0.49271 -0.40027
 C546 C 1.18326 0.49209 -0.36858
 C547 C 1.16492 0.48508 -0.40319
 C548 C 1.14806 0.48469 -0.37322
 C549 C 1.14932 0.49130 -0.30808
 C550 C 1.16782 0.49826 -0.27359
 C551 C 1.18470 0.49867 -0.30374
 C552 C 1.13140 0.49091 -0.27639
 C553 C 1.12632 0.48445 -0.21106
 C554 C 1.10924 0.48381 -0.18166
 C555 C 1.09707 0.48964 -0.21709
 C556 C 1.10206 0.49619 -0.28194
 C557 C 1.11912 0.49683 -0.31145
 C558 C 1.07933 0.48870 -0.18724
 C559 C 1.06439 0.48785 -0.16263
 H560 H 1.16365 0.47989 -0.45336
 H561 H 1.13395 0.47898 -0.40074
 H562 H 1.16933 0.50366 -0.22366
 H563 H 1.19887 0.50420 -0.27665
 H564 H 1.13534 0.47957 -0.18310
 H565 H 1.10546 0.47866 -0.13147
 H566 H 1.09276 0.50079 -0.30972
 H567 H 1.12280 0.50214 -0.36150
 C568 C 0.50558 0.72047 -0.42932
 C569 C 0.50584 0.70658 -0.40108
 C570 C 0.50629 0.68977 -0.36952
 C571 C 0.51342 0.67850 -0.40391
 C572 C 0.51381 0.66205 -0.37387
 C573 C 0.50708 0.65668 -0.30890
 C574 C 0.49996 0.66814 -0.27467
 C575 C 0.49956 0.68458 -0.30489
 C576 C 0.50757 0.63924 -0.27701
 C577 C 0.51396 0.64069 -0.21155
 C578 C 0.51474 0.62436 -0.18198
 C579 C 0.50913 0.60641 -0.21739
 C580 C 0.50262 0.60478 -0.28237
 C581 C 0.50184 0.62108 -0.31205
 C582 C 0.51023 0.58974 -0.18736
 C583 C 0.51123 0.57576 -0.16259
 H584 H 0.51874 0.68245 -0.45391
 H585 H 0.51964 0.65370 -0.40117
 H586 H 0.49446 0.66422 -0.22488
 H587 H 0.49395 0.69319 -0.27796
 H588 H 0.51869 0.65456 -0.18360
 H589 H 0.51985 0.62580 -0.13168
 H590 H 0.49819 0.59092 -0.31013
 H591 H 0.49660 0.61941 -0.36221
 C592 C 0.27965 -0.21472 -0.43058
 C593 C 0.29351 -0.20079 -0.40141
 C594 C 0.31029 -0.18388 -0.36850
 C595 C 0.32908 -0.17254 -0.40065
 C596 C 0.34533 -0.15577 -0.36961
 C597 C 0.34299 -0.15014 -0.30590
 C598 C 0.32406 -0.16171 -0.27385
 C599 C 0.30781 -0.17848 -0.30502
 C600 C 0.36015 -0.13211 -0.27342
 C601 C 0.35647 -0.11844 -0.23682
 C602 C 0.37269 -0.10123 -0.20738
 C603 C 0.39277 -0.09748 -0.21407
 C604 C 0.39658 -0.11106 -0.24999
 C605 C 0.38038 -0.12827 -0.27951
 C606 C 0.40950 -0.07957 -0.18483
 C607 C 0.42354 -0.06451 -0.16072
 H608 H 0.33112 -0.17657 -0.44991
 H609 H 0.35961 -0.14700 -0.39590
 H610 H 0.32187 -0.15789 -0.22452
 H611 H 0.29332 -0.18719 -0.27973
 H612 H 0.34109 -0.12084 -0.23198
 H613 H 0.36960 -0.09076 -0.17985
 H614 H 0.41208 -0.10831 -0.25532
 H615 H 0.38366 -0.13866 -0.30666
 C616 C 0.50601 -0.21431 0.42862
 C617 C 0.50643 -0.20010 0.40028
 C618 C 0.50704 -0.18279 0.36854
 C619 C 0.49958 -0.18454 0.30475
 C620 C 0.50006 -0.16767 0.27446
 C621 C 0.50797 -0.14887 0.30777
 C622 C 0.51545 -0.14729 0.37187
 C623 C 0.51500 -0.16415 0.40198
 C624 C 0.50846 -0.13094 0.27590
 C625 C 0.50349 -0.11803 0.31166
 C626 C 0.50421 -0.10100 0.28192
 C627 C 0.50989 -0.09664 0.21616
 C628 C 0.51476 -0.10943 0.18005
 C629 C 0.51404 -0.12650 0.20968
 C630 C 0.51088 -0.07893 0.18602
 C631 C 0.51176 -0.06402 0.16122
 H632 H 0.49333 -0.19894 0.27857
 H633 H 0.49397 -0.16942 0.22538
 H634 H 0.52190 -0.13295 0.39842
 H635 H 0.52087 -0.16263 0.45132
 H636 H 0.49887 -0.12122 0.36244
 H637 H 0.50036 -0.09121 0.31023
 H638 H 0.51924 -0.10614 0.12914
 H639 H 0.51818 -0.13601 0.18114
 C640 C 0.27950 0.49447 0.42977
 C641 C 0.29348 0.49454 0.40088
 C642 C 0.31037 0.49453 0.36821
 C643 C 0.32897 0.50151 0.40124
 C644 C 0.34530 0.50105 0.37041
 C645 C 0.34322 0.49360 0.30605
 C646 C 0.32448 0.48672 0.27313
 C647 C 0.30815 0.48719 0.30409
 C648 C 0.36044 0.49277 0.27377
 C649 C 0.35679 0.47569 0.23570
 C650 C 0.37306 0.47474 0.20637
 C651 C 0.39317 0.49083 0.21463
 C652 C 0.39696 0.50794 0.25205
 C653 C 0.38071 0.50892 0.28147
 C654 C 0.40993 0.48968 0.18536
 C655 C 0.42398 0.48867 0.16116
 H656 H 0.33080 0.50715 0.45100
 H657 H 0.35943 0.50618 0.39734
 H658 H 0.32250 0.48113 0.22330
 H659 H 0.29381 0.48177 0.27812
 H660 H 0.34139 0.46291 0.22961
 H661 H 0.36998 0.46140 0.17765
 H662 H 0.41248 0.52050 0.25860
 H663 H 0.38398 0.52238 0.30979
 C664 C 1.21509 0.72069 0.42476
 C665 C 1.20112 0.70678 0.39594
 C666 C 1.18415 0.68991 0.36350
 C667 C 1.17841 0.69232 0.30048
 C668 C 1.16158 0.67599 0.26980
 C669 C 1.15029 0.65705 0.30190
 C670 C 1.15627 0.65477 0.36516
 C671 C 1.17310 0.67111 0.39569
 C672 C 1.13221 0.63979 0.26996
 C673 C 1.12860 0.61964 0.27557
 C674 C 1.11135 0.60335 0.24649
 C675 C 1.09751 0.60699 0.21148
 C676 C 1.10102 0.62699 0.20529
 C677 C 1.11826 0.64330 0.23430
 C678 C 1.07959 0.59019 0.18255
 C679 C 1.06452 0.57609 0.15860
 H680 H 1.18689 0.70683 0.27516
 H681 H 1.15749 0.67813 0.22080
 H682 H 1.14772 0.64048 0.39148
 H683 H 1.17739 0.66912 0.44461
 H684 H 1.13919 0.61649 0.30199
 H685 H 1.10879 0.58793 0.25142
 H686 H 1.09035 0.62995 0.17846
 H687 H 1.12048 0.65860 0.22985
 C688 C 0.49426 0.21480 0.43213
 C689 C 0.49414 0.20080 0.40324
 C690 C 0.49396 0.18380 0.37053
 C691 C 0.48633 0.17852 0.30675
 C692 C 0.48580 0.16171 0.27567
 C693 C 0.49291 0.14997 0.30810
 C694 C 0.50062 0.15546 0.37216
 C695 C 0.50114 0.17227 0.40310
 C696 C 0.49210 0.13194 0.27559
 C697 C 0.50836 0.12792 0.28258
 C698 C 0.50744 0.11076 0.25281
 C699 C 0.49027 0.09740 0.21571
 C700 C 0.47406 0.10131 0.20819
 C701 C 0.47496 0.11847 0.23787
 C702 C 0.48919 0.07957 0.18599
 C703 C 0.48825 0.06457 0.16141
 H704 H 0.48075 0.18736 0.28111
 H705 H 0.48001 0.15802 0.22609
 H706 H 0.50593 0.14656 0.39875
 H707 H 0.50702 0.17619 0.45258
 H708 H 0.52188 0.13814 0.31058
 H709 H 0.52009 0.10789 0.25881
 H710 H 0.46067 0.09102 0.17974
 H711 H 0.46208 0.12100 0.23229
 C712 C 0.72080 0.50679 0.43282
 C713 C 0.70704 0.50734 0.40449
 C714 C 0.69041 0.50810 0.37258
 C715 C 0.67889 0.51489 0.40727
 C716 C 0.66262 0.51557 0.37681
 C717 C 0.65767 0.50947 0.31110
 C718 C 0.66934 0.50265 0.27665
 C719 C 0.68561 0.50197 0.30725
 C720 C 0.64040 0.51023 0.27877
 C721 C 0.62698 0.49435 0.23672
 C722 C 0.61062 0.49502 0.20681
 C723 C 0.60746 0.51156 0.21845
 C724 C 0.62075 0.52745 0.25998
 C725 C 0.63711 0.52681 0.28997
 C726 C 0.59054 0.51219 0.18815
 C727 C 0.57636 0.51279 0.16309
 H728 H 0.68245 0.51962 0.45793
 H729 H 0.65376 0.52062 0.40492
 H730 H 0.66605 0.49808 0.22581
 H731 H 0.69446 0.49672 0.27995
 H732 H 0.62896 0.48127 0.22777
 H733 H 0.60038 0.48260 0.17489
 H734 H 0.61848 0.54035 0.26918
 H735 H 0.64733 0.53940 0.32136
 C736 C 0.78598 0.27958 0.43093
 C737 C 0.80027 0.29336 0.40277
 C738 C 0.81764 0.31002 0.37113
 C739 C 0.83593 0.32144 0.40593
 C740 C 0.85287 0.33772 0.37574
 C741 C 0.85174 0.34279 0.31019
 C742 C 0.83327 0.33122 0.27562
 C743 C 0.81633 0.31493 0.30596
 C744 C 0.86977 0.36007 0.27811
 C745 C 0.86733 0.37356 0.23641
 C746 C 0.88436 0.38991 0.20668
 C747 C 0.90402 0.39296 0.21815
 C748 C 0.90661 0.37960 0.25937
 C749 C 0.88961 0.36326 0.28918
 C750 C 0.92158 0.40983 0.18788
 C751 C 0.93636 0.42395 0.16279
 H752 H 0.83708 0.31779 0.45647
 H753 H 0.86677 0.34651 0.40393
 H754 H 0.83200 0.33460 0.22490
 H755 H 0.80225 0.30616 0.27857
 H756 H 0.85229 0.37166 0.22758
 H757 H 0.88220 0.40020 0.17498
 H758 H 0.92176 0.38179 0.26842
 H759 H 0.89196 0.35298 0.32029
   
