data_POSCAR
  _audit_creation_date              2014-09-24
  _audit_creation_method            'ToBaCCo'
  _symmetry_space_group_name_H-M    'P1'
  _symmetry_Int_Tables_number       1
  _symmetry_cell_setting            triclinic
  loop_
  _symmetry_equiv_pos_as_xyz
 x,y,z
_cell_length_a 39.5871
_cell_length_b 38.5789
_cell_length_c 38.7561
_cell_angle_alpha 89.413500
_cell_angle_beta 88.993100
_cell_angle_gamma 89.555900
loop_
  _atom_site_label
  _atom_site_type_symbol
  _atom_site_fract_x
  _atom_site_fract_y
  _atom_site_fract_z
N1 N 0.30447 0.39046 1.38241
 N2 N 0.30610 0.36478 1.40484
 C3 C 0.27932 0.36660 1.42665
 C4 C 0.25939 0.39488 1.41716
 C5 C 0.27661 0.40952 1.38904
 H6 H 0.27417 0.34770 1.44680
 H7 H 0.26931 0.43179 1.37370
 Cu8 Cu 0.34165 0.32980 1.40159
 Cu9 Cu 0.33719 0.39532 1.34443
 Cu10 Cu 0.36641 0.31447 1.31999
 N11 N 0.36914 0.28956 1.38987
 N12 N 0.37728 0.28288 1.35762
 C13 C 0.39387 0.25241 1.35610
 C14 C 0.39701 0.23935 1.38943
 C15 C 0.38095 0.26390 1.41021
 H16 H 0.40359 0.24132 1.33240
 H17 H 0.37704 0.26282 1.43787
 N18 N 0.36780 0.35556 1.28934
 N19 N 0.35816 0.38681 1.29906
 C20 C 0.36525 0.40965 1.27350
 C21 C 0.38035 0.39188 1.24626
 C22 C 0.38138 0.35760 1.25740
 H23 H 0.36032 0.43719 1.27507
 H24 H 0.39219 0.33569 1.24390
 H25 H 0.32820 0.34433 1.34181
 H26 H 0.37276 0.35466 1.35257
 N27 N 1.18867 0.61621 0.85902
 N28 N 1.18844 0.64043 0.88263
 C29 C 1.21654 0.63709 0.90162
 C30 C 1.23544 0.60936 0.88910
 C31 C 1.21680 0.59677 0.86209
 H32 H 1.22316 0.65406 0.92242
 H33 H 1.22319 0.57509 0.84573
 Cu34 Cu 1.15188 0.67458 0.88490
 Cu35 Cu 1.15324 0.61205 0.82509
 Cu36 Cu 1.08705 0.67119 0.83043
 N37 N 1.11458 0.70790 0.88737
 N38 N 1.08904 0.70583 0.86636
 C39 C 1.06756 0.73239 0.87217
 C40 C 1.08031 0.75275 0.89817
 C41 C 1.11026 0.73606 0.90727
 H42 H 1.04507 0.73712 0.85742
 H43 H 1.12811 0.74409 0.92630
 N44 N 1.08959 0.63444 0.79570
 N45 N 1.11493 0.61215 0.79324
 C46 C 1.11059 0.59237 0.76522
 C47 C 1.08119 0.60287 0.74916
 C48 C 1.06853 0.62948 0.76940
 H49 H 1.12831 0.57284 0.75630
 H50 H 1.04612 0.64484 0.76479
 H51 H 1.13872 0.66359 0.82479
 H52 H 1.11581 0.63397 0.85542
 N53 N 0.71413 -0.10602 0.12109
 N54 N 0.70612 -0.12074 0.09198
 C55 C 0.73138 -0.11598 0.06866
 C56 C 0.75657 -0.09697 0.08400
 C57 C 0.74462 -0.09129 0.11734
 H58 H 0.73120 -0.12529 0.04245
 H59 H 0.75704 -0.07733 0.13748
 Cu60 Cu 0.66352 -0.14476 0.08790
 Cu61 Cu 0.68364 -0.10476 0.16106
 Cu62 Cu 0.60616 -0.14516 0.15275
 N63 N 0.62837 -0.17960 0.09119
 N64 N 0.60564 -0.17971 0.11627
 C65 C 0.58471 -0.20668 0.11210
 C66 C 0.59516 -0.22492 0.08291
 C67 C 0.62302 -0.20659 0.07041
 H68 H 0.56405 -0.21284 0.12965
 H69 H 0.63871 -0.21232 0.04809
 N70 N 0.61872 -0.11935 0.19431
 N71 N 0.64892 -0.10577 0.19813
 C72 C 0.65033 -0.09127 0.22952
 C73 C 0.61950 -0.09564 0.24620
 C74 C 0.60000 -0.11352 0.22309
 H75 H 0.67183 -0.07754 0.23921
 H76 H 0.57427 -0.12208 0.22713
 H77 H 0.65744 -0.14971 0.15019
 H78 H 0.63994 -0.10776 0.13398
 N79 N -0.19125 1.09382 -0.36989
 N80 N -0.19716 1.12282 -0.38687
 C81 C -0.22385 1.11858 -0.40733
 C82 C -0.23535 1.08501 -0.40310
 C83 C -0.21395 1.06996 -0.37920
 H84 H -0.23421 1.13852 -0.42395
 H85 H -0.21567 1.04408 -0.36836
 Cu86 Cu -0.17013 1.16379 -0.38040
 Cu87 Cu -0.15670 1.09082 -0.33467
 Cu88 Cu -0.10084 1.15946 -0.33138
 N89 N -0.13461 1.19788 -0.38454
 N90 N -0.10729 1.19635 -0.36587
 C91 C -0.08731 1.22339 -0.37453
 C92 C -0.10308 1.24302 -0.40014
 C93 C -0.13310 1.22565 -0.40565
 H94 H -0.06331 1.22838 -0.36277
 H95 H -0.15259 1.23227 -0.42375
 N96 N -0.09927 1.11936 -0.29902
 N97 N -0.12032 1.09307 -0.30067
 C98 C -0.11453 1.07113 -0.27414
 C99 C -0.08867 1.08415 -0.25457
 C100 C -0.07956 1.11478 -0.27131
 H101 H -0.12928 1.04825 -0.26848
 H102 H -0.06064 1.13295 -0.26340
 H103 H -0.15026 1.14327 -0.32476
 H104 H -0.12552 1.12481 -0.36203
 N105 N 0.69299 0.58640 0.62257
 N106 N 0.69234 0.60908 0.59701
 C107 C 0.71940 0.60378 0.57615
 C108 C 0.73767 0.57603 0.58919
 C109 C 0.72019 0.56562 0.61865
 H110 H 0.72536 0.61887 0.55320
 H111 H 0.72728 0.54519 0.63649
 Cu112 Cu 0.65638 0.64361 0.59404
 Cu113 Cu 0.66008 0.58774 0.66048
 Cu114 Cu 0.58454 0.62650 0.63753
 N115 N 0.61847 0.67606 0.59399
 N116 N 0.59004 0.66877 0.61039
 C117 C 0.56820 0.69533 0.60659
 C118 C 0.58387 0.72105 0.58709
 C119 C 0.61580 0.70775 0.57942
 H120 H 0.54331 0.69624 0.61849
 H121 H 0.63582 0.72024 0.56476
 N122 N 0.58873 0.59479 0.67723
 N123 N 0.61795 0.58198 0.68739
 C124 C 0.61365 0.56674 0.71851
 C125 C 0.58003 0.57014 0.72836
 C126 C 0.56494 0.58777 0.70143
 H127 H 0.63371 0.55515 0.73341
 H128 H 0.53923 0.59745 0.70084
 H129 H 0.62656 0.59592 0.62309
 H130 H 0.63307 0.63384 0.65174
 N131 N 0.76693 0.38296 0.13747
 N132 N 0.77216 0.36255 0.11090
 C133 C 0.74681 0.36688 0.08852
 C134 C 0.72480 0.39163 0.10163
 C135 C 0.73833 0.40136 0.13270
 H136 H 0.74456 0.35325 0.06444
 H137 H 0.72768 0.41967 0.15091
 Cu138 Cu 0.81133 0.33193 0.10845
 Cu139 Cu 0.79612 0.38165 0.17745
 Cu140 Cu 0.87643 0.34942 0.15949
 N141 N 0.85337 0.30569 0.10549
 N142 N 0.87836 0.31191 0.12638
 C143 C 0.90382 0.28947 0.11988
 C144 C 0.89434 0.26829 0.09324
 C145 C 0.86224 0.27936 0.08460
 H146 H 0.92747 0.28871 0.13345
 H147 H 0.84628 0.26838 0.06524
 N148 N 0.86546 0.37754 0.20029
 N149 N 0.83462 0.38846 0.20805
 C150 C 0.83497 0.40458 0.23871
 C151 C 0.86772 0.40387 0.25071
 C152 C 0.88633 0.38656 0.22564
 H153 H 0.81309 0.41615 0.25123
 H154 H 0.91288 0.37986 0.22638
 H155 H 0.83452 0.37838 0.14292
 H156 H 0.82708 0.33797 0.16876
 N157 N 0.32267 0.10042 0.88548
 N158 N 0.32068 0.12551 0.90815
 C159 C 0.29322 0.12070 0.92855
 C160 C 0.27733 0.09084 0.91838
 C161 C 0.29680 0.07846 0.89109
 H162 H 0.28493 0.13794 0.94887
 H163 H 0.29146 0.05625 0.87535
 Cu164 Cu 0.35279 0.16321 0.90748
 Cu165 Cu 0.35614 0.10066 0.84786
 Cu166 Cu 0.41137 0.17038 0.84449
 N167 N 0.38496 0.20090 0.90673
 N168 N 0.40674 0.20466 0.88101
 C169 C 0.42409 0.23417 0.88534
 C170 C 0.41286 0.24934 0.91569
 C171 C 0.38812 0.22750 0.92863
 H172 H 0.44358 0.24376 0.86791
 H173 H 0.37286 0.23142 0.95169
 N174 N 0.41218 0.13280 0.81026
 N175 N 0.39164 0.10601 0.81175
 C176 C 0.39811 0.08554 0.78439
 C177 C 0.42396 0.10011 0.76463
 C178 C 0.43223 0.13002 0.78201
 H179 H 0.38429 0.06230 0.77869
 H180 H 0.45125 0.14867 0.77452
 H181 H 0.39234 0.12895 0.87272
 H182 H 0.36173 0.15377 0.84585
 N183 N 0.22450 0.87318 0.36644
 N184 N 0.21641 0.86153 0.39745
 C185 C 0.24041 0.87114 0.41964
 C186 C 0.26469 0.89001 0.40138
 C187 C 0.25375 0.89038 0.36766
 H188 H 0.23988 0.86543 0.44702
 H189 H 0.26591 0.90245 0.34548
 Cu190 Cu 0.17511 0.83508 0.40498
 Cu191 Cu 0.19645 0.86616 0.32658
 Cu192 Cu 0.11463 0.84129 0.34552
 N193 N 0.13701 0.80332 0.40513
 N194 N 0.11371 0.80540 0.38139
 C195 C 0.09144 0.77957 0.38637
 C196 C 0.10122 0.76034 0.41488
 C197 C 0.13015 0.77626 0.42627
 H198 H 0.06992 0.77499 0.37025
 H199 H 0.14572 0.76801 0.44754
 N200 N 0.12747 0.86513 0.30225
 N201 N 0.15915 0.87247 0.29423
 C202 C 0.16036 0.88813 0.26308
 C203 C 0.12781 0.89108 0.25097
 C204 C 0.10754 0.87618 0.27651
 H205 H 0.18309 0.89824 0.25095
 H206 H 0.08036 0.87355 0.27641
 H207 H 0.15565 0.87300 0.35844
 H208 H 0.16341 0.82764 0.34376
 Zn209 Zn -0.00632 1.02188 0.05328
 Zn210 Zn 0.05476 0.99380 0.01880
 Zn211 Zn -0.01220 0.98857 -0.01631
 Zn212 Zn 0.02194 1.05746 -0.00864
 O213 O 0.01441 1.01531 0.01160
 O214 O 0.01586 1.00316 0.08877
 O215 O 0.05735 0.95337 -0.00208
 O216 O -0.05248 0.97781 0.00424
 O217 O 0.06227 0.98349 0.06316
 O218 O -0.04686 1.00295 0.05488
 O219 O 0.00812 0.94776 -0.02752
 O220 O 0.00341 1.06077 -0.05001
 O221 O 0.09018 1.01818 0.00326
 O222 O -0.02186 1.01038 -0.05676
 O223 O 0.06591 1.06644 -0.01561
 O224 O 0.00478 1.09288 0.01567
 O225 O -0.01345 1.06644 0.06328
 C226 C 0.04414 0.98760 0.09013
 C227 C 0.03725 0.93596 -0.02002
 C228 C -0.06412 0.98555 0.03405
 C229 C -0.01399 1.04045 -0.06798
 C230 C 0.09214 1.04813 -0.01041
 C231 C -0.00902 1.09379 0.04543
 Zn232 Zn 0.48660 0.00220 0.46489
 Zn233 Zn 0.48671 -0.03547 0.53294
 Zn234 Zn 0.55166 -0.02320 0.49307
 Zn235 Zn 0.51541 0.03587 0.52595
 O236 O 0.51006 -0.00529 0.50429
 O237 O 0.44783 -0.02073 0.46512
 O238 O 0.51044 -0.07456 0.54135
 O239 O 0.55774 -0.02986 0.44747
 O240 O 0.44734 -0.04922 0.51491
 O241 O 0.50881 -0.01193 0.42700
 O242 O 0.55810 -0.06470 0.51226
 O243 O 0.55868 0.04724 0.53094
 O244 O 0.47599 -0.01683 0.57440
 O245 O 0.58596 0.00292 0.50738
 O246 O 0.49742 0.03566 0.56827
 O247 O 0.49578 0.07149 0.50423
 O248 O 0.47547 0.04676 0.45786
 C249 C 0.43363 -0.04136 0.48644
 C250 C 0.53984 -0.08405 0.53140
 C251 C 0.53797 -0.02511 0.42236
 C252 C 0.58603 0.03170 0.52297
 C253 C 0.48162 0.01317 0.58622
 C254 C 0.47988 0.07338 0.47615
 Zn255 Zn 1.01754 0.50472 0.44944
 Zn256 Zn 1.02759 0.46915 0.51769
 Zn257 Zn 0.99162 0.53771 0.51317
 Zn258 Zn 0.95870 0.47406 0.48711
 O259 O 0.99888 0.49630 0.49193
 O260 O 1.05839 0.48585 0.44497
 O261 O 1.03921 0.48960 0.55720
 O262 O 1.00749 0.57412 0.48906
 O263 O 1.06663 0.45924 0.49501
 O264 O 1.02382 0.54982 0.44010
 O265 O 1.01147 0.53947 0.55394
 O266 O 0.92349 0.49846 0.50391
 O267 O 1.00899 0.42851 0.53085
 O268 O 0.94781 0.54657 0.52131
 O269 O 0.95785 0.43302 0.50906
 O270 O 0.94915 0.46535 0.44290
 O271 O 0.99323 0.48783 0.41518
 C272 C 1.07688 0.46799 0.46490
 C273 C 1.03072 0.51865 0.56998
 C274 C 1.02000 0.57641 0.45878
 C275 C 0.92163 0.52847 0.51699
 C276 C 0.97968 0.41631 0.52635
 C277 C 0.96529 0.47193 0.41502
 Zn278 Zn 0.46604 0.51300 0.96047
 Zn279 Zn 0.52595 0.54035 0.99603
 Zn280 Zn 0.45750 0.54688 1.02950
 Zn281 Zn 0.49164 0.47728 1.02284
 O282 O 0.48517 0.51945 1.00231
 O283 O 0.49195 0.52789 0.92543
 O284 O 0.52692 0.58215 1.01475
 O285 O 0.41943 0.55967 1.00769
 O286 O 0.53765 0.54608 0.95147
 O287 O 0.42625 0.53466 0.95687
 O288 O 0.47753 0.58681 1.04200
 O289 O 0.46836 0.47358 1.06216
 O290 O 0.55986 0.51687 1.01548
 O291 O 0.44374 0.52487 1.06864
 O292 O 0.53477 0.46889 1.03374
 O293 O 0.47845 0.44165 0.99720
 O294 O 0.45875 0.46841 0.95100
 C295 C 0.52154 0.54023 0.92413
 C296 C 0.50631 0.59908 1.03365
 C297 C 0.40893 0.55318 0.97762
 C298 C 0.44944 0.49409 1.07923
 C299 C 0.56095 0.48746 1.03033
 C300 C 0.46506 0.44077 0.96774
 C301 C 1.21399 0.38858 0.46090
 C302 C 1.22772 0.40505 0.43119
 C303 C 1.20856 0.43144 0.41519
 C304 C 1.17635 0.44048 0.42781
 C305 C 1.16291 0.42370 0.45749
 C306 C 1.18207 0.39796 0.47398
 C307 C 1.13046 0.43279 0.46991
 C308 C 1.11115 0.45804 0.45253
 C309 C 1.12491 0.47437 0.42292
 C310 C 1.15720 0.46582 0.41080
 H311 H 1.21799 0.44463 0.39227
 H312 H 1.17224 0.38480 0.49682
 H313 H 1.12013 0.41995 0.49272
 H314 H 1.16711 0.47892 0.38796
 H315 H 1.22776 0.36845 0.47437
 H316 H 1.11077 0.49409 0.40914
 C317 C 0.28846 0.57456 0.87976
 C318 C 0.26877 0.59644 0.90099
 C319 C 0.28118 0.60571 0.93344
 C320 C 0.31265 0.59309 0.94453
 C321 C 0.33204 0.57112 0.92285
 C322 C 0.31975 0.56207 0.89054
 C323 C 0.36340 0.55842 0.93379
 C324 C 0.37584 0.56716 0.96633
 C325 C 0.35635 0.58902 0.98778
 C326 C 0.32507 0.60190 0.97696
 H327 H 0.26629 0.62232 0.95027
 H328 H 0.33435 0.54531 0.87357
 H329 H 0.37801 0.54154 0.91693
 H330 H 0.31057 0.61869 0.99399
 H331 H 0.27997 0.56723 0.85451
 H332 H 0.36528 0.59619 1.01295
 C333 C -0.19784 0.90137 0.03767
 C334 C -0.21106 0.91541 0.06849
 C335 C -0.19287 0.94145 0.08493
 C336 C -0.16179 0.95278 0.07146
 C337 C -0.14836 0.93826 0.04077
 C338 C -0.16677 0.91268 0.02394
 C339 C -0.11668 0.94934 0.02785
 C340 C -0.09831 0.97447 0.04564
 C341 C -0.11245 0.98888 0.07588
 C342 C -0.14382 0.97824 0.08858
 H343 H -0.20279 0.95312 0.10831
 H344 H -0.15700 0.90120 0.00036
 H345 H -0.10611 0.93801 0.00454
 H346 H -0.15385 0.98972 0.11206
 H347 H -0.21120 0.88125 0.02440
 H348 H -0.09916 1.00847 0.09002
 C349 C 0.73222 0.03361 0.57694
 C350 C 0.73449 0.06962 0.58126
 C351 C 0.70738 0.09097 0.57123
 C352 C 0.67806 0.07655 0.55777
 C353 C 0.67605 0.04030 0.55334
 C354 C 0.70338 0.01908 0.56279
 C355 C 0.64640 0.02585 0.54044
 C356 C 0.61837 0.04711 0.53306
 C357 C 0.62071 0.08309 0.53755
 C358 C 0.65041 0.09773 0.54943
 H359 H 0.70858 0.11874 0.57492
 H360 H 0.70226 -0.00876 0.55970
 H361 H 0.64466 -0.00199 0.53749
 H362 H 0.65150 0.12555 0.55276
 H363 H 0.75287 0.01668 0.58429
 H364 H 0.59942 0.09992 0.53201
 C365 C 0.42256 0.18313 0.37501
 C366 C 0.41278 0.20811 0.39967
 C367 C 0.41920 0.20110 0.43474
 C368 C 0.43500 0.17005 0.44488
 C369 C 0.44376 0.14498 0.41990
 C370 C 0.43753 0.15183 0.38506
 C371 C 0.45856 0.11346 0.43017
 C372 C 0.46550 0.10701 0.46508
 C373 C 0.45765 0.13254 0.48961
 C374 C 0.44227 0.16367 0.47965
 H375 H 0.41266 0.21994 0.45431
 H376 H 0.44423 0.13297 0.36553
 H377 H 0.46484 0.09404 0.41102
 H378 H 0.43597 0.18270 0.49916
 H379 H 0.41800 0.18710 0.34783
 H380 H 0.46268 0.12809 0.51669
 C381 C 0.88753 0.29096 0.55897
 C382 C 0.90815 0.27380 0.58324
 C383 C 0.93989 0.28839 0.59046
 C384 C 0.95042 0.31934 0.57408
 C385 C 0.92905 0.33614 0.55029
 C386 C 0.89781 0.32165 0.54283
 C387 C 0.93903 0.36737 0.53448
 C388 C 0.97029 0.38235 0.54198
 C389 C 0.99173 0.36516 0.56526
 C390 C 0.98187 0.33399 0.58120
 H391 H 0.95654 0.27594 0.60873
 H392 H 0.88114 0.33419 0.52457
 H393 H 0.92222 0.38014 0.51649
 H394 H 0.99873 0.32150 0.59930
 H395 H 0.86303 0.28119 0.55232
 H396 H 1.01594 0.37607 0.57158
 C397 C 0.03600 0.79788 -0.10121
 C398 C 0.06693 0.78432 -0.08916
 C399 C 0.08461 0.80356 -0.06470
 C400 C 0.07237 0.83576 -0.05338
 C401 C 0.04163 0.84919 -0.06603
 C402 C 0.02351 0.82985 -0.08972
 C403 C 0.02978 0.88181 -0.05499
 C404 C 0.04861 0.90125 -0.03170
 C405 C 0.07909 0.88731 -0.01923
 C406 C 0.09077 0.85495 -0.02986
 H407 H 0.10833 0.79413 -0.05467
 H408 H -0.00020 0.83958 -0.09965
 H409 H 0.00625 0.89216 -0.06480
 H410 H 0.11438 0.84504 -0.01984
 H411 H 0.02116 0.78409 -0.11967
 H412 H 0.09409 0.90146 -0.00108
 C413 C 0.59730 0.72806 1.04084
 C414 C 0.58161 0.74430 1.06946
 C415 C 0.55253 0.72867 1.08438
 C416 C 0.54001 0.69741 1.07139
 C417 C 0.55673 0.68140 1.04325
 C418 C 0.58509 0.69705 1.02804
 C419 C 0.54513 0.64973 1.03089
 C420 C 0.51678 0.63353 1.04609
 C421 C 0.49966 0.65000 1.07354
 C422 C 0.51125 0.68163 1.08616
 H423 H 0.53954 0.74048 1.10612
 H424 H 0.59810 0.68512 1.00631
 H425 H 0.55844 0.63758 1.00946
 H426 H 0.49792 0.69355 1.10768
 H427 H 0.61949 0.73874 1.02825
 H428 H 0.47775 0.63811 1.08570
 C429 C 0.41230 0.38452 1.19038
 C430 C 0.39433 0.40624 1.21330
 C431 C 0.39043 0.44163 1.20460
 C432 C 0.40455 0.45500 1.17372
 C433 C 0.42273 0.43275 1.15132
 C434 C 0.42633 0.39761 1.15979
 C435 C 0.43718 0.44587 1.12076
 C436 C 0.43378 0.48112 1.11184
 C437 C 0.41543 0.50316 1.13407
 C438 C 0.40097 0.49022 1.16481
 H439 H 0.37656 0.45884 1.22168
 H440 H 0.44016 0.38021 1.14279
 H441 H 0.45106 0.42841 1.10385
 H442 H 0.38708 0.50773 1.18161
 H443 H 0.41596 0.35727 1.19597
 H444 H 0.41238 0.53041 1.12779
 C445 C 0.63409 -0.07920 0.30639
 C446 C 0.60962 -0.08299 0.28089
 C447 C 0.57588 -0.07400 0.28854
 C448 C 0.56672 -0.06111 0.32119
 C449 C 0.59145 -0.05789 0.34684
 C450 C 0.62506 -0.06703 0.33915
 C451 C 0.58213 -0.04570 0.37973
 C452 C 0.54843 -0.03619 0.38722
 C453 C 0.52425 -0.03880 0.36121
 C454 C 0.53326 -0.05128 0.32860
 H455 H 0.55688 -0.07637 0.26892
 H456 H 0.64439 -0.06469 0.35843
 H457 H 0.60107 -0.04371 0.39946
 H458 H 0.51400 -0.05340 0.30922
 H459 H 0.66023 -0.08611 0.30116
 H460 H 0.49808 -0.03184 0.36627
 C461 C -0.08395 1.03603 -0.21045
 C462 C -0.07597 1.06999 -0.22131
 C463 C -0.05657 1.09066 -0.19963
 C464 C -0.04583 1.07795 -0.16753
 C465 C -0.05430 1.04396 -0.15673
 C466 C -0.07322 1.02315 -0.17854
 C467 C -0.04388 1.03151 -0.12427
 C468 C -0.02509 1.05274 -0.10248
 C469 C -0.01677 1.08648 -0.11380
 C470 C -0.02700 1.09892 -0.14590
 H471 H -0.05029 1.11694 -0.20726
 H472 H -0.07989 0.99697 -0.17085
 H473 H -0.05048 1.00547 -0.11601
 H474 H -0.02028 1.12505 -0.15374
 H475 H -0.09852 1.01924 -0.22659
 H476 H -0.00234 1.10351 -0.09774
 C477 C 1.04360 0.61089 0.69836
 C478 C 1.06779 0.59081 0.71589
 C479 C 1.07948 0.55971 0.70100
 C480 C 1.06739 0.54907 0.66895
 C481 C 1.04335 0.56976 0.65160
 C482 C 1.03152 0.60049 0.66657
 C483 C 1.03156 0.55956 0.61945
 C484 C 1.04333 0.52877 0.60415
 C485 C 1.06704 0.50812 0.62170
 C486 C 1.07900 0.51821 0.65382
 H487 H 1.09786 0.54373 0.71423
 H488 H 1.01309 0.61665 0.65357
 H489 H 1.01316 0.57572 0.60637
 H490 H 1.09739 0.50194 0.66674
 H491 H 1.03426 0.63509 0.70878
 H492 H 1.07651 0.48426 0.61051
 C493 C 0.77638 0.52583 0.57823
 C494 C 0.76977 0.56155 0.57563
 C495 C 0.79430 0.58349 0.56083
 C496 C 0.82551 0.56997 0.54943
 C497 C 0.83175 0.53386 0.55164
 C498 C 0.80695 0.51201 0.56591
 C499 C 0.86292 0.52033 0.54013
 C500 C 0.88838 0.54256 0.52766
 C501 C 0.88216 0.57843 0.52610
 C502 C 0.85083 0.59199 0.53648
 H503 H 0.78951 0.61116 0.55921
 H504 H 0.81136 0.48432 0.56798
 H505 H 0.86773 0.49266 0.54181
 H506 H 0.84656 0.61973 0.53480
 H507 H 0.75769 0.50853 0.58948
 H508 H 0.90148 0.59595 0.51650
 C509 C 0.67166 0.38089 1.06989
 C510 C 0.69309 0.40412 1.08631
 C511 C 0.68411 0.43932 1.08807
 C512 C 0.65404 0.45133 1.07330
 C513 C 0.63205 0.42759 1.05775
 C514 C 0.64114 0.39244 1.05612
 C515 C 0.60146 0.43946 1.04396
 C516 C 0.59320 0.47491 1.04439
 C517 C 0.61569 0.49843 1.05889
 C518 C 0.64567 0.48670 1.07363
 H519 H 0.70085 0.45741 1.10031
 H520 H 0.62473 0.37393 1.04407
 H521 H 0.58434 0.42126 1.03245
 H522 H 0.66234 0.50528 1.08520
 H523 H 0.67822 0.35363 1.06837
 H524 H 0.60966 0.52586 1.05952
 C525 C 0.23873 1.04137 -0.06802
 C526 C 0.24489 1.07715 -0.06826
 C527 C 0.21967 1.10000 -0.05608
 C528 C 0.18845 1.08733 -0.04416
 C529 C 0.18266 1.05121 -0.04342
 C530 C 0.20799 1.02845 -0.05533
 C531 C 0.15144 1.03855 -0.03139
 C532 C 0.12552 1.06156 -0.02119
 C533 C 0.13136 1.09741 -0.02245
 C534 C 0.16271 1.11019 -0.03347
 H535 H 0.22400 1.12771 -0.05674
 H536 H 0.20391 1.00071 -0.05516
 H537 H 0.14696 1.01085 -0.03093
 H538 H 0.16667 1.13795 -0.03404
 H539 H 0.25789 1.02337 -0.07724
 H540 H 0.11172 1.11556 -0.01467
 C541 C 0.31058 -0.06632 0.39458
 C542 C 0.29527 -0.09281 0.41439
 C543 C 0.30975 -0.10283 0.44594
 C544 C 0.33966 -0.08717 0.45695
 C545 C 0.35492 -0.06104 0.43633
 C546 C 0.34003 -0.05060 0.40543
 C547 C 0.38511 -0.04595 0.44658
 C548 C 0.40077 -0.05660 0.47722
 C549 C 0.38524 -0.08225 0.49796
 C550 C 0.35493 -0.09741 0.48791
 H551 H 0.29830 -0.12323 0.46147
 H552 H 0.35132 -0.03042 0.38946
 H553 H 0.39660 -0.02611 0.43032
 H554 H 0.34364 -0.11736 0.50414
 H555 H 0.29980 -0.05746 0.37058
 H556 H 0.39673 -0.09091 0.52172
 C557 C 0.53576 -0.23623 0.58395
 C558 C 0.57021 -0.24406 0.57843
 C559 C 0.59164 -0.21809 0.56514
 C560 C 0.57898 -0.18490 0.55756
 C561 C 0.54437 -0.17730 0.56334
 C562 C 0.52298 -0.20317 0.57652
 C563 C 0.53173 -0.14408 0.55554
 C564 C 0.55322 -0.11848 0.54161
 C565 C 0.58764 -0.12637 0.53615
 C566 C 0.60042 -0.15921 0.54416
 H567 H 0.61827 -0.22340 0.56092
 H568 H 0.49634 -0.19790 0.58099
 H569 H 0.50510 -0.13841 0.55968
 H570 H 0.62703 -0.16457 0.53961
 H571 H 0.51847 -0.25563 0.59387
 H572 H 0.60479 -0.10713 0.52553
 C573 C 1.08658 0.72067 0.46422
 C574 C 1.08548 0.72839 0.42878
 C575 C 1.07005 0.70500 0.40651
 C576 C 1.05656 0.67380 0.41938
 C577 C 1.05743 0.66644 0.45517
 C578 C 1.07230 0.69016 0.47739
 C579 C 1.04419 0.63512 0.46801
 C580 C 1.03127 0.61045 0.44540
 C581 C 1.03084 0.61784 0.40985
 C582 C 1.04295 0.64945 0.39699
 H583 H 1.06955 0.71052 0.37904
 H584 H 1.07335 0.68486 0.50486
 H585 H 1.04511 0.62937 0.49543
 H586 H 1.04225 0.65457 0.36946
 H587 H 1.09826 0.73842 0.48181
 H588 H 1.02104 0.59913 0.39201
 C589 C -0.08856 1.23172 0.04309
 C590 C -0.08656 1.23891 0.07842
 C591 C -0.06730 1.21713 0.09979
 C592 C -0.05114 1.18766 0.08622
 C593 C -0.05305 1.18075 0.05053
 C594 C -0.07151 1.20315 0.02914
 C595 C -0.03751 1.15089 0.03708
 C596 C -0.02150 1.12704 0.05909
 C597 C -0.01986 1.13396 0.09450
 C598 C -0.03407 1.16434 0.10790
 H599 H -0.06610 1.22231 0.12718
 H600 H -0.07341 1.19814 0.00178
 H601 H -0.03936 1.14531 0.00981
 H602 H -0.03253 1.16911 0.13533
 H603 H -0.10321 1.24835 0.02625
 H604 H -0.00768 1.11573 0.11182
 C605 C 0.42419 0.28629 0.96662
 C606 C 0.42366 0.28241 0.93064
 C607 C 0.43231 0.31061 0.90914
 C608 C 0.44067 0.34265 0.92344
 C609 C 0.44157 0.34616 0.95971
 C610 C 0.43344 0.31778 0.98105
 C611 C 0.45010 0.37813 0.97403
 C612 C 0.45671 0.40698 0.95261
 C613 C 0.45518 0.40338 0.91662
 C614 C 0.44759 0.37141 0.90214
 H615 H 0.43147 0.30792 0.88135
 H616 H 0.43380 0.32006 1.00889
 H617 H 0.45088 0.38075 1.00183
 H618 H 0.44681 0.36926 0.87431
 H619 H 0.41771 0.26480 0.98361
 H620 H 0.46029 0.42526 0.89963
 C621 C 0.52975 0.55525 0.76516
 C622 C 0.56450 0.56199 0.76233
 C623 C 0.58393 0.56275 0.79230
 C624 C 0.56868 0.55754 0.82485
 C625 C 0.53371 0.55066 0.82741
 C626 C 0.51451 0.54937 0.79741
 C627 C 0.51847 0.54536 0.85991
 C628 C 0.53760 0.54719 0.89006
 C629 C 0.57227 0.55452 0.88726
 C630 C 0.58772 0.55951 0.85492
 H631 H 0.61066 0.56848 0.79044
 H632 H 0.48767 0.54415 0.79892
 H633 H 0.49167 0.53986 0.86167
 H634 H 0.61453 0.56490 0.85344
 H635 H 0.51436 0.55447 0.74237
 H636 H 0.58760 0.55592 0.91007
 C637 C 0.45925 0.10969 0.71106
 C638 C 0.43839 0.08778 0.73119
 C639 C 0.43112 0.05445 0.71878
 C640 C 0.44413 0.04350 0.68663
 C641 C 0.46470 0.06608 0.66671
 C642 C 0.47226 0.09896 0.67922
 C643 C 0.47715 0.05566 0.63436
 C644 C 0.46936 0.02285 0.62125
 C645 C 0.44927 0.00028 0.64143
 C646 C 0.43676 0.01052 0.67385
 H647 H 0.41539 0.03701 0.73395
 H648 H 0.48803 0.11657 0.66423
 H649 H 0.49268 0.07341 0.61924
 H650 H 0.42109 -0.00723 0.68876
 H651 H 0.46528 0.13549 0.71948
 H652 H 0.44288 -0.02512 0.63200
 C653 C 0.13970 0.91022 0.19018
 C654 C 0.11720 0.90822 0.21857
 C655 C 0.08489 0.92327 0.21601
 C656 C 0.07520 0.94023 0.18548
 C657 C 0.09788 0.94166 0.15693
 C658 C 0.13007 0.92662 0.15957
 C659 C 0.08791 0.95786 0.12612
 C660 C 0.05556 0.97287 0.12343
 C661 C 0.03350 0.97198 0.15229
 C662 C 0.04320 0.95574 0.18298
 H663 H 0.06749 0.92231 0.23790
 H664 H 0.14780 0.92750 0.13796
 H665 H 0.10524 0.95841 0.10415
 H666 H 0.02554 0.95505 0.20466
 H667 H 0.16467 0.89869 0.19145
 H668 H 0.00841 0.98323 0.15094
 C669 C 0.85842 0.42063 0.31251
 C670 C 0.88021 0.41736 0.28369
 C671 C 0.91433 0.42639 0.28669
 C672 C 0.92670 0.43817 0.31811
 C673 C 0.90480 0.44059 0.34721
 C674 C 0.87065 0.43195 0.34407
 C675 C 0.91746 0.45155 0.37889
 C676 C 0.95164 0.46068 0.38169
 C677 C 0.97296 0.45878 0.35236
 C678 C 0.96066 0.44746 0.32093
 H679 H 0.93128 0.42450 0.26451
 H680 H 0.85344 0.43377 0.36604
 H681 H 0.90070 0.45318 0.40125
 H682 H 0.97775 0.44588 0.29884
 H683 H 0.83206 0.41368 0.31090
 H684 H 0.99939 0.46559 0.35382
   
