data_POSCAR
  _audit_creation_date              2014-09-24
  _audit_creation_method            'ToBaCCo'
  _symmetry_space_group_name_H-M    'P1'
  _symmetry_Int_Tables_number       1
  _symmetry_cell_setting            triclinic
  loop_
  _symmetry_equiv_pos_as_xyz
 x,y,z
_cell_length_a 28.5583
_cell_length_b 28.6034
_cell_length_c 37.0799
_cell_angle_alpha 89.638100
_cell_angle_beta 89.032300
_cell_angle_gamma 89.950900
loop_
  _atom_site_label
  _atom_site_type_symbol
  _atom_site_fract_x
  _atom_site_fract_y
  _atom_site_fract_z
C1 C 0.00465 0.54251 1.01954
 C2 C 0.00179 0.54271 0.98107
 C3 C -0.00037 0.49953 0.96311
 C4 C 0.00238 0.45668 0.98147
 C5 C 0.00739 0.45609 1.01951
 C6 C 0.00808 0.49917 1.03771
 H7 H 0.01075 0.49892 1.06681
 H8 H -0.00254 0.49883 0.93395
 C9 C 0.45620 0.00566 0.51872
 C10 C 0.45677 -0.00049 0.48095
 C11 C 0.49982 -0.00338 0.46233
 C12 C 0.54288 0.00123 0.48010
 C13 C 0.54189 0.00733 0.51823
 C14 C 0.49868 0.00985 0.53674
 H15 H 0.49812 0.01307 0.56587
 H16 H 0.49936 -0.00622 0.43320
 C17 C 0.10036 -0.00154 0.26185
 H18 H 0.10292 -0.00060 0.23271
 C19 C 0.14098 -0.00155 0.28230
 H20 H 0.17499 -0.00074 0.26892
 C21 C 0.05295 -0.00321 0.31499
 H22 H 0.01863 -0.00316 0.32766
 C23 C 0.09269 -0.00323 0.33645
 H24 H 0.08885 -0.00365 0.36557
 N25 N 0.05747 -0.00297 0.27838
 C26 C -0.03513 -0.06369 0.19875
 H27 H -0.06213 -0.03719 0.19762
 C28 C -0.03871 -0.10400 0.17788
 H29 H -0.06843 -0.10856 0.16048
 C30 C 0.03635 -0.09057 0.22314
 H31 H 0.06515 -0.08565 0.24121
 C32 C 0.03411 -0.13136 0.20276
 H33 H 0.06146 -0.15745 0.20492
 Zn34 Zn 0.00432 -0.00239 0.24850
 N35 N 0.00229 -0.05746 0.22047
 C36 C 0.00916 0.04790 0.18189
 N37 N 0.00913 0.05128 0.21850
 C38 C 0.01381 0.09335 0.23501
 C39 C 0.01727 0.13439 0.21456
 C40 C 0.01255 0.08813 0.16042
 C41 C -0.06148 -0.03764 0.29847
 C42 C -0.10246 -0.03833 0.31957
 C43 C -0.12292 0.03723 0.29490
 C44 C -0.08156 0.03653 0.27426
 N45 N -0.05154 -0.00032 0.27672
 H46 H 0.00657 0.01414 0.16924
 H47 H 0.01442 0.09493 0.26414
 H48 H 0.02036 0.16778 0.22793
 H49 H 0.01203 0.08526 0.13131
 H50 H -0.03740 -0.06683 0.29944
 H51 H -0.10998 -0.06805 0.33698
 H52 H -0.14655 0.06675 0.29290
 H53 H -0.07374 0.06531 0.25618
 C54 C -0.00367 -0.13805 0.17986
 C55 C 0.13708 -0.00257 0.31993
 C56 C -0.13336 -0.00047 0.31783
 C57 C 0.01636 0.13176 0.17694
 C58 C -0.01535 0.09674 0.76487
 H59 H -0.01646 0.09871 0.73575
 C60 C -0.01815 0.13756 0.78525
 H61 H -0.02123 0.17115 0.77183
 C62 C -0.00995 0.05060 0.81803
 H63 H -0.00727 0.01666 0.83073
 C64 C -0.01266 0.09059 0.83943
 H65 H -0.01154 0.08735 0.86853
 N66 N -0.01057 0.05444 0.78142
 C67 C 0.05889 -0.03372 0.70116
 H68 H 0.03473 -0.06279 0.70040
 C69 C 0.09970 -0.03434 0.67986
 H70 H 0.10700 -0.06388 0.66250
 C71 C 0.07940 0.04006 0.72508
 H72 H 0.07184 0.06863 0.74315
 C73 C 0.12059 0.04082 0.70425
 H74 H 0.14434 0.07020 0.70607
 Zn75 Zn -0.00628 0.00113 0.75151
 N76 N 0.04926 0.00337 0.72288
 C77 C -0.05569 0.00133 0.68539
 N78 N -0.05980 0.00108 0.72203
 C79 C -0.10252 0.00236 0.73884
 C80 C -0.14337 0.00272 0.71866
 C81 C -0.09568 0.00169 0.66420
 C82 C 0.03388 -0.06092 0.80097
 C83 C 0.03785 -0.10156 0.82180
 C84 C -0.03541 -0.12845 0.79771
 C85 C -0.03803 -0.08733 0.77734
 N86 N -0.00391 -0.05432 0.77963
 H87 H -0.02152 0.00149 0.67250
 H88 H -0.10475 0.00291 0.76799
 H89 H -0.17724 0.00342 0.73226
 H90 H -0.09217 0.00167 0.63506
 H91 H 0.06091 -0.03448 0.80179
 H92 H 0.06789 -0.10644 0.83887
 H93 H -0.06278 -0.15448 0.79584
 H94 H -0.06715 -0.08209 0.75957
 C95 C 0.13074 0.00335 0.68137
 C96 C -0.01648 0.13445 0.82285
 C97 C 0.00280 -0.13556 0.82019
 C98 C -0.13989 0.00221 0.68101
 C99 C 0.02561 -0.36956 0.09173
 C100 C -0.00598 -0.33433 0.08242
 C101 C -0.03505 -0.34028 0.05283
 C102 C -0.03205 -0.38103 0.03228
 C103 C 0.00062 -0.41640 0.04070
 C104 C 0.02873 -0.41031 0.07128
 C105 C -0.00778 -0.29184 0.10297
 C106 C -0.00824 -0.25636 0.12035
 C107 C -0.00765 -0.21500 0.14088
 C108 C -0.00628 -0.17983 0.15856
 H109 H 0.04834 -0.36527 0.11458
 H110 H -0.06002 -0.31341 0.04561
 H111 H -0.05586 -0.38510 0.01010
 H112 H 0.05472 -0.43612 0.07858
 C113 C -0.00922 0.36740 0.09314
 C114 C 0.01771 0.33018 0.08008
 C115 C 0.04238 0.33494 0.04738
 C116 C 0.03958 0.37655 0.02752
 C117 C 0.01150 0.41407 0.03982
 C118 C -0.01211 0.40902 0.07340
 C119 C 0.01940 0.28701 0.10017
 C120 C 0.01990 0.25107 0.11732
 C121 C 0.01952 0.20927 0.13773
 C122 C 0.01845 0.17380 0.15545
 H123 H -0.02851 0.36408 0.11844
 H124 H 0.06389 0.30653 0.03724
 H125 H 0.06048 0.37965 0.00302
 H126 H -0.03462 0.43645 0.08381
 C127 C 0.36021 0.04199 0.58459
 C128 C 0.32860 0.00487 0.58165
 C129 C 0.33873 -0.03207 0.55818
 C130 C 0.38028 -0.03189 0.53771
 C131 C 0.41200 0.00544 0.54032
 C132 C 0.40176 0.04224 0.56411
 C133 C 0.28595 0.00449 0.60289
 C134 C 0.25029 0.00414 0.62075
 C135 C 0.20861 0.00374 0.64174
 C136 C 0.17308 0.00348 0.65976
 H137 H 0.35274 0.07071 0.60272
 H138 H 0.31463 -0.06107 0.55581
 H139 H 0.38783 -0.06097 0.51997
 H140 H 0.42578 0.07129 0.56656
 C141 C -0.34345 -0.03265 0.55848
 C142 C -0.33418 0.00396 0.58221
 C143 C -0.36564 0.04134 0.58530
 C144 C -0.40608 0.04229 0.56460
 C145 C -0.41530 0.00598 0.54039
 C146 C -0.38391 -0.03177 0.53778
 C147 C -0.29238 0.00327 0.60336
 C148 C -0.25740 0.00289 0.62109
 C149 C -0.21647 0.00261 0.64189
 C150 C -0.18154 0.00243 0.65970
 H151 H -0.31943 -0.06183 0.55599
 H152 H -0.35885 0.06980 0.60363
 H153 H -0.42992 0.07161 0.56708
 H154 H -0.39072 -0.06043 0.51965
 C155 C 0.03797 -0.33864 0.94746
 C156 C 0.00896 -0.33331 0.91771
 C157 C -0.02138 -0.36941 0.90837
 C158 C -0.02334 -0.41043 0.92898
 C159 C 0.00466 -0.41592 0.95975
 C160 C 0.03613 -0.37965 0.96816
 C161 C 0.00960 -0.29057 0.89701
 C162 C 0.00923 -0.25486 0.87958
 C163 C 0.00784 -0.21318 0.85906
 C164 C 0.00591 -0.17772 0.84141
 H165 H 0.06201 -0.31110 0.95468
 H166 H -0.04403 -0.36562 0.88538
 H167 H -0.04837 -0.43700 0.92163
 H168 H 0.05992 -0.38319 0.99044
 C169 C 0.02365 0.36343 0.91104
 C170 C -0.01175 0.33123 0.91962
 C171 C -0.04332 0.34044 0.94802
 C172 C -0.03919 0.38153 0.96798
 C173 C -0.00316 0.41356 0.95987
 C174 C 0.02786 0.40445 0.93096
 C175 C -0.01504 0.28856 0.89946
 C176 C -0.01676 0.25296 0.88231
 C177 C -0.01766 0.21149 0.86192
 C178 C -0.01756 0.17626 0.84425
 H179 H 0.04824 0.35667 0.88911
 H180 H -0.07091 0.31580 0.95483
 H181 H -0.06377 0.38822 0.98991
 H182 H 0.05580 0.42874 0.92427
 C183 C -0.36808 -0.02914 0.40882
 C184 C -0.33145 0.00104 0.41725
 C185 C -0.33653 0.03178 0.44620
 C186 C -0.37791 0.03212 0.46687
 C187 C -0.41495 0.00122 0.45924
 C188 C -0.40952 -0.02891 0.42941
 C189 C -0.28880 0.00065 0.39602
 C190 C -0.25311 0.00029 0.37819
 C191 C -0.21139 -0.00010 0.35725
 C192 C -0.17580 -0.00035 0.33931
 H193 H -0.36453 -0.05309 0.38641
 H194 H -0.30865 0.05585 0.45262
 H195 H -0.38133 0.05784 0.48802
 H196 H -0.43662 -0.05366 0.42266
 C197 C 0.36349 -0.03901 0.41600
 C198 C 0.33095 -0.00256 0.41920
 C199 C 0.33948 0.03452 0.44265
 C200 C 0.38039 0.03520 0.46280
 C201 C 0.41308 -0.00140 0.45987
 C202 C 0.40441 -0.03840 0.43616
 C203 C 0.28909 -0.00289 0.39812
 C204 C 0.25413 -0.00295 0.38037
 C205 C 0.21329 -0.00287 0.35946
 C206 C 0.17850 -0.00274 0.34150
 H207 H 0.35727 -0.06783 0.39787
 H208 H 0.31465 0.06301 0.44521
 H209 H 0.38674 0.06443 0.48048
 H210 H 0.42921 -0.06689 0.43347
   
