data_POSCAR
  _audit_creation_date              2014-09-24
  _audit_creation_method            'ToBaCCo'
  _symmetry_space_group_name_H-M    'P1'
  _symmetry_Int_Tables_number       1
  _symmetry_cell_setting            triclinic
  loop_
  _symmetry_equiv_pos_as_xyz
 x,y,z
_cell_length_a 62.3134
_cell_length_b 62.3128
_cell_length_c 22.0310
_cell_angle_alpha 90.000000
_cell_angle_beta 90.000000
_cell_angle_gamma 120.000000
loop_
  _atom_site_label
  _atom_site_type_symbol
  _atom_site_fract_x
  _atom_site_fract_y
  _atom_site_fract_z
C1 C 0.19027 0.47992 0.43950
 C2 C 0.18073 0.48048 0.49924
 C3 C 0.19064 0.48007 0.55833
 C4 C 0.21511 0.47979 0.55637
 C5 C 0.22749 0.47978 0.49925
 C6 C 0.21489 0.47949 0.44179
 C7 C 0.22759 0.47767 0.38960
 C8 C 0.25115 0.47838 0.38993
 C9 C 0.26472 0.47923 0.44280
 C10 C 0.25243 0.47950 0.49969
 C11 C 0.22810 0.47914 0.60914
 C12 C 0.25163 0.47978 0.60946
 C13 C 0.26487 0.47942 0.55694
 C14 C 0.28989 0.47995 0.55909
 C15 C 0.30021 0.48066 0.49972
 C16 C 0.28957 0.47984 0.44094
 H17 H 0.21901 0.47468 0.34585
 H18 H 0.25879 0.47809 0.34616
 H19 H 0.21993 0.47778 0.65298
 H20 H 0.25966 0.48105 0.65352
 H21 H 0.16489 0.48293 0.50046
 H22 H 0.31708 0.47984 0.49862
 C23 C 0.51959 -0.29101 0.55930
 C24 C 0.51843 -0.30161 0.49998
 C25 C 0.51945 -0.29104 0.44072
 C26 C 0.52025 -0.26591 0.44307
 C27 C 0.52027 -0.25347 0.50038
 C28 C 0.52045 -0.26589 0.55738
 C29 C 0.52060 -0.25248 0.61007
 C30 C 0.52147 -0.22884 0.61028
 C31 C 0.52010 -0.21592 0.55806
 C32 C 0.51998 -0.22848 0.50070
 C33 C 0.51997 -0.25262 0.39056
 C34 C 0.52069 -0.22906 0.39082
 C35 C 0.52002 -0.21606 0.44353
 C36 C 0.51973 -0.19155 0.44145
 C37 C 0.51929 -0.18166 0.50056
 C38 C 0.51974 -0.19125 0.56032
 H39 H 0.51972 -0.26040 0.65406
 H40 H 0.52397 -0.22051 0.65419
 H41 H 0.51867 -0.26067 0.34650
 H42 H 0.52208 -0.22089 0.34697
 H43 H 0.51935 -0.31839 0.49992
 H44 H 0.51687 -0.16581 0.49933
 C45 C 1.19048 0.70980 0.44080
 C46 C 1.18035 0.69946 0.49968
 C47 C 1.18983 0.70985 0.55911
 C48 C 1.21430 0.73495 0.55689
 C49 C 1.22700 0.74725 0.49960
 C50 C 1.21491 0.73454 0.44262
 C51 C 1.22878 0.74706 0.38973
 C52 C 1.25209 0.77029 0.38938
 C53 C 1.26479 0.78453 0.44184
 C54 C 1.25217 0.77226 0.49924
 C55 C 1.22781 0.74834 0.60939
 C56 C 1.25080 0.77181 0.60908
 C57 C 1.26460 0.78467 0.55634
 C58 C 1.28963 0.80895 0.55829
 C59 C 1.30007 0.81867 0.49911
 C60 C 1.28979 0.80908 0.43963
 H61 H 1.22189 0.73830 0.34621
 H62 H 1.26074 0.77652 0.34563
 H63 H 1.22094 0.74044 0.65349
 H64 H 1.25760 0.78002 0.65289
 H65 H 1.16258 0.68270 0.49862
 H66 H 1.31755 0.83560 0.49968
 C67 C 0.70944 0.51965 0.56014
 C68 C 0.69919 0.51877 0.50044
 C69 C 0.70972 0.51965 0.44138
 C70 C 0.73459 0.52017 0.44350
 C71 C 0.74668 0.51960 0.50066
 C72 C 0.73455 0.52026 0.55795
 C73 C 0.74963 0.52339 0.60988
 C74 C 0.77277 0.52320 0.60969
 C75 C 0.78457 0.52028 0.55740
 C76 C 0.77176 0.51960 0.50042
 C77 C 0.74910 0.52259 0.39106
 C78 C 0.77229 0.52254 0.39090
 C79 C 0.78441 0.52008 0.44318
 C80 C 0.80876 0.51942 0.44094
 C81 C 0.81829 0.51844 0.50010
 C82 C 0.80887 0.51955 0.55933
 H83 H 0.74455 0.52770 0.65285
 H84 H 0.78217 0.52685 0.65268
 H85 H 0.74318 0.52582 0.34781
 H86 H 0.78135 0.52572 0.34757
 H87 H 0.68076 0.51590 0.49926
 H88 H 0.83406 0.51584 0.50004
 C89 C 0.48008 0.19013 0.44142
 C90 C 0.48065 0.18031 0.50057
 C91 C 0.48010 0.18985 0.56036
 C92 C 0.47963 0.21446 0.55812
 C93 C 0.47985 0.22702 0.50068
 C94 C 0.47970 0.21458 0.44345
 C95 C 0.47859 0.22738 0.39070
 C96 C 0.47904 0.25085 0.39050
 C97 C 0.47937 0.26429 0.44318
 C98 C 0.47955 0.25195 0.50035
 C99 C 0.47784 0.22719 0.61034
 C100 C 0.47842 0.25073 0.61005
 C101 C 0.47918 0.26427 0.55720
 C102 C 0.47949 0.28905 0.55890
 C103 C 0.47997 0.29941 0.49992
 C104 C 0.47962 0.28907 0.44103
 H105 H 0.47677 0.21900 0.34693
 H106 H 0.47912 0.25857 0.34657
 H107 H 0.47492 0.21865 0.65411
 H108 H 0.47808 0.25833 0.65382
 H109 H 0.48320 0.16455 0.49937
 H110 H 0.47922 0.31635 0.49987
 C111 C 0.71052 0.18921 0.56078
 C112 C 0.70037 0.17984 0.50091
 C113 C 0.71053 0.19019 0.44212
 C114 C 0.73503 0.21485 0.44433
 C115 C 0.74765 0.22688 0.50160
 C116 C 0.73572 0.21370 0.55867
 C117 C 0.75118 0.22521 0.61030
 C118 C 0.77443 0.24848 0.61031
 C119 C 0.78592 0.26395 0.55868
 C120 C 0.77274 0.25200 0.50160
 C121 C 0.74762 0.22875 0.39154
 C122 C 0.77086 0.25201 0.39155
 C123 C 0.78475 0.26462 0.44434
 C124 C 0.80938 0.28914 0.44212
 C125 C 0.81973 0.29932 0.50090
 C126 C 0.81039 0.28918 0.56078
 H127 H 0.74644 0.21536 0.65267
 H128 H 0.78427 0.25325 0.65268
 H129 H 0.73909 0.22176 0.34786
 H130 H 0.77784 0.26055 0.34786
 H131 H 0.68296 0.16295 0.49884
 H132 H 0.83662 0.31674 0.49880
 N133 N 0.97150 0.52528 0.07273
 N134 N 0.95363 0.53076 0.08840
 N135 N 1.02762 0.53845 0.11546
 N136 N 1.04447 0.55163 0.15926
 N137 N 1.02783 0.55374 0.07288
 N138 N 1.04510 0.57722 0.08903
 N139 N 0.97240 0.51082 0.11598
 N140 N 0.95575 0.50718 0.16023
 C141 C 0.94334 0.51953 0.14412
 C142 C 1.05615 0.57644 0.14360
 N143 N 1.02854 0.47416 0.07316
 N144 N 1.04639 0.46866 0.08897
 N145 N 0.97235 0.46099 0.11583
 N146 N 0.95550 0.44781 0.15970
 N147 N 0.97212 0.44569 0.07329
 N148 N 0.95486 0.42220 0.08956
 N149 N 1.02764 0.48865 0.11632
 N150 N 1.04428 0.49229 0.16066
 Mn151 Mn 1.00001 0.49973 0.11446
 C152 C 1.05670 0.47992 0.14469
 C153 C 0.94379 0.42297 0.14417
 N154 N 1.02797 0.55392 -0.07402
 N155 N 1.04521 0.57743 -0.09039
 N156 N 0.97249 0.51084 -0.11692
 N157 N 0.95583 0.50718 -0.16114
 N158 N 0.97157 0.52529 -0.07369
 N159 N 0.95369 0.53076 -0.08928
 N160 N 1.02775 0.53863 -0.11662
 N161 N 1.04451 0.55185 -0.16066
 Mn162 Mn 0.99971 0.53948 -0.00051
 C163 C 1.05622 0.57672 -0.14521
 C164 C 0.94341 0.51952 -0.14494
 N165 N 0.97200 0.44574 -0.07350
 N166 N 0.95423 0.42232 -0.08909
 N167 N 1.02768 0.48877 -0.11651
 N168 N 1.04433 0.49245 -0.16073
 N169 N 1.02848 0.47419 -0.07344
 N170 N 1.04632 0.46867 -0.08918
 N171 N 0.97266 0.46103 -0.11669
 N172 N 0.95597 0.44789 -0.16082
 Mn173 Mn 1.00029 0.46000 -0.00014
 Mn174 Mn 1.00015 0.49982 -0.11522
 Cl175 Cl 1.00004 0.49976 -0.00036
 C176 C 0.94374 0.42311 -0.14464
 C177 C 1.05662 0.47999 -0.14479
 N178 N 0.46070 0.48884 0.11469
 N179 N 0.44755 0.49245 0.15868
 N180 N 0.47340 0.44571 0.07242
 N181 N 0.46720 0.42224 0.08880
 N182 N 0.48833 0.46105 0.11511
 N183 N 0.49197 0.44790 0.15914
 N184 N 0.44537 0.47380 0.07216
 N185 N 0.42189 0.46747 0.08856
 C186 C 0.42273 0.47928 0.14317
 C187 C 0.47895 0.42305 0.14359
 N188 N 0.48836 0.46106 -0.11703
 N189 N 0.49200 0.44789 -0.16094
 N190 N 0.44531 0.47384 -0.07443
 N191 N 0.42184 0.46766 -0.09075
 N192 N 0.46064 0.48878 -0.11710
 N193 N 0.44749 0.49237 -0.16119
 N194 N 0.47340 0.44575 -0.07435
 N195 N 0.46716 0.42227 -0.09058
 Mn196 Mn 0.45947 0.45986 -0.00105
 C197 C 0.47893 0.42306 -0.14525
 C198 C 0.42264 0.47935 -0.14562
 N199 N 0.53803 0.51091 0.11556
 N200 N 0.55098 0.50727 0.15992
 N201 N 0.52563 0.55390 0.07254
 N202 N 0.53193 0.57740 0.08901
 N203 N 0.51052 0.53859 0.11502
 N204 N 0.50696 0.55176 0.15910
 N205 N 0.55343 0.52534 0.07235
 N206 N 0.57676 0.53083 0.08814
 Mn207 Mn 0.49937 0.49984 0.11368
 C208 C 0.57574 0.51961 0.14389
 C209 C 0.52014 0.57662 0.14376
 N210 N 0.51058 0.53856 -0.11691
 N211 N 0.50703 0.55175 -0.16089
 N212 N 0.55350 0.52532 -0.07419
 N213 N 0.57686 0.53081 -0.08985
 N214 N 0.53814 0.51089 -0.11747
 N215 N 0.55117 0.50727 -0.16174
 N216 N 0.52567 0.55384 -0.07434
 N217 N 0.53197 0.57734 -0.09064
 Mn218 Mn 0.49942 0.49982 -0.11574
 Mn219 Mn 0.53950 0.53953 -0.00092
 Cl220 Cl 0.49944 0.49978 -0.00102
 C221 C 0.52021 0.57658 -0.14534
 C222 C 0.57594 0.51959 -0.14556
 N223 N 0.44585 -0.02869 0.07310
 N224 N 0.42234 -0.04604 0.08927
 N225 N 0.48883 0.02686 0.11611
 N226 N 0.49247 0.04348 0.16040
 N227 N 0.47436 0.02776 0.07292
 N228 N 0.46886 0.04562 0.08867
 N229 N 0.46112 -0.02840 0.11581
 N230 N 0.44790 -0.04522 0.15977
 C231 C 0.42304 -0.05705 0.14413
 C232 C 0.48009 0.05586 0.14441
 N233 N 0.55403 0.02725 0.07324
 N234 N 0.57751 0.04454 0.08954
 N235 N 0.51106 -0.02824 0.11600
 N236 N 0.50738 -0.04488 0.16028
 N237 N 0.52557 -0.02912 0.07287
 N238 N 0.53107 -0.04697 0.08868
 N239 N 0.53871 0.02700 0.11576
 N240 N 0.55187 0.04385 0.15964
 Mn241 Mn 0.49994 -0.00070 0.11446
 C242 C 0.57672 0.05560 0.14415
 C243 C 0.51980 -0.05724 0.14437
 N244 N 0.47452 0.02793 -0.07378
 N245 N 0.46896 0.04576 -0.08958
 N246 N 0.46150 -0.02786 -0.11685
 N247 N 0.44850 -0.04454 -0.16098
 N248 N 0.44614 -0.02859 -0.07378
 N249 N 0.42277 -0.04641 -0.08946
 N250 N 0.48914 0.02719 -0.11685
 N251 N 0.49277 0.04386 -0.16109
 Mn252 Mn 0.46027 -0.00039 -0.00041
 C253 C 0.48029 0.05618 -0.14518
 C254 C 0.42374 -0.05678 -0.14501
 N255 N 0.52565 -0.02910 -0.07390
 N256 N 0.53111 -0.04700 -0.08966
 N257 N 0.53893 0.02692 -0.11668
 N258 N 0.55208 0.04364 -0.16072
 N259 N 0.55418 0.02749 -0.07353
 N260 N 0.57761 0.04525 -0.08904
 N261 N 0.51117 -0.02820 -0.11710
 N262 N 0.50752 -0.04486 -0.16140
 Mn263 Mn 0.53979 -0.00089 -0.00034
 Mn264 Mn 0.50018 -0.00048 -0.11536
 Cl265 Cl 0.50004 -0.00062 -0.00040
 C266 C 0.51986 -0.05732 -0.14540
 C267 C 0.57684 0.05581 -0.14453
 C268 C 1.13391 0.47765 0.33524
 C269 C 1.14425 0.48332 0.27854
 C270 C 1.16905 0.48846 0.27197
 C271 C 1.18352 0.48768 0.32310
 C272 C 1.17434 0.48065 0.38435
 C273 C 1.14813 0.47581 0.38763
 O274 O 1.11039 0.47442 0.33341
 C275 C 1.10558 0.47795 0.27446
 C276 C 1.12570 0.48313 0.23872
 C277 C 1.12411 0.48656 0.17554
 C278 C 1.10204 0.48479 0.14821
 C279 C 1.08030 0.48033 0.18128
 C280 C 1.08301 0.47695 0.24734
 H281 H 1.17776 0.49395 0.22784
 H282 H 1.20277 0.49448 0.31372
 H283 H 1.13812 0.47008 0.42994
 H284 H 1.13971 0.49038 0.14682
 H285 H 1.10224 0.48751 0.09965
 H286 H 1.06775 0.47328 0.27715
 C287 C 0.51507 0.65259 0.33387
 C288 C 0.52721 0.66499 0.28228
 C289 C 0.53630 0.69094 0.27937
 C290 C 0.53317 0.70456 0.32914
 C291 C 0.52075 0.69359 0.38554
 C292 C 0.51178 0.66627 0.38539
 O293 O 0.50769 0.62783 0.32844
 C294 C 0.51533 0.62436 0.27257
 C295 C 0.52752 0.64667 0.24252
 C296 C 0.53719 0.64714 0.18394
 C297 C 0.53451 0.62491 0.15537
 C298 C 0.52200 0.60058 0.18205
 C299 C 0.51221 0.60117 0.24351
 H300 H 0.54629 0.70097 0.23923
 H301 H 0.54233 0.72441 0.32403
 H302 H 0.50177 0.65530 0.42436
 H303 H 0.54690 0.66460 0.15991
 H304 H 0.54246 0.62688 0.11062
 H305 H 0.50244 0.58399 0.26855
 C306 C 0.34648 -0.13846 0.33355
 C307 C 0.33435 -0.13927 0.28099
 C308 C 0.30854 -0.15673 0.27714
 C309 C 0.29478 -0.17347 0.32695
 C310 C 0.30543 -0.17426 0.38449
 C311 C 0.33264 -0.15537 0.38513
 O312 O 0.37114 -0.12066 0.32895
 C313 C 0.37486 -0.10982 0.27263
 C314 C 0.35278 -0.12053 0.24146
 C315 C 0.35259 -0.11163 0.18226
 C316 C 0.37486 -0.09182 0.15426
 C317 C 0.39899 -0.07940 0.18204
 C318 C 0.39810 -0.08949 0.24412
 H319 H 0.29871 -0.15732 0.23613
 H320 H 0.27503 -0.18481 0.32077
 H321 H 0.34352 -0.15391 0.42469
 H322 H 0.33534 -0.11982 0.15729
 H323 H 0.37307 -0.08614 0.10900
 H324 H 0.41508 -0.08165 0.27010
 C325 C 0.86636 0.52234 0.33376
 C326 C 0.85567 0.51567 0.27750
 C327 C 0.83063 0.50986 0.27109
 C328 C 0.81628 0.51092 0.32204
 C329 C 0.82586 0.51885 0.38247
 C330 C 0.85222 0.52447 0.38586
 O331 O 0.89007 0.52611 0.33179
 C332 C 0.89466 0.52196 0.27320
 C333 C 0.87421 0.51583 0.23782
 C334 C 0.87550 0.51164 0.17497
 C335 C 0.89764 0.51360 0.14763
 C336 C 0.91971 0.51902 0.18046
 C337 C 0.91731 0.52317 0.24615
 H338 H 0.82176 0.50379 0.22728
 H339 H 0.79696 0.50435 0.31344
 H340 H 0.86207 0.53062 0.42837
 H341 H 0.85962 0.50706 0.14654
 H342 H 0.89723 0.51026 0.09932
 H343 H 0.93285 0.52760 0.27568
 C344 C 0.48492 0.34688 0.33133
 C345 C 0.47101 0.33430 0.28173
 C346 C 0.46051 0.30812 0.27992
 C347 C 0.46400 0.29444 0.32888
 C348 C 0.47830 0.30564 0.38279
 C349 C 0.48873 0.33312 0.38187
 O350 O 0.49324 0.37181 0.32514
 C351 C 0.48451 0.37523 0.27076
 C352 C 0.47070 0.35271 0.24242
 C353 C 0.45982 0.35215 0.18549
 C354 C 0.46292 0.37451 0.15679
 C355 C 0.47696 0.39903 0.18185
 C356 C 0.48796 0.39854 0.24166
 H357 H 0.44924 0.29801 0.24132
 H358 H 0.45435 0.27449 0.32504
 H359 H 0.49971 0.34387 0.42012
 H360 H 0.44887 0.33453 0.16283
 H361 H 0.45400 0.37246 0.11333
 H362 H 0.49897 0.41588 0.26534
 C363 C 0.65276 0.13775 0.33202
 C364 C 0.66533 0.13682 0.28195
 C365 C 0.69146 0.15288 0.27980
 C366 C 0.70509 0.16997 0.32898
 C367 C 0.69389 0.17257 0.38352
 C368 C 0.66645 0.15521 0.38276
 O369 O 0.62788 0.12090 0.32608
 C370 C 0.62448 0.10898 0.27138
 C371 C 0.64696 0.11806 0.24259
 C372 C 0.64752 0.10797 0.18531
 C373 C 0.62520 0.08857 0.15674
 C374 C 0.60072 0.07773 0.18226
 C375 C 0.60122 0.08900 0.24240
 H376 H 0.70158 0.15210 0.24074
 H377 H 0.72502 0.18069 0.32477
 H378 H 0.65564 0.15511 0.42124
 H379 H 0.66510 0.11493 0.16227
 H380 H 0.62724 0.08188 0.11300
 H381 H 0.58391 0.08238 0.26645
 C382 C 0.47793 0.13346 -0.33553
 C383 C 0.48354 0.14375 -0.27877
 C384 C 0.48859 0.16853 -0.27212
 C385 C 0.48781 0.18302 -0.32320
 C386 C 0.48085 0.17390 -0.38452
 C387 C 0.47608 0.14771 -0.38789
 O388 O 0.47477 0.10996 -0.33378
 C389 C 0.47827 0.10511 -0.27483
 C390 C 0.48337 0.12518 -0.23901
 C391 C 0.48675 0.12355 -0.17582
 C392 C 0.48502 0.10148 -0.14857
 C393 C 0.48065 0.07978 -0.18170
 C394 C 0.47732 0.08254 -0.24778
 H395 H 0.49402 0.17720 -0.22793
 H396 H 0.49453 0.20224 -0.31371
 H397 H 0.47041 0.13772 -0.43024
 H398 H 0.49050 0.13911 -0.14702
 H399 H 0.48771 0.10165 -0.10000
 H400 H 0.47371 0.06733 -0.27767
 C401 C 0.65527 0.52167 -0.33582
 C402 C 0.66037 0.51668 -0.27883
 C403 C 0.68042 0.51213 -0.27196
 C404 C 0.69558 0.51277 -0.32313
 C405 C 0.69290 0.51906 -0.38472
 C406 C 0.67121 0.52337 -0.38826
 O407 O 0.63472 0.52445 -0.33422
 C408 C 0.62663 0.52133 -0.27513
 C409 C 0.64198 0.51684 -0.23908
 C410 C 0.63727 0.51394 -0.17574
 C411 C 0.61685 0.51552 -0.14860
 C412 C 0.59917 0.51926 -0.18199
 C413 C 0.60494 0.52212 -0.24817
 H414 H 0.68403 0.50723 -0.22751
 H415 H 0.70855 0.50662 -0.31346
 H416 H 0.66655 0.52856 -0.43082
 H417 H 0.64938 0.51068 -0.14679
 H418 H 0.61456 0.51323 -0.09990
 H419 H 0.59305 0.52525 -0.27820
 C420 C 0.86646 0.34373 -0.33503
 C421 C 0.85672 0.33805 -0.27774
 C422 C 0.83239 0.31751 -0.27069
 C423 C 0.81782 0.30245 -0.32198
 C424 C 0.82646 0.30570 -0.38402
 C425 C 0.85218 0.32794 -0.38765
 O426 O 0.88952 0.36467 -0.33360
 C427 C 0.89469 0.37243 -0.27431
 C428 C 0.87525 0.35649 -0.23797
 C429 C 0.87737 0.36083 -0.17443
 C430 C 0.89927 0.38146 -0.14741
 C431 C 0.92028 0.39972 -0.18103
 C432 C 0.91703 0.39431 -0.24740
 H433 H 0.82413 0.31340 -0.22594
 H434 H 0.79889 0.28900 -0.31189
 H435 H 0.86189 0.33330 -0.43032
 H436 H 0.86233 0.34827 -0.14523
 H437 H 0.89952 0.38342 -0.09856
 H438 H 0.93172 0.40665 -0.27767
 C439 C 0.52212 -0.13472 -0.33562
 C440 C 0.51624 -0.14508 -0.27897
 C441 C 0.51093 -0.16995 -0.27237
 C442 C 0.51173 -0.18445 -0.32339
 C443 C 0.51898 -0.17527 -0.38459
 C444 C 0.52399 -0.14899 -0.38791
 O445 O 0.52549 -0.11114 -0.33385
 C446 C 0.52185 -0.10631 -0.27498
 C447 C 0.51644 -0.12649 -0.23924
 C448 C 0.51287 -0.12491 -0.17613
 C449 C 0.51471 -0.10279 -0.14887
 C450 C 0.51939 -0.08098 -0.18193
 C451 C 0.52292 -0.08368 -0.24794
 H452 H 0.50526 -0.17867 -0.22829
 H453 H 0.50476 -0.20372 -0.31399
 H454 H 0.52988 -0.13897 -0.43018
 H455 H 0.50888 -0.14056 -0.14739
 H456 H 0.51186 -0.10301 -0.10036
 H457 H 0.52677 -0.06838 -0.27777
 C458 C 0.34641 0.48428 -0.33497
 C459 C 0.33416 0.47245 -0.28297
 C460 C 0.30827 0.46357 -0.27950
 C461 C 0.29454 0.46660 -0.32916
 C462 C 0.30536 0.47870 -0.38595
 C463 C 0.33262 0.48746 -0.38639
 O464 O 0.37114 0.49149 -0.33002
 C465 C 0.37474 0.48406 -0.27402
 C466 C 0.35254 0.47216 -0.24343
 C467 C 0.35219 0.46272 -0.18465
 C468 C 0.37445 0.46534 -0.15640
 C469 C 0.39867 0.47756 -0.18365
 C470 C 0.39795 0.48711 -0.24530
 H471 H 0.29835 0.45382 -0.23901
 H472 H 0.27472 0.45760 -0.32360
 H473 H 0.34347 0.49721 -0.42574
 H474 H 0.33482 0.45325 -0.16021
 H475 H 0.37258 0.45759 -0.11146
 H476 H 0.41505 0.49665 -0.27075
 C477 C 1.13748 0.65320 -0.33485
 C478 C 1.13785 0.66543 -0.28285
 C479 C 1.15485 0.69135 -0.27944
 C480 C 1.17164 0.70511 -0.32910
 C481 C 1.17300 0.69434 -0.38593
 C482 C 1.15449 0.66705 -0.38631
 O483 O 1.11998 0.62845 -0.32985
 C484 C 1.10891 0.62481 -0.27383
 C485 C 1.11918 0.64701 -0.24327
 C486 C 1.11003 0.64731 -0.18448
 C487 C 1.09040 0.62502 -0.15621
 C488 C 1.07842 0.60077 -0.18336
 C489 C 1.08876 0.60155 -0.24505
 H490 H 1.15500 0.70126 -0.23897
 H491 H 1.18244 0.72492 -0.32346
 H492 H 1.15342 0.65621 -0.42566
 H493 H 1.11788 0.66467 -0.16003
 H494 H 1.08449 0.62688 -0.11128
 H495 H 1.08125 0.58445 -0.27050
 C496 C 0.86643 0.52239 -0.33397
 C497 C 0.85581 0.51584 -0.27761
 C498 C 0.83083 0.51017 -0.27097
 C499 C 0.81645 0.51123 -0.32184
 C500 C 0.82598 0.51901 -0.38235
 C501 C 0.85228 0.52451 -0.38597
 O502 O 0.89009 0.52604 -0.33219
 C503 C 0.89472 0.52195 -0.27362
 C504 C 0.87435 0.51596 -0.23806
 C505 C 0.87569 0.51185 -0.17522
 C506 C 0.89781 0.51375 -0.14804
 C507 C 0.91980 0.51902 -0.18109
 C508 C 0.91735 0.52309 -0.24675
 H509 H 0.82202 0.50422 -0.22706
 H510 H 0.79717 0.50481 -0.31313
 H511 H 0.86209 0.53056 -0.42855
 H512 H 0.85987 0.50740 -0.14667
 H513 H 0.89748 0.51048 -0.09971
 H514 H 0.93283 0.52742 -0.27639
 C515 C 0.48493 0.34685 -0.33188
 C516 C 0.47067 0.33428 -0.28274
 C517 C 0.45985 0.30807 -0.28107
 C518 C 0.46339 0.29436 -0.32979
 C519 C 0.47809 0.30558 -0.38313
 C520 C 0.48882 0.33308 -0.38211
 O521 O 0.49349 0.37181 -0.32562
 C522 C 0.48455 0.37524 -0.27162
 C523 C 0.47039 0.35271 -0.24361
 C524 C 0.45926 0.35213 -0.18710
 C525 C 0.46248 0.37453 -0.15845
 C526 C 0.47686 0.39905 -0.18327
 C527 C 0.48811 0.39857 -0.24263
 H528 H 0.44828 0.29798 -0.24285
 H529 H 0.45345 0.27440 -0.32627
 H530 H 0.50008 0.34380 -0.42006
 H531 H 0.44804 0.33450 -0.16473
 H532 H 0.45337 0.37252 -0.11529
 H533 H 0.49938 0.41593 -0.26602
 C534 C 0.65610 0.13311 -0.33494
 C535 C 0.66177 0.14287 -0.27767
 C536 C 0.68226 0.16723 -0.27067
 C537 C 0.69729 0.18181 -0.32199
 C538 C 0.69404 0.17313 -0.38400
 C539 C 0.67186 0.14739 -0.38758
 O540 O 0.63520 0.11003 -0.33347
 C541 C 0.62746 0.10486 -0.27417
 C542 C 0.64337 0.12433 -0.23786
 C543 C 0.63904 0.12223 -0.17432
 C544 C 0.61845 0.10031 -0.14726
 C545 C 0.60022 0.07928 -0.18087
 C546 C 0.60561 0.08251 -0.24724
 H547 H 0.68635 0.17551 -0.22594
 H548 H 0.71068 0.20076 -0.31195
 H549 H 0.66652 0.13766 -0.43024
 H550 H 0.65158 0.13729 -0.14515
 H551 H 0.61649 0.10007 -0.09842
 H552 H 0.59329 0.06780 -0.27748
 C553 C 1.13306 0.47634 -0.33379
 C554 C 1.14449 0.48518 -0.27897
 C555 C 1.17001 0.49267 -0.27379
 C556 C 1.18411 0.49111 -0.32456
 C557 C 1.17382 0.48096 -0.38323
 C558 C 1.14700 0.47370 -0.38552
 O559 O 1.10891 0.47122 -0.33093
 C560 C 1.10481 0.47669 -0.27319
 C561 C 1.12602 0.48501 -0.23920
 C562 C 1.12542 0.49091 -0.17729
 C563 C 1.10317 0.48843 -0.14945
 C564 C 1.08030 0.48075 -0.18105
 C565 C 1.08199 0.47489 -0.24578
 H566 H 1.17940 0.50047 -0.23130
 H567 H 1.20375 0.49915 -0.31751
 H568 H 1.13672 0.46592 -0.42692
 H569 H 1.14193 0.49724 -0.14998
 H570 H 1.10409 0.49320 -0.10190
 H571 H 1.06582 0.46874 -0.27425
 C572 C 0.51508 0.65259 -0.33438
 C573 C 0.52757 0.66500 -0.28314
 C574 C 0.53698 0.69099 -0.28029
 C575 C 0.53380 0.70464 -0.32983
 C576 C 0.52098 0.69364 -0.38577
 C577 C 0.51171 0.66629 -0.38562
 O578 O 0.50748 0.62780 -0.32894
 C579 C 0.51532 0.62432 -0.27339
 C580 C 0.52785 0.64666 -0.24357
 C581 C 0.53776 0.64715 -0.18533
 C582 C 0.53497 0.62488 -0.15684
 C583 C 0.52213 0.60055 -0.18339
 C584 C 0.51211 0.60111 -0.24446
 H585 H 0.54726 0.70102 -0.24045
 H586 H 0.54327 0.72452 -0.32500
 H587 H 0.50143 0.65533 -0.42435
 H588 H 0.54772 0.66463 -0.16152
 H589 H 0.54309 0.62682 -0.11233
 H590 H 0.50208 0.58390 -0.26929
 C591 C 0.34362 -0.13337 -0.33393
 C592 C 0.34076 -0.14467 -0.27881
 C593 C 0.32249 -0.17010 -0.27337
 C594 C 0.30686 -0.18426 -0.32418
 C595 C 0.30730 -0.17410 -0.38324
 C596 C 0.32709 -0.14735 -0.38572
 O597 O 0.36283 -0.10930 -0.33130
 C598 C 0.37225 -0.10510 -0.27340
 C599 C 0.35910 -0.12617 -0.23908
 C600 C 0.36543 -0.12543 -0.17698
 C601 C 0.38529 -0.10318 -0.14930
 C602 C 0.40075 -0.08046 -0.18121
 C603 C 0.39336 -0.08230 -0.24612
 H604 H 0.32066 -0.17941 -0.23061
 H605 H 0.29505 -0.20385 -0.31682
 H606 H 0.32983 -0.13708 -0.42722
 H607 H 0.35503 -0.14182 -0.14940
 H608 H 0.38898 -0.10400 -0.10159
 H609 H 0.40359 -0.06625 -0.27485
 C610 C 0.52336 -0.13387 0.33361
 C611 C 0.51476 -0.14520 0.27858
 C612 C 0.50748 -0.17067 0.27325
 C613 C 0.50899 -0.18483 0.32402
 C614 C 0.51888 -0.17465 0.38297
 C615 C 0.52595 -0.14786 0.38538
 O616 O 0.52831 -0.10976 0.33087
 C617 C 0.52299 -0.10558 0.27301
 C618 C 0.51492 -0.12670 0.23883
 C619 C 0.50921 -0.12600 0.17679
 C620 C 0.51163 -0.10375 0.14902
 C621 C 0.51905 -0.08095 0.18075
 C622 C 0.52473 -0.08275 0.24564
 H623 H 0.49987 -0.18001 0.23058
 H624 H 0.50111 -0.20443 0.31671
 H625 H 0.53354 -0.13763 0.42692
 H626 H 0.50309 -0.14243 0.14930
 H627 H 0.50703 -0.10462 0.10137
 H628 H 0.53069 -0.06665 0.27427
 C629 C 0.34703 0.48539 0.33063
 C630 C 0.33429 0.47075 0.28213
 C631 C 0.30806 0.45962 0.28122
 C632 C 0.29450 0.46325 0.33009
 C633 C 0.30590 0.47836 0.38273
 C634 C 0.33341 0.48939 0.38095
 O635 O 0.37200 0.49417 0.32372
 C636 C 0.37525 0.48500 0.26994
 C637 C 0.35262 0.47047 0.24271
 C638 C 0.35187 0.45906 0.18652
 C639 C 0.37421 0.46238 0.15741
 C640 C 0.39880 0.47712 0.18148
 C641 C 0.39851 0.48864 0.24050
 H642 H 0.29786 0.44774 0.24353
 H643 H 0.27451 0.45307 0.32730
 H644 H 0.34425 0.50096 0.41837
 H645 H 0.33415 0.44756 0.16479
 H646 H 0.37209 0.45305 0.11452
 H647 H 0.41596 0.50019 0.26326
 C648 C 1.13810 0.65224 0.33112
 C649 C 1.13713 0.66485 0.28116
 C650 C 1.15311 0.69097 0.27901
 C651 C 1.17019 0.70456 0.32813
 C652 C 1.17282 0.69329 0.38247
 C653 C 1.15554 0.66589 0.38179
 O654 O 1.12130 0.62737 0.32516
 C655 C 1.10938 0.62403 0.27054
 C656 C 1.11841 0.64652 0.24183
 C657 C 1.10833 0.64715 0.18464
 C658 C 1.08896 0.62485 0.15605
 C659 C 1.07820 0.60039 0.18155
 C660 C 1.08945 0.60081 0.24156
 H661 H 1.15227 0.70109 0.24003
 H662 H 1.18087 0.72450 0.32405
 H663 H 1.15550 0.65512 0.42030
 H664 H 1.11526 0.66475 0.16172
 H665 H 1.08224 0.62689 0.11236
 H666 H 1.08286 0.58347 0.26549
 C667 C 0.47662 0.13249 0.33372
 C668 C 0.48483 0.14372 0.27843
 C669 C 0.49181 0.16910 0.27287
 C670 C 0.49038 0.18328 0.32369
 C671 C 0.48088 0.17320 0.38294
 C672 C 0.47411 0.14649 0.38557
 O673 O 0.47191 0.10846 0.33115
 C674 C 0.47701 0.10422 0.27313
 C675 C 0.48469 0.12522 0.23869
 C676 C 0.49010 0.12441 0.17647
 C677 C 0.48779 0.10219 0.14879
 C678 C 0.48077 0.07954 0.18077
 C679 C 0.47540 0.08144 0.24583
 H680 H 0.49911 0.17836 0.22996
 H681 H 0.49799 0.20283 0.31612
 H682 H 0.46679 0.13632 0.42731
 H683 H 0.49591 0.14075 0.14878
 H684 H 0.49214 0.10298 0.10099
 H685 H 0.46975 0.06545 0.27465
 C686 C 0.65543 0.52278 0.33369
 C687 C 0.65911 0.51547 0.27787
 C688 C 0.67803 0.50921 0.27191
 C689 C 0.69347 0.51044 0.32292
 C690 C 0.69215 0.51901 0.38281
 C691 C 0.67174 0.52509 0.38576
 O692 O 0.63574 0.52691 0.33136
 C693 C 0.62682 0.52236 0.27297
 C694 C 0.64078 0.51560 0.23806
 C695 C 0.63507 0.51089 0.17545
 C696 C 0.61502 0.51298 0.14785
 C697 C 0.59876 0.51904 0.18029
 C698 C 0.60552 0.52371 0.24572
 H699 H 0.68054 0.50265 0.22849
 H700 H 0.70596 0.50351 0.31491
 H701 H 0.66835 0.53174 0.42791
 H702 H 0.64610 0.50583 0.14740
 H703 H 0.61186 0.50922 0.09973
 H704 H 0.59468 0.52863 0.27487
 C705 C 0.86172 0.34690 0.33199
 C706 C 0.86270 0.33433 0.28197
 C707 C 0.84669 0.30819 0.27986
 C708 C 0.82960 0.29456 0.32904
 C709 C 0.82698 0.30576 0.38352
 C710 C 0.84428 0.33321 0.38273
 O711 O 0.87853 0.37179 0.32603
 C712 C 0.89047 0.37519 0.27136
 C713 C 0.88143 0.35271 0.24261
 C714 C 0.89154 0.35215 0.18535
 C715 C 0.91091 0.37448 0.15677
 C716 C 0.92170 0.39896 0.18226
 C717 C 0.91041 0.39846 0.24236
 H718 H 0.84750 0.29808 0.24084
 H719 H 0.81892 0.27462 0.32487
 H720 H 0.84434 0.34401 0.42117
 H721 H 0.88462 0.33456 0.16236
 H722 H 0.91762 0.37245 0.11305
 H723 H 0.91700 0.41577 0.26638
   
