data_POSCAR
  _audit_creation_date              2014-09-24
  _audit_creation_method            'ToBaCCo'
  _symmetry_space_group_name_H-M    'P1'
  _symmetry_Int_Tables_number       1
  _symmetry_cell_setting            triclinic
  loop_
  _symmetry_equiv_pos_as_xyz
 x,y,z
_cell_length_a 34.5783
_cell_length_b 34.5687
_cell_length_c 38.4685
_cell_angle_alpha 90.076800
_cell_angle_beta 89.960800
_cell_angle_gamma 120.040300
loop_
  _atom_site_label
  _atom_site_type_symbol
  _atom_site_fract_x
  _atom_site_fract_y
  _atom_site_fract_z
O1 O 0.04262 0.55229 1.28362
 O2 O -0.04420 0.50874 1.21568
 O3 O -0.04428 0.50862 1.28339
 O4 O 0.04271 0.55304 1.21592
 O5 O 0.04318 0.48948 1.21548
 O6 O -0.04386 0.44503 1.28305
 O7 O -0.04372 0.44525 1.21535
 O8 O 0.04303 0.48870 1.28317
 Cu9 Cu -0.00084 0.53704 1.24969
 Cu10 Cu -0.00030 0.46074 1.24922
 C11 C 0.05765 0.52789 1.29507
 C12 C -0.05886 0.46949 1.20376
 C13 C -0.05891 0.46926 1.29485
 C14 C 0.05780 0.52888 1.20409
 O15 O 0.44712 0.49128 1.28467
 O16 O 0.49069 0.44784 1.21675
 O17 O 0.49061 0.44784 1.28446
 O18 O 0.44642 0.49048 1.21694
 O19 O 0.51001 0.55455 1.21666
 O20 O 0.55423 0.51187 1.28430
 O21 O 0.55426 0.51191 1.21659
 O22 O 0.51069 0.55524 1.28439
 Cu23 Cu 0.46234 0.46296 1.25073
 Cu24 Cu 0.53866 0.53980 1.25047
 C25 C 0.47146 0.53074 1.29628
 C26 C 0.52996 0.47250 1.20500
 C27 C 0.52995 0.47253 1.29600
 C28 C 0.47064 0.52976 1.20516
 O29 O 0.50885 0.95655 1.28518
 O30 O 0.55254 1.04347 1.21733
 O31 O 0.55234 1.04353 1.28506
 O32 O 0.50964 0.95653 1.21745
 O33 O 0.44569 0.95617 1.21707
 O34 O 0.48848 1.04323 1.28478
 O35 O 0.48858 1.04311 1.21705
 O36 O 0.44499 0.95625 1.28480
 Cu37 Cu 0.53723 1.00005 1.25130
 Cu38 Cu 0.46054 0.99966 1.25090
 C39 C 0.46939 0.94147 1.29673
 C40 C 0.52798 1.05812 1.20551
 C41 C 0.52778 1.05834 1.29662
 C42 C 0.47040 0.94151 1.20560
 O43 O 0.95732 0.51162 0.71575
 O44 O 1.04442 0.55440 0.78336
 O45 O 1.04427 0.55508 0.71563
 O46 O 0.95748 0.51160 0.78349
 O47 O 0.95705 0.44760 0.78315
 O48 O 1.04393 0.49118 0.71516
 O49 O 1.04400 0.49040 0.78290
 O50 O 0.95697 0.44765 0.71540
 Cu51 Cu 1.00091 0.53957 0.74960
 Cu52 Cu 1.00045 0.46281 0.74910
 C53 C 0.94227 0.47230 0.70396
 C54 C 1.05906 0.52967 0.79476
 C55 C 1.05902 0.53064 0.70363
 C56 C 0.94244 0.47220 0.79501
 O57 O 0.48855 0.44517 0.71632
 O58 O 0.44611 0.48971 0.78400
 O59 O 0.44537 0.48887 0.71630
 O60 O 0.48868 0.44541 0.78402
 O61 O 0.55278 0.50896 0.78375
 O62 O 0.50944 0.55245 0.71590
 O63 O 0.51022 0.55327 0.78362
 O64 O 0.55262 0.50876 0.71603
 Cu65 Cu 0.46075 0.46092 0.75019
 Cu66 Cu 0.53769 0.53723 0.74979
 C67 C 0.52785 0.46939 0.70454
 C68 C 0.47095 0.52912 0.79545
 C69 C 0.46997 0.52805 0.70444
 C70 C 0.52810 0.46974 0.79555
 O71 O 0.55455 0.04267 0.71579
 O72 O 0.51040 -0.04424 0.78342
 O73 O 0.51099 -0.04426 0.71570
 O74 O 0.55453 0.04267 0.78350
 O75 O 0.49093 0.04304 0.78335
 O76 O 0.44742 -0.04397 0.71544
 O77 O 0.44680 -0.04389 0.78316
 O78 O 0.49092 0.04297 0.71563
 Cu79 Cu 0.53899 -0.00083 0.74962
 Cu80 Cu 0.46265 -0.00043 0.74937
 C81 C 0.53025 0.05766 0.70408
 C82 C 0.47105 -0.05887 0.79494
 C83 C 0.47176 -0.05904 0.70381
 C84 C 0.53019 0.05770 0.79511
 O85 O 0.39922 0.66912 0.96040
 O86 O 0.40110 0.74452 0.97099
 C87 C 0.37318 0.75056 0.95388
 O88 O 0.33173 0.73039 0.96021
 O89 O 0.25624 0.65686 0.97058
 C90 C 0.25022 0.62281 0.95353
 O91 O 0.27036 0.60155 0.96001
 O92 O 0.34381 0.59966 0.97081
 C93 C 0.37796 0.62769 0.95390
 O94 O 0.40079 0.65688 1.02957
 O95 O 0.39885 0.73037 1.04016
 C96 C 0.37757 0.75052 1.04653
 O97 O 0.34360 0.74446 1.02941
 O98 O 0.27003 0.66899 1.03977
 C99 C 0.24983 0.62754 1.04613
 O100 O 0.25597 0.59957 1.02912
 O101 O 0.33132 0.60148 1.03994
 C102 C 0.37272 0.62277 1.04649
 Cr103 Cr 0.39751 0.69898 1.00027
 Cr104 Cr 0.30164 0.69894 1.00000
 Cr105 Cr 0.30161 0.60305 0.99997
 O106 O 0.33359 0.66699 1.00009
 O107 O 0.60133 0.33129 0.96063
 O108 O 0.59949 0.25582 0.97086
 C109 C 0.62739 0.24945 0.95399
 O110 O 0.66880 0.26946 0.96053
 O111 O 0.74434 0.34317 0.97067
 C112 C 0.75072 0.37746 0.95385
 O113 O 0.73075 0.39888 0.96047
 O114 O 0.65711 0.40069 0.97077
 C115 C 0.62275 0.37269 0.95401
 O116 O 0.59962 0.34324 1.02990
 O117 O 0.60147 0.26961 1.04014
 C118 C 0.62287 0.24963 1.04670
 O119 O 0.65715 0.25598 1.02983
 O120 O 0.73084 0.33154 1.03996
 C121 C 0.75083 0.37296 1.04654
 O122 O 0.74444 0.40087 1.02975
 O123 O 0.66897 0.39904 1.04004
 C124 C 0.62757 0.37763 1.04667
 Cr125 Cr 0.60302 0.30126 1.00038
 Cr126 Cr 0.69901 0.30131 1.00025
 Cr127 Cr 0.69905 0.39733 1.00026
 O128 O 0.66703 0.33330 1.00031
 O129 O 0.65622 0.40015 0.52910
 O130 O 0.72972 0.39830 0.53965
 C131 C 0.75000 0.37715 0.54597
 O132 O 0.74391 0.34308 0.52891
 O133 O 0.66846 0.26955 0.53951
 C134 C 0.62702 0.24926 0.54588
 O135 O 0.59901 0.25527 0.52886
 O136 O 0.60091 0.33067 0.53960
 C137 C 0.62212 0.37210 0.54607
 O138 O 0.66848 0.39835 0.45994
 O139 O 0.74386 0.40022 0.47048
 C140 C 0.74986 0.37220 0.45340
 O141 O 0.72963 0.33076 0.45977
 O142 O 0.65613 0.25529 0.47037
 C143 C 0.62208 0.24922 0.45334
 O144 O 0.60094 0.26951 0.45973
 O145 O 0.59904 0.34301 0.47048
 C146 C 0.62705 0.37716 0.45354
 Cr147 Cr 0.69833 0.39677 0.49979
 Cr148 Cr 0.69830 0.30091 0.49964
 Cr149 Cr 0.60245 0.30085 0.49966
 O150 O 0.66636 0.33285 0.49970
 O151 O 0.33140 0.60134 0.53958
 O152 O 0.25588 0.59943 0.52950
 C153 C 0.24952 0.62736 0.54638
 O154 O 0.26953 0.66877 0.53983
 O155 O 0.34321 0.74429 0.52959
 C156 C 0.37758 0.75070 0.54631
 O157 O 0.39899 0.73074 0.53959
 O158 O 0.40073 0.65705 0.52924
 C159 C 0.37282 0.62276 0.54609
 O160 O 0.34302 0.59941 0.47028
 O161 O 0.26937 0.60126 0.46021
 C162 C 0.24941 0.62268 0.45369
 O163 O 0.25583 0.65701 0.47054
 O164 O 0.33131 0.73073 0.46030
 C165 C 0.37269 0.75072 0.45363
 O166 O 0.40065 0.74430 0.47033
 O167 O 0.39872 0.66876 0.45998
 C168 C 0.37730 0.62733 0.45342
 Cr169 Cr 0.30119 0.60290 0.49989
 Cr170 Cr 0.30124 0.69893 0.50006
 Cr171 Cr 0.39723 0.69894 0.49979
 O172 O 0.33322 0.66693 0.49991
 C173 C 0.42269 0.58028 0.37533
 C174 C 0.46564 0.60719 0.36188
 C175 C 0.48175 0.59094 0.33564
 C176 C 0.45507 0.54731 0.32239
 C177 C 0.41173 0.52061 0.33610
 C178 C 0.39576 0.53702 0.36235
 C179 C 0.40647 0.59692 0.40271
 C180 C 0.39307 0.61084 0.42579
 H181 H 0.48678 0.64073 0.37176
 H182 H 0.51522 0.61263 0.32590
 H183 H 0.39007 0.48693 0.32670
 H184 H 0.36244 0.51588 0.37259
 C185 C 0.41967 0.84320 0.37569
 C186 C 0.39284 0.85928 0.36223
 C187 C 0.40914 0.89163 0.33602
 C188 C 0.45276 0.90854 0.32282
 C189 C 0.47938 0.89185 0.33654
 C190 C 0.46291 0.85949 0.36275
 C191 C 0.40299 0.81034 0.40303
 C192 C 0.38909 0.78301 0.42606
 H193 H 0.35930 0.84691 0.37207
 H194 H 0.38751 0.90344 0.32626
 H195 H 0.51304 0.90384 0.32718
 H196 H 0.48399 0.84728 0.37301
 C197 C 0.15719 0.57732 0.37558
 C198 C 0.14085 0.60424 0.36270
 C199 C 0.10861 0.58829 0.33639
 C200 C 0.09225 0.54512 0.32261
 C201 C 0.10906 0.51840 0.33565
 C202 C 0.14129 0.53443 0.36195
 C203 C 0.18994 0.59351 0.40299
 C204 C 0.21719 0.60689 0.42608
 H205 H 0.15292 0.63750 0.37308
 H206 H 0.09638 0.60970 0.32694
 H207 H 0.09720 0.48503 0.32563
 H208 H 0.15369 0.51330 0.37175
 C209 C 0.58040 0.42302 0.37592
 C210 C 0.53729 0.39591 0.36277
 C211 C 0.52091 0.41194 0.33665
 C212 C 0.54750 0.45537 0.32335
 C213 C 0.59089 0.48230 0.33665
 C214 C 0.60719 0.46619 0.36277
 C215 C 0.59695 0.40670 0.40314
 C216 C 0.61072 0.39312 0.42608
 H217 H 0.51628 0.36245 0.37279
 H218 H 0.48739 0.39036 0.32699
 H219 H 0.61220 0.51587 0.32698
 H220 H 0.64061 0.48745 0.37280
 C221 C 0.57641 0.15676 0.37545
 C222 C 0.60346 0.14070 0.36238
 C223 C 0.58751 0.10828 0.33620
 C224 C 0.54407 0.09134 0.32265
 C225 C 0.51724 0.10803 0.33598
 C226 C 0.53335 0.14045 0.36217
 C227 C 0.59266 0.18962 0.40276
 C228 C 0.60618 0.21694 0.42579
 H229 H 0.63686 0.15311 0.37252
 H230 H 0.60928 0.09646 0.32672
 H231 H 0.48369 0.09600 0.32634
 H232 H 0.51213 0.15268 0.37215
 C233 C 0.84166 0.41880 0.37522
 C234 C 0.85794 0.39202 0.36187
 C235 C 0.89014 0.40831 0.33556
 C236 C 0.90646 0.45167 0.32229
 C237 C 0.88969 0.47823 0.33578
 C238 C 0.85750 0.46186 0.36209
 C239 C 0.80907 0.40228 0.40266
 C240 C 0.78194 0.38853 0.42578
 H241 H 0.84589 0.35863 0.37190
 H242 H 0.90236 0.38703 0.32574
 H243 H 0.90156 0.51174 0.32613
 H244 H 0.84511 0.48285 0.37227
 C245 C 0.58054 0.42312 1.12468
 C246 C 0.53745 0.39592 1.13788
 C247 C 0.52100 0.41185 1.16412
 C248 C 0.54748 0.45530 1.17751
 C249 C 0.59083 0.48232 1.16415
 C250 C 0.60720 0.46630 1.13792
 C251 C 0.59724 0.40694 1.09733
 C252 C 0.61116 0.39352 1.07428
 H253 H 0.51651 0.36244 1.12781
 H254 H 0.48751 0.39021 1.17381
 H255 H 0.61209 0.51590 1.17386
 H256 H 0.64059 0.48767 1.12789
 C257 C 0.84312 0.41997 1.12461
 C258 C 0.85957 0.39330 1.13773
 C259 C 0.89184 0.40954 1.16400
 C260 C 0.90827 0.45292 1.17762
 C261 C 0.89120 0.47937 1.16425
 C262 C 0.85892 0.46297 1.13796
 C263 C 0.81034 0.40335 1.09721
 C264 C 0.78307 0.38945 1.07414
 H265 H 0.84757 0.35995 1.12756
 H266 H 0.90396 0.38805 1.17349
 H267 H 0.90282 0.51285 1.17393
 H268 H 0.84640 0.48391 1.12797
 C269 C 0.57751 0.15759 1.12495
 C270 C 0.53439 0.14126 1.13818
 C271 C 0.51833 0.10906 1.16450
 C272 C 0.54525 0.09272 1.17797
 C273 C 0.58865 0.10951 1.16460
 C274 C 0.60463 0.14171 1.13826
 C275 C 0.59372 0.19028 1.09749
 C276 C 0.60711 0.21747 1.07436
 H277 H 0.51309 0.15328 1.12805
 H278 H 0.48478 0.09687 1.17420
 H279 H 0.61022 0.09765 1.17437
 H280 H 0.63806 0.15410 1.12820
 C281 C 0.41965 0.57811 1.12477
 C282 C 0.39301 0.53512 1.13827
 C283 C 0.40949 0.51945 1.16457
 C284 C 0.45293 0.54663 1.17770
 C285 C 0.47938 0.58990 1.16407
 C286 C 0.46281 0.60549 1.13776
 C287 C 0.40291 0.59391 1.09732
 C288 C 0.38901 0.60708 1.07418
 H289 H 0.35956 0.51365 1.12837
 H290 H 0.38828 0.48600 1.17449
 H291 H 0.51294 0.61164 1.17360
 H292 H 0.48372 0.63882 1.12746
 C293 C 0.15760 0.58019 1.12400
 C294 C 0.14119 0.60677 1.13750
 C295 C 0.10886 0.59018 1.16369
 C296 C 0.09251 0.54669 1.17671
 C297 C 0.10940 0.52030 1.16306
 C298 C 0.14173 0.53699 1.13686
 C299 C 0.19036 0.59706 1.09668
 C300 C 0.21762 0.61108 1.07366
 H301 H 0.15326 0.64026 1.12768
 H302 H 0.09656 0.61133 1.17364
 H303 H 0.09751 0.48671 1.17251
 H304 H 0.15423 0.51614 1.12655
 C305 C 0.42202 0.84219 1.12497
 C306 C 0.46494 0.85843 1.13857
 C307 C 0.48062 0.89057 1.16496
 C308 C 0.45351 0.90691 1.17808
 C309 C 0.41031 0.89018 1.16435
 C310 C 0.39471 0.85803 1.13795
 C311 C 0.40622 0.80964 1.09744
 C312 C 0.39311 0.78255 1.07425
 H313 H 0.48635 0.84638 1.12868
 H314 H 0.51402 0.90274 1.17495
 H315 H 0.38862 0.90206 1.17386
 H316 H 0.36143 0.84568 1.12758
 C317 C 0.57679 0.41874 0.62420
 C318 C 0.53370 0.39200 0.63750
 C319 C 0.51779 0.40835 0.66379
 C320 C 0.54485 0.45174 0.67709
 C321 C 0.58822 0.47827 0.66364
 C322 C 0.60404 0.46184 0.63736
 C323 C 0.59289 0.40217 0.59680
 C324 C 0.60630 0.38840 0.57369
 H325 H 0.51234 0.35859 0.62746
 H326 H 0.48427 0.38710 0.67357
 H327 H 0.60989 0.51180 0.67331
 H328 H 0.63745 0.48281 0.62722
 C329 C 0.58048 0.15721 0.62384
 C330 C 0.53742 0.14125 0.63704
 C331 C 0.52112 0.10901 0.66329
 C332 C 0.54775 0.09229 0.67666
 C333 C 0.59110 0.10872 0.66331
 C334 C 0.60731 0.14097 0.63706
 C335 C 0.59695 0.18989 0.59648
 C336 C 0.61068 0.21710 0.57343
 H337 H 0.51638 0.15360 0.62696
 H338 H 0.48762 0.09707 0.67299
 H339 H 0.61243 0.09654 0.67304
 H340 H 0.64070 0.15311 0.62698
 C341 C 0.84237 0.42285 0.62384
 C342 C 0.85838 0.39576 0.63691
 C343 C 0.89074 0.41175 0.66311
 C344 C 0.90754 0.45514 0.67656
 C345 C 0.89107 0.48205 0.66334
 C346 C 0.85870 0.46597 0.63714
 C347 C 0.80956 0.40658 0.59652
 C348 C 0.78226 0.39305 0.57350
 H349 H 0.84597 0.36233 0.62678
 H350 H 0.90269 0.39018 0.67271
 H351 H 0.90330 0.51559 0.67312
 H352 H 0.84655 0.48723 0.62717
 C353 C 0.41977 0.57745 0.62408
 C354 C 0.39276 0.53456 0.63765
 C355 C 0.40900 0.51854 0.66390
 C356 C 0.45257 0.54527 0.67695
 C357 C 0.47941 0.58843 0.66323
 C358 C 0.46308 0.60437 0.63696
 C359 C 0.40318 0.59362 0.59671
 C360 C 0.38929 0.60699 0.57366
 H361 H 0.35919 0.51343 0.62785
 H362 H 0.38747 0.48518 0.67388
 H363 H 0.51308 0.60984 0.67268
 H364 H 0.48430 0.63762 0.62663
 C365 C 0.42307 0.84289 0.62456
 C366 C 0.46600 0.85892 0.63803
 C367 C 0.48208 0.89118 0.66435
 C368 C 0.45539 0.90805 0.67766
 C369 C 0.41206 0.89140 0.66394
 C370 C 0.39613 0.85912 0.63762
 C371 C 0.40687 0.81014 0.59710
 C372 C 0.39345 0.78290 0.57397
 H373 H 0.48715 0.84658 0.62810
 H374 H 0.51554 0.90296 0.67411
 H375 H 0.39040 0.90336 0.67338
 H376 H 0.36283 0.84695 0.62736
 C377 C 0.15717 0.58030 0.62450
 C378 C 0.14113 0.60716 0.63806
 C379 C 0.10882 0.59087 0.66432
 C380 C 0.09192 0.54725 0.67750
 C381 C 0.10857 0.52061 0.66368
 C382 C 0.14089 0.53706 0.63741
 C383 C 0.18999 0.59697 0.59710
 C384 C 0.21728 0.61090 0.57401
 H385 H 0.15348 0.64070 0.62825
 H386 H 0.09705 0.61253 0.67415
 H387 H 0.09659 0.48694 0.67301
 H388 H 0.15307 0.51595 0.62708
 C389 C 0.42271 0.58046 0.87578
 C390 C 0.39530 0.53726 0.86284
 C391 C 0.41087 0.52057 0.83656
 C392 C 0.45414 0.54695 0.82290
 C393 C 0.48135 0.59043 0.83599
 C394 C 0.46570 0.60703 0.86227
 C395 C 0.40691 0.59732 0.90319
 C396 C 0.39371 0.61130 0.92629
 H397 H 0.36197 0.51642 0.87316
 H398 H 0.38910 0.48698 0.82705
 H399 H 0.51481 0.61159 0.82604
 H400 H 0.48719 0.64051 0.87214
 C401 C 0.15856 0.57813 0.87517
 C402 C 0.14272 0.60545 0.86227
 C403 C 0.11051 0.58983 0.83595
 C404 C 0.09371 0.54658 0.82222
 C405 C 0.11004 0.51946 0.83525
 C406 C 0.14224 0.53517 0.86156
 C407 C 0.19114 0.59396 0.90265
 C408 C 0.21822 0.60714 0.92582
 H409 H 0.15512 0.63877 0.87265
 H410 H 0.09865 0.61153 0.82650
 H411 H 0.09782 0.48602 0.82525
 H412 H 0.15427 0.51374 0.87139
 C413 C 0.42031 0.84206 0.87553
 C414 C 0.39360 0.85825 0.86199
 C415 C 0.40999 0.89031 0.83561
 C416 C 0.45341 0.90660 0.82244
 C417 C 0.47992 0.88992 0.83611
 C418 C 0.46343 0.85785 0.86250
 C419 C 0.40362 0.80959 0.90304
 C420 C 0.38967 0.78256 0.92622
 H421 H 0.36016 0.84623 0.87193
 H422 H 0.38874 0.90245 0.82566
 H423 H 0.51346 0.90177 0.82655
 H424 H 0.48438 0.84553 0.87283
 C425 C 0.57739 0.41945 0.87593
 C426 C 0.53421 0.39275 0.86275
 C427 C 0.51823 0.40901 0.83649
 C428 C 0.54527 0.45229 0.82304
 C429 C 0.58872 0.47882 0.83637
 C430 C 0.60462 0.46247 0.86264
 C431 C 0.59354 0.40287 0.90332
 C432 C 0.60692 0.38903 0.92640
 H433 H 0.51283 0.35941 0.87286
 H434 H 0.48464 0.38772 0.82682
 H435 H 0.61038 0.51226 0.82660
 H436 H 0.63810 0.48345 0.87267
 C437 C 0.84289 0.42278 0.87561
 C438 C 0.85875 0.39562 0.86226
 C439 C 0.89098 0.41156 0.83592
 C440 C 0.90783 0.45498 0.82258
 C441 C 0.89152 0.48194 0.83608
 C442 C 0.85929 0.46593 0.86241
 C443 C 0.81015 0.40660 0.90307
 C444 C 0.78292 0.39323 0.92619
 H445 H 0.84631 0.36218 0.87230
 H446 H 0.90281 0.38995 0.82612
 H447 H 0.90376 0.51550 0.82641
 H448 H 0.84729 0.48726 0.87255
 C449 C 0.58045 0.15725 0.87574
 C450 C 0.53741 0.14137 0.86248
 C451 C 0.52108 0.10914 0.83612
 C452 C 0.54764 0.09233 0.82267
 C453 C 0.59095 0.10868 0.83609
 C454 C 0.60720 0.14090 0.86244
 C455 C 0.59704 0.18998 0.90321
 C456 C 0.61093 0.21722 0.92634
 H457 H 0.51641 0.15378 0.87260
 H458 H 0.48761 0.09727 0.82638
 H459 H 0.61226 0.09647 0.82633
 H460 H 0.64056 0.15295 0.87252
   
