data_POSCAR
  _audit_creation_date              2014-09-24
  _audit_creation_method            'ToBaCCo'
  _symmetry_space_group_name_H-M    'P1'
  _symmetry_Int_Tables_number       1
  _symmetry_cell_setting            triclinic
  loop_
  _symmetry_equiv_pos_as_xyz
 x,y,z
_cell_length_a 24.7398
_cell_length_b 24.6463
_cell_length_c 22.2872
_cell_angle_alpha 88.418100
_cell_angle_beta 92.269000
_cell_angle_gamma 92.706300
loop_
  _atom_site_label
  _atom_site_type_symbol
  _atom_site_fract_x
  _atom_site_fract_y
  _atom_site_fract_z
C1 C 0.40841 0.02211 0.28772
 C2 C 0.38873 0.07587 0.26265
 C3 C 0.34745 0.07029 0.22106
 C4 C 0.33030 0.01098 0.20698
 C5 C 0.35775 -0.00906 0.31060
 C6 C 0.31708 -0.01599 0.26776
 C7 C 0.42355 -0.00912 0.23286
 C8 C 0.38255 -0.01585 0.19079
 H9 H 0.40232 0.11483 0.28059
 H10 H 0.29695 0.00694 0.17227
 H11 H 0.35718 -0.02931 0.35432
 H12 H 0.46430 -0.02154 0.22659
 C13 C 0.09120 -0.02055 0.78547
 C14 C 0.12377 -0.07082 0.77770
 C15 C 0.16768 -0.06098 0.74327
 C16 C 0.17495 -0.00268 0.71961
 C17 C 0.13228 0.02240 0.81068
 C18 C 0.17573 0.03259 0.77543
 C19 C 0.07794 -0.00103 0.72494
 C20 C 0.12419 0.00794 0.68828
 H21 H 0.11228 -0.11081 0.79571
 H22 H 0.21105 0.00459 0.69173
 H23 H 0.12429 0.04674 0.84879
 H24 H 0.03669 -0.00268 0.70655
 C25 C 0.58716 0.47845 0.29369
 C26 C 0.62894 0.43688 0.31253
 C27 C 0.67547 0.44346 0.28248
 C28 C 0.67678 0.49018 0.23609
 C29 C 0.61758 0.53378 0.30213
 C30 C 0.66430 0.53998 0.27134
 C31 C 0.57934 0.47355 0.22607
 C32 C 0.62604 0.48026 0.19610
 H33 H 0.62106 0.40176 0.34138
 H34 H 0.71477 0.49452 0.21100
 H35 H 0.60247 0.56511 0.32924
 H36 H 0.54004 0.46667 0.20358
 C37 C 0.90610 0.51788 0.78564
 C38 C 0.88595 0.57124 0.76065
 C39 C 0.84315 0.56527 0.72132
 C40 C 0.82474 0.50613 0.70923
 C41 C 0.85646 0.48720 0.81150
 C42 C 0.81428 0.47952 0.77078
 C43 C 0.91879 0.48570 0.73024
 C44 C 0.87576 0.47916 0.69030
 H45 H 0.90105 0.61052 0.77652
 H46 H 0.78975 0.50210 0.67653
 H47 H 0.85850 0.46532 0.85431
 H48 H 0.95914 0.47345 0.72161
 C49 C 0.30727 0.43249 1.00587
 C50 C 0.29844 0.38734 1.05430
 C51 C 0.25147 0.35712 1.04575
 C52 C 0.21815 0.37392 0.99032
 C53 C 0.30248 0.40367 0.94596
 C54 C 0.25681 0.37236 0.93852
 C55 C 0.25611 0.46575 1.00715
 C56 C 0.20941 0.43415 0.99977
 H57 H 0.32631 0.38062 1.09223
 H58 H 0.18012 0.34857 0.98346
 H59 H 0.33270 0.40848 0.91209
 H60 H 0.25657 0.50742 1.02137
 C61 C 0.78899 0.07922 0.99745
 C62 C 0.76616 0.11172 0.94239
 C63 C 0.72662 0.14627 0.95608
 C64 C 0.71434 0.14437 1.02296
 C65 C 0.80808 0.12318 1.04215
 C66 C 0.76927 0.15731 1.05510
 C67 C 0.74189 0.05187 1.02363
 C68 C 0.70031 0.08759 1.03728
 H69 H 0.78634 0.11486 0.90008
 H70 H 0.68273 0.17282 1.03391
 H71 H 0.84946 0.13002 1.05791
 H72 H 0.73750 0.00808 1.02769
 C73 C 0.28119 0.57667 0.50483
 C74 C 0.26474 0.60885 0.44690
 C75 C 0.22668 0.64632 0.45483
 C76 C 0.20932 0.64797 0.51958
 C77 C 0.29912 0.62024 0.54995
 C78 C 0.26216 0.65783 0.55735
 C79 C 0.22770 0.55187 0.52748
 C80 C 0.18955 0.58931 0.53400
 H81 H 0.28742 0.60845 0.40632
 H82 H 0.17839 0.67832 0.52632
 H83 H 0.33842 0.62164 0.57263
 H84 H 0.21808 0.50857 0.52690
 C85 C 0.80519 0.92046 0.50731
 C86 C 0.79570 0.87188 0.55103
 C87 C 0.74779 0.84378 0.54021
 C88 C 0.71451 0.86585 0.48719
 C89 C 0.79925 0.89700 0.44458
 C90 C 0.75251 0.86773 0.43465
 C91 C 0.75533 0.95465 0.51264
 C92 C 0.70797 0.92521 0.50245
 H93 H 0.82298 0.86244 0.58869
 H94 H 0.67567 0.84228 0.47854
 H95 H 0.82900 0.90431 0.41069
 H96 H 0.75706 0.99529 0.53012
 C97 C 0.01058 0.28827 0.42110
 C98 C 0.05813 0.29175 0.37819
 C99 C 0.05811 0.25037 0.33875
 C100 C 0.01069 0.20851 0.34707
 C101 C -0.03742 0.28414 0.38083
 C102 C -0.03760 0.23956 0.34029
 C103 C 0.01444 0.23214 0.45276
 C104 C 0.01411 0.19040 0.41385
 H105 H 0.09006 0.32326 0.38095
 H106 H 0.01113 0.17429 0.31558
 H107 H -0.07162 0.30954 0.38419
 H108 H 0.01290 0.22596 0.50095
 C109 C -0.03063 0.80095 0.08735
 C110 C -0.07379 0.79297 0.13452
 C111 C -0.06740 0.75001 0.17287
 C112 C -0.01818 0.71740 0.15959
 C113 C 0.02349 0.80276 0.12389
 C114 C 0.03010 0.75919 0.16221
 C115 C -0.03259 0.74700 0.05457
 C116 C -0.02622 0.70302 0.09237
 H117 H -0.11119 0.81407 0.13127
 H118 H -0.01290 0.68173 0.19050
 H119 H 0.05599 0.83259 0.11511
 H120 H -0.03838 0.74436 0.00635
 C121 C 0.47281 0.29960 0.58737
 C122 C 0.43088 0.29190 0.63621
 C123 C 0.43831 0.24862 0.67418
 C124 C 0.48771 0.21677 0.66024
 C125 C 0.52768 0.30229 0.62258
 C126 C 0.53542 0.25911 0.66122
 C127 C 0.47091 0.24502 0.55549
 C128 C 0.47880 0.20156 0.59364
 H129 H 0.39473 0.31511 0.63646
 H130 H 0.49408 0.18152 0.69150
 H131 H 0.55978 0.33228 0.61278
 H132 H 0.46509 0.24175 0.50734
 C133 C 0.52249 0.78101 0.93346
 C134 C 0.56353 0.78940 0.88299
 C135 C 0.56148 0.74932 0.84165
 C136 C 0.51717 0.70473 0.85487
 C137 C 0.46723 0.77488 0.89936
 C138 C 0.46406 0.73513 0.85802
 C139 C 0.53270 0.72733 0.95952
 C140 C 0.52987 0.68504 0.91656
 H141 H 0.59499 0.82145 0.88419
 H142 H 0.51429 0.67252 0.82077
 H143 H 0.43207 0.79677 0.90990
 H144 H 0.54064 0.72013 1.00712
 C145 C -0.22102 0.66387 0.95654
 C146 C -0.17498 0.62883 0.97741
 C147 C -0.19040 0.58505 1.01170
 C148 C -0.25187 0.58026 1.02262
 C149 C -0.26285 0.62541 0.92493
 C150 C -0.28011 0.58206 0.95927
 C151 C -0.24828 0.67887 1.01400
 C152 C -0.26538 0.63516 1.04834
 H153 H -0.13339 0.63803 0.96597
 H154 H -0.26382 0.54486 1.05176
 H155 H -0.28338 0.63621 0.88285
 H156 H -0.25157 0.72048 1.02734
 C157 C -0.26951 0.34040 0.46790
 C158 C -0.32261 0.36690 0.47841
 C159 C -0.31681 0.41100 0.51399
 C160 C -0.25819 0.42419 0.53631
 C161 C -0.23196 0.38621 0.44313
 C162 C -0.22446 0.42974 0.47968
 C163 C -0.24646 0.32809 0.52745
 C164 C -0.24023 0.37441 0.56531
 H165 H -0.36149 0.35172 0.46017
 H166 H -0.25397 0.46040 0.56514
 H167 H -0.20652 0.38004 0.40578
 H168 H -0.24042 0.28686 0.54354
 C169 C 0.24046 -0.15460 -0.03292
 C170 C 0.18917 -0.12264 -0.03132
 C171 C 0.19597 -0.07591 -0.00008
 C172 C 0.25312 -0.06640 0.02835
 C173 C 0.28336 -0.11376 -0.05743
 C174 C 0.29163 -0.06821 -0.02403
 C175 C 0.25717 -0.16411 0.02912
 C176 C 0.26364 -0.11582 0.06337
 H177 H 0.15108 -0.13491 -0.05351
 H178 H 0.25822 -0.02862 0.05456
 H179 H 0.30961 -0.12373 -0.09289
 H180 H 0.25698 -0.20460 0.04943
 C181 C 0.27037 1.15076 0.46453
 C182 C 0.32245 1.12477 0.48544
 C183 C 0.31480 1.08252 0.52491
 C184 C 0.25584 1.07018 0.54107
 C185 C 0.23306 1.10402 0.44027
 C186 C 0.22483 1.06214 0.48101
 C187 C 0.24403 1.16640 0.52256
 C188 C 0.23581 1.12398 0.56233
 H189 H 0.36176 1.13704 0.46859
 H190 H 0.25039 1.03570 0.57384
 H191 H 0.21030 1.10708 0.39788
 H192 H 0.23632 1.20799 0.53274
 C193 C 0.17913 0.56072 0.25145
 C194 C 0.13716 0.55033 0.19967
 C195 C 0.10510 0.50469 0.20791
 C196 C 0.11732 0.47384 0.26627
 C197 C 0.14616 0.56058 0.30826
 C198 C 0.11328 0.51579 0.31534
 C199 C 0.21064 0.50826 0.25679
 C200 C 0.17755 0.46268 0.26374
 H201 H 0.13175 0.57776 0.16128
 H202 H 0.09064 0.43666 0.27245
 H203 H 0.14991 0.59239 0.34063
 H204 H 0.25300 0.50670 0.24679
 C205 C -0.17522 1.03998 0.24375
 C206 C -0.14357 1.01989 0.30079
 C207 C -0.10827 0.98029 0.28991
 C208 C -0.10842 0.96498 0.22408
 C209 C -0.13103 1.05772 0.20031
 C210 C -0.09610 1.01890 0.19036
 C211 C -0.20129 0.99112 0.21868
 C212 C -0.16446 0.94903 0.20899
 H213 H -0.14200 1.04119 0.34272
 H214 H -0.07908 0.93344 0.21554
 H215 H -0.12524 1.09849 0.18251
 H216 H -0.24487 0.98570 0.21432
 C217 C 0.32154 0.53897 -0.25827
 C218 C 0.35307 0.52425 -0.19925
 C219 C 0.39119 0.48701 -0.20559
 C220 C 0.39330 0.46702 -0.26931
 C221 C 0.36517 0.55592 -0.30260
 C222 C 0.40302 0.51890 -0.30794
 C223 C 0.29723 0.48466 -0.28030
 C224 C 0.33488 0.44623 -0.28411
 H225 H 0.35074 0.54654 -0.15827
 H226 H 0.42380 0.43592 -0.27452
 H227 H 0.36697 0.59499 -0.32546
 H228 H 0.25433 0.47406 -0.27811
 C229 C 0.68034 0.05560 -0.25384
 C230 C 0.63232 0.04728 -0.29933
 C231 C 0.60152 0.00120 -0.28851
 C232 C 0.62054 -0.03180 -0.23409
 C233 C 0.65545 0.05290 -0.19194
 C234 C 0.62361 0.00783 -0.18224
 C235 C 0.71145 0.00349 -0.25657
 C236 C 0.67928 -0.04210 -0.24680
 H237 H 0.62452 0.07434 -0.33752
 H238 H 0.59491 -0.06934 -0.22570
 H239 H 0.66549 0.08183 -0.15739
 H240 H 0.75241 0.00247 -0.27178
 C241 C 0.04175 0.26557 0.82521
 C242 C 0.04973 0.30820 0.87486
 C243 C 0.01102 0.30449 0.91720
 C244 C -0.03155 0.25820 0.90558
 C245 C 0.03952 0.21089 0.86015
 C246 C 0.00113 0.20713 0.90222
 C247 C -0.01263 0.27242 0.80051
 C248 C -0.05324 0.26817 0.84454
 H249 H 0.08025 0.34106 0.87284
 H250 H -0.06270 0.25440 0.94030
 H251 H 0.06147 0.17598 0.84842
 H252 H -0.02123 0.27821 0.75285
 C253 C 0.55412 0.26223 0.15461
 C254 C 0.55650 0.20673 0.12477
 C255 C 0.51116 0.19206 0.09161
 C256 C 0.46750 0.23414 0.09194
 C257 C 0.54082 0.30225 0.10154
 C258 C 0.49559 0.28723 0.06803
 C259 C 0.50283 0.25781 0.19176
 C260 C 0.45730 0.24276 0.15879
 H261 H 0.58876 0.17915 0.13443
 H262 H 0.43029 0.22162 0.06524
 H263 H 0.57009 0.33266 0.08543
 H264 H 0.50256 0.26783 0.23871
 C265 C 0.06050 0.76951 0.66223
 C266 C 0.06857 0.71353 0.63626
 C267 C 0.02732 0.69422 0.59976
 C268 C -0.01926 0.73356 0.59242
 C269 C 0.04903 0.80675 0.60616
 C270 C 0.00742 0.78793 0.56919
 C271 C 0.00619 0.76301 0.69373
 C272 C -0.03590 0.74409 0.65721
 H273 H 0.10316 0.68962 0.64873
 H274 H -0.05345 0.71785 0.56298
 H275 H 0.07691 0.83944 0.59222
 H276 H 0.00130 0.77529 0.73937
 C277 C 0.53865 0.77153 0.31713
 C278 C 0.54769 0.81022 0.37032
 C279 C 0.51101 0.80230 0.41457
 C280 C 0.46923 0.75547 0.40145
 C281 C 0.53878 0.71471 0.34643
 C282 C 0.50246 0.70586 0.39010
 C283 C 0.48036 0.77897 0.29541
 C284 C 0.44388 0.77079 0.33925
 H285 H 0.57623 0.84484 0.36874
 H286 H 0.43926 0.74811 0.43697
 H287 H 0.56218 0.68231 0.33079
 H288 H 0.46949 0.78783 0.24881
 B289 B -0.02850 0.03099 1.04217
 B290 B -0.06290 0.02892 0.97557
 B291 B -0.00414 0.06539 0.98264
 B292 B 0.03835 0.03247 1.03090
 B293 B 0.00463 -0.02636 1.05243
 B294 B -0.05876 -0.02756 1.01861
 B295 B 0.01570 -0.02911 0.93205
 B296 B 0.04901 -0.02649 0.99859
 B297 B -0.00951 -0.06338 0.99145
 B298 B -0.05182 -0.03053 0.94285
 B299 B -0.01796 0.02823 0.92097
 B300 B 0.04529 0.03026 0.95519
 B301 B 0.47040 0.53314 0.54343
 B302 B 0.42797 0.52540 0.48316
 B303 B 0.48377 0.56609 0.47833
 B304 B 0.53461 0.53894 0.52028
 B305 B 0.50934 0.47903 0.55051
 B306 B 0.44210 0.47146 0.52813
 B307 B 0.50229 0.47086 0.42919
 B308 B 0.54510 0.47954 0.48839
 B309 B 0.48967 0.43806 0.49413
 B310 B 0.43825 0.46509 0.45220
 B311 B 0.46387 0.52462 0.42153
 B312 B 0.53060 0.53304 0.44421
 B313 B 0.53363 0.97482 0.56109
 B314 B 0.56975 0.99380 0.50100
 B315 B 0.52375 0.94115 0.49585
 B316 B 0.47018 0.95484 0.53699
 B317 B 0.48358 1.01762 0.56612
 B318 B 0.54626 1.04130 0.54406
 B319 B 0.48024 1.02986 0.44462
 B320 B 0.44433 1.01070 0.50414
 B321 B 0.49010 1.06308 0.50893
 B322 B 0.54350 1.04944 0.46795
 B323 B 0.53020 0.98679 0.43867
 B324 B 0.46767 0.96343 0.46063
 B325 B 0.03143 0.47910 1.05892
 B326 B 0.06781 0.49869 0.99918
 B327 B 0.02303 0.44500 0.99411
 B328 B -0.03161 0.45750 1.03430
 B329 B -0.02019 0.52049 1.06319
 B330 B 0.04238 0.54567 1.04160
 B331 B -0.02208 0.53202 0.94137
 B332 B -0.05884 0.51256 1.00051
 B333 B -0.01407 0.56589 1.00572
 B334 B 0.04031 0.55336 0.96553
 B335 B 0.02902 0.49029 0.93670
 B336 B -0.03333 0.46561 0.95797
 B337 B 0.02439 0.51954 0.45853
 B338 B 0.04851 0.50994 0.52933
 B339 B -0.00103 0.55356 0.51553
 B340 B -0.04295 0.52829 0.45988
 B341 B -0.01893 0.46748 0.44103
 B342 B 0.03871 0.45700 0.48420
 B343 B -0.04552 0.45866 0.55794
 B344 B -0.06982 0.46914 0.48766
 B345 B -0.02003 0.42549 0.50160
 B346 B 0.02176 0.45070 0.55695
 B347 B -0.00276 0.51102 0.57653
 B348 B -0.06002 0.52241 0.53336
 B349 B 0.54264 0.01046 -0.03483
 B350 B 0.56552 0.00375 0.03665
 B351 B 0.51644 0.04736 0.01882
 B352 B 0.47556 0.02011 -0.03637
 B353 B 0.49927 -0.04194 -0.05089
 B354 B 0.55564 -0.05126 -0.00558
 B355 B 0.46962 -0.04452 0.06527
 B356 B 0.44739 -0.03734 -0.00625
 B357 B 0.49616 -0.08101 0.01205
 B358 B 0.53708 -0.05379 0.06699
 B359 B 0.51319 0.00802 0.08211
 B360 B 0.45677 0.01787 0.03637
 B361 B 0.49017 0.45521 -0.07037
 B362 B 0.46480 0.45495 -0.00188
 B363 B 0.51100 0.41021 -0.01698
 B364 B 0.55661 0.44068 -0.06309
 B365 B 0.53761 0.50524 -0.07637
 B366 B 0.47932 0.51404 -0.03826
 B367 B 0.55986 0.49357 0.04305
 B368 B 0.58639 0.49258 -0.02410
 B369 B 0.53900 0.53768 -0.01106
 B370 B 0.49404 0.50678 0.03622
 B371 B 0.51360 0.44139 0.04983
 B372 B 0.57117 0.43294 0.01203
 B373 B -0.01495 0.95380 0.42919
 B374 B -0.03948 0.95027 0.49800
 B375 B 0.01296 0.91294 0.48305
 B376 B 0.05323 0.94958 0.43548
 B377 B 0.02453 1.01006 0.42212
 B378 B -0.03420 1.01026 0.46046
 B379 B 0.04967 1.00304 0.54098
 B380 B 0.07530 1.00542 0.47283
 B381 B 0.02196 1.04208 0.48692
 B382 B -0.01786 1.00574 0.53487
 B383 B 0.01159 0.94466 0.54933
 B384 B 0.07015 0.94489 0.51075
 B385 B 0.78473 0.22651 0.20474
 B386 B 0.77883 0.18933 0.26893
 B387 B 0.81913 0.24671 0.26761
 B388 B 0.78977 0.29283 0.22138
 B389 B 0.73033 0.26397 0.19474
 B390 B 0.72348 0.19918 0.22369
 B391 B 0.72482 0.26879 0.31622
 B392 B 0.73155 0.30585 0.25233
 B393 B 0.69072 0.24973 0.25296
 B394 B 0.71962 0.20250 0.29966
 B395 B 0.77983 0.23149 0.32657
 B396 B 0.78571 0.29607 0.29752
 B397 B 0.73127 0.78376 0.69280
 B398 B 0.75018 0.82082 0.75278
 B399 B 0.70055 0.77152 0.75897
 B400 B 0.71643 0.71920 0.71624
 B401 B 0.77730 0.73668 0.68517
 B402 B 0.79751 0.80055 0.70758
 B403 B 0.79364 0.73411 0.80660
 B404 B 0.77475 0.69699 0.74692
 B405 B 0.82419 0.74595 0.74130
 B406 B 0.80835 0.79833 0.78353
 B407 B 0.74774 0.78107 0.81457
 B408 B 0.72773 0.71727 0.79227
 B409 B 0.26309 0.28180 0.79737
 B410 B 0.26044 0.30254 0.72486
 B411 B 0.30157 0.25296 0.74750
 B412 B 0.27096 0.21407 0.80107
 B413 B 0.20932 0.24024 0.81032
 B414 B 0.20385 0.29605 0.76308
 B415 B 0.21123 0.20724 0.69513
 B416 B 0.21446 0.18661 0.76728
 B417 B 0.17343 0.23653 0.74495
 B418 B 0.20407 0.27494 0.69132
 B419 B 0.26561 0.24860 0.68156
 B420 B 0.27170 0.19315 0.72877
 B421 B 0.20554 0.74360 0.31558
 B422 B 0.21090 0.71816 0.24720
 B423 B 0.16937 0.76899 0.25552
 B424 B 0.19806 0.81161 0.30767
 B425 B 0.25891 0.78632 0.32939
 B426 B 0.26632 0.72741 0.29198
 B427 B 0.26225 0.81063 0.21034
 B428 B 0.25630 0.83657 0.27812
 B429 B 0.29695 0.78517 0.26901
 B430 B 0.26848 0.74284 0.21757
 B431 B 0.20843 0.76893 0.19498
 B432 B 0.20075 0.82766 0.23243
 B433 B 0.28540 0.72805 0.70810
 B434 B 0.27736 0.68656 0.76831
 B435 B 0.32214 0.73967 0.77242
 B436 B 0.29689 0.79225 0.73204
 B437 B 0.23474 0.77087 0.70348
 B438 B 0.22280 0.70416 0.72561
 B439 B 0.23094 0.76476 0.82511
 B440 B 0.24032 0.80686 0.76629
 B441 B 0.19485 0.75421 0.76097
 B442 B 0.22001 0.70100 0.80170
 B443 B 0.28216 0.72284 0.83069
 B444 B 0.29407 0.78889 0.80856
 B445 B 0.23186 0.28988 0.19858
 B446 B 0.24771 0.32222 0.26282
 B447 B 0.19737 0.27330 0.26116
 B448 B 0.21479 0.22390 0.21524
 B449 B 0.27725 0.24262 0.19005
 B450 B 0.29730 0.30424 0.21927
 B451 B 0.28676 0.23046 0.31181
 B452 B 0.27122 0.19836 0.24762
 B453 B 0.32138 0.24683 0.24956
 B454 B 0.30387 0.29617 0.29539
 B455 B 0.24121 0.27782 0.32051
 B456 B 0.22177 0.21610 0.29131
 B457 B 0.75456 0.78720 0.28664
 B458 B 0.75425 0.81123 0.21550
 B459 B 0.79353 0.75924 0.23737
 B460 B 0.76012 0.71916 0.28761
 B461 B 0.69931 0.74672 0.29607
 B462 B 0.69667 0.80415 0.25159
 B463 B 0.70381 0.71803 0.17933
 B464 B 0.70390 0.69478 0.25055
 B465 B 0.66516 0.74661 0.22936
 B466 B 0.69839 0.78611 0.17867
 B467 B 0.75973 0.75877 0.16976
 B468 B 0.76255 0.70109 0.21457
 B469 B 0.70949 0.23765 0.81489
 B470 B 0.71466 0.21111 0.74717
 B471 B 0.67503 0.26350 0.75426
 B472 B 0.70475 0.30576 0.80600
 B473 B 0.76446 0.27845 0.82897
 B474 B 0.77001 0.21866 0.79290
 B475 B 0.76940 0.30073 0.70939
 B476 B 0.76391 0.32807 0.77656
 B477 B 0.80306 0.27514 0.76893
 B478 B 0.77338 0.23291 0.71810
 B479 B 0.71446 0.26090 0.69437
 B480 B 0.70844 0.32037 0.73071
 C481 C 0.45402 1.02658 0.33391
 C482 C 0.44979 1.05226 0.38595
 H483 H 0.48624 0.99872 0.32935
 H484 H 0.41641 1.07856 0.39141
 C485 C -0.04757 0.52401 0.83058
 C486 C -0.05142 0.55236 0.88119
 H487 H -0.01615 0.49504 0.82742
 H488 H -0.08430 0.57958 0.88505
 C489 C 0.04198 -0.02878 0.82313
 C490 C 0.04419 -0.05412 0.87746
 H491 H 0.00957 -0.00141 0.81250
 H492 H 0.07752 -0.08003 0.88892
 C493 C 0.53380 0.47575 0.32394
 C494 C 0.52259 0.44326 0.37182
 H495 H 0.51036 0.51155 0.31524
 H496 H 0.54255 0.40550 0.37996
 C497 C 0.62577 0.48106 0.13085
 C498 C 0.59153 0.51310 0.10087
 H499 H 0.64411 0.44790 0.10955
 H500 H 0.57424 0.54596 0.12397
 C501 C 0.11975 1.01166 0.62595
 C502 C 0.07516 1.02947 0.59861
 H503 H 0.15057 0.99418 0.60035
 H504 H 0.04789 1.05277 0.62352
 C505 C -0.12092 0.45777 0.62970
 C506 C -0.07771 0.43269 0.61205
 H507 H -0.14753 0.47640 0.59658
 H508 H -0.05320 0.41120 0.64537
 C509 C 0.38961 -0.03918 0.13154
 C510 C 0.43370 -0.06609 0.11887
 H511 H 0.36538 -0.02134 0.09558
 H512 H 0.45576 -0.08671 0.15496
 C513 C 0.36174 0.46226 0.01148
 C514 C 0.40586 0.43247 0.01013
 H515 H 0.36498 0.50625 0.00670
 H516 H 0.40067 0.38843 0.01252
 C517 C -0.14079 0.94963 0.51596
 C518 C -0.09595 0.92191 0.50990
 H519 H -0.13865 0.99372 0.51740
 H520 H -0.09927 0.87800 0.50606
 C521 C -0.16592 0.04110 0.98647
 C522 C -0.11798 0.06010 0.96607
 H523 H -0.16929 -0.00013 1.00497
 H524 H -0.11490 0.10204 0.95029
 C525 C 0.32531 0.53682 0.49880
 C526 C 0.37275 0.55503 0.47708
 H527 H 0.32180 0.49701 0.52084
 H528 H 0.37547 0.59601 0.45782
 C529 C 0.13118 0.57553 0.53114
 C530 C 0.10891 0.52744 0.54812
 H531 H 0.10653 0.60551 0.50875
 H532 H 0.13351 0.49728 0.57061
 C533 C 0.64721 0.07135 0.05192
 C534 C 0.62735 0.01983 0.05223
 H535 H 0.62004 0.10340 0.05705
 H536 H 0.65429 -0.01326 0.05040
 C537 C 0.65498 0.94164 0.51872
 C538 C 0.63271 0.98670 0.49755
 H539 H 0.63081 0.91019 0.54082
 H540 H 0.65652 1.01640 0.47186
 C541 C 0.15551 0.44924 1.01611
 C542 C 0.13141 0.49357 0.99548
 H543 H 0.13231 0.41742 1.03881
 H544 H 0.15410 0.52404 0.96960
 C545 C 0.01473 0.33577 0.46396
 C546 C -0.02710 0.36194 0.48585
 H547 H 0.05558 0.35254 0.47264
 H548 H -0.06779 0.34397 0.48107
 C549 C 0.52912 -0.17301 -0.02174
 C550 C 0.48836 -0.14513 0.00017
 H551 H 0.57048 -0.15703 -0.01465
 H552 H 0.44731 -0.16231 -0.00242
 C553 C -0.04141 -0.14855 1.04958
 C554 C -0.01087 -0.12780 1.00475
 H555 H -0.07166 -0.12338 1.06707
 H556 H 0.02010 -0.15183 0.98686
 C557 C 0.46050 0.34866 0.54719
 C558 C 0.49564 0.37475 0.51019
 H559 H 0.42180 0.36641 0.55326
 H560 H 0.53419 0.35725 0.50276
 C561 C 0.48151 1.14429 0.57623
 C562 C 0.47639 1.12467 0.52019
 H563 H 0.49106 1.11679 0.61342
 H564 H 0.46725 1.15095 0.48186
 C565 C -0.02564 0.64583 1.07411
 C566 C -0.02813 0.62730 1.01744
 H567 H -0.01929 0.61749 1.11135
 H568 H -0.03346 0.65469 0.97918
 C569 C 0.53621 0.62918 -0.07091
 C570 C 0.54631 0.60347 -0.01685
 H571 H 0.52982 0.60461 -0.11014
 H572 H 0.55319 0.62629 0.02370
 C573 C 0.00861 1.13208 0.43009
 C574 C 0.02513 1.10726 0.48196
 H575 H -0.00868 1.10778 0.39381
 H576 H 0.04374 1.13048 0.51840
 C577 C 0.79592 0.71216 0.91796
 C578 C 0.81891 0.70552 0.86492
 H579 H 0.77476 0.74890 0.92520
 H580 H 0.83957 0.66844 0.85794
 C581 C 0.27767 0.19806 0.42087
 C582 C 0.30581 0.19631 0.37001
 H583 H 0.25007 0.23037 0.42615
 H584 H 0.33182 0.16283 0.36365
 C585 C 0.72639 0.29221 0.42725
 C586 C 0.69966 0.29384 0.37317
 H587 H 0.75749 0.26294 0.43543
 H588 H 0.66938 0.32360 0.36428
 C589 C 0.23723 0.79372 0.93252
 C590 C 0.20571 0.78737 0.88251
 H591 H 0.27253 0.76923 0.93914
 H592 H 0.17054 0.81139 0.87410
 C593 C 0.26870 0.88207 0.12590
 C594 C 0.28983 0.83930 0.15499
 H595 H 0.24879 0.91228 0.14998
 H596 H 0.31544 0.81344 0.13106
 C597 C 0.77363 0.37147 0.62652
 C598 C 0.79575 0.32796 0.65259
 H599 H 0.75881 0.40248 0.65421
 H600 H 0.81676 0.30050 0.62548
 C601 C 0.21823 0.13026 0.62396
 C602 C 0.19025 0.17260 0.63967
 H603 H 0.23934 0.10632 0.65790
 H604 H 0.16741 0.19453 0.60518
 C605 C 0.71115 0.64052 0.10774
 C606 C 0.68492 0.68489 0.12166
 H607 H 0.72694 0.61403 0.14303
 H608 H 0.66710 0.70914 0.08543
 C609 C 0.21202 0.61341 0.24451
 C610 C 0.18583 0.65963 0.23429
 H611 H 0.25474 0.61477 0.25791
 H612 H 0.14245 0.65688 0.22499
 C613 C 0.71294 0.10778 0.73718
 C614 C 0.68687 0.15424 0.73407
 H615 H 0.75667 0.10825 0.74430
 H616 H 0.64291 0.15249 0.73089
 C617 C 0.78722 0.08629 0.25048
 C618 C 0.80463 0.13172 0.27894
 H619 H 0.75128 0.08747 0.22090
 H620 H 0.84088 0.13051 0.30753
 C621 C 0.28283 0.58387 0.74714
 C622 C 0.30247 0.62962 0.77258
 H623 H 0.24415 0.58273 0.72227
 H624 H 0.34278 0.62988 0.79348
 C625 C 0.32038 0.38934 0.72996
 C626 C 0.27993 0.36128 0.70232
 H627 H 0.34230 0.37211 0.76795
 H628 H 0.25774 0.37991 0.66490
 C629 C 0.82102 0.89399 0.20032
 C630 C 0.77039 0.87315 0.20109
 H631 H 0.85344 0.86691 0.19878
 H632 H 0.73700 0.89992 0.20020
 C633 C 0.69360 0.90323 0.74021
 C634 C 0.74066 0.88307 0.75740
 H635 H 0.66137 0.87769 0.72059
 H636 H 0.77190 0.90875 0.77917
 C637 C 0.19254 0.40734 0.25164
 C638 C 0.23800 0.38483 0.27179
 H639 H 0.16181 0.38338 0.22742
 H640 H 0.26811 0.40873 0.29746
 C641 C 0.08454 0.27244 0.77831
 C642 C 0.10956 0.23113 0.75346
 H643 H 0.10109 0.31374 0.77236
 H644 H 0.09106 0.19043 0.75481
 C645 C 0.57835 0.78251 0.26772
 C646 C 0.60108 0.74333 0.23657
 H647 H 0.59575 0.82376 0.26595
 H648 H 0.58094 0.70345 0.23357
 C649 C 0.60676 0.27761 0.18840
 C650 C 0.62657 0.25054 0.23788
 H651 H 0.63391 0.30437 0.16318
 H652 H 0.60054 0.22081 0.26098
 C653 C 0.11030 0.78817 0.70028
 C654 C 0.13046 0.75897 0.74814
 H655 H 0.13705 0.81778 0.67832
 H656 H 0.10460 0.72722 0.76824
 C657 C 0.90604 0.73937 0.67342
 C658 C 0.88704 0.73760 0.72960
 H659 H 0.87727 0.73945 0.63554
 H660 H 0.91495 0.73647 0.76817
 C661 C 0.40102 0.23909 0.17982
 C662 C 0.38421 0.23848 0.23700
 H663 H 0.37109 0.23871 0.14319
 H664 H 0.41329 0.23832 0.27454
 C665 C 0.38501 0.77258 0.32907
 C666 C 0.36043 0.79092 0.27805
 H667 H 0.36099 0.75648 0.36564
 H668 H 0.38321 0.80835 0.24131
 C669 C 0.89093 0.27030 0.83247
 C670 C 0.86702 0.27919 0.77795
 H671 H 0.86562 0.26304 0.87068
 H672 H 0.89036 0.28724 0.73846
 C673 C 0.55495 0.98491 0.67291
 C674 C 0.56181 0.95633 0.62342
 H675 H 0.52083 1.01038 0.67607
 H676 H 0.59713 0.93244 0.62283
 C677 C 0.05765 0.49256 1.16882
 C678 C 0.06050 0.46106 1.12086
 H679 H 0.02686 0.52215 1.17049
 H680 H 0.09243 0.43277 1.12058
 C681 C -0.04974 0.02666 1.15193
 C682 C -0.05306 0.05468 1.09946
 H683 H -0.01841 -0.00203 1.16050
 H684 H -0.08476 0.08248 1.09133
 C685 C 0.44953 0.52594 0.65313
 C686 C 0.44920 0.55727 0.60257
 H687 H 0.47847 0.49451 0.65932
 H688 H 0.42084 0.58893 0.59601
 C689 C 0.43826 0.48626 -0.16426
 C690 C 0.45090 0.44402 -0.12761
 H691 H 0.45914 0.52560 -0.15934
 H692 H 0.42811 0.40558 -0.13112
 C693 C -0.05896 0.97494 0.32727
 C694 C -0.05314 0.93810 0.37251
 H695 H -0.03005 1.00881 0.32172
 H696 H -0.08274 0.90472 0.37727
 C697 C 0.07714 0.50522 0.36516
 C698 C 0.06169 0.54119 0.40532
 H699 H 0.06213 0.46333 0.36769
 H700 H 0.07520 0.58353 0.40289
 C701 C 0.59606 -0.00516 -0.12668
 C702 C 0.57956 0.03130 -0.08802
 H703 H 0.58553 -0.04801 -0.12043
 H704 H 0.58813 0.07445 -0.09480
 C705 C 0.66677 0.55464 -0.05594
 C706 C 0.64859 0.51002 -0.02680
 H707 H 0.63977 0.57510 -0.08767
 H708 H 0.67582 0.48836 0.00341
 C709 C 0.17876 1.02211 0.47737
 C710 C 0.12991 1.03774 0.45861
 H711 H 0.18277 0.98344 0.50097
 H712 H 0.12587 1.07790 0.43840
 C713 C 0.15205 -0.03814 1.00376
 C714 C 0.10180 -0.05844 1.01089
 H715 H 0.16043 0.00501 0.99653
 H716 H 0.09604 -0.10135 1.02165
 C717 C 0.63658 0.44266 0.52808
 C718 C 0.60279 0.45669 0.48300
 H719 H 0.62902 0.45178 0.57416
 H720 H 0.61471 0.44971 0.43780
 C721 C -0.17454 0.46528 0.47965
 C722 C -0.12725 0.44519 0.46608
 H723 H -0.17498 0.50374 0.50188
 H724 H -0.12685 0.40611 0.44553
 C725 C 0.34356 -0.03615 -0.02239
 C726 C 0.39004 -0.06085 -0.02837
 H727 H 0.34416 0.00445 -0.00496
 H728 H 0.38896 -0.10217 -0.04336
 C729 C 0.35966 1.04912 0.54391
 C730 C 0.38233 1.02092 0.50219
 H731 H 0.38068 1.05800 0.58629
 H732 H 0.36054 1.01425 0.45964
 C733 C -0.14901 0.54802 1.03498
 C734 C -0.12198 0.52127 0.99514
 H735 H -0.13105 0.55568 1.07921
 H736 H -0.14062 0.51588 0.95075
 C737 C 0.02609 0.63689 0.58016
 C738 C 0.00402 0.61785 0.52806
 H739 H 0.04609 0.60884 0.61097
 H740 H -0.01458 0.64554 0.49578
 C741 C 0.49911 0.13566 0.07274
 C742 C 0.52309 0.11182 0.02750
 H743 H 0.47052 0.11247 0.09997
 H744 H 0.55010 0.13570 -0.00100
 C745 C -0.01890 0.15376 0.92386
 C746 C 0.00087 0.12956 0.97412
 H747 H -0.04396 0.13101 0.89157
 H748 H 0.02807 0.15230 1.00446
 C749 C 0.48808 0.64945 0.40850
 C750 C 0.48358 0.63035 0.46533
 H751 H 0.48850 0.62107 0.37228
 H752 H 0.48592 0.65787 0.50245
 C753 C 0.50210 0.84300 0.46110
 C754 C 0.53957 0.88158 0.47786
 H755 H 0.46092 0.84565 0.47520
 H756 H 0.58018 0.87793 0.46307
 C757 C 0.00268 0.34652 0.96218
 C758 C 0.03999 0.38571 0.97728
 H759 H -0.03832 0.34922 0.97682
 H760 H 0.08061 0.38240 0.96231
 C761 C 0.48659 0.30175 0.00323
 C762 C 0.49507 0.34781 -0.03000
 H763 H 0.47081 0.26746 -0.02263
 H764 H 0.48657 0.34231 -0.07759
 C765 C 0.00145 0.80205 0.50384
 C766 C 0.00620 0.84895 0.47085
 H767 H -0.00826 0.76644 0.47725
 H768 H 0.00126 0.84265 0.42292
 C769 C 0.23509 0.31216 0.08631
 C770 C 0.21315 0.32200 0.13889
 H771 H 0.25364 0.27416 0.07899
 H772 H 0.19658 0.36130 0.14344
 C773 C 0.72837 0.79936 0.57972
 C774 C 0.70790 0.81112 0.63245
 H775 H 0.74661 0.76095 0.57368
 H776 H 0.69134 0.85059 0.63567
 C777 C 0.26913 0.70315 0.59909
 C778 C 0.30428 0.70447 0.64717
 H779 H 0.23609 0.73043 0.59625
 H780 H 0.33760 0.67787 0.65071
 C781 C 0.77751 0.20387 0.09453
 C782 C 0.80734 0.20187 0.14636
 H783 H 0.74764 0.23425 0.08728
 H784 H 0.83673 0.17145 0.15328
 C785 C 0.71895 0.19675 0.92057
 C786 C 0.68825 0.20019 0.86936
 H787 H 0.74826 0.22908 0.93220
 H788 H 0.65792 0.16860 0.85912
 C789 C 0.22522 0.69516 0.41600
 C790 C 0.18792 0.70510 0.37132
 H791 H 0.26253 0.71967 0.41995
 H792 H 0.15088 0.68024 0.36735
 C793 C 0.73832 0.83979 0.37916
 C794 C 0.77470 0.82235 0.34160
 H795 H 0.69544 0.83039 0.37156
 H796 H 0.81779 0.82962 0.34985
 C797 C 0.24437 0.33952 0.88595
 C798 C 0.28184 0.31938 0.85131
 H799 H 0.20166 0.32969 0.87775
 H800 H 0.32470 0.32653 0.86127
 C801 C 0.77546 0.43245 0.77462
 C802 C 0.79320 0.38402 0.79251
 H803 H 0.73655 0.43509 0.75097
 H804 H 0.83361 0.38137 0.81257
 C805 C 0.27421 0.94038 0.27091
 C806 C 0.28534 0.89227 0.29621
 H807 H 0.23840 0.94404 0.24194
 H808 H 0.32232 0.88843 0.32331
 C809 C 0.20293 0.89625 0.72829
 C810 C 0.22235 0.86585 0.77308
 H811 H 0.20741 0.88643 0.68174
 H812 H 0.21939 0.87976 0.81853
 C813 C 0.71365 0.40084 0.28432
 C814 C 0.70863 0.36355 0.24241
 H815 H 0.73666 0.39395 0.32552
 H816 H 0.68397 0.37148 0.20227
 C817 C 0.69696 0.59114 0.26476
 C818 C 0.67495 0.63911 0.26889
 H819 H 0.73781 0.58909 0.24948
 H820 H 0.63363 0.64073 0.28208
 C821 C 0.21021 0.08275 0.77795
 C822 C 0.18856 0.13011 0.78822
 H823 H 0.24994 0.08209 0.75943
 H824 H 0.14798 0.13050 0.80444
 C825 C 0.31575 0.11725 0.20367
 C826 C 0.28385 0.13652 0.24430
 H827 H 0.32831 0.14208 0.16545
 H828 H 0.27388 0.11123 0.28330
 C829 C 0.81184 0.61214 0.70430
 C830 C 0.78661 0.63540 0.74784
 H831 H 0.81951 0.63321 0.66199
 H832 H 0.78111 0.61334 0.79015
 C833 C 0.88678 0.72934 0.20850
 C834 C 0.85784 0.76375 0.23874
 H835 H 0.86962 0.68979 0.19625
 H836 H 0.87766 0.80084 0.25476
 C837 C 0.39456 0.22741 0.71271
 C838 C 0.36545 0.26147 0.74289
 H839 H 0.37985 0.18597 0.70537
 H840 H 0.38353 0.30124 0.75111
 C841 C 0.41034 0.71562 0.83280
 C842 C 0.38693 0.73742 0.78253
 H843 H 0.38567 0.69154 0.86357
 H844 H 0.41149 0.76379 0.75377
 C845 C 0.91783 0.22315 0.30266
 C846 C 0.88196 0.25853 0.28190
 H847 H 0.91327 0.18120 0.29000
 H848 H 0.89324 0.30140 0.28625
 C849 C 0.10190 0.24290 0.29621
 C850 C 0.13641 0.28358 0.27812
 H851 H 0.10889 0.20150 0.28461
 H852 H 0.12778 0.32420 0.29009
 C853 C 0.60462 0.74231 0.79730
 C854 C 0.64024 0.78245 0.77972
 H855 H 0.61064 0.70111 0.78420
 H856 H 0.63347 0.82302 0.79367
 C857 C 0.59013 0.24658 0.68499
 C858 C 0.61075 0.26070 0.73975
 H859 H 0.61586 0.23006 0.65256
 H860 H 0.58489 0.27837 0.77130
 C861 C 0.08428 0.74647 0.18787
 C862 C 0.10499 0.76423 0.24130
 H863 H 0.11014 0.72788 0.15706
 H864 H 0.07912 0.78431 0.27092
   
