data_POSCAR
  _audit_creation_date              2014-09-24
  _audit_creation_method            'ToBaCCo'
  _symmetry_space_group_name_H-M    'P1'
  _symmetry_Int_Tables_number       1
  _symmetry_cell_setting            triclinic
  loop_
  _symmetry_equiv_pos_as_xyz
 x,y,z
_cell_length_a 41.5131
_cell_length_b 40.9808
_cell_length_c 40.7982
_cell_angle_alpha 92.111600
_cell_angle_beta 92.304600
_cell_angle_gamma 92.200400
loop_
  _atom_site_label
  _atom_site_type_symbol
  _atom_site_fract_x
  _atom_site_fract_y
  _atom_site_fract_z
N1 N 0.18120 1.24665 0.15827
 N2 N 0.15727 1.24377 0.17828
 C3 C 0.13745 1.26870 0.17414
 C4 C 0.14984 1.28803 0.15036
 C5 C 0.17746 1.27349 0.14063
 H6 H 0.11552 1.27221 0.18706
 H7 H 0.19334 1.28154 0.12189
 Cu8 Cu 0.15366 1.20744 0.20732
 Cu9 Cu 0.21507 1.21518 0.15630
 Cu10 Cu 0.21482 1.15621 0.21487
 N11 N 0.15702 1.17815 0.24353
 N12 N 0.18085 1.15805 0.24633
 C13 C 0.17697 1.14027 0.27311
 C14 C 0.14938 1.15002 0.28771
 C15 C 0.13714 1.17394 0.26846
 H16 H 0.19276 1.12147 0.28110
 H17 H 0.11529 1.18695 0.27206
 N18 N 0.24711 1.15859 0.18088
 N19 N 0.24723 1.18112 0.15853
 C20 C 0.27216 1.17646 0.13897
 C21 C 0.28835 1.14990 0.14970
 C22 C 0.27197 1.13900 0.17613
 H23 H 0.27807 1.19113 0.11839
 H24 H 0.27771 1.11829 0.19065
 H25 H 0.19062 1.17563 0.17519
 H26 H 0.21194 1.20530 0.20542
 N27 N 0.83134 0.76657 0.13359
 N28 N 0.84972 0.76338 0.16023
 C29 C 0.86972 0.73877 0.15504
 C30 C 0.86343 0.72607 0.12361
 C31 C 0.83902 0.74409 0.11055
 H32 H 0.88713 0.73030 0.17288
 H33 H 0.82733 0.74071 0.08641
 Cu34 Cu 0.84503 0.79101 0.19939
 Cu35 Cu 0.79778 0.79852 0.13138
 Cu36 Cu 0.78845 0.84727 0.20148
 N37 N 0.83999 0.81887 0.23836
 N38 N 0.81758 0.84071 0.23907
 C39 C 0.82037 0.85794 0.26787
 C40 C 0.84574 0.84605 0.28605
 C41 C 0.85788 0.82150 0.26671
 H42 H 0.80611 0.87858 0.27438
 H43 H 0.87901 0.80775 0.27223
 N44 N 0.76137 0.85037 0.16105
 N45 N 0.76513 0.83214 0.13418
 C46 C 0.74282 0.83982 0.11107
 C47 C 0.72441 0.86392 0.12418
 C48 C 0.73663 0.87011 0.15574
 H49 H 0.73981 0.82845 0.08674
 H50 H 0.72783 0.88744 0.17355
 H51 H 0.81911 0.83146 0.16596
 H52 H 0.78967 0.80038 0.18088
 N53 N 0.81744 1.23772 -0.15979
 N54 N 0.83976 1.23703 -0.18177
 C55 C 0.85758 1.26527 -0.17914
 C56 C 0.84553 1.28452 -0.15445
 C57 C 0.82025 1.26640 -0.14251
 H58 H 0.87859 1.27087 -0.19304
 H59 H 0.80603 1.27294 -0.12181
 Cu60 Cu 0.84468 1.19845 -0.21007
 Cu61 Cu 0.78840 1.20033 -0.15321
 Cu62 Cu 0.79812 1.13041 -0.20186
 N63 N 0.84988 1.15914 -0.23720
 N64 N 0.83174 1.13252 -0.23380
 C65 C 0.83967 1.10946 -0.25614
 C66 C 0.86400 1.12251 -0.27425
 C67 C 0.86999 1.15393 -0.26179
 H68 H 0.82818 1.08536 -0.25942
 H69 H 0.88723 1.17175 -0.27043
 N70 N 0.76537 1.13325 -0.16827
 N71 N 0.76143 1.16006 -0.15010
 C72 C 0.73665 1.15481 -0.13039
 C73 C 0.72459 1.12334 -0.13652
 C74 C 0.74313 1.11023 -0.16056
 H75 H 0.72772 1.17259 -0.11313
 H76 H 0.74027 1.08597 -0.17188
 H77 H 0.81946 1.16526 -0.16907
 H78 H 0.78958 1.17964 -0.20021
 N79 N 0.16170 0.76195 -0.14988
 N80 N 0.13587 0.76572 -0.16893
 C81 C 0.11271 0.74351 -0.16154
 C82 C 0.12485 0.72519 -0.13655
 C83 C 0.15586 0.73737 -0.12970
 H84 H 0.08903 0.74056 -0.17357
 H85 H 0.17298 0.72869 -0.11167
 Cu86 Cu 0.13581 0.79878 -0.20196
 Cu87 Cu 0.20127 0.78861 -0.15301
 Cu88 Cu 0.20115 0.84758 -0.21190
 N89 N 0.13575 0.83184 -0.23499
 N90 N 0.16154 0.85084 -0.23866
 C91 C 0.15564 0.87110 -0.26323
 C92 C 0.12462 0.86431 -0.27547
 C93 C 0.11253 0.83931 -0.25725
 H94 H 0.17274 0.88909 -0.27183
 H95 H 0.08887 0.82731 -0.26029
 N96 N 0.23886 0.84045 -0.18244
 N97 N 0.23891 0.81799 -0.16002
 C98 C 0.26731 0.82036 -0.14273
 C99 C 0.28585 0.84529 -0.15503
 C100 C 0.26723 0.85767 -0.17998
 H101 H 0.27356 0.80607 -0.12181
 H102 H 0.27340 0.87858 -0.19422
 H103 H 0.17974 0.82900 -0.17140
 H104 H 0.19452 0.79873 -0.20198
 C105 C 0.47632 1.02575 0.02538
 C106 C 0.49861 1.00346 0.04447
 C107 C 0.51595 0.98381 0.02459
 C108 C 0.50925 0.98799 -0.01233
 C109 C 0.49863 1.04462 0.00298
 C110 C 0.51597 1.02471 -0.01664
 C111 C 0.45538 1.00280 0.00235
 C112 C 0.47248 0.98309 -0.01732
 H113 H 0.50264 1.00534 0.07097
 H114 H 0.52310 0.97178 -0.02853
 H115 H 0.50269 1.07099 0.00479
 H116 H 0.42914 1.00213 0.00168
 C117 C 0.02525 0.47589 1.02701
 C118 C 0.04399 0.49850 1.00471
 C119 C 0.02445 0.51605 0.98484
 C120 C -0.01184 0.50923 0.98883
 C121 C 0.00311 0.49844 1.04581
 C122 C -0.01619 0.51599 1.02569
 C123 C 0.00272 0.45466 1.00384
 C124 C -0.01663 0.47198 0.98392
 H125 H 0.07003 0.50257 1.00668
 H126 H -0.02775 0.52325 0.97244
 H127 H 0.00475 0.50246 1.07231
 H128 H 0.00206 0.42809 1.00329
 C129 C 1.02486 0.02697 0.47603
 C130 C 1.00273 0.04566 0.49869
 C131 C 0.98352 0.02561 0.51633
 C132 C 0.98795 -0.01107 0.50953
 C133 C 1.04371 0.00478 0.49873
 C134 C 1.02426 -0.01501 0.51638
 C135 C 1.00234 0.00389 0.45470
 C136 C 0.98310 -0.01597 0.47211
 H137 H 1.00430 0.07204 0.50272
 H138 H 0.97211 -0.02740 0.52362
 H139 H 1.06975 0.00675 0.50278
 H140 H 1.00164 0.00331 0.42801
 C141 C 0.07818 0.40661 1.11794
 C142 C 0.07164 0.36961 1.11012
 C143 C 0.10819 0.36502 1.11010
 C144 C 0.11506 0.40161 1.11820
 C145 C 0.07857 0.41232 1.08096
 C146 C 0.11512 0.40776 1.08089
 C147 C 0.07179 0.37569 1.07295
 C148 C 0.10853 0.37077 1.07312
 C149 C 0.12394 0.33775 1.12547
 C150 C 0.13632 0.31461 1.13742
 C151 C 0.06107 0.43720 1.06350
 C152 C 0.04553 0.45585 1.04779
 H153 H 0.06553 0.42166 1.13618
 H154 H 0.05393 0.35361 1.12227
 H155 H 0.13307 0.41192 1.13701
 H156 H 0.13280 0.42377 1.06871
 H157 H 0.05380 0.36527 1.05416
 H158 H 0.12114 0.35573 1.05484
 C159 C -0.06533 0.60517 1.09688
 C160 C -0.05717 0.64093 1.08818
 C161 C -0.09340 0.64651 1.08325
 C162 C -0.10180 0.61116 1.09214
 C163 C -0.06449 0.59495 1.06033
 C164 C -0.10071 0.60050 1.05537
 C165 C -0.05607 0.63029 1.05143
 C166 C -0.09257 0.63632 1.04668
 C167 C -0.10917 0.67513 1.09670
 C168 C -0.12182 0.69850 1.10855
 C169 C -0.04802 0.56632 1.04793
 C170 C -0.03391 0.54310 1.03786
 H171 H -0.05393 0.59207 1.11738
 H172 H -0.03942 0.65788 1.10179
 H173 H -0.12078 0.60358 1.10902
 H174 H -0.11840 0.58353 1.04173
 H175 H -0.03707 0.63784 1.03456
 H176 H -0.10393 0.64946 1.02619
 C177 C -0.11141 0.41690 0.90847
 C178 C -0.10114 0.40001 0.87599
 C179 C -0.10982 0.36658 0.88989
 C180 C -0.12041 0.38298 0.92196
 C181 C -0.07688 0.41413 0.92282
 C182 C -0.08566 0.38065 0.93655
 C183 C -0.06630 0.39773 0.89074
 C184 C -0.07531 0.36399 0.90430
 C185 C -0.12692 0.33856 0.87281
 C186 C -0.13996 0.31437 0.85987
 C187 C -0.05708 0.43829 0.94280
 C188 C -0.03933 0.45536 0.96081
 H189 H -0.12601 0.43897 0.91037
 H190 H -0.10773 0.40762 0.85084
 H191 H -0.14283 0.37658 0.93464
 H192 H -0.07912 0.37290 0.96166
 H193 H -0.04386 0.40410 0.87809
 H194 H -0.06060 0.34198 0.90249
 C195 C 0.09558 0.60494 0.93589
 C196 C 0.09141 0.61105 0.89876
 C197 C 0.08304 0.64648 0.90722
 C198 C 0.08739 0.64078 0.94411
 C199 C 0.05953 0.59510 0.93633
 C200 C 0.05113 0.63053 0.94482
 C201 C 0.05514 0.60079 0.89944
 C202 C 0.04696 0.63670 0.90765
 C203 C 0.09696 0.67486 0.89123
 C204 C 0.10924 0.69796 0.87838
 C205 C 0.04688 0.56649 0.95286
 C206 C 0.03667 0.54324 0.96702
 H207 H 0.11545 0.59159 0.94767
 H208 H 0.10813 0.60336 0.87962
 H209 H 0.10076 0.65756 0.96233
 H210 H 0.03442 0.63820 0.96397
 H211 H 0.04174 0.58401 0.88126
 H212 H 0.02711 0.65010 0.89590
 C213 C 1.08408 0.06451 0.37855
 C214 C 1.07279 0.09560 0.36187
 C215 C 1.10762 0.10975 0.36479
 C216 C 1.11915 0.07885 0.38114
 C217 C 1.07799 0.08071 0.41220
 C218 C 1.11284 0.09483 0.41521
 C219 C 1.06646 0.11160 0.39584
 C220 C 1.10159 0.12605 0.39840
 C221 C 1.12340 0.12511 0.33748
 C222 C 1.13580 0.13706 0.31432
 C223 C 1.06053 0.06332 0.43716
 C224 C 1.04506 0.04767 0.45588
 H225 H 1.07670 0.03901 0.37062
 H226 H 1.05649 0.09604 0.33965
 H227 H 1.14097 0.06554 0.37477
 H228 H 1.12908 0.09432 0.43746
 H229 H 1.04462 0.12490 0.40218
 H230 H 1.10900 0.15156 0.40623
 C231 C 1.09359 -0.07713 0.59823
 C232 C 1.09819 -0.06136 0.63325
 C233 C 1.08338 -0.09262 0.64713
 C234 C 1.07895 -0.10863 0.61251
 C235 C 1.05968 -0.06347 0.59564
 C236 C 1.04481 -0.09471 0.60950
 C237 C 1.06408 -0.04745 0.63026
 C238 C 1.04945 -0.07895 0.64460
 C239 C 1.09742 -0.10864 0.67555
 C240 C 1.10980 -0.12151 0.69869
 C241 C 1.04691 -0.04694 0.56696
 C242 C 1.03661 -0.03280 0.54364
 H243 H 1.11161 -0.07620 0.57888
 H244 H 1.12026 -0.04780 0.64337
 H245 H 1.08519 -0.13398 0.60556
 H246 H 1.02271 -0.10822 0.59939
 H247 H 1.05784 -0.02209 0.63723
 H248 H 1.03145 -0.07986 0.66399
 C249 C 0.92727 -0.07231 0.37723
 C250 C 0.92691 -0.10980 0.37156
 C251 C 0.89005 -0.10999 0.36639
 C252 C 0.89023 -0.07268 0.37177
 C253 C 0.92296 -0.07699 0.41404
 C254 C 0.88609 -0.07712 0.40892
 C255 C 0.92285 -0.11430 0.40873
 C256 C 0.88558 -0.11483 0.40315
 C257 C 0.87285 -0.12714 0.33838
 C258 C 0.85970 -0.14018 0.31420
 C259 C 0.94276 -0.05701 0.43826
 C260 C 0.96047 -0.03904 0.45541
 H261 H 0.94462 -0.05464 0.36676
 H262 H 0.94353 -0.12336 0.35588
 H263 H 0.87670 -0.05569 0.35629
 H264 H 0.86955 -0.06350 0.42462
 H265 H 0.93644 -0.13121 0.42423
 H266 H 0.86819 -0.13255 0.41346
 C267 C 0.90057 0.05051 0.60415
 C268 C 0.91229 0.04668 0.64032
 C269 C 0.90638 0.08300 0.64739
 C270 C 0.89441 0.08704 0.61169
 C271 C 0.93529 0.06014 0.59564
 C272 C 0.92938 0.09644 0.60274
 C273 C 0.94727 0.05610 0.63134
 C274 C 0.94110 0.09259 0.63884
 C275 C 0.89064 0.09643 0.67613
 C276 C 0.87799 0.10828 0.69957
 C277 C 0.95174 0.04776 0.56690
 C278 C 0.96582 0.03771 0.54358
 H279 H 0.88411 0.03305 0.58954
 H280 H 0.90510 0.02638 0.65611
 H281 H 0.87249 0.09989 0.60391
 H282 H 0.93660 0.11677 0.58698
 H283 H 0.96920 0.04326 0.63912
 H284 H 0.95760 0.11002 0.65344
 C285 C 0.40751 1.07854 0.11577
 C286 C 0.40189 1.11578 0.11598
 C287 C 0.36584 1.10816 0.10785
 C288 C 0.37106 1.07126 0.10792
 C289 C 0.41304 1.07917 0.07879
 C290 C 0.37696 1.07165 0.07075
 C291 C 0.40785 1.11608 0.07868
 C292 C 0.37140 1.10874 0.07088
 C293 C 0.33878 1.12361 0.12333
 C294 C 0.31595 1.13579 0.13554
 C295 C 0.43787 1.06186 0.06146
 C296 C 0.45645 1.04631 0.04591
 H297 H 0.42267 1.06597 0.13403
 H298 H 0.41180 1.13413 0.13479
 H299 H 0.35563 1.05299 0.12006
 H300 H 0.36694 1.05331 0.05196
 H301 H 0.42329 1.13431 0.06650
 H302 H 0.35624 1.12128 0.05259
 C303 C 0.60503 1.09594 -0.06472
 C304 C 0.64017 1.08664 -0.05655
 C305 C 0.64570 1.08266 -0.09346
 C306 C 0.61097 1.09214 -0.10187
 C307 C 0.59443 1.05961 -0.06478
 C308 C 0.59995 1.05559 -0.10169
 C309 C 0.62917 1.05011 -0.05635
 C310 C 0.63516 1.04631 -0.09353
 C311 C 0.67411 1.09622 -0.10917
 C312 C 0.69727 1.10817 -0.12180
 C313 C 0.56599 1.04711 -0.04842
 C314 C 0.54291 1.03695 -0.03437
 H315 H 0.59235 1.11621 -0.05270
 H316 H 0.65704 1.09953 -0.03815
 H317 H 0.60378 1.10956 -0.12078
 H318 H 0.58307 1.04267 -0.12005
 H319 H 0.63634 1.03268 -0.03743
 H320 H 0.64788 1.02605 -0.10553
 C321 C 0.37925 0.93026 -0.07712
 C322 C 0.37624 0.92563 -0.11488
 C323 C 0.36770 0.88921 -0.11096
 C324 C 0.37044 0.89368 -0.07339
 C325 C 0.41505 0.92210 -0.07810
 C326 C 0.40655 0.88568 -0.07413
 C327 C 0.41242 0.91771 -0.11569
 C328 C 0.40344 0.88087 -0.11209
 C329 C 0.33979 0.87221 -0.12797
 C330 C 0.31565 0.85940 -0.14082
 C331 C 0.43908 0.94205 -0.05822
 C332 C 0.45604 0.96002 -0.04031
 H333 H 0.36946 0.95077 -0.06256
 H334 H 0.36348 0.94191 -0.13177
 H335 H 0.35289 0.88369 -0.05615
 H336 H 0.41933 0.86946 -0.05720
 H337 H 0.43000 0.92777 -0.13284
 H338 H 0.41307 0.86032 -0.12670
 C339 C 0.60565 0.93690 0.09629
 C340 C 0.61094 0.89970 0.09373
 C341 C 0.64554 0.90700 0.08324
 C342 C 0.64066 0.94395 0.08599
 C343 C 0.59431 0.93567 0.05995
 C344 C 0.62891 0.94298 0.04944
 C345 C 0.59918 0.89871 0.05717
 C346 C 0.63424 0.90576 0.04688
 C347 C 0.67392 0.89130 0.09692
 C348 C 0.69708 0.87866 0.10893
 C349 C 0.56589 0.95204 0.04730
 C350 C 0.54284 0.96610 0.03701
 H351 H 0.59359 0.94988 0.11646
 H352 H 0.60384 0.88173 0.11209
 H353 H 0.65803 0.96240 0.09795
 H354 H 0.63596 0.96099 0.03108
 H355 H 0.58177 0.88033 0.04517
 H356 H 0.64631 0.89281 0.02670
   
