data_POSCAR
  _audit_creation_date              2014-09-24
  _audit_creation_method            'ToBaCCo'
  _symmetry_space_group_name_H-M    'P1'
  _symmetry_Int_Tables_number       1
  _symmetry_cell_setting            triclinic
  loop_
  _symmetry_equiv_pos_as_xyz
 x,y,z
_cell_length_a 29.5077
_cell_length_b 29.5175
_cell_length_c 29.5545
_cell_angle_alpha 100.999900
_cell_angle_beta 78.808500
_cell_angle_gamma 76.561500
loop_
  _atom_site_label
  _atom_site_type_symbol
  _atom_site_fract_x
  _atom_site_fract_y
  _atom_site_fract_z
C1 C 0.54104 0.50423 0.00384
 C2 C 0.50345 0.54244 -0.00034
 C3 C 0.45849 0.53416 -0.00196
 C4 C 0.44911 0.48983 0.00022
 C5 C 0.48653 0.45232 0.00487
 C6 C 0.53150 0.45994 0.00593
 H7 H 0.55917 0.43080 0.01017
 H8 H 0.43007 0.56296 -0.00551
 C9 C 0.00352 0.46016 0.51784
 C10 C -0.00108 0.49858 0.55663
 C11 C -0.00223 0.54422 0.54876
 C12 C 0.00191 0.55283 0.50293
 C13 C 0.00582 0.51390 0.46425
 C14 C 0.00706 0.46837 0.47234
 H15 H 0.00852 0.43923 0.44301
 H16 H -0.00329 0.57255 0.57863
 C17 C 0.49749 -0.00417 0.44300
 C18 C 0.45813 0.00298 0.48179
 C19 C 0.46549 0.00701 0.52762
 C20 C 0.51142 0.00311 0.53636
 C21 C 0.55117 -0.00263 0.49722
 C22 C 0.54324 -0.00730 0.45113
 H23 H 0.57226 -0.00968 0.42121
 H24 H 0.43522 0.00932 0.55627
 O25 O 0.47472 -0.00999 -0.07274
 O26 O 0.46153 0.00282 0.05595
 O27 O 0.46080 0.06134 -0.00035
 O28 O 0.47525 -0.06847 -0.01661
 O29 O 0.55401 -0.08193 -0.02780
 O30 O 0.53955 0.04808 -0.01159
 O31 O 0.54027 -0.01049 0.04474
 O32 O 0.55348 -0.02335 -0.08400
 Cu33 Cu 0.46015 -0.00227 -0.00731
 Cu34 Cu 0.55477 -0.01824 -0.02074
 C35 C 0.51620 -0.01831 -0.10000
 C36 C 0.49878 -0.00216 0.07200
 C37 C 0.49783 0.07657 -0.00380
 C38 C 0.51692 -0.09706 -0.02450
 O39 O -0.08090 0.55018 1.02631
 O40 O 0.04918 0.53596 1.00967
 O41 O -0.00933 0.53626 0.95353
 O42 O -0.02232 0.55058 1.08229
 O43 O -0.00883 0.47195 1.07197
 O44 O 0.00405 0.45764 0.94310
 O45 O 0.06254 0.45733 0.99926
 O46 O -0.06736 0.47156 1.01600
 Cu47 Cu -0.01720 0.55117 1.01893
 Cu48 Cu -0.00112 0.45670 1.00653
 C49 C -0.09600 0.51311 1.02357
 C50 C 0.07772 0.49435 1.00226
 C51 C -0.00087 0.49467 0.92664
 C52 C -0.01714 0.51357 1.09877
 O53 O 0.01470 -0.06578 0.45436
 O54 O -0.00260 0.06450 0.46885
 O55 O 0.07109 -0.00919 0.45332
 O56 O -0.05883 0.00779 0.46773
 O57 O -0.06948 0.01785 0.54555
 O58 O 0.06081 0.00124 0.53113
 O59 O -0.01324 0.07457 0.54667
 O60 O 0.00443 -0.05534 0.53218
 Cu61 Cu 0.00709 -0.00170 0.45323
 Cu62 Cu -0.00541 0.01055 0.54672
 C63 C 0.01196 -0.08242 0.49105
 C64 C -0.01019 0.09138 0.51015
 C65 C 0.08781 -0.00614 0.48984
 C66 C -0.08601 0.01511 0.50885
 C67 C -0.36418 0.55457 1.04510
 C68 C -0.32271 0.51703 1.02134
 C69 C -0.32647 0.47553 0.99224
 C70 C -0.37132 0.47148 0.98659
 C71 C -0.41356 0.50922 1.00960
 C72 C -0.40929 0.55066 1.03953
 C73 C -0.27594 0.52052 1.02612
 C74 C -0.23578 0.52142 1.02833
 C75 C -0.18781 0.52034 1.02883
 C76 C -0.14619 0.51782 1.02744
 H77 H -0.36171 0.58672 1.06812
 H78 H -0.29458 0.44628 0.97358
 H79 H -0.37264 0.43926 0.96278
 H80 H -0.44086 0.57959 1.05961
 C81 C 0.33251 0.50314 0.96529
 C82 C 0.30863 0.48044 0.99556
 C83 C 0.33164 0.45961 1.02680
 C84 C 0.37825 0.46188 1.02809
 C85 C 0.40278 0.48500 0.99793
 C86 C 0.37893 0.50556 0.96650
 C87 C 0.25975 0.48067 0.99579
 C88 C 0.21848 0.48231 0.99609
 C89 C 0.16981 0.48560 0.99698
 C90 C 0.12793 0.48927 0.99867
 H91 H 0.31506 0.51938 0.94092
 H92 H 0.31316 0.44255 1.05094
 H93 H 0.39386 0.44769 1.05447
 H94 H 0.39654 0.52276 0.94190
 C95 C -0.02081 -0.31370 0.52800
 C96 C 0.01052 -0.30885 0.48838
 C97 C 0.03857 -0.34973 0.45297
 C98 C 0.03548 -0.39537 0.45729
 C99 C 0.00398 -0.40096 0.49712
 C100 C -0.02396 -0.35916 0.53250
 C101 C 0.01416 -0.26179 0.48494
 C102 C 0.01608 -0.22167 0.48376
 C103 C 0.01672 -0.17391 0.48433
 C104 C 0.01560 -0.13247 0.48649
 H105 H -0.04283 -0.28224 0.55560
 H106 H 0.06342 -0.34643 0.42239
 H107 H 0.05958 -0.42626 0.43044
 H108 H -0.04939 -0.36130 0.56326
 C109 C 0.03439 0.32489 0.49615
 C110 C -0.00525 0.31905 0.52676
 C111 C -0.04086 0.35950 0.55656
 C112 C -0.03734 0.40567 0.55493
 C113 C 0.00190 0.41169 0.52350
 C114 C 0.03793 0.37091 0.49446
 C115 C -0.00985 0.27145 0.52591
 C116 C -0.01249 0.23098 0.52364
 C117 C -0.01388 0.18295 0.51962
 C118 C -0.01331 0.14140 0.51548
 H119 H 0.06214 0.29384 0.47293
 H120 H -0.07176 0.35538 0.58027
 H121 H -0.06588 0.43662 0.57708
 H122 H 0.06839 0.37478 0.46993
 C123 C 0.55898 -0.03856 -0.36539
 C124 C 0.52287 -0.00987 -0.32546
 C125 C 0.48382 0.02377 -0.33120
 C126 C 0.48047 0.02851 -0.37660
 C127 C 0.51643 -0.00016 -0.41743
 C128 C 0.55580 -0.03390 -0.41099
 C129 C 0.52498 -0.01511 -0.27843
 C130 C 0.52504 -0.01824 -0.23837
 C131 C 0.52336 -0.02024 -0.19078
 C132 C 0.52067 -0.02035 -0.14959
 H133 H 0.58920 -0.06505 -0.36135
 H134 H 0.45574 0.04632 -0.30049
 H135 H 0.45007 0.05555 -0.37956
 H136 H 0.58326 -0.05808 -0.44124
 C137 C 0.45642 0.03384 0.33856
 C138 C 0.48727 -0.00298 0.30027
 C139 C 0.51977 -0.04123 0.30887
 C140 C 0.52212 -0.04224 0.35545
 C141 C 0.49186 -0.00505 0.39403
 C142 C 0.45873 0.03287 0.38522
 C143 C 0.48714 -0.00081 0.25202
 C144 C 0.48833 0.00043 0.21127
 C145 C 0.49100 0.00093 0.16315
 C146 C 0.49416 0.00027 0.12172
 H147 H 0.43130 0.06373 0.33231
 H148 H 0.54386 -0.06987 0.27952
 H149 H 0.54797 -0.07173 0.36143
 H150 H 0.43563 0.06233 0.41434
 C151 C 0.47784 -0.32542 0.01055
 C152 C 0.51944 -0.32272 -0.01948
 C153 C 0.55617 -0.36478 -0.04343
 C154 C 0.55127 -0.40943 -0.03721
 C155 C 0.50962 -0.41264 -0.00651
 C156 C 0.47281 -0.36979 0.01684
 C157 C 0.52372 -0.27640 -0.02511
 C158 C 0.52502 -0.23650 -0.02793
 C159 C 0.52418 -0.18871 -0.02902
 C160 C 0.52171 -0.14718 -0.02803
 H161 H 0.44924 -0.29307 0.02939
 H162 H 0.58840 -0.36313 -0.06713
 H163 H 0.57955 -0.44149 -0.05741
 H164 H 0.44054 -0.37028 0.04133
 C165 C 0.49035 0.33675 0.04349
 C166 C 0.48029 0.30853 0.00506
 C167 C 0.47054 0.32788 -0.03295
 C168 C 0.47154 0.37510 -0.03280
 C169 C 0.48213 0.40337 0.00551
 C170 C 0.49137 0.38384 0.04369
 C171 C 0.48202 0.25916 0.00396
 C172 C 0.48457 0.21763 0.00311
 C173 C 0.48856 0.16876 0.00176
 C174 C 0.49257 0.12680 -0.00015
 H175 H 0.49811 0.32212 0.07299
 H176 H 0.46296 0.30625 -0.06300
 H177 H 0.46491 0.38933 -0.06281
 H178 H 0.49975 0.40505 0.07347
 C179 C -0.35321 0.03944 0.54561
 C180 C -0.31170 0.01058 0.51137
 C181 C -0.31554 -0.02292 0.47297
 C182 C -0.36060 -0.02754 0.46857
 C183 C -0.40298 0.00108 0.50284
 C184 C -0.39846 0.03491 0.54137
 C185 C -0.26496 0.01533 0.51484
 C186 C -0.22504 0.01794 0.51606
 C187 C -0.17741 0.01916 0.51551
 C188 C -0.13603 0.01842 0.51338
 H189 H -0.35068 0.06587 0.57526
 H190 H -0.28359 -0.04557 0.44631
 H191 H -0.36202 -0.05460 0.43886
 H192 H -0.42995 0.05915 0.56743
 C193 C 0.32271 0.03721 0.50226
 C194 C 0.31618 -0.00248 0.47256
 C195 C 0.35627 -0.03910 0.44352
 C196 C 0.40272 -0.03658 0.44513
 C197 C 0.40944 0.00266 0.47576
 C198 C 0.36904 0.03976 0.50392
 C199 C 0.26824 -0.00628 0.47372
 C200 C 0.22759 -0.00851 0.47618
 C201 C 0.17944 -0.00967 0.48033
 C202 C 0.13784 -0.00909 0.48452
 H203 H 0.29195 0.06572 0.52490
 H204 H 0.35161 -0.07006 0.42054
 H205 H 0.43333 -0.06594 0.42369
 H206 H 0.37344 0.07023 0.52786
 C207 C -0.04133 0.55617 1.36442
 C208 C -0.00683 0.52514 1.32438
 C209 C 0.03274 0.49203 1.33017
 C210 C 0.03742 0.48929 1.37574
 C211 C 0.00266 0.51982 1.41611
 C212 C -0.03668 0.55349 1.41013
 C213 C -0.01242 0.52581 1.27721
 C214 C -0.01592 0.52477 1.23710
 C215 C -0.01839 0.52200 1.18950
 C216 C -0.01886 0.51858 1.14833
 H217 H -0.07218 0.58181 1.36032
 H218 H 0.05961 0.46782 1.29942
 H219 H 0.06791 0.46301 1.37961
 H220 H -0.06422 0.57687 1.44080
 C221 C 0.03564 0.45390 0.65994
 C222 C -0.00040 0.48529 0.69861
 C223 C -0.03766 0.51948 0.69061
 C224 C -0.03848 0.52292 0.64427
 C225 C -0.00208 0.49207 0.60533
 C226 C 0.03486 0.45729 0.61350
 C227 C 0.00163 0.48405 0.74664
 C228 C 0.00265 0.48454 0.78731
 C229 C 0.00283 0.48671 0.83541
 C230 C 0.00187 0.48976 0.87686
 H231 H 0.06478 0.42747 0.66573
 H232 H -0.06567 0.54402 0.72026
 H233 H -0.06721 0.55002 0.63877
 H234 H 0.06370 0.43366 0.58406
   
