data_POSCAR
  _audit_creation_date              2014-09-24
  _audit_creation_method            'ToBaCCo'
  _symmetry_space_group_name_H-M    'P1'
  _symmetry_Int_Tables_number       1
  _symmetry_cell_setting            triclinic
  loop_
  _symmetry_equiv_pos_as_xyz
 x,y,z
_cell_length_a 42.0215
_cell_length_b 41.7956
_cell_length_c 15.3802
_cell_angle_alpha 89.716200
_cell_angle_beta 90.058100
_cell_angle_gamma 119.878200
loop_
  _atom_site_label
  _atom_site_type_symbol
  _atom_site_fract_x
  _atom_site_fract_y
  _atom_site_fract_z
O1 O 0.18841 0.44555 0.41739
 O2 O 0.25047 0.44481 0.58409
 O3 O 0.18967 0.44685 0.58514
 O4 O 0.25012 0.44433 0.41655
 O5 O 0.28085 0.50507 0.41174
 O6 O 0.22143 0.50767 0.58434
 O7 O 0.28257 0.50532 0.58100
 O8 O 0.21926 0.50635 0.41496
 Cu9 Cu 0.21654 0.43935 0.50084
 Cu10 Cu 0.25419 0.51224 0.49774
 C11 C 0.19293 0.47593 0.38778
 C12 C 0.27726 0.47466 0.61160
 C13 C 0.19524 0.47762 0.61397
 C14 C 0.27588 0.47418 0.38515
 O15 O 0.55760 -0.25472 0.42807
 O16 O 0.55339 -0.19224 0.58961
 O17 O 0.55224 -0.25489 0.59736
 O18 O 0.55827 -0.19197 0.42165
 O19 O 0.49790 -0.22238 0.40975
 O20 O 0.49230 -0.28473 0.58600
 O21 O 0.49296 -0.22161 0.57717
 O22 O 0.49755 -0.28470 0.41740
 Cu23 Cu 0.56141 -0.22061 0.51016
 Cu24 Cu 0.48912 -0.25648 0.49687
 C25 C 0.52853 -0.28028 0.39401
 C26 C 0.52243 -0.19600 0.60971
 C27 C 0.52111 -0.28072 0.62263
 C28 C 0.52908 -0.19634 0.38601
 O29 O 1.19263 0.75666 0.57514
 O30 O 1.25773 0.80534 0.39776
 O31 O 1.19886 0.74064 0.40757
 O32 O 1.26206 0.81168 0.56360
 O33 O 1.28584 0.77607 0.58965
 O34 O 1.22840 0.70985 0.42621
 O35 O 1.28633 0.77437 0.42211
 O36 O 1.21700 0.72084 0.59057
 Cu37 Cu 1.22470 0.78092 0.48457
 Cu38 Cu 1.25653 0.74185 0.51098
 C39 C 1.19288 0.72956 0.61146
 C40 C 1.28359 0.79910 0.37938
 C41 C 1.20369 0.71359 0.38881
 C42 C 1.28621 0.80620 0.60024
 O43 O 0.80064 0.55492 0.40270
 O44 O 0.74189 0.55110 0.58662
 O45 O 0.80865 0.56124 0.57060
 O46 O 0.73545 0.54744 0.41878
 O47 O 0.71459 0.48758 0.42084
 O48 O 0.78367 0.50087 0.58574
 O49 O 0.71657 0.49093 0.58937
 O50 O 0.77972 0.49535 0.41862
 Cu51 Cu 0.77402 0.55975 0.49413
 Cu52 Cu 0.74624 0.48768 0.50519
 C53 C 0.80045 0.52559 0.37982
 C54 C 0.71810 0.52000 0.61820
 C55 C 0.80898 0.53342 0.60284
 C56 C 0.71239 0.51513 0.39367
 O57 O 0.45114 0.19419 0.59361
 O58 O 0.44649 0.24955 0.41185
 O59 O 0.45229 0.18945 0.42543
 O60 O 0.44649 0.25336 0.57992
 O61 O 0.50704 0.28598 0.58387
 O62 O 0.51222 0.22551 0.41942
 O63 O 0.50670 0.28502 0.41528
 O64 O 0.51121 0.22612 0.58836
 Cu65 Cu 0.44299 0.21815 0.50187
 Cu66 Cu 0.51532 0.25901 0.50131
 C67 C 0.48210 0.20052 0.62269
 C68 C 0.47572 0.27738 0.38420
 C69 C 0.48348 0.19616 0.39739
 C70 C 0.47589 0.28016 0.60940
 O71 O 0.74059 0.19604 0.42009
 O72 O 0.80640 0.25995 0.57881
 O73 O 0.74325 0.19978 0.58857
 O74 O 0.80230 0.25856 0.41131
 O75 O 0.77265 0.28967 0.41088
 O76 O 0.71447 0.23186 0.59012
 O77 O 0.77827 0.29230 0.57988
 O78 O 0.71078 0.22718 0.42199
 Cu79 Cu 0.77603 0.22542 0.49938
 Cu80 Cu 0.74117 0.26350 0.50072
 C81 C 0.71425 0.20038 0.39498
 C82 C 0.80395 0.28703 0.60733
 C83 C 0.71875 0.20584 0.61956
 C84 C 0.79765 0.28423 0.38080
 N85 N 0.96248 0.54537 0.09149
 N86 N 0.93587 0.55313 0.10310
 N87 N 1.03711 0.55692 0.15583
 N88 N 1.06332 0.57282 0.21378
 N89 N 1.03960 0.58097 0.09717
 N90 N 1.06765 0.61412 0.11408
 N91 N 0.96012 0.52105 0.14941
 N92 N 0.93178 0.51135 0.20133
 C93 C 0.91690 0.53147 0.17158
 C94 C 1.08196 0.60847 0.18767
 N95 N 1.03462 0.46546 0.09353
 N96 N 1.06045 0.45695 0.10846
 N97 N 0.95737 0.45075 0.14821
 N98 N 0.93070 0.43176 0.20431
 N99 N 0.95740 0.42913 0.08680
 N100 N 0.93046 0.39503 0.09878
 N101 N 1.03417 0.48677 0.15517
 N102 N 1.05939 0.49294 0.21420
 Mn103 Mn 0.99712 0.50392 0.15309
 C104 C 1.07554 0.47393 0.18459
 C105 C 0.91410 0.39688 0.17277
 N106 N 1.04294 0.58323 -0.08979
 N107 N 1.07207 0.61643 -0.10066
 N108 N 0.96525 0.52533 -0.15663
 N109 N 0.94048 0.51929 -0.21650
 N110 N 0.96537 0.54758 -0.09642
 N111 N 0.94028 0.55702 -0.11343
 N112 N 1.04202 0.56061 -0.14988
 N113 N 1.07013 0.57766 -0.20276
 Mn114 Mn 1.00263 0.56483 0.00054
 C115 C 1.08907 0.61236 -0.17143
 C116 C 0.92496 0.53893 -0.18832
 N117 N 0.96019 0.43139 -0.09925
 N118 N 0.93424 0.39750 -0.11734
 N119 N 1.03864 0.49042 -0.15354
 N120 N 1.06497 0.49729 -0.20984
 N121 N 1.03735 0.46769 -0.09293
 N122 N 1.06301 0.45882 -0.10590
 N123 N 0.96169 0.45457 -0.15916
 N124 N 0.93693 0.43694 -0.22017
 Mn125 Mn 0.99742 0.44811 -0.00293
 Mn126 Mn 1.00183 0.50781 -0.15569
 Cl127 Cl 0.99965 0.50610 -0.00122
 C128 C 0.92006 0.40126 -0.19322
 C129 C 1.08003 0.47727 -0.17955
 N130 N 0.45915 0.42152 0.09017
 N131 N 0.45193 0.38722 0.10246
 N132 N 0.44364 0.48328 0.15101
 N133 N 0.42481 0.48988 0.20978
 N134 N 0.42183 0.46187 0.08966
 N135 N 0.38771 0.45378 0.10445
 N136 N 0.48091 0.44315 0.15137
 N137 N 0.48920 0.42428 0.20694
 C138 C 0.47110 0.38957 0.17527
 C139 C 0.38984 0.47118 0.18005
 N140 N 0.53631 0.57368 0.09434
 N141 N 0.54632 0.60830 0.11226
 N142 N 0.54969 0.51066 0.15335
 N143 N 0.56560 0.49808 0.20616
 N144 N 0.57285 0.53244 0.09387
 N145 N 0.60533 0.53514 0.10490
 N146 N 0.51321 0.55139 0.15331
 N147 N 0.50710 0.57026 0.21305
 Mn148 Mn 0.49683 0.49722 0.15309
 C149 C 0.52800 0.60578 0.18676
 C150 C 0.60014 0.51310 0.17487
 N151 N 0.42287 0.46314 -0.09676
 N152 N 0.38885 0.45502 -0.11305
 N153 N 0.48261 0.44540 -0.15702
 N154 N 0.49114 0.42725 -0.21348
 N155 N 0.46031 0.42299 -0.09708
 N156 N 0.45312 0.38888 -0.11085
 N157 N 0.44526 0.48538 -0.15673
 N158 N 0.42693 0.49267 -0.21597
 Mn159 Mn 0.44070 0.44202 -0.00354
 C160 C 0.39167 0.47340 -0.18795
 C161 C 0.47279 0.39221 -0.18331
 N162 N 0.57417 0.53446 -0.09421
 N163 N 0.60776 0.54034 -0.10710
 N164 N 0.51455 0.55328 -0.15344
 N165 N 0.50420 0.57167 -0.20506
 N166 N 0.53717 0.57501 -0.09346
 N167 N 0.54308 0.60897 -0.10318
 N168 N 0.55184 0.51282 -0.15466
 N169 N 0.56948 0.50299 -0.20969
 Mn170 Mn 0.55560 0.55433 0.00016
 Mn171 Mn 0.49861 0.49931 -0.15642
 Cl172 Cl 0.49793 0.49825 -0.00170
 C173 C 0.60426 0.52022 -0.17891
 C174 C 0.52209 0.60628 -0.17275
 N175 N 0.42520 -0.04216 0.09089
 N176 N 0.39187 -0.07097 0.09989
 N177 N 0.48425 0.03378 0.16067
 N178 N 0.49581 0.06151 0.21516
 N179 N 0.46288 0.03579 0.10119
 N180 N 0.45954 0.06529 0.11371
 N181 N 0.44743 -0.04340 0.14916
 N182 N 0.43008 -0.07292 0.19888
 C183 C 0.39557 -0.09012 0.16696
 C184 C 0.48056 0.08119 0.18495
 N185 N 0.57667 0.03802 0.09998
 N186 N 0.60939 0.06698 0.11461
 N187 N 0.51640 -0.04180 0.14869
 N188 N 0.50871 -0.06918 0.20310
 N189 N 0.53959 -0.03969 0.08876
 N190 N 0.54830 -0.06573 0.10062
 N191 N 0.55325 0.03549 0.15976
 N192 N 0.56928 0.06245 0.21640
 Mn193 Mn 0.50025 -0.00406 0.15537
 C194 C 0.60423 0.08217 0.18729
 C195 C 0.52841 -0.08406 0.17156
 N196 N 0.46458 0.04087 -0.08666
 N197 N 0.45812 0.06861 -0.09617
 N198 N 0.45057 -0.03412 -0.15694
 N199 N 0.43428 -0.06004 -0.21573
 N200 N 0.42712 -0.03689 -0.09697
 N201 N 0.39410 -0.06514 -0.11338
 N202 N 0.48822 0.04297 -0.14538
 N203 N 0.49873 0.07212 -0.19573
 Mn204 Mn 0.44438 -0.00062 0.00224
 C205 C 0.48001 0.08801 -0.16400
 C206 C 0.39922 -0.07960 -0.18740
 N207 N 0.54127 -0.03473 -0.09835
 N208 N 0.54614 -0.06317 -0.11242
 N209 N 0.55681 0.04401 -0.14618
 N210 N 0.57480 0.07317 -0.19668
 N211 N 0.57869 0.04286 -0.08710
 N212 N 0.61219 0.07120 -0.09635
 N213 N 0.51923 -0.03349 -0.15710
 N214 N 0.50844 -0.06103 -0.21215
 Mn215 Mn 0.55954 0.00164 0.00076
 Mn216 Mn 0.50374 0.00487 -0.15225
 Cl217 Cl 0.50193 0.00042 0.00150
 C218 C 0.52519 -0.07960 -0.18342
 C219 C 0.60949 0.09017 -0.16495
 C220 C 1.12786 0.50241 0.28607
 C221 C 1.15680 0.50371 0.33298
 C222 C 1.16586 0.47585 0.32525
 C223 C 1.14613 0.44685 0.26507
 C224 C 1.11525 0.44435 0.22037
 C225 C 1.10634 0.47292 0.23028
 C226 C 1.09412 0.41267 0.16946
 N227 N 1.10512 0.38752 0.15796
 N228 N 1.13554 0.39146 0.19451
 C229 C 1.15639 0.42021 0.24740
 H230 H 1.12196 0.52465 0.29470
 H231 H 1.17145 0.52621 0.37813
 H232 H 1.06860 0.40675 0.13990
 H233 H 1.18108 0.42219 0.27363
 C234 C 0.49795 0.63318 0.27121
 C235 C 0.49771 0.66120 0.31898
 C236 C 0.53009 0.69502 0.33342
 C237 C 0.56300 0.70118 0.29088
 C238 C 0.56340 0.67172 0.24536
 C239 C 0.53037 0.63756 0.23494
 C240 C 0.59723 0.67742 0.21321
 N241 N 0.62762 0.71118 0.21825
 N242 N 0.62657 0.73963 0.25341
 C243 C 0.59544 0.73594 0.28905
 H244 H 0.47236 0.60747 0.26334
 H245 H 0.47188 0.65539 0.34803
 H246 H 0.60022 0.65553 0.18487
 H247 H 0.59647 0.76070 0.31233
 C248 C 0.33262 -0.12330 0.22414
 C249 C 0.30559 -0.15022 0.27655
 C250 C 0.30958 -0.17891 0.31444
 C251 C 0.34066 -0.18219 0.28836
 C252 C 0.36880 -0.15367 0.23662
 C253 C 0.36511 -0.12342 0.20763
 C254 C 0.39953 -0.15679 0.21316
 N255 N 0.40189 -0.18657 0.23860
 N256 N 0.37540 -0.21370 0.28480
 C257 C 0.34491 -0.21281 0.30970
 H258 H 0.32902 -0.10077 0.20094
 H259 H 0.28199 -0.14716 0.29057
 H260 H 0.42129 -0.13641 0.17277
 H261 H 0.32415 -0.23701 0.34234
 C262 C 0.88794 0.56176 0.25021
 C263 C 0.85956 0.56029 0.30020
 C264 C 0.82631 0.52705 0.31149
 C265 C 0.82066 0.49546 0.26391
 C266 C 0.85013 0.49674 0.21579
 C267 C 0.88419 0.52997 0.21099
 C268 C 0.84432 0.46468 0.17249
 N269 N 0.81087 0.43379 0.17512
 N270 N 0.78283 0.43290 0.21744
 C271 C 0.78644 0.46263 0.26119
 H272 H 0.91380 0.58746 0.24640
 H273 H 0.86450 0.58500 0.33410
 H274 H 0.86580 0.46405 0.13522
 H275 H 0.76215 0.46043 0.29069
 C276 C 0.44450 0.33890 0.28212
 C277 C 0.44549 0.31148 0.33185
 C278 C 0.47328 0.30259 0.31981
 C279 C 0.49931 0.32034 0.25200
 C280 C 0.49819 0.34829 0.20139
 C281 C 0.47101 0.35801 0.21827
 C282 C 0.52450 0.36577 0.13542
 N283 N 0.54992 0.35547 0.12056
 N284 N 0.55065 0.32884 0.16690
 C285 C 0.52620 0.31086 0.23177
 H286 H 0.42354 0.34612 0.29554
 H287 H 0.42535 0.29835 0.38315
 H288 H 0.52496 0.38734 0.09534
 H289 H 0.52768 0.28890 0.26547
 C290 C 0.62984 0.11434 0.32540
 C291 C 0.65602 0.14287 0.37573
 C292 C 0.68640 0.17270 0.33702
 C293 C 0.69011 0.17438 0.24547
 C294 C 0.66312 0.14550 0.19352
 C295 C 0.63310 0.11461 0.23449
 C296 C 0.66686 0.14937 0.10255
 N297 N 0.69622 0.17925 0.06696
 N298 N 0.72194 0.20572 0.11588
 C299 C 0.71985 0.20435 0.20388
 H300 H 0.60708 0.09139 0.35836
 H301 H 0.65288 0.14132 0.44584
 H302 H 0.64657 0.12957 0.05901
 H303 H 0.74119 0.22686 0.24051
 C304 C 0.44943 0.11899 -0.23194
 C305 C 0.45012 0.14649 -0.28457
 C306 C 0.48349 0.17773 -0.31010
 C307 C 0.51669 0.18279 -0.27087
 C308 C 0.51579 0.15364 -0.22044
 C309 C 0.48195 0.12118 -0.20359
 C310 C 0.54889 0.15823 -0.18610
 N311 N 0.58062 0.19034 -0.19865
 N312 N 0.58143 0.21831 -0.24212
 C313 C 0.55076 0.21590 -0.27757
 H314 H 0.42328 0.09455 -0.21824
 H315 H 0.42403 0.14194 -0.30916
 H316 H 0.54977 0.13702 -0.14745
 H317 H 0.55365 0.24066 -0.30662
 C318 C 0.66492 0.55141 -0.24987
 C319 C 0.69283 0.55130 -0.29826
 C320 C 0.69241 0.51819 -0.31871
 C321 C 0.66409 0.48460 -0.27996
 C322 C 0.63464 0.48487 -0.23443
 C323 C 0.63494 0.51849 -0.22118
 C324 C 0.60610 0.45143 -0.20086
 N325 N 0.60747 0.41993 -0.20925
 N326 N 0.63565 0.41970 -0.24783
 C327 C 0.66401 0.45072 -0.28235
 H328 H 0.66586 0.57744 -0.23850
 H329 H 0.71419 0.57765 -0.32291
 H330 H 0.58304 0.45006 -0.16637
 H331 H 0.68659 0.44824 -0.30713
 C332 C 0.86344 0.37573 -0.28094
 C333 C 0.83426 0.34752 -0.32596
 C334 C 0.83070 0.31233 -0.33417
 C335 C 0.85641 0.30526 -0.28881
 C336 C 0.88731 0.33479 -0.24717
 C337 C 0.89033 0.37012 -0.24187
 C338 C 0.91458 0.32793 -0.21345
 N339 N 0.90929 0.29324 -0.21253
 N340 N 0.87872 0.26491 -0.24337
 C341 C 0.85209 0.26960 -0.28062
 H342 H 0.86508 0.40239 -0.27696
 H343 H 0.81513 0.35406 -0.35762
 H344 H 0.94032 0.34966 -0.18885
 H345 H 0.82753 0.24503 -0.30032
 C346 C 0.51395 -0.11521 -0.31841
 C347 C 0.51301 -0.14326 -0.36846
 C348 C 0.52095 -0.16905 -0.33166
 C349 C 0.52832 -0.16769 -0.24157
 C350 C 0.52829 -0.13965 -0.18942
 C351 C 0.52242 -0.11217 -0.22934
 C352 C 0.53307 -0.14111 -0.09909
 N353 N 0.53897 -0.16767 -0.06480
 N354 N 0.54008 -0.19315 -0.11424
 C355 C 0.53488 -0.19413 -0.20137
 H356 H 0.50881 -0.09512 -0.35062
 H357 H 0.50711 -0.14416 -0.43734
 H358 H 0.53122 -0.12229 -0.05461
 H359 H 0.53540 -0.21585 -0.23822
 C360 C 0.36553 0.50438 -0.27540
 C361 C 0.33732 0.50533 -0.32075
 C362 C 0.30232 0.47376 -0.32792
 C363 C 0.29535 0.44137 -0.28029
 C364 C 0.32484 0.43989 -0.23840
 C365 C 0.36012 0.47200 -0.23494
 C366 C 0.31792 0.40583 -0.20293
 N367 N 0.28328 0.37679 -0.20041
 N368 N 0.25507 0.37932 -0.23137
 C369 C 0.25980 0.41051 -0.27041
 H370 H 0.39212 0.52926 -0.27284
 H371 H 0.34376 0.53080 -0.35393
 H372 H 0.33948 0.40149 -0.17828
 H373 H 0.23543 0.41090 -0.29030
 C374 C 1.13815 0.67941 -0.18730
 C375 C 1.16195 0.70925 -0.24137
 C376 C 1.16214 0.70391 -0.33151
 C377 C 1.13876 0.66858 -0.36426
 C378 C 1.12478 0.63831 -0.30922
 C379 C 1.11931 0.64315 -0.22078
 C380 C 1.11912 0.60550 -0.34670
 N381 N 1.12260 0.60416 -0.43447
 N382 N 1.12414 0.62962 -0.49083
 C383 C 1.13106 0.66211 -0.45246
 H384 H 1.13543 0.68436 -0.11941
 H385 H 1.17970 0.73612 -0.21343
 H386 H 1.11552 0.58241 -0.30753
 H387 H 1.13546 0.68534 -0.49328
 C388 C 0.86123 0.52572 -0.20705
 C389 C 0.83293 0.52356 -0.25871
 C390 C 0.84009 0.53882 -0.34259
 C391 C 0.87662 0.55703 -0.37483
 C392 C 0.90527 0.55898 -0.32244
 C393 C 0.89722 0.54259 -0.23874
 C394 C 0.94124 0.57711 -0.35605
 N395 N 0.94772 0.59154 -0.43751
 N396 N 0.92071 0.58905 -0.48753
 C397 C 0.88547 0.57225 -0.45921
 H398 H 0.85477 0.51278 -0.14338
 H399 H 0.80512 0.50939 -0.23360
 H400 H 0.96428 0.58010 -0.31826
 H401 H 0.86484 0.57086 -0.50324
 C402 C 0.45023 0.34748 -0.30201
 C403 C 0.45070 0.32001 -0.35155
 C404 C 0.47376 0.30599 -0.32937
 C405 C 0.49548 0.31866 -0.25304
 C406 C 0.49480 0.34656 -0.20239
 C407 C 0.47233 0.36121 -0.22829
 C408 C 0.51699 0.35916 -0.12782
 N409 N 0.53790 0.34412 -0.10492
 N410 N 0.53806 0.31742 -0.15151
 C411 C 0.51756 0.30412 -0.22455
 H412 H 0.43298 0.35864 -0.32230
 H413 H 0.43398 0.31066 -0.40970
 H414 H 0.51777 0.38067 -0.08745
 H415 H 0.51835 0.28199 -0.25870
 C416 C 0.62996 0.13984 -0.27380
 C417 C 0.65595 0.16768 -0.32608
 C418 C 0.69330 0.18086 -0.31332
 C419 C 0.70482 0.16807 -0.24104
 C420 C 0.67829 0.13957 -0.18648
 C421 C 0.64011 0.12393 -0.20623
 C422 C 0.69152 0.12838 -0.11487
 N423 N 0.72808 0.14447 -0.09972
 N424 N 0.75261 0.17116 -0.15065
 C425 C 0.74224 0.18357 -0.22045
 H426 H 0.60136 0.12977 -0.28918
 H427 H 0.64662 0.17763 -0.38010
 H428 H 0.67391 0.10794 -0.06866
 H429 H 0.76334 0.20603 -0.25791
 C430 C 1.13169 0.50500 -0.28276
 C431 C 1.16002 0.50594 -0.33108
 C432 C 1.16947 0.47845 -0.32155
 C433 C 1.15127 0.45058 -0.25751
 C434 C 1.12102 0.44842 -0.21057
 C435 C 1.11114 0.47626 -0.22360
 C436 C 1.10170 0.41790 -0.15429
 N437 N 1.11365 0.39353 -0.14114
 N438 N 1.14337 0.39714 -0.18076
 C439 C 1.16258 0.42479 -0.23825
 H440 H 1.12531 0.52681 -0.29364
 H441 H 1.17370 0.52768 -0.37907
 H442 H 1.07698 0.41221 -0.12114
 H443 H 1.18689 0.42668 -0.26691
 C444 C 0.55276 0.66863 -0.23632
 C445 C 0.55243 0.69636 -0.28586
 C446 C 0.51923 0.69422 -0.31215
 C447 C 0.48567 0.66505 -0.27645
 C448 C 0.48624 0.63596 -0.22908
 C449 C 0.52003 0.63745 -0.21186
 C450 C 0.45288 0.60666 -0.19774
 N451 N 0.42118 0.60703 -0.21024
 N452 N 0.42064 0.63489 -0.25092
 C453 C 0.45159 0.66395 -0.28340
 H454 H 0.57886 0.67049 -0.22166
 H455 H 0.57873 0.71865 -0.30773
 H456 H 0.45173 0.58389 -0.16143
 H457 H 0.44895 0.68634 -0.31023
 C458 C 0.33462 -0.11675 -0.23720
 C459 C 0.30778 -0.14317 -0.29139
 C460 C 0.31593 -0.16479 -0.34639
 C461 C 0.35216 -0.15949 -0.34651
 C462 C 0.37846 -0.13473 -0.28657
 C463 C 0.37021 -0.11170 -0.23501
 C464 C 0.41224 -0.13412 -0.28013
 N465 N 0.42050 -0.15371 -0.33655
 N466 N 0.39724 -0.17406 -0.39861
 C467 C 0.36357 -0.17742 -0.40599
 H468 H 0.32774 -0.09952 -0.19825
 H469 H 0.28044 -0.14668 -0.29051
 H470 H 0.43194 -0.11895 -0.22990
 H471 H 0.34663 -0.19349 -0.45948
 C472 C 0.55455 -0.10455 0.28692
 C473 C 0.55494 -0.13184 0.33823
 C474 C 0.53132 -0.16930 0.32052
 C475 C 0.50850 -0.17931 0.24578
 C476 C 0.50812 -0.15138 0.19370
 C477 C 0.53086 -0.11391 0.21591
 C478 C 0.48460 -0.16196 0.12143
 N479 N 0.46356 -0.19819 0.10161
 N480 N 0.46449 -0.22443 0.14921
 C481 C 0.48625 -0.21627 0.22035
 H482 H 0.57202 -0.07588 0.30451
 H483 H 0.57256 -0.12358 0.39493
 H484 H 0.48296 -0.14175 0.08027
 H485 H 0.48638 -0.23872 0.25517
 C486 C 0.36584 0.50094 0.27679
 C487 C 0.33841 0.50229 0.32409
 C488 C 0.30207 0.47318 0.32176
 C489 C 0.29311 0.44271 0.26629
 C490 C 0.32148 0.44037 0.22128
 C491 C 0.35828 0.47023 0.22594
 C492 C 0.31178 0.40759 0.17554
 N493 N 0.27611 0.38094 0.16886
 N494 N 0.24939 0.38448 0.20543
 C495 C 0.25662 0.41438 0.25361
 H496 H 0.39352 0.52413 0.28118
 H497 H 0.34609 0.52596 0.36541
 H498 H 0.33179 0.40210 0.14631
 H499 H 0.23363 0.41582 0.27985
 C500 C 1.14259 0.66749 0.19555
 C501 C 1.17347 0.69229 0.24388
 C502 C 1.17753 0.68413 0.33064
 C503 C 1.14991 0.65095 0.36795
 C504 C 1.11586 0.63211 0.32687
 C505 C 1.11336 0.63696 0.23701
 C506 C 1.08503 0.61234 0.37987
 N507 N 1.08949 0.61344 0.46731
 C508 C 1.15250 0.63921 0.45212
 H509 H 1.14103 0.67271 0.12708
 H510 H 1.19413 0.71772 0.21387
 H511 H 1.05744 0.59961 0.35429
 H512 H 1.17964 0.64828 0.47866
 C513 C 0.45526 0.12059 0.23159
 C514 C 0.45577 0.14758 0.28526
 C515 C 0.48601 0.16929 0.33887
 C516 C 0.51721 0.16432 0.33519
 C517 C 0.51750 0.13858 0.27566
 C518 C 0.48529 0.11487 0.22817
 C519 C 0.55023 0.13741 0.26568
 N520 N 0.57929 0.15779 0.31799
 N521 N 0.57789 0.17932 0.37944
 C522 C 0.54791 0.18307 0.39040
 H523 H 0.43054 0.10303 0.19520
 H524 H 0.43179 0.15089 0.28636
 H525 H 0.55333 0.12109 0.21578
 H526 H 0.54857 0.20004 0.44351
 C527 C 0.66479 0.53896 0.21905
 C528 C 0.69132 0.53958 0.27418
 C529 C 0.68312 0.51030 0.33192
 C530 C 0.64740 0.47849 0.32984
 C531 C 0.62107 0.47717 0.26965
 C532 C 0.62919 0.50873 0.21851
 C533 C 0.58723 0.44413 0.26290
 N534 N 0.57914 0.41563 0.31776
 N535 N 0.60258 0.41788 0.37880
 C536 C 0.63618 0.44827 0.38726
 H537 H 0.67173 0.56316 0.17976
 H538 H 0.71837 0.56391 0.27354
 H539 H 0.56738 0.44035 0.21357
 H540 H 0.65304 0.44821 0.43985
 C541 C 0.86074 0.37381 0.26992
 C542 C 0.83205 0.34679 0.31848
 C543 C 0.82333 0.30986 0.31435
 C544 C 0.84243 0.29971 0.25453
 C545 C 0.87310 0.32752 0.20786
 C546 C 0.88235 0.36522 0.21615
 C547 C 0.89362 0.31620 0.15696
 N548 N 0.88230 0.27984 0.14782
 N549 N 0.85212 0.25385 0.18664
 C550 C 0.83180 0.26250 0.23947
 H551 H 0.86667 0.40206 0.27654
 H552 H 0.81762 0.35526 0.36280
 H553 H 0.91880 0.33527 0.12510
 H554 H 0.80719 0.24010 0.26762
   
