data_POSCAR
  _audit_creation_date              2014-09-24
  _audit_creation_method            'ToBaCCo'
  _symmetry_space_group_name_H-M    'P1'
  _symmetry_Int_Tables_number       1
  _symmetry_cell_setting            triclinic
  loop_
  _symmetry_equiv_pos_as_xyz
 x,y,z
_cell_length_a 14.6844
_cell_length_b 14.7064
_cell_length_c 36.0896
_cell_angle_alpha 89.997200
_cell_angle_beta 90.169500
_cell_angle_gamma 119.909800
loop_
  _atom_site_label
  _atom_site_type_symbol
  _atom_site_fract_x
  _atom_site_fract_y
  _atom_site_fract_z
C1 C -0.03601 0.06207 0.52421
 C2 C -0.12723 -0.02230 0.50096
 C3 C -0.09976 -0.08434 0.48030
 C4 C 0.01757 -0.05295 0.48454
 C5 C 0.00372 0.00111 0.54659
 C6 C 0.02906 -0.06209 0.52682
 C7 C 0.04902 0.12318 0.49617
 C8 C 0.08054 0.06653 0.47577
 H9 H -0.20484 -0.03060 0.50068
 H10 H 0.04243 -0.09951 0.46761
 H11 H -0.00788 -0.00691 0.57640
 H12 H 0.08135 0.20703 0.49218
 C13 C 0.94047 -0.09605 0.19271
 C14 C 1.02539 -0.10226 0.16961
 C15 C 1.08733 -0.01243 0.14916
 C16 C 1.05533 0.07310 0.15372
 C17 C 0.99695 -0.00108 0.21423
 C18 C 1.06321 0.09261 0.19386
 C19 C 0.87909 -0.07267 0.16426
 C20 C 0.93574 0.01618 0.14422
 H21 H 1.03361 -0.17153 0.16901
 H22 H 1.10127 0.14414 0.13668
 H23 H 1.00508 -0.00471 0.24408
 H24 H 0.79532 -0.12456 0.15987
 C25 C 0.09809 1.03644 0.85841
 C26 C 0.10306 1.12702 0.83542
 C27 C 0.01317 1.09859 0.81472
 C28 C -0.07127 0.98104 0.81867
 C29 C -0.00265 0.99526 0.88071
 C30 C -0.09161 0.96899 0.86091
 C31 C 0.07548 0.95205 0.83011
 C32 C -0.01311 0.91956 0.80971
 H33 H 0.17170 1.20483 0.83515
 H34 H -0.14295 0.95549 0.80171
 H35 H 0.00089 1.00655 0.91056
 H36 H 0.12795 0.92067 0.82606
 O37 O 0.48030 0.11916 0.03900
 O38 O 0.64585 0.11048 -0.03746
 O39 O 0.49151 0.15081 -0.03402
 O40 O 0.67917 0.14967 0.03290
 O41 O 0.58933 -0.02329 0.03382
 O42 O 0.39955 -0.02188 -0.03131
 O43 O 0.54761 -0.06227 -0.03759
 O44 O 0.39312 -0.05398 0.03840
 Cu45 Cu 0.58139 0.14805 0.00068
 Cu46 Cu 0.47594 -0.05534 0.00178
 C47 C 0.40550 0.03164 0.05095
 C48 C 0.62434 0.02063 -0.05017
 C49 C 0.41305 0.06482 -0.04403
 C50 C 0.66909 0.06325 0.04370
 O51 O 0.02907 0.61425 0.69951
 O52 O 0.02682 0.42262 0.63453
 O53 O 0.05785 0.60702 0.62809
 O54 O 0.05085 0.44464 0.70446
 O55 O -0.12250 0.35846 0.70468
 O56 O -0.11516 0.53280 0.62822
 O57 O -0.14611 0.34326 0.63129
 O58 O -0.14417 0.53181 0.69844
 Cu59 Cu 0.05763 0.53112 0.66755
 Cu60 Cu -0.14885 0.43227 0.66638
 C61 C -0.05738 0.60782 0.70924
 C62 C -0.06009 0.35030 0.62156
 C63 C -0.02543 0.60086 0.61554
 C64 C -0.03484 0.37133 0.71680
 O65 O 0.46467 0.35215 0.29461
 O66 O 0.63900 0.51941 0.37106
 O67 O 0.46943 0.32331 0.36535
 O68 O 0.65804 0.50940 0.29828
 O69 O 0.57674 0.60094 0.30056
 O70 O 0.38493 0.41190 0.36518
 O71 O 0.55118 0.60535 0.37046
 O72 O 0.38961 0.45043 0.29403
 Cu73 Cu 0.56702 0.41757 0.33279
 Cu74 Cu 0.46799 0.52354 0.33332
 C75 C 0.39578 0.37317 0.28174
 C76 C 0.62516 0.59373 0.38303
 C77 C 0.39232 0.33295 0.37552
 C78 C 0.65025 0.58756 0.28816
 C79 C -0.05193 0.13744 0.54991
 C80 C -0.08493 0.21068 0.53118
 C81 C -0.08865 0.28120 0.55492
 C82 C -0.05939 0.27175 0.59517
 C83 C -0.13417 0.15636 0.60562
 C84 C -0.13081 0.08600 0.58178
 C85 C 0.05315 0.21239 0.56945
 C86 C 0.04920 0.28146 0.59277
 H87 H -0.10449 0.20669 0.50199
 H88 H -0.11104 0.33782 0.54596
 H89 H -0.18598 0.13218 0.62944
 H90 H -0.18007 0.00181 0.58510
 H91 H 0.12556 0.21068 0.56541
 H92 H 0.11800 0.33702 0.60837
 C93 C 0.86450 0.81138 0.21789
 C94 C 0.78778 0.83966 0.23706
 C95 C 0.71842 0.76571 0.25992
 C96 C 0.72933 0.66760 0.26223
 C97 C 0.72166 0.63046 0.22187
 C98 C 0.79263 0.70575 0.19862
 C99 C 0.91549 0.78341 0.24999
 C100 C 0.84467 0.70875 0.27335
 H101 H 0.78854 0.91327 0.23310
 H102 H 0.66174 0.77777 0.27521
 H103 H 0.66593 0.55172 0.21250
 H104 H 0.79785 0.69133 0.16943
 H105 H 0.99975 0.81863 0.25378
 H106 H 0.86854 0.68065 0.29722
 C107 C 0.19007 0.05368 -0.11585
 C108 C 0.21624 0.13217 -0.08381
 C109 C 0.29069 0.13667 -0.05991
 C110 C 0.33318 0.06333 -0.07047
 C111 C 0.23551 -0.04582 -0.07315
 C112 C 0.16187 -0.05089 -0.09654
 C113 C 0.29660 0.08816 -0.13445
 C114 C 0.37155 0.09303 -0.11065
 H115 H 0.17997 0.18036 -0.08042
 H116 H 0.31762 0.18840 -0.03599
 H117 H 0.22347 -0.11427 -0.05770
 H118 H 0.08855 -0.12382 -0.10078
 H119 H 0.31185 0.10785 -0.16360
 H120 H 0.45085 0.11656 -0.11952
 C121 C 0.01675 0.84231 0.54736
 C122 C -0.09909 0.76777 0.55795
 C123 C -0.11479 0.68605 0.57979
 C124 C -0.01356 0.68484 0.58904
 C125 C 0.03599 0.68750 0.55103
 C126 C 0.05200 0.77052 0.52908
 C127 C 0.07729 0.87426 0.58432
 C128 C 0.05990 0.79279 0.60615
 H129 H -0.16378 0.77770 0.54839
 H130 H -0.19250 0.62679 0.58880
 H131 H 0.05655 0.62946 0.54225
 H132 H 0.08692 0.78369 0.50177
 H133 H 0.13159 0.95483 0.59233
 H134 H 0.09821 0.80444 0.63292
 C135 C 0.15425 0.17196 0.21372
 C136 C 0.22067 0.27387 0.19616
 C137 C 0.30807 0.34501 0.21930
 C138 C 0.31096 0.30001 0.25531
 C139 C 0.20839 0.26613 0.27179
 C140 C 0.12288 0.19823 0.24881
 C141 C 0.22643 0.13375 0.22366
 C142 C 0.31218 0.20392 0.24660
 H143 H 0.20480 0.29685 0.16943
 H144 H 0.36426 0.42455 0.21096
 H145 H 0.19638 0.29366 0.29829
 H146 H 0.04232 0.17431 0.25626
 H147 H 0.21902 0.06065 0.21369
 H148 H 0.37358 0.18758 0.25507
 C149 C 0.82445 -0.01984 -0.11851
 C150 C 0.79664 -0.08055 -0.08171
 C151 C 0.73202 -0.06401 -0.05982
 C152 C 0.69643 0.00893 -0.07672
 C153 C 0.79819 0.11048 -0.08573
 C154 C 0.86460 0.09557 -0.10762
 C155 C 0.71717 -0.05559 -0.13687
 C156 C 0.64967 -0.04042 -0.11485
 H157 H 0.82377 -0.13440 -0.07387
 H158 H 0.70567 -0.10262 -0.03318
 H159 H 0.81589 0.18788 -0.07653
 H160 H 0.93875 0.16061 -0.11703
 H161 H 0.69560 -0.09026 -0.16429
 H162 H 0.57084 -0.06144 -0.12366
 C163 C 0.17666 0.00202 0.12391
 C164 C 0.26944 0.11577 0.12110
 C165 C 0.34664 0.12807 0.09711
 C166 C 0.32513 0.02548 0.07838
 C167 C 0.30711 -0.04970 0.11075
 C168 C 0.22985 -0.06197 0.13450
 C169 C 0.13942 -0.02959 0.08384
 C170 C 0.21650 -0.01752 0.06015
 H171 H 0.27645 0.18057 0.13756
 H172 H 0.41767 0.20294 0.09301
 H173 H 0.35394 -0.08706 0.11537
 H174 H 0.21253 -0.10878 0.15945
 H175 H 0.05903 -0.05838 0.07477
 H176 H 0.20175 -0.03577 0.03083
 C177 C 0.82473 0.82539 0.45539
 C178 C 0.83075 0.86037 0.41504
 C179 C 0.76557 0.78234 0.39160
 C180 C 0.69942 0.67505 0.41032
 C181 C 0.77993 0.65366 0.42978
 C182 C 0.84496 0.73183 0.45353
 C183 C 0.70761 0.77388 0.46564
 C184 C 0.64247 0.69562 0.44214
 H185 H 0.88269 0.93999 0.40562
 H186 H 0.76229 0.79551 0.36213
 H187 H 0.78327 0.58208 0.42633
 H188 H 0.90242 0.72520 0.47046
 H189 H 0.67819 0.79284 0.49026
 H190 H 0.55830 0.64970 0.44663
 C191 C -0.00245 0.17312 0.78961
 C192 C 0.06113 0.29005 0.80022
 C193 C 0.04773 0.35460 0.77654
 C194 C -0.02803 0.29731 0.74420
 C195 C 0.01538 0.23237 0.72589
 C196 C 0.02855 0.16781 0.74950
 C197 C -0.11675 0.15146 0.78692
 C198 C -0.13017 0.21595 0.76298
 H199 H 0.10830 0.31968 0.82518
 H200 H 0.08456 0.43855 0.78122
 H201 H 0.03307 0.23598 0.69654
 H202 H 0.05774 0.11671 0.74036
 H203 H -0.18101 0.09352 0.80346
 H204 H -0.20548 0.21167 0.75896
 C205 C 0.87561 0.04182 0.11564
 C206 C 0.92901 0.14530 0.09377
 C207 C 0.86222 0.15515 0.06934
 C208 C 0.74885 0.06024 0.06928
 C209 C 0.76335 -0.03442 0.06161
 C210 C 0.82927 -0.04378 0.08561
 C211 C 0.77998 0.04095 0.13374
 C212 C 0.71375 0.04912 0.10959
 H213 H 1.01080 0.20516 0.09701
 H214 H 0.88765 0.22339 0.05174
 H215 H 0.72742 -0.08798 0.03848
 H216 H 0.84932 -0.10526 0.08284
 H217 H 0.76699 0.03691 0.16346
 H218 H 0.64439 0.05135 0.11861
 C219 C 0.16555 0.12672 0.44717
 C220 C 0.21390 0.07293 0.42444
 C221 C 0.28996 0.13972 0.40009
 C222 C 0.30974 0.25355 0.40097
 C223 C 0.20092 0.24101 0.39394
 C224 C 0.12613 0.17498 0.41783
 C225 C 0.26138 0.22087 0.46549
 C226 C 0.33532 0.28713 0.44144
 H227 H 0.19116 -0.00916 0.42703
 H228 H 0.33149 0.11400 0.38192
 H229 H 0.18304 0.27811 0.37125
 H230 H 0.04478 0.15605 0.41540
 H231 H 0.27128 0.23290 0.49526
 H232 H 0.40749 0.35558 0.45059
 C233 C -0.03750 0.83447 0.78109
 C234 C 0.04921 0.87408 0.75153
 C235 C 0.04063 0.79929 0.72757
 C236 C -0.05444 0.69034 0.73476
 C237 C -0.04455 0.66572 0.77517
 C238 C -0.03710 0.73963 0.79930
 C239 C -0.14041 0.78496 0.75862
 C240 C -0.14946 0.70892 0.73422
 H241 H 0.11089 0.95545 0.74908
 H242 H 0.09506 0.81713 0.70478
 H243 H -0.04689 0.59417 0.78425
 H244 H -0.03377 0.73032 0.82904
 H245 H -0.20045 0.80689 0.76143
 H246 H -0.21720 0.66666 0.71622
   
