data_POSCAR
  _audit_creation_date              2014-09-24
  _audit_creation_method            'ToBaCCo'
  _symmetry_space_group_name_H-M    'P1'
  _symmetry_Int_Tables_number       1
  _symmetry_cell_setting            triclinic
  loop_
  _symmetry_equiv_pos_as_xyz
 x,y,z
_cell_length_a 65.1236
_cell_length_b 37.6800
_cell_length_c 21.8462
_cell_angle_alpha 89.934200
_cell_angle_beta 90.164000
_cell_angle_gamma 90.154100
loop_
  _atom_site_label
  _atom_site_type_symbol
  _atom_site_fract_x
  _atom_site_fract_y
  _atom_site_fract_z
C1 C 0.75092 0.26180 0.47211
 C2 C 0.75014 0.26122 0.53459
 C3 C 0.73177 0.27423 0.56802
 C4 C 0.76764 0.24789 0.57188
 C5 C 0.76721 0.24263 0.43806
 C6 C 0.73530 0.28124 0.43543
 C7 C 0.73386 0.29954 0.61438
 C8 C 0.71654 0.31403 0.64241
 C9 C 0.69638 0.30377 0.62457
 C10 C 0.69474 0.27677 0.57957
 C11 C 0.71211 0.26212 0.55241
 C12 C 0.78759 0.26096 0.56238
 C13 C 0.80413 0.24722 0.59549
 C14 C 0.80104 0.22037 0.63928
 C15 C 0.78095 0.20804 0.64993
 C16 C 0.76440 0.22181 0.61672
 C17 C 0.77143 0.20684 0.45089
 C18 C 0.78748 0.18949 0.42127
 C19 C 0.79939 0.20737 0.37741
 C20 C 0.79461 0.24274 0.36277
 C21 C 0.77864 0.26021 0.39283
 C22 C 0.72429 0.26368 0.38917
 C23 C 0.70827 0.28089 0.35854
 C24 C 0.70304 0.31598 0.37362
 C25 C 0.71471 0.33401 0.41801
 C26 C 0.73081 0.31690 0.44822
 H27 H 0.74895 0.30919 0.62726
 H28 H 0.71935 0.33511 0.67484
 H29 H 0.68013 0.26547 0.56627
 H30 H 0.71019 0.24152 0.51830
 H31 H 0.79038 0.28151 0.52869
 H32 H 0.81942 0.25710 0.58588
 H33 H 0.74910 0.21159 0.62511
 H34 H 0.76243 0.19247 0.48441
 H35 H 0.79057 0.16202 0.43255
 H36 H 0.80360 0.25719 0.32932
 H37 H 0.77553 0.28773 0.38195
 H38 H 0.72759 0.23624 0.37840
 H39 H 0.69947 0.26633 0.32469
 H40 H 0.71128 0.36127 0.42968
 H41 H 0.73944 0.33119 0.48278
 H42 H 0.77804 0.18781 0.68407
 C43 C 0.25139 0.76233 0.47034
 C44 C 0.25058 0.76194 0.53279
 C45 C 0.23197 0.77392 0.56618
 C46 C 0.26815 0.74954 0.57068
 C47 C 0.26880 0.74645 0.43609
 C48 C 0.23466 0.77827 0.43299
 C49 C 0.23360 0.80074 0.61042
 C50 C 0.21606 0.81370 0.63944
 C51 C 0.19655 0.79993 0.62494
 C52 C 0.19505 0.77222 0.58209
 C53 C 0.21261 0.75917 0.55333
 C54 C 0.28794 0.76362 0.56249
 C55 C 0.30446 0.75067 0.59675
 C56 C 0.30146 0.72368 0.64040
 C57 C 0.28149 0.71050 0.64984
 C58 C 0.26501 0.72338 0.61543
 C59 C 0.27503 0.71135 0.44705
 C60 C 0.29140 0.69679 0.41443
 C61 C 0.30161 0.71685 0.36949
 C62 C 0.29508 0.75173 0.35779
 C63 C 0.27882 0.76635 0.39073
 C64 C 0.22509 0.75814 0.38700
 C65 C 0.20875 0.77223 0.35342
 C66 C 0.20170 0.80676 0.36520
 C67 C 0.21168 0.82726 0.41007
 C68 C 0.22814 0.81326 0.44327
 H69 H 0.24841 0.81235 0.62117
 H70 H 0.21770 0.83523 0.67188
 H71 H 0.18029 0.76064 0.57084
 H72 H 0.21108 0.73790 0.52031
 H73 H 0.29063 0.78432 0.52902
 H74 H 0.31966 0.76123 0.58812
 H75 H 0.24982 0.71245 0.62294
 H76 H 0.26717 0.69519 0.48070
 H77 H 0.29589 0.66966 0.42369
 H78 H 0.30277 0.76791 0.32381
 H79 H 0.27418 0.79339 0.38130
 H80 H 0.22997 0.73117 0.37815
 H81 H 0.20125 0.75578 0.31940
 H82 H 0.20678 0.85415 0.41934
 H83 H 0.23565 0.82954 0.47752
 H84 H 0.27860 0.69023 0.68392
 C85 C 0.25445 0.22873 -0.47136
 C86 C 0.25564 0.22665 -0.53362
 C87 C 0.27275 0.24319 -0.56831
 C88 C 0.23951 0.20835 -0.57012
 C89 C 0.23577 0.21676 -0.43816
 C90 C 0.27167 0.24300 -0.43381
 C91 C 0.27765 0.27912 -0.56062
 C92 C 0.29386 0.29442 -0.59312
 C93 C 0.30557 0.27426 -0.63496
 C94 C 0.30011 0.23819 -0.64307
 C95 C 0.28392 0.22301 -0.61034
 C96 C 0.22895 0.22679 -0.61599
 C97 C 0.21273 0.21071 -0.64751
 C98 C 0.20664 0.17544 -0.63424
 C99 C 0.21809 0.15673 -0.58954
 C100 C 0.23429 0.17295 -0.55816
 C101 C 0.23734 0.19163 -0.39116
 C102 C 0.21972 0.17832 -0.36275
 C103 C 0.19993 0.18977 -0.38085
 C104 C 0.19869 0.21625 -0.42662
 C105 C 0.21635 0.22974 -0.45431
 C106 C 0.29169 0.22978 -0.44034
 C107 C 0.30788 0.24422 -0.40635
 C108 C 0.30435 0.27192 -0.36460
 C109 C 0.28418 0.28439 -0.35694
 C110 C 0.26801 0.26999 -0.39107
 H111 H 0.26880 0.29546 -0.52969
 H112 H 0.29649 0.32251 -0.58673
 H113 H 0.30878 0.22081 -0.67256
 H114 H 0.28035 0.19517 -0.61690
 H115 H 0.23278 0.25421 -0.62582
 H116 H 0.20438 0.22703 -0.67971
 H117 H 0.24267 0.15796 -0.52395
 H118 H 0.25223 0.18135 -0.37789
 H119 H 0.22180 0.15754 -0.32917
 H120 H 0.18414 0.22756 -0.44031
 H121 H 0.21485 0.25007 -0.48912
 H122 H 0.29480 0.20849 -0.47223
 H123 H 0.32324 0.23417 -0.41366
 H124 H 0.28088 0.30523 -0.32435
 H125 H 0.25265 0.28032 -0.38487
 H126 H 0.21506 0.12914 -0.57929
 C127 C -0.24924 0.74306 -0.46781
 C128 C -0.24859 0.74042 -0.53010
 C129 C -0.23176 0.75675 -0.56634
 C130 C -0.26490 0.72151 -0.56487
 C131 C -0.26764 0.73147 -0.43282
 C132 C -0.23162 0.75765 -0.43249
 C133 C -0.22694 0.79281 -0.56004
 C134 C -0.21064 0.80772 -0.59264
 C135 C -0.19873 0.78702 -0.63320
 C136 C -0.20424 0.75089 -0.64037
 C137 C -0.22053 0.73610 -0.60751
 C138 C -0.27570 0.73917 -0.61113
 C139 C -0.29208 0.72255 -0.64103
 C140 C -0.29809 0.68753 -0.62563
 C141 C -0.28642 0.66959 -0.58053
 C142 C -0.27003 0.68632 -0.55087
 C143 C -0.26573 0.70652 -0.38563
 C144 C -0.28318 0.69289 -0.35665
 C145 C -0.30312 0.70383 -0.37435
 C146 C -0.30467 0.73040 -0.41988
 C147 C -0.28719 0.74417 -0.44820
 C148 C -0.21178 0.74395 -0.44046
 C149 C -0.19497 0.75989 -0.41163
 C150 C -0.19771 0.78954 -0.37356
 C151 C -0.21772 0.80215 -0.36333
 C152 C -0.23453 0.78627 -0.39247
 H153 H -0.23584 0.80948 -0.52977
 H154 H -0.20800 0.83587 -0.58714
 H155 H -0.19547 0.73315 -0.66895
 H156 H -0.22403 0.70816 -0.61299
 H157 H -0.27195 0.76641 -0.62252
 H158 H -0.30061 0.73832 -0.67364
 H159 H -0.26146 0.67191 -0.51636
 H160 H -0.25074 0.69646 -0.37294
 H161 H -0.28085 0.67215 -0.32316
 H162 H -0.31933 0.74142 -0.43318
 H163 H -0.28894 0.76434 -0.48318
 H164 H -0.20927 0.72137 -0.47011
 H165 H -0.17979 0.74915 -0.41936
 H166 H -0.22029 0.82505 -0.33449
 H167 H -0.24973 0.79711 -0.38555
 H168 H -0.28943 0.64221 -0.56871
 N169 N 0.01918 1.04517 0.10872
 N170 N 0.03516 1.04929 0.14523
 N171 N -0.02359 1.06865 0.06146
 N172 N -0.03934 1.09048 0.06572
 N173 N -0.02402 1.04512 0.10578
 N174 N -0.04009 1.05023 0.14132
 N175 N 0.01968 1.06841 0.06395
 N176 N 0.03606 1.08897 0.06881
 C177 C 0.04553 1.07681 0.12000
 C178 C -0.04949 1.07868 0.11584
 N179 N -0.02285 1.03863 -0.11007
 N180 N -0.03858 1.04156 -0.14798
 N181 N 0.02032 1.06438 -0.06756
 N182 N 0.03646 1.08517 -0.07471
 N183 N 0.02040 1.03865 -0.10803
 N184 N 0.03661 1.04133 -0.14396
 N185 N -0.02291 1.06455 -0.06996
 N186 N -0.03869 1.08577 -0.07942
 Mn187 Mn -0.00161 1.06695 -0.00309
 C188 C -0.04832 1.07116 -0.12835
 C189 C 0.04646 1.07056 -0.12269
 N190 N -0.02408 0.96890 0.11304
 N191 N -0.03999 0.96578 0.14992
 N192 N 0.01947 0.94319 0.07580
 N193 N 0.03541 0.92234 0.08588
 N194 N 0.01908 0.96915 0.11579
 N195 N 0.03473 0.96678 0.15397
 N196 N -0.02379 0.94285 0.07323
 N197 N -0.03954 0.92130 0.08191
 Mn198 Mn -0.00249 1.00712 0.11153
 C199 C -0.04951 0.93595 0.13000
 C200 C 0.04477 0.93741 0.13493
 N201 N 0.02027 0.96230 -0.10094
 N202 N 0.03600 0.95673 -0.13763
 N203 N -0.02306 0.93883 -0.05820
 N204 N -0.03891 0.91715 -0.06354
 N205 N -0.02295 0.96214 -0.10292
 N206 N -0.03871 0.95686 -0.14001
 N207 N 0.02016 0.93909 -0.05606
 N208 N 0.03583 0.91711 -0.06102
 Mn209 Mn -0.00130 1.00041 -0.10630
 Mn210 Mn -0.00178 0.94053 0.00872
 Cl211 Cl -0.00180 1.00374 0.00268
 C212 C 0.04558 0.92844 -0.11219
 C213 C -0.04852 0.92864 -0.11488
 N214 N 0.47648 0.43870 -0.06717
 N215 N 0.46093 0.41666 -0.07547
 N216 N 0.51974 0.46392 -0.10946
 N217 N 0.53579 0.46049 -0.14574
 N218 N 0.51972 0.43905 -0.06732
 N219 N 0.53581 0.41819 -0.07353
 N220 N 0.47652 0.46348 -0.10947
 N221 N 0.46099 0.45900 -0.14762
 C222 C 0.45138 0.42968 -0.12588
 C223 C 0.54566 0.43176 -0.12279
 N224 N 0.51934 0.56500 -0.06556
 N225 N 0.53525 0.58647 -0.07138
 N226 N 0.47631 0.53982 -0.10831
 N227 N 0.46074 0.54420 -0.14630
 N228 N 0.47609 0.56413 -0.06531
 N229 N 0.46037 0.58577 -0.07299
 N230 N 0.51952 0.54056 -0.10835
 N231 N 0.53552 0.54491 -0.14465
 Mn232 Mn 0.49805 0.50195 -0.10968
 C233 C 0.54518 0.57373 -0.12105
 C234 C 0.45092 0.57298 -0.12377
 N235 N 0.52006 0.43822 0.06409
 N236 N 0.53618 0.41728 0.06959
 N237 N 0.47712 0.46234 0.10782
 N238 N 0.46164 0.45790 0.14586
 N239 N 0.47681 0.43798 0.06494
 N240 N 0.46110 0.41620 0.07277
 N241 N 0.52033 0.46287 0.10648
 N242 N 0.53665 0.45941 0.14191
 Mn243 Mn 0.49822 0.43803 -0.00139
 C244 C 0.54637 0.43076 0.11849
 C245 C 0.45178 0.42900 0.12354
 N246 N 0.47644 0.56341 0.06699
 N247 N 0.46087 0.58513 0.07643
 N248 N 0.52006 0.53922 0.10766
 N249 N 0.53649 0.54245 0.14273
 N250 N 0.51970 0.56425 0.06583
 N251 N 0.53591 0.58512 0.07123
 N252 N 0.47687 0.53847 0.10895
 N253 N 0.46160 0.54238 0.14783
 Mn254 Mn 0.49784 0.56466 0.00048
 Mn255 Mn 0.49862 0.50072 0.10844
 Cl256 Cl 0.49816 0.50135 -0.00057
 C257 C 0.45172 0.57158 0.12706
 C258 C 0.54619 0.57131 0.11962
 C259 C 0.32906 0.27550 0.27617
 C260 C 0.34559 0.29058 0.24474
 C261 C 0.35581 0.32040 0.26798
 C262 C 0.34941 0.33454 0.32422
 C263 C 0.33290 0.31956 0.35580
 C264 C 0.32229 0.28968 0.33253
 C265 C 0.37355 0.33504 0.23371
 C266 C 0.37978 0.36889 0.23863
 C267 C 0.39805 0.38362 0.20703
 C268 C 0.40705 0.41462 0.23063
 C269 C 0.42445 0.42935 0.20336
 C270 C 0.43317 0.41354 0.15145
 C271 C 0.42398 0.38297 0.12682
 C272 C 0.40655 0.36814 0.15420
 H273 H 0.32126 0.25350 0.25445
 H274 H 0.35025 0.27910 0.20151
 H275 H 0.35747 0.35654 0.34521
 H276 H 0.32928 0.33072 0.40003
 H277 H 0.38154 0.31705 0.20356
 H278 H 0.37154 0.38674 0.26847
 H279 H 0.40073 0.42727 0.27088
 H280 H 0.43112 0.45310 0.22311
 H281 H 0.43027 0.37048 0.08638
 H282 H 0.39974 0.34495 0.13323
 C283 C -0.17458 0.78705 0.27948
 C284 C -0.15770 0.80150 0.24883
 C285 C -0.14749 0.83141 0.27186
 C286 C -0.15432 0.84633 0.32704
 C287 C -0.17118 0.83196 0.35785
 C288 C -0.18174 0.80195 0.33484
 C289 C -0.12933 0.84523 0.23858
 C290 C -0.12279 0.87896 0.24288
 C291 C -0.10417 0.89289 0.21195
 C292 C -0.09526 0.92426 0.23438
 C293 C -0.07755 0.93828 0.20763
 C294 C -0.06842 0.92132 0.15749
 C295 C -0.07750 0.89034 0.13404
 C296 C -0.09523 0.87627 0.16081
 H297 H -0.18231 0.76491 0.25794
 H298 H -0.15273 0.78944 0.20640
 H299 H -0.14632 0.86844 0.34788
 H300 H -0.17510 0.84367 0.40141
 H301 H -0.12127 0.82669 0.20961
 H302 H -0.13111 0.89736 0.27154
 H303 H -0.10189 0.93780 0.27330
 H304 H -0.07097 0.96236 0.22644
 H305 H -0.07091 0.87696 0.09491
 H306 H -0.10193 0.85276 0.14061
 C307 C 0.67342 0.64411 0.37675
 C308 C 0.65586 0.62911 0.35048
 C309 C 0.64874 0.64036 0.29310
 C310 C 0.65966 0.66719 0.26234
 C311 C 0.67724 0.68227 0.28848
 C312 C 0.68447 0.67127 0.34654
 C313 C 0.62951 0.62437 0.26877
 C314 C 0.62323 0.62706 0.21037
 C315 C 0.60357 0.61193 0.18796
 C316 C 0.59413 0.62742 0.13668
 C317 C 0.57545 0.61431 0.11451
 C318 C 0.56594 0.58516 0.14289
 C319 C 0.57557 0.56910 0.19334
 C320 C 0.59423 0.58225 0.21561
 H321 H 0.67751 0.63531 0.42227
 H322 H 0.64762 0.60880 0.37567
 H323 H 0.65465 0.67729 0.21850
 H324 H 0.68532 0.70195 0.26171
 H325 H 0.62008 0.61003 0.30118
 H326 H 0.63230 0.64170 0.17755
 H327 H 0.60111 0.65004 0.11414
 H328 H 0.56846 0.62700 0.07516
 H329 H 0.56872 0.54626 0.21555
 H330 H 0.60137 0.56871 0.25376
 C331 C 0.17827 1.13168 0.36421
 C332 C 0.16084 1.11716 0.33643
 C333 C 0.15368 1.13017 0.28027
 C334 C 0.16478 1.15733 0.25113
 C335 C 0.18228 1.17188 0.27869
 C336 C 0.18933 1.15969 0.33631
 C337 C 0.13480 1.11438 0.25365
 C338 C 0.12234 1.13169 0.21476
 C339 C 0.10281 1.11662 0.19093
 C340 C 0.09427 1.13102 0.13729
 C341 C 0.07566 1.11814 0.11400
 C342 C 0.06514 1.09073 0.14427
 C343 C 0.07354 1.07650 0.19819
 C344 C 0.09209 1.08938 0.22151
 H345 H 0.18226 1.12176 0.40912
 H346 H 0.15259 1.09617 0.35983
 H347 H 0.16029 1.16703 0.20647
 H348 H 0.19055 1.19187 0.25314
 H349 H 0.13083 1.08791 0.26874
 H350 H 0.12638 1.15815 0.19964
 H351 H 0.10208 1.15223 0.11315
 H352 H 0.06952 1.12961 0.07234
 H353 H 0.06568 1.05552 0.22275
 H354 H 0.09764 1.07835 0.26412
 C355 C 0.66011 0.31885 -0.38220
 C356 C 0.64278 0.33540 -0.35802
 C357 C 0.64367 0.35263 -0.30147
 C358 C 0.66244 0.35379 -0.26988
 C359 C 0.67991 0.33765 -0.29416
 C360 C 0.67926 0.31949 -0.35101
 C361 C 0.62492 0.36989 -0.27776
 C362 C 0.62106 0.37351 -0.21787
 C363 C 0.60180 0.38915 -0.19445
 C364 C 0.59414 0.37748 -0.13795
 C365 C 0.57584 0.39124 -0.11481
 C366 C 0.56504 0.41743 -0.14731
 C367 C 0.57294 0.42981 -0.20313
 C368 C 0.59114 0.41577 -0.22661
 H369 H 0.65838 0.30747 -0.42729
 H370 H 0.62855 0.33473 -0.38384
 H371 H 0.66377 0.36749 -0.22654
 H372 H 0.69356 0.33835 -0.26598
 H373 H 0.61334 0.37765 -0.31082
 H374 H 0.63163 0.36243 -0.18466
 H375 H 0.60219 0.35728 -0.11205
 H376 H 0.57020 0.38145 -0.07135
 H377 H 0.56501 0.45023 -0.22881
 H378 H 0.59695 0.42613 -0.26943
 C379 C 0.16022 0.82139 -0.38271
 C380 C 0.14277 0.83672 -0.35687
 C381 C 0.14237 0.84580 -0.29459
 C382 C 0.15999 0.83958 -0.25867
 C383 C 0.17749 0.82434 -0.28460
 C384 C 0.17780 0.81511 -0.34690
 C385 C 0.12371 0.86304 -0.26980
 C386 C 0.11869 0.86291 -0.21025
 C387 C 0.09992 0.88018 -0.18622
 C388 C 0.09139 0.86773 -0.13128
 C389 C 0.07371 0.88335 -0.10717
 C390 C 0.06434 0.91202 -0.13727
 C391 C 0.07308 0.92499 -0.19159
 C392 C 0.09071 0.90932 -0.21579
 H393 H 0.16012 0.81517 -0.43109
 H394 H 0.12951 0.84158 -0.38574
 H395 H 0.16055 0.84710 -0.21094
 H396 H 0.19079 0.81975 -0.25584
 H397 H 0.11329 0.87487 -0.30263
 H398 H 0.12799 0.84816 -0.17801
 H399 H 0.09831 0.84561 -0.10723
 H400 H 0.06739 0.87296 -0.06497
 H401 H 0.06632 0.94733 -0.21539
 H402 H 0.09722 0.92053 -0.25702
 C403 C 0.33500 0.73089 -0.30356
 C404 C 0.35181 0.71658 -0.27224
 C405 C 0.35325 0.67988 -0.26217
 C406 C 0.33715 0.65780 -0.28249
 C407 C 0.32036 0.67209 -0.31381
 C408 C 0.31914 0.70876 -0.32504
 C409 C 0.37154 0.66573 -0.22968
 C410 C 0.37812 0.63223 -0.23614
 C411 C 0.39679 0.61796 -0.20593
 C412 C 0.40600 0.58760 -0.23080
 C413 C 0.42356 0.57304 -0.20407
 C414 C 0.43225 0.58839 -0.15149
 C415 C 0.42292 0.61843 -0.12582
 C416 C 0.40532 0.63306 -0.15261
 H417 H 0.33434 0.75932 -0.31054
 H418 H 0.36385 0.73424 -0.25640
 H419 H 0.33729 0.62954 -0.27390
 H420 H 0.30846 0.65429 -0.33001
 H421 H 0.38044 0.68430 -0.20268
 H422 H 0.37025 0.61474 -0.26775
 H423 H 0.39966 0.57523 -0.27144
 H424 H 0.43035 0.54974 -0.22468
 H425 H 0.42918 0.63058 -0.08489
 H426 H 0.39834 0.65574 -0.13078
 C427 C -0.16514 1.22677 -0.30626
 C428 C -0.14820 1.21214 -0.27612
 C429 C -0.14684 1.17538 -0.26653
 C430 C -0.16315 1.15357 -0.28623
 C431 C -0.18011 1.16822 -0.31634
 C432 C -0.18124 1.20495 -0.32709
 C433 C -0.12843 1.16113 -0.23483
 C434 C -0.12206 1.12742 -0.24016
 C435 C -0.10322 1.11358 -0.21019
 C436 C -0.09388 1.08314 -0.23440
 C437 C -0.07605 1.06930 -0.20785
 C438 C -0.06726 1.08554 -0.15622
 C439 C -0.07676 1.11558 -0.13119
 C440 C -0.09461 1.12940 -0.15765
 H441 H -0.16572 1.25523 -0.31289
 H442 H -0.13601 1.22962 -0.26074
 H443 H -0.16305 1.12526 -0.27806
 H444 H -0.19222 1.15068 -0.33204
 H445 H -0.11922 1.17988 -0.20917
 H446 H -0.13020 1.10951 -0.27044
 H447 H -0.10030 1.07019 -0.27439
 H448 H -0.06913 1.04595 -0.22788
 H449 H -0.07047 1.12836 -0.09088
 H450 H -0.10169 1.15209 -0.13614
 C451 C 0.66034 0.68668 -0.38168
 C452 C 0.64292 0.67036 -0.35719
 C453 C 0.64335 0.65546 -0.29850
 C454 C 0.66176 0.65660 -0.26491
 C455 C 0.67931 0.67259 -0.28950
 C456 C 0.67900 0.68810 -0.34847
 C457 C 0.62455 0.63796 -0.27491
 C458 C 0.62020 0.63519 -0.21513
 C459 C 0.60099 0.61883 -0.19212
 C460 C 0.59298 0.63040 -0.13606
 C461 C 0.57479 0.61585 -0.11312
 C462 C 0.56443 0.58898 -0.14539
 C463 C 0.57266 0.57676 -0.20080
 C464 C 0.59076 0.59155 -0.22404
 H465 H 0.65922 0.69657 -0.42804
 H466 H 0.62900 0.66933 -0.38444
 H467 H 0.66281 0.64469 -0.21992
 H468 H 0.69288 0.67359 -0.26090
 H469 H 0.61338 0.62900 -0.30833
 H470 H 0.63034 0.64733 -0.18179
 H471 H 0.60068 0.65110 -0.11030
 H472 H 0.56890 0.62555 -0.06998
 H473 H 0.56509 0.55583 -0.22630
 H474 H 0.59684 0.58118 -0.26642
 C475 C 0.16323 1.17374 -0.38803
 C476 C 0.14559 1.15837 -0.36308
 C477 C 0.14583 1.14413 -0.30389
 C478 C 0.16426 1.14482 -0.27035
 C479 C 0.18201 1.15983 -0.29541
 C480 C 0.18188 1.17478 -0.35480
 C481 C 0.12681 1.12785 -0.27952
 C482 C 0.12238 1.12665 -0.21965
 C483 C 0.10295 1.11164 -0.19579
 C484 C 0.09494 1.12505 -0.14099
 C485 C 0.07653 1.11180 -0.11739
 C486 C 0.06594 1.08442 -0.14768
 C487 C 0.07418 1.07036 -0.20176
 C488 C 0.09250 1.08385 -0.22570
 H489 H 0.16224 1.18326 -0.43466
 H490 H 0.13166 1.15763 -0.39026
 H491 H 0.16513 1.13336 -0.22498
 H492 H 0.19558 1.16060 -0.26680
 H493 H 0.11555 1.11861 -0.31245
 H494 H 0.13265 1.13917 -0.18708
 H495 H 0.10281 1.14618 -0.11679
 H496 H 0.07062 1.12292 -0.07528
 H497 H 0.06643 1.04900 -0.22570
 H498 H 0.09858 1.07212 -0.26703
 C499 C 0.33757 0.26689 -0.30640
 C500 C 0.35407 0.28228 -0.27494
 C501 C 0.35515 0.31917 -0.26667
 C502 C 0.33901 0.34035 -0.28909
 C503 C 0.32253 0.32497 -0.32057
 C504 C 0.32167 0.28809 -0.32993
 C505 C 0.37310 0.33434 -0.23367
 C506 C 0.37935 0.36811 -0.24018
 C507 C 0.39776 0.38315 -0.20934
 C508 C 0.40681 0.41382 -0.23404
 C509 C 0.42419 0.42895 -0.20686
 C510 C 0.43284 0.41383 -0.15403
 C511 C 0.42363 0.38352 -0.12848
 C512 C 0.40622 0.36836 -0.15567
 H513 H 0.33719 0.23834 -0.31186
 H514 H 0.36613 0.26528 -0.25749
 H515 H 0.33886 0.36874 -0.28202
 H516 H 0.31058 0.34207 -0.33835
 H517 H 0.38209 0.31626 -0.20604
 H518 H 0.37145 0.38524 -0.27223
 H519 H 0.40051 0.42598 -0.27493
 H520 H 0.43088 0.45245 -0.22737
 H521 H 0.42985 0.37156 -0.08734
 H522 H 0.39935 0.34548 -0.13389
 C523 C -0.16202 0.81402 -0.38160
 C524 C -0.14511 0.83174 -0.35659
 C525 C -0.14536 0.84340 -0.29564
 C526 C -0.16314 0.83763 -0.26041
 C527 C -0.18011 0.82002 -0.28555
 C528 C -0.17969 0.80789 -0.34633
 C529 C -0.12706 0.86223 -0.27129
 C530 C -0.12224 0.86342 -0.21159
 C531 C -0.10343 0.88093 -0.18785
 C532 C -0.09507 0.86914 -0.13219
 C533 C -0.07722 0.88462 -0.10853
 C534 C -0.06749 0.91255 -0.13977
 C535 C -0.07607 0.92497 -0.19477
 C536 C -0.09389 0.90937 -0.21860
 H537 H -0.16140 0.80561 -0.42894
 H538 H -0.13172 0.83621 -0.38494
 H539 H -0.16417 0.84715 -0.21383
 H540 H -0.19352 0.81570 -0.25732
 H541 H -0.11659 0.87358 -0.30440
 H542 H -0.13162 0.84911 -0.17896
 H543 H -0.10223 0.84755 -0.10729
 H544 H -0.07104 0.87469 -0.06576
 H545 H -0.06902 0.94674 -0.21943
 H546 H -0.10026 0.92002 -0.26053
 C547 C 0.32087 0.70696 0.27164
 C548 C 0.33738 0.69264 0.23933
 C549 C 0.35243 0.67249 0.26952
 C550 C 0.35077 0.66750 0.33326
 C551 C 0.33419 0.68166 0.36547
 C552 C 0.31906 0.70151 0.33502
 C553 C 0.36983 0.65821 0.23334
 C554 C 0.38147 0.63086 0.25196
 C555 C 0.39906 0.61622 0.21698
 C556 C 0.40719 0.58347 0.23563
 C557 C 0.42415 0.56891 0.20601
 C558 C 0.43343 0.58680 0.15691
 C559 C 0.42531 0.61945 0.13769
 C560 C 0.40837 0.63418 0.16759
 H561 H 0.30937 0.72197 0.24689
 H562 H 0.33834 0.69716 0.19044
 H563 H 0.36239 0.65339 0.35892
 H564 H 0.33343 0.67771 0.41452
 H565 H 0.37242 0.66996 0.18887
 H566 H 0.37766 0.61746 0.29424
 H567 H 0.40045 0.56908 0.27359
 H568 H 0.43006 0.54365 0.22181
 H569 H 0.43227 0.63390 0.10018
 H570 H 0.40304 0.65985 0.15243
 C571 C -0.16938 1.16900 0.38362
 C572 C -0.15258 1.15238 0.35654
 C573 C -0.14892 1.15570 0.29348
 C574 C -0.16274 1.17574 0.25777
 C575 C -0.17949 1.19260 0.28504
 C576 C -0.18297 1.18940 0.34821
 C577 C -0.13077 1.13734 0.26748
 C578 C -0.12304 1.14377 0.21162
 C579 C -0.10443 1.12598 0.18741
 C580 C -0.09387 1.14189 0.13854
 C581 C -0.07610 1.12643 0.11490
 C582 C -0.06852 1.09467 0.13969
 C583 C -0.07927 1.07825 0.18762
 C584 C -0.09712 1.09354 0.21098
 H585 H -0.17158 1.16636 0.43254
 H586 H -0.14229 1.13703 0.38519
 H587 H -0.16099 1.17823 0.20880
 H588 H -0.18994 1.20770 0.25655
 H589 H -0.12297 1.11889 0.29744
 H590 H -0.12975 1.16420 0.18323
 H591 H -0.09927 1.16662 0.11900
 H592 H -0.06818 1.13954 0.07762
 H593 H -0.07394 1.05342 0.20691
 H594 H -0.10515 1.07952 0.24687
 C595 C 0.67115 0.35265 0.38115
 C596 C 0.65378 0.36815 0.35490
 C597 C 0.64972 0.36460 0.29204
 C598 C 0.66379 0.34573 0.25559
 C599 C 0.68113 0.33004 0.28201
 C600 C 0.68495 0.33326 0.34506
 C601 C 0.63088 0.38141 0.26691
 C602 C 0.62250 0.37315 0.21250
 C603 C 0.60314 0.38900 0.18903
 C604 C 0.59253 0.37142 0.14187
 C605 C 0.57412 0.38501 0.11876
 C606 C 0.56594 0.41656 0.14234
 C607 C 0.57667 0.43460 0.18866
 C608 C 0.59515 0.42115 0.21153
 H609 H 0.67359 0.35525 0.43001
 H610 H 0.64332 0.38264 0.38407
 H611 H 0.66173 0.34328 0.20669
 H612 H 0.69171 0.31571 0.25299
 H613 H 0.62311 0.39998 0.29651
 H614 H 0.62931 0.35249 0.18498
 H615 H 0.59841 0.34685 0.12318
 H616 H 0.56624 0.37068 0.08270
 H617 H 0.57087 0.45931 0.20699
 H618 H 0.60313 0.43639 0.24611
 C619 C 0.18145 0.81578 0.26855
 C620 C 0.16420 0.82870 0.23759
 C621 C 0.14882 0.84718 0.26913
 C622 C 0.15094 0.85200 0.33279
 C623 C 0.16823 0.83926 0.36363
 C624 C 0.18366 0.82102 0.33187
 C625 C 0.13058 0.85978 0.23453
 C626 C 0.11821 0.88571 0.25450
 C627 C 0.09973 0.89840 0.22116
 C628 C 0.09101 0.93076 0.23917
 C629 C 0.07324 0.94346 0.21088
 C630 C 0.06374 0.92400 0.16390
 C631 C 0.07239 0.89166 0.14553
 C632 C 0.09014 0.87882 0.17407
 H633 H 0.19315 0.80192 0.24290
 H634 H 0.16290 0.82435 0.18872
 H635 H 0.13913 0.86478 0.35946
 H636 H 0.16931 0.84292 0.41271
 H637 H 0.12790 0.84801 0.19011
 H638 H 0.12203 0.89945 0.29647
 H639 H 0.09795 0.94631 0.27546
 H640 H 0.06693 0.96853 0.22595
 H641 H 0.06527 0.87603 0.10966
 H642 H 0.09592 0.85330 0.15977
   
