data_POSCAR
  _audit_creation_date              2014-09-24
  _audit_creation_method            'ToBaCCo'
  _symmetry_space_group_name_H-M    'P1'
  _symmetry_Int_Tables_number       1
  _symmetry_cell_setting            triclinic
  loop_
  _symmetry_equiv_pos_as_xyz
 x,y,z
_cell_length_a 51.6973
_cell_length_b 51.5445
_cell_length_c 51.6574
_cell_angle_alpha 94.234200
_cell_angle_beta 94.253400
_cell_angle_gamma 86.274800
loop_
  _atom_site_label
  _atom_site_type_symbol
  _atom_site_fract_x
  _atom_site_fract_y
  _atom_site_fract_z
C1 C 0.28034 0.47924 1.00430
 C2 C 0.26392 0.50143 0.99953
 C3 C 0.27463 0.52440 0.99340
 C4 C 0.30156 0.52521 0.99230
 C5 C 0.31777 0.50293 0.99678
 C6 C 0.30718 0.47994 1.00264
 C7 C 0.23558 0.50052 1.00062
 C8 C 0.22509 0.49424 1.02353
 C9 C 0.19813 0.49360 1.02456
 C10 C 0.18164 0.49868 1.00251
 C11 C 0.19203 0.50468 0.97956
 C12 C 0.21892 0.50586 0.97869
 H13 H 0.27216 0.46138 1.00876
 H14 H 0.26202 0.54161 0.98986
 H15 H 0.23791 0.49030 1.04057
 H16 H 0.22693 0.51047 0.96088
 H17 H 0.33861 0.50342 0.99566
 H18 H 0.16076 0.49799 1.00316
 C19 C 0.72444 0.47818 0.00821
 C20 C 0.73522 0.50068 0.00101
 C21 C 0.71886 0.52253 -0.00505
 C22 C 0.69196 0.52198 -0.00367
 C23 C 0.68129 0.49941 0.00324
 C24 C 0.69749 0.47747 0.00904
 C25 C 0.76355 0.50135 -0.00025
 C26 C 0.77401 0.50549 -0.02383
 C27 C 0.80096 0.50596 -0.02506
 C28 C 0.81745 0.50288 -0.00259
 C29 C 0.80709 0.49902 0.02101
 C30 C 0.78020 0.49796 0.02213
 H31 H 0.73697 0.46117 0.01267
 H32 H 0.72710 0.54002 -0.01043
 H33 H 0.76118 0.50789 -0.04119
 H34 H 0.77220 0.49499 0.04043
 H35 H 0.66042 0.49890 0.00405
 H36 H 0.83831 0.50349 -0.00341
 C37 C 0.02262 0.21978 0.49454
 C38 C -0.00002 0.23595 0.49766
 C39 C -0.02353 0.22488 0.50110
 C40 C -0.02442 0.19779 0.50113
 C41 C -0.00175 0.18178 0.49829
 C42 C 0.02179 0.19274 0.49515
 C43 C 0.00090 0.26441 0.49741
 C44 C 0.00594 0.27566 0.47449
 C45 C 0.00647 0.30279 0.47423
 C46 C 0.00253 0.31861 0.49699
 C47 C -0.00222 0.30745 0.51992
 C48 C -0.00331 0.28040 0.52010
 H49 H 0.04085 0.22827 0.49207
 H50 H -0.04109 0.23729 0.50333
 H51 H 0.00897 0.26334 0.45690
 H52 H -0.00705 0.27176 0.53787
 H53 H -0.00242 0.16080 0.49852
 H54 H 0.00310 0.33962 0.49689
 C55 C 1.02339 0.77424 0.49651
 C56 C 1.00074 0.76299 0.50254
 C57 C 0.97860 0.77907 0.50814
 C58 C 0.97901 0.80614 0.50746
 C59 C 1.00171 0.81728 0.50170
 C60 C 1.02396 0.80137 0.49635
 C61 C 1.00018 0.73444 0.50289
 C62 C 0.99381 0.72324 0.52539
 C63 C 0.99344 0.69610 0.52576
 C64 C 0.99894 0.68014 0.50346
 C65 C 1.00505 0.69123 0.48090
 C66 C 1.00592 0.71830 0.48070
 H67 H 1.04060 0.76188 0.49238
 H68 H 0.96098 0.77048 0.51254
 H69 H 0.98959 0.73563 0.54264
 H70 H 1.01060 0.72686 0.46319
 H71 H 1.00201 0.83829 0.50138
 H72 H 0.99847 0.65913 0.50360
 C73 C 0.50422 0.02163 0.22643
 C74 C 0.49949 -0.00225 0.23607
 C75 C 0.49585 -0.02421 0.21877
 C76 C 0.49725 -0.02237 0.19201
 C77 C 0.50173 0.00154 0.18246
 C78 C 0.50505 0.02357 0.19962
 C79 C 0.49832 -0.00423 0.26422
 C80 C 0.47474 -0.00879 0.27443
 C81 C 0.47358 -0.01030 0.30127
 C82 C 0.49608 -0.00783 0.31787
 C83 C 0.51969 -0.00354 0.30774
 C84 C 0.52076 -0.00145 0.28097
 H85 H 0.50680 0.03869 0.23974
 H86 H 0.49234 -0.04272 0.22617
 H87 H 0.45731 -0.01065 0.26157
 H88 H 0.53903 0.00197 0.27313
 H89 H 0.50258 0.00300 0.16170
 H90 H 0.49521 -0.00915 0.33865
 C91 C 0.50649 0.02395 0.78153
 C92 C 0.50109 0.00191 0.76485
 C93 C 0.49500 -0.02113 0.77536
 C94 C 0.49456 -0.02218 0.80235
 C95 C 0.49969 -0.00003 0.81886
 C96 C 0.50552 0.02305 0.80846
 C97 C 0.50166 0.00299 0.73645
 C98 C 0.52434 0.00947 0.72566
 C99 C 0.52495 0.01012 0.69865
 C100 C 0.50274 0.00485 0.68241
 C101 C 0.48000 -0.00135 0.69309
 C102 C 0.47953 -0.00254 0.72004
 H103 H 0.51094 0.04186 0.77351
 H104 H 0.49103 -0.03825 0.76254
 H105 H 0.54158 0.01351 0.73821
 H106 H 0.46190 -0.00734 0.72828
 H107 H 0.49914 -0.00070 0.83976
 H108 H 0.50317 0.00551 0.66151
 C109 C 0.28690 -0.00147 0.45401
 H110 H 0.28698 0.01337 0.46995
 C111 C 0.30427 -0.00094 0.43469
 H112 H 0.31772 0.01443 0.43564
 C113 C 0.26998 -0.04025 0.43384
 H114 H 0.25700 -0.05583 0.43395
 C115 C 0.28713 -0.04047 0.41409
 H116 H 0.28719 -0.05613 0.39890
 N117 N 0.27021 -0.02089 0.45326
 C118 C 0.20980 0.01078 0.50306
 H119 H 0.21083 -0.00412 0.51686
 C120 C 0.19098 0.03138 0.50473
 H121 H 0.17750 0.03246 0.51992
 C122 C 0.22545 0.02709 0.46577
 H123 H 0.23850 0.02500 0.45026
 C124 C 0.20687 0.04804 0.46673
 H125 H 0.20581 0.06216 0.45211
 Zn126 Zn 0.24961 -0.02098 0.48196
 N127 N 0.22658 0.00903 0.48385
 C128 C 0.27248 -0.00199 0.53098
 N129 N 0.27286 -0.02176 0.51198
 C130 C 0.29142 -0.04171 0.51273
 C131 C 0.31066 -0.04228 0.53316
 C132 C 0.29138 -0.00183 0.55177
 C133 C 0.21018 -0.05109 0.45890
 C134 C 0.19198 -0.07011 0.45724
 C135 C 0.21247 -0.08673 0.49677
 C136 C 0.23031 -0.06739 0.49770
 N137 N 0.22873 -0.04996 0.47899
 H138 H 0.25801 0.01403 0.52969
 H139 H 0.29155 -0.05689 0.49710
 H140 H 0.32564 -0.05800 0.53337
 H141 H 0.29126 0.01420 0.56657
 H142 H 0.20905 -0.03666 0.44462
 H143 H 0.17685 -0.07045 0.44156
 H144 H 0.21337 -0.10010 0.51209
 H145 H 0.24475 -0.06575 0.51386
 C146 C 0.18943 0.05009 0.48633
 C147 C 0.30450 -0.02069 0.41465
 C148 C 0.19296 -0.08788 0.47652
 C149 C 0.31073 -0.02206 0.55274
 C150 C 0.71179 0.04205 0.54977
 H151 H 0.71060 0.05542 0.53447
 C152 C 0.69394 0.04499 0.56892
 H153 H 0.67901 0.06074 0.56850
 C154 C 0.73162 0.00416 0.56810
 H155 H 0.74576 -0.01220 0.56720
 C156 C 0.71412 0.00639 0.58762
 H157 H 0.71500 -0.00812 0.60185
 N158 N 0.73000 0.02176 0.54956
 C159 C 0.78754 0.04245 0.49834
 H160 H 0.78696 0.02560 0.48457
 C161 C 0.80531 0.06127 0.49619
 H162 H 0.81842 0.05899 0.48064
 C163 C 0.77186 0.06550 0.53606
 H164 H 0.75918 0.06672 0.55187
 C165 C 0.78943 0.08480 0.53463
 H166 H 0.79014 0.10098 0.54924
 Zn167 Zn 0.75015 0.01669 0.52034
 N168 N 0.77129 0.04486 0.51802
 C169 C 0.72528 0.03016 0.47158
 N170 N 0.72643 0.01328 0.49077
 C171 C 0.70925 -0.00566 0.49045
 C172 C 0.69000 -0.00830 0.47017
 C173 C 0.70629 0.02820 0.45092
 C174 C 0.79189 -0.01319 0.54231
 C175 C 0.81084 -0.03370 0.54381
 C176 C 0.79035 -0.05448 0.50480
 C177 C 0.77175 -0.03358 0.50402
 N178 N 0.77289 -0.01346 0.52261
 H179 H 0.73866 0.04550 0.47252
 H180 H 0.71032 -0.01849 0.50620
 H181 H 0.67624 -0.02327 0.47021
 H182 H 0.70525 0.04187 0.43587
 H183 H 0.79261 0.00329 0.55653
 H184 H 0.82619 -0.03309 0.55927
 H185 H 0.78966 -0.07018 0.48966
 H186 H 0.75695 -0.03311 0.48815
 C187 C 0.80639 0.08252 0.51458
 C188 C 0.69491 0.02680 0.58781
 C189 C 0.81016 -0.05442 0.52477
 C190 C 0.68845 0.00885 0.45031
 C191 C 0.49905 0.21356 1.05050
 H192 H 0.48446 0.21375 1.03436
 C193 C 0.49813 0.19587 1.06953
 H194 H 0.48272 0.18245 1.06815
 C195 C 0.53761 0.23005 1.07143
 H196 H 0.55328 0.24297 1.07171
 C197 C 0.53745 0.21258 1.09088
 H198 H 0.55289 0.21222 1.10625
 N199 N 0.51856 0.23017 1.05176
 C200 C 0.48863 0.29149 1.00204
 H201 H 0.50386 0.29046 0.98865
 C202 C 0.46834 0.31060 1.00011
 H203 H 0.46784 0.32431 0.98513
 C204 C 0.47120 0.27554 1.03858
 H205 H 0.47274 0.26225 1.05391
 C206 C 0.45053 0.29441 1.03734
 H207 H 0.43606 0.29545 1.05157
 Zn208 Zn 0.51941 0.25109 1.02336
 N209 N 0.48969 0.27443 1.02101
 C210 C 0.50150 0.22881 0.97367
 N211 N 0.52070 0.22805 0.99317
 C212 C 0.54052 0.20934 0.99270
 C213 C 0.54157 0.19037 0.97201
 C214 C 0.50182 0.21018 0.95260
 C215 C 0.54933 0.29026 1.04744
 C216 C 0.56844 0.30838 1.04968
 C217 C 0.58573 0.28802 1.01044
 C218 C 0.56629 0.27025 1.00892
 N219 N 0.54848 0.27181 1.02720
 H220 H 0.48557 0.24340 0.97472
 H221 H 0.55524 0.20892 1.00870
 H222 H 0.55720 0.17531 0.97198
 H223 H 0.48627 0.21062 0.93735
 H224 H 0.53460 0.29138 1.06137
 H225 H 0.56854 0.32346 1.06545
 H226 H 0.59939 0.28716 0.99543
 H227 H 0.56487 0.25592 0.99262
 C228 C 0.44920 0.31215 1.01799
 C229 C 0.51760 0.19525 1.08979
 C230 C 0.58660 0.30743 1.03084
 C231 C 0.52195 0.19071 0.95188
 C232 C 0.45714 0.78897 -0.05457
 H233 H 0.44295 0.78990 -0.04010
 C234 C 0.45529 0.80719 -0.07342
 H235 H 0.43956 0.82214 -0.07359
 C236 C 0.49594 0.76939 -0.07104
 H237 H 0.51219 0.75519 -0.06951
 C238 C 0.49483 0.78726 -0.09022
 H239 H 0.51010 0.78663 -0.10356
 N240 N 0.47734 0.77070 -0.05359
 C241 C 0.45329 0.71210 -0.00520
 H242 H 0.46919 0.71251 0.00964
 C243 C 0.43437 0.69407 -0.00483
 H244 H 0.43561 0.68059 0.01040
 C245 C 0.43289 0.72839 -0.04389
 H246 H 0.43279 0.74136 -0.05940
 C247 C 0.41355 0.71057 -0.04427
 H248 H 0.39846 0.70998 -0.05998
 Zn249 Zn 0.48067 0.74999 -0.02469
 N250 N 0.45226 0.72876 -0.02453
 C251 C 0.46471 0.77424 0.02351
 N252 N 0.48255 0.77333 0.00530
 C253 C 0.50154 0.79058 0.00686
 C254 C 0.50321 0.80965 0.02743
 C255 C 0.46569 0.79306 0.04444
 C256 C 0.51158 0.70843 -0.04560
 C257 C 0.53208 0.68943 -0.04627
 C258 C 0.55078 0.70943 -0.00598
 C259 C 0.52991 0.72807 -0.00604
 N260 N 0.51082 0.72720 -0.02566
 H261 H 0.44939 0.76080 0.02157
 H262 H 0.51515 0.78970 -0.00815
 H263 H 0.51821 0.82349 0.02836
 H264 H 0.45127 0.79393 0.05871
 H265 H 0.49588 0.70792 -0.06066
 H266 H 0.53227 0.67426 -0.06194
 H267 H 0.56565 0.70991 0.00995
 H268 H 0.52864 0.74270 0.00996
 C269 C 0.41445 0.69316 -0.02465
 C270 C 0.47449 0.80652 -0.09118
 C271 C 0.55173 0.68983 -0.02617
 C272 C 0.48506 0.81097 0.04631
 C273 C 1.05183 0.45758 0.21047
 H274 H 1.03703 0.44355 0.20924
 C275 C 1.07092 0.45542 0.19255
 H276 H 1.07094 0.43960 0.17753
 C277 C 1.06897 0.49631 0.23053
 H278 H 1.06763 0.51265 0.24480
 C279 C 1.08840 0.49486 0.21297
 H280 H 1.10213 0.50997 0.21393
 N281 N 1.05107 0.47790 0.22883
 C282 C 1.00135 0.45487 0.28658
 H283 H 0.98695 0.47105 0.28604
 C284 C 1.00031 0.43621 0.30461
 H285 H 0.98499 0.43794 0.31797
 C286 C 1.03969 0.43358 0.27070
 H287 H 1.05536 0.43306 0.25790
 C288 C 1.03939 0.41447 0.28854
 H289 H 1.05472 0.39913 0.28933
 Zn290 Zn 1.02200 0.48168 0.24921
 N291 N 1.02086 0.45332 0.27015
 C292 C 0.97367 0.46625 0.22447
 N293 N 0.99222 0.48397 0.22572
 C294 C 0.99104 0.50313 0.20884
 C295 C 0.97049 0.50517 0.18987
 C296 C 0.95275 0.46758 0.20574
 C297 C 1.04334 0.51229 0.29117
 C298 C 1.04434 0.53273 0.31046
 C299 C 1.00460 0.55206 0.29056
 C300 C 1.00433 0.53125 0.27162
 N301 N 1.02352 0.51188 0.27230
 H302 H 0.97529 0.45078 0.23761
 H303 H 1.00631 0.51666 0.20998
 H304 H 0.96981 0.52038 0.17639
 H305 H 0.93818 0.45328 0.20465
 H306 H 1.05804 0.49637 0.29154
 H307 H 1.05991 0.53264 0.32570
 H308 H 0.98899 0.56714 0.29024
 H309 H 0.98838 0.53023 0.25692
 C310 C 1.01962 0.41599 0.30578
 C311 C 1.08915 0.47441 0.19362
 C312 C 1.02468 0.55267 0.31025
 C313 C 0.95124 0.48717 0.18825
 C314 C -0.04820 0.49916 0.78790
 H315 H -0.03216 0.48460 0.78756
 C316 C -0.06724 0.49811 0.80549
 H317 H -0.06596 0.48261 0.81869
 C318 C -0.06892 0.53776 0.77180
 H319 H -0.06912 0.55348 0.75906
 C320 C -0.08837 0.53746 0.78920
 H321 H -0.10367 0.55285 0.78968
 N322 N -0.04935 0.51875 0.77152
 C323 C 0.00017 0.48866 0.71022
 H324 H 0.01372 0.50392 0.71141
 C325 C 0.00193 0.46827 0.69100
 H326 H 0.01693 0.46773 0.67736
 C327 C -0.03660 0.47125 0.72588
 H328 H -0.05195 0.47284 0.73910
 C329 C -0.03554 0.45049 0.70690
 H330 H -0.04992 0.43600 0.70569
 Zn331 Zn -0.02095 0.51964 0.75068
 N332 N -0.01884 0.48978 0.72719
 C333 C 0.02844 0.50170 0.77297
 N334 N 0.00918 0.52100 0.77375
 C335 C 0.00977 0.54090 0.79259
 C336 C 0.03030 0.54190 0.81171
 C337 C 0.04934 0.50197 0.79174
 C338 C -0.04465 0.54951 0.71173
 C339 C -0.04655 0.56848 0.69363
 C340 C -0.00715 0.58584 0.71407
 C341 C -0.00596 0.56652 0.73181
 N342 N -0.02447 0.54873 0.73018
 H343 H 0.02729 0.48571 0.75828
 H344 H -0.00605 0.55571 0.79302
 H345 H 0.03039 0.55756 0.82690
 H346 H 0.06436 0.48630 0.79131
 H347 H -0.05876 0.53478 0.71055
 H348 H -0.06226 0.56849 0.67852
 H349 H 0.00805 0.59945 0.71497
 H350 H 0.01027 0.56516 0.74616
 C351 C -0.01617 0.44911 0.68924
 C352 C -0.08739 0.51752 0.80627
 C353 C -0.02745 0.58658 0.69461
 C354 C 0.05015 0.52215 0.81137
 C355 C 0.12976 0.10621 0.48925
 C356 C 0.12979 0.12957 0.47646
 C357 C 0.10809 0.14796 0.47747
 C358 C 0.08651 0.14285 0.49124
 C359 C 0.08656 0.11955 0.50417
 C360 C 0.10825 0.10119 0.50319
 C361 C 0.10782 0.07803 0.51626
 C362 C 0.08657 0.07314 0.52987
 C363 C 0.06535 0.09108 0.53080
 C364 C 0.06523 0.11404 0.51814
 C365 C 0.10853 0.17115 0.46451
 C366 C 0.12980 0.17605 0.45093
 C367 C 0.15101 0.15807 0.44993
 C368 C 0.15111 0.13505 0.46251
 C369 C 0.06411 0.16133 0.49206
 C370 C 0.04506 0.17604 0.49319
 C371 C 0.15158 0.08707 0.48786
 C372 C 0.16917 0.07055 0.48701
 H373 H 0.12387 0.06346 0.51613
 H374 H 0.08658 0.05534 0.53975
 H375 H 0.04888 0.08720 0.54140
 H376 H 0.04826 0.12738 0.51946
 H377 H 0.09248 0.18571 0.46475
 H378 H 0.12983 0.19390 0.44112
 H379 H 0.16749 0.16197 0.43935
 H380 H 0.16805 0.12166 0.46122
 C381 C 0.60729 0.62959 -0.02300
 C382 C 0.63197 0.63299 -0.00984
 C383 C 0.64999 0.61118 -0.00695
 C384 C 0.64318 0.58610 -0.01721
 C385 C 0.61875 0.58282 -0.03095
 C386 C 0.60076 0.60464 -0.03388
 C387 C 0.57640 0.60085 -0.04757
 C388 C 0.56999 0.57621 -0.05806
 C389 C 0.58757 0.55488 -0.05516
 C390 C 0.61169 0.55803 -0.04178
 C391 C 0.67448 0.61502 0.00643
 C392 C 0.68101 0.63971 0.01664
 C393 C 0.66340 0.66103 0.01381
 C394 C 0.63912 0.65782 0.00075
 C395 C 0.66089 0.56356 -0.01287
 C396 C 0.67524 0.54467 -0.00889
 C397 C 0.58820 0.65148 -0.02450
 C398 C 0.57186 0.66923 -0.02542
 H399 H 0.56209 0.61684 -0.05039
 H400 H 0.55127 0.57367 -0.06848
 H401 H 0.58250 0.53578 -0.06334
 H402 H 0.62472 0.54085 -0.04008
 H403 H 0.68884 0.59903 0.00909
 H404 H 0.69984 0.64231 0.02680
 H405 H 0.66856 0.68017 0.02178
 H406 H 0.62609 0.67500 -0.00101
 C407 C 0.87011 -0.11036 0.52369
 C408 C 0.86814 -0.13352 0.50733
 C409 C 0.89010 -0.15142 0.50509
 C410 C 0.91390 -0.14604 0.51922
 C411 C 0.91564 -0.12327 0.53620
 C412 C 0.89368 -0.10538 0.53845
 C413 C 0.89594 -0.08266 0.55542
 C414 C 0.91924 -0.07777 0.56976
 C415 C 0.94071 -0.09526 0.56755
 C416 C 0.93905 -0.11777 0.55098
 C417 C 0.88771 -0.17435 0.48847
 C418 C 0.86429 -0.17946 0.47447
 C419 C 0.84282 -0.16196 0.47665
 C420 C 0.84461 -0.13920 0.49285
 C421 C 0.93682 -0.16338 0.51556
 C422 C 0.95600 -0.17744 0.51210
 C423 C 0.84833 -0.09111 0.52450
 C424 C 0.83067 -0.07465 0.52481
 H425 H 0.87976 -0.06850 0.55785
 H426 H 0.92062 -0.06032 0.58267
 H427 H 0.95876 -0.09137 0.57873
 H428 H 0.95627 -0.13081 0.54995
 H429 H 0.90386 -0.18858 0.48617
 H430 H 0.86280 -0.19711 0.46186
 H431 H 0.82467 -0.16603 0.46574
 H432 H 0.82737 -0.12620 0.49395
 C433 C 0.39406 0.37272 1.01440
 C434 C 0.40150 0.39620 1.00526
 C435 C 0.38321 0.41790 1.00347
 C436 C 0.35757 0.41602 1.01081
 C437 C 0.35016 0.39259 1.02004
 C438 C 0.36847 0.37087 1.02185
 C439 C 0.36063 0.34766 1.03112
 C440 C 0.33540 0.34594 1.03839
 C441 C 0.31750 0.36717 1.03660
 C442 C 0.32469 0.39028 1.02754
 C443 C 0.39110 0.44116 0.99426
 C444 C 0.41633 0.44290 0.98701
 C445 C 0.43421 0.42168 0.98875
 C446 C 0.42699 0.39855 0.99775
 C447 C 0.33891 0.43817 1.00856
 C448 C 0.32405 0.45699 1.00618
 C449 C 0.41285 0.35059 1.01603
 C450 C 0.42906 0.33274 1.01708
 H451 H 0.37388 0.33064 1.03284
 H452 H 0.32972 0.32803 1.04544
 H453 H 0.29793 0.36572 1.04227
 H454 H 0.31010 0.40628 1.02650
 H455 H 0.37792 0.45823 0.99256
 H456 H 0.42202 0.46083 0.98001
 H457 H 0.45378 0.42313 0.98310
 H458 H 0.44162 0.38260 0.99874
 C459 C 0.86442 0.13173 0.50915
 C460 C 0.88146 0.12521 0.48911
 C461 C 0.90344 0.14001 0.48740
 C462 C 0.90826 0.16127 0.50572
 C463 C 0.89086 0.16822 0.52534
 C464 C 0.86887 0.15338 0.52707
 C465 C 0.85184 0.16057 0.54694
 C466 C 0.85637 0.18184 0.56459
 C467 C 0.87786 0.19635 0.56289
 C468 C 0.89499 0.18969 0.54353
 C469 C 0.92031 0.13298 0.46731
 C470 C 0.91558 0.11195 0.44942
 C471 C 0.89408 0.09748 0.45109
 C472 C 0.87716 0.10393 0.47066
 C473 C 0.93157 0.17533 0.50472
 C474 C 0.95140 0.18609 0.50338
 C475 C 0.84298 0.11548 0.51174
 C476 C 0.82586 0.10100 0.51336
 H477 H 0.83484 0.14989 0.54900
 H478 H 0.84313 0.18711 0.57966
 H479 H 0.88129 0.21286 0.57664
 H480 H 0.91141 0.20157 0.54294
 H481 H 0.93728 0.14365 0.46515
 H482 H 0.92867 0.10687 0.43418
 H483 H 0.89048 0.08117 0.43714
 H484 H 0.86069 0.09209 0.47109
 C485 C 0.36526 0.63396 -0.02561
 C486 C 0.34184 0.63692 -0.01284
 C487 C 0.32718 0.61489 -0.01059
 C488 C 0.33605 0.59004 -0.02113
 C489 C 0.35895 0.58727 -0.03477
 C490 C 0.37359 0.60929 -0.03703
 C491 C 0.39656 0.60598 -0.05052
 C492 C 0.40483 0.58161 -0.06147
 C493 C 0.39053 0.56007 -0.05924
 C494 C 0.36785 0.56275 -0.04606
 C495 C 0.30397 0.61826 0.00249
 C496 C 0.29546 0.64273 0.01304
 C497 C 0.30980 0.66427 0.01084
 C498 C 0.33275 0.66151 -0.00191
 C499 C 0.32254 0.56710 -0.01676
 C500 C 0.31223 0.54762 -0.01270
 C501 C 0.38161 0.65581 -0.02576
 C502 C 0.39608 0.67327 -0.02546
 H503 H 0.40833 0.62216 -0.05283
 H504 H 0.42244 0.57943 -0.07173
 H505 H 0.39704 0.54117 -0.06776
 H506 H 0.35736 0.54542 -0.04490
 H507 H 0.29215 0.60208 0.00462
 H508 H 0.27765 0.64497 0.02296
 H509 H 0.30309 0.68323 0.01906
 H510 H 0.34322 0.67883 -0.00319
 C511 C 0.13338 -0.13619 0.47812
 C512 C 0.11040 -0.13143 0.46206
 C513 C 0.08817 -0.14562 0.46471
 C514 C 0.08907 -0.16449 0.48338
 C515 C 0.11236 -0.16994 0.49874
 C516 C 0.13458 -0.15573 0.49611
 C517 C 0.15756 -0.16133 0.51185
 C518 C 0.15858 -0.18047 0.52966
 C519 C 0.13686 -0.19437 0.53222
 C520 C 0.11396 -0.18924 0.51700
 C521 C 0.06534 -0.14033 0.44864
 C522 C 0.06449 -0.12159 0.43043
 C523 C 0.08622 -0.10773 0.42783
 C524 C 0.10896 -0.11249 0.44343
 C525 C 0.06575 -0.17741 0.48759
 C526 C 0.04619 -0.18761 0.49150
 C527 C 0.15520 -0.12000 0.47709
 C528 C 0.17276 -0.10579 0.47663
 H529 H 0.17497 -0.15107 0.51051
 H530 H 0.17632 -0.18454 0.54153
 H531 H 0.13775 -0.20923 0.54607
 H532 H 0.09759 -0.20061 0.51964
 H533 H 0.04795 -0.15065 0.44990
 H534 H 0.04688 -0.11782 0.41827
 H535 H 0.08547 -0.09320 0.41365
 H536 H 0.12537 -0.10125 0.44064
 C537 C 0.63501 0.36708 1.03019
 C538 C 0.65635 0.36489 1.01435
 C539 C 0.67057 0.38709 1.01149
 C540 C 0.66334 0.41133 1.02449
 C541 C 0.64268 0.41326 1.04118
 C542 C 0.62849 0.39106 1.04406
 C543 C 0.60775 0.39352 1.06067
 C544 C 0.60123 0.41724 1.07405
 C545 C 0.61510 0.43895 1.07122
 C546 C 0.63559 0.43710 1.05498
 C547 C 0.69167 0.38449 0.99534
 C548 C 0.69854 0.36063 0.98240
 C549 C 0.68463 0.33894 0.98519
 C550 C 0.66374 0.34093 1.00094
 C551 C 0.67620 0.43455 1.01965
 C552 C 0.68624 0.45404 1.01510
 C553 C 0.61881 0.34523 1.03103
 C554 C 0.60457 0.32763 1.03121
 H555 H 0.59644 0.37716 1.06357
 H556 H 0.58534 0.41876 1.08670
 H557 H 0.60997 0.45732 1.08166
 H558 H 0.64584 0.45451 1.05345
 H559 H 0.70311 0.40081 0.99263
 H560 H 0.71476 0.35898 0.97015
 H561 H 0.69005 0.32045 0.97510
 H562 H 0.65355 0.32350 1.00258
 C563 C 0.51662 0.13765 1.14010
 C564 C 0.53900 0.12087 1.14476
 C565 C 0.53739 0.09842 1.15885
 C566 C 0.51342 0.09292 1.16820
 C567 C 0.49135 0.11035 1.16457
 C568 C 0.49294 0.13278 1.15046
 C569 C 0.47053 0.14974 1.14678
 C570 C 0.44720 0.14471 1.15680
 C571 C 0.44565 0.12280 1.17062
 C572 C 0.46739 0.10573 1.17450
 C573 C 0.55994 0.08175 1.16300
 C574 C 0.58343 0.08714 1.15354
 C575 C 0.58500 0.10908 1.13975
 C576 C 0.56309 0.12582 1.13535
 C577 C 0.51106 0.06867 1.18023
 C578 C 0.50860 0.04824 1.18946
 C579 C 0.51746 0.15888 1.12325
 C580 C 0.51775 0.17585 1.10844
 H581 H 0.47081 0.16709 1.13624
 H582 H 0.43025 0.15790 1.15383
 H583 H 0.42749 0.11899 1.17839
 H584 H 0.46524 0.08897 1.18543
 H585 H 0.55968 0.06449 1.17367
 H586 H 0.60051 0.07421 1.15693
 H587 H 0.60329 0.11318 1.13244
 H588 H 0.56528 0.14270 1.12461
 C589 C -0.02597 0.63444 0.63500
 C590 C -0.04146 0.62895 0.61170
 C591 C -0.03860 0.64291 0.58946
 C592 C -0.02031 0.66233 0.59067
 C593 C -0.00556 0.66853 0.61426
 C594 C -0.00839 0.65453 0.63649
 C595 C 0.00674 0.66089 0.65978
 C596 C 0.02417 0.68055 0.66109
 C597 C 0.02694 0.69424 0.63935
 C598 C 0.01231 0.68836 0.61615
 C599 C -0.05408 0.63686 0.56631
 C600 C -0.07192 0.61761 0.56517
 C601 C -0.07474 0.60397 0.58693
 C602 C -0.05972 0.60948 0.60997
 C603 C -0.01586 0.67507 0.56737
 C604 C -0.01170 0.68515 0.54788
 C605 C -0.02705 0.61843 0.65683
 C606 C -0.02748 0.60436 0.67441
 H607 H 0.00521 0.65084 0.67722
 H608 H 0.03557 0.68520 0.67907
 H609 H 0.04049 0.70950 0.64047
 H610 H 0.01510 0.69958 0.59978
 H611 H -0.05263 0.64698 0.54890
 H612 H -0.08364 0.61326 0.54732
 H613 H -0.08864 0.58905 0.58595
 H614 H -0.06266 0.59839 0.62639
 C615 C 0.47596 0.86677 -0.13830
 C616 C 0.49390 0.86598 -0.15780
 C617 C 0.49659 0.88852 -0.17143
 C618 C 0.48135 0.91172 -0.16545
 C619 C 0.46272 0.91220 -0.14664
 C620 C 0.46000 0.88966 -0.13304
 C621 C 0.44141 0.89069 -0.11415
 C622 C 0.42593 0.91334 -0.10886
 C623 C 0.42860 0.93539 -0.12215
 C624 C 0.44676 0.93495 -0.14083
 C625 C 0.51483 0.88734 -0.19067
 C626 C 0.52996 0.86453 -0.19630
 C627 C 0.52733 0.84250 -0.18296
 C628 C 0.50954 0.84311 -0.16390
 C629 C 0.48565 0.93538 -0.17773
 C630 C 0.48964 0.95524 -0.18734
 C631 C 0.47495 0.84467 -0.12260
 C632 C 0.47452 0.82690 -0.10875
 H633 H 0.43856 0.87401 -0.10335
 H634 H 0.41179 0.91378 -0.09437
 H635 H 0.41653 0.95294 -0.11797
 H636 H 0.44809 0.95257 -0.15069
 H637 H 0.51753 0.90397 -0.20159
 H638 H 0.54379 0.86396 -0.21110
 H639 H 0.53912 0.82483 -0.18741
 H640 H 0.50813 0.82546 -0.15409
 C641 C 1.01853 0.36930 0.36629
 C642 C 1.01231 0.38218 0.39042
 C643 C 1.01067 0.36754 0.41244
 C644 C 1.01523 0.34010 0.41021
 C645 C 1.02173 0.32725 0.38618
 C646 C 1.02340 0.34190 0.36414
 C647 C 1.02987 0.32865 0.34031
 C648 C 1.03459 0.30166 0.33830
 C649 C 1.03296 0.28734 0.35984
 C650 C 1.02660 0.29989 0.38356
 C651 C 1.00438 0.38087 0.43634
 C652 C 0.99982 0.40786 0.43842
 C653 C 1.00139 0.42217 0.41689
 C654 C 1.00754 0.40959 0.39313
 C655 C 1.01273 0.32530 0.43265
 C656 C 1.01008 0.31413 0.45189
 C657 C 1.01955 0.38443 0.34381
 C658 C 1.01987 0.39815 0.32594
 H659 H 1.03138 0.33898 0.32304
 H660 H 1.03955 0.29182 0.31993
 H661 H 1.03665 0.26639 0.35817
 H662 H 1.02557 0.28795 0.39979
 H663 H 1.00293 0.37064 0.45367
 H664 H 0.99504 0.41771 0.45684
 H665 H 0.99782 0.44313 0.41859
 H666 H 1.00853 0.42162 0.37698
 C667 C 0.48820 0.87113 0.10257
 C668 C 0.47906 0.86943 0.12752
 C669 C 0.48053 0.89104 0.14623
 C670 C 0.49112 0.91421 0.13986
 C671 C 0.50024 0.91592 0.11489
 C672 C 0.49879 0.89432 0.09620
 C673 C 0.50806 0.89650 0.07138
 C674 C 0.51844 0.91936 0.06521
 C675 C 0.51983 0.94049 0.08347
 C676 C 0.51088 0.93890 0.10806
 C677 C 0.47129 0.88889 0.17104
 C678 C 0.46086 0.86603 0.17719
 C679 C 0.45942 0.84491 0.15890
 C680 C 0.46838 0.84647 0.13431
 C681 C 0.49280 0.93631 0.15890
 C682 C 0.49459 0.95499 0.17425
 C683 C 0.48672 0.84918 0.08333
 C684 C 0.48579 0.83144 0.06678
 H685 H 0.50739 0.88061 0.05648
 H686 H 0.52544 0.92067 0.04614
 H687 H 0.52787 0.95822 0.07857
 H688 H 0.51239 0.95588 0.12159
 H689 H 0.47201 0.90481 0.18591
 H690 H 0.45384 0.86472 0.19626
 H691 H 0.45132 0.82719 0.16379
 H692 H 0.46684 0.82954 0.12071
 C693 C -0.01319 0.39388 0.62823
 C694 C -0.01869 0.36762 0.63045
 C695 C -0.01700 0.34930 0.60857
 C696 C -0.00986 0.35737 0.58462
 C697 C -0.00452 0.38369 0.58236
 C698 C -0.00618 0.40199 0.60422
 C699 C -0.00068 0.42817 0.60148
 C700 C 0.00624 0.43604 0.57784
 C701 C 0.00785 0.41814 0.55646
 C702 C 0.00256 0.39226 0.55858
 C703 C -0.02252 0.32314 0.61126
 C704 C -0.02952 0.31529 0.63489
 C705 C -0.03119 0.33320 0.65627
 C706 C -0.02585 0.35910 0.65419
 C707 C -0.00770 0.33874 0.56229
 C708 C -0.00547 0.32401 0.54324
 C709 C -0.01459 0.41266 0.65053
 C710 C -0.01546 0.42891 0.66851
 H711 H -0.00166 0.44284 0.61754
 H712 H 0.01038 0.45613 0.57610
 H713 H 0.01323 0.42434 0.53812
 H714 H 0.00407 0.37910 0.54137
 H715 H -0.02149 0.30852 0.59516
 H716 H -0.03368 0.29520 0.63661
 H717 H -0.03664 0.32701 0.67458
 H718 H -0.02741 0.37233 0.67135
 C719 C 0.52053 0.13113 0.89487
 C720 C 0.53561 0.10770 0.89912
 C721 C 0.53355 0.08593 0.88067
 C722 C 0.51645 0.08773 0.85808
 C723 C 0.50192 0.11139 0.85348
 C724 C 0.50396 0.13315 0.87194
 C725 C 0.48908 0.15653 0.86703
 C726 C 0.47268 0.15837 0.84449
 C727 C 0.47070 0.13710 0.82643
 C728 C 0.48510 0.11383 0.83078
 C729 C 0.54864 0.06265 0.88545
 C730 C 0.56533 0.06093 0.90779
 C731 C 0.56737 0.08222 0.92582
 C732 C 0.55272 0.10538 0.92164
 C733 C 0.51309 0.06499 0.84009
 C734 C 0.50988 0.04594 0.82549
 C735 C 0.52134 0.15274 0.91456
 C736 C 0.52174 0.17029 0.93133
 H737 H 0.49001 0.17361 0.88048
 H738 H 0.46146 0.17640 0.84103
 H739 H 0.45794 0.13863 0.80896
 H740 H 0.48293 0.09783 0.81614
 H741 H 0.54777 0.04558 0.87198
 H742 H 0.57676 0.04299 0.91113
 H743 H 0.58037 0.08079 0.94313
 H744 H 0.55501 0.12142 0.93620
 C745 C 1.02241 0.60800 0.37126
 C746 C 1.03605 0.60252 0.39522
 C747 C 1.03352 0.62028 0.41741
 C748 C 1.01737 0.64342 0.41551
 C749 C 1.00432 0.64926 0.39136
 C750 C 1.00684 0.63148 0.36917
 C751 C 0.99344 0.63763 0.34530
 C752 C 0.97802 0.66071 0.34340
 C753 C 0.97559 0.67810 0.36508
 C754 C 0.98853 0.67253 0.38885
 C755 C 1.04718 0.61428 0.44120
 C756 C 1.06293 0.59141 0.44301
 C757 C 1.06542 0.57405 0.42131
 C758 C 1.05218 0.57944 0.39764
 C759 C 1.01348 0.66072 0.43856
 C760 C 1.00986 0.67478 0.45782
 C761 C 1.02358 0.58899 0.34911
 C762 C 1.02424 0.57272 0.33113
 H763 H 0.99478 0.62474 0.32788
 H764 H 0.96793 0.66513 0.32498
 H765 H 0.96361 0.69601 0.36349
 H766 H 0.98607 0.68668 0.40516
 H767 H 1.04589 0.62720 0.45860
 H768 H 1.07326 0.58715 0.46135
 H769 H 1.07768 0.55632 0.42282
 H770 H 1.05478 0.56536 0.38130
 C771 C 1.13748 0.47498 0.13441
 C772 C 1.15759 0.49252 0.13582
 C773 C 1.17165 0.49508 0.11360
 C774 C 1.16549 0.48011 0.09012
 C775 C 1.14612 0.46179 0.08904
 C776 C 1.13208 0.45921 0.11126
 C777 C 1.11262 0.44095 0.10964
 C778 C 1.10719 0.42568 0.08673
 C779 C 1.12090 0.42821 0.06500
 C780 C 1.14016 0.44604 0.06602
 C781 C 1.19149 0.51292 0.11538
 C782 C 1.19731 0.52779 0.13848
 C783 C 1.18355 0.52530 0.16019
 C784 C 1.16388 0.50790 0.15899
 C785 C 1.17805 0.48449 0.06672
 C786 C 1.18779 0.48856 0.04702
 C787 C 1.12132 0.47426 0.15614
 C788 C 1.10711 0.47410 0.17360
 H789 H 1.10147 0.43822 0.12605
 H790 H 1.09225 0.41179 0.08583
 H791 H 1.11662 0.41629 0.04724
 H792 H 1.15034 0.44727 0.04863
 H793 H 1.20277 0.51550 0.09902
 H794 H 1.21258 0.54131 0.13952
 H795 H 1.18815 0.53689 0.17808
 H796 H 1.15376 0.50658 0.17640
 C797 C 0.63577 0.02787 0.63641
 C798 C 0.61267 0.04329 0.63064
 C799 C 0.59046 0.04106 0.64480
 C800 C 0.59150 0.02344 0.66467
 C801 C 0.61493 0.00886 0.67120
 C802 C 0.63714 0.01107 0.65702
 C803 C 0.66026 -0.00392 0.66369
 C804 C 0.66143 -0.02059 0.68384
 C805 C 0.63972 -0.02275 0.69772
 C806 C 0.61668 -0.00826 0.69154
 C807 C 0.56749 0.05643 0.63845
 C808 C 0.56651 0.07356 0.61871
 C809 C 0.58823 0.07577 0.60488
 C810 C 0.61109 0.06084 0.61068
 C811 C 0.56813 0.01935 0.67743
 C812 C 0.54853 0.01543 0.68741
 C813 C 0.65747 0.02812 0.62014
 C814 C 0.67491 0.02779 0.60584
 H815 H 0.67766 -0.00284 0.65350
 H816 H 0.67928 -0.03189 0.68873
 H817 H 0.64073 -0.03571 0.71337
 H818 H 0.60032 -0.01054 0.70292
 H819 H 0.55011 0.05544 0.64871
 H820 H 0.54879 0.08521 0.61414
 H821 H 0.58737 0.08911 0.58957
 H822 H 0.62750 0.06329 0.59943
 C823 C -0.13789 0.51562 0.86338
 C824 C -0.14609 0.53871 0.87784
 C825 C -0.16043 0.53719 0.90006
 C826 C -0.16649 0.51259 0.90767
 C827 C -0.15925 0.48958 0.89256
 C828 C -0.14490 0.49110 0.87035
 C829 C -0.13760 0.46780 0.85574
 C830 C -0.14434 0.44369 0.86283
 C831 C -0.15840 0.44221 0.88453
 C832 C -0.16581 0.46482 0.89931
 C833 C -0.16818 0.56051 0.91438
 C834 C -0.16197 0.58466 0.90692
 C835 C -0.14795 0.58615 0.88518
 C836 C -0.14002 0.56349 0.87075
 C837 C -0.17900 0.51077 0.93167
 C838 C -0.18871 0.50876 0.95189
 C839 C -0.12097 0.51687 0.84235
 C840 C -0.10610 0.51744 0.82552
 H841 H -0.12671 0.46795 0.83866
 H842 H -0.13864 0.42607 0.85140
 H843 H -0.16360 0.42344 0.88996
 H844 H -0.17677 0.46267 0.91599
 H845 H -0.17918 0.56033 0.93139
 H846 H -0.16809 0.60232 0.91806
 H847 H -0.14319 0.60496 0.87946
 H848 H -0.12921 0.56562 0.85395
 C849 C 0.36091 -0.02012 0.36319
 C850 C 0.36701 0.00402 0.35447
 C851 C 0.38912 0.00534 0.33994
 C852 C 0.40501 -0.01749 0.33422
 C853 C 0.39824 -0.04181 0.34192
 C854 C 0.37611 -0.04313 0.35645
 C855 C 0.36987 -0.06762 0.36417
 C856 C 0.38503 -0.09018 0.35768
 C857 C 0.40668 -0.08889 0.34350
 C858 C 0.41332 -0.06503 0.33567
 C859 C 0.39498 0.02974 0.33167
 C860 C 0.37943 0.05219 0.33759
 C861 C 0.35782 0.05090 0.35181
 C862 C 0.35159 0.02715 0.36023
 C863 C 0.42900 -0.01563 0.32171
 C864 C 0.44921 -0.01352 0.31203
 C865 C 0.34009 -0.02093 0.38044
 C866 C 0.32347 -0.02110 0.39560
 H867 H 0.35317 -0.06959 0.37516
 H868 H 0.37994 -0.10876 0.36370
 H869 H 0.41839 -0.10647 0.33851
 H870 H 0.43029 -0.06500 0.32460
 H871 H 0.41155 0.03172 0.32050
 H872 H 0.38418 0.07069 0.33109
 H873 H 0.34579 0.06839 0.35635
 H874 H 0.33455 0.02711 0.37119
 C875 C 0.10639 0.52026 0.87145
 C876 C 0.10179 0.53475 0.89521
 C877 C 0.12001 0.53251 0.91705
 C878 C 0.14273 0.51581 0.91500
 C879 C 0.14765 0.50185 0.89105
 C880 C 0.12942 0.50407 0.86921
 C881 C 0.13467 0.48977 0.84553
 C882 C 0.15731 0.47376 0.84347
 C883 C 0.17514 0.47160 0.86481
 C884 C 0.17047 0.48543 0.88838
 C885 C 0.11490 0.54704 0.94065
 C886 C 0.09245 0.56334 0.94261
 C887 C 0.07464 0.56554 0.92125
 C888 C 0.07915 0.55145 0.89778
 C889 C 0.16054 0.51233 0.93774
 C890 C 0.17504 0.50906 0.95676
 C891 C 0.08698 0.52127 0.84969
 C892 C 0.07044 0.52182 0.83198
 H893 H 0.12140 0.49085 0.82838
 H894 H 0.16104 0.46298 0.82520
 H895 H 0.19270 0.45914 0.86311
 H896 H 0.18494 0.48316 0.90442
 H897 H 0.12820 0.54602 0.95778
 H898 H 0.08885 0.57432 0.96080
 H899 H 0.05723 0.57824 0.92287
 H900 H 0.06474 0.55384 0.88171
 C901 C 0.62840 0.00357 0.39423
 C902 C 0.62514 0.02082 0.37398
 C903 C 0.60324 0.01936 0.35569
 C904 C 0.58474 0.00066 0.35778
 C905 C 0.58820 -0.01682 0.37782
 C906 C 0.61009 -0.01537 0.39609
 C907 C 0.61308 -0.03301 0.41600
 C908 C 0.59496 -0.05155 0.41781
 C909 C 0.57354 -0.05295 0.39996
 C910 C 0.57009 -0.03584 0.38016
 C911 C 0.60033 0.03686 0.33567
 C912 C 0.61855 0.05528 0.33377
 C913 C 0.63996 0.05671 0.35165
 C914 C 0.64331 0.03973 0.37157
 C915 C 0.56197 -0.00043 0.33960
 C916 C 0.54281 -0.00165 0.32487
 C917 C 0.65020 0.00561 0.41352
 C918 C 0.66790 0.00717 0.43002
 H919 H 0.62943 -0.03272 0.43035
 H920 H 0.59756 -0.06490 0.43315
 H921 H 0.55950 -0.06737 0.40145
 H922 H 0.55313 -0.03773 0.36673
 H923 H 0.58400 0.03648 0.32130
 H924 H 0.61603 0.06853 0.31834
 H925 H 0.65406 0.07104 0.35007
 H926 H 0.66029 0.04157 0.38501
 C927 C 0.89408 0.49164 0.12922
 C928 C 0.89355 0.51274 0.11306
 C929 C 0.87504 0.51413 0.09138
 C930 C 0.85715 0.49443 0.08597
 C931 C 0.85739 0.47358 0.10238
 C932 C 0.87592 0.47218 0.12407
 C933 C 0.87588 0.45110 0.14012
 C934 C 0.85801 0.43195 0.13491
 C935 C 0.83989 0.43332 0.11371
 C936 C 0.83949 0.45385 0.09756
 C937 C 0.87497 0.53534 0.07544
 C938 C 0.89268 0.55462 0.08079
 C939 C 0.91077 0.55326 0.10200
 C940 C 0.91130 0.53261 0.11801
 C941 C 0.83888 0.49549 0.06327
 C942 C 0.82414 0.49682 0.04414
 C943 C 0.91376 0.48972 0.15067
 C944 C 0.93058 0.48840 0.16806
 H945 H 0.88959 0.44921 0.15685
 H946 H 0.85823 0.41596 0.14740
 H947 H 0.82605 0.41840 0.10976
 H948 H 0.82502 0.45411 0.08131
 H949 H 0.86126 0.53729 0.05873
 H950 H 0.89234 0.57071 0.06840
 H951 H 0.92448 0.56829 0.10607
 H952 H 0.92573 0.53244 0.13429
 C953 C 0.37124 -0.01891 0.60848
 C954 C 0.36916 -0.00264 0.63164
 C955 C 0.39114 0.00001 0.64966
 C956 C 0.41507 -0.01359 0.64441
 C957 C 0.41697 -0.03036 0.62156
 C958 C 0.39499 -0.03304 0.60355
 C959 C 0.39741 -0.04980 0.58077
 C960 C 0.42087 -0.06353 0.57593
 C961 C 0.44237 -0.06090 0.59353
 C962 C 0.44056 -0.04453 0.61612
 C963 C 0.38863 0.01650 0.67260
 C964 C 0.36508 0.02998 0.67760
 C965 C 0.34359 0.02739 0.65997
 C966 C 0.34550 0.01130 0.63721
 C967 C 0.43793 -0.00968 0.66202
 C968 C 0.45706 -0.00608 0.67633
 C969 C 0.34932 -0.02036 0.58927
 C970 C 0.33149 -0.02129 0.57287
 H971 H 0.38122 -0.05253 0.56652
 H972 H 0.42237 -0.07628 0.55842
 H973 H 0.46055 -0.07160 0.58968
 H974 H 0.45780 -0.04317 0.62924
 H975 H 0.40479 0.01911 0.68692
 H976 H 0.36349 0.04250 0.69525
 H977 H 0.32534 0.03789 0.66395
 H978 H 0.32824 0.00987 0.62411
   
