data_POSCAR
  _audit_creation_date              2014-09-24
  _audit_creation_method            'ToBaCCo'
  _symmetry_space_group_name_H-M    'P1'
  _symmetry_Int_Tables_number       1
  _symmetry_cell_setting            triclinic
  loop_
  _symmetry_equiv_pos_as_xyz
 x,y,z
_cell_length_a 30.3491
_cell_length_b 26.8667
_cell_length_c 32.1243
_cell_angle_alpha 90.217400
_cell_angle_beta 90.095700
_cell_angle_gamma 89.404100
loop_
  _atom_site_label
  _atom_site_type_symbol
  _atom_site_fract_x
  _atom_site_fract_y
  _atom_site_fract_z
C1 C 0.25792 0.30995 0.01197
 C2 C 0.25012 0.29792 -0.03054
 C3 C 0.27284 0.25785 -0.04849
 C4 C 0.30672 0.23314 -0.02749
 C5 C 0.31694 0.24666 0.01412
 C6 C 0.29221 0.28499 0.03357
 H7 H 0.29722 0.29251 0.06639
 H8 H 0.26752 0.24895 -0.08104
 C9 C 0.74213 0.69612 -0.00656
 C10 C 0.72469 0.69761 -0.04761
 C11 C 0.68821 0.72883 -0.05579
 C12 C 0.66949 0.75976 -0.02496
 C13 C 0.68632 0.75647 0.01618
 C14 C 0.72237 0.72536 0.02461
 H15 H 0.73494 0.72350 0.05621
 H16 H 0.67505 0.73001 -0.08707
 C17 C 0.71052 0.32341 0.96016
 C18 C 0.72127 0.33566 1.00214
 C19 C 0.69471 0.31660 1.03421
 C20 C 0.66135 0.28150 1.02652
 C21 C 0.65188 0.26835 0.98464
 C22 C 0.67569 0.29062 0.95246
 H23 H 0.66703 0.28161 0.92061
 H24 H 0.70189 0.32707 1.06603
 C25 C 0.27331 0.67075 1.01500
 C26 C 0.28635 0.67836 1.05710
 C27 C 0.31970 0.71317 1.06515
 C28 C 0.33974 0.74056 1.03321
 C29 C 0.32761 0.73155 0.99130
 C30 C 0.29347 0.69814 0.98317
 H31 H 0.28572 0.68950 0.95098
 H32 H 0.32903 0.72101 1.09706
 C33 C 0.00699 0.30083 0.34112
 C34 C -0.03915 0.30026 0.34573
 C35 C -0.06580 0.31430 0.31191
 C36 C -0.04749 0.32954 0.27384
 C37 C -0.00107 0.32791 0.26893
 C38 C 0.02527 0.31330 0.30268
 H39 H 0.06085 0.31312 0.29946
 H40 H -0.10119 0.31627 0.31629
 C41 C 0.05127 0.69182 0.65100
 C42 C 0.00458 0.69554 0.64718
 C43 C -0.02101 0.67427 0.67948
 C44 C -0.00007 0.65744 0.71653
 C45 C 0.04442 0.67163 0.72348
 C46 C 0.07025 0.68489 0.68989
 H47 H 0.10559 0.68858 0.69380
 H48 H -0.05621 0.67016 0.67564
 C49 C 0.95936 0.72657 0.33924
 C50 C 1.00114 0.71534 0.35628
 C51 C 1.02707 0.67809 0.33789
 C52 C 1.01425 0.65262 0.30140
 C53 C 0.97325 0.66663 0.28266
 C54 C 0.94594 0.70228 0.30261
 H55 H 0.91470 0.71271 0.28853
 H56 H 1.05914 0.67106 0.35154
 C57 C 0.99233 0.27838 0.66890
 C58 C 1.03498 0.28994 0.65453
 C59 C 1.06216 0.31949 0.67936
 C60 C 1.04651 0.34176 0.71642
 C61 C 1.00195 0.33387 0.72823
 C62 C 0.97573 0.30170 0.70449
 H63 H 0.94265 0.29311 0.71477
 H64 H 1.09484 0.32792 0.66806
 C65 C 0.33532 0.00606 0.27532
 C66 C 0.33518 -0.04395 0.28998
 C67 C 0.30694 -0.05537 0.32339
 C68 C 0.28030 -0.01895 0.34289
 C69 C 0.28107 0.03050 0.32750
 C70 C 0.30912 0.04242 0.29484
 H71 H 0.30783 0.07982 0.28219
 H72 H 0.30771 -0.09242 0.33638
 C73 C 0.66052 0.04483 0.71260
 C74 C 0.64811 -0.00546 0.71850
 C75 C 0.67464 -0.04360 0.70145
 C76 C 0.71175 -0.03293 0.67684
 C77 C 0.72295 0.01766 0.67012
 C78 C 0.69718 0.05548 0.68812
 H79 H 0.70640 0.09400 0.68370
 H80 H 0.66481 -0.08193 0.70551
 C81 C 0.34979 0.98209 0.69232
 C82 C 0.34570 1.03369 0.68284
 C83 C 0.32085 1.04679 0.64689
 C84 C 0.30219 1.01028 0.62057
 C85 C 0.31460 0.95975 0.62706
 C86 C 0.33708 0.94633 0.66315
 H87 H 0.34309 0.90717 0.66942
 H88 H 0.31443 1.08541 0.63990
 C89 C 0.64856 0.96802 0.32183
 C90 C 0.63803 1.01881 0.31469
 C91 C 0.66000 1.05540 0.33779
 C92 C 0.69017 1.04298 0.36986
 C93 C 0.69852 0.99163 0.37801
 C94 C 0.67937 0.95559 0.35250
 H95 H 0.68660 0.91666 0.35840
 H96 H 0.65267 1.09397 0.33075
 O97 O 0.88607 0.85863 0.46645
 O98 O 0.83171 0.88918 0.56569
 O99 O 0.90607 0.83908 0.54573
 O100 O 0.82370 0.91383 0.49183
 O101 O 0.78249 0.84671 0.48532
 O102 O 0.86674 0.77062 0.54290
 O103 O 0.79396 0.81935 0.56241
 O104 O 0.84915 0.78837 0.46315
 Cu105 Cu 0.86729 0.88049 0.51889
 Cu106 Cu 0.81930 0.79934 0.51276
 C107 C 0.87610 0.81873 0.44734
 C108 C 0.80206 0.86071 0.57974
 C109 C 0.90157 0.79329 0.55371
 C110 C 0.78865 0.89325 0.47990
 O111 O 0.09657 0.18006 0.44738
 O112 O 0.16059 0.09325 0.51183
 O113 O 0.09861 0.16724 0.52155
 O114 O 0.14994 0.11494 0.42989
 O115 O 0.20762 0.16353 0.43808
 O116 O 0.15425 0.21838 0.53200
 O117 O 0.21483 0.14635 0.51960
 O118 O 0.15069 0.23422 0.45387
 Cu119 Cu 0.12301 0.13106 0.47900
 Cu120 Cu 0.18806 0.19529 0.48698
 C121 C 0.11269 0.22257 0.44028
 C122 C 0.19814 0.10410 0.52647
 C123 C 0.11519 0.20453 0.53975
 C124 C 0.18627 0.13162 0.41696
 O125 O 0.13736 0.79961 0.55023
 O126 O 0.16901 0.89523 0.47610
 O127 O 0.10314 0.83187 0.48245
 O128 O 0.19971 0.86335 0.54537
 O129 O 0.24021 0.80948 0.50946
 O130 O 0.14296 0.77841 0.44550
 O131 O 0.20819 0.84020 0.44013
 O132 O 0.17483 0.74329 0.51403
 Cu133 Cu 0.14814 0.85316 0.51681
 Cu134 Cu 0.19567 0.78688 0.47401
 C135 C 0.14942 0.75496 0.54392
 C136 C 0.19520 0.88456 0.44654
 C137 C 0.10622 0.79899 0.45413
 C138 C 0.23660 0.84308 0.53727
 O139 O 0.82467 0.11600 0.46555
 O140 O 0.90701 0.15220 0.54430
 O141 O 0.84915 0.08880 0.54222
 O142 O 0.89691 0.17581 0.46703
 O143 O 0.85168 0.23512 0.48912
 O144 O 0.80020 0.14619 0.56098
 O145 O 0.86171 0.21129 0.56695
 O146 O 0.78197 0.17839 0.48594
 Cu147 Cu 0.87274 0.12746 0.50084
 Cu148 Cu 0.81920 0.19869 0.52751
 C149 C 0.78898 0.14098 0.46273
 C150 C 0.89739 0.18669 0.57008
 C151 C 0.81735 0.10302 0.56506
 C152 C 0.88334 0.22064 0.46601
 O153 O 0.52156 0.88364 0.91218
 O154 O 0.42869 0.92196 0.84954
 O155 O 0.44005 0.85219 0.90258
 O156 O 0.51246 0.93437 0.84136
 O157 O 0.53101 0.87074 0.80098
 O158 O 0.45378 0.79226 0.85709
 O159 O 0.44588 0.86523 0.80205
 O160 O 0.53643 0.82013 0.87057
 Cu161 Cu 0.47518 0.90335 0.88074
 Cu162 Cu 0.49303 0.83096 0.82919
 C163 C 0.54468 0.84586 0.90305
 C164 C 0.42230 0.90214 0.81443
 C165 C 0.43388 0.80809 0.88917
 C166 C 0.53341 0.91643 0.81018
 O167 O 0.54942 0.15071 0.10700
 O168 O 0.46145 0.07209 0.14826
 O169 O 0.46261 0.13236 0.09262
 O170 O 0.53924 0.08021 0.16896
 O171 O 0.52451 0.14258 0.21201
 O172 O 0.44823 0.19700 0.13332
 O173 O 0.44374 0.13260 0.19239
 O174 O 0.53342 0.21019 0.15215
 Cu175 Cu 0.50767 0.10516 0.12381
 Cu176 Cu 0.48662 0.17763 0.17642
 C177 C 0.55640 0.19345 0.12226
 C178 C 0.43746 0.08936 0.17736
 C179 C 0.44001 0.17109 0.10105
 C180 C 0.54205 0.10026 0.20473
 O181 O 0.54149 0.10274 0.82125
 O182 O 0.44380 0.11511 0.88695
 O183 O 0.45687 0.09212 0.80938
 O184 O 0.52855 0.12906 0.89803
 O185 O 0.52498 0.20719 0.87713
 O186 O 0.44798 0.17147 0.79347
 O187 O 0.44011 0.19526 0.87181
 O188 O 0.53347 0.18018 0.79945
 Cu189 Cu 0.49345 0.10210 0.85581
 Cu190 Cu 0.48602 0.19652 0.83367
 C191 C 0.55370 0.13859 0.79867
 C192 C 0.42545 0.15740 0.89063
 C193 C 0.43943 0.12591 0.78686
 C194 C 0.53966 0.17436 0.90201
 O195 O 0.47442 0.86783 0.11166
 O196 O 0.55243 0.89927 0.19422
 O197 O 0.56150 0.86672 0.12015
 O198 O 0.46835 0.89689 0.18930
 O199 O 0.46611 0.81852 0.20984
 O200 O 0.55931 0.78828 0.14052
 O201 O 0.55079 0.82162 0.21678
 O202 O 0.47316 0.78992 0.13335
 Cu203 Cu 0.51398 0.89034 0.15099
 Cu204 Cu 0.51247 0.79651 0.17695
 C205 C 0.45971 0.82394 0.10902
 C206 C 0.56429 0.86606 0.21989
 C207 C 0.57695 0.82264 0.11954
 C208 C 0.45174 0.86299 0.21168
 O209 O 0.89936 0.54287 0.84077
 O210 O 0.82213 0.45456 0.88672
 O211 O 0.90290 0.45061 0.85588
 O212 O 0.82990 0.55196 0.88826
 O213 O 0.79401 0.54826 0.82841
 O214 O 0.87025 0.44805 0.79428
 O215 O 0.79080 0.44696 0.82500
 O216 O 0.86442 0.54060 0.78034
 Cu217 Cu 0.86570 0.50022 0.87373
 Cu218 Cu 0.82500 0.49600 0.80190
 C219 C 0.89622 0.55527 0.80259
 C220 C 0.79384 0.43464 0.86295
 C221 C 0.90060 0.43350 0.81915
 C222 C 0.79992 0.56771 0.86419
 O223 O 0.09413 0.54283 0.17583
 O224 O 0.14427 0.46200 0.09589
 O225 O 0.08414 0.45613 0.14800
 O226 O 0.16125 0.55664 0.12129
 O227 O 0.20895 0.52860 0.16769
 O228 O 0.13308 0.42784 0.19353
 O229 O 0.19640 0.43727 0.13947
 O230 O 0.14447 0.51591 0.22038
 Cu231 Cu 0.11778 0.50922 0.13005
 Cu232 Cu 0.17612 0.47498 0.18454
 C233 C 0.10972 0.54097 0.21252
 C234 C 0.17728 0.43437 0.10438
 C235 C 0.09562 0.42530 0.17597
 C236 C 0.19797 0.55994 0.14009
 O237 O 0.90749 0.45658 0.14275
 O238 O 0.87460 0.55377 0.06684
 O239 O 0.92253 0.55188 0.13446
 O240 O 0.86815 0.45740 0.07012
 O241 O 0.80497 0.47024 0.10269
 O242 O 0.86254 0.55960 0.17272
 O243 O 0.81266 0.56423 0.10196
 O244 O 0.84181 0.46249 0.17214
 Cu245 Cu 0.89949 0.50382 0.10027
 Cu246 Cu 0.82547 0.51704 0.14168
 C247 C 0.87946 0.44210 0.16947
 C248 C 0.83733 0.57515 0.07157
 C249 C 0.90230 0.57119 0.16501
 C250 C 0.82753 0.44808 0.07465
 O251 O 0.09632 0.47704 0.83956
 O252 O 0.14202 0.54156 0.93172
 O253 O 0.09664 0.57137 0.86544
 O254 O 0.13533 0.45172 0.90617
 O255 O 0.20034 0.46411 0.87691
 O256 O 0.15719 0.57817 0.82793
 O257 O 0.20225 0.55795 0.89586
 O258 O 0.16134 0.48378 0.80926
 Cu259 Cu 0.11075 0.51089 0.88887
 Cu260 Cu 0.18664 0.52301 0.84920
 C261 C 0.12281 0.46619 0.81014
 C262 C 0.18032 0.55990 0.92927
 C263 C 0.11938 0.59413 0.83868
 C264 C 0.17438 0.43760 0.89827
 N265 N 0.16075 0.37277 0.04986
 N266 N 0.18130 0.33897 0.02709
 C267 C 0.22489 0.34051 0.03530
 C268 C 0.23212 0.37584 0.06639
 C269 C 0.19037 0.39594 0.07405
 H270 H 0.26315 0.38651 0.08026
 H271 H 0.12672 0.37907 0.04934
 H272 H 0.16536 0.31524 0.00625
 N273 N 0.84453 0.62933 0.00851
 N274 N 0.81925 0.66100 -0.01245
 C275 C 0.77957 0.66388 0.00628
 C276 C 0.77996 0.63360 0.04100
 C277 C 0.82152 0.61215 0.04122
 H278 H 0.75340 0.62757 0.06279
 H279 H 0.87688 0.61984 0.00047
 H280 H 0.82918 0.68035 -0.03891
 N281 N 0.75654 0.35301 0.85973
 N282 N 0.73643 0.32298 0.88586
 C283 C 0.73196 0.34611 0.92308
 C284 C 0.74963 0.39345 0.91995
 C285 C 0.76547 0.39580 0.87967
 H286 H 0.75168 0.42199 0.94371
 H287 H 0.76588 0.34328 0.82946
 H288 H 0.72744 0.28660 0.87845
 N289 N 0.22350 0.55272 0.99365
 N290 N 0.25039 0.58153 1.01498
 C291 C 0.24527 0.62881 1.00172
 C292 C 0.21479 0.62971 0.96961
 C293 C 0.20141 0.58090 0.96591
 H294 H 0.20624 0.66065 0.94957
 H295 H 0.22311 0.51393 0.99570
 H296 H 0.27353 0.56838 1.03650
 N297 N 0.09798 0.30656 0.41100
 N298 N 0.06866 0.32771 0.38617
 C299 C 0.03778 0.29402 0.37607
 C300 C 0.04795 0.24929 0.39509
 C301 C 0.08656 0.25885 0.41667
 H302 H 0.03183 0.21387 0.39097
 H303 H 0.12600 0.32417 0.42257
 H304 H 0.07103 0.36391 0.37468
 N305 N 0.10560 0.67942 0.55270
 N306 N 0.07629 0.66487 0.58036
 C307 C 0.08143 0.69220 0.61516
 C308 C 0.11578 0.72479 0.60987
 C309 C 0.12946 0.71655 0.56940
 H310 H 0.12469 0.75531 0.63020
 H311 H 0.10573 0.66807 0.52156
 H312 H 0.05163 0.63892 0.57454
 N313 N 0.92325 0.83944 0.38665
 N314 N 0.94437 0.81507 0.35684
 C315 C 0.93187 0.76710 0.35710
 C316 C 0.90054 0.76094 0.38812
 C317 C 0.89693 0.80753 0.40684
 H318 H 0.88785 0.72615 0.39971
 H319 H 0.92942 0.87635 0.39494
 H320 H 0.96988 0.83003 0.33923
 N321 N 0.96247 0.16847 0.61431
 N322 N 0.98654 0.19206 0.64215
 C323 C 0.96775 0.23677 0.65015
 C324 C 0.92929 0.24139 0.62717
 C325 C 0.92792 0.19772 0.60410
 H326 H 0.90874 0.27426 0.62354
 H327 H 0.97098 0.13415 0.60102
 H328 H 1.01708 0.17931 0.65300
 N329 N 0.38411 0.01979 0.17447
 N330 N 0.35665 -0.00214 0.20029
 C331 C 0.35829 0.02167 0.23726
 C332 C 0.38652 0.06151 0.23450
 C333 C 0.40264 0.05847 0.19444
 H334 H 0.39604 0.08706 0.25896
 H335 H 0.39043 0.00790 0.14405
 H336 H 0.33822 -0.03362 0.19299
 N337 N 0.59623 0.15463 0.73408
 N338 N 0.62413 0.12874 0.71075
 C339 C 0.63640 0.08735 0.73158
 C340 C 0.61708 0.08816 0.77047
 C341 C 0.59058 0.13021 0.77016
 H342 H 0.61808 0.05929 0.79387
 H343 H 0.57869 0.18597 0.72394
 H344 H 0.63178 0.13739 0.67994
 N345 N 0.35922 0.95880 0.80143
 N346 N 0.34137 0.98169 0.76923
 C347 C 0.36015 0.96370 0.73431
 C348 C 0.39034 0.92662 0.74446
 C349 C 0.38918 0.92532 0.78748
 H350 H 0.41264 0.90689 0.72380
 H351 H 0.35240 0.96775 0.83245
 H352 H 0.31770 1.01011 0.77134
 N353 N 0.59602 0.85469 0.29032
 N354 N 0.61709 0.88250 0.31765
 C355 C 0.62722 0.92628 0.29968
 C356 C 0.61280 0.92574 0.25887
 C357 C 0.59248 0.88027 0.25458
 H358 H 0.61476 0.95507 0.23598
 H359 H 0.58226 0.82013 0.29692
 H360 H 0.62236 0.87232 0.34862
 N361 N 0.34673 0.14227 0.90071
 N362 N 0.31265 0.16546 0.92255
 C363 C 0.33087 0.19749 0.94987
 C364 C 0.37640 0.19614 0.94573
 C365 C 0.38472 0.16186 0.91428
 H366 H 0.39986 0.22101 0.96007
 H367 H 0.34256 0.11907 0.87487
 H368 H 0.27914 0.15989 0.91695
 N369 N 0.59399 0.86214 0.96260
 N370 N 0.62860 0.83822 0.98299
 C371 C 0.63593 0.79408 0.96379
 C372 C 0.60689 0.78988 0.93017
 C373 C 0.58115 0.83275 0.93099
 H374 H 0.60380 0.75914 0.90854
 H375 H 0.58133 0.89719 0.97058
 H376 H 0.64789 0.85542 1.00561
 N377 N 0.40634 0.84643 0.05329
 N378 N 0.37237 0.82265 0.03207
 C379 C 0.37240 0.77466 0.04408
 C380 C 0.40485 0.76725 0.07394
 C381 C 0.42560 0.81256 0.07831
 H382 H 0.41168 0.73348 0.09118
 H383 H 0.41296 0.88445 0.05183
 H384 H 0.34703 0.84122 0.01631
 N385 N 0.62952 0.23299 0.12671
 N386 N 0.65749 0.25459 0.10123
 C387 C 0.63869 0.25925 0.06321
 C388 C 0.59648 0.23961 0.06509
 C389 C 0.59238 0.22316 0.10564
 H390 H 0.57185 0.23732 0.04085
 H391 H 0.63657 0.22334 0.15750
 H392 H 0.68952 0.26414 0.10976
 N393 N 0.20642 0.01964 0.55536
 N394 N 0.23552 -0.00660 0.58071
 C395 C 0.26906 0.02366 0.59123
 C396 C 0.26113 0.07041 0.57320
 C397 C 0.22183 0.06594 0.55093
 H398 H 0.28087 0.10354 0.57612
 H399 H 0.17699 0.00550 0.54352
 H400 H 0.22723 -0.04007 0.59463
 N401 N 0.71989 0.15534 0.42310
 N402 N 0.69239 0.12790 0.39718
 C403 C 0.71037 0.08196 0.39245
 C404 C 0.75038 0.08018 0.41400
 C405 C 0.75464 0.12631 0.43300
 H406 H 0.77351 0.04941 0.41619
 H407 H 0.71325 0.19141 0.43377
 H408 H 0.66158 0.14050 0.38699
 N409 N 0.76559 0.85108 0.64894
 N410 N 0.74213 0.87952 0.67454
 C411 C 0.73612 0.92476 0.65705
 C412 C 0.75602 0.92437 0.61822
 C413 C 0.77514 0.87777 0.61487
 H414 H 0.75637 0.95348 0.59507
 H415 H 0.77563 0.81458 0.65524
 H416 H 0.73130 0.86825 0.70383
 N417 N 0.21582 0.97188 0.43603
 N418 N 0.24173 0.99829 0.40834
 C419 C 0.25336 0.96746 0.37684
 C420 C 0.23667 0.92031 0.38493
 C421 C 0.21325 0.92499 0.42180
 H422 H 0.24124 0.88662 0.36681
 H423 H 0.20478 0.98540 0.46474
 H424 H 0.25620 1.03199 0.41605
 N425 N 0.14207 0.39819 0.76206
 N426 N 0.12219 0.36435 0.73926
 C427 C 0.07827 0.37272 0.74033
 C428 C 0.07005 0.41429 0.76546
 C429 C 0.11151 0.42883 0.77868
 H430 H 0.03892 0.43203 0.77292
 H431 H 0.17601 0.39880 0.76753
 H432 H 0.13882 0.33518 0.72426
 N433 N 0.10001 0.56111 0.28695
 N434 N 0.07299 0.59129 0.31136
 C435 C 0.04378 0.61519 0.28631
 C436 C 0.05144 0.59931 0.24529
 C437 C 0.08726 0.56653 0.24722
 H438 H 0.03596 0.61177 0.21700
 H439 H 0.12574 0.53880 0.29823
 H440 H 0.07492 0.59253 0.34380
 N441 N 0.86144 0.36545 0.20847
 N442 N 0.88089 0.33531 0.23536
 C443 C 0.92230 0.35120 0.24222
 C444 C 0.92922 0.39375 0.21874
 C445 C 0.89011 0.40091 0.19751
 H446 H 0.95766 0.41769 0.21863
 H447 H 0.82902 0.36178 0.19800
 H448 H 0.86573 0.30470 0.24898
 N449 N 0.97492 0.56583 0.79337
 N450 N 1.00344 0.59176 0.76808
 C451 C 0.97973 0.62390 0.74450
 C452 C 0.93488 0.61590 0.75203
 C453 C 0.93382 0.58022 0.78370
 H454 H 0.90696 0.63415 0.73742
 H455 H 0.98438 0.53755 0.81387
 H456 H 1.03662 0.58213 0.76492
 N457 N 0.75932 0.64723 0.85330
 N458 N 0.74127 0.68227 0.87688
 C459 C 0.74253 0.66756 0.91708
 C460 C 0.76194 0.62068 0.91879
 C461 C 0.77256 0.60967 0.87794
 H462 H 0.76781 0.59741 0.94566
 H463 H 0.76425 0.65019 0.82123
 H464 H 0.72970 0.71632 0.86546
 N465 N 0.17930 0.34683 0.89016
 N466 N 0.20087 0.30752 0.90988
 C467 C 0.22222 0.32615 0.94337
 C468 C 0.21522 0.37741 0.94528
 C469 C 0.18858 0.38842 0.91155
 H470 H 0.22936 0.40369 0.96701
 H471 H 0.16064 0.34403 0.86291
 H472 H 0.19886 0.27040 0.90041
 N473 N 0.26726 0.60713 0.14932
 N474 N 0.29177 0.64053 0.12594
 C475 C 0.26859 0.65165 0.09114
 C476 C 0.22783 0.62803 0.09336
 C477 C 0.22914 0.59933 0.12908
 H478 H 0.20122 0.62908 0.07096
 H479 H 0.27866 0.58877 0.17589
 H480 H 0.32451 0.64927 0.13244
 N481 N 0.82782 0.39071 0.01376
 N482 N 0.79805 0.36007 -0.00690
 C483 C 0.75912 0.36307 0.01326
 C484 C 0.76378 0.39460 0.04770
 C485 C 0.80686 0.41165 0.04640
 H486 H 0.73876 0.40509 0.07014
 H487 H 0.86043 0.39623 0.00469
 H488 H 0.80635 0.33662 -0.03173
 N489 N 0.98028 0.78580 0.56834
 N490 N 1.00875 0.75931 0.59389
 C491 C 0.98559 0.72440 0.61447
 C492 C 0.94108 0.72889 0.60227
 C493 C 0.93960 0.76789 0.57336
 H494 H 0.91325 0.70877 0.61441
 H495 H 0.98927 0.81675 0.55081
 H496 H 1.04033 0.77184 0.60046
 N497 N 0.89271 0.30526 0.43639
 N498 N 0.91374 0.32631 0.40523
 C499 C 0.93923 0.29179 0.38624
 C500 C 0.93396 0.24640 0.40609
 C501 C 0.90392 0.25665 0.43770
 H502 H 0.94736 0.21053 0.39695
 H503 H 0.86986 0.32367 0.45541
 H504 H 0.90933 0.36332 0.39615
 N505 N 0.04435 0.24595 0.55048
 N506 N 0.02191 0.27063 0.58203
 C507 C 0.04921 0.27400 0.61502
 C508 C 0.09048 0.25412 0.60453
 C509 C 0.08517 0.23551 0.56437
 H510 H 0.11874 0.24907 0.62473
 H511 H 0.03075 0.23605 0.52175
 H512 H -0.01018 0.28458 0.57936
 N513 N 0.02662 0.77981 0.45189
 N514 N -0.00086 0.75589 0.42718
 C515 C 0.02033 0.74365 0.39168
 C516 C 0.06370 0.75922 0.39465
 C517 C 0.06613 0.78222 0.43312
 H518 H 0.09005 0.75351 0.37242
 H519 H 0.01909 0.79141 0.48212
 H520 H -0.03242 0.74542 0.43605
 N521 N 0.53878 0.98733 0.76165
 N522 N 0.56787 1.00594 0.73562
 C523 C 0.60649 0.98112 0.74005
 C524 C 0.60096 0.94341 0.76901
 C525 C 0.55779 0.94944 0.78246
 H526 H 0.62503 0.91613 0.77935
 H527 H 0.50604 0.99941 0.76403
 H528 H 0.56111 1.03511 0.71510
 N529 N 0.38651 0.84207 0.25480
 N530 N 0.35377 0.86841 0.27623
 C531 C 0.36254 0.91760 0.27333
 C532 C 0.40177 0.92284 0.25122
 C533 C 0.41483 0.87538 0.23946
 H534 H 0.41976 0.95641 0.24478
 H535 H 0.38696 0.80361 0.24995
 H536 H 0.32585 0.85186 0.28881
 N537 N 0.53603 0.03627 0.25923
 N538 N 0.56076 0.01484 0.28801
 C539 C 0.60135 0.03464 0.28684
 C540 C 0.60212 0.07146 0.25636
 C541 C 0.55998 0.07074 0.23942
 H542 H 0.62953 0.09443 0.24727
 H543 H 0.50320 0.02730 0.25326
 H544 H 0.54984 -0.01292 0.30807
 N545 N 0.38179 0.14617 0.73406
 N546 N 0.35543 0.12063 0.70565
 C547 C 0.36565 0.07153 0.70783
 C548 C 0.39945 0.06570 0.73747
 C549 C 0.40804 0.11283 0.75328
 H550 H 0.41710 0.03213 0.74598
 H551 H 0.38007 0.18444 0.73972
 H552 H 0.33088 0.13790 0.68795
 N553 N 0.65477 0.83710 0.10015
 N554 N 0.68423 0.81840 0.07403
 C555 C 0.66525 0.78171 0.05194
 C556 C 0.62216 0.77582 0.06517
 C557 C 0.61692 0.81195 0.09560
 H558 H 0.59773 0.75044 0.05316
 H559 H 0.66054 0.86664 0.12061
 H560 H 0.71612 0.83190 0.07031
 N561 N 0.37816 0.14444 0.05728
 N562 N 0.34497 0.16370 0.03620
 C563 C 0.34629 0.21371 0.03915
 C564 C 0.38146 0.22693 0.06480
 C565 C 0.40119 0.18145 0.07493
 H566 H 0.39235 0.26391 0.07300
 H567 H 0.38464 0.10629 0.05973
 H568 H 0.32209 0.14262 0.01963
 N569 N 0.58936 0.15809 0.96300
 N570 N 0.61862 0.18307 0.98519
 C571 C 0.61884 0.23073 0.97218
 C572 C 0.58862 0.23602 0.94001
 C573 C 0.57066 0.18921 0.93513
 H574 H 0.58238 0.26875 0.92127
 H575 H 0.58359 0.12001 0.96598
 H576 H 0.63935 0.16713 1.00757
 N577 N 0.40354 0.72481 0.90560
 N578 N 0.37569 0.70535 0.93238
 C579 C 0.35792 0.74200 0.95599
 C580 C 0.37500 0.78717 0.94283
 C581 C 0.40425 0.77439 0.91144
 H582 H 0.36732 0.82438 0.95320
 H583 H 0.42253 0.70413 0.88452
 H584 H 0.36997 0.66723 0.93521
 N585 N 0.73369 0.96173 0.48191
 N586 N 0.71196 0.98979 0.45497
 C587 C 0.72022 0.97264 0.41625
 C588 C 0.74741 0.93081 0.41891
 C589 C 0.75490 0.92514 0.46105
 H590 H 0.76094 0.90869 0.39368
 H591 H 0.73455 0.96814 0.51400
 H592 H 0.69164 1.01986 0.46317
 N593 N 0.30773 0.88547 0.53471
 N594 N 0.32670 0.91999 0.55778
 C595 C 0.30769 0.92041 0.59555
 C596 C 0.27601 0.88380 0.59699
 C597 C 0.27585 0.86367 0.55718
 H598 H 0.25161 0.87866 0.62110
 H599 H 0.31281 0.88139 0.50271
 H600 H 0.34995 0.94515 0.54682
 N601 N 0.17768 0.08499 0.35145
 N602 N 0.20332 0.05754 0.32737
 C603 C 0.24555 0.06646 0.33733
 C604 C 0.24707 0.10314 0.36788
 C605 C 0.20309 0.11187 0.37739
 H606 H 0.27544 0.11374 0.38622
 H607 H 0.14348 0.08132 0.35295
 H608 H 0.19198 0.02944 0.30762
 N609 N 0.82590 0.03498 0.61695
 N610 N 0.80163 0.01343 0.64572
 C611 C 0.76069 0.03333 0.64435
 C612 C 0.75934 0.07038 0.61447
 C613 C 0.80112 0.06974 0.59753
 H614 H 0.73158 0.09370 0.60567
 H615 H 0.85905 0.02657 0.61134
 H616 H 0.81302 -0.01443 0.66575
 N617 N 0.95254 0.64255 0.17459
 N618 N 0.97146 0.66721 0.20532
 C619 C 0.95838 0.64775 0.24174
 C620 C 0.92811 0.61027 0.23396
 C621 C 0.92578 0.60795 0.19074
 H622 H 0.91158 0.58700 0.25634
 H623 H 0.95815 0.64922 0.14304
 H624 H 0.99374 0.69617 0.20131
 N625 N 0.96815 0.38071 0.82820
 N626 N 0.99574 0.35534 0.80413
 C627 C 0.98084 0.35753 0.76466
 C628 C 0.94161 0.38423 0.76369
 C629 C 0.93492 0.39869 0.80451
 H630 H 0.92175 0.39349 0.73673
 H631 H 0.97262 0.38636 0.86011
 H632 H 1.02435 0.33739 0.81457
 N633 N 0.06427 0.66197 0.83212
 N634 N 0.04352 0.68297 0.80050
 C635 C 0.06518 0.67122 0.76517
 C636 C 0.10265 0.64389 0.77498
 C637 C 0.09975 0.63699 0.81750
 H638 H 0.12313 0.62289 0.75348
 H639 H 0.05155 0.66021 0.86227
 H640 H 0.01257 0.70017 0.80266
 N641 N 0.03357 0.36575 0.16674
 N642 N 0.00820 0.33902 0.19136
 C643 C 0.02186 0.34520 0.23104
 C644 C 0.05851 0.37531 0.23135
 C645 C 0.06447 0.38796 0.19027
 H646 H 0.07607 0.38963 0.25814
 H647 H 0.02913 0.36941 0.13464
 H648 H -0.01869 0.31830 0.18114
   
