data_POSCAR
  _audit_creation_date              2014-09-24
  _audit_creation_method            'ToBaCCo'
  _symmetry_space_group_name_H-M    'P1'
  _symmetry_Int_Tables_number       1
  _symmetry_cell_setting            triclinic
  loop_
  _symmetry_equiv_pos_as_xyz
 x,y,z
_cell_length_a 35.9413
_cell_length_b 37.7315
_cell_length_c 35.9125
_cell_angle_alpha 90.000600
_cell_angle_beta 90.010600
_cell_angle_gamma 89.999400
loop_
  _atom_site_label
  _atom_site_type_symbol
  _atom_site_fract_x
  _atom_site_fract_y
  _atom_site_fract_z
Si1 Si 0.24994 0.24979 0.25005
 Si2 Si 0.75007 0.75013 0.24998
 Si3 Si 0.74992 0.25026 0.74995
 Si4 Si 0.25005 0.74992 0.75007
 C5 C 0.05243 0.05306 0.01267
 H6 H 0.05317 0.05462 -0.01740
 C7 C 0.07432 0.07596 0.03399
 H8 H 0.09212 0.09515 0.02036
 C9 C 0.02803 0.02646 0.06731
 H10 H 0.00956 0.00755 0.08023
 C11 C 0.04944 0.04887 0.08965
 H12 H 0.04769 0.04688 0.11970
 N13 N 0.03024 0.02864 0.02953
 C14 C 0.01492 -0.05510 -0.05296
 H15 H -0.01514 -0.05659 -0.05368
 C16 C 0.03614 -0.07797 -0.07496
 H17 H 0.02245 -0.09708 -0.09284
 C18 C 0.06960 -0.02868 -0.02850
 H19 H 0.08258 -0.00984 -0.00998
 C20 C 0.09185 -0.05107 -0.05004
 H21 H 0.12188 -0.04913 -0.04831
 Zn22 Zn 0.00105 -0.00104 -0.00141
 N23 N 0.03184 -0.03077 -0.03068
 C24 C -0.02616 0.02675 -0.06994
 N25 N -0.02812 0.02883 -0.03214
 C26 C -0.05016 0.05325 -0.01506
 C27 C -0.07216 0.07622 -0.03616
 C28 C -0.04771 0.04924 -0.09208
 C29 C -0.01294 -0.05523 0.04992
 C30 C -0.03421 -0.07801 0.07198
 C31 C -0.08986 -0.05083 0.04723
 C32 C -0.06756 -0.02855 0.02564
 N33 N -0.02981 -0.03080 0.02773
 H34 H -0.00783 0.00782 -0.08304
 H35 H -0.05072 0.05470 0.01502
 H36 H -0.08987 0.09538 -0.02235
 H37 H -0.04619 0.04730 -0.12214
 H38 H 0.01711 -0.05683 0.05058
 H39 H -0.02057 -0.09717 0.08983
 H40 H -0.11988 -0.04874 0.04562
 H41 H -0.08050 -0.00962 0.00719
 C42 C 0.07495 -0.07582 -0.07357
 C43 C 0.07288 0.07374 0.07282
 C44 C -0.07302 -0.07566 0.07071
 C45 C -0.07101 0.07408 -0.07501
 C46 C 0.05275 0.55514 0.51492
 H47 H 0.05344 0.55664 0.48484
 C48 C 0.07477 0.57800 0.53615
 H49 H 0.09262 0.59710 0.52245
 C50 C 0.02834 0.52873 0.56966
 H51 H 0.00984 0.50990 0.58265
 C52 C 0.04989 0.55110 0.59192
 H53 H 0.04819 0.54916 0.62197
 N54 N 0.03050 0.53081 0.53187
 C55 C 0.01489 0.44683 0.44975
 H56 H -0.01517 0.44539 0.44915
 C57 C 0.03598 0.42386 0.42774
 H58 H 0.02218 0.40472 0.40999
 C59 C 0.06972 0.47327 0.47386
 H60 H 0.08279 0.49218 0.49224
 C61 C 0.09184 0.45078 0.45231
 H62 H 0.12188 0.45270 0.45388
 Zn63 Zn 0.00124 0.50110 0.50104
 N64 N 0.03195 0.47122 0.47185
 C65 C -0.02576 0.52865 0.43236
 N66 N -0.02785 0.53088 0.47015
 C67 C -0.05000 0.55532 0.48704
 C68 C -0.07203 0.57812 0.46576
 C69 C -0.04732 0.55096 0.41005
 C70 C -0.01285 0.44700 0.55245
 C71 C -0.03417 0.42411 0.57434
 C72 C -0.08977 0.45121 0.54941
 C73 C -0.06743 0.47361 0.52799
 N74 N -0.02968 0.47143 0.53022
 H75 H -0.00734 0.50972 0.41941
 H76 H -0.05066 0.55691 0.51711
 H77 H -0.08984 0.59729 0.47942
 H78 H -0.04572 0.54888 0.38001
 H79 H 0.01719 0.44543 0.55320
 H80 H -0.02056 0.40491 0.59216
 H81 H -0.11979 0.45321 0.54763
 H82 H -0.08034 0.49253 0.50950
 C83 C 0.07479 0.42597 0.42895
 C84 C 0.07341 0.57584 0.57500
 C85 C -0.07297 0.42634 0.57287
 C86 C -0.07077 0.57579 0.42692
 C87 C 0.55008 0.05318 0.51495
 H88 H 0.55064 0.05464 0.48487
 C89 C 0.57208 0.07616 0.53605
 H90 H 0.58977 0.09533 0.52223
 C91 C 0.52612 0.02667 0.56983
 H92 H 0.50781 0.00772 0.58292
 C93 C 0.54765 0.04917 0.59196
 H94 H 0.54614 0.04723 0.62202
 N95 N 0.52806 0.02875 0.53203
 C96 C 0.51293 -0.05532 0.44995
 H97 H 0.48288 -0.05694 0.44929
 C98 C 0.53422 -0.07809 0.42789
 H99 H 0.52059 -0.09726 0.41005
 C100 C 0.56753 -0.02860 0.47424
 H101 H 0.58045 -0.00966 0.49269
 C102 C 0.58985 -0.05087 0.45265
 H103 H 0.61986 -0.04876 0.45427
 Zn104 Zn 0.49890 -0.00114 0.50130
 N105 N 0.52978 -0.03088 0.47215
 C106 C 0.47189 0.02635 0.43260
 N107 N 0.46969 0.02851 0.47038
 C108 C 0.44748 0.05293 0.48725
 C109 C 0.42558 0.07582 0.46594
 C110 C 0.45045 0.04875 0.41026
 C111 C 0.48509 -0.05521 0.55284
 C112 C 0.46390 -0.07809 0.57487
 C113 C 0.40815 -0.05122 0.54997
 C114 C 0.43038 -0.02883 0.52841
 N115 N 0.46814 -0.03089 0.53058
 H116 H 0.49036 0.00745 0.41966
 H117 H 0.44675 0.05447 0.51732
 H118 H 0.40778 0.09500 0.47958
 H119 H 0.45220 0.04676 0.38022
 H120 H 0.51515 -0.05668 0.55355
 H121 H 0.47761 -0.09718 0.59274
 H122 H 0.37812 -0.04930 0.54826
 H123 H 0.41737 -0.01000 0.50989
 C124 C 0.57302 -0.07571 0.42917
 C125 C 0.57093 0.07402 0.57490
 C126 C 0.42508 -0.07596 0.57350
 C127 C 0.42702 0.07360 0.42711
 C128 C 0.55004 0.55524 0.01307
 H129 H 0.55068 0.55683 -0.01700
 C130 C 0.57209 0.57804 0.03433
 H131 H 0.58990 0.59719 0.02066
 C132 C 0.52583 0.52858 0.06776
 H133 H 0.50741 0.50966 0.08073
 C134 C 0.54741 0.55089 0.09006
 H135 H 0.54582 0.54882 0.12010
 N136 N 0.52790 0.53080 0.02998
 C137 C 0.51281 0.44692 -0.05232
 H138 H 0.48276 0.44537 -0.05307
 C139 C 0.53410 0.42403 -0.07422
 H140 H 0.52048 0.40484 -0.09205
 C141 C 0.56741 0.47352 -0.02789
 H142 H 0.58033 0.49243 -0.00940
 C143 C 0.58973 0.45111 -0.04932
 H144 H 0.61975 0.45311 -0.04756
 Zn145 Zn 0.49877 0.50103 -0.00090
 N146 N 0.52966 0.47135 -0.03010
 C147 C 0.47166 0.52868 -0.06951
 N148 N 0.46952 0.53076 -0.03172
 C149 C 0.44730 0.55510 -0.01476
 C150 C 0.42528 0.57797 -0.03598
 C151 C 0.45011 0.55106 -0.09176
 C152 C 0.48511 0.44678 0.05039
 C153 C 0.46402 0.42382 0.07241
 C154 C 0.40816 0.45076 0.04786
 C155 C 0.43028 0.47324 0.02630
 N156 N 0.46805 0.47118 0.02830
 H157 H 0.49015 0.50983 -0.08251
 H158 H 0.44662 0.55660 0.01532
 H159 H 0.40745 0.59709 -0.02226
 H160 H 0.45179 0.54912 -0.12181
 H161 H 0.51517 0.44532 0.05098
 H162 H 0.47781 0.40467 0.09015
 H163 H 0.37812 0.45268 0.04630
 H164 H 0.41720 0.49215 0.00793
 C165 C 0.57291 0.42626 -0.07278
 C166 C 0.57086 0.57570 0.07317
 C167 C 0.42520 0.42594 0.07121
 C168 C 0.42661 0.57581 -0.07482
 C169 C 0.18032 -0.18203 -0.17970
 C170 C 0.18722 -0.18665 -0.13779
 C171 C 0.16570 -0.16520 -0.11614
 C172 C 0.13940 -0.14124 -0.13853
 C173 C 0.11688 -0.16661 -0.16320
 C174 C 0.13840 -0.18806 -0.18485
 C175 C 0.18624 -0.14237 -0.18716
 C176 C 0.16473 -0.12093 -0.16552
 C177 C 0.20351 -0.20502 -0.20303
 C178 C 0.22266 -0.22373 -0.22231
 C179 C 0.11629 -0.11808 -0.11526
 C180 C 0.09739 -0.09890 -0.09621
 H181 H 0.20724 -0.20514 -0.12615
 H182 H 0.16728 -0.16532 -0.08595
 H183 H 0.08669 -0.16764 -0.16364
 H184 H 0.12665 -0.20746 -0.20384
 H185 H 0.20562 -0.13204 -0.20766
 H186 H 0.16568 -0.09223 -0.16748
 C187 C 0.17914 0.31943 0.32221
 C188 C 0.18603 0.35908 0.31556
 C189 C 0.16476 0.38058 0.33737
 C190 C 0.13867 0.36034 0.36369
 C191 C 0.16417 0.33547 0.38590
 C192 C 0.18545 0.31396 0.36409
 C193 C 0.13715 0.31435 0.31647
 C194 C 0.11587 0.33586 0.33828
 C195 C 0.20209 0.29638 0.29870
 C196 C 0.22108 0.27763 0.27932
 C197 C 0.11580 0.38357 0.38711
 C198 C 0.09708 0.40282 0.40624
 H199 H 0.20589 0.36936 0.29550
 H200 H 0.16639 0.40928 0.33598
 H201 H 0.16539 0.33480 0.41610
 H202 H 0.20491 0.29487 0.37560
 H203 H 0.12519 0.29550 0.29700
 H204 H 0.08568 0.33544 0.33751
 C205 C 0.67879 -0.18076 0.32223
 C206 C 0.68504 -0.18632 0.36411
 C207 C 0.66345 -0.16512 0.38594
 C208 C 0.63771 -0.14045 0.36375
 C209 C 0.61528 -0.16508 0.33818
 C210 C 0.63688 -0.18628 0.31635
 C211 C 0.68523 -0.14102 0.31575
 C212 C 0.66363 -0.11983 0.33758
 C213 C 0.70204 -0.20351 0.29870
 C214 C 0.72119 -0.22209 0.27929
 C215 C 0.61451 -0.11756 0.38720
 C216 C 0.59553 -0.09858 0.40638
 H217 H 0.70471 -0.20523 0.37560
 H218 H 0.66460 -0.16588 0.41614
 H219 H 0.58509 -0.16582 0.33731
 H220 H 0.62520 -0.20518 0.29677
 H221 H 0.70501 -0.13046 0.29579
 H222 H 0.66491 -0.09111 0.33631
 C223 C 0.67861 0.31985 -0.17833
 C224 C 0.68490 0.31484 -0.13638
 C225 C 0.66332 0.33633 -0.11483
 C226 C 0.63757 0.36071 -0.13736
 C227 C 0.61511 0.33574 -0.16254
 C228 C 0.63669 0.31425 -0.18409
 C229 C 0.68504 0.35950 -0.18538
 C230 C 0.66347 0.38098 -0.16384
 C231 C 0.70185 0.29682 -0.20157
 C232 C 0.72101 0.27809 -0.22081
 C233 C 0.61438 0.38391 -0.11422
 C234 C 0.59542 0.40314 -0.09529
 H235 H 0.70458 0.29609 -0.12463
 H236 H 0.66450 0.33597 -0.08463
 H237 H 0.58493 0.33499 -0.16337
 H238 H 0.62500 0.29510 -0.20338
 H239 H 0.70481 0.36980 -0.20550
 H240 H 0.66476 0.40968 -0.16552
 C241 C -0.17786 0.18061 -0.17929
 C242 C -0.18390 0.18532 -0.13727
 C243 C -0.16205 0.16381 -0.11601
 C244 C -0.13632 0.13970 -0.13887
 C245 C -0.11417 0.16495 -0.16403
 C246 C -0.13602 0.18645 -0.18528
 C247 C -0.18411 0.14097 -0.18658
 C248 C -0.16227 0.11947 -0.16533
 C249 C -0.20139 0.20366 -0.20222
 C250 C -0.22079 0.22241 -0.22120
 C251 C -0.11287 0.11648 -0.11603
 C252 C -0.09372 0.09723 -0.09730
 H253 H -0.20360 0.20390 -0.12527
 H254 H -0.16303 0.16397 -0.08580
 H255 H -0.08399 0.16585 -0.16505
 H256 H -0.12456 0.20578 -0.20452
 H257 H -0.20395 0.13069 -0.20667
 H258 H -0.16340 0.09077 -0.16722
 C259 C -0.17768 0.68101 0.32127
 C260 C -0.18360 0.68639 0.36322
 C261 C -0.16178 0.66515 0.38480
 C262 C -0.13618 0.64062 0.36230
 C263 C -0.11401 0.66540 0.33666
 C264 C -0.13584 0.68663 0.31508
 C265 C -0.18408 0.64128 0.31468
 C266 C -0.16227 0.62005 0.33625
 C267 C -0.20121 0.70379 0.29803
 C268 C -0.22061 0.72237 0.27889
 C269 C -0.11273 0.61770 0.38547
 C270 C -0.09355 0.59869 0.40443
 H271 H -0.20320 0.70523 0.37495
 H272 H -0.16268 0.66579 0.41501
 H273 H -0.08384 0.66618 0.33554
 H274 H -0.12436 0.70562 0.29548
 H275 H -0.20399 0.63075 0.29481
 H276 H -0.16349 0.59133 0.33486
 C277 C 0.32154 0.18012 0.32143
 C278 C 0.31545 0.18535 0.36338
 C279 C 0.33698 0.16384 0.38495
 C280 C 0.36248 0.13921 0.36244
 C281 C 0.38499 0.16393 0.33705
 C282 C 0.36346 0.18545 0.31548
 C283 C 0.31482 0.14047 0.31460
 C284 C 0.33635 0.11897 0.33616
 C285 C 0.29832 0.20318 0.29818
 C286 C 0.27911 0.22193 0.27901
 C287 C 0.38561 0.11598 0.38562
 C288 C 0.40452 0.09674 0.40458
 H289 H 0.29595 0.20428 0.37511
 H290 H 0.33594 0.16434 0.41516
 H291 H 0.41518 0.16450 0.33609
 H292 H 0.37519 0.20444 0.29604
 H293 H 0.29492 0.13019 0.29458
 H294 H 0.33489 0.09027 0.33461
 C295 C 0.32032 0.68192 -0.18016
 C296 C 0.36126 0.68098 -0.19232
 C297 C 0.38292 0.65954 -0.17081
 C298 C 0.36154 0.64115 -0.13925
 C299 C 0.32945 0.62160 -0.15860
 C300 C 0.30779 0.64303 -0.18010
 C301 C 0.32124 0.69276 -0.13897
 C302 C 0.34291 0.67132 -0.11746
 C303 C 0.29696 0.70490 -0.20335
 C304 C 0.27766 0.72360 -0.22250
 C305 C 0.38483 0.61801 -0.11615
 C306 C 0.40392 0.59885 -0.09726
 H307 H 0.37226 0.69585 -0.21574
 H308 H 0.41249 0.65604 -0.17581
 H309 H 0.32420 0.59340 -0.15567
 H310 H 0.28399 0.63319 -0.19560
 H311 H 0.30621 0.71530 -0.12770
 H312 H 0.34644 0.67548 -0.08775
 C313 C -0.17869 -0.18075 0.17770
 C314 C -0.13678 -0.18613 0.18369
 C315 C -0.11520 -0.16492 0.16185
 C316 C -0.13766 -0.14043 0.13616
 C317 C -0.16371 -0.11982 0.16220
 C318 C -0.18528 -0.14102 0.18404
 C319 C -0.18483 -0.18644 0.13582
 C320 C -0.16326 -0.16523 0.11397
 C321 C -0.20193 -0.20351 0.20124
 C322 C -0.22106 -0.22209 0.22065
 C323 C -0.11447 -0.11753 0.11269
 C324 C -0.09551 -0.09854 0.09350
 H325 H -0.12508 -0.20493 0.20335
 H326 H -0.08502 -0.16556 0.16279
 H327 H -0.16510 -0.09109 0.16338
 H328 H -0.20515 -0.13046 0.20393
 H329 H -0.20440 -0.20545 0.12434
 H330 H -0.16433 -0.16608 0.08377
 C331 C -0.17875 0.31989 0.67830
 C332 C -0.13684 0.31445 0.68424
 C333 C -0.11525 0.33595 0.66271
 C334 C -0.13770 0.36078 0.63737
 C335 C -0.16377 0.38104 0.66369
 C336 C -0.18535 0.35954 0.68520
 C337 C -0.18486 0.31476 0.63634
 C338 C -0.16327 0.33626 0.61481
 C339 C -0.20200 0.29685 0.70151
 C340 C -0.22116 0.27811 0.72074
 C341 C -0.11449 0.38399 0.61426
 C342 C -0.09551 0.40322 0.59535
 H343 H -0.12515 0.29539 0.70363
 H344 H -0.08507 0.33530 0.66366
 H345 H -0.16517 0.40974 0.66528
 H346 H -0.20523 0.36984 0.70523
 H347 H -0.20442 0.29590 0.62457
 H348 H -0.16434 0.33582 0.58460
 C349 C 0.31978 -0.18210 0.67976
 C350 C 0.36171 -0.18800 0.68505
 C351 C 0.38321 -0.16657 0.66337
 C352 C 0.36067 -0.14134 0.63853
 C353 C 0.33521 -0.12101 0.66539
 C354 C 0.31372 -0.14243 0.68706
 C355 C 0.31300 -0.18689 0.63786
 C356 C 0.33450 -0.16546 0.61618
 C357 C 0.29660 -0.20507 0.70313
 C358 C 0.27745 -0.22377 0.72243
 C359 C 0.38378 -0.11820 0.61524
 C360 C 0.40267 -0.09903 0.59617
 H361 H 0.37347 -0.20731 0.70413
 H362 H 0.41340 -0.16752 0.66387
 H363 H 0.33417 -0.09231 0.66723
 H364 H 0.29426 -0.13209 0.70747
 H365 H 0.29308 -0.20549 0.62624
 H366 H 0.33300 -0.16569 0.58599
 C367 C 0.32079 0.31943 0.17793
 C368 C 0.36278 0.31434 0.18369
 C369 C 0.38407 0.33585 0.16189
 C370 C 0.36129 0.36033 0.13646
 C371 C 0.33518 0.38057 0.16276
 C372 C 0.31390 0.35908 0.18456
 C373 C 0.31451 0.31395 0.13604
 C374 C 0.33580 0.33545 0.11424
 C375 C 0.29783 0.29638 0.20143
 C376 C 0.27882 0.27763 0.22080
 C377 C 0.38417 0.38355 0.11305
 C378 C 0.40291 0.40280 0.09392
 H379 H 0.37472 0.29550 0.20317
 H380 H 0.41427 0.33543 0.16268
 H381 H 0.33356 0.40928 0.16414
 H382 H 0.29404 0.36936 0.20461
 H383 H 0.29505 0.29485 0.12453
 H384 H 0.33459 0.33478 0.08404
 C385 C 0.17834 0.18019 0.17860
 C386 C 0.18437 0.18551 0.13665
 C387 C 0.16283 0.16401 0.11507
 C388 C 0.13739 0.13931 0.13754
 C389 C 0.11489 0.16396 0.16303
 C390 C 0.13642 0.18546 0.18461
 C391 C 0.18511 0.14054 0.18533
 C392 C 0.16358 0.11905 0.16375
 C393 C 0.20156 0.20322 0.20187
 C394 C 0.22077 0.22196 0.22106
 C395 C 0.11427 0.11610 0.11435
 C396 C 0.09536 0.09687 0.09536
 H397 H 0.20383 0.20448 0.12494
 H398 H 0.16384 0.16458 0.08486
 H399 H 0.08470 0.16449 0.16403
 H400 H 0.12469 0.20439 0.20411
 H401 H 0.20506 0.13024 0.20530
 H402 H 0.16509 0.09035 0.16523
 C403 C 0.17973 0.68192 0.68035
 C404 C 0.18490 0.68788 0.63838
 C405 C 0.16322 0.66645 0.61687
 C406 C 0.13850 0.64116 0.63945
 C407 C 0.11619 0.66521 0.66572
 C408 C 0.13787 0.68664 0.68723
 C409 C 0.18710 0.64226 0.68634
 C410 C 0.16543 0.62083 0.66484
 C411 C 0.20311 0.70490 0.70353
 C412 C 0.22241 0.72360 0.72266
 C413 C 0.11519 0.61802 0.61634
 C414 C 0.09611 0.59887 0.59744
 H415 H 0.20389 0.70724 0.62660
 H416 H 0.16365 0.66743 0.58666
 H417 H 0.08603 0.66539 0.66729
 H418 H 0.12628 0.70519 0.70722
 H419 H 0.20755 0.63191 0.70576
 H420 H 0.16732 0.59213 0.66584
 C421 C 0.67773 0.18060 0.67917
 C422 C 0.68186 0.18705 0.63717
 C423 C 0.66003 0.16553 0.61592
 C424 C 0.63621 0.13968 0.63875
 C425 C 0.61414 0.16315 0.66579
 C426 C 0.63597 0.18467 0.68705
 C427 C 0.68584 0.14099 0.68455
 C428 C 0.66401 0.11948 0.66330
 C429 C 0.70126 0.20366 0.70210
 C430 C 0.72065 0.22242 0.72109
 C431 C 0.61277 0.11644 0.61591
 C432 C 0.59363 0.09718 0.59719
 H433 H 0.70030 0.20678 0.62519
 H434 H 0.65976 0.16683 0.58572
 H435 H 0.58402 0.16289 0.66805
 H436 H 0.62456 0.20284 0.70751
 H437 H 0.70687 0.13074 0.70340
 H438 H 0.66634 0.09080 0.66395
 C439 C 0.67782 0.68095 0.17875
 C440 C 0.63598 0.68654 0.18499
 C441 C 0.61415 0.66529 0.16344
 C442 C 0.63630 0.64055 0.13775
 C443 C 0.66245 0.61999 0.16375
 C444 C 0.68428 0.64123 0.18530
 C445 C 0.68368 0.68636 0.13679
 C446 C 0.66185 0.66512 0.11523
 C447 C 0.70136 0.70374 0.20196
 C448 C 0.72076 0.72234 0.22110
 C449 C 0.61284 0.61762 0.11460
 C450 C 0.59365 0.59860 0.09565
 H451 H 0.62451 0.70551 0.20462
 H452 H 0.58397 0.66606 0.16459
 H453 H 0.66371 0.59127 0.16511
 H454 H 0.70423 0.63070 0.20513
 H455 H 0.70325 0.70522 0.12505
 H456 H 0.66271 0.66577 0.08502
   
