data_POSCAR
  _audit_creation_date              2014-09-24
  _audit_creation_method            'ToBaCCo'
  _symmetry_space_group_name_H-M    'P1'
  _symmetry_Int_Tables_number       1
  _symmetry_cell_setting            triclinic
  loop_
  _symmetry_equiv_pos_as_xyz
 x,y,z
_cell_length_a 20.6469
_cell_length_b 29.0500
_cell_length_c 20.5431
_cell_angle_alpha 90.024600
_cell_angle_beta 90.104400
_cell_angle_gamma 90.011900
loop_
  _atom_site_label
  _atom_site_type_symbol
  _atom_site_fract_x
  _atom_site_fract_y
  _atom_site_fract_z
Si1 Si 1.24993 0.24989 0.25358
 Si2 Si 0.75164 -0.25010 0.24726
 Si3 Si 0.74951 0.25045 -0.24674
 Si4 Si 1.25188 -0.24967 -0.25305
 Si5 Si 0.24907 0.24955 0.74792
 Si6 Si 0.75175 0.74943 0.75107
 Si7 Si 0.74871 0.24981 0.24833
 Si8 Si 0.25159 0.75007 0.25074
 O9 O 1.09876 -0.06528 0.13382
 O10 O 1.05176 -0.11615 0.06240
 C11 C 1.08690 -0.10677 0.11323
 O12 O 0.86946 0.06332 0.09634
 O13 O 0.93965 0.11482 0.04956
 C14 C 0.88912 0.10496 0.08432
 O15 O 0.87500 -0.06537 0.10137
 O16 O 0.94303 -0.11598 0.04943
 C17 C 0.89464 -0.10662 0.08731
 O18 O 1.10399 0.06335 0.13052
 O19 O 1.05224 0.11457 0.06309
 C20 C 1.09050 0.10479 0.11122
 Zr21 Zr 1.07267 -0.00072 0.09336
 O22 O 1.05821 0.00278 0.19523
 O23 O 1.17412 -0.00525 0.10707
 Zr24 Zr 0.91137 -0.00094 0.07122
 O25 O 0.90583 0.00045 0.17394
 O26 O 0.80947 -0.00534 0.06225
 O27 O 0.99059 -0.04228 0.09430
 O28 O 0.99011 0.03948 0.09447
 O29 O 1.13409 0.06542 -0.09453
 O30 O 1.06373 0.11590 -0.04575
 C31 C 1.11381 0.10670 -0.08154
 O32 O 0.90727 -0.06469 -0.13268
 O33 O 0.95626 -0.11572 -0.06306
 C34 C 0.92025 -0.10617 -0.11304
 O35 O 0.90081 0.06392 -0.12777
 O36 O 0.95141 0.11484 -0.05906
 C37 C 0.91341 0.10530 -0.10752
 O38 O 1.13107 -0.06293 -0.10225
 O39 O 1.06505 -0.11491 -0.05077
 C40 C 1.11261 -0.10461 -0.08932
 Zr41 Zr 1.09471 0.00067 -0.06906
 O42 O 1.10906 0.00619 -0.17077
 O43 O 1.19601 -0.00379 -0.05383
 Zr44 Zr 0.93296 -0.00034 -0.09156
 O45 O 0.94665 0.00499 -0.19342
 O46 O 0.83145 -0.00563 -0.10462
 Zr47 Zr 1.00366 -0.06936 0.00005
 Zr48 Zr 1.00221 0.06866 0.00156
 O49 O 1.01491 0.04031 -0.09183
 O50 O 1.01602 -0.04099 -0.09360
 O51 O 1.09596 0.04128 0.01438
 O52 O 0.91072 -0.04073 -0.01212
 O53 O 1.09601 -0.04011 0.01319
 O54 O 0.90896 0.04044 -0.01156
 H55 H 0.98492 0.06003 0.13261
 H56 H 0.87275 -0.06127 -0.01740
 H57 H 1.01961 0.06106 -0.12980
 H58 H 1.13405 -0.06061 0.01807
 H59 H 0.79655 0.01570 0.02673
 H60 H 0.81121 0.02101 -0.08261
 H61 H 0.97430 -0.02106 -0.20708
 H62 H 1.08363 -0.01856 -0.19179
 H63 H 1.20924 0.02306 -0.02732
 H64 H 1.19419 0.02047 0.08288
 H65 H 1.02467 -0.02022 0.20645
 H66 H 0.85906 0.00043 0.18467
 O67 O 0.90225 0.43597 0.36638
 O68 O 0.95014 0.38492 0.43689
 C69 C 0.91459 0.39451 0.38653
 O70 O 1.13298 0.56398 0.40158
 O71 O 1.06360 0.61563 0.44938
 C72 C 1.11359 0.60574 0.41370
 O73 O 1.12686 0.43478 0.39786
 O74 O 1.05828 0.38458 0.44991
 C75 C 1.10659 0.39364 0.41192
 O76 O 0.89845 0.56435 0.36958
 O77 O 0.95125 0.61549 0.43634
 C78 C 0.91255 0.60575 0.38857
 Zr79 Zr 0.93048 0.50030 0.40569
 O80 O 0.95390 0.50034 0.30558
 O81 O 0.83013 0.50224 0.38413
 Zr82 Zr 1.09181 0.49961 0.42864
 O83 O 1.10545 0.50280 0.32662
 O84 O 1.19303 0.49437 0.44366
 O85 O 1.01213 0.45853 0.40509
 O86 O 1.01314 0.54019 0.40485
 O87 O 0.86774 0.56639 0.59231
 O88 O 0.93934 0.61672 0.54507
 C89 C 0.88854 0.60762 0.57993
 O90 O 1.09349 0.43578 0.63297
 O91 O 1.04518 0.38493 0.56246
 C92 C 1.08073 0.39433 0.61286
 O93 O 1.10131 0.56424 0.62773
 O94 O 1.05160 0.61534 0.55862
 C95 C 1.08902 0.60563 0.60743
 O96 O 0.87072 0.43824 0.60172
 O97 O 0.93634 0.38604 0.55019
 C98 C 0.88890 0.39643 0.58893
 Zr99 Zr 0.90789 0.50165 0.56833
 O100 O 0.89991 0.50466 0.67082
 O101 O 0.80619 0.49892 0.55596
 Zr102 Zr 1.06922 0.50016 0.59112
 O103 O 1.05527 0.50455 0.69296
 O104 O 1.17065 0.49447 0.60432
 Zr105 Zr 0.99828 0.43140 0.49925
 Zr106 Zr 1.00094 0.56944 0.49772
 O107 O 0.98762 0.54127 0.59111
 O108 O 0.98599 0.45974 0.59276
 O109 O 0.90721 0.54209 0.48479
 O110 O 1.09149 0.45964 0.51181
 O111 O 0.90638 0.46091 0.48597
 O112 O 1.09397 0.54105 0.51136
 H113 H 1.01832 0.56067 0.36666
 H114 H 1.12907 0.43879 0.51731
 H115 H 0.98275 0.56208 0.62901
 H116 H 0.86845 0.44025 0.48175
 H117 H 1.20630 0.52061 0.47133
 H118 H 1.19111 0.52088 0.58200
 H119 H 1.01825 0.48435 0.70385
 H120 H 0.85292 0.50526 0.68051
 H121 H 0.79536 0.51942 0.51905
 H122 H 0.80738 0.48305 0.41654
 H123 H 0.91209 0.50173 0.28189
 H124 H 1.07606 0.47984 0.30668
 O125 O 0.59728 -0.06540 0.63278
 O126 O 0.55040 -0.11625 0.56121
 C127 C 0.58517 -0.10681 0.61220
 O128 O 0.36856 0.06311 0.59391
 O129 O 0.43968 0.11450 0.54823
 C130 C 0.38878 0.10473 0.58255
 O131 O 0.37484 -0.06617 0.59883
 O132 O 0.44337 -0.11689 0.54746
 C133 C 0.39491 -0.10747 0.58515
 O134 O 0.60363 0.06312 0.62939
 O135 O 0.55248 0.11426 0.56153
 C136 C 0.59055 0.10458 0.60988
 Zr137 Zr 0.57243 -0.00094 0.59185
 O138 O 0.55948 0.00281 0.69390
 O139 O 0.67407 -0.00596 0.60415
 Zr140 Zr 0.41111 -0.00112 0.57005
 O141 O 0.40763 -0.00010 0.67282
 O142 O 0.30883 -0.00275 0.56584
 O143 O 0.49015 -0.04238 0.59310
 O144 O 0.48994 0.03931 0.59314
 O145 O 0.63451 0.06464 0.40456
 O146 O 0.56384 0.11522 0.45277
 C147 C 0.61416 0.10596 0.41739
 O148 O 0.40596 -0.06503 0.36581
 O149 O 0.45465 -0.11597 0.43569
 C150 C 0.41848 -0.10655 0.38568
 O151 O 0.40085 0.06361 0.37083
 O152 O 0.45177 0.11440 0.43950
 C153 C 0.41377 0.10492 0.39110
 O154 O 0.63146 -0.06390 0.39745
 O155 O 0.56410 -0.11530 0.44835
 C156 C 0.61223 -0.10540 0.41039
 Zr157 Zr 0.59433 -0.00008 0.42924
 O158 O 0.60626 0.00535 0.32714
 O159 O 0.69586 -0.00447 0.44224
 Zr160 Zr 0.43256 -0.00073 0.40692
 O161 O 0.44690 0.00435 0.30515
 O162 O 0.33105 -0.00515 0.39317
 Zr163 Zr 0.50278 -0.06955 0.49876
 Zr164 Zr 0.50213 0.06825 0.50011
 O165 O 0.51470 0.03981 0.40669
 O166 O 0.51539 -0.04165 0.40495
 O167 O 0.59587 0.04073 0.51267
 O168 O 0.40996 -0.04087 0.48658
 O169 O 0.59539 -0.04060 0.51178
 O170 O 0.40878 0.04003 0.48703
 H171 H 0.48478 0.05994 0.63121
 H172 H 0.37212 -0.06149 0.48117
 H173 H 0.51960 0.06061 0.36880
 H174 H 0.63335 -0.06117 0.51682
 H175 H 0.29693 -0.00687 0.51964
 H176 H 0.31106 0.02098 0.41665
 H177 H 0.47521 -0.02147 0.29197
 H178 H 0.58518 -0.02171 0.30694
 H179 H 0.70859 0.01997 0.47326
 H180 H 0.69392 0.02138 0.58355
 H181 H 0.52489 -0.01930 0.70544
 H182 H 0.36110 -0.00001 0.68447
 O183 O 0.59153 0.43529 0.13432
 O184 O 0.54313 0.38457 0.06363
 C185 C 0.57874 0.39389 0.11404
 O186 O 0.36593 0.56645 0.09605
 O187 O 0.43694 0.61675 0.04791
 C188 C 0.38661 0.60775 0.08354
 O189 O 0.36890 0.43801 0.10375
 O190 O 0.43426 0.38600 0.05144
 C191 C 0.38698 0.39629 0.09029
 O192 O 0.60047 0.56375 0.12916
 O193 O 0.54973 0.61508 0.06109
 C194 C 0.58790 0.60520 0.10925
 Zr195 Zr 0.56752 0.49987 0.09285
 O196 O 0.55652 0.50360 0.19511
 O197 O 0.66956 0.49704 0.10018
 Zr198 Zr 0.40607 0.50162 0.07133
 O199 O 0.40076 0.50404 0.17402
 O200 O 0.30409 0.49845 0.06220
 O201 O 0.48427 0.45948 0.09479
 O202 O 0.48601 0.54111 0.09370
 O203 O 0.63132 0.56353 -0.09473
 O204 O 0.56156 0.61529 -0.04766
 C205 C 0.61188 0.60524 -0.08272
 O206 O 0.40109 0.43616 -0.13237
 O207 O 0.44776 0.38502 -0.06128
 C208 C 0.41292 0.39466 -0.11206
 O209 O 0.39738 0.56476 -0.12886
 O210 O 0.44923 0.61569 -0.06106
 C211 C 0.41118 0.60611 -0.10944
 O212 O 0.62511 0.43476 -0.09986
 O213 O 0.55592 0.38450 -0.04895
 C214 C 0.60457 0.39359 -0.08656
 Zr215 Zr 0.58907 0.49948 -0.06954
 O216 O 0.60092 0.50384 -0.17176
 O217 O 0.69054 0.49496 -0.05642
 Zr218 Zr 0.42723 0.50049 -0.09146
 O219 O 0.43917 0.50479 -0.19359
 O220 O 0.32542 0.49619 -0.10312
 Zr221 Zr 0.49607 0.43137 0.00099
 Zr222 Zr 0.49854 0.56937 0.00036
 O223 O 0.51036 0.54005 -0.09263
 O224 O 0.50919 0.45873 -0.09314
 O225 O 0.59149 0.54082 0.01323
 O226 O 0.40391 0.46107 -0.01133
 O227 O 0.58931 0.45934 0.01343
 O228 O 0.40455 0.54233 -0.01212
 H229 H 0.48155 0.56194 0.13164
 H230 H 0.36559 0.44080 -0.01616
 H231 H 0.51582 0.56047 -0.13086
 H232 H 0.62694 0.43850 0.01872
 H233 H 0.29188 0.51927 0.02617
 H234 H 0.30618 0.52425 -0.08391
 H235 H 0.47048 0.48069 -0.20639
 H236 H 0.58014 0.47644 -0.19134
 H237 H 0.70187 0.51516 -0.01931
 H238 H 0.67964 0.49643 0.14736
 H239 H 0.51877 0.48425 0.20653
 H240 H 0.35406 0.50525 0.18491
 C241 C 1.16978 0.17235 0.24566
 C242 C 1.19283 0.21077 0.21179
 C243 C 1.17738 0.21644 0.14584
 C244 C 1.14106 0.18286 0.11342
 C245 C 1.12129 0.14296 0.14649
 C246 C 1.13489 0.13838 0.21309
 H247 H 1.18118 0.16761 0.29672
 H248 H 1.19475 0.24599 0.11897
 H249 H 1.13116 0.18696 0.06193
 H250 H 1.11955 0.10808 0.23966
 C251 C 1.16825 0.67425 0.74110
 C252 C 1.19241 0.71203 0.70646
 C253 C 1.17794 0.71664 0.64006
 C254 C 1.14124 0.68302 0.60825
 C255 C 1.12022 0.64387 0.64220
 C256 C 1.13297 0.64015 0.70908
 H257 H 1.17942 0.66991 0.79226
 H258 H 1.19665 0.74516 0.61206
 H259 H 1.13218 0.68642 0.55650
 H260 H 1.11675 0.61036 0.73626
 C261 C 0.67789 0.21634 0.64478
 C262 C 0.69271 0.21099 0.71095
 C263 C 0.66929 0.17260 0.74475
 C264 C 0.63464 0.13849 0.71201
 C265 C 0.62149 0.14284 0.64524
 C266 C 0.64176 0.18265 0.61219
 H267 H 0.69555 0.24580 0.61789
 H268 H 0.68019 0.16803 0.79595
 H269 H 0.61902 0.10830 0.73865
 H270 H 0.63232 0.18662 0.56061
 C271 C 0.67794 0.71589 0.14072
 C272 C 0.69264 0.71132 0.20702
 C273 C 0.66857 0.67367 0.24199
 C274 C 0.63293 0.63962 0.21037
 C275 C 0.61974 0.64332 0.14358
 C276 C 0.64087 0.68230 0.10928
 H277 H 0.69666 0.74444 0.11269
 H278 H 0.67991 0.66951 0.29316
 H279 H 0.61672 0.60994 0.23778
 H280 H 0.63152 0.68559 0.05757
 C281 C 0.75946 -0.17501 0.16212
 C282 C 0.79327 -0.21260 0.18785
 C283 C 0.85954 -0.21769 0.17488
 C284 C 0.89226 -0.18428 0.13873
 C285 C 0.85919 -0.14503 0.11679
 C286 C 0.79234 -0.14113 0.12747
 H287 H 0.70828 -0.17059 0.17180
 H288 H 0.88663 -0.24635 0.19456
 H289 H 0.94395 -0.18777 0.13113
 H290 H 0.76587 -0.11128 0.11040
 C291 C 0.76004 0.33412 0.68485
 C292 C 0.78866 0.29102 0.69520
 C293 C 0.84817 0.28101 0.66558
 C294 C 0.87996 0.31459 0.62840
 C295 C 0.85302 0.35881 0.62144
 C296 C 0.79213 0.36782 0.64908
 H297 H 0.71365 0.34250 0.70625
 H298 H 0.87082 0.24781 0.67234
 H299 H 0.92661 0.30654 0.60726
 H300 H 0.76961 0.40131 0.64410
 C301 C 0.25999 -0.17739 0.65693
 C302 C 0.29448 -0.21302 0.68710
 C303 C 0.36165 -0.21635 0.67836
 C304 C 0.39434 -0.18314 0.64182
 C305 C 0.36015 -0.14591 0.61506
 C306 C 0.29269 -0.14380 0.62157
 H307 H 0.20815 -0.17422 0.66356
 H308 H 0.38931 -0.24325 0.70189
 H309 H 0.44659 -0.18504 0.63763
 H310 H 0.26556 -0.11551 0.60065
 C311 C 0.34751 0.28069 0.16568
 C312 C 0.28802 0.29041 0.19537
 C313 C 0.25869 0.33327 0.18515
 C314 C 0.29034 0.36720 0.14961
 C315 C 0.35132 0.35852 0.12212
 C316 C 0.37878 0.31445 0.12864
 H317 H 0.37062 0.24762 0.17235
 H318 H 0.21223 0.34133 0.20665
 H319 H 0.26751 0.40059 0.14483
 H320 H 0.42551 0.30672 0.10740
 C321 C 0.83439 0.17476 -0.24082
 C322 C 0.80922 0.21212 -0.20588
 C323 C 0.82271 0.21607 -0.13914
 C324 C 0.85964 0.18240 -0.10750
 C325 C 0.88182 0.14372 -0.14191
 C326 C 0.86978 0.14056 -0.20900
 H327 H 0.82387 0.17076 -0.29219
 H328 H 0.80304 0.24410 -0.11078
 H329 H 0.86797 0.18534 -0.05557
 H330 H 0.88670 0.11114 -0.23655
 C331 C 0.82502 0.71697 0.35450
 C332 C 0.80986 0.71144 0.28845
 C333 C 0.83345 0.67327 0.25432
 C334 C 0.86861 0.63942 0.28674
 C335 C 0.88185 0.64388 0.35343
 C336 C 0.86157 0.68352 0.38676
 H337 H 0.80708 0.74621 0.38164
 H338 H 0.82217 0.66859 0.20321
 H339 H 0.88435 0.60927 0.26004
 H340 H 0.87113 0.68745 0.43834
 C341 C 0.32404 0.21582 0.36019
 C342 C 0.31007 0.21181 0.29359
 C343 C 0.33491 0.17450 0.25833
 C344 C 0.37031 0.14026 0.28986
 C345 C 0.38257 0.14338 0.35688
 C346 C 0.36092 0.18208 0.39152
 H347 H 0.30469 0.24389 0.38869
 H348 H 0.32403 0.17055 0.20703
 H349 H 0.38692 0.11080 0.26219
 H350 H 0.36952 0.18495 0.44340
 C351 C 0.32437 0.71755 -0.14490
 C352 C 0.30930 0.71169 -0.21093
 C353 C 0.33288 0.67332 -0.24459
 C354 C 0.36787 0.63958 -0.21173
 C355 C 0.38099 0.64432 -0.14503
 C356 C 0.36076 0.68419 -0.11217
 H357 H 0.30656 0.74705 -0.11818
 H358 H 0.32175 0.66842 -0.29568
 H359 H 0.38351 0.60928 -0.23810
 H360 H 0.37022 0.68837 -0.06062
 C361 C 1.24254 -0.16734 -0.18237
 C362 C 1.21270 -0.20969 -0.19494
 C363 C 1.15194 -0.21922 -0.16776
 C364 C 1.12013 -0.18578 -0.13057
 C365 C 1.14838 -0.14221 -0.12141
 C366 C 1.21043 -0.13371 -0.14664
 H367 H 1.28978 -0.15944 -0.20226
 H368 H 1.12838 -0.25190 -0.17648
 H369 H 1.07249 -0.19329 -0.11133
 H370 H 1.23379 -0.10065 -0.13989
 C371 C 1.24160 0.32179 0.34422
 C372 C 1.20706 0.28640 0.31346
 C373 C 1.13961 0.28390 0.32045
 C374 C 1.10676 0.31779 0.35560
 C375 C 1.14112 0.35484 0.38269
 C376 C 1.20878 0.35607 0.37814
 H377 H 1.29365 0.32440 0.33879
 H378 H 1.11193 0.25726 0.29629
 H379 H 1.05438 0.31654 0.35842
 H380 H 1.23600 0.38419 0.39945
 C381 C 0.64784 -0.21828 0.32642
 C382 C 0.71177 -0.21101 0.30601
 C383 C 0.74446 -0.17099 0.32506
 C384 C 0.71243 -0.13718 0.36065
 C385 C 0.64760 -0.14340 0.37914
 C386 C 0.61611 -0.18486 0.36359
 H387 H 0.62180 -0.24901 0.31231
 H388 H 0.79392 -0.16486 0.30984
 H389 H 0.73796 -0.10569 0.37254
 H390 H 0.56612 -0.19045 0.37744
 C391 C 0.63835 0.28455 -0.18032
 C392 C 0.70586 0.28712 -0.18709
 C393 C 0.74010 0.32235 -0.15558
 C394 C 0.70704 0.35624 -0.12094
 C395 C 0.63933 0.35488 -0.11635
 C396 C 0.60525 0.31805 -0.14445
 H397 H 0.61084 0.25806 -0.20501
 H398 H 0.79216 0.32506 -0.16072
 H399 H 0.73416 0.38417 -0.09901
 H400 H 0.55287 0.31666 -0.14178
 C401 C 1.14476 0.21677 -0.17401
 C402 C 1.20998 0.21127 -0.19126
 C403 C 1.24497 0.17381 -0.16663
 C404 C 1.21428 0.14077 -0.12824
 C405 C 1.14832 0.14514 -0.11293
 C406 C 1.11423 0.18413 -0.13447
 H407 H 1.11671 0.24532 -0.19267
 H408 H 1.29539 0.16903 -0.17944
 H409 H 1.24160 0.11107 -0.11205
 H410 H 1.06313 0.18799 -0.12390
 C411 C 1.24726 0.67424 0.33172
 C412 C 1.21327 0.71263 0.30772
 C413 C 1.14744 0.71741 0.32382
 C414 C 1.11590 0.68380 0.36120
 C415 C 1.14908 0.64416 0.38199
 C416 C 1.21537 0.64012 0.36771
 H417 H 1.29801 0.66947 0.32018
 H418 H 1.11940 0.74624 0.30605
 H419 H 1.06466 0.68768 0.37101
 H420 H 1.24231 0.61011 0.38341
 C421 C 0.64490 0.21663 0.32650
 C422 C 0.71011 0.21135 0.30915
 C423 C 0.74526 0.17377 0.33323
 C424 C 0.71469 0.14034 0.37105
 C425 C 0.64874 0.14451 0.38643
 C426 C 0.61455 0.18365 0.36555
 H427 H 0.61675 0.24529 0.30838
 H428 H 0.79573 0.16921 0.32042
 H429 H 0.74216 0.11057 0.38676
 H430 H 0.56345 0.18744 0.37627
 C431 C 0.64708 0.71674 -0.17105
 C432 C 0.71207 0.71057 -0.18879
 C433 C 0.74555 0.67170 -0.16640
 C434 C 0.71357 0.63812 -0.12981
 C435 C 0.64784 0.64336 -0.11383
 C436 C 0.61538 0.68363 -0.13322
 H437 H 0.62008 0.74631 -0.18801
 H438 H 0.79570 0.66627 -0.17972
 H439 H 0.73980 0.60751 -0.11530
 H440 H 0.56454 0.68837 -0.12208
 C441 C 0.83080 -0.21752 -0.14491
 C442 C 0.81198 -0.21168 -0.20995
 C443 C 0.83426 -0.17332 -0.24471
 C444 C 0.87176 -0.13976 -0.21384
 C445 C 0.88877 -0.14456 -0.14799
 C446 C 0.86959 -0.18440 -0.11427
 H447 H 0.81404 -0.24681 -0.11716
 H448 H 0.82024 -0.16826 -0.29504
 H449 H 0.88609 -0.10947 -0.24097
 H450 H 0.88157 -0.18870 -0.06328
 C451 C 0.82548 0.28324 0.35370
 C452 C 0.80852 0.28863 0.28802
 C453 C 0.83153 0.32685 0.25351
 C454 C 0.86805 0.36062 0.28508
 C455 C 0.88334 0.35617 0.35139
 C456 C 0.86333 0.31654 0.38503
 H457 H 0.80791 0.25420 0.38148
 H458 H 0.81877 0.33164 0.20279
 H459 H 0.88307 0.39077 0.25805
 H460 H 0.87400 0.31250 0.43637
 C461 C 0.32639 -0.21756 0.35453
 C462 C 0.30896 -0.21272 0.28870
 C463 C 0.33305 -0.17479 0.25376
 C464 C 0.37057 -0.14112 0.28470
 C465 C 0.38630 -0.14512 0.35098
 C466 C 0.36536 -0.18435 0.38514
 H467 H 0.30863 -0.24614 0.38316
 H468 H 0.32060 -0.17008 0.20293
 H469 H 0.38616 -0.11137 0.25709
 H470 H 0.37623 -0.18813 0.43648
 C471 C 0.32524 0.28296 -0.14618
 C472 C 0.30869 0.28838 -0.21197
 C473 C 0.33154 0.32681 -0.24614
 C474 C 0.36738 0.36077 -0.21413
 C475 C 0.38220 0.35627 -0.14769
 C476 C 0.36245 0.31641 -0.11443
 H477 H 0.30779 0.25380 -0.11859
 H478 H 0.31901 0.33166 -0.29690
 H479 H 0.38223 0.39107 -0.24092
 H480 H 0.37281 0.31229 -0.06304
 C481 C 1.17067 -0.17456 0.24653
 C482 C 1.19432 -0.21292 0.21228
 C483 C 1.17694 -0.21820 0.14645
 C484 C 1.13862 -0.18500 0.11513
 C485 C 1.11833 -0.14532 0.14855
 C486 C 1.13382 -0.14089 0.21485
 H487 H 1.18308 -0.16942 0.29728
 H488 H 1.19429 -0.24707 0.11822
 H489 H 1.12782 -0.18919 0.06384
 H490 H 1.11869 -0.11077 0.24190
 C491 C 1.17002 0.28281 0.64396
 C492 C 1.18845 0.28829 0.70919
 C493 C 1.16580 0.32640 0.74431
 C494 C 1.12848 0.36012 0.71364
 C495 C 1.11196 0.35574 0.64761
 C496 C 1.13138 0.31608 0.61352
 H497 H 1.18704 0.25371 0.61592
 H498 H 1.17949 0.33116 0.79479
 H499 H 1.11390 0.39022 0.74107
 H500 H 1.11971 0.31205 0.56240
 C501 C 0.67474 -0.21771 0.64553
 C502 C 0.69146 -0.21217 0.71126
 C503 C 0.66774 -0.17414 0.74575
 C504 C 0.63079 -0.14067 0.71408
 C505 C 0.61588 -0.14520 0.64767
 C506 C 0.63653 -0.18470 0.61409
 H507 H 0.69285 -0.24658 0.61774
 H508 H 0.68034 -0.16922 0.79649
 H509 H 0.61532 -0.11060 0.74108
 H510 H 0.62626 -0.18877 0.56267
 C511 C 0.66485 0.32630 0.24504
 C512 C 0.68776 0.28835 0.20978
 C513 C 0.66916 0.28280 0.14461
 C514 C 0.62996 0.31584 0.11437
 C515 C 0.61017 0.35533 0.14863
 C516 C 0.62693 0.35977 0.21459
 H517 H 0.67877 0.33113 0.29544
 H518 H 0.68646 0.25384 0.11646
 H519 H 0.61822 0.31181 0.06326
 H520 H 0.61219 0.38979 0.24212
 C521 C 0.85368 0.21697 0.17122
 C522 C 0.78848 0.21108 0.18823
 C523 C 0.75492 0.17224 0.16568
 C524 C 0.78709 0.13835 0.12985
 C525 C 0.85307 0.14326 0.11478
 C526 C 0.88559 0.18355 0.13410
 H527 H 0.88073 0.24649 0.18833
 H528 H 0.70458 0.16702 0.17849
 H529 H 0.76079 0.10774 0.11533
 H530 H 0.93660 0.18805 0.12360
 C531 C 0.85635 0.71764 0.67234
 C532 C 0.79130 0.71155 0.68998
 C533 C 0.75677 0.67388 0.66534
 C534 C 0.78775 0.64117 0.62664
 C535 C 0.85361 0.64602 0.61105
 C536 C 0.88718 0.68530 0.63250
 H537 H 0.88403 0.74643 0.69087
 H538 H 0.70649 0.66868 0.67835
 H539 H 0.76075 0.61125 0.61058
 H540 H 0.93818 0.68959 0.62172
 C541 C 0.35424 0.21640 0.67101
 C542 C 0.28892 0.21073 0.68779
 C543 C 0.25511 0.17216 0.66473
 C544 C 0.28702 0.13836 0.62843
 C545 C 0.35303 0.14307 0.61342
 C546 C 0.38590 0.18307 0.63343
 H547 H 0.38149 0.24570 0.68860
 H548 H 0.20471 0.16709 0.67737
 H549 H 0.26047 0.10799 0.61345
 H550 H 0.43697 0.18739 0.62305
 C551 C 0.35555 0.71810 0.17681
 C552 C 0.28970 0.71339 0.19297
 C553 C 0.25489 0.67594 0.16734
 C554 C 0.28586 0.64263 0.12941
 C555 C 0.35211 0.64643 0.11512
 C556 C 0.38627 0.68518 0.13760
 H557 H 0.38417 0.74624 0.19587
 H558 H 0.20410 0.67131 0.17881
 H559 H 0.25835 0.61318 0.11256
 H560 H 0.43761 0.68868 0.12792
   
