data_POSCAR
  _audit_creation_date              2014-09-24
  _audit_creation_method            'ToBaCCo'
  _symmetry_space_group_name_H-M    'P1'
  _symmetry_Int_Tables_number       1
  _symmetry_cell_setting            triclinic
  loop_
  _symmetry_equiv_pos_as_xyz
 x,y,z
_cell_length_a 22.3653
_cell_length_b 22.8194
_cell_length_c 22.3382
_cell_angle_alpha 89.491600
_cell_angle_beta 90.616700
_cell_angle_gamma 89.342800
loop_
  _atom_site_label
  _atom_site_type_symbol
  _atom_site_fract_x
  _atom_site_fract_y
  _atom_site_fract_z
N1 N 0.16464 0.18770 0.33178
 N2 N 0.20819 0.14857 0.32924
 C3 C 0.19565 0.10284 0.36547
 C4 C 0.14036 0.11349 0.39038
 C5 C 0.12243 0.16793 0.36891
 H6 H 0.22160 0.06257 0.36833
 H7 H 0.07980 0.18952 0.37616
 Cu8 Cu 0.26956 0.15514 0.26883
 Cu9 Cu 0.16018 0.25528 0.27740
 Cu10 Cu 0.21383 0.21179 0.14052
 N11 N 0.31272 0.14875 0.19454
 N12 N 0.29028 0.16976 0.14394
 C13 C 0.32312 0.14976 0.09817
 C14 C 0.36801 0.11385 0.12163
 C15 C 0.36076 0.11498 0.18296
 H16 H 0.31174 0.15632 0.05137
 H17 H 0.38440 0.08828 0.21598
 N18 N 0.15348 0.27524 0.14990
 N19 N 0.13771 0.29544 0.20272
 C20 C 0.10054 0.34169 0.19507
 C21 C 0.09126 0.34988 0.13446
 C22 C 0.12521 0.30718 0.10691
 H23 H 0.07986 0.36586 0.23095
 H24 H 0.13015 0.30093 0.05926
 H25 H 0.17677 0.18909 0.22038
 H26 H 0.23574 0.24606 0.22018
 N27 N -0.13705 0.85402 0.26299
 N28 N -0.18880 0.85711 0.29030
 C29 C -0.18247 0.88796 0.34079
 C30 C -0.12407 0.90650 0.34397
 C31 C -0.09630 0.88466 0.29397
 H32 H -0.21855 0.89961 0.37045
 H33 H -0.05021 0.89040 0.28112
 Cu34 Cu -0.26156 0.83170 0.25142
 Cu35 Cu -0.12731 0.81017 0.18976
 Cu36 Cu -0.25187 0.73794 0.13800
 N37 N -0.32234 0.82975 0.18854
 N38 N -0.31680 0.79651 0.14100
 C39 C -0.35328 0.81769 0.09709
 C40 C -0.38248 0.86683 0.11890
 C41 C -0.36346 0.87175 0.17746
 H42 H -0.35344 0.80266 0.05128
 H43 H -0.37220 0.90827 0.20684
 N44 N -0.17053 0.70947 0.12326
 N45 N -0.12323 0.74051 0.13823
 C46 C -0.07355 0.70980 0.12529
 C47 C -0.09059 0.65649 0.10301
 C48 C -0.15231 0.65732 0.10203
 H49 H -0.02845 0.72309 0.13614
 H50 H -0.18164 0.62244 0.08826
 H51 H -0.21084 0.81527 0.15644
 H52 H -0.19511 0.75770 0.21490
 N53 N -0.14742 0.17176 -0.30117
 N54 N -0.19495 0.13847 -0.29905
 C55 C -0.18592 0.09084 -0.33295
 C56 C -0.12955 0.09453 -0.35674
 C57 C -0.10659 0.14670 -0.33684
 H58 H -0.21776 0.05606 -0.33943
 H59 H -0.06421 0.16565 -0.34844
 Cu60 Cu -0.26223 0.15761 -0.24883
 Cu61 Cu -0.14314 0.24511 -0.25817
 Cu62 Cu -0.23766 0.24908 -0.13596
 N63 N -0.30951 0.15469 -0.17687
 N64 N -0.29321 0.18286 -0.12847
 C65 C -0.32269 0.16012 -0.08110
 C66 C -0.36076 0.11665 -0.10180
 C67 C -0.35136 0.11541 -0.16294
 H68 H -0.31526 0.17305 -0.03562
 H69 H -0.36919 0.08390 -0.19416
 N70 N -0.17182 0.30595 -0.14883
 N71 N -0.13614 0.30460 -0.19561
 C72 C -0.09475 0.34695 -0.19043
 C73 C -0.10525 0.37675 -0.13806
 C74 C -0.15436 0.34972 -0.11299
 H75 H -0.05819 0.35372 -0.22093
 H76 H -0.17405 0.35967 -0.07019
 H77 H -0.18281 0.20071 -0.18938
 H78 H -0.22989 0.25787 -0.22751
 N79 N 0.17197 0.80624 -0.33048
 N80 N 0.21786 0.84170 -0.32732
 C81 C 0.20685 0.88940 -0.36194
 C82 C 0.15067 0.88371 -0.38708
 C83 C 0.12992 0.83043 -0.36663
 H84 H 0.23534 0.92732 -0.36456
 H85 H 0.08621 0.81210 -0.37485
 Cu86 Cu 0.28167 0.82849 -0.26891
 Cu87 Cu 0.16736 0.73507 -0.28139
 Cu88 Cu 0.23556 0.75918 -0.14514
 N89 N 0.32496 0.83505 -0.19365
 N90 N 0.30278 0.81317 -0.14405
 C91 C 0.33043 0.83766 -0.09677
 C92 C 0.37278 0.87616 -0.11821
 C93 C 0.36909 0.87237 -0.17989
 H94 H 0.31844 0.83042 -0.05052
 H95 H 0.39115 0.90028 -0.21203
 N96 N 0.17924 0.69409 -0.15921
 N97 N 0.15299 0.68449 -0.21138
 C98 C 0.11555 0.63876 -0.20589
 C99 C 0.11894 0.61853 -0.14737
 C100 C 0.15997 0.65427 -0.11936
 H101 H 0.08660 0.62288 -0.24115
 H102 H 0.17365 0.65224 -0.07280
 H103 H 0.19272 0.79321 -0.21927
 H104 H 0.24910 0.73347 -0.23127
 N105 N 0.17812 1.14671 0.68912
 N106 N 0.12801 1.17307 0.70438
 C107 C 0.08270 1.15185 0.67080
 C108 C 0.10614 1.11179 0.63086
 C109 C 0.16676 1.10961 0.64392
 H110 H 0.03621 1.16353 0.67612
 H111 H 0.19935 1.07976 0.62515
 Cu112 Cu 0.12806 1.23303 0.76660
 Cu113 Cu 0.25243 1.15667 0.73501
 Cu114 Cu 0.23673 1.22883 0.87038
 N115 N 0.13276 1.29169 0.82990
 N116 N 0.17552 1.28988 0.87080
 C117 C 0.16520 1.33155 0.91210
 C118 C 0.11380 1.36169 0.89533
 C119 C 0.09409 1.33496 0.84352
 H120 H 0.19122 1.33734 0.95268
 H121 H 0.05282 1.34447 0.81952
 N122 N 0.30518 1.17760 0.85277
 N123 N 0.31238 1.15106 0.80101
 C124 C 0.35857 1.11269 0.80649
 C125 C 0.38137 1.11575 0.86424
 C126 C 0.34623 1.15701 0.89216
 H127 H 0.36983 1.07998 0.77359
 H128 H 0.34676 1.16659 0.93948
 H129 H 0.20259 1.16679 0.81030
 H130 H 0.23657 1.23531 0.78040
 N131 N 0.80106 0.82936 0.67617
 N132 N 0.84838 0.79475 0.68073
 C133 C 0.89034 0.81300 0.64206
 C134 C 0.86771 0.86139 0.61125
 C135 C 0.81077 0.86997 0.63349
 H136 H 0.93536 0.79531 0.63993
 H137 H 0.78133 0.90695 0.62404
 Cu138 Cu 0.85299 0.73412 0.74247
 Cu139 Cu 0.73789 0.82866 0.73668
 Cu140 Cu 0.80171 0.78488 0.87186
 N141 N 0.86183 0.68864 0.81601
 N142 N 0.84529 0.71066 0.86755
 C143 C 0.86729 0.67669 0.91232
 C144 C 0.89719 0.62979 0.88726
 C145 C 0.89320 0.63887 0.82610
 H146 H 0.86476 0.68718 0.95938
 H147 H 0.91704 0.61482 0.79213
 N148 N 0.73110 0.83750 0.86549
 N149 N 0.70297 0.84908 0.81435
 C150 C 0.65372 0.88162 0.82530
 C151 C 0.65176 0.89180 0.88612
 C152 C 0.70147 0.86368 0.91025
 H153 H 0.62383 0.89957 0.79125
 H154 H 0.71472 0.86198 0.95697
 H155 H 0.81165 0.82259 0.78874
 H156 H 0.76151 0.75843 0.79577
 N157 N 0.18231 0.85692 1.31120
 N158 N 0.13744 0.82064 1.30458
 C159 C 0.09133 0.83896 1.33874
 C160 C 0.10900 0.88867 1.36906
 C161 C 0.16675 0.89881 1.35034
 H162 H 0.04797 0.81853 1.34051
 H163 H 0.19466 0.93528 1.36274
 Cu164 Cu 0.14473 0.75368 1.25068
 Cu165 Cu 0.25678 0.84862 1.26619
 Cu166 Cu 0.24566 0.75958 1.14152
 N167 N 0.15655 0.68872 1.19504
 N168 N 0.19464 0.69255 1.15079
 C169 C 0.18533 0.64874 1.11184
 C170 C 0.13931 0.61510 1.13320
 C171 C 0.12251 0.64139 1.18632
 H172 H 0.20635 0.64510 1.06863
 H173 H 0.08361 0.63082 1.21248
 N174 N 0.30971 0.81608 1.15214
 N175 N 0.31544 0.84891 1.20015
 C176 C 0.36028 0.88677 1.19092
 C177 C 0.38407 0.87650 1.13492
 C178 C 0.35045 0.83199 1.11147
 H179 H 0.37048 0.92326 1.21975
 H180 H 0.35213 0.81617 1.06602
 H181 H 0.20585 0.82359 1.19600
 H182 H 0.25141 0.76367 1.23201
 N183 N 0.78476 1.17103 1.31912
 N184 N 0.82940 1.20791 1.31587
 C185 C 0.87516 1.18830 1.35085
 C186 C 0.85779 1.13663 1.37807
 C187 C 0.80007 1.12733 1.35728
 H188 H 0.91840 1.20884 1.35436
 H189 H 0.77284 1.08938 1.36606
 Cu190 Cu 0.82365 1.27658 1.26391
 Cu191 Cu 0.71390 1.17840 1.26658
 Cu192 Cu 0.74670 1.25520 1.13708
 N193 N 0.82440 1.33304 1.19847
 N194 N 0.79467 1.32392 1.14840
 C195 C 0.81301 1.36161 1.10607
 C196 C 0.85663 1.39609 1.13106
 C197 C 0.86228 1.37743 1.18993
 H198 H 0.80092 1.35922 1.05913
 H199 H 0.89696 1.38970 1.22139
 N200 N 0.68036 1.20042 1.14188
 N201 N 0.66575 1.17322 1.19188
 C202 C 0.62179 1.13540 1.17935
 C203 C 0.60909 1.13832 1.11845
 C204 C 0.64650 1.18047 1.09641
 H205 H 0.60546 1.10300 1.21064
 H206 H 0.65049 1.19393 1.05053
 H207 H 0.77508 1.19999 1.20649
 H208 H 0.72237 1.26110 1.22437
 O209 O 0.55471 0.92683 0.90907
 O210 O 0.47073 0.92390 1.10229
 O211 O 0.58231 0.91244 1.03246
 O212 O 0.39077 0.92802 0.96707
 O213 O 0.57521 0.95910 1.11090
 O214 O 0.44491 0.94671 0.88857
 O215 O 0.38669 0.95807 1.07128
 O216 O 0.62895 0.96820 0.95306
 C217 C 0.60996 0.93011 0.91756
 C218 C 0.41581 0.91959 1.09915
 C219 C 0.58811 0.91127 1.08714
 C220 C 0.40443 0.91777 0.91402
 O221 O 0.46867 1.06123 0.88806
 O222 O 0.53657 1.06674 1.11059
 O223 O 0.60452 1.06758 0.98580
 O224 O 0.39840 1.07090 1.03543
 O225 O 0.43414 1.03656 1.11775
 O226 O 0.57309 1.04213 0.89729
 O227 O 0.38702 1.03802 0.93219
 O228 O 0.59853 1.07158 1.03515
 Co229 Co 0.50952 0.99401 0.90585
 Co230 Co 0.50314 0.99615 1.10019
 Co231 Co 0.58809 0.99194 1.01945
 Co232 Co 0.40090 0.99906 1.00224
 O233 O 0.49799 0.99804 1.00243
 C234 C 0.41460 1.06951 0.89631
 C235 C 0.57902 1.09155 1.08565
 C236 C 0.60350 1.07597 0.92844
 C237 C 0.40348 1.07461 1.09036
 O238 O 0.05773 0.44700 0.12282
 O239 O 0.04537 0.53968 -0.14479
 O240 O 0.03239 0.38370 -0.04318
 O241 O 0.10583 0.56829 0.04473
 O242 O 0.08328 0.45688 -0.07790
 O243 O 0.05528 0.55748 0.12381
 O244 O 0.08988 0.56307 -0.06195
 O245 O 0.01583 0.37997 0.06549
 C246 C 0.05318 0.39471 0.10593
 C247 C 0.08256 0.57394 -0.11731
 C248 C 0.07779 0.40286 -0.06998
 C249 C 0.10117 0.57511 0.09937
 O250 O -0.05932 0.55778 0.10745
 O251 O -0.01993 0.44012 -0.12636
 O252 O -0.09686 0.42882 0.04372
 O253 O -0.01989 0.61351 -0.04957
 O254 O -0.05587 0.53874 -0.09380
 O255 O -0.05467 0.44775 0.12579
 O256 O -0.00438 0.62010 0.05732
 O257 O -0.07974 0.43478 -0.05621
 Co258 Co 0.00010 0.50234 0.10897
 Co259 Co 0.01403 0.49985 -0.08156
 Co260 Co -0.02911 0.41336 0.00302
 Co261 Co 0.03991 0.58372 -0.00151
 O262 O 0.00430 0.49754 0.01033
 C263 C -0.05038 0.60858 0.08756
 C264 C -0.06763 0.41994 -0.10750
 C265 C -0.09784 0.42806 0.09852
 C266 C -0.05864 0.59180 -0.08300
 O267 O 1.12284 0.02721 0.44272
 O268 O 0.87985 0.05968 0.54640
 O269 O 0.94883 0.09695 0.41789
 O270 O 1.04172 0.03144 0.61618
 O271 O 0.86969 0.05036 0.43393
 O272 O 1.08459 0.06571 0.53911
 O273 O 0.93407 0.01571 0.61717
 O274 O 1.05115 0.08548 0.42962
 C275 C 1.10471 0.07462 0.42147
 C276 C 0.89680 0.05512 0.59993
 C277 C 0.89401 0.09417 0.41334
 C278 C 1.07432 0.06930 0.59321
 O279 O 1.14062 -0.03254 0.54607
 O280 O 0.88189 -0.05931 0.44164
 O281 O 1.04739 -0.02750 0.38327
 O282 O 0.95553 -0.09588 0.57322
 O283 O 0.87341 -0.05204 0.55470
 O284 O 1.07928 -0.07418 0.46266
 O285 O 1.05990 -0.07900 0.57184
 O286 O 0.93857 -0.01617 0.37390
 Co287 Co 1.07738 -0.00468 0.50293
 Co288 Co 0.88735 -0.00002 0.49455
 Co289 Co 0.99597 0.03211 0.40816
 Co290 Co 0.99687 -0.02889 0.58636
 O291 O 0.98631 0.00193 0.49554
 C292 C 1.11572 -0.07225 0.57933
 C293 C 0.90077 -0.05487 0.38899
 C294 C 1.07375 -0.07152 0.40688
 C295 C 0.90051 -0.09528 0.57567
   
