data_POSCAR
  _audit_creation_date              2014-09-24
  _audit_creation_method            'ToBaCCo'
  _symmetry_space_group_name_H-M    'P1'
  _symmetry_Int_Tables_number       1
  _symmetry_cell_setting            triclinic
  loop_
  _symmetry_equiv_pos_as_xyz
 x,y,z
_cell_length_a 34.3675
_cell_length_b 34.8577
_cell_length_c 33.1855
_cell_angle_alpha 90.144000
_cell_angle_beta 89.202400
_cell_angle_gamma 88.115900
loop_
  _atom_site_label
  _atom_site_type_symbol
  _atom_site_fract_x
  _atom_site_fract_y
  _atom_site_fract_z
C1 C 0.25577 0.19702 0.27241
 C2 C 0.23842 0.18167 0.30699
 C3 C 0.20612 0.20049 0.32527
 C4 C 0.19191 0.23563 0.31003
 C5 C 0.20899 0.25145 0.27549
 C6 C 0.24091 0.23194 0.25634
 C7 C 0.28604 0.17673 0.25216
 C8 C 0.30118 0.19056 0.21580
 C9 C 0.28687 0.22550 0.20000
 C10 C 0.25663 0.24630 0.22001
 C11 C 0.24024 0.27993 0.20315
 C12 C 0.20826 0.29895 0.22196
 C13 C 0.19306 0.28503 0.25825
 H14 H 0.24876 0.15409 0.31845
 H15 H 0.16638 0.24966 0.32384
 H16 H 0.29676 0.14937 0.26386
 H17 H 0.29826 0.23577 0.17149
 H18 H 0.25128 0.29046 0.17462
 H19 H 0.16779 0.29944 0.27209
 C20 C -0.21266 0.82871 0.21589
 C21 C -0.19090 0.84525 0.24640
 C22 C -0.15366 0.83036 0.25533
 C23 C -0.13809 0.79848 0.23417
 C24 C -0.15954 0.78157 0.20356
 C25 C -0.19696 0.79674 0.19424
 C26 C -0.24942 0.84423 0.20600
 C27 C -0.27049 0.82833 0.17462
 C28 C -0.25512 0.79636 0.15320
 C29 C -0.21835 0.78041 0.16278
 C30 C -0.20212 0.74902 0.14096
 C31 C -0.16494 0.73413 0.15031
 C32 C -0.14388 0.75027 0.18156
 H33 H -0.20268 0.87012 0.26277
 H34 H -0.10914 0.78722 0.24109
 H35 H -0.26128 0.86917 0.22217
 H36 H -0.27142 0.78440 0.12866
 H37 H -0.21811 0.73647 0.11655
 H38 H -0.11504 0.73867 0.18839
 C39 C -0.23980 0.17770 -0.22264
 C40 C -0.23068 0.17012 -0.26320
 C41 C -0.20041 0.18907 -0.28245
 C42 C -0.17961 0.21656 -0.26153
 C43 C -0.18852 0.22465 -0.22087
 C44 C -0.21859 0.20491 -0.20121
 C45 C -0.26882 0.15744 -0.20279
 C46 C -0.27669 0.16382 -0.16179
 C47 C -0.25597 0.19102 -0.14037
 C48 C -0.22681 0.21165 -0.15987
 C49 C -0.20512 0.23825 -0.13863
 C50 C -0.17533 0.25782 -0.15815
 C51 C -0.16712 0.25112 -0.19913
 H52 H -0.24612 0.14839 -0.27942
 H53 H -0.15573 0.23061 -0.27650
 H54 H -0.28483 0.13617 -0.21911
 H55 H -0.26214 0.19570 -0.10854
 H56 H -0.21110 0.24347 -0.10687
 H57 H -0.14381 0.26623 -0.21388
 C58 C 0.18828 0.82560 -0.20780
 C59 C 0.16459 0.84537 -0.23531
 C60 C 0.13478 0.82657 -0.25484
 C61 C 0.12837 0.78778 -0.24697
 C62 C 0.15189 0.76757 -0.21941
 C63 C 0.18207 0.78652 -0.19978
 C64 C 0.21802 0.84433 -0.18809
 C65 C 0.24149 0.82452 -0.16046
 C66 C 0.23551 0.78573 -0.15230
 C67 C 0.20581 0.76651 -0.17183
 C68 C 0.19891 0.72790 -0.16344
 C69 C 0.16867 0.70932 -0.18257
 C70 C 0.14544 0.72896 -0.21065
 H71 H 0.16947 0.87538 -0.24168
 H72 H 0.10526 0.77337 -0.26227
 H73 H 0.22293 0.87437 -0.19418
 H74 H 0.25384 0.77066 -0.13076
 H75 H 0.21636 0.71257 -0.14134
 H76 H 0.12178 0.71442 -0.22486
 C77 C 0.20724 1.24799 0.72591
 C78 C 0.19127 1.22822 0.69359
 C79 C 0.20775 1.19286 0.68077
 C80 C 0.24111 1.17752 0.69951
 C81 C 0.25761 1.19703 0.73184
 C82 C 0.24059 1.23240 0.74515
 C83 C 0.18886 1.28168 0.74111
 C84 C 0.20335 1.29961 0.77537
 C85 C 0.23709 1.28484 0.79371
 C86 C 0.25565 1.25114 0.77907
 C87 C 0.28735 1.23448 0.79949
 C88 C 0.30371 1.19914 0.78679
 C89 C 0.28928 1.18070 0.75276
 H90 H 0.16496 1.23952 0.67958
 H91 H 0.25325 1.14976 0.69004
 H92 H 0.16226 1.29281 0.72755
 H93 H 0.24769 1.29841 0.82073
 H94 H 0.29824 1.24814 0.82629
 H95 H 0.30172 1.15298 0.74360
 C96 C 0.84294 0.78150 0.79690
 C97 C 0.86115 0.80192 0.76589
 C98 C 0.84088 0.83176 0.74605
 C99 C 0.80213 0.84119 0.75701
 C100 C 0.78349 0.82105 0.78793
 C101 C 0.80394 0.79107 0.80797
 C102 C 0.86316 0.75206 0.81749
 C103 C 0.84482 0.73236 0.84891
 C104 C 0.80616 0.74175 0.85975
 C105 C 0.78558 0.77104 0.83954
 C106 C 0.74722 0.78120 0.85099
 C107 C 0.72712 0.81116 0.83146
 C108 C 0.74506 0.83091 0.79986
 H109 H 0.89117 0.79487 0.75747
 H110 H 0.78664 0.86444 0.74176
 H111 H 0.89316 0.74468 0.80929
 H112 H 0.79219 0.72646 0.88415
 H113 H 0.73324 0.76640 0.87571
 H114 H 0.72939 0.85439 0.78523
 C115 C 0.16607 0.76230 1.22074
 C116 C 0.14314 0.78478 1.24769
 C117 C 0.15253 0.82284 1.25563
 C118 C 0.18511 0.83861 1.23689
 C119 C 0.20836 0.81653 1.20986
 C120 C 0.19886 0.77818 1.20171
 C121 C 0.15622 0.72453 1.21175
 C122 C 0.17856 0.70263 1.18387
 C123 C 0.21135 0.71822 1.16524
 C124 C 0.22168 0.75597 1.17394
 C125 C 0.25371 0.77231 1.15451
 C126 C 0.26298 0.81043 1.16250
 C127 C 0.24049 0.83235 1.19023
 H128 H 0.11784 0.77283 1.26226
 H129 H 0.19214 0.86812 1.24318
 H130 H 0.13060 0.71251 1.22566
 H131 H 0.22821 0.70133 1.14327
 H132 H 0.27103 0.75568 1.13272
 H133 H 0.24766 0.86192 1.19598
 C134 C 0.80220 1.22397 1.21619
 C135 C 0.81455 1.21016 1.25370
 C136 C 0.79442 1.18109 1.27327
 C137 C 0.76120 1.16614 1.25570
 C138 C 0.74836 1.17976 1.21816
 C139 C 0.76903 1.20872 1.19822
 C140 C 0.82327 1.25182 1.19569
 C141 C 0.81178 1.26434 1.15747
 C142 C 0.77872 1.24953 1.13965
 C143 C 0.75722 1.22165 1.15978
 C144 C 0.72493 1.20554 1.14160
 C145 C 0.70462 1.17663 1.16122
 C146 C 0.71612 1.16397 1.19947
 H147 H 0.84052 1.22129 1.26715
 H148 H 0.74600 1.14328 1.27070
 H149 H 0.84908 1.26326 1.20909
 H150 H 0.77022 1.25920 1.10991
 H151 H 0.71616 1.21476 1.11179
 H152 H 0.70057 1.14119 1.21415
 O153 O 0.52373 0.95142 0.91715
 O154 O 0.46297 0.94370 1.05505
 O155 O 0.53311 0.93993 1.04303
 O156 O 0.40653 0.98514 0.95940
 O157 O 0.51680 0.97145 1.09693
 O158 O 0.44990 0.95287 0.92208
 O159 O 0.41212 0.97512 1.03206
 O160 O 0.53510 0.92502 0.97358
 C161 C 0.53743 0.92368 0.93648
 C162 C 0.42697 0.94555 1.04889
 C163 C 0.54036 0.94642 1.07963
 C164 C 0.41546 0.95811 0.93476
 O165 O 0.44967 1.02583 0.91478
 O166 O 0.51261 1.03422 1.05762
 O167 O 0.56631 0.99458 0.95601
 O168 O 0.44217 1.04824 1.03765
 O169 O 0.44957 1.00981 1.08497
 O170 O 0.52255 1.02571 0.92020
 O171 O 0.43703 1.05667 0.96887
 O172 O 0.56289 1.01005 1.02740
 Co173 Co 0.48653 0.98922 0.92571
 Co174 Co 0.48920 0.98849 1.05368
 Co175 Co 0.54422 0.96946 0.99948
 Co176 Co 0.42909 1.01434 0.99925
 O177 O 0.48574 0.99189 0.99217
 C178 C 0.43807 1.05588 0.93169
 C179 C 0.54759 1.03632 1.04852
 C180 C 0.55694 1.02142 0.93193
 C181 C 0.43590 1.04119 1.07364
 O182 O 0.03447 0.45004 0.08975
 O183 O 0.03574 0.52203 -0.07705
 O184 O 0.06922 0.41860 -0.03400
 O185 O 0.07624 0.52340 0.04126
 O186 O 0.03670 0.45120 -0.07969
 O187 O 0.03458 0.51957 0.08863
 O188 O 0.07745 0.52890 -0.03095
 O189 O 0.07330 0.42973 0.04179
 C190 C 0.06712 0.43586 0.07833
 C191 C 0.06921 0.53098 -0.06700
 C192 C 0.06433 0.42846 -0.06986
 C193 C 0.06841 0.52713 0.07749
 O194 O -0.03724 0.52145 0.05458
 O195 O -0.03678 0.45029 -0.05767
 O196 O 0.00054 0.40674 0.04862
 O197 O 0.00573 0.56435 -0.02862
 O198 O -0.03667 0.52345 -0.04711
 O199 O -0.03955 0.45321 0.05938
 O200 O 0.00594 0.56265 0.04350
 O201 O -0.00493 0.40429 -0.02560
 Co202 Co -0.00013 0.48580 0.06752
 Co203 Co 0.00125 0.48675 -0.05835
 Co204 Co 0.03312 0.42149 0.00787
 Co205 Co 0.03948 0.53977 0.00644
 O206 O 0.01815 0.48318 0.00541
 C207 C -0.02868 0.55556 0.05177
 C208 C -0.03271 0.41575 -0.04763
 C209 C -0.03324 0.41819 0.05739
 C210 C -0.02762 0.55741 -0.04169
 O211 O 1.06732 0.02931 0.45646
 O212 O 0.90502 0.03598 0.53023
 O213 O 0.95223 0.07142 0.44924
 O214 O 1.02347 0.06792 0.56066
 O215 O 0.90750 0.03158 0.45725
 O216 O 1.06865 0.03197 0.53080
 O217 O 0.95054 0.07375 0.54816
 O218 O 1.02216 0.07101 0.44417
 C219 C 1.05736 0.06300 0.44729
 C220 C 0.91536 0.06823 0.54309
 C221 C 0.91737 0.06428 0.44669
 C222 C 1.05849 0.06079 0.55204
 O223 O 1.04767 -0.03925 0.53627
 O224 O 0.94155 -0.03953 0.46186
 O225 O 1.02312 -0.00110 0.41296
 O226 O 0.94414 0.00394 0.57885
 O227 O 0.93555 -0.03793 0.53387
 O228 O 1.03971 -0.04152 0.45946
 O229 O 1.01564 -0.00429 0.58183
 O230 O 0.95302 0.00010 0.41460
 Co231 Co 1.04915 -0.00319 0.49544
 Co232 Co 0.92775 -0.00080 0.49594
 Co233 Co 0.98738 0.03372 0.43570
 Co234 Co 0.98352 0.03362 0.56048
 O235 O 0.98734 0.01566 0.49709
 C236 C 1.03653 -0.03352 0.57199
 C237 C 0.94495 -0.03313 0.42532
 C238 C 1.03566 -0.03408 0.42304
 C239 C 0.93614 -0.02959 0.57003
 C240 C 1.14004 0.14146 0.40124
 C241 C 1.15281 0.10538 0.41515
 C242 C 1.12618 0.08036 0.43214
 C243 C 1.18528 0.18194 0.35393
 C244 C 1.07428 0.12821 0.42288
 C245 C 1.10094 0.15316 0.40603
 C246 C 1.16546 0.16414 0.37700
 C247 C 1.08643 0.09111 0.43495
 H248 H 1.18298 0.09592 0.41124
 H249 H 1.13640 0.05205 0.44138
 H250 H 1.04391 0.13740 0.42491
 H251 H 1.09069 0.18089 0.39504
 C252 C 0.90574 -0.11253 0.33756
 C253 C 0.92494 -0.07970 0.32524
 C254 C 0.93943 -0.05470 0.35389
 C255 C 0.86777 -0.15194 0.28361
 C256 C 0.91724 -0.09634 0.40733
 C257 C 0.90265 -0.12127 0.37858
 C258 C 0.88584 -0.13487 0.30835
 C259 C 0.93474 -0.06224 0.39524
 H260 H 0.92740 -0.07265 0.29354
 H261 H 0.95305 -0.02880 0.34372
 H262 H 0.91329 -0.10291 0.43897
 H263 H 0.88769 -0.14655 0.38841
 C264 C 0.84152 0.14422 0.61175
 C265 C 0.87649 0.15725 0.59570
 C266 C 0.89893 0.13377 0.56965
 C267 C 0.81237 0.17634 0.67814
 C268 C 0.84979 0.08551 0.57265
 C269 C 0.82740 0.10903 0.59889
 C270 C 0.82450 0.16300 0.64670
 C271 C 0.88674 0.09684 0.55961
 H272 H 0.88782 0.18428 0.60562
 H273 H 0.92719 0.14333 0.55984
 H274 H 0.83975 0.05719 0.56553
 H275 H 0.80051 0.09852 0.61143
 C276 C 1.07685 -0.11216 0.66252
 C277 C 1.08639 -0.11881 0.62198
 C278 C 1.07238 -0.09374 0.59247
 C279 C 1.11303 -0.15383 0.71763
 C280 C 1.03809 -0.05576 0.64388
 C281 C 1.05224 -0.08093 0.67343
 C282 C 1.09542 -0.13534 0.69285
 C283 C 1.04869 -0.06151 0.60315
 H284 H 1.10561 -0.14277 0.61327
 H285 H 1.08093 -0.09913 0.56138
 H286 H 1.01972 -0.03135 0.65303
 H287 H 1.04489 -0.07544 0.70481
 C288 C 0.37318 1.12161 1.15035
 C289 C 0.38682 1.08643 1.16599
 C290 C 0.40792 1.06030 1.14132
 C291 C 0.32716 1.16815 1.19413
 C292 C 0.40219 1.10477 1.08550
 C293 C 0.38120 1.13079 1.11016
 C294 C 0.34885 1.14727 1.17457
 C295 C 0.41544 1.06912 1.10070
 H296 H 0.38054 1.07892 1.19701
 H297 H 0.41776 1.03304 1.15375
 H298 H 0.40754 1.11233 1.05431
 H299 H 0.37059 1.15779 1.09766
 C300 C 0.32697 0.88518 0.89140
 C301 C 0.31733 0.91420 0.91937
 C302 C 0.34614 0.93787 0.93375
 C303 C 0.27184 0.84453 0.85918
 C304 C 0.39438 0.90319 0.89248
 C305 C 0.36554 0.87961 0.87816
 C306 C 0.29703 0.86255 0.87451
 C307 C 0.38495 0.93280 0.92020
 H308 H 0.28748 0.91885 0.92964
 H309 H 0.33797 0.96032 0.95515
 H310 H 0.42400 0.89843 0.88156
 H311 H 0.37324 0.85735 0.85634
 C312 C 0.63130 0.88081 1.13687
 C313 C 0.61682 0.86914 1.09984
 C314 C 0.58624 0.88987 1.08214
 C315 C 0.69521 0.84554 1.16335
 C316 C 0.58324 0.93356 1.13914
 C317 C 0.61415 0.91276 1.15683
 C318 C 0.66557 0.86148 1.15232
 C319 C 0.56959 0.92266 1.10123
 H320 H 0.62992 0.84460 1.08406
 H321 H 0.57624 0.88070 1.05295
 H322 H 0.57102 0.95884 1.15429
 H323 H 0.62533 0.92217 1.18544
 C324 C 0.64307 1.09803 0.88860
 C325 C 0.65348 1.06900 0.91584
 C326 C 0.62551 1.04386 0.92990
 C327 C 0.69616 1.14248 0.85709
 C328 C 0.57666 1.07693 0.88956
 C329 C 0.60464 1.10197 0.87556
 C330 C 0.67205 1.12259 0.87229
 C331 C 0.58682 1.04748 0.91675
 H332 H 0.68324 1.06561 0.92593
 H333 H 0.63417 1.02161 0.95098
 H334 H 0.54709 1.08060 0.87900
 H335 H 0.59637 1.12421 0.85428
 C336 C 0.14679 0.38077 0.15950
 C337 C 0.15832 0.38822 0.11979
 C338 C 0.13319 0.40832 0.09406
 C339 C 0.18803 0.32996 0.20159
 C340 C 0.08557 0.41571 0.14832
 C341 C 0.11078 0.39538 0.17404
 C342 C 0.16976 0.35421 0.18328
 C343 C 0.09602 0.42118 0.10766
 H344 H 0.18600 0.37693 0.10813
 H345 H 0.14219 0.41229 0.06298
 H346 H 0.05715 0.42521 0.15963
 H347 H 0.10143 0.38956 0.20467
 C348 C -0.10997 0.33438 -0.09766
 C349 C -0.11466 0.37343 -0.10659
 C350 C -0.09027 0.39999 -0.08931
 C351 C -0.15265 0.28450 -0.13597
 C352 C -0.05688 0.34865 -0.05311
 C353 C -0.08137 0.32208 -0.07049
 C354 C -0.13336 0.30701 -0.11798
 C355 C -0.06066 0.38786 -0.06287
 H356 H -0.13667 0.38327 -0.12758
 H357 H -0.09405 0.42993 -0.09746
 H358 H -0.03448 0.33839 -0.03278
 H359 H -0.07750 0.29190 -0.06335
 C360 C 0.13445 0.60614 -0.14043
 C361 C 0.10086 0.59008 -0.15566
 C362 C 0.08128 0.56261 -0.13328
 C363 C 0.15882 0.67132 -0.17023
 C364 C 0.13050 0.56519 -0.08180
 C365 C 0.15005 0.59258 -0.10425
 C366 C 0.14879 0.64068 -0.15790
 C367 C 0.09493 0.55130 -0.09521
 H368 H 0.08839 0.60060 -0.18351
 H369 H 0.05399 0.55241 -0.14441
 H370 H 0.14180 0.55694 -0.05266
 H371 H 0.17588 0.60502 -0.09207
 C372 C -0.10744 0.64663 0.09043
 C373 C -0.11864 0.60847 0.09338
 C374 C -0.09371 0.57870 0.07924
 C375 C -0.14727 0.70280 0.12753
 C376 C -0.04685 0.62533 0.05806
 C377 C -0.07185 0.65500 0.07202
 C378 C -0.13024 0.67695 0.10979
 C379 C -0.05712 0.58683 0.06236
 H380 H -0.14603 0.60165 0.10779
 H381 H -0.10242 0.54932 0.08288
 H382 H -0.01898 0.63250 0.04498
 H383 H -0.06279 0.68441 0.06974
 C384 C 1.14269 0.13190 0.60677
 C385 C 1.10336 0.14347 0.60643
 C386 C 1.07630 0.12095 0.58734
 C387 C 1.18842 0.17166 0.65340
 C388 C 1.12800 0.07565 0.56716
 C389 C 1.15513 0.09824 0.58657
 C390 C 1.16895 0.15323 0.63095
 C391 C 1.08814 0.08636 0.56821
 H392 H 1.09338 0.16938 0.62205
 H393 H 1.04591 0.13019 0.58850
 H394 H 1.13799 0.04919 0.55265
 H395 H 1.18550 0.08891 0.58682
 C396 C 0.89282 -0.10539 0.66088
 C397 C 0.89264 -0.11632 0.62024
 C398 C 0.90779 -0.09221 0.59064
 C399 C 0.85906 -0.14765 0.71679
 C400 C 0.92417 -0.04649 0.64235
 C401 C 0.90910 -0.07066 0.67186
 C402 C 0.87478 -0.12881 0.69117
 C403 C 0.92313 -0.05672 0.60135
 H404 H 0.88011 -0.14312 0.61135
 H405 H 0.90662 -0.10089 0.55933
 H406 H 0.93598 -0.01947 0.65156
 H407 H 0.90946 -0.06188 0.70320
 C408 C 1.08702 -0.11129 0.33490
 C409 C 1.08577 -0.12175 0.37556
 C410 C 1.06749 -0.09737 0.40403
 C411 C 1.12868 -0.15416 0.28311
 C412 C 1.05026 -0.05245 0.35106
 C413 C 1.06860 -0.07693 0.32260
 C414 C 1.10920 -0.13475 0.30642
 C415 C 1.05031 -0.06202 0.39223
 H416 H 1.09987 -0.14828 0.38544
 H417 H 1.06796 -0.10565 0.43545
 H418 H 1.03718 -0.02552 0.34101
 H419 H 1.06933 -0.06854 0.29119
 C420 C 0.84437 0.13296 0.37002
 C421 C 0.83006 0.09972 0.38765
 C422 C 0.85279 0.07866 0.41501
 C423 C 0.80926 0.16540 0.30766
 C424 C 0.90345 0.12511 0.40876
 C425 C 0.88065 0.14614 0.38149
 C426 C 0.82423 0.15104 0.33693
 C427 C 0.89030 0.09045 0.42479
 H428 H 0.80211 0.08913 0.37888
 H429 H 0.84188 0.05208 0.42680
 H430 H 0.93218 0.13494 0.41566
 H431 H 0.89212 0.17173 0.36792
 C432 C 0.14033 0.37486 -0.15822
 C433 C 0.15062 0.37525 -0.11764
 C434 C 0.12644 0.39384 -0.08921
 C435 C 0.18189 0.32780 -0.20543
 C436 C 0.08212 0.41347 -0.14209
 C437 C 0.10635 0.39448 -0.17060
 C438 C 0.16279 0.35065 -0.18556
 C439 C 0.09151 0.41245 -0.10095
 H440 H 0.17672 0.35996 -0.10771
 H441 H 0.13467 0.39281 -0.05783
 H442 H 0.05539 0.42758 -0.15198
 H443 H 0.09796 0.39405 -0.20194
 C444 C -0.11792 0.33964 0.10005
 C445 C -0.08270 0.32573 0.08302
 C446 C -0.05558 0.35127 0.06799
 C447 C -0.16481 0.29132 0.13606
 C448 C -0.09935 0.40478 0.08581
 C449 C -0.12641 0.37917 0.10090
 C450 C -0.14402 0.31349 0.11904
 C451 C -0.06332 0.39110 0.06992
 H452 H -0.07580 0.29518 0.08226
 H453 H -0.02820 0.33989 0.05569
 H454 H -0.10618 0.43529 0.08762
 H455 H -0.15353 0.39026 0.11410
 C456 C -0.09757 0.64908 -0.09134
 C457 C -0.06391 0.65718 -0.07013
 C458 C -0.04202 0.62746 -0.05232
 C459 C -0.13545 0.70419 -0.13070
 C460 C -0.08831 0.58157 -0.07555
 C461 C -0.11012 0.61135 -0.09338
 C462 C -0.11825 0.67916 -0.11253
 C463 C -0.05354 0.58922 -0.05561
 H464 H -0.05402 0.68632 -0.06825
 H465 H -0.01544 0.63429 -0.03710
 H466 H -0.09795 0.55245 -0.07859
 H467 H -0.13622 0.60481 -0.10964
 C468 C 0.13705 0.60339 0.14496
 C469 C 0.15211 0.58695 0.10929
 C470 C 0.13127 0.55929 0.08895
 C471 C 0.16628 0.66751 0.17233
 C472 C 0.08151 0.56235 0.14144
 C473 C 0.10240 0.59008 0.16171
 C474 C 0.15388 0.63746 0.16084
 C475 C 0.09491 0.54794 0.10394
 H476 H 0.17878 0.59713 0.09592
 H477 H 0.14237 0.54870 0.06017
 H478 H 0.05359 0.55426 0.15369
 H479 H 0.09034 0.60276 0.18919
 C480 C 0.38047 1.14018 0.85817
 C481 C 0.40671 1.11325 0.84083
 C482 C 0.42717 1.08723 0.86518
 C483 C 0.33247 1.17988 0.81132
 C484 C 0.39680 1.11624 0.92472
 C485 C 0.37619 1.14224 0.90020
 C486 C 0.35509 1.16265 0.83265
 C487 C 0.42157 1.08771 0.90728
 H488 H 0.41017 1.11131 0.80838
 H489 H 0.44622 1.06571 0.85089
 H490 H 0.39182 1.11718 0.95701
 H491 H 0.35576 1.16288 0.91392
 C492 C 0.34798 0.86611 1.10085
 C493 C 0.33560 0.89134 1.07056
 C494 C 0.36186 0.91590 1.05237
 C495 C 0.29433 0.82808 1.14081
 C496 C 0.41375 0.88895 1.09333
 C497 C 0.38728 0.86445 1.11170
 C498 C 0.31950 0.84443 1.12258
 C499 C 0.40103 0.91561 1.06418
 H500 H 0.30530 0.89295 1.06191
 H501 H 0.35119 0.93598 1.02992
 H502 H 0.44368 0.88819 1.10315
 H503 H 0.39719 0.84512 1.13521
 C504 C 0.62195 1.11838 1.10115
 C505 C 0.63495 1.09625 1.06810
 C506 C 0.60999 1.07098 1.04963
 C507 C 0.67390 1.15776 1.14063
 C508 C 0.55806 1.09115 1.09593
 C509 C 0.58322 1.11637 1.11455
 C510 C 0.64943 1.14067 1.12281
 C511 C 0.57156 1.06747 1.06394
 H512 H 0.66483 1.09753 1.05746
 H513 H 0.62121 1.05319 1.02502
 H514 H 0.52867 1.08891 1.10771
 H515 H 0.57286 1.13330 1.14017
 C516 C 0.62293 0.85087 0.87793
 C517 C 0.59778 0.87402 0.85495
 C518 C 0.56754 0.89538 0.87375
 C519 C 0.68919 0.82357 0.84623
 C520 C 0.58591 0.86851 0.93832
 C521 C 0.61617 0.84718 0.91943
 C522 C 0.65834 0.83507 0.86007
 C523 C 0.56230 0.89404 0.91587
 H524 H 0.60281 0.87719 0.82285
 H525 H 0.54983 0.91475 0.85563
 H526 H 0.58271 0.86693 0.97079
 H527 H 0.63558 0.82945 0.93754
   
