data_POSCAR
  _audit_creation_date              2014-09-24
  _audit_creation_method            'ToBaCCo'
  _symmetry_space_group_name_H-M    'P1'
  _symmetry_Int_Tables_number       1
  _symmetry_cell_setting            triclinic
  loop_
  _symmetry_equiv_pos_as_xyz
 x,y,z
_cell_length_a 53.2990
_cell_length_b 53.3215
_cell_length_c 49.1353
_cell_angle_alpha 90.013500
_cell_angle_beta 90.003800
_cell_angle_gamma 90.469100
loop_
  _atom_site_label
  _atom_site_type_symbol
  _atom_site_fract_x
  _atom_site_fract_y
  _atom_site_fract_z
C1 C -0.07330 0.30716 -0.01448
 C2 C -0.07363 0.30743 0.01341
 C3 C -0.05181 0.29578 0.02202
 N4 N -0.03788 0.28904 0.00023
 C5 C -0.05112 0.29579 -0.02202
 C6 C -0.04537 0.29005 0.04934
 C7 C -0.02011 0.28449 0.05622
 C8 C -0.01230 0.27104 0.07889
 C9 C 0.01347 0.27123 0.07865
 C10 C 0.02077 0.28440 0.05566
 N11 N 0.00026 0.29217 0.04191
 C12 C 0.04577 0.29025 0.04859
 C13 C 0.05263 0.29630 0.02169
 C14 C 0.07490 0.30783 0.01410
 C15 C 0.07524 0.30798 -0.01379
 C16 C 0.05332 0.29610 -0.02234
 N17 N 0.03934 0.28934 -0.00052
 C18 C 0.04685 0.29017 -0.04963
 C19 C 0.02155 0.28441 -0.05649
 C20 C 0.01362 0.27081 -0.07911
 C21 C -0.01216 0.27081 -0.07887
 C22 C -0.01933 0.28401 -0.05593
 N23 N 0.00124 0.29199 -0.04222
 C24 C -0.04429 0.28972 -0.04889
 H25 H -0.08765 0.31464 -0.02770
 H26 H -0.08823 0.31562 0.02577
 H27 H 0.00131 0.30407 -0.02551
 H28 H -0.02380 0.26154 0.09386
 H29 H 0.02545 0.26235 0.09353
 H30 H 0.08932 0.31547 0.02729
 H31 H 0.08990 0.31623 -0.02618
 H32 H -0.02422 0.26179 -0.09372
 H33 H 0.00029 0.30418 0.02515
 H34 H 0.02503 0.26133 -0.09404
 C35 C 0.57531 0.77754 0.51396
 C36 C 0.57535 0.77749 0.48605
 C37 C 0.55232 0.78677 0.47792
 N38 N 0.53823 0.79251 0.49991
 C39 C 0.55225 0.78686 0.52197
 C40 C 0.54498 0.79086 0.45067
 C41 C 0.51990 0.79586 0.44321
 C42 C 0.51248 0.80553 0.41830
 C43 C 0.48668 0.80550 0.41826
 C44 C 0.47905 0.79581 0.44314
 N45 N 0.49942 0.79012 0.45829
 C46 C 0.45388 0.79072 0.45051
 C47 C 0.44641 0.78658 0.47773
 C48 C 0.42323 0.77721 0.48576
 C49 C 0.42319 0.77723 0.51367
 C50 C 0.44634 0.78661 0.52178
 N51 N 0.46050 0.79234 0.49978
 C52 C 0.45374 0.79079 0.54903
 C53 C 0.47887 0.79593 0.55647
 C54 C 0.48642 0.80569 0.58135
 C55 C 0.51222 0.80577 0.58139
 C56 C 0.51973 0.79605 0.55653
 N57 N 0.49929 0.79023 0.54140
 C58 C 0.54483 0.79105 0.54918
 H59 H 0.59045 0.77116 0.52681
 H60 H 0.59053 0.77105 0.47328
 H61 H 0.49926 0.78007 0.52333
 H62 H 0.52439 0.81178 0.40177
 H63 H 0.47490 0.81171 0.40168
 H64 H 0.40800 0.77074 0.47293
 H65 H 0.40792 0.77078 0.52646
 H66 H 0.52408 0.81208 0.59795
 H67 H 0.49932 0.78001 0.47639
 H68 H 0.47458 0.81193 0.59787
 C69 C 0.92441 0.69330 0.01405
 C70 C 0.92408 0.69316 -0.01385
 C71 C 0.94612 0.70483 -0.02238
 N72 N 0.96015 0.71145 -0.00054
 C73 C 0.94678 0.70461 0.02166
 C74 C 0.95268 0.71067 -0.04966
 C75 C 0.97803 0.71624 -0.05648
 C76 C 0.98609 0.72978 -0.07907
 C77 C 1.01186 0.72956 -0.07881
 C78 C 1.01891 0.71628 -0.05588
 N79 N 0.99826 0.70847 -0.04219
 C80 C 1.04381 0.71036 -0.04883
 C81 C 1.05056 0.70420 -0.02197
 C82 C 1.07264 0.69264 -0.01442
 C83 C 1.07296 0.69236 0.01347
 C84 C 1.05123 0.70420 0.02207
 N85 N 1.03737 0.71107 0.00028
 C86 C 1.04483 0.70999 0.04938
 C87 C 1.01962 0.71577 0.05624
 C88 C 1.01192 0.72929 0.07892
 C89 C 0.98614 0.72931 0.07866
 C90 C 0.97875 0.71621 0.05565
 N91 N 0.99919 0.70827 0.04191
 C92 C 0.95370 0.71055 0.04857
 H93 H 0.90992 0.68577 0.02722
 H94 H 0.90935 0.68504 -0.02625
 H95 H 0.99907 0.69626 0.02515
 H96 H 0.97477 0.73936 -0.09401
 H97 H 1.02400 0.73849 -0.09364
 H98 H 1.08693 0.68504 -0.02764
 H99 H 1.08747 0.68405 0.02583
 H100 H 0.97424 0.73829 0.09354
 H101 H 0.99808 0.69639 -0.02550
 H102 H 1.02349 0.73869 0.09391
 C103 C 0.42357 0.19509 0.51385
 C104 C 0.42353 0.19516 0.48594
 C105 C 0.44710 0.20344 0.47787
 N106 N 0.46155 0.20835 0.49989
 C107 C 0.44715 0.20333 0.52190
 C108 C 0.45435 0.20825 0.45072
 C109 C 0.47958 0.21269 0.44313
 C110 C 0.48720 0.22344 0.41876
 C111 C 0.51299 0.22339 0.41873
 C112 C 0.52044 0.21261 0.44308
 N113 N 0.49996 0.20613 0.45785
 C114 C 0.54560 0.20808 0.45063
 C115 C 0.55279 0.20319 0.47775
 C116 C 0.57620 0.19478 0.48575
 C117 C 0.57623 0.19471 0.51366
 C118 C 0.55284 0.20307 0.52177
 N119 N 0.53850 0.20817 0.49980
 C120 C 0.54571 0.20782 0.54895
 C121 C 0.52057 0.21231 0.55658
 C122 C 0.51317 0.22296 0.58102
 C123 C 0.48738 0.22302 0.58105
 C124 C 0.47971 0.21240 0.55663
 N125 N 0.50005 0.20591 0.54182
 C126 C 0.45446 0.20801 0.54906
 H127 H 0.40796 0.18967 0.52671
 H128 H 0.40789 0.18980 0.47308
 H129 H 0.49992 0.19544 0.52394
 H130 H 0.47545 0.23076 0.40271
 H131 H 0.52485 0.23067 0.40265
 H132 H 0.59169 0.18937 0.47285
 H133 H 0.59175 0.18922 0.52647
 H134 H 0.47567 0.23026 0.59718
 H135 H 0.49987 0.19557 0.47566
 H136 H 0.52507 0.23016 0.59712
 C137 C 0.73318 -0.07217 -0.01353
 C138 C 0.73278 -0.07236 0.01433
 C139 C 0.71821 -0.05224 0.02237
 N140 N 0.71007 -0.03949 0.00027
 C141 C 0.71885 -0.05194 -0.02173
 C142 C 0.71203 -0.04593 0.04958
 C143 C 0.70545 -0.02092 0.05616
 C144 C 0.69242 -0.01322 0.07916
 C145 C 0.69269 0.01258 0.07906
 C146 C 0.70546 0.01991 0.05582
 N147 N 0.71279 -0.00054 0.04173
 C148 C 0.71211 0.04479 0.04917
 C149 C 0.71833 0.05174 0.02233
 C150 C 0.73098 0.07345 0.01495
 C151 C 0.73171 0.07367 -0.01294
 C152 C 0.71907 0.05224 -0.02170
 N153 N 0.71123 0.03869 -0.00000
 C154 C 0.71372 0.04562 -0.04906
 C155 C 0.70714 0.02049 -0.05558
 C156 C 0.69303 0.01289 -0.07789
 C157 C 0.69275 -0.01288 -0.07781
 C158 C 0.70670 -0.02040 -0.05545
 N159 N 0.71483 0.00005 -0.04159
 C160 C 0.71314 -0.04544 -0.04897
 H161 H 0.74363 -0.08501 -0.02615
 H162 H 0.74291 -0.08535 0.02707
 H163 H 0.72725 0.00003 -0.02517
 H164 H 0.68357 -0.02483 0.09450
 H165 H 0.68449 0.02455 0.09440
 H166 H 0.73924 0.08744 0.02823
 H167 H 0.74107 0.08780 -0.02512
 H168 H 0.68306 -0.02464 -0.09242
 H169 H 0.72477 -0.00053 0.02495
 H170 H 0.68356 0.02461 -0.09255
 C171 C 0.22380 0.42262 0.48630
 C172 C 0.22383 0.42263 0.51422
 C173 C 0.21686 0.44649 0.52231
 N174 N 0.21232 0.46092 0.50028
 C175 C 0.21681 0.44649 0.47823
 C176 C 0.21297 0.45403 0.54952
 C177 C 0.20734 0.47892 0.55718
 C178 C 0.19879 0.48606 0.58267
 C179 C 0.19769 0.51182 0.58264
 C180 C 0.20583 0.51976 0.55723
 N181 N 0.21162 0.49959 0.54184
 C182 C 0.20960 0.54510 0.54961
 C183 C 0.21299 0.55277 0.52230
 C184 C 0.22114 0.57638 0.51423
 C185 C 0.22119 0.57638 0.48633
 C186 C 0.21307 0.55277 0.47822
 N187 N 0.20799 0.53838 0.50025
 C188 C 0.20977 0.54509 0.45089
 C189 C 0.20593 0.51976 0.44328
 C190 C 0.19778 0.51182 0.41787
 C191 C 0.19878 0.48606 0.41786
 C192 C 0.20730 0.47891 0.44336
 N193 N 0.21164 0.49958 0.45869
 C194 C 0.21287 0.45402 0.45103
 H195 H 0.22798 0.40670 0.47346
 H196 H 0.22805 0.40671 0.52705
 H197 H 0.22105 0.50008 0.47720
 H198 H 0.19417 0.47405 0.59972
 H199 H 0.19192 0.52337 0.59960
 H200 H 0.22686 0.59191 0.52703
 H201 H 0.22697 0.59191 0.47356
 H202 H 0.19413 0.47405 0.40082
 H203 H 0.22103 0.50010 0.52334
 H204 H 0.19205 0.52338 0.40090
 C205 C 0.30761 0.92647 0.01404
 C206 C 0.30800 0.92634 -0.01387
 C207 C 0.29586 0.94795 -0.02232
 N208 N 0.28875 0.96155 -0.00046
 C209 C 0.29568 0.94831 0.02170
 C210 C 0.28960 0.95433 -0.04948
 C211 C 0.28319 0.97942 -0.05594
 C212 C 0.26799 0.98680 -0.07740
 C213 C 0.26762 1.01254 -0.07721
 C214 C 0.28259 1.02032 -0.05564
 N215 N 0.29150 0.99999 -0.04236
 C216 C 0.28866 1.04553 -0.04902
 C217 C 0.29499 1.05191 -0.02188
 C218 C 0.30853 1.07292 -0.01375
 C219 C 0.30832 1.07302 0.01414
 C220 C 0.29465 1.05206 0.02220
 N221 N 0.28692 1.03891 0.00013
 C222 C 0.28826 1.04570 0.04935
 C223 C 0.28238 1.02043 0.05603
 C224 C 0.26873 1.01230 0.07851
 C225 C 0.26924 0.98652 0.07831
 C226 C 0.28281 0.97960 0.05552
 N227 N 0.29045 1.00029 0.04185
 C228 C 0.28919 0.95482 0.04854
 H229 H 0.31531 0.91218 0.02718
 H230 H 0.31648 0.91200 -0.02632
 H231 H 0.30268 1.00065 0.02526
 H232 H 0.25758 0.97497 -0.09135
 H233 H 0.25693 1.02408 -0.09102
 H234 H 0.31807 1.08654 -0.02646
 H235 H 0.31770 1.08671 0.02692
 H236 H 0.26038 0.97431 0.09310
 H237 H 0.30445 1.00024 -0.02643
 H238 H 0.25899 1.02355 0.09339
 C239 C 0.77508 0.57690 0.48656
 C240 C 0.77501 0.57683 0.51448
 C241 C 0.78313 0.55333 0.52248
 N242 N 0.78849 0.53921 0.50042
 C243 C 0.78350 0.55353 0.47842
 C244 C 0.78712 0.54586 0.54967
 C245 C 0.79278 0.52099 0.55725
 C246 C 0.80143 0.51379 0.58267
 C247 C 0.80219 0.48801 0.58266
 C248 C 0.79374 0.48015 0.55732
 N249 N 0.78814 0.50038 0.54195
 C250 C 0.78948 0.45488 0.54975
 C251 C 0.78570 0.44731 0.52246
 C252 C 0.77703 0.42388 0.51439
 C253 C 0.77687 0.42392 0.48649
 C254 C 0.78547 0.44736 0.47840
 N255 N 0.79090 0.46163 0.50042
 C256 C 0.78914 0.45496 0.45113
 C257 C 0.79355 0.48022 0.44368
 C258 C 0.80296 0.48800 0.41873
 C259 C 0.80248 0.51378 0.41874
 C260 C 0.79278 0.52106 0.44369
 N261 N 0.78748 0.50049 0.45882
 C262 C 0.78762 0.54611 0.45118
 H263 H 0.76954 0.59244 0.47381
 H264 H 0.76971 0.59237 0.52737
 H265 H 0.77745 0.50017 0.47697
 H266 H 0.80627 0.52579 0.59967
 H267 H 0.80791 0.47639 0.59958
 H268 H 0.77108 0.40845 0.52720
 H269 H 0.77079 0.40851 0.47370
 H270 H 0.80849 0.52577 0.40217
 H271 H 0.77860 0.50003 0.52351
 H272 H 0.80938 0.47633 0.40216
 O273 O 0.24556 0.21103 0.23872
 O274 O 0.22986 0.26370 0.28399
 O275 O 0.21139 0.24553 0.23883
 O276 O 0.26397 0.22916 0.28391
 O277 O 0.28912 0.25406 0.26027
 O278 O 0.23654 0.27040 0.21515
 O279 O 0.25500 0.28858 0.26029
 O280 O 0.27072 0.23593 0.21508
 Cu281 Cu 0.23517 0.23485 0.26374
 Cu282 Cu 0.26537 0.26474 0.23532
 C283 C 0.26069 0.21457 0.21910
 C284 C 0.23990 0.28506 0.27994
 C285 C 0.21506 0.26061 0.21921
 C286 C 0.28545 0.23895 0.27987
 O287 O 0.75440 0.78955 0.23971
 O288 O 0.77023 0.73673 0.28466
 O289 O 0.78859 0.75508 0.23954
 O290 O 0.73600 0.77118 0.28476
 O291 O 0.71090 0.74633 0.26097
 O292 O 0.76347 0.73023 0.21579
 O293 O 0.74512 0.71188 0.26089
 O294 O 0.72929 0.76469 0.21594
 Cu295 Cu 0.76483 0.76562 0.26456
 Cu296 Cu 0.73467 0.73578 0.23602
 C297 C 0.73927 0.78606 0.22008
 C298 C 0.76024 0.71536 0.28053
 C299 C 0.78493 0.74006 0.21985
 C300 C 0.71453 0.76139 0.28063
 O301 O 0.78950 0.24592 0.23931
 O302 O 0.73672 0.22949 0.28449
 O303 O 0.75506 0.21113 0.23954
 O304 O 0.77123 0.26422 0.28436
 O305 O 0.74633 0.28878 0.26048
 O306 O 0.73016 0.23568 0.21564
 O307 O 0.71183 0.25405 0.26059
 O308 O 0.76460 0.27048 0.21544
 Cu309 Cu 0.76563 0.23523 0.26432
 Cu310 Cu 0.73574 0.26472 0.23564
 C311 C 0.78598 0.26086 0.21958
 C312 C 0.71534 0.23909 0.28031
 C313 C 0.73998 0.21441 0.21987
 C314 C 0.76140 0.28548 0.28016
 O315 O 0.26951 0.76387 0.21519
 O316 O 0.25330 0.71112 0.26045
 O317 O 0.23499 0.72918 0.21534
 O318 O 0.28785 0.74581 0.26029
 O319 O 0.26306 0.77057 0.28404
 O320 O 0.21018 0.75395 0.23908
 O321 O 0.22850 0.73588 0.28421
 O322 O 0.24471 0.78864 0.23894
 Cu323 Cu 0.26391 0.73500 0.23544
 Cu324 Cu 0.23412 0.76475 0.26396
 C325 C 0.25973 0.78518 0.21926
 C326 C 0.23827 0.71457 0.28012
 C327 C 0.21364 0.73887 0.21945
 C328 C 0.28441 0.76090 0.27991
 O329 O 0.75547 0.20998 0.75980
 O330 O 0.77161 0.26322 0.71519
 O331 O 0.78991 0.24476 0.76015
 O332 O 0.73710 0.22848 0.71493
 O333 O 0.71223 0.25296 0.73894
 O334 O 0.76502 0.26923 0.78414
 O335 O 0.74673 0.28769 0.73920
 O336 O 0.73059 0.23446 0.78379
 Cu337 Cu 0.76603 0.23415 0.73510
 Cu338 Cu 0.73615 0.26355 0.76393
 C339 C 0.74041 0.21321 0.77949
 C340 C 0.76178 0.28447 0.71950
 C341 C 0.78640 0.25963 0.77995
 C342 C 0.71572 0.23807 0.71915
 O343 O 0.28752 0.74637 0.73922
 O344 O 0.23469 0.73017 0.78439
 O345 O 0.25286 0.71179 0.73936
 O346 O 0.26935 0.76470 0.78425
 O347 O 0.24458 0.78945 0.76045
 O348 O 0.22810 0.73651 0.71550
 O349 O 0.20991 0.75489 0.76056
 O350 O 0.26276 0.77111 0.71539
 Cu351 Cu 0.26359 0.73577 0.76419
 Cu352 Cu 0.23385 0.76547 0.73558
 C353 C 0.28409 0.76138 0.71953
 C354 C 0.21336 0.73991 0.78027
 C355 C 0.23780 0.71519 0.71970
 C356 C 0.25965 0.78603 0.78010
 O357 O 0.21179 0.24535 0.76122
 O358 O 0.26433 0.22877 0.71617
 O359 O 0.24581 0.21070 0.76135
 O360 O 0.23034 0.26344 0.71609
 O361 O 0.25556 0.28822 0.73980
 O362 O 0.27105 0.23550 0.78501
 O363 O 0.28956 0.25358 0.73985
 O364 O 0.23702 0.27013 0.78492
 Cu365 Cu 0.23553 0.23457 0.73633
 Cu366 Cu 0.26583 0.26435 0.76478
 C367 C 0.21551 0.26043 0.78084
 C368 C 0.28583 0.23849 0.72023
 C369 C 0.26094 0.21418 0.78099
 C370 C 0.24045 0.28476 0.72015
 O371 O 0.73562 0.77165 0.71537
 O372 O 0.78821 0.75526 0.76047
 O373 O 0.76958 0.73693 0.71545
 O374 O 0.75429 0.79002 0.76031
 O375 O 0.72904 0.76542 0.78422
 O376 O 0.74434 0.71236 0.73937
 O377 O 0.76295 0.73068 0.78437
 O378 O 0.71039 0.74706 0.73930
 Cu379 Cu 0.76446 0.76593 0.73550
 Cu380 Cu 0.73415 0.73641 0.76422
 C381 C 0.71409 0.76202 0.71958
 C382 C 0.78447 0.74031 0.78021
 C383 C 0.75944 0.71566 0.71968
 C384 C 0.73917 0.78671 0.77999
 N385 N 0.28206 0.10698 0.08143
 C386 C 0.28396 0.10113 0.10816
 N387 N 0.28758 0.07693 0.11542
 N388 N 0.28919 0.05912 0.09649
 C389 C 0.28716 0.06472 0.06956
 N390 N 0.28366 0.08914 0.06254
 C391 C 0.28135 0.12027 0.12847
 C392 C 0.27871 0.13653 0.14525
 C393 C 0.27502 0.15612 0.16483
 N394 N 0.28616 0.17885 0.16141
 N395 N 0.28187 0.19739 0.17894
 C396 C 0.26628 0.19382 0.20048
 N397 N 0.25523 0.17100 0.20392
 N398 N 0.25952 0.15246 0.18637
 N399 N 0.76035 0.59059 0.59866
 C400 C 0.78122 0.60092 0.60994
 N401 N 0.80411 0.59302 0.60162
 N402 N 0.80604 0.57534 0.58257
 C403 C 0.78514 0.56500 0.57126
 N404 N 0.76227 0.57292 0.57963
 C405 C 0.77900 0.62035 0.62998
 C406 C 0.77661 0.63683 0.64655
 C407 C 0.77317 0.65663 0.66595
 N408 N 0.75776 0.65327 0.68762
 N409 N 0.75366 0.67200 0.70498
 C410 C 0.76483 0.69472 0.70123
 N411 N 0.78033 0.69800 0.67957
 N412 N 0.78442 0.67927 0.66220
 N413 N 0.71220 0.89311 0.08310
 C414 C 0.71578 0.89962 0.10946
 N415 N 0.71777 0.92422 0.11605
 N416 N 0.71630 0.94176 0.09682
 C417 C 0.71287 0.93545 0.07022
 N418 N 0.71074 0.91066 0.06391
 C419 C 0.71840 0.88061 0.12990
 C420 C 0.72105 0.86437 0.14669
 C421 C 0.72475 0.84474 0.16620
 N422 N 0.74027 0.84832 0.18774
 N423 N 0.74462 0.82971 0.20517
 C424 C 0.73361 0.80688 0.20160
 N425 N 0.71800 0.80339 0.18007
 N426 N 0.71365 0.82200 0.16265
 N427 N 0.23951 0.40845 0.59773
 C428 C 0.21863 0.39889 0.60974
 N429 N 0.19581 0.40755 0.60215
 N430 N 0.19395 0.42525 0.58311
 C431 C 0.21487 0.43484 0.57108
 N432 N 0.23767 0.42613 0.57870
 C433 C 0.22077 0.37953 0.62986
 C434 C 0.22312 0.36312 0.64652
 C435 C 0.22657 0.34344 0.66604
 N436 N 0.21537 0.32076 0.66244
 N437 N 0.21950 0.30213 0.67992
 C438 C 0.23499 0.30557 0.70157
 N439 N 0.24610 0.32834 0.70518
 N440 N 0.24197 0.34696 0.68770
 N441 N 0.89360 0.28201 0.08179
 C442 C 0.89939 0.28518 0.10840
 N443 N 0.92347 0.29026 0.11545
 N444 N 0.94121 0.29204 0.09641
 C445 C 0.93564 0.28878 0.06960
 N446 N 0.91135 0.28379 0.06281
 C447 C 0.88034 0.28244 0.12883
 C448 C 0.86410 0.27967 0.14567
 C449 C 0.84451 0.27583 0.16530
 N450 N 0.82177 0.28656 0.16176
 N451 N 0.80320 0.28208 0.17930
 C452 C 0.80676 0.26670 0.20096
 N453 N 0.82959 0.25606 0.20452
 N454 N 0.84815 0.26054 0.18696
 N455 N 0.42059 0.77379 0.61255
 C456 C 0.39858 0.78608 0.60972
 N457 N 0.39476 0.80025 0.58722
 N458 N 0.41239 0.80202 0.56807
 C459 C 0.43442 0.78960 0.57075
 N460 N 0.43822 0.77555 0.59341
 C461 C 0.37917 0.78326 0.62974
 C462 C 0.36271 0.78040 0.64630
 C463 C 0.34294 0.77643 0.66569
 N464 N 0.32023 0.78720 0.66202
 N465 N 0.30155 0.78267 0.67940
 C466 C 0.30495 0.76720 0.70102
 N467 N 0.32774 0.75652 0.70469
 N468 N 0.34642 0.76105 0.68730
 N469 N 0.10592 0.71759 0.08185
 C470 C 0.10009 0.71450 0.10846
 N471 N 0.07598 0.70961 0.11550
 N472 N 0.05823 0.70793 0.09646
 C473 C 0.06383 0.71112 0.06965
 N474 N 0.08815 0.71592 0.06286
 C475 C 0.11915 0.71719 0.12890
 C476 C 0.13540 0.71993 0.14573
 C477 C 0.15500 0.72377 0.16534
 N478 N 0.15143 0.73918 0.18692
 N479 N 0.17002 0.74370 0.20443
 C480 C 0.19281 0.73298 0.20092
 N481 N 0.19630 0.71747 0.17934
 N482 N 0.17770 0.71295 0.16184
 N483 N 0.60417 0.22624 0.58437
 C484 C 0.60183 0.21408 0.60846
 N485 N 0.58113 0.19975 0.61309
 N486 N 0.56332 0.19764 0.59416
 C487 C 0.56562 0.20979 0.56997
 N488 N 0.58638 0.22415 0.56546
 C489 C 0.62096 0.21669 0.62884
 C490 C 0.63728 0.21938 0.64560
 C491 C 0.65696 0.22317 0.66513
 N492 N 0.65340 0.23839 0.68688
 N493 N 0.67205 0.24285 0.70433
 C494 C 0.69488 0.23227 0.70061
 N495 N 0.69835 0.21695 0.67886
 N496 N 0.67970 0.21249 0.66141
 N497 N 0.71953 0.07487 0.88414
 C498 C 0.71709 0.09948 0.89035
 N499 N 0.71317 0.10619 0.91656
 N500 N 0.71185 0.08884 0.93600
 C501 C 0.71450 0.06407 0.93011
 N502 N 0.71820 0.05753 0.90363
 C503 C 0.71961 0.11833 0.86968
 C504 C 0.72219 0.13453 0.85278
 C505 C 0.72580 0.15420 0.83322
 N506 N 0.71480 0.17679 0.83687
 N507 N 0.71915 0.19550 0.81948
 C508 C 0.73468 0.19225 0.79788
 N509 N 0.74559 0.16956 0.79421
 N510 N 0.74123 0.15086 0.81161
 N511 N 0.22780 0.57898 0.38819
 C512 C 0.21412 0.60022 0.39018
 N513 N 0.19869 0.60327 0.41185
 N514 N 0.19704 0.58563 0.43099
 C515 C 0.21083 0.56437 0.42914
 N516 N 0.22617 0.56135 0.40732
 C517 C 0.21676 0.61966 0.37018
 C518 C 0.21950 0.63612 0.35359
 C519 C 0.22338 0.65584 0.33415
 N520 N 0.21256 0.67853 0.33777
 N521 N 0.21703 0.69717 0.32032
 C522 C 0.23249 0.69375 0.29869
 N523 N 0.24321 0.67097 0.29506
 N524 N 0.23874 0.65234 0.31251
 N525 N 0.28267 0.89333 0.91772
 C526 C 0.28443 0.89949 0.89106
 N527 N 0.28821 0.92380 0.88409
 N528 N 0.29011 0.94141 0.90325
 C529 C 0.28826 0.93547 0.93013
 N530 N 0.28456 0.91096 0.93683
 C531 C 0.28157 0.88053 0.87055
 C532 C 0.27872 0.86432 0.85370
 C533 C 0.27481 0.84471 0.83412
 N534 N 0.25935 0.84826 0.81257
 N535 N 0.25480 0.82965 0.79509
 C536 C 0.26554 0.80687 0.79861
 N537 N 0.28110 0.80342 0.82015
 N538 N 0.28565 0.82202 0.83762
 N539 N 0.77213 0.42165 0.38770
 C540 C 0.78509 0.40000 0.39018
 N541 N 0.79972 0.39648 0.41241
 N542 N 0.80126 0.41405 0.43164
 C543 C 0.78817 0.43571 0.42932
 N544 N 0.77367 0.43921 0.40693
 C545 C 0.78251 0.38062 0.37008
 C546 C 0.77984 0.36418 0.35345
 C547 C 0.77607 0.34442 0.33401
 N548 N 0.78701 0.32180 0.33767
 N549 N 0.78262 0.30310 0.32026
 C550 C 0.76712 0.30640 0.29863
 N551 N 0.75628 0.32911 0.29497
 N552 N 0.76067 0.34780 0.31237
 N553 N 0.07815 0.29013 0.88433
 C554 C 0.10216 0.28524 0.89148
 N555 N 0.10787 0.28229 0.91812
 N556 N 0.09009 0.28409 0.93704
 C557 C 0.06587 0.28889 0.93016
 N558 N 0.06039 0.29194 0.90331
 C559 C 0.12123 0.28245 0.87112
 C560 C 0.13747 0.27962 0.85436
 C561 C 0.15706 0.27568 0.83482
 N562 N 0.15325 0.26024 0.81327
 N563 N 0.17179 0.25566 0.79581
 C564 C 0.19478 0.26636 0.79936
 N565 N 0.19850 0.28190 0.82091
 N566 N 0.17996 0.28647 0.83836
 N567 N 0.57799 0.77383 0.38724
 C568 C 0.60016 0.78620 0.39008
 N569 N 0.60412 0.80046 0.41254
 N570 N 0.58647 0.80222 0.43164
 C571 C 0.56429 0.78971 0.42897
 N572 N 0.56035 0.77558 0.40634
 C573 C 0.61958 0.78336 0.37013
 C574 C 0.63605 0.78048 0.35363
 C575 C 0.65581 0.77648 0.33432
 N576 N 0.67868 0.78728 0.33803
 N577 N 0.69733 0.78273 0.32070
 C578 C 0.69374 0.76720 0.29911
 N579 N 0.67079 0.75648 0.29541
 N580 N 0.65214 0.76104 0.31274
 N581 N 0.89180 0.71888 0.91787
 C582 C 0.89757 0.71581 0.89125
 N583 N 0.92157 0.71076 0.88420
 N584 N 0.93926 0.70889 0.90324
 C585 C 0.93372 0.71204 0.93007
 N586 N 0.90952 0.71701 0.93686
 C587 C 0.87857 0.71862 0.87081
 C588 C 0.86237 0.72143 0.85399
 C589 C 0.84283 0.72530 0.83439
 N590 N 0.81992 0.71456 0.83794
 N591 N 0.80141 0.71905 0.82042
 C592 C 0.80518 0.73447 0.79879
 N593 N 0.82818 0.74513 0.79523
 N594 N 0.84669 0.74063 0.81275
 N595 N 0.39633 0.22688 0.41515
 C596 C 0.39853 0.21479 0.39102
 N597 N 0.41897 0.20041 0.38642
 N598 N 0.43668 0.19821 0.40542
 C599 C 0.43451 0.21030 0.42965
 N600 N 0.41401 0.22469 0.43413
 C601 C 0.37954 0.21749 0.37056
 C602 C 0.36334 0.22023 0.35371
 C603 C 0.34381 0.22405 0.33408
 N604 N 0.32097 0.21313 0.33752
 N605 N 0.30246 0.21758 0.31999
 C606 C 0.30616 0.23314 0.29846
 N607 N 0.32909 0.24397 0.29501
 N608 N 0.34760 0.23951 0.31255
 N609 N 0.71337 0.89378 0.91706
 C610 C 0.71666 0.90045 0.89072
 N611 N 0.71843 0.92510 0.88428
 N612 N 0.71705 0.94253 0.90366
 C613 C 0.71394 0.93604 0.93026
 N614 N 0.71200 0.91121 0.93640
 C615 C 0.71916 0.88154 0.87013
 C616 C 0.72168 0.86532 0.85329
 C617 C 0.72519 0.84563 0.83377
 N618 N 0.74072 0.84905 0.81221
 N619 N 0.74490 0.83036 0.79482
 C620 C 0.73371 0.80763 0.79843
 N621 N 0.71809 0.80431 0.81999
 N622 N 0.71391 0.82299 0.83737
 N623 N 0.19547 0.40759 0.39842
 C624 C 0.21825 0.39892 0.39073
 N625 N 0.23919 0.40843 0.40267
 N626 N 0.23743 0.42608 0.42174
 C627 C 0.21467 0.43481 0.42947
 N628 N 0.19370 0.42526 0.41751
 C629 C 0.22030 0.37960 0.37054
 C630 C 0.22259 0.36324 0.35381
 C631 C 0.22600 0.34362 0.33420
 N632 N 0.24133 0.34721 0.31252
 N633 N 0.24546 0.32864 0.29497
 C634 C 0.23441 0.30584 0.29855
 N635 N 0.21896 0.30233 0.32023
 N636 N 0.21484 0.32091 0.33777
 N637 N 0.28714 0.07645 0.88478
 C638 C 0.28398 0.10074 0.89198
 N639 N 0.28266 0.10675 0.91871
 N640 N 0.28437 0.08899 0.93766
 C641 C 0.28743 0.06449 0.93072
 N642 N 0.28885 0.05871 0.90377
 C643 C 0.28133 0.11983 0.87162
 C644 C 0.27869 0.13608 0.85483
 C645 C 0.27505 0.15568 0.83525
 N646 N 0.28628 0.17837 0.83868
 N647 N 0.28205 0.19692 0.82114
 C648 C 0.26644 0.19341 0.79961
 N649 N 0.25530 0.17063 0.79617
 N650 N 0.25952 0.15208 0.81371
 N651 N 0.79824 0.60481 0.41261
 C652 C 0.78359 0.60110 0.39039
 N653 N 0.77059 0.57927 0.38788
 N654 N 0.77211 0.56170 0.40707
 C655 C 0.78663 0.56539 0.42946
 N656 N 0.79977 0.58723 0.43180
 C657 C 0.78104 0.62046 0.37033
 C658 C 0.77840 0.63688 0.35374
 C659 C 0.77468 0.65661 0.33433
 N660 N 0.78575 0.67934 0.33797
 N661 N 0.78143 0.69799 0.32059
 C662 C 0.76587 0.69453 0.29900
 N663 N 0.75489 0.67170 0.29536
 N664 N 0.75921 0.65306 0.31274
 N665 N 0.07756 0.70503 0.88559
 C666 C 0.09987 0.71616 0.89149
 N667 N 0.10388 0.72520 0.91691
 N668 N 0.08612 0.72320 0.93587
 C669 C 0.06372 0.71208 0.93009
 N670 N 0.05979 0.70302 0.90457
 C671 C 0.11892 0.71881 0.87103
 C672 C 0.13516 0.72149 0.85419
 C673 C 0.15476 0.72523 0.83455
 N674 N 0.17744 0.71436 0.83807
 N675 N 0.19603 0.71875 0.82053
 C676 C 0.19255 0.73417 0.79888
 N677 N 0.16978 0.74495 0.79535
 N678 N 0.15120 0.74056 0.81290
 N679 N 0.58088 0.20034 0.38634
 C680 C 0.60158 0.21466 0.39101
 N681 N 0.60397 0.22670 0.41517
 N682 N 0.58622 0.22451 0.43411
 C683 C 0.56546 0.21017 0.42957
 N684 N 0.56311 0.19813 0.40530
 C685 C 0.62067 0.21736 0.37062
 C686 C 0.63697 0.22012 0.35384
 C687 C 0.65663 0.22398 0.33431
 N688 N 0.65304 0.23928 0.31264
 N689 N 0.67167 0.24381 0.29518
 C690 C 0.69451 0.23322 0.29885
 N691 N 0.69801 0.21783 0.32051
 N692 N 0.67938 0.21330 0.33796
 N693 N 0.89578 0.27448 0.91673
 C694 C 0.89975 0.28360 0.89134
 N695 N 0.92198 0.29490 0.88550
 N696 N 0.93972 0.29701 0.90450
 C697 C 0.93583 0.28787 0.92999
 N698 N 0.91351 0.27657 0.93572
 C699 C 0.88072 0.28087 0.87086
 C700 C 0.86451 0.27814 0.85399
 C701 C 0.84492 0.27437 0.83433
 N702 N 0.84856 0.25915 0.81260
 N703 N 0.83001 0.25474 0.79501
 C704 C 0.80718 0.26539 0.79860
 N705 N 0.80363 0.28070 0.82033
 N706 N 0.82219 0.28511 0.83790
 N707 N 0.39502 0.80023 0.41214
 C708 C 0.39886 0.78601 0.38967
 N709 N 0.42086 0.77368 0.38691
 N710 N 0.43845 0.77544 0.40610
 C711 C 0.43462 0.78954 0.42873
 N712 N 0.41261 0.80199 0.43133
 C713 C 0.37948 0.78316 0.36961
 C714 C 0.36303 0.78028 0.35304
 C715 C 0.34327 0.77625 0.33365
 N716 N 0.34678 0.76082 0.31208
 N717 N 0.32810 0.75620 0.29471
 C718 C 0.30528 0.76684 0.29836
 N719 N 0.30186 0.78237 0.31993
 N720 N 0.32055 0.78699 0.33730
 N721 N 0.29417 0.92112 0.11417
 C722 C 0.28360 0.89860 0.10803
 N723 N 0.27508 0.89443 0.08243
 N724 N 0.27703 0.91223 0.06353
 C725 C 0.28758 0.93484 0.06954
 N726 N 0.29614 0.93893 0.09524
 C727 C 0.28093 0.87953 0.12845
 C728 C 0.27823 0.86328 0.14528
 C729 C 0.27445 0.84370 0.16492
 N730 N 0.25908 0.84727 0.18654
 N731 N 0.25468 0.82871 0.20411
 C732 C 0.26548 0.80596 0.20062
 N733 N 0.28095 0.80247 0.17901
 N734 N 0.28535 0.82103 0.16144
 N735 N 0.80042 0.39640 0.58829
 C736 C 0.78542 0.39958 0.61029
 N737 N 0.77208 0.42100 0.61267
 N738 N 0.77362 0.43869 0.59359
 C739 C 0.78852 0.43554 0.57144
 N740 N 0.80197 0.41410 0.56920
 C741 C 0.78286 0.38007 0.63023
 C742 C 0.78021 0.36353 0.64673
 C743 C 0.77645 0.34367 0.66603
 N744 N 0.76108 0.34695 0.68770
 N745 N 0.75669 0.32816 0.70499
 C746 C 0.76751 0.30546 0.70116
 N747 N 0.78297 0.30227 0.67949
 N748 N 0.78736 0.32106 0.66220
 N749 N 0.70517 0.10500 0.08571
 C750 C 0.71574 0.09980 0.11014
 N751 N 0.72470 0.07647 0.11480
 N752 N 0.72323 0.05889 0.09556
 C753 C 0.71281 0.06406 0.07097
 N754 N 0.70370 0.08743 0.06648
 C755 C 0.71845 0.11908 0.13031
 C756 C 0.72120 0.13552 0.14693
 C757 C 0.72505 0.15532 0.16630
 N758 N 0.74050 0.15198 0.18789
 N759 N 0.74498 0.17073 0.20521
 C760 C 0.73419 0.19346 0.20148
 N761 N 0.71864 0.19671 0.17988
 N762 N 0.71417 0.17796 0.16257
 N763 N 0.19820 0.60330 0.58850
 C764 C 0.21359 0.60037 0.61021
 N765 N 0.22734 0.57918 0.61230
 N766 N 0.22581 0.56149 0.59321
 C767 C 0.21052 0.56441 0.57134
 N768 N 0.19666 0.58561 0.56940
 C769 C 0.21616 0.61989 0.63014
 C770 C 0.21887 0.63642 0.64666
 C771 C 0.22274 0.65622 0.66602
 N772 N 0.23809 0.65279 0.68768
 N773 N 0.24260 0.67150 0.70502
 C774 C 0.23194 0.69428 0.70126
 N775 N 0.21650 0.69763 0.67960
 N776 N 0.21199 0.67891 0.66225
 N777 N 0.91989 0.70510 0.11415
 C778 C 0.89786 0.71646 0.10838
 N779 N 0.89404 0.72569 0.08303
 N780 N 0.91173 0.72366 0.06403
 C781 C 0.93385 0.71232 0.06969
 N782 N 0.93759 0.70306 0.09513
 C783 C 0.87889 0.71912 0.12887
 C784 C 0.86273 0.72179 0.14576
 C785 C 0.84322 0.72551 0.16544
 N786 N 0.84702 0.74089 0.18706
 N787 N 0.82854 0.74524 0.20465
 C788 C 0.80562 0.73437 0.20121
 N789 N 0.80191 0.71889 0.17960
 N790 N 0.82040 0.71454 0.16200
 N791 N 0.41919 0.19991 0.61339
 C792 C 0.39876 0.21433 0.60892
 N793 N 0.39652 0.22653 0.58486
 N794 N 0.41416 0.22441 0.56583
 C795 C 0.43466 0.20998 0.57018
 N796 N 0.43685 0.19777 0.59434
 C797 C 0.37980 0.21697 0.62943
 C798 C 0.36364 0.21968 0.64631
 C799 C 0.34413 0.22349 0.66597
 N800 N 0.34798 0.23890 0.68755
 N801 N 0.32949 0.24339 0.70510
 C802 C 0.30653 0.23262 0.70164
 N803 N 0.30277 0.21710 0.68007
 N804 N 0.32126 0.21263 0.66253
 N805 N 0.07971 0.29570 0.11410
 C806 C 0.10181 0.28452 0.10821
 N807 N 0.10561 0.27540 0.08281
 N808 N 0.08786 0.27737 0.06387
 C809 C 0.06567 0.28854 0.06965
 N810 N 0.06194 0.29768 0.09515
 C811 C 0.12084 0.28189 0.12864
 C812 C 0.13707 0.27920 0.14546
 C813 C 0.15663 0.27543 0.16506
 N814 N 0.15286 0.26002 0.18664
 N815 N 0.17140 0.25559 0.20416
 C816 C 0.19433 0.26641 0.20065
 N817 N 0.19801 0.28192 0.17907
 N818 N 0.17947 0.28635 0.16156
 N819 N 0.60385 0.80089 0.58745
 C820 C 0.59986 0.78671 0.60995
 N821 N 0.57771 0.77431 0.61277
 N822 N 0.56011 0.77596 0.59361
 C823 C 0.56409 0.79002 0.57094
 N824 N 0.58626 0.80256 0.56829
 C825 C 0.61925 0.78396 0.62996
 C826 C 0.63569 0.78114 0.64650
 C827 C 0.65542 0.77718 0.66586
 N828 N 0.65167 0.76188 0.68754
 N829 N 0.67030 0.75732 0.70489
 C830 C 0.69331 0.76789 0.70111
 N831 N 0.69697 0.78328 0.67943
 N832 N 0.67834 0.78784 0.66208
   
