data_POSCAR
  _audit_creation_date              2014-09-24
  _audit_creation_method            'ToBaCCo'
  _symmetry_space_group_name_H-M    'P1'
  _symmetry_Int_Tables_number       1
  _symmetry_cell_setting            triclinic
  loop_
  _symmetry_equiv_pos_as_xyz
 x,y,z
_cell_length_a 22.4776
_cell_length_b 22.4776
_cell_length_c 22.4146
_cell_angle_alpha 89.931800
_cell_angle_beta 89.931800
_cell_angle_gamma 90.110900
loop_
  _atom_site_label
  _atom_site_type_symbol
  _atom_site_fract_x
  _atom_site_fract_y
  _atom_site_fract_z
O1 O -0.05757 0.30070 0.05729
 O2 O 0.05834 0.30078 -0.05902
 O3 O -0.05750 0.30055 -0.05885
 O4 O 0.05819 0.30081 0.05713
 O5 O 0.05812 0.20239 0.05727
 O6 O -0.05753 0.20214 -0.05863
 O7 O 0.05828 0.20239 -0.05881
 O8 O -0.05761 0.20230 0.05745
 Cu9 Cu 0.00037 0.31067 -0.00090
 Cu10 Cu 0.00031 0.19235 -0.00068
 C11 C -0.07712 0.25147 0.07702
 C12 C 0.07789 0.25160 -0.07853
 C13 C -0.07704 0.25128 -0.07828
 C14 C 0.07764 0.25162 0.07678
 O15 O 0.44225 0.80154 0.55802
 O16 O 0.55802 0.80150 0.44160
 O17 O 0.44210 0.80140 0.44178
 O18 O 0.55817 0.80113 0.55790
 O19 O 0.55782 0.70274 0.55787
 O20 O 0.44181 0.70301 0.44185
 O21 O 0.55770 0.70311 0.44163
 O22 O 0.44192 0.70315 0.55803
 Cu23 Cu 0.50018 0.81131 0.49982
 Cu24 Cu 0.49979 0.69308 0.49985
 C25 C 0.42253 0.75236 0.57765
 C26 C 0.57737 0.75230 0.42195
 C27 C 0.42236 0.75223 0.42222
 C28 C 0.57757 0.75187 0.57750
 O29 O 1.06010 0.69933 0.05829
 O30 O 0.94442 0.69905 -0.05821
 O31 O 1.06031 0.69940 -0.05813
 O32 O 0.94417 0.69958 0.05797
 O33 O 0.94435 0.79798 0.05763
 O34 O 1.06042 0.79778 -0.05837
 O35 O 0.94455 0.79743 -0.05849
 O36 O 1.06024 0.79770 0.05798
 Cu37 Cu 1.00229 0.68942 0.00002
 Cu38 Cu 1.00246 0.80764 -0.00034
 C39 C 1.07964 0.74855 0.07789
 C40 C 0.92492 0.74819 -0.07798
 C41 C 1.07987 0.74860 -0.07795
 C42 C 0.92462 0.74883 0.07733
 O43 O 0.44127 0.19807 0.44239
 O44 O 0.55681 0.19808 0.55855
 O45 O 0.44101 0.19832 0.55862
 O46 O 0.55705 0.19821 0.44241
 O47 O 0.55726 0.29661 0.44230
 O48 O 0.44128 0.29672 0.55840
 O49 O 0.55704 0.29649 0.55836
 O50 O 0.44151 0.29648 0.44225
 Cu51 Cu 0.49899 0.18821 0.50051
 Cu52 Cu 0.49928 0.30653 0.50031
 C53 C 0.42195 0.24727 0.42267
 C54 C 0.57642 0.24729 0.57803
 C55 C 0.42162 0.24756 0.57815
 C56 C 0.57672 0.24741 0.42275
 O57 O 0.69905 0.05634 -0.05730
 O58 O 0.69954 -0.05954 0.05904
 O59 O 0.69920 0.05628 0.05884
 O60 O 0.69953 -0.05940 -0.05716
 O61 O 0.79795 -0.05886 -0.05729
 O62 O 0.79761 0.05678 0.05863
 O63 O 0.79792 -0.05901 0.05885
 O64 O 0.79746 0.05686 -0.05744
 Cu65 Cu 0.68938 -0.00165 0.00089
 Cu66 Cu 0.80769 -0.00102 0.00069
 C67 C 0.74818 0.07613 -0.07702
 C68 C 0.74881 -0.07882 0.07860
 C69 C 0.74836 0.07606 0.07827
 C70 C 0.74881 -0.07857 -0.07685
 O71 O 0.19788 0.44197 0.55839
 O72 O 0.19794 0.55774 0.44193
 O73 O 0.19826 0.44182 0.44212
 O74 O 0.19807 0.55788 0.55828
 O75 O 0.29646 0.55808 0.55821
 O76 O 0.29665 0.44210 0.44216
 O77 O 0.29633 0.55797 0.44193
 O78 O 0.29627 0.44221 0.55835
 Cu79 Cu 0.18812 0.49984 0.50018
 Cu80 Cu 0.30635 0.50013 0.50016
 C81 C 0.24707 0.42257 0.57803
 C82 C 0.24715 0.57735 0.42224
 C83 C 0.24751 0.42238 0.42253
 C84 C 0.24726 0.57752 0.57789
 O85 O 0.30097 1.06024 0.05833
 O86 O 0.30067 0.94455 -0.05814
 O87 O 0.30043 1.06049 -0.05807
 O88 O 0.30061 0.94433 0.05802
 O89 O 0.20221 0.94422 0.05826
 O90 O 0.20205 1.06030 -0.05770
 O91 O 0.20229 0.94440 -0.05783
 O92 O 0.20260 1.06009 0.05862
 Cu93 Cu 0.31059 1.00247 -0.00000
 Cu94 Cu 0.19237 1.00229 0.00036
 C95 C 0.25183 1.07963 0.07822
 C96 C 0.25144 0.92488 -0.07758
 C97 C 0.25118 1.07994 -0.07754
 C98 C 0.25141 0.92463 0.07767
 O99 O 0.80109 0.44204 0.44145
 O100 O 0.80155 0.55759 0.55757
 O101 O 0.80096 0.44179 0.55759
 O102 O 0.80129 0.55784 0.44143
 O103 O 0.70289 0.55795 0.44164
 O104 O 0.70256 0.44195 0.55772
 O105 O 0.70314 0.55772 0.55772
 O106 O 0.70268 0.44217 0.44163
 Cu107 Cu 0.81118 0.49980 0.49948
 Cu108 Cu 0.69286 0.49996 0.49969
 C109 C 0.75181 0.42261 0.42196
 C110 C 0.75242 0.57713 0.57724
 C111 C 0.75169 0.42230 0.57725
 C112 C 0.75213 0.57747 0.42194
 C113 C 0.25034 0.20553 0.20487
 C114 C 0.20612 0.24986 0.20498
 C115 C 0.20598 0.29350 0.24954
 C116 C 0.24956 0.29344 0.29413
 C117 C 0.29378 0.24911 0.29408
 C118 C 0.29393 0.20545 0.24948
 H119 H 0.32802 0.17136 0.24950
 H120 H 0.17188 0.32760 0.24951
 C121 C 0.75055 0.79476 0.20473
 C122 C 0.79493 0.75058 0.20494
 C123 C 0.79474 0.70679 0.24945
 C124 C 0.75076 0.70662 0.29377
 C125 C 0.70642 0.75082 0.29362
 C126 C 0.70658 0.79461 0.24909
 H127 H 0.67242 0.82864 0.24895
 H128 H 0.82890 0.67275 0.24959
 C129 C 0.79398 0.24973 0.20549
 C130 C 0.74976 0.20525 0.20580
 C131 C 0.70594 0.20522 0.25026
 C132 C 0.70579 0.24916 0.29449
 C133 C 0.75002 0.29363 0.29419
 C134 C 0.79384 0.29366 0.24971
 H135 H 0.82789 0.32794 0.24953
 H136 H 0.67189 0.17095 0.25045
 C137 C 0.20540 0.75026 0.20470
 C138 C 0.24962 0.79478 0.20509
 C139 C 0.29326 0.79470 0.24967
 C140 C 0.29327 0.75071 0.29399
 C141 C 0.24899 0.70625 0.29373
 C142 C 0.20536 0.70628 0.24908
 H143 H 0.17132 0.67201 0.24888
 H144 H 0.32731 0.82898 0.24988
 C145 C 0.70541 0.24892 0.70580
 C146 C 0.74980 0.29323 0.70551
 C147 C 0.79373 0.29318 0.74973
 C148 C 0.79379 0.24936 0.79419
 C149 C 0.74942 0.20503 0.79450
 C150 C 0.70548 0.20509 0.75027
 H151 H 0.67128 0.17096 0.75045
 H152 H 0.82793 0.32730 0.74955
 C153 C 0.29349 0.75096 0.70597
 C154 C 0.24920 0.70650 0.70628
 C155 C 0.20561 0.70652 0.75102
 C156 C 0.20567 0.75047 0.79533
 C157 C 0.24980 0.79509 0.79486
 C158 C 0.29347 0.79499 0.75020
 H159 H 0.32753 0.82925 0.74987
 H160 H 0.17155 0.67226 0.75136
 C161 C 0.24857 0.29380 0.70664
 C162 C 0.29289 0.24957 0.70677
 C163 C 0.29293 0.20598 0.75148
 C164 C 0.24916 0.20600 0.79602
 C165 C 0.20473 0.25013 0.79579
 C166 C 0.20474 0.29378 0.75113
 H167 H 0.17057 0.32780 0.75099
 H168 H 0.32710 0.17195 0.75161
 C169 C 0.75126 0.70575 0.70536
 C170 C 0.70681 0.74986 0.70560
 C171 C 0.70690 0.79340 0.75022
 C172 C 0.75087 0.79340 0.79448
 C173 C 0.79542 0.74941 0.79415
 C174 C 0.79529 0.70581 0.74957
 H175 H 0.82951 0.67183 0.74928
 H176 H 0.67268 0.82737 0.75052
 C177 C 0.25188 0.12210 0.12130
 C178 C 0.25154 0.15992 0.15946
 C179 C 0.75254 0.62214 0.62239
 C180 C 0.75226 0.66009 0.66025
 C181 C 0.74903 0.87850 0.12147
 C182 C 0.74949 0.84050 0.15946
 C183 C 0.24709 0.37749 0.62335
 C184 C 0.24747 0.33951 0.66134
 C185 C 0.87779 0.25136 0.12231
 C186 C 0.83976 0.25090 0.16027
 C187 C 0.37737 0.75234 0.62288
 C188 C 0.33929 0.75199 0.66078
 C189 C 0.12208 0.74868 0.12100
 C190 C 0.15986 0.74910 0.15921
 C191 C 0.62149 0.24735 0.62313
 C192 C 0.65955 0.24778 0.66089
 C193 C 0.74808 0.12122 0.87768
 C194 C 0.74839 0.15924 0.83971
 C195 C 0.24723 0.62238 0.37686
 C196 C 0.24771 0.66038 0.33887
 C197 C 0.25130 0.87953 0.87737
 C198 C 0.25088 0.84123 0.83971
 C199 C 0.75159 0.37754 0.37687
 C200 C 0.75112 0.33948 0.33911
 C201 C 0.12069 0.25156 0.87874
 C202 C 0.15883 0.25120 0.84089
 C203 C 0.62247 0.75225 0.37665
 C204 C 0.66053 0.75187 0.33872
 C205 C 0.87968 0.74812 0.87686
 C206 C 0.84149 0.74841 0.83910
 C207 C 0.37711 0.24735 0.37735
 C208 C 0.33930 0.24783 0.33933
 C209 C 0.74904 0.87660 0.87784
 C210 C 0.74961 0.83883 0.83980
 C211 C 0.24772 0.37720 0.37732
 C212 C 0.24829 0.33917 0.33939
 C213 C 0.25099 0.12254 0.87954
 C214 C 0.25043 0.16043 0.84144
 C215 C 0.75214 0.62268 0.37678
 C216 C 0.75178 0.66078 0.33891
 C217 C 0.12238 0.74868 0.87903
 C218 C 0.16018 0.74918 0.84083
 C219 C 0.62190 0.24750 0.37756
 C220 C 0.65998 0.24798 0.33966
 C221 C 0.87781 0.25109 0.87674
 C222 C 0.83968 0.25055 0.83905
 C223 C 0.37714 0.75220 0.37707
 C224 C 0.33906 0.75179 0.33920
 C225 C 0.25133 0.87922 0.12260
 C226 C 0.25082 0.84089 0.16024
 C227 C 0.75146 0.37712 0.62243
 C228 C 0.75094 0.33903 0.66032
 C229 C 0.74834 0.12122 0.12327
 C230 C 0.74871 0.15934 0.16095
 C231 C 0.24734 0.62262 0.62320
 C232 C 0.24788 0.66064 0.66114
 C233 C 0.87923 0.74902 0.12231
 C234 C 0.84095 0.74951 0.15999
 C235 C 0.37656 0.24773 0.62348
 C236 C 0.33860 0.24829 0.66149
 C237 C 0.12260 0.25160 0.12195
 C238 C 0.16051 0.25112 0.15984
 C239 C 0.62278 0.75164 0.62268
 C240 C 0.66089 0.75108 0.66052
   
