data_POSCAR
  _audit_creation_date              2014-09-24
  _audit_creation_method            'ToBaCCo'
  _symmetry_space_group_name_H-M    'P1'
  _symmetry_Int_Tables_number       1
  _symmetry_cell_setting            triclinic
  loop_
  _symmetry_equiv_pos_as_xyz
 x,y,z
_cell_length_a 36.0879
_cell_length_b 36.0868
_cell_length_c 36.1520
_cell_angle_alpha 89.717100
_cell_angle_beta 89.987600
_cell_angle_gamma 89.988100
loop_
  _atom_site_label
  _atom_site_type_symbol
  _atom_site_fract_x
  _atom_site_fract_y
  _atom_site_fract_z
N1 N 0.17961 0.17830 0.17956
 N2 N -0.17477 0.82385 0.17562
 N3 N -0.17738 0.17865 -0.17839
 N4 N 0.18095 0.82029 -0.18023
 N5 N 0.17871 1.17815 0.82047
 N6 N 0.81759 0.81763 0.81785
 N7 N 0.17924 0.82072 1.17970
 N8 N 0.81761 1.18274 1.18246
 N9 N 0.53957 1.06622 0.96016
 N10 N 0.56867 1.08807 0.95632
 N11 N 0.46149 1.04013 0.93494
 N12 N 0.43259 1.04416 0.91288
 N13 N 0.46185 1.06610 0.96021
 N14 N 0.43356 1.08883 0.95576
 N15 N 0.53976 1.04019 0.93492
 N16 N 0.56919 1.04332 0.91351
 C17 C 0.58681 1.07345 0.92702
 C18 C 0.41555 1.07478 0.92615
 N19 N 0.46187 0.93450 0.96037
 N20 N 0.43288 0.91254 0.95646
 N21 N 0.53991 0.96062 0.93498
 N22 N 0.56897 0.95716 0.91310
 N23 N 0.53973 0.93439 0.96028
 N24 N 0.56841 0.91207 0.95598
 N25 N 0.46164 0.96073 0.93510
 N26 N 0.43224 0.95771 0.91365
 Mn27 Mn 0.50071 1.00041 0.93452
 C28 C 0.41471 0.92740 0.92716
 C29 C 0.58638 0.92665 0.92639
 N30 N 0.46165 1.06541 1.03974
 N31 N 0.43212 1.08670 1.04292
 N32 N 0.54027 1.03995 1.06527
 N33 N 0.56895 1.04437 1.08752
 N34 N 0.53961 1.06607 1.03988
 N35 N 0.56752 1.08921 1.04441
 N36 N 0.46216 1.04002 1.06589
 N37 N 0.43319 1.04369 1.08790
 Mn38 Mn 0.50066 1.06639 1.00003
 C39 C 0.41477 1.07298 1.07322
 C40 C 0.58562 1.07530 1.07419
 N41 N 0.53989 0.93429 1.04009
 N42 N 0.56928 0.91274 1.04347
 N43 N 0.46221 0.95993 1.06601
 N44 N 0.43318 0.95609 1.08797
 N45 N 0.46183 0.93464 1.04001
 N46 N 0.43236 0.91325 1.04328
 N47 N 0.54028 0.96036 1.06530
 N48 N 0.57010 0.95754 1.08620
 Mn49 Mn 0.50082 0.93396 1.00023
 Mn50 Mn 0.50124 1.00004 1.06612
 Cl51 Cl 0.50086 1.00020 1.00023
 C52 C 0.58777 0.92755 1.07245
 C53 C 0.41487 0.92678 1.07345
 N54 N 0.03897 0.46093 0.06614
 N55 N 0.04188 0.43164 0.08797
 N56 N 0.06585 0.53860 0.04017
 N57 N 0.08876 0.56672 0.04454
 N58 N 0.03955 0.53929 0.06525
 N59 N 0.04355 0.56828 0.08706
 N60 N 0.06534 0.46090 0.04111
 N61 N 0.08719 0.43190 0.04552
 C62 C 0.07225 0.41395 0.07491
 C63 C 0.07449 0.58502 0.07387
 N64 N 0.04162 0.53780 -0.06591
 N65 N 0.04655 0.56576 -0.08900
 N66 N 0.06613 0.45994 -0.03851
 N67 N 0.08774 0.43057 -0.04140
 N68 N 0.04108 0.46015 -0.06485
 N69 N 0.04527 0.43123 -0.08666
 N70 N 0.06664 0.53831 -0.03954
 N71 N 0.08898 0.56702 -0.04371
 Mn72 Mn 0.06647 0.49945 0.00078
 C73 C 0.07617 0.58374 -0.07481
 C74 C 0.07451 0.41304 -0.07170
 N75 N -0.04015 0.53947 0.06444
 N76 N -0.04389 0.56868 0.08592
 N77 N -0.06577 0.46153 0.03903
 N78 N -0.08775 0.43248 0.04246
 N79 N -0.04076 0.46167 0.06537
 N80 N -0.04530 0.43296 0.08771
 N81 N -0.06507 0.53986 0.03800
 N82 N -0.08614 0.56965 0.04044
 Mn83 Mn -0.00057 0.50034 0.06578
 C84 C -0.07275 0.58719 0.07064
 C85 C -0.07479 0.41503 0.07308
 N86 N -0.03883 0.46078 -0.06604
 N87 N -0.04265 0.43169 -0.08770
 N88 N -0.06397 0.53920 -0.04137
 N89 N -0.08599 0.56806 -0.04598
 N90 N -0.03828 0.53856 -0.06707
 N91 N -0.04241 0.56671 -0.09017
 N92 N -0.06452 0.46095 -0.04032
 N93 N -0.08619 0.43170 -0.04343
 Mn94 Mn 0.00141 0.49931 -0.06642
 Mn95 Mn -0.06531 0.50040 -0.00117
 Cl96 Cl 0.00050 0.49988 -0.00025
 C97 C -0.07236 0.41387 -0.07325
 C98 C -0.07229 0.58488 -0.07661
 N99 N 0.93245 0.03880 0.53889
 N100 N 0.90973 0.04274 0.56720
 N101 N 0.95879 0.06542 0.46145
 N102 N 0.95546 0.08755 0.43246
 N103 N 0.93280 0.03995 0.46126
 N104 N 0.91076 0.04440 0.43241
 N105 N 0.95850 0.06416 0.53957
 N106 N 0.95452 0.08577 0.56865
 C107 C 0.92389 0.07215 0.58550
 C108 C 0.92525 0.07425 0.41473
 N109 N 1.06392 0.04017 0.46119
 N110 N 1.08574 0.04447 0.43220
 N111 N 1.03802 0.06443 0.53980
 N112 N 1.04109 0.08546 0.56937
 N113 N 1.06436 0.03934 0.53912
 N114 N 1.08640 0.04295 0.56806
 N115 N 1.03847 0.06613 0.46197
 N116 N 1.04255 0.08912 0.43376
 Mn117 Mn 0.99842 0.06550 0.50072
 C118 C 1.07216 0.07523 0.41547
 C119 C 1.07151 0.07189 0.58662
 N120 N 0.93311 -0.04011 0.46077
 N121 N 0.91066 -0.04414 0.43229
 N122 N 0.95905 -0.06629 0.53850
 N123 N 0.95571 -0.08828 0.56758
 N124 N 0.93284 -0.04104 0.53839
 N125 N 0.91072 -0.04544 0.56718
 N126 N 0.95926 -0.06541 0.46034
 N127 N 0.95562 -0.08704 0.43121
 Mn128 Mn 0.93233 -0.00061 0.49980
 C129 C 0.92505 -0.07351 0.41412
 C130 C 0.92531 -0.07509 0.58510
 N131 N 1.06474 -0.04059 0.53830
 N132 N 1.08683 -0.04467 0.56714
 N133 N 1.03901 -0.06548 0.46063
 N134 N 1.04292 -0.08723 0.43162
 N135 N 1.06422 -0.03927 0.46036
 N136 N 1.08566 -0.04215 0.43094
 N137 N 1.03870 -0.06599 0.53856
 N138 N 1.04210 -0.08777 0.56779
 Mn139 Mn 1.06479 -0.00009 0.49973
 Mn140 Mn 0.99899 -0.06629 0.49952
 Cl141 Cl 0.99864 -0.00038 0.49994
 C142 C 1.07239 -0.07428 0.58522
 C143 C 1.07218 -0.07234 0.41340
 C144 C 1.13388 0.13784 0.28117
 C145 C 1.14836 0.11280 0.25486
 C146 C 1.16279 0.12617 0.22127
 C147 C 1.16476 0.16442 0.21417
 C148 C 1.15218 0.18916 0.24125
 C149 C 1.13667 0.17615 0.27415
 C150 C 1.11708 0.12247 0.31586
 C151 C 1.09775 0.14462 0.34143
 C152 C 1.08281 0.12905 0.37352
 C153 C 1.08732 0.09126 0.38116
 C154 C 1.10589 0.06877 0.35565
 C155 C 1.11992 0.08391 0.32265
 C156 C 1.14900 0.07472 0.26255
 C157 C 1.13591 0.06067 0.29613
 H158 H 1.16048 0.05553 0.24262
 H159 H 1.13766 0.03107 0.30109
 H160 H 1.17274 0.10686 0.20066
 H161 H 1.15435 0.21878 0.23687
 H162 H 1.06813 0.14674 0.39272
 H163 H 1.10856 0.03931 0.36105
 H164 H 1.12763 0.19651 0.29394
 H165 H 1.09340 0.17387 0.33691
 C166 C 0.86431 -0.13239 0.27826
 C167 C 0.88968 -0.14647 0.25199
 C168 C 0.87678 -0.16002 0.21799
 C169 C 0.83864 -0.16157 0.21040
 C170 C 0.81355 -0.14925 0.23734
 C171 C 0.82611 -0.13458 0.27065
 C172 C 0.87920 -0.11664 0.31348
 C173 C 0.85673 -0.09786 0.33918
 C174 C 0.87187 -0.08370 0.37167
 C175 C 0.90954 -0.08844 0.37961
 C176 C 0.93234 -0.10663 0.35407
 C177 C 0.91763 -0.11989 0.32068
 C178 C 0.92762 -0.14764 0.26017
 C179 C 0.94118 -0.13545 0.29414
 H180 H 0.94705 -0.15883 0.24027
 H181 H 0.97068 -0.13756 0.29941
 H182 H 0.89637 -0.16977 0.19750
 H183 H 0.78398 -0.15112 0.23261
 H184 H 0.85393 -0.06933 0.39088
 H185 H 0.96172 -0.10949 0.35972
 H186 H 0.80546 -0.12579 0.29031
 H187 H 0.82758 -0.09327 0.33446
 C188 C 0.86231 0.13308 0.72003
 C189 C 0.88755 0.14746 0.74626
 C190 C 0.87443 0.16175 0.77987
 C191 C 0.83623 0.16371 0.78708
 C192 C 0.81130 0.15116 0.76012
 C193 C 0.82406 0.13578 0.72720
 C194 C 0.87742 0.11651 0.68528
 C195 C 0.85507 0.09739 0.65974
 C196 C 0.87040 0.08265 0.62758
 C197 C 0.90814 0.08716 0.61985
 C198 C 0.93082 0.10555 0.64532
 C199 C 0.91592 0.11939 0.67837
 C200 C 0.92557 0.14815 0.73845
 C201 C 0.93936 0.13523 0.70483
 H202 H 0.94490 0.15953 0.75832
 H203 H 0.96892 0.13701 0.69979
 H204 H 0.89390 0.17166 0.80038
 H205 H 0.78171 0.15331 0.76458
 H206 H 0.85256 0.06812 0.60841
 H207 H 0.96024 0.10824 0.63983
 H208 H 0.80354 0.12679 0.70750
 H209 H 0.82586 0.09303 0.66432
 C210 C 1.13082 -0.13284 0.72299
 C211 C 1.16962 -0.13062 0.72820
 C212 C 1.18594 -0.14622 0.75990
 C213 C 1.16402 -0.16269 0.78756
 C214 C 1.12538 -0.16295 0.78322
 C215 C 1.10895 -0.14851 0.75131
 C216 C 1.11474 -0.11796 0.68770
 C217 C 1.07731 -0.12299 0.67778
 C218 C 1.06379 -0.10903 0.64432
 C219 C 1.08702 -0.08923 0.62030
 C220 C 1.12433 -0.08417 0.62975
 C221 C 1.13854 -0.09917 0.66274
 C222 C 1.19182 -0.11254 0.70195
 C223 C 1.17649 -0.09641 0.67034
 H224 H 1.22148 -0.11040 0.70615
 H225 H 1.19479 -0.08233 0.65110
 H226 H 1.21580 -0.14573 0.76300
 H227 H 1.10785 -0.17470 0.80456
 H228 H 1.03493 -0.11341 0.63740
 H229 H 1.14256 -0.06948 0.61087
 H230 H 1.07913 -0.14955 0.74953
 H231 H 1.05822 -0.13815 0.69511
 C232 C 0.27655 1.13092 1.13059
 C233 C 0.27222 1.13106 1.16948
 C234 C 0.24055 1.14696 1.18540
 C235 C 0.21197 1.16124 1.16310
 C236 C 0.21544 1.15898 1.12451
 C237 C 0.24736 1.14435 1.10840
 C238 C 0.31187 1.11597 1.11479
 C239 C 0.32104 1.11919 1.07701
 C240 C 0.35461 1.10539 1.06373
 C241 C 0.37947 1.08747 1.08759
 C242 C 0.37076 1.08415 1.12523
 C243 C 0.33769 1.09916 1.13914
 C244 C 0.29930 1.11495 1.19220
 C245 C 0.33089 1.09853 1.17728
 H246 H 0.29575 1.11457 1.22197
 H247 H 0.35079 1.08600 1.19600
 H248 H 0.23816 1.14834 1.21524
 H249 H 0.19338 1.16887 1.10672
 H250 H 0.36100 1.10843 1.03459
 H251 H 0.39033 1.07099 1.14388
 H252 H 0.24846 1.14341 1.07860
 H253 H 0.30304 1.13290 1.05745
 C254 C 0.27744 0.86974 0.86751
 C255 C 0.27339 0.83075 0.86703
 C256 C 0.24196 0.81472 0.85084
 C257 C 0.21327 0.83695 0.83668
 C258 C 0.21647 0.87562 0.83912
 C259 C 0.24821 0.89188 0.85400
 C260 C 0.31248 0.88567 0.88294
 C261 C 0.32141 0.92361 0.88020
 C262 C 0.35475 0.93698 0.89442
 C263 C 0.37958 0.91304 0.91232
 C264 C 0.37108 0.87527 0.91521
 C265 C 0.33828 0.86129 0.89976
 C266 C 0.30046 0.80803 0.88315
 C267 C 0.33177 0.82303 0.89998
 H268 H 0.29713 0.77818 0.88326
 H269 H 0.35167 0.80430 0.91252
 H270 H 0.23979 0.78482 0.84926
 H271 H 0.19433 0.89335 0.82928
 H272 H 0.36101 0.96622 0.89171
 H273 H 0.39063 0.85658 0.92836
 H274 H 0.24911 0.92173 0.85513
 H275 H 0.30341 0.94324 0.86654
 C276 C 0.72760 0.87212 1.12875
 C277 C 0.73331 0.83337 1.12720
 C278 C 0.76531 0.81768 1.14275
 C279 C 0.79279 0.84018 1.15851
 C280 C 0.78799 0.87876 1.15809
 C281 C 0.75577 0.89458 1.14366
 C282 C 0.69190 0.88750 1.11414
 C283 C 0.68148 0.92484 1.11867
 C284 C 0.64754 0.93764 1.10525
 C285 C 0.62352 0.91375 1.08646
 C286 C 0.63353 0.87657 1.08175
 C287 C 0.66702 0.86308 1.09627
 C288 C 0.70720 0.81055 1.10991
 C289 C 0.67517 0.82521 1.09403
 H290 H 0.71181 0.78092 1.10827
 H291 H 0.65601 0.80646 1.08062
 H292 H 0.76879 0.78785 1.14283
 H293 H 0.80919 0.89668 1.16935
 H294 H 0.64018 0.96644 1.10931
 H295 H 0.61466 0.85786 1.06784
 H296 H 0.75359 0.92439 1.14419
 H297 H 0.69875 0.94441 1.13310
 C298 C 0.72550 1.12998 0.86907
 C299 C 0.73095 1.16877 0.87048
 C300 C 0.76277 1.18461 0.85469
 C301 C 0.79032 1.16222 0.83887
 C302 C 0.78578 1.12362 0.83948
 C303 C 0.75375 1.10764 0.85411
 C304 C 0.69002 1.11440 0.88396
 C305 C 0.67981 1.07700 0.87948
 C306 C 0.64614 1.06395 0.89330
 C307 C 0.62219 1.08762 0.91243
 C308 C 0.63192 1.12490 0.91699
 C309 C 0.66514 1.13865 0.90207
 C310 C 0.70480 1.19145 0.88792
 C311 C 0.67301 1.17658 0.90415
 H312 H 0.70920 1.22111 0.88946
 H313 H 0.65383 1.19522 0.91771
 H314 H 0.76607 1.21446 0.85452
 H315 H 0.80707 1.10578 0.82823
 H316 H 0.63895 1.03511 0.88930
 H317 H 0.61307 1.14346 0.93113
 H318 H 0.75180 1.07782 0.85375
 H319 H 0.69706 1.05758 0.86481
 C320 C 0.12995 0.27549 0.13289
 C321 C 0.16876 0.27024 0.13093
 C322 C 0.18493 0.23836 0.14638
 C323 C 0.16284 0.21055 0.16240
 C324 C 0.12420 0.21489 0.16228
 C325 C 0.10791 0.24698 0.14801
 C326 C 0.11404 0.31102 0.11832
 C327 C 0.07659 0.32104 0.12324
 C328 C 0.06321 0.35469 0.10947
 C329 C 0.08663 0.37880 0.08999
 C330 C 0.12396 0.36929 0.08513
 C331 C 0.13800 0.33612 0.09993
 C332 C 0.19114 0.29665 0.11330
 C333 C 0.17597 0.32847 0.09736
 H334 H 0.22081 0.29242 0.11135
 H335 H 0.19439 0.34783 0.08358
 H336 H 0.21480 0.23523 0.14617
 H337 H 0.10656 0.19342 0.17370
 H338 H 0.03432 0.36168 0.11368
 H339 H 0.14233 0.38824 0.07069
 H340 H 0.07809 0.24879 0.14879
 H341 H 0.05739 0.30360 0.13814
 C342 C -0.12999 0.27558 -0.12992
 C343 C -0.13017 0.27122 -0.16879
 C344 C -0.14599 0.23950 -0.18456
 C345 C -0.16009 0.21091 -0.16211
 C346 C -0.15765 0.21434 -0.12354
 C347 C -0.14313 0.24632 -0.10758
 C348 C -0.11529 0.31099 -0.11429
 C349 C -0.11870 0.32026 -0.07661
 C350 C -0.10503 0.35389 -0.06350
 C351 C -0.08706 0.37867 -0.08741
 C352 C -0.08364 0.36991 -0.12496
 C353 C -0.09855 0.33680 -0.13873
 C354 C -0.11420 0.29832 -0.19162
 C355 C -0.09787 0.32997 -0.17683
 H356 H -0.11383 0.29475 -0.22137
 H357 H -0.08540 0.34988 -0.19561
 H358 H -0.14750 0.23711 -0.21439
 H359 H -0.16740 0.19225 -0.10565
 H360 H -0.10813 0.36037 -0.03444
 H361 H -0.07046 0.38945 -0.14367
 H362 H -0.14207 0.24744 -0.07778
 H363 H -0.13244 0.30229 -0.05702
 C364 C 0.13705 0.71803 -0.13886
 C365 C 0.15109 0.74487 -0.11415
 C366 C 0.16473 0.77872 -0.12782
 C367 C 0.16635 0.78563 -0.16607
 C368 C 0.15406 0.75814 -0.19049
 C369 C 0.13934 0.72494 -0.17717
 C370 C 0.12109 0.68304 -0.12314
 C371 C 0.10235 0.65680 -0.14498
 C372 C 0.08774 0.62471 -0.12905
 C373 C 0.09199 0.61766 -0.09117
 C374 C 0.11031 0.64364 -0.06902
 C375 C 0.12402 0.67668 -0.08457
 C376 C 0.15207 0.73747 -0.07608
 C377 C 0.13961 0.70375 -0.06170
 H378 H 0.16323 0.75782 -0.05715
 H379 H 0.14149 0.69912 -0.03211
 H380 H 0.17444 0.79966 -0.10874
 H381 H 0.15595 0.76239 -0.22010
 H382 H 0.07331 0.60514 -0.14651
 H383 H 0.11283 0.63868 -0.03952
 H384 H 0.13053 0.70485 -0.19732
 H385 H 0.09806 0.66084 -0.17424
 C386 C -0.12826 0.72654 0.12700
 C387 C -0.12841 0.73087 0.16587
 C388 C -0.14385 0.76276 0.18168
 C389 C -0.15758 0.79156 0.15928
 C390 C -0.15512 0.78816 0.12069
 C391 C -0.14099 0.75600 0.10469
 C392 C -0.11410 0.69089 0.11135
 C393 C -0.11758 0.68166 0.07366
 C394 C -0.10448 0.64775 0.06058
 C395 C -0.08702 0.62267 0.08458
 C396 C -0.08353 0.63144 0.12211
 C397 C -0.09784 0.66481 0.13582
 C398 C -0.11287 0.70353 0.18871
 C399 C -0.09704 0.67164 0.17392
 H400 H -0.11247 0.70709 0.21846
 H401 H -0.08491 0.65152 0.19270
 H402 H -0.14542 0.76508 0.21151
 H403 H -0.16464 0.81038 0.10284
 H404 H -0.10761 0.64130 0.03151
 H405 H -0.07071 0.61171 0.14088
 H406 H -0.13995 0.75489 0.07489
 H407 H -0.13093 0.69989 0.05403
 C408 C 1.12925 0.13057 0.72406
 C409 C 1.16823 0.13106 0.72818
 C410 C 1.18428 0.14713 0.75962
 C411 C 1.16206 0.16122 0.78822
 C412 C 1.12338 0.15876 0.78491
 C413 C 1.10713 0.14397 0.75320
 C414 C 1.11330 0.11531 0.68902
 C415 C 1.07537 0.11798 0.68008
 C416 C 1.06201 0.10398 0.64672
 C417 C 1.08592 0.08637 0.62184
 C418 C 1.12368 0.08350 0.63037
 C419 C 1.13767 0.09872 0.66322
 C420 C 1.19093 0.11513 0.70114
 C421 C 1.17592 0.09851 0.66979
 H422 H 1.22077 0.11503 0.70452
 H423 H 1.19464 0.08615 0.64991
 H424 H 1.21418 0.14871 0.76183
 H425 H 1.10564 0.16855 0.80696
 H426 H 1.03277 0.10667 0.64048
 H427 H 1.14238 0.07058 0.61080
 H428 H 1.07727 0.14286 0.75224
 H429 H 1.05575 0.13143 0.69809
 C430 C 0.86703 -0.13528 0.72242
 C431 C 0.82846 -0.13191 0.72839
 C432 C 0.81211 -0.14773 0.76000
 C433 C 0.83375 -0.16592 0.78711
 C434 C 0.87246 -0.16720 0.78170
 C435 C 0.88878 -0.15242 0.74990
 C436 C 0.88305 -0.12000 0.68724
 C437 C 0.92021 -0.12576 0.67668
 C438 C 0.93369 -0.11136 0.64338
 C439 C 0.91069 -0.09043 0.62008
 C440 C 0.87364 -0.08463 0.63017
 C441 C 0.85947 -0.09997 0.66305
 C442 C 0.80643 -0.11256 0.70289
 C443 C 0.82174 -0.09625 0.67134
 H444 H 0.77692 -0.10957 0.70762
 H445 H 0.80357 -0.08120 0.65271
 H446 H 0.78225 -0.14658 0.76306
 H447 H 0.89034 -0.17954 0.80242
 H448 H 0.96234 -0.11635 0.63598
 H449 H 0.85554 -0.06904 0.61189
 H450 H 0.91851 -0.15432 0.74761
 H451 H 0.93914 -0.14180 0.69339
 C452 C 1.13128 -0.12985 0.27598
 C453 C 1.13142 -0.16882 0.27183
 C454 C 1.14756 -0.18487 0.24042
 C455 C 1.16204 -0.16265 0.21185
 C456 C 1.15982 -0.12396 0.21513
 C457 C 1.14500 -0.10771 0.24684
 C458 C 1.11603 -0.11393 0.31105
 C459 C 1.11916 -0.07610 0.32010
 C460 C 1.10511 -0.06278 0.35349
 C461 C 1.08700 -0.08663 0.37826
 C462 C 1.08372 -0.12429 0.36961
 C463 C 1.09899 -0.13826 0.33677
 C464 C 1.11505 -0.19149 0.29882
 C465 C 1.09836 -0.17646 0.33014
 H466 H 1.11466 -0.22131 0.29541
 H467 H 1.08564 -0.19515 0.34997
 H468 H 1.14893 -0.21478 0.23821
 H469 H 1.16988 -0.10619 0.19310
 H470 H 1.10811 -0.03362 0.35981
 H471 H 1.07039 -0.14296 0.38909
 H472 H 1.14412 -0.07785 0.24781
 H473 H 1.13299 -0.05654 0.30215
 C474 C 0.86687 0.13538 0.27789
 C475 C 0.82801 0.13438 0.27313
 C476 C 0.81176 0.15053 0.24166
 C477 C 0.83366 0.16644 0.21333
 C478 C 0.87252 0.16526 0.21757
 C479 C 0.88883 0.15034 0.24933
 C480 C 0.88294 0.11984 0.31295
 C481 C 0.92061 0.12372 0.32248
 C482 C 0.93413 0.10913 0.35570
 C483 C 0.91064 0.08979 0.37986
 C484 C 0.87309 0.08590 0.37080
 C485 C 0.85892 0.10160 0.33809
 C486 C 0.80559 0.11691 0.29963
 C487 C 0.82080 0.10010 0.33095
 H488 H 0.77583 0.11570 0.29580
 H489 H 0.80231 0.08648 0.35034
 H490 H 0.78181 0.15128 0.23959
 H491 H 0.89056 0.17565 0.19594
 H492 H 0.96319 0.11265 0.36233
 H493 H 0.85466 0.07162 0.38981
 H494 H 0.91868 0.15027 0.25071
 H495 H 0.93991 0.13847 0.30502
 C496 C 0.13233 0.27500 -0.12964
 C497 C 0.13012 0.26991 -0.16837
 C498 C 0.14546 0.23814 -0.18461
 C499 C 0.16167 0.21029 -0.16268
 C500 C 0.16187 0.21450 -0.12410
 C501 C 0.14768 0.24647 -0.10775
 C502 C 0.11777 0.31039 -0.11366
 C503 C 0.12277 0.32022 -0.07629
 C504 C 0.10902 0.35375 -0.06285
 C505 C 0.08947 0.37795 -0.08614
 C506 C 0.08451 0.36861 -0.12340
 C507 C 0.09928 0.33556 -0.13750
 C508 C 0.11235 0.29637 -0.19061
 C509 C 0.09652 0.32808 -0.17538
 H510 H 0.11022 0.29228 -0.22021
 H511 H 0.08266 0.34748 -0.19370
 H512 H 0.14502 0.23514 -0.21442
 H513 H 0.17345 0.19303 -0.10656
 H514 H 0.11333 0.36057 -0.03402
 H515 H 0.07003 0.38761 -0.14169
 H516 H 0.14871 0.24817 -0.07799
 H517 H 0.13771 0.30271 -0.05716
 C518 C -0.13537 0.27803 0.13233
 C519 C -0.13205 0.27217 0.17088
 C520 C -0.14792 0.24066 0.18745
 C521 C -0.16607 0.21348 0.16608
 C522 C -0.16734 0.21880 0.12740
 C523 C -0.15255 0.25054 0.11085
 C524 C -0.11998 0.31312 0.11605
 C525 C -0.12567 0.32363 0.07887
 C526 C -0.11119 0.35685 0.06516
 C527 C -0.09021 0.38012 0.08793
 C528 C -0.08446 0.37006 0.12500
 C529 C -0.09991 0.33728 0.13940
 C530 C -0.11266 0.29766 0.19267
 C531 C -0.09625 0.32908 0.17713
 H532 H -0.10970 0.29300 0.22216
 H533 H -0.08117 0.34769 0.19512
 H534 H -0.14680 0.23773 0.21728
 H535 H -0.17963 0.19804 0.10970
 H536 H -0.11616 0.36422 0.03652
 H537 H -0.06883 0.38830 0.14293
 H538 H -0.15442 0.25276 0.08115
 H539 H -0.14174 0.30694 0.06010
 C540 C -0.13607 0.71790 -0.14095
 C541 C -0.15244 0.74359 -0.11647
 C542 C -0.16744 0.77689 -0.13017
 C543 C -0.16804 0.78468 -0.16851
 C544 C -0.15336 0.75778 -0.19264
 C545 C -0.13744 0.72520 -0.17917
 C546 C -0.11872 0.68357 -0.12513
 C547 C -0.09790 0.65858 -0.14661
 C548 C -0.08246 0.62684 -0.13062
 C549 C -0.08789 0.61895 -0.09305
 C550 C -0.10800 0.64391 -0.07122
 C551 C -0.12264 0.67653 -0.08677
 C552 C -0.15420 0.73565 -0.07852
 C553 C -0.14038 0.70246 -0.06411
 H554 H -0.16706 0.75511 -0.05973
 H555 H -0.14300 0.69734 -0.03465
 H556 H -0.17819 0.79706 -0.11082
 H557 H -0.15460 0.76176 -0.22232
 H558 H -0.06667 0.60811 -0.14784
 H559 H -0.11151 0.63835 -0.04192
 H560 H -0.12696 0.70580 -0.19922
 H561 H -0.09277 0.66327 -0.17565
 C562 C 0.13808 0.71915 0.13467
 C563 C 0.11326 0.74574 0.14917
 C564 C 0.12684 0.77935 0.16321
 C565 C 0.16514 0.78625 0.16482
 C566 C 0.18967 0.75894 0.15207
 C567 C 0.17643 0.72603 0.13693
 C568 C 0.12244 0.68439 0.11840
 C569 C 0.14435 0.65847 0.09923
 C570 C 0.12852 0.62645 0.08460
 C571 C 0.09069 0.61914 0.08924
 C572 C 0.06846 0.64494 0.10782
 C573 C 0.08388 0.67789 0.12156
 C574 C 0.07516 0.73828 0.15024
 C575 C 0.06089 0.70472 0.13755
 H576 H 0.05614 0.75842 0.16174
 H577 H 0.03130 0.70001 0.13959
 H578 H 0.10764 0.80011 0.17321
 H579 H 0.21932 0.76311 0.15391
 H580 H 0.14607 0.60707 0.06995
 H581 H 0.03897 0.63983 0.11064
 H582 H 0.19667 0.70608 0.12777
 H583 H 0.17359 0.66268 0.09471
 C584 C 0.28091 1.13754 0.86503
 C585 C 0.25432 1.11256 0.85082
 C586 C 0.22052 1.12596 0.83687
 C587 C 0.21344 1.16422 0.83509
 C588 C 0.24075 1.18891 0.84744
 C589 C 0.27387 1.17586 0.86248
 C590 C 0.31582 1.12212 0.88134
 C591 C 0.34170 1.14420 0.90036
 C592 C 0.37387 1.12858 0.91508
 C593 C 0.38133 1.09079 0.91066
 C594 C 0.35561 1.06838 0.89223
 C595 C 0.32250 1.08358 0.87843
 C596 C 0.26196 1.07449 0.85000
 C597 C 0.29569 1.06041 0.86269
 H598 H 0.24182 1.05534 0.83873
 H599 H 0.30054 1.03083 0.86087
 H600 H 0.19974 1.10667 0.82709
 H601 H 0.23641 1.21854 0.84542
 H602 H 0.39321 1.14623 0.92962
 H603 H 0.36087 1.03892 0.88961
 H604 H 0.29383 1.19621 0.87135
 H605 H 0.33734 1.17343 0.90471
 C606 C 0.27646 0.86804 1.13059
 C607 C 0.27107 0.86959 1.16932
 C608 C 0.23928 0.85377 1.18531
 C609 C 0.21168 0.83775 1.16313
 C610 C 0.21623 0.83810 1.12458
 C611 C 0.24823 0.85276 1.10847
 C612 C 0.31184 0.88317 1.11485
 C613 C 0.32192 0.87883 1.07746
 C614 C 0.35548 0.89287 1.06426
 C615 C 0.37950 0.91211 1.08779
 C616 C 0.36985 0.91658 1.12505
 C617 C 0.33673 0.90146 1.13893
 C618 C 0.29723 0.88723 1.19180
 C619 C 0.32893 0.90355 1.17682
 H620 H 0.29290 0.88886 1.22142
 H621 H 0.34810 0.91725 1.19534
 H622 H 0.23602 0.85379 1.21511
 H623 H 0.19495 0.82671 1.10685
 H624 H 0.36253 0.88894 1.03541
 H625 H 0.38870 0.93082 1.14351
 H626 H 0.25015 0.85219 1.07871
 H627 H 0.30464 0.86410 1.05813
 C628 C 0.71813 1.14072 1.13700
 C629 C 0.74411 1.11642 1.15349
 C630 C 0.77738 1.13040 1.16808
 C631 C 0.78485 1.16883 1.16813
 C632 C 0.75775 1.19278 1.15319
 C633 C 0.72518 1.17904 1.13770
 C634 C 0.68379 1.12459 1.12019
 C635 C 0.65844 1.14589 1.09941
 C636 C 0.62682 1.12963 1.08433
 C637 C 0.61937 1.09195 1.09002
 C638 C 0.64460 1.07031 1.11023
 C639 C 0.67713 1.08615 1.12456
 C640 C 0.73651 1.07838 1.15579
 C641 C 0.70338 1.06370 1.14238
 H642 H 0.75621 1.05974 1.16876
 H643 H 0.69856 1.03419 1.14536
 H644 H 0.79774 1.11118 1.17902
 H645 H 0.76150 1.22254 1.15398
 H646 H 0.60788 1.14674 1.06847
 H647 H 0.63938 1.04093 1.11396
 H648 H 0.70559 1.19898 1.12704
 H649 H 0.66277 1.17498 1.09400
 C650 C 0.72286 0.86742 0.86567
 C651 C 0.72744 0.82853 0.86685
 C652 C 0.75872 0.81208 0.85062
 C653 C 0.78701 0.83383 0.83441
 C654 C 0.78300 0.87272 0.83547
 C655 C 0.75144 0.88920 0.85049
 C656 C 0.68795 0.88369 0.88120
 C657 C 0.67857 0.92141 0.87711
 C658 C 0.64544 0.93512 0.89159
 C659 C 0.62121 0.91179 0.91106
 C660 C 0.63014 0.87419 0.91521
 C661 C 0.66276 0.85983 0.89961
 C662 C 0.70093 0.80627 0.88454
 C663 C 0.66975 0.82167 0.90133
 H664 H 0.70461 0.77648 0.88590
 H665 H 0.65033 0.80330 0.91509
 H666 H 0.76061 0.78212 0.85000
 H667 H 0.80464 0.89064 0.82487
 H668 H 0.63890 0.96418 0.88785
 H669 H 0.61109 0.85588 0.92959
 H670 H 0.75023 0.91907 0.85044
 H671 H 0.69605 0.94061 0.86224
   
