data_POSCAR
  _audit_creation_date              2014-09-24
  _audit_creation_method            'ToBaCCo'
  _symmetry_space_group_name_H-M    'P1'
  _symmetry_Int_Tables_number       1
  _symmetry_cell_setting            triclinic
  loop_
  _symmetry_equiv_pos_as_xyz
 x,y,z
_cell_length_a 33.9035
_cell_length_b 34.1814
_cell_length_c 31.0590
_cell_angle_alpha 89.742100
_cell_angle_beta 89.959400
_cell_angle_gamma 94.829200
loop_
  _atom_site_label
  _atom_site_type_symbol
  _atom_site_fract_x
  _atom_site_fract_y
  _atom_site_fract_z
C1 C -0.09980 0.34016 -0.01742
 C2 C -0.10006 0.34069 0.02675
 C3 C -0.07516 0.31286 0.04027
 N4 N -0.05897 0.29613 0.00590
 C5 C -0.07438 0.31244 -0.02930
 C6 C -0.06960 0.30062 0.08333
 C7 C -0.03461 0.28258 0.09417
 C8 C -0.02917 0.25930 0.13010
 C9 C 0.00987 0.25120 0.13014
 C10 C 0.02688 0.26820 0.09324
 N11 N -0.00043 0.28695 0.07136
 C12 C 0.06737 0.26983 0.08226
 C13 C 0.08028 0.27487 0.03925
 C14 C 0.11916 0.28303 0.02614
 C15 C 0.11895 0.28196 -0.01804
 C16 C 0.08013 0.27172 -0.03050
 N17 N 0.05649 0.26803 0.00467
 C18 C 0.06669 0.26380 -0.07318
 C19 C 0.02574 0.26379 -0.08288
 C20 C 0.00634 0.24412 -0.11686
 C21 C -0.03215 0.25405 -0.11639
 C22 C -0.03531 0.27919 -0.08196
 N23 N -0.00017 0.28445 -0.06126
 C24 C -0.06905 0.29873 -0.07144
 H25 H -0.11666 0.35785 -0.03837
 H26 H -0.11694 0.35919 0.04659
 H27 H 0.00671 0.30432 -0.03641
 H28 H -0.05087 0.24902 0.15400
 H29 H 0.02373 0.23440 0.15455
 H30 H 0.14506 0.28898 0.04611
 H31 H 0.14461 0.28797 -0.03847
 H32 H -0.05515 0.24368 -0.13870
 H33 H 0.00534 0.30542 0.04486
 H34 H 0.01848 0.22440 -0.13954
 C35 C 0.38531 0.76969 0.47238
 C36 C 0.38533 0.77159 0.51655
 C37 C 0.42234 0.78840 0.52843
 N38 N 0.44485 0.79677 0.49315
 C39 C 0.42234 0.78528 0.45887
 C40 C 0.43439 0.79775 0.57091
 C41 C 0.47419 0.80908 0.58160
 C42 C 0.48652 0.82780 0.61935
 C43 C 0.52720 0.83003 0.61934
 C44 C 0.53856 0.81243 0.58166
 N45 N 0.50605 0.80001 0.55868
 C46 C 0.57779 0.80483 0.57129
 C47 C 0.58903 0.79481 0.52929
 C48 C 0.62412 0.77929 0.51823
 C49 C 0.62385 0.77559 0.47418
 C50 C 0.58879 0.78927 0.45999
 N51 N 0.56757 0.80095 0.49367
 C52 C 0.57762 0.79315 0.41662
 C53 C 0.53883 0.80034 0.40426
 C54 C 0.52817 0.81279 0.36369
 C55 C 0.48756 0.81221 0.36344
 C56 C 0.47454 0.79909 0.40377
 N57 N 0.50603 0.79217 0.42853
 C58 C 0.43445 0.79051 0.41558
 H59 H 0.36093 0.75791 0.45256
 H60 H 0.36094 0.76161 0.53743
 H61 H 0.50495 0.77772 0.45810
 H62 H 0.46811 0.83825 0.64460
 H63 H 0.54621 0.84250 0.64463
 H64 H 0.64731 0.77121 0.53962
 H65 H 0.64683 0.76425 0.45479
 H66 H 0.46965 0.81983 0.33633
 H67 H 0.50543 0.78173 0.53196
 H68 H 0.54760 0.82080 0.33683
 C69 C 0.89297 0.75380 0.01648
 C70 C 0.89241 0.75516 -0.02767
 C71 C 0.92138 0.73186 -0.04182
 N72 N 0.94016 0.71708 -0.00788
 C73 C 0.92271 0.73034 0.02764
 C74 C 0.92982 0.72354 -0.08527
 C75 C 0.96629 0.70911 -0.09697
 C76 C 0.97353 0.69007 -0.13519
 C77 C 1.01299 0.68353 -0.13520
 C78 C 1.02870 0.69852 -0.09690
 N79 N 0.99999 0.71358 -0.07352
 C80 C 1.06937 0.70241 -0.08654
 C81 C 1.08273 0.70858 -0.04393
 C82 C 1.12035 0.72371 -0.03231
 C83 C 1.12111 0.72415 0.01186
 C84 C 1.08422 0.70835 0.02574
 N85 N 1.06063 0.69928 -0.00852
 C86 C 1.07224 0.70279 0.06922
 C87 C 1.03156 0.69761 0.08024
 C88 C 1.01640 0.68144 0.11852
 C89 C 0.97653 0.68629 0.11871
 C90 C 0.96843 0.70479 0.08033
 N91 N 1.00196 0.71115 0.05683
 C92 C 0.93197 0.71930 0.06981
 H93 H 0.87386 0.76845 0.03795
 H94 H 0.87302 0.77158 -0.04711
 H95 H 1.00541 0.72854 0.02925
 H96 H 0.95264 0.68204 -0.16064
 H97 H 1.02853 0.66996 -0.16084
 H98 H 1.14433 0.73441 -0.05341
 H99 H 1.14573 0.73578 0.03140
 H100 H 0.95604 0.67803 0.14457
 H101 H 1.00436 0.73042 -0.04579
 H102 H 1.03259 0.66840 0.14413
 C103 C 0.61862 0.23373 0.48186
 C104 C 0.61772 0.23697 0.52594
 C105 C 0.58089 0.22063 0.53913
 N106 N 0.55921 0.20776 0.50477
 C107 C 0.58215 0.21580 0.46972
 C108 C 0.56812 0.21611 0.58222
 C109 C 0.52783 0.20807 0.59345
 C110 C 0.51411 0.19617 0.63391
 C111 C 0.47351 0.19631 0.63294
 C112 C 0.46358 0.20841 0.59196
 N113 N 0.49686 0.21535 0.56809
 C114 C 0.42514 0.21642 0.57876
 C115 C 0.41534 0.22207 0.53522
 C116 C 0.38171 0.23823 0.52047
 C117 C 0.38260 0.23600 0.47627
 C118 C 0.41668 0.21846 0.46575
 N119 N 0.43660 0.21002 0.50177
 C120 C 0.42807 0.20815 0.42394
 C121 C 0.46645 0.19749 0.41446
 C122 C 0.47712 0.17943 0.37683
 C123 C 0.51760 0.17847 0.37792
 C124 C 0.53052 0.19623 0.41605
 N125 N 0.49909 0.20738 0.43829
 C126 C 0.57059 0.20587 0.42722
 H127 H 0.64307 0.24394 0.46116
 H128 H 0.64134 0.25005 0.54598
 H129 H 0.50044 0.22575 0.46495
 H130 H 0.53163 0.18908 0.66155
 H131 H 0.45367 0.18933 0.65972
 H132 H 0.35895 0.25025 0.53959
 H133 H 0.36065 0.24592 0.45439
 H134 H 0.53558 0.16700 0.35290
 H135 H 0.49884 0.22940 0.53831
 H136 H 0.45785 0.16894 0.35083
 C137 C 0.75762 -0.09841 -0.01864
 C138 C 0.75271 -0.09986 0.02504
 C139 C 0.73001 -0.06944 0.03560
 N140 N 0.72104 -0.04921 -0.00014
 C141 C 0.73740 -0.06737 -0.03348
 C142 C 0.71769 -0.06079 0.07775
 C143 C 0.70910 -0.02221 0.08872
 C144 C 0.68959 -0.01164 0.12570
 C145 C 0.69099 0.02869 0.12584
 C146 C 0.71044 0.04153 0.08850
 N147 N 0.72114 0.01045 0.06592
 C148 C 0.72139 0.08106 0.07802
 C149 C 0.73106 0.09334 0.03574
 C150 C 0.74908 0.12973 0.02426
 C151 C 0.74957 0.13090 -0.01993
 C152 C 0.73186 0.09508 -0.03381
 N153 N 0.72090 0.07203 0.00031
 C154 C 0.72450 0.08426 -0.07719
 C155 C 0.71872 0.04406 -0.08890
 C156 C 0.70073 0.02983 -0.12652
 C157 C 0.70321 -0.01007 -0.12664
 C158 C 0.72235 -0.01928 -0.08897
 N159 N 0.73114 0.01371 -0.06577
 C160 C 0.73255 -0.05719 -0.07728
 H161 H 0.77472 -0.11770 -0.03721
 H162 H 0.76533 -0.12033 0.04670
 H163 H 0.74815 0.01570 -0.03779
 H164 H 0.67618 -0.03083 0.15040
 H165 H 0.67934 0.04657 0.15074
 H166 H 0.76043 0.15303 0.04553
 H167 H 0.76184 0.15518 -0.03957
 H168 H 0.69180 -0.03011 -0.15141
 H169 H 0.73983 0.01188 0.03922
 H170 H 0.68684 0.04631 -0.15124
 C171 C 0.23080 0.36757 0.48714
 C172 C 0.22692 0.36969 0.53100
 C173 C 0.21143 0.40508 0.53957
 N174 N 0.20546 0.42453 0.50247
 C175 C 0.21733 0.40166 0.47034
 C176 C 0.20167 0.41831 0.58094
 C177 C 0.19493 0.45778 0.58945
 C178 C 0.17924 0.47111 0.62742
 C179 C 0.18206 0.51146 0.62497
 C180 C 0.19904 0.52160 0.58543
 N181 N 0.20670 0.48875 0.56397
 C182 C 0.21054 0.56035 0.57179
 C183 C 0.21915 0.56992 0.52841
 C184 C 0.23628 0.60571 0.51370
 C185 C 0.23664 0.60359 0.46953
 C186 C 0.22025 0.56635 0.45893
 N187 N 0.20947 0.54590 0.49492
 C188 C 0.21339 0.55239 0.41665
 C189 C 0.20617 0.51197 0.40704
 C190 C 0.19305 0.49696 0.36764
 C191 C 0.19366 0.45678 0.37017
 C192 C 0.20680 0.44835 0.41114
 N193 N 0.21431 0.48208 0.43340
 C194 C 0.21440 0.41058 0.42603
 H195 H 0.24256 0.34376 0.46979
 H196 H 0.23512 0.34789 0.55396
 H197 H 0.22883 0.48480 0.46285
 H198 H 0.16788 0.45365 0.65455
 H199 H 0.17330 0.53112 0.64978
 H200 H 0.24723 0.63072 0.53277
 H201 H 0.24799 0.62665 0.44773
 H202 H 0.18566 0.43615 0.34467
 H203 H 0.22392 0.48780 0.53635
 H204 H 0.18453 0.51325 0.33967
 C205 C 0.25530 0.87412 -0.03016
 C206 C 0.25429 0.87304 0.01394
 C207 C 0.27149 0.90897 0.02789
 N208 N 0.28286 0.93205 -0.00614
 C209 C 0.27328 0.91061 -0.04169
 C210 C 0.27885 0.91920 0.07129
 C211 C 0.28918 0.95822 0.08407
 C212 C 0.30727 0.96917 0.12262
 C213 C 0.30899 1.00949 0.12421
 C214 C 0.29112 1.02197 0.08691
 N215 N 0.27971 0.99045 0.06232
 C216 C 0.28364 1.06126 0.07710
 C217 C 0.27338 1.07212 0.03479
 C218 C 0.25184 1.10357 0.02458
 C219 C 0.24872 1.10428 -0.01931
 C220 C 0.26885 1.07347 -0.03466
 N221 N 0.28340 1.05337 -0.00143
 C222 C 0.27472 1.06486 -0.07870
 C223 C 0.28534 1.02747 -0.09139
 C224 C 0.30515 1.01974 -0.12907
 C225 C 0.30711 0.97982 -0.13068
 C226 C 0.28826 0.96416 -0.09401
 N227 N 0.27575 0.99356 -0.06977
 C228 C 0.28162 0.92354 -0.08436
 H229 H 0.24360 0.85087 -0.05128
 H230 H 0.24201 0.84866 0.03342
 H231 H 0.25795 0.99048 -0.04238
 H232 H 0.31800 0.95006 0.14707
 H233 H 0.32172 1.02741 0.15013
 H234 H 0.23873 1.12328 0.04656
 H235 H 0.23265 1.12474 -0.03761
 H236 H 0.32104 0.96420 -0.15596
 H237 H 0.26232 0.99045 0.03468
 H238 H 0.31708 1.04075 -0.15287
 C239 C 0.75561 0.39758 0.48860
 C240 C 0.75680 0.40069 0.53267
 C241 C 0.77393 0.43798 0.54165
 N242 N 0.78310 0.45776 0.50476
 C243 C 0.77180 0.43322 0.47231
 C244 C 0.78298 0.45268 0.58313
 C245 C 0.79209 0.49307 0.59113
 C246 C 0.80694 0.50870 0.62956
 C247 C 0.80748 0.54890 0.62576
 C248 C 0.79292 0.55657 0.58519
 N249 N 0.78378 0.52248 0.56426
 C250 C 0.78497 0.59390 0.56970
 C251 C 0.78030 0.60222 0.52556
 C252 C 0.76805 0.63695 0.50905
 C253 C 0.76988 0.63408 0.46506
 C254 C 0.78320 0.59772 0.45627
 N255 N 0.78971 0.57837 0.49327
 C256 C 0.79087 0.58345 0.41481
 C257 C 0.79608 0.54351 0.40709
 C258 C 0.81104 0.52886 0.36941
 C259 C 0.80758 0.48857 0.37326
 C260 C 0.79059 0.47986 0.41313
 N261 N 0.78385 0.51343 0.43360
 C262 C 0.77872 0.44178 0.42836
 H263 H 0.74439 0.37196 0.47063
 H264 H 0.74656 0.37804 0.55550
 H265 H 0.76713 0.51536 0.46149
 H266 H 0.81557 0.49276 0.65775
 H267 H 0.81667 0.57007 0.65037
 H268 H 0.75885 0.66179 0.52681
 H269 H 0.76205 0.65615 0.44224
 H270 H 0.81592 0.46800 0.34918
 H271 H 0.76776 0.51949 0.53576
 H272 H 0.82263 0.54542 0.34174
 O273 O 0.24323 0.17465 0.23265
 O274 O 0.21965 0.25452 0.30549
 O275 O 0.18829 0.22336 0.23455
 O276 O 0.27308 0.20445 0.30311
 O277 O 0.31130 0.24678 0.26457
 O278 O 0.22572 0.26765 0.19762
 O279 O 0.25867 0.29668 0.26762
 O280 O 0.28001 0.21756 0.19341
 Cu281 Cu 0.22698 0.21010 0.27269
 Cu282 Cu 0.27264 0.26132 0.22670
 C283 C 0.26576 0.18255 0.20052
 C284 C 0.23611 0.28899 0.29973
 C285 C 0.19247 0.24868 0.20451
 C286 C 0.30667 0.22253 0.29569
 O287 O 0.69352 0.74679 0.25974
 O288 O 0.77552 0.72809 0.18735
 O289 O 0.74716 0.69728 0.25810
 O290 O 0.72179 0.77860 0.18820
 O291 O 0.76105 0.82010 0.22608
 O292 O 0.78749 0.73848 0.29518
 O293 O 0.81533 0.77025 0.22381
 O294 O 0.73330 0.78852 0.29684
 Cu295 Cu 0.73042 0.73369 0.21947
 Cu296 Cu 0.77838 0.78347 0.26420
 C297 C 0.69938 0.77072 0.29068
 C298 C 0.80953 0.74568 0.19341
 C299 C 0.77180 0.70396 0.28849
 C300 C 0.73682 0.81328 0.19535
 O301 O 0.81318 0.26321 0.23925
 O302 O 0.73009 0.22416 0.30845
 O303 O 0.76285 0.20138 0.23735
 O304 O 0.78091 0.28506 0.31030
 O305 O 0.73978 0.31823 0.27236
 O306 O 0.72024 0.23356 0.20043
 O307 O 0.68937 0.25781 0.27055
 O308 O 0.77122 0.29445 0.20021
 Cu309 Cu 0.77596 0.24009 0.27757
 Cu310 Cu 0.72626 0.27955 0.23193
 C311 C 0.80598 0.28484 0.20734
 C312 C 0.69563 0.23498 0.30168
 C313 C 0.73844 0.20304 0.20654
 C314 C 0.76279 0.31562 0.30433
 O315 O 0.25713 0.67694 0.26160
 O316 O 0.28052 0.76350 0.19250
 O317 O 0.31170 0.73561 0.26203
 O318 O 0.22672 0.70591 0.19221
 O319 O 0.18877 0.74031 0.23256
 O320 O 0.27365 0.77024 0.30193
 O321 O 0.24222 0.79777 0.23259
 O322 O 0.21894 0.71120 0.30175
 Cu323 Cu 0.27302 0.71692 0.22338
 Cu324 Cu 0.22722 0.75816 0.27166
 C325 C 0.23382 0.67921 0.29334
 C326 C 0.26431 0.79500 0.19989
 C327 C 0.30725 0.75823 0.29369
 C328 C 0.19349 0.71912 0.19978
 O329 O 0.68715 0.27207 0.74006
 O330 O 0.77077 0.30022 0.81138
 O331 O 0.74059 0.33068 0.74244
 O332 O 0.71723 0.24274 0.80929
 O333 O 0.75702 0.20993 0.76948
 O334 O 0.77941 0.29776 0.70157
 O335 O 0.81066 0.26886 0.76997
 O336 O 0.72560 0.23775 0.70026
 Cu337 Cu 0.72502 0.28986 0.77970
 Cu338 Cu 0.77201 0.25030 0.73103
 C339 C 0.69195 0.24992 0.70813
 C340 C 0.80472 0.28897 0.80327
 C341 C 0.76377 0.32923 0.71047
 C342 C 0.73371 0.21153 0.80138
 O343 O 0.31322 0.74435 0.72637
 O344 O 0.22783 0.71119 0.79476
 O345 O 0.26005 0.68515 0.72516
 O346 O 0.28233 0.76903 0.79704
 O347 O 0.24527 0.80503 0.75727
 O348 O 0.22045 0.71960 0.68672
 O349 O 0.19023 0.74759 0.75611
 O350 O 0.27470 0.77878 0.68653
 Cu351 Cu 0.27469 0.72384 0.76468
 Cu352 Cu 0.22886 0.76625 0.71762
 C353 C 0.30848 0.76712 0.69466
 C354 C 0.19451 0.72435 0.78742
 C355 C 0.23640 0.68783 0.69383
 C356 C 0.26768 0.80135 0.78961
 O357 O 0.24450 0.30213 0.73611
 O358 O 0.27315 0.21948 0.80168
 O359 O 0.30160 0.25536 0.73221
 O360 O 0.21765 0.26498 0.80560
 O361 O 0.17931 0.22578 0.76384
 O362 O 0.26467 0.21272 0.69325
 O363 O 0.23451 0.17849 0.76239
 O364 O 0.20820 0.26101 0.69474
 Cu365 Cu 0.26319 0.26487 0.77251
 Cu366 Cu 0.21807 0.21555 0.72409
 C367 C 0.22146 0.29574 0.70423
 C368 C 0.25738 0.18512 0.79439
 C369 C 0.29771 0.23184 0.70067
 C370 C 0.18451 0.24635 0.79764
 O371 O 0.73633 0.80519 0.68926
 O372 O 0.81791 0.77779 0.75883
 O373 O 0.78669 0.75195 0.68672
 O374 O 0.76916 0.83237 0.76047
 O375 O 0.72829 0.79200 0.79840
 O376 O 0.74322 0.71252 0.72251
 O377 O 0.77573 0.73717 0.79487
 O378 O 0.69436 0.76626 0.72748
 Cu379 Cu 0.78173 0.79586 0.72003
 Cu380 Cu 0.73115 0.74795 0.76448
 C381 C 0.70137 0.79010 0.69644
 C382 C 0.81054 0.75305 0.78906
 C383 C 0.76744 0.71875 0.69154
 C384 C 0.74651 0.82564 0.79269
 C385 C 0.26953 0.08174 0.15121
 C386 C 0.28536 0.09003 0.11008
 C387 C 0.30147 0.12906 0.10251
 C388 C 0.29692 0.15891 0.13281
 C389 C 0.27571 0.15073 0.17133
 C390 C 0.26453 0.11126 0.18078
 C391 C 0.22593 0.09193 0.19617
 C392 C 0.23145 0.05953 0.16389
 H393 H 0.31624 0.13689 0.07236
 H394 H 0.30794 0.18871 0.12480
 H395 H 0.20051 0.10929 0.18846
 H396 H 0.22746 0.08192 0.23018
 H397 H 0.20921 0.05805 0.13751
 H398 H 0.23621 0.03091 0.17933
 C399 C 0.74637 0.62757 0.62473
 C400 C 0.78111 0.62589 0.60083
 C401 C 0.80960 0.65831 0.60273
 C402 C 0.80509 0.68906 0.63191
 C403 C 0.77208 0.68771 0.65977
 C404 C 0.74214 0.65755 0.65363
 C405 C 0.71942 0.63103 0.68476
 C406 C 0.72392 0.59796 0.65291
 H407 H 0.83568 0.65931 0.58247
 H408 H 0.82805 0.71301 0.63373
 H409 H 0.68832 0.63855 0.68835
 H410 H 0.73564 0.62745 0.71545
 H411 H 0.69540 0.58655 0.63816
 H412 H 0.74226 0.57511 0.66562
 C413 C 0.72968 0.91588 0.15138
 C414 C 0.71538 0.90907 0.10946
 C415 C 0.70066 0.87010 0.09970
 C416 C 0.70554 0.83903 0.12865
 C417 C 0.72578 0.84601 0.16787
 C418 C 0.73514 0.88520 0.17956
 C419 C 0.77244 0.90527 0.19718
 C420 C 0.76645 0.93894 0.16637
 H421 H 0.68701 0.86332 0.06879
 H422 H 0.69589 0.80938 0.11895
 H423 H 0.79898 0.88957 0.18946
 H424 H 0.76937 0.91335 0.23157
 H425 H 0.78948 0.94278 0.14084
 H426 H 0.75989 0.96636 0.18305
 C427 C 0.22476 0.39619 0.65301
 C428 C 0.19994 0.38989 0.61734
 C429 C 0.17564 0.35436 0.61579
 C430 C 0.18087 0.32411 0.64571
 C431 C 0.21033 0.32905 0.67781
 C432 C 0.22978 0.36656 0.68258
 C433 C 0.27286 0.37896 0.68754
 C434 C 0.26720 0.41150 0.65515
 H435 H 0.15486 0.34892 0.58960
 H436 H 0.16374 0.29615 0.64192
 H437 H 0.29212 0.35660 0.67546
 H438 H 0.28008 0.39010 0.72041
 H439 H 0.28312 0.40803 0.62426
 H440 H 0.27099 0.44135 0.66938
 C441 C 0.85981 0.30193 0.10262
 C442 C 0.90001 0.30464 0.11447
 C443 C 0.90797 0.31030 0.15899
 C444 C 0.87728 0.30578 0.18984
 C445 C 0.83772 0.29749 0.17680
 C446 C 0.82962 0.29885 0.13283
 C447 C 0.80420 0.27087 0.10587
 C448 C 0.83723 0.27420 0.07267
 H449 H 0.93802 0.31641 0.17035
 H450 H 0.88466 0.30702 0.22376
 H451 H 0.77691 0.28371 0.09478
 H452 H 0.79934 0.24114 0.12066
 H453 H 0.82871 0.28897 0.04258
 H454 H 0.85158 0.24644 0.06803
 C455 C 0.40917 0.77168 0.64212
 C456 C 0.40450 0.79540 0.60600
 C457 C 0.37029 0.81609 0.60397
 C458 C 0.33949 0.80841 0.63414
 C459 C 0.34255 0.78011 0.66701
 C460 C 0.37900 0.76421 0.67189
 C461 C 0.38833 0.72255 0.67762
 C462 C 0.42151 0.73092 0.64502
 H463 H 0.36636 0.83624 0.57762
 H464 H 0.31255 0.82295 0.63022
 H465 H 0.36419 0.70117 0.66595
 H466 H 0.39924 0.71677 0.71058
 H467 H 0.41666 0.71441 0.61444
 H468 H 0.45151 0.73013 0.65925
 C469 C 0.13617 0.68657 0.10038
 C470 C 0.10078 0.70480 0.10260
 C471 C 0.09558 0.72676 0.14070
 C472 C 0.12508 0.73043 0.17311
 C473 C 0.16066 0.71186 0.16897
 C474 C 0.16407 0.68955 0.13199
 C475 C 0.19033 0.66317 0.11008
 C476 C 0.15857 0.65896 0.07462
 H477 H 0.06949 0.74261 0.14477
 H478 H 0.12032 0.74864 0.20075
 H479 H 0.19324 0.63564 0.12855
 H480 H 0.21863 0.67902 0.09935
 H481 H 0.14290 0.62910 0.07310
 H482 H 0.16938 0.67122 0.04321
 C483 C 0.62518 0.19534 0.62681
 C484 C 0.59741 0.22228 0.61750
 C485 C 0.59669 0.25512 0.64473
 C486 C 0.62654 0.26318 0.67583
 C487 C 0.65789 0.23872 0.68001
 C488 C 0.65472 0.20359 0.65687
 C489 C 0.68373 0.18151 0.63291
 C490 C 0.65104 0.17189 0.59988
 H491 H 0.57430 0.27559 0.64041
 H492 H 0.62642 0.28985 0.69451
 H493 H 0.69201 0.15534 0.65107
 H494 H 0.70895 0.20096 0.61994
 H495 H 0.64041 0.14023 0.59950
 H496 H 0.65826 0.18487 0.56779
 C497 C 0.73765 0.11002 0.84948
 C498 C 0.72192 0.11387 0.89092
 C499 C 0.70331 0.14866 0.89915
 C500 C 0.70515 0.17968 0.86900
 C501 C 0.72597 0.17702 0.82993
 C502 C 0.73994 0.14076 0.82003
 C503 C 0.77936 0.13094 0.80384
 C504 C 0.77679 0.09715 0.83600
 H505 H 0.68820 0.15241 0.92940
 H506 H 0.69226 0.20653 0.87751
 H507 H 0.80341 0.15410 0.81122
 H508 H 0.77804 0.12104 0.76979
 H509 H 0.79935 0.10066 0.86198
 H510 H 0.77388 0.06782 0.82046
 C511 C 0.23938 0.58002 0.34610
 C512 C 0.21347 0.58148 0.38097
 C513 C 0.18865 0.61256 0.38202
 C514 C 0.19388 0.64375 0.35220
 C515 C 0.22392 0.64430 0.32065
 C516 C 0.24444 0.61061 0.31660
 C517 C 0.28786 0.60659 0.31305
 C518 C 0.28217 0.57299 0.34533
 H519 H 0.16701 0.61394 0.40752
 H520 H 0.17594 0.66832 0.35541
 H521 H 0.30606 0.63260 0.32569
 H522 H 0.29634 0.59692 0.28045
 H523 H 0.29704 0.57950 0.37671
 H524 H 0.28719 0.54397 0.33129
 C525 C 0.26750 0.90148 0.84135
 C526 C 0.28374 0.89556 0.88221
 C527 C 0.30176 0.86009 0.88849
 C528 C 0.29848 0.83020 0.85730
 C529 C 0.27680 0.83474 0.81910
 C530 C 0.26380 0.87183 0.81086
 C531 C 0.22450 0.88334 0.79609
 C532 C 0.22861 0.91591 0.82938
 H533 H 0.31725 0.85482 0.91817
 H534 H 0.31091 0.80274 0.86441
 H535 H 0.19999 0.86053 0.80326
 H536 H 0.22552 0.89448 0.76240
 H537 H 0.20645 0.91206 0.85581
 H538 H 0.23208 0.94578 0.81483
 C539 C 0.74133 0.40353 0.37076
 C540 C 0.77455 0.40907 0.39736
 C541 C 0.80191 0.38028 0.39683
 C542 C 0.79816 0.34961 0.36660
 C543 C 0.76705 0.34735 0.33627
 C544 C 0.73779 0.37354 0.34092
 C545 C 0.71803 0.39791 0.30883
 C546 C 0.72170 0.43093 0.34173
 H547 H 0.82675 0.38225 0.41884
 H548 H 0.82029 0.32855 0.36606
 H549 H 0.68689 0.38644 0.30274
 H550 H 0.73635 0.40428 0.27951
 H551 H 0.69266 0.43828 0.35462
 H552 H 0.74164 0.45652 0.33095
 C553 C 0.08813 0.26575 0.85061
 C554 C 0.09372 0.25479 0.89380
 C555 C 0.12742 0.23404 0.90221
 C556 C 0.15671 0.23076 0.87056
 C557 C 0.15242 0.24675 0.82921
 C558 C 0.11642 0.26139 0.81902
 C559 C 0.10843 0.29896 0.79738
 C560 C 0.07742 0.30378 0.83195
 H561 H 0.13184 0.22113 0.93354
 H562 H 0.18319 0.21667 0.87873
 H563 H 0.09553 0.29405 0.76477
 H564 H 0.13406 0.32147 0.79898
 H565 H 0.04671 0.30170 0.81914
 H566 H 0.08503 0.32906 0.85368
 C567 C 0.63665 0.81862 0.37254
 C568 C 0.60712 0.78881 0.38221
 C569 C 0.60405 0.75553 0.35538
 C570 C 0.63331 0.75023 0.32415
 C571 C 0.66624 0.77807 0.31941
 C572 C 0.66557 0.81317 0.34230
 C573 C 0.69649 0.83761 0.36654
 C574 C 0.66454 0.84401 0.39977
 H575 H 0.58009 0.73287 0.35994
 H576 H 0.63132 0.72338 0.30562
 H577 H 0.70692 0.86481 0.34873
 H578 H 0.72024 0.82018 0.37917
 H579 H 0.65649 0.87485 0.40072
 H580 H 0.67061 0.83106 0.43164
 C581 C 0.86137 0.71748 0.88757
 C582 C 0.90149 0.72968 0.88256
 C583 C 0.91180 0.74932 0.84314
 C584 C 0.88251 0.75676 0.81211
 C585 C 0.84220 0.74377 0.81896
 C586 C 0.83369 0.72349 0.85720
 C587 C 0.80084 0.70223 0.88188
 C588 C 0.83219 0.69465 0.91605
 H589 H 0.94219 0.76028 0.83694
 H590 H 0.89143 0.77287 0.78312
 H591 H 0.78855 0.67519 0.86524
 H592 H 0.77866 0.72217 0.89294
 H593 H 0.83826 0.66327 0.91868
 H594 H 0.82710 0.70933 0.94713
 C595 C 0.36849 0.17996 0.38273
 C596 C 0.39939 0.20930 0.38812
 C597 C 0.40399 0.23899 0.35643
 C598 C 0.37484 0.24215 0.32448
 C599 C 0.34055 0.21565 0.32377
 C600 C 0.33973 0.18329 0.35168
 C601 C 0.30801 0.16344 0.37935
 C602 C 0.33976 0.15936 0.41342
 H603 H 0.42891 0.26095 0.35786
 H604 H 0.37794 0.26678 0.30234
 H605 H 0.29603 0.13483 0.36582
 H606 H 0.28542 0.18347 0.38911
 H607 H 0.34621 0.12840 0.41909
 H608 H 0.33476 0.17630 0.44302
 C609 C 0.72503 0.87460 0.89747
 C610 C 0.73724 0.91434 0.89042
 C611 C 0.75584 0.92409 0.85048
 C612 C 0.75903 0.89540 0.81847
 C613 C 0.74307 0.85640 0.82520
 C614 C 0.72781 0.84655 0.86595
 C615 C 0.68934 0.82516 0.87872
 C616 C 0.68636 0.85595 0.91347
 H617 H 0.76810 0.95381 0.84397
 H618 H 0.77314 0.90400 0.78820
 H619 H 0.69329 0.79545 0.89189
 H620 H 0.66632 0.82614 0.85334
 H621 H 0.68868 0.84398 0.94662
 H622 H 0.66160 0.87483 0.90832
 C623 C 0.19912 0.34254 0.39626
 C624 C 0.22044 0.37938 0.39397
 C625 C 0.24988 0.38501 0.36197
 C626 C 0.25491 0.35573 0.33114
 C627 C 0.23071 0.32000 0.33172
 C628 C 0.20425 0.31351 0.36612
 C629 C 0.16106 0.30061 0.36577
 C630 C 0.15558 0.33238 0.39886
 H631 H 0.26842 0.41238 0.36029
 H632 H 0.27732 0.36138 0.30653
 H633 H 0.15486 0.27040 0.37887
 H634 H 0.14691 0.30605 0.33425
 H635 H 0.14638 0.32046 0.43102
 H636 H 0.13828 0.35632 0.38659
 C637 C 0.28176 0.13372 0.89725
 C638 C 0.26999 0.09407 0.88953
 C639 C 0.25167 0.08500 0.84939
 C640 C 0.24807 0.11432 0.81793
 C641 C 0.26328 0.15337 0.82537
 C642 C 0.27849 0.16245 0.86624
 C643 C 0.31690 0.18382 0.87898
 C644 C 0.32038 0.15232 0.91313
 H645 H 0.23974 0.05533 0.84238
 H646 H 0.23382 0.10627 0.78768
 H647 H 0.31280 0.21318 0.89272
 H648 H 0.33978 0.18361 0.85332
 H649 H 0.31815 0.16352 0.94652
 H650 H 0.34529 0.13380 0.90739
 C651 C 0.76673 0.60473 0.34290
 C652 C 0.79245 0.61117 0.37777
 C653 C 0.81762 0.64621 0.37784
 C654 C 0.81246 0.67602 0.34734
 C655 C 0.78222 0.67112 0.31611
 C656 C 0.76175 0.63393 0.31279
 C657 C 0.71837 0.62243 0.30916
 C658 C 0.72399 0.59035 0.34214
 H659 H 0.83913 0.65167 0.40333
 H660 H 0.83041 0.70364 0.34995
 H661 H 0.71016 0.61077 0.27674
 H662 H 0.69997 0.64553 0.32120
 H663 H 0.71919 0.56025 0.32869
 H664 H 0.70889 0.59482 0.37332
 C665 C 0.09529 0.72627 0.84165
 C666 C 0.09871 0.70232 0.87782
 C667 C 0.13140 0.67939 0.87949
 C668 C 0.16208 0.68484 0.84874
 C669 C 0.16036 0.71312 0.81564
 C670 C 0.12521 0.73150 0.81134
 C671 C 0.11871 0.77391 0.80544
 C672 C 0.08576 0.76798 0.83866
 H673 H 0.13438 0.65911 0.90596
 H674 H 0.18798 0.66865 0.85238
 H675 H 0.10776 0.78024 0.77262
 H676 H 0.14430 0.79384 0.81651
 H677 H 0.05583 0.77069 0.82495
 H678 H 0.09219 0.78442 0.86902
 C679 C 0.59554 0.22966 0.35514
 C680 C 0.60083 0.20762 0.39236
 C681 C 0.63583 0.18812 0.39546
 C682 C 0.66640 0.19521 0.36473
 C683 C 0.66230 0.22172 0.33032
 C684 C 0.62535 0.23652 0.32496
 C685 C 0.61485 0.27756 0.31708
 C686 C 0.58202 0.26981 0.35017
 H687 H 0.64043 0.16931 0.42282
 H688 H 0.69389 0.18176 0.36934
 H689 H 0.60358 0.28160 0.28389
 H690 H 0.63851 0.30004 0.32752
 H691 H 0.55186 0.26915 0.33603
 H692 H 0.58660 0.28773 0.37982
 C693 C 0.85900 0.29578 0.90824
 C694 C 0.89884 0.30223 0.89618
 C695 C 0.90685 0.31140 0.85241
 C696 C 0.87613 0.30845 0.82158
 C697 C 0.83676 0.29789 0.83434
 C698 C 0.82874 0.29427 0.87831
 C699 C 0.80531 0.26213 0.90220
 C700 C 0.83863 0.26384 0.93503
 H701 H 0.93699 0.31856 0.84168
 H702 H 0.88329 0.31293 0.78784
 H703 H 0.80207 0.23412 0.88393
 H704 H 0.77726 0.27188 0.91531
 H705 H 0.85485 0.23689 0.93581
 H706 H 0.82969 0.27459 0.96696
 C707 C 0.40742 0.76052 0.34700
 C708 C 0.40412 0.78675 0.38098
 C709 C 0.37093 0.80899 0.38128
 C710 C 0.33981 0.80092 0.35172
 C711 C 0.34153 0.77072 0.32106
 C712 C 0.37700 0.75277 0.31770
 C713 C 0.38407 0.71026 0.31561
 C714 C 0.41752 0.71892 0.34767
 H715 H 0.36808 0.83097 0.40585
 H716 H 0.31371 0.81697 0.35428
 H717 H 0.39457 0.70184 0.28331
 H718 H 0.35895 0.69087 0.32888
 H719 H 0.44729 0.71569 0.33379
 H720 H 0.41184 0.70456 0.37954
 C721 C 0.29510 0.85387 0.10048
 C722 C 0.27516 0.88783 0.10466
 C723 C 0.24926 0.89000 0.13990
 C724 C 0.24622 0.86023 0.17153
 C725 C 0.26903 0.82764 0.16855
 C726 C 0.29200 0.82445 0.13147
 C727 C 0.33475 0.81757 0.12727
 C728 C 0.33799 0.84977 0.09320
 H729 H 0.23183 0.91495 0.14325
 H730 H 0.22626 0.86294 0.19838
 H731 H 0.33893 0.78802 0.11408
 H732 H 0.35192 0.82536 0.15696
 H733 H 0.34384 0.83874 0.06039
 H734 H 0.35702 0.87631 0.10306
 C735 C 0.81082 0.39924 0.62697
 C736 C 0.78151 0.42506 0.62010
 C737 C 0.75021 0.42414 0.65008
 C738 C 0.74563 0.39417 0.68154
 C739 C 0.77214 0.36444 0.68325
 C740 C 0.80603 0.36960 0.65740
 C741 C 0.82793 0.34218 0.63102
 C742 C 0.83373 0.37503 0.59764
 H743 H 0.72796 0.44497 0.64739
 H744 H 0.71980 0.39267 0.70220
 H745 H 0.80860 0.31644 0.61953
 H746 H 0.85599 0.33513 0.64657
 H747 H 0.81864 0.36756 0.56673
 H748 H 0.86509 0.38705 0.59447
 C749 C 0.69468 0.13662 0.11873
 C750 C 0.72352 0.11009 0.11329
 C751 C 0.75340 0.10970 0.14476
 C752 C 0.75729 0.13896 0.17665
 C753 C 0.73131 0.16914 0.17757
 C754 C 0.69873 0.16551 0.14980
 C755 C 0.67973 0.19444 0.12227
 C756 C 0.67481 0.16249 0.08815
 H757 H 0.77489 0.08801 0.14330
 H758 H 0.78198 0.13923 0.19878
 H759 H 0.70070 0.21973 0.11258
 H760 H 0.65113 0.20229 0.13587
 H761 H 0.69214 0.17008 0.05854
 H762 H 0.64337 0.15180 0.08252
 C763 C 0.18726 0.61883 0.61089
 C764 C 0.21519 0.59138 0.60505
 C765 C 0.24678 0.59202 0.63457
 C766 C 0.25288 0.62266 0.66469
 C767 C 0.22754 0.65341 0.66580
 C768 C 0.19352 0.64914 0.64016
 C769 C 0.17337 0.67712 0.61252
 C770 C 0.16603 0.64366 0.58040
 H771 H 0.26774 0.56984 0.63299
 H772 H 0.27864 0.62336 0.68536
 H773 H 0.19403 0.70165 0.60027
 H774 H 0.14575 0.68602 0.62753
 H775 H 0.18168 0.64957 0.54939
 H776 H 0.13421 0.63323 0.57734
 C777 C 0.86895 0.69761 0.10868
 C778 C 0.90284 0.72361 0.10457
 C779 C 0.90909 0.75339 0.13565
 C780 C 0.87929 0.75994 0.16589
 C781 C 0.84276 0.73678 0.16541
 C782 C 0.83972 0.70414 0.13818
 C783 C 0.80751 0.68787 0.10899
 C784 C 0.83975 0.68034 0.07660
 H785 H 0.93601 0.77285 0.13501
 H786 H 0.88404 0.78437 0.18787
 H787 H 0.78798 0.71052 0.09808
 H788 H 0.79188 0.66045 0.12202
 H789 H 0.83814 0.69811 0.04676
 H790 H 0.84278 0.64860 0.07132
 C791 C 0.36407 0.18903 0.61830
 C792 C 0.39425 0.21907 0.61222
 C793 C 0.39603 0.25070 0.64134
 C794 C 0.36529 0.25431 0.67142
 C795 C 0.33211 0.22638 0.67277
 C796 C 0.33381 0.19277 0.64748
 C797 C 0.30397 0.17023 0.61996
 C798 C 0.33736 0.16575 0.58790
 H799 H 0.42022 0.27346 0.63950
 H800 H 0.36652 0.27997 0.69184
 H801 H 0.28091 0.18864 0.60755
 H802 H 0.29260 0.14200 0.63515
 H803 H 0.33285 0.18087 0.55683
 H804 H 0.34527 0.13497 0.58498
 C805 C 0.09970 0.23023 0.13842
 C806 C 0.09690 0.26591 0.11695
 C807 C 0.12279 0.29819 0.12980
 C808 C 0.15360 0.29307 0.15927
 C809 C 0.15826 0.25580 0.17730
 C810 C 0.12929 0.22538 0.16829
 C811 C 0.13387 0.18443 0.15362
 C812 C 0.10138 0.18989 0.12091
 H813 H 0.12052 0.32678 0.11527
 H814 H 0.17445 0.31784 0.16681
 H815 H 0.12490 0.16232 0.17890
 H816 H 0.16326 0.18121 0.13870
 H817 H 0.07369 0.17101 0.12742
 H818 H 0.11189 0.18999 0.08697
 C819 C 0.60099 0.78415 0.64368
 C820 C 0.60772 0.80656 0.60628
 C821 C 0.64388 0.83003 0.60299
 C822 C 0.67407 0.82655 0.63371
 C823 C 0.66845 0.79963 0.66825
 C824 C 0.63052 0.78071 0.67385
 C825 C 0.61762 0.73842 0.68200
 C826 C 0.58512 0.74240 0.64894
 H827 H 0.64961 0.84919 0.57543
 H828 H 0.70241 0.84307 0.62891
 H829 H 0.60609 0.73328 0.71523
 H830 H 0.64006 0.71844 0.67162
 H831 H 0.55491 0.73978 0.66316
 H832 H 0.58867 0.72477 0.61939
   
