data_POSCAR
  _audit_creation_date              2014-09-24
  _audit_creation_method            'ToBaCCo'
  _symmetry_space_group_name_H-M    'P1'
  _symmetry_Int_Tables_number       1
  _symmetry_cell_setting            triclinic
  loop_
  _symmetry_equiv_pos_as_xyz
 x,y,z
_cell_length_a 36.0850
_cell_length_b 34.8180
_cell_length_c 18.6933
_cell_angle_alpha 90.740300
_cell_angle_beta 90.638200
_cell_angle_gamma 89.695800
loop_
  _atom_site_label
  _atom_site_type_symbol
  _atom_site_fract_x
  _atom_site_fract_y
  _atom_site_fract_z
C1 C 0.68313 0.29749 0.55056
 C2 C 0.67242 0.30922 0.48179
 C3 C 0.69055 0.29636 0.42042
 C4 C 0.72109 0.27108 0.42700
 C5 C 0.73264 0.25852 0.49582
 C6 C 0.71367 0.27175 0.55792
 C7 C 0.72814 0.26196 0.62552
 C8 C 0.75901 0.23836 0.63235
 C9 C 0.77754 0.22394 0.57199
 C10 C 0.76466 0.23459 0.50285
 C11 C 0.74171 0.26006 0.36700
 C12 C 0.77321 0.23722 0.37402
 C13 C 0.78473 0.22304 0.44100
 C14 C 0.81760 0.20053 0.44866
 C15 C 0.83059 0.19230 0.51799
 C16 C 0.81072 0.20234 0.57934
 H17 H 0.71695 0.27368 0.67448
 H18 H 0.76925 0.23311 0.68596
 H19 H 0.73443 0.27017 0.31414
 H20 H 0.78921 0.23220 0.32627
 H21 H 0.64894 0.32857 0.47548
 H22 H 0.85487 0.17409 0.52448
 C23 C 0.27758 0.66008 0.43878
 C24 C 0.28497 0.64324 0.50488
 C25 C 0.27120 0.65855 0.56873
 C26 C 0.24820 0.69149 0.56701
 C27 C 0.23992 0.70898 0.50056
 C28 C 0.25487 0.69341 0.43614
 C29 C 0.24659 0.71151 0.37118
 C30 C 0.22559 0.74514 0.36961
 C31 C 0.21076 0.76114 0.43261
 C32 C 0.21729 0.74257 0.49873
 C33 C 0.23365 0.70756 0.63001
 C34 C 0.21189 0.74060 0.62834
 C35 C 0.20218 0.75808 0.56325
 C36 C 0.18005 0.79212 0.56103
 C37 C 0.17554 0.81053 0.49504
 C38 C 0.19031 0.79577 0.43162
 H39 H 0.25653 0.70004 0.32084
 H40 H 0.22122 0.75854 0.31831
 H41 H 0.23922 0.69494 0.68163
 H42 H 0.20371 0.75273 0.67926
 H43 H 0.30355 0.61866 0.50714
 H44 H 0.15825 0.83605 0.49154
 C45 C 0.21572 0.17512 -0.43791
 C46 C 0.21550 0.15120 -0.49847
 C47 C 0.23122 0.16214 -0.56338
 C48 C 0.25163 0.19697 -0.56476
 C49 C 0.25303 0.22127 -0.50297
 C50 C 0.23431 0.21067 -0.43981
 C51 C 0.23428 0.23611 -0.38080
 C52 C 0.25442 0.26999 -0.38160
 C53 C 0.27477 0.28012 -0.44192
 C54 C 0.27321 0.25627 -0.50422
 C55 C 0.27304 0.20663 -0.62409
 C56 C 0.29352 0.24038 -0.62471
 C57 C 0.29273 0.26667 -0.56682
 C58 C 0.31321 0.30155 -0.56701
 C59 C 0.31441 0.32407 -0.50409
 C60 C 0.29634 0.31376 -0.44181
 H61 H 0.21881 0.23014 -0.33309
 H62 H 0.25373 0.28837 -0.33448
 H63 H 0.27529 0.18737 -0.66975
 H64 H 0.31089 0.24484 -0.67050
 H65 H 0.19978 0.12479 -0.49611
 H66 H 0.32971 0.35081 -0.50317
 C67 C -0.31266 0.70422 -0.44635
 C68 C -0.32226 0.69093 -0.51534
 C69 C -0.31021 0.70904 -0.57752
 C70 C -0.28548 0.74045 -0.57120
 C71 C -0.27255 0.75229 -0.50241
 C72 C -0.28637 0.73449 -0.43985
 C73 C -0.27134 0.74550 -0.37295
 C74 C -0.24548 0.77471 -0.36680
 C75 C -0.23168 0.79277 -0.42759
 C76 C -0.24481 0.78124 -0.49623
 C77 C -0.27152 0.75881 -0.63180
 C78 C -0.24552 0.78795 -0.62540
 C79 C -0.23005 0.79832 -0.55863
 C80 C -0.20162 0.82660 -0.55201
 C81 C -0.19092 0.83880 -0.48281
 C82 C -0.20499 0.82206 -0.42135
 H83 H -0.27861 0.73104 -0.32433
 H84 H -0.23596 0.78253 -0.31353
 H85 H -0.28004 0.75061 -0.68539
 H86 H -0.23780 0.80226 -0.67393
 H87 H -0.34254 0.66817 -0.52121
 H88 H -0.16893 0.85967 -0.47585
 N89 N -0.05033 0.94319 -0.05667
 N90 N -0.07833 0.91938 -0.06773
 N91 N 0.02329 0.96002 -0.13325
 N92 N 0.04576 0.95330 -0.18706
 N93 N 0.02504 0.93196 -0.08703
 N94 N 0.04854 0.90504 -0.10886
 N95 N -0.05221 0.97176 -0.10175
 N96 N -0.08180 0.96871 -0.14314
 C97 C -0.09820 0.93635 -0.12075
 C98 C 0.06125 0.91892 -0.17149
 N99 N 0.04419 1.06684 -0.08246
 N100 N 0.06908 1.09064 -0.10774
 N101 N -0.04108 1.05294 -0.09989
 N102 N -0.06663 1.06649 -0.14393
 N103 N -0.03098 1.07944 -0.05308
 N104 N -0.04894 1.11193 -0.06546
 N105 N 0.03408 1.04170 -0.13176
 N106 N 0.05141 1.04802 -0.19210
 Mn107 Mn -0.00906 1.00650 -0.11701
 C108 C 0.07364 1.07807 -0.17588
 C109 C -0.07201 1.10294 -0.12073
 N110 N 0.04160 0.92885 0.06480
 N111 N 0.06164 0.89731 0.07308
 N112 N -0.02433 0.96702 0.14374
 N113 N -0.04587 0.96486 0.20003
 N114 N -0.03349 0.94080 0.09560
 N115 N -0.06128 0.91976 0.11851
 N116 N 0.05116 0.95502 0.11273
 N117 N 0.07823 0.94213 0.15397
 Mn118 Mn -0.00437 0.93573 0.00416
 C119 C 0.08493 0.90635 0.12798
 C120 C -0.06889 0.93539 0.18363
 N121 N -0.01445 1.07602 0.09822
 N122 N -0.03479 1.10507 0.12168
 N123 N 0.06296 1.03690 0.11543
 N124 N 0.09217 1.04162 0.15775
 N125 N 0.06098 1.06455 0.06839
 N126 N 0.08865 1.08883 0.07794
 N127 N -0.01231 1.04888 0.14627
 N128 N -0.03087 1.05884 0.20404
 Mn129 Mn 0.01500 1.07200 0.00789
 Mn130 Mn 0.01945 1.00189 0.13015
 Cl131 Cl 0.00527 1.00404 0.00637
 C132 C -0.04511 1.09362 0.18732
 C133 C 0.10836 1.07378 0.13299
 N134 N 0.52810 0.46211 -0.13900
 N135 N 0.55032 0.45620 -0.19328
 N136 N 0.45560 0.43473 -0.07172
 N137 N 0.43163 0.40670 -0.08253
 N138 N 0.45092 0.46168 -0.11953
 N139 N 0.42352 0.45264 -0.16396
 N140 N 0.53262 0.43540 -0.09068
 N141 N 0.55775 0.40997 -0.11189
 C142 C 0.56882 0.42382 -0.17577
 C143 C 0.41132 0.41853 -0.13953
 N144 N 0.46841 0.46436 0.12875
 N145 N 0.45030 0.45539 0.18695
 N146 N 0.54309 0.43675 0.06479
 N147 N 0.56818 0.40984 0.07883
 N148 N 0.54553 0.46486 0.11211
 N149 N 0.57268 0.45842 0.15806
 N150 N 0.46576 0.43658 0.08072
 N151 N 0.44518 0.40834 0.10472
 Mn152 Mn 0.49946 0.43545 -0.00432
 C153 C 0.43522 0.42091 0.17054
 C154 C 0.58696 0.42433 0.13645
 N155 N 0.45087 0.54463 -0.11999
 N156 N 0.42137 0.55056 -0.16055
 N157 N 0.53253 0.57168 -0.09295
 N158 N 0.55756 0.59651 -0.11482
 N159 N 0.52809 0.54398 -0.14056
 N160 N 0.55033 0.54871 -0.19508
 N161 N 0.45544 0.57306 -0.07396
 N162 N 0.42927 0.59932 -0.08244
 Mn163 Mn 0.48927 0.50313 -0.13028
 C164 C 0.40794 0.58455 -0.13607
 C165 C 0.56873 0.58140 -0.17847
 N166 N 0.54509 0.54644 0.11044
 N167 N 0.57297 0.55262 0.15477
 N168 N 0.46574 0.57486 0.07866
 N169 N 0.44030 0.60067 0.09583
 N170 N 0.46735 0.54755 0.12643
 N171 N 0.44271 0.55383 0.17706
 N172 N 0.54285 0.57356 0.06244
 N173 N 0.56880 0.59974 0.07455
 Mn174 Mn 0.50643 0.50589 0.11989
 Mn175 Mn 0.49936 0.57380 -0.00653
 Cl176 Cl 0.49868 0.50452 -0.00530
 C177 C 0.58783 0.58560 0.13167
 C178 C 0.42598 0.58702 0.15704
 C179 C 0.31679 0.31676 0.30431
 C180 C 0.33288 0.31537 0.37337
 C181 C 0.36777 0.33259 0.38453
 C182 C 0.38503 0.35271 0.33030
 C183 C 0.36863 0.35413 0.26143
 C184 C 0.33484 0.33534 0.24860
 C185 C 0.38572 0.37549 0.20776
 C186 C 0.41780 0.39668 0.22397
 C187 C 0.43366 0.39513 0.29264
 C188 C 0.41778 0.37278 0.34510
 H189 H 0.38126 0.33118 0.43661
 H190 H 0.32157 0.33651 0.19639
 H191 H 0.37341 0.37691 0.15467
 H192 H 0.43056 0.37205 0.39782
 H193 H 0.28932 0.30543 0.29413
 H194 H 0.45863 0.41105 0.30554
 C195 C -0.16848 0.81692 0.33396
 C196 C -0.18159 0.84134 0.38914
 C197 C -0.17077 0.88028 0.38865
 C198 C -0.14733 0.89425 0.33564
 C199 C -0.13472 0.86942 0.28064
 C200 C -0.14583 0.83090 0.27991
 C201 C -0.11021 0.88327 0.22891
 C202 C -0.09738 0.92133 0.23308
 C203 C -0.11044 0.94577 0.28770
 C204 C -0.13547 0.93251 0.33802
 H205 H -0.18057 0.89993 0.42985
 H206 H -0.13597 0.81123 0.23888
 H207 H -0.10003 0.86410 0.18731
 H208 H -0.14485 0.95196 0.37984
 H209 H -0.17417 0.78642 0.33427
 H210 H -0.10107 0.97523 0.29178
 C211 C 0.65585 0.71824 0.30915
 C212 C 0.67615 0.69471 0.35637
 C213 C 0.67899 0.65521 0.34102
 C214 C 0.66104 0.63913 0.28122
 C215 C 0.63922 0.66257 0.23587
 C216 C 0.63758 0.70229 0.24935
 C217 C 0.61763 0.64546 0.18102
 C218 C 0.61727 0.60528 0.17286
 C219 C 0.64116 0.58277 0.21502
 C220 C 0.66299 0.59953 0.26852
 H221 H 0.69464 0.63679 0.37688
 H222 H 0.62099 0.72078 0.21540
 H223 H 0.59904 0.66293 0.14898
 H224 H 0.67994 0.58126 0.30229
 H225 H 0.65235 0.74860 0.32071
 H226 H 0.64144 0.55176 0.20912
 C227 C 0.22008 1.09949 0.37904
 C228 C 0.22184 1.13990 0.37488
 C229 C 0.20702 1.15767 0.31332
 C230 C 0.18725 1.13603 0.26164
 C231 C 0.18323 1.09600 0.27021
 C232 C 0.20121 1.07781 0.32721
 C233 C 0.15931 1.07521 0.22460
 C234 C 0.13887 1.09399 0.17098
 C235 C 0.14503 1.13325 0.15951
 C236 C 0.16902 1.15412 0.20448
 H237 H 0.20712 1.18871 0.30935
 H238 H 0.19898 1.04705 0.33393
 H239 H 0.15504 1.04484 0.23342
 H240 H 0.17193 1.18473 0.19658
 H241 H 0.23208 1.08469 0.42446
 H242 H 0.12979 1.14833 0.11818
 C243 C 0.64903 0.29127 -0.33645
 C244 C 0.66411 0.31393 -0.39075
 C245 C 0.65840 0.35391 -0.38801
 C246 C 0.63858 0.37106 -0.33224
 C247 C 0.62350 0.34817 -0.27796
 C248 C 0.62907 0.30826 -0.28041
 C249 C 0.60219 0.36558 -0.22376
 C250 C 0.59541 0.40536 -0.22468
 C251 C 0.61155 0.42777 -0.27783
 C252 C 0.63308 0.41084 -0.33090
 H253 H 0.66998 0.37188 -0.42909
 H254 H 0.61744 0.29014 -0.23976
 H255 H 0.58958 0.34811 -0.18316
 H256 H 0.64467 0.42877 -0.37191
 H257 H 0.65179 0.26028 -0.33845
 H258 H 0.60686 0.45851 -0.27925
 C259 C 0.14031 0.78539 -0.33278
 C260 C 0.16126 0.80826 -0.37906
 C261 C 0.15980 0.84851 -0.36942
 C262 C 0.13736 0.86551 -0.31707
 C263 C 0.11639 0.84228 -0.27139
 C264 C 0.11854 0.80219 -0.27902
 C265 C 0.09263 0.85966 -0.22096
 C266 C 0.08888 0.89990 -0.21786
 C267 C 0.11034 0.92254 -0.26301
 C268 C 0.13466 0.90556 -0.31153
 H269 H 0.17598 0.86687 -0.40344
 H270 H 0.10232 0.78384 -0.24519
 H271 H 0.07593 0.84201 -0.18666
 H272 H 0.15059 0.92378 -0.34616
 H273 H 0.13911 0.75453 -0.34038
 H274 H 0.10806 0.95357 -0.26119
 C275 C 0.28146 0.60125 -0.35482
 C276 C 0.28502 0.64099 -0.36429
 C277 C 0.30753 0.66242 -0.31695
 C278 C 0.32831 0.64391 -0.26366
 C279 C 0.32654 0.60350 -0.25797
 C280 C 0.30201 0.58261 -0.30191
 C281 C 0.35111 0.58442 -0.21195
 C282 C 0.37743 0.60517 -0.17172
 C283 C 0.37707 0.64545 -0.17324
 C284 C 0.35272 0.66474 -0.21921
 H285 H 0.31086 0.69299 -0.32494
 H286 H 0.30012 0.55166 -0.29779
 H287 H 0.35109 0.55329 -0.21027
 H288 H 0.35417 0.69575 -0.22237
 H289 H 0.26434 0.58437 -0.39119
 H290 H 0.39714 0.66190 -0.14233
 C291 C -0.19827 1.16460 -0.31263
 C292 C -0.17595 1.18828 -0.35463
 C293 C -0.13862 1.19374 -0.33447
 C294 C -0.12353 1.17514 -0.27473
 C295 C -0.14550 1.14926 -0.23609
 C296 C -0.18306 1.14491 -0.25440
 C297 C -0.12903 1.12698 -0.18210
 C298 C -0.09132 1.13141 -0.16494
 C299 C -0.07046 1.15923 -0.19983
 C300 C -0.08635 1.18073 -0.25484
 H301 H -0.12122 1.21220 -0.36600
 H302 H -0.20039 1.12544 -0.22504
 H303 H -0.14505 1.10530 -0.15531
 H304 H -0.06924 1.20076 -0.28343
 H305 H -0.22689 1.15931 -0.32770
 H306 H -0.04121 1.16253 -0.18765
 C307 C 0.65358 0.71071 -0.33236
 C308 C 0.66905 0.68762 -0.38718
 C309 C 0.66279 0.64767 -0.38557
 C310 C 0.64160 0.63128 -0.33149
 C311 C 0.62630 0.65479 -0.27705
 C312 C 0.63282 0.69445 -0.27766
 C313 C 0.60375 0.63834 -0.22458
 C314 C 0.59574 0.59883 -0.22731
 C315 C 0.61180 0.57577 -0.28101
 C316 C 0.63471 0.59174 -0.33221
 H317 H 0.67457 0.62910 -0.42654
 H318 H 0.62095 0.71309 -0.23700
 H319 H 0.59129 0.65641 -0.18368
 H320 H 0.64631 0.57326 -0.37343
 H321 H 0.65609 0.74168 -0.33338
 H322 H 0.60624 0.54524 -0.28402
 C323 C 0.20941 1.15649 -0.30872
 C324 C 0.19335 1.16253 -0.37646
 C325 C 0.15617 1.15261 -0.38867
 C326 C 0.13556 1.13546 -0.33514
 C327 C 0.15159 1.12985 -0.26664
 C328 C 0.18842 1.14099 -0.25366
 C329 C 0.13082 1.11208 -0.21339
 C330 C 0.09516 1.09832 -0.22946
 C331 C 0.07979 1.10356 -0.29785
 C332 C 0.09958 1.12258 -0.35001
 H333 H 0.14379 1.15687 -0.44115
 H334 H 0.20132 1.13653 -0.20180
 H335 H 0.14276 1.10767 -0.16063
 H336 H 0.08707 1.12646 -0.40241
 H337 H 0.23832 1.16316 -0.29893
 H338 H 0.05219 1.09327 -0.31067
 C339 C 0.29927 0.37768 -0.37951
 C340 C 0.30424 0.33765 -0.37697
 C341 C 0.32411 0.32172 -0.31939
 C342 C 0.34149 0.34570 -0.26830
 C343 C 0.33871 0.38606 -0.27464
 C344 C 0.31629 0.40171 -0.32871
 C345 C 0.36013 0.40999 -0.22965
 C346 C 0.38422 0.39407 -0.17832
 C347 C 0.38474 0.35408 -0.16902
 C348 C 0.36367 0.33007 -0.21383
 H349 H 0.32852 0.29092 -0.31772
 H350 H 0.31352 0.43255 -0.33397
 H351 H 0.35927 0.44085 -0.23664
 H352 H 0.36588 0.29923 -0.20773
 H353 H 0.28416 0.39044 -0.42370
 H354 H 0.40293 0.34118 -0.12952
 C355 C -0.16591 0.81059 -0.31224
 C356 C -0.18925 0.83498 -0.35174
 C357 C -0.19434 0.87314 -0.32915
 C358 C -0.17483 0.88753 -0.26951
 C359 C -0.15043 0.86319 -0.23103
 C360 C -0.14695 0.82448 -0.25174
 C361 C -0.12800 0.87863 -0.17604
 C362 C -0.12858 0.91829 -0.16170
 C363 C -0.15418 0.94181 -0.19772
 C364 C -0.17752 0.92647 -0.25056
 H365 H -0.21208 0.89202 -0.36024
 H366 H -0.12831 0.80543 -0.22314
 H367 H -0.10785 0.86050 -0.14912
 H368 H -0.19614 0.94547 -0.27932
 H369 H -0.16148 0.78116 -0.32973
 H370 H -0.15485 0.97249 -0.18728
 C371 C 0.29390 0.60292 0.36312
 C372 C 0.29666 0.64270 0.37588
 C373 C 0.32243 0.66397 0.33698
 C374 C 0.34610 0.64545 0.28804
 C375 C 0.34453 0.60507 0.27909
 C376 C 0.31768 0.58424 0.31547
 C377 C 0.37052 0.58609 0.23562
 C378 C 0.39733 0.60707 0.19918
 C379 C 0.39741 0.64731 0.20507
 C380 C 0.37230 0.66635 0.24987
 H381 H 0.32532 0.69451 0.34749
 H382 H 0.31581 0.55335 0.30873
 H383 H 0.37007 0.55504 0.23041
 H384 H 0.37376 0.69732 0.25550
 H385 H 0.27440 0.58599 0.39291
 H386 H 0.41784 0.66393 0.17708
 C387 C -0.18190 1.16514 0.33353
 C388 C -0.16294 1.18391 0.39028
 C389 C -0.12386 1.18209 0.39194
 C390 C -0.10431 1.16155 0.33962
 C391 C -0.12376 1.14310 0.28297
 C392 C -0.16251 1.14547 0.27997
 C393 C -0.10412 1.12166 0.23165
 C394 C -0.06555 1.11783 0.23781
 C395 C -0.04641 1.13618 0.29400
 C396 C -0.06562 1.15828 0.34425
 H397 H -0.10848 1.19658 0.43445
 H398 H -0.17790 1.13102 0.23752
 H399 H -0.11877 1.10711 0.18828
 H400 H -0.05031 1.17214 0.38750
 H401 H -0.21189 1.16403 0.33219
 H402 H -0.01659 1.13325 0.29901
 C403 C 0.65652 0.28919 0.30316
 C404 C 0.67723 0.31201 0.35123
 C405 C 0.68046 0.35148 0.33897
 C406 C 0.66131 0.36860 0.28194
 C407 C 0.63900 0.34588 0.23541
 C408 C 0.63773 0.30596 0.24529
 C409 C 0.61669 0.36381 0.18301
 C410 C 0.61579 0.40412 0.17859
 C411 C 0.63955 0.42602 0.22279
 C412 C 0.66232 0.40845 0.27354
 H413 H 0.69618 0.36916 0.37653
 H414 H 0.62087 0.28799 0.21029
 H415 H 0.59822 0.34673 0.14952
 H416 H 0.67942 0.42622 0.30846
 H417 H 0.65352 0.25873 0.31243
 H418 H 0.63948 0.45708 0.21992
 C419 C 0.19406 0.85627 0.36292
 C420 C 0.18261 0.81786 0.36588
 C421 C 0.15876 0.80311 0.31250
 C422 C 0.14456 0.82731 0.25915
 C423 C 0.15445 0.86658 0.25950
 C424 C 0.18021 0.88044 0.30999
 C425 C 0.13664 0.89186 0.21248
 C426 C 0.10891 0.87852 0.16534
 C427 C 0.10121 0.83904 0.16147
 C428 C 0.11886 0.81359 0.20823
 H429 H 0.14946 0.77362 0.31535
 H430 H 0.18826 0.91039 0.31068
 H431 H 0.14293 0.92228 0.21522
 H432 H 0.11119 0.78354 0.20671
 H433 H 0.21228 0.86802 0.40405
 H434 H 0.07995 0.82818 0.12532
   
