data_POSCAR
  _audit_creation_date              2014-09-24
  _audit_creation_method            'ToBaCCo'
  _symmetry_space_group_name_H-M    'P1'
  _symmetry_Int_Tables_number       1
  _symmetry_cell_setting            triclinic
  loop_
  _symmetry_equiv_pos_as_xyz
 x,y,z
_cell_length_a 42.2123
_cell_length_b 44.2763
_cell_length_c 22.5817
_cell_angle_alpha 90.004900
_cell_angle_beta 89.866800
_cell_angle_gamma 121.066800
loop_
  _atom_site_label
  _atom_site_type_symbol
  _atom_site_fract_x
  _atom_site_fract_y
  _atom_site_fract_z
C1 C 0.48966 0.89640 0.53890
 C2 C 0.48866 0.89325 0.47831
 C3 C 0.48789 0.92201 0.45602
 N4 N 0.48835 0.94253 0.50063
 C5 C 0.48937 0.92692 0.55130
 C6 C 0.48466 0.92819 0.39578
 C7 C 0.48904 0.96020 0.37528
 C8 C 0.47747 0.96473 0.32050
 C9 C 0.49029 1.00007 0.31479
 C10 C 0.50959 1.01640 0.36641
 N11 N 0.50828 0.99162 0.40320
 C12 C 0.53258 1.05335 0.37497
 C13 C 0.54495 1.06820 0.43238
 C14 C 0.56758 1.10386 0.44504
 C15 C 0.56991 1.10705 0.50520
 C16 C 0.54737 1.07351 0.52845
 N17 N 0.53219 1.04987 0.48378
 C18 C 0.53927 1.06551 0.58959
 C19 C 0.51798 1.03011 0.60999
 C20 C 0.49676 1.01924 0.66138
 C21 C 0.48259 0.98362 0.66694
 C22 C 0.49450 0.97339 0.61792
 N23 N 0.51570 1.00174 0.58297
 C24 C 0.48727 0.93891 0.60818
 H25 H 0.49046 0.87826 0.57011
 H26 H 0.48840 0.87218 0.45360
 H27 H 0.53094 1.00229 0.54616
 H28 H 0.46212 0.94474 0.28740
 H29 H 0.48660 1.01200 0.27573
 H30 H 0.58033 1.12609 0.41525
 H31 H 0.58609 1.13176 0.52840
 H32 H 0.46502 0.96703 0.70256
 H33 H 0.52420 0.99637 0.44103
 H34 H 0.49154 1.03516 0.69159
 C35 C 0.09706 0.58733 0.48292
 C36 C 0.09511 0.58218 0.54303
 C37 C 0.06410 0.54920 0.55384
 N38 N 0.04645 0.53465 0.50231
 C39 C 0.06665 0.55790 0.45911
 C40 C 0.05243 0.53232 0.60986
 C41 C 0.01573 0.50387 0.61884
 C42 C 0.00424 0.47979 0.66520
 C43 C -0.03342 0.45805 0.66011
 C44 C -0.04398 0.46938 0.61091
 N45 N -0.01389 0.49707 0.58563
 C46 C -0.08090 0.45608 0.59308
 C47 C -0.09004 0.46221 0.53631
 C48 C -0.12376 0.45814 0.52108
 C49 C -0.12196 0.46507 0.46163
 C50 C -0.08763 0.47195 0.44209
 N51 N -0.06792 0.47073 0.48822
 C52 C -0.07497 0.47808 0.38256
 C53 C -0.03670 0.49487 0.36910
 C54 C -0.02205 0.49474 0.31397
 C55 C 0.01571 0.51549 0.31863
 C56 C 0.02323 0.52756 0.37648
 N57 N -0.00877 0.51479 0.40709
 C58 C 0.05874 0.55204 0.39817
 H59 H 0.11797 0.61045 0.45953
 H60 H 0.11405 0.60107 0.57489
 H61 H -0.01142 0.52247 0.44950
 H62 H 0.02117 0.47790 0.69920
 H63 H -0.05101 0.43653 0.68962
 H64 H -0.14691 0.45155 0.55006
 H65 H -0.14345 0.46537 0.43612
 H66 H 0.03539 0.52117 0.28328
 H67 H -0.01418 0.51289 0.55176
 H68 H -0.03684 0.48106 0.27432
 C69 C 0.58822 0.48357 0.53586
 C70 C 0.58866 0.48274 0.47520
 C71 C 0.55917 0.48560 0.45626
 N72 N 0.54044 0.48776 0.50323
 C73 C 0.55793 0.48613 0.55218
 C74 C 0.54932 0.48530 0.39649
 C75 C 0.52602 0.49761 0.37840
 C76 C 0.50927 0.49144 0.32340
 C77 C 0.49207 0.51066 0.32134
 C78 C 0.49901 0.52819 0.37505
 N79 N 0.51963 0.51997 0.40962
 C80 C 0.48858 0.55293 0.38928
 C81 C 0.49055 0.56553 0.44740
 C82 C 0.48778 0.59439 0.46229
 C83 C 0.48748 0.59558 0.52294
 C84 C 0.49047 0.56750 0.54340
 N85 N 0.49220 0.54921 0.49684
 C86 C 0.48599 0.55573 0.60296
 C87 C 0.49545 0.53051 0.62164
 C88 C 0.48923 0.51546 0.67775
 C89 C 0.50586 0.49588 0.67951
 C90 C 0.52327 0.50019 0.62535
 N91 N 0.51666 0.52120 0.59033
 C92 C 0.54659 0.48675 0.61123
 H93 H 0.60857 0.48324 0.56442
 H94 H 0.60897 0.48118 0.44816
 H95 H 0.52983 0.53204 0.55030
 H96 H 0.50978 0.47514 0.28813
 H97 H 0.47671 0.51196 0.28414
 H98 H 0.48566 0.61246 0.43263
 H99 H 0.48458 0.61472 0.54831
 H100 H 0.50568 0.48087 0.71744
 H101 H 0.53250 0.53224 0.44906
 H102 H 0.47572 0.51896 0.71545
 O103 O 0.38997 0.67693 -0.07166
 O104 O 0.38198 0.73096 -0.05414
 C105 C 0.35610 0.73083 -0.08304
 O106 O 0.32224 0.71038 -0.07096
 O107 O 0.26561 0.64767 -0.05028
 C108 C 0.26477 0.62235 -0.07842
 O109 O 0.28545 0.61034 -0.06612
 O110 O 0.35119 0.62027 -0.04934
 C111 C 0.37692 0.64437 -0.08070
 O112 O 0.39529 0.67010 0.04603
 O113 O 0.38351 0.72169 0.06372
 C114 C 0.36191 0.73278 0.07571
 O115 O 0.33246 0.72363 0.04681
 O116 O 0.27763 0.66013 0.06727
 C117 C 0.26556 0.62822 0.08052
 O118 O 0.27446 0.60887 0.05220
 O119 O 0.34146 0.62187 0.06865
 C120 C 0.37571 0.64272 0.07727
 Cr121 Cr 0.38567 0.69872 -0.00394
 Cr122 Cr 0.30074 0.68476 -0.00180
 Cr123 Cr 0.31386 0.61724 0.00123
 O124 O 0.33338 0.66689 -0.00156
 O125 O 0.58792 0.31549 -0.06691
 O126 O 0.58843 0.25696 -0.05267
 C127 C 0.61104 0.25361 -0.08507
 O128 O 0.64577 0.27263 -0.07919
 O129 O 0.70796 0.33186 -0.05991
 C130 C 0.71286 0.35999 -0.08374
 O131 O 0.69501 0.37453 -0.06867
 O132 O 0.63262 0.37097 -0.04715
 C133 C 0.60486 0.34836 -0.07715
 O134 O 0.58714 0.32299 0.05146
 O135 O 0.59238 0.26710 0.06491
 C136 C 0.61062 0.25184 0.07099
 O137 O 0.63789 0.25818 0.03798
 O138 O 0.69813 0.31845 0.05715
 C139 C 0.71358 0.35042 0.07276
 O140 O 0.70711 0.37263 0.04839
 O141 O 0.64400 0.36740 0.07031
 C142 C 0.60981 0.34952 0.08185
 Cr143 Cr 0.59099 0.29175 -0.00100
 Cr144 Cr 0.67139 0.29620 -0.01082
 Cr145 Cr 0.66867 0.36943 0.00054
 O146 O 0.64381 0.31923 -0.00388
 C147 C 0.47678 0.91489 -0.33998
 C148 C 0.44658 0.88038 -0.34122
 C149 C 0.43543 0.85554 -0.29068
 C150 C 0.39975 0.82553 -0.29012
 C151 C 0.38835 0.80099 -0.24398
 C152 C 0.41258 0.80598 -0.19723
 C153 C 0.44849 0.83566 -0.19837
 C154 C 0.45987 0.86021 -0.24447
 C155 C 0.40202 0.78043 -0.14784
 C156 C 0.36547 0.75578 -0.13246
 H157 H 0.42966 0.87147 -0.38076
 H158 H 0.38060 0.82097 -0.32569
 H159 H 0.36087 0.77794 -0.24600
 H160 H 0.46791 0.83987 -0.16345
 H161 H 0.48800 0.88231 -0.24415
 H162 H 0.42408 0.78191 -0.12113
 H163 H 0.49123 0.92593 -0.29882
 H164 H 0.34281 0.75502 -0.15607
 C165 C 0.07658 0.54372 -0.34085
 C166 C 0.11492 0.55881 -0.34451
 C167 C 0.13931 0.57246 -0.29205
 C168 C 0.17321 0.57375 -0.29285
 C169 C 0.19721 0.58721 -0.24450
 C170 C 0.18784 0.59997 -0.19448
 C171 C 0.15433 0.59945 -0.19429
 C172 C 0.13019 0.58571 -0.24243
 C173 C 0.21298 0.61529 -0.14314
 C174 C 0.23870 0.60580 -0.12782
 H175 H 0.12731 0.55845 -0.38637
 H176 H 0.18115 0.56430 -0.33103
 H177 H 0.22337 0.58831 -0.24715
 H178 H 0.14678 0.60968 -0.15673
 H179 H 0.10486 0.58624 -0.24115
 H180 H 0.21026 0.63378 -0.11533
 H181 H 0.06453 0.53775 -0.29690
 H182 H 0.23976 0.58536 -0.15241
 C183 C 0.47153 0.56974 -0.35617
 C184 C 0.44143 0.54859 -0.31924
 C185 C 0.42630 0.56295 -0.27573
 C186 C 0.39034 0.54090 -0.25394
 C187 C 0.37557 0.55314 -0.21136
 C188 C 0.39644 0.58769 -0.18958
 C189 C 0.43271 0.60970 -0.21080
 C190 C 0.44749 0.59744 -0.25338
 C191 C 0.38005 0.59910 -0.14305
 C192 C 0.39318 0.63433 -0.12893
 H193 H 0.42689 0.52023 -0.32490
 H194 H 0.37361 0.51408 -0.26984
 H195 H 0.34773 0.53549 -0.19529
 H196 H 0.45025 0.63603 -0.19361
 H197 H 0.47582 0.61478 -0.26736
 H198 H 0.35601 0.57874 -0.11967
 H199 H 0.47973 0.59715 -0.35976
 H200 H 0.41562 0.65531 -0.15396
 C201 C 0.55134 0.09418 -0.37065
 C202 C 0.55943 0.09376 -0.31074
 C203 C 0.57450 0.12593 -0.27430
 C204 C 0.56128 0.12370 -0.21655
 C205 C 0.57472 0.15405 -0.18190
 C206 C 0.60227 0.18701 -0.20414
 C207 C 0.61645 0.18899 -0.26111
 C208 C 0.60240 0.15877 -0.29623
 C209 C 0.61759 0.21918 -0.16762
 C210 C 0.59557 0.22487 -0.12864
 H211 H 0.55556 0.07012 -0.28980
 H212 H 0.54015 0.09853 -0.19861
 H213 H 0.56408 0.15161 -0.13738
 H214 H 0.63811 0.21401 -0.27866
 H215 H 0.61376 0.16100 -0.34017
 H216 H 0.64665 0.23900 -0.17227
 H217 H 0.55709 0.11932 -0.38773
 H218 H 0.56595 0.20659 -0.12806
 C219 C 0.88825 0.43361 -0.36592
 C220 C 0.88686 0.44430 -0.30842
 C221 C 0.85510 0.42339 -0.26841
 C222 C 0.84649 0.44092 -0.22550
 C223 C 0.81637 0.42202 -0.18747
 C224 C 0.79454 0.38505 -0.19118
 C225 C 0.80391 0.36738 -0.23273
 C226 C 0.83375 0.38636 -0.27139
 C227 C 0.76287 0.36450 -0.15076
 C228 C 0.74152 0.37787 -0.12940
 H229 H 0.90865 0.47009 -0.29387
 H230 H 0.86290 0.46938 -0.22177
 H231 H 0.81066 0.43636 -0.15453
 H232 H 0.78788 0.33888 -0.23564
 H233 H 0.84040 0.37198 -0.30283
 H234 H 0.75573 0.33804 -0.13866
 H235 H 0.86447 0.41016 -0.38369
 H236 H 0.74661 0.40303 -0.14560
 C237 C 0.55910 0.47472 -0.34121
 C238 C 0.56561 0.44683 -0.34520
 C239 C 0.57714 0.43417 -0.29360
 C240 C 0.56776 0.39884 -0.29167
 C241 C 0.57774 0.38592 -0.24316
 C242 C 0.59756 0.40827 -0.19561
 C243 C 0.60797 0.44388 -0.19849
 C244 C 0.59784 0.45674 -0.24686
 C245 C 0.60909 0.39579 -0.14371
 C246 C 0.59134 0.36048 -0.12633
 H247 H 0.55845 0.43146 -0.38555
 H248 H 0.55241 0.38109 -0.32763
 H249 H 0.57041 0.35864 -0.24375
 H250 H 0.62388 0.46180 -0.16304
 H251 H 0.60674 0.48445 -0.24784
 H252 H 0.63199 0.41534 -0.11744
 H253 H 0.56004 0.48499 -0.29739
 H254 H 0.56708 0.34080 -0.14979
 C255 C 0.89990 0.46778 0.33469
 C256 C 0.86384 0.43859 0.33609
 C257 C 0.83767 0.42843 0.28608
 C258 C 0.80802 0.39352 0.28275
 C259 C 0.78257 0.38279 0.23650
 C260 C 0.78627 0.40688 0.19244
 C261 C 0.81521 0.44209 0.19680
 C262 C 0.84076 0.45283 0.24308
 C263 C 0.75997 0.39621 0.14247
 C264 C 0.74034 0.36167 0.12143
 H265 H 0.85526 0.42067 0.37341
 H266 H 0.80456 0.37440 0.31601
 H267 H 0.75978 0.35577 0.23611
 H268 H 0.81823 0.46129 0.16405
 H269 H 0.86244 0.48028 0.24540
 H270 H 0.75720 0.41637 0.12007
 H271 H 0.91005 0.48097 0.29256
 H272 H 0.74497 0.34188 0.14062
 C273 C 0.54173 0.07545 0.32484
 C274 C 0.57764 0.10298 0.31257
 C275 C 0.58655 0.12828 0.26353
 C276 C 0.55989 0.13479 0.23966
 C277 C 0.56957 0.16017 0.19547
 C278 C 0.60622 0.17986 0.17474
 C279 C 0.63268 0.17301 0.19804
 C280 C 0.62302 0.14770 0.24241
 C281 C 0.61762 0.20722 0.12848
 C282 C 0.59883 0.22494 0.11756
 H283 H 0.60031 0.10548 0.33891
 H284 H 0.53168 0.12091 0.25574
 H285 H 0.54817 0.16400 0.17754
 H286 H 0.66104 0.18768 0.18252
 H287 H 0.64410 0.14333 0.26038
 H288 H 0.64270 0.21475 0.10384
 H289 H 0.52159 0.06838 0.29008
 H290 H 0.57521 0.21962 0.14437
 C291 C 0.56531 0.47353 0.34974
 C292 C 0.56336 0.44114 0.35243
 C293 C 0.57755 0.42858 0.30432
 C294 C 0.56096 0.39224 0.29426
 C295 C 0.57339 0.37971 0.24829
 C296 C 0.60305 0.40341 0.21200
 C297 C 0.62044 0.43967 0.22348
 C298 C 0.60775 0.45219 0.26893
 C299 C 0.61718 0.39134 0.16300
 C300 C 0.59525 0.35994 0.13214
 H301 H 0.54884 0.42357 0.38917
 H302 H 0.53804 0.37353 0.32160
 H303 H 0.56010 0.35152 0.24194
 H304 H 0.64373 0.45841 0.19678
 H305 H 0.62195 0.48032 0.27673
 H306 H 0.64534 0.40900 0.14822
 H307 H 0.57540 0.48923 0.30975
 H308 H 0.56628 0.34321 0.14324
 C309 C 0.08840 0.57261 0.35423
 C310 C 0.12180 0.57330 0.35524
 C311 C 0.14931 0.58899 0.30680
 C312 C 0.17218 0.57538 0.29468
 C313 C 0.19745 0.58873 0.24769
 C314 C 0.20053 0.61627 0.21227
 C315 C 0.17863 0.63073 0.22587
 C316 C 0.15315 0.61718 0.27247
 C317 C 0.22681 0.63120 0.16205
 C318 C 0.23977 0.61247 0.13077
 H319 H 0.12621 0.55888 0.38981
 H320 H 0.17010 0.55401 0.32111
 H321 H 0.21477 0.57773 0.23985
 H322 H 0.18096 0.65238 0.19993
 H323 H 0.13682 0.62907 0.28180
 H324 H 0.23482 0.65749 0.14723
 H325 H 0.08160 0.58306 0.31620
 H326 H 0.23027 0.58537 0.14222
 C327 C 0.47685 0.90068 0.35127
 C328 C 0.44467 0.86756 0.35318
 C329 C 0.43433 0.84193 0.30435
 C330 C 0.39683 0.81884 0.29149
 C331 C 0.38638 0.79544 0.24383
 C332 C 0.41339 0.79448 0.20861
 C333 C 0.45082 0.81660 0.22302
 C334 C 0.46126 0.84024 0.27020
 C335 C 0.40359 0.77012 0.15790
 C336 C 0.37108 0.75749 0.12531
 H337 H 0.42501 0.86172 0.38872
 H338 H 0.37561 0.81934 0.31778
 H339 H 0.35722 0.77789 0.23526
 H340 H 0.47209 0.81587 0.19723
 H341 H 0.49039 0.85692 0.28014
 H342 H 0.42360 0.76316 0.14404
 H343 H 0.49418 0.90857 0.31211
 H344 H 0.35192 0.76607 0.13585
 C345 C 0.47490 0.56581 0.34070
 C346 C 0.44142 0.56487 0.34544
 C347 C 0.42568 0.57590 0.29743
 C348 C 0.38776 0.56392 0.29861
 C349 C 0.37181 0.57374 0.25421
 C350 C 0.39354 0.59624 0.20815
 C351 C 0.43162 0.60840 0.20700
 C352 C 0.44756 0.59850 0.25134
 C353 C 0.37537 0.60551 0.16149
 C354 C 0.39434 0.63489 0.12459
 H355 H 0.42517 0.55401 0.38547
 H356 H 0.37032 0.54663 0.33377
 H357 H 0.34240 0.56386 0.25603
 H358 H 0.44923 0.62511 0.17161
 H359 H 0.47702 0.60895 0.24950
 H360 H 0.34562 0.58898 0.15713
 H361 H 0.48958 0.57253 0.29892
 H362 H 0.42365 0.65308 0.13047
   
