data_POSCAR
  _audit_creation_date              2014-09-24
  _audit_creation_method            'ToBaCCo'
  _symmetry_space_group_name_H-M    'P1'
  _symmetry_Int_Tables_number       1
  _symmetry_cell_setting            triclinic
  loop_
  _symmetry_equiv_pos_as_xyz
 x,y,z
_cell_length_a 25.3925
_cell_length_b 25.4634
_cell_length_c 24.1342
_cell_angle_alpha 90.166500
_cell_angle_beta 89.830800
_cell_angle_gamma 89.564700
loop_
  _atom_site_label
  _atom_site_type_symbol
  _atom_site_fract_x
  _atom_site_fract_y
  _atom_site_fract_z
C1 C 0.33612 0.31515 0.22831
 H2 H 0.34248 0.31059 0.27235
 C3 C 0.36977 0.34673 0.19720
 H4 H 0.40193 0.36673 0.21748
 C5 C 0.28622 0.29495 0.14830
 H6 H 0.25415 0.27427 0.12909
 C7 C 0.31830 0.32690 0.11585
 H8 H 0.31049 0.33064 0.07194
 N9 N 0.29499 0.29042 0.20368
 C10 C 0.16721 0.27185 0.32269
 H11 H 0.16102 0.22990 0.32055
 C12 C 0.13429 0.30318 0.35566
 H13 H 0.10330 0.28486 0.37949
 C14 C 0.21547 0.34643 0.29436
 H15 H 0.24673 0.36328 0.26993
 C16 C 0.18350 0.37920 0.32673
 H17 H 0.19046 0.42110 0.32655
 Zn18 Zn 0.25050 0.24930 0.24933
 N19 N 0.20728 0.29371 0.29346
 C20 C 0.28302 0.19976 0.34933
 N21 N 0.29384 0.20649 0.29462
 C22 C 0.33629 0.18285 0.27049
 C23 C 0.36990 0.15097 0.30165
 C24 C 0.31500 0.16742 0.38180
 C25 C 0.16872 0.22960 0.17363
 C26 C 0.13508 0.19898 0.14144
 C27 C 0.17684 0.12116 0.17858
 C28 C 0.21025 0.15323 0.20934
 N29 N 0.20597 0.20642 0.20598
 H30 H 0.24928 0.21895 0.36792
 H31 H 0.34421 0.18910 0.22695
 H32 H 0.40408 0.13368 0.28164
 H33 H 0.30449 0.16150 0.42480
 H34 H 0.16528 0.27196 0.17277
 H35 H 0.10581 0.21794 0.11562
 H36 H 0.18102 0.07888 0.18132
 H37 H 0.23946 0.13554 0.23601
 C38 C 0.14241 0.35765 0.35819
 C39 C 0.36052 0.35336 0.14038
 C40 C 0.13897 0.14405 0.14382
 C41 C 0.35933 0.14249 0.35816
 C42 C 0.84592 0.79996 0.21715
 H43 H 0.86099 0.78209 0.25448
 C44 C 0.87880 0.83201 0.18565
 H45 H 0.91837 0.83820 0.20058
 C46 C 0.77475 0.81658 0.15673
 H47 H 0.73424 0.81072 0.14537
 C48 C 0.80603 0.84916 0.12416
 H49 H 0.78843 0.86573 0.08737
 N50 N 0.79498 0.79241 0.20212
 C51 C 0.66673 0.77142 0.31968
 H52 H 0.65997 0.72963 0.31639
 C53 C 0.63380 0.80257 0.35283
 H54 H 0.60201 0.78430 0.37550
 C55 C 0.71719 0.84568 0.29473
 H56 H 0.74977 0.86224 0.27196
 C57 C 0.68528 0.87826 0.32739
 H58 H 0.69329 0.91994 0.32886
 Zn59 Zn 0.75123 0.74971 0.24753
 N60 N 0.70760 0.79330 0.29174
 C61 C 0.78679 0.70544 0.34906
 N62 N 0.79454 0.70703 0.29332
 C63 C 0.83344 0.67821 0.26874
 C64 C 0.86640 0.64617 0.30040
 C65 C 0.81830 0.67322 0.38223
 C66 C 0.66757 0.72873 0.17394
 C67 C 0.63409 0.69781 0.14190
 C68 C 0.68030 0.62065 0.17439
 C69 C 0.71351 0.65307 0.20496
 N70 N 0.70715 0.70619 0.20371
 H71 H 0.75584 0.72871 0.36795
 H72 H 0.83900 0.68040 0.22435
 H73 H 0.89776 0.62462 0.27985
 H74 H 0.81030 0.67155 0.42625
 H75 H 0.66116 0.77068 0.17595
 H76 H 0.60286 0.71628 0.11830
 H77 H 0.68605 0.57847 0.17558
 H78 H 0.74398 0.63551 0.23003
 C79 C 0.64300 0.85677 0.35714
 C80 C 0.85928 0.85772 0.13808
 C81 C 0.64034 0.64307 0.14203
 C82 C 0.85889 0.64297 0.35803
 C83 C 0.83509 0.31603 0.72767
 H84 H 0.84075 0.31198 0.77187
 C85 C 0.86886 0.34772 0.69685
 H86 H 0.90043 0.36830 0.71750
 C87 C 0.78680 0.29442 0.64696
 H88 H 0.75539 0.27306 0.62737
 C89 C 0.81902 0.32647 0.61477
 H90 H 0.81193 0.32969 0.57068
 N91 N 0.79466 0.29061 0.70257
 C92 C 0.66805 0.27190 0.82296
 H93 H 0.66311 0.22974 0.82215
 C94 C 0.63489 0.30313 0.85577
 H95 H 0.60480 0.28463 0.88072
 C96 C 0.71372 0.34707 0.79165
 H97 H 0.74403 0.36415 0.76610
 C98 C 0.68161 0.37972 0.82400
 H99 H 0.68752 0.42177 0.82282
 Zn100 Zn 0.75020 0.24970 0.74836
 N101 N 0.70686 0.29415 0.79221
 C102 C 0.78847 0.20780 0.84985
 N103 N 0.79402 0.20777 0.79395
 C104 C 0.83206 0.17855 0.76884
 C105 C 0.86586 0.14689 0.79997
 C106 C 0.82107 0.17649 0.88277
 C107 C 0.66958 0.22915 0.67142
 C108 C 0.63612 0.19822 0.63933
 C109 C 0.67518 0.12083 0.68043
 C110 C 0.70849 0.15316 0.71097
 N111 N 0.70561 0.20628 0.70549
 H112 H 0.75825 0.23167 0.86922
 H113 H 0.83639 0.18017 0.72426
 H114 H 0.89654 0.12668 0.77722
 H115 H 0.81230 0.17641 0.92652
 H116 H 0.66701 0.27151 0.66904
 H117 H 0.60793 0.21690 0.61201
 H118 H 0.67827 0.07860 0.68486
 H119 H 0.73636 0.13568 0.73927
 C120 C 0.64169 0.35781 0.85679
 C121 C 0.86046 0.35371 0.63982
 C122 C 0.63879 0.14334 0.64373
 C123 C 0.86108 0.14451 0.85856
 C124 C 0.33558 0.81616 0.72840
 H125 H 0.34161 0.81208 0.77253
 C126 C 0.36940 0.84750 0.69719
 H127 H 0.40132 0.86780 0.71753
 C128 C 0.28638 0.79496 0.64819
 H129 H 0.25456 0.77394 0.62894
 C130 C 0.31867 0.82660 0.61563
 H131 H 0.31123 0.82977 0.57160
 N132 N 0.29468 0.79110 0.70372
 C133 C 0.16592 0.77341 0.82175
 H134 H 0.15939 0.73152 0.81934
 C135 C 0.13269 0.80494 0.85419
 H136 H 0.10105 0.78691 0.87731
 C137 C 0.21533 0.84764 0.79462
 H138 H 0.24712 0.86430 0.77084
 C139 C 0.18323 0.88057 0.82667
 H140 H 0.19066 0.92239 0.82700
 Zn141 Zn 0.24994 0.75034 0.74950
 N142 N 0.20662 0.79501 0.79327
 C143 C 0.28227 0.70133 0.84989
 N144 N 0.29308 0.70769 0.79512
 C145 C 0.33530 0.68359 0.77105
 C146 C 0.36865 0.65153 0.80229
 C147 C 0.31405 0.66887 0.88248
 C148 C 0.16874 0.73005 0.67313
 C149 C 0.13529 0.69911 0.64105
 C150 C 0.17609 0.62167 0.68021
 C151 C 0.20938 0.65404 0.71073
 N152 N 0.20550 0.70719 0.70633
 H153 H 0.24866 0.72086 0.86837
 H154 H 0.34318 0.68954 0.72745
 H155 H 0.40262 0.63381 0.78231
 H156 H 0.30361 0.66325 0.92555
 H157 H 0.16557 0.77241 0.67146
 H158 H 0.10647 0.71778 0.61446
 H159 H 0.17990 0.57943 0.68381
 H160 H 0.23815 0.63660 0.73810
 C161 C 0.14137 0.85928 0.85717
 C162 C 0.36060 0.85348 0.64021
 C163 C 0.13880 0.64421 0.64454
 C164 C 0.35809 0.64340 0.85885
 C165 C 0.06478 0.08764 0.02217
 H166 H 0.05963 0.09480 -0.02165
 C167 C 0.09653 0.12085 0.05359
 H168 H 0.11605 0.15347 0.03371
 C169 C 0.04600 0.03606 0.10130
 H170 H 0.02591 0.00336 0.11996
 C171 C 0.07808 0.06776 0.13405
 H172 H 0.08238 0.05913 0.17773
 N173 N 0.04060 0.04599 0.04624
 C174 C 0.02111 -0.08048 -0.07356
 H175 H -0.02108 -0.08596 -0.07199
 C176 C 0.05243 -0.11374 -0.10617
 H177 H 0.03396 -0.14443 -0.13023
 C178 C 0.09630 -0.03346 -0.04426
 H179 H 0.11335 -0.00252 -0.01961
 C180 C 0.12903 -0.06564 -0.07644
 H181 H 0.17113 -0.05920 -0.07598
 Zn182 Zn -0.00090 0.00238 0.00024
 N183 N 0.04334 -0.04101 -0.04384
 C184 C -0.04459 0.03928 -0.10086
 N185 N -0.04286 0.04638 -0.04519
 C186 C -0.07053 0.08572 -0.02041
 C187 C -0.10246 0.11921 -0.05162
 C188 C -0.07624 0.07151 -0.13380
 C189 C -0.02190 -0.08045 0.07379
 C190 C -0.05282 -0.11407 0.10565
 C191 C -0.13025 -0.06844 0.07276
 C192 C -0.09775 -0.03562 0.04185
 N193 N -0.04460 -0.04170 0.04334
 H194 H -0.02202 0.00798 -0.11997
 H195 H -0.06755 0.09125 0.02394
 H196 H -0.12140 0.15089 -0.02926
 H197 H -0.07784 0.06146 -0.17720
 H198 H 0.02046 -0.08544 0.07302
 H199 H -0.03298 -0.14520 0.12789
 H200 H -0.17209 -0.06042 0.07191
 H201 H -0.11526 -0.00509 0.01685
 C202 C 0.10717 -0.10634 -0.10808
 C203 C 0.10388 0.11065 0.11013
 C204 C -0.10827 -0.10866 0.10585
 C205 C -0.10675 0.11276 -0.10990
 C206 C 0.06673 0.58525 0.52290
 H207 H 0.06277 0.59113 0.47873
 C208 C 0.09817 0.61899 0.55404
 H209 H 0.11869 0.65068 0.53363
 C210 C 0.04503 0.53659 0.60326
 H211 H 0.02377 0.50501 0.62257
 C212 C 0.07681 0.56880 0.63577
 H213 H 0.07986 0.56154 0.67984
 N214 N 0.04130 0.54470 0.54769
 C215 C 0.02271 0.41600 0.43033
 H216 H -0.01914 0.40903 0.43383
 C217 C 0.05395 0.38292 0.39746
 H218 H 0.03559 0.35114 0.37495
 C219 C 0.09724 0.46602 0.45550
 H220 H 0.11416 0.49800 0.47869
 C221 C 0.12993 0.43393 0.42315
 H222 H 0.17180 0.44156 0.42209
 Zn223 Zn 0.00006 0.50027 0.50206
 N224 N 0.04455 0.45704 0.45792
 C225 C -0.05471 0.52887 0.40385
 N226 N -0.04305 0.54329 0.45667
 C227 C -0.06223 0.58877 0.47875
 C228 C -0.09397 0.62215 0.44718
 C229 C -0.08702 0.56063 0.37112
 C230 C -0.01988 0.41899 0.57808
 C231 C -0.05079 0.38535 0.60994
 C232 C -0.12860 0.42656 0.57171
 C233 C -0.09626 0.46006 0.54141
 N234 N -0.04295 0.45594 0.54535
 H235 H -0.03943 0.49253 0.38702
 H236 H -0.05256 0.59931 0.52093
 H237 H -0.10756 0.65874 0.46533
 H238 H -0.09673 0.54754 0.32973
 H239 H 0.02260 0.41576 0.57945
 H240 H -0.03198 0.35630 0.63610
 H241 H -0.17098 0.43043 0.56841
 H242 H -0.11380 0.48918 0.51456
 C243 C 0.10833 0.39187 0.39332
 C244 C 0.10393 0.61045 0.61108
 C245 C -0.10584 0.38892 0.60674
 C246 C -0.10699 0.60824 0.39250
 C247 C 0.56735 0.08378 0.52193
 H248 H 0.56378 0.08929 0.47767
 C249 C 0.59870 0.11762 0.55305
 H250 H 0.61958 0.14902 0.53253
 C251 C 0.54472 0.03593 0.60254
 H252 H 0.52309 0.00466 0.62197
 C253 C 0.57633 0.06828 0.63506
 H254 H 0.57890 0.06141 0.67924
 N255 N 0.54158 0.04353 0.54685
 C256 C 0.52294 -0.08402 0.42782
 H257 H 0.48081 -0.08983 0.42972
 C258 C 0.55421 -0.11696 0.39481
 H259 H 0.53568 -0.14759 0.37073
 C260 C 0.59802 -0.03666 0.45672
 H261 H 0.61508 -0.00576 0.48139
 C262 C 0.63074 -0.06863 0.42428
 H263 H 0.67281 -0.06203 0.42462
 Zn264 Zn 0.50055 -0.00102 0.50123
 N265 N 0.54507 -0.04437 0.45732
 C266 C 0.45193 0.03200 0.40076
 N267 N 0.45787 0.04222 0.45571
 C268 C 0.43360 0.08414 0.48001
 C269 C 0.40178 0.11776 0.44883
 C270 C 0.41966 0.06403 0.36824
 C271 C 0.48035 -0.08173 0.57787
 C272 C 0.44943 -0.11506 0.61009
 C273 C 0.37165 -0.07460 0.57095
 C274 C 0.40401 -0.04144 0.54025
 N275 N 0.45731 -0.04522 0.54457
 H276 H 0.47168 -0.00127 0.38203
 H277 H 0.43930 0.09161 0.52372
 H278 H 0.38397 0.15151 0.46902
 H279 H 0.41435 0.05400 0.32503
 H280 H 0.52284 -0.08478 0.57951
 H281 H 0.46824 -0.14371 0.63672
 H282 H 0.32928 -0.07088 0.56740
 H283 H 0.38644 -0.01285 0.51282
 C284 C 0.60889 -0.10925 0.39248
 C285 C 0.60393 0.10955 0.61024
 C286 C 0.39437 -0.11169 0.60668
 C287 C 0.39403 0.10778 0.39209
 C288 C 0.56456 0.58589 0.02202
 H289 H 0.55857 0.59293 -0.02170
 C290 C 0.59648 0.61951 0.05276
 H291 H 0.61523 0.65239 0.03254
 C292 C 0.54773 0.53426 0.10160
 H293 H 0.52825 0.50151 0.12082
 C294 C 0.58016 0.56626 0.13361
 H295 H 0.58544 0.55773 0.17719
 N296 N 0.54126 0.54398 0.04662
 C297 C 0.52192 0.41567 -0.07089
 H298 H 0.48005 0.40876 -0.06747
 C299 C 0.55323 0.38266 -0.10380
 H300 H 0.53502 0.35075 -0.12625
 C301 C 0.59638 0.46594 -0.04587
 H302 H 0.61319 0.49805 -0.02278
 C303 C 0.62906 0.43408 -0.07845
 H304 H 0.67089 0.44195 -0.07984
 Zn305 Zn 0.49958 0.49967 0.00136
 N306 N 0.54376 0.45663 -0.04317
 C307 C 0.44973 0.53219 -0.09840
 N308 N 0.45645 0.54292 -0.04367
 C309 C 0.43274 0.58522 -0.01948
 C310 C 0.40088 0.61885 -0.05061
 C311 C 0.41745 0.56426 -0.13087
 C312 C 0.47991 0.41801 0.07720
 C313 C 0.44916 0.38449 0.10938
 C314 C 0.37118 0.42635 0.07236
 C315 C 0.40339 0.45969 0.04170
 N316 N 0.45672 0.45530 0.04497
 H317 H 0.46892 0.49849 -0.11696
 H318 H 0.43898 0.59303 0.02409
 H319 H 0.38355 0.65292 -0.03057
 H320 H 0.41160 0.55393 -0.17392
 H321 H 0.52238 0.41438 0.07789
 H322 H 0.46810 0.35519 0.13513
 H323 H 0.32879 0.43052 0.06961
 H324 H 0.38566 0.48889 0.01510
 C325 C 0.60755 0.39188 -0.10809
 C326 C 0.60504 0.60935 0.10909
 C327 C 0.39409 0.38847 0.10700
 C328 C 0.39255 0.60850 -0.10718
   
