data_POSCAR
  _audit_creation_date              2014-09-24
  _audit_creation_method            'ToBaCCo'
  _symmetry_space_group_name_H-M    'P1'
  _symmetry_Int_Tables_number       1
  _symmetry_cell_setting            triclinic
  loop_
  _symmetry_equiv_pos_as_xyz
 x,y,z
_cell_length_a 13.7534
_cell_length_b 13.7555
_cell_length_c 35.9830
_cell_angle_alpha 89.727400
_cell_angle_beta 90.239800
_cell_angle_gamma 119.822200
loop_
  _atom_site_label
  _atom_site_type_symbol
  _atom_site_fract_x
  _atom_site_fract_y
  _atom_site_fract_z
C1 C 0.00062 0.00017 0.50016
 C2 C 1.00044 0.00102 0.16659
 C3 C -0.00012 0.99961 0.83325
 O4 O 0.55475 -0.07940 0.03559
 O5 O 0.36234 -0.07982 -0.03694
 O6 O 0.53980 -0.10391 -0.03649
 O7 O 0.35361 -0.10323 0.03519
 O8 O 0.44359 0.08204 0.03519
 O9 O 0.63449 0.08134 -0.03711
 O10 O 0.45698 0.10544 -0.03700
 O11 O 0.64471 0.10586 0.03492
 Cu12 Cu 0.44375 -0.10945 -0.00065
 Cu13 Cu 0.55380 0.11154 -0.00106
 C14 C 0.63289 0.01458 0.04735
 C15 C 0.37768 0.01403 -0.04903
 C16 C 0.61889 -0.01270 -0.04881
 C17 C 0.36572 -0.01178 0.04726
 O18 O 0.07916 0.63301 0.70367
 O19 O 0.07901 0.44180 0.63140
 O20 O 0.10816 0.64715 0.63240
 O21 O 0.10833 0.45998 0.70421
 O22 O -0.07699 0.36319 0.70364
 O23 O -0.07723 0.55534 0.63115
 O24 O -0.10616 0.35178 0.63159
 O25 O -0.10605 0.53807 0.70322
 Cu26 Cu 0.11025 0.55275 0.66760
 Cu27 Cu -0.10936 0.44325 0.66739
 C28 C -0.01490 0.61735 0.71544
 C29 C -0.01485 0.36388 0.61940
 C30 C 0.01683 0.63456 0.61972
 C31 C 0.01711 0.37976 0.71603
 O32 O 0.63531 0.55719 0.36968
 O33 O 0.44444 0.36578 0.29731
 O34 O 0.64571 0.53818 0.29695
 O35 O 0.45929 0.35205 0.36865
 O36 O 0.36591 0.44454 0.36941
 O37 O 0.55739 0.63567 0.29704
 O38 O 0.35419 0.46124 0.29728
 O39 O 0.54024 0.64776 0.36903
 Cu40 Cu 0.55553 0.44599 0.33355
 Cu41 Cu 0.44556 0.55625 0.33316
 C42 C 0.61949 0.63550 0.38143
 C43 C 0.36616 0.38173 0.28525
 C44 C 0.63461 0.61854 0.28490
 C45 C 0.38074 0.36508 0.38104
 C46 C -0.02136 0.07316 0.52398
 C47 C -0.02680 0.13883 0.54475
 C48 C -0.02388 0.21847 0.56997
 C49 C -0.01875 0.28618 0.59218
 C50 C 0.92785 0.90544 0.19036
 C51 C 0.86189 0.83358 0.21093
 C52 C 0.78148 0.75590 0.23584
 C53 C 0.71303 0.69267 0.25781
 C54 C 0.08992 0.02021 -0.14405
 C55 C 0.16187 0.02607 -0.12333
 C56 C 0.23957 0.02320 -0.09824
 C57 C 0.30296 0.01797 -0.07616
 C58 C 0.02304 0.92711 0.52412
 C59 C 0.02873 0.86124 0.54498
 C60 C 0.02597 0.78122 0.57028
 C61 C 0.02086 0.71303 0.59252
 C62 C 0.07312 0.09587 0.19050
 C63 C 0.13903 0.16719 0.21119
 C64 C 0.21933 0.24441 0.23620
 C65 C 0.28772 0.30747 0.25822
 C66 C 0.90464 -0.02202 -0.14304
 C67 C 0.83322 -0.02685 -0.12252
 C68 C 0.75609 -0.02300 -0.09767
 C69 C 0.69313 -0.01715 -0.07576
 C70 C 0.07379 -0.02026 0.14269
 C71 C 0.13984 -0.02498 0.12189
 C72 C 0.21991 -0.02128 0.09666
 C73 C 0.28790 -0.01571 0.07446
 C74 C 0.90535 0.92733 0.47637
 C75 C 0.83385 0.86156 0.45570
 C76 C 0.75658 0.78161 0.43063
 C77 C 0.69360 0.71357 0.40855
 C78 C 0.02165 0.09024 0.81065
 C79 C 0.02840 0.16285 0.79005
 C80 C 0.02628 0.24130 0.76512
 C81 C 0.02132 0.30508 0.74312
 C82 C 0.92688 0.02297 0.14272
 C83 C 0.86048 0.02804 0.12195
 C84 C 0.77988 0.02449 0.09676
 C85 C 0.71137 0.01885 0.07458
 C86 C 0.09540 0.07302 0.47623
 C87 C 0.16654 0.13876 0.45544
 C88 C 0.24352 0.21868 0.43025
 C89 C 0.30644 0.28677 0.40812
 C90 C -0.02246 0.90433 0.80948
 C91 C -0.02791 0.83265 0.78896
 C92 C -0.02473 0.75508 0.76416
 C93 C -0.01925 0.69179 0.74232
   
