data_POSCAR
  _audit_creation_date              2014-09-24
  _audit_creation_method            'ToBaCCo'
  _symmetry_space_group_name_H-M    'P1'
  _symmetry_Int_Tables_number       1
  _symmetry_cell_setting            triclinic
  loop_
  _symmetry_equiv_pos_as_xyz
 x,y,z
_cell_length_a 50.1877
_cell_length_b 48.1835
_cell_length_c 48.4675
_cell_angle_alpha 90.920800
_cell_angle_beta 87.727700
_cell_angle_gamma 88.273100
loop_
  _atom_site_label
  _atom_site_type_symbol
  _atom_site_fract_x
  _atom_site_fract_y
  _atom_site_fract_z
N1 N 0.60284 0.67708 0.62338
 N2 N 0.58723 0.66306 0.64014
 C3 C 0.56425 0.67767 0.64520
 C4 C 0.56576 0.70242 0.63125
 C5 C 0.59062 0.70149 0.61778
 H6 H 0.54775 0.67090 0.65819
 H7 H 0.59874 0.71685 0.60404
 Cu8 Cu 0.59876 0.62740 0.65426
 Cu9 Cu 0.63674 0.66109 0.60847
 Cu10 Cu 0.63876 0.58903 0.61116
 N11 N 0.61136 0.59056 0.66419
 N12 N 0.62565 0.57482 0.64647
 C13 C 0.63031 0.54986 0.65766
 C14 C 0.61893 0.55016 0.68430
 C15 C 0.60708 0.57652 0.68762
 H16 H 0.64219 0.53332 0.64749
 H17 H 0.59566 0.58480 0.70542
 N18 N 0.66096 0.61007 0.58493
 N19 N 0.66127 0.63745 0.58493
 C20 C 0.67966 0.64545 0.56596
 C21 C 0.69155 0.62192 0.55336
 C22 C 0.67913 0.59989 0.56597
 H23 H 0.68370 0.66683 0.56138
 H24 H 0.68347 0.57801 0.56224
 H25 H 0.61627 0.62587 0.60653
 H26 H 0.64324 0.62528 0.63195
 N27 N 0.90554 0.33597 0.10162
 N28 N 0.91227 0.34056 0.12715
 C29 C 0.93257 0.32310 0.13309
 C30 C 0.93927 0.30668 0.10982
 C31 C 0.92170 0.31580 0.09015
 H32 H 0.94166 0.32262 0.15291
 H33 H 0.91983 0.30769 0.06942
 Cu34 Cu 0.89376 0.36891 0.15020
 Cu35 Cu 0.87479 0.35513 0.08627
 Cu36 Cu 0.83006 0.38264 0.13667
 N37 N 0.87342 0.39860 0.16969
 N38 N 0.84803 0.40319 0.16520
 C39 C 0.83852 0.42419 0.18178
 C40 C 0.85922 0.43357 0.19719
 C41 C 0.88110 0.41680 0.18894
 H42 H 0.81829 0.43260 0.18185
 H43 H 0.90107 0.41763 0.19645
 N44 N 0.81963 0.37235 0.09926
 N45 N 0.83704 0.36401 0.07949
 C46 C 0.82423 0.36080 0.05582
 C47 C 0.79743 0.36714 0.06108
 C48 C 0.79520 0.37432 0.08883
 H49 H 0.83358 0.35362 0.03641
 H50 H 0.77728 0.38122 0.10040
 H51 H 0.86473 0.38700 0.11503
 H52 H 0.85739 0.35047 0.12417
 N53 N 0.42248 0.16299 -0.10147
 N54 N 0.43690 0.14610 -0.11803
 C55 C 0.46072 0.15733 -0.12357
 C56 C 0.46101 0.18281 -0.11007
 C57 C 0.43642 0.18579 -0.09629
 H58 H 0.47627 0.14817 -0.13722
 H59 H 0.42931 0.20317 -0.08335
 Cu60 Cu 0.42253 0.11220 -0.13278
 Cu61 Cu 0.38723 0.15355 -0.08714
 Cu62 Cu 0.35699 0.10051 -0.12131
 N63 N 0.40351 0.08678 -0.15583
 N64 N 0.37783 0.08293 -0.15195
 C65 C 0.36994 0.06487 -0.17123
 C66 C 0.39188 0.05691 -0.18809
 C67 C 0.41286 0.07126 -0.17763
 H68 H 0.34983 0.05765 -0.17253
 H69 H 0.43334 0.07081 -0.18549
 N70 N 0.33976 0.12083 -0.08943
 N71 N 0.35172 0.14059 -0.07592
 C72 C 0.33643 0.14845 -0.05355
 C73 C 0.31362 0.13305 -0.05305
 C74 C 0.31630 0.11586 -0.07620
 H75 H 0.34177 0.16378 -0.03837
 H76 H 0.30287 0.09985 -0.08205
 H77 H 0.38782 0.11102 -0.09650
 H78 H 0.37946 0.13540 -0.12507
 N79 N 0.09512 0.83353 0.39217
 N80 N 0.08883 0.83940 0.36684
 C81 C 0.06833 0.82382 0.35962
 C82 C 0.06104 0.80737 0.38182
 C83 C 0.07857 0.81431 0.40216
 H84 H 0.05907 0.82505 0.33991
 H85 H 0.07979 0.80559 0.42249
 Cu86 Cu 0.10722 0.86761 0.34596
 Cu87 Cu 0.12520 0.85022 0.40965
 Cu88 Cu 0.15311 0.90605 0.37651
 N89 N 0.11878 0.90245 0.33066
 N90 N 0.13717 0.91707 0.34219
 C91 C 0.14149 0.93987 0.32716
 C92 C 0.12465 0.93969 0.30521
 C93 C 0.11049 0.91564 0.30813
 H94 H 0.15529 0.95581 0.33224
 H95 H 0.09533 0.90823 0.29483
 N96 N 0.16620 0.89147 0.41142
 N97 N 0.15585 0.86985 0.42379
 C98 C 0.16966 0.86422 0.44641
 C99 C 0.18946 0.88340 0.44854
 C100 C 0.18662 0.90041 0.42606
 H101 H 0.16555 0.84751 0.46042
 H102 H 0.19897 0.91761 0.42046
 H103 H 0.11852 0.88753 0.39010
 H104 H 0.14582 0.86400 0.37482
 N105 N 0.08009 0.15546 0.10514
 N106 N 0.07390 0.14873 0.13073
 C107 C 0.05438 0.16613 0.14099
 C108 C 0.04777 0.18467 0.12063
 C109 C 0.06437 0.17712 0.09805
 H110 H 0.04566 0.16532 0.16172
 H111 H 0.06570 0.18728 0.07832
 Cu112 Cu 0.09181 0.11770 0.14809
 Cu113 Cu 0.10950 0.13657 0.08411
 Cu114 Cu 0.15573 0.10749 0.12752
 N115 N 0.11458 0.09085 0.16602
 N116 N 0.13994 0.08746 0.15849
 C117 C 0.15136 0.06861 0.17488
 C118 C 0.13195 0.05933 0.19335
 C119 C 0.10884 0.07394 0.18711
 H120 H 0.17206 0.06167 0.17299
 H121 H 0.08939 0.07261 0.19735
 N122 N 0.16465 0.11822 0.08920
 N123 N 0.14666 0.12741 0.07213
 C124 C 0.15850 0.13094 0.04707
 C125 C 0.18532 0.12389 0.04855
 C126 C 0.18852 0.11596 0.07555
 H127 H 0.14848 0.13882 0.02933
 H128 H 0.20675 0.10844 0.08442
 H129 H 0.12081 0.10264 0.10865
 H130 H 0.12729 0.13874 0.12051
 N131 N 0.39995 0.82635 0.61674
 N132 N 0.41341 0.84183 0.63353
 C133 C 0.43627 0.82820 0.63938
 C134 C 0.43697 0.80273 0.62580
 C135 C 0.41358 0.80219 0.61170
 H136 H 0.45103 0.83583 0.65303
 H137 H 0.40724 0.78567 0.59833
 Cu138 Cu 0.39866 0.87724 0.64775
 Cu139 Cu 0.36676 0.83948 0.60115
 Cu140 Cu 0.34171 0.90415 0.62384
 N141 N 0.38349 0.91261 0.66164
 N142 N 0.36102 0.92284 0.65247
 C143 C 0.35379 0.94605 0.66705
 C144 C 0.37276 0.95067 0.68647
 C145 C 0.39137 0.92903 0.68233
 H146 H 0.33572 0.95825 0.66415
 H147 H 0.40862 0.92481 0.69443
 N148 N 0.32499 0.88190 0.59518
 N149 N 0.33378 0.85674 0.58753
 C150 C 0.31791 0.84678 0.56814
 C151 C 0.29841 0.86674 0.56314
 C152 C 0.30352 0.88874 0.58062
 H153 H 0.32086 0.82690 0.55764
 H154 H 0.29232 0.90823 0.58260
 H155 H 0.37370 0.88127 0.60585
 H156 H 0.35421 0.86462 0.63439
 N157 N 0.91180 0.67524 0.37950
 N158 N 0.92081 0.66425 0.35580
 C159 C 0.94190 0.67856 0.34648
 C160 C 0.94650 0.69936 0.36554
 C161 C 0.92709 0.69660 0.38628
 H162 H 0.95337 0.67399 0.32752
 H163 H 0.92399 0.70957 0.40461
 Cu164 Cu 0.90482 0.63158 0.34012
 Cu165 Cu 0.88001 0.66210 0.39897
 Cu166 Cu 0.85002 0.60512 0.37031
 N167 N 0.88840 0.59892 0.32490
 N168 N 0.86673 0.58896 0.33662
 C169 C 0.85973 0.56630 0.32238
 C170 C 0.87811 0.56161 0.30063
 C171 C 0.89606 0.58274 0.30290
 H172 H 0.84297 0.55368 0.32795
 H173 H 0.91341 0.58602 0.28956
 N174 N 0.83613 0.62425 0.40435
 N175 N 0.84758 0.64583 0.41538
 C176 C 0.83325 0.65429 0.43824
 C177 C 0.81177 0.63714 0.44185
 C178 C 0.81431 0.61833 0.41995
 H179 H 0.83813 0.67161 0.45134
 H180 H 0.80098 0.60181 0.41543
 H181 H 0.88442 0.62138 0.38516
 H182 H 0.86304 0.64511 0.36472
 N183 N 0.59550 0.33255 -0.11174
 N184 N 0.58303 0.34540 -0.13143
 C185 C 0.56045 0.33211 -0.13645
 C186 C 0.55900 0.30951 -0.11935
 C187 C 0.58161 0.31030 -0.10401
 H188 H 0.54622 0.33817 -0.15158
 H189 H 0.58709 0.29618 -0.08792
 Cu190 Cu 0.59772 0.37784 -0.14904
 Cu191 Cu 0.62778 0.34671 -0.09638
 Cu192 Cu 0.65293 0.40633 -0.12533
 N193 N 0.61224 0.41114 -0.16513
 N194 N 0.63315 0.42285 -0.15498
 C195 C 0.63825 0.44614 -0.16897
 C196 C 0.61979 0.44881 -0.18916
 C197 C 0.60364 0.42630 -0.18632
 H198 H 0.65443 0.45983 -0.16514
 H199 H 0.58673 0.42163 -0.19856
 N200 N 0.67013 0.38655 -0.09523
 N201 N 0.66017 0.36429 -0.08369
 C202 C 0.67575 0.35638 -0.06303
 C203 C 0.69671 0.37426 -0.06185
 C204 C 0.69259 0.39305 -0.08259
 H205 H 0.67235 0.33875 -0.04997
 H206 H 0.70481 0.41050 -0.08765
 H207 H 0.62046 0.38765 -0.10661
 H208 H 0.64154 0.36593 -0.13175
 C209 C -0.03491 0.27202 0.08128
 C210 C -0.04122 0.28495 0.10715
 C211 C -0.02786 0.27531 0.13039
 C212 C -0.00914 0.25310 0.12797
 C213 C -0.00295 0.24058 0.10187
 C214 C -0.01587 0.25027 0.07867
 C215 C 0.01587 0.21841 0.09949
 C216 C 0.02815 0.20820 0.12301
 C217 C 0.02160 0.22063 0.14891
 C218 C 0.00328 0.24300 0.15135
 H219 H -0.03234 0.28442 0.15065
 H220 H -0.01139 0.24090 0.05848
 H221 H 0.02056 0.20879 0.07945
 H222 H -0.00126 0.25232 0.17155
 H223 H -0.04436 0.27877 0.06278
 H224 H 0.03095 0.21335 0.16730
 C225 C 0.55175 0.75251 0.62908
 C226 C 0.54486 0.72452 0.63016
 C227 C 0.51786 0.71767 0.63008
 C228 C 0.49789 0.73856 0.62876
 C229 C 0.50495 0.76675 0.62847
 C230 C 0.53194 0.77350 0.62859
 C231 C 0.48491 0.78766 0.62784
 C232 C 0.45800 0.78072 0.62656
 C233 C 0.45124 0.75267 0.62609
 C234 C 0.47100 0.73174 0.62752
 H235 H 0.51244 0.69606 0.63046
 H236 H 0.53773 0.79498 0.62817
 H237 H 0.49027 0.80930 0.62782
 H238 H 0.46525 0.71024 0.62753
 H239 H 0.57247 0.75816 0.62915
 H240 H 0.43059 0.74694 0.62518
 C241 C 1.03251 0.77651 0.40885
 C242 C 1.04055 0.78796 0.38335
 C243 C 1.02772 0.77939 0.35940
 C244 C 1.00769 0.75969 0.36084
 C245 C 0.99954 0.74893 0.38665
 C246 C 1.01206 0.75750 0.41050
 C247 C 0.97921 0.72956 0.38814
 C248 C 0.96754 0.72011 0.36400
 C249 C 0.97618 0.73045 0.33835
 C250 C 0.99587 0.75031 0.33680
 H251 H 1.03369 0.78731 0.33939
 H252 H 1.00614 0.74937 0.43047
 H253 H 0.97291 0.72137 0.40797
 H254 H 1.00197 0.75820 0.31679
 H255 H 1.04151 0.78257 0.42785
 H256 H 0.96735 0.72349 0.31952
 C257 C 0.50928 0.19391 -0.11070
 C258 C 0.48247 0.20301 -0.11106
 C259 C 0.47621 0.23151 -0.11266
 C260 C 0.49657 0.25080 -0.11426
 C261 C 0.52352 0.24155 -0.11313
 C262 C 0.52966 0.21306 -0.11132
 C263 C 0.54385 0.26093 -0.11420
 C264 C 0.53762 0.28925 -0.11752
 C265 C 0.51088 0.29815 -0.11934
 C266 C 0.49047 0.27914 -0.11733
 H267 H 0.45553 0.23857 -0.11339
 H268 H 0.55020 0.20559 -0.11065
 H269 H 0.56453 0.25395 -0.11317
 H270 H 0.46994 0.28655 -0.11844
 H271 H 0.51442 0.17198 -0.10945
 H272 H 0.50576 0.31994 -0.12185
 C273 C 0.09742 -0.03499 0.27098
 C274 C 0.12184 -0.03903 0.28378
 C275 C 0.14348 -0.02259 0.27602
 C276 C 0.14080 -0.00245 0.25561
 C277 C 0.11600 0.00174 0.24322
 C278 C 0.09446 -0.01464 0.25103
 C279 C 0.11319 0.02214 0.22312
 C280 C 0.13500 0.03804 0.21474
 C281 C 0.15969 0.03338 0.22681
 C282 C 0.16253 0.01346 0.24723
 H283 H 0.16250 -0.02578 0.28550
 H284 H 0.07534 -0.01177 0.24168
 H285 H 0.09415 0.02525 0.21365
 H286 H 0.18171 0.01046 0.25642
 H287 H 0.08042 -0.04725 0.27673
 H288 H 0.17674 0.04546 0.22077
 C289 C 0.62794 0.50148 -0.30429
 C290 C 0.61976 0.52877 -0.29622
 C291 C 0.61276 0.53427 -0.26813
 C292 C 0.61439 0.51320 -0.24857
 C293 C 0.62203 0.48585 -0.25717
 C294 C 0.62868 0.48021 -0.28506
 C295 C 0.62322 0.46469 -0.23765
 C296 C 0.61790 0.47084 -0.20958
 C297 C 0.61100 0.49811 -0.20103
 C298 C 0.60889 0.51912 -0.22043
 H299 H 0.60694 0.55509 -0.26109
 H300 H 0.63472 0.45939 -0.29199
 H301 H 0.62885 0.44360 -0.24413
 H302 H 0.60323 0.54001 -0.21341
 H303 H 0.63324 0.49618 -0.32562
 H304 H 0.60692 0.50303 -0.17935
 C305 C 0.41711 1.02385 0.77930
 C306 C 0.39284 1.03703 0.78822
 C307 C 0.36950 1.03093 0.77450
 C308 C 0.37033 1.01178 0.75232
 C309 C 0.39478 0.99835 0.74384
 C310 C 0.41806 1.00463 0.75738
 C311 C 0.39551 0.97872 0.72209
 C312 C 0.37212 0.97235 0.70856
 C313 C 0.34802 0.98626 0.71683
 C314 C 0.34712 1.00574 0.73855
 H315 H 0.35070 1.04118 0.78089
 H316 H 0.43698 0.99455 0.75113
 H317 H 0.41431 0.96848 0.71574
 H318 H 0.32821 1.01589 0.74472
 H319 H 0.43537 1.02798 0.78958
 H320 H 0.32965 0.98169 0.70696
 C321 C 0.83411 0.46570 0.23077
 C322 C 0.85835 0.45701 0.21737
 C323 C 0.88172 0.47102 0.22319
 C324 C 0.88088 0.49347 0.24204
 C325 C 0.85644 0.50183 0.25562
 C326 C 0.83318 0.48781 0.24983
 C327 C 0.85566 0.52409 0.27470
 C328 C 0.87894 0.53838 0.28019
 C329 C 0.90306 0.53012 0.26627
 C330 C 0.90404 0.50780 0.24746
 H331 H 0.90048 0.46480 0.21273
 H332 H 0.81426 0.49396 0.26001
 H333 H 0.83685 0.53043 0.28499
 H334 H 0.92294 0.50172 0.23720
 H335 H 0.81587 0.45517 0.22680
 H336 H 0.92132 0.54060 0.27025
 C337 C 0.29830 0.13916 -0.00361
 C338 C 0.29235 0.13301 -0.03108
 C339 C 0.26615 0.12642 -0.03731
 C340 C 0.24606 0.12606 -0.01631
 C341 C 0.25243 0.13165 0.01136
 C342 C 0.27857 0.13826 0.01746
 C343 C 0.23254 0.13064 0.03245
 C344 C 0.20617 0.12485 0.02622
 C345 C 0.19987 0.11998 -0.00138
 C346 C 0.21970 0.12031 -0.02246
 H347 H 0.26134 0.12195 -0.05850
 H348 H 0.28377 0.14272 0.03853
 H349 H 0.23749 0.13484 0.05365
 H350 H 0.21441 0.11612 -0.04355
 H351 H 0.31838 0.14409 0.00171
 H352 H 0.17967 0.11539 -0.00661
 C353 C 0.71773 0.59605 0.51552
 C354 C 0.71302 0.62050 0.53142
 C355 C 0.72905 0.64347 0.52629
 C356 C 0.74951 0.64200 0.50565
 C357 C 0.75394 0.61733 0.48977
 C358 C 0.73795 0.59449 0.49487
 C359 C 0.77429 0.61587 0.46906
 C360 C 0.79046 0.63873 0.46398
 C361 C 0.78600 0.66310 0.48006
 C362 C 0.76569 0.66474 0.50066
 H363 H 0.72591 0.66237 0.53853
 H364 H 0.74105 0.57542 0.48287
 H365 H 0.77763 0.59679 0.45715
 H366 H 0.76260 0.68383 0.51264
 H367 H 0.70560 0.57812 0.51877
 H368 H 0.79794 0.68112 0.47654
 C369 C 0.74999 0.35935 0.05010
 C370 C 0.77583 0.36654 0.04130
 C371 C 0.78089 0.37340 0.01357
 C372 C 0.76025 0.37346 -0.00514
 C373 C 0.73441 0.36566 0.00379
 C374 C 0.72951 0.35859 0.03143
 C375 C 0.71384 0.36541 -0.01500
 C376 C 0.71855 0.37376 -0.04235
 C377 C 0.74414 0.38199 -0.05088
 C378 C 0.76491 0.38153 -0.03253
 H379 H 0.80070 0.37935 0.00672
 H380 H 0.70980 0.35271 0.03867
 H381 H 0.69403 0.35942 -0.00817
 H382 H 0.78455 0.38772 -0.03968
 H383 H 0.74573 0.35389 0.07138
 H384 H 0.74817 0.38840 -0.07191
 C385 C 0.22047 0.91060 0.47686
 C386 C 0.20964 0.88500 0.46987
 C387 C 0.21838 0.86088 0.48320
 C388 C 0.23791 0.86226 0.50307
 C389 C 0.24840 0.88819 0.51023
 C390 C 0.23951 0.91223 0.49703
 C391 C 0.26781 0.88959 0.53023
 C392 C 0.27740 0.86531 0.54267
 C393 C 0.26711 0.83960 0.53514
 C394 C 0.24737 0.83811 0.51569
 H395 H 0.21044 0.84096 0.47768
 H396 H 0.24740 0.93226 0.50219
 H397 H 0.27590 0.90948 0.53560
 H398 H 0.23962 0.81805 0.51038
 H399 H 0.21393 0.92947 0.46697
 H400 H 0.27411 0.82065 0.54455
   
