data_POSCAR
  _audit_creation_date              2014-09-24
  _audit_creation_method            'ToBaCCo'
  _symmetry_space_group_name_H-M    'P1'
  _symmetry_Int_Tables_number       1
  _symmetry_cell_setting            triclinic
  loop_
  _symmetry_equiv_pos_as_xyz
 x,y,z
_cell_length_a 63.0924
_cell_length_b 37.2838
_cell_length_c 21.5800
_cell_angle_alpha 89.981600
_cell_angle_beta 89.889100
_cell_angle_gamma 90.144200
loop_
  _atom_site_label
  _atom_site_type_symbol
  _atom_site_fract_x
  _atom_site_fract_y
  _atom_site_fract_z
C1 C 0.74894 0.24673 0.47067
 C2 C 0.74899 0.24731 0.53388
 C3 C 0.73107 0.26260 0.56996
 C4 C 0.76702 0.23264 0.57000
 C5 C 0.76584 0.22822 0.43490
 C6 C 0.73213 0.26477 0.43413
 C7 C 0.73496 0.28919 0.61435
 C8 C 0.71825 0.30447 0.64760
 C9 C 0.69710 0.29334 0.63754
 C10 C 0.69344 0.26584 0.59370
 C11 C 0.71023 0.25062 0.56064
 C12 C 0.78779 0.24489 0.55977
 C13 C 0.80474 0.22972 0.59200
 C14 C 0.80121 0.20224 0.63556
 C15 C 0.78028 0.19085 0.64698
 C16 C 0.76336 0.20601 0.61465
 C17 C 0.77044 0.19190 0.44534
 C18 C 0.78687 0.17517 0.41292
 C19 C 0.79888 0.19435 0.36896
 C20 C 0.79382 0.23048 0.35752
 C21 C 0.77742 0.24718 0.39003
 C22 C 0.72077 0.24533 0.38952
 C23 C 0.70469 0.26177 0.35548
 C24 C 0.69974 0.29812 0.36508
 C25 C 0.71148 0.31773 0.40898
 C26 C 0.72758 0.30125 0.44294
 H27 H 0.75097 0.29860 0.62254
 H28 H 0.72206 0.32526 0.68084
 H29 H 0.67760 0.25598 0.58439
 H30 H 0.70695 0.22954 0.52746
 H31 H 0.79088 0.26593 0.52632
 H32 H 0.82061 0.23935 0.58235
 H33 H 0.74742 0.19640 0.62348
 H34 H 0.76140 0.17660 0.47895
 H35 H 0.79021 0.14726 0.42261
 H36 H 0.80265 0.24604 0.32383
 H37 H 0.77402 0.27516 0.38104
 H38 H 0.72416 0.21722 0.38174
 H39 H 0.69606 0.24588 0.32192
 H40 H 0.70820 0.34581 0.41730
 H41 H 0.73647 0.31691 0.47626
 H42 H 0.77696 0.16991 0.68040
 C43 C 0.24952 0.74712 0.46793
 C44 C 0.24948 0.74675 0.53114
 C45 C 0.23270 0.76501 0.56767
 C46 C 0.26633 0.72824 0.56692
 C47 C 0.26751 0.73222 0.43175
 C48 C 0.23164 0.76239 0.43189
 C49 C 0.22822 0.80148 0.55850
 C50 C 0.21212 0.81816 0.59237
 C51 C 0.20033 0.79875 0.63655
 C52 C 0.20521 0.76241 0.64653
 C53 C 0.22129 0.74578 0.61257
 C54 C 0.27795 0.74725 0.61148
 C55 C 0.29431 0.73054 0.64399
 C56 C 0.29928 0.69434 0.63287
 C57 C 0.28722 0.67510 0.58923
 C58 C 0.27084 0.69185 0.55681
 C59 C 0.26379 0.70549 0.38738
 C60 C 0.28067 0.69016 0.35494
 C61 C 0.30162 0.70147 0.36595
 C62 C 0.30522 0.72902 0.40925
 C63 C 0.28831 0.74436 0.44160
 C64 C 0.21075 0.75056 0.44160
 C65 C 0.19402 0.76579 0.40845
 C66 C 0.19787 0.79292 0.36446
 C67 C 0.21889 0.80405 0.35386
 C68 C 0.23559 0.78884 0.38709
 H69 H 0.23715 0.81699 0.52494
 H70 H 0.20890 0.84622 0.58375
 H71 H 0.19653 0.74667 0.68031
 H72 H 0.22462 0.71767 0.62063
 H73 H 0.27461 0.77528 0.62022
 H74 H 0.30317 0.74614 0.67743
 H75 H 0.26177 0.67652 0.52345
 H76 H 0.24783 0.69596 0.37885
 H77 H 0.27729 0.66916 0.32173
 H78 H 0.32111 0.73858 0.41858
 H79 H 0.29146 0.76547 0.47482
 H80 H 0.20740 0.72965 0.47508
 H81 H 0.17806 0.75638 0.41752
 H82 H 0.22247 0.82474 0.32020
 H83 H 0.25161 0.79815 0.37861
 H84 H 0.29050 0.64714 0.57979
 C85 C 0.24889 0.25324 -0.47041
 C86 C 0.24916 0.25292 -0.53361
 C87 C 0.26732 0.26786 -0.56931
 C88 C 0.23133 0.23775 -0.57012
 C89 C 0.23190 0.23508 -0.43428
 C90 C 0.26570 0.27166 -0.43421
 C91 C 0.26381 0.29459 -0.61375
 C92 C 0.28082 0.30996 -0.64580
 C93 C 0.30179 0.29874 -0.63438
 C94 C 0.30510 0.27108 -0.59086
 C95 C 0.28805 0.25574 -0.55897
 C96 C 0.21049 0.24971 -0.56102
 C97 C 0.19377 0.23452 -0.59442
 C98 C 0.19756 0.20719 -0.63824
 C99 C 0.21863 0.19604 -0.64822
 C100 C 0.23529 0.21126 -0.61467
 C101 C 0.22723 0.19866 -0.44354
 C102 C 0.21101 0.18203 -0.40984
 C103 C 0.19920 0.20141 -0.36556
 C104 C 0.20433 0.23780 -0.35569
 C105 C 0.22053 0.25433 -0.38951
 C106 C 0.27720 0.25253 -0.38964
 C107 C 0.29360 0.26913 -0.35695
 C108 C 0.29872 0.30533 -0.36793
 C109 C 0.28677 0.32470 -0.41151
 C110 C 0.27035 0.30806 -0.44410
 H111 H 0.24790 0.30411 -0.62268
 H112 H 0.27744 0.33093 -0.67906
 H113 H 0.32088 0.26133 -0.58089
 H114 H 0.29103 0.23460 -0.52569
 H115 H 0.20716 0.27070 -0.52773
 H116 H 0.17789 0.24419 -0.58548
 H117 H 0.25130 0.20187 -0.62269
 H118 H 0.23614 0.18312 -0.47699
 H119 H 0.20777 0.15397 -0.41878
 H120 H 0.19579 0.25377 -0.32202
 H121 H 0.22401 0.28240 -0.38137
 H122 H 0.27375 0.22449 -0.38108
 H123 H 0.30238 0.25345 -0.32354
 H124 H 0.29016 0.35266 -0.42082
 H125 H 0.26137 0.32347 -0.47748
 H126 H 0.22236 0.17530 -0.68159
 C127 C -0.25083 0.75280 -0.47023
 C128 C -0.25104 0.75320 -0.53344
 C129 C -0.23425 0.77183 -0.56961
 C130 C -0.26795 0.73493 -0.56953
 C131 C -0.26867 0.73748 -0.43369
 C132 C -0.23275 0.76781 -0.43454
 C133 C -0.22973 0.80822 -0.55958
 C134 C -0.21328 0.82505 -0.59193
 C135 C -0.20108 0.80590 -0.63558
 C136 C -0.20619 0.76962 -0.64669
 C137 C -0.22263 0.75288 -0.61419
 C138 C -0.27937 0.75412 -0.61416
 C139 C -0.29555 0.73751 -0.64776
 C140 C -0.30061 0.70109 -0.63779
 C141 C -0.28872 0.68176 -0.59372
 C142 C -0.27253 0.69847 -0.56025
 C143 C -0.26467 0.71100 -0.38916
 C144 C -0.28132 0.69572 -0.35545
 C145 C -0.30241 0.70678 -0.36523
 C146 C -0.30622 0.73407 -0.40909
 C147 C -0.28952 0.74933 -0.44266
 C148 C -0.21197 0.75584 -0.44498
 C149 C -0.19500 0.77119 -0.41288
 C150 C -0.19851 0.79857 -0.36921
 C151 C -0.21944 0.80975 -0.35768
 C152 C -0.23638 0.79442 -0.38988
 H153 H -0.23882 0.82350 -0.52619
 H154 H -0.21008 0.85304 -0.58218
 H155 H -0.19739 0.75385 -0.68004
 H156 H -0.22600 0.72482 -0.62287
 H157 H -0.27596 0.78222 -0.62232
 H158 H -0.30413 0.75344 -0.68129
 H159 H -0.26359 0.68298 -0.52690
 H160 H -0.24865 0.70170 -0.38125
 H161 H -0.27757 0.67501 -0.32206
 H162 H -0.32212 0.74368 -0.41790
 H163 H -0.29287 0.77031 -0.47594
 H164 H -0.20889 0.73483 -0.47842
 H165 H -0.17914 0.76172 -0.42262
 H166 H -0.22275 0.83061 -0.32419
 H167 H -0.25232 0.80383 -0.38088
 H168 H -0.29190 0.65368 -0.58473
 O169 O -0.02982 0.93821 0.11375
 O170 O -0.05278 0.96995 0.05242
 C171 C -0.04874 0.94732 0.09641
 O172 O 0.02975 1.06587 0.10866
 O173 O 0.05337 1.03143 0.05381
 C174 C 0.04886 1.05647 0.09335
 O175 O -0.02969 1.06209 0.11363
 O176 O -0.05275 1.03012 0.05261
 C177 C -0.04865 1.05285 0.09646
 O178 O 0.02933 0.93423 0.10914
 O179 O 0.05301 0.96877 0.05438
 C180 C 0.04846 0.94368 0.09393
 Zr181 Zr -0.00004 0.95478 0.07814
 O182 O 0.00117 0.95333 0.17608
 O183 O -0.00116 0.89826 0.07123
 Zr184 Zr 0.00009 1.04527 0.07879
 O185 O 0.00075 1.04162 0.17650
 O186 O -0.00207 1.10190 0.08143
 O187 O -0.01897 1.00003 0.08956
 O188 O 0.01848 1.00007 0.09056
 O189 O 0.03080 0.93468 -0.10571
 O190 O 0.05387 0.96953 -0.04939
 C191 C 0.04977 0.94448 -0.08932
 O192 O -0.02882 1.06262 -0.11360
 O193 O -0.05251 1.03004 -0.05528
 C194 C -0.04795 1.05330 -0.09797
 O195 O 0.03059 1.06602 -0.10667
 O196 O 0.05363 1.03172 -0.04986
 C197 C 0.04954 1.05656 -0.09011
 O198 O -0.02858 0.93758 -0.11453
 O199 O -0.05225 0.97002 -0.05637
 C200 C -0.04770 0.94686 -0.09917
 Zr201 Zr 0.00087 0.95494 -0.07797
 O202 O 0.00376 0.95504 -0.17573
 O203 O -0.00110 0.89826 -0.07723
 Zr204 Zr 0.00080 1.04556 -0.07779
 O205 O 0.00359 1.04548 -0.17558
 O206 O -0.00153 1.10220 -0.07735
 Zr207 Zr -0.03124 1.00016 -0.00114
 Zr208 Zr 0.03204 1.00033 0.00152
 O209 O 0.01931 1.00033 -0.08854
 O210 O -0.01802 1.00020 -0.09096
 O211 O 0.01937 0.94802 0.00092
 O212 O -0.01799 1.05199 -0.00013
 O213 O -0.01816 0.94832 -0.00062
 O214 O 0.01935 1.05258 0.00119
 H215 H 0.02788 1.00001 0.12729
 H216 H -0.02752 1.07307 -0.00021
 H217 H 0.02905 1.00035 -0.12461
 H218 H -0.02779 0.92728 -0.00089
 H219 H 0.00895 1.11149 0.05329
 H220 H 0.01033 1.11159 -0.05213
 H221 H -0.00833 1.03119 -0.19224
 H222 H -0.00787 0.96993 -0.19238
 H223 H 0.00893 0.88958 -0.04541
 H224 H -0.00148 0.88910 0.11433
 H225 H -0.00723 0.97393 0.19122
 H226 H 0.00081 1.06662 0.19207
 O227 O 0.47154 0.43703 0.11437
 O228 O 0.44801 0.46909 0.05540
 C229 C 0.45245 0.44615 0.09860
 O230 O 0.53083 0.56489 0.10603
 O231 O 0.55396 0.53064 0.04917
 C232 C 0.54980 0.55546 0.08943
 O233 O 0.47142 0.56122 0.11369
 O234 O 0.44776 0.52918 0.05459
 C235 C 0.45228 0.55214 0.09775
 O236 O 0.53068 0.43353 0.10553
 O237 O 0.55388 0.46803 0.04888
 C238 C 0.54968 0.44309 0.08899
 Zr239 Zr 0.50097 0.45386 0.07676
 O240 O 0.50303 0.45232 0.17457
 O241 O 0.49987 0.39735 0.06985
 Zr242 Zr 0.50104 0.54429 0.07756
 O243 O 0.50239 0.54045 0.17518
 O244 O 0.49902 0.60093 0.08077
 O245 O 0.48212 0.49909 0.08992
 O246 O 0.51957 0.49912 0.08770
 O247 O 0.52975 0.43330 -0.10963
 O248 O 0.55343 0.46798 -0.05536
 C249 C 0.54888 0.44282 -0.09467
 O250 O 0.47043 0.56157 -0.11273
 O251 O 0.44728 0.52913 -0.05231
 C252 C 0.45143 0.55217 -0.09570
 O253 O 0.52991 0.56544 -0.10962
 O254 O 0.55351 0.53098 -0.05507
 C255 C 0.54902 0.55607 -0.09449
 O256 O 0.47056 0.43700 -0.11391
 O257 O 0.44756 0.46932 -0.05342
 C258 C 0.45162 0.44640 -0.09696
 Zr259 Zr 0.50031 0.45417 -0.07939
 O260 O 0.50238 0.45468 -0.17733
 O261 O 0.49817 0.39751 -0.07878
 Zr262 Zr 0.50041 0.54473 -0.07901
 O263 O 0.50245 0.54458 -0.17696
 O264 O 0.49801 0.60136 -0.07872
 Zr265 Zr 0.46907 0.49937 0.00019
 Zr266 Zr 0.53242 0.49941 -0.00232
 O267 O 0.51881 0.49948 -0.09129
 O268 O 0.48140 0.49947 -0.09069
 O269 O 0.51962 0.44715 -0.00203
 O270 O 0.48234 0.55118 0.00004
 O271 O 0.48208 0.44750 -0.00053
 O272 O 0.51965 0.55164 -0.00144
 H273 H 0.52922 0.49903 0.12387
 H274 H 0.47282 0.57227 0.00053
 H275 H 0.52825 0.49951 -0.12802
 H276 H 0.47244 0.42648 -0.00018
 H277 H 0.50975 0.61051 0.05167
 H278 H 0.50987 0.61080 -0.05360
 H279 H 0.49032 0.53050 -0.19284
 H280 H 0.49049 0.46930 -0.19304
 H281 H 0.50827 0.38871 -0.04726
 H282 H 0.50004 0.38817 0.11294
 H283 H 0.49463 0.47274 0.19043
 H284 H 0.50231 0.56542 0.19090
 N285 N 0.35557 0.32040 0.31774
 C286 C 0.35221 0.34725 0.27663
 N287 N 0.33209 0.35778 0.26478
 N288 N 0.31581 0.34199 0.29330
 C289 C 0.31900 0.31505 0.33478
 N290 N 0.33928 0.30461 0.34626
 C291 C 0.36975 0.36449 0.24624
 C292 C 0.38442 0.37908 0.22063
 C293 C 0.40183 0.39649 0.18993
 N294 N 0.39820 0.42121 0.14511
 N295 N 0.41435 0.43718 0.11622
 C296 C 0.43467 0.42898 0.13121
 N297 N 0.43824 0.40425 0.17621
 N298 N 0.42209 0.38828 0.20509
 N299 N -0.15580 0.81928 0.26278
 C300 C -0.15075 0.85396 0.27438
 N301 N -0.16254 0.87276 0.31556
 N302 N -0.17887 0.85730 0.34440
 C303 C -0.18404 0.82245 0.33319
 N304 N -0.17213 0.80383 0.29162
 C305 C -0.13304 0.87045 0.24375
 C306 C -0.11812 0.88417 0.21797
 C307 C -0.10037 0.90040 0.18714
 N308 N -0.10347 0.92449 0.14101
 N309 N -0.08699 0.93946 0.11213
 C310 C -0.06686 0.93082 0.12841
 N311 N -0.06380 0.90669 0.17468
 N312 N -0.08029 0.89173 0.20355
 N313 N 0.65538 0.68775 0.25634
 C314 C 0.65045 0.65286 0.26660
 N315 N 0.66187 0.63394 0.30841
 N316 N 0.67774 0.64947 0.33909
 C317 C 0.68279 0.68452 0.32921
 N318 N 0.67124 0.70326 0.28703
 C319 C 0.63313 0.63631 0.23428
 C320 C 0.61849 0.62243 0.20755
 C321 C 0.60096 0.60584 0.17633
 N322 N 0.60433 0.58027 0.13279
 N323 N 0.58802 0.56442 0.10468
 C324 C 0.56779 0.57362 0.11915
 N325 N 0.56447 0.59932 0.16268
 N326 N 0.58079 0.61517 0.19078
 N327 N 0.16837 1.14893 0.25728
 C328 C 0.14813 1.15937 0.26774
 N329 N 0.14433 1.18592 0.30912
 N330 N 0.16030 1.20151 0.33922
 C331 C 0.18069 1.19115 0.32918
 N332 N 0.18433 1.16452 0.28739
 C333 C 0.13091 1.14208 0.23621
 C334 C 0.11644 1.12732 0.21011
 C335 C 0.09918 1.10955 0.17956
 N336 N 0.07887 1.11835 0.19325
 N337 N 0.06283 1.10151 0.16557
 C338 C 0.06656 1.07528 0.12331
 N339 N 0.08693 1.06656 0.10964
 N340 N 0.10298 1.08341 0.13733
 N341 N 0.64439 0.31383 -0.31130
 C342 C 0.64814 0.34041 -0.26993
 N343 N 0.66837 0.35097 -0.25941
 N344 N 0.68437 0.33545 -0.28945
 C345 C 0.68082 0.30876 -0.33129
 N346 N 0.66041 0.29832 -0.34133
 C347 C 0.63088 0.35759 -0.23836
 C348 C 0.61640 0.37225 -0.21217
 C349 C 0.59915 0.38994 -0.18143
 N350 N 0.60297 0.41618 -0.13938
 N351 N 0.58694 0.43295 -0.11151
 C352 C 0.56656 0.42406 -0.12479
 N353 N 0.56280 0.39772 -0.16687
 N354 N 0.57883 0.38096 -0.19473
 N355 N 0.16205 0.86655 -0.30773
 C356 C 0.15062 0.84761 -0.26569
 N357 N 0.15554 0.81277 -0.25530
 N358 N 0.17140 0.79733 -0.28611
 C359 C 0.18291 0.81614 -0.32844
 N360 N 0.17791 0.85110 -0.33853
 C361 C 0.13330 0.86405 -0.23337
 C362 C 0.11863 0.87784 -0.20671
 C363 C 0.10106 0.89433 -0.17564
 N364 N 0.10436 0.92017 -0.13251
 N365 N 0.08800 0.93595 -0.10457
 C366 C 0.06780 0.92641 -0.11884
 N367 N 0.06456 0.90045 -0.16195
 N368 N 0.08091 0.88468 -0.18987
 N369 N 0.33840 0.62673 -0.31608
 C370 C 0.35006 0.64554 -0.27453
 N371 N 0.34502 0.68021 -0.26296
 N372 N 0.32883 0.69562 -0.29214
 C373 C 0.31708 0.67695 -0.33394
 N374 N 0.32221 0.64216 -0.34525
 C375 C 0.36763 0.62909 -0.24351
 C376 C 0.38244 0.61541 -0.21745
 C377 C 0.40009 0.59923 -0.18639
 N378 N 0.42022 0.60818 -0.20228
 N379 N 0.43661 0.59321 -0.17334
 C380 C 0.43341 0.56879 -0.12752
 N381 N 0.41321 0.55990 -0.11175
 N382 N 0.39683 0.57487 -0.14068
 N383 N -0.16792 1.14251 -0.26189
 C384 C -0.14775 1.15295 -0.27400
 N385 N -0.14427 1.17973 -0.31527
 N386 N -0.16048 1.19554 -0.34370
 C387 C -0.18076 1.18517 -0.33188
 N388 N -0.18413 1.15832 -0.29033
 C389 C -0.13030 1.13564 -0.24384
 C390 C -0.11569 1.12097 -0.21847
 C391 C -0.09836 1.10344 -0.18812
 N392 N -0.07807 1.11181 -0.20317
 N393 N -0.06198 1.09569 -0.17465
 C394 C -0.06566 1.07065 -0.13015
 N395 N -0.08601 1.06230 -0.11527
 N396 N -0.10209 1.07842 -0.14380
 N397 N 0.64440 0.68543 -0.31181
 C398 C 0.64823 0.65894 -0.27035
 N399 N 0.66848 0.64855 -0.26012
 N400 N 0.68442 0.66415 -0.29053
 C401 C 0.68075 0.69072 -0.33239
 N402 N 0.66035 0.70102 -0.34221
 C403 C 0.63103 0.64166 -0.23849
 C404 C 0.61658 0.62692 -0.21213
 C405 C 0.59933 0.60917 -0.18130
 N406 N 0.60313 0.58300 -0.13914
 N407 N 0.58708 0.56615 -0.11124
 C408 C 0.56671 0.57490 -0.12461
 N409 N 0.56298 0.60117 -0.16679
 N410 N 0.57902 0.61801 -0.19468
 N411 N 0.15528 1.18826 -0.25876
 C412 C 0.15029 1.15340 -0.26887
 N413 N 0.16163 1.13443 -0.31092
 N414 N 0.17748 1.14989 -0.34196
 C415 C 0.18260 1.18491 -0.33223
 N416 N 0.17113 1.20370 -0.28982
 C417 C 0.13298 1.13693 -0.23618
 C418 C 0.11834 1.12314 -0.20915
 C419 C 0.10078 1.10668 -0.17762
 N420 N 0.10411 1.08112 -0.13405
 N421 N 0.08777 1.06536 -0.10570
 C422 C 0.06756 1.07466 -0.11997
 N423 N 0.06429 1.10036 -0.16353
 N424 N 0.08063 1.11610 -0.19186
 N425 N 0.33820 0.37263 -0.31693
 C426 C 0.34980 0.35368 -0.27553
 N427 N 0.34458 0.31904 -0.26399
 N428 N 0.32829 0.30378 -0.29308
 C429 C 0.31661 0.32258 -0.33475
 N430 N 0.32191 0.35734 -0.34602
 C431 C 0.36747 0.36998 -0.24463
 C432 C 0.38236 0.38356 -0.21866
 C433 C 0.40008 0.39964 -0.18766
 N434 N 0.42017 0.39065 -0.20366
 N435 N 0.43663 0.40554 -0.17473
 C436 C 0.43354 0.42989 -0.12884
 N437 N 0.41339 0.43883 -0.11296
 N438 N 0.39693 0.42394 -0.14189
 N439 N -0.14399 0.82124 -0.31950
 C440 C -0.14747 0.84785 -0.27797
 N441 N -0.16765 0.85816 -0.26596
 N442 N -0.18384 0.84237 -0.29470
 C443 C -0.18048 0.81570 -0.33648
 N444 N -0.16020 0.80546 -0.34824
 C445 C -0.13003 0.86507 -0.24735
 C446 C -0.11543 0.87965 -0.22155
 C447 C -0.09810 0.89705 -0.19068
 N448 N -0.10184 0.92193 -0.14620
 N449 N -0.08576 0.93793 -0.11722
 C450 C -0.06541 0.92960 -0.13176
 N451 N -0.06172 0.90469 -0.17641
 N452 N -0.07780 0.88870 -0.20539
 N453 N 0.35607 0.67865 0.31596
 C454 C 0.35252 0.65180 0.27492
 N455 N 0.33233 0.64142 0.26326
 N456 N 0.31617 0.65734 0.29189
 C457 C 0.31960 0.68425 0.33321
 N458 N 0.33991 0.69457 0.34459
 C459 C 0.36993 0.63441 0.24452
 C460 C 0.38451 0.61970 0.21898
 C461 C 0.40184 0.60217 0.18845
 N462 N 0.39813 0.57745 0.14367
 N463 N 0.41422 0.56136 0.11497
 C464 C 0.43456 0.56943 0.13012
 N465 N 0.43823 0.59416 0.17507
 N466 N 0.42213 0.61025 0.20377
 N467 N -0.16183 1.12687 0.31815
 C468 C -0.15022 1.14564 0.27629
 N469 N -0.15534 1.18023 0.26443
 N470 N -0.17157 1.19561 0.29363
 C471 C -0.18327 1.17699 0.33576
 N472 N -0.17806 1.14227 0.34736
 C473 C -0.13261 1.12922 0.24521
 C474 C -0.11777 1.11559 0.21907
 C475 C -0.10009 1.09949 0.18786
 N476 N -0.07997 1.10829 0.20394
 N477 N -0.06355 1.09344 0.17481
 C478 C -0.06671 1.06930 0.12858
 N479 N -0.08688 1.06055 0.11262
 N480 N -0.10330 1.07540 0.14176
 N481 N 0.66148 0.36563 0.30856
 C482 C 0.65012 0.34650 0.26674
 N483 N 0.65508 0.31163 0.25679
 N484 N 0.67090 0.29634 0.28779
 C485 C 0.68235 0.31534 0.32990
 N486 N 0.67730 0.35032 0.33956
 C487 C 0.63285 0.36280 0.23415
 C488 C 0.61823 0.37651 0.20726
 C489 C 0.60074 0.39294 0.17591
 N490 N 0.58056 0.38345 0.19023
 N491 N 0.56427 0.39921 0.16210
 C492 C 0.56762 0.42498 0.11867
 N493 N 0.58786 0.43436 0.10431
 N494 N 0.60415 0.41859 0.13246
 N495 N 0.14375 0.81513 0.31108
 C496 C 0.14758 0.84147 0.26919
 N497 N 0.16785 0.85174 0.25815
 N498 N 0.18381 0.83618 0.28815
 C499 C 0.18010 0.80978 0.33031
 N500 N 0.15972 0.79957 0.34107
 C501 C 0.13037 0.85867 0.23763
 C502 C 0.11591 0.87334 0.21145
 C503 C 0.09869 0.89099 0.18073
 N504 N 0.10253 0.91713 0.13843
 N505 N 0.08652 0.93385 0.11056
 C506 C 0.06613 0.92500 0.12408
 N507 N 0.06234 0.89878 0.16641
 N508 N 0.07835 0.88206 0.19427
   
