data_POSCAR
  _audit_creation_date              2014-09-24
  _audit_creation_method            'ToBaCCo'
  _symmetry_space_group_name_H-M    'P1'
  _symmetry_Int_Tables_number       1
  _symmetry_cell_setting            triclinic
  loop_
  _symmetry_equiv_pos_as_xyz
 x,y,z
_cell_length_a 13.2582
_cell_length_b 12.8352
_cell_length_c 32.9014
_cell_angle_alpha 96.241500
_cell_angle_beta 90.636600
_cell_angle_gamma 119.037800
loop_
  _atom_site_label
  _atom_site_type_symbol
  _atom_site_fract_x
  _atom_site_fract_y
  _atom_site_fract_z
C1 C 0.19324 0.08365 0.53727
 C2 C 0.08706 0.01004 0.50581
 C3 C 0.10383 -0.06230 0.47610
 C4 C 0.22198 -0.05588 0.48115
 C5 C 0.21561 -0.00956 0.55399
 C6 C 0.22581 -0.08656 0.52484
 C7 C 0.29439 0.15022 0.51151
 C8 C 0.30892 0.07861 0.48139
 H9 H 0.00928 0.01759 0.50601
 H10 H 0.23683 -0.11577 0.45810
 H11 H 0.19865 -0.02844 0.58527
 H12 H 0.34200 0.24740 0.51435
 C13 C 0.88154 0.02180 0.21175
 C14 C 0.94458 -0.03695 0.18793
 C15 C 1.01346 0.02882 0.15947
 C16 C 1.01044 0.14667 0.15733
 C17 C 0.97201 0.14074 0.22887
 C18 C 1.04777 0.20823 0.19942
 C19 C 0.81445 0.04218 0.17877
 C20 C 0.88061 0.10731 0.15013
 H21 H 0.94089 -0.11878 0.19487
 H22 H 1.06142 0.19985 0.13334
 H23 H 0.99374 0.16425 0.26160
 H24 H 0.72161 0.00632 0.17798
 C25 C -0.08213 0.90910 0.86247
 C26 C -0.02652 1.03576 0.84925
 C27 C -0.09003 1.04710 0.81869
 C28 C -0.20310 0.93035 0.80422
 C29 C -0.20227 0.88329 0.87385
 C30 C -0.26508 0.89820 0.84419
 C31 C -0.10206 0.82578 0.82335
 C32 C -0.16424 0.83598 0.79266
 H33 H 0.05429 1.10977 0.86317
 H34 H -0.25573 0.93740 0.77929
 H35 H -0.22520 0.87735 0.90534
 H36 H -0.06606 0.76566 0.81989
 O37 O 0.49392 0.08363 -0.04794
 O38 O 0.34690 0.09413 0.04667
 O39 O 0.56723 0.15218 0.03130
 O40 O 0.29485 0.04984 -0.03033
 O41 O 0.24590 -0.13871 -0.02448
 O42 O 0.51905 -0.03581 0.03702
 O43 O 0.30827 -0.09127 0.05247
 O44 O 0.45046 -0.10251 -0.04096
 Cu45 Cu 0.43353 0.11531 0.00018
 Cu46 Cu 0.37727 -0.11033 0.00658
 C47 C 0.49373 -0.01351 -0.06101
 C48 C 0.29853 0.00025 0.06460
 C49 C 0.58989 0.07605 0.04455
 C50 C 0.22408 -0.06177 -0.03774
 O51 O -0.09153 0.32232 0.69851
 O52 O -0.02442 0.48540 0.60710
 O53 O -0.02443 0.29751 0.62629
 O54 O -0.15879 0.47171 0.66972
 O55 O 0.00989 0.61271 0.69935
 O56 O 0.14320 0.43492 0.65830
 O57 O 0.14085 0.62434 0.63993
 O58 O 0.07147 0.46958 0.72996
 Cu59 Cu -0.09088 0.38397 0.64827
 Cu60 Cu 0.10545 0.54707 0.68492
 C61 C -0.01774 0.36799 0.72953
 C62 C 0.07318 0.58088 0.60779
 C63 C 0.08269 0.33761 0.63431
 C64 C -0.09777 0.57264 0.69128
 O65 O 0.50929 0.42675 0.27520
 O66 O 0.75497 0.57274 0.34932
 O67 O 0.56150 0.35259 0.34435
 O68 O 0.68089 0.62321 0.29111
 O69 O 0.57996 0.68918 0.32808
 O70 O 0.47970 0.43166 0.38564
 O71 O 0.66685 0.64718 0.38969
 O72 O 0.40353 0.47288 0.31686
 Cu73 Cu 0.63188 0.47910 0.31250
 Cu74 Cu 0.52136 0.56429 0.35945
 C75 C 0.41653 0.42886 0.28192
 C76 C 0.75797 0.64376 0.37978
 C77 C 0.50277 0.34820 0.37501
 C78 C 0.65065 0.70230 0.30082
 N79 N 0.24884 0.30201 0.62535
 N80 N 0.27756 0.23667 0.59946
 C81 C 0.18759 0.16714 0.57170
 C82 C 0.09651 0.18789 0.58063
 C83 C 0.13963 0.27444 0.61480
 H84 H 0.01271 0.14925 0.56408
 H85 H 0.30408 0.36565 0.64931
 H86 H 0.35832 0.24101 0.60048
 N87 N 0.67934 0.90360 0.28961
 N88 N 0.74174 0.98794 0.26670
 C89 C 0.80387 0.95094 0.24313
 C90 C 0.77938 0.83774 0.25140
 C91 C 0.70042 0.81136 0.28085
 H92 H 0.81275 0.78090 0.23810
 H93 H 0.62386 0.90976 0.31084
 H94 H 0.74119 1.06914 0.26709
 N95 N 0.02575 -0.21456 -0.06613
 N96 N -0.05492 -0.22061 -0.09168
 C97 C -0.01729 -0.11236 -0.10460
 C98 C 0.09181 -0.03336 -0.08599
 C99 C 0.11580 -0.10214 -0.06215
 H100 H 0.14849 0.05920 -0.09032
 H101 H 0.01944 -0.28672 -0.05225
 H102 H -0.13310 -0.29871 -0.10104
 N103 N 0.05446 0.60321 0.53385
 N104 N 0.10157 0.69135 0.51087
 C105 C 0.18697 0.78969 0.53362
 C106 C 0.19675 0.76083 0.57227
 C107 C 0.10947 0.64371 0.57152
 H108 H 0.24927 0.82149 0.59893
 H109 H -0.01836 0.51981 0.52453
 H110 H 0.06784 0.68731 0.48155
 N111 N 0.35473 0.37064 0.21024
 N112 N 0.25084 0.31590 0.18620
 C113 C 0.16471 0.29220 0.21142
 C114 C 0.21341 0.33994 0.25170
 C115 C 0.33163 0.38444 0.24956
 H116 H 0.16875 0.33240 0.27946
 H117 H 0.43522 0.39296 0.19904
 H118 H 0.24418 0.28692 0.15495
 N119 N 0.58312 0.05586 -0.12643
 N120 N 0.64244 0.02738 -0.15321
 C121 C 0.64504 -0.07073 -0.14340
 C122 C 0.58133 -0.10800 -0.10965
 C123 C 0.54623 -0.02405 -0.09926
 H124 H 0.57426 -0.17714 -0.09186
 H125 H 0.57443 0.13272 -0.12543
 H126 H 0.68941 0.08116 -0.17523
 N127 N 0.19474 -0.09357 0.12384
 N128 N 0.11739 -0.08943 0.14779
 C129 C 0.09643 -0.00143 0.13859
 C130 C 0.16561 0.05403 0.10747
 C131 C 0.22620 -0.00789 0.09900
 H132 H 0.16756 0.12483 0.09183
 H133 H 0.22350 -0.15625 0.12404
 H134 H 0.08010 -0.14718 0.16982
 N135 N 0.96970 0.75221 0.38140
 N136 N 1.05974 0.83266 0.40555
 C137 C 1.02280 0.86228 0.44059
 C138 C 0.90217 0.79895 0.43831
 C139 C 0.87261 0.72867 0.40017
 H140 H 0.84521 0.79975 0.46148
 H141 H 0.97530 0.71491 0.35224
 H142 H 1.14512 0.86608 0.39775
 N143 N 0.03618 0.35485 0.80037
 N144 N 0.02013 0.27094 0.82344
 C145 C -0.05651 0.16283 0.80323
 C146 C -0.09238 0.17924 0.76567
 C147 C -0.03020 0.30267 0.76497
 H148 H -0.14861 0.11096 0.74120
 H149 H 0.09492 0.44616 0.80832
 H150 H 0.06281 0.28839 0.85228
 N151 N 0.79480 0.22451 0.07035
 N152 N 0.87321 0.23131 0.09742
 C153 C 0.82745 0.12872 0.11459
 C154 C 0.71611 0.05278 0.09715
 C155 C 0.69848 0.11684 0.06948
 H156 H 0.65455 -0.03503 0.10476
 H157 H 0.80683 0.29314 0.05325
 H158 H 0.95442 0.30684 0.10515
 N159 N 0.45962 0.14186 0.38882
 N160 N 0.40870 0.07071 0.41715
 C161 C 0.37771 0.12982 0.44636
 C162 C 0.40958 0.24276 0.43578
 C163 C 0.46049 0.24681 0.39924
 H164 H 0.39356 0.31139 0.45140
 H165 H 0.49046 0.11754 0.36244
 H166 H 0.39434 -0.01710 0.41600
 N167 N -0.26396 0.60996 0.70640
 N168 N -0.28099 0.68497 0.73268
 C169 C -0.17837 0.76862 0.75183
 C170 C -0.09271 0.74696 0.73631
 C171 C -0.15018 0.64453 0.70850
 H172 H -0.00308 0.78968 0.74803
 H173 H -0.33014 0.53159 0.68988
 H174 H -0.36236 0.67156 0.74027
   
