data_POSCAR
  _audit_creation_date              2014-09-24
  _audit_creation_method            'ToBaCCo'
  _symmetry_space_group_name_H-M    'P1'
  _symmetry_Int_Tables_number       1
  _symmetry_cell_setting            triclinic
  loop_
  _symmetry_equiv_pos_as_xyz
 x,y,z
_cell_length_a 38.0902
_cell_length_b 38.1622
_cell_length_c 21.8157
_cell_angle_alpha 89.992700
_cell_angle_beta 89.812000
_cell_angle_gamma 120.072600
loop_
  _atom_site_label
  _atom_site_type_symbol
  _atom_site_fract_x
  _atom_site_fract_y
  _atom_site_fract_z
O1 O 0.61301 1.06248 0.55610
 O2 O 0.57245 0.98121 0.44090
 O3 O 0.61156 1.05996 0.43671
 O4 O 0.57339 0.98372 0.56029
 O5 O 0.51511 0.98294 0.55944
 O6 O 0.55398 1.06048 0.43818
 O7 O 0.51481 0.98170 0.44003
 O8 O 0.55471 1.06166 0.55749
 Cu9 Cu 0.59841 1.02185 0.49847
 Cu10 Cu 0.52885 1.02167 0.49879
 C11 C 0.59074 1.07582 0.57684
 C12 C 0.53678 0.96770 0.42042
 C13 C 0.58935 1.07344 0.41627
 C14 C 0.53765 0.97023 0.58098
 O15 O -0.04186 0.40720 0.44238
 O16 O 0.03930 0.44785 0.55778
 O17 O -0.03963 0.40875 0.56181
 O18 O 0.03707 0.44694 0.43841
 O19 O 0.03778 0.50507 0.43948
 O20 O -0.04034 0.46611 0.56027
 O21 O 0.03860 0.50528 0.55881
 O22 O -0.04100 0.46534 0.44078
 Cu23 Cu -0.00130 0.42189 0.50013
 Cu24 Cu -0.00126 0.49122 0.49986
 C25 C -0.05516 0.42937 0.42124
 C26 C 0.05270 0.48344 0.57836
 C27 C -0.05326 0.43087 0.58222
 C28 C 0.05062 0.48263 0.41789
 O29 O 0.42792 0.40899 0.55919
 O30 O 0.38733 0.44961 0.44389
 O31 O 0.42688 0.41043 0.43979
 O32 O 0.38875 0.44857 0.56327
 O33 O 0.44632 0.50668 0.56172
 O34 O 0.48517 0.46795 0.44056
 O35 O 0.44564 0.50711 0.44242
 O36 O 0.48556 0.46715 0.55998
 Cu37 Cu 0.40191 0.42360 0.50158
 Cu38 Cu 0.47148 0.49300 0.50116
 C39 C 0.46360 0.43118 0.57964
 C40 C 0.40960 0.48522 0.42308
 C41 C 0.46261 0.43267 0.41907
 C42 C 0.41095 0.48427 0.58366
 O43 O 0.39265 0.68934 -0.07170
 O44 O 0.39412 0.75752 -0.05356
 C45 C 0.36872 0.76292 -0.08386
 O46 O 0.33112 0.74449 -0.07152
 O47 O 0.26272 0.67789 -0.05161
 C48 C 0.25685 0.64693 -0.08184
 O49 O 0.27550 0.62799 -0.07046
 O50 O 0.34236 0.62656 -0.05312
 C51 C 0.37336 0.65180 -0.08357
 O52 O 0.39464 0.67867 0.05029
 O53 O 0.39278 0.74519 0.06860
 C54 C 0.37367 0.76366 0.08029
 O55 O 0.34263 0.75774 0.05019
 O56 O 0.27608 0.68930 0.07008
 C57 C 0.25784 0.65178 0.08236
 O58 O 0.26339 0.62653 0.05185
 O59 O 0.33187 0.62834 0.06912
 C60 C 0.36951 0.64761 0.08064
 Cr61 Cr 0.39128 0.71655 -0.00156
 Cr62 Cr 0.30427 0.71623 -0.00073
 Cr63 Cr 0.30441 0.62962 -0.00066
 O64 O 0.33333 0.68745 -0.00099
 O65 O 0.60761 0.35274 -0.06860
 O66 O 0.60573 0.28432 -0.05062
 C67 C 0.63086 0.27841 -0.08095
 O68 O 0.66849 0.29674 -0.06935
 O69 O 0.73698 0.36335 -0.05181
 C70 C 0.74273 0.39433 -0.08199
 O71 O 0.72457 0.41366 -0.06959
 O72 O 0.65791 0.41542 -0.05027
 C73 C 0.62681 0.39033 -0.08031
 O74 O 0.60610 0.36344 0.05358
 O75 O 0.60758 0.29672 0.07143
 C76 C 0.62686 0.27846 0.08327
 O77 O 0.65788 0.28427 0.05286
 O78 O 0.72474 0.35251 0.07045
 C79 C 0.74316 0.39003 0.08237
 O80 O 0.73740 0.41524 0.05229
 O81 O 0.66904 0.41349 0.07157
 C82 C 0.63144 0.39426 0.08387
 Cr83 Cr 0.60903 0.32544 0.00142
 Cr84 Cr 0.69589 0.32536 0.00055
 Cr85 Cr 0.69609 0.41218 0.00099
 O86 O 0.66700 0.35432 0.00097
 C87 C 0.48179 0.92246 -0.34887
 C88 C 0.46719 0.89400 -0.30100
 C89 C 0.49335 0.88261 -0.27278
 C90 C 0.53355 0.89963 -0.29330
 C91 C 0.54782 0.92785 -0.34110
 C92 C 0.52221 0.93969 -0.36919
 C93 C 0.47897 0.85451 -0.22448
 C94 C 0.43871 0.83755 -0.20412
 C95 C 0.41245 0.84868 -0.23271
 C96 C 0.42687 0.87687 -0.28089
 C97 C 0.37217 0.83143 -0.21258
 C98 C 0.35798 0.80349 -0.16442
 C99 C 0.38384 0.79239 -0.13521
 C100 C 0.42428 0.80961 -0.15554
 H101 H 0.46164 0.93119 -0.37019
 H102 H 0.55400 0.89120 -0.27227
 H103 H 0.57906 0.94063 -0.35578
 H104 H 0.49911 0.84589 -0.20270
 H105 H 0.40674 0.88550 -0.30264
 H106 H 0.35162 0.83956 -0.23405
 H107 H 0.32672 0.79076 -0.14982
 H108 H 0.44455 0.80120 -0.13379
 C109 C 0.09691 0.53698 -0.34623
 C110 C 0.12678 0.55186 -0.30053
 C111 C 0.14510 0.52908 -0.28290
 C112 C 0.13322 0.49185 -0.31126
 C113 C 0.10329 0.47713 -0.35640
 C114 C 0.08480 0.49945 -0.37432
 C115 C 0.17479 0.54374 -0.23700
 C116 C 0.18617 0.58075 -0.20810
 C117 C 0.16780 0.60348 -0.22566
 C118 C 0.13835 0.58899 -0.27190
 C119 C 0.17902 0.64028 -0.19637
 C120 C 0.20799 0.65437 -0.14981
 C121 C 0.22646 0.63204 -0.13178
 C122 C 0.21545 0.59524 -0.16155
 H123 H 0.08285 0.55448 -0.35944
 H124 H 0.14694 0.47400 -0.29832
 H125 H 0.09462 0.44819 -0.37732
 H126 H 0.18881 0.52623 -0.22350
 H127 H 0.12426 0.60645 -0.28530
 H128 H 0.16527 0.65811 -0.20926
 H129 H 0.21593 0.68286 -0.12794
 H130 H 0.22934 0.57761 -0.14816
 C131 C 0.42041 0.53887 -0.34734
 C132 C 0.40625 0.55354 -0.30000
 C133 C 0.36768 0.52806 -0.27364
 C134 C 0.34375 0.48850 -0.29554
 C135 C 0.35791 0.47414 -0.34292
 C136 C 0.39648 0.49899 -0.36930
 C137 C 0.35368 0.54251 -0.22579
 C138 C 0.37771 0.58221 -0.20416
 C139 C 0.41610 0.60784 -0.23104
 C140 C 0.43017 0.59332 -0.27864
 C141 C 0.43983 0.64761 -0.20980
 C142 C 0.42580 0.66190 -0.16218
 C143 C 0.38787 0.63661 -0.13456
 C144 C 0.36394 0.59670 -0.15602
 H145 H 0.45013 0.55870 -0.36696
 H146 H 0.31406 0.46859 -0.27596
 H147 H 0.33858 0.44334 -0.35852
 H148 H 0.32414 0.52287 -0.20540
 H149 H 0.45971 0.61296 -0.29902
 H150 H 0.46927 0.66769 -0.22998
 H151 H 0.44489 0.69274 -0.14665
 H152 H 0.33451 0.57693 -0.13552
 C153 C 0.58130 0.11990 -0.34747
 C154 C 0.59624 0.14960 -0.30154
 C155 C 0.63740 0.16789 -0.28394
 C156 C 0.66288 0.15616 -0.31260
 C157 C 0.64771 0.12637 -0.35796
 C158 C 0.60682 0.10789 -0.37580
 C159 C 0.65236 0.19735 -0.23773
 C160 C 0.62660 0.20854 -0.20847
 C161 C 0.58544 0.19025 -0.22602
 C162 C 0.57056 0.16103 -0.27260
 C163 C 0.55976 0.20131 -0.19637
 C164 C 0.57456 0.23000 -0.14943
 C165 C 0.61542 0.24836 -0.13136
 C166 C 0.64132 0.23754 -0.16153
 H167 H 0.54968 0.10584 -0.36062
 H168 H 0.69449 0.16985 -0.29969
 H169 H 0.66806 0.11779 -0.37906
 H170 H 0.68393 0.21132 -0.22423
 H171 H 0.53896 0.14697 -0.28598
 H172 H 0.52814 0.18762 -0.20927
 H173 H 0.55393 0.23781 -0.12726
 H174 H 0.67288 0.25135 -0.14814
 C175 C 0.90167 0.44044 -0.34827
 C176 C 0.87298 0.42645 -0.30057
 C177 C 0.85986 0.38797 -0.27429
 C178 C 0.87534 0.36397 -0.29663
 C179 C 0.90376 0.37799 -0.34430
 C180 C 0.91752 0.41647 -0.37060
 C181 C 0.83158 0.37414 -0.22606
 C182 C 0.81613 0.39827 -0.20391
 C183 C 0.82892 0.43657 -0.23068
 C184 C 0.85732 0.45046 -0.27871
 C185 C 0.81311 0.46042 -0.20888
 C186 C 0.78499 0.44658 -0.16083
 C187 C 0.77231 0.40872 -0.13334
 C188 C 0.78806 0.38469 -0.15536
 H189 H 0.91162 0.47011 -0.36781
 H190 H 0.86553 0.33435 -0.27712
 H191 H 0.91513 0.35863 -0.36018
 H192 H 0.82166 0.34467 -0.20574
 H193 H 0.86725 0.47993 -0.29901
 H194 H 0.82252 0.48981 -0.22896
 H195 H 0.77341 0.46573 -0.14488
 H196 H 0.77836 0.35530 -0.13497
 C197 C 0.51725 0.44044 -0.34518
 C198 C 0.53204 0.42543 -0.29936
 C199 C 0.50901 0.38436 -0.28135
 C200 C 0.47163 0.35905 -0.30946
 C201 C 0.45701 0.37428 -0.35472
 C202 C 0.47957 0.41507 -0.37300
 C203 C 0.52357 0.36933 -0.23531
 C204 C 0.56073 0.39491 -0.20665
 C205 C 0.58372 0.43598 -0.22460
 C206 C 0.56933 0.45095 -0.27098
 C207 C 0.62068 0.46151 -0.19555
 C208 C 0.63466 0.44662 -0.14885
 C209 C 0.61206 0.40584 -0.13043
 C210 C 0.57510 0.38010 -0.15995
 H211 H 0.53494 0.47198 -0.35867
 H212 H 0.45359 0.32751 -0.29622
 H213 H 0.42794 0.35404 -0.37541
 H214 H 0.50585 0.33782 -0.22150
 H215 H 0.58699 0.48248 -0.28468
 H216 H 0.63871 0.49306 -0.20875
 H217 H 0.66327 0.46713 -0.12717
 H218 H 0.55726 0.34861 -0.14625
 C219 C 0.90105 0.43900 0.34953
 C220 C 0.87179 0.42422 0.30295
 C221 C 0.85529 0.38384 0.28263
 C222 C 0.86841 0.35897 0.30913
 C223 C 0.89786 0.37397 0.35498
 C224 C 0.91467 0.41417 0.37580
 C225 C 0.82621 0.36905 0.23586
 C226 C 0.81373 0.39430 0.20860
 C227 C 0.83037 0.43475 0.22871
 C228 C 0.85910 0.44939 0.27596
 C229 C 0.81816 0.46001 0.20091
 C230 C 0.78989 0.44545 0.15338
 C231 C 0.77306 0.40526 0.13295
 C232 C 0.78508 0.37979 0.16116
 H233 H 0.91354 0.47007 0.36459
 H234 H 0.85609 0.32794 0.29409
 H235 H 0.90743 0.35390 0.37404
 H236 H 0.81356 0.33804 0.22034
 H237 H 0.87183 0.48044 0.29135
 H238 H 0.83060 0.49110 0.21574
 H239 H 0.78110 0.46572 0.13277
 H240 H 0.77249 0.34876 0.14585
 C241 C 0.57985 0.11850 0.34713
 C242 C 0.59399 0.14730 0.29975
 C243 C 0.63257 0.16043 0.27342
 C244 C 0.65653 0.14485 0.29540
 C245 C 0.64239 0.11635 0.34282
 C246 C 0.60381 0.10260 0.36918
 C247 C 0.64656 0.18887 0.22554
 C248 C 0.62251 0.20449 0.20385
 C249 C 0.58410 0.19169 0.23069
 C250 C 0.57005 0.16311 0.27832
 C251 C 0.56035 0.20769 0.20940
 C252 C 0.57437 0.23600 0.16178
 C253 C 0.61232 0.24870 0.13420
 C254 C 0.63627 0.23276 0.15571
 H255 H 0.55012 0.10858 0.36674
 H256 H 0.68623 0.15466 0.27584
 H257 H 0.66174 0.10493 0.35848
 H258 H 0.67611 0.19880 0.20518
 H259 H 0.54050 0.15319 0.29868
 H260 H 0.53089 0.19828 0.22955
 H261 H 0.55527 0.24773 0.14621
 H262 H 0.66572 0.24246 0.13525
 C263 C 0.51843 0.44074 0.34888
 C264 C 0.53301 0.42687 0.30101
 C265 C 0.50683 0.38930 0.27284
 C266 C 0.46665 0.36612 0.29341
 C267 C 0.45241 0.38008 0.34122
 C268 C 0.47803 0.41756 0.36926
 C269 C 0.52119 0.37557 0.22453
 C270 C 0.56145 0.39889 0.20412
 C271 C 0.58771 0.43629 0.23267
 C272 C 0.57332 0.45007 0.28085
 C273 C 0.62798 0.45934 0.21251
 C274 C 0.64216 0.44559 0.16436
 C275 C 0.61629 0.40860 0.13519
 C276 C 0.57586 0.38537 0.15554
 H277 H 0.53859 0.46964 0.37016
 H278 H 0.44619 0.33722 0.27242
 H279 H 0.42117 0.36161 0.35593
 H280 H 0.50105 0.34680 0.20279
 H281 H 0.59345 0.47885 0.30256
 H282 H 0.64854 0.48803 0.23395
 H283 H 0.67341 0.46413 0.14975
 H284 H 0.55560 0.35667 0.13382
 C285 C 0.09843 0.53845 0.34790
 C286 C 0.12699 0.55314 0.30004
 C287 C 0.13869 0.52720 0.27181
 C288 C 0.12188 0.48713 0.29234
 C289 C 0.09352 0.47276 0.34012
 C290 C 0.08136 0.49815 0.36819
 C291 C 0.16687 0.54167 0.22345
 C292 C 0.18356 0.58179 0.20303
 C293 C 0.17212 0.60782 0.23168
 C294 C 0.14389 0.59333 0.27992
 C295 C 0.18908 0.64796 0.21150
 C296 C 0.21702 0.66222 0.16321
 C297 C 0.22841 0.63658 0.13391
 C298 C 0.21150 0.59630 0.15432
 H299 H 0.08945 0.55844 0.36920
 H300 H 0.13055 0.46684 0.27130
 H301 H 0.08088 0.44161 0.35478
 H302 H 0.17572 0.52170 0.20164
 H303 H 0.13501 0.61329 0.30170
 H304 H 0.18071 0.66834 0.23301
 H305 H 0.22951 0.69336 0.14855
 H306 H 0.22016 0.57621 0.13251
 C307 C 0.48317 0.92329 0.34521
 C308 C 0.46840 0.89349 0.29940
 C309 C 0.49143 0.87545 0.28144
 C310 C 0.52879 0.88752 0.30961
 C311 C 0.54340 0.91737 0.35487
 C312 C 0.52083 0.93560 0.37309
 C313 C 0.47689 0.84586 0.23540
 C314 C 0.43975 0.83430 0.20669
 C315 C 0.41676 0.85238 0.22459
 C316 C 0.43114 0.88173 0.27097
 C317 C 0.37983 0.84097 0.19549
 C318 C 0.36586 0.81211 0.14879
 C319 C 0.38845 0.79393 0.13041
 C320 C 0.42539 0.80512 0.15997
 H321 H 0.46548 0.93715 0.35865
 H322 H 0.54683 0.87402 0.29642
 H323 H 0.57245 0.92620 0.37560
 H324 H 0.49460 0.83207 0.22163
 H325 H 0.41348 0.89561 0.28462
 H326 H 0.36181 0.85450 0.20865
 H327 H 0.33726 0.80403 0.12709
 H328 H 0.44321 0.79146 0.14630
 C329 C 0.41907 0.53868 0.34723
 C330 C 0.40414 0.55342 0.30125
 C331 C 0.36296 0.53057 0.28372
 C332 C 0.33747 0.49340 0.31248
 C333 C 0.35263 0.47880 0.35788
 C334 C 0.39353 0.50118 0.37567
 C335 C 0.34801 0.54506 0.23749
 C336 C 0.37378 0.58198 0.20815
 C337 C 0.41496 0.60483 0.22562
 C338 C 0.42984 0.59050 0.27222
 C339 C 0.44067 0.64155 0.19589
 C340 C 0.42585 0.65544 0.14896
 C341 C 0.38498 0.63298 0.13098
 C342 C 0.35906 0.59627 0.16121
 H343 H 0.45070 0.55622 0.36033
 H344 H 0.30584 0.47549 0.29963
 H345 H 0.33226 0.44988 0.37907
 H346 H 0.31642 0.52748 0.22404
 H347 H 0.46145 0.60803 0.28555
 H348 H 0.47230 0.65946 0.20872
 H349 H 0.44650 0.68387 0.12674
 H350 H 0.32749 0.57854 0.14789
   
