data_POSCAR
  _audit_creation_date              2014-09-24
  _audit_creation_method            'ToBaCCo'
  _symmetry_space_group_name_H-M    'P1'
  _symmetry_Int_Tables_number       1
  _symmetry_cell_setting            triclinic
  loop_
  _symmetry_equiv_pos_as_xyz
 x,y,z
_cell_length_a 65.9364
_cell_length_b 65.9286
_cell_length_c 26.6987
_cell_angle_alpha 90.053500
_cell_angle_beta 89.944900
_cell_angle_gamma 119.956300
loop_
  _atom_site_label
  _atom_site_type_symbol
  _atom_site_fract_x
  _atom_site_fract_y
  _atom_site_fract_z
C1 C 0.19852 0.50715 0.49875
 C2 C 0.21008 0.50930 0.45305
 C3 C 0.23081 0.50811 0.45400
 C4 C 0.23910 0.50317 0.49851
 C5 C 0.22620 0.49987 0.54300
 C6 C 0.20659 0.50305 0.54432
 C7 C 0.26154 0.50230 0.49881
 C8 C 0.27441 0.50586 0.54355
 C9 C 0.29536 0.50519 0.54399
 C10 C 0.30437 0.50233 0.49873
 C11 C 0.29261 0.49975 0.45347
 C12 C 0.27081 0.49868 0.45406
 H13 H 0.18188 0.50661 0.49844
 H14 H 0.24103 0.51224 0.42011
 H15 H 0.23202 0.49583 0.57725
 H16 H 0.26881 0.50984 0.57836
 H17 H 0.32056 0.50185 0.49867
 H18 H 0.26154 0.49552 0.41904
 C19 C 0.50389 -0.30083 0.50518
 C20 C 0.49827 -0.29446 0.45920
 C21 C 0.49203 -0.27690 0.45946
 C22 C 0.49345 -0.26438 0.50364
 C23 C 0.49893 -0.27156 0.54905
 C24 C 0.50366 -0.29011 0.55056
 C25 C 0.49063 -0.24307 0.50190
 C26 C 0.48515 -0.23452 0.54549
 C27 C 0.48486 -0.21334 0.54490
 C28 C 0.48878 -0.20123 0.49954
 C29 C 0.49331 -0.20975 0.45547
 C30 C 0.49470 -0.23025 0.45701
 H31 H 0.50618 -0.31596 0.50623
 H32 H 0.48712 -0.27228 0.42463
 H33 H 0.50090 -0.26196 0.58321
 H34 H 0.48102 -0.24415 0.58026
 H35 H 0.48861 -0.18488 0.49847
 H36 H 0.49987 -0.23541 0.42308
 C37 C 1.30552 0.80111 0.50187
 C38 C 1.29272 0.79410 0.45677
 C39 C 1.27104 0.77296 0.45700
 C40 C 1.26282 0.75853 0.49994
 C41 C 1.27640 0.76611 0.54395
 C42 C 1.29742 0.78747 0.54532
 C43 C 1.24032 0.73552 0.49839
 C44 C 1.22712 0.72536 0.54234
 C45 C 1.20683 0.70295 0.54172
 C46 C 1.19891 0.69179 0.49497
 C47 C 1.21127 0.70181 0.45070
 C48 C 1.23220 0.72324 0.45288
 H49 H 1.32235 0.81697 0.50360
 H50 H 1.26001 0.76823 0.42424
 H51 H 1.27118 0.75534 0.57723
 H52 H 1.23322 0.73458 0.57737
 H53 H 1.18230 0.67569 0.49216
 H54 H 1.24223 0.72998 0.41879
 C55 C 0.80359 0.50095 0.50933
 C56 C 0.79225 0.49651 0.46300
 C57 C 0.76916 0.49223 0.46097
 C58 C 0.75770 0.49385 0.50438
 C59 C 0.76981 0.49869 0.55050
 C60 C 0.79233 0.50152 0.55330
 C61 C 0.73337 0.49052 0.50150
 C62 C 0.71900 0.48473 0.54460
 C63 C 0.69633 0.48190 0.54264
 C64 C 0.68760 0.48343 0.49553
 C65 C 0.70114 0.48857 0.45208
 C66 C 0.72419 0.49297 0.45554
 H67 H 0.82101 0.50319 0.51135
 H68 H 0.76050 0.48783 0.42507
 H69 H 0.76222 0.50068 0.58470
 H70 H 0.72492 0.48137 0.57960
 H71 H 0.67065 0.48217 0.49232
 H72 H 0.73463 0.49813 0.42185
 C73 C 0.50784 0.30827 0.50149
 C74 C 0.51011 0.29883 0.45640
 C75 C 0.50998 0.27757 0.45693
 C76 C 0.50597 0.26465 0.50160
 C77 C 0.50286 0.27424 0.54649
 C78 C 0.50500 0.29668 0.54746
 C79 C 0.50604 0.24182 0.50121
 C80 C 0.51116 0.23308 0.54496
 C81 C 0.51275 0.21251 0.54392
 C82 C 0.51010 0.20130 0.49752
 C83 C 0.50513 0.20958 0.45373
 C84 C 0.50212 0.22910 0.45620
 H85 H 0.50719 0.32434 0.50007
 H86 H 0.51358 0.27166 0.42207
 H87 H 0.49983 0.26473 0.58105
 H88 H 0.51528 0.24287 0.57947
 H89 H 0.51053 0.18513 0.49526
 H90 H 0.49723 0.23448 0.42227
 C91 C 0.68862 0.20130 0.50126
 C92 C 0.69759 0.21399 0.45692
 C93 C 0.71960 0.23435 0.45760
 C94 C 0.73359 0.24135 0.50122
 C95 C 0.72440 0.22772 0.54502
 C96 C 0.70183 0.20794 0.54552
 C97 C 0.75798 0.26206 0.50014
 C98 C 0.76910 0.27453 0.54439
 C99 C 0.79263 0.29295 0.54399
 C100 C 0.80424 0.29974 0.49749
 C101 C 0.79329 0.28838 0.45308
 C102 C 0.77056 0.26929 0.45465
 H103 H 0.67144 0.18578 0.50092
 H104 H 0.72560 0.24454 0.42358
 H105 H 0.73495 0.23177 0.57848
 H106 H 0.75969 0.26938 0.57941
 H107 H 0.82152 0.31502 0.49478
 H108 H 0.76312 0.26004 0.42003
 O109 O 0.96911 0.44856 0.09217
 O110 O 0.94232 0.45329 0.04649
 C111 C 0.94780 0.44294 0.08090
 O112 O 1.03383 0.55305 0.08758
 O113 O 1.05940 0.54687 0.04072
 C114 C 1.05486 0.55825 0.07433
 O115 O 0.96843 0.51814 0.09483
 O116 O 0.94210 0.48699 0.04767
 C117 C 0.94724 0.50223 0.08327
 O118 O 1.03450 0.48018 0.08593
 O119 O 1.05970 0.51237 0.03987
 C120 C 1.05542 0.49637 0.07306
 Zr121 Zr 1.00133 0.47442 0.06220
 O122 O 1.00436 0.47478 0.14116
 O123 O 0.99904 0.44123 0.05888
 Zr124 Zr 1.00084 0.52548 0.06356
 O125 O 1.00400 0.52790 0.14252
 O126 O 0.99788 0.55602 0.06153
 O127 O 0.98033 0.48938 0.07372
 O128 O 1.02136 0.51018 0.07148
 O129 O 1.03275 0.47928 -0.08875
 O130 O 1.05886 0.51180 -0.04477
 C131 C 1.05390 0.49527 -0.07713
 O132 O 0.96698 0.51823 -0.08988
 O133 O 0.94130 0.48708 -0.04183
 C134 C 0.94595 0.50246 -0.07691
 O135 O 1.03224 0.55319 -0.08770
 O136 O 1.05866 0.54704 -0.04422
 C137 C 1.05349 0.55848 -0.07646
 O138 O 0.96747 0.44860 -0.09157
 O139 O 0.94157 0.45341 -0.04274
 C140 C 0.94638 0.44322 -0.07873
 Zr141 Zr 1.00022 0.47440 -0.06346
 O142 O 1.00238 0.47576 -0.14266
 O143 O 0.99765 0.44108 -0.06380
 Zr144 Zr 0.99982 0.52543 -0.06206
 O145 O 1.00172 0.52741 -0.14119
 O146 O 0.99686 0.55595 -0.05902
 Zr147 Zr 0.96534 0.48210 0.00150
 Zr148 Zr 1.03554 0.51764 -0.00132
 O149 O 1.02026 0.51017 -0.07298
 O150 O 0.97908 0.48937 -0.07190
 O151 O 1.02186 0.48109 -0.00153
 O152 O 0.97967 0.51868 0.00168
 O153 O 0.98022 0.46033 0.00008
 O154 O 1.02137 0.54009 0.00005
 H155 H 1.03188 0.51541 0.10096
 H156 H 0.96884 0.52500 0.00249
 H157 H 1.03048 0.51539 -0.10297
 H158 H 0.96965 0.44313 0.00004
 H159 H 1.01212 0.56853 0.04521
 H160 H 1.01080 0.56818 -0.04131
 H161 H 0.98990 0.51194 -0.15430
 H162 H 0.98911 0.47725 -0.15541
 H163 H 1.01064 0.44227 -0.04314
 H164 H 1.01346 0.44334 0.04265
 H165 H 0.99236 0.47798 0.15524
 H166 H 0.99268 0.51237 0.15629
 O167 O 0.55050 0.51881 0.09234
 O168 O 0.54542 0.48769 0.04462
 C169 C 0.55584 0.50301 0.07990
 O170 O 0.44594 0.47985 0.08747
 O171 O 0.45234 0.51220 0.04278
 C172 C 0.44071 0.49575 0.07527
 O173 O 0.48067 0.44924 0.09349
 O174 O 0.51152 0.45403 0.04521
 C175 C 0.49647 0.44388 0.08098
 O176 O 0.51970 0.55342 0.08759
 O177 O 0.48737 0.54715 0.04292
 C178 C 0.50371 0.55859 0.07575
 Zr179 Zr 0.52475 0.52573 0.06333
 O180 O 0.52357 0.52728 0.14246
 O181 O 0.55812 0.55637 0.06243
 Zr182 Zr 0.47345 0.47460 0.06305
 O183 O 0.47079 0.47467 0.14200
 O184 O 0.44284 0.44122 0.05996
 O185 O 0.50948 0.48971 0.07328
 O186 O 0.48898 0.51036 0.07246
 O187 O 0.51992 0.55331 -0.08686
 O188 O 0.48773 0.54741 -0.04213
 C189 C 0.50420 0.55881 -0.07474
 O190 O 0.48024 0.44850 -0.09109
 O191 O 0.51138 0.45367 -0.04337
 C192 C 0.49598 0.44311 -0.07838
 O193 O 0.44622 0.48001 -0.08787
 O194 O 0.45258 0.51229 -0.04279
 C195 C 0.44118 0.49609 -0.07589
 O196 O 0.54993 0.51806 -0.09301
 O197 O 0.54506 0.48730 -0.04445
 C198 C 0.55514 0.50217 -0.08058
 Zr199 Zr 0.52498 0.52576 -0.06221
 O200 O 0.52546 0.52880 -0.14111
 O201 O 0.55850 0.55616 -0.05835
 Zr202 Zr 0.47357 0.47458 -0.06263
 O203 O 0.47196 0.47526 -0.14177
 O204 O 0.44273 0.44138 -0.06072
 Zr205 Zr 0.51667 0.48251 0.00047
 Zr206 Zr 0.48172 0.51783 0.00017
 O207 O 0.48924 0.51039 -0.07195
 O208 O 0.50960 0.48968 -0.07241
 O209 O 0.51834 0.54032 0.00046
 O210 O 0.48008 0.46056 0.00035
 O211 O 0.53882 0.51906 0.00056
 O212 O 0.45903 0.48124 0.00011
 H213 H 0.48375 0.51554 0.10219
 H214 H 0.47357 0.44338 0.00065
 H215 H 0.48422 0.51567 -0.10178
 H216 H 0.55598 0.52539 0.00035
 H217 H 0.43047 0.44307 0.04329
 H218 H 0.43053 0.44323 -0.04316
 H219 H 0.48676 0.47702 -0.15508
 H220 H 0.51901 0.51284 -0.15490
 H221 H 0.55659 0.56885 -0.04345
 H222 H 0.55672 0.56834 0.04287
 H223 H 0.52208 0.51263 0.15597
 H224 H 0.48657 0.47990 0.15563
 O225 O 0.47626 0.03096 0.09006
 O226 O 0.50782 0.05721 0.04376
 C227 C 0.49198 0.05215 0.07793
 O228 O 0.51712 -0.03288 0.09404
 O229 O 0.48598 -0.05943 0.04721
 C230 C 0.50189 -0.05415 0.08131
 O231 O 0.54651 0.03239 0.09833
 O232 O 0.54180 0.05782 0.04777
 C233 C 0.55162 0.05336 0.08494
 O234 O 0.44217 -0.03440 0.08435
 O235 O 0.45019 -0.06024 0.04341
 C236 C 0.43765 -0.05544 0.07345
 Zr237 Zr 0.47020 -0.00155 0.06189
 O238 O 0.46669 -0.00423 0.14079
 O239 O 0.43941 0.00084 0.05653
 Zr240 Zr 0.52183 -0.00056 0.06817
 O241 O 0.51943 -0.00309 0.14723
 O242 O 0.55549 0.00284 0.07061
 O243 O 0.50595 0.01983 0.07465
 O244 O 0.48595 -0.02139 0.07470
 O245 O 0.44599 -0.03489 -0.08929
 O246 O 0.45176 -0.06041 -0.04132
 C247 C 0.44092 -0.05589 -0.07627
 O248 O 0.55049 0.03164 -0.08528
 O249 O 0.54347 0.05752 -0.04154
 C250 C 0.55502 0.05266 -0.07423
 O251 O 0.51945 -0.03366 -0.08200
 O252 O 0.48688 -0.05976 -0.03810
 C253 C 0.50333 -0.05483 -0.07065
 O254 O 0.47946 0.03059 -0.09425
 O255 O 0.50940 0.05700 -0.04464
 C256 C 0.49476 0.05184 -0.08138
 Zr257 Zr 0.47258 -0.00183 -0.06364
 O258 O 0.47221 -0.00451 -0.14271
 O259 O 0.44153 0.00018 -0.06555
 Zr260 Zr 0.52424 -0.00099 -0.05739
 O261 O 0.52577 -0.00323 -0.13624
 O262 O 0.55750 0.00174 -0.05004
 Zr263 Zr 0.51427 0.03391 0.00166
 Zr264 Zr 0.48017 -0.03631 0.00275
 O265 O 0.48872 -0.02165 -0.06957
 O266 O 0.50874 0.01941 -0.07087
 O267 O 0.45715 -0.02283 -0.00113
 O268 O 0.53673 0.01988 0.00555
 O269 O 0.47765 0.01880 -0.00155
 O270 O 0.51680 -0.02181 0.00612
 H271 H 0.48029 -0.03180 0.10435
 H272 H 0.55384 0.03079 0.00704
 H273 H 0.48420 -0.03192 -0.09944
 H274 H 0.47091 0.02928 -0.00300
 H275 H 0.55470 -0.01046 0.05178
 H276 H 0.55517 -0.01292 -0.03462
 H277 H 0.52191 0.00823 -0.15073
 H278 H 0.48751 0.00800 -0.15516
 H279 H 0.42908 -0.01393 -0.04873
 H280 H 0.42780 -0.01282 0.03708
 H281 H 0.48161 0.00804 0.15530
 H282 H 0.51645 0.00934 0.15950
 C283 C 1.17727 0.51263 0.31840
 C284 C 1.17499 0.52276 0.36269
 C285 C 1.18639 0.52241 0.40639
 C286 C 1.20055 0.51191 0.40732
 C287 C 1.20379 0.50292 0.36178
 C288 C 1.19211 0.50307 0.31813
 C289 C 1.16298 0.51083 0.27388
 C290 C 1.15087 0.48965 0.24734
 C291 C 1.13510 0.48699 0.20942
 C292 C 1.13126 0.50552 0.19702
 C293 C 1.14416 0.52702 0.22207
 C294 C 1.15981 0.52963 0.26015
 C295 C 1.11270 0.50204 0.16087
 C296 C 1.11630 0.51967 0.12651
 C297 C 1.09796 0.51735 0.09627
 C298 C 1.07556 0.49742 0.10002
 C299 C 1.07224 0.47939 0.13297
 C300 C 1.09062 0.48165 0.16294
 H301 H 1.16369 0.53030 0.36410
 H302 H 1.18416 0.53069 0.43929
 H303 H 1.21409 0.49430 0.36015
 H304 H 1.19433 0.49529 0.28433
 H305 H 1.15281 0.47480 0.25737
 H306 H 1.12554 0.47029 0.19047
 H307 H 1.14140 0.54154 0.21373
 H308 H 1.16906 0.54622 0.27966
 H309 H 1.13320 0.53546 0.12372
 H310 H 1.10114 0.53157 0.07128
 H311 H 1.05524 0.46379 0.13673
 H312 H 1.08724 0.46787 0.18940
 C313 C 0.49824 0.66790 0.32934
 C314 C 0.51442 0.67295 0.36810
 C315 C 0.51467 0.68569 0.40987
 C316 C 0.49887 0.69417 0.41440
 C317 C 0.48369 0.69047 0.37370
 C318 C 0.48326 0.67731 0.33191
 C319 C 0.49684 0.65221 0.28774
 C320 C 0.49318 0.65640 0.23774
 C321 C 0.49366 0.64226 0.19891
 C322 C 0.49805 0.62395 0.20959
 C323 C 0.50073 0.61923 0.25956
 C324 C 0.49996 0.63304 0.29812
 C325 C 0.50078 0.61001 0.16949
 C326 C 0.52053 0.60726 0.16967
 C327 C 0.52199 0.59149 0.13717
 C328 C 0.50362 0.57795 0.10384
 C329 C 0.48441 0.58173 0.10155
 C330 C 0.48305 0.59772 0.13409
 H331 H 0.52696 0.66691 0.36634
 H332 H 0.52776 0.68926 0.43824
 H333 H 0.47102 0.69631 0.37516
 H334 H 0.47058 0.67374 0.30259
 H335 H 0.49073 0.67102 0.22851
 H336 H 0.49146 0.64611 0.16054
 H337 H 0.50361 0.60486 0.26874
 H338 H 0.50204 0.62880 0.33625
 H339 H 0.53456 0.61680 0.19626
 H340 H 0.53717 0.58929 0.13964
 H341 H 0.46996 0.57157 0.07632
 H342 H 0.46763 0.59958 0.13345
 C343 C 0.32330 -0.16566 0.32453
 C344 C 0.32855 -0.15504 0.37194
 C345 C 0.31793 -0.16802 0.41495
 C346 C 0.30181 -0.19230 0.41240
 C347 C 0.29591 -0.20268 0.36430
 C348 C 0.30659 -0.18957 0.32114
 C349 C 0.33602 -0.15184 0.27948
 C350 C 0.34347 -0.16160 0.24183
 C351 C 0.35757 -0.14777 0.20231
 C352 C 0.36464 -0.12382 0.19966
 C353 C 0.35646 -0.11434 0.23643
 C354 C 0.34222 -0.12818 0.27549
 C355 C 0.38156 -0.10830 0.16088
 C356 C 0.38031 -0.08900 0.14228
 C357 C 0.39812 -0.07235 0.11208
 C358 C 0.41734 -0.07486 0.09873
 C359 C 0.41790 -0.09492 0.11413
 C360 C 0.40026 -0.11142 0.14527
 H361 H 0.34138 -0.13667 0.37616
 H362 H 0.32228 -0.15861 0.45008
 H363 H 0.28408 -0.22126 0.35960
 H364 H 0.30195 -0.19826 0.28510
 H365 H 0.33915 -0.17972 0.24385
 H366 H 0.36322 -0.15576 0.17428
 H367 H 0.36175 -0.09594 0.23628
 H368 H 0.33645 -0.12017 0.30323
 H369 H 0.36588 -0.08636 0.15220
 H370 H 0.39715 -0.05717 0.10009
 H371 H 0.43264 -0.09716 0.10458
 H372 H 0.40197 -0.12591 0.15916
 C373 C 0.82981 0.49674 0.33070
 C374 C 0.80668 0.47862 0.33854
 C375 C 0.79424 0.47864 0.38109
 C376 C 0.80482 0.49663 0.41681
 C377 C 0.82787 0.51477 0.40874
 C378 C 0.84019 0.51486 0.36619
 C379 C 0.84356 0.49663 0.28672
 C380 C 0.85833 0.51757 0.26130
 C381 C 0.87333 0.51815 0.22369
 C382 C 0.87396 0.49782 0.21065
 C383 C 0.85832 0.47659 0.23424
 C384 C 0.84325 0.47600 0.27191
 C385 C 0.89216 0.49924 0.17565
 C386 C 0.88712 0.48162 0.14001
 C387 C 0.90483 0.48276 0.10901
 C388 C 0.92795 0.50145 0.11340
 C389 C 0.93282 0.51916 0.14863
 C390 C 0.91518 0.51807 0.17928
 H391 H 0.79821 0.46449 0.31172
 H392 H 0.77653 0.46438 0.38661
 H393 H 0.83637 0.52895 0.43547
 H394 H 0.85809 0.52889 0.36159
 H395 H 0.85860 0.53364 0.27118
 H396 H 0.88481 0.53466 0.20545
 H397 H 0.85853 0.46067 0.22529
 H398 H 0.83216 0.45964 0.29105
 H399 H 0.86951 0.46697 0.13616
 H400 H 0.90049 0.46884 0.08224
 H401 H 0.95039 0.53382 0.15314
 H402 H 0.91975 0.53171 0.20693
 C403 C 0.51157 0.33525 0.32162
 C404 C 0.49807 0.31070 0.32402
 C405 C 0.49834 0.29874 0.36704
 C406 C 0.51201 0.31113 0.40859
 C407 C 0.52621 0.33556 0.40540
 C408 C 0.52600 0.34748 0.36242
 C409 C 0.50943 0.34830 0.27857
 C410 C 0.52914 0.36848 0.26008
 C411 C 0.52668 0.38228 0.22359
 C412 C 0.50445 0.37621 0.20481
 C413 C 0.48487 0.35549 0.22172
 C414 C 0.48733 0.34169 0.25819
 C415 C 0.50154 0.39226 0.17038
 C416 C 0.48295 0.39664 0.17733
 C417 C 0.48103 0.41300 0.14758
 C418 C 0.49765 0.42538 0.11009
 C419 C 0.51596 0.42059 0.10230
 C420 C 0.51789 0.40423 0.13217
 H421 H 0.48697 0.30078 0.29297
 H422 H 0.48713 0.27991 0.36861
 H423 H 0.53710 0.34550 0.43668
 H424 H 0.53641 0.36640 0.36201
 H425 H 0.54643 0.37386 0.27462
 H426 H 0.54209 0.39822 0.21161
 H427 H 0.46756 0.35019 0.20745
 H428 H 0.47177 0.32637 0.27194
 H429 H 0.47026 0.38798 0.20693
 H430 H 0.46672 0.41624 0.15467
 H431 H 0.52908 0.42980 0.07375
 H432 H 0.53228 0.40105 0.12560
 C433 C 0.65953 0.17968 0.32337
 C434 C 0.68409 0.19055 0.32450
 C435 C 0.69657 0.20288 0.36694
 C436 C 0.68476 0.20456 0.40918
 C437 C 0.66036 0.19480 0.40705
 C438 C 0.64788 0.18251 0.36459
 C439 C 0.64596 0.16381 0.28146
 C440 C 0.62536 0.16275 0.26388
 C441 C 0.61135 0.14605 0.22821
 C442 C 0.61765 0.13003 0.20933
 C443 C 0.63872 0.13172 0.22546
 C444 C 0.65267 0.14836 0.26115
 C445 C 0.60167 0.11079 0.17531
 C446 C 0.59820 0.08811 0.18180
 C447 C 0.58232 0.06962 0.15183
 C448 C 0.56948 0.07332 0.11455
 C449 C 0.57321 0.09608 0.10740
 C450 C 0.58911 0.11460 0.13752
 H451 H 0.69361 0.18896 0.29311
 H452 H 0.71536 0.21005 0.36769
 H453 H 0.65086 0.19601 0.43894
 H454 H 0.62898 0.17423 0.36514
 H455 H 0.61985 0.17459 0.27837
 H456 H 0.59516 0.14512 0.21683
 H457 H 0.64424 0.11987 0.21110
 H458 H 0.66828 0.14849 0.27423
 H459 H 0.60730 0.08448 0.21107
 H460 H 0.57988 0.05234 0.15842
 H461 H 0.56356 0.09953 0.07912
 H462 H 0.59154 0.13190 0.13130
 C463 C 0.51629 0.17630 -0.32811
 C464 C 0.52749 0.17632 -0.37278
 C465 C 0.52742 0.18921 -0.41397
 C466 C 0.51622 0.20268 -0.41185
 C467 C 0.50706 0.20448 -0.36523
 C468 C 0.50690 0.19124 -0.32400
 C469 C 0.51269 0.15913 -0.28820
 C470 C 0.51479 0.16509 -0.23713
 C471 C 0.51097 0.14836 -0.20035
 C472 C 0.50473 0.12536 -0.21409
 C473 C 0.50265 0.11953 -0.26513
 C474 C 0.50649 0.13614 -0.30162
 C475 C 0.50061 0.10728 -0.17606
 C476 C 0.48229 0.08417 -0.18270
 C477 C 0.47996 0.06637 -0.15088
 C478 C 0.49581 0.07124 -0.11138
 C479 C 0.51334 0.09461 -0.10290
 C480 C 0.51575 0.11246 -0.13504
 H481 H 0.53577 0.16574 -0.37641
 H482 H 0.53619 0.18846 -0.44762
 H483 H 0.49817 0.21445 -0.36138
 H484 H 0.49818 0.19162 -0.28993
 H485 H 0.51958 0.18269 -0.22570
 H486 H 0.51262 0.15331 -0.16124
 H487 H 0.49823 0.10209 -0.27699
 H488 H 0.50430 0.13084 -0.34055
 H489 H 0.47001 0.07975 -0.21329
 H490 H 0.46602 0.04867 -0.15812
 H491 H 0.52569 0.09901 -0.07246
 H492 H 0.53006 0.13010 -0.12905
 C493 C 0.65633 0.47893 -0.32975
 C494 C 0.68063 0.48842 -0.32562
 C495 C 0.69378 0.48823 -0.36672
 C496 C 0.68291 0.47872 -0.41327
 C497 C 0.65823 0.46748 -0.41536
 C498 C 0.64522 0.46766 -0.37436
 C499 C 0.64274 0.48243 -0.28973
 C500 C 0.62639 0.48927 -0.30279
 C501 C 0.61375 0.49320 -0.26600
 C502 C 0.61710 0.49039 -0.21511
 C503 C 0.63332 0.48340 -0.20179
 C504 C 0.64618 0.47962 -0.23881
 C505 C 0.60340 0.49469 -0.17672
 C506 C 0.59231 0.47883 -0.13729
 C507 C 0.57726 0.48168 -0.10468
 C508 C 0.57309 0.50049 -0.11089
 C509 C 0.58512 0.51692 -0.14892
 C510 C 0.60008 0.51405 -0.18138
 H511 H 0.68967 0.49725 -0.29159
 H512 H 0.71261 0.49729 -0.36269
 H513 H 0.64870 0.45844 -0.44873
 H514 H 0.62639 0.45941 -0.37799
 H515 H 0.62360 0.49194 -0.34163
 H516 H 0.60116 0.49827 -0.27745
 H517 H 0.63628 0.48119 -0.16278
 H518 H 0.65866 0.47433 -0.22772
 H519 H 0.59448 0.46369 -0.13300
 H520 H 0.56830 0.46871 -0.07575
 H521 H 0.58253 0.53173 -0.15455
 H522 H 0.60875 0.52679 -0.21088
 C523 C 0.82986 0.33275 -0.32812
 C524 C 0.84150 0.32884 -0.36763
 C525 C 0.82915 0.31521 -0.40855
 C526 C 0.80457 0.30488 -0.41163
 C527 C 0.79276 0.30750 -0.37004
 C528 C 0.80531 0.32140 -0.32891
 C529 C 0.84382 0.34934 -0.28764
 C530 C 0.83769 0.34423 -0.23683
 C531 C 0.85261 0.35910 -0.19925
 C532 C 0.87381 0.37913 -0.21214
 C533 C 0.87921 0.38481 -0.26284
 C534 C 0.86436 0.37017 -0.30009
 C535 C 0.89138 0.39346 -0.17386
 C536 C 0.91452 0.39838 -0.17997
 C537 C 0.93204 0.41375 -0.14769
 C538 C 0.92693 0.42478 -0.10853
 C539 C 0.90352 0.41907 -0.10097
 C540 C 0.88583 0.40340 -0.13332
 H541 H 0.86035 0.33652 -0.36711
 H542 H 0.83910 0.31253 -0.43742
 H543 H 0.77398 0.30021 -0.37022
 H544 H 0.79588 0.32404 -0.29876
 H545 H 0.82195 0.32831 -0.22618
 H546 H 0.84814 0.35443 -0.16029
 H547 H 0.89526 0.40041 -0.27363
 H548 H 0.86923 0.37494 -0.33887
 H549 H 0.91914 0.39065 -0.21057
 H550 H 0.94977 0.41748 -0.15454
 H551 H 0.89900 0.42723 -0.07112
 H552 H 0.86805 0.39980 -0.12798
 C553 C 0.48246 -0.17657 -0.32400
 C554 C 0.49424 -0.18939 -0.32260
 C555 C 0.49404 -0.20237 -0.36434
 C556 C 0.48198 -0.20285 -0.40816
 C557 C 0.46902 -0.19120 -0.40823
 C558 C 0.46932 -0.17816 -0.36671
 C559 C 0.48545 -0.16002 -0.28310
 C560 C 0.49043 -0.13724 -0.29496
 C561 C 0.49428 -0.12108 -0.25718
 C562 C 0.49308 -0.12734 -0.20656
 C563 C 0.48774 -0.15022 -0.19443
 C564 C 0.48418 -0.16638 -0.23243
 C565 C 0.49738 -0.10979 -0.16710
 C566 C 0.48166 -0.11509 -0.12712
 C567 C 0.48422 -0.09750 -0.09387
 C568 C 0.50270 -0.07433 -0.09980
 C569 C 0.51918 -0.06949 -0.13806
 C570 C 0.51649 -0.08698 -0.17139
 H571 H 0.50464 -0.18835 -0.29029
 H572 H 0.50437 -0.21098 -0.36327
 H573 H 0.45916 -0.19163 -0.44102
 H574 H 0.45972 -0.16880 -0.36843
 H575 H 0.49181 -0.13174 -0.33363
 H576 H 0.49809 -0.10364 -0.26755
 H577 H 0.48674 -0.15544 -0.15565
 H578 H 0.48033 -0.18385 -0.22229
 H579 H 0.46673 -0.13255 -0.12313
 H580 H 0.47117 -0.10186 -0.06492
 H581 H 0.53369 -0.05193 -0.14371
 H582 H 0.52904 -0.08254 -0.20147
 C583 C 0.33217 0.50769 -0.32073
 C584 C 0.30756 0.49503 -0.32217
 C585 C 0.29555 0.49487 -0.36550
 C586 C 0.30790 0.50728 -0.40836
 C587 C 0.33245 0.52056 -0.40629
 C588 C 0.34444 0.52074 -0.36305
 C589 C 0.34517 0.50622 -0.27670
 C590 C 0.36594 0.52596 -0.26049
 C591 C 0.37952 0.52398 -0.22271
 C592 C 0.37265 0.50222 -0.20025
 C593 C 0.35137 0.48268 -0.21496
 C594 C 0.33779 0.48466 -0.25274
 C595 C 0.38847 0.49960 -0.16452
 C596 C 0.39183 0.48021 -0.16806
 C597 C 0.40833 0.47869 -0.13799
 C598 C 0.42192 0.49653 -0.10359
 C599 C 0.41797 0.51553 -0.09869
 C600 C 0.40146 0.51707 -0.12892
 H601 H 0.29760 0.48499 -0.29002
 H602 H 0.27664 0.48437 -0.36608
 H603 H 0.34244 0.53052 -0.43849
 H604 H 0.36338 0.53044 -0.36345
 H605 H 0.37195 0.54288 -0.27775
 H606 H 0.39589 0.53933 -0.21256
 H607 H 0.34544 0.46574 -0.19791
 H608 H 0.32199 0.46907 -0.26459
 H609 H 0.38236 0.46661 -0.19554
 H610 H 0.41086 0.46378 -0.14276
 H611 H 0.42810 0.52957 -0.07254
 H612 H 0.39908 0.53209 -0.12491
 C613 C 1.17041 0.66817 -0.32477
 C614 C 1.17005 0.65545 -0.36715
 C615 C 1.18196 0.66688 -0.41063
 C616 C 1.19476 0.69160 -0.41348
 C617 C 1.19526 0.70430 -0.37031
 C618 C 1.18312 0.69273 -0.32677
 C619 C 1.15684 0.65559 -0.27953
 C620 C 1.14301 0.66303 -0.25421
 C621 C 1.12807 0.64953 -0.21544
 C622 C 1.12673 0.62837 -0.20108
 C623 C 1.14143 0.62156 -0.22480
 C624 C 1.15631 0.63502 -0.26354
 C625 C 1.10875 0.61243 -0.16471
 C626 C 1.11372 0.59948 -0.12999
 C627 C 1.09598 0.58255 -0.09983
 C628 C 1.07287 0.57817 -0.10390
 C629 C 1.06814 0.59180 -0.13720
 C630 C 1.08585 0.60872 -0.16720
 H631 H 1.16026 0.63649 -0.36699
 H632 H 1.18168 0.65603 -0.44133
 H633 H 1.20411 0.72321 -0.37028
 H634 H 1.18367 0.70301 -0.29459
 H635 H 1.14297 0.67874 -0.26579
 H636 H 1.11716 0.65538 -0.19744
 H637 H 1.14068 0.60527 -0.21498
 H638 H 1.16702 0.62902 -0.28185
 H639 H 1.13126 0.60214 -0.12681
 H640 H 1.10026 0.57242 -0.07448
 H641 H 1.05057 0.58896 -0.14124
 H642 H 1.08136 0.61816 -0.19398
 C643 C 0.82777 0.50433 -0.30977
 C644 C 0.80401 0.48758 -0.31607
 C645 C 0.79210 0.48747 -0.35954
 C646 C 0.80386 0.50386 -0.39776
 C647 C 0.82738 0.52105 -0.39075
 C648 C 0.83917 0.52137 -0.34709
 C649 C 0.84122 0.50326 -0.26634
 C650 C 0.85751 0.52388 -0.24187
 C651 C 0.87247 0.52335 -0.20561
 C652 C 0.87166 0.50221 -0.19329
 C653 C 0.85446 0.48137 -0.21571
 C654 C 0.83936 0.48189 -0.25185
 C655 C 0.89013 0.50239 -0.16110
 C656 C 0.88505 0.48454 -0.12600
 C657 C 0.90303 0.48458 -0.09782
 C658 C 0.92641 0.50239 -0.10454
 C659 C 0.93131 0.52022 -0.13944
 C660 C 0.91347 0.52020 -0.16729
 H661 H 0.79478 0.47435 -0.28777
 H662 H 0.77401 0.47392 -0.36433
 H663 H 0.83678 0.53390 -0.41966
 H664 H 0.85754 0.53435 -0.34349
 H665 H 0.85905 0.54053 -0.25172
 H666 H 0.88518 0.53963 -0.18818
 H667 H 0.85351 0.46485 -0.20736
 H668 H 0.82708 0.46575 -0.27040
 H669 H 0.86720 0.47060 -0.12032
 H670 H 0.89867 0.47057 -0.07132
 H671 H 0.94907 0.53421 -0.14587
 H672 H 0.91809 0.53389 -0.19479
 C673 C 0.50461 0.33101 -0.31744
 C674 C 0.49244 0.30646 -0.31995
 C675 C 0.49273 0.29496 -0.36393
 C676 C 0.50485 0.30780 -0.40696
 C677 C 0.51727 0.33249 -0.40340
 C678 C 0.51713 0.34382 -0.35952
 C679 C 0.50357 0.34363 -0.27235
 C680 C 0.52370 0.36398 -0.25589
 C681 C 0.52216 0.37801 -0.21862
 C682 C 0.50045 0.37199 -0.19695
 C683 C 0.48055 0.35091 -0.21132
 C684 C 0.48210 0.33684 -0.24861
 C685 C 0.49833 0.38870 -0.16306
 C686 C 0.47970 0.39309 -0.16905
 C687 C 0.47875 0.41043 -0.14088
 C688 C 0.49637 0.42379 -0.10590
 C689 C 0.51466 0.41893 -0.09880
 C690 C 0.51566 0.40162 -0.12721
 H691 H 0.48260 0.29615 -0.28794
 H692 H 0.48246 0.27606 -0.36447
 H693 H 0.52788 0.34338 -0.43399
 H694 H 0.52656 0.36278 -0.35891
 H695 H 0.54054 0.36947 -0.27310
 H696 H 0.53777 0.39419 -0.20865
 H697 H 0.46364 0.34567 -0.19474
 H698 H 0.46630 0.32130 -0.26064
 H699 H 0.46628 0.38371 -0.19689
 H700 H 0.46437 0.41364 -0.14724
 H701 H 0.52847 0.42882 -0.07203
 H702 H 0.53013 0.39848 -0.12150
 C703 C 0.66960 0.16646 -0.32241
 C704 C 0.66740 0.15579 -0.36929
 C705 C 0.67860 0.16920 -0.41147
 C706 C 0.69200 0.19371 -0.40831
 C707 C 0.69483 0.20443 -0.36130
 C708 C 0.68378 0.19095 -0.31878
 C709 C 0.65627 0.15200 -0.27844
 C710 C 0.64634 0.16042 -0.24326
 C711 C 0.63193 0.14594 -0.20485
 C712 C 0.62683 0.12256 -0.20102
 C713 C 0.63738 0.11444 -0.23536
 C714 C 0.65208 0.12902 -0.27308
 C715 C 0.60970 0.10625 -0.16339
 C716 C 0.61199 0.08770 -0.14366
 C717 C 0.59445 0.07064 -0.11360
 C718 C 0.57453 0.07207 -0.10126
 C719 C 0.57274 0.09124 -0.11819
 C720 C 0.59002 0.10804 -0.14941
 H721 H 0.65641 0.13707 -0.37395
 H722 H 0.67645 0.16032 -0.44686
 H723 H 0.70500 0.22329 -0.35765
 H724 H 0.68619 0.19974 -0.28318
 H725 H 0.64900 0.17796 -0.24632
 H726 H 0.62453 0.15300 -0.17862
 H727 H 0.63371 0.09652 -0.23440
 H728 H 0.65981 0.12204 -0.29869
 H729 H 0.62715 0.08605 -0.15214
 H730 H 0.59631 0.05612 -0.10040
 H731 H 0.55742 0.09256 -0.10944
 H732 H 0.58738 0.12181 -0.16427
 C733 C 1.17219 0.50189 -0.31944
 C734 C 1.18366 0.48888 -0.32372
 C735 C 1.19519 0.48929 -0.36814
 C736 C 1.19524 0.50250 -0.40991
 C737 C 1.18376 0.51565 -0.40471
 C738 C 1.17249 0.51533 -0.36035
 C739 C 1.15892 0.50083 -0.27365
 C740 C 1.15950 0.52112 -0.25543
 C741 C 1.14443 0.51970 -0.21710
 C742 C 1.12847 0.49794 -0.19604
 C743 C 1.12891 0.47784 -0.21213
 C744 C 1.14399 0.47927 -0.25056
 C745 C 1.10999 0.49602 -0.16126
 C746 C 1.08685 0.47763 -0.16689
 C747 C 1.06881 0.47705 -0.13845
 C748 C 1.07344 0.49488 -0.10369
 C749 C 1.09672 0.51283 -0.09663
 C750 C 1.11481 0.51340 -0.12517
 H751 H 1.18366 0.47830 -0.29270
 H752 H 1.20305 0.47831 -0.37000
 H753 H 1.18403 0.52698 -0.43430
 H754 H 1.16361 0.52540 -0.35843
 H755 H 1.17111 0.53803 -0.27199
 H756 H 1.14446 0.53549 -0.20583
 H757 H 1.11706 0.46088 -0.19607
 H758 H 1.14311 0.46333 -0.26387
 H759 H 1.08247 0.46417 -0.19488
 H760 H 1.05112 0.46292 -0.14483
 H761 H 1.10092 0.52678 -0.07000
 H762 H 1.13251 0.52766 -0.11959
 C763 C 0.50775 0.67612 -0.31799
 C764 C 0.49492 0.68790 -0.31762
 C765 C 0.49486 0.70060 -0.35971
 C766 C 0.50717 0.70123 -0.40359
 C767 C 0.52158 0.69109 -0.40170
 C768 C 0.52199 0.67892 -0.35952
 C769 C 0.50532 0.65961 -0.27739
 C770 C 0.50494 0.63869 -0.28985
 C771 C 0.50406 0.62351 -0.25267
 C772 C 0.50316 0.62861 -0.20205
 C773 C 0.50236 0.64884 -0.18914
 C774 C 0.50352 0.66432 -0.22661
 C775 C 0.50458 0.61324 -0.16375
 C776 C 0.48660 0.60121 -0.12869
 C777 C 0.48673 0.58400 -0.09796
 C778 C 0.50497 0.57881 -0.10181
 C779 C 0.52356 0.59198 -0.13499
 C780 C 0.52330 0.60888 -0.16568
 H781 H 0.48388 0.68621 -0.28603
 H782 H 0.48351 0.70807 -0.35912
 H783 H 0.53259 0.69240 -0.43308
 H784 H 0.53303 0.67109 -0.36005
 H785 H 0.50544 0.63405 -0.32856
 H786 H 0.50434 0.60780 -0.26341
 H787 H 0.50168 0.65304 -0.15017
 H788 H 0.50371 0.68025 -0.21582
 H789 H 0.47196 0.60431 -0.12684
 H790 H 0.47219 0.57421 -0.07269
 H791 H 0.53806 0.58874 -0.13863
 H792 H 0.53742 0.61813 -0.19222
 C793 C 0.33800 -0.17955 -0.32337
 C794 C 0.34873 -0.18229 -0.36634
 C795 C 0.33536 -0.19425 -0.40805
 C796 C 0.31098 -0.20379 -0.40763
 C797 C 0.30003 -0.20257 -0.36345
 C798 C 0.31345 -0.19052 -0.32162
 C799 C 0.35252 -0.16318 -0.28322
 C800 C 0.34706 -0.16860 -0.23227
 C801 C 0.36029 -0.15223 -0.19517
 C802 C 0.37886 -0.13009 -0.20862
 C803 C 0.38444 -0.12487 -0.25944
 C804 C 0.37148 -0.14122 -0.29627
 C805 C 0.39231 -0.11200 -0.17051
 C806 C 0.39664 -0.08909 -0.17764
 C807 C 0.41151 -0.07116 -0.14544
 C808 C 0.42256 -0.07566 -0.10545
 C809 C 0.41731 -0.09885 -0.09680
 C810 C 0.40220 -0.11691 -0.12899
 H811 H 0.36758 -0.17439 -0.36833
 H812 H 0.34415 -0.19533 -0.44139
 H813 H 0.28126 -0.20969 -0.36234
 H814 H 0.30475 -0.18855 -0.28911
 H815 H 0.33255 -0.18542 -0.22124
 H816 H 0.35568 -0.15659 -0.15616
 H817 H 0.39884 -0.10801 -0.27071
 H818 H 0.37590 -0.13639 -0.33518
 H819 H 0.38893 -0.08496 -0.20901
 H820 H 0.41496 -0.05359 -0.15312
 H821 H 0.42550 -0.10292 -0.06631
 H822 H 0.39910 -0.13446 -0.12283
 C823 C 0.50062 -0.17185 0.31957
 C824 C 0.48531 -0.19615 0.32162
 C825 C 0.48358 -0.20865 0.36528
 C826 C 0.49680 -0.19697 0.40783
 C827 C 0.51244 -0.17278 0.40541
 C828 C 0.51446 -0.16036 0.36159
 C829 C 0.50121 -0.15808 0.27522
 C830 C 0.52266 -0.14053 0.25595
 C831 C 0.52322 -0.12549 0.21849
 C832 C 0.50234 -0.12744 0.19997
 C833 C 0.48086 -0.14582 0.21746
 C834 C 0.48031 -0.16104 0.25458
 C835 C 0.50303 -0.10913 0.16634
 C836 C 0.48632 -0.11469 0.12823
 C837 C 0.48613 -0.09695 0.09967
 C838 C 0.50265 -0.07331 0.10870
 C839 C 0.51966 -0.06790 0.14596
 C840 C 0.51980 -0.08552 0.17442
 H841 H 0.47453 -0.20539 0.28964
 H842 H 0.47133 -0.22730 0.36644
 H843 H 0.52290 -0.16345 0.43770
 H844 H 0.52623 -0.14161 0.36115
 H845 H 0.53901 -0.13813 0.27073
 H846 H 0.54006 -0.11190 0.20497
 H847 H 0.46446 -0.14770 0.20445
 H848 H 0.46354 -0.17434 0.26909
 H849 H 0.47330 -0.13272 0.12073
 H850 H 0.47283 -0.10174 0.07114
 H851 H 0.53268 -0.04991 0.15409
 H852 H 0.53263 -0.08050 0.20405
 C853 C 0.32640 0.49950 0.31528
 C854 C 0.30231 0.48389 0.32197
 C855 C 0.29116 0.48392 0.36665
 C856 C 0.30391 0.49949 0.40552
 C857 C 0.32787 0.51528 0.39841
 C858 C 0.33898 0.51524 0.35401
 C859 C 0.33891 0.49869 0.26960
 C860 C 0.35745 0.51937 0.24944
 C861 C 0.37156 0.51843 0.21148
 C862 C 0.36734 0.49677 0.19250
 C863 C 0.34777 0.47619 0.21017
 C864 C 0.33377 0.47713 0.24842
 C865 C 0.38457 0.49553 0.15850
 C866 C 0.39036 0.47791 0.16550
 C867 C 0.40808 0.47772 0.13743
 C868 C 0.42066 0.49522 0.10166
 C869 C 0.41451 0.51254 0.09347
 C870 C 0.39663 0.51267 0.12162
 H871 H 0.29210 0.47163 0.29274
 H872 H 0.27268 0.47149 0.37113
 H873 H 0.33809 0.52776 0.42733
 H874 H 0.35761 0.52722 0.35059
 H875 H 0.36155 0.53631 0.26417
 H876 H 0.38650 0.53462 0.19895
 H877 H 0.34373 0.45925 0.19563
 H878 H 0.31968 0.46086 0.26309
 H879 H 0.38184 0.46472 0.19420
 H880 H 0.41229 0.46409 0.14485
 H881 H 0.42380 0.52623 0.06608
 H882 H 0.39244 0.52636 0.11495
 C883 C 1.17840 0.66699 0.31304
 C884 C 1.18949 0.69151 0.31664
 C885 C 1.20104 0.70294 0.36065
 C886 C 1.20164 0.69007 0.40199
 C887 C 1.19144 0.66568 0.39758
 C888 C 1.17995 0.65426 0.35363
 C889 C 1.16370 0.65445 0.26898
 C890 C 1.16316 0.63427 0.25014
 C891 C 1.14713 0.62081 0.21299
 C892 C 1.13129 0.62725 0.19386
 C893 C 1.13262 0.64805 0.21093
 C894 C 1.14864 0.66150 0.24810
 C895 C 1.11226 0.61135 0.15944
 C896 C 1.08938 0.60724 0.16655
 C897 C 1.07090 0.59060 0.13769
 C898 C 1.07483 0.57765 0.10100
 C899 C 1.09786 0.58236 0.09260
 C900 C 1.11636 0.59900 0.12159
 H901 H 1.18881 0.70180 0.28579
 H902 H 1.20865 0.72176 0.36310
 H903 H 1.19189 0.65535 0.42865
 H904 H 1.17139 0.63535 0.35230
 H905 H 1.17476 0.62857 0.26504
 H906 H 1.14644 0.60480 0.20090
 H907 H 1.12086 0.65363 0.19640
 H908 H 1.14846 0.67683 0.26205
 H909 H 1.08557 0.61621 0.19586
 H910 H 1.05341 0.58743 0.14521
 H911 H 1.10153 0.57275 0.06455
 H912 H 1.13383 0.60198 0.11486
 C913 C 0.50104 0.17381 0.31572
 C914 C 0.51926 0.17952 0.35002
 C915 C 0.52070 0.19149 0.39409
 C916 C 0.50388 0.19796 0.40528
 C917 C 0.48594 0.19283 0.37056
 C918 C 0.48451 0.18081 0.32621
 C919 C 0.49865 0.15924 0.27117
 C920 C 0.47657 0.14094 0.25659
 C921 C 0.47463 0.12509 0.21955
 C922 C 0.49474 0.12704 0.19654
 C923 C 0.51670 0.14616 0.20902
 C924 C 0.51862 0.16213 0.24575
 C925 C 0.49301 0.10815 0.16326
 C926 C 0.50800 0.11318 0.12185
 C927 C 0.50748 0.09507 0.09342
 C928 C 0.49188 0.07155 0.10573
 C929 C 0.47657 0.06660 0.14644
 C930 C 0.47719 0.08463 0.17489
 H931 H 0.53206 0.17408 0.34365
 H932 H 0.53491 0.19551 0.41983
 H933 H 0.47270 0.19755 0.37832
 H934 H 0.47035 0.17681 0.30036
 H935 H 0.46084 0.13813 0.27551
 H936 H 0.45739 0.11083 0.21006
 H937 H 0.53256 0.14817 0.19227
 H938 H 0.53586 0.17633 0.25542
 H939 H 0.52024 0.13112 0.11160
 H940 H 0.51946 0.09950 0.06221
 H941 H 0.46443 0.04871 0.15729
 H942 H 0.46578 0.08005 0.20715
 C943 C 0.66888 0.49222 0.31470
 C944 C 0.69216 0.50931 0.32557
 C945 C 0.70304 0.50787 0.36941
 C946 C 0.69080 0.48936 0.40324
 C947 C 0.66789 0.47187 0.39141
 C948 C 0.65705 0.47330 0.34781
 C949 C 0.65620 0.49482 0.27133
 C950 C 0.63943 0.47505 0.24489
 C951 C 0.62509 0.47710 0.20911
 C952 C 0.62730 0.49900 0.19864
 C953 C 0.64505 0.51895 0.22283
 C954 C 0.65925 0.51688 0.25889
 C955 C 0.61001 0.50080 0.16591
 C956 C 0.60185 0.51614 0.17884
 C957 C 0.58462 0.51706 0.15038
 C958 C 0.57489 0.50253 0.10832
 C959 C 0.58318 0.48732 0.09487
 C960 C 0.60060 0.48651 0.12332
 H961 H 0.70184 0.52398 0.30058
 H962 H 0.72069 0.52164 0.37768
 H963 H 0.65816 0.45725 0.41652
 H964 H 0.63903 0.46000 0.34114
 H965 H 0.63693 0.45785 0.25289
 H966 H 0.61157 0.46135 0.19140
 H967 H 0.64755 0.53616 0.21491
 H968 H 0.67185 0.53245 0.27867
 H969 H 0.60826 0.52702 0.21198
 H970 H 0.57859 0.52888 0.16211
 H971 H 0.57613 0.47596 0.06256
 H972 H 0.60666 0.47467 0.11201
 C973 C 0.83245 0.32381 0.32210
 C974 C 0.84192 0.31523 0.35792
 C975 C 0.82869 0.30247 0.39910
 C976 C 0.80558 0.29769 0.40496
 C977 C 0.79544 0.30465 0.36737
 C978 C 0.80880 0.31769 0.32629
 C979 C 0.84786 0.34068 0.28339
 C980 C 0.84004 0.34014 0.23410
 C981 C 0.85504 0.35623 0.19831
 C982 C 0.87809 0.37299 0.21126
 C983 C 0.88561 0.37386 0.26079
 C984 C 0.87070 0.35798 0.29636
 C985 C 0.89485 0.38929 0.17367
 C986 C 0.91774 0.39308 0.17272
 C987 C 0.93455 0.40997 0.14143
 C988 C 0.92894 0.42357 0.11004
 C989 C 0.90572 0.41909 0.10912
 C990 C 0.88877 0.40202 0.14072
 H991 H 0.85989 0.31909 0.35504
 H992 H 0.83676 0.29707 0.42744
 H993 H 0.77767 0.30127 0.37140
 H994 H 0.80102 0.32409 0.29946
 H995 H 0.82252 0.32703 0.22301
 H996 H 0.84886 0.35519 0.16031
 H997 H 0.90310 0.38696 0.27211
 H998 H 0.87705 0.35942 0.33432
 H999 H 0.92278 0.38317 0.19696
 H1000 H 0.95213 0.41263 0.14264
 H1001 H 0.90084 0.42922 0.08524
 H1002 H 0.87120 0.39941 0.14079
   
