data_POSCAR
  _audit_creation_date              2014-09-24
  _audit_creation_method            'ToBaCCo'
  _symmetry_space_group_name_H-M    'P1'
  _symmetry_Int_Tables_number       1
  _symmetry_cell_setting            triclinic
  loop_
  _symmetry_equiv_pos_as_xyz
 x,y,z
_cell_length_a 19.4026
_cell_length_b 19.6053
_cell_length_c 19.2350
_cell_angle_alpha 90.152700
_cell_angle_beta 90.150400
_cell_angle_gamma 90.153400
loop_
  _atom_site_label
  _atom_site_type_symbol
  _atom_site_fract_x
  _atom_site_fract_y
  _atom_site_fract_z
C1 C 0.35514 1.00114 -0.56446
 C2 C 0.31978 1.00031 -0.50129
 C3 C 0.35552 0.99940 -0.43824
 C4 C 0.42816 0.99973 -0.43753
 C5 C 0.46452 1.00013 -0.50130
 C6 C 0.42793 1.00063 -0.56516
 C7 C 0.46506 1.00056 -0.62788
 C8 C 0.53663 0.99992 -0.62779
 C9 C 0.57397 0.99969 -0.56496
 C10 C 0.53758 1.00003 -0.50118
 C11 C 0.46530 0.99969 -0.37471
 C12 C 0.53686 1.00013 -0.37455
 C13 C 0.57409 1.00025 -0.43726
 C14 C 0.64686 1.00059 -0.43779
 C15 C 0.68237 0.99981 -0.50090
 C16 C 0.64675 0.99914 -0.56415
 H17 H 0.43904 1.00084 -0.67774
 H18 H 0.56247 0.99977 -0.67760
 H19 H 0.43935 0.99948 -0.32495
 H20 H 0.56278 1.00020 -0.32464
 H21 H 0.26380 1.00036 -0.50104
 H22 H 0.73838 0.99974 -0.50080
 C23 C -0.56236 1.35681 0.00102
 C24 C -0.49957 1.32176 0.00032
 C25 C -0.43662 1.35686 -0.00049
 C26 C -0.43598 1.42901 -0.00026
 C27 C -0.49925 1.46518 0.00009
 C28 C -0.56268 1.42894 0.00055
 C29 C -0.62475 1.46579 0.00051
 C30 C -0.62463 1.53679 -0.00006
 C31 C -0.56243 1.57380 -0.00030
 C32 C -0.49910 1.53773 -0.00004
 C33 C -0.37376 1.46593 -0.00035
 C34 C -0.37358 1.53694 -0.00002
 C35 C -0.43566 1.57399 0.00011
 C36 C -0.43607 1.64627 0.00035
 C37 C -0.49905 1.68119 -0.00028
 C38 C -0.56195 1.64593 -0.00078
 H39 H -0.67415 1.44001 0.00079
 H40 H -0.67396 1.56244 -0.00017
 H41 H -0.32448 1.44019 -0.00054
 H42 H -0.32412 1.56263 0.00001
 H43 H -0.49970 1.26640 0.00040
 H44 H -0.49927 1.73657 -0.00037
 C45 C 0.00058 0.35390 0.43752
 C46 C -0.00007 0.31883 0.50082
 C47 C -0.00086 0.35394 0.56429
 C48 C -0.00061 0.42614 0.56501
 C49 C -0.00034 0.46227 0.50116
 C50 C 0.00006 0.42608 0.43714
 C51 C -0.00008 0.46308 0.37452
 C52 C -0.00069 0.53402 0.37470
 C53 C -0.00086 0.57087 0.43748
 C54 C -0.00048 0.53478 0.50132
 C55 C -0.00061 0.46320 0.62779
 C56 C -0.00026 0.53415 0.62792
 C57 C -0.00024 0.57106 0.56528
 C58 C 0.00000 0.64327 0.56474
 C59 C -0.00075 0.67817 0.50137
 C60 C -0.00136 0.64293 0.43809
 H61 H 0.00014 0.43740 0.32462
 H62 H -0.00090 0.55976 0.32498
 H63 H -0.00073 0.43756 0.67757
 H64 H -0.00016 0.55992 0.67778
 H65 H 0.00002 0.26340 0.50069
 H66 H -0.00085 0.73357 0.50115
 O67 O -0.17761 1.00206 -0.09498
 O68 O 0.17676 0.99780 -0.09405
 O69 O -0.00249 1.09121 -0.17835
 O70 O 0.00156 0.90819 -0.17854
 O71 O 0.00133 0.82356 -0.09522
 O72 O -0.00228 1.17610 -0.09483
 O73 O 0.09162 0.99750 -0.17801
 O74 O -0.09245 1.00200 -0.17848
 Zr75 Zr -0.00044 0.99981 -0.12112
 O76 O 0.06201 0.93759 -0.06265
 O77 O -0.06285 1.06223 -0.06274
 C78 C -0.15602 1.00301 -0.15874
 C79 C 0.15519 0.99664 -0.15791
 C80 C -0.00329 1.15441 -0.15871
 C81 C 0.00234 0.84504 -0.15902
 H82 H 0.09130 1.09083 -0.09192
 O83 O 0.06185 1.06201 -0.06208
 H84 H -0.09223 0.90894 -0.09257
 O85 O -0.06274 0.93784 -0.06253
 O86 O 0.17686 1.00257 0.09477
 O87 O -0.17755 0.99767 0.09413
 O88 O 0.09448 1.17634 0.00255
 O89 O 0.09401 0.82390 -0.00222
 O90 O -0.09544 0.82374 0.00167
 O91 O -0.09464 1.17617 -0.00198
 O92 O 0.00202 1.09154 0.17866
 O93 O -0.00264 0.90862 0.17826
 O94 O 0.00207 1.17629 0.09545
 O95 O -0.00277 0.82378 0.09469
 O96 O 0.17746 1.09192 0.00259
 O97 O -0.17797 1.09164 -0.00233
 O98 O -0.17840 0.90821 0.00156
 O99 O 0.17722 0.90856 -0.00190
 O100 O 0.09183 1.00257 0.17839
 O101 O -0.09234 0.99771 0.17803
 Zr102 Zr 0.12086 1.00013 0.00025
 Zr103 Zr -0.12172 0.99992 -0.00029
 Zr104 Zr -0.00019 1.12141 0.00020
 Zr105 Zr -0.00062 0.87856 -0.00019
 Zr106 Zr -0.00032 1.00008 0.12111
 O107 O -0.06304 0.93764 0.06243
 O108 O 0.06229 1.06250 0.06294
 C109 C 0.15539 1.00363 0.15854
 C110 C -0.15593 0.99667 0.15799
 C111 C 0.15793 1.15503 0.00353
 C112 C 0.15754 0.84540 -0.00297
 C113 C -0.15891 0.84509 0.00247
 C114 C -0.15817 1.15478 -0.00305
 C115 C 0.00301 1.15471 0.15926
 C116 C -0.00367 0.84543 0.15856
 H117 H -0.09179 1.09084 0.09219
 O118 O -0.06244 1.06200 0.06227
 H119 H 0.09112 0.90930 0.09227
 O120 O 0.06172 0.93807 0.06232
 C121 C 0.31756 1.00243 0.37559
 C122 C 0.28418 1.00349 0.32289
 C123 C 0.24336 1.00433 0.26248
 C124 C 0.20537 1.00445 0.21308
 C125 C -0.31599 0.99793 0.37585
 C126 C -0.28317 0.99691 0.32293
 C127 C -0.24312 0.99607 0.26216
 C128 C -0.20567 0.99592 0.21253
 C129 C -0.31581 1.00173 -0.37763
 C130 C -0.28304 1.00271 -0.32450
 C131 C -0.24312 1.00353 -0.26344
 C132 C -0.20575 1.00370 -0.21354
 C133 C 0.31619 0.99805 -0.37490
 C134 C 0.28319 0.99698 -0.32215
 C135 C 0.24278 0.99609 -0.26168
 C136 C 0.20504 0.99591 -0.21229
 C137 C 0.37436 1.31723 0.00221
 C138 C 0.32200 1.28371 0.00315
 C139 C 0.26185 1.24263 0.00396
 C140 C 0.21261 1.20476 0.00416
 C141 C 0.37473 0.68520 -0.00182
 C142 C 0.32218 0.71821 -0.00265
 C143 C 0.26171 0.75858 -0.00338
 C144 C 0.21225 0.79593 -0.00355
 C145 C -0.37617 0.68374 0.00124
 C146 C -0.32363 0.71708 0.00204
 C147 C -0.26320 0.75784 0.00275
 C148 C -0.21373 0.79546 0.00296
 C149 C -0.37354 1.31729 -0.00162
 C150 C -0.32142 1.28367 -0.00253
 C151 C -0.26159 1.24244 -0.00334
 C152 C -0.21261 1.20449 -0.00358
 C153 C 0.00171 1.31651 0.37725
 C154 C 0.00266 1.28301 0.32452
 C155 C 0.00347 1.24198 0.26402
 C156 C 0.00366 1.20417 0.21443
 C157 C -0.00191 1.31654 -0.37564
 C158 C -0.00282 1.28294 -0.32316
 C159 C -0.00362 1.24173 -0.26298
 C160 C -0.00385 1.20384 -0.21367
 C161 C 0.00101 0.68093 -0.37519
 C162 C 0.00189 0.71503 -0.32288
 C163 C 0.00267 0.75693 -0.26302
 C164 C 0.00288 0.79533 -0.21393
 C165 C -0.00252 0.68242 0.37464
 C166 C -0.00342 0.71623 0.32234
 C167 C -0.00418 0.75776 0.26245
 C168 C -0.00434 0.79590 0.21337
   
