data_POSCAR
  _audit_creation_date              2014-09-24
  _audit_creation_method            'ToBaCCo'
  _symmetry_space_group_name_H-M    'P1'
  _symmetry_Int_Tables_number       1
  _symmetry_cell_setting            triclinic
  loop_
  _symmetry_equiv_pos_as_xyz
 x,y,z
_cell_length_a 14.6725
_cell_length_b 14.0051
_cell_length_c 15.4579
_cell_angle_alpha 89.557900
_cell_angle_beta 91.056000
_cell_angle_gamma 89.700400
loop_
  _atom_site_label
  _atom_site_type_symbol
  _atom_site_fract_x
  _atom_site_fract_y
  _atom_site_fract_z
C1 C 0.18689 0.14336 0.29599
 N2 N 0.13035 0.20042 0.24813
 C3 C 0.16388 0.25255 0.18232
 N4 N 0.25143 0.24207 0.15982
 C5 C 0.30656 0.17803 0.20145
 N6 N 0.27499 0.13065 0.27191
 C7 C 0.81054 0.82704 0.29112
 N8 N 0.75199 0.87957 0.24060
 C9 C 0.73923 0.85840 0.15518
 N10 N 0.78031 0.78086 0.12148
 C11 C 0.83581 0.72462 0.17151
 N12 N 0.85280 0.74948 0.25554
 C13 C 0.81118 0.15121 0.71745
 N14 N 0.85976 0.21383 0.76466
 C15 C 0.81949 0.27016 0.82279
 N16 N 0.72931 0.25722 0.83913
 C17 C 0.67997 0.18873 0.79551
 N18 N 0.72163 0.13710 0.73334
 C19 C 0.18331 0.81862 0.71495
 N20 N 0.24417 0.86616 0.76468
 C21 C 0.26939 0.83421 0.84385
 N22 N 0.23091 0.75279 0.87533
 C23 C 0.16838 0.70279 0.82610
 N24 N 0.14350 0.73792 0.74649
 C25 C 0.16359 0.17563 0.69946
 N26 N 0.11801 0.24675 0.74067
 C27 C 0.15484 0.28735 0.81350
 N28 N 0.23566 0.25260 0.84659
 C29 C 0.28359 0.18374 0.80442
 N30 N 0.24705 0.14686 0.73074
 C31 C 0.81163 0.82455 0.69606
 N32 N 0.74047 0.87127 0.73391
 C33 C 0.71755 0.85036 0.81764
 N34 N 0.76605 0.78364 0.86280
 C35 C 0.83469 0.73558 0.82495
 N36 N 0.85922 0.75889 0.74365
 C37 C 0.20007 0.81377 0.29592
 N38 N 0.26438 0.86566 0.25410
 C39 C 0.28073 0.84822 0.16904
 N40 N 0.23372 0.78060 0.12649
 C41 C 0.17329 0.72756 0.16969
 N42 N 0.15532 0.74471 0.25298
 C43 C 0.83474 0.16619 0.29192
 N44 N 0.87470 0.24370 0.25575
 C45 C 0.83512 0.28770 0.18572
 N46 N 0.75643 0.25336 0.15244
 C47 C 0.71290 0.17958 0.19077
 N48 N 0.75327 0.13461 0.25976
 O49 O 0.57343 0.89048 0.87296
 O50 O 0.42490 0.88879 1.12719
 O51 O 0.69435 0.97630 1.05692
 O52 O 0.30615 0.97495 0.92169
 O53 O 0.59379 0.89116 1.12596
 O54 O 0.41487 0.88314 0.88714
 O55 O 0.31392 0.97836 1.07950
 O56 O 0.67947 0.98914 0.89622
 C57 C 0.65407 0.91154 0.86562
 C58 C 0.34275 0.90663 1.12101
 C59 C 0.67387 0.90782 1.10738
 C60 C 0.33222 0.89554 0.89412
 O61 O 0.39308 1.06188 0.81733
 O62 O 0.59732 1.06786 1.17307
 O63 O 0.59847 1.16329 0.91385
 O64 O 0.37482 1.15850 1.07524
 O65 O 0.42166 1.06759 1.17924
 O66 O 0.56619 1.07297 0.80864
 O67 O 0.37882 1.15645 0.92099
 O68 O 0.63599 1.15837 1.06694
 Co69 Co 0.48759 0.98260 0.85899
 Co70 Co 0.50762 0.98342 1.13567
 Co71 Co 0.63790 1.06664 0.98368
 Co72 Co 0.35643 1.06269 0.99809
 O73 O 0.49765 1.02073 0.99479
 C74 C 0.35856 1.13733 0.84579
 C75 C 0.64278 1.13669 1.14417
 C76 C 0.60506 1.14752 0.83653
 C77 C 0.37580 1.13863 1.15313
 O78 O 0.11730 0.40485 0.14392
 O79 O 0.05199 0.58473 -0.16984
 O80 O 0.10258 0.34286 -0.05765
 O81 O 0.05469 0.69776 0.07562
 O82 O 0.04077 0.40262 -0.17025
 O83 O 0.12234 0.57804 0.13899
 O84 O 0.11252 0.63434 -0.05441
 O85 O 0.04650 0.28680 0.08160
 C86 C 0.10601 0.31749 0.13355
 C87 C 0.11385 0.63346 -0.13317
 C88 C 0.10147 0.34976 -0.13717
 C89 C 0.11546 0.66477 0.12444
 O90 O -0.05606 0.59436 0.17112
 O91 O -0.12886 0.40894 -0.10746
 O92 O -0.11541 0.34357 0.05517
 O93 O -0.04101 0.72683 -0.08015
 O94 O -0.11904 0.59408 -0.10936
 O95 O -0.05803 0.40510 0.17562
 O96 O -0.10784 0.65260 0.04658
 O97 O -0.05963 0.26966 -0.07786
 Co98 Co 0.02860 0.49587 0.14550
 Co99 Co -0.03499 0.49720 -0.12648
 Co100 Co -0.00792 0.35444 -0.00647
 Co101 Co 0.00027 0.63322 -0.01029
 O102 O 0.00614 0.49401 0.00994
 C103 C -0.10940 0.65073 0.12830
 C104 C -0.12268 0.31829 -0.12052
 C105 C -0.11404 0.35032 0.13711
 C106 C -0.10547 0.68316 -0.12459
 O107 O 1.17724 0.08261 0.43296
 O108 O 0.87336 0.09754 0.58679
 O109 O 0.92397 0.02899 0.32323
 O110 O 1.03724 0.11191 0.62591
 O111 O 0.88130 0.11515 0.43028
 O112 O 1.17062 0.05933 0.59814
 O113 O 0.92029 0.02651 0.70816
 O114 O 1.08973 0.02288 0.32728
 C115 C 1.14961 0.08178 0.35490
 C116 C 0.86209 0.08397 0.66757
 C117 C 0.88718 0.10394 0.35129
 C118 C 1.12176 0.11841 0.63590
 O119 O 1.16815 -0.12628 0.57565
 O120 O 0.81457 -0.06038 0.40395
 O121 O 1.08006 -0.16576 0.38221
 O122 O 0.93962 -0.12968 0.62924
 O123 O 0.81664 -0.08159 0.57049
 O124 O 1.19815 -0.09062 0.41438
 O125 O 1.08313 -0.06556 0.67636
 O126 O 0.92277 -0.15569 0.39123
 Co127 Co 1.16125 -0.01957 0.50548
 Co128 Co 0.86128 0.01237 0.49732
 Co129 Co 1.00399 -0.06447 0.36541
 Co130 Co 0.98663 -0.01031 0.61876
 O131 O 1.00923 -0.02354 0.49278
 C132 C 1.13987 -0.12729 0.65198
 C133 C 0.84509 -0.13458 0.36928
 C134 C 1.16122 -0.15252 0.37040
 C135 C 0.85590 -0.13414 0.62547
   
