data_POSCAR
  _audit_creation_date              2014-09-24
  _audit_creation_method            'ToBaCCo'
  _symmetry_space_group_name_H-M    'P1'
  _symmetry_Int_Tables_number       1
  _symmetry_cell_setting            triclinic
  loop_
  _symmetry_equiv_pos_as_xyz
 x,y,z
_cell_length_a 39.3551
_cell_length_b 40.2704
_cell_length_c 38.2374
_cell_angle_alpha 92.435000
_cell_angle_beta 85.088600
_cell_angle_gamma 85.900900
loop_
  _atom_site_label
  _atom_site_type_symbol
  _atom_site_fract_x
  _atom_site_fract_y
  _atom_site_fract_z
N1 N 0.31403 0.26881 0.21206
 N2 N 0.29603 0.29764 0.21259
 C3 C 0.31190 0.31757 0.19003
 C4 C 0.34136 0.30018 0.17464
 C5 C 0.34194 0.26937 0.18921
 H6 H 0.30254 0.34265 0.18490
 H7 H 0.36119 0.24888 0.18355
 Cu8 Cu 0.25306 0.30602 0.24187
 Cu9 Cu 0.30028 0.23298 0.24146
 Cu10 Cu 0.21884 0.24225 0.28362
 N11 N 0.20493 0.30804 0.25902
 N12 N 0.19138 0.28261 0.27386
 C13 C 0.15734 0.28950 0.27989
 C14 C 0.14926 0.32102 0.26860
 C15 C 0.18004 0.33217 0.25560
 H16 H 0.13965 0.27263 0.29107
 H17 H 0.18380 0.35533 0.24299
 N18 N 0.25111 0.20339 0.28958
 N19 N 0.28191 0.19966 0.27262
 C20 C 0.29817 0.17136 0.28207
 C21 C 0.27680 0.15669 0.30633
 C22 C 0.24711 0.17758 0.31060
 H23 H 0.32415 0.16256 0.27296
 H24 H 0.22461 0.17451 0.32812
 H25 H 0.24874 0.24633 0.23752
 H26 H 0.26675 0.26023 0.27914
 N27 N 0.67972 -0.20679 0.18416
 N28 N 0.68228 -0.23762 0.17096
 C29 C 0.65816 -0.24084 0.14828
 C30 C 0.63990 -0.21018 0.14733
 C31 C 0.65450 -0.18912 0.17011
 H32 H 0.65400 -0.26373 0.13396
 H33 H 0.64606 -0.16344 0.17757
 Cu34 Cu 0.71711 -0.27053 0.18468
 Cu35 Cu 0.70492 -0.19401 0.22288
 Cu36 Cu 0.76056 -0.24766 0.25661
 N37 N 0.75380 -0.29953 0.20262
 N38 N 0.76973 -0.29123 0.23042
 C39 C 0.79322 -0.31608 0.23585
 C40 C 0.79254 -0.34075 0.20968
 C41 C 0.76736 -0.32946 0.18909
 H42 H 0.81031 -0.31573 0.25654
 H43 H 0.75974 -0.34205 0.16580
 N44 N 0.73916 -0.20834 0.28390
 N45 N 0.71650 -0.18808 0.27062
 C46 C 0.70368 -0.16468 0.29518
 C47 C 0.71968 -0.17004 0.32526
 C48 C 0.74236 -0.19776 0.31733
 H49 H 0.68412 -0.14520 0.29141
 H50 H 0.75886 -0.21000 0.33486
 H51 H 0.74968 -0.23850 0.20513
 H52 H 0.71487 -0.25195 0.23628
 N53 N 0.75134 0.24280 0.76870
 N54 N 0.76263 0.25911 0.79553
 C55 C 0.73571 0.27066 0.81810
 C56 C 0.70621 0.26118 0.80439
 C57 C 0.71708 0.24383 0.77313
 H58 H 0.73754 0.28401 0.84293
 H59 H 0.70128 0.23091 0.75606
 Cu60 Cu 0.81188 0.26257 0.79914
 Cu61 Cu 0.78115 0.21527 0.73290
 Cu62 Cu 0.86360 0.20716 0.74786
 N63 N 0.85927 0.27126 0.78434
 N64 N 0.87945 0.24885 0.76500
 C65 C 0.90929 0.26164 0.75569
 C66 C 0.90761 0.29405 0.76929
 C67 C 0.87566 0.29938 0.78779
 H68 H 0.92967 0.24910 0.73810
 H69 H 0.86443 0.32240 0.80090
 N70 N 0.84421 0.17495 0.71782
 N71 N 0.81203 0.17901 0.71107
 C72 C 0.80580 0.15567 0.68676
 C73 C 0.83568 0.13583 0.67803
 C74 C 0.85960 0.14861 0.69828
 H75 H 0.78151 0.15372 0.67586
 H76 H 0.88642 0.14037 0.69770
 H77 H 0.80615 0.21381 0.77751
 H78 H 0.81497 0.24858 0.74808
 N79 N 0.27107 -0.23443 0.79408
 N80 N 0.26258 -0.26540 0.79196
 C81 C 0.28277 -0.28440 0.81096
 C82 C 0.30489 -0.26427 0.82615
 C83 C 0.29676 -0.23258 0.81513
 H84 H 0.28147 -0.31091 0.81368
 H85 H 0.30901 -0.21012 0.82129
 Cu86 Cu 0.22540 -0.27817 0.76554
 Cu87 Cu 0.24813 -0.19960 0.76844
 Cu88 Cu 0.20013 -0.22930 0.70312
 N89 N 0.18448 -0.28589 0.74255
 N90 N 0.17455 -0.26685 0.71768
 C91 C 0.14663 -0.27868 0.70500
 C92 C 0.13879 -0.30659 0.72310
 C93 C 0.16326 -0.31040 0.74677
 H94 H 0.13345 -0.26810 0.68390
 H95 H 0.16582 -0.32981 0.76526
 N96 N 0.21735 -0.18472 0.70364
 N97 N 0.23382 -0.17257 0.72944
 C98 C 0.24128 -0.14124 0.72239
 C99 C 0.22923 -0.13370 0.69053
 C100 C 0.21425 -0.16175 0.67938
 H101 H 0.25566 -0.12563 0.73845
 H102 H 0.20200 -0.16520 0.65536
 H103 H 0.20407 -0.22144 0.75491
 H104 H 0.24550 -0.23425 0.72876
 N105 N 0.72546 -0.21613 0.84967
 N106 N 0.74412 -0.24331 0.85585
 C107 C 0.72610 -0.26117 0.87879
 C108 C 0.69446 -0.24435 0.88721
 C109 C 0.69491 -0.21574 0.86849
 H110 H 0.73472 -0.28541 0.88726
 H111 H 0.67417 -0.19676 0.86750
 Cu112 Cu 0.78835 -0.25522 0.83019
 Cu113 Cu 0.74163 -0.18464 0.81592
 Cu114 Cu 0.80288 -0.22058 0.75262
 N115 N 0.82201 -0.27551 0.79414
 N116 N 0.82592 -0.26274 0.76311
 C117 C 0.84718 -0.28347 0.74147
 C118 C 0.85721 -0.31061 0.75998
 C119 C 0.84107 -0.30474 0.79350
 H120 H 0.85432 -0.27942 0.71412
 H121 H 0.84152 -0.32123 0.81509
 N122 N 0.77717 -0.17773 0.74733
 N123 N 0.75426 -0.16352 0.77166
 C124 C 0.74084 -0.13482 0.75982
 C125 C 0.75618 -0.13101 0.72650
 C126 C 0.77905 -0.15852 0.71947
 H127 H 0.72077 -0.11849 0.77391
 H128 H 0.79540 -0.16435 0.69551
 H129 H 0.75949 -0.22597 0.78570
 H130 H 0.79307 -0.20115 0.80328
 N131 N 0.31135 0.23842 0.81418
 N132 N 0.28901 0.26415 0.82177
 C133 C 0.29978 0.28357 0.84739
 C134 C 0.33036 0.26924 0.85667
 C135 C 0.33700 0.24043 0.83528
 H136 H 0.28688 0.30704 0.85766
 H137 H 0.35947 0.22315 0.83400
 Cu138 Cu 0.24917 0.27204 0.79599
 Cu139 Cu 0.30585 0.20596 0.77572
 Cu140 Cu 0.25198 0.23638 0.71530
 N141 N 0.21995 0.28949 0.76179
 N142 N 0.22240 0.27617 0.72963
 C143 C 0.20179 0.29427 0.71022
 C144 C 0.18558 0.32028 0.73136
 C145 C 0.19754 0.31657 0.76405
 H146 H 0.19913 0.28924 0.68262
 H147 H 0.19151 0.33299 0.78721
 N148 N 0.28323 0.19616 0.70583
 N149 N 0.30324 0.18369 0.72882
 C150 C 0.31954 0.15487 0.71475
 C151 C 0.30898 0.14921 0.68148
 C152 C 0.28615 0.17586 0.67681
 H153 H 0.33718 0.13894 0.72790
 H154 H 0.27193 0.17964 0.65418
 H155 H 0.28898 0.24559 0.74942
 H156 H 0.25573 0.21727 0.76414
 N157 N 0.23738 -0.24440 0.20795
 N158 N 0.22094 -0.26941 0.19647
 C159 C 0.23648 -0.28172 0.16549
 C160 C 0.26427 -0.26362 0.15715
 C161 C 0.26427 -0.24013 0.18468
 H162 H 0.22838 -0.30252 0.15028
 H163 H 0.28234 -0.22140 0.18758
 Cu164 Cu 0.18157 -0.28471 0.22347
 Cu165 Cu 0.22200 -0.21986 0.25240
 Cu166 Cu 0.13537 -0.22592 0.27503
 N167 N 0.13720 -0.29304 0.24605
 N168 N 0.11891 -0.26977 0.26602
 C169 C 0.08895 -0.28151 0.27739
 C170 C 0.08865 -0.31391 0.26394
 C171 C 0.11965 -0.32046 0.24414
 H172 H 0.06894 -0.26756 0.29425
 H173 H 0.12863 -0.34333 0.22931
 N174 N 0.16127 -0.18979 0.29344
 N175 N 0.19458 -0.18837 0.28643
 C176 C 0.20494 -0.16256 0.30541
 C177 C 0.17666 -0.14702 0.32511
 C178 C 0.14950 -0.16484 0.31681
 H179 H 0.23103 -0.15568 0.30498
 H180 H 0.12328 -0.16063 0.32799
 H181 H 0.18353 -0.24788 0.27573
 H182 H 0.17550 -0.22449 0.23584
 N183 N 0.72857 0.19500 0.18115
 N184 N 0.73386 0.22675 0.17876
 C185 C 0.71875 0.23851 0.15092
 C186 C 0.70393 0.21242 0.13482
 C187 C 0.71081 0.18526 0.15450
 H188 H 0.71849 0.26401 0.14306
 H189 H 0.70214 0.16062 0.15047
 Cu190 Cu 0.75977 0.25000 0.21250
 Cu191 Cu 0.74182 0.17052 0.22108
 Cu192 Cu 0.79440 0.20167 0.27602
 N193 N 0.79499 0.26525 0.24233
 N194 N 0.80834 0.24651 0.26600
 C195 C 0.83190 0.26317 0.28145
 C196 C 0.83371 0.29371 0.26678
 C197 C 0.81007 0.29434 0.24199
 H198 H 0.84687 0.25379 0.30183
 H199 H 0.80449 0.31433 0.22486
 N200 N 0.77647 0.15820 0.28209
 N201 N 0.75529 0.14606 0.26093
 C202 C 0.74503 0.11715 0.27302
 C203 C 0.76072 0.11090 0.30326
 C204 C 0.78057 0.13735 0.30827
 H205 H 0.72670 0.10227 0.26146
 H206 H 0.79568 0.14180 0.33009
 H207 H 0.75118 0.22091 0.25573
 H208 H 0.78777 0.20713 0.22273
 C209 C 0.25190 -0.00898 0.49557
 C210 C 0.27027 0.01813 0.49057
 C211 C 0.27382 0.03355 0.45602
 C212 C 0.28551 0.03565 0.51986
 C213 C 0.24675 -0.02394 0.53041
 C214 C 0.23569 -0.02539 0.46639
 C215 C 0.30647 0.03523 0.43879
 C216 C 0.31075 0.05237 0.40794
 C217 C 0.28255 0.06883 0.39410
 C218 C 0.24970 0.06673 0.41116
 C219 C 0.24537 0.04911 0.44184
 C220 C 0.30739 0.01883 0.54161
 C221 C 0.31836 0.03551 0.57108
 C222 C 0.30811 0.06939 0.57898
 C223 C 0.28805 0.08649 0.55573
 C224 C 0.27686 0.06981 0.52668
 C225 C 0.23359 -0.00474 0.56079
 C226 C 0.23053 -0.01926 0.59341
 C227 C 0.23924 -0.05344 0.59597
 C228 C 0.25104 -0.07284 0.56537
 C229 C 0.25487 -0.05820 0.53297
 C230 C 0.20028 -0.02801 0.46974
 C231 C 0.18465 -0.04567 0.44419
 C232 C 0.20413 -0.06160 0.41488
 C233 C 0.23966 -0.05848 0.41119
 C234 C 0.25531 -0.04049 0.43677
 H235 H 0.32870 0.02362 0.44955
 H236 H 0.33633 0.05363 0.39542
 H237 H 0.22745 0.07882 0.40094
 H238 H 0.22001 0.04839 0.45510
 H239 H 0.31510 -0.00738 0.53637
 H240 H 0.33413 0.02173 0.58818
 H241 H 0.26041 0.08347 0.51008
 H242 H 0.22614 0.02154 0.55933
 H243 H 0.22108 -0.00394 0.61664
 H244 H 0.25823 -0.09917 0.56666
 H245 H 0.26478 -0.07357 0.50990
 H246 H 0.18475 -0.01666 0.49248
 H247 H 0.15729 -0.04757 0.44784
 H248 H 0.25542 -0.07010 0.38882
 H249 H 0.28277 -0.03905 0.43393
 H250 H 0.28035 0.11273 0.56006
 C251 C 0.77422 -0.00499 0.50410
 C252 C 0.76299 -0.03499 0.51291
 C253 C 0.75217 -0.05883 0.48620
 C254 C 0.76008 -0.04506 0.54988
 C255 C 0.79073 0.01576 0.52976
 C256 C 0.76942 0.00885 0.46918
 C257 C 0.71926 -0.07017 0.49014
 C258 C 0.70820 -0.09122 0.46421
 C259 C 0.73013 -0.10193 0.43437
 C260 C 0.76359 -0.09163 0.43113
 C261 C 0.77447 -0.07011 0.45682
 C262 C 0.74126 -0.02454 0.57640
 C263 C 0.73745 -0.03483 0.61086
 C264 C 0.75219 -0.06592 0.61942
 C265 C 0.77094 -0.08641 0.59265
 C266 C 0.77472 -0.07610 0.55826
 C267 C 0.81934 0.00269 0.54561
 C268 C 0.83378 0.02176 0.57102
 C269 C 0.81978 0.05415 0.58108
 C270 C 0.79174 0.06750 0.56438
 C271 C 0.77747 0.04851 0.53880
 C272 C 0.79628 0.02364 0.45062
 C273 C 0.79151 0.03771 0.41841
 C274 C 0.75982 0.03705 0.40412
 C275 C 0.73301 0.02230 0.42268
 C276 C 0.73756 0.00887 0.45514
 H277 H 0.70179 -0.06184 0.51275
 H278 H 0.68233 -0.09887 0.46719
 H279 H 0.78085 -0.09917 0.40817
 H280 H 0.80010 -0.06185 0.45360
 H281 H 0.72910 -0.00076 0.57029
 H282 H 0.72275 -0.01859 0.63079
 H283 H 0.78905 -0.09240 0.53809
 H284 H 0.83020 -0.02242 0.53856
 H285 H 0.85545 0.01098 0.58335
 H286 H 0.78083 0.09263 0.57097
 H287 H 0.75558 0.05907 0.52662
 H288 H 0.82098 0.02422 0.46104
 H289 H 0.81267 0.04874 0.40450
 H290 H 0.70824 0.02192 0.41241
 H291 H 0.71602 -0.00118 0.46949
 H292 H 0.78233 -0.11070 0.59787
 C293 C 0.52653 0.28260 0.00836
 C294 C 0.52205 0.28339 -0.02649
 C295 C 0.48729 0.28753 -0.03864
 C296 C 0.55073 0.27768 -0.05463
 C297 C 0.55944 0.26996 0.02116
 C298 C 0.49727 0.29121 0.03528
 C299 C 0.46598 0.26104 -0.03697
 C300 C 0.43517 0.26307 -0.05271
 C301 C 0.42492 0.29196 -0.06952
 C302 C 0.44568 0.31890 -0.06997
 C303 C 0.47698 0.31647 -0.05521
 C304 C 0.54707 0.25607 -0.08362
 C305 C 0.57183 0.25274 -0.11202
 C306 C 0.60110 0.27066 -0.11216
 C307 C 0.60553 0.29158 -0.08275
 C308 C 0.58036 0.29524 -0.05427
 C309 C 0.57354 0.28761 0.04815
 C310 C 0.60253 0.27413 0.06286
 C311 C 0.61777 0.24250 0.05105
 C312 C 0.60398 0.22531 0.02344
 C313 C 0.57506 0.23876 0.00881
 C314 C 0.47863 0.32232 0.03611
 C315 C 0.45024 0.32969 0.06044
 C316 C 0.43996 0.30621 0.08464
 C317 C 0.45933 0.27537 0.08433
 C318 C 0.48771 0.26803 0.05994
 H319 H 0.47387 0.23838 -0.02463
 H320 H 0.41934 0.24217 -0.05185
 H321 H 0.43817 0.34133 -0.08290
 H322 H 0.49337 0.33693 -0.05703
 H323 H 0.52470 0.24201 -0.08458
 H324 H 0.56795 0.23621 -0.13416
 H325 H 0.58353 0.31247 -0.03248
 H326 H 0.56166 0.31157 0.05832
 H327 H 0.61214 0.28806 0.08420
 H328 H 0.61500 0.20089 0.01380
 H329 H 0.56420 0.22427 -0.01137
 H330 H 0.48596 0.34081 0.01772
 H331 H 0.43610 0.35372 0.06011
 H332 H 0.45265 0.25672 0.10267
 H333 H 0.50186 0.24394 0.05986
 H334 H 0.62773 0.30591 -0.08232
 C335 C 0.47162 0.74805 -0.01925
 C336 C 0.46254 0.75502 0.01556
 C337 C 0.48822 0.76630 0.03862
 C338 C 0.42792 0.75009 0.03239
 C339 C 0.44609 0.74203 -0.04469
 C340 C 0.50820 0.74477 -0.03286
 C341 C 0.50095 0.74521 0.06349
 C342 C 0.52740 0.75476 0.08299
 C343 C 0.54078 0.78588 0.07845
 C344 C 0.52719 0.80732 0.05434
 C345 C 0.50135 0.79746 0.03426
 C346 C 0.41254 0.72024 0.02618
 C347 C 0.38100 0.71480 0.04371
 C348 C 0.36443 0.73873 0.06842
 C349 C 0.37982 0.76863 0.07466
 C350 C 0.41129 0.77419 0.05685
 C351 C 0.41837 0.76541 -0.04767
 C352 C 0.39439 0.75938 -0.07171
 C353 C 0.39765 0.72974 -0.09290
 C354 C 0.42555 0.70657 -0.08997
 C355 C 0.44974 0.71282 -0.06638
 C356 C 0.52092 0.76624 -0.05786
 C357 C 0.55577 0.76382 -0.06938
 C358 C 0.57837 0.73964 -0.05622
 C359 C 0.56518 0.71772 -0.03179
 C360 C 0.53046 0.72019 -0.02033
 H361 H 0.49106 0.72105 0.06701
 H362 H 0.53716 0.73807 0.10185
 H363 H 0.53712 0.83143 0.05057
 H364 H 0.49174 0.81393 0.01509
 H365 H 0.42530 0.70076 0.00835
 H366 H 0.36991 0.69143 0.03859
 H367 H 0.42277 0.79730 0.06227
 H368 H 0.41534 0.78826 -0.03136
 H369 H 0.37295 0.77749 -0.07316
 H370 H 0.42863 0.68360 -0.10608
 H371 H 0.47099 0.69452 -0.06453
 H372 H 0.50396 0.78518 -0.06796
 H373 H 0.56479 0.78085 -0.08857
 H374 H 0.58179 0.69873 -0.02133
 H375 H 0.52091 0.70303 -0.00144
 H376 H 0.36759 0.78775 0.09320
 C377 C -0.01987 0.49037 0.25406
 C378 C -0.05396 0.48724 0.25196
 C379 C -0.07013 0.45559 0.25881
 C380 C -0.07671 0.51554 0.24187
 C381 C -0.00685 0.52411 0.25728
 C382 C 0.00519 0.46069 0.25488
 C383 C -0.09209 0.44286 0.23532
 C384 C -0.10709 0.41296 0.24147
 C385 C -0.10062 0.39528 0.27145
 C386 C -0.07914 0.40846 0.29524
 C387 C -0.06425 0.43837 0.28912
 C388 C -0.07301 0.52661 0.20756
 C389 C -0.09640 0.55099 0.19677
 C390 C -0.12320 0.56533 0.22040
 C391 C -0.12625 0.55502 0.25507
 C392 C -0.10350 0.52983 0.26556
 C393 C -0.02165 0.54719 0.28377
 C394 C -0.00938 0.57867 0.28755
 C395 C 0.01842 0.58769 0.26536
 C396 C 0.03356 0.56440 0.23904
 C397 C 0.02106 0.53285 0.23512
 C398 C 0.03163 0.46096 0.27745
 C399 C 0.05444 0.43283 0.27904
 C400 C 0.05081 0.40375 0.25860
 C401 C 0.02505 0.40363 0.23549
 C402 C 0.00304 0.43205 0.23297
 H403 H -0.09714 0.45579 0.21182
 H404 H -0.12328 0.40362 0.22243
 H405 H -0.07384 0.39560 0.31868
 H406 H -0.04802 0.44806 0.30802
 H407 H -0.05268 0.51554 0.18888
 H408 H -0.09379 0.55860 0.16991
 H409 H -0.10686 0.52130 0.29203
 H410 H -0.04257 0.54067 0.30184
 H411 H -0.02139 0.59587 0.30824
 H412 H 0.05482 0.57053 0.22128
 H413 H 0.03302 0.51530 0.21470
 H414 H 0.03423 0.48270 0.29439
 H415 H 0.07414 0.43332 0.29711
 H416 H 0.02220 0.38152 0.21920
 H417 H -0.01601 0.43146 0.21420
 H418 H -0.14705 0.56553 0.27351
 C419 C 0.02942 0.50322 0.74445
 C420 C -0.00421 0.49716 0.74936
 C421 C -0.01552 0.46282 0.74985
 C422 C -0.03116 0.52475 0.75030
 C423 C 0.04037 0.53729 0.73949
 C424 C 0.05686 0.47584 0.73982
 C425 C -0.00544 0.43973 0.72171
 C426 C -0.01451 0.40696 0.72321
 C427 C -0.03475 0.39688 0.75232
 C428 C -0.04617 0.42038 0.77979
 C429 C -0.03656 0.45314 0.77855
 C430 C -0.05090 0.52789 0.72165
 C431 C -0.07214 0.55669 0.71887
 C432 C -0.07468 0.58232 0.74516
 C433 C -0.05658 0.57824 0.77499
 C434 C -0.03467 0.54968 0.77740
 C435 C 0.06157 0.55114 0.76288
 C436 C 0.07396 0.58228 0.75724
 C437 C 0.06570 0.59999 0.72775
 C438 C 0.04397 0.58618 0.70465
 C439 C 0.03161 0.55500 0.71033
 C440 C 0.06164 0.45290 0.76594
 C441 C 0.08570 0.42553 0.75949
 C442 C 0.10506 0.42073 0.72677
 C443 C 0.10085 0.44430 0.70122
 C444 C 0.07722 0.47175 0.70780
 H445 H 0.00981 0.44699 0.69877
 H446 H -0.00586 0.38944 0.70147
 H447 H -0.06172 0.41323 0.80256
 H448 H -0.04492 0.47076 0.80030
 H449 H -0.04829 0.50890 0.70046
 H450 H -0.08598 0.55942 0.69575
 H451 H -0.01945 0.54758 0.79961
 H452 H 0.06869 0.53768 0.78541
 H453 H 0.09015 0.59223 0.77594
 H454 H 0.03728 0.59911 0.68167
 H455 H 0.01588 0.54433 0.69154
 H456 H 0.04619 0.45579 0.79087
 H457 H 0.08825 0.40758 0.77954
 H458 H 0.11561 0.44120 0.67592
 H459 H 0.07385 0.48917 0.68732
 H460 H -0.05795 0.59789 0.79538
 N461 N 0.39155 0.34287 0.11145
 N462 N 0.36495 0.34233 0.13512
 C463 C 0.36647 0.31172 0.14803
 C464 C 0.39481 0.29351 0.13159
 N465 N 0.40991 0.31381 0.10886
 H466 H 0.40304 0.26787 0.13559
 N467 N 0.57022 0.82744 0.10978
 N468 N 0.59674 0.82931 0.12867
 C469 C 0.61150 0.79809 0.12929
 C470 C 0.59313 0.77690 0.11033
 N471 N 0.56749 0.79622 0.09874
 H472 H 0.59771 0.75019 0.10564
 N473 N 0.61701 0.25805 -0.17431
 N474 N 0.64427 0.25556 -0.19725
 C475 C 0.67075 0.26447 -0.17978
 C476 C 0.65885 0.27267 -0.14519
 N477 N 0.62510 0.26814 -0.14288
 H478 H 0.67355 0.27929 -0.12363
 N479 N 0.36608 0.69160 -0.12645
 N480 N 0.34136 0.69221 -0.14785
 C481 C 0.33174 0.72454 -0.15172
 C482 C 0.35125 0.74385 -0.13191
 N483 N 0.37237 0.72229 -0.11648
 H484 H 0.35031 0.77077 -0.12924
 N485 N 0.06056 0.34393 0.26465
 N486 N 0.08604 0.32126 0.26799
 C487 C 0.11484 0.33752 0.26744
 C488 C 0.10625 0.37099 0.26387
 N489 N 0.07214 0.37390 0.26224
 H490 H 0.12307 0.39109 0.26213
 N491 N 0.07039 0.65128 0.69600
 N492 N 0.08977 0.67687 0.69387
 C493 C 0.11271 0.67265 0.71783
 C494 C 0.10672 0.64385 0.73479
 N495 N 0.08010 0.63114 0.72043
 H496 H 0.12125 0.63274 0.75462
 N497 N -0.16222 0.58476 0.17829
 N498 N -0.18564 0.60945 0.17489
 C499 C -0.18647 0.62983 0.20392
 C500 C -0.16294 0.61674 0.22544
 N501 N -0.14841 0.58864 0.20843
 H502 H -0.15693 0.62654 0.25081
 N503 N -0.02451 0.33770 0.73617
 N504 N -0.03928 0.30948 0.74045
 C505 C -0.06834 0.31696 0.76148
 C506 C -0.07083 0.35073 0.77028
 N507 N -0.04301 0.36276 0.75373
 H508 H -0.09158 0.36528 0.78553
 N509 N 0.31597 0.08461 0.34158
 N510 N 0.31536 0.10759 0.31786
 C511 C 0.28573 0.12652 0.32499
 C512 C 0.26803 0.11429 0.35384
 N513 N 0.28786 0.08810 0.36349
 H514 H 0.24413 0.12458 0.36750
 N515 N 0.86498 0.06729 0.61847
 N516 N 0.87026 0.08862 0.64448
 C517 C 0.84117 0.10846 0.65116
 C518 C 0.81800 0.09880 0.62850
 N519 N 0.83380 0.07310 0.60838
 H520 H 0.79205 0.10922 0.62720
 N521 N 0.24272 -0.05293 0.65956
 N522 N 0.24075 -0.07374 0.68552
 C523 C 0.23317 -0.10322 0.67129
 C524 C 0.23065 -0.09993 0.63590
 N525 N 0.23687 -0.06824 0.62954
 H526 H 0.22524 -0.11885 0.61662
 N527 N 0.68523 -0.11741 0.39842
 N528 N 0.68147 -0.13504 0.36920
 C529 C 0.71232 -0.15052 0.35853
 C530 C 0.73526 -0.14176 0.38192
 N531 N 0.71733 -0.12090 0.40641
 H532 H 0.76245 -0.14871 0.38040
 N533 N 0.63588 0.71192 -0.05950
 N534 N 0.66717 0.71534 -0.07389
 C535 C 0.66551 0.74355 -0.09155
 C536 C 0.63224 0.75731 -0.08766
 N537 N 0.61440 0.73675 -0.06751
 H538 H 0.62222 0.77983 -0.09879
 N539 N 0.37326 0.32142 -0.08683
 N540 N 0.34759 0.31613 -0.10610
 C541 C 0.35229 0.28419 -0.11871
 C542 C 0.38157 0.26990 -0.10638
 N543 N 0.39382 0.29397 -0.08655
 H544 H 0.39337 0.24493 -0.11213
 N545 N 0.31325 0.70826 0.07749
 N546 N 0.28634 0.70685 0.10050
 C547 C 0.28864 0.73067 0.12582
 C548 C 0.31778 0.74686 0.11761
 N549 N 0.33250 0.73212 0.08717
 H550 H 0.32772 0.76659 0.13291
 N551 N 0.65467 0.19416 0.06375
 N552 N 0.67753 0.18514 0.08564
 C553 C 0.68310 0.21276 0.10475
 C554 C 0.66285 0.23911 0.09392
 N555 N 0.64524 0.22642 0.06831
 H556 H 0.66011 0.26443 0.10496
 N557 N -0.09403 0.62673 0.70886
 N558 N -0.11168 0.65608 0.71205
 C559 C -0.12251 0.66137 0.74638
 C560 C -0.11084 0.63441 0.76428
 N561 N -0.09320 0.61336 0.73984
 H562 H -0.11477 0.63040 0.79211
 N563 N -0.10555 0.34389 0.30244
 N564 N -0.12238 0.31659 0.30198
 C565 C -0.14338 0.31933 0.27606
 C566 C -0.13892 0.34922 0.26057
 N567 N -0.11496 0.36388 0.27778
 H568 H -0.15190 0.35907 0.23900
 N569 N 0.13593 0.37871 0.68604
 N570 N 0.15709 0.35167 0.68622
 C571 C 0.16257 0.34716 0.72004
 C572 C 0.14405 0.37220 0.74073
 N573 N 0.12775 0.39140 0.71845
 H574 H 0.14300 0.37630 0.76897
 N575 N 0.01387 0.64510 0.28957
 N576 N 0.03170 0.67178 0.28990
 C577 C 0.06113 0.66359 0.26979
 C578 C 0.06080 0.63104 0.25702
 N579 N 0.03079 0.62031 0.26998
 H580 H 0.08079 0.61656 0.24065
 N581 N 0.72557 -0.06174 0.67997
 N582 N 0.72577 -0.07834 0.70920
 C583 C 0.74860 -0.10483 0.70218
 C584 C 0.76235 -0.10397 0.66799
 N585 N 0.74730 -0.07678 0.65481
 H586 H 0.78125 -0.12174 0.65421
 N587 N 0.15386 -0.08119 0.38973
 N588 N 0.14555 -0.10364 0.36629
 C589 C 0.17505 -0.11870 0.35094
 C590 C 0.20186 -0.10468 0.36569
 N591 N 0.18752 -0.08133 0.38995
 H592 H 0.22887 -0.11198 0.36043
 N593 N 0.73152 0.04230 0.35004
 N594 N 0.73116 0.06134 0.32264
 C595 C 0.75471 0.08358 0.32670
 C596 C 0.76966 0.07754 0.35735
 N597 N 0.75448 0.05156 0.37115
 H598 H 0.78867 0.09146 0.36909
 N599 N 0.33785 0.07303 0.63296
 N600 N 0.33885 0.09358 0.66093
 C601 C 0.31755 0.12048 0.65637
 C602 C 0.30361 0.11577 0.62493
 N603 N 0.31683 0.08594 0.61090
 H604 H 0.28466 0.13218 0.61417
   
