data_POSCAR
  _audit_creation_date              2014-09-24
  _audit_creation_method            'ToBaCCo'
  _symmetry_space_group_name_H-M    'P1'
  _symmetry_Int_Tables_number       1
  _symmetry_cell_setting            triclinic
  loop_
  _symmetry_equiv_pos_as_xyz
 x,y,z
_cell_length_a 33.6970
_cell_length_b 33.9281
_cell_length_c 32.4805
_cell_angle_alpha 88.918500
_cell_angle_beta 88.979700
_cell_angle_gamma 91.981000
loop_
  _atom_site_label
  _atom_site_type_symbol
  _atom_site_fract_x
  _atom_site_fract_y
  _atom_site_fract_z
N1 N 0.17037 1.26069 0.19768
 N2 N 0.14798 1.24596 0.22817
 C3 C 0.12096 1.27252 0.23876
 C4 C 0.12646 1.30537 0.21309
 C5 C 0.15822 1.29691 0.18754
 H6 H 0.09791 1.26760 0.26205
 H7 H 0.17078 1.31513 0.16258
 Cu8 Cu 0.15397 1.19195 0.24776
 Cu9 Cu 0.21137 1.23051 0.17112
 Cu10 Cu 0.22970 1.13850 0.21368
 N11 N 0.16117 1.13834 0.26776
 N12 N 0.19126 1.11788 0.25488
 C13 C 0.18898 1.08177 0.27285
 C14 C 0.15552 1.07945 0.29818
 C15 C 0.13860 1.11588 0.29428
 H16 H 0.20965 1.05873 0.26717
 H17 H 0.11168 1.12514 0.30927
 N18 N 0.26450 1.16465 0.17122
 N19 N 0.25737 1.19962 0.15498
 C20 C 0.28518 1.20875 0.12579
 C21 C 0.31074 1.17792 0.12322
 C22 C 0.29686 1.15046 0.15243
 H23 H 0.28609 1.23534 0.10689
 H24 H 0.30882 1.12183 0.15863
 H25 H 0.18986 1.17331 0.18551
 H26 H 0.22255 1.19813 0.22372
 N27 N 0.76632 0.73120 0.14285
 N28 N 0.78864 0.73298 0.17559
 C29 C 0.81030 0.70027 0.17763
 C30 C 0.80018 0.67678 0.14477
 C31 C 0.77223 0.69724 0.12346
 H32 H 0.83163 0.69393 0.20113
 H33 H 0.75840 0.68880 0.09500
 Cu34 Cu 0.78612 0.77808 0.21188
 Cu35 Cu 0.73518 0.77491 0.12448
 Cu36 Cu 0.71355 0.84297 0.19894
 N37 N 0.78172 0.82395 0.24673
 N38 N 0.75290 0.84872 0.24183
 C39 C 0.75531 0.87638 0.27089
 C40 C 0.78751 0.86869 0.29527
 C41 C 0.80367 0.83522 0.27903
 H42 H 0.73505 0.90023 0.27391
 H43 H 0.82913 0.81999 0.29019
 N44 N 0.68630 0.84071 0.14568
 N45 N 0.69476 0.81449 0.11764
 C46 C 0.67183 0.81997 0.08477
 C47 C 0.64810 0.85147 0.09208
 C48 C 0.65802 0.86415 0.13095
 H49 H 0.67273 0.80256 0.05726
 H50 H 0.64565 0.88855 0.14719
 H51 H 0.75577 0.82129 0.16151
 H52 H 0.71949 0.78362 0.18406
 N53 N 0.89497 1.26356 -0.13897
 N54 N 0.92673 1.25335 -0.15967
 C55 C 0.95658 1.27974 -0.15332
 C56 C 0.94285 1.30779 -0.12681
 C57 C 0.90365 1.29664 -0.11818
 H58 H 0.98615 1.27832 -0.16658
 H59 H 0.88309 1.31138 -0.09825
 Cu60 Cu 0.92606 1.20635 -0.19253
 Cu61 Cu 0.84568 1.23189 -0.14006
 Cu62 Cu 0.84246 1.15137 -0.20496
 N63 N 0.92010 1.17126 -0.23841
 N64 N 0.88783 1.14904 -0.24322
 C65 C 0.89245 1.12730 -0.27723
 C66 C 0.92944 1.13710 -0.29476
 C67 C 0.94601 1.16511 -0.26930
 H68 H 0.87039 1.10649 -0.28858
 H69 H 0.97483 1.17994 -0.27270
 N70 N 0.79572 1.16849 -0.17285
 N71 N 0.79670 1.20043 -0.15014
 C72 C 0.76000 1.20643 -0.13523
 C73 C 0.73484 1.17660 -0.14846
 C74 C 0.75832 1.15283 -0.17211
 H75 H 0.75208 1.23051 -0.11571
 H76 H 0.74862 1.12689 -0.18852
 H77 H 0.86741 1.17780 -0.15472
 H78 H 0.85494 1.21039 -0.19891
 N79 N 0.19420 0.75686 -0.12531
 N80 N 0.16676 0.73850 -0.14676
 C81 C 0.14789 0.71085 -0.12262
 C82 C 0.16460 0.71188 -0.08405
 C83 C 0.19393 0.74135 -0.08684
 H84 H 0.12370 0.69161 -0.13232
 H85 H 0.21345 0.75096 -0.06266
 Cu86 Cu 0.15754 0.75314 -0.20375
 Cu87 Cu 0.22817 0.79946 -0.14888
 Cu88 Cu 0.21224 0.82572 -0.25085
 N89 N 0.13943 0.77940 -0.25332
 N90 N 0.16088 0.80804 -0.27143
 C91 C 0.14132 0.82182 -0.30412
 C92 C 0.10549 0.80080 -0.30648
 C93 C 0.10533 0.77395 -0.27383
 H94 H 0.15216 0.84582 -0.32413
 H95 H 0.08189 0.75272 -0.26497
 N96 N 0.25420 0.85070 -0.21782
 N97 N 0.25954 0.84144 -0.17869
 C98 C 0.28887 0.86493 -0.16414
 C99 C 0.30257 0.89013 -0.19556
 C100 C 0.28001 0.88032 -0.22921
 H101 H 0.29936 0.86403 -0.13290
 H102 H 0.28160 0.89430 -0.25941
 H103 H 0.18844 0.81770 -0.19285
 H104 H 0.22586 0.78135 -0.20835
 C105 C 0.54025 1.11365 -0.06168
 H106 H 0.52019 1.12486 -0.03883
 C107 C 0.57135 1.13811 -0.07684
 H108 H 0.57426 1.16771 -0.06526
 C109 C 0.56240 1.06070 -0.10151
 H110 H 0.55899 1.03022 -0.11041
 C111 C 0.59427 1.08427 -0.11745
 H112 H 0.61499 1.07182 -0.13903
 N113 N 0.53590 1.07584 -0.07446
 C114 C 0.45734 1.06830 0.02513
 H115 H 0.47223 1.04440 0.04012
 C116 C 0.43290 1.09252 0.04819
 H117 H 0.42933 1.08733 0.08106
 C118 C 0.44316 1.10398 -0.03601
 H119 H 0.44703 1.10791 -0.06899
 C120 C 0.41915 1.12914 -0.01419
 H121 H 0.40431 1.15219 -0.03075
 Zn122 Zn 0.49390 1.04373 -0.05056
 N123 N 0.46225 1.07477 -0.01615
 C124 C 0.54376 1.00878 0.00847
 N125 N 0.51656 1.00147 -0.02117
 C126 C 0.50744 0.96400 -0.03279
 C127 C 0.52630 0.93221 -0.01507
 C128 C 0.56364 0.97763 0.02694
 C129 C 0.46640 1.02476 -0.13184
 C130 C 0.44001 1.00611 -0.15874
 C131 C 0.39881 0.98546 -0.10008
 C132 C 0.42575 1.00444 -0.07451
 N133 N 0.45921 1.02280 -0.09049
 H134 H 0.55090 1.03889 0.01681
 H135 H 0.48638 0.95854 -0.05680
 H136 H 0.51835 0.90283 -0.02515
 H137 H 0.58612 0.98410 0.04945
 H138 H 0.49285 1.04004 -0.14399
 H139 H 0.44678 1.00693 -0.19143
 H140 H 0.37268 0.97075 -0.08637
 H141 H 0.42055 1.00377 -0.04154
 C142 C 0.41389 1.12369 0.02846
 C143 C 0.59888 1.12365 -0.10521
 C144 C 0.40604 0.98552 -0.14276
 C145 C 0.55552 0.93876 0.01448
 C146 C -0.03607 0.56015 1.11274
 H147 H -0.00843 0.56623 1.12824
 C148 C -0.07044 0.57912 1.12489
 H149 H -0.06895 0.59945 1.15012
 C150 C -0.07102 0.52683 1.06042
 H151 H -0.07099 0.50740 1.03449
 C152 C -0.10595 0.54514 1.07144
 H153 H -0.13212 0.53911 1.05356
 N154 N -0.03700 0.53442 1.08113
 C155 C 0.06542 0.46056 1.09525
 H156 H 0.07888 0.46494 1.06495
 C157 C 0.08031 0.43262 1.12241
 H158 H 0.10546 0.41613 1.11239
 C159 C 0.01474 0.47558 1.14327
 H160 H -0.01153 0.49152 1.15080
 C161 C 0.02874 0.44797 1.17151
 H162 H 0.01327 0.44398 1.20078
 Zn163 Zn 0.01087 0.51178 1.06345
 N164 N 0.03292 0.48097 1.10579
 C165 C 0.08286 0.55897 1.06163
 N166 N 0.04615 0.55338 1.04553
 C167 C 0.03311 0.57746 1.01510
 C168 C 0.05793 0.60756 0.99830
 C169 C 0.10862 0.58902 1.04593
 C170 C -0.02334 0.44501 1.02675
 C171 C -0.02955 0.41710 0.99626
 C172 C 0.01615 0.45488 0.95157
 C173 C 0.02119 0.48224 0.98276
 N174 N 0.00143 0.47698 1.01944
 H175 H 0.09241 0.53988 1.08626
 H176 H 0.00356 0.57262 1.00326
 H177 H 0.04703 0.62605 0.97377
 H178 H 0.13806 0.59238 1.05844
 H179 H -0.03797 0.44104 1.05654
 H180 H -0.04902 0.39166 1.00291
 H181 H 0.03215 0.45970 0.92264
 H182 H 0.04164 0.50716 0.97784
 C183 C 0.06140 0.42522 1.16088
 C184 C -0.10605 0.57187 1.10398
 C185 C -0.00936 0.42170 0.95820
 C186 C 0.09640 0.61341 1.01343
 C187 C 1.02597 -0.07510 0.55116
 H188 H 1.03873 -0.04547 0.54797
 C189 C 1.04104 -0.10124 0.57997
 H190 H 1.06529 -0.09115 0.59890
 C191 C 0.97765 -0.12302 0.53110
 H192 H 0.95265 -0.13107 0.51223
 C193 C 0.99176 -0.15023 0.55981
 H194 H 0.97772 -0.17936 0.56230
 N195 N 0.99502 -0.08632 0.52733
 C196 C 1.00728 -0.00424 0.42313
 H197 H 0.97823 0.00839 0.42378
 C198 C 1.03575 0.00915 0.39396
 H199 H 1.02819 0.03194 0.37200
 C200 C 1.05204 -0.04954 0.45101
 H201 H 1.05825 -0.07253 0.47318
 C202 C 1.08132 -0.03724 0.42214
 H203 H 1.11003 -0.05053 0.42300
 Zn204 Zn 0.97666 -0.04651 0.49185
 N205 N 1.01617 -0.03232 0.45158
 C206 C 0.98764 0.03183 0.51905
 N207 N 0.96661 -0.00273 0.52547
 C208 C 0.94154 -0.00806 0.55857
 C209 C 0.93760 0.02179 0.58733
 C210 C 0.98454 0.06236 0.54688
 C211 C 0.93487 -0.09148 0.43487
 C212 C 0.90376 -0.10090 0.40856
 C213 C 0.86425 -0.05271 0.44255
 C214 C 0.89621 -0.04405 0.46803
 N215 N 0.93079 -0.06308 0.46344
 H216 H 1.00811 0.03539 0.49324
 H217 H 0.92575 -0.03612 0.56342
 H218 H 0.91861 0.01642 0.61420
 H219 H 1.00195 0.08936 0.54116
 H220 H 0.96296 -0.10570 0.43145
 H221 H 0.90841 -0.12264 0.38521
 H222 H 0.83729 -0.03682 0.44679
 H223 H 0.89375 -0.02115 0.49049
 C224 C 1.07354 -0.00705 0.39358
 C225 C 1.02387 -0.13938 0.58477
 C226 C 0.86804 -0.08081 0.41156
 C227 C 0.96004 0.05725 0.58210
 N228 N 0.05316 0.37818 1.22156
 N229 N 0.07130 0.34430 1.23577
 C230 C 0.10286 0.33840 1.21095
 C231 C 0.10596 0.36826 1.18117
 C232 C 0.07400 0.39237 1.18825
 H233 H 0.12763 0.37067 1.15624
 H234 H 0.02663 0.38832 1.23372
 H235 H 0.06059 0.32632 1.26024
 N236 N -0.17888 0.58444 1.09967
 N237 N -0.20332 0.61220 1.11034
 C238 C -0.18336 0.63915 1.13255
 C239 C -0.14441 0.62810 1.13638
 C240 C -0.14249 0.59336 1.11441
 H241 H -0.12038 0.64481 1.15022
 H242 H -0.18729 0.56042 1.08183
 H243 H -0.23297 0.61303 1.10162
 N244 N 0.01415 0.38432 0.89718
 N245 N 0.00173 0.35416 0.87511
 C246 C -0.03436 0.34163 0.88941
 C247 C -0.04543 0.36471 0.92208
 C248 C -0.01371 0.39146 0.92618
 H249 H -0.07245 0.36197 0.94055
 H250 H 0.04179 0.39883 0.89294
 H251 H 0.01799 0.34233 0.85093
 N252 N 0.15494 0.66128 1.01382
 N253 N 0.17275 0.68725 0.98818
 C254 C 0.15334 0.68714 0.95229
 C255 C 0.12170 0.66009 0.95524
 C256 C 0.12367 0.64425 0.99481
 H257 H 0.10058 0.65269 0.93166
 H258 H 0.16399 0.65589 1.04392
 H259 H 0.19782 0.70457 0.99532
 N260 N 1.13639 -0.01213 0.35175
 N261 N 1.15930 0.01234 0.32495
 C262 C 1.14131 0.04711 0.32197
 C263 C 1.10694 0.04561 0.34617
 C264 C 1.10482 0.00818 0.36428
 H265 H 1.08638 0.06903 0.35058
 H266 H 1.14291 -0.04115 0.35959
 H267 H 1.18566 0.00441 0.31043
 N268 N 1.01774 -0.19760 0.63370
 N269 N 1.04065 -0.21401 0.66461
 C270 C 1.07536 -0.19311 0.66534
 C271 C 1.07554 -0.16359 0.63524
 C272 C 1.03892 -0.16695 0.61638
 H273 H 1.09905 -0.14175 0.62869
 H274 H 0.98857 -0.20661 0.62745
 H275 H 1.03137 -0.23756 0.68402
 N276 N 0.80524 -0.06348 0.37591
 N277 N 0.78314 -0.07747 0.34303
 C278 C 0.80065 -0.10978 0.32897
 C279 C 0.83374 -0.11725 0.35239
 C280 C 0.83588 -0.08754 0.38139
 H281 H 0.85401 -0.14093 0.34819
 H282 H 0.79933 -0.03765 0.39145
 H283 H 0.75806 -0.06415 0.33152
 N284 N 0.99100 0.11364 0.61958
 N285 N 0.98263 0.13538 0.65439
 C286 C 0.94701 0.12243 0.66967
 C287 C 0.93191 0.09244 0.64522
 C288 C 0.96041 0.08767 0.61427
 H289 H 0.90417 0.07578 0.64984
 H290 H 1.01764 0.11616 0.60271
 H291 H 1.00153 0.15733 0.66604
 N292 N 0.38167 1.18787 0.04004
 N293 N 0.35463 1.20214 0.06503
 C294 C 0.34330 1.17396 0.09297
 C295 C 0.36443 1.14034 0.08578
 C296 C 0.38820 1.15029 0.05159
 H297 H 0.36121 1.11200 0.10156
 H298 H 0.39497 1.20370 0.01528
 H299 H 0.34364 1.23044 0.06219
 N300 N 0.63383 1.18917 -0.11782
 N301 N 0.66962 1.20288 -0.12886
 C302 C 0.69207 1.17241 -0.13904
 C303 C 0.66952 1.13757 -0.13456
 C304 C 0.63273 1.14948 -0.12028
 H305 H 0.67945 1.10782 -0.13812
 H306 H 0.61097 1.20706 -0.10824
 H307 H 0.67857 1.23266 -0.12866
 N308 N 0.37482 0.96968 -0.21064
 N309 N 0.34749 0.94457 -0.22449
 C310 C 0.33358 0.92156 -0.19281
 C311 C 0.35275 0.93251 -0.15736
 C312 C 0.37866 0.96326 -0.16980
 H313 H 0.34848 0.91963 -0.12682
 H314 H 0.38995 0.99111 -0.22896
 H315 H 0.33860 0.94343 -0.25509
 N316 N 0.58287 0.87148 0.00917
 N317 N 0.60721 0.84883 0.02939
 C318 C 0.61915 0.86752 0.06342
 C319 C 0.60159 0.90386 0.06503
 C320 C 0.57873 0.90531 0.02979
 H321 H 0.60568 0.92628 0.08797
 H322 H 0.57061 0.86405 -0.01904
 H323 H 0.61576 0.82122 0.01950
   
