data_POSCAR
  _audit_creation_date              2014-09-24
  _audit_creation_method            'ToBaCCo'
  _symmetry_space_group_name_H-M    'P1'
  _symmetry_Int_Tables_number       1
  _symmetry_cell_setting            triclinic
  loop_
  _symmetry_equiv_pos_as_xyz
 x,y,z
_cell_length_a 56.2172
_cell_length_b 33.8418
_cell_length_c 18.8422
_cell_angle_alpha 90.263200
_cell_angle_beta 89.911800
_cell_angle_gamma 90.102200
loop_
  _atom_site_label
  _atom_site_type_symbol
  _atom_site_fract_x
  _atom_site_fract_y
  _atom_site_fract_z
C1 C 0.75576 0.26651 0.46805
 C2 C 0.75527 0.26310 0.54001
 C3 C 0.73608 0.28156 0.58247
 C4 C 0.77379 0.24141 0.57968
 C5 C 0.77556 0.25038 0.42408
 C6 C 0.73573 0.28534 0.42996
 C7 C 0.73443 0.32264 0.58791
 C8 C 0.71592 0.34007 0.62634
 C9 C 0.69812 0.31681 0.65973
 C10 C 0.70033 0.27514 0.65367
 C11 C 0.71917 0.25794 0.61633
 C12 C 0.78774 0.26157 0.62974
 C13 C 0.80639 0.24227 0.66392
 C14 C 0.81111 0.20228 0.64953
 C15 C 0.79654 0.18170 0.60135
 C16 C 0.77803 0.20117 0.56650
 C17 C 0.77036 0.22636 0.36525
 C18 C 0.78864 0.20890 0.32597
 C19 C 0.81261 0.21475 0.34497
 C20 C 0.81780 0.24024 0.40214
 C21 C 0.79947 0.25831 0.44058
 C22 C 0.71301 0.26818 0.43109
 C23 C 0.69408 0.28627 0.39608
 C24 C 0.69751 0.32196 0.35938
 C25 C 0.72042 0.33885 0.35805
 C26 C 0.73939 0.32052 0.39263
 H27 H 0.74737 0.34127 0.56153
 H28 H 0.71510 0.37196 0.62536
 H29 H 0.68834 0.25516 0.68050
 H30 H 0.72041 0.22604 0.61309
 H31 H 0.78463 0.29257 0.64076
 H32 H 0.81720 0.25861 0.70150
 H33 H 0.76727 0.18510 0.52843
 H34 H 0.75209 0.22031 0.35063
 H35 H 0.78395 0.19046 0.28103
 H36 H 0.83598 0.24540 0.41862
 H37 H 0.80399 0.27781 0.48424
 H38 H 0.71000 0.24067 0.45889
 H39 H 0.67684 0.27200 0.39697
 H40 H 0.72364 0.36654 0.33114
 H41 H 0.75684 0.33411 0.39137
 H42 H 0.79988 0.15089 0.58928
 C43 C 0.24512 0.73672 0.46532
 C44 C 0.24564 0.73549 0.53744
 C45 C 0.22605 0.75234 0.58039
 C46 C 0.26568 0.71707 0.57594
 C47 C 0.26350 0.71678 0.42171
 C48 C 0.22604 0.75790 0.42715
 C49 C 0.23018 0.78536 0.62379
 C50 C 0.21132 0.80341 0.65980
 C51 C 0.18805 0.78835 0.65372
 C52 C 0.18424 0.75425 0.61217
 C53 C 0.20306 0.73651 0.57567
 C54 C 0.28890 0.73150 0.56770
 C55 C 0.30796 0.71234 0.60007
 C56 C 0.30417 0.67826 0.64117
 C57 C 0.28074 0.66457 0.65080
 C58 C 0.26165 0.68399 0.61882
 C59 C 0.26696 0.67583 0.42657
 C60 C 0.28519 0.65755 0.38821
 C61 C 0.30027 0.67997 0.34447
 C62 C 0.29641 0.72084 0.33852
 C63 C 0.27804 0.73904 0.37645
 C64 C 0.20993 0.73670 0.38490
 C65 C 0.19104 0.75612 0.35199
 C66 C 0.18826 0.79717 0.35980
 C67 C 0.20483 0.81851 0.40056
 C68 C 0.22352 0.79898 0.43429
 H69 H 0.24786 0.79794 0.62774
 H70 H 0.21486 0.82986 0.69053
 H71 H 0.16668 0.74134 0.60754
 H72 H 0.19967 0.71072 0.54293
 H73 H 0.29226 0.75735 0.53547
 H74 H 0.32569 0.72422 0.59285
 H75 H 0.24381 0.67244 0.62555
 H76 H 0.25573 0.65817 0.46082
 H77 H 0.28788 0.62605 0.39405
 H78 H 0.30761 0.73868 0.30452
 H79 H 0.27553 0.77066 0.37192
 H80 H 0.21168 0.70499 0.37884
 H81 H 0.17861 0.73911 0.32028
 H82 H 0.20297 0.85014 0.40759
 H83 H 0.23592 0.81576 0.46650
 H84 H 0.27719 0.63821 0.68139
 C85 C 0.25369 0.23761 -0.46464
 C86 C 0.25235 0.24409 -0.53604
 C87 C 0.26986 0.26915 -0.57497
 C88 C 0.23351 0.22447 -0.57863
 C89 C 0.23411 0.21708 -0.42658
 C90 C 0.27421 0.25119 -0.42115
 C91 C 0.27724 0.30594 -0.54805
 C92 C 0.29549 0.32707 -0.58116
 C93 C 0.30608 0.31300 -0.64438
 C94 C 0.29722 0.27751 -0.67398
 C95 C 0.27957 0.25576 -0.63933
 C96 C 0.21608 0.24689 -0.61266
 C97 C 0.19743 0.22825 -0.64871
 C98 C 0.19604 0.18655 -0.65294
 C99 C 0.21427 0.16445 -0.62018
 C100 C 0.23264 0.18320 -0.58330
 C101 C 0.23865 0.18261 -0.38826
 C102 C 0.22014 0.16264 -0.35402
 C103 C 0.19648 0.17682 -0.35678
 C104 C 0.19237 0.21223 -0.39448
 C105 C 0.21092 0.23203 -0.42854
 C106 C 0.29772 0.24313 -0.44191
 C107 C 0.31681 0.25926 -0.40413
 C108 C 0.31280 0.28291 -0.34366
 C109 C 0.28924 0.28886 -0.32066
 C110 C 0.27018 0.27323 -0.35908
 H111 H 0.26924 0.31797 -0.50034
 H112 H 0.30074 0.35505 -0.55794
 H113 H 0.30492 0.26486 -0.72157
 H114 H 0.27408 0.22767 -0.66174
 H115 H 0.21667 0.27886 -0.61003
 H116 H 0.18457 0.24686 -0.67502
 H117 H 0.24602 0.16546 -0.55721
 H118 H 0.25649 0.17061 -0.38630
 H119 H 0.22452 0.13514 -0.32824
 H120 H 0.17504 0.22598 -0.39585
 H121 H 0.20720 0.25928 -0.45630
 H122 H 0.30127 0.22539 -0.48872
 H123 H 0.33467 0.25418 -0.42367
 H124 H 0.28550 0.30594 -0.27325
 H125 H 0.25220 0.27931 -0.34142
 H126 H 0.21389 0.13251 -0.61937
 C127 C -0.25517 0.76111 -0.46793
 C128 C -0.25622 0.76653 -0.53975
 C129 C -0.23837 0.79056 -0.57928
 C130 C -0.27529 0.74757 -0.58253
 C131 C -0.27501 0.74174 -0.42879
 C132 C -0.23475 0.77533 -0.42443
 C133 C -0.23091 0.82771 -0.55429
 C134 C -0.21255 0.84805 -0.58833
 C135 C -0.20196 0.83280 -0.65065
 C136 C -0.21094 0.79699 -0.67855
 C137 C -0.22867 0.77600 -0.64284
 C138 C -0.29102 0.77081 -0.62180
 C139 C -0.30972 0.75331 -0.65934
 C140 C -0.31287 0.71183 -0.65988
 C141 C -0.29634 0.68873 -0.62173
 C142 C -0.27790 0.70642 -0.58344
 C143 C -0.27034 0.71081 -0.38180
 C144 C -0.28883 0.69272 -0.34432
 C145 C -0.31273 0.70497 -0.35290
 C146 C -0.31703 0.73661 -0.40008
 C147 C -0.29845 0.75498 -0.43642
 C148 C -0.21113 0.76688 -0.44364
 C149 C -0.19221 0.78309 -0.40509
 C150 C -0.19652 0.80716 -0.34531
 C151 C -0.22021 0.81359 -0.32401
 C152 C -0.23907 0.79800 -0.36327
 H153 H -0.23894 0.84065 -0.50740
 H154 H -0.20716 0.87633 -0.56656
 H155 H -0.20325 0.78354 -0.72546
 H156 H -0.23428 0.74764 -0.66384
 H157 H -0.28905 0.80266 -0.62233
 H158 H -0.32115 0.77252 -0.68972
 H159 H -0.26580 0.68801 -0.55356
 H160 H -0.25227 0.70067 -0.37395
 H161 H -0.28390 0.67012 -0.30687
 H162 H -0.33479 0.74681 -0.41174
 H163 H -0.30245 0.77950 -0.47112
 H164 H -0.20735 0.74865 -0.48967
 H165 H -0.17425 0.77764 -0.42341
 H166 H -0.22422 0.83099 -0.27718
 H167 H -0.25712 0.80442 -0.34672
 H168 H -0.29816 0.65699 -0.61802
 O169 O 0.03051 0.92275 -0.12103
 O170 O 0.05781 0.95714 -0.05477
 C171 C 0.05219 0.93115 -0.10274
 O172 O -0.03044 1.06977 -0.12945
 O173 O -0.05815 1.03607 -0.06383
 C174 C -0.05224 1.06180 -0.11149
 O175 O 0.03608 1.05881 -0.13335
 O176 O 0.06057 1.02299 -0.06089
 C177 C 0.05700 1.04726 -0.11283
 O178 O -0.03618 0.92496 -0.11378
 O179 O -0.06095 0.96788 -0.05518
 C180 C -0.05719 0.93823 -0.09748
 Zr181 Zr -0.00206 0.94538 -0.08214
 O182 O -0.00469 0.94093 -0.19394
 O183 O -0.00145 0.88301 -0.07403
 Zr184 Zr 0.00183 1.04476 -0.09304
 O185 O -0.00060 1.04005 -0.20492
 O186 O 0.00688 1.10658 -0.10099
 O187 O 0.02112 0.99247 -0.10077
 O188 O -0.02072 0.99665 -0.10140
 O189 O -0.03642 0.93499 0.13411
 O190 O -0.06097 0.97159 0.06285
 C191 C -0.05729 0.94626 0.11296
 O192 O 0.03495 1.06880 0.12483
 O193 O 0.05985 1.02787 0.06224
 C194 C 0.05597 1.05571 0.10828
 O195 O -0.03168 1.07794 0.11625
 O196 O -0.05871 1.04008 0.05518
 C197 C -0.05332 1.06844 0.09869
 O198 O 0.03019 0.93118 0.13912
 O199 O 0.05780 0.96206 0.06878
 C200 C 0.05199 0.93856 0.12018
 Zr201 Zr -0.00236 0.95192 0.09670
 O202 O -0.00492 0.95604 0.20861
 O203 O -0.00228 0.88943 0.10192
 Zr204 Zr 0.00111 1.05145 0.08579
 O205 O -0.00180 1.05582 0.19758
 O206 O 0.00593 1.11336 0.07801
 Zr207 Zr 0.03504 0.99487 0.00306
 Zr208 Zr -0.03576 1.00175 0.00053
 O209 O -0.02127 1.00412 0.10344
 O210 O 0.02054 1.00017 0.10593
 O211 O -0.02370 0.94295 0.00757
 O212 O 0.02239 1.05325 -0.00364
 O213 O 0.01820 0.93939 0.00857
 O214 O -0.01948 1.05785 -0.00525
 H215 H -0.03137 0.99616 -0.14326
 H216 H 0.03394 1.07535 -0.00583
 H217 H -0.03203 1.00676 0.14489
 H218 H 0.02814 0.91529 0.01109
 H219 H -0.00532 1.11939 -0.07088
 H220 H -0.00740 1.12396 0.04974
 H221 H 0.01078 1.03906 0.21826
 H222 H 0.00882 0.97176 0.22547
 H223 H -0.01654 0.87977 0.07644
 H224 H -0.01533 0.87501 -0.04512
 H225 H 0.00832 0.95698 -0.21437
 H226 H 0.01295 1.02383 -0.22153
 O227 O 0.46811 0.43368 0.13940
 O228 O 0.44142 0.46174 0.06263
 C229 C 0.44661 0.44005 0.11686
 O230 O 0.52958 0.57968 0.11451
 O231 O 0.55739 0.54160 0.05726
 C232 C 0.55143 0.57044 0.09906
 O233 O 0.46282 0.56867 0.11791
 O234 O 0.43879 0.52681 0.05415
 C235 C 0.44205 0.55495 0.10004
 O236 O 0.53533 0.43602 0.13449
 O237 O 0.56020 0.47346 0.06538
 C238 C 0.55638 0.44761 0.11462
 Zr239 Zr 0.50119 0.45276 0.09666
 O240 O 0.50330 0.45705 0.20855
 O241 O 0.50062 0.39033 0.10349
 Zr242 Zr 0.49730 0.55217 0.08267
 O243 O 0.49915 0.55718 0.19458
 O244 O 0.49219 0.61392 0.07398
 O245 O 0.47801 0.50074 0.10239
 O246 O 0.51976 0.50534 0.10353
 O247 O 0.53703 0.42452 -0.11075
 O248 O 0.56094 0.46846 -0.05130
 C249 C 0.55778 0.43851 -0.09334
 O250 O 0.46505 0.55691 -0.14067
 O251 O 0.43980 0.52198 -0.06866
 C252 C 0.44394 0.54559 -0.12129
 O253 O 0.53130 0.56939 -0.12924
 O254 O 0.55843 0.53654 -0.06054
 C255 C 0.55291 0.56204 -0.10894
 O256 O 0.47016 0.42012 -0.12027
 O257 O 0.44228 0.45659 -0.05991
 C258 C 0.44831 0.42915 -0.10466
 Zr259 Zr 0.50252 0.44462 -0.08235
 O260 O 0.50593 0.44049 -0.19406
 O261 O 0.50237 0.38225 -0.07430
 Zr262 Zr 0.49870 0.54398 -0.09628
 O263 O 0.50256 0.53851 -0.20769
 O264 O 0.49340 0.60559 -0.10667
 Zr265 Zr 0.46468 0.49447 -0.00168
 Zr266 Zr 0.53514 0.50235 0.00175
 O267 O 0.52132 0.49607 -0.10136
 O268 O 0.47955 0.49131 -0.10430
 O269 O 0.52328 0.44337 0.00921
 O270 O 0.47712 0.55299 -0.00885
 O271 O 0.48151 0.43921 0.00724
 O272 O 0.51882 0.55817 -0.00684
 H273 H 0.53024 0.50833 0.14545
 H274 H 0.46547 0.57480 -0.01260
 H275 H 0.53248 0.49558 -0.14212
 H276 H 0.47157 0.41506 0.01024
 H277 H 0.50540 0.62454 0.04501
 H278 H 0.50504 0.61894 -0.07538
 H279 H 0.48982 0.52069 -0.22482
 H280 H 0.49177 0.45314 -0.21516
 H281 H 0.51539 0.37484 -0.04174
 H282 H 0.51510 0.38032 0.07958
 H283 H 0.49040 0.47488 0.22434
 H284 H 0.48589 0.54152 0.21462
 C285 C 0.36591 0.36989 0.26127
 C286 C 0.34865 0.35105 0.21835
 C287 C 0.32904 0.33213 0.24971
 C288 C 0.32546 0.33322 0.32380
 C289 C 0.34198 0.35440 0.36550
 C290 C 0.36199 0.37203 0.33494
 C291 C 0.38733 0.38759 0.22599
 C292 C 0.40709 0.40212 0.26417
 C293 C 0.42661 0.41840 0.22861
 C294 C 0.42664 0.42126 0.15450
 C295 C 0.40726 0.40635 0.11595
 C296 C 0.38798 0.38863 0.15093
 C297 C 0.35077 0.35188 0.14426
 C298 C 0.36970 0.37116 0.11126
 H299 H 0.33737 0.33798 0.11118
 H300 H 0.37032 0.37157 0.05376
 H301 H 0.31603 0.31803 0.21558
 H302 H 0.34030 0.35576 0.42269
 H303 H 0.44152 0.42954 0.25915
 H304 H 0.40749 0.40771 0.05842
 H305 H 0.37413 0.38734 0.36986
 H306 H 0.40794 0.40066 0.32130
 C307 C -0.14098 0.88543 0.25455
 C308 C -0.15852 0.86734 0.21167
 C309 C -0.17860 0.84989 0.24312
 C310 C -0.18233 0.85198 0.31710
 C311 C -0.16560 0.87286 0.35850
 C312 C -0.14515 0.88891 0.32793
 C313 C -0.11894 0.90088 0.21962
 C314 C -0.09885 0.91349 0.25834
 C315 C -0.07865 0.92746 0.22331
 C316 C -0.07823 0.92995 0.14921
 C317 C -0.09794 0.91704 0.10996
 C318 C -0.11795 0.90137 0.14455
 C319 C -0.15613 0.86744 0.13759
 C320 C -0.13660 0.88512 0.10468
 H321 H -0.16977 0.85422 0.10448
 H322 H -0.13576 0.88505 0.04720
 H323 H -0.19178 0.83605 0.20922
 H324 H -0.16745 0.87503 0.41557
 H325 H -0.06346 0.93709 0.25424
 H326 H -0.09736 0.91813 0.05244
 H327 H -0.13285 0.90401 0.36262
 H328 H -0.09826 0.91212 0.31551
 C329 C 0.62855 0.65711 0.23394
 C330 C 0.65039 0.63691 0.24140
 C331 C 0.66959 0.65508 0.27631
 C332 C 0.66783 0.69393 0.30330
 C333 C 0.64623 0.71425 0.29307
 C334 C 0.62693 0.69616 0.25941
 C335 C 0.60820 0.63601 0.19873
 C336 C 0.58518 0.65226 0.19340
 C337 C 0.56677 0.63105 0.16100
 C338 C 0.57088 0.59335 0.13243
 C339 C 0.59374 0.57696 0.13742
 C340 C 0.61222 0.59764 0.17104
 C341 C 0.65310 0.59877 0.21341
 C342 C 0.63452 0.57975 0.17826
 H343 H 0.66990 0.58338 0.21849
 H344 H 0.63756 0.55029 0.15735
 H345 H 0.68622 0.63912 0.27962
 H346 H 0.64356 0.74373 0.31401
 H347 H 0.54928 0.64429 0.15803
 H348 H 0.59705 0.54753 0.11663
 H349 H 0.61087 0.71328 0.25416
 H350 H 0.58093 0.68103 0.21465
 C351 C 0.13825 1.12812 0.24335
 C352 C 0.13497 1.16566 0.27507
 C353 C 0.15416 1.18511 0.30788
 C354 C 0.17684 1.16739 0.31188
 C355 C 0.17970 1.12965 0.28098
 C356 C 0.16085 1.11048 0.24714
 C357 C 0.11739 1.10860 0.20800
 C358 C 0.11914 1.07233 0.17136
 C359 C 0.09922 1.05541 0.13923
 C360 C 0.07692 1.07388 0.14319
 C361 C 0.07498 1.11009 0.17939
 C362 C 0.09502 1.12773 0.21092
 C363 C 0.11244 1.18331 0.27511
 C364 C 0.09286 1.16458 0.24441
 H365 H 0.10983 1.21195 0.29986
 H366 H 0.07579 1.17937 0.24637
 H367 H 0.15088 1.21328 0.33353
 H368 H 0.19681 1.11509 0.28017
 H369 H 0.10132 1.02762 0.11126
 H370 H 0.05794 1.12498 0.18199
 H371 H 0.16441 1.08177 0.22453
 H372 H 0.13574 1.05666 0.16618
 C373 C 0.64087 0.36974 -0.22931
 C374 C 0.63848 0.33144 -0.25847
 C375 C 0.65771 0.31364 -0.29395
 C376 C 0.67955 0.33385 -0.30409
 C377 C 0.68126 0.37262 -0.27606
 C378 C 0.66244 0.39002 -0.23919
 C379 C 0.62003 0.38749 -0.19108
 C380 C 0.62124 0.42408 -0.15533
 C381 C 0.60115 0.43996 -0.12248
 C382 C 0.57924 0.42006 -0.12478
 C383 C 0.57800 0.38301 -0.15840
 C384 C 0.59825 0.36642 -0.19057
 C385 C 0.61665 0.31149 -0.25395
 C386 C 0.59688 0.32885 -0.22178
 H387 H 0.61467 0.28222 -0.27680
 H388 H 0.58030 0.31247 -0.22086
 H389 H 0.65470 0.28491 -0.31775
 H390 H 0.69757 0.38949 -0.27868
 H391 H 0.60276 0.46832 -0.09610
 H392 H 0.56130 0.36695 -0.15933
 H393 H 0.66517 0.41959 -0.21922
 H394 H 0.63751 0.44090 -0.15184
 C395 C 0.12869 0.84813 -0.24727
 C396 C 0.15096 0.84646 -0.21248
 C397 C 0.17014 0.82653 -0.24437
 C398 C 0.16768 0.80877 -0.31155
 C399 C 0.14571 0.81134 -0.34644
 C400 C 0.12648 0.83057 -0.31487
 C401 C 0.10854 0.86905 -0.21098
 C402 C 0.08539 0.87031 -0.23933
 C403 C 0.06723 0.89028 -0.20379
 C404 C 0.07162 0.90974 -0.13926
 C405 C 0.09459 0.90844 -0.11016
 C406 C 0.11294 0.88789 -0.14502
 C407 C 0.15403 0.86504 -0.14650
 C408 C 0.13551 0.88569 -0.11390
 H409 H 0.17110 0.86395 -0.11994
 H410 H 0.13886 0.89987 -0.06318
 H411 H 0.18696 0.82468 -0.21657
 H412 H 0.14342 0.79898 -0.39911
 H413 H 0.04969 0.89075 -0.22746
 H414 H 0.09812 0.92293 -0.05979
 H415 H 0.11018 0.83175 -0.34483
 H416 H 0.08081 0.85589 -0.28858
 C417 C 0.36421 0.61719 -0.26774
 C418 C 0.34246 0.61973 -0.23006
 C419 C 0.32299 0.63964 -0.25983
 C420 C 0.32466 0.65678 -0.32745
 C421 C 0.34604 0.65311 -0.36541
 C422 C 0.36555 0.63371 -0.33613
 C423 C 0.38490 0.59725 -0.23284
 C424 C 0.40770 0.59552 -0.26393
 C425 C 0.42664 0.57813 -0.22807
 C426 C 0.42339 0.56161 -0.16064
 C427 C 0.40065 0.56236 -0.12977
 C428 C 0.38154 0.58052 -0.16479
 C429 C 0.34029 0.60251 -0.16288
 C430 C 0.35934 0.58300 -0.13126
 H431 H 0.32359 0.60416 -0.13421
 H432 H 0.35675 0.57028 -0.07911
 H433 H 0.30663 0.64234 -0.22968
 H434 H 0.34768 0.66498 -0.41847
 H435 H 0.44399 0.57786 -0.25320
 H436 H 0.39797 0.55007 -0.07729
 H437 H 0.38141 0.63189 -0.36816
 H438 H 0.41144 0.60804 -0.31524
 C439 C -0.12903 1.14526 -0.25189
 C440 C -0.15169 1.12689 -0.25179
 C441 C -0.17108 1.14535 -0.28483
 C442 C -0.16841 1.18250 -0.31654
 C443 C -0.14609 1.20096 -0.31546
 C444 C -0.12661 1.18263 -0.28385
 C445 C -0.10871 1.12434 -0.21693
 C446 C -0.08521 1.13896 -0.21769
 C447 C -0.06694 1.11850 -0.18389
 C448 C -0.07160 1.08314 -0.14796
 C449 C -0.09490 1.06813 -0.14742
 C450 C -0.11334 1.08810 -0.18226
 C451 C -0.15495 1.09054 -0.21787
 C452 C -0.13626 1.07179 -0.18316
 H453 H -0.17231 1.07655 -0.21747
 H454 H -0.13976 1.04388 -0.15709
 H455 H -0.18841 1.13121 -0.28461
 H456 H -0.14363 1.22959 -0.33994
 H457 H -0.04912 1.13069 -0.18529
 H458 H -0.09867 1.04052 -0.12068
 H459 H -0.10993 1.19839 -0.28459
 H460 H -0.08049 1.16597 -0.24439
 C461 C 0.62942 0.64847 -0.24554
 C462 C 0.65147 0.62896 -0.25309
 C463 C 0.67042 0.64752 -0.28860
 C464 C 0.66822 0.68626 -0.31573
 C465 C 0.64635 0.70584 -0.30463
 C466 C 0.62735 0.68733 -0.27061
 C467 C 0.60930 0.62701 -0.21032
 C468 C 0.58607 0.64246 -0.20640
 C469 C 0.56787 0.62119 -0.17367
 C470 C 0.57236 0.58422 -0.14334
 C471 C 0.59539 0.56845 -0.14712
 C472 C 0.61372 0.58916 -0.18155
 C473 C 0.65455 0.59104 -0.22490
 C474 C 0.63621 0.57187 -0.18881
 H475 H 0.67150 0.57609 -0.23011
 H476 H 0.63957 0.54273 -0.16738
 H477 H 0.68649 0.63061 -0.29693
 H478 H 0.64377 0.73629 -0.31971
 H479 H 0.55022 0.63394 -0.17160
 H480 H 0.59892 0.53958 -0.12487
 H481 H 0.61132 0.70435 -0.26344
 H482 H 0.58146 0.67060 -0.22911
 C483 C 0.13932 1.11673 -0.25255
 C484 C 0.13486 1.14129 -0.31148
 C485 C 0.15374 1.16054 -0.34598
 C486 C 0.17747 1.15640 -0.32266
 C487 C 0.18163 1.13152 -0.26407
 C488 C 0.16297 1.11211 -0.22972
 C489 C 0.11857 1.09720 -0.21658
 C490 C 0.12108 1.07205 -0.15764
 C491 C 0.10115 1.05549 -0.12489
 C492 C 0.07814 1.06350 -0.14985
 C493 C 0.07550 1.08788 -0.20940
 C494 C 0.09543 1.10465 -0.24279
 C495 C 0.11155 1.14677 -0.33564
 C496 C 0.09226 1.12899 -0.30189
 H497 H 0.10810 1.16550 -0.38099
 H498 H 0.07456 1.13456 -0.32223
 H499 H 0.14968 1.17773 -0.39269
 H500 H 0.19921 1.12807 -0.24180
 H501 H 0.10381 1.03671 -0.07920
 H502 H 0.05787 1.09415 -0.22968
 H503 H 0.16748 1.09410 -0.18467
 H504 H 0.13823 1.06493 -0.13564
 C505 C 0.37193 0.34076 -0.23948
 C506 C 0.34958 0.35971 -0.24430
 C507 C 0.33048 0.34070 -0.27814
 C508 C 0.33299 0.30238 -0.30621
 C509 C 0.35498 0.28321 -0.29938
 C510 C 0.37420 0.30207 -0.26668
 C511 C 0.39210 0.36272 -0.20520
 C512 C 0.41545 0.34770 -0.20225
 C513 C 0.43365 0.36943 -0.17009
 C514 C 0.42904 0.40648 -0.13948
 C515 C 0.40589 0.42181 -0.14247
 C516 C 0.38755 0.40055 -0.17581
 C517 C 0.34636 0.39749 -0.21517
 C518 C 0.36485 0.41724 -0.18085
 H519 H 0.32920 0.41191 -0.21847
 H520 H 0.36140 0.44631 -0.15875
 H521 H 0.31372 0.35615 -0.28361
 H522 H 0.35734 0.25335 -0.31895
 H523 H 0.45137 0.35694 -0.16859
 H524 H 0.40219 0.45072 -0.11994
 H525 H 0.39059 0.28573 -0.26287
 H526 H 0.42011 0.31946 -0.22496
 C527 C -0.13880 0.86492 -0.23399
 C528 C -0.13562 0.82669 -0.26325
 C529 C -0.15454 0.80768 -0.29826
 C530 C -0.17658 0.82664 -0.30659
 C531 C -0.17938 0.86499 -0.27906
 C532 C -0.16087 0.88380 -0.24305
 C533 C -0.11829 0.88403 -0.19630
 C534 C -0.12014 0.92078 -0.16132
 C535 C -0.10039 0.93784 -0.12855
 C536 C -0.07820 0.91896 -0.13003
 C537 C -0.07629 0.88185 -0.16318
 C538 C -0.09617 0.86410 -0.19542
 C539 C -0.11347 0.80798 -0.25850
 C540 C -0.09409 0.82652 -0.22626
 H541 H -0.11096 0.77878 -0.28115
 H542 H -0.07723 0.81104 -0.22504
 H543 H -0.15206 0.77803 -0.31891
 H544 H -0.19585 0.88097 -0.28643
 H545 H -0.10250 0.96628 -0.10273
 H546 H -0.05935 0.86658 -0.16353
 H547 H -0.16413 0.91338 -0.22395
 H548 H -0.13667 0.93681 -0.15832
 C549 C 0.35884 0.62396 0.23568
 C550 C 0.36224 0.65994 0.27299
 C551 C 0.34301 0.67823 0.30742
 C552 C 0.32032 0.66092 0.30645
 C553 C 0.31701 0.62506 0.27026
 C554 C 0.33595 0.60682 0.23509
 C555 C 0.37986 0.60552 0.19932
 C556 C 0.37824 0.57051 0.15878
 C557 C 0.39839 0.55437 0.12648
 C558 C 0.42072 0.57253 0.13385
 C559 C 0.42249 0.60757 0.17366
 C560 C 0.40230 0.62426 0.20584
 C561 C 0.38486 0.67724 0.27652
 C562 C 0.40448 0.65964 0.24411
 H563 H 0.38748 0.70471 0.30530
 H564 H 0.42163 0.67409 0.24887
 H565 H 0.34579 0.70560 0.33641
 H566 H 0.29962 0.61125 0.26864
 H567 H 0.39644 0.52733 0.09603
 H568 H 0.43958 0.62215 0.17923
 H569 H 0.33228 0.57928 0.20827
 H570 H 0.36162 0.55516 0.15110
 C571 C -0.13166 1.15055 0.23591
 C572 C -0.12736 1.18925 0.26165
 C573 C -0.14563 1.21039 0.29588
 C574 C -0.16810 1.19311 0.30692
 C575 C -0.17196 1.15426 0.28306
 C576 C -0.15413 1.13335 0.24785
 C577 C -0.11190 1.12920 0.19858
 C578 C -0.11499 1.09185 0.16666
 C579 C -0.09600 1.07275 0.13371
 C580 C -0.07333 1.09014 0.13182
 C581 C -0.07010 1.12770 0.16230
 C582 C -0.08928 1.14754 0.19465
 C583 C -0.10476 1.20630 0.25413
 C584 C -0.08604 1.18567 0.22237
 H585 H -0.10137 1.23584 0.27417
 H586 H -0.06881 1.19995 0.21888
 H587 H -0.14230 1.24037 0.31376
 H588 H -0.18875 1.13950 0.29274
 H589 H -0.09906 1.04383 0.11053
 H590 H -0.05275 1.14168 0.16016
 H591 H -0.15822 1.10351 0.23167
 H592 H -0.13193 1.07688 0.16613
 C593 C 0.63894 0.37783 0.25056
 C594 C 0.63519 0.35861 0.31620
 C595 C 0.65435 0.34095 0.35173
 C596 C 0.67733 0.34132 0.32226
 C597 C 0.68088 0.35991 0.25666
 C598 C 0.66203 0.37798 0.22134
 C599 C 0.61804 0.39664 0.21467
 C600 C 0.62009 0.41795 0.15090
 C601 C 0.60009 0.43456 0.11915
 C602 C 0.57746 0.43030 0.14977
 C603 C 0.57524 0.40947 0.21369
 C604 C 0.59532 0.39301 0.24657
 C605 C 0.61233 0.35677 0.34569
 C606 C 0.59279 0.37325 0.31130
 H607 H 0.60943 0.34197 0.39587
 H608 H 0.57544 0.37066 0.33602
 H609 H 0.65135 0.32708 0.40271
 H610 H 0.69826 0.35996 0.23180
 H611 H 0.60239 0.45050 0.06987
 H612 H 0.55790 0.40637 0.23834
 H613 H 0.66592 0.39144 0.17089
 H614 H 0.63694 0.42231 0.12467
 C615 C 0.12854 0.85587 0.26359
 C616 C 0.15188 0.87087 0.25447
 C617 C 0.17125 0.85195 0.28681
 C618 C 0.16783 0.81748 0.32662
 C619 C 0.14480 0.80222 0.33439
 C620 C 0.12537 0.82116 0.30363
 C621 C 0.10832 0.87720 0.22892
 C622 C 0.08435 0.86608 0.23817
 C623 C 0.06618 0.88639 0.20367
 C624 C 0.07135 0.91819 0.15867
 C625 C 0.09515 0.92991 0.15000
 C626 C 0.11355 0.91006 0.18535
 C627 C 0.15579 0.90421 0.21219
 C628 C 0.13708 0.92307 0.17765
 H629 H 0.17366 0.91559 0.20487
 H630 H 0.14109 0.94843 0.14477
 H631 H 0.18909 0.86352 0.27975
 H632 H 0.14178 0.77569 0.36512
 H633 H 0.04800 0.87671 0.21164
 H634 H 0.09942 0.95462 0.11587
 H635 H 0.10812 0.80790 0.31135
 H636 H 0.07920 0.84189 0.27195
   
