data_POSCAR
  _audit_creation_date              2014-09-24
  _audit_creation_method            'ToBaCCo'
  _symmetry_space_group_name_H-M    'P1'
  _symmetry_Int_Tables_number       1
  _symmetry_cell_setting            triclinic
  loop_
  _symmetry_equiv_pos_as_xyz
 x,y,z
_cell_length_a 44.6704
_cell_length_b 44.5599
_cell_length_c 25.1323
_cell_angle_alpha 89.871800
_cell_angle_beta 90.184300
_cell_angle_gamma 88.197400
loop_
  _atom_site_label
  _atom_site_type_symbol
  _atom_site_fract_x
  _atom_site_fract_y
  _atom_site_fract_z
C1 C -0.00245 0.26200 -0.02459
 C2 C -0.00213 0.26052 0.02959
 C3 C -0.03017 0.25788 0.06081
 C4 C 0.02637 0.26155 0.05971
 C5 C 0.02572 0.26097 -0.05557
 C6 C -0.03087 0.26307 -0.05532
 C7 C -0.03735 0.27893 0.10042
 C8 C -0.06515 0.27870 0.12582
 C9 C -0.08690 0.25771 0.11137
 C10 C -0.07828 0.23521 0.07430
 C11 C -0.05034 0.23526 0.04964
 C12 C 0.04504 0.28616 0.05453
 C13 C 0.07261 0.28625 0.08087
 C14 C 0.08170 0.26186 0.11303
 C15 C 0.06287 0.23748 0.11889
 C16 C 0.03525 0.23743 0.09271
 C17 C 0.04449 0.23512 -0.05496
 C18 C 0.07088 0.23414 -0.08471
 C19 C 0.07891 0.25900 -0.11539
 C20 C 0.06038 0.28508 -0.11491
 C21 C 0.03371 0.28586 -0.08596
 C22 C -0.03617 0.24090 -0.09349
 C23 C -0.06421 0.23937 -0.11785
 C24 C -0.08735 0.25990 -0.10413
 C25 C -0.08156 0.28315 -0.06838
 C26 C -0.05343 0.28485 -0.04437
 H27 H -0.02191 0.29638 0.11010
 H28 H -0.07024 0.29654 0.15384
 H29 H -0.09287 0.21696 0.06507
 H30 H -0.04469 0.21796 0.02083
 H31 H 0.03836 0.30510 0.02966
 H32 H 0.08700 0.30516 0.07586
 H33 H 0.02109 0.21830 0.09711
 H34 H 0.03855 0.21570 -0.03173
 H35 H 0.08498 0.21391 -0.08408
 H36 H 0.06652 0.30477 -0.13722
 H37 H 0.01952 0.30602 -0.08650
 H38 H -0.01900 0.22404 -0.10280
 H39 H -0.06820 0.22165 -0.14619
 H40 H -0.09908 0.29942 -0.05796
 H41 H -0.04957 0.30248 -0.01579
 H42 H 0.06969 0.21847 0.14351
 C43 C 0.50861 0.76710 0.47081
 C44 C 0.50736 0.76696 0.52499
 C45 C 0.47849 0.76453 0.55332
 C46 C 0.53494 0.76798 0.55794
 C47 C 0.53770 0.76489 0.44304
 C48 C 0.48105 0.76735 0.43759
 C49 C 0.46907 0.78700 0.58912
 C50 C 0.44060 0.78630 0.61195
 C51 C 0.42134 0.76313 0.59910
 C52 C 0.43132 0.73989 0.56539
 C53 C 0.45979 0.74046 0.54293
 C54 C 0.55474 0.79167 0.55255
 C55 C 0.58167 0.79133 0.58103
 C56 C 0.58896 0.76750 0.61575
 C57 C 0.56896 0.74411 0.62190
 C58 C 0.54201 0.74447 0.59348
 C59 C 0.55622 0.73909 0.44889
 C60 C 0.58470 0.73792 0.42626
 C61 C 0.59526 0.76275 0.39831
 C62 C 0.57626 0.78814 0.39084
 C63 C 0.54756 0.78914 0.41290
 C64 C 0.47607 0.74346 0.40265
 C65 C 0.44847 0.74123 0.37685
 C66 C 0.42566 0.76301 0.38532
 C67 C 0.43111 0.78772 0.41795
 C68 C 0.45868 0.78995 0.44383
 H69 H 0.48335 0.80557 0.59789
 H70 H 0.43324 0.80422 0.63835
 H71 H 0.41681 0.72162 0.55581
 H72 H 0.46696 0.72259 0.51630
 H73 H 0.54951 0.81016 0.52570
 H74 H 0.59700 0.80943 0.57558
 H75 H 0.52704 0.72599 0.59805
 H76 H 0.54871 0.72007 0.47160
 H77 H 0.59872 0.71782 0.43117
 H78 H 0.58385 0.80732 0.36870
 H79 H 0.53342 0.80915 0.40798
 H80 H 0.49302 0.72582 0.39737
 H81 H 0.44451 0.72205 0.35167
 H82 H 0.41366 0.80471 0.42474
 H83 H 0.46222 0.80867 0.47027
 H84 H 0.57437 0.72550 0.64837
 C85 C 1.00923 0.73757 -0.03034
 C86 C 1.00921 0.73916 0.02381
 C87 C 1.03745 0.73864 0.05510
 C88 C 0.98074 0.74224 0.05358
 C89 C 0.98081 0.73550 -0.06086
 C90 C 1.03723 0.74047 -0.06112
 C91 C 1.05895 0.71523 0.04874
 C92 C 1.08616 0.71575 0.07623
 C93 C 1.09214 0.73960 0.11055
 C94 C 1.07053 0.76271 0.11770
 C95 C 1.04323 0.76211 0.09047
 C96 C 0.97227 0.71936 0.08825
 C97 C 0.94376 0.72029 0.11096
 C98 C 0.92358 0.74425 0.09954
 C99 C 0.93268 0.76798 0.06736
 C100 C 0.96109 0.76696 0.04437
 C101 C 0.97279 0.75788 -0.09809
 C102 C 0.94434 0.75855 -0.12143
 C103 C 0.92362 0.73684 -0.10789
 C104 C 0.93215 0.71346 -0.07305
 C105 C 0.96065 0.71269 -0.04991
 C106 C 1.05493 0.76561 -0.05431
 C107 C 1.08143 0.76825 -0.08283
 C108 C 1.09056 0.74613 -0.11990
 C109 C 1.07284 0.72069 -0.12587
 C110 C 1.04622 0.71814 -0.09735
 H111 H 1.05474 0.69676 0.02208
 H112 H 1.10269 0.69776 0.07043
 H113 H 1.07491 0.78125 0.14412
 H114 H 1.02693 0.78034 0.09587
 H115 H 0.98723 0.70022 0.09584
 H116 H 0.93710 0.70203 0.13637
 H117 H 0.96747 0.78493 0.01806
 H118 H 0.98802 0.77561 -0.10715
 H119 H 0.93805 0.77665 -0.14847
 H120 H 0.91642 0.69643 -0.06256
 H121 H 0.96661 0.69497 -0.02192
 H122 H 1.04829 0.78312 -0.02654
 H123 H 1.09516 0.78735 -0.07490
 H124 H 1.07906 0.70315 -0.15387
 H125 H 1.03277 0.69860 -0.10309
 H126 H 0.91743 0.78675 0.05870
 C127 C 0.49961 0.23407 0.47439
 C128 C 0.49849 0.23528 0.52861
 C129 C 0.52580 0.24066 0.56053
 C130 C 0.46960 0.23320 0.55746
 C131 C 0.47178 0.23636 0.44215
 C132 C 0.52867 0.23217 0.44574
 C133 C 0.53443 0.22086 0.60165
 C134 C 0.56136 0.22468 0.62894
 C135 C 0.57978 0.24854 0.61583
 C136 C 0.57084 0.26865 0.57540
 C137 C 0.54383 0.26504 0.54859
 C138 C 0.45030 0.20953 0.54719
 C139 C 0.42151 0.20987 0.56880
 C140 C 0.41178 0.23371 0.60140
 C141 C 0.43161 0.25640 0.61427
 C142 C 0.46036 0.25613 0.59249
 C143 C 0.45145 0.26072 0.44925
 C144 C 0.42353 0.26104 0.42423
 C145 C 0.41565 0.23711 0.39150
 C146 C 0.43667 0.21369 0.38166
 C147 C 0.46462 0.21331 0.40689
 C148 C 0.53534 0.25385 0.40732
 C149 C 0.56411 0.25477 0.38579
 C150 C 0.58651 0.23400 0.40229
 C151 C 0.57942 0.21123 0.43827
 C152 C 0.55065 0.21024 0.45970
 H153 H 0.52075 0.20200 0.61150
 H154 H 0.56802 0.20887 0.65991
 H155 H 0.58495 0.28697 0.56428
 H156 H 0.53731 0.28086 0.51757
 H157 H 0.45719 0.19136 0.52096
 H158 H 0.40651 0.19206 0.55894
 H159 H 0.47491 0.27452 0.60105
 H160 H 0.45686 0.27897 0.47563
 H161 H 0.40771 0.27947 0.43163
 H162 H 0.43107 0.19534 0.35565
 H163 H 0.48014 0.19450 0.40065
 H164 H 0.51871 0.27089 0.39590
 H165 H 0.56921 0.27231 0.35763
 H166 H 0.59640 0.19479 0.45080
 H167 H 0.54579 0.19304 0.48865
 H168 H 0.42443 0.27483 0.63970
 C169 C 0.73437 0.00389 -0.02302
 C170 C 0.73577 0.00330 0.03136
 C171 C 0.73494 -0.02548 0.06179
 C172 C 0.73909 0.03120 0.06297
 C173 C 0.73092 0.03247 -0.05391
 C174 C 0.73737 -0.02427 -0.05429
 C175 C 0.71348 -0.04695 0.05027
 C176 C 0.71377 -0.07436 0.07729
 C177 C 0.73441 -0.08032 0.11873
 C178 C 0.75540 -0.05843 0.13110
 C179 C 0.75568 -0.03139 0.10288
 C180 C 0.71998 0.03729 0.10615
 C181 C 0.72274 0.06361 0.13569
 C182 C 0.74479 0.08412 0.12273
 C183 C 0.76389 0.07804 0.07955
 C184 C 0.76145 0.05155 0.05057
 C185 C 0.74860 0.03697 -0.09919
 C186 C 0.74628 0.06391 -0.12766
 C187 C 0.72633 0.08715 -0.11134
 C188 C 0.70861 0.08256 -0.06598
 C189 C 0.71022 0.05522 -0.03864
 C190 C 0.76268 -0.04339 -0.04817
 C191 C 0.76501 -0.07032 -0.07630
 C192 C 0.74232 -0.07855 -0.11212
 C193 C 0.71691 -0.05916 -0.11776
 C194 C 0.71471 -0.03213 -0.08978
 H195 H 0.69658 -0.04259 0.02004
 H196 H 0.69716 -0.09058 0.06692
 H197 H 0.77229 -0.06268 0.16145
 H198 H 0.77249 -0.01525 0.11252
 H199 H 0.70270 0.02183 0.11654
 H200 H 0.70769 0.06799 0.16866
 H201 H 0.77679 0.04706 0.01807
 H202 H 0.76477 0.01986 -0.11190
 H203 H 0.76100 0.06702 -0.16127
 H204 H 0.69285 0.09987 -0.05251
 H205 H 0.69555 0.05203 -0.00503
 H206 H 0.78056 -0.03748 -0.02133
 H207 H 0.78501 -0.08438 -0.07090
 H208 H 0.69818 -0.06533 -0.14244
 H209 H 0.69487 -0.01776 -0.09452
 H210 H 0.78076 0.09381 0.06844
 C211 C 0.22959 0.50117 0.46568
 C212 C 0.23034 0.50168 0.51994
 C213 C 0.22826 0.47350 0.55124
 C214 C 0.23466 0.53000 0.54988
 C215 C 0.22910 0.52909 0.43331
 C216 C 0.23136 0.47239 0.43634
 C217 C 0.20433 0.45426 0.54320
 C218 C 0.20396 0.42647 0.56890
 C219 C 0.22717 0.41783 0.60382
 C220 C 0.25048 0.43746 0.61364
 C221 C 0.25100 0.46518 0.58756
 C222 C 0.21465 0.53864 0.59043
 C223 C 0.21787 0.56591 0.61705
 C224 C 0.24134 0.58478 0.60390
 C225 C 0.26146 0.57601 0.56361
 C226 C 0.25848 0.54864 0.53752
 C227 C 0.25055 0.53270 0.39323
 C228 C 0.25213 0.55991 0.36591
 C229 C 0.23220 0.58378 0.37815
 C230 C 0.21005 0.57995 0.41672
 C231 C 0.20826 0.55263 0.44368
 C232 C 0.25735 0.45395 0.43943
 C233 C 0.25896 0.42668 0.41220
 C234 C 0.23456 0.41737 0.38168
 C235 C 0.20839 0.43570 0.37934
 C236 C 0.20703 0.46331 0.40565
 H237 H 0.18626 0.46054 0.51617
 H238 H 0.18573 0.41157 0.56130
 H239 H 0.26849 0.43102 0.64070
 H240 H 0.26958 0.47974 0.59442
 H241 H 0.19622 0.52453 0.60071
 H242 H 0.20205 0.57235 0.64787
 H243 H 0.27451 0.54219 0.50708
 H244 H 0.26678 0.51484 0.38446
 H245 H 0.26937 0.56266 0.33624
 H246 H 0.19448 0.59824 0.42637
 H247 H 0.19118 0.55011 0.47371
 H248 H 0.27633 0.46076 0.46290
 H249 H 0.27924 0.41278 0.41496
 H250 H 0.18904 0.42860 0.35716
 H251 H 0.18678 0.47727 0.40321
 H252 H 0.27952 0.59039 0.55245
 C253 C 0.26234 1.00070 -0.03310
 C254 C 0.26202 1.00074 0.02118
 C255 C 0.26199 1.02892 0.05279
 C256 C 0.26142 0.97246 0.05221
 C257 C 0.26465 0.97233 -0.06447
 C258 C 0.25969 1.02911 -0.06400
 C259 C 0.28374 1.05050 0.04483
 C260 C 0.28370 1.07655 0.07572
 C261 C 0.26241 1.08130 0.11648
 C262 C 0.24051 1.05955 0.12377
 C263 C 0.24049 1.03365 0.09266
 C264 C 0.28517 0.96492 0.08683
 C265 C 0.28513 0.93815 0.11576
 C266 C 0.26080 0.91905 0.11199
 C267 C 0.23694 0.92673 0.07751
 C268 C 0.23723 0.95327 0.04780
 C269 C 0.24505 0.96795 -0.10736
 C270 C 0.24691 0.94157 -0.13729
 C271 C 0.26843 0.91881 -0.12498
 C272 C 0.28786 0.92318 -0.08162
 C273 C 0.28655 0.94994 -0.05275
 C274 C 0.23505 1.04900 -0.05725
 C275 C 0.23264 1.07549 -0.08700
 C276 C 0.25451 1.08245 -0.12514
 C277 C 0.27941 1.06247 -0.13093
 C278 C 0.28174 1.03597 -0.10124
 H279 H 0.30075 1.04721 0.01461
 H280 H 0.29995 1.09334 0.06670
 H281 H 0.22382 1.06204 0.15475
 H282 H 0.22357 1.01722 0.09969
 H283 H 0.30402 0.97948 0.09050
 H284 H 0.30410 0.93229 0.14108
 H285 H 0.21865 0.95892 0.02147
 H286 H 0.22796 0.98484 -0.11726
 H287 H 0.23085 0.93855 -0.16908
 H288 H 0.30485 0.90627 -0.07119
 H289 H 0.30270 0.95313 -0.02125
 H290 H 0.21758 1.04388 -0.02917
 H291 H 0.21306 1.09007 -0.08129
 H292 H 0.29762 1.06770 -0.15740
 H293 H 0.30107 1.02100 -0.10658
 H294 H 0.21810 0.91216 0.07364
 C295 C 0.76875 0.50240 0.47893
 C296 C 0.76775 0.50313 0.53309
 C297 C 0.76871 0.53167 0.56334
 C298 C 0.76508 0.47525 0.56469
 C299 C 0.76966 0.47357 0.44941
 C300 C 0.76811 0.53032 0.44670
 C301 C 0.79157 0.55208 0.55475
 C302 C 0.79172 0.57916 0.58261
 C303 C 0.76943 0.58587 0.62027
 C304 C 0.74698 0.56529 0.62980
 C305 C 0.74667 0.53832 0.60164
 C306 C 0.78850 0.46577 0.59862
 C307 C 0.78671 0.43887 0.62690
 C308 C 0.76101 0.42160 0.62311
 C309 C 0.73746 0.43132 0.58946
 C310 C 0.73948 0.45795 0.56042
 C311 C 0.74773 0.46803 0.41083
 C312 C 0.74749 0.44040 0.38471
 C313 C 0.76929 0.41804 0.39660
 C314 C 0.79156 0.42369 0.43436
 C315 C 0.79195 0.45140 0.46018
 C316 C 0.74368 0.55083 0.44952
 C317 C 0.74352 0.57731 0.41960
 C318 C 0.76774 0.58364 0.38632
 C319 C 0.79225 0.56315 0.38386
 C320 C 0.79221 0.53647 0.41318
 H321 H 0.80921 0.54708 0.52639
 H322 H 0.80922 0.59488 0.57498
 H323 H 0.72957 0.57028 0.65865
 H324 H 0.72894 0.52284 0.60908
 H325 H 0.80846 0.47882 0.60205
 H326 H 0.80544 0.43142 0.65158
 H327 H 0.72119 0.46507 0.53447
 H328 H 0.73043 0.48487 0.40184
 H329 H 0.73013 0.43627 0.35569
 H330 H 0.80858 0.40664 0.44375
 H331 H 0.80944 0.45546 0.48897
 H332 H 0.72482 0.54632 0.47498
 H333 H 0.72452 0.59293 0.42242
 H334 H 0.81144 0.56791 0.35938
 H335 H 0.81127 0.52091 0.41073
 H336 H 0.71757 0.41820 0.58556
 O337 O 0.22175 0.26013 0.18397
 O338 O 0.29586 0.25211 0.24747
 O339 O 0.26320 0.21785 0.19010
 O340 O 0.25424 0.29441 0.24307
 O341 O 0.23361 0.27672 0.31589
 O342 O 0.24117 0.20017 0.26181
 O343 O 0.27490 0.23421 0.31975
 O344 O 0.20066 0.24350 0.25740
 Cu345 Cu 0.26086 0.25797 0.20887
 Cu346 Cu 0.23555 0.23677 0.29604
 C347 C 0.19863 0.25354 0.21020
 C348 C 0.29811 0.24129 0.29415
 C349 C 0.25370 0.19602 0.21704
 C350 C 0.24208 0.29872 0.28815
 O351 O 0.77590 0.72211 0.30780
 O352 O 0.76444 0.79846 0.25377
 O353 O 0.73451 0.76377 0.31603
 O354 O 0.80592 0.75620 0.24467
 O355 O 0.78217 0.73998 0.17400
 O356 O 0.71115 0.74376 0.24796
 O357 O 0.73881 0.78044 0.18668
 O358 O 0.75340 0.70373 0.23737
 Cu359 Cu 0.77266 0.76205 0.28732
 Cu360 Cu 0.74426 0.74017 0.20415
 C361 C 0.76654 0.69981 0.28187
 C362 C 0.74871 0.80268 0.21211
 C363 C 0.71077 0.75422 0.29492
 C364 C 0.80635 0.74673 0.19705
 O365 O 0.80119 0.24271 0.26643
 O366 O 0.72884 0.23670 0.33591
 O367 O 0.76174 0.20221 0.27350
 O368 O 0.76963 0.27774 0.32919
 O369 O 0.74597 0.29724 0.25940
 O370 O 0.73829 0.22164 0.20338
 O371 O 0.70552 0.25623 0.26590
 O372 O 0.77733 0.26247 0.19704
 Cu373 Cu 0.76748 0.23798 0.30868
 Cu374 Cu 0.73916 0.26144 0.22476
 C375 C 0.80137 0.25280 0.21908
 C376 C 0.70483 0.24559 0.31276
 C377 C 0.74987 0.19917 0.22795
 C378 C 0.75977 0.30043 0.30316
 O379 O 0.26320 0.70420 0.24280
 O380 O 0.27194 0.78025 0.18892
 O381 O 0.30543 0.74371 0.24634
 O382 O 0.23090 0.74034 0.18415
 O383 O 0.21015 0.75839 0.25768
 O384 O 0.28486 0.76274 0.31920
 O385 O 0.25062 0.79916 0.26093
 O386 O 0.24307 0.72336 0.31585
 Cu387 Cu 0.27013 0.74025 0.20837
 Cu388 Cu 0.24534 0.76307 0.29580
 C389 C 0.25085 0.70081 0.28781
 C390 C 0.26250 0.80276 0.21564
 C391 C 0.30779 0.75363 0.29340
 C392 C 0.20786 0.74818 0.21075
 O393 O 0.76238 0.28169 0.69557
 O394 O 0.74996 0.20610 0.74892
 O395 O 0.71934 0.24407 0.68915
 O396 O 0.79323 0.24389 0.75419
 O397 O 0.77250 0.26340 0.82659
 O398 O 0.69889 0.26432 0.76102
 O399 O 0.72858 0.22604 0.81996
 O400 O 0.74181 0.30155 0.76752
 Cu401 Cu 0.75832 0.24183 0.71480
 Cu402 Cu 0.73350 0.26578 0.80119
 C403 C 0.75428 0.30459 0.72258
 C404 C 0.73656 0.20309 0.79300
 C405 C 0.69660 0.25476 0.71369
 C406 C 0.79536 0.25370 0.80132
 O407 O 0.30135 0.74474 0.73675
 O408 O 0.22819 0.74271 0.80421
 O409 O 0.26039 0.70574 0.74508
 O410 O 0.27114 0.78139 0.79816
 O411 O 0.24718 0.80118 0.72921
 O412 O 0.24019 0.72539 0.67218
 O413 O 0.20637 0.76114 0.73167
 O414 O 0.27953 0.76695 0.66801
 Cu415 Cu 0.26726 0.74169 0.77848
 Cu416 Cu 0.24092 0.76553 0.69322
 C417 C 0.30291 0.75610 0.69039
 C418 C 0.20485 0.75187 0.77926
 C419 C 0.24986 0.70268 0.69855
 C420 C 0.26131 0.80433 0.77269
 O421 O 0.25833 0.21978 0.79717
 O422 O 0.24777 0.29562 0.74091
 O423 O 0.21621 0.26158 0.80048
 O424 O 0.29003 0.25436 0.73594
 O425 O 0.26913 0.23476 0.66503
 O426 O 0.19532 0.24247 0.72904
 O427 O 0.22706 0.27661 0.66909
 O428 O 0.23718 0.20071 0.72588
 Cu429 Cu 0.25534 0.25959 0.77582
 Cu430 Cu 0.23015 0.23664 0.69009
 C431 C 0.24946 0.19729 0.77121
 C432 C 0.23522 0.29911 0.69585
 C433 C 0.19304 0.25378 0.77524
 C434 C 0.29215 0.24385 0.68907
 O435 O 0.74919 0.70588 0.76587
 O436 O 0.74042 0.78209 0.82150
 O437 O 0.70724 0.74809 0.76400
 O438 O 0.78156 0.73959 0.82644
 O439 O 0.80219 0.75911 0.75518
 O440 O 0.72797 0.76549 0.69084
 O441 O 0.76024 0.80053 0.74848
 O442 O 0.77077 0.72450 0.69471
 Cu443 Cu 0.74254 0.74193 0.80165
 Cu444 Cu 0.76738 0.76420 0.71500
 C445 C 0.76187 0.70218 0.72107
 C446 C 0.74848 0.80437 0.79395
 C447 C 0.70498 0.75829 0.71696
 C448 C 0.80447 0.74858 0.80212
 C449 C 0.28810 0.12184 0.16660
 C450 C 0.26175 0.10805 0.14713
 C451 C 0.23375 0.12242 0.15705
 C452 C 0.23165 0.15049 0.18100
 C453 C 0.25735 0.16541 0.19580
 C454 C 0.28581 0.15103 0.18982
 C455 C 0.31635 0.10654 0.16729
 C456 C 0.34180 0.12042 0.18626
 C457 C 0.33968 0.14949 0.20621
 C458 C 0.31197 0.16463 0.20852
 H459 H 0.31899 0.08340 0.15490
 H460 H 0.36324 0.10840 0.18611
 H461 H 0.35949 0.16008 0.22117
 H462 H 0.31117 0.18676 0.22618
 H463 H 0.21315 0.11285 0.14318
 H464 H 0.20974 0.16124 0.18608
 C465 C 0.77597 0.61731 0.70327
 C466 C 0.76901 0.61492 0.64843
 C467 C 0.76135 0.64074 0.61914
 C468 C 0.75957 0.66868 0.64354
 C469 C 0.76555 0.67177 0.69802
 C470 C 0.77461 0.64604 0.72828
 C471 C 0.78500 0.59183 0.73345
 C472 C 0.79279 0.59455 0.78693
 C473 C 0.79214 0.62262 0.81109
 C474 C 0.78338 0.64819 0.78219
 H475 H 0.78649 0.56968 0.71589
 H476 H 0.79975 0.57483 0.80955
 H477 H 0.79873 0.62465 0.85239
 H478 H 0.78425 0.66951 0.80239
 H479 H 0.75617 0.63915 0.57710
 H480 H 0.75286 0.68807 0.61972
 C481 C 0.73629 0.88859 0.20158
 C482 C 0.73511 0.89162 0.14509
 C483 C 0.73517 0.86553 0.11386
 C484 C 0.73919 0.83726 0.13662
 C485 C 0.74240 0.83363 0.19176
 C486 C 0.73948 0.85937 0.22509
 C487 C 0.73187 0.91373 0.23532
 C488 C 0.73162 0.91046 0.29042
 C489 C 0.73466 0.88213 0.31323
 C490 C 0.73805 0.85680 0.28117
 H491 H 0.72751 0.93605 0.21971
 H492 H 0.72824 0.92998 0.31553
 H493 H 0.73362 0.87967 0.35604
 H494 H 0.73830 0.83538 0.30122
 H495 H 0.73401 0.86702 0.07083
 H496 H 0.74069 0.81800 0.11040
 C497 C 0.21822 0.38362 0.68231
 C498 C 0.22745 0.38791 0.62909
 C499 C 0.23705 0.36320 0.59867
 C500 C 0.23865 0.33452 0.62071
 C501 C 0.23062 0.32969 0.67382
 C502 C 0.21940 0.35420 0.70475
 C503 C 0.20735 0.40793 0.71339
 C504 C 0.19738 0.40331 0.76518
 C505 C 0.19776 0.37450 0.78671
 C506 C 0.20848 0.35010 0.75690
 H507 H 0.20619 0.43060 0.69779
 H508 H 0.18898 0.42213 0.78851
 H509 H 0.18951 0.37099 0.82663
 H510 H 0.20748 0.32810 0.77486
 H511 H 0.24388 0.36627 0.55772
 H512 H 0.24701 0.31603 0.59644
 C513 C 0.85872 0.25015 0.10585
 C514 C 0.88522 0.25836 0.13398
 C515 C 0.88224 0.26609 0.18826
 C516 C 0.85519 0.26356 0.21498
 C517 C 0.82981 0.25330 0.18902
 C518 C 0.83161 0.24567 0.13432
 C519 C 0.85753 0.24908 0.04949
 C520 C 0.83200 0.23970 0.02306
 C521 C 0.80723 0.23101 0.05175
 C522 C 0.80689 0.23396 0.10686
 H523 H 0.87589 0.25634 0.02518
 H524 H 0.83139 0.23916 -0.01988
 H525 H 0.78784 0.22279 0.03110
 H526 H 0.78701 0.22711 0.12736
 H527 H 0.90136 0.27235 0.21188
 H528 H 0.85414 0.26962 0.25668
 C529 C 0.36517 0.76590 0.58631
 C530 C 0.39051 0.76316 0.62012
 C531 C 0.38666 0.75834 0.67450
 C532 C 0.35818 0.75585 0.69581
 C533 C 0.33249 0.75734 0.66335
 C534 C 0.33601 0.76134 0.60728
 C535 C 0.36827 0.77337 0.53200
 C536 C 0.34346 0.77479 0.49834
 C537 C 0.31549 0.76739 0.51736
 C538 C 0.31173 0.76037 0.57098
 H539 H 0.38982 0.77844 0.51523
 H540 H 0.34608 0.78090 0.45697
 H541 H 0.29655 0.76707 0.49039
 H542 H 0.28976 0.75355 0.58247
 H543 H 0.40594 0.75630 0.70069
 H544 H 0.35633 0.75280 0.73843
 C545 C 0.12841 0.72274 0.18316
 C546 C 0.12132 0.74077 0.13809
 C547 C 0.14252 0.76029 0.11809
 C548 C 0.17057 0.76218 0.14194
 C549 C 0.17798 0.74498 0.18699
 C550 C 0.15698 0.72490 0.20794
 C551 C 0.10768 0.70264 0.20422
 C552 C 0.11515 0.68469 0.24812
 C553 C 0.14321 0.68651 0.27195
 C554 C 0.16395 0.70646 0.25232
 H555 H 0.08562 0.70058 0.18692
 H556 H 0.09911 0.66926 0.26370
 H557 H 0.14895 0.67242 0.30585
 H558 H 0.18547 0.70707 0.27198
 H559 H 0.13733 0.77405 0.08345
 H560 H 0.18654 0.77746 0.12547
 C561 C 0.61693 0.27795 0.67014
 C562 C 0.60914 0.25160 0.64242
 C563 C 0.63026 0.22791 0.63739
 C564 C 0.65869 0.22974 0.65959
 C565 C 0.66698 0.25540 0.68738
 C566 C 0.64638 0.28023 0.69146
 C567 C 0.59601 0.30199 0.67766
 C568 C 0.60438 0.32832 0.70274
 C569 C 0.63361 0.33124 0.72075
 C570 C 0.65449 0.30755 0.71522
 H571 H 0.57301 0.30067 0.66455
 H572 H 0.58817 0.34665 0.70781
 H573 H 0.64014 0.35196 0.73928
 H574 H 0.67704 0.31118 0.72891
 H575 H 0.62471 0.20779 0.61581
 H576 H 0.67419 0.21067 0.65587
 C577 C 0.72312 0.11831 0.80598
 C578 C 0.72556 0.11522 0.86234
 C579 C 0.72820 0.14118 0.89334
 C580 C 0.73130 0.16915 0.86990
 C581 C 0.73092 0.17267 0.81448
 C582 C 0.72532 0.14731 0.78197
 C583 C 0.71610 0.09365 0.77332
 C584 C 0.71231 0.09712 0.71862
 C585 C 0.71436 0.12527 0.69535
 C586 C 0.72033 0.15019 0.72653
 H587 H 0.71244 0.07164 0.78973
 H588 H 0.70697 0.07797 0.69432
 H589 H 0.71059 0.12794 0.65301
 H590 H 0.71976 0.17166 0.70660
 H591 H 0.72988 0.13965 0.93631
 H592 H 0.73499 0.18818 0.89561
 C593 C 0.22745 0.61897 0.29906
 C594 C 0.23564 0.61331 0.35269
 C595 C 0.24758 0.63618 0.38339
 C596 C 0.25223 0.66429 0.36149
 C597 C 0.24519 0.67040 0.30812
 C598 C 0.23195 0.64788 0.27658
 C599 C 0.21408 0.59674 0.26782
 C600 C 0.20497 0.60293 0.21574
 C601 C 0.20874 0.63130 0.19404
 C602 C 0.22198 0.65364 0.22399
 H603 H 0.21019 0.57458 0.28355
 H604 H 0.19459 0.58572 0.19231
 H605 H 0.20117 0.63611 0.15387
 H606 H 0.22357 0.67547 0.20569
 H607 H 0.25366 0.63208 0.42462
 H608 H 0.26171 0.68138 0.38644
 C609 C 0.26950 0.88985 0.78989
 C610 C 0.26942 0.89144 0.84659
 C611 C 0.26981 0.86458 0.87589
 C612 C 0.26751 0.83698 0.85090
 C613 C 0.26566 0.83475 0.79538
 C614 C 0.26806 0.86128 0.76411
 C615 C 0.27353 0.91573 0.75825
 C616 C 0.27498 0.91386 0.70304
 C617 C 0.27359 0.88619 0.67806
 C618 C 0.27067 0.86013 0.70803
 H619 H 0.27666 0.93755 0.77569
 H620 H 0.27802 0.93394 0.67957
 H621 H 0.27556 0.88481 0.63520
 H622 H 0.27175 0.83926 0.68642
 H623 H 0.27000 0.86494 0.91902
 H624 H 0.26631 0.81713 0.87570
 C625 C 0.77525 0.38431 0.31598
 C626 C 0.76835 0.38841 0.37051
 C627 C 0.76037 0.36380 0.40144
 C628 C 0.75817 0.33548 0.37891
 C629 C 0.76397 0.33085 0.32474
 C630 C 0.77339 0.35521 0.29292
 C631 C 0.78473 0.40838 0.28423
 C632 C 0.79242 0.40389 0.23107
 C633 C 0.79122 0.37541 0.20878
 C634 C 0.78203 0.35121 0.23927
 H635 H 0.78667 0.43074 0.30030
 H636 H 0.79973 0.42254 0.20724
 H637 H 0.79772 0.37197 0.16773
 H638 H 0.78245 0.32942 0.22052
 H639 H 0.75529 0.36669 0.44330
 H640 H 0.75125 0.31709 0.40384
 C641 C 0.10834 0.26432 0.79838
 C642 C 0.10725 0.25803 0.85377
 C643 C 0.13395 0.25143 0.88135
 C644 C 0.16139 0.25081 0.85530
 C645 C 0.16322 0.25710 0.80077
 C646 C 0.13661 0.26503 0.77213
 C647 C 0.08193 0.26955 0.76824
 C648 C 0.08333 0.27746 0.71465
 C649 C 0.11093 0.28033 0.69005
 C650 C 0.13734 0.27427 0.71830
 H651 H 0.05997 0.26740 0.78551
 H652 H 0.06289 0.28169 0.69224
 H653 H 0.11189 0.28717 0.64875
 H654 H 0.15814 0.27751 0.69761
 H655 H 0.13356 0.24671 0.92366
 H656 H 0.18139 0.24486 0.87796
 C657 C 0.65184 0.75523 0.40609
 C658 C 0.62575 0.76167 0.37519
 C659 C 0.62836 0.76566 0.32019
 C660 C 0.65605 0.76299 0.29536
 C661 C 0.68213 0.75585 0.32447
 C662 C 0.68010 0.75109 0.38034
 C663 C 0.65053 0.75302 0.46214
 C664 C 0.67598 0.74493 0.49171
 C665 C 0.70302 0.73866 0.46629
 C666 C 0.70517 0.74155 0.41123
 H667 H 0.62999 0.75773 0.48366
 H668 H 0.67468 0.74318 0.53452
 H669 H 0.72251 0.73162 0.48940
 H670 H 0.72653 0.73567 0.39359
 H671 H 0.60865 0.77055 0.29606
 H672 H 0.65708 0.76666 0.25277
 C673 C 0.86845 0.74957 0.90475
 C674 C 0.89254 0.73965 0.87195
 C675 C 0.88737 0.73373 0.81818
 C676 C 0.85872 0.73691 0.79662
 C677 C 0.83430 0.74632 0.82803
 C678 C 0.83912 0.75333 0.88257
 C679 C 0.87312 0.75677 0.95879
 C680 C 0.84959 0.76765 0.99026
 C681 C 0.82112 0.77193 0.96851
 C682 C 0.81587 0.76516 0.91521
 H683 H 0.89500 0.75439 0.97706
 H684 H 0.85355 0.77322 1.03153
 H685 H 0.80305 0.78090 0.99293
 H686 H 0.79362 0.77003 0.90005
 H687 H 0.90571 0.72646 0.79270
 H688 H 0.85554 0.73167 0.75494
 C689 C 0.36490 0.21384 0.38004
 C690 C 0.38530 0.23661 0.36796
 C691 C 0.37684 0.25952 0.33239
 C692 C 0.34873 0.26019 0.30855
 C693 C 0.32812 0.23786 0.31912
 C694 C 0.33647 0.21381 0.35401
 C695 C 0.37200 0.19129 0.41805
 C696 C 0.35240 0.16822 0.42778
 C697 C 0.32560 0.16698 0.39969
 C698 C 0.31766 0.18939 0.36300
 H699 H 0.39260 0.19135 0.44078
 H700 H 0.35822 0.15099 0.45677
 H701 H 0.31081 0.14858 0.40645
 H702 H 0.29699 0.18687 0.34136
 H703 H 0.39220 0.27711 0.32305
 H704 H 0.34287 0.27869 0.28206
 C705 C 0.73554 0.88956 0.80689
 C706 C 0.74426 0.89346 0.86115
 C707 C 0.75403 0.86800 0.89044
 C708 C 0.75433 0.83947 0.86828
 C709 C 0.74506 0.83504 0.81584
 C710 C 0.73483 0.86004 0.78494
 C711 C 0.72938 0.91428 0.77267
 C712 C 0.71946 0.91004 0.72068
 C713 C 0.71606 0.88121 0.70114
 C714 C 0.72385 0.85639 0.73260
 H715 H 0.73276 0.93712 0.78513
 H716 H 0.71441 0.92926 0.69542
 H717 H 0.70790 0.87803 0.66100
 H718 H 0.72098 0.83446 0.71544
 H719 H 0.76049 0.86984 0.93187
 H720 H 0.76224 0.82063 0.89238
 C721 C 0.23008 0.38418 0.29952
 C722 C 0.23603 0.38776 0.35467
 C723 C 0.24286 0.36235 0.38587
 C724 C 0.24415 0.33383 0.36361
 C725 C 0.23832 0.32956 0.30941
 C726 C 0.23009 0.35476 0.27714
 C727 C 0.22449 0.40918 0.26585
 C728 C 0.21690 0.40527 0.21254
 C729 C 0.21476 0.37653 0.19169
 C730 C 0.22125 0.35148 0.22346
 H731 H 0.22610 0.43193 0.28012
 H732 H 0.21236 0.42465 0.18740
 H733 H 0.20821 0.37364 0.15057
 H734 H 0.21869 0.32969 0.20559
 H735 H 0.24725 0.36463 0.42808
 H736 H 0.25024 0.31489 0.38897
 C737 C 0.25991 0.11208 0.79061
 C738 C 0.25238 0.10974 0.84569
 C739 C 0.24381 0.13612 0.87315
 C740 C 0.24385 0.16405 0.84850
 C741 C 0.25227 0.16699 0.79528
 C742 C 0.26104 0.14098 0.76605
 C743 C 0.26448 0.08639 0.75825
 C744 C 0.27325 0.08906 0.70532
 C745 C 0.27716 0.11724 0.68310
 C746 C 0.27101 0.14301 0.71288
 H747 H 0.26073 0.06403 0.77297
 H748 H 0.27707 0.06912 0.68145
 H749 H 0.28449 0.11916 0.64225
 H750 H 0.27437 0.16440 0.69383
 H751 H 0.23817 0.13547 0.91502
 H752 H 0.23692 0.18366 0.87134
 C753 C 0.77185 0.61403 0.30051
 C754 C 0.76806 0.61246 0.35653
 C755 C 0.76527 0.63908 0.38581
 C756 C 0.76582 0.66691 0.36085
 C757 C 0.76944 0.66929 0.30561
 C758 C 0.77354 0.64263 0.27507
 C759 C 0.77355 0.58783 0.26899
 C760 C 0.77877 0.58957 0.21445
 C761 C 0.78238 0.61731 0.19024
 C762 C 0.77984 0.64360 0.22006
 H763 H 0.77069 0.56580 0.28597
 H764 H 0.78029 0.56927 0.19092
 H765 H 0.78707 0.61849 0.14806
 H766 H 0.78347 0.66445 0.19961
 H767 H 0.76254 0.63830 0.42862
 H768 H 0.76267 0.68686 0.38503
 C769 C 0.12686 0.77607 0.82829
 C770 C 0.11771 0.74862 0.85172
 C771 C 0.13727 0.72327 0.84905
 C772 C 0.16563 0.72501 0.82678
 C773 C 0.17543 0.75198 0.80567
 C774 C 0.15629 0.77795 0.80695
 C775 C 0.10693 0.80121 0.82240
 C776 C 0.11664 0.82822 0.80154
 C777 C 0.14613 0.83071 0.78515
 C778 C 0.16580 0.80586 0.78744
 H779 H 0.08352 0.80016 0.83271
 H780 H 0.10116 0.84732 0.79806
 H781 H 0.15368 0.85186 0.76967
 H782 H 0.18846 0.80883 0.77389
 H783 H 0.13121 0.70207 0.86655
 H784 H 0.18003 0.70499 0.82567
 C785 C 0.64116 0.24621 0.41584
 C786 C 0.61751 0.23667 0.38271
 C787 C 0.62298 0.23078 0.32900
 C788 C 0.65142 0.23375 0.30773
 C789 C 0.67541 0.24292 0.33929
 C790 C 0.67032 0.24972 0.39391
 C791 C 0.63617 0.25331 0.46993
 C792 C 0.65924 0.26369 0.50174
 C793 C 0.68748 0.26771 0.48022
 C794 C 0.69302 0.26109 0.42685
 H795 H 0.61440 0.25125 0.48801
 H796 H 0.65506 0.26905 0.54311
 H797 H 0.70516 0.27631 0.50491
 H798 H 0.71504 0.26564 0.41189
 H799 H 0.60502 0.22372 0.30327
 H800 H 0.65475 0.22863 0.26599
 C801 C 0.86464 0.23166 0.88328
 C802 C 0.88230 0.25699 0.87320
 C803 C 0.87083 0.28038 0.84106
 C804 C 0.84255 0.27886 0.81809
 C805 C 0.82489 0.25400 0.82694
 C806 C 0.83567 0.23017 0.85976
 C807 C 0.87472 0.20813 0.91731
 C808 C 0.85692 0.18354 0.92695
 C809 C 0.82878 0.18194 0.90332
 C810 C 0.81813 0.20501 0.87006
 H811 H 0.89609 0.20873 0.93757
 H812 H 0.86491 0.16574 0.95325
 H813 H 0.81505 0.16284 0.91109
 H814 H 0.79606 0.20304 0.85277
 H815 H 0.88405 0.29988 0.83329
 H816 H 0.83434 0.29723 0.79315
 C817 C 0.37493 0.73935 0.38590
 C818 C 0.39550 0.75907 0.36267
 C819 C 0.38708 0.77587 0.31767
 C820 C 0.35866 0.77345 0.29541
 C821 C 0.33767 0.75467 0.31825
 C822 C 0.34566 0.73732 0.36376
 C823 C 0.38267 0.72193 0.43121
 C824 C 0.36206 0.70291 0.45404
 C825 C 0.33353 0.70078 0.43219
 C826 C 0.32534 0.71771 0.38741
 H827 H 0.40452 0.72308 0.44967
 H828 H 0.36823 0.68985 0.48897
 H829 H 0.31764 0.68595 0.45004
 H830 H 0.30306 0.71523 0.37149
 H831 H 0.40268 0.79097 0.29964
 H832 H 0.35279 0.78676 0.26054
 C833 C 0.26523 0.88838 0.19768
 C834 C 0.26110 0.89022 0.14169
 C835 C 0.25850 0.86380 0.11228
 C836 C 0.25976 0.83590 0.13705
 C837 C 0.26407 0.83325 0.19217
 C838 C 0.26790 0.85966 0.22287
 C839 C 0.26638 0.91446 0.22937
 C840 C 0.27217 0.91242 0.28379
 C841 C 0.27695 0.88450 0.30768
 C842 C 0.27494 0.85834 0.27774
 H843 H 0.26264 0.93663 0.21261
 H844 H 0.27327 0.93263 0.30745
 H845 H 0.28214 0.88309 0.34973
 H846 H 0.27961 0.83733 0.29803
 H847 H 0.25553 0.86478 0.06948
 H848 H 0.25681 0.81613 0.11279
 C849 C 0.76374 0.38965 0.70754
 C850 C 0.75945 0.39250 0.65171
 C851 C 0.75464 0.36677 0.62138
 C852 C 0.75382 0.33862 0.64511
 C853 C 0.75817 0.33501 0.70004
 C854 C 0.76426 0.36058 0.73161
 C855 C 0.76715 0.41510 0.74018
 C856 C 0.77306 0.41192 0.79441
 C857 C 0.77572 0.38349 0.81717
 C858 C 0.77145 0.35802 0.78629
 H859 H 0.76510 0.43764 0.72433
 H860 H 0.77591 0.43163 0.81880
 H861 H 0.78101 0.38115 0.85907
 H862 H 0.77450 0.33650 0.80570
 H863 H 0.75150 0.36849 0.57869
 H864 H 0.74919 0.31947 0.62023
 C865 C 0.77424 0.12103 0.17762
 C866 C 0.74718 0.11247 0.15302
 C867 C 0.72206 0.13208 0.15450
 C868 C 0.72341 0.15997 0.17901
 C869 C 0.74997 0.16925 0.20268
 C870 C 0.77597 0.15003 0.20108
 C871 C 0.79963 0.10133 0.17962
 C872 C 0.82661 0.11063 0.20098
 C873 C 0.82888 0.13960 0.22070
 C874 C 0.80392 0.15918 0.22080
 H875 H 0.79887 0.07856 0.16501
 H876 H 0.84595 0.09537 0.20177
 H877 H 0.85006 0.14691 0.23625
 H878 H 0.80709 0.18155 0.23571
 H879 H 0.70129 0.12591 0.13567
 H880 H 0.70349 0.17448 0.17949
 C881 C 0.27105 0.62179 0.65807
 C882 C 0.24444 0.61408 0.63105
 C883 C 0.22075 0.63533 0.62693
 C884 C 0.22307 0.66394 0.64849
 C885 C 0.24920 0.67232 0.67476
 C886 C 0.27386 0.65141 0.67853
 C887 C 0.29492 0.60062 0.66549
 C888 C 0.32161 0.60888 0.68938
 C889 C 0.32510 0.63826 0.70624
 C890 C 0.30160 0.65938 0.70089
 H891 H 0.29318 0.57750 0.65322
 H892 H 0.33979 0.59246 0.69436
 H893 H 0.34611 0.64471 0.72375
 H894 H 0.30576 0.68200 0.71363
 H895 H 0.20035 0.62982 0.60617
 H896 H 0.20415 0.67965 0.64497
 C897 C 0.87170 0.72301 0.10449
 C898 C 0.89280 0.74426 0.12076
 C899 C 0.88486 0.76569 0.15898
 C900 C 0.85676 0.76593 0.18241
 C901 C 0.83548 0.74471 0.16860
 C902 C 0.84295 0.72274 0.12920
 C903 C 0.87857 0.70217 0.06370
 C904 C 0.85813 0.68078 0.04879
 C905 C 0.83069 0.67948 0.07448
 C906 C 0.82314 0.70003 0.11437
 H907 H 0.89967 0.70237 0.04269
 H908 H 0.86372 0.66495 0.01749
 H909 H 0.81512 0.66242 0.06343
 H910 H 0.80183 0.69739 0.13329
 H911 H 0.90077 0.78219 0.17135
 H912 H 0.85161 0.78302 0.21188
 C913 C 0.35612 0.24332 0.58643
 C914 C 0.38052 0.23570 0.62062
 C915 C 0.37547 0.23148 0.67490
 C916 C 0.34673 0.23424 0.69577
 C917 C 0.32200 0.24166 0.66323
 C918 C 0.32665 0.24690 0.60792
 C919 C 0.36058 0.24846 0.53155
 C920 C 0.33673 0.25719 0.49857
 C921 C 0.30819 0.26155 0.51961
 C922 C 0.30313 0.25681 0.57368
 H923 H 0.38250 0.24611 0.51368
 H924 H 0.34051 0.26112 0.45664
 H925 H 0.28989 0.26900 0.49397
 H926 H 0.28079 0.26176 0.58798
 H927 H 0.39402 0.22591 0.70140
 H928 H 0.34378 0.23033 0.73798
 C929 C 0.11822 0.28055 0.18199
 C930 C 0.11138 0.26129 0.13912
 C931 C 0.13329 0.24093 0.12002
 C932 C 0.16172 0.23926 0.14280
 C933 C 0.16888 0.25765 0.18570
 C934 C 0.14731 0.27878 0.20537
 C935 C 0.09672 0.30127 0.20259
 C936 C 0.10399 0.32033 0.24434
 C937 C 0.13262 0.31903 0.26644
 C938 C 0.15414 0.29845 0.24737
 H939 H 0.07418 0.30292 0.18677
 H940 H 0.08733 0.33622 0.25957
 H941 H 0.13818 0.33400 0.29861
 H942 H 0.17612 0.29826 0.26554
 H943 H 0.12830 0.22622 0.08710
 H944 H 0.17812 0.22306 0.12750
 C945 C 0.62560 0.78703 0.68402
 C946 C 0.61814 0.76626 0.64379
 C947 C 0.63903 0.74372 0.62909
 C948 C 0.66726 0.74179 0.65272
 C949 C 0.67515 0.76197 0.69249
 C950 C 0.65436 0.78478 0.70870
 C951 C 0.60498 0.80968 0.70091
 C952 C 0.61277 0.83001 0.74036
 C953 C 0.64099 0.82803 0.76400
 C954 C 0.66161 0.80559 0.74863
 H955 H 0.58271 0.81180 0.68405
 H956 H 0.59678 0.84735 0.75276
 H957 H 0.64691 0.84389 0.79456
 H958 H 0.68320 0.80472 0.76824
 H959 H 0.63352 0.72769 0.59849
 H960 H 0.68300 0.72420 0.64023
   
