data_POSCAR
  _audit_creation_date              2014-09-24
  _audit_creation_method            'ToBaCCo'
  _symmetry_space_group_name_H-M    'P1'
  _symmetry_Int_Tables_number       1
  _symmetry_cell_setting            triclinic
  loop_
  _symmetry_equiv_pos_as_xyz
 x,y,z
_cell_length_a 53.0773
_cell_length_b 34.6983
_cell_length_c 22.3361
_cell_angle_alpha 90.145500
_cell_angle_beta 89.831800
_cell_angle_gamma 89.963000
loop_
  _atom_site_label
  _atom_site_type_symbol
  _atom_site_fract_x
  _atom_site_fract_y
  _atom_site_fract_z
O1 O 0.74163 0.29194 0.56090
 O2 O 0.78265 0.25341 0.44138
 O3 O 0.74213 0.29652 0.44468
 O4 O 0.78209 0.24976 0.55763
 O5 O 0.75815 0.19786 0.55359
 O6 O 0.71932 0.24363 0.43683
 O7 O 0.75964 0.20061 0.43806
 O8 O 0.71726 0.24064 0.55264
 Cu9 Cu 0.76448 0.27816 0.50155
 Cu10 Cu 0.73621 0.21547 0.49486
 C11 C 0.72215 0.27310 0.57623
 C12 C 0.77852 0.21995 0.42016
 C13 C 0.72384 0.27821 0.42157
 C14 C 0.77705 0.21574 0.57475
 O15 O 0.27807 0.75185 0.43855
 O16 O 0.23823 0.79284 0.55695
 O17 O 0.27966 0.75169 0.55534
 O18 O 0.23570 0.78960 0.44138
 O19 O 0.21374 0.73571 0.44766
 O20 O 0.25791 0.69756 0.55784
 O21 O 0.21674 0.73865 0.56273
 O22 O 0.25649 0.69756 0.44192
 Cu23 Cu 0.26017 0.77684 0.49774
 Cu24 Cu 0.23411 0.71191 0.50284
 C25 C 0.27425 0.71778 0.42001
 C26 C 0.22035 0.77331 0.57952
 C27 C 0.27637 0.71777 0.57543
 C28 C 0.21681 0.76925 0.42646
 O29 O 0.27961 0.24552 -0.44388
 O30 O 0.23639 0.21421 -0.56288
 O31 O 0.27935 0.25098 -0.56028
 O32 O 0.23615 0.21029 -0.44714
 O33 O 0.21670 0.26627 -0.44069
 O34 O 0.25923 0.30651 -0.55425
 O35 O 0.21636 0.26975 -0.55745
 O36 O 0.26000 0.30151 -0.43881
 Cu37 Cu 0.25989 0.22470 -0.50416
 Cu38 Cu 0.23603 0.29152 -0.49727
 C39 C 0.27739 0.27900 -0.42133
 C40 C 0.21878 0.23631 -0.58028
 C41 C 0.27678 0.28593 -0.57615
 C42 C 0.21892 0.23134 -0.42460
 O43 O -0.25572 0.69664 -0.55126
 O44 O -0.21827 0.74562 -0.43517
 O45 O -0.25805 0.70140 -0.43600
 O46 O -0.21550 0.74064 -0.55073
 O47 O -0.24044 0.79112 -0.56139
 O48 O -0.28165 0.75352 -0.44163
 O49 O -0.24164 0.79777 -0.44550
 O50 O -0.28027 0.74780 -0.55771
 Cu51 Cu -0.23444 0.71594 -0.49254
 Cu52 Cu -0.26343 0.77772 -0.50218
 C53 C -0.27469 0.71367 -0.57356
 C54 C -0.22325 0.78035 -0.42138
 C55 C -0.27726 0.72050 -0.41928
 C56 C -0.22067 0.77254 -0.57562
 N57 N 0.02916 1.06602 -0.06877
 N58 N 0.04866 1.08854 -0.07991
 N59 N -0.02511 1.04234 -0.10557
 N60 N -0.04430 1.04781 -0.14200
 N61 N -0.02373 1.07033 -0.06604
 N62 N -0.04188 1.09575 -0.07480
 N63 N 0.02789 1.03808 -0.10840
 N64 N 0.04660 1.04058 -0.14718
 C65 C 0.05941 1.07217 -0.12887
 C66 C -0.05461 1.08124 -0.12231
 N67 N -0.02826 0.93358 -0.05875
 N68 N -0.04730 0.90963 -0.06610
 N69 N 0.02518 0.95541 -0.10431
 N70 N 0.04338 0.94764 -0.14293
 N71 N 0.02452 0.92938 -0.06182
 N72 N 0.04207 0.90299 -0.07062
 N73 N -0.02788 0.95954 -0.10139
 N74 N -0.04677 0.95409 -0.13876
 Mn75 Mn 0.00000 0.99886 -0.10563
 C76 C -0.05879 0.92292 -0.11601
 C77 C 0.05377 0.91486 -0.12129
 N78 N -0.02255 1.07326 0.06306
 N79 N -0.04035 1.09933 0.07151
 N80 N 0.02968 1.04273 0.10279
 N81 N 0.04852 1.04748 0.14038
 N82 N 0.03027 1.06907 0.06071
 N83 N 0.04941 1.09285 0.06912
 N84 N -0.02332 1.04702 0.10529
 N85 N -0.04180 1.05430 0.14329
 Mn86 Mn 0.00332 1.07017 -0.00283
 C87 C -0.05225 1.08702 0.12166
 C88 C 0.06072 1.07874 0.11884
 N89 N 0.02593 0.93271 0.06678
 N90 N 0.04470 0.90817 0.07409
 N91 N -0.02582 0.96415 0.11026
 N92 N -0.04278 0.95908 0.15277
 N93 N -0.02726 0.93659 0.07005
 N94 N -0.04555 0.91229 0.08372
 N95 N 0.02683 0.96012 0.10732
 N96 N 0.04596 0.95474 0.14386
 Mn97 Mn -0.00129 0.93262 0.00413
 Mn98 Mn 0.00183 1.00357 0.10701
 Cl99 Cl 0.00095 1.00130 0.00065
 C100 C 0.05697 0.92230 0.12249
 C101 C -0.05515 0.92691 0.13529
 N102 N 0.47438 0.43428 -0.06974
 N103 N 0.45543 0.41030 -0.07928
 N104 N 0.52628 0.46485 -0.11186
 N105 N 0.54343 0.46046 -0.15416
 N106 N 0.52751 0.43655 -0.07307
 N107 N 0.54581 0.41241 -0.08746
 N108 N 0.47346 0.46320 -0.10746
 N109 N 0.45387 0.45997 -0.14315
 C110 C 0.44278 0.42686 -0.12525
 C111 C 0.55564 0.42786 -0.13802
 N112 N 0.52490 0.57331 -0.05920
 N113 N 0.54282 0.59919 -0.06732
 N114 N 0.47212 0.54566 -0.09905
 N115 N 0.45376 0.55292 -0.13701
 N116 N 0.47211 0.57099 -0.05531
 N117 N 0.45388 0.59646 -0.06270
 N118 N 0.52515 0.54773 -0.10264
 N119 N 0.54336 0.55529 -0.14117
 Mn120 Mn 0.49927 0.50538 -0.10584
 C121 C 0.55425 0.58744 -0.11856
 C122 C 0.44245 0.58455 -0.11363
 N123 N 0.52908 0.43101 0.05563
 N124 N 0.54773 0.40612 0.06209
 N125 N 0.47632 0.45419 0.10322
 N126 N 0.45800 0.44708 0.14160
 N127 N 0.47617 0.42888 0.05943
 N128 N 0.45785 0.40360 0.06717
 N129 N 0.52931 0.45656 0.09909
 N130 N 0.54816 0.44995 0.13599
 Mn131 Mn 0.50178 0.43216 -0.00702
 C132 C 0.55958 0.41850 0.11227
 C133 C 0.44663 0.41546 0.11861
 N134 N 0.47352 0.56531 0.07358
 N135 N 0.45354 0.58697 0.08457
 N136 N 0.52778 0.53929 0.10756
 N137 N 0.54728 0.54362 0.14351
 N138 N 0.52650 0.56793 0.06942
 N139 N 0.54499 0.59261 0.07851
 N140 N 0.47473 0.53668 0.11178
 N141 N 0.45557 0.53791 0.14946
 Mn142 Mn 0.49922 0.56985 0.00726
 Mn143 Mn 0.50208 0.49668 0.10608
 Cl144 Cl 0.50060 0.50100 0.00010
 C145 C 0.44253 0.56947 0.13216
 C146 C 0.55784 0.57704 0.12481
 C147 C 0.29508 0.34358 0.37304
 C148 C 0.31303 0.36068 0.33590
 C149 C 0.33068 0.33808 0.30532
 C150 C 0.33004 0.29779 0.31162
 C151 C 0.31223 0.28059 0.34942
 C152 C 0.29469 0.30339 0.38091
 N153 N 0.34977 0.35703 0.27100
 N154 N 0.36488 0.33914 0.23640
 C155 C 0.38458 0.35908 0.20532
 C156 C 0.39815 0.33999 0.16029
 C157 C 0.41805 0.35853 0.13087
 C158 C 0.42491 0.39624 0.14705
 C159 C 0.41120 0.41538 0.19200
 C160 C 0.39112 0.39709 0.22064
 H161 H 0.28192 0.36198 0.39680
 H162 H 0.31343 0.39175 0.33155
 H163 H 0.34364 0.27977 0.28860
 H164 H 0.31238 0.24957 0.35455
 H165 H 0.39335 0.31066 0.14819
 H166 H 0.42839 0.34314 0.09644
 H167 H 0.41603 0.44452 0.20516
 H168 H 0.38103 0.41243 0.25551
 C169 C -0.21185 0.81158 0.33252
 C170 C -0.19484 0.82827 0.29221
 C171 C -0.16886 0.82352 0.30007
 C172 C -0.16005 0.80043 0.34715
 C173 C -0.17703 0.78278 0.38627
 C174 C -0.20305 0.78877 0.37996
 N175 N -0.15166 0.84303 0.26104
 N176 N -0.12999 0.85316 0.27946
 C177 C -0.11196 0.87198 0.24189
 C178 C -0.09339 0.89472 0.26868
 C179 C -0.07529 0.91328 0.23368
 C180 C -0.07499 0.90828 0.17130
 C181 C -0.09341 0.88500 0.14432
 C182 C -0.11204 0.86736 0.17935
 H183 H -0.23185 0.81646 0.32669
 H184 H -0.20185 0.84594 0.25599
 H185 H -0.14004 0.79612 0.35364
 H186 H -0.16980 0.76544 0.42265
 H187 H -0.09309 0.89831 0.31685
 H188 H -0.06117 0.93086 0.25554
 H189 H -0.09350 0.88077 0.09626
 H190 H -0.12614 0.84956 0.15791
 C191 C 0.70994 0.65298 0.37779
 C192 C 0.69282 0.63358 0.34099
 C193 C 0.67484 0.65416 0.30837
 C194 C 0.67445 0.69459 0.31195
 C195 C 0.69132 0.71397 0.34922
 C196 C 0.70903 0.69334 0.38310
 N197 N 0.65629 0.63345 0.27478
 N198 N 0.64099 0.65060 0.24012
 C199 C 0.62134 0.63069 0.20912
 C200 C 0.60725 0.65069 0.16646
 C201 C 0.58691 0.63294 0.13803
 C202 C 0.58014 0.59497 0.15259
 C203 C 0.59448 0.57471 0.19490
 C204 C 0.61502 0.59237 0.22281
 H205 H 0.72330 0.63631 0.40357
 H206 H 0.69326 0.60241 0.33874
 H207 H 0.66066 0.71116 0.28731
 H208 H 0.69022 0.74509 0.35225
 H209 H 0.61188 0.68028 0.15577
 H210 H 0.57617 0.64923 0.10561
 H211 H 0.58971 0.54536 0.20676
 H212 H 0.62557 0.57641 0.25594
 C213 C 0.18236 1.24740 0.35453
 C214 C 0.16460 1.23342 0.31364
 C215 C 0.16553 1.19509 0.29417
 C216 C 0.18509 1.17116 0.31423
 C217 C 0.20306 1.18515 0.35431
 C218 C 0.20170 1.22328 0.37607
 N219 N 0.14590 1.18055 0.25632
 N220 N 0.14297 1.14450 0.24829
 C221 C 0.12326 1.12866 0.21222
 C222 C 0.11783 1.08940 0.21767
 C223 C 0.09769 1.07317 0.18654
 C224 C 0.08295 1.09585 0.14820
 C225 C 0.08896 1.13499 0.14082
 C226 C 0.10885 1.15145 0.17316
 H227 H 0.18069 1.27696 0.36974
 H228 H 0.14964 1.25220 0.29843
 H229 H 0.18635 1.14148 0.29947
 H230 H 0.21765 1.16562 0.36933
 H231 H 0.12884 1.07155 0.24750
 H232 H 0.09353 1.04288 0.19275
 H233 H 0.07781 1.15305 0.11159
 H234 H 0.11283 1.18186 0.16804
 C235 C 0.71323 0.31304 -0.33268
 C236 C 0.69614 0.33011 -0.29280
 C237 C 0.67018 0.32520 -0.30081
 C238 C 0.66146 0.30159 -0.34749
 C239 C 0.67852 0.28355 -0.38613
 C240 C 0.70451 0.28968 -0.37971
 N241 N 0.65289 0.34497 -0.26224
 N242 N 0.63142 0.35549 -0.28140
 C243 C 0.61324 0.37426 -0.24408
 C244 C 0.59499 0.39756 -0.27088
 C245 C 0.57664 0.41581 -0.23602
 C246 C 0.57579 0.40989 -0.17391
 C247 C 0.59392 0.38615 -0.14698
 C248 C 0.61279 0.36883 -0.18177
 H249 H 0.73321 0.31803 -0.32685
 H250 H 0.70306 0.34817 -0.25684
 H251 H 0.64146 0.29716 -0.35401
 H252 H 0.67137 0.26580 -0.42225
 H253 H 0.59511 0.40176 -0.31890
 H254 H 0.56274 0.43379 -0.25780
 H255 H 0.59358 0.38123 -0.09911
 H256 H 0.62663 0.35057 -0.16037
 C257 C 0.20674 0.83013 -0.36417
 C258 C 0.18922 0.84862 -0.32727
 C259 C 0.16897 0.82824 -0.30290
 C260 C 0.16666 0.78862 -0.31484
 C261 C 0.18400 0.77006 -0.35252
 C262 C 0.20410 0.79073 -0.37853
 N263 N 0.15037 0.84898 -0.26923
 N264 N 0.13330 0.83229 -0.23873
 C265 C 0.11411 0.85380 -0.20813
 C266 C 0.09918 0.83538 -0.16512
 C267 C 0.07985 0.85544 -0.13587
 C268 C 0.07482 0.89408 -0.15030
 C269 C 0.08979 0.91253 -0.19350
 C270 C 0.10941 0.89267 -0.22187
 H271 H 0.22191 0.84718 -0.38295
 H272 H 0.19118 0.87917 -0.31840
 H273 H 0.15106 0.77231 -0.29658
 H274 H 0.18130 0.73973 -0.36216
 H275 H 0.10254 0.80542 -0.15430
 H276 H 0.06852 0.84053 -0.10286
 H277 H 0.08635 0.94233 -0.20530
 H278 H 0.12058 0.90747 -0.25528
 C279 C 0.29371 0.66088 -0.37061
 C280 C 0.31132 0.64384 -0.33286
 C281 C 0.32967 0.66619 -0.30468
 C282 C 0.33020 0.70621 -0.31431
 C283 C 0.31271 0.72335 -0.35290
 C284 C 0.29436 0.70075 -0.38166
 N285 N 0.34817 0.64697 -0.26921
 N286 N 0.36359 0.66459 -0.23533
 C287 C 0.38252 0.64381 -0.20312
 C288 C 0.39624 0.66251 -0.15818
 C289 C 0.41536 0.64298 -0.12761
 C290 C 0.42128 0.60466 -0.14257
 C291 C 0.40739 0.58591 -0.18735
 C292 C 0.38809 0.60519 -0.21711
 H293 H 0.27992 0.64259 -0.39224
 H294 H 0.31084 0.61296 -0.32596
 H295 H 0.34440 0.72397 -0.29319
 H296 H 0.31366 0.75412 -0.36056
 H297 H 0.39218 0.69227 -0.14706
 H298 H 0.42588 0.65809 -0.09337
 H299 H 0.41154 0.55635 -0.19960
 H300 H 0.37785 0.59012 -0.25185
 C301 C -0.20703 1.15628 -0.37420
 C302 C -0.18961 1.13775 -0.33722
 C303 C -0.17130 1.15898 -0.30659
 C304 C -0.17084 1.19929 -0.31251
 C305 C -0.18803 1.21782 -0.35003
 C306 C -0.20614 1.19648 -0.38180
 N307 N -0.15260 1.13888 -0.27260
 N308 N -0.13697 1.15637 -0.23904
 C309 C -0.11737 1.13640 -0.20781
 C310 C -0.10300 1.15640 -0.16546
 C311 C -0.08290 1.13826 -0.13652
 C312 C -0.07663 1.09991 -0.15035
 C313 C -0.09121 1.07975 -0.19245
 C314 C -0.11151 1.09775 -0.22074
 H315 H -0.22066 1.13902 -0.39827
 H316 H -0.19011 1.10666 -0.33319
 H317 H -0.15679 1.21634 -0.28948
 H318 H -0.18690 1.24882 -0.35484
 H319 H -0.10727 1.18623 -0.15528
 H320 H -0.07195 1.15448 -0.10432
 H321 H -0.08685 1.05011 -0.20379
 H322 H -0.12224 1.08172 -0.25355
 C323 C 0.70938 0.66626 -0.35724
 C324 C 0.69164 0.64895 -0.31968
 C325 C 0.67049 0.66945 -0.30013
 C326 C 0.66736 0.70796 -0.31789
 C327 C 0.68486 0.72522 -0.35642
 C328 C 0.70599 0.70442 -0.37728
 N329 N 0.65182 0.64973 -0.26544
 N330 N 0.63437 0.66726 -0.23721
 C331 C 0.61509 0.64652 -0.20591
 C332 C 0.60009 0.66582 -0.16374
 C333 C 0.58063 0.64641 -0.13405
 C334 C 0.57553 0.60760 -0.14735
 C335 C 0.59056 0.58830 -0.18969
 C336 C 0.61032 0.60747 -0.21836
 H337 H 0.72532 0.64917 -0.37201
 H338 H 0.69420 0.61922 -0.30637
 H339 H 0.65103 0.72428 -0.30352
 H340 H 0.68158 0.75464 -0.37050
 H341 H 0.60350 0.69594 -0.15394
 H342 H 0.56923 0.66195 -0.10174
 H343 H 0.58704 0.55836 -0.20065
 H344 H 0.62151 0.59201 -0.25114
 C345 C 0.18371 1.23952 -0.35483
 C346 C 0.16614 1.22389 -0.31505
 C347 C 0.16611 1.18442 -0.30288
 C348 C 0.18449 1.16069 -0.32934
 C349 C 0.20240 1.17632 -0.36837
 C350 C 0.20198 1.21589 -0.38255
 N351 N 0.14671 1.16905 -0.26522
 N352 N 0.14249 1.13304 -0.26168
 C353 C 0.12267 1.11781 -0.22515
 C354 C 0.11532 1.07947 -0.23339
 C355 C 0.09488 1.06446 -0.20155
 C356 C 0.08177 1.08750 -0.16007
 C357 C 0.08971 1.12559 -0.15025
 C358 C 0.10989 1.14078 -0.18291
 H359 H 0.18279 1.27012 -0.36406
 H360 H 0.15208 1.24246 -0.29479
 H361 H 0.18491 1.13007 -0.32023
 H362 H 0.21616 1.15715 -0.38848
 H363 H 0.12505 1.06149 -0.26572
 H364 H 0.08923 1.03492 -0.20966
 H365 H 0.07991 1.14392 -0.11849
 H366 H 0.11535 1.17047 -0.17556
 C367 C 0.31267 0.26628 -0.34939
 C368 C 0.33090 0.27937 -0.30905
 C369 C 0.33258 0.31856 -0.29467
 C370 C 0.31516 0.34447 -0.31958
 C371 C 0.29677 0.33139 -0.35938
 C372 C 0.29558 0.29225 -0.37552
 N373 N 0.35275 0.33163 -0.25718
 N374 N 0.35737 0.36737 -0.25052
 C375 C 0.37786 0.38156 -0.21525
 C376 C 0.38395 0.42065 -0.21924
 C377 C 0.40486 0.43532 -0.18915
 C378 C 0.41986 0.41117 -0.15359
 C379 C 0.41326 0.37215 -0.14773
 C380 C 0.39249 0.35730 -0.17882
 H381 H 0.31217 0.23593 -0.36072
 H382 H 0.34419 0.25909 -0.29018
 H383 H 0.31598 0.37491 -0.30902
 H384 H 0.28390 0.35212 -0.37871
 H385 H 0.37280 0.43961 -0.24707
 H386 H 0.40940 0.46558 -0.19414
 H387 H 0.42455 0.35297 -0.12059
 H388 H 0.38804 0.32697 -0.17492
 C389 C -0.20765 0.84153 -0.37496
 C390 C -0.19073 0.86137 -0.33828
 C391 C -0.17318 0.84120 -0.30384
 C392 C -0.17294 0.80071 -0.30567
 C393 C -0.18962 0.78083 -0.34293
 C394 C -0.20698 0.80107 -0.37842
 N395 N -0.15494 0.86243 -0.27011
 N396 N -0.14037 0.84617 -0.23275
 C397 C -0.12111 0.86693 -0.20164
 C398 C -0.10822 0.84868 -0.15512
 C399 C -0.08833 0.86729 -0.12615
 C400 C -0.08078 0.90432 -0.14410
 C401 C -0.09393 0.92283 -0.19034
 C402 C -0.11404 0.90438 -0.21872
 H403 H -0.22071 0.85793 -0.40199
 H404 H -0.19102 0.89257 -0.33740
 H405 H -0.15945 0.78449 -0.27963
 H406 H -0.18869 0.74967 -0.34458
 H407 H -0.11343 0.81978 -0.14174
 H408 H -0.07850 0.85235 -0.09071
 H409 H -0.08853 0.95142 -0.20488
 H410 H -0.12365 0.91898 -0.25483
 C411 C 0.30589 0.72625 0.33807
 C412 C 0.32376 0.71129 0.29830
 C413 C 0.32764 0.67152 0.29414
 C414 C 0.31255 0.64656 0.32844
 C415 C 0.29434 0.66149 0.36766
 C416 C 0.29125 0.70154 0.37382
 N417 N 0.34783 0.65758 0.25729
 N418 N 0.35520 0.62269 0.25875
 C419 C 0.37610 0.60926 0.22366
 C420 C 0.38553 0.57226 0.23416
 C421 C 0.40699 0.55920 0.20392
 C422 C 0.41923 0.58290 0.16199
 C423 C 0.40932 0.61963 0.15009
 C424 C 0.38800 0.63284 0.18095
 H425 H 0.30383 0.75723 0.34159
 H426 H 0.33522 0.73081 0.27206
 H427 H 0.31515 0.61565 0.32578
 H428 H 0.28338 0.64180 0.39478
 H429 H 0.37655 0.55382 0.26692
 H430 H 0.41411 0.53065 0.21369
 H431 H 0.41837 0.63843 0.11792
 H432 H 0.38101 0.66156 0.17192
 C433 C -0.20790 1.16524 0.35901
 C434 C -0.19016 1.14786 0.32143
 C435 C -0.16929 1.16856 0.30103
 C436 C -0.16648 1.20736 0.31780
 C437 C -0.18400 1.22472 0.35625
 C438 C -0.20480 1.20371 0.37810
 N439 N -0.15051 1.14883 0.26658
 N440 N -0.13308 1.16642 0.23861
 C441 C -0.11362 1.14576 0.20766
 C442 C -0.09835 1.16523 0.16649
 C443 C -0.07867 1.14594 0.13730
 C444 C -0.07367 1.10706 0.15010
 C445 C -0.08900 1.08758 0.19142
 C446 C -0.10895 1.10665 0.21961
 H447 H -0.22361 1.14800 0.37455
 H448 H -0.19246 1.11790 0.30885
 H449 H -0.15037 1.22386 0.30272
 H450 H -0.18096 1.25439 0.36958
 H451 H -0.10169 1.19541 0.15712
 H452 H -0.06704 1.16161 0.10575
 H453 H -0.08556 1.05758 0.20193
 H454 H -0.12037 1.09107 0.25165
 C455 C 0.70806 0.33803 0.37162
 C456 C 0.69110 0.35691 0.33396
 C457 C 0.67330 0.33597 0.30128
 C458 C 0.67282 0.29559 0.30603
 C459 C 0.68958 0.27666 0.34430
 C460 C 0.70724 0.29774 0.37793
 N461 N 0.65511 0.35654 0.26647
 N462 N 0.64018 0.33983 0.23026
 C463 C 0.62114 0.36074 0.19850
 C464 C 0.60768 0.34225 0.15290
 C465 C 0.58808 0.36134 0.12344
 C466 C 0.58138 0.39908 0.14003
 C467 C 0.59511 0.41775 0.18527
 C468 C 0.61491 0.39886 0.21403
 H469 H 0.72134 0.35511 0.39708
 H470 H 0.69158 0.38804 0.33088
 H471 H 0.65912 0.27880 0.28143
 H472 H 0.68850 0.24560 0.34814
 H473 H 0.61224 0.31284 0.14062
 H474 H 0.57775 0.34627 0.08882
 H475 H 0.59040 0.44688 0.19881
 H476 H 0.62494 0.41375 0.24932
 C477 C 0.17205 0.77545 0.39657
 C478 C 0.15307 0.79237 0.36259
 C479 C 0.15910 0.81822 0.31692
 C480 C 0.18446 0.82735 0.30557
 C481 C 0.20351 0.81132 0.34097
 C482 C 0.19739 0.78519 0.38668
 N483 N 0.13901 0.83643 0.28539
 N484 N 0.14130 0.84897 0.23222
 C485 C 0.12072 0.86849 0.20435
 C486 C 0.11688 0.86468 0.14263
 C487 C 0.09592 0.88187 0.11567
 C488 C 0.07914 0.90418 0.15000
 C489 C 0.08355 0.90904 0.21144
 C490 C 0.10398 0.89090 0.23858
 H491 H 0.16685 0.75572 0.43203
 H492 H 0.13356 0.78543 0.37194
 H493 H 0.18940 0.84771 0.27083
 H494 H 0.22294 0.81930 0.33279
 H495 H 0.12972 0.84754 0.11581
 H496 H 0.09293 0.87803 0.06807
 H497 H 0.07086 0.92615 0.23874
 H498 H 0.10681 0.89448 0.28626
   
