data_POSCAR
  _audit_creation_date              2014-09-24
  _audit_creation_method            'ToBaCCo'
  _symmetry_space_group_name_H-M    'P1'
  _symmetry_Int_Tables_number       1
  _symmetry_cell_setting            triclinic
  loop_
  _symmetry_equiv_pos_as_xyz
 x,y,z
_cell_length_a 34.2922
_cell_length_b 34.3477
_cell_length_c 34.3930
_cell_angle_alpha 89.939400
_cell_angle_beta 89.949100
_cell_angle_gamma 89.921200
loop_
  _atom_site_label
  _atom_site_type_symbol
  _atom_site_fract_x
  _atom_site_fract_y
  _atom_site_fract_z
C1 C 0.31982 0.36822 1.37088
 C2 C 0.33445 0.38674 1.33758
 C3 C 0.36760 0.37195 1.31885
 C4 C 0.38621 0.33866 1.33346
 C5 C 0.37164 0.32009 1.36675
 C6 C 0.33846 0.33492 1.38547
 H7 H 0.31989 0.41229 1.32598
 H8 H 0.41165 0.32706 1.31867
 H9 H 0.32693 0.32035 1.41103
 C10 C 1.18007 0.63213 0.87379
 C11 C 1.16138 0.66535 0.88845
 C12 C 1.12803 0.68002 0.86999
 C13 C 1.11331 0.66142 0.83689
 C14 C 1.13193 0.62822 0.82218
 C15 C 1.16527 0.61356 0.84065
 H16 H 1.17296 0.68005 0.91385
 H17 H 1.08774 0.67301 0.82236
 H18 H 1.17986 0.58807 0.82895
 C19 C 0.68042 -0.13256 0.12640
 C20 C 0.66552 -0.11401 0.15955
 C21 C 0.63212 -0.12859 0.17793
 C22 C 0.61353 -0.16171 0.16314
 C23 C 0.62835 -0.18030 0.13003
 C24 C 0.66177 -0.16571 0.11164
 H25 H 0.68007 -0.08858 0.17131
 H26 H 0.58790 -0.17324 0.17761
 H27 H 0.67343 -0.18039 0.08623
 C28 C -0.18140 1.13068 -0.37063
 C29 C -0.16685 1.11217 -0.33729
 C30 C -0.13369 1.12686 -0.31861
 C31 C -0.11502 1.16002 -0.33332
 C32 C -0.12951 1.17855 -0.36662
 C33 C -0.16266 1.16386 -0.38529
 H34 H -0.18147 1.08671 -0.32561
 H35 H -0.08959 1.17163 -0.31865
 H36 H -0.17404 1.17849 -0.41086
 C37 C 0.67942 0.63397 0.62615
 C38 C 0.66452 0.61540 0.65926
 C39 C 0.63117 0.63009 0.67770
 C40 C 0.61265 0.66336 0.66297
 C41 C 0.62750 0.68201 0.62984
 C42 C 0.66090 0.66724 0.61142
 H43 H 0.67908 0.58988 0.67089
 H44 H 0.58705 0.67490 0.67754
 H45 H 0.67274 0.68180 0.58601
 C46 C 0.82085 0.36843 0.12932
 C47 C 0.83552 0.38693 0.16251
 C48 C 0.86864 0.37209 0.18121
 C49 C 0.88716 0.33874 0.16665
 C50 C 0.87252 0.32018 0.13345
 C51 C 0.83937 0.33510 0.11478
 H52 H 0.82095 0.41251 0.17400
 H53 H 0.91258 0.32708 0.18141
 H54 H 0.82770 0.32062 0.08930
 C55 C 0.31852 0.13102 0.87067
 C56 C 0.33319 0.11251 0.83739
 C57 C 0.36639 0.12723 0.81872
 C58 C 0.38498 0.16041 0.83336
 C59 C 0.37038 0.17894 0.86660
 C60 C 0.33719 0.16422 0.88527
 H61 H 0.31863 0.08703 0.82576
 H62 H 0.41045 0.17204 0.81869
 H63 H 0.32572 0.17885 0.91079
 C64 C 0.18095 0.86782 0.37378
 C65 C 0.16244 0.83454 0.38849
 C66 C 0.12913 0.81984 0.37007
 C67 C 0.11428 0.83847 0.33698
 C68 C 0.13274 0.87172 0.32223
 C69 C 0.16603 0.88641 0.34065
 H70 H 0.17411 0.81982 0.41388
 H71 H 0.08875 0.82686 0.32249
 H72 H 0.18048 0.91195 0.32892
 Zn73 Zn 0.04753 0.97758 0.00954
 Zn74 Zn 0.00741 1.04824 -0.02143
 Zn75 Zn -0.03066 0.97003 -0.02862
 Zn76 Zn -0.02346 1.00838 0.04932
 O77 O 0.00016 1.00102 0.00216
 O78 O 0.08744 1.00592 -0.00860
 O79 O -0.01714 1.05160 -0.06712
 O80 O -0.00664 0.92579 -0.04304
 O81 O 0.05762 1.05835 -0.03166
 O82 O 0.05103 0.93167 -0.01457
 O83 O -0.04531 0.99382 -0.07283
 O84 O -0.06936 0.98399 0.05275
 O85 O -0.01042 1.08820 0.00697
 O86 O -0.07494 0.95545 -0.00477
 O87 O -0.03344 1.05857 0.05944
 O88 O 0.00501 0.99052 0.08921
 O89 O 0.05778 0.96780 0.05967
 C90 C 0.08833 1.03877 -0.02539
 C91 C -0.03805 1.02765 -0.08575
 C92 C 0.02719 0.91291 -0.03550
 C93 C -0.08797 0.96293 0.02893
 C94 C -0.02702 1.08920 0.03989
 C95 C 0.03809 0.97407 0.09023
 Zn96 Zn 0.47671 0.00859 0.45099
 Zn97 Zn 0.46954 -0.02984 0.52901
 Zn98 Zn 0.54771 -0.02227 0.49064
 Zn99 Zn 0.50762 0.04838 0.52160
 O100 O 0.50035 0.00117 0.49810
 O101 O 0.43082 -0.01578 0.44772
 O102 O 0.49358 -0.07410 0.54345
 O103 O 0.55790 -0.03206 0.44050
 O104 O 0.42525 -0.04441 0.50526
 O105 O 0.50512 -0.00928 0.41106
 O106 O 0.55123 -0.06819 0.51483
 O107 O 0.55784 0.05846 0.53171
 O108 O 0.45491 -0.00607 0.57321
 O109 O 0.58764 0.00605 0.50863
 O110 O 0.48310 0.05170 0.56735
 O111 O 0.48975 0.08838 0.49320
 O112 O 0.46671 0.05878 0.44083
 C113 C 0.41221 -0.03687 0.47159
 C114 C 0.52742 -0.08697 0.53585
 C115 C 0.53818 -0.02578 0.40998
 C116 C 0.58854 0.03888 0.52539
 C117 C 0.46219 0.02775 0.58606
 C118 C 0.47311 0.08939 0.46033
 Zn119 Zn 1.00864 0.45152 0.47835
 Zn120 Zn 1.04854 0.52208 0.50938
 Zn121 Zn 0.97053 0.52978 0.47077
 Zn122 Zn 0.97736 0.49144 0.54885
 O123 O 1.00122 0.49875 0.50179
 O124 O 1.05891 0.44130 0.46840
 O125 O 1.05210 0.56799 0.48522
 O126 O 0.95613 0.50601 0.42652
 O127 O 1.08858 0.49368 0.49147
 O128 O 0.98436 0.44820 0.43253
 O129 O 0.99459 0.57398 0.45640
 O130 O 0.93146 0.51597 0.55199
 O131 O 1.05853 0.53184 0.55955
 O132 O 0.92611 0.54448 0.49437
 O133 O 1.00562 0.50921 0.58887
 O134 O 0.96728 0.44129 0.55898
 O135 O 0.99063 0.41160 0.50671
 C136 C 1.08957 0.46083 0.47475
 C137 C 1.02837 0.58681 0.46413
 C138 C 0.96352 0.47217 0.41373
 C139 C 0.91294 0.53705 0.52804
 C140 C 1.03868 0.52561 0.59002
 C141 C 0.97379 0.41065 0.53951
 Zn142 Zn 0.47642 0.49196 0.95090
 Zn143 Zn 0.54742 0.52275 0.99035
 Zn144 Zn 0.46932 0.53017 1.02898
 Zn145 Zn 0.50767 0.45202 1.02142
 O146 O 0.50016 0.49927 0.99796
 O147 O 0.50466 0.50994 0.91087
 O148 O 0.55083 0.56860 1.01455
 O149 O 0.42489 0.54475 1.00536
 O150 O 0.55743 0.53270 0.94019
 O151 O 0.43045 0.51630 0.94777
 O152 O 0.49325 0.57441 1.04335
 O153 O 0.48334 0.44855 1.06725
 O154 O 0.58750 0.49442 1.00820
 O155 O 0.45492 0.50626 1.07324
 O156 O 0.55795 0.44192 1.03133
 O157 O 0.48981 0.41209 0.99309
 O158 O 0.46653 0.44179 0.94077
 C159 C 0.53765 0.52649 0.90972
 C160 C 0.52702 0.58732 1.03564
 C161 C 0.41181 0.53729 0.97170
 C162 C 0.46239 0.47243 1.08605
 C163 C 0.58857 0.46154 1.02493
 C164 C 0.47306 0.41114 0.96027
 C165 C 1.28685 0.38188 0.38835
 C166 C 1.25740 0.39379 0.40339
 C167 C 1.22256 0.40763 0.42037
 C168 C 1.19251 0.41950 0.43419
 C169 C 1.15696 0.43355 0.44947
 C170 C 1.12633 0.44581 0.46159
 C171 C 0.21325 0.61859 0.89091
 C172 C 0.24291 0.60664 0.90549
 C173 C 0.27800 0.59257 0.92173
 C174 C 0.30827 0.58040 0.93477
 C175 C 0.34405 0.56584 0.94894
 C176 C 0.37487 0.55304 0.95999
 C177 C -0.28636 0.88096 0.10936
 C178 C -0.25667 0.89298 0.09490
 C179 C -0.22157 0.90717 0.07882
 C180 C -0.19131 0.91949 0.06591
 C181 C -0.15557 0.93421 0.05183
 C182 C -0.12481 0.94711 0.04079
 C183 C 0.78564 0.11715 0.61194
 C184 C 0.75620 0.10536 0.59690
 C185 C 0.72137 0.09165 0.57993
 C186 C 0.69134 0.07991 0.56609
 C187 C 0.65583 0.06598 0.55079
 C188 C 0.62524 0.05381 0.53862
 C189 C 0.38895 0.28701 0.38027
 C190 C 0.40372 0.25746 0.39222
 C191 C 0.42027 0.22251 0.40625
 C192 C 0.43368 0.19239 0.41834
 C193 C 0.44847 0.15680 0.43268
 C194 C 0.46024 0.12615 0.44515
 C195 C 0.88886 0.21339 0.61905
 C196 C 0.90371 0.24287 0.60713
 C197 C 0.92037 0.27774 0.59318
 C198 C 0.93391 0.30781 0.58120
 C199 C 0.94887 0.34335 0.56698
 C200 C 0.96077 0.37396 0.55461
 C201 C 0.10972 0.71493 -0.11573
 C202 C 0.09494 0.74449 -0.10387
 C203 C 0.07841 0.77947 -0.08998
 C204 C 0.06510 0.80964 -0.07798
 C205 C 0.05058 0.84533 -0.06365
 C206 C 0.03924 0.87606 -0.05105
 C207 C 0.61003 0.78489 1.11568
 C208 C 0.59518 0.75542 1.10382
 C209 C 0.57853 0.72053 1.08997
 C210 C 0.56510 0.69043 1.07802
 C211 C 0.55045 0.65482 1.06375
 C212 C 0.53906 0.62413 1.05119
 C213 C 0.38185 0.39019 1.28392
 C214 C 0.39371 0.40490 1.25435
 C215 C 0.40763 0.42137 1.21938
 C216 C 0.41967 0.43465 1.18922
 C217 C 0.43408 0.44912 1.15357
 C218 C 0.44675 0.46043 1.12287
 C219 C 0.61764 -0.11036 0.21275
 C220 C 0.60568 -0.09559 0.24221
 C221 C 0.59173 -0.07898 0.27708
 C222 C 0.57978 -0.06547 0.30714
 C223 C 0.56561 -0.05055 0.34267
 C224 C 0.55327 -0.03870 0.37328
 C225 C -0.11948 1.10871 -0.28364
 C226 C -0.10758 1.09413 -0.25403
 C227 C -0.09353 1.07789 -0.21902
 C228 C -0.08134 1.06483 -0.18884
 C229 C -0.06673 1.05061 -0.15319
 C230 C -0.05388 1.03950 -0.12251
 C231 C 1.11757 0.60998 0.78737
 C232 C 1.10568 0.59522 0.75789
 C233 C 1.09183 0.57864 0.72302
 C234 C 1.07995 0.56516 0.69295
 C235 C 1.06588 0.55029 0.65739
 C236 C 1.05363 0.53848 0.62676
 C237 C 0.71448 0.61955 0.60812
 C238 C 0.74415 0.60744 0.59367
 C239 C 0.77925 0.59315 0.57761
 C240 C 0.80951 0.58076 0.56472
 C241 C 0.84527 0.56595 0.55069
 C242 C 0.87605 0.55298 0.53973
 C243 C 0.78603 0.38290 1.11093
 C244 C 0.75656 0.39479 1.09597
 C245 C 0.72168 0.40860 1.07907
 C246 C 0.69160 0.42041 1.06531
 C247 C 0.65602 0.43439 1.05011
 C248 C 0.62536 0.44659 1.03804
 C249 C 0.28553 1.11744 -0.11191
 C250 C 0.25606 1.10559 -0.09690
 C251 C 0.22120 1.09181 -0.07995
 C252 C 0.19115 1.07999 -0.06614
 C253 C 0.15563 1.06598 -0.05085
 C254 C 0.12503 1.05375 -0.03868
 C255 C 0.21408 -0.11858 0.39086
 C256 C 0.24369 -0.10657 0.40539
 C257 C 0.27872 -0.09241 0.42157
 C258 C 0.30892 -0.08015 0.43457
 C259 C 0.34463 -0.06550 0.44872
 C260 C 0.37536 -0.05266 0.45978
 C261 C 0.61025 -0.28491 0.61625
 C262 C 0.59546 -0.25535 0.60435
 C263 C 0.57888 -0.22038 0.59043
 C264 C 0.56550 -0.19021 0.57841
 C265 C 0.55090 -0.15455 0.56405
 C266 C 0.53951 -0.12382 0.55143
 C267 C 1.11096 0.78489 0.38437
 C268 C 1.09624 0.75530 0.39619
 C269 C 1.07973 0.72030 0.40999
 C270 C 1.06640 0.69010 0.42190
 C271 C 1.05184 0.65440 0.43612
 C272 C 1.04046 0.62366 0.44864
 C273 C -0.11030 1.28704 0.11997
 C274 C -0.09567 1.25743 0.10804
 C275 C -0.07931 1.22242 0.09402
 C276 C -0.06605 1.19225 0.08192
 C277 C -0.05144 1.15662 0.06757
 C278 C -0.03979 1.12595 0.05508
 C279 C 0.38868 0.21379 0.88088
 C280 C 0.40345 0.24329 0.89276
 C281 C 0.42004 0.27818 0.90667
 C282 C 0.43350 0.30826 0.91863
 C283 C 0.44835 0.34382 0.93283
 C284 C 0.46016 0.37443 0.94519
 C285 C 0.61669 0.61178 0.71249
 C286 C 0.60474 0.59693 0.74194
 C287 C 0.59083 0.58019 0.77679
 C288 C 0.57892 0.56657 0.80684
 C289 C 0.56484 0.55152 0.84237
 C290 C 0.55259 0.53954 0.87298
 C291 C 0.38070 0.10906 0.78380
 C292 C 0.39266 0.09445 0.75424
 C293 C 0.40674 0.07814 0.71928
 C294 C 0.41894 0.06503 0.68913
 C295 C 0.43354 0.05075 0.65350
 C296 C 0.44637 0.03961 0.62283
 C297 C 0.11822 0.88997 0.28743
 C298 C 0.10618 0.90470 0.25797
 C299 C 0.09211 0.92124 0.22311
 C300 C 0.08003 0.93466 0.19305
 C301 C 0.06572 0.94946 0.15752
 C302 C 0.05327 0.96122 0.12692
 C303 C 0.88293 0.39030 0.21607
 C304 C 0.89481 0.40499 0.24558
 C305 C 0.90875 0.42142 0.28051
 C306 C 0.92081 0.43464 0.31063
 C307 C 0.93522 0.44904 0.34625
 C308 C 0.94789 0.46027 0.37693
   
