data_POSCAR
  _audit_creation_date              2014-09-24
  _audit_creation_method            'ToBaCCo'
  _symmetry_space_group_name_H-M    'P1'
  _symmetry_Int_Tables_number       1
  _symmetry_cell_setting            triclinic
  loop_
  _symmetry_equiv_pos_as_xyz
 x,y,z
_cell_length_a 36.2849
_cell_length_b 36.1038
_cell_length_c 23.6450
_cell_angle_alpha 90.260300
_cell_angle_beta 89.982600
_cell_angle_gamma 87.938300
loop_
  _atom_site_label
  _atom_site_type_symbol
  _atom_site_fract_x
  _atom_site_fract_y
  _atom_site_fract_z
C1 C -0.00236 0.27230 -0.01981
 C2 C -0.00128 0.27195 0.03793
 C3 C -0.03601 0.27092 0.07142
 C4 C 0.03416 0.27172 0.07027
 C5 C 0.03110 0.27670 -0.05484
 C6 C -0.03713 0.26623 -0.05101
 C7 C -0.06506 0.29678 0.06178
 C8 C -0.09839 0.29430 0.09070
 C9 C -0.10315 0.26684 0.13196
 C10 C -0.07313 0.24186 0.14328
 C11 C -0.04011 0.24388 0.11308
 C12 C 0.03753 0.29477 0.11793
 C13 C 0.07005 0.29403 0.14974
 C14 C 0.10018 0.27086 0.13389
 C15 C 0.09688 0.24755 0.08655
 C16 C 0.06397 0.24749 0.05571
 C17 C 0.04039 0.25008 -0.09629
 C18 C 0.07304 0.25226 -0.12705
 C19 C 0.09689 0.28158 -0.11754
 C20 C 0.08701 0.30874 -0.07703
 C21 C 0.05426 0.30652 -0.04625
 C22 C -0.05285 0.23128 -0.05100
 C23 C -0.08508 0.22537 -0.08168
 C24 C -0.10265 0.25460 -0.11127
 C25 C -0.08698 0.28963 -0.11104
 C26 C -0.05410 0.29522 -0.08187
 H27 H -0.06209 0.31878 0.03135
 H28 H -0.12042 0.31434 0.08094
 H29 H -0.07494 0.21970 0.17355
 H30 H -0.01792 0.22377 0.12143
 H31 H 0.01487 0.31331 0.13066
 H32 H 0.07180 0.31178 0.18663
 H33 H 0.06170 0.22819 0.02085
 H34 H 0.02301 0.22673 -0.10338
 H35 H 0.07994 0.23009 -0.15646
 H36 H 0.10492 0.33150 -0.06867
 H37 H 0.04734 0.32762 -0.01491
 H38 H -0.03982 0.20854 -0.02786
 H39 H -0.09656 0.19809 -0.08184
 H40 H -0.09970 0.31239 -0.13449
 H41 H -0.04209 0.32224 -0.08267
 H42 H 0.11926 0.22848 0.07454
 C43 C 0.49595 0.74789 0.47364
 C44 C 0.49918 0.74372 0.53069
 C45 C 0.46618 0.74218 0.56782
 C46 C 0.53578 0.74082 0.55896
 C47 C 0.52833 0.75103 0.43565
 C48 C 0.45976 0.74740 0.44511
 C49 C 0.43908 0.77094 0.56795
 C50 C 0.40871 0.76968 0.60422
 C51 C 0.40495 0.73963 0.64133
 C52 C 0.43259 0.71141 0.64203
 C53 C 0.46286 0.71263 0.60561
 C54 C 0.54311 0.76404 0.60509
 C55 C 0.57787 0.76294 0.63050
 C56 C 0.60595 0.73864 0.60998
 C57 C 0.59842 0.71492 0.56464
 C58 C 0.56341 0.71542 0.54010
 C59 C 0.53262 0.72663 0.38954
 C60 C 0.56306 0.72852 0.35382
 C61 C 0.59004 0.75462 0.36360
 C62 C 0.58521 0.77994 0.40875
 C63 C 0.55447 0.77824 0.44429
 C64 C 0.44122 0.71417 0.43968
 C65 C 0.40972 0.71271 0.40588
 C66 C 0.39592 0.74464 0.37838
 C67 C 0.41402 0.77813 0.38514
 C68 C 0.44601 0.77934 0.41774
 H69 H 0.44177 0.79467 0.54062
 H70 H 0.38881 0.79270 0.60387
 H71 H 0.43061 0.68818 0.67058
 H72 H 0.48373 0.69043 0.60676
 H73 H 0.52216 0.78369 0.62053
 H74 H 0.58311 0.78196 0.66486
 H75 H 0.55808 0.69647 0.50568
 H76 H 0.51268 0.70559 0.38171
 H77 H 0.56595 0.70894 0.31910
 H78 H 0.60481 0.80127 0.41642
 H79 H 0.55115 0.79800 0.47868
 H80 H 0.45198 0.68916 0.45981
 H81 H 0.39623 0.68661 0.40084
 H82 H 0.40428 0.80296 0.36346
 H83 H 0.46046 0.80501 0.42089
 H84 H 0.61967 0.69590 0.54836
 C85 C 0.99927 0.73791 -0.02431
 C86 C 0.99725 0.74126 0.03281
 C87 C 1.03071 0.74469 0.06777
 C88 C 0.96145 0.74464 0.06257
 C89 C 0.96577 0.73322 -0.05894
 C90 C 1.03481 0.74137 -0.05421
 C91 C 1.05698 0.71533 0.07074
 C92 C 1.08910 0.71903 0.10236
 C93 C 1.09502 0.75199 0.13237
 C94 C 1.06797 0.78071 0.13124
 C95 C 1.03614 0.77721 0.09885
 C96 C 0.94758 0.71413 0.09101
 C97 C 0.91447 0.71780 0.12111
 C98 C 0.89556 0.75238 0.12464
 C99 C 0.90977 0.78296 0.09678
 C100 C 0.94219 0.77897 0.06510
 C101 C 0.95514 0.75989 -0.09924
 C102 C 0.92209 0.75688 -0.12889
 C103 C 0.89922 0.72692 -0.11885
 C104 C 0.91041 0.69984 -0.07947
 C105 C 0.94360 0.70272 -0.05026
 C106 C 1.04695 0.77641 -0.06896
 C107 C 1.08076 0.77990 -0.09635
 C108 C 1.10393 0.74857 -0.10720
 C109 C 1.09154 0.71333 -0.09193
 C110 C 1.05696 0.70983 -0.06673
 H111 H 1.05254 0.68952 0.04874
 H112 H 1.10889 0.69591 0.10413
 H113 H 1.07182 0.80613 0.15468
 H114 H 1.01599 0.80003 0.09751
 H115 H 0.96245 0.68758 0.08990
 H116 H 0.90422 0.69401 0.14309
 H117 H 0.95277 0.80281 0.04363
 H118 H 0.97170 0.78376 -0.10639
 H119 H 0.91391 0.77881 -0.15779
 H120 H 0.89323 0.67658 -0.07093
 H121 H 0.95171 0.68147 -0.02010
 H122 H 1.03020 0.80106 -0.05931
 H123 H 1.08921 0.80736 -0.10779
 H124 H 1.10758 0.68822 -0.10119
 H125 H 1.04767 0.68254 -0.05617
 H126 H 0.89564 0.80986 0.09938
 C127 C 0.50314 0.24350 0.47762
 C128 C 0.49781 0.24541 0.53494
 C129 C 0.52938 0.24551 0.57519
 C130 C 0.46030 0.24789 0.56083
 C131 C 0.47169 0.24235 0.43718
 C132 C 0.54075 0.24288 0.45198
 C133 C 0.55683 0.21707 0.57477
 C134 C 0.58744 0.21894 0.61053
 C135 C 0.59091 0.24918 0.64782
 C136 C 0.56244 0.27649 0.65014
 C137 C 0.53203 0.27474 0.61413
 C138 C 0.45186 0.22419 0.60565
 C139 C 0.41677 0.22559 0.63009
 C140 C 0.38933 0.25046 0.60968
 C141 C 0.39774 0.27442 0.56539
 C142 C 0.43319 0.27383 0.54212
 C143 C 0.46892 0.26849 0.39350
 C144 C 0.43879 0.26914 0.35671
 C145 C 0.41062 0.24385 0.36302
 C146 C 0.41414 0.21659 0.40533
 C147 C 0.44456 0.21571 0.44178
 C148 C 0.56678 0.26910 0.46718
 C149 C 0.60244 0.26681 0.44469
 C150 C 0.61212 0.23952 0.40447
 C151 C 0.58574 0.21422 0.38746
 C152 C 0.55045 0.21578 0.41126
 H153 H 0.55478 0.19372 0.54616
 H154 H 0.60808 0.19659 0.60906
 H155 H 0.56417 0.29977 0.67897
 H156 H 0.51094 0.29673 0.61564
 H157 H 0.47233 0.20417 0.62118
 H158 H 0.41078 0.20656 0.66388
 H159 H 0.43930 0.29333 0.50907
 H160 H 0.48975 0.28901 0.38869
 H161 H 0.43701 0.29008 0.32407
 H162 H 0.39366 0.19579 0.41013
 H163 H 0.44670 0.19458 0.47410
 H164 H 0.55967 0.29108 0.49694
 H165 H 0.62233 0.28676 0.45797
 H166 H 0.59270 0.19272 0.35679
 H167 H 0.53082 0.19546 0.39847
 H168 H 0.37698 0.29396 0.54935
 C169 C 0.73183 -0.00434 -0.03774
 C170 C 0.72450 -0.00248 0.01892
 C171 C 0.71956 -0.03602 0.05401
 C172 C 0.72469 0.03340 0.04959
 C173 C 0.73454 0.03005 -0.07178
 C174 C 0.73824 -0.04036 -0.06795
 C175 C 0.69481 -0.06323 0.03834
 C176 C 0.69356 -0.09637 0.06860
 C177 C 0.71645 -0.10283 0.11594
 C178 C 0.73973 -0.07433 0.13323
 C179 C 0.74117 -0.04149 0.10259
 C180 C 0.69173 0.04961 0.07068
 C181 C 0.69200 0.08359 0.09932
 C182 C 0.72540 0.10086 0.10930
 C183 C 0.75843 0.08434 0.08877
 C184 C 0.75801 0.05103 0.05858
 C185 C 0.76587 0.03569 -0.10490
 C186 C 0.76930 0.06871 -0.13485
 C187 C 0.74174 0.09712 -0.13165
 C188 C 0.70954 0.09051 -0.10019
 C189 C 0.70593 0.05722 -0.07125
 C190 C 0.76246 -0.06798 -0.04624
 C191 C 0.76601 -0.10260 -0.07260
 C192 C 0.74709 -0.10990 -0.12312
 C193 C 0.72441 -0.08132 -0.14662
 C194 C 0.71994 -0.04709 -0.11904
 H195 H 0.67729 -0.05929 0.00163
 H196 H 0.67503 -0.11731 0.05418
 H197 H 0.75809 -0.07711 0.16892
 H198 H 0.76039 -0.02086 0.11571
 H199 H 0.66584 0.03621 0.06410
 H200 H 0.66628 0.09604 0.11470
 H201 H 0.78366 0.03872 0.04268
 H202 H 0.78805 0.01482 -0.10666
 H203 H 0.79416 0.07242 -0.15927
 H204 H 0.68652 0.11028 -0.09840
 H205 H 0.68075 0.05271 -0.04809
 H206 H 0.77809 -0.06305 -0.00812
 H207 H 0.78400 -0.12367 -0.05356
 H208 H 0.70862 -0.08549 -0.18472
 H209 H 0.70138 -0.02609 -0.13692
 H210 H 0.78444 0.09751 0.09546
 C211 C 0.22857 0.50630 0.46224
 C212 C 0.22572 0.50512 0.51966
 C213 C 0.23012 0.46963 0.55038
 C214 C 0.22291 0.53922 0.55500
 C215 C 0.23373 0.54183 0.43203
 C216 C 0.22774 0.47169 0.42802
 C217 C 0.20033 0.45528 0.57980
 C218 C 0.20527 0.42296 0.61166
 C219 C 0.24036 0.40541 0.61586
 C220 C 0.27016 0.42006 0.58686
 C221 C 0.26496 0.45165 0.55355
 C222 C 0.19553 0.56693 0.54505
 C223 C 0.19531 0.60017 0.57580
 C224 C 0.22205 0.60600 0.61751
 C225 C 0.24911 0.57786 0.62773
 C226 C 0.24925 0.54478 0.59724
 C227 C 0.26043 0.56652 0.45033
 C228 C 0.26237 0.60158 0.42621
 C229 C 0.23912 0.61181 0.38129
 C230 C 0.21404 0.58634 0.36032
 C231 C 0.21125 0.55164 0.38576
 C232 C 0.25683 0.46208 0.39112
 C233 C 0.25749 0.42811 0.36230
 C234 C 0.22874 0.40332 0.36958
 C235 C 0.19920 0.41361 0.40533
 C236 C 0.19850 0.44758 0.43382
 H237 H 0.17341 0.46919 0.57819
 H238 H 0.18204 0.41235 0.63448
 H239 H 0.29743 0.40699 0.58995
 H240 H 0.28828 0.46278 0.53159
 H241 H 0.17487 0.56310 0.51271
 H242 H 0.17439 0.62148 0.56674
 H243 H 0.27097 0.52409 0.60508
 H244 H 0.27910 0.55905 0.48445
 H245 H 0.28217 0.62071 0.44245
 H246 H 0.19576 0.59382 0.32570
 H247 H 0.19079 0.53290 0.37050
 H248 H 0.27967 0.48030 0.38618
 H249 H 0.28118 0.42092 0.33623
 H250 H 0.17674 0.39510 0.41172
 H251 H 0.17544 0.45479 0.46129
 H252 H 0.27117 0.58161 0.65769
 C253 C 0.27530 1.00374 -0.03985
 C254 C 0.28065 1.00338 0.01737
 C255 C 0.28428 1.03760 0.05174
 C256 C 0.28062 0.96815 0.04932
 C257 C 0.27146 0.96850 -0.07183
 C258 C 0.27231 1.03859 -0.07356
 C259 C 0.31017 1.06414 0.03842
 C260 C 0.31079 1.09749 0.06874
 C261 C 0.28611 1.10478 0.11385
 C262 C 0.26144 1.07702 0.12865
 C263 C 0.26064 1.04400 0.09792
 C264 C 0.31363 0.95316 0.07180
 C265 C 0.31398 0.91930 0.10031
 C266 C 0.28111 0.90077 0.10862
 C267 C 0.24793 0.91620 0.08692
 C268 C 0.24776 0.94953 0.05709
 C269 C 0.23994 0.96318 -0.10472
 C270 C 0.23562 0.92986 -0.13390
 C271 C 0.26246 0.90085 -0.13019
 C272 C 0.29480 0.90700 -0.09866
 C273 C 0.29928 0.94057 -0.07038
 C274 C 0.24982 1.06905 -0.05625
 C275 C 0.24823 1.10165 -0.08797
 C276 C 0.26765 1.10391 -0.13955
 C277 C 0.28816 1.07250 -0.15846
 C278 C 0.29099 1.04054 -0.12546
 H279 H 0.32921 1.05945 0.00363
 H280 H 0.33038 1.11789 0.05624
 H281 H 0.24162 1.08056 0.16242
 H282 H 0.24052 1.02384 0.10917
 H283 H 0.33919 0.96728 0.06606
 H284 H 0.33984 0.90771 0.11635
 H285 H 0.22208 0.96084 0.03995
 H286 H 0.21840 0.98467 -0.10714
 H287 H 0.21068 0.92650 -0.15830
 H288 H 0.31730 0.88667 -0.09635
 H289 H 0.32454 0.94477 -0.04725
 H290 H 0.23335 1.06767 -0.01821
 H291 H 0.23041 1.12424 -0.07291
 H292 H 0.30296 1.07296 -0.19826
 H293 H 0.30795 1.01723 -0.14050
 H294 H 0.22232 0.90204 0.09184
 C295 C 0.76454 0.49626 0.46110
 C296 C 0.76794 0.49277 0.51853
 C297 C 0.77333 0.52578 0.55509
 C298 C 0.76580 0.45625 0.54760
 C299 C 0.76486 0.46325 0.42325
 C300 C 0.76044 0.53326 0.43343
 C301 C 0.80173 0.55013 0.54389
 C302 C 0.80372 0.58344 0.57379
 C303 C 0.77795 0.59267 0.61632
 C304 C 0.75066 0.56729 0.62949
 C305 C 0.74856 0.53406 0.59930
 C306 C 0.79100 0.44673 0.59075
 C307 C 0.78922 0.41271 0.61847
 C308 C 0.76255 0.38736 0.60292
 C309 C 0.73734 0.39672 0.56000
 C310 C 0.73830 0.43123 0.53363
 C311 C 0.73637 0.45901 0.38387
 C312 C 0.73495 0.42677 0.35114
 C313 C 0.76182 0.39818 0.35748
 C314 C 0.79147 0.40335 0.39470
 C315 C 0.79306 0.43571 0.42704
 C316 C 0.73503 0.56046 0.45391
 C317 C 0.73340 0.59589 0.43038
 C318 C 0.75567 0.60420 0.38406
 C319 C 0.77973 0.57656 0.36156
 C320 C 0.78224 0.54145 0.38628
 H321 H 0.82147 0.54395 0.51049
 H322 H 0.82496 0.60248 0.56278
 H323 H 0.72977 0.57366 0.66102
 H324 H 0.72647 0.51562 0.60856
 H325 H 0.81226 0.46555 0.60274
 H326 H 0.80903 0.40592 0.65142
 H327 H 0.71759 0.43833 0.50220
 H328 H 0.71461 0.48016 0.37977
 H329 H 0.71216 0.42364 0.32211
 H330 H 0.81347 0.38251 0.39892
 H331 H 0.81590 0.43898 0.45591
 H332 H 0.71692 0.55449 0.48883
 H333 H 0.71446 0.61677 0.44799
 H334 H 0.79739 0.58249 0.32605
 H335 H 0.80179 0.52089 0.36937
 H336 H 0.71631 0.37766 0.54793
 O337 O 0.23590 0.29195 0.30355
 O338 O 0.24390 0.19593 0.25036
 O339 O 0.28049 0.23521 0.32250
 O340 O 0.19751 0.25162 0.23525
 O341 O 0.23231 0.26809 0.16365
 O342 O 0.31542 0.25440 0.25280
 O343 O 0.27984 0.21393 0.18107
 O344 O 0.26988 0.31027 0.23219
 Cu345 Cu 0.23599 0.24190 0.28497
 Cu346 Cu 0.27782 0.26364 0.20041
 C347 C 0.25161 0.31750 0.27689
 C348 C 0.26322 0.18857 0.20664
 C349 C 0.31201 0.24222 0.30287
 C350 C 0.20076 0.26203 0.18432
 O351 O 0.68596 0.74833 0.25599
 O352 O 0.76967 0.73259 0.16960
 O353 O 0.73247 0.69283 0.23827
 O354 O 0.72246 0.78828 0.18441
 O355 O 0.75620 0.80815 0.25531
 O356 O 0.76516 0.71304 0.31019
 O357 O 0.80318 0.75332 0.24024
 O358 O 0.71963 0.76892 0.32647
 Cu359 Cu 0.72415 0.73865 0.20492
 Cu360 Cu 0.76452 0.76279 0.29011
 C361 C 0.68857 0.76098 0.30608
 C362 C 0.80069 0.74051 0.19032
 C363 C 0.75020 0.68679 0.28370
 C364 C 0.73788 0.81441 0.21045
 O365 O 0.81508 0.22336 0.27149
 O366 O 0.72124 0.21988 0.33082
 O367 O 0.76281 0.17684 0.26415
 O368 O 0.77487 0.26533 0.33814
 O369 O 0.75069 0.29553 0.26522
 O370 O 0.74098 0.20691 0.18946
 O371 O 0.69864 0.24793 0.25486
 O372 O 0.79269 0.25521 0.19898
 Cu373 Cu 0.77053 0.21818 0.30866
 Cu374 Cu 0.74345 0.25435 0.21964
 C375 C 0.81993 0.24046 0.22542
 C376 C 0.69403 0.23341 0.30294
 C377 C 0.75049 0.17680 0.21395
 C378 C 0.76485 0.29548 0.31440
 O379 O 0.19136 0.76051 0.23543
 O380 O 0.27390 0.77689 0.31991
 O381 O 0.23575 0.81438 0.24444
 O382 O 0.23087 0.72121 0.30661
 O383 O 0.26236 0.69746 0.23421
 O384 O 0.27327 0.79139 0.17851
 O385 O 0.30827 0.74940 0.25375
 O386 O 0.22599 0.73922 0.16472
 Cu387 Cu 0.22959 0.77061 0.28368
 Cu388 Cu 0.27124 0.74233 0.20079
 C389 C 0.19452 0.74761 0.18557
 C390 C 0.30499 0.76487 0.30199
 C391 C 0.25544 0.81866 0.20075
 C392 C 0.24514 0.69342 0.28027
 O393 O 0.76823 0.28342 0.69693
 O394 O 0.75437 0.19596 0.77331
 O395 O 0.72069 0.23139 0.69158
 O396 O 0.80367 0.24645 0.77707
 O397 O 0.76987 0.27712 0.84070
 O398 O 0.68681 0.26303 0.75399
 O399 O 0.71965 0.22671 0.83568
 O400 O 0.73575 0.31408 0.76217
 Cu401 Cu 0.76524 0.23629 0.72839
 Cu402 Cu 0.72460 0.27319 0.80457
 C403 C 0.75437 0.31362 0.71681
 C404 C 0.73427 0.19654 0.81736
 C405 C 0.68966 0.24471 0.70800
 C406 C 0.80093 0.26426 0.82342
 O407 O 0.31220 0.73293 0.75622
 O408 O 0.23019 0.72127 0.84640
 O409 O 0.26381 0.68272 0.76899
 O410 O 0.28157 0.77072 0.83938
 O411 O 0.24677 0.80091 0.77696
 O412 O 0.22924 0.71197 0.70521
 O413 O 0.19604 0.75204 0.78374
 O414 O 0.27738 0.76314 0.69385
 Cu415 Cu 0.27543 0.72419 0.80930
 Cu416 Cu 0.23387 0.76005 0.73369
 C417 C 0.30853 0.74972 0.70923
 C418 C 0.19909 0.73450 0.82996
 C419 C 0.24379 0.68219 0.72516
 C420 C 0.26738 0.80076 0.82049
 O421 O 0.25845 0.23393 0.82766
 O422 O 0.24616 0.31526 0.73540
 O423 O 0.20519 0.28088 0.80757
 O424 O 0.30085 0.26854 0.75711
 O425 O 0.28122 0.23688 0.68355
 O426 O 0.18689 0.24238 0.74122
 O427 O 0.22310 0.27993 0.66857
 O428 O 0.24385 0.19768 0.75617
 Cu429 Cu 0.25476 0.27833 0.78874
 Cu430 Cu 0.23211 0.23542 0.70537
 C431 C 0.25320 0.20192 0.80753
 C432 C 0.23174 0.31153 0.68681
 C433 C 0.17991 0.26292 0.78390
 C434 C 0.30712 0.25163 0.71076
 O435 O 0.71481 0.75189 0.67751
 O436 O 0.80946 0.75190 0.73326
 O437 O 0.76938 0.70394 0.68105
 O438 O 0.75441 0.80046 0.72936
 O439 O 0.73814 0.78022 0.81348
 O440 O 0.74664 0.68395 0.76152
 O441 O 0.78971 0.72894 0.81374
 O442 O 0.69432 0.73533 0.76133
 Cu443 Cu 0.76407 0.75413 0.69705
 Cu444 Cu 0.74013 0.73009 0.79579
 C445 C 0.68845 0.74377 0.71001
 C446 C 0.81574 0.74000 0.78288
 C447 C 0.75980 0.67753 0.71255
 C448 C 0.74459 0.80671 0.78014
 C449 C 0.28613 0.13992 0.14034
 C450 C 0.26511 0.15023 0.18501
 H451 H 0.30399 0.16033 0.12256
 H452 H 0.24797 0.13095 0.20648
 C453 C 0.77832 0.63017 0.64200
 C454 C 0.76275 0.63900 0.69189
 H455 H 0.79156 0.65153 0.61810
 H456 H 0.75115 0.61783 0.71802
 C457 C 0.71622 0.86209 0.14217
 C458 C 0.73584 0.85250 0.18841
 H459 H 0.69954 0.84114 0.12285
 H460 H 0.75180 0.87230 0.21117
 C461 C 0.24672 0.37293 0.65244
 C462 C 0.22473 0.34408 0.65098
 H463 H 0.27127 0.37181 0.67859
 H464 H 0.20229 0.34351 0.62077
 C465 C 0.86365 0.26526 0.15777
 C466 C 0.85561 0.24264 0.20399
 H467 H 0.84148 0.28358 0.14251
 H468 H 0.87727 0.22736 0.22612
 C469 C 0.37327 0.73714 0.68070
 C470 C 0.34028 0.75382 0.67121
 H471 H 0.37678 0.71944 0.71735
 H472 H 0.33555 0.76981 0.63314
 C473 C 0.12851 0.75673 0.16646
 C474 C 0.16146 0.74211 0.15128
 H475 H 0.12622 0.77438 0.20361
 H476 H 0.16460 0.72674 0.11202
 C477 C 0.62350 0.25319 0.68499
 C478 C 0.65704 0.23865 0.67244
 H479 H 0.62016 0.27060 0.72224
 H480 H 0.66135 0.22284 0.63387
 C481 C 0.74740 0.13066 0.83976
 C482 C 0.72708 0.16210 0.84786
 H483 H 0.77074 0.13157 0.81117
 H484 H 0.70554 0.16387 0.87940
 C485 C 0.24056 0.64959 0.35833
 C486 C 0.24180 0.65589 0.30280
 H487 H 0.24339 0.67239 0.38782
 H488 H 0.24275 0.63278 0.27335
 C489 C 0.25594 0.86718 0.84167
 C490 C 0.27564 0.83546 0.84989
 H491 H 0.23244 0.86644 0.81338
 H492 H 0.29739 0.83361 0.88103
 C493 C 0.75804 0.36335 0.32512
 C494 C 0.77002 0.33042 0.34507
 H495 H 0.74294 0.36462 0.28559
 H496 H 0.78311 0.32858 0.38616
 C497 C 0.13332 0.28321 0.85430
 C498 C 0.14217 0.26462 0.80670
 H499 H 0.15391 0.29982 0.87448
 H500 H 0.12179 0.24906 0.78437
 C501 C 0.62261 0.75424 0.32586
 C502 C 0.65562 0.76587 0.34204
 H503 H 0.61998 0.74116 0.28477
 H504 H 0.65941 0.77710 0.38407
 C505 C 0.86244 0.72459 0.85482
 C506 C 0.85358 0.74002 0.80504
 H507 H 0.84189 0.70945 0.87757
 H508 H 0.87426 0.75329 0.77999
 C509 C 0.37827 0.24680 0.32470
 C510 C 0.34455 0.23634 0.33957
 H511 H 0.38186 0.26044 0.28443
 H512 H 0.34001 0.22473 0.38101
 C513 C 0.75064 0.85427 0.85324
 C514 C 0.74067 0.84518 0.80043
 H515 H 0.76353 0.83261 0.87898
 H516 H 0.73187 0.86605 0.77020
 C517 C 0.22964 0.36569 0.34407
 C518 C 0.24955 0.35593 0.29828
 H519 H 0.21294 0.34516 0.36405
 H520 H 0.26502 0.37628 0.27582
 C521 C 0.26624 0.13579 0.82633
 C522 C 0.25650 0.16979 0.84535
 H523 H 0.27517 0.13301 0.78265
 H524 H 0.25203 0.17500 0.88996
 C525 C 0.75435 0.64215 0.36121
 C526 C 0.75321 0.64882 0.30567
 H527 H 0.75174 0.66509 0.39088
 H528 H 0.75199 0.62597 0.27592
 C529 C 0.13772 0.75355 0.86509
 C530 C 0.16597 0.72849 0.86411
 H531 H 0.14165 0.77996 0.84461
 H532 H 0.16570 0.70372 0.88963
 C533 C 0.64996 0.23748 0.38145
 C534 C 0.65654 0.23264 0.32622
 H535 H 0.67262 0.24295 0.40982
 H536 H 0.63370 0.23117 0.29687
 C537 C 0.86375 0.24770 0.85566
 C538 C 0.83410 0.27083 0.85731
 H539 H 0.86282 0.22215 0.83152
 H540 H 0.83372 0.29459 0.88550
 C541 C 0.36386 0.74206 0.34053
 C542 C 0.33738 0.76869 0.33821
 H543 H 0.36092 0.71672 0.31642
 H544 H 0.33807 0.79232 0.36655
 C545 C 0.28213 0.86462 0.13758
 C546 C 0.25623 0.85558 0.17483
 H547 H 0.30521 0.84550 0.12910
 H548 H 0.23478 0.87582 0.18662
 C549 C 0.76045 0.35123 0.63137
 C550 C 0.75979 0.34884 0.68772
 H551 H 0.75600 0.32681 0.60578
 H552 H 0.76021 0.37389 0.71314
 C553 C 0.72556 0.13633 0.14037
 C554 C 0.74854 0.14130 0.18370
 H555 H 0.70553 0.15800 0.12894
 H556 H 0.76622 0.11837 0.19802
 C557 C 0.22254 0.64223 0.64733
 C558 C 0.23868 0.64618 0.69779
 H559 H 0.20982 0.66622 0.62679
 H560 H 0.24995 0.62219 0.71991
 C561 C 0.86215 0.75745 0.15963
 C562 C 0.83405 0.73463 0.15582
 H563 H 0.85975 0.78175 0.18667
 H564 H 0.83476 0.71250 0.12468
 C565 C 0.35154 0.25095 0.63282
 C566 C 0.34491 0.24952 0.68840
 H567 H 0.32871 0.25498 0.60364
 H568 H 0.36762 0.24941 0.71815
 C569 C 0.13369 0.26944 0.16960
 C570 C 0.16781 0.26603 0.14802
 H571 H 0.13009 0.27223 0.21495
 H572 H 0.17175 0.26618 0.10259
 C573 C 0.64368 0.73883 0.63318
 C574 C 0.65055 0.74399 0.68819
 H575 H 0.66641 0.73283 0.60439
 H576 H 0.62803 0.74662 0.71818
   
