data_POSCAR
  _audit_creation_date              2014-09-24
  _audit_creation_method            'ToBaCCo'
  _symmetry_space_group_name_H-M    'P1'
  _symmetry_Int_Tables_number       1
  _symmetry_cell_setting            triclinic
  loop_
  _symmetry_equiv_pos_as_xyz
 x,y,z
_cell_length_a 37.3902
_cell_length_b 36.8042
_cell_length_c 36.1751
_cell_angle_alpha 90.046200
_cell_angle_beta 89.944900
_cell_angle_gamma 90.111600
loop_
  _atom_site_label
  _atom_site_type_symbol
  _atom_site_fract_x
  _atom_site_fract_y
  _atom_site_fract_z
N1 N 0.17886 1.15049 0.17135
 N2 N 0.84691 0.82338 0.17219
 N3 N 0.75845 1.24019 -0.23915
 N4 N 0.17591 0.82735 -0.14641
 C5 C 0.56630 1.05422 -0.01366
 H6 H 0.56891 1.05401 0.01612
 C7 C 0.58769 1.07737 -0.03486
 H8 H 0.60677 1.09518 -0.02141
 C9 C 0.53895 1.03059 -0.06775
 H10 H 0.52049 1.01178 -0.08050
 C11 C 0.55984 1.05330 -0.08997
 H12 H 0.55714 1.05218 -0.11977
 N13 N 0.54240 1.03159 -0.03030
 C14 C 0.46545 1.00521 0.05603
 H15 H 0.46807 0.97594 0.05612
 C16 C 0.43891 1.02175 0.07725
 H17 H 0.42113 1.00520 0.09390
 C18 C 0.48360 1.06232 0.03199
 H19 H 0.50015 1.07783 0.01325
 C20 C 0.45725 1.07997 0.05274
 H21 H 0.45379 1.10907 0.05016
 Zn22 Zn 0.51623 0.99951 0.00038
 N23 N 0.48686 1.02551 0.03367
 C24 C 0.55263 0.97184 0.06340
 N25 N 0.54977 0.97056 0.02590
 C26 C 0.57283 0.95062 0.00506
 C27 C 0.60026 0.93099 0.02188
 C28 C 0.57973 0.95261 0.08133
 C29 C 0.45837 0.98885 -0.04600
 C30 C 0.43100 0.96993 -0.06375
 C31 C 0.45820 0.91356 -0.04433
 C32 C 0.48525 0.93360 -0.02697
 N33 N 0.48464 0.97059 -0.02790
 H34 H 0.53461 0.98857 0.07937
 H35 H 0.57031 0.95064 -0.02473
 H36 H 0.61892 0.91574 0.00503
 H37 H 0.58236 0.95435 0.11110
 H38 H 0.45812 1.01825 -0.04556
 H39 H 0.40968 0.98478 -0.07719
 H40 H 0.45812 0.88418 -0.04252
 H41 H 0.50580 0.91965 -0.01157
 C42 C 0.43435 1.05938 0.07509
 C43 C 0.58446 1.07683 -0.07336
 C44 C 0.43062 0.93199 -0.06248
 C45 C 0.60390 0.93224 0.06032
 C46 C -0.00534 0.53518 1.05367
 H47 H 0.02349 0.53268 1.05371
 C48 C -0.02174 0.56205 1.07493
 H49 H -0.00552 0.58019 1.09157
 C50 C -0.06150 0.51643 1.02975
 H51 H -0.07672 0.49953 1.01106
 C52 C -0.07898 0.54308 1.05055
 H53 H -0.10766 0.54639 1.04807
 N54 N -0.02525 0.51331 1.03136
 C55 C 0.04818 0.42573 1.00265
 H56 H 0.04791 0.42814 0.97285
 C57 C 0.06770 0.39799 1.01944
 H58 H 0.08260 0.37897 1.00256
 C59 C 0.02786 0.44660 1.06107
 H60 H 0.01158 0.46503 1.07710
 C61 C 0.04699 0.41920 1.07898
 H62 H 0.04563 0.41675 1.10879
 Zn63 Zn 0.00032 0.48344 0.99806
 N64 N 0.02877 0.44929 1.02354
 C65 C 0.06534 0.51450 0.97076
 N66 N 0.02894 0.51545 0.96981
 C67 C 0.01120 0.54235 0.95178
 C68 C 0.03009 0.57007 0.93415
 C69 C 0.08531 0.54187 0.95352
 C70 C -0.05352 0.43260 0.98413
 C71 C -0.07659 0.41111 0.96304
 C72 C -0.05339 0.43973 0.90787
 C73 C -0.03074 0.46072 0.92999
 N74 N -0.03137 0.45696 0.96743
 H75 H 0.07889 0.49346 0.98610
 H76 H -0.01772 0.54286 0.95220
 H77 H 0.01568 0.59192 0.92078
 H78 H 0.11423 0.54168 0.95535
 H79 H -0.05303 0.42978 1.01390
 H80 H -0.09406 0.39170 0.97655
 H81 H -0.05264 0.44271 0.87808
 H82 H -0.01234 0.47955 0.91718
 C83 C 0.06689 0.39456 1.05792
 C84 C -0.05881 0.56644 1.07287
 C85 C -0.07648 0.41469 0.92457
 C86 C 0.06744 0.57012 0.93546
 C87 C 1.04525 -0.00277 0.57549
 H88 H 1.04524 0.02653 0.57311
 C89 C 1.06445 -0.01949 0.60383
 H90 H 1.07939 -0.00306 0.62332
 C91 C 1.02460 -0.05999 0.55395
 H92 H 1.00834 -0.07559 0.53503
 C93 C 1.04342 -0.07780 0.58192
 H94 H 1.04183 -0.10710 0.58430
 N95 N 1.02585 -0.02311 0.55129
 C96 C 1.00958 0.04745 0.45635
 H97 H 0.98066 0.04697 0.45539
 C98 C 1.02881 0.06500 0.42855
 H99 H 1.01467 0.07824 0.40618
 C100 C 1.06336 0.02889 0.48547
 H101 H 1.07666 0.01382 0.50706
 C102 C 1.08368 0.04607 0.45804
 H103 H 1.11259 0.04446 0.45873
 Zn104 Zn 0.99790 0.00211 0.51622
 N105 N 1.02698 0.02972 0.48395
 C106 C 0.96730 0.06928 0.53885
 N107 N 0.96619 0.03250 0.54275
 C108 C 0.94363 0.01639 0.56734
 C109 C 0.92064 0.03745 0.58895
 C110 C 0.94475 0.09134 0.55994
 C111 C 0.99250 -0.05256 0.46362
 C112 C 0.97627 -0.07374 0.43638
 C113 C 0.91889 -0.04982 0.45515
 C114 C 0.93621 -0.02909 0.48219
 N115 N 0.97244 -0.03056 0.48560
 H116 H 0.98603 0.08163 0.51988
 H117 H 0.94374 -0.01286 0.57030
 H118 H 0.90286 0.02443 0.60856
 H119 H 0.94592 0.12059 0.55686
 H120 H 1.02131 -0.05254 0.46638
 H121 H 0.99260 -0.09024 0.41819
 H122 H 0.89021 -0.04755 0.45162
 H123 H 0.92087 -0.01067 0.49919
 C124 C 1.06616 0.06393 0.42913
 C125 C 1.06334 -0.05732 0.60719
 C126 C 0.93921 -0.07192 0.43171
 C127 C 0.92127 0.07526 0.58523
 C128 C 0.14151 0.24653 1.13250
 C129 C 0.13432 0.24432 1.09080
 C130 C 0.12007 0.27523 1.07643
 C131 C 0.11436 0.30539 1.10513
 C132 C 0.15117 0.31112 1.12306
 C133 C 0.16547 0.28012 1.13748
 C134 C 0.10548 0.25706 1.14979
 C135 C 0.09122 0.28799 1.13540
 C136 C 0.15632 0.21277 1.14755
 C137 C 0.16729 0.18412 1.15900
 C138 C 0.09851 0.33827 1.08923
 C139 C 0.08455 0.36441 1.07535
 H140 H 0.14001 0.22057 1.07399
 H141 H 0.11354 0.27794 1.04732
 H142 H 0.16476 0.33718 1.12435
 H143 H 0.19131 0.27961 1.15111
 H144 H 0.09238 0.24162 1.17150
 H145 H 0.06588 0.29905 1.14479
 C146 C -0.12357 0.72187 1.14120
 C147 C -0.15350 0.69736 1.12615
 C148 C -0.14164 0.66451 1.11369
 C149 C -0.10106 0.65947 1.11753
 C150 C -0.09308 0.66626 1.15859
 C151 C -0.10493 0.69911 1.17105
 C152 C -0.09632 0.72471 1.10961
 C153 C -0.08451 0.69198 1.09720
 C154 C -0.13566 0.75765 1.15391
 C155 C -0.14427 0.78794 1.16295
 C156 C -0.08764 0.62470 1.10340
 C157 C -0.07521 0.59738 1.09027
 H158 H -0.18150 0.70507 1.12544
 H159 H -0.15949 0.64407 1.10230
 H160 H -0.07944 0.64697 1.17632
 H161 H -0.10144 0.70795 1.19946
 H162 H -0.08708 0.75024 1.09798
 H163 H -0.06516 0.68952 1.07493
 C164 C -0.18109 0.30660 0.82164
 C165 C -0.19341 0.34637 0.82173
 C166 C -0.17234 0.36865 0.84258
 C167 C -0.14105 0.34896 0.86126
 C168 C -0.12092 0.33011 0.82964
 C169 C -0.14196 0.30784 0.80881
 C170 C -0.17943 0.29573 0.86256
 C171 C -0.15838 0.31800 0.88339
 C172 C -0.20362 0.28248 0.79924
 C173 C -0.22187 0.26230 0.78085
 C174 C -0.11828 0.37280 0.88373
 C175 C -0.09934 0.39208 0.90229
 H176 H -0.21662 0.35616 0.80677
 H177 H -0.17751 0.39753 0.84546
 H178 H -0.09262 0.33392 0.82408
 H179 H -0.13169 0.29257 0.78541
 H180 H -0.19356 0.27259 0.87415
 H181 H -0.15448 0.31394 0.91283
 C182 C 0.14274 0.72557 0.87953
 C183 C 0.11638 0.72772 0.91197
 C184 C 0.10277 0.69495 0.92218
 C185 C 0.11679 0.66308 0.89900
 C186 C 0.15770 0.66537 0.90212
 C187 C 0.17137 0.69828 0.89187
 C188 C 0.12208 0.70622 0.84856
 C189 C 0.10843 0.67335 0.85880
 C190 C 0.15659 0.76142 0.86903
 C191 C 0.16623 0.79180 0.86145
 C192 C 0.10125 0.62828 0.91059
 C193 C 0.08673 0.60098 0.92130
 H194 H 0.10905 0.75283 0.92578
 H195 H 0.08380 0.69202 0.94473
 H196 H 0.17443 0.64312 0.91146
 H197 H 0.19981 0.70425 0.89242
 H198 H 0.11858 0.71729 0.82099
 H199 H 0.09324 0.65626 0.84001
 C200 C 1.14372 0.12252 0.27352
 C201 C 1.11702 0.14969 0.29005
 C202 C 1.10287 0.13880 0.32297
 C203 C 1.11681 0.10180 0.33613
 C204 C 1.15770 0.10579 0.33681
 C205 C 1.17188 0.11670 0.30382
 C206 C 1.12319 0.08646 0.27127
 C207 C 1.10907 0.07559 0.30411
 C208 C 1.15815 0.13374 0.23758
 C209 C 1.16840 0.14193 0.20708
 C210 C 1.10075 0.08955 0.37098
 C211 C 1.08585 0.07842 0.39829
 H212 H 1.10993 0.17529 0.27711
 H213 H 1.08367 0.15507 0.33822
 H214 H 1.17404 0.10057 0.36102
 H215 H 1.20037 0.12084 0.29976
 H216 H 1.12005 0.07076 0.24604
 H217 H 1.09385 0.05059 0.30699
 C218 C 1.13768 -0.13282 0.75690
 C219 C 1.10586 -0.15443 0.74149
 C220 C 1.09156 -0.13974 0.71026
 C221 C 1.11050 -0.10489 0.69750
 C222 C 1.15003 -0.11544 0.69341
 C223 C 1.16434 -0.13014 0.72469
 C224 C 1.12356 -0.09404 0.76223
 C225 C 1.10929 -0.07938 0.73104
 C226 C 1.15259 -0.14821 0.79093
 C227 C 1.16384 -0.15995 0.81977
 C228 C 1.09468 -0.08872 0.66429
 C229 C 1.08082 -0.07473 0.63782
 H230 H 1.09551 -0.17914 0.75395
 H231 H 1.06897 -0.15187 0.69597
 H232 H 1.16539 -0.11173 0.66821
 H233 H 1.19197 -0.13903 0.72629
 H234 H 1.12472 -0.07934 0.78824
 H235 H 1.09822 -0.05213 0.73035
 C236 C 0.87565 -0.14317 0.27479
 C237 C 0.90802 -0.16360 0.29045
 C238 C 0.91956 -0.15041 0.32357
 C239 C 0.89761 -0.11808 0.33780
 C240 C 0.85875 -0.13168 0.33859
 C241 C 0.84718 -0.14490 0.30540
 C242 C 0.88731 -0.10321 0.27340
 C243 C 0.89883 -0.09004 0.30645
 C244 C 0.86388 -0.15672 0.23865
 C245 C 0.85550 -0.16650 0.20803
 C246 C 0.91074 -0.10321 0.37290
 C247 C 0.92297 -0.08964 0.40048
 H248 H 0.92068 -0.18650 0.27679
 H249 H 0.94212 -0.16200 0.33828
 H250 H 0.84188 -0.13103 0.36301
 H251 H 0.82039 -0.15559 0.30137
 H252 H 0.88651 -0.08664 0.24859
 H253 H 0.90789 -0.06220 0.30993
 C254 C 0.81801 0.17890 0.69397
 C255 C 0.82052 0.13918 0.70659
 C256 C 0.84124 0.11813 0.68420
 C257 C 0.85744 0.13886 0.65138
 C258 C 0.87764 0.17096 0.66874
 C259 C 0.85692 0.19200 0.69112
 C260 C 0.80463 0.17704 0.65390
 C261 C 0.82537 0.15598 0.63150
 C262 C 0.79584 0.20153 0.71823
 C263 C 0.77786 0.22006 0.73856
 C264 C 0.87988 0.11618 0.62741
 C265 C 0.89859 0.09753 0.60801
 H266 H 0.80717 0.12851 0.73095
 H267 H 0.84565 0.08943 0.68938
 H268 H 0.90575 0.17667 0.66386
 H269 H 0.86727 0.21574 0.70543
 H270 H 0.78097 0.19102 0.64401
 H271 H 0.81947 0.15192 0.60241
 C272 C 0.27985 1.12267 0.14206
 C273 C 0.29461 1.14509 0.10967
 C274 C 0.32725 1.13372 0.09757
 C275 C 0.34194 1.10105 0.11904
 C276 C 0.31269 1.07189 0.11626
 C277 C 0.28012 1.08323 0.12833
 C278 C 0.30904 1.12436 0.17188
 C279 C 0.34176 1.11297 0.15975
 C280 C 0.24424 1.13422 0.15432
 C281 C 0.21409 1.14231 0.16283
 C282 C 0.37653 1.08806 0.10523
 C283 C 0.40368 1.07580 0.09230
 H284 H 0.28070 1.16797 0.09742
 H285 H 0.34131 1.14687 0.07495
 H286 H 0.31719 1.04462 0.10578
 H287 H 0.25675 1.06567 0.12818
 H288 H 0.30444 1.13371 0.19995
 H289 H 0.36520 1.11255 0.17742
 C290 C 0.69238 1.18036 -0.17751
 C291 C 0.69605 1.13943 -0.18472
 C292 C 0.67383 1.11866 -0.16358
 C293 C 0.65012 1.14084 -0.13730
 C294 C 0.63034 1.16786 -0.16226
 C295 C 0.65257 1.18864 -0.18341
 C296 C 0.69847 1.18490 -0.13580
 C297 C 0.67625 1.16412 -0.11466
 C298 C 0.71642 1.20261 -0.20024
 C299 C 0.73649 1.22067 -0.21889
 C300 C 0.62633 1.11834 -0.11453
 C301 C 0.60707 1.09958 -0.09578
 H302 H 0.71447 1.12779 -0.20468
 H303 H 0.67323 1.08922 -0.16544
 H304 H 0.60144 1.17044 -0.16324
 H305 H 0.64271 1.20904 -0.20250
 H306 H 0.71846 1.20287 -0.12392
 H307 H 0.67721 1.16429 -0.08467
 C308 C 0.27668 0.85852 -0.11970
 C309 C 0.27516 0.88345 -0.08574
 C310 C 0.30763 0.89651 -0.07523
 C311 C 0.33860 0.88342 -0.09966
 C312 C 0.32801 0.89420 -0.13914
 C313 C 0.29545 0.88111 -0.14968
 C314 C 0.30353 0.82864 -0.10946
 C315 C 0.33616 0.84176 -0.09890
 C316 C 0.24116 0.84532 -0.13052
 C317 C 0.21108 0.83629 -0.13833
 C318 C 0.37308 0.89845 -0.08776
 C319 C 0.40012 0.91274 -0.07683
 H320 H 0.25067 0.89023 -0.07115
 H321 H 0.31093 0.91446 -0.05164
 H322 H 0.34467 0.91056 -0.15727
 H323 H 0.28421 0.88625 -0.17684
 H324 H 0.29749 0.79980 -0.11048
 H325 H 0.35807 0.82416 -0.09088
 C326 C 0.75126 0.85939 0.13442
 C327 C 0.73905 0.89464 0.15327
 C328 C 0.70823 0.90845 0.13903
 C329 C 0.69262 0.88568 0.10732
 C330 C 0.68832 0.84727 0.12331
 C331 C 0.71921 0.83342 0.13758
 C332 C 0.75377 0.86877 0.09317
 C333 C 0.72299 0.88257 0.07895
 C334 C 0.78489 0.84508 0.14925
 C335 C 0.81343 0.83452 0.16036
 C336 C 0.65987 0.90108 0.09155
 C337 C 0.63386 0.91477 0.07772
 H338 H 0.75331 0.90755 0.17589
 H339 H 0.69609 0.93321 0.14945
 H340 H 0.66327 0.83230 0.12344
 H341 H 0.72063 0.80659 0.14994
 H342 H 0.77765 0.86484 0.07654
 H343 H 0.72051 0.89046 0.05015
   
