data_POSCAR
  _audit_creation_date              2014-09-24
  _audit_creation_method            'ToBaCCo'
  _symmetry_space_group_name_H-M    'P1'
  _symmetry_Int_Tables_number       1
  _symmetry_cell_setting            triclinic
  loop_
  _symmetry_equiv_pos_as_xyz
 x,y,z
_cell_length_a 49.7399
_cell_length_b 50.3586
_cell_length_c 50.1967
_cell_angle_alpha 89.960100
_cell_angle_beta 90.110200
_cell_angle_gamma 89.979600
loop_
  _atom_site_label
  _atom_site_type_symbol
  _atom_site_fract_x
  _atom_site_fract_y
  _atom_site_fract_z
C1 C 0.27727 0.37958 -0.00295
 C2 C 0.28272 0.36756 0.02151
 C3 C 0.30086 0.34634 0.02302
 C4 C 0.31492 0.33770 0.00013
 C5 C 0.30965 0.35080 -0.02434
 C6 C 0.29042 0.37108 -0.02594
 C7 C 0.33492 0.31533 0.00170
 C8 C 0.34201 0.30085 -0.02139
 C9 C 0.36164 0.28098 -0.02034
 C10 C 0.37332 0.27406 0.00397
 C11 C 0.36607 0.28740 0.02722
 C12 C 0.34749 0.30833 0.02609
 H13 H 0.26280 0.39570 -0.00403
 H14 H 0.30368 0.33678 0.04210
 H15 H 0.32047 0.34568 -0.04227
 H16 H 0.33254 0.30483 -0.04038
 H17 H 0.38837 0.25846 0.00481
 H18 H 0.34340 0.31913 0.04423
 C19 C 0.72230 0.61958 0.00124
 C20 C 0.70985 0.62769 0.02471
 C21 C 0.69087 0.64816 0.02418
 C22 C 0.68508 0.66197 0.00028
 C23 C 0.69841 0.65372 -0.02326
 C24 C 0.71635 0.63222 -0.02281
 C25 C 0.66510 0.68446 0.00006
 C26 C 0.65216 0.69242 -0.02379
 C27 C 0.63342 0.71323 -0.02375
 C28 C 0.62638 0.72552 0.00015
 C29 C 0.63842 0.71769 0.02398
 C30 C 0.65821 0.69793 0.02390
 H31 H 0.73657 0.60328 0.00166
 H32 H 0.68067 0.65281 0.04257
 H33 H 0.69518 0.66377 -0.04202
 H34 H 0.65606 0.68240 -0.04243
 H35 H 0.61123 0.74106 0.00030
 H36 H 0.66788 0.69329 0.04261
 C37 C 0.72141 0.37601 1.00327
 C38 C 0.71543 0.36419 0.97885
 C39 C 0.69634 0.34379 0.97742
 C40 C 0.68192 0.33583 1.00035
 C41 C 0.68779 0.34877 1.02476
 C42 C 0.70789 0.36818 1.02626
 C43 C 0.66091 0.31437 0.99889
 C44 C 0.65316 0.30034 1.02206
 C45 C 0.63271 0.28129 1.02111
 C46 C 0.62078 0.27476 0.99682
 C47 C 0.62863 0.28764 0.97349
 C48 C 0.64810 0.30776 0.97451
 H49 H 0.73651 0.39153 1.00434
 H50 H 0.69306 0.33435 0.95836
 H51 H 0.67681 0.34425 1.04275
 H52 H 0.66278 0.30400 1.04104
 H53 H 0.60513 0.25975 0.99606
 H54 H 0.65271 0.31824 0.95629
 C55 C 0.27790 0.62540 0.99828
 C56 C 0.29094 0.63280 0.97489
 C57 C 0.31065 0.65255 0.97542
 C58 C 0.31667 0.66631 0.99926
 C59 C 0.30277 0.65880 1.02274
 C60 C 0.28402 0.63801 1.02225
 C61 C 0.33755 0.68791 0.99952
 C62 C 0.35086 0.69515 1.02338
 C63 C 0.37049 0.71511 1.02339
 C64 C 0.37801 0.72723 0.99952
 C65 C 0.36559 0.72006 0.97568
 C66 C 0.34496 0.70118 0.97573
 H67 H 0.26307 0.60960 0.99785
 H68 H 0.32127 0.65667 0.95713
 H69 H 0.30622 0.66886 1.04144
 H70 H 0.34651 0.68520 1.04197
 H71 H 0.39381 0.74211 0.99942
 H72 H 0.33503 0.69702 0.95703
 C73 C -0.00179 0.27657 0.37555
 C74 C 0.02191 0.28902 0.36760
 C75 C 0.02116 0.30918 0.34836
 C76 C -0.00336 0.31630 0.33582
 C77 C -0.02698 0.30266 0.34366
 C78 C -0.02624 0.28358 0.36392
 C79 C -0.00449 0.33803 0.31521
 C80 C -0.02901 0.35114 0.30941
 C81 C -0.03034 0.37085 0.28980
 C82 C -0.00702 0.37892 0.27671
 C83 C 0.01759 0.36700 0.28265
 C84 C 0.01883 0.34623 0.30124
 H85 H -0.00125 0.26155 0.39105
 H86 H 0.03972 0.31929 0.34373
 H87 H -0.04616 0.30660 0.33435
 H88 H -0.04724 0.34649 0.32012
 H89 H -0.00794 0.39467 0.26196
 H90 H 0.03803 0.33672 0.30448
 C91 C 0.00029 0.72128 0.62328
 C92 C 0.02438 0.70879 0.62995
 C93 C 0.02481 0.68911 0.64960
 C94 C 0.00127 0.68256 0.66401
 C95 C -0.02287 0.69597 0.65725
 C96 C -0.02339 0.71467 0.63655
 C97 C 0.00197 0.66173 0.68554
 C98 C -0.02175 0.64850 0.69368
 C99 C -0.02093 0.62911 0.71373
 C100 C 0.00364 0.62173 0.72499
 C101 C 0.02735 0.63404 0.71690
 C102 C 0.02651 0.65441 0.69794
 H103 H -0.00006 0.73608 0.60756
 H104 H 0.04361 0.67895 0.65314
 H105 H -0.04138 0.69220 0.66782
 H106 H -0.04092 0.65272 0.68441
 H107 H 0.00438 0.60616 0.73995
 H108 H 0.04517 0.66424 0.69311
 C109 C 1.00202 0.72195 0.37739
 C110 C 0.97691 0.71581 0.36668
 C111 C 0.97472 0.69714 0.34615
 C112 C 0.99761 0.68317 0.33698
 C113 C 1.02283 0.68925 0.34873
 C114 C 1.02503 0.70900 0.36829
 C115 C 0.99518 0.66238 0.31557
 C116 C 1.01783 0.65463 0.30041
 C117 C 1.01581 0.63450 0.28128
 C118 C 0.99095 0.62288 0.27585
 C119 C 0.96815 0.63067 0.28994
 C120 C 0.97028 0.64977 0.31012
 H121 H 1.00358 0.73675 0.39304
 H122 H 0.95507 0.69381 0.33759
 H123 H 1.04085 0.67864 0.34318
 H124 H 1.03717 0.66400 0.30322
 H125 H 0.98933 0.60752 0.26076
 H126 H 0.95245 0.65427 0.32153
 C127 C 1.00620 0.27724 0.62302
 C128 C 0.98231 0.28941 0.63078
 C129 C 0.98259 0.30910 0.65044
 C130 C 1.00678 0.31599 0.66365
 C131 C 1.03069 0.30279 0.65588
 C132 C 1.03042 0.28412 0.63521
 C133 C 1.00710 0.33702 0.68495
 C134 C 1.03116 0.35052 0.69158
 C135 C 1.03149 0.36991 0.71157
 C136 C 1.00766 0.37710 0.72429
 C137 C 0.98355 0.36462 0.71764
 C138 C 0.98331 0.34423 0.69868
 H139 H 1.00598 0.26249 0.60727
 H140 H 0.96387 0.31902 0.65489
 H141 H 1.04966 0.30674 0.66561
 H142 H 1.04972 0.34648 0.68118
 H143 H 1.00779 0.39265 0.73927
 H144 H 0.96445 0.33426 0.69491
 C145 C 0.37950 -0.00190 0.27595
 C146 C 0.37148 0.02174 0.28801
 C147 C 0.35141 0.02148 0.30752
 C148 C 0.33797 -0.00238 0.31429
 C149 C 0.34600 -0.02602 0.30121
 C150 C 0.36711 -0.02583 0.28275
 C151 C 0.31608 -0.00263 0.33498
 C152 C 0.30891 -0.02638 0.34833
 C153 C 0.28840 -0.02656 0.36740
 C154 C 0.27565 -0.00292 0.37446
 C155 C 0.28279 0.02086 0.36212
 C156 C 0.30227 0.02096 0.34201
 H157 H 0.39555 -0.00164 0.26133
 H158 H 0.34679 0.03999 0.31736
 H159 H 0.33605 -0.04470 0.30510
 H160 H 0.31925 -0.04484 0.34447
 H161 H 0.26030 -0.00301 0.38979
 H162 H 0.30638 0.03959 0.33215
 C163 C 0.62085 0.00218 0.72501
 C164 C 0.62798 0.02615 0.71301
 C165 C 0.64805 0.02668 0.69351
 C166 C 0.66236 0.00335 0.68668
 C167 C 0.65523 -0.02061 0.69968
 C168 C 0.63412 -0.02126 0.71814
 C169 C 0.68419 0.00397 0.66596
 C170 C 0.69205 -0.01944 0.65242
 C171 C 0.71253 -0.01884 0.63334
 C172 C 0.72453 0.00521 0.62645
 C173 C 0.71668 0.02866 0.63896
 C174 C 0.69723 0.02803 0.65909
 H175 H 0.60478 0.00180 0.73961
 H176 H 0.65199 0.04538 0.68372
 H177 H 0.66587 -0.03890 0.69573
 H178 H 0.68229 -0.03823 0.65617
 H179 H 0.73986 0.00570 0.61111
 H180 H 0.69254 0.04643 0.66909
 C181 C 0.37338 0.99886 0.72244
 C182 C 0.36705 0.97491 0.71006
 C183 C 0.34794 0.97428 0.68957
 C184 C 0.33385 0.99756 0.68202
 C185 C 0.34022 1.02154 0.69540
 C186 C 0.36036 1.02220 0.71493
 C187 C 0.31312 0.99689 0.66015
 C188 C 0.30592 1.02027 0.64615
 C189 C 0.28644 1.01961 0.62596
 C190 C 0.27485 0.99550 0.61852
 C191 C 0.28208 0.97209 0.63153
 C192 C 0.30049 0.97280 0.65266
 H193 H 0.38876 0.99938 0.73781
 H194 H 0.34462 0.95559 0.67953
 H195 H 0.32980 1.03984 0.69091
 H196 H 0.31550 1.03906 0.65044
 H197 H 0.26027 0.99488 0.60240
 H198 H 0.30469 0.95442 0.66298
 C199 C 0.62630 1.00128 0.27554
 C200 C 0.63370 0.97770 0.28810
 C201 C 0.65290 0.97798 0.30851
 C202 C 0.66603 1.00185 0.31578
 C203 C 0.65864 1.02546 0.30225
 C204 C 0.63837 1.02521 0.28281
 C205 C 0.68684 1.00215 0.33756
 C206 C 0.69298 1.02585 0.35146
 C207 C 0.71248 1.02605 0.37160
 C208 C 0.72517 1.00252 0.37909
 C209 C 0.71900 0.97879 0.36618
 C210 C 0.70056 0.97864 0.34508
 H211 H 0.61082 1.00101 0.26026
 H212 H 0.65703 0.95952 0.31870
 H213 H 0.66836 1.04416 0.30661
 H214 H 0.68262 1.04422 0.34717
 H215 H 0.73976 1.00263 0.39520
 H216 H 0.69717 0.96008 0.33483
 O217 O 0.81958 0.85929 0.52838
 O218 O 0.85884 0.82227 0.47888
 O219 O 0.82228 0.85889 0.47696
 O220 O 0.85672 0.82268 0.53057
 O221 O 0.82539 0.79157 0.52951
 O222 O 0.79062 0.82808 0.47558
 O223 O 0.82743 0.79122 0.47751
 O224 O 0.78797 0.82844 0.52731
 Cu225 Cu 0.84254 0.84385 0.50392
 Cu226 Cu 0.80468 0.80664 0.50245
 C227 C 0.79698 0.85040 0.53589
 C228 C 0.84978 0.80057 0.46976
 C229 C 0.80062 0.84976 0.46729
 C230 C 0.84711 0.80091 0.53894
 O231 O 0.18351 0.14317 0.51994
 O232 O 0.14520 0.18340 0.47198
 O233 O 0.18021 0.14501 0.46856
 O234 O 0.14752 0.18055 0.52345
 O235 O 0.17989 0.21064 0.52330
 O236 O 0.21302 0.17463 0.46808
 O237 O 0.17772 0.21332 0.47148
 O238 O 0.21615 0.17299 0.51978
 Cu239 Cu 0.16084 0.16007 0.49600
 Cu240 Cu 0.19998 0.19594 0.49560
 C241 C 0.20639 0.15113 0.52778
 C242 C 0.15483 0.20524 0.46380
 C243 C 0.20227 0.15349 0.45928
 C244 C 0.15794 0.20164 0.53253
 O245 O 0.18583 0.84716 0.47147
 O246 O 0.14794 0.80897 0.52108
 O247 O 0.18329 0.84689 0.52296
 O248 O 0.14985 0.80934 0.46977
 O249 O 0.18210 0.77913 0.47088
 O250 O 0.21594 0.81710 0.52441
 O251 O 0.18030 0.77886 0.52252
 O252 O 0.21842 0.81731 0.47253
 Cu253 Cu 0.16351 0.83112 0.49611
 Cu254 Cu 0.20254 0.79510 0.49763
 C255 C 0.20867 0.83897 0.46390
 C256 C 0.15750 0.78737 0.52997
 C257 C 0.20528 0.83850 0.53260
 C258 C 0.15989 0.78764 0.46175
 O259 O 0.85508 0.18675 0.52726
 O260 O 0.81484 0.14816 0.47965
 O261 O 0.85266 0.18359 0.47589
 O262 O 0.81831 0.15014 0.53105
 O263 O 0.78695 0.18128 0.53132
 O264 O 0.82180 0.21523 0.47580
 O265 O 0.78368 0.17950 0.47956
 O266 O 0.82403 0.21820 0.52754
 Cu267 Cu 0.83833 0.16402 0.50348
 Cu268 Cu 0.80096 0.20175 0.50359
 C269 C 0.84653 0.20910 0.53523
 C270 C 0.79241 0.15719 0.47169
 C271 C 0.84330 0.20512 0.46666
 C272 C 0.79674 0.15975 0.54032
 O273 O 0.47759 0.85606 0.81598
 O274 O 0.52706 0.81806 0.85495
 O275 O 0.52951 0.85530 0.81895
 O276 O 0.47510 0.82041 0.85345
 O277 O 0.47527 0.78900 0.82268
 O278 O 0.53003 0.82449 0.78758
 O279 O 0.52759 0.78695 0.82388
 O280 O 0.47778 0.82492 0.78493
 Cu281 Cu 0.50230 0.84056 0.83894
 Cu282 Cu 0.50273 0.80317 0.80163
 C283 C 0.46949 0.84703 0.79378
 C284 C 0.53548 0.79597 0.84614
 C285 C 0.53874 0.84613 0.79733
 C286 C 0.46613 0.79876 0.84418
 O287 O 0.52571 0.18069 0.14480
 O288 O 0.47493 0.14579 0.18440
 O289 O 0.47384 0.18280 0.14771
 O290 O 0.52685 0.14462 0.18153
 O291 O 0.52979 0.17558 0.21264
 O292 O 0.47644 0.21392 0.17865
 O293 O 0.47756 0.17660 0.21566
 O294 O 0.52867 0.21191 0.17565
 Cu295 Cu 0.49991 0.16037 0.16152
 Cu296 Cu 0.50325 0.19767 0.19881
 C297 C 0.53576 0.20215 0.15343
 C298 C 0.46803 0.15490 0.20689
 C299 C 0.46653 0.20502 0.15712
 C300 C 0.53728 0.15360 0.20277
 O301 O 0.46835 0.18055 0.85566
 O302 O 0.51995 0.14674 0.81619
 O303 O 0.52023 0.18340 0.85312
 O304 O 0.46804 0.14472 0.81864
 O305 O 0.46485 0.17589 0.78773
 O306 O 0.51737 0.21473 0.82237
 O307 O 0.51707 0.17777 0.78512
 O308 O 0.46514 0.21198 0.82501
 Cu309 Cu 0.49457 0.16073 0.83898
 Cu310 Cu 0.49092 0.19828 0.80193
 C311 C 0.45806 0.20194 0.84712
 C312 C 0.52690 0.15616 0.79382
 C313 C 0.52731 0.20577 0.84388
 C314 C 0.45766 0.15370 0.79736
 O315 O 0.47811 0.81682 0.14515
 O316 O 0.52745 0.85502 0.18387
 O317 O 0.53006 0.81932 0.14644
 O318 O 0.47554 0.85386 0.18121
 O319 O 0.47536 0.82295 0.21253
 O320 O 0.53024 0.78788 0.17723
 O321 O 0.52762 0.82387 0.21495
 O322 O 0.47793 0.78562 0.17617
 Cu323 Cu 0.50280 0.83936 0.16106
 Cu324 Cu 0.50279 0.80191 0.19837
 C325 C 0.46985 0.79468 0.15398
 C326 C 0.53567 0.84606 0.20606
 C327 C 0.53920 0.79769 0.15567
 C328 C 0.46642 0.84454 0.20283
 O329 O 0.86087 0.52286 0.82095
 O330 O 0.82502 0.47233 0.85997
 O331 O 0.86169 0.47156 0.82320
 O332 O 0.82475 0.52390 0.85862
 O333 O 0.79265 0.52272 0.82811
 O334 O 0.82994 0.47008 0.79234
 O335 O 0.79303 0.47088 0.82934
 O336 O 0.82900 0.52167 0.79020
 Cu337 Cu 0.84624 0.49786 0.84379
 Cu338 Cu 0.80788 0.49626 0.80692
 C339 C 0.85124 0.53053 0.79883
 C340 C 0.80298 0.46308 0.85129
 C341 C 0.85225 0.46211 0.80174
 C342 C 0.80240 0.53202 0.84957
 O343 O 0.17278 0.47701 0.13713
 O344 O 0.13490 0.52837 0.17282
 O345 O 0.17272 0.52858 0.13711
 O346 O 0.13523 0.47686 0.17312
 O347 O 0.16600 0.47691 0.20498
 O348 O 0.20364 0.52887 0.16883
 O349 O 0.16560 0.52868 0.20474
 O350 O 0.20376 0.47704 0.16879
 Cu351 Cu 0.15083 0.50269 0.15185
 Cu352 Cu 0.18788 0.50290 0.19005
 C353 C 0.19467 0.46840 0.14680
 C354 C 0.14370 0.53711 0.19484
 C355 C 0.19453 0.53741 0.14679
 C356 C 0.14416 0.46823 0.19517
 O357 O 0.84209 0.47284 0.19260
 O358 O 0.80580 0.52380 0.15484
 O359 O 0.84198 0.52406 0.19248
 O360 O 0.80584 0.47264 0.15497
 O361 O 0.77356 0.47246 0.18520
 O362 O 0.81001 0.52430 0.22302
 O363 O 0.77345 0.52400 0.18501
 O364 O 0.81018 0.47268 0.22322
 Cu365 Cu 0.82715 0.49832 0.17070
 Cu366 Cu 0.78854 0.49835 0.20722
 C367 C 0.83261 0.46445 0.21445
 C368 C 0.78334 0.53220 0.16320
 C369 C 0.83240 0.53262 0.21423
 C370 C 0.78341 0.46419 0.16341
 O371 O 0.19306 0.52557 0.84938
 O372 O 0.15580 0.47531 0.81153
 O373 O 0.19304 0.47444 0.84825
 O374 O 0.15509 0.52664 0.81382
 O375 O 0.18581 0.52811 0.78207
 O376 O 0.22431 0.47555 0.81701
 O377 O 0.18667 0.47636 0.77991
 O378 O 0.22412 0.52703 0.81793
 Cu379 Cu 0.17111 0.50030 0.83386
 Cu380 Cu 0.20833 0.50181 0.79596
 C381 C 0.21499 0.53457 0.84026
 C382 C 0.16469 0.46758 0.78919
 C383 C 0.21529 0.46656 0.83890
 C384 C 0.16384 0.53614 0.79214
 C385 C 0.27016 0.37809 0.04505
 C386 C 0.25943 0.38868 0.06373
 C387 C 0.24657 0.40290 0.08427
 C388 C 0.23528 0.41639 0.10060
 C389 C 0.22164 0.43351 0.11823
 C390 C 0.20958 0.44905 0.13199
 C391 C 0.71720 0.61518 0.04946
 C392 C 0.72456 0.60443 0.06963
 C393 C 0.73456 0.59125 0.09238
 C394 C 0.74423 0.57926 0.11082
 C395 C 0.75680 0.56417 0.13097
 C396 C 0.76848 0.55020 0.14667
 C397 C 0.72830 0.37426 0.95527
 C398 C 0.73928 0.38455 0.93655
 C399 C 0.75234 0.39848 0.91591
 C400 C 0.76366 0.41174 0.89941
 C401 C 0.77712 0.42862 0.88140
 C402 C 0.78881 0.44395 0.86709
 C403 C 0.28351 0.62010 0.95033
 C404 C 0.27588 0.60898 0.93050
 C405 C 0.26540 0.59524 0.90838
 C406 C 0.25524 0.58272 0.89061
 C407 C 0.24213 0.56706 0.87133
 C408 C 0.23008 0.55275 0.85629
 C409 C 0.04682 0.28061 0.37960
 C410 C 0.06655 0.27189 0.39050
 C411 C 0.08825 0.26002 0.40422
 C412 C 0.10551 0.24871 0.41671
 C413 C 0.12422 0.23434 0.43223
 C414 C 0.13891 0.22134 0.44623
 C415 C 0.04864 0.71679 0.61662
 C416 C 0.06818 0.72488 0.60503
 C417 C 0.08997 0.73582 0.59084
 C418 C 0.10749 0.74630 0.57808
 C419 C 0.12657 0.75973 0.56230
 C420 C 0.14151 0.77201 0.54801
 C421 C 0.95342 0.72804 0.37802
 C422 C 0.93477 0.73843 0.38921
 C423 C 0.91422 0.75082 0.40400
 C424 C 0.89777 0.76166 0.41782
 C425 C 0.87980 0.77472 0.43514
 C426 C 0.86553 0.78627 0.45066
 C427 C 0.95757 0.28116 0.61840
 C428 C 0.93775 0.27279 0.60743
 C429 C 0.91571 0.26149 0.59384
 C430 C 0.89799 0.25072 0.58155
 C431 C 0.87860 0.23702 0.56632
 C432 C 0.86326 0.22457 0.55255
 C433 C 0.38390 0.04624 0.27978
 C434 C 0.39482 0.06595 0.27149
 C435 C 0.40835 0.08791 0.26028
 C436 C 0.42065 0.10553 0.24954
 C437 C 0.43602 0.12463 0.23571
 C438 C 0.45009 0.13942 0.22298
 C439 C 0.61465 0.05015 0.72127
 C440 C 0.60303 0.06946 0.72954
 C441 C 0.58874 0.09095 0.74071
 C442 C 0.57585 0.10817 0.75140
 C443 C 0.55984 0.12679 0.76516
 C444 C 0.54530 0.14116 0.77782
 C445 C 0.38046 0.95115 0.71888
 C446 C 0.39238 0.93231 0.72782
 C447 C 0.40712 0.91156 0.73983
 C448 C 0.42037 0.89500 0.75115
 C449 C 0.43667 0.87697 0.76539
 C450 C 0.45127 0.86269 0.77815
 C451 C 0.62128 0.95335 0.27961
 C452 C 0.61015 0.93392 0.27099
 C453 C 0.59626 0.91245 0.25935
 C454 C 0.58362 0.89529 0.24830
 C455 C 0.56789 0.87664 0.23429
 C456 C 0.55363 0.86198 0.22165
 C457 C 0.37089 0.26948 0.95691
 C458 C 0.38065 0.25951 0.93739
 C459 C 0.39395 0.24792 0.91553
 C460 C 0.40680 0.23790 0.89789
 C461 C 0.42339 0.22590 0.87862
 C462 C 0.43870 0.21525 0.86346
 C463 C 0.62162 0.72177 0.95327
 C464 C 0.61045 0.73072 0.93392
 C465 C 0.59645 0.74268 0.91259
 C466 C 0.58371 0.75392 0.89555
 C467 C 0.56786 0.76802 0.87698
 C468 C 0.55352 0.78061 0.86227
 C469 C 0.38260 0.72302 0.04640
 C470 C 0.39400 0.73136 0.06586
 C471 C 0.40825 0.74264 0.08736
 C472 C 0.42119 0.75339 0.10454
 C473 C 0.43724 0.76704 0.12323
 C474 C 0.45172 0.77939 0.13795
 C475 C 0.62313 0.27008 0.04388
 C476 C 0.61314 0.26028 0.06338
 C477 C 0.59965 0.24877 0.08519
 C478 C 0.58673 0.23874 0.10278
 C479 C 0.57014 0.22662 0.12200
 C480 C 0.55491 0.21577 0.13712
 C481 C 0.27829 0.04229 0.61349
 C482 C 0.26980 0.06155 0.60196
 C483 C 0.25842 0.08300 0.58777
 C484 C 0.24766 0.10031 0.57505
 C485 C 0.23403 0.11933 0.55939
 C486 C 0.22170 0.13448 0.54535
 C487 C 0.72010 0.05029 0.38474
 C488 C 0.72812 0.06962 0.39642
 C489 C 0.73921 0.09099 0.41087
 C490 C 0.74996 0.10808 0.42385
 C491 C 0.76380 0.12665 0.43978
 C492 C 0.77649 0.14128 0.45402
 C493 C 0.72168 0.95720 0.62061
 C494 C 0.73072 0.93801 0.60942
 C495 C 0.74271 0.91669 0.59560
 C496 C 0.75398 0.89957 0.58312
 C497 C 0.76822 0.88090 0.56765
 C498 C 0.78106 0.86622 0.55362
 C499 C 0.27999 0.94908 0.37993
 C500 C 0.27162 0.92948 0.39094
 C501 C 0.26042 0.90758 0.40454
 C502 C 0.24981 0.88991 0.41686
 C503 C 0.23631 0.87056 0.43219
 C504 C 0.22403 0.85534 0.44615
 C505 C 0.05486 0.38189 0.71905
 C506 C 0.07475 0.39302 0.72699
 C507 C 0.09686 0.40686 0.73782
 C508 C 0.11457 0.41944 0.74823
 C509 C 0.13378 0.43515 0.76161
 C510 C 0.14876 0.44945 0.77386
 C511 C 0.03810 0.62493 0.26881
 C512 C 0.05705 0.61487 0.25783
 C513 C 0.07810 0.60124 0.24494
 C514 C 0.09500 0.58820 0.23383
 C515 C 0.11342 0.57152 0.22060
 C516 C 0.12794 0.55626 0.20903
 C517 C 0.94573 0.38210 0.28289
 C518 C 0.92521 0.39248 0.27548
 C519 C 0.90227 0.40542 0.26521
 C520 C 0.88384 0.41732 0.25517
 C521 C 0.86392 0.43241 0.24207
 C522 C 0.84856 0.44640 0.22989
 C523 C 0.95620 0.61719 0.72262
 C524 C 0.93694 0.60595 0.73183
 C525 C 0.91577 0.59191 0.74408
 C526 C 0.89893 0.57912 0.75559
 C527 C 0.88073 0.56319 0.77003
 C528 C 0.86652 0.54875 0.78297
 C529 C 0.72828 0.62200 0.95311
 C530 C 0.73865 0.61152 0.93410
 C531 C 0.75122 0.59737 0.91323
 C532 C 0.76231 0.58396 0.89663
 C533 C 0.77576 0.56692 0.87866
 C534 C 0.78766 0.55143 0.86462
 C535 C 0.28383 0.38243 0.95024
 C536 C 0.27655 0.39304 0.92991
 C537 C 0.26633 0.40633 0.90726
 C538 C 0.25629 0.41855 0.88911
 C539 C 0.24315 0.43398 0.86951
 C540 C 0.23091 0.44823 0.85445
 C541 C 0.27152 0.62823 0.04620
 C542 C 0.26056 0.61784 0.06492
 C543 C 0.24725 0.60356 0.08523
 C544 C 0.23558 0.58993 0.10123
 C545 C 0.22159 0.57260 0.11847
 C546 C 0.20939 0.55692 0.13201
 C547 C 0.71525 0.38017 0.05130
 C548 C 0.72294 0.39085 0.07142
 C549 C 0.73349 0.40421 0.09387
 C550 C 0.74363 0.41643 0.11194
 C551 C 0.75664 0.43182 0.13164
 C552 C 0.76853 0.44598 0.14704
 C553 C 0.95185 0.72658 0.62757
 C554 C 0.93230 0.73700 0.61789
 C555 C 0.91091 0.74966 0.60437
 C556 C 0.89401 0.76085 0.59125
 C557 C 0.87590 0.77437 0.57429
 C558 C 0.86191 0.78628 0.55868
 C559 C 0.94938 0.27217 0.37431
 C560 C 0.92987 0.26262 0.38482
 C561 C 0.90827 0.25129 0.39905
 C562 C 0.89105 0.24136 0.41268
 C563 C 0.87251 0.22933 0.43019
 C564 C 0.85823 0.21859 0.44630
 C565 C 0.05493 0.27269 0.62512
 C566 C 0.07431 0.26281 0.61467
 C567 C 0.09554 0.25085 0.60038
 C568 C 0.11227 0.24027 0.58666
 C569 C 0.13013 0.22738 0.56905
 C570 C 0.14377 0.21591 0.55289
 C571 C 0.04936 0.71615 0.37860
 C572 C 0.06994 0.72404 0.38858
 C573 C 0.09265 0.73504 0.40141
 C574 C 0.11067 0.74569 0.41343
 C575 C 0.12998 0.75942 0.42882
 C576 C 0.14472 0.77197 0.44317
 C577 C 0.62538 0.95533 0.72870
 C578 C 0.61598 0.93538 0.73819
 C579 C 0.60300 0.91320 0.74961
 C580 C 0.59035 0.89545 0.75974
 C581 C 0.57385 0.87628 0.77215
 C582 C 0.55847 0.86150 0.78330
 C583 C 0.37670 0.95115 0.27206
 C584 C 0.38682 0.93161 0.26244
 C585 C 0.40056 0.90997 0.25085
 C586 C 0.41376 0.89269 0.24060
 C587 C 0.43077 0.87402 0.22809
 C588 C 0.44647 0.85962 0.21688
 C589 C 0.62895 0.04815 0.27183
 C590 C 0.61868 0.06744 0.26188
 C591 C 0.60451 0.08863 0.24995
 C592 C 0.59085 0.10547 0.23953
 C593 C 0.57333 0.12369 0.22705
 C594 C 0.55732 0.13801 0.21613
 C595 C 0.36925 0.04682 0.72655
 C596 C 0.37890 0.06633 0.73666
 C597 C 0.39242 0.08777 0.74886
 C598 C 0.40555 0.10482 0.75957
 C599 C 0.42250 0.12330 0.77242
 C600 C 0.43807 0.13785 0.78366
 C601 C 0.62881 0.72899 0.04856
 C602 C 0.61885 0.73860 0.06821
 C603 C 0.60518 0.75013 0.08998
 C604 C 0.59199 0.76029 0.10733
 C605 C 0.57494 0.77268 0.12607
 C606 C 0.55920 0.78377 0.14053
 C607 C 0.37826 0.27920 0.05198
 C608 C 0.38942 0.27060 0.07152
 C609 C 0.40356 0.25884 0.09294
 C610 C 0.41654 0.24766 0.10989
 C611 C 0.43282 0.23350 0.12812
 C612 C 0.44766 0.22074 0.14222
 C613 C 0.61624 0.27965 0.94876
 C614 C 0.60486 0.27117 0.92929
 C615 C 0.59046 0.25951 0.90799
 C616 C 0.57730 0.24839 0.89114
 C617 C 0.56091 0.23427 0.87298
 C618 C 0.54606 0.22153 0.85889
 C619 C 0.37553 0.73114 0.95113
 C620 C 0.38572 0.74050 0.93147
 C621 C 0.39962 0.75172 0.90969
 C622 C 0.41298 0.76165 0.89232
 C623 C 0.43020 0.77382 0.87360
 C624 C 0.44606 0.78482 0.85919
 C625 C 0.73079 0.95458 0.37600
 C626 C 0.74082 0.93531 0.38624
 C627 C 0.75278 0.91410 0.40030
 C628 C 0.76323 0.89725 0.41386
 C629 C 0.77581 0.87906 0.43127
 C630 C 0.78691 0.86491 0.44723
 C631 C 0.27134 0.94733 0.62187
 C632 C 0.26213 0.92755 0.61187
 C633 C 0.25103 0.90565 0.59818
 C634 C 0.24123 0.88814 0.58499
 C635 C 0.22928 0.86915 0.56801
 C636 C 0.21862 0.85433 0.55238
 C637 C 0.27097 0.04525 0.37151
 C638 C 0.26103 0.06484 0.38118
 C639 C 0.24924 0.08665 0.39443
 C640 C 0.23897 0.10415 0.40726
 C641 C 0.22662 0.12315 0.42392
 C642 C 0.21572 0.13791 0.43943
 C643 C 0.72780 0.05340 0.62970
 C644 C 0.73734 0.07316 0.61997
 C645 C 0.74888 0.09497 0.60650
 C646 C 0.75910 0.11228 0.59339
 C647 C 0.77160 0.13084 0.57633
 C648 C 0.78277 0.14504 0.56050
 C649 C 0.94272 0.61873 0.28313
 C650 C 0.92245 0.60785 0.27567
 C651 C 0.90006 0.59410 0.26516
 C652 C 0.88223 0.58148 0.25492
 C653 C 0.86297 0.56561 0.24167
 C654 C 0.84807 0.55110 0.22951
 C655 C 0.95906 0.37414 0.72960
 C656 C 0.93958 0.38404 0.73987
 C657 C 0.91809 0.39762 0.75220
 C658 C 0.90094 0.41065 0.76301
 C659 C 0.88235 0.42738 0.77605
 C660 C 0.86783 0.44273 0.78755
 C661 C 0.05256 0.62433 0.72721
 C662 C 0.07276 0.61437 0.73602
 C663 C 0.09519 0.60080 0.74666
 C664 C 0.11316 0.58777 0.75616
 C665 C 0.13264 0.57101 0.76789
 C666 C 0.14779 0.55560 0.77855
 C667 C 0.04144 0.37735 0.27013
 C668 C 0.06019 0.38799 0.25929
 C669 C 0.08070 0.40238 0.24626
 C670 C 0.09700 0.41600 0.23489
 C671 C 0.11472 0.43324 0.22131
 C672 C 0.12874 0.44883 0.20950
   
