data_POSCAR
  _audit_creation_date              2014-09-24
  _audit_creation_method            'ToBaCCo'
  _symmetry_space_group_name_H-M    'P1'
  _symmetry_Int_Tables_number       1
  _symmetry_cell_setting            triclinic
  loop_
  _symmetry_equiv_pos_as_xyz
 x,y,z
_cell_length_a 16.2228
_cell_length_b 31.2359
_cell_length_c 38.4373
_cell_angle_alpha 89.572300
_cell_angle_beta 90.486100
_cell_angle_gamma 85.339500
loop_
  _atom_site_label
  _atom_site_type_symbol
  _atom_site_fract_x
  _atom_site_fract_y
  _atom_site_fract_z
O1 O 0.20704 0.28731 0.23362
 O2 O 0.22463 0.20191 0.30106
 O3 O 0.21047 0.20008 0.23644
 O4 O 0.24315 0.28065 0.30195
 O5 O 0.10855 0.29171 0.30998
 O6 O 0.07574 0.21559 0.23794
 O7 O 0.08988 0.21194 0.30930
 O8 O 0.07536 0.30078 0.24677
 Cu9 Cu 0.23371 0.24277 0.26612
 Cu10 Cu 0.07389 0.25439 0.27565
 C11 C 0.13836 0.30976 0.22985
 C12 C 0.15983 0.19300 0.31710
 C13 C 0.13853 0.19363 0.22575
 C14 C 0.18241 0.29913 0.31803
 O15 O 0.54847 0.30973 0.24212
 O16 O 0.56643 0.21235 0.18960
 O17 O 0.52749 0.23123 0.25531
 O18 O 0.59443 0.29305 0.18047
 O19 O 0.72470 0.27830 0.19609
 O20 O 0.65774 0.21606 0.27123
 O21 O 0.69615 0.19845 0.20655
 O22 O 0.67799 0.29657 0.25993
 Cu23 Cu 0.54605 0.26199 0.21488
 Cu24 Cu 0.70202 0.24580 0.23505
 C25 C 0.60976 0.31983 0.26007
 C26 C 0.63455 0.18945 0.18820
 C27 C 0.58107 0.21449 0.27673
 C28 C 0.67088 0.29703 0.17571
 O29 O 0.78613 0.79358 0.76056
 O30 O 0.76145 0.71315 0.69362
 O31 O 0.77622 0.71075 0.76094
 O32 O 0.77769 0.79358 0.69333
 O33 O 0.91422 0.78562 0.69197
 O34 O 0.91056 0.69606 0.75526
 O35 O 0.89692 0.70310 0.68804
 O36 O 0.92172 0.77925 0.76031
 Cu37 Cu 0.76194 0.75388 0.72773
 Cu38 Cu 0.92458 0.73993 0.72364
 C39 C 0.85743 0.80011 0.77210
 C40 C 0.82433 0.69519 0.67868
 C41 C 0.84258 0.68843 0.76927
 C42 C 0.84583 0.80377 0.68109
 O43 O 0.29632 0.79264 0.79522
 O44 O 0.34041 0.70478 0.73244
 O45 O 0.28535 0.71067 0.79691
 O46 O 0.34886 0.78831 0.73117
 O47 O 0.47483 0.78212 0.75368
 O48 O 0.41578 0.69715 0.81288
 O49 O 0.47030 0.69821 0.75059
 O50 O 0.42183 0.77927 0.81738
 Cu51 Cu 0.30512 0.74996 0.76170
 Cu52 Cu 0.45889 0.73854 0.78533
 C53 C 0.35089 0.79964 0.81793
 C54 C 0.41322 0.68645 0.73095
 C55 C 0.34006 0.69015 0.81588
 C56 C 0.42234 0.79948 0.73210
 C57 C 1.00522 0.01577 0.03388
 C58 C 0.92049 0.01012 0.02690
 C59 C 0.90020 -0.01331 -0.00270
 C60 C 0.96025 -0.03081 -0.02576
 C61 C 1.04470 -0.02574 -0.01861
 C62 C 1.06505 -0.00171 0.01052
 H63 H 1.12957 0.00321 0.01525
 H64 H 0.83587 -0.01805 -0.00809
 C65 C 0.56963 0.52020 0.51433
 C66 C 0.49540 0.51107 0.53110
 C67 C 0.43527 0.49039 0.51271
 C68 C 0.44846 0.47772 0.47809
 C69 C 0.52264 0.48717 0.46143
 C70 C 0.58271 0.50767 0.47983
 H71 H 0.63897 0.51510 0.46685
 H72 H 0.37903 0.48305 0.52573
 C73 C -0.03833 0.45581 0.00911
 C74 C 0.03706 0.46831 0.02290
 C75 C 0.08816 0.49177 0.00216
 C76 C 0.06328 0.50658 -0.03135
 C77 C -0.01483 0.49599 -0.04460
 C78 C -0.06045 0.46805 -0.02505
 H79 H -0.11799 0.45824 -0.03576
 H80 H 0.14617 0.50069 0.01308
 C81 C 0.50212 0.99579 0.54337
 C82 C 0.58074 1.00322 0.52960
 C83 C 0.58591 1.03218 0.50184
 C84 C 0.51385 1.05068 0.48550
 C85 C 0.43592 1.03649 0.49506
 C86 C 0.43054 1.01082 0.52492
 H87 H 0.37056 1.00277 0.53392
 H88 H 0.64600 1.04031 0.49301
 C89 C 1.06229 0.13119 0.15137
 C90 C 1.12205 0.09738 0.15165
 C91 C 1.18788 0.09401 0.17500
 C92 C 1.19294 0.12699 0.19910
 C93 C 1.13026 0.16153 0.20089
 C94 C 1.06288 0.16317 0.17686
 O95 O 1.00930 0.12962 0.12480
 C96 C 1.03582 0.09365 0.10848
 C97 C 1.10344 0.07244 0.12452
 C98 C 1.13966 0.03337 0.11317
 C99 C 1.10458 0.01505 0.08407
 C100 C 1.03663 0.03663 0.06577
 C101 C 1.00292 0.07723 0.07792
 H102 H 1.23507 0.06748 0.17407
 H103 H 1.24494 0.12487 0.21708
 H104 H 1.01523 0.18955 0.17681
 H105 H 1.19210 0.01706 0.12669
 H106 H 1.13074 -0.01614 0.07569
 H107 H 0.95230 0.09508 0.06436
 C108 C 0.72096 0.63855 0.60655
 C109 C 0.78123 0.60680 0.59831
 C110 C 0.85851 0.60302 0.61466
 C111 C 0.87376 0.63302 0.64063
 C112 C 0.81142 0.66527 0.65002
 C113 C 0.73434 0.66811 0.63237
 O114 O 0.65088 0.63604 0.58906
 C115 C 0.66670 0.60173 0.56948
 C116 C 0.74535 0.58239 0.57414
 C117 C 0.77227 0.54421 0.55777
 C118 C 0.71501 0.52474 0.53661
 C119 C 0.63310 0.54376 0.53231
 C120 C 0.61003 0.58367 0.54792
 H121 H 0.90493 0.57762 0.60799
 H122 H 0.93296 0.63041 0.65403
 H123 H 0.68542 0.69232 0.63888
 H124 H 0.83401 0.52917 0.56213
 H125 H 0.73314 0.49408 0.52479
 H126 H 0.54812 0.59904 0.54488
 C127 C -0.19973 0.34942 0.11105
 C128 C -0.25921 0.37686 0.09511
 C129 C -0.34230 0.37826 0.10370
 C130 C -0.36523 0.35044 0.13003
 C131 C -0.30489 0.32279 0.14810
 C132 C -0.22062 0.32244 0.13821
 O133 O -0.12455 0.35266 0.09829
 C134 C -0.13695 0.38321 0.07412
 C135 C -0.21811 0.39940 0.07153
 C136 C -0.24442 0.43308 0.04931
 C137 C -0.18447 0.45115 0.02910
 C138 C -0.10013 0.43469 0.03059
 C139 C -0.07680 0.39941 0.05304
 H140 H -0.38798 0.39995 0.09053
 H141 H -0.42996 0.35152 0.13694
 H142 H -0.17276 0.30165 0.15100
 H143 H -0.30851 0.44576 0.04822
 H144 H -0.20369 0.47852 0.01267
 H145 H -0.01395 0.38510 0.05428
 C146 C 0.43420 0.87357 0.65436
 C147 C 0.49088 0.90044 0.66649
 C148 C 0.52887 0.89526 0.69898
 C149 C 0.50694 0.86120 0.72003
 C150 C 0.44682 0.83375 0.70864
 C151 C 0.40991 0.84008 0.67526
 O152 O 0.40807 0.88321 0.62214
 C153 C 0.44869 0.91712 0.61391
 C154 C 0.49938 0.92914 0.64037
 C155 C 0.54665 0.96409 0.63775
 C156 C 0.54297 0.98711 0.60629
 C157 C 0.49509 0.97402 0.57773
 C158 C 0.44550 0.93907 0.58197
 H159 H 0.57409 0.91653 0.70773
 H160 H 0.53555 0.85673 0.74551
 H161 H 0.36446 0.81934 0.66578
 H162 H 0.58523 0.97326 0.65910
 H163 H 0.57933 1.01452 0.60377
 H164 H 0.40819 0.92839 0.56074
 C165 C -0.09308 0.59714 -0.17121
 C166 C -0.16357 0.59635 -0.15176
 C167 C -0.23457 0.62313 -0.15828
 C168 C -0.23285 0.65254 -0.18583
 C169 C -0.15968 0.65589 -0.20548
 C170 C -0.08903 0.62710 -0.19820
 O171 O -0.03129 0.57017 -0.15935
 C172 C -0.06324 0.55269 -0.13140
 C173 C -0.14362 0.56824 -0.12552
 C174 C -0.18561 0.55960 -0.09539
 C175 C -0.14220 0.53506 -0.06969
 C176 C -0.05902 0.51813 -0.07478
 C177 C -0.02070 0.52524 -0.10713
 H178 H -0.28902 0.62198 -0.14232
 H179 H -0.28773 0.67389 -0.19073
 H180 H -0.03201 0.62859 -0.21245
 H181 H -0.24782 0.57355 -0.09086
 H182 H -0.17272 0.53077 -0.04511
 H183 H 0.04212 0.51261 -0.11216
 C184 C 0.24678 1.10527 0.37743
 C185 C 0.19823 1.11323 0.40626
 C186 C 0.13151 1.14420 0.40628
 C187 C 0.11538 1.16843 0.37566
 C188 C 0.16736 1.16214 0.34632
 C189 C 0.23279 1.12943 0.34707
 O190 O 0.31154 1.07757 0.38354
 C191 C 0.30475 1.06830 0.41702
 C192 C 0.23694 1.08946 0.43236
 C193 C 0.22567 1.08960 0.46827
 C194 C 0.28871 1.06886 0.48916
 C195 C 0.36055 1.04845 0.47375
 C196 C 0.36543 1.04574 0.43710
 H197 H 0.09513 1.15062 0.42941
 H198 H 0.06574 1.19380 0.37555
 H199 H 0.27450 1.12456 0.32534
 H200 H 0.17333 1.10765 0.47991
 H201 H 0.28449 1.07148 0.51717
 H202 H 0.41995 1.03079 0.42465
 C203 C 1.24168 -0.11334 -0.12771
 C204 C 1.28139 -0.12148 -0.09632
 C205 C 1.34736 -0.15235 -0.09202
 C206 C 1.37268 -0.17646 -0.12117
 C207 C 1.33057 -0.17013 -0.15354
 C208 C 1.26484 -0.13759 -0.15695
 O209 O 1.17754 -0.08421 -0.12559
 C210 C 1.17603 -0.07434 -0.09202
 C211 C 1.23775 -0.09669 -0.07301
 C212 C 1.24200 -0.09555 -0.03697
 C213 C 1.17888 -0.07121 -0.01971
 C214 C 1.11405 -0.04774 -0.03855
 C215 C 1.11519 -0.04785 -0.07544
 H216 H 1.37688 -0.15844 -0.06692
 H217 H 1.42242 -0.20152 -0.11803
 H218 H 1.23086 -0.13244 -0.18120
 H219 H 1.28978 -0.11449 -0.02254
 H220 H 1.17884 -0.07196 0.00846
 H221 H 1.06755 -0.02999 -0.09071
 C222 C 0.62107 0.39384 0.33647
 C223 C 0.55970 0.42510 0.32747
 C224 C 0.51707 0.42528 0.29597
 C225 C 0.53730 0.39140 0.27309
 C226 C 0.59921 0.35830 0.28202
 C227 C 0.64317 0.36019 0.31382
 O228 O 0.64765 0.39709 0.36902
 C229 C 0.60184 0.43095 0.38083
 C230 C 0.54714 0.44930 0.35638
 C231 C 0.48748 0.48230 0.36413
 C232 C 0.48286 0.49634 0.39866
 C233 C 0.53718 0.47713 0.42442
 C234 C 0.59916 0.44492 0.41520
 H235 H 0.46768 0.44963 0.28982
 H236 H 0.50286 0.39020 0.24890
 H237 H 0.68871 0.33466 0.32180
 H238 H 0.44387 0.49549 0.34463
 H239 H 0.43488 0.52077 0.40577
 H240 H 0.63955 0.42901 0.43473
 C241 C 0.91383 -0.14240 -0.14585
 C242 C 0.86472 -0.10468 -0.15016
 C243 C 0.81424 -0.09600 -0.17914
 C244 C 0.81348 -0.12772 -0.20466
 C245 C 0.86396 -0.16678 -0.20118
 C246 C 0.91569 -0.17411 -0.17149
 O247 O 0.95526 -0.14438 -0.11576
 C248 C 0.93200 -0.10699 -0.10097
 C249 C 0.87715 -0.08154 -0.12118
 C250 C 0.84598 -0.04074 -0.11141
 C251 C 0.87360 -0.02505 -0.07973
 C252 C 0.93048 -0.05032 -0.05824
 C253 C 0.95844 -0.09249 -0.06867
 H254 H 0.77583 -0.06614 -0.18176
 H255 H 0.77360 -0.12190 -0.22724
 H256 H 0.95381 -0.20395 -0.16802
 H257 H 0.80310 -0.02133 -0.12790
 H258 H 0.85186 0.00720 -0.07213
 H259 H 1.00128 -0.11263 -0.05269
 C260 C 0.29414 0.35807 0.38686
 C261 C 0.23346 0.38886 0.39663
 C262 C 0.15378 0.39113 0.38257
 C263 C 0.13635 0.36069 0.35727
 C264 C 0.19874 0.32933 0.34624
 C265 C 0.27851 0.32797 0.36161
 O266 O 0.36626 0.36187 0.40252
 C267 C 0.35118 0.39600 0.42247
 C268 C 0.27106 0.41394 0.41981
 C269 C 0.24383 0.45139 0.43716
 C270 C 0.30202 0.47152 0.45738
 C271 C 0.38531 0.45392 0.45989
 C272 C 0.40909 0.41480 0.44304
 H273 H 0.10703 0.41574 0.39048
 H274 H 0.07510 0.36225 0.34568
 H275 H 0.32758 0.30449 0.35383
 H276 H 0.18079 0.46529 0.43442
 H277 H 0.28312 0.50151 0.47010
 H278 H 0.47184 0.40023 0.44484
 C279 C 0.21651 0.62856 -0.12308
 C280 C 0.27636 0.59772 -0.11196
 C281 C 0.35786 0.59647 -0.12289
 C282 C 0.37881 0.62834 -0.14632
 C283 C 0.31766 0.65953 -0.15975
 C284 C 0.23491 0.65929 -0.14791
 O285 O 0.14350 0.62469 -0.10839
 C286 C 0.15749 0.59017 -0.08805
 C287 C 0.23744 0.57209 -0.08991
 C288 C 0.26426 0.53401 -0.07298
 C289 C 0.20579 0.51312 -0.05400
 C290 C 0.12278 0.53107 -0.05124
 C291 C 0.09961 0.57139 -0.06727
 H292 H 0.40398 0.57210 -0.11339
 H293 H 0.44240 0.62771 -0.15481
 H294 H 0.18680 0.68290 -0.15700
 H295 H 0.32722 0.52005 -0.07534
 H296 H 0.22488 0.48249 -0.04182
 H297 H 0.03768 0.58671 -0.06487
 C298 C 0.57376 1.14433 0.35679
 C299 C 0.51154 1.16681 0.37475
 C300 C 0.46651 1.20299 0.36116
 C301 C 0.48772 1.21716 0.32794
 C302 C 0.55392 1.19563 0.30948
 C303 C 0.59733 1.15855 0.32407
 O304 O 0.60634 1.10978 0.37388
 C305 C 0.56432 1.11074 0.40343
 C306 C 0.50655 1.14540 0.40541
 C307 C 0.45693 1.15334 0.43428
 C308 C 0.46512 1.12354 0.46175
 C309 C 0.51949 1.08565 0.45929
 C310 C 0.57200 1.07999 0.43016
 H311 H 0.41704 1.21978 0.37562
 H312 H 0.45471 1.24583 0.31716
 H313 H 0.64797 1.14153 0.31043
 H314 H 0.41283 1.18121 0.43545
 H315 H 0.42603 1.12877 0.48427
 H316 H 0.61415 1.05152 0.42756
 C317 C 0.14913 0.37906 0.14957
 C318 C 0.09392 0.41297 0.15842
 C319 C 0.05583 0.41607 0.19062
 C320 C 0.07423 0.38253 0.21450
 C321 C 0.12995 0.34688 0.20592
 C322 C 0.16962 0.34563 0.17328
 O323 O 0.17067 0.37986 0.11633
 C324 C 0.12785 0.41483 0.10395
 C325 C 0.08009 0.43628 0.12875
 C326 C 0.02316 0.47077 0.12084
 C327 C 0.01335 0.48295 0.08580
 C328 C 0.05996 0.46050 0.05972
 C329 C 0.12027 0.42705 0.06899
 H330 H 0.01093 0.44247 0.19662
 H331 H 0.04325 0.38369 0.23938
 H332 H 0.21016 0.31809 0.16569
 H333 H -0.01527 0.48633 0.14069
 H334 H -0.03345 0.50827 0.07866
 H335 H 0.15440 0.40866 0.04927
 C336 C 0.77154 0.86822 0.60328
 C337 C 0.81406 0.90437 0.60684
 C338 C 0.87414 0.90775 0.63266
 C339 C 0.88943 0.87289 0.65598
 C340 C 0.84310 0.83647 0.65343
 C341 C 0.78495 0.83384 0.62625
 O342 O 0.71166 0.87242 0.57968
 C343 C 0.71525 0.91223 0.56822
 C344 C 0.77645 0.93352 0.58393
 C345 C 0.78291 0.97742 0.57896
 C346 C 0.72189 1.00032 0.55826
 C347 C 0.65648 0.97892 0.54336
 C348 C 0.65630 0.93393 0.54686
 H349 H 0.90563 0.93676 0.63560
 H350 H 0.93325 0.87531 0.67714
 H351 H 0.74753 0.80674 0.62429
 H352 H 0.82989 0.99392 0.59232
 H353 H 0.72193 1.03489 0.55602
 H354 H 0.60609 0.91702 0.53633
 C355 C 0.72722 0.09466 0.13790
 C356 C 0.68267 0.10049 0.10739
 C357 C 0.61601 0.13103 0.10345
 C358 C 0.59592 0.15771 0.13175
 C359 C 0.64428 0.15442 0.16273
 C360 C 0.70938 0.12155 0.16619
 O361 O 0.79254 0.06639 0.13512
 C362 C 0.79016 0.05492 0.10195
 C363 C 0.72477 0.07543 0.08382
 C364 C 0.71797 0.07420 0.04785
 C365 C 0.78218 0.05188 0.02974
 C366 C 0.85053 0.03013 0.04767
 C367 C 0.85172 0.02981 0.08456
 H368 H 0.58292 0.13542 0.07895
 H369 H 0.54657 0.18297 0.12853
 H370 H 0.74847 0.11892 0.18921
 H371 H 0.66782 0.09215 0.03405
 H372 H 0.78016 0.05310 0.00158
 H373 H 0.90215 0.01330 0.09918
 C374 C 0.40955 0.61297 0.65324
 C375 C 0.47355 0.58310 0.66198
 C376 C 0.51969 0.58526 0.69244
 C377 C 0.49882 0.61949 0.71493
 C378 C 0.43240 0.65050 0.70683
 C379 C 0.38666 0.64691 0.67560
 O380 O 0.37836 0.60697 0.62174
 C381 C 0.42353 0.57255 0.61044
 C382 C 0.48218 0.55653 0.63425
 C383 C 0.53965 0.52231 0.62711
 C384 C 0.53860 0.50485 0.59364
 C385 C 0.48160 0.52224 0.56807
 C386 C 0.42119 0.55548 0.57698
 H387 H 0.57095 0.56191 0.69836
 H388 H 0.53443 0.62180 0.73871
 H389 H 0.33683 0.67058 0.66839
 H390 H 0.58585 0.51068 0.64614
 H391 H 0.58539 0.47966 0.58685
 H392 H 0.37860 0.56999 0.55760
   
