data_POSCAR
  _audit_creation_date              2014-09-24
  _audit_creation_method            'ToBaCCo'
  _symmetry_space_group_name_H-M    'P1'
  _symmetry_Int_Tables_number       1
  _symmetry_cell_setting            triclinic
  loop_
  _symmetry_equiv_pos_as_xyz
 x,y,z
_cell_length_a 12.4631
_cell_length_b 12.5887
_cell_length_c 16.5230
_cell_angle_alpha 90.006900
_cell_angle_beta 89.813400
_cell_angle_gamma 89.981200
loop_
  _atom_site_label
  _atom_site_type_symbol
  _atom_site_fract_x
  _atom_site_fract_y
  _atom_site_fract_z
O1 O 0.18387 0.05783 0.09841
 O2 O -0.18336 -0.05511 0.09971
 O3 O -0.05747 0.18158 0.10172
 O4 O 0.05697 -0.17876 0.10142
 O5 O -0.20465 0.12208 0.05648
 O6 O 0.20471 -0.11919 0.05604
 O7 O -0.12356 -0.20164 0.05630
 O8 O 0.12358 0.20432 0.05571
 C9 C 0.16932 0.15306 0.11029
 C10 C -0.16904 -0.15049 0.11123
 C11 C -0.15435 0.16647 0.11252
 C12 C 0.15366 -0.16377 0.11174
 O13 O 0.18275 -0.05393 -0.10151
 O14 O -0.18285 0.05559 -0.10067
 O15 O 0.05270 0.18434 -0.09969
 O16 O -0.05261 -0.18172 -0.09938
 O17 O -0.20222 -0.12355 -0.05721
 O18 O 0.20233 0.12588 -0.05881
 O19 O 0.12644 -0.19993 -0.05426
 O20 O -0.12638 0.20208 -0.05438
 Co21 Co 0.17505 0.00262 -0.00149
 Co22 Co -0.17494 -0.00023 -0.00046
 Co23 Co -0.00161 0.17480 0.00091
 Co24 Co 0.00151 -0.17222 0.00101
 O25 O 0.00002 0.00125 -0.00003
 C26 C 0.16927 -0.14997 -0.11095
 C27 C -0.16927 0.15154 -0.11065
 C28 C 0.14922 0.17159 -0.11280
 C29 C -0.14909 -0.16891 -0.11140
 O30 O 0.37400 0.29819 0.44544
 O31 O 0.62640 0.69998 0.44557
 O32 O 0.29781 0.62382 0.44277
 O33 O 0.70271 0.37433 0.44173
 O34 O 0.44738 0.68188 0.40058
 O35 O 0.55330 0.31589 0.40037
 O36 O 0.68311 0.55392 0.39849
 O37 O 0.31741 0.44470 0.39922
 C38 C 0.33110 0.34876 0.38917
 C39 C 0.66937 0.64993 0.38894
 C40 C 0.35091 0.66915 0.38857
 C41 C 0.64977 0.32889 0.38767
 O42 O 0.62368 0.29610 0.55598
 O43 O 0.37648 0.70186 0.55632
 O44 O 0.29548 0.37818 0.55641
 O45 O 0.70480 0.61970 0.55596
 O46 O 0.55702 0.67909 0.60138
 O47 O 0.44272 0.31868 0.60163
 O48 O 0.68391 0.44270 0.59864
 O49 O 0.31662 0.55533 0.59963
 Co50 Co 0.49868 0.32546 0.50090
 Co51 Co 0.50154 0.67244 0.50096
 Co52 Co 0.32517 0.50047 0.49947
 Co53 Co 0.67526 0.49770 0.49867
 O54 O 0.50018 0.49901 0.49998
 C55 C 0.66930 0.34748 0.61057
 C56 C 0.33098 0.65068 0.61122
 C57 C 0.34597 0.33395 0.61234
 C58 C 0.65373 0.66421 0.61169
 C59 C 0.21318 0.20534 0.18509
 C60 C 0.29946 0.28952 0.16793
 C61 C 0.33906 0.33641 0.23594
 C62 C 0.28864 0.29493 0.31493
 C63 C 0.16722 0.30984 0.30385
 C64 C 0.12780 0.26314 0.23590
 C65 C 0.26682 0.12737 0.24463
 C66 C 0.30616 0.17421 0.31237
 H67 H 0.32742 0.31000 0.10763
 H68 H 0.40106 0.39695 0.23379
 H69 H 0.11667 0.35405 0.34558
 H70 H 0.04382 0.26823 0.21975
 H71 H 0.27438 0.04258 0.23438
 H72 H 0.34676 0.12917 0.35918
 C73 C 0.78712 0.79649 0.18579
 C74 C 0.70172 0.71171 0.16818
 C75 C 0.66226 0.66360 0.23588
 C76 C 0.71183 0.70470 0.31502
 C77 C 0.83340 0.69099 0.30372
 C78 C 0.87277 0.73889 0.23608
 C79 C 0.73249 0.87335 0.24582
 C80 C 0.69321 0.82537 0.31328
 H81 H 0.67424 0.69170 0.10779
 H82 H 0.60086 0.60250 0.23342
 H83 H 0.88410 0.64682 0.34512
 H84 H 0.95694 0.73492 0.21989
 H85 H 0.72420 0.95816 0.23609
 H86 H 0.65191 0.86954 0.36043
 C87 C 0.78830 0.20544 0.81516
 C88 C 0.80612 0.32612 0.81259
 C89 C 0.76688 0.37306 0.74486
 C90 C 0.71302 0.29521 0.68537
 C91 C 0.79906 0.21075 0.66819
 C92 C 0.83855 0.16375 0.73617
 C93 C 0.66684 0.19091 0.80415
 C94 C 0.62749 0.23773 0.73623
 H95 H 0.84685 0.37106 0.85939
 H96 H 0.77466 0.45781 0.73459
 H97 H 0.82694 0.19015 0.60788
 H98 H 0.90039 0.10301 0.73400
 H99 H 0.61620 0.14697 0.84596
 H100 H 0.54344 0.23309 0.72020
 C101 C 0.21175 0.79525 0.81513
 C102 C 0.16194 0.83622 0.73603
 C103 C 0.20146 0.78820 0.66829
 C104 C 0.28712 0.70362 0.68583
 C105 C 0.37269 0.76141 0.73605
 C106 C 0.33327 0.80923 0.80373
 C107 C 0.19348 0.67456 0.81341
 C108 C 0.23280 0.62665 0.74590
 H109 H 0.10035 0.89716 0.73362
 H110 H 0.17382 0.80813 0.60793
 H111 H 0.45681 0.76556 0.71977
 H112 H 0.38391 0.85351 0.84509
 H113 H 0.15240 0.63031 0.86060
 H114 H 0.22478 0.54180 0.73618
 C115 C 0.19901 0.21470 0.81574
 C116 C 0.25069 0.13381 0.76543
 C117 C 0.30105 0.17590 0.69440
 C118 C 0.29059 0.29099 0.68684
 C119 C 0.17537 0.31200 0.69028
 C120 C 0.12480 0.27012 0.76113
 C121 C 0.28301 0.29237 0.83333
 C122 C 0.33356 0.33445 0.76211
 H123 H 0.25177 0.04964 0.77901
 H124 H 0.34244 0.12592 0.65072
 H125 H 0.13122 0.35709 0.64535
 H126 H 0.03986 0.28213 0.77262
 H127 H 0.30475 0.31789 0.89392
 H128 H 0.39633 0.39421 0.76468
 C129 C 0.79877 0.78555 0.81424
 C130 C 0.87696 0.72763 0.75664
 C131 C 0.82965 0.68707 0.68939
 C132 C 0.70827 0.70776 0.68542
 C133 C 0.66358 0.66257 0.76517
 C134 C 0.71096 0.70333 0.83260
 C135 C 0.74383 0.86943 0.76107
 C136 C 0.69663 0.82879 0.69369
 H137 H 0.96205 0.71776 0.76799
 H138 H 0.87466 0.64325 0.64401
 H139 H 0.60058 0.60313 0.76823
 H140 H 0.68843 0.67885 0.89332
 H141 H 0.74156 0.95348 0.77507
 H142 H 0.65454 0.87830 0.65034
 C143 C 0.20823 0.79263 0.18545
 C144 C 0.32961 0.81325 0.18942
 C145 C 0.37694 0.77264 0.25665
 C146 C 0.29875 0.71474 0.31424
 C147 C 0.21094 0.79701 0.33263
 C148 C 0.16355 0.83781 0.26522
 C149 C 0.19661 0.67160 0.19367
 C150 C 0.24382 0.63091 0.26103
 H151 H 0.37461 0.85704 0.14404
 H152 H 0.46204 0.78240 0.26798
 H153 H 0.18841 0.82148 0.39336
 H154 H 0.10055 0.89730 0.26831
 H155 H 0.15454 0.62212 0.15030
 H156 H 0.24160 0.54686 0.27500
 C157 C 0.79300 0.20733 0.18322
 C158 C 0.83643 0.16391 0.25849
 C159 C 0.78630 0.20620 0.32979
 C160 C 0.70224 0.28368 0.31241
 C161 C 0.75339 0.36460 0.26209
 C162 C 0.80329 0.32264 0.19080
 C163 C 0.67752 0.18637 0.18731
 C164 C 0.62764 0.22844 0.25839
 H165 H 0.89916 0.10402 0.26115
 H166 H 0.80826 0.18106 0.39040
 H167 H 0.75420 0.44869 0.27611
 H168 H 0.84409 0.37296 0.14702
 H169 H 0.63251 0.14137 0.14280
 H170 H 0.54280 0.21701 0.27058
   
