data_POSCAR
  _audit_creation_date              2014-09-24
  _audit_creation_method            'ToBaCCo'
  _symmetry_space_group_name_H-M    'P1'
  _symmetry_Int_Tables_number       1
  _symmetry_cell_setting            triclinic
  loop_
  _symmetry_equiv_pos_as_xyz
 x,y,z
_cell_length_a 18.4915
_cell_length_b 20.3274
_cell_length_c 18.5634
_cell_angle_alpha 89.033700
_cell_angle_beta 89.143800
_cell_angle_gamma 90.684800
loop_
  _atom_site_label
  _atom_site_type_symbol
  _atom_site_fract_x
  _atom_site_fract_y
  _atom_site_fract_z
N1 N 0.22665 0.23185 0.22386
 N2 N -0.23202 0.80032 0.22379
 N3 N -0.21672 0.24064 -0.22849
 N4 N 0.23729 0.76320 -0.24044
 N5 N 0.21048 1.22745 0.76863
 N6 N 0.76801 0.76297 0.78081
 N7 N 0.22730 0.77498 1.23154
 N8 N 0.75747 1.23495 1.23446
 O9 O 0.53190 0.93304 0.86735
 O10 O 0.43038 0.97287 1.13314
 O11 O 0.64457 0.98114 1.03306
 O12 O 0.38928 0.92624 0.91971
 O13 O 0.55856 0.94109 1.10463
 O14 O 0.41965 0.98592 0.82971
 O15 O 0.38635 0.91993 1.04677
 O16 O 0.63334 0.96460 0.90628
 C17 C 0.59673 0.92190 0.87553
 C18 C 0.39460 0.92555 1.11224
 C19 C 0.61977 0.93666 1.07572
 C20 C 0.38833 0.93560 0.85354
 O21 O 0.45894 1.09896 0.87119
 O22 O 0.59377 1.06350 1.10861
 O23 O 0.59015 1.09250 0.88750
 O24 O 0.36040 1.05385 1.05680
 O25 O 0.45898 1.09276 1.11087
 O26 O 0.54943 1.04243 0.79311
 O27 O 0.35964 1.05924 0.92138
 O28 O 0.59940 1.11234 1.00902
 Co29 Co 0.49983 1.01656 0.87460
 Co30 Co 0.50981 1.01678 1.10161
 Co31 Co 0.60748 1.03535 0.96152
 Co32 Co 0.38383 0.99178 0.98551
 O33 O 0.49675 1.01119 0.98448
 C34 C 0.39275 1.10451 0.88598
 C35 C 0.60989 1.11372 1.07401
 C36 C 0.59493 1.08473 0.82026
 C37 C 0.39266 1.09710 1.09496
 O38 O 0.04594 0.45374 0.15680
 O39 O 0.09770 0.54587 -0.09190
 O40 O 0.02223 0.33554 -0.03219
 O41 O 0.08742 0.61783 0.03946
 O42 O 0.07774 0.42397 -0.07983
 O43 O 0.06179 0.57615 0.14355
 O44 O 0.04119 0.63673 -0.07770
 O45 O 0.08479 0.39891 0.06283
 C46 C 0.08837 0.41214 0.12899
 C47 C 0.09595 0.60705 -0.10067
 C48 C 0.06193 0.36249 -0.08392
 C49 C 0.10226 0.61113 0.10380
 O50 O -0.07864 0.58941 0.11438
 O51 O -0.05987 0.44018 -0.11919
 O52 O -0.04721 0.37506 0.09915
 O53 O -0.09165 0.60652 -0.03489
 O54 O -0.04513 0.55965 -0.12923
 O55 O -0.09529 0.46626 0.13542
 O56 O -0.03036 0.67622 0.05600
 O57 O -0.09372 0.39855 -0.01797
 Co58 Co -0.01556 0.52014 0.12735
 Co59 Co 0.01680 0.49416 -0.09651
 Co60 Co -0.00287 0.40667 0.01741
 Co61 Co -0.00324 0.60570 0.00554
 O62 O -0.00228 0.50670 0.01397
 C63 C -0.06596 0.65144 0.11153
 C64 C -0.10423 0.40605 -0.08308
 C65 C -0.09196 0.40476 0.13794
 C66 C -0.09505 0.59312 -0.10016
 O67 O 1.13808 0.01791 0.41359
 O68 O 0.91390 0.08915 0.59096
 O69 O 0.91668 0.05858 0.36889
 O70 O 1.05588 0.07850 0.61170
 O71 O 0.89127 0.10451 0.46803
 O72 O 1.14299 0.05952 0.53610
 O73 O 0.94783 0.02070 0.66945
 O74 O 1.05085 0.07258 0.36987
 C75 C 1.11636 0.06841 0.38197
 C76 C 0.91907 0.07419 0.65547
 C77 C 0.88325 0.10121 0.40247
 C78 C 1.11676 0.09339 0.58548
 O79 O 1.12333 -0.05801 0.58946
 O80 O 0.84489 -0.02247 0.45468
 O81 O 1.05966 -0.06065 0.36480
 O82 O 0.96272 -0.08389 0.61807
 O83 O 0.86091 -0.03813 0.58598
 O84 O 1.09586 -0.10025 0.46611
 O85 O 1.01958 -0.09620 0.61226
 O86 O 0.92601 -0.06589 0.38110
 Co87 Co 1.11325 -0.01861 0.50097
 Co88 Co 0.88819 0.03057 0.52386
 Co89 Co 0.99059 0.00158 0.38351
 Co90 Co 1.02055 -0.00541 0.60903
 O91 O 0.99814 0.00296 0.50158
 C92 C 1.08694 -0.10746 0.60871
 C93 C 0.86237 -0.06250 0.40536
 C94 C 1.08598 -0.10715 0.40063
 C95 C 0.89291 -0.08566 0.61458
 C96 C 1.21602 0.18848 0.28484
 C97 C 1.27219 0.16325 0.32424
 C98 C 1.24119 0.11651 0.36832
 C99 C 1.16863 0.11658 0.35199
 O100 O 1.15291 0.16046 0.30134
 H101 H 1.32912 0.17563 0.31898
 H102 H 1.26848 0.08438 0.40593
 C103 C 0.76779 -0.16126 0.28799
 C104 C 0.70748 -0.13524 0.32123
 C105 C 0.73424 -0.09694 0.37503
 C106 C 0.80839 -0.10284 0.36962
 O107 O 0.82847 -0.14175 0.31720
 H108 H 0.65147 -0.14156 0.30647
 H109 H 0.70387 -0.06572 0.41081
 C110 C 0.84492 0.20071 0.75632
 C111 C 0.89231 0.17875 0.80814
 C112 C 0.92737 0.12693 0.77772
 C113 C 0.89848 0.12162 0.71004
 O114 O 0.84891 0.16608 0.69701
 H115 H 0.89685 0.19530 0.86300
 H116 H 0.96800 0.09622 0.80211
 C117 C 1.18393 -0.22201 0.70650
 C118 C 1.12973 -0.26459 0.68504
 C119 C 1.08617 -0.22725 0.64266
 C120 C 1.11829 -0.16580 0.64061
 O121 O 1.17740 -0.16238 0.67880
 H122 H 1.12148 -0.31576 0.70028
 H123 H 1.03634 -0.24242 0.61768
 C124 C 0.27904 1.21392 1.17045
 C125 C 0.32762 1.25753 1.13804
 C126 C 0.37680 1.21885 1.10407
 C127 C 0.35341 1.15511 1.11757
 O128 O 0.29445 1.15178 1.15806
 H129 H 0.32959 1.31051 1.14272
 H130 H 0.42496 1.23487 1.07457
 C131 C 0.29769 0.80778 0.76575
 C132 C 0.33545 0.83334 0.70678
 C133 C 0.37528 0.88431 0.73238
 C134 C 0.35887 0.88607 0.80498
 O135 O 0.31191 0.83949 0.82572
 H136 H 0.33115 0.81873 0.65120
 H137 H 0.41071 0.91731 0.70159
 C138 C 0.72558 0.82150 1.16366
 C139 C 0.71358 0.78570 1.10210
 C140 C 0.67413 0.82597 1.05874
 C141 C 0.66501 0.88241 1.09754
 O142 O 0.69528 0.87984 1.16117
 H143 H 0.73034 0.73618 1.09039
 H144 H 0.65273 0.81492 1.00631
 C145 C 0.71527 1.20790 0.75988
 C146 C 0.69058 1.19091 0.69259
 C147 C 0.63970 1.14223 0.70488
 C148 C 0.63827 1.13292 0.77850
 O149 O 0.68390 1.17231 0.81159
 H150 H 0.71110 1.20849 0.64078
 H151 H 0.60963 1.11528 0.66519
 C152 C 0.19002 0.29347 0.21942
 C153 C 0.17161 0.33021 0.27841
 C154 C 0.13575 0.38277 0.25093
 C155 C 0.13461 0.37384 0.17730
 O156 O 0.16790 0.31956 0.15786
 H157 H 0.18193 0.31923 0.33454
 H158 H 0.10997 0.42124 0.28127
 C159 C -0.21034 0.29481 -0.17950
 C160 C -0.26313 0.31295 -0.13049
 C161 C -0.23127 0.36010 -0.08948
 C162 C -0.16233 0.36858 -0.11773
 O163 O -0.14926 0.32861 -0.17193
 H164 H -0.31678 0.29193 -0.12284
 H165 H -0.25443 0.38364 -0.04278
 C166 C 0.22123 0.71373 -0.18644
 C167 C 0.27034 0.66818 -0.16262
 C168 C 0.22965 0.62180 -0.12580
 C169 C 0.15923 0.64334 -0.12954
 O170 O 0.15404 0.69919 -0.16589
 H171 H 0.32770 0.66673 -0.17480
 H172 H 0.24861 0.57687 -0.10077
 C173 C -0.17514 0.75347 0.21441
 C174 C -0.14292 0.72022 0.27058
 C175 C -0.09399 0.68036 0.23870
 C176 C -0.09973 0.69258 0.16577
 O177 O -0.14884 0.73700 0.15062
 H178 H -0.15490 0.72354 0.32763
 H179 H -0.05942 0.64551 0.26550
 C180 C 1.20581 0.19603 0.70416
 C181 C 1.26417 0.18280 0.65959
 C182 C 1.23568 0.14964 0.60337
 C183 C 1.16242 0.14374 0.61840
 O184 O 1.14413 0.17224 0.67933
 H185 H 1.32053 0.19523 0.66752
 H186 H 1.26566 0.12739 0.55977
 C187 C 0.80500 -0.21053 0.71721
 C188 C 0.84131 -0.24905 0.66808
 C189 C 0.87321 -0.20629 0.62023
 C190 C 0.85439 -0.14464 0.64274
 O191 O 0.81306 -0.14661 0.70214
 H192 H 0.84630 -0.30196 0.66802
 H193 H 0.90928 -0.21831 0.57604
 C194 C 1.17907 -0.21418 0.28712
 C195 C 1.14118 -0.26207 0.32686
 C196 C 1.10175 -0.22838 0.37692
 C197 C 1.11719 -0.16295 0.36281
 O198 O 1.16402 -0.15420 0.30910
 H199 H 1.14384 -0.31496 0.32212
 H200 H 1.06556 -0.24885 0.41805
 C201 C 0.76879 0.19038 0.28926
 C202 C 0.71850 0.14490 0.31587
 C203 C 0.75436 0.10930 0.36664
 C204 C 0.82360 0.13524 0.36720
 O205 O 0.83276 0.18419 0.32026
 H206 H 0.66270 0.13828 0.30057
 H207 H 0.73366 0.06708 0.39705
 C208 C 0.15494 0.26714 -0.20944
 C209 C 0.10122 0.29106 -0.25409
 C210 C 0.05823 0.32808 -0.21140
 C211 C 0.08840 0.32441 -0.14435
 O212 O 0.14694 0.28786 -0.14247
 H213 H 0.09501 0.28455 -0.31138
 H214 H 0.01129 0.35568 -0.22750
 C215 C -0.19994 0.29023 0.23108
 C216 C -0.17787 0.32558 0.29015
 C217 C -0.13765 0.37669 0.26200
 C218 C -0.13709 0.36737 0.18868
 O219 O -0.17425 0.31513 0.16967
 H220 H -0.19055 0.31583 0.34645
 H221 H -0.10954 0.41451 0.29136
 C222 C -0.21274 0.69831 -0.19296
 C223 C -0.23336 0.64055 -0.22541
 C224 C -0.19239 0.59263 -0.19416
 C225 C -0.15084 0.62460 -0.14432
 O226 O -0.16263 0.68886 -0.14377
 H227 H -0.27055 0.63492 -0.26938
 H228 H -0.19178 0.54089 -0.20699
 C229 C 0.21700 0.72301 0.18635
 C230 C 0.26484 0.70340 0.13270
 C231 C 0.22924 0.65515 0.09684
 C232 C 0.16368 0.64745 0.13223
 O233 O 0.15595 0.68833 0.18609
 H234 H 0.31842 0.72233 0.11970
 H235 H 0.24763 0.63023 0.04899
 C236 C 0.26834 1.21443 0.81210
 C237 C 0.29521 1.25521 0.86483
 C238 C 0.34973 1.22072 0.89629
 C239 C 0.35200 1.16175 0.86099
 O240 O 0.30299 1.15769 0.81012
 H241 H 0.27810 1.30416 0.87863
 H242 H 0.38197 1.23560 0.94148
 C243 C 0.28219 0.82019 1.21944
 C244 C 0.31485 0.85507 1.27371
 C245 C 0.36335 0.89580 1.23986
 C246 C 0.35685 0.88395 1.16721
 O247 O 0.30783 0.83763 1.15432
 H248 H 0.30470 0.85105 1.33120
 H249 H 0.39792 0.93176 1.26510
 C250 C 0.71069 1.22182 1.17933
 C251 C 0.69001 1.26685 1.12643
 C252 C 0.64911 1.23206 1.07967
 C253 C 0.64638 1.16910 1.10782
 O254 O 0.68304 1.16258 1.16811
 H255 H 0.70272 1.31884 1.12190
 H256 H 0.62411 1.25033 1.03105
 C257 C 0.70263 0.79238 0.80780
 C258 C 0.63769 0.75865 0.81477
 C259 C 0.58972 0.80319 0.84047
 C260 C 0.62901 0.86058 0.84875
 O261 O 0.69792 0.85446 0.82853
 H262 H 0.62650 0.70794 0.80156
 H263 H 0.53282 0.79486 0.85235
   
