data_POSCAR
  _audit_creation_date              2014-09-24
  _audit_creation_method            'ToBaCCo'
  _symmetry_space_group_name_H-M    'P1'
  _symmetry_Int_Tables_number       1
  _symmetry_cell_setting            triclinic
  loop_
  _symmetry_equiv_pos_as_xyz
 x,y,z
_cell_length_a 39.3517
_cell_length_b 39.4814
_cell_length_c 38.4777
_cell_angle_alpha 91.754400
_cell_angle_beta 89.791100
_cell_angle_gamma 119.131900
loop_
  _atom_site_label
  _atom_site_type_symbol
  _atom_site_fract_x
  _atom_site_fract_y
  _atom_site_fract_z
C1 C 0.52580 0.06239 0.04120
 H2 H 0.55430 0.06504 0.03794
 C3 C 0.52157 0.09002 0.06135
 H4 H 0.54719 0.11414 0.07316
 C5 C 0.45820 0.02836 0.02837
 H6 H 0.43366 0.00447 0.01520
 C7 C 0.45258 0.05525 0.04856
 H8 H 0.42348 0.05128 0.05117
 N9 N 0.49436 0.03222 0.02538
 C10 C 0.52339 -0.06046 0.01149
 H11 H 0.52123 -0.06453 -0.01651
 C12 C 0.53029 -0.08530 0.03175
 H13 H 0.53320 -0.10860 0.01907
 C14 C 0.51986 -0.02644 0.06196
 H15 H 0.51503 -0.00397 0.07369
 C16 C 0.52679 -0.05054 0.08320
 H17 H 0.52799 -0.04576 0.11113
 Zn18 Zn 0.50415 -0.00258 -0.00203
 N19 N 0.51813 -0.03189 0.02681
 C20 C 0.58017 0.02856 -0.02989
 N21 N 0.54529 0.02778 -0.03212
 C22 C 0.53971 0.05095 -0.05418
 C23 C 0.56955 0.07540 -0.07586
 C24 C 0.61111 0.05324 -0.05061
 C25 C 0.42886 -0.06509 -0.00921
 C26 C 0.39554 -0.09379 -0.02630
 C27 C 0.42465 -0.06646 -0.08099
 C28 C 0.45761 -0.03875 -0.06276
 N29 N 0.45903 -0.03831 -0.02751
 H30 H 0.58433 0.01069 -0.01152
 H31 H 0.51205 0.05059 -0.05469
 H32 H 0.56473 0.09379 -0.09321
 H33 H 0.63887 0.05391 -0.04843
 H34 H 0.43080 -0.06425 0.01887
 H35 H 0.37202 -0.11325 -0.01014
 H36 H 0.42618 -0.06625 -0.10902
 H37 H 0.48237 -0.01821 -0.07706
 C38 C 0.53160 -0.08080 0.06817
 C39 C 0.48454 0.08662 0.06544
 C40 C 0.39252 -0.09533 -0.06309
 C41 C 0.60582 0.07688 -0.07401
 C42 C -0.06971 0.47417 0.62535
 H43 H -0.07321 0.44535 0.62711
 C44 C -0.09551 0.48004 0.60503
 H45 H -0.11911 0.45534 0.59159
 C46 C -0.03540 0.54088 0.64206
 H47 H -0.01208 0.56442 0.65676
 C48 C -0.06044 0.54815 0.62177
 H49 H -0.05566 0.57751 0.62065
 N50 N -0.04027 0.50438 0.64317
 C51 C 0.05143 0.47429 0.65618
 H52 H 0.05353 0.47467 0.68423
 C53 C 0.07825 0.46943 0.63573
 H54 H 0.10106 0.46628 0.64833
 C55 C 0.02058 0.48055 0.60591
 H56 H -0.00138 0.48573 0.59438
 C57 C 0.04665 0.47564 0.58449
 H58 H 0.04385 0.47628 0.55657
 Zn59 Zn -0.00795 0.49227 0.67034
 N60 N 0.02359 0.48009 0.64107
 C61 C -0.04168 0.41472 0.69300
 N62 N -0.04120 0.44930 0.69699
 C63 C -0.06670 0.45340 0.71823
 C64 C -0.09364 0.42220 0.73706
 C65 C -0.06865 0.38249 0.71092
 C66 C 0.05502 0.56621 0.68363
 C67 C 0.08278 0.59772 0.70350
 C68 C 0.04988 0.56524 0.75540
 C69 C 0.02310 0.53412 0.73456
 N70 N 0.02597 0.53520 0.69933
 H71 H -0.02187 0.41179 0.67524
 H72 H -0.06621 0.48103 0.72037
 H73 H -0.11300 0.42658 0.75435
 H74 H -0.06927 0.35499 0.70650
 H75 H 0.05710 0.56602 0.65559
 H76 H 0.10630 0.62146 0.69037
 H77 H 0.04658 0.56388 0.78334
 H78 H 0.00041 0.50897 0.74671
 C79 C 0.07644 0.47067 0.59935
 C80 C -0.09098 0.51747 0.60281
 C81 C 0.08057 0.59751 0.73998
 C82 C -0.09528 0.38589 0.73327
 C83 C 0.54061 0.48462 0.37847
 H84 H 0.51499 0.45659 0.37436
 C85 C 0.57146 0.48804 0.39881
 H86 H 0.56931 0.46255 0.41066
 C87 C 0.57489 0.55179 0.36727
 H88 H 0.57650 0.57637 0.35426
 C89 C 0.60625 0.55662 0.38782
 H90 H 0.63179 0.58498 0.39054
 N91 N 0.54290 0.51618 0.36303
 C92 C 0.42481 0.49294 0.34129
 H93 H 0.42595 0.49584 0.31338
 C94 C 0.39157 0.48701 0.35925
 H95 H 0.36693 0.48480 0.34488
 C96 C 0.45593 0.49287 0.39389
 H97 H 0.48137 0.49598 0.40737
 C98 C 0.42323 0.48682 0.41288
 H99 H 0.42393 0.48544 0.44091
 Zn100 Zn 0.50126 0.50734 0.33294
 N101 N 0.45612 0.49578 0.35875
 C102 C 0.45696 0.43319 0.29883
 N103 N 0.49265 0.46517 0.30265
 C104 C 0.52440 0.46703 0.28675
 C105 C 0.52111 0.43571 0.26638
 C106 C 0.45227 0.40134 0.27830
 C107 C 0.51659 0.58366 0.32505
 C108 C 0.52325 0.61661 0.30732
 C109 C 0.52358 0.58377 0.25339
 C110 C 0.51686 0.55140 0.27217
 N111 N 0.51358 0.55195 0.30736
 H112 H 0.43223 0.43195 0.31220
 H113 H 0.55249 0.49266 0.29054
 H114 H 0.54676 0.43753 0.25416
 H115 H 0.42385 0.37579 0.27599
 H116 H 0.51334 0.58310 0.35300
 H117 H 0.52570 0.64161 0.32190
 H118 H 0.52527 0.58248 0.22533
 H119 H 0.51355 0.52565 0.25851
 C120 C 0.39060 0.48415 0.39557
 C121 C 0.60490 0.52435 0.40348
 C122 C 0.52658 0.61686 0.27095
 C123 C 0.48474 0.40222 0.26219
 C124 C 0.16665 0.46887 0.53654
 C125 C 0.15165 0.44444 0.56493
 C126 C 0.12199 0.44452 0.58504
 C127 C 0.10664 0.46900 0.57717
 C128 C 0.12129 0.49297 0.54847
 C129 C 0.15083 0.49284 0.52838
 C130 C 0.19916 0.47006 0.51586
 C131 C 0.22907 0.50560 0.50436
 C132 C 0.25949 0.50695 0.48459
 C133 C 0.26085 0.47281 0.47590
 C134 C 0.23120 0.43727 0.48767
 C135 C 0.20064 0.43590 0.50740
 C136 C 0.29318 0.47451 0.45466
 C137 C 0.31118 0.45257 0.46314
 C138 C 0.34256 0.45536 0.44379
 C139 C 0.35642 0.47998 0.41544
 C140 C 0.33799 0.50143 0.40667
 C141 C 0.30677 0.49876 0.42607
 H142 H 0.16342 0.42586 0.57207
 H143 H 0.11109 0.42544 0.60677
 H144 H 0.11054 0.51257 0.54194
 H145 H 0.16133 0.51160 0.50639
 H146 H 0.22926 0.53253 0.51105
 H147 H 0.28231 0.53485 0.47649
 H148 H 0.23127 0.41045 0.48107
 H149 H 0.17782 0.40803 0.51552
 H150 H 0.30152 0.43384 0.48518
 H151 H 0.35595 0.43822 0.45097
 H152 H 0.34825 0.52096 0.38521
 H153 H 0.29320 0.51568 0.41867
 C154 C 0.54199 0.83622 0.13134
 C155 C 0.56401 0.84947 0.10100
 C156 C 0.56114 0.87681 0.08075
 C157 C 0.53611 0.89144 0.09035
 C158 C 0.51441 0.87842 0.12089
 C159 C 0.51735 0.85119 0.14115
 C160 C 0.54373 0.80608 0.15224
 C161 C 0.54364 0.80850 0.18876
 C162 C 0.54305 0.77905 0.20842
 C163 C 0.54247 0.74645 0.19202
 C164 C 0.54341 0.74444 0.15551
 C165 C 0.54406 0.77394 0.13585
 C166 C 0.53956 0.71409 0.21286
 C167 C 0.56046 0.69478 0.20359
 C168 C 0.55660 0.66350 0.22262
 C169 C 0.53178 0.65087 0.25135
 C170 C 0.51119 0.67043 0.26080
 C171 C 0.51503 0.70165 0.24178
 H172 H 0.58363 0.83883 0.09303
 H173 H 0.57864 0.88665 0.05764
 H174 H 0.49429 0.88849 0.12868
 H175 H 0.49949 0.84105 0.16403
 H176 H 0.54405 0.83322 0.20214
 H177 H 0.54306 0.78179 0.23650
 H178 H 0.54243 0.71948 0.14208
 H179 H 0.54358 0.77100 0.10775
 H180 H 0.58001 0.70402 0.18174
 H181 H 0.57325 0.64935 0.21499
 H182 H 0.49132 0.66098 0.28241
 H183 H 0.49799 0.71543 0.24922
 C184 C 0.29564 0.81610 0.88214
 C185 C 0.31948 0.85151 0.86671
 C186 C 0.35146 0.88096 0.88481
 C187 C 0.36049 0.87624 0.91940
 C188 C 0.33521 0.84047 0.93483
 C189 C 0.30369 0.81092 0.91636
 C190 C 0.26302 0.78423 0.86226
 C191 C 0.25850 0.74670 0.86153
 C192 C 0.22841 0.71673 0.84208
 C193 C 0.20176 0.72346 0.82328
 C194 C 0.20618 0.76107 0.82438
 C195 C 0.23666 0.79118 0.84346
 C196 C 0.16985 0.69145 0.80240
 C197 C 0.15766 0.69869 0.77049
 C198 C 0.12834 0.66843 0.75055
 C199 C 0.11074 0.63005 0.76179
 C200 C 0.12281 0.62288 0.79379
 C201 C 0.15173 0.65318 0.81392
 H202 H 0.31370 0.85626 0.84031
 H203 H 0.36777 0.90791 0.87163
 H204 H 0.34059 0.83360 0.96048
 H205 H 0.28562 0.78374 0.92883
 H206 H 0.27881 0.74076 0.87542
 H207 H 0.22653 0.68844 0.84127
 H208 H 0.18586 0.76722 0.81079
 H209 H 0.23938 0.81984 0.84390
 H210 H 0.17122 0.72766 0.76052
 H211 H 0.11946 0.67521 0.72633
 H212 H 0.11044 0.59370 0.80312
 H213 H 0.15983 0.64652 0.83860
 C214 C 0.82708 0.53367 0.54083
 C215 C 0.84230 0.55529 0.57209
 C216 C 0.86925 0.55049 0.59200
 C217 C 0.88176 0.52409 0.58104
 C218 C 0.86720 0.50318 0.54939
 C219 C 0.84009 0.50773 0.52967
 C220 C 0.79687 0.53702 0.52038
 C221 C 0.79617 0.53397 0.48383
 C222 C 0.76606 0.53394 0.46471
 C223 C 0.73623 0.53747 0.48164
 C224 C 0.73755 0.54197 0.51802
 C225 C 0.76744 0.54154 0.53722
 C226 C 0.70297 0.53475 0.46144
 C227 C 0.68936 0.56131 0.46765
 C228 C 0.65769 0.55823 0.44862
 C229 C 0.63870 0.52813 0.42351
 C230 C 0.65226 0.50153 0.41744
 C231 C 0.68421 0.50494 0.43607
 H232 H 0.83333 0.57589 0.58125
 H233 H 0.87959 0.56684 0.61638
 H234 H 0.87667 0.48309 0.53982
 H235 H 0.82866 0.49017 0.50602
 H236 H 0.81880 0.53137 0.46994
 H237 H 0.76598 0.53102 0.43663
 H238 H 0.71468 0.54440 0.53169
 H239 H 0.76670 0.54340 0.56532
 H240 H 0.70347 0.58462 0.48700
 H241 H 0.64765 0.57899 0.45384
 H242 H 0.63834 0.47829 0.39800
 H243 H 0.69392 0.48389 0.43102
 C244 C 0.47283 0.17383 0.12664
 C245 C 0.44972 0.15677 0.09662
 C246 C 0.45315 0.12821 0.07696
 C247 C 0.47963 0.11588 0.08694
 C248 C 0.50214 0.13242 0.11733
 C249 C 0.49894 0.16113 0.13680
 C250 C 0.47063 0.20544 0.14686
 C251 C 0.47497 0.20836 0.18329
 C252 C 0.47561 0.23949 0.20209
 C253 C 0.47146 0.26819 0.18499
 C254 C 0.46587 0.26476 0.14876
 C255 C 0.46565 0.23383 0.12987
 C256 C 0.47442 0.30231 0.20479
 C257 C 0.44757 0.31545 0.19915
 C258 C 0.45069 0.34779 0.21793
 C259 C 0.48109 0.36789 0.24225
 C260 C 0.50801 0.35483 0.24771
 C261 C 0.50459 0.32227 0.22931
 H262 H 0.42895 0.16548 0.08827
 H263 H 0.43562 0.11638 0.05353
 H264 H 0.52237 0.12320 0.12614
 H265 H 0.51760 0.17393 0.15947
 H266 H 0.47798 0.18660 0.19733
 H267 H 0.47937 0.24117 0.23008
 H268 H 0.46297 0.28672 0.13494
 H269 H 0.46281 0.23285 0.10183
 H270 H 0.42395 0.30044 0.18049
 H271 H 0.42967 0.35740 0.21317
 H272 H 0.53148 0.36959 0.26655
 H273 H 0.52587 0.31295 0.23391
 C274 C -0.30150 0.15999 0.86410
 C275 C -0.33709 0.13252 0.84854
 C276 C -0.36700 0.10520 0.86858
 C277 C -0.36173 0.10416 0.90447
 C278 C -0.32588 0.13050 0.91997
 C279 C -0.29619 0.15835 0.90007
 C280 C -0.27078 0.19115 0.84326
 C281 C -0.23108 0.20595 0.85124
 C282 C -0.20249 0.23670 0.83287
 C283 C -0.21280 0.25311 0.80569
 C284 C -0.25243 0.23754 0.79708
 C285 C -0.28100 0.20728 0.81579
 C286 C -0.18258 0.28690 0.78694
 C287 C -0.19044 0.31585 0.77535
 C288 C -0.16234 0.34756 0.75775
 C289 C -0.12524 0.35172 0.75178
 C290 C -0.11723 0.32290 0.76354
 C291 C -0.14561 0.29079 0.78070
 H292 H -0.34199 0.13216 0.82084
 H293 H -0.39434 0.08484 0.85607
 H294 H -0.32136 0.13043 0.94771
 H295 H -0.26957 0.17934 0.91317
 H296 H -0.22198 0.19390 0.87180
 H297 H -0.17234 0.24811 0.84054
 H298 H -0.26155 0.24879 0.77587
 H299 H -0.31119 0.19719 0.80912
 H300 H -0.21824 0.31434 0.78017
 H301 H -0.16997 0.36866 0.74856
 H302 H -0.08889 0.32528 0.75982
 H303 H -0.13860 0.26889 0.78881
   
