data_POSCAR
  _audit_creation_date              2014-09-24
  _audit_creation_method            'ToBaCCo'
  _symmetry_space_group_name_H-M    'P1'
  _symmetry_Int_Tables_number       1
  _symmetry_cell_setting            triclinic
  loop_
  _symmetry_equiv_pos_as_xyz
 x,y,z
_cell_length_a 34.3876
_cell_length_b 34.7003
_cell_length_c 34.8047
_cell_angle_alpha 89.758300
_cell_angle_beta 89.936500
_cell_angle_gamma 90.083400
loop_
  _atom_site_label
  _atom_site_type_symbol
  _atom_site_fract_x
  _atom_site_fract_y
  _atom_site_fract_z
Si1 Si 0.74805 0.61912 0.98922
 Si2 Si 0.75328 0.37661 0.49160
 Si3 Si 0.24849 -0.11802 0.00960
 Si4 Si 0.25164 0.12057 0.50766
 Si5 Si 0.12192 0.49710 0.24150
 Si6 Si -0.12960 -0.00447 0.25631
 Si7 Si 0.37365 0.50156 0.74328
 Si8 Si 0.62436 1.00138 0.75721
 Si9 Si -0.00095 0.24808 -0.11522
 Si10 Si 0.49977 0.25461 0.12260
 Si11 Si 1.00483 0.74959 0.62191
 Si12 Si 0.50439 0.75349 0.37659
 C13 C 0.44094 -0.03627 0.29203
 H14 H 0.44751 -0.00906 0.30563
 C15 C 0.45990 -0.06983 0.30405
 H16 H 0.48105 -0.06803 0.32700
 C17 C 0.40255 -0.07222 0.24858
 H18 H 0.37875 -0.07353 0.22842
 C19 C 0.42054 -0.10642 0.25987
 H20 H 0.40983 -0.13298 0.24782
 N21 N 0.41251 -0.03810 0.26504
 C22 C 0.38269 0.07988 0.23369
 H23 H 0.35165 0.07518 0.23588
 C24 C 0.39668 0.11516 0.22066
 H25 H 0.37551 0.13633 0.21191
 C26 C 0.44661 0.05524 0.23930
 H27 H 0.46576 0.03140 0.24572
 C28 C 0.46204 0.09056 0.22666
 H29 H 0.49318 0.09340 0.22293
 Zn30 Zn 0.38017 0.00511 0.25559
 N31 N 0.40743 0.05065 0.24218
 C32 C 0.36970 0.04286 0.32359
 N33 N 0.35259 0.01542 0.30162
 C34 C 0.32040 -0.00381 0.31418
 C35 C 0.30281 0.00634 0.34920
 C36 C 0.35350 0.05359 0.35839
 C37 C 0.37190 -0.01112 0.18065
 C38 C 0.35590 -0.02268 0.14598
 C39 C 0.29221 -0.01963 0.17501
 C40 C 0.30972 -0.00844 0.20968
 N41 N 0.34912 -0.00556 0.21196
 H42 H 0.39619 0.05669 0.31411
 H43 H 0.30814 -0.02669 0.29702
 H44 H 0.27635 -0.00815 0.35776
 H45 H 0.36712 0.07661 0.37447
 H46 H 0.40314 -0.00843 0.18328
 H47 H 0.37593 -0.02968 0.12323
 H48 H 0.26101 -0.02373 0.17401
 H49 H 0.29196 -0.00312 0.23470
 C50 C 0.43697 0.12121 0.21683
 C51 C 0.44934 -0.10581 0.28848
 C52 C 0.31541 -0.02757 0.14254
 C53 C 0.31932 0.03581 0.37169
 C54 C 0.05946 1.03732 0.79397
 H55 H 0.05251 1.00906 0.80528
 C56 C 0.04052 1.06980 0.80838
 H57 H 0.01792 1.06560 0.82961
 C58 C 0.09758 1.07657 0.75281
 H59 H 0.12079 1.07939 0.73205
 C60 C 0.07962 1.10978 0.76667
 H61 H 0.08851 1.13749 0.75529
 N62 N 0.08819 1.04133 0.76747
 C63 C 0.11971 0.92490 0.73313
 H64 H 0.15066 0.92998 0.73559
 C65 C 0.10636 0.88977 0.71943
 H66 H 0.12789 0.86909 0.71049
 C67 C 0.05540 0.94849 0.73874
 H68 H 0.03584 0.97191 0.74536
 C69 C 0.04060 0.91330 0.72542
 H70 H 0.00953 0.91010 0.72148
 Zn71 Zn 0.12104 0.99896 0.75644
 N72 N 0.09447 0.95352 0.74205
 C73 C 0.13239 0.95936 0.82357
 N74 N 0.14914 0.98747 0.80190
 C75 C 0.18123 1.00668 0.81452
 C76 C 0.19892 0.99607 0.84940
 C77 C 0.14873 0.94812 0.85821
 C78 C 0.12850 1.01858 0.68218
 C79 C 0.14443 1.02986 0.64729
 C80 C 0.20842 1.02336 0.67501
 C81 C 0.19101 1.01256 0.70996
 N82 N 0.15157 1.01128 0.71292
 H83 H 0.10599 0.94551 0.81403
 H84 H 0.19322 1.03002 0.79756
 H85 H 0.22515 1.01076 0.85810
 H86 H 0.13528 0.92477 0.87417
 H87 H 0.09723 1.01708 0.68538
 H88 H 0.12446 1.03827 0.62491
 H89 H 0.23976 1.02599 0.67340
 H90 H 0.20891 1.00583 0.73457
 C91 C 0.06621 0.88323 0.71536
 C92 C 0.05253 1.10700 0.79681
 C93 C 0.18503 1.03244 0.64296
 C94 C 0.18268 0.96606 0.87166
 C95 C 0.55886 0.54962 0.26699
 H96 H 0.54242 0.52314 0.26489
 C97 C 0.54072 0.58319 0.28003
 H98 H 0.51054 0.58135 0.28837
 C99 C 0.61925 0.58226 0.26285
 H100 H 0.65014 0.58130 0.25699
 C101 C 0.60229 0.61644 0.27530
 H102 H 0.62056 0.64150 0.27954
 N103 N 0.59754 0.54975 0.25907
 C104 C 0.60393 0.42692 0.24978
 H105 H 0.62762 0.42446 0.26999
 C106 C 0.58591 0.39349 0.23644
 H107 H 0.59522 0.36593 0.24776
 C108 C 0.56440 0.46564 0.20961
 H109 H 0.55684 0.49382 0.19854
 C110 C 0.54534 0.43296 0.19581
 H111 H 0.52216 0.43682 0.17519
 Zn112 Zn 0.62594 0.50507 0.24573
 N113 N 0.59377 0.46202 0.23540
 C114 C 0.63293 0.48637 0.32006
 N115 N 0.65635 0.49376 0.28952
 C116 C 0.69572 0.49178 0.29265
 C117 C 0.71265 0.47984 0.32742
 C118 C 0.64836 0.47403 0.35478
 C119 C 0.63479 0.54155 0.17675
 C120 C 0.65004 0.55172 0.14128
 C121 C 0.70294 0.50728 0.15184
 C122 C 0.68632 0.49770 0.18757
 N123 N 0.65343 0.51584 0.19970
 H124 H 0.60171 0.48822 0.31671
 H125 H 0.71394 0.49844 0.26820
 H126 H 0.74390 0.47644 0.32905
 H127 H 0.62804 0.46551 0.37686
 H128 H 0.60775 0.55434 0.18596
 H129 H 0.63522 0.57353 0.12445
 H130 H 0.72995 0.49381 0.14354
 H131 H 0.69974 0.47598 0.20549
 C132 C 0.55790 0.39595 0.20715
 C133 C 0.56249 0.61743 0.28436
 C134 C 0.68473 0.53494 0.12822
 C135 C 0.68884 0.47031 0.35912
 C136 C 0.93834 0.45715 0.78760
 H137 H 0.94448 0.48579 0.79816
 C138 C 0.95614 0.42526 0.80466
 H139 H 0.97731 0.43042 0.82695
 C140 C 0.90344 0.41650 0.74544
 H141 H 0.88199 0.41302 0.72307
 C142 C 0.92019 0.38379 0.76204
 H143 H 0.91213 0.35563 0.75137
 N144 N 0.91196 0.45225 0.75906
 C145 C 0.88731 0.56634 0.71339
 H146 H 0.85645 0.56085 0.71080
 C147 C 0.90236 0.60144 0.70130
 H148 H 0.88271 0.62171 0.68790
 C149 C 0.94993 0.54434 0.73119
 H150 H 0.96833 0.52165 0.74224
 C151 C 0.96633 0.57971 0.71984
 H152 H 0.99752 0.58353 0.72149
 Zn153 Zn 0.88161 0.49484 0.74299
 N154 N 0.91090 0.53865 0.72804
 C155 C 0.86385 0.54122 0.80430
 N156 N 0.85032 0.50982 0.78537
 C157 C 0.81914 0.48961 0.79894
 C158 C 0.79950 0.50192 0.83218
 C159 C 0.84555 0.55421 0.83721
 C160 C 0.87744 0.47165 0.66898
 C161 C 0.86229 0.46058 0.63375
 C162 C 0.79773 0.47142 0.65880
 C163 C 0.81429 0.48195 0.69405
 N164 N 0.85357 0.48125 0.69847
 H165 H 0.88961 0.55605 0.79445
 H166 H 0.80964 0.46390 0.78416
 H167 H 0.77455 0.48577 0.84209
 H168 H 0.85699 0.57953 0.85140
 H169 H 0.90859 0.47159 0.67336
 H170 H 0.88250 0.45063 0.61224
 H171 H 0.76638 0.47060 0.65607
 H172 H 0.79585 0.49031 0.71775
 C173 C 0.94227 0.60924 0.70531
 C174 C 0.94527 0.38765 0.79364
 C175 C 0.82182 0.46054 0.62787
 C176 C 0.81279 0.53486 0.85176
 C177 C 0.28080 0.44004 -0.04994
 H178 H 0.29101 0.45071 -0.02259
 C179 C 0.29262 0.45816 -0.08390
 H180 H 0.31228 0.48248 -0.08214
 C181 C 0.24594 0.39330 -0.08529
 H182 H 0.22877 0.36728 -0.08591
 C183 C 0.25707 0.41052 -0.12000
 H184 H 0.24853 0.39676 -0.14646
 N185 N 0.25873 0.40758 -0.05119
 C186 C 0.25195 0.39383 0.07293
 H187 H 0.26618 0.36613 0.07439
 C188 C 0.23983 0.41150 0.10679
 H189 H 0.24468 0.39659 0.13370
 C190 C 0.22406 0.44373 0.03550
 H191 H 0.21630 0.45506 0.00754
 C192 C 0.21127 0.46239 0.06874
 H193 H 0.19348 0.48790 0.06568
 Zn194 Zn 0.25156 0.37816 -0.00539
 N195 N 0.24340 0.40971 0.03819
 C196 C 0.29375 0.31265 0.01924
 N197 N 0.29676 0.34849 0.00361
 C198 C 0.33197 0.36562 -0.00145
 C199 C 0.36590 0.34706 0.01024
 C200 C 0.32695 0.29311 0.03153
 C201 C 0.17323 0.35725 0.00484
 C202 C 0.13883 0.33773 -0.00366
 C203 C 0.17602 0.29327 -0.04217
 C204 C 0.20963 0.31387 -0.03321
 N205 N 0.20751 0.34583 -0.01090
 H206 H 0.26540 0.30021 0.02449
 H207 H 0.33371 0.39454 -0.01283
 H208 H 0.39320 0.36247 0.00814
 H209 H 0.32326 0.26597 0.04647
 H210 H 0.17206 0.38293 0.02221
 H211 H 0.11188 0.34958 0.00693
 H212 H 0.17804 0.26948 -0.06209
 H213 H 0.23717 0.30558 -0.04574
 C214 C 0.21881 0.44618 0.10521
 C215 C 0.28135 0.44315 -0.11977
 C216 C 0.13969 0.30564 -0.02821
 C217 C 0.36383 0.31031 0.02727
 C218 C 0.77891 0.05904 1.05003
 H219 H 0.78985 0.04930 1.02259
 C220 C 0.79057 0.04043 1.08373
 H221 H 0.81071 0.01657 1.08173
 C222 C 0.74259 0.10418 1.08598
 H223 H 0.72493 0.12984 1.08694
 C224 C 0.75359 0.08651 1.12041
 H225 H 0.74438 0.09956 1.14701
 N226 N 0.75622 0.09099 1.05175
 C227 C 0.74642 0.10957 0.92802
 H228 H 0.75831 0.13839 0.92703
 C229 C 0.73467 0.09196 0.89400
 H230 H 0.73740 0.10789 0.86735
 C231 C 0.72428 0.05623 0.96463
 H232 H 0.71858 0.04334 0.99241
 C233 C 0.71191 0.03759 0.93125
 H234 H 0.69645 0.01058 0.93417
 Zn235 Zn 0.74915 0.12184 1.00702
 N236 N 0.74069 0.09183 0.96245
 C237 C 0.79132 0.18744 0.98202
 N238 N 0.79425 0.15229 0.99916
 C239 C 0.82951 0.13655 1.00710
 C240 C 0.86363 0.15565 0.99664
 C241 C 0.82474 0.20758 0.97105
 C242 C 0.67017 0.14043 1.00127
 C243 C 0.63591 0.15936 1.01134
 C244 C 0.67435 0.20580 1.04626
 C245 C 0.70783 0.18587 1.03565
 N246 N 0.70509 0.15340 1.01418
 H247 H 0.76300 0.19889 0.97483
 H248 H 0.83135 0.10822 1.01981
 H249 H 0.89102 0.14098 1.00087
 H250 H 0.82148 0.23414 0.95500
 H251 H 0.66861 0.11408 0.98493
 H252 H 0.60861 0.14658 1.00285
 H253 H 0.67705 0.23017 1.06540
 H254 H 0.73585 0.19506 1.04637
 C255 C 0.71692 0.05545 0.89510
 C256 C 0.77861 0.05452 1.11977
 C257 C 0.63756 0.19234 1.03465
 C258 C 0.86171 0.19166 0.97806
 C259 C 0.28850 0.56503 0.53381
 H260 H 0.30311 0.55944 0.50686
 C261 C 0.30131 0.54710 0.56750
 H262 H 0.32584 0.52762 0.56609
 C263 C 0.24110 0.59974 0.56877
 H264 H 0.21870 0.62150 0.56951
 C265 C 0.25313 0.58268 0.60318
 H266 H 0.23936 0.59197 0.62939
 N267 N 0.25928 0.59127 0.53510
 C268 C 0.22612 0.61432 0.41590
 H269 H 0.22889 0.64535 0.41719
 C270 C 0.21369 0.59694 0.38212
 H271 H 0.20638 0.61492 0.35767
 C272 C 0.23071 0.55374 0.44711
 H273 H 0.23676 0.53723 0.47283
 C274 C 0.21775 0.53506 0.41388
 H275 H 0.21348 0.50429 0.41524
 Zn276 Zn 0.24895 0.62186 0.49101
 N277 N 0.23438 0.59272 0.44748
 C278 C 0.31447 0.63702 0.44725
 N279 N 0.29512 0.64941 0.47888
 C280 C 0.30995 0.67806 0.50119
 C281 C 0.34431 0.69717 0.49031
 C282 C 0.34865 0.65478 0.43567
 C283 C 0.17197 0.63426 0.50538
 C284 C 0.13849 0.65300 0.51756
 C285 C 0.17476 0.71262 0.51960
 C286 C 0.20763 0.69266 0.50680
 N287 N 0.20593 0.65391 0.50147
 H288 H 0.30373 0.61289 0.43093
 H289 H 0.29510 0.68623 0.52732
 H290 H 0.35492 0.72040 0.50799
 H291 H 0.36305 0.64460 0.40994
 H292 H 0.17144 0.60345 0.50077
 H293 H 0.11242 0.63619 0.52268
 H294 H 0.17787 0.74282 0.52618
 H295 H 0.23472 0.70791 0.50283
 C296 C 0.20892 0.55677 0.38060
 C297 C 0.28424 0.55641 0.60312
 C298 C 0.13964 0.69253 0.52603
 C299 C 0.36388 0.68579 0.45669
 C300 C 0.78051 0.93946 0.46605
 H301 H 0.79290 0.94841 0.49314
 C302 C 0.79218 0.95761 0.43204
 H303 H 0.81361 0.98043 0.43354
 C304 C 0.74130 0.89590 0.43105
 H305 H 0.72274 0.87079 0.43054
 C306 C 0.75223 0.91316 0.39636
 H307 H 0.74195 0.90043 0.36999
 N308 N 0.75643 0.90841 0.46490
 C309 C 0.74220 0.88600 0.58850
 H310 H 0.75059 0.85607 0.58918
 C311 C 0.73051 0.90378 0.62245
 H312 H 0.72975 0.88690 0.64866
 C313 C 0.72888 0.94260 0.55277
 H314 H 0.72648 0.95701 0.52528
 C315 C 0.71663 0.96146 0.58608
 H316 H 0.70464 0.99010 0.58325
 Zn317 Zn 0.75003 0.87647 0.50907
 N318 N 0.74090 0.90534 0.55447
 C319 C 0.79417 0.81411 0.53758
 N320 N 0.79571 0.84655 0.51566
 C321 C 0.83014 0.85988 0.50155
 C322 C 0.86503 0.84187 0.51132
 C323 C 0.82832 0.79516 0.54801
 C324 C 0.67098 0.86041 0.50985
 C325 C 0.63676 0.84313 0.49714
 C326 C 0.67513 0.79224 0.46925
 C327 C 0.70875 0.81055 0.48249
 N328 N 0.70607 0.84484 0.50102
 H329 H 0.76652 0.80388 0.54841
 H330 H 0.83104 0.88570 0.48428
 H331 H 0.89187 0.85499 0.50180
 H332 H 0.82651 0.77084 0.56753
 H333 H 0.66957 0.88748 0.52503
 H334 H 0.60952 0.85674 0.50434
 H335 H 0.67794 0.76585 0.45300
 H336 H 0.73701 0.79870 0.47578
 C337 C 0.71728 0.94206 0.62176
 C338 C 0.77872 0.94407 0.39633
 C339 C 0.63863 0.81010 0.47391
 C340 C 0.86460 0.80932 0.53546
 C341 C -0.03911 0.28669 0.42469
 H342 H -0.01138 0.30005 0.43088
 C343 C -0.07301 0.30078 0.44165
 H344 H -0.07098 0.32504 0.46103
 C345 C -0.07564 0.24075 0.38986
 H346 H -0.07681 0.21831 0.36848
 C347 C -0.11031 0.25410 0.40597
 H348 H -0.13719 0.24119 0.39657
 N349 N -0.04100 0.25734 0.39911
 C350 C 0.08012 0.22282 0.38356
 H351 H 0.08026 0.22463 0.35252
 C352 C 0.11355 0.21146 0.40294
 H353 H 0.13921 0.20406 0.38646
 C354 C 0.04569 0.22879 0.44218
 H355 H 0.01888 0.23498 0.45716
 C356 C 0.07849 0.21667 0.46285
 H357 H 0.07576 0.21340 0.49355
 Zn358 Zn 0.00430 0.24373 0.37121
 N359 N 0.04707 0.23119 0.40321
 C360 C 0.04837 0.30804 0.35529
 N361 N 0.01855 0.28702 0.34070
 C362 C -0.00117 0.29927 0.30898
 C363 C 0.01018 0.33327 0.28983
 C364 C 0.06054 0.34163 0.33733
 C365 C -0.01403 0.16855 0.36825
 C366 C -0.02691 0.13329 0.35456
 C367 C -0.02099 0.15809 0.28989
 C368 C -0.00845 0.19342 0.30505
 N369 N -0.00635 0.19811 0.34376
 H370 H 0.06247 0.29934 0.38158
 H371 H -0.02581 0.28291 0.29869
 H372 H -0.00549 0.34208 0.26441
 H373 H 0.08480 0.35737 0.34948
 H374 H -0.01223 0.17322 0.39891
 H375 H -0.03570 0.11210 0.37561
 H376 H -0.02470 0.15532 0.25914
 H377 H -0.00188 0.21726 0.28603
 C378 C 0.11310 0.20737 0.44311
 C379 C -0.10948 0.28501 0.43193
 C380 C -0.03108 0.12746 0.31481
 C381 C 0.04164 0.35494 0.30412
 C382 C 1.03802 0.79205 0.07112
 H383 H 1.01041 0.80522 0.06411
 C384 C 1.07241 0.80683 0.05547
 H385 H 1.07089 0.83138 0.03621
 C386 C 1.07369 0.74589 0.10675
 H387 H 1.07433 0.72312 0.12799
 C388 C 1.10878 0.75985 0.09191
 H389 H 1.13538 0.74698 0.10211
 N390 N 1.03924 0.76223 0.09647
 C391 C 0.91878 0.72450 0.10992
 H392 H 0.91877 0.72579 0.14098
 C393 C 0.88568 0.71227 0.09069
 H394 H 0.86040 0.70376 0.10731
 C395 C 0.95266 0.73262 0.05115
 H396 H 0.97917 0.74006 0.03610
 C397 C 0.92012 0.71960 0.03058
 H398 H 0.92258 0.71695 -0.00020
 Zn399 Zn 0.99329 0.74738 0.12300
 N400 N 0.95141 0.73435 0.09017
 C401 C 0.94674 0.80997 0.13943
 N402 N 0.97741 0.78980 0.15359
 C403 C 0.99679 0.80207 0.18540
 C404 C 0.98444 0.83529 0.20493
 C405 C 0.93347 0.84272 0.15788
 C406 C 1.01246 0.67227 0.12620
 C407 C 1.02444 0.63672 0.14021
 C408 C 1.01552 0.66049 0.20471
 C409 C 1.00395 0.69613 0.18925
 N410 N 1.00368 0.70144 0.15051
 H411 H 0.93279 0.80127 0.11312
 H412 H 1.02194 0.78632 0.19547
 H413 H 0.99997 0.84409 0.23036
 H414 H 0.90861 0.85780 0.14607
 H415 H 1.01203 0.67739 0.09551
 H416 H 1.03411 0.61581 0.11947
 H417 H 1.01771 0.65722 0.23558
 H418 H 0.99649 0.71966 0.20811
 C419 C 0.88601 0.70873 0.05051
 C420 C 1.10866 0.79116 0.06615
 C421 C 1.02651 0.63018 0.18008
 C422 C 0.95220 0.85615 0.19105
 C423 C 0.54612 0.26861 0.55494
 H424 H 0.51938 0.26266 0.53976
 C425 C 0.57912 0.28097 0.53459
 H426 H 0.57661 0.28464 0.50392
 C427 C 0.58020 0.27366 0.61378
 H428 H 0.58014 0.27138 0.64480
 C429 C 0.61382 0.28522 0.59471
 H430 H 0.63942 0.29227 0.61140
 N431 N 0.54724 0.26566 0.59388
 C432 C 0.42442 0.25575 0.60718
 H433 H 0.42334 0.27781 0.62895
 C434 C 0.38967 0.24261 0.59105
 H435 H 0.36285 0.25526 0.60093
 C436 C 0.46073 0.21035 0.57150
 H437 H 0.48840 0.19708 0.56501
 C438 C 0.42672 0.19647 0.55451
 H439 H 0.42861 0.17242 0.53487
 Zn440 Zn 0.50433 0.25267 0.62564
 N441 N 0.45900 0.23932 0.59754
 C442 C 0.48597 0.32787 0.62948
 N443 N 0.49374 0.29809 0.65364
 C444 C 0.49204 0.30253 0.69242
 C445 C 0.47997 0.33785 0.70799
 C446 C 0.47354 0.36312 0.64359
 C447 C 0.54833 0.18808 0.64058
 C448 C 0.56085 0.15457 0.65842
 C449 C 0.51100 0.16269 0.70654
 C450 C 0.49933 0.19663 0.68755
 N451 N 0.51866 0.20899 0.65559
 H452 H 0.48744 0.32344 0.59876
 H453 H 0.49868 0.27855 0.71120
 H454 H 0.47664 0.34042 0.73881
 H455 H 0.46468 0.38453 0.62284
 H456 H 0.56215 0.19692 0.61413
 H457 H 0.58512 0.13905 0.64605
 H458 H 0.49574 0.15395 0.73227
 H459 H 0.47485 0.21292 0.69826
 C460 C 0.39031 0.21211 0.56461
 C461 C 0.61366 0.28991 0.55460
 C462 C 0.54237 0.14116 0.69188
 C463 C 0.46999 0.36876 0.68344
 C464 C 0.45217 0.76796 0.94688
 H465 H 0.47887 0.76140 0.96192
 C466 C 0.41973 0.78132 0.96731
 H467 H 0.42254 0.78503 0.99793
 C468 C 0.41785 0.77383 0.88821
 H469 H 0.41766 0.77160 0.85721
 C470 C 0.38478 0.78645 0.90736
 H471 H 0.35934 0.79426 0.89075
 N472 N 0.45069 0.76498 0.90797
 C473 C 0.57318 0.75438 0.89322
 H474 H 0.57403 0.77659 0.87140
 C475 C 0.60810 0.74097 0.90869
 H476 H 0.63478 0.75360 0.89825
 C477 C 0.53721 0.70885 0.92956
 H478 H 0.50957 0.69562 0.93654
 C479 C 0.57145 0.69466 0.94592
 H480 H 0.56977 0.67045 0.96560
 Zn481 Zn 0.49318 0.75185 0.87589
 N482 N 0.53867 0.73804 0.90349
 C483 C 0.51198 0.82699 0.87185
 N484 N 0.50389 0.79741 0.84777
 C485 C 0.50541 0.80210 0.80898
 C486 C 0.51759 0.83748 0.79328
 C487 C 0.52452 0.86229 0.85762
 C488 C 0.44813 0.68794 0.86026
 C489 C 0.43576 0.65453 0.84234
 C490 C 0.48688 0.66242 0.79539
 C491 C 0.49840 0.69621 0.81447
 N492 N 0.47844 0.70861 0.84590
 H493 H 0.51065 0.82235 0.90258
 H494 H 0.49856 0.77824 0.79029
 H495 H 0.52076 0.84026 0.76245
 H496 H 0.53363 0.88351 0.87830
 H497 H 0.43373 0.69686 0.88630
 H498 H 0.41107 0.63910 0.85421
 H499 H 0.50272 0.65364 0.77012
 H500 H 0.52333 0.71234 0.80431
 C501 C 0.60777 0.71026 0.93516
 C502 C 0.38540 0.79128 0.94741
 C503 C 0.45495 0.64107 0.80941
 C504 C 0.52788 0.86820 0.81774
 C505 C 0.48802 -0.20310 0.34620
 C506 C 0.46841 -0.21288 0.30779
 C507 C 0.45593 -0.18149 0.28753
 C508 C 0.46399 -0.14259 0.30762
 C509 C 0.44568 -0.14704 0.34754
 C510 C 0.45811 -0.17819 0.36749
 C511 C 0.52061 -0.17475 0.33466
 C512 C 0.50810 -0.14327 0.31469
 H513 H 0.46634 -0.24180 0.29634
 H514 H 0.44439 -0.18459 0.25877
 H515 H 0.42446 -0.12713 0.35928
 H516 H 0.44740 -0.18412 0.39614
 H517 H 0.55119 -0.17945 0.33998
 H518 H 0.52804 -0.12167 0.30355
 C519 C 0.98177 0.29084 0.85412
 C520 C 1.00486 0.29886 0.81708
 C521 C 0.99295 0.33086 0.79740
 C522 C 0.95855 0.35204 0.81605
 C523 C 0.92704 0.32062 0.82106
 C524 C 0.93930 0.28868 0.84049
 C525 C 0.98384 0.32866 0.87686
 C526 C 0.97158 0.36018 0.85747
 H527 H 1.02799 0.28044 0.80662
 H528 H 1.00621 0.33979 0.77048
 H529 H 0.89742 0.32331 0.81068
 H530 H 0.92024 0.26432 0.84559
 H531 H 0.99143 0.33066 0.90689
 H532 H 0.96811 0.38741 0.87218
 C533 C 0.01578 1.20476 0.85492
 C534 C -0.00799 1.19564 0.81866
 C535 C 0.00400 1.16339 0.79962
 C536 C 0.03911 1.14311 0.81810
 C537 C 0.07024 1.17505 0.82157
 C538 C 0.05789 1.20720 0.84027
 C539 C 0.01464 1.16737 0.87876
 C540 C 0.02700 1.13565 0.86000
 H541 H -0.03162 1.21352 0.80824
 H542 H -0.00967 1.15371 0.77327
 H543 H 0.09983 1.17256 0.81103
 H544 H 0.07678 1.23183 0.84430
 H545 H 0.00735 1.16582 0.90892
 H546 H 0.03075 1.10856 0.87517
 C547 C 0.52229 0.71188 0.34490
 C548 C 0.48944 0.68622 0.32912
 C549 C 0.50183 0.65548 0.30838
 C550 C 0.54636 0.65258 0.30501
 C551 C 0.55834 0.69203 0.28796
 C552 C 0.54576 0.72294 0.30883
 C553 C 0.54904 0.68416 0.36697
 C554 C 0.56120 0.65343 0.34646
 H555 H 0.45887 0.69314 0.33089
 H556 H 0.48137 0.63770 0.29274
 H557 H 0.57417 0.69540 0.26116
 H558 H 0.55098 0.75243 0.29973
 H559 H 0.55824 0.68815 0.39638
 H560 H 0.58028 0.63168 0.35867
 C561 C 0.51796 0.29818 0.15121
 C562 C 0.51793 0.33507 0.12660
 C563 C 0.53150 0.36677 0.14467
 C564 C 0.54349 0.35977 0.18666
 C565 C 0.50777 0.34099 0.20570
 C566 C 0.49461 0.30878 0.18737
 C567 C 0.56002 0.29476 0.16568
 C568 C 0.57352 0.32685 0.18370
 H569 H 0.51005 0.33628 0.09658
 H570 H 0.53574 0.39360 0.12913
 H571 H 0.49450 0.35165 0.23188
 H572 H 0.47036 0.29200 0.19827
 H573 H 0.57811 0.26955 0.16192
 H574 H 0.60328 0.32869 0.19383
 C575 C 0.02356 0.79031 0.65397
 C576 C 0.02458 0.82913 0.63262
 C577 C 0.03892 0.85875 0.65342
 C578 C 0.05094 0.84782 0.69438
 C579 C 0.01455 0.82868 0.71199
 C580 C 0.00040 0.79850 0.69098
 C581 C 0.06528 0.78425 0.66836
 C582 C 0.07954 0.81386 0.68956
 H583 H 0.01469 0.83349 0.60343
 H584 H 0.04120 0.88773 0.64173
 H585 H 0.00193 0.83709 0.73928
 H586 H -0.02410 0.78133 0.70067
 H587 H 0.08130 0.75762 0.66535
 H588 H 0.10679 0.81071 0.70482
 C589 C 0.98671 0.70626 0.65132
 C590 C 1.01035 0.69461 0.68715
 C591 C 0.99611 0.66280 0.70598
 C592 C 0.95919 0.64570 0.68746
 C593 C 0.93106 0.68027 0.68596
 C594 C 0.94529 0.71147 0.66694
 C595 C 0.98503 0.66936 0.62709
 C596 C 0.97058 0.63821 0.64570
 H597 H 1.03507 0.71076 0.69778
 H598 H 1.00883 0.65215 0.73248
 H599 H 0.90378 0.68173 0.70156
 H600 H 0.92940 0.73834 0.66619
 H601 H 0.99481 0.66726 0.59766
 H602 H 0.96815 0.61027 0.63196
 C603 C 0.48085 0.21395 0.15507
 C604 C 0.43922 0.22043 0.16960
 C605 C 0.42466 0.19093 0.19100
 C606 C 0.45282 0.15660 0.19586
 C607 C 0.46466 0.14570 0.15492
 C608 C 0.47936 0.17519 0.13395
 C609 C 0.50400 0.20536 0.19201
 C610 C 0.48951 0.17524 0.21323
 H611 H 0.42351 0.24726 0.16652
 H612 H 0.39751 0.19439 0.20641
 H613 H 0.46207 0.11678 0.14338
 H614 H 0.48925 0.17072 0.10481
 H615 H 0.52879 0.22222 0.20138
 H616 H 0.50211 0.16650 0.24048
 C617 C 0.34168 0.48312 -0.21510
 C618 C 0.30514 0.46010 -0.22624
 C619 C 0.28396 0.44693 -0.19554
 C620 C 0.30135 0.45791 -0.15608
 C621 C 0.34325 0.44311 -0.15755
 C622 C 0.36403 0.45599 -0.18804
 C623 C 0.32579 0.51508 -0.18882
 C624 C 0.30486 0.50201 -0.15824
 H625 H 0.29559 0.45611 -0.25565
 H626 H 0.25630 0.43251 -0.19949
 H627 H 0.35553 0.42347 -0.13644
 H628 H 0.39380 0.44702 -0.19227
 H629 H 0.32854 0.54558 -0.19458
 H630 H 0.29039 0.52148 -0.13854
 C631 C 0.83893 0.97985 0.29935
 C632 C 0.80005 0.96029 0.28946
 C633 C 0.77896 0.94875 0.32079
 C634 C 0.79877 0.95763 0.35962
 C635 C 0.83912 0.93922 0.35646
 C636 C 0.85984 0.95063 0.32533
 C637 C 0.82707 1.01280 0.32650
 C638 C 0.80620 1.00127 0.35774
 H639 H 0.78902 0.95739 0.26044
 H640 H 0.74993 0.93699 0.31774
 H641 H 0.85038 0.91837 0.37697
 H642 H 0.88855 0.93921 0.31985
 H643 H 0.83244 1.04299 0.32100
 H644 H 0.79438 1.02170 0.37818
 C645 C 0.83879 0.01404 1.21467
 C646 C 0.80236 0.03704 1.22600
 C647 C 0.78122 0.05033 1.19545
 C648 C 0.79857 0.03955 1.15590
 C649 C 0.84054 0.05432 1.15736
 C650 C 0.86129 0.04123 1.18770
 C651 C 0.82282 -0.01780 1.18828
 C652 C 0.80194 -0.00457 1.15779
 H653 H 0.79283 0.04099 1.25542
 H654 H 0.75359 0.06467 1.19963
 H655 H 0.85289 0.07403 1.13630
 H656 H 0.89113 0.05007 1.19187
 H657 H 0.82567 -0.04834 1.19380
 H658 H 0.78756 -0.02390 1.13788
 C659 C 0.34280 0.51811 0.70011
 C660 C 0.33114 0.48599 0.67190
 C661 C 0.31087 0.49851 0.64067
 C662 C 0.30360 0.54219 0.63997
 C663 C 0.28334 0.55004 0.67888
 C664 C 0.30390 0.53748 0.71007
 C665 C 0.36424 0.54795 0.67511
 C666 C 0.34398 0.56042 0.64418
 H667 H 0.33652 0.45566 0.67649
 H668 H 0.29964 0.47883 0.61920
 H669 H 0.25447 0.56193 0.68224
 H670 H 0.29251 0.53964 0.73904
 H671 H 0.39308 0.55887 0.68098
 H672 H 0.35570 0.58176 0.62439
 C673 C 0.15184 0.51500 0.28456
 C674 C 0.18826 0.53899 0.27502
 C675 C 0.20787 0.55187 0.30662
 C676 C 0.18941 0.53964 0.34525
 C677 C 0.14716 0.55338 0.34268
 C678 C 0.12788 0.54094 0.31124
 C679 C 0.16742 0.48275 0.31090
 C680 C 0.18691 0.49542 0.34244
 H681 H 0.19853 0.54444 0.24603
 H682 H 0.23468 0.56826 0.30434
 H683 H 0.13345 0.57171 0.36396
 H684 H 0.09802 0.54920 0.30624
 H685 H 0.16614 0.45240 0.30421
 H686 H 0.20188 0.47532 0.36112
 C687 C 0.65588 0.01734 0.79997
 C688 C 0.66825 -0.01538 0.82740
 C689 C 0.68920 -0.00352 0.85836
 C690 C 0.69609 0.04028 0.85964
 C691 C 0.71557 0.04917 0.82060
 C692 C 0.69452 0.03726 0.78957
 C693 C 0.63477 0.04639 0.82582
 C694 C 0.65552 0.05815 0.85665
 H695 H 0.66364 -0.04566 0.82199
 H696 H 0.70212 -0.02397 0.87822
 H697 H 0.74424 0.06192 0.81753
 H698 H 0.70531 0.04039 0.76044
 H699 H 0.60580 0.05728 0.82057
 H700 H 0.64402 0.07870 0.87718
 C701 C 0.65605 0.98330 0.71550
 C702 C 0.69254 0.96031 0.72682
 C703 C 0.71371 0.94732 0.69625
 C704 C 0.69646 0.95832 0.65676
 C705 C 0.65449 0.94355 0.65812
 C706 C 0.63366 0.95630 0.68851
 C707 C 0.67200 1.01539 0.68910
 C708 C 0.69306 1.00249 0.65864
 H709 H 0.70189 0.95585 0.75625
 H710 H 0.74103 0.93216 0.69996
 H711 H 0.64215 0.92426 0.63686
 H712 H 0.60378 0.94750 0.69263
 H713 H 0.66967 1.04585 0.69502
 H714 H 0.70846 1.02227 0.63979
 C715 C 0.15493 0.48227 0.19939
 C716 C 0.19364 0.46311 0.21057
 C717 C 0.21571 0.45180 0.17999
 C718 C 0.19708 0.46048 0.14053
 C719 C 0.15677 0.44178 0.14251
 C720 C 0.13501 0.45298 0.17288
 C721 C 0.16745 0.51540 0.17240
 C722 C 0.18936 0.50411 0.14184
 H723 H 0.20382 0.46027 0.23991
 H724 H 0.24467 0.44006 0.18377
 H725 H 0.14615 0.42115 0.12160
 H726 H 0.10605 0.44160 0.17730
 H727 H 0.16199 0.54555 0.17774
 H728 H 0.20212 0.52479 0.12201
 C729 C -0.20513 0.34483 0.47271
 C730 C -0.17905 0.36656 0.44400
 C731 C -0.14866 0.34591 0.43052
 C732 C -0.14614 0.30481 0.44657
 C733 C -0.14650 0.30947 0.49040
 C734 C -0.17710 0.33011 0.50398
 C735 C -0.21709 0.30801 0.45130
 C736 C -0.18645 0.28699 0.43759
 H737 H -0.18393 0.39574 0.43426
 H738 H -0.12838 0.35771 0.40960
 H739 H -0.12537 0.29613 0.50939
 H740 H -0.18156 0.33353 0.53448
 H741 H -0.24696 0.29839 0.44840
 H742 H -0.19116 0.25957 0.42364
 C743 C 0.29128 0.85086 0.99194
 C744 C 0.31977 0.83719 1.02332
 C745 C 0.35089 0.81695 1.00993
 C746 C 0.35105 0.81183 0.96596
 C747 C 0.31127 0.79316 0.95745
 C748 C 0.28021 0.81344 0.97107
 C749 C 0.31691 0.87291 0.96308
 C750 C 0.34783 0.85291 0.94995
 H751 H 0.31500 0.84058 1.05379
 H752 H 0.37133 0.80374 1.02959
 H753 H 0.30792 0.76572 0.94296
 H754 H 0.25060 0.80309 0.96814
 H755 H 0.31164 0.90208 0.95344
 H756 H 0.36842 0.86542 0.92974
 C757 C 1.20590 0.85079 0.02765
 C758 C 1.17948 0.87251 0.05581
 C759 C 1.14847 0.85201 0.06856
 C760 C 1.14580 0.81106 0.05239
 C761 C 1.14721 0.81621 0.00858
 C762 C 1.17838 0.83671 -0.00427
 C763 C 1.21687 0.81364 0.04924
 C764 C 1.18568 0.79278 0.06218
 H765 H 1.18457 0.90161 0.06556
 H766 H 1.12780 0.86381 0.08896
 H767 H 1.12628 0.80340 -0.01091
 H768 H 1.18350 0.84064 -0.03466
 H769 H 1.24653 0.80365 0.05275
 H770 H 1.18978 0.76513 0.07606
 C771 C 0.70982 0.34664 0.50980
 C772 C 0.68497 0.36935 0.53855
 C773 C 0.65336 0.35030 0.55175
 C774 C 0.64879 0.30937 0.53602
 C775 C 0.64916 0.31452 0.49201
 C776 C 0.68093 0.33385 0.47851
 C777 C 0.71970 0.30892 0.53097
 C778 C 0.68795 0.28952 0.54472
 H779 H 0.69126 0.39824 0.54818
 H780 H 0.63325 0.36335 0.57194
 H781 H 0.62839 0.30188 0.47240
 H782 H 0.68589 0.33707 0.44801
 H783 H 0.74898 0.29772 0.53391
 H784 H 0.69038 0.26198 0.55942
 C785 C 0.29383 0.15229 0.52541
 C786 C 0.31983 0.13088 0.55432
 C787 C 0.35053 0.15152 0.56717
 C788 C 0.35345 0.19228 0.55033
 C789 C 0.35281 0.18674 0.50658
 C790 C 0.32186 0.16610 0.49363
 C791 C 0.28246 0.18966 0.54613
 C792 C 0.31341 0.21066 0.55917
 H793 H 0.31480 0.10182 0.56440
 H794 H 0.37091 0.13987 0.58800
 H795 H 0.37404 0.19945 0.48718
 H796 H 0.31718 0.16192 0.46323
 H797 H 0.25275 0.19977 0.54879
 H798 H 0.30914 0.23859 0.57223
 C799 C 0.79127 0.65000 0.00620
 C800 C 0.81738 0.62740 0.03405
 C801 C 0.84852 0.64715 0.04701
 C802 C 0.85152 0.68856 0.03183
 C803 C 0.85068 0.68431 -0.01226
 C804 C 0.81922 0.66430 -0.02550
 C805 C 0.78064 0.68700 0.02795
 C806 C 0.81194 0.70702 0.04140
 H807 H 0.81268 0.59779 0.04260
 H808 H 0.86968 0.63409 0.06619
 H809 H 0.87114 0.69758 -0.03194
 H810 H 0.81399 0.66103 -0.05594
 H811 H 0.75112 0.69739 0.03143
 H812 H 0.80888 0.73424 0.05635
 C813 C 0.70504 0.65050 0.97264
 C814 C 0.71584 0.68813 0.95172
 C815 C 0.68461 0.70901 0.93926
 C816 C 0.64482 0.69034 0.94883
 C817 C 0.64750 0.64968 0.93200
 C818 C 0.67850 0.62910 0.94433
 C819 C 0.67757 0.66387 1.00496
 C820 C 0.64630 0.68446 0.99257
 H821 H 0.74544 0.69849 0.94848
 H822 H 0.68861 0.73712 0.92625
 H823 H 0.62664 0.63801 0.91173
 H824 H 0.68335 0.59999 0.93446
 H825 H 0.68276 0.65943 1.03525
 H826 H 0.62536 0.69683 1.01234
 C827 C 0.20846 0.15072 0.48913
 C828 C 0.18332 0.12765 0.46090
 C829 C 0.15202 0.14673 0.44727
 C830 C 0.14794 0.18802 0.46213
 C831 C 0.14816 0.18379 0.50624
 C832 C 0.17966 0.16446 0.52015
 C833 C 0.21883 0.18795 0.46724
 C834 C 0.18736 0.20733 0.45305
 H835 H 0.18917 0.09843 0.45201
 H836 H 0.13174 0.13342 0.42742
 H837 H 0.12756 0.19716 0.52556
 H838 H 0.18455 0.16198 0.55071
 H839 H 0.24824 0.19886 0.46413
 H840 H 0.19016 0.23456 0.43784
 C841 C 0.59497 0.04461 0.73863
 C842 C 0.58127 0.04018 0.69689
 C843 C 0.56263 0.07153 0.68254
 C844 C 0.55913 0.10525 0.71089
 C845 C 0.53875 0.08712 0.74620
 C846 C 0.55751 0.05530 0.76053
 C847 C 0.61922 0.08182 0.73885
 C848 C 0.60072 0.11308 0.72457
 H849 H 0.58388 0.01403 0.68032
 H850 H 0.54994 0.07169 0.65399
 H851 H 0.51147 0.09696 0.75820
 H852 H 0.54595 0.03872 0.78441
 H853 H 0.64850 0.08406 0.74991
 H854 H 0.61436 0.14132 0.72379
 C855 C 1.08882 0.53767 0.22348
 C856 C 1.07429 0.53139 0.18231
 C857 C 1.05263 0.56081 0.16804
 C858 C 1.04754 0.59490 0.19599
 C859 C 1.02978 0.57585 0.23210
 C860 C 1.05127 0.54575 0.24631
 C861 C 1.11008 0.57660 0.22241
 C862 C 1.08888 0.60603 0.20792
 H863 H 1.07724 0.50462 0.16677
 H864 H 1.03690 0.55734 0.14132
 H865 H 1.00208 0.58421 0.24445
 H866 H 1.04161 0.52853 0.27059
 H867 H 1.13940 0.58123 0.23263
 H868 H 1.10043 0.63511 0.20577
 C869 C 0.89954 0.95228 0.23783
 C870 C 0.91316 0.95691 0.19602
 C871 C 0.93175 0.92565 0.18170
 C872 C 0.93532 0.89180 0.21014
 C873 C 0.95575 0.90974 0.24532
 C874 C 0.93702 0.94145 0.25963
 C875 C 0.87526 0.91509 0.23829
 C876 C 0.89374 0.88388 0.22403
 H877 H 0.91045 0.98312 0.17934
 H878 H 0.94432 0.92562 0.15307
 H879 H 0.98296 0.89974 0.25738
 H880 H 0.94856 0.95781 0.28350
 H881 H 0.84597 0.91289 0.24948
 H882 H 0.88011 0.85564 0.22338
 C883 C 0.40687 0.46094 0.72586
 C884 C 0.38519 0.42232 0.72331
 C885 C 0.40666 0.39296 0.70923
 C886 C 0.44862 0.40386 0.69911
 C887 C 0.44514 0.43868 0.67155
 C888 C 0.42322 0.46800 0.68540
 C889 C 0.44330 0.45181 0.75002
 C890 C 0.46503 0.42181 0.73619
 H891 H 0.35533 0.41792 0.73217
 H892 H 0.39486 0.36410 0.70609
 H893 H 0.46197 0.44255 0.64548
 H894 H 0.42112 0.49514 0.67012
 H895 H 0.45209 0.46829 0.77496
 H896 H 0.49207 0.41281 0.74950
 C897 C 0.40296 0.54464 0.76223
 C898 C 0.44074 0.55552 0.74083
 C899 C 0.45931 0.58731 0.75531
 C900 C 0.43846 0.60522 0.79029
 C901 C 0.39708 0.61304 0.77601
 C902 C 0.37876 0.58182 0.76161
 C903 C 0.41611 0.54002 0.80417
 C904 C 0.43453 0.57135 0.81870
 H905 H 0.45261 0.53910 0.71715
 H906 H 0.48675 0.59728 0.74361
 H907 H 0.38343 0.64123 0.77657
 H908 H 0.34957 0.58403 0.75029
 H909 H 0.41337 0.51374 0.82075
 H910 H 0.44684 0.57139 0.84741
 C911 C -0.09585 0.03590 0.27340
 C912 C -0.05910 0.04411 0.24928
 C913 C -0.03684 0.07388 0.26283
 C914 C -0.05311 0.09255 0.29961
 C915 C -0.09479 0.10406 0.28919
 C916 C -0.11677 0.07490 0.27536
 C917 C -0.07993 0.02908 0.31402
 C918 C -0.05749 0.05817 0.32760
 H919 H -0.05056 0.02731 0.22447
 H920 H -0.00960 0.08233 0.24947
 H921 H -0.10599 0.13317 0.29185
 H922 H -0.14643 0.07973 0.26617
 H923 H -0.08263 0.00220 0.32965
 H924 H -0.04085 0.05423 0.35373
 C925 C 0.09275 0.45308 0.25881
 C926 C 0.05605 0.44161 0.23607
 C927 C 0.03772 0.40917 0.24981
 C928 C 0.05777 0.39131 0.28540
 C929 C 0.09978 0.38465 0.27238
 C930 C 0.11783 0.41648 0.25874
 C931 C 0.07795 0.45678 0.30029
 C932 C 0.05982 0.42485 0.31404
 H933 H 0.04476 0.45804 0.21200
 H934 H 0.01109 0.39853 0.23707
 H935 H 0.11402 0.35674 0.27306
 H936 H 0.14735 0.41502 0.24812
 H937 H 0.07918 0.48290 0.31703
 H938 H 0.04636 0.42418 0.34227
 C939 C 0.59117 0.96058 0.77484
 C940 C 0.61264 0.92187 0.77712
 C941 C 0.59112 0.89243 0.79138
 C942 C 0.54933 0.90336 0.80190
 C943 C 0.55327 0.93790 0.82946
 C944 C 0.57525 0.96727 0.81546
 C945 C 0.55447 0.95178 0.75098
 C946 C 0.53268 0.92171 0.76499
 H947 H 0.64229 0.91738 0.76776
 H948 H 0.60274 0.86347 0.79424
 H949 H 0.53665 0.94162 0.85564
 H950 H 0.57758 0.99424 0.83076
 H951 H 0.54559 0.96845 0.72608
 H952 H 0.50550 0.91287 0.75187
 C953 C 0.72991 0.58839 0.03160
 C954 C 0.68776 0.57435 0.02730
 C955 C 0.67371 0.55525 0.05854
 C956 C 0.70285 0.55169 0.09193
 C957 C 0.73853 0.53211 0.07335
 C958 C 0.75248 0.55130 0.04162
 C959 C 0.73029 0.61176 0.06898
 C960 C 0.71636 0.59286 0.09998
 H961 H 0.67086 0.57697 0.00122
 H962 H 0.64505 0.54209 0.05872
 H963 H 0.75056 0.50474 0.08255
 H964 H 0.77620 0.54017 0.02439
 H965 H 0.74081 0.64095 0.07158
 H966 H 0.71555 0.60607 0.12821
 C967 C 0.23240 1.08964 0.54926
 C968 C 0.19146 1.07364 0.54194
 C969 C 0.17610 1.05363 0.57185
 C970 C 0.20268 1.05156 0.60749
 C971 C 0.24055 1.03386 0.59162
 C972 C 0.25594 1.05367 0.56097
 C973 C 0.22890 1.11300 0.58648
 C974 C 0.21324 1.09344 0.61641
 H975 H 0.17713 1.07396 0.51433
 H976 H 0.14985 1.03678 0.56796
 H977 H 0.25323 1.00733 0.60242
 H978 H 0.28153 1.04378 0.54570
 H979 H 0.23853 1.14251 0.58965
 H980 H 0.20948 1.10652 0.64446
 C981 C 0.22954 0.91241 0.96732
 C982 C 0.22954 0.88910 0.92989
 C983 C 0.21518 0.90801 0.89910
 C984 C 0.20152 0.94909 0.90746
 C985 C 0.17281 0.94514 0.94122
 C986 C 0.18735 0.92611 0.97222
 C987 C 0.25179 0.94968 0.95700
 C988 C 0.23733 0.96886 0.92557
 H989 H 0.24024 0.85999 0.92715
 H990 H 0.21415 0.89491 0.87083
 H991 H 0.14400 0.95789 0.94139
 H992 H 0.17072 0.92321 0.99848
 H993 H 0.27578 0.96096 0.97370
 H994 H 0.24931 0.99623 0.91622
 C995 C 0.73450 0.40904 0.45095
 C996 C 0.75873 0.44503 0.44048
 C997 C 0.74388 0.46611 0.41052
 C998 C 0.70578 0.44958 0.39398
 C999 C 0.71559 0.40785 0.38367
 C1000 C 0.73069 0.38700 0.41297
 C1001 C 0.69381 0.42538 0.45873
 C1002 C 0.67897 0.44667 0.42948
 H1003 H 0.78445 0.45403 0.45605
 H1004 H 0.75711 0.49278 0.40065
 H1005 H 0.71163 0.39579 0.35519
 H1006 H 0.73967 0.35741 0.40889
 H1007 H 0.67924 0.42414 0.48623
 H1008 H 0.65294 0.46366 0.43386
 C1009 C 0.77385 0.40622 0.53338
 C1010 C 0.77520 0.38263 0.57081
 C1011 C 0.79118 0.40123 0.60096
 C1012 C 0.80435 0.44242 0.59203
 C1013 C 0.83170 0.43884 0.55702
 C1014 C 0.81584 0.41986 0.52679
 C1015 C 0.75225 0.44348 0.54442
 C1016 C 0.76803 0.46231 0.57522
 H1017 H 0.76429 0.35356 0.57393
 H1018 H 0.79378 0.38782 0.62909
 H1019 H 0.85928 0.45369 0.55394
 H1020 H 0.83085 0.41831 0.49951
 H1021 H 0.72773 0.45501 0.52860
 H1022 H 0.75674 0.48958 0.58548
 C1023 C 0.26783 -0.08663 0.05053
 C1024 C 0.30888 -0.07110 0.04268
 C1025 C 0.32440 -0.05056 0.07194
 C1026 C 0.29785 -0.04752 0.10759
 C1027 C 0.26007 -0.02996 0.09131
 C1028 C 0.24452 -0.05031 0.06129
 C1029 C 0.27116 -0.10926 0.08837
 C1030 C 0.28700 -0.08918 0.11771
 H1031 H 0.32324 -0.07220 0.01508
 H1032 H 0.35071 -0.03400 0.06727
 H1033 H 0.24747 -0.00323 0.10150
 H1034 H 0.21886 -0.04068 0.04594
 H1035 H 0.26123 -0.13862 0.09238
 H1036 H 0.29070 -0.10171 0.14611
 C1037 C 0.27132 0.08983 0.46618
 C1038 C 0.31358 0.07654 0.47160
 C1039 C 0.32855 0.05733 0.44103
 C1040 C 0.30016 0.05285 0.40716
 C1041 C 0.26438 0.03292 0.42540
 C1042 C 0.24950 0.05225 0.45640
 C1043 C 0.27146 0.11279 0.42836
 C1044 C 0.28624 0.09373 0.39800
 H1045 H 0.32993 0.07979 0.49793
 H1046 H 0.35744 0.04477 0.44163
 H1047 H 0.25286 0.00528 0.41655
 H1048 H 0.22558 0.04085 0.47328
 H1049 H 0.26064 0.14182 0.42505
 H1050 H 0.28748 0.10663 0.36953
 C1051 C 0.76617 0.58871 0.94700
 C1052 C 0.80824 0.57465 0.95163
 C1053 C 0.82243 0.55566 0.92067
 C1054 C 0.79355 0.55199 0.88718
 C1055 C 0.75762 0.53246 0.90562
 C1056 C 0.74346 0.55171 0.93705
 C1057 C 0.76613 0.61219 0.90951
 C1058 C 0.78006 0.59321 0.87865
 H1059 H 0.82510 0.57720 0.97769
 H1060 H 0.85117 0.54273 0.92068
 H1061 H 0.74484 0.50565 0.89598
 H1062 H 0.71905 0.54102 0.95375
 H1063 H 0.75554 0.64140 0.90679
 H1064 H 0.78083 0.60632 0.85027
 C1065 C 0.04688 0.73351 0.58954
 C1066 C 0.03487 0.71346 0.55203
 C1067 C 0.06541 0.70105 0.53033
 C1068 C 0.10558 0.70972 0.54792
 C1069 C 0.10497 0.75365 0.55429
 C1070 C 0.07440 0.76592 0.57598
 C1071 C 0.07355 0.70447 0.60986
 C1072 C 0.10392 0.69233 0.58845
 H1073 H 0.00502 0.71034 0.54256
 H1074 H 0.06137 0.68749 0.50257
 H1075 H 0.12452 0.77407 0.54070
 H1076 H 0.06928 0.79627 0.58061
 H1077 H 0.06954 0.69419 0.63895
 H1078 H 0.12523 0.67211 0.59959
 C1079 C 0.54223 0.23573 1.09242
 C1080 C 0.57016 0.26691 1.07696
 C1081 C 0.60094 0.25283 1.05682
 C1082 C 0.60145 0.20863 1.05377
 C1083 C 0.59888 0.19409 1.09531
 C1084 C 0.56834 0.20812 1.11531
 C1085 C 0.53072 0.21296 1.05633
 C1086 C 0.56150 0.19886 1.03604
 H1087 H 0.56565 0.29757 1.07991
 H1088 H 0.62203 0.27158 1.04294
 H1089 H 0.61965 0.17429 1.10810
 H1090 H 0.56383 0.20020 1.14504
 H1091 H 0.50106 0.20994 1.04624
 H1092 H 0.55734 0.18486 1.00857
 C1093 C 0.95639 0.23211 0.91665
 C1094 C 0.92929 0.26445 0.93075
 C1095 C 0.89845 0.25177 0.95203
 C1096 C 0.89717 0.20769 0.95739
 C1097 C 0.89883 0.19140 0.91665
 C1098 C 0.92930 0.20407 0.89556
 C1099 C 0.96790 0.21090 0.95383
 C1100 C 0.93712 0.19819 0.97515
 H1101 H 0.93456 0.29486 0.92626
 H1102 H 0.87825 0.27155 0.96551
 H1103 H 0.87720 0.17185 0.90498
 H1104 H 0.93277 0.19531 0.86601
 H1105 H 0.99762 0.20795 0.96379
 H1106 H 0.94110 0.18512 1.00323
 C1107 C 0.46099 0.73422 0.40561
 C1108 C 0.42331 0.73560 0.38199
 C1109 C 0.39182 0.72094 0.40009
 C1110 C 0.39993 0.70549 0.44061
 C1111 C 0.43368 0.67696 0.43594
 C1112 C 0.46531 0.69184 0.41789
 C1113 C 0.45052 0.75495 0.44334
 C1114 C 0.41848 0.74007 0.46171
 H1115 H 0.42091 0.74777 0.35344
 H1116 H 0.36321 0.72106 0.38689
 H1117 H 0.43343 0.64790 0.44764
 H1118 H 0.49164 0.67517 0.41505
 H1119 H 0.46715 0.77876 0.45497
 H1120 H 0.40832 0.75166 0.48876
 C1121 C 0.54554 0.77052 0.40933
 C1122 C 0.53977 0.81154 0.42467
 C1123 C 0.56998 0.82509 0.44579
 C1124 C 0.60364 0.79607 0.45081
 C1125 C 0.58413 0.75953 0.46709
 C1126 C 0.55366 0.74636 0.44560
 C1127 C 0.58469 0.77198 0.38807
 C1128 C 0.61461 0.78564 0.40929
 H1129 H 0.51441 0.82911 0.41918
 H1130 H 0.56988 0.85447 0.45612
 H1131 H 0.59296 0.74576 0.49374
 H1132 H 0.53649 0.72155 0.45419
 H1133 H 0.58880 0.76394 0.35835
 H1134 H 0.64339 0.78957 0.39704
 C1135 C 0.04256 0.26474 -0.08496
 C1136 C 0.07030 0.23275 -0.07103
 C1137 C 0.10176 0.24590 -0.05115
 C1138 C 0.10295 0.28999 -0.04673
 C1139 C 0.09978 0.30581 -0.08772
 C1140 C 0.06880 0.29265 -0.10751
 C1141 C 0.03212 0.28642 -0.04789
 C1142 C 0.06348 0.29960 -0.02785
 H1143 H 0.06523 0.20225 -0.07487
 H1144 H 0.12295 0.22655 -0.03842
 H1145 H 0.12074 0.32551 -0.10049
 H1146 H 0.06438 0.30107 -0.13708
 H1147 H 0.00272 0.28922 -0.03697
 H1148 H 0.06003 0.31257 0.00020
 C1149 C 0.45759 0.27075 0.09027
 C1150 C 0.46948 0.29036 0.05227
 C1151 C 0.43889 0.30271 0.03055
 C1152 C 0.39880 0.29448 0.04874
 C1153 C 0.39929 0.25065 0.05579
 C1154 C 0.42981 0.23838 0.07749
 C1155 C 0.43117 0.30018 0.11026
 C1156 C 0.40082 0.31239 0.08880
 H1157 H 0.49927 0.29286 0.04233
 H1158 H 0.44296 0.31525 0.00222
 H1159 H 0.37930 0.23047 0.04256
 H1160 H 0.43471 0.20804 0.08254
 H1161 H 0.43544 0.31077 0.13911
 H1162 H 0.37984 0.33309 0.09955
 C1163 C 0.96181 0.76806 0.59199
 C1164 C 0.93408 0.73641 0.57744
 C1165 C 0.90277 0.74986 0.55770
 C1166 C 0.90146 0.79397 0.55405
 C1167 C 0.90452 0.80887 0.59528
 C1168 C 0.93568 0.79555 0.61487
 C1169 C 0.97238 0.79078 0.55538
 C1170 C 0.94099 0.80429 0.53543
 H1171 H 0.93924 0.70584 0.58023
 H1172 H 0.88193 0.73067 0.54426
 H1173 H 0.88388 0.82875 0.60803
 H1174 H 0.94091 0.80435 0.64415
 H1175 H 1.00186 0.79429 0.54482
 H1176 H 0.94445 0.81835 0.50778
   
