data_POSCAR
  _audit_creation_date              2014-09-24
  _audit_creation_method            'ToBaCCo'
  _symmetry_space_group_name_H-M    'P1'
  _symmetry_Int_Tables_number       1
  _symmetry_cell_setting            triclinic
  loop_
  _symmetry_equiv_pos_as_xyz
 x,y,z
_cell_length_a 39.4599
_cell_length_b 39.5926
_cell_length_c 16.8131
_cell_angle_alpha 90.063100
_cell_angle_beta 89.744500
_cell_angle_gamma 119.118900
loop_
  _atom_site_label
  _atom_site_type_symbol
  _atom_site_fract_x
  _atom_site_fract_y
  _atom_site_fract_z
C1 C 0.16560 0.48059 0.47357
 C2 C 0.17900 0.47134 0.40382
 C3 C 0.19791 0.44917 0.40988
 C4 C 0.20325 0.43613 0.48511
 C5 C 0.18360 0.44083 0.55145
 C6 C 0.16558 0.46382 0.54693
 C7 C 0.23099 0.42037 0.49668
 C8 C 0.24477 0.41929 0.57388
 C9 C 0.27258 0.40767 0.58648
 C10 C 0.28864 0.39867 0.52124
 C11 C 0.27855 0.40289 0.44345
 C12 C 0.24818 0.41136 0.43157
 H13 H 0.15159 0.49820 0.46928
 H14 H 0.20994 0.44435 0.35613
 H15 H 0.18227 0.42689 0.60735
 H16 H 0.23590 0.42938 0.62532
 H17 H 0.31212 0.39233 0.53094
 H18 H 0.24041 0.41344 0.37114
 C19 C 0.50629 -0.32206 0.51927
 C20 C 0.52323 -0.30508 0.44617
 C21 C 0.54620 -0.26462 0.44274
 C22 C 0.55137 -0.24114 0.51045
 C23 C 0.53783 -0.25996 0.58487
 C24 C 0.51561 -0.30039 0.58974
 C25 C 0.56893 -0.19777 0.50195
 C26 C 0.57965 -0.17288 0.56899
 C27 C 0.59034 -0.13357 0.56065
 C28 C 0.59529 -0.11782 0.48404
 C29 C 0.58467 -0.14152 0.41698
 C30 C 0.57066 -0.18124 0.42631
 H31 H 0.48862 -0.35319 0.52273
 H32 H 0.56004 -0.25174 0.38693
 H33 H 0.54258 -0.24389 0.63928
 H34 H 0.57757 -0.18383 0.62845
 H35 H 0.60356 -0.08757 0.47674
 H36 H 0.55954 -0.19894 0.37385
 C37 C 1.31883 0.83735 0.52030
 C38 C 1.30126 0.83351 0.44622
 C39 C 1.26063 0.81248 0.44214
 C40 C 1.23774 0.79186 0.50899
 C41 C 1.25662 0.79816 0.58365
 C42 C 1.29700 0.82147 0.58928
 C43 C 1.19527 0.76264 0.49863
 C44 C 1.16979 0.74549 0.56430
 C45 C 1.13168 0.71467 0.55328
 C46 C 1.11753 0.70480 0.47521
 C47 C 1.14190 0.72120 0.40972
 C48 C 1.18065 0.74866 0.42177
 H49 H 1.35001 0.85493 0.52567
 H50 H 1.24737 0.81193 0.38589
 H51 H 1.24093 0.78464 0.63749
 H52 H 1.17974 0.75432 0.62426
 H53 H 1.08817 0.68188 0.46469
 H54 H 1.19914 0.75762 0.36991
 C55 C 0.84411 0.53529 0.53041
 C56 C 0.84002 0.54790 0.45522
 C57 C 0.81490 0.56341 0.44674
 C58 C 0.79170 0.56378 0.51138
 C59 C 0.79721 0.55121 0.58677
 C60 C 0.82362 0.53753 0.59617
 C61 C 0.76047 0.57479 0.49877
 C62 C 0.74239 0.58302 0.56346
 C63 C 0.70938 0.58750 0.55186
 C64 C 0.69826 0.58963 0.47345
 C65 C 0.71609 0.58248 0.40865
 C66 C 0.74583 0.57364 0.42165
 H67 H 0.86418 0.52427 0.53881
 H68 H 0.81351 0.57468 0.38919
 H69 H 0.78039 0.55035 0.63823
 H70 H 0.75240 0.58403 0.62345
 H71 H 0.67356 0.59389 0.46231
 H72 H 0.75626 0.56470 0.37075
 C73 C 0.48123 0.31471 0.47398
 C74 C 0.47642 0.29209 0.40688
 C75 C 0.45999 0.25204 0.41515
 C76 C 0.44666 0.23390 0.49026
 C77 C 0.44960 0.25751 0.55626
 C78 C 0.46767 0.29806 0.54915
 C79 C 0.43032 0.19087 0.50008
 C80 C 0.43013 0.17453 0.57534
 C81 C 0.41534 0.13438 0.58467
 C82 C 0.40205 0.11081 0.51690
 C83 C 0.40689 0.12682 0.44092
 C84 C 0.41784 0.16600 0.43332
 H85 H 0.49406 0.34570 0.46608
 H86 H 0.45883 0.23595 0.36250
 H87 H 0.43767 0.24458 0.61332
 H88 H 0.44246 0.19289 0.62662
 H89 H 0.39228 0.08014 0.52164
 H90 H 0.41859 0.17689 0.37426
 C91 C 0.68734 0.16645 0.49972
 C92 C 0.70861 0.17571 0.42879
 C93 C 0.74923 0.19827 0.43172
 C94 C 0.76847 0.21398 0.50499
 C95 C 0.74564 0.20347 0.57545
 C96 C 0.70551 0.17914 0.57306
 C97 C 0.81144 0.24239 0.50792
 C98 C 0.83179 0.25285 0.58131
 C99 C 0.87033 0.28307 0.58603
 C100 C 0.89010 0.29990 0.51506
 C101 C 0.87075 0.29119 0.44231
 C102 C 0.83175 0.26255 0.43862
 H103 H 0.65622 0.14755 0.49810
 H104 H 0.76515 0.20372 0.37653
 H105 H 0.75799 0.21454 0.63295
 H106 H 0.81800 0.23848 0.63598
 H107 H 0.91988 0.32312 0.51655
 H108 H 0.81706 0.25857 0.38253
 N109 N 0.95828 0.53791 0.09763
 N110 N 0.93204 0.54597 0.12826
 N111 N 1.04744 0.56967 0.11672
 N112 N 1.07379 0.59389 0.16623
 N113 N 1.03679 0.58824 0.06692
 N114 N 1.05485 0.62566 0.08366
 N115 N 0.96830 0.51982 0.15008
 N116 N 0.94897 0.51476 0.21701
 C117 C 0.92611 0.53063 0.20245
 C118 C 1.07888 0.62872 0.14396
 N119 N 1.06123 0.47979 0.06885
 N120 N 1.08966 0.47230 0.08681
 N121 N 0.98276 0.45548 0.15078
 N122 N 0.96259 0.43802 0.21471
 N123 N 0.98193 0.43020 0.09909
 N124 N 0.96084 0.39455 0.12678
 N125 N 1.06159 0.50587 0.11765
 N126 N 1.09058 0.51752 0.16769
 Mn127 Mn 1.01503 0.51267 0.13393
 C128 C 1.10835 0.49705 0.14750
 C129 C 0.94878 0.40017 0.19891
 N130 N 1.02228 0.57765 -0.10264
 N131 N 1.04151 0.61337 -0.13081
 N132 N 0.94255 0.50177 -0.12230
 N133 N 0.91319 0.49017 -0.17157
 N134 N 0.94308 0.52765 -0.07253
 N135 N 0.91439 0.53490 -0.08861
 N136 N 1.02116 0.55275 -0.15574
 N137 N 1.03895 0.57072 -0.22166
 Mn138 Mn 0.99000 0.55816 -0.00279
 C139 C 1.05206 0.60844 -0.20491
 C140 C 0.89541 0.51039 -0.14928
 N141 N 0.96738 0.41930 -0.07054
 N142 N 0.95143 0.38217 -0.08919
 N143 N 1.03626 0.48834 -0.15387
 N144 N 1.05701 0.49510 -0.21925
 N145 N 1.04593 0.46988 -0.10152
 N146 N 1.07337 0.46325 -0.13073
 N147 N 0.95731 0.43758 -0.12251
 N148 N 0.93400 0.41320 -0.17624
 Mn149 Mn 1.01420 0.44946 -0.00096
 Mn150 Mn 0.98930 0.49512 -0.13883
 Cl151 Cl 1.00208 0.50382 -0.00226
 C152 C 0.92943 0.37856 -0.15357
 C153 C 1.08029 0.47980 -0.20385
 N154 N 0.56101 0.51955 0.11919
 N155 N 0.58601 0.51820 0.16877
 N156 N 0.52405 0.57278 0.09602
 N157 N 0.52870 0.60592 0.12473
 N158 N 0.50650 0.54489 0.14847
 N159 N 0.49833 0.55815 0.21344
 N160 N 0.57867 0.54834 0.06888
 N161 N 0.61617 0.56816 0.08525
 C162 C 0.62033 0.54801 0.14603
 C163 C 0.51183 0.59603 0.19761
 N164 N 0.49028 0.55155 -0.12424
 N165 N 0.47702 0.56750 -0.17479
 N166 N 0.56928 0.55197 -0.10166
 N167 N 0.60515 0.57055 -0.13020
 N168 N 0.54555 0.52772 -0.15480
 N169 N 0.56441 0.52960 -0.22094
 N170 N 0.51496 0.57750 -0.07484
 N171 N 0.51982 0.61224 -0.09278
 Mn172 Mn 0.54706 0.56307 -0.00291
 C173 C 0.49497 0.60512 -0.15419
 C174 C 0.60155 0.55576 -0.20442
 N175 N 0.44542 0.46544 0.14967
 N176 N 0.42658 0.46383 0.21558
 N177 N 0.47598 0.41556 0.06997
 N178 N 0.47083 0.38072 0.08759
 N179 N 0.50049 0.44127 0.11996
 N180 N 0.51336 0.42496 0.17078
 N181 N 0.42169 0.44102 0.09675
 N182 N 0.38583 0.42245 0.12538
 Mn183 Mn 0.50337 0.49283 0.13455
 C184 C 0.38948 0.43752 0.19935
 C185 C 0.49532 0.38742 0.14941
 N186 N 0.48446 0.44825 -0.15337
 N187 N 0.49223 0.43500 -0.21877
 N188 N 0.41221 0.44448 -0.07395
 N189 N 0.37486 0.42406 -0.09140
 N190 N 0.42980 0.47329 -0.12425
 N191 N 0.40484 0.47401 -0.17494
 N192 N 0.46706 0.42034 -0.10091
 N193 N 0.46220 0.38719 -0.13000
 Mn194 Mn 0.48753 0.50019 -0.13933
 Mn195 Mn 0.44393 0.42995 -0.00200
 Cl196 Cl 0.49546 0.49650 -0.00242
 C197 C 0.47874 0.39714 -0.20316
 C198 C 0.37063 0.44380 -0.15289
 N199 N 0.42494 -0.05229 0.09315
 N200 N 0.39055 -0.07823 0.12137
 N201 N 0.47828 0.03148 0.14680
 N202 N 0.47652 0.05021 0.20999
 N203 N 0.45179 0.02755 0.09490
 N204 N 0.43167 0.04398 0.12155
 N205 N 0.45249 -0.04811 0.14242
 N206 N 0.43778 -0.07131 0.20382
 C207 C 0.39938 -0.09041 0.18967
 C208 C 0.44817 0.05871 0.19267
 N209 N 0.58361 0.05160 0.08522
 N210 N 0.61818 0.07979 0.10680
 N211 N 0.53069 -0.03372 0.13542
 N212 N 0.52897 -0.05856 0.18940
 N213 N 0.55701 -0.02804 0.08122
 N214 N 0.57471 -0.04821 0.09839
 N215 N 0.55736 0.04664 0.13915
 N216 N 0.57302 0.07172 0.19729
 Mn217 Mn 0.50481 -0.00087 0.14105
 C218 C 0.61072 0.09255 0.17618
 C219 C 0.55602 -0.06782 0.16504
 N220 N 0.44961 0.02863 -0.07658
 N221 N 0.43131 0.04820 -0.09385
 N222 N 0.44886 -0.04638 -0.13470
 N223 N 0.43336 -0.07334 -0.18963
 N224 N 0.42307 -0.05132 -0.07974
 N225 N 0.38901 -0.08140 -0.09698
 N226 N 0.47542 0.03404 -0.13169
 N227 N 0.47569 0.05766 -0.18708
 Mn228 Mn 0.43699 -0.01195 0.00780
 C229 C 0.44891 0.06716 -0.16177
 C230 C 0.39623 -0.09524 -0.16502
 N231 N 0.55476 -0.02697 -0.09164
 N232 N 0.57424 -0.04410 -0.11860
 N233 N 0.55388 0.04875 -0.13789
 N234 N 0.56811 0.07508 -0.19428
 N235 N 0.58121 0.05303 -0.08790
 N236 N 0.61505 0.08222 -0.11028
 N237 N 0.52803 -0.03092 -0.14297
 N238 N 0.52890 -0.05036 -0.20575
 Mn239 Mn 0.56959 0.01248 -0.00335
 Mn240 Mn 0.50148 0.00134 -0.13716
 Cl241 Cl 0.50323 0.00023 0.00211
 C242 C 0.55703 -0.05925 -0.18920
 C243 C 0.60604 0.09611 -0.17592
 N244 N 1.16346 0.51287 0.32857
 C245 C 1.17054 0.48261 0.33043
 N246 N 1.16256 0.46019 0.26407
 N247 N 1.14522 0.46609 0.20142
 C248 C 1.13627 0.49523 0.20245
 N249 N 1.14695 0.51912 0.26604
 N250 N 0.53652 0.68556 0.30898
 C251 C 0.51835 0.67099 0.37985
 N252 N 0.49656 0.63197 0.38713
 N253 N 0.49372 0.60856 0.32788
 C254 C 0.51239 0.62302 0.25812
 N255 N 0.53365 0.66201 0.24923
 N256 N 0.30963 -0.14764 0.30676
 C257 C 0.32471 -0.14919 0.37867
 N258 N 0.36379 -0.13323 0.38477
 N259 N 0.38683 -0.11596 0.32315
 C260 C 0.37201 -0.11368 0.25225
 N261 N 0.33290 -0.12988 0.24473
 N262 N 0.86219 0.55840 0.31351
 C263 C 0.86173 0.54361 0.38687
 N264 N 0.88159 0.52398 0.39719
 N265 N 0.90135 0.51958 0.33773
 C266 C 0.90210 0.53450 0.26494
 N267 N 0.88215 0.55405 0.25360
 N268 N 0.46002 0.29881 0.26852
 C269 C 0.48635 0.31147 0.32856
 N270 N 0.51800 0.34699 0.32226
 N271 N 0.52231 0.36971 0.26058
 C272 C 0.49519 0.35796 0.20256
 N273 N 0.46433 0.32169 0.20654
 N274 N 0.70032 0.14785 0.29260
 C275 C 0.68671 0.16050 0.35383
 N276 N 0.64972 0.15412 0.35040
 N277 N 0.62664 0.13456 0.29058
 C278 C 0.63953 0.12066 0.23102
 N279 N 0.67706 0.12819 0.23216
 N280 N 0.44132 0.14014 -0.28273
 C281 C 0.41821 0.11791 -0.34293
 N282 N 0.40157 0.07885 -0.33579
 N283 N 0.40898 0.06272 -0.27384
 C284 C 0.43317 0.08490 -0.21571
 N285 N 0.44906 0.12393 -0.22078
 N286 N 0.64919 0.58068 -0.39919
 C287 C 0.68492 0.58505 -0.38409
 N288 N 0.69409 0.58240 -0.30708
 N289 N 0.66836 0.57495 -0.24851
 C290 C 0.63231 0.56932 -0.26496
 N291 N 0.62339 0.57265 -0.34117
 N292 N 0.86519 0.29431 -0.27407
 C293 C 0.88724 0.30070 -0.34082
 N294 N 0.92472 0.32948 -0.33899
 N295 N 0.93894 0.35211 -0.27567
 C296 C 0.91644 0.34689 -0.21088
 N297 N 0.87940 0.31725 -0.21057
 N298 N 0.58160 -0.08090 -0.38520
 C299 C 0.58839 -0.11080 -0.37081
 N300 N 0.58740 -0.12222 -0.29399
 N301 N 0.57949 -0.10462 -0.23452
 C302 C 0.57175 -0.07538 -0.25010
 N303 N 0.57325 -0.06376 -0.32632
 N304 N 0.30278 0.38756 -0.30913
 C305 C 0.29076 0.41253 -0.33477
 N306 N 0.30141 0.44552 -0.29301
 N307 N 0.32445 0.45399 -0.23000
 C308 C 0.33695 0.42936 -0.20510
 N309 N 0.32537 0.39579 -0.24528
 N310 N 1.07708 0.65671 -0.39845
 C311 C 1.10946 0.69084 -0.38290
 N312 N 1.12158 0.69880 -0.30598
 N313 N 1.10246 0.67344 -0.24793
 C314 C 1.07088 0.63893 -0.26491
 N315 N 1.05845 0.63122 -0.34102
 N316 N 0.84571 0.55151 -0.26517
 C317 C 0.83150 0.52581 -0.32615
 N318 N 0.83381 0.49280 -0.32159
 N319 N 0.85114 0.48645 -0.26042
 C320 C 0.86703 0.51286 -0.20139
 N321 N 0.86323 0.54516 -0.20375
 N322 N 0.49021 0.36116 -0.39572
 C323 C 0.47158 0.32219 -0.38572
 N324 N 0.45651 0.30775 -0.31256
 N325 N 0.45935 0.33136 -0.25296
 C326 C 0.47765 0.37026 -0.26432
 N327 N 0.49315 0.38462 -0.33656
 N328 N 0.69611 0.15610 -0.28771
 C329 C 0.68191 0.16465 -0.35373
 N330 N 0.64365 0.15399 -0.35594
 N331 N 0.62020 0.13432 -0.29623
 C332 C 0.63396 0.12444 -0.23177
 N333 N 0.67250 0.13624 -0.22771
 N334 N 1.12926 0.49163 -0.39478
 C335 C 1.14653 0.46935 -0.38710
 N336 N 1.14351 0.45177 -0.31571
 N337 N 1.12340 0.45575 -0.25571
 C338 C 1.10575 0.47760 -0.26489
 N339 N 1.10929 0.49560 -0.33524
 N340 N 0.52711 0.69447 -0.27062
 C341 C 0.50507 0.67974 -0.33713
 N342 N 0.47622 0.64247 -0.33542
 N343 N 0.47110 0.62013 -0.27286
 C344 C 0.49477 0.63381 -0.20909
 N345 N 0.52237 0.67174 -0.20793
 N346 N 0.30530 -0.15357 -0.27350
 C347 C 0.31792 -0.16744 -0.33416
 N348 N 0.35480 -0.16154 -0.33175
 N349 N 0.37877 -0.14093 -0.27381
 C350 C 0.36686 -0.12546 -0.21547
 N351 N 0.32935 -0.13301 -0.21496
 N352 N 0.54754 -0.14400 0.29866
 C353 C 0.58115 -0.12561 0.34009
 N354 N 0.60834 -0.08961 0.31666
 N355 N 0.60179 -0.07238 0.25517
 C356 C 0.56771 -0.09041 0.21525
 N357 N 0.54077 -0.12654 0.23799
 N358 N 0.34310 0.41875 0.39495
 C359 C 0.30536 0.40665 0.37764
 N360 N 0.29476 0.40312 0.29978
 N361 N 0.32105 0.41146 0.24194
 C362 C 0.35891 0.42431 0.26015
 N363 N 0.36930 0.42755 0.33756
 N364 N 1.15021 0.69457 0.28416
 C365 C 1.12823 0.70472 0.33006
 N366 N 1.09151 0.69413 0.30661
 N367 N 1.07694 0.67315 0.24101
 C368 C 1.09851 0.66192 0.19665
 N369 N 1.13543 0.67312 0.21929
 N370 N 0.41909 0.07648 0.38725
 C371 C 0.41014 0.10490 0.37253
 N372 N 0.41153 0.11673 0.29596
 N373 N 0.42184 0.10087 0.23700
 C374 C 0.43187 0.07327 0.25307
 N375 N 0.42988 0.06113 0.32893
 N376 N 0.68799 0.54483 0.28779
 C377 C 0.69888 0.57794 0.32923
 N378 N 0.68792 0.60352 0.30242
 N379 N 0.66597 0.59575 0.23775
 C380 C 0.65401 0.56204 0.19790
 N381 N 0.66555 0.53683 0.22392
 N382 N 0.88916 0.30624 0.29976
 C383 C 0.88969 0.31823 0.37587
 N384 N 0.90892 0.35661 0.39179
 N385 N 0.92717 0.38216 0.33449
 C386 C 0.92730 0.37048 0.25889
 N387 N 0.90793 0.33202 0.24210
   
