data_POSCAR
  _audit_creation_date              2014-09-24
  _audit_creation_method            'ToBaCCo'
  _symmetry_space_group_name_H-M    'P1'
  _symmetry_Int_Tables_number       1
  _symmetry_cell_setting            triclinic
  loop_
  _symmetry_equiv_pos_as_xyz
 x,y,z
_cell_length_a 29.9804
_cell_length_b 30.1266
_cell_length_c 29.9512
_cell_angle_alpha 90.147700
_cell_angle_beta 89.873500
_cell_angle_gamma 90.109300
loop_
  _atom_site_label
  _atom_site_type_symbol
  _atom_site_fract_x
  _atom_site_fract_y
  _atom_site_fract_z
C1 C 0.52439 0.97341 -0.50475
 C2 C 0.47915 0.97328 -0.50260
 C3 C 0.45124 0.97515 -0.54350
 C4 C 0.45485 0.97333 -0.45936
 C5 C 0.55269 0.97304 -0.46423
 C6 C 0.54820 0.97664 -0.54790
 C7 C 0.41942 1.00869 -0.54762
 C8 C 0.39132 1.01023 -0.58459
 C9 C 0.39374 0.97788 -0.61905
 C10 C 0.42697 0.94464 -0.61467
 C11 C 0.45479 0.94311 -0.57726
 C12 C 0.46155 1.00707 -0.42757
 C13 C 0.43570 1.00841 -0.38864
 C14 C 0.40228 0.97647 -0.38133
 C15 C 0.39635 0.94229 -0.41279
 C16 C 0.42230 0.94083 -0.45146
 C17 C 0.54970 0.93879 -0.43262
 C18 C 0.57738 0.93902 -0.39502
 C19 C 0.60869 0.97329 -0.38880
 C20 C 0.61114 1.00764 -0.42035
 C21 C 0.58360 1.00739 -0.45772
 C22 C 0.57223 0.94007 -0.56396
 C23 C 0.59705 0.94351 -0.60329
 C24 C 0.59911 0.98396 -0.62633
 C25 C 0.57494 1.02056 -0.61030
 C26 C 0.54921 1.01679 -0.57150
 H27 H 0.41652 1.03414 -0.52215
 H28 H 0.36924 1.03846 -0.58640
 H29 H 0.43014 0.91764 -0.63826
 H30 H 0.47839 0.91614 -0.57413
 H31 H 0.48586 1.03304 -0.43351
 H32 H 0.44051 1.03541 -0.36520
 H33 H 0.41655 0.91465 -0.47564
 H34 H 0.52634 0.91173 -0.43734
 H35 H 0.57507 0.91195 -0.37141
 H36 H 0.63436 1.03489 -0.41605
 H37 H 0.58620 1.03430 -0.48150
 H38 H 0.57194 0.90901 -0.54583
 H39 H 0.61587 0.91508 -0.61497
 H40 H 0.57633 1.05205 -0.62763
 H41 H 0.53109 1.04538 -0.55917
 H42 H 0.37108 0.91704 -0.40776
 C43 C -0.47763 1.50542 0.01564
 C44 C -0.52270 1.50670 0.01330
 C45 C -0.54969 1.46620 0.00679
 C46 C -0.54836 1.54831 0.01683
 C47 C -0.45007 1.54600 0.02130
 C48 C -0.45273 1.46307 0.01147
 C49 C -0.55695 1.44919 -0.03620
 C50 C -0.58739 1.41454 -0.04274
 C51 C -0.61034 1.39616 -0.00622
 C52 C -0.60186 1.41244 0.03691
 C53 C -0.57216 1.44757 0.04328
 C54 C -0.56891 1.56538 -0.02138
 C55 C -0.59973 1.59981 -0.01779
 C56 C -0.61113 1.61733 0.02423
 C57 C -0.58954 1.60098 0.06245
 C58 C -0.55820 1.56675 0.05873
 C59 C -0.41901 1.54777 0.05605
 C60 C -0.38738 1.58171 0.05798
 C61 C -0.38545 1.61494 0.02477
 C62 C -0.41858 1.61408 -0.00886
 C63 C -0.45018 1.57983 -0.01072
 C64 C -0.45746 1.42925 0.04329
 C65 C -0.43019 1.39162 0.04141
 C66 C -0.39740 1.38756 0.00800
 C67 C -0.39359 1.42104 -0.02439
 C68 C -0.42089 1.45845 -0.02257
 H69 H -0.54018 1.46373 -0.06472
 H70 H -0.59341 1.40239 -0.07625
 H71 H -0.61953 1.39908 0.06547
 H72 H -0.56730 1.46088 0.07655
 H73 H -0.56219 1.55094 -0.05386
 H74 H -0.61623 1.61133 -0.04772
 H75 H -0.54313 1.55331 0.08861
 H76 H -0.41853 1.52203 0.08125
 H77 H -0.36475 1.58171 0.08604
 H78 H -0.41847 1.63772 -0.03595
 H79 H -0.47311 1.57844 -0.03856
 H80 H -0.48104 1.43272 0.07049
 H81 H -0.43347 1.36660 0.06711
 H82 H -0.36903 1.41853 -0.05084
 H83 H -0.41663 1.48431 -0.04729
 H84 H -0.59757 1.61409 0.09519
 C85 C -0.00193 0.52894 0.50051
 C86 C -0.00265 0.48400 0.49796
 C87 C 0.00012 0.45994 0.45477
 C88 C -0.00706 0.45555 0.53805
 C89 C -0.00275 0.55243 0.54395
 C90 C 0.00063 0.55708 0.46001
 C91 C -0.03218 0.46534 0.42146
 C92 C -0.03119 0.43892 0.38293
 C93 C 0.00171 0.40574 0.37727
 C94 C 0.03495 0.40213 0.41046
 C95 C 0.03394 0.42864 0.44860
 C96 C -0.04457 0.42819 0.54227
 C97 C -0.04637 0.39553 0.57518
 C98 C -0.01039 0.38901 0.60488
 C99 C 0.02650 0.41825 0.60143
 C100 C 0.02826 0.45072 0.56813
 C101 C 0.03743 0.56311 0.56510
 C102 C 0.03761 0.58900 0.60386
 C103 C -0.00246 0.60651 0.62146
 C104 C -0.04284 0.59490 0.60007
 C105 C -0.04295 0.56768 0.56215
 C106 C 0.03777 0.55533 0.43137
 C107 C 0.03999 0.58283 0.39378
 C108 C 0.00527 0.61273 0.38451
 C109 C -0.03205 0.61380 0.41298
 C110 C -0.03426 0.58639 0.45035
 H111 H -0.05907 0.48889 0.42601
 H112 H -0.05812 0.44282 0.35931
 H113 H 0.06256 0.37932 0.40702
 H114 H 0.05952 0.42438 0.47372
 H115 H -0.07212 0.43138 0.51916
 H116 H -0.07651 0.37588 0.57733
 H117 H 0.05825 0.47041 0.56437
 H118 H 0.06884 0.55223 0.55093
 H119 H 0.06967 0.59770 0.61796
 H120 H -0.07466 0.60597 0.61303
 H121 H -0.07436 0.55934 0.54642
 H122 H 0.06516 0.53307 0.43845
 H123 H 0.06930 0.58154 0.37262
 H124 H -0.05969 0.63586 0.40626
 H125 H -0.06349 0.58790 0.47152
 H126 H 0.05575 0.41430 0.62206
 O127 O -0.05787 1.00735 -0.11699
 O128 O -0.06116 1.01170 0.11185
 O129 O -0.11645 0.95089 -0.00514
 O130 O -0.11148 1.07114 -0.00129
 O131 O -0.05458 1.12276 -0.00057
 O132 O -0.06464 0.89435 -0.00322
 O133 O -0.11502 1.01195 0.05698
 O134 O -0.11350 1.00865 -0.06385
 Zr135 Zr -0.07789 1.00945 -0.00285
 O136 O -0.03873 1.04833 0.03811
 O137 O -0.04081 0.96742 -0.04236
 C138 C -0.09937 1.00758 -0.10488
 C139 C -0.10222 1.01329 0.09832
 C140 C -0.10528 0.90927 -0.00501
 C141 C -0.09646 1.11164 -0.00020
 H142 H -0.06199 0.94983 0.05693
 O143 O -0.04195 0.96779 0.03790
 H144 H -0.05543 1.06783 -0.06166
 O145 O -0.03749 1.04819 -0.04236
 O146 O 0.05882 1.00305 0.11323
 O147 O 0.06156 1.00470 -0.11571
 O148 O -0.00286 0.89195 0.05945
 O149 O 0.00354 1.12075 0.05909
 O150 O 0.00862 1.12025 -0.06150
 O151 O -0.00487 0.89177 -0.06204
 O152 O 0.11285 0.94216 -0.00082
 O153 O 0.11799 1.06112 -0.00120
 O154 O 0.05694 0.88936 0.00021
 O155 O 0.06641 1.11787 -0.00246
 O156 O -0.00245 0.94716 0.11285
 O157 O -0.00401 0.94624 -0.11618
 O158 O 0.00585 1.06644 -0.11632
 O159 O 0.00072 1.06615 0.11276
 O160 O 0.11438 0.99975 0.05998
 O161 O 0.11603 1.00302 -0.06166
 Zr162 Zr -0.00057 1.00648 0.07618
 Zr163 Zr 0.00139 1.00630 -0.07988
 Zr164 Zr -0.00246 0.92773 -0.00146
 Zr165 Zr 0.00418 1.08441 -0.00151
 Zr166 Zr 0.07903 1.00301 -0.00114
 O167 O 0.04338 1.04492 -0.04179
 O168 O 0.03903 0.96432 0.03920
 C169 C 0.10029 1.00060 0.10106
 C170 C 0.10282 1.00366 -0.10299
 C171 C -0.00284 0.90586 0.10059
 C172 C 0.00226 1.10730 0.10025
 C173 C 0.00900 1.10740 -0.10285
 C174 C -0.00616 0.90517 -0.10319
 C175 C 0.09859 0.90155 -0.00040
 C176 C 0.10698 1.10271 -0.00191
 H177 H 0.05760 0.94475 -0.06084
 O178 O 0.03943 0.96441 -0.04162
 H179 H 0.06167 1.06280 0.05818
 O180 O 0.04211 1.04468 0.03882
 C181 C 0.34490 0.95794 0.26863
 C182 C 0.30351 0.98015 0.27167
 C183 C 0.29298 1.00088 0.31278
 C184 C 0.32314 1.00032 0.34850
 C185 C 0.36476 0.97851 0.34548
 C186 C 0.37455 0.95697 0.30462
 C187 C 0.25203 1.02194 0.31854
 C188 C 0.22070 1.02228 0.28466
 C189 C 0.22924 1.00186 0.24306
 C190 C 0.27194 0.98190 0.23579
 C191 C 0.28174 0.96496 0.19284
 C192 C 0.25067 0.96665 0.15847
 C193 C 0.20823 0.98421 0.16564
 C194 C 0.19664 1.00137 0.20826
 C195 C 0.15250 1.01673 0.21452
 C196 C 0.12182 1.01609 0.17976
 C197 C 0.13370 1.00028 0.13736
 C198 C 0.17712 0.98442 0.13047
 H199 H 0.35536 0.94053 0.23897
 H200 H 0.31205 1.01483 0.37966
 H201 H 0.40618 0.94081 0.29878
 H202 H 0.24389 1.03823 0.34984
 H203 H 0.19033 1.03986 0.29199
 H204 H 0.31366 0.95092 0.18435
 H205 H 0.25986 0.95356 0.12598
 H206 H 0.14011 1.02867 0.24610
 H207 H 0.08851 1.02845 0.18621
 H208 H 0.18650 0.97151 0.09796
 C209 C -0.34651 0.96276 0.26182
 C210 C -0.31015 0.99289 0.26229
 C211 C -0.30501 1.02050 0.30040
 C212 C -0.33603 1.01884 0.33551
 C213 C -0.37130 0.98844 0.33457
 C214 C -0.37625 0.96038 0.29769
 C215 C -0.26840 1.04887 0.30381
 C216 C -0.23551 1.04917 0.27113
 C217 C -0.23870 1.02191 0.23286
 C218 C -0.27792 0.99541 0.22710
 C219 C -0.28381 0.97272 0.18623
 C220 C -0.25158 0.97422 0.15290
 C221 C -0.21165 0.99710 0.15947
 C222 C -0.20422 1.02069 0.19982
 C223 C -0.16199 1.04094 0.20596
 C224 C -0.12905 1.03833 0.17307
 C225 C -0.13725 1.01619 0.13280
 C226 C -0.17876 0.99592 0.12606
 H227 H -0.35188 0.93937 0.23508
 H228 H -0.33171 1.03993 0.36461
 H229 H -0.40310 0.93627 0.29683
 H230 H -0.26456 1.07039 0.33262
 H231 H -0.20834 1.07206 0.27629
 H232 H -0.31368 0.95434 0.17849
 H233 H -0.25762 0.95645 0.12196
 H234 H -0.15282 1.05781 0.23636
 H235 H -0.09703 1.05397 0.17908
 H236 H -0.18497 0.97796 0.09525
 C237 C -0.34561 0.96503 -0.27097
 C238 C -0.30033 0.97757 -0.27685
 C239 C -0.28581 0.98704 -0.32092
 C240 C -0.31542 0.98449 -0.35692
 C241 C -0.36020 0.97310 -0.35039
 C242 C -0.37491 0.96285 -0.30724
 C243 C -0.24183 0.99933 -0.32914
 C244 C -0.21165 1.00340 -0.29451
 C245 C -0.22425 0.99531 -0.24980
 C246 C -0.26910 0.98138 -0.24082
 C247 C -0.28105 0.97172 -0.19622
 C248 C -0.25047 0.97559 -0.16160
 C249 C -0.20690 0.98972 -0.16974
 C250 C -0.19325 1.00022 -0.21387
 C251 C -0.14899 1.01537 -0.22017
 C252 C -0.11937 1.01828 -0.18463
 C253 C -0.13257 1.00671 -0.14132
 C254 C -0.17669 0.99307 -0.13394
 H255 H -0.35970 0.95729 -0.23883
 H256 H -0.30349 0.99156 -0.39038
 H257 H -0.40948 0.95414 -0.30131
 H258 H -0.23056 1.00616 -0.36287
 H259 H -0.17838 1.01269 -0.30428
 H260 H -0.31391 0.96064 -0.18684
 H261 H -0.26114 0.96748 -0.12798
 H262 H -0.13588 1.02548 -0.25203
 H263 H -0.08573 1.02972 -0.19130
 H264 H -0.18731 0.98412 -0.10052
 C265 C 0.35692 0.99322 -0.26399
 C266 C 0.31031 0.98814 -0.27039
 C267 C 0.29517 0.97993 -0.31449
 C268 C 0.32543 0.97583 -0.34992
 C269 C 0.37129 0.98042 -0.34294
 C270 C 0.38678 0.98958 -0.29982
 C271 C 0.24982 0.97584 -0.32333
 C272 C 0.21865 0.98047 -0.28954
 C273 C 0.23163 0.98903 -0.24505
 C274 C 0.27822 0.99136 -0.23494
 C275 C 0.29100 0.99603 -0.18978
 C276 C 0.25943 0.99875 -0.15574
 C277 C 0.21390 0.99817 -0.16529
 C278 C 0.19942 0.99430 -0.21020
 C279 C 0.15311 0.99637 -0.21851
 C280 C 0.12260 0.99994 -0.18373
 C281 C 0.13670 1.00185 -0.13915
 C282 C 0.18264 1.00141 -0.13019
 H283 H 0.37134 1.00066 -0.23192
 H284 H 0.31311 0.96982 -0.38343
 H285 H 0.42217 0.99352 -0.29374
 H286 H 0.23818 0.96911 -0.35694
 H287 H 0.18445 0.97596 -0.29943
 H288 H 0.32538 0.99664 -0.17945
 H289 H 0.27084 1.00170 -0.12154
 H290 H 0.13911 0.99607 -0.25157
 H291 H 0.08750 1.00096 -0.19216
 H292 H 0.19416 1.00352 -0.09596
 C293 C 0.28580 1.33756 -0.04699
 C294 C 0.28434 1.29931 -0.01959
 C295 C 0.32079 1.29195 0.00961
 C296 C 0.35532 1.32323 0.01320
 C297 C 0.35519 1.36166 -0.01288
 C298 C 0.32077 1.36809 -0.04363
 C299 C 0.32240 1.25370 0.03555
 C300 C 0.28874 1.22217 0.03312
 C301 C 0.25126 1.22822 0.00533
 C302 C 0.24820 1.26819 -0.02017
 C303 C 0.20855 1.27636 -0.04417
 C304 C 0.17331 1.24633 -0.04374
 C305 C 0.17661 1.20636 -0.02066
 C306 C 0.21609 1.19616 0.00323
 C307 C 0.21892 1.15395 0.02363
 C308 C 0.18355 1.12399 0.02151
 C309 C 0.14400 1.13499 -0.00055
 C310 C 0.14066 1.17631 -0.02155
 H311 H 0.26066 1.34470 -0.07158
 H312 H 0.38242 1.31781 0.03649
 H313 H 0.32027 1.39753 -0.06431
 H314 H 0.35011 1.24799 0.05801
 H315 H 0.29239 1.19399 0.05485
 H316 H 0.20306 1.30655 -0.06253
 H317 H 0.14325 1.25436 -0.06209
 H318 H 0.24835 1.14253 0.04062
 H319 H 0.18705 1.09206 0.03772
 H320 H 0.11043 1.18466 -0.03941
 C321 C 0.28233 0.67496 0.06023
 C322 C 0.27867 0.70972 0.02866
 C323 C 0.31426 0.71521 -0.00216
 C324 C 0.35049 0.68582 -0.00250
 C325 C 0.35270 0.65068 0.02784
 C326 C 0.31876 0.64602 0.05970
 C327 C 0.31340 0.74963 -0.03304
 C328 C 0.27818 0.77930 -0.03395
 C329 C 0.24177 0.77544 -0.00419
 C330 C 0.24125 0.73923 0.02664
 C331 C 0.20300 0.73328 0.05367
 C332 C 0.16698 0.76224 0.05149
 C333 C 0.16792 0.79891 0.02318
 C334 C 0.20561 0.80636 -0.00466
 C335 C 0.20601 0.84516 -0.03116
 C336 C 0.17071 0.87499 -0.02995
 C337 C 0.13347 0.86727 -0.00285
 C338 C 0.13178 0.82880 0.02320
 H339 H 0.25771 0.66923 0.08584
 H340 H 0.37707 0.69012 -0.02675
 H341 H 0.31970 0.61906 0.08352
 H342 H 0.34036 0.75375 -0.05687
 H343 H 0.28013 0.80438 -0.05941
 H344 H 0.19944 0.70586 0.07641
 H345 H 0.13831 0.75621 0.07277
 H346 H 0.23364 0.85440 -0.05220
 H347 H 0.17270 0.90466 -0.05027
 H348 H 0.10326 0.82312 0.04480
 C349 C -0.27297 0.66686 0.04120
 C350 C -0.27736 0.70837 0.01982
 C351 C -0.31960 0.71903 0.00172
 C352 C -0.35512 0.68845 0.00356
 C353 C -0.35018 0.64671 0.02415
 C354 C -0.30844 0.63694 0.04329
 C355 C -0.32636 0.76029 -0.01812
 C356 C -0.29226 0.79150 -0.02014
 C357 C -0.24940 0.78244 -0.00295
 C358 C -0.24148 0.73968 0.01620
 C359 C -0.19784 0.72941 0.03050
 C360 C -0.16339 0.76007 0.02739
 C361 C -0.17092 0.80244 0.01053
 C362 C -0.21403 0.81450 -0.00463
 C363 C -0.21995 0.85846 -0.02020
 C364 C -0.18463 0.88873 -0.02062
 C365 C -0.14209 0.87640 -0.00595
 C366 C -0.13546 0.83298 0.00923
 H367 H -0.24255 0.65631 0.05695
 H368 H -0.38711 0.69830 -0.00982
 H369 H -0.30178 0.60506 0.05835
 H370 H -0.35856 0.76872 -0.03213
 H371 H -0.30049 0.82229 -0.03628
 H372 H -0.18878 0.69747 0.04366
 H373 H -0.13046 0.75057 0.03876
 H374 H -0.25159 0.87094 -0.03148
 H375 H -0.19079 0.92209 -0.03252
 H376 H -0.10282 0.82317 0.02120
 C377 C -0.34961 1.27121 0.01610
 C378 C -0.30346 1.27844 0.00831
 C379 C -0.28924 1.32277 0.00110
 C380 C -0.32004 1.35775 0.00089
 C381 C -0.36552 1.34993 0.00815
 C382 C -0.37994 1.30644 0.01609
 C383 C -0.24430 1.33225 -0.00583
 C384 C -0.21268 1.29878 -0.00561
 C385 C -0.22477 1.25399 0.00131
 C386 C -0.27101 1.24350 0.00764
 C387 C -0.28321 1.19847 0.01257
 C388 C -0.25155 1.16487 0.01163
 C389 C -0.20637 1.17459 0.00629
 C390 C -0.19218 1.21927 0.00154
 C391 C -0.14579 1.22727 -0.00256
 C392 C -0.11525 1.19245 -0.00291
 C393 C -0.12948 1.14829 0.00085
 C394 C -0.17526 1.13969 0.00566
 H395 H -0.36344 1.23887 0.02263
 H396 H -0.30840 1.39146 -0.00429
 H397 H -0.41496 1.29956 0.02183
 H398 H -0.23333 1.36610 -0.01148
 H399 H -0.17891 1.30931 -0.01165
 H400 H -0.31727 1.18783 0.01665
 H401 H -0.26263 1.13079 0.01526
 H402 H -0.13168 1.26003 -0.00520
 H403 H -0.08016 1.20039 -0.00633
 H404 H -0.18683 1.10575 0.00909
 C405 C -0.02014 1.35709 0.26378
 C406 C -0.00217 1.31386 0.26777
 C407 C 0.01667 1.30210 0.30938
 C408 C 0.01832 1.33266 0.34468
 C409 C 0.00066 1.37573 0.34054
 C410 C -0.01895 1.38716 0.29947
 C411 C 0.03357 1.25962 0.31606
 C412 C 0.03147 1.22791 0.28262
 C413 C 0.01267 1.23755 0.24060
 C414 C -0.00288 1.28168 0.23239
 C415 C -0.01800 1.29218 0.18905
 C416 C -0.01866 1.26055 0.15514
 C417 C -0.00544 1.21694 0.16321
 C418 C 0.00962 1.20460 0.20629
 C419 C 0.02038 1.15948 0.21347
 C420 C 0.01759 1.12848 0.17909
 C421 C 0.00411 1.14102 0.13621
 C422 C -0.00743 1.18542 0.12846
 H423 H -0.03593 1.36863 0.23372
 H424 H 0.03145 1.32144 0.37635
 H425 H -0.03226 1.42002 0.29388
 H426 H 0.04843 1.25059 0.34774
 H427 H 0.04594 1.19625 0.29062
 H428 H -0.02874 1.32501 0.17990
 H429 H -0.03015 1.27027 0.12230
 H430 H 0.03023 1.14665 0.24546
 H431 H 0.02648 1.09440 0.18622
 H432 H -0.01863 1.19535 0.09557
 C433 C -0.03403 1.27812 -0.34353
 C434 C -0.00867 1.27952 -0.30383
 C435 C 0.01485 1.31924 -0.29430
 C436 C 0.01420 1.35509 -0.32427
 C437 C -0.01057 1.35319 -0.36417
 C438 C -0.03499 1.31408 -0.37280
 C439 C 0.03888 1.32323 -0.25470
 C440 C 0.03952 1.28898 -0.22381
 C441 C 0.01659 1.24871 -0.23160
 C442 C -0.00645 1.24323 -0.27305
 C443 C -0.02596 1.20153 -0.28254
 C444 C -0.02440 1.16687 -0.25207
 C445 C -0.00423 1.17246 -0.21055
 C446 C 0.01623 1.21357 -0.19948
 C447 C 0.03454 1.21810 -0.15619
 C448 C 0.03249 1.18343 -0.12555
 C449 C 0.01271 1.14278 -0.13682
 C450 C -0.00512 1.13731 -0.17968
 H451 H -0.05394 1.24983 -0.35293
 H452 H 0.03180 1.38518 -0.31517
 H453 H -0.05364 1.30982 -0.40338
 H454 H 0.05722 1.35340 -0.24727
 H455 H 0.05923 1.29490 -0.19439
 H456 H -0.04210 1.19420 -0.31378
 H457 H -0.03984 1.13549 -0.26090
 H458 H 0.04956 1.24839 -0.14433
 H459 H 0.04637 1.18864 -0.09259
 H460 H -0.02111 1.10619 -0.18850
 C461 C 0.03301 0.66366 -0.27323
 C462 C 0.00215 0.69895 -0.26989
 C463 C -0.03052 0.70261 -0.30376
 C464 C -0.03318 0.67087 -0.33816
 C465 C -0.00184 0.63624 -0.34166
 C466 C 0.03132 0.63341 -0.30861
 C467 C -0.05980 0.73855 -0.30383
 C468 C -0.05638 0.77191 -0.27191
 C469 C -0.02442 0.76980 -0.23746
 C470 C 0.00348 0.73143 -0.23492
 C471 C 0.03120 0.72647 -0.19721
 C472 C 0.03275 0.75859 -0.16386
 C473 C 0.00812 0.79762 -0.16749
 C474 C -0.02004 0.80435 -0.20487
 C475 C -0.04179 0.84588 -0.20857
 C476 C -0.03662 0.87863 -0.17588
 C477 C -0.01039 0.87086 -0.13814
 C478 C 0.01180 0.83023 -0.13405
 H479 H 0.05989 0.65933 -0.24982
 H480 H -0.05805 0.67530 -0.36397
 H481 H 0.05563 0.60690 -0.30906
 H482 H -0.08510 0.74147 -0.32946
 H483 H -0.08030 0.79845 -0.27430
 H484 H 0.05115 0.69727 -0.19177
 H485 H 0.05413 0.75311 -0.13526
 H486 H -0.06201 0.85455 -0.23693
 H487 H -0.05377 0.91001 -0.17982
 H488 H 0.03290 0.82445 -0.10527
 C489 C 0.02422 0.65934 0.26813
 C490 C 0.01001 0.70401 0.27293
 C491 C -0.00439 0.71782 0.31591
 C492 C -0.00517 0.68807 0.35179
 C493 C 0.00810 0.64389 0.34626
 C494 C 0.02327 0.62994 0.30427
 C495 C -0.01826 0.76128 0.32315
 C496 C -0.01846 0.79177 0.28869
 C497 C -0.00479 0.78003 0.24507
 C498 C 0.00951 0.73537 0.23692
 C499 C 0.02251 0.72364 0.19307
 C500 C 0.02177 0.75432 0.15844
 C501 C 0.00827 0.79799 0.16591
 C502 C -0.00508 0.81154 0.20935
 C503 C -0.01802 0.85631 0.21525
 C504 C -0.01743 0.88608 0.17986
 C505 C -0.00419 0.87271 0.13703
 C506 C 0.00833 0.82837 0.13016
 H507 H 0.03612 0.64593 0.23696
 H508 H -0.01602 0.69948 0.38441
 H509 H 0.03364 0.59589 0.29910
 H510 H -0.02927 0.77192 0.35599
 H511 H -0.02993 0.82440 0.29765
 H512 H 0.03334 0.69072 0.18421
 H513 H 0.03206 0.74369 0.12538
 H514 H -0.02855 0.86989 0.24679
 H515 H -0.02765 0.91998 0.18627
 H516 H 0.01891 0.81766 0.09722
   
