data_POSCAR
  _audit_creation_date              2014-09-24
  _audit_creation_method            'ToBaCCo'
  _symmetry_space_group_name_H-M    'P1'
  _symmetry_Int_Tables_number       1
  _symmetry_cell_setting            triclinic
  loop_
  _symmetry_equiv_pos_as_xyz
 x,y,z
_cell_length_a 40.5683
_cell_length_b 40.4285
_cell_length_c 40.3845
_cell_angle_alpha 90.071600
_cell_angle_beta 90.000000
_cell_angle_gamma 89.934400
loop_
  _atom_site_label
  _atom_site_type_symbol
  _atom_site_fract_x
  _atom_site_fract_y
  _atom_site_fract_z
C1 C 0.18887 1.23095 0.18973
 N2 N 0.17486 1.21734 0.21702
 C3 C 0.18843 1.19006 0.23107
 N4 N 0.21577 1.17614 0.21759
 C5 C 0.22979 1.18973 0.19030
 N6 N 0.21621 1.21701 0.17626
 C7 C 0.81187 0.76871 0.18976
 N8 N 0.78450 0.78231 0.17603
 C9 C 0.77062 0.80960 0.18982
 N10 N 0.78435 0.82354 0.21711
 C11 C 0.81172 0.80996 0.23086
 N12 N 0.82558 0.78266 0.21706
 C13 C 0.81064 1.23080 -0.18912
 N14 N 0.82430 1.21694 -0.21651
 C15 C 0.81046 1.18966 -0.23031
 N16 N 0.78320 1.17601 -0.21648
 C17 C 0.76953 1.18987 -0.18910
 N18 N 0.78338 1.21714 -0.17531
 C19 C 0.18933 0.76990 -0.19109
 N20 N 0.17556 0.78388 -0.21832
 C21 C 0.18930 0.81124 -0.23198
 N22 N 0.21660 0.82485 -0.21816
 C23 C 0.23038 0.81089 -0.19092
 N24 N 0.21662 0.78353 -0.17727
 C25 C 0.55041 1.04543 -0.00886
 H26 H 0.55094 1.04518 0.01792
 C27 C 0.57316 1.06446 -0.02639
 H28 H 0.59123 1.07906 -0.01311
 C29 C 0.52697 1.02578 -0.05898
 H30 H 0.50945 1.01010 -0.07158
 C31 C 0.54933 1.04446 -0.07748
 H32 H 0.54877 1.04334 -0.10428
 N33 N 0.52787 1.02667 -0.02529
 C34 C 0.44976 1.00908 0.04667
 H35 H 0.44926 0.98232 0.04642
 C36 C 0.42695 1.02663 0.06572
 H37 H 0.40887 1.01339 0.08032
 C38 C 0.47313 1.05911 0.02700
 H39 H 0.49065 1.07166 0.01130
 C40 C 0.45072 1.07762 0.04570
 H41 H 0.45123 1.10439 0.04457
 Zn42 Zn 0.50009 0.99951 0.00064
 N43 N 0.47228 1.02545 0.02788
 C44 C 0.52708 0.97321 0.06023
 N45 N 0.52792 0.97231 0.02654
 C46 C 0.55046 0.95353 0.01008
 C47 C 0.57329 0.93450 0.02758
 C48 C 0.54951 0.95454 0.07870
 C49 C 0.44973 0.99004 -0.04535
 C50 C 0.42697 0.97256 -0.06445
 C51 C 0.45081 0.92150 -0.04454
 C52 C 0.47318 0.93995 -0.02579
 N53 N 0.47228 0.97361 -0.02660
 H54 H 0.50954 0.98890 0.07285
 H55 H 0.55096 0.95377 -0.01670
 H56 H 0.59138 0.91991 0.01428
 H57 H 0.54900 0.95568 0.10550
 H58 H 0.44920 1.01680 -0.04504
 H59 H 0.40888 0.98584 -0.07904
 H60 H 0.45137 0.89473 -0.04348
 H61 H 0.49072 0.92735 -0.01011
 C62 C 0.42735 1.06120 0.06510
 C63 C 0.57270 1.06385 -0.06100
 C64 C 0.42743 0.93798 -0.06392
 C65 C 0.57289 0.93514 0.06219
 C66 C -0.00908 0.55029 1.04548
 H67 H 0.01758 0.55081 1.04524
 C68 C -0.02657 0.57316 1.06455
 H69 H -0.01338 0.59133 1.07916
 C70 C -0.05894 0.52674 1.02583
 H71 H -0.07145 0.50912 1.01014
 C72 C -0.07739 0.54922 1.04454
 H73 H -0.10406 0.54867 1.04343
 N74 N -0.02540 0.52763 1.02671
 C75 C 0.04627 0.44911 1.00920
 H76 H 0.04607 0.44851 0.98242
 C77 C 0.06523 0.42629 1.02680
 H78 H 0.07980 0.40809 1.01358
 C79 C 0.02661 0.47277 1.05925
 H80 H 0.01095 0.49040 1.07178
 C81 C 0.04521 0.45034 1.07781
 H82 H 0.04406 0.45096 1.10461
 Zn83 Zn 0.00047 0.49965 0.99954
 N84 N 0.02754 0.47179 1.02555
 C85 C 0.05985 0.52655 0.97322
 N86 N 0.02630 0.52747 0.97232
 C87 C 0.00997 0.55006 0.95351
 C88 C 0.02743 0.57286 0.93443
 C89 C 0.07827 0.54896 0.95450
 C90 C -0.04530 0.44914 0.99004
 C91 C -0.06429 0.42629 0.97252
 C92 C -0.04437 0.45008 0.92142
 C93 C -0.02573 0.47254 0.93991
 N94 N -0.02660 0.47171 0.97361
 H95 H 0.07237 0.50899 0.98895
 H96 H -0.01670 0.55061 0.95374
 H97 H 0.01422 0.59099 0.91980
 H98 H 0.10495 0.54839 0.95564
 H99 H -0.04504 0.44866 1.01683
 H100 H -0.07884 0.40819 0.98580
 H101 H -0.04327 0.45059 0.89463
 H102 H -0.01010 0.49009 0.92732
 C103 C 0.06457 0.42682 1.06141
 C104 C -0.06102 0.57271 1.06395
 C105 C -0.06370 0.42668 0.93791
 C106 C 0.06188 0.57239 0.93506
 C107 C 1.04522 -0.00874 0.55040
 H108 H 1.04495 0.01801 0.55102
 C109 C 1.06425 -0.02631 0.57320
 H110 H 1.07880 -0.01310 0.59139
 C111 C 1.02568 -0.05875 0.52671
 H112 H 1.01005 -0.07128 0.50907
 C113 C 1.04436 -0.07728 0.54911
 H114 H 1.04328 -0.10405 0.54846
 N115 N 1.02652 -0.02509 0.52771
 C116 C 1.00892 0.04687 0.44936
 H117 H 0.98225 0.04665 0.44881
 C118 C 1.02639 0.06591 0.42653
 H119 H 1.01319 0.08053 0.40838
 C120 C 1.05879 0.02715 0.47288
 H121 H 1.07131 0.01144 0.49046
 C122 C 1.07722 0.04584 0.45045
 H123 H 1.10390 0.04469 0.45101
 Zn124 Zn 0.99942 0.00088 0.49984
 N125 N 1.02525 0.02807 0.47197
 C126 C 0.97318 0.06045 0.52700
 N127 N 0.97232 0.02679 0.52783
 C128 C 0.95364 0.01039 0.55045
 C129 C 0.93465 0.02791 0.57337
 C130 C 0.95454 0.07893 0.54952
 C131 C 0.98997 -0.04501 0.44916
 C132 C 0.97253 -0.06408 0.42629
 C133 C 0.92166 -0.04415 0.45030
 C134 C 0.94007 -0.02543 0.47278
 N135 N 0.97361 -0.02627 0.47185
 H136 H 0.98879 0.07303 0.50941
 H137 H 0.95390 -0.01636 0.55093
 H138 H 0.92012 0.01465 0.59151
 H139 H 0.95564 0.10570 0.54902
 H140 H 1.01663 -0.04473 0.44861
 H141 H 0.98576 -0.07867 0.40810
 H142 H 0.89498 -0.04308 0.45090
 H143 H 0.92752 -0.00976 0.49043
 C144 C 1.06084 0.06527 0.42699
 C145 C 1.06369 -0.06088 0.57262
 C146 C 0.93808 -0.06354 0.42679
 C147 C 0.93524 0.06248 0.57298
 C148 C 0.14433 0.30722 1.14369
 C149 C 0.10771 0.30025 1.13718
 C150 C 0.09195 0.32514 1.12089
 C151 C 0.11431 0.35460 1.11269
 C152 C 0.14326 0.33972 1.09322
 C153 C 0.15903 0.31481 1.10951
 C154 C 0.14490 0.34034 1.16235
 C155 C 0.12910 0.36527 1.14603
 C156 C 0.16108 0.28012 1.16100
 C157 C 0.17438 0.25726 1.17475
 C158 C 0.09711 0.38112 1.09493
 C159 C 0.08251 0.40230 1.07988
 H160 H 0.09525 0.27774 1.14473
 H161 H 0.06598 0.32394 1.11450
 H162 H 0.15073 0.34804 1.06880
 H163 H 0.18002 0.30180 1.09905
 H164 H 0.15667 0.34389 1.18623
 H165 H 0.12734 0.39019 1.15594
 C166 C -0.14261 0.69240 1.14458
 C167 C -0.12713 0.70297 1.11157
 C168 C -0.11100 0.67807 1.09562
 C169 C -0.11190 0.64499 1.11419
 C170 C -0.14865 0.63795 1.11991
 C171 C -0.16481 0.66289 1.13590
 C172 C -0.11406 0.67758 1.16466
 C173 C -0.09792 0.65265 1.14868
 C174 C -0.15975 0.71951 1.16155
 C175 C -0.17334 0.74238 1.17505
 C176 C -0.09430 0.61845 1.09679
 C177 C -0.07937 0.59726 1.08205
 H178 H -0.12871 0.72784 1.10159
 H179 H -0.09878 0.68162 1.07197
 H180 H -0.16088 0.61537 1.11213
 H181 H -0.19088 0.66169 1.14181
 H182 H -0.10717 0.68590 1.18927
 H183 H -0.07719 0.63962 1.15961
 C184 C -0.14415 0.30707 0.85629
 C185 C -0.16681 0.32796 0.87847
 C186 C -0.15086 0.35288 0.89461
 C187 C -0.11382 0.35445 0.88698
 C188 C -0.11161 0.35690 0.84911
 C189 C -0.12757 0.33197 0.83296
 C190 C -0.11651 0.29501 0.87926
 C191 C -0.10058 0.31989 0.89537
 C192 C -0.16111 0.27997 0.83917
 C193 C -0.17461 0.25711 0.82561
 C194 C -0.09645 0.38098 0.90458
 C195 C -0.08174 0.40215 0.91953
 H196 H -0.19307 0.32360 0.88123
 H197 H -0.16345 0.36987 0.91119
 H198 H -0.09870 0.37649 0.83612
 H199 H -0.12832 0.33020 0.80615
 H200 H -0.11000 0.26916 0.88257
 H201 H -0.08044 0.31536 0.91248
 C202 C 0.14321 0.69202 0.85466
 C203 C 0.14743 0.65813 0.83796
 C204 C 0.13134 0.63317 0.85389
 C205 C 0.11263 0.64460 0.88493
 C206 C 0.08974 0.67235 0.87291
 C207 C 0.10580 0.69726 0.85701
 C208 C 0.15465 0.68690 0.89052
 C209 C 0.13858 0.66198 0.90643
 C210 C 0.16028 0.71914 0.83775
 C211 C 0.17381 0.74202 0.82433
 C212 C 0.09509 0.61807 0.90228
 C213 C 0.08020 0.59689 0.91699
 H214 H 0.16179 0.65409 0.81563
 H215 H 0.13191 0.60775 0.84521
 H216 H 0.06322 0.67241 0.87653
 H217 H 0.09304 0.71865 0.84701
 H218 H 0.17374 0.70154 0.90236
 H219 H 0.14390 0.65527 0.93190
 C220 C 1.14260 0.14537 0.30735
 C221 C 1.12347 0.16880 0.33034
 C222 C 1.10726 0.15295 0.35527
 C223 C 1.11178 0.11524 0.35475
 C224 C 1.14924 0.10978 0.35526
 C225 C 1.16545 0.12563 0.33033
 C226 C 1.11698 0.12027 0.29513
 C227 C 1.10079 0.10445 0.32002
 C228 C 1.15982 0.16219 0.28025
 C229 C 1.17350 0.17553 0.25738
 C230 C 1.09413 0.09797 0.38128
 C231 C 1.07918 0.08330 0.40246
 H232 H 1.12275 0.19547 0.32733
 H233 H 1.09265 0.16604 0.37362
 H234 H 1.16191 0.09483 0.37360
 H235 H 1.19201 0.12425 0.32731
 H236 H 1.11197 0.11535 0.26918
 H237 H 1.08193 0.08598 0.31538
 C238 C 1.14420 -0.14293 0.69192
 C239 C 1.10899 -0.15543 0.68583
 C240 C 1.09305 -0.13919 0.66099
 C241 C 1.11387 -0.11204 0.64466
 C242 C 1.14556 -0.12952 0.63335
 C243 C 1.16152 -0.14578 0.65823
 C244 C 1.14051 -0.10564 0.69805
 C245 C 1.12458 -0.08941 0.67322
 C246 C 1.16114 -0.16018 0.71896
 C247 C 1.17461 -0.17387 0.74176
 C248 C 1.09649 -0.09434 0.61820
 C249 C 1.08176 -0.07932 0.59708
 H250 H 1.09761 -0.17531 0.69977
 H251 H 1.06801 -0.14517 0.65365
 H252 H 1.15465 -0.12918 0.60807
 H253 H 1.18429 -0.15936 0.65426
 H254 H 1.14966 -0.09306 0.71997
 H255 H 1.12008 -0.06294 0.67388
 C256 C 0.85689 -0.14451 0.30715
 C257 C 0.86934 -0.16763 0.33458
 C258 C 0.88540 -0.15156 0.35952
 C259 C 0.88740 -0.11397 0.35455
 C260 C 0.85156 -0.10265 0.34995
 C261 C 0.83551 -0.11871 0.32502
 C262 C 0.88750 -0.12549 0.29559
 C263 C 0.90353 -0.10945 0.32048
 C264 C 0.83986 -0.16159 0.28004
 C265 C 0.82638 -0.17519 0.25717
 C266 C 0.90491 -0.09648 0.38108
 C267 C 0.91978 -0.08168 0.40226
 H268 H 0.86583 -0.19425 0.33445
 H269 H 0.89564 -0.16441 0.38075
 H270 H 0.83981 -0.08372 0.36497
 H271 H 0.81001 -0.11355 0.31869
 H272 H 0.89587 -0.12469 0.27007
 H273 H 0.92562 -0.09492 0.31627
 C274 C 0.85522 0.14412 0.69309
 C275 C 0.86417 0.10819 0.70142
 C276 C 0.87999 0.09206 0.67642
 C277 C 0.88534 0.11341 0.64550
 C278 C 0.90373 0.14418 0.65793
 C279 C 0.88790 0.16032 0.68295
 C280 C 0.83500 0.14203 0.66101
 C281 C 0.85085 0.12586 0.63597
 C282 C 0.83840 0.16127 0.72031
 C283 C 0.82503 0.17486 0.74327
 C284 C 0.90261 0.09580 0.61886
 C285 C 0.91725 0.08085 0.59760
 H286 H 0.85854 0.09643 0.72490
 H287 H 0.88791 0.06648 0.67850
 H288 H 0.92711 0.15257 0.64793
 H289 H 0.89771 0.18255 0.69439
 H290 H 0.81044 0.15233 0.65821
 H291 H 0.83987 0.12233 0.61171
 C292 C 0.30767 1.14313 0.14501
 C293 C 0.31598 1.10940 0.16032
 C294 C 0.34091 1.09318 0.14453
 C295 C 0.35509 1.11228 0.11496
 C296 C 0.36531 1.14602 0.12910
 C297 C 0.34035 1.16225 0.14491
 C298 C 0.30045 1.13580 0.10842
 C299 C 0.32536 1.11960 0.09264
 C300 C 0.28054 1.16035 0.16178
 C301 C 0.25767 1.17403 0.17507
 C302 C 0.38163 1.09460 0.09773
 C303 C 0.40282 1.07961 0.08310
 H304 H 0.30342 1.09917 0.18172
 H305 H 0.34970 1.06907 0.15240
 H306 H 0.38994 1.15624 0.12691
 H307 H 0.34361 1.18638 0.15627
 H308 H 0.27775 1.14276 0.09598
 H309 H 0.32399 1.11268 0.06669
 C310 C 0.69193 1.14415 -0.14274
 C311 C 0.69565 1.10637 -0.14252
 C312 C 0.67082 1.09048 -0.12637
 C313 C 0.64468 1.11391 -0.11199
 C314 C 0.63285 1.13469 -0.14151
 C315 C 0.65772 1.15060 -0.15769
 C316 C 0.68878 1.15399 -0.10615
 C317 C 0.66395 1.13810 -0.08999
 C318 C 0.71895 1.16104 -0.15990
 C319 C 0.74175 1.17446 -0.17351
 C320 C 0.61824 1.09658 -0.09436
 C321 C 0.59713 1.08189 -0.07939
 H322 H 0.71598 1.09323 -0.15409
 H323 H 0.66990 1.06374 -0.12410
 H324 H 0.60724 1.13672 -0.14902
 H325 H 0.65341 1.16627 -0.17907
 H326 H 0.70463 1.17190 -0.09401
 H327 H 0.65854 1.14240 -0.06401
 C328 C 0.30808 0.85676 -0.14476
 C329 C 0.34210 0.85122 -0.16052
 C330 C 0.36699 0.86727 -0.14448
 C331 C 0.35539 0.88726 -0.11429
 C332 C 0.33699 0.86230 -0.09245
 C333 C 0.31213 0.84628 -0.10847
 C334 C 0.30370 0.89446 -0.14363
 C335 C 0.32855 0.91048 -0.12762
 C336 C 0.28102 0.83975 -0.16179
 C337 C 0.25820 0.82629 -0.17534
 C338 C 0.38186 0.90476 -0.09683
 C339 C 0.40298 0.91965 -0.08205
 H340 H 0.34626 0.83604 -0.18232
 H341 H 0.39249 0.86584 -0.15254
 H342 H 0.34300 0.85760 -0.06668
 H343 H 0.29684 0.82784 -0.09642
 H344 H 0.28291 0.90744 -0.15449
 H345 H 0.32905 0.93718 -0.12477
 C346 C 0.69267 0.85513 0.14367
 C347 C 0.68011 0.83645 0.11306
 C348 C 0.65515 0.85229 0.09695
 C349 C 0.64520 0.88524 0.11304
 C350 C 0.67718 0.90540 0.11485
 C351 C 0.70211 0.88959 0.13094
 C352 C 0.66200 0.86075 0.16524
 C353 C 0.63702 0.87659 0.14912
 C354 C 0.71982 0.83830 0.16076
 C355 C 0.74272 0.82494 0.17431
 C356 C 0.61864 0.90250 0.09547
 C357 C 0.59743 0.91715 0.08055
 H358 H 0.68991 0.81285 0.10478
 H359 H 0.64358 0.84225 0.07488
 H360 H 0.67999 0.92998 0.10442
 H361 H 0.72627 0.90062 0.13429
 H362 H 0.66006 0.85295 0.19089
 H363 H 0.61368 0.88238 0.16095
   
