data_POSCAR
  _audit_creation_date              2014-09-24
  _audit_creation_method            'ToBaCCo'
  _symmetry_space_group_name_H-M    'P1'
  _symmetry_Int_Tables_number       1
  _symmetry_cell_setting            triclinic
  loop_
  _symmetry_equiv_pos_as_xyz
 x,y,z
_cell_length_a 43.8510
_cell_length_b 43.9700
_cell_length_c 43.5033
_cell_angle_alpha 89.879100
_cell_angle_beta 89.391900
_cell_angle_gamma 89.382700
loop_
  _atom_site_label
  _atom_site_type_symbol
  _atom_site_fract_x
  _atom_site_fract_y
  _atom_site_fract_z
C1 C 0.18382 0.20988 0.22760
 N2 N 0.20412 0.18714 0.23357
 C3 C 0.22958 0.18330 0.21585
 N4 N 0.23479 0.20273 0.19206
 C5 C 0.21453 0.22542 0.18565
 N6 N 0.18905 0.22877 0.20342
 C7 C 0.68541 0.71489 0.72914
 N8 N 0.69171 0.73485 0.70615
 C9 C 0.71671 0.73082 0.68787
 N10 N 0.73565 0.70671 0.69288
 C11 C 0.72947 0.68637 0.71565
 N12 N 0.70420 0.69056 0.73360
 C13 C 0.31454 0.78794 0.72385
 N14 N 0.30782 0.76688 0.70222
 C15 C 0.28360 0.77108 0.68339
 N16 N 0.26570 0.79628 0.68686
 C17 C 0.27197 0.81749 0.70853
 N18 N 0.29670 0.81325 0.72671
 C19 C 0.81545 0.28913 0.22414
 N20 N 0.81049 0.26958 0.20056
 C21 C 0.78634 0.27357 0.18160
 N22 N 0.76702 0.29753 0.18628
 C23 C 0.77170 0.31736 0.20962
 N24 N 0.79586 0.31296 0.22844
 C25 C 0.81739 0.71070 0.27186
 N26 N 0.81359 0.72833 0.29727
 C27 C 0.78927 0.72443 0.31638
 N28 N 0.76882 0.70234 0.31023
 C29 C 0.77248 0.68432 0.28509
 N30 N 0.79666 0.68879 0.26586
 C31 C 0.32005 0.20942 -0.22842
 N32 N 0.30052 0.18610 -0.23312
 C33 C 0.27608 0.18171 -0.21417
 N34 N 0.27126 0.20113 -0.19028
 C35 C 0.29058 0.22446 -0.18513
 N36 N 0.31491 0.22840 -0.20424
 C37 C 0.68112 0.29141 -0.22335
 N38 N 0.70031 0.31519 -0.22729
 C39 C 0.72432 0.31918 -0.20821
 N40 N 0.72890 0.29892 -0.18499
 C41 C 0.70982 0.27511 -0.18066
 N42 N 0.68600 0.27150 -0.19996
 C43 C 0.18165 0.78950 0.27443
 N44 N 0.20083 0.81333 0.27063
 C45 C 0.22456 0.81750 0.29004
 N46 N 0.22879 0.79744 0.31350
 C47 C 0.20973 0.77361 0.31771
 N48 N 0.18625 0.76977 0.29805
 C49 C 0.46170 0.43385 0.47499
 N50 N 0.43721 0.45256 0.47960
 C51 C 0.43178 0.47635 0.46035
 N52 N 0.45111 0.48130 0.43630
 C53 C 0.47569 0.46282 0.43142
 N54 N 0.48086 0.43916 0.45087
 C55 C -0.03846 -0.06599 0.97481
 N56 N -0.01860 -0.06035 0.95136
 C57 C -0.02290 -0.03611 0.93241
 N58 N -0.04736 -0.01739 0.93717
 C59 C -0.06755 -0.02272 0.96047
 N60 N -0.06287 -0.04714 0.97914
 C61 C 1.04147 0.56710 0.97605
 N62 N 1.02190 0.56191 0.95265
 C63 C 1.02555 0.53735 0.93403
 N64 N 1.04929 0.51785 0.93883
 C65 C 1.06919 0.52273 0.96201
 N66 N 1.06505 0.54730 0.98054
 C67 C 0.54196 0.06399 0.47838
 N68 N 0.52048 0.05672 0.45747
 C69 C 0.52439 0.03223 0.43881
 N70 N 0.54980 0.01455 0.44177
 C71 C 0.57152 0.02140 0.46268
 N72 N 0.56755 0.04646 0.48065
 C73 C -0.04061 0.07098 0.52452
 N74 N -0.02079 0.06609 0.54784
 C75 C -0.02237 0.04037 0.56511
 N76 N -0.04407 0.01947 0.55899
 C77 C -0.06457 0.02435 0.53620
 N78 N -0.06254 0.05016 0.51906
 C79 C 0.45888 0.56752 0.02035
 N80 N 0.43690 0.54672 0.01486
 C81 C 0.43444 0.52139 0.03266
 N82 N 0.45447 0.51682 0.05589
 C83 C 0.47643 0.53753 0.06173
 N84 N 0.47838 0.56288 0.04397
 C85 C 0.53645 -0.06774 0.02502
 N86 N 0.55950 -0.04784 0.01987
 C87 C 0.56470 -0.02472 0.03976
 N88 N 0.54637 -0.02136 0.06492
 C89 C 0.52316 -0.04092 0.07039
 N90 N 0.51845 -0.06408 0.05043
 C91 C 1.03459 0.43207 0.52257
 N92 N 1.05800 0.45165 0.51785
 C93 C 1.06297 0.47486 0.53767
 N94 N 1.04419 0.47851 0.56243
 C95 C 1.02069 0.45924 0.56754
 N96 N 1.01606 0.43608 0.54755
 C97 C 0.41977 0.01133 0.21357
 H98 H 0.41830 0.03338 0.22452
 C99 C 0.44006 0.00664 0.18906
 H100 H 0.45364 0.02549 0.18094
 C101 C 0.40328 -0.03969 0.21079
 H102 H 0.38948 -0.05790 0.21981
 C103 C 0.42352 -0.04549 0.18644
 H104 H 0.42488 -0.06822 0.17697
 N105 N 0.40140 -0.01147 0.22347
 C106 C 0.33193 0.04227 0.27196
 H107 H 0.33242 0.03108 0.29412
 C108 C 0.31282 0.06744 0.26747
 H109 H 0.29910 0.07574 0.28657
 C110 C 0.34958 0.04496 0.22039
 H111 H 0.36335 0.03566 0.20188
 C112 C 0.33056 0.07002 0.21479
 H113 H 0.33002 0.07971 0.19191
 Zn114 Zn 0.37462 -0.00296 0.25691
 N115 N 0.35015 0.03183 0.24873
 C116 C 0.40181 0.03135 0.30464
 N117 N 0.39938 0.00339 0.29165
 C118 C 0.41599 -0.02073 0.30206
 C119 C 0.43549 -0.01743 0.32696
 C120 C 0.42125 0.03573 0.32943
 C121 C 0.33136 -0.04593 0.23972
 C122 C 0.31105 -0.06991 0.24353
 C123 C 0.32302 -0.07099 0.29758
 C124 C 0.34356 -0.04738 0.29259
 N125 N 0.34764 -0.03565 0.26392
 H126 H 0.38926 0.05048 0.29536
 H127 H 0.41399 -0.04261 0.29097
 H128 H 0.44803 -0.03711 0.33519
 H129 H 0.42335 0.05833 0.33894
 H130 H 0.33454 -0.03574 0.21727
 H131 H 0.29932 -0.07838 0.22359
 H132 H 0.31976 -0.07948 0.32073
 H133 H 0.35581 -0.03810 0.31178
 C134 C 0.31186 0.08168 0.23853
 C135 C 0.44209 -0.02208 0.17501
 C136 C 0.30660 -0.08288 0.27279
 C137 C 0.43844 0.01114 0.34096
 C138 C 0.07990 -0.00991 0.70811
 H139 H 0.07840 -0.03008 0.72231
 C140 C 0.05947 -0.00552 0.68408
 H141 H 0.04204 -0.02232 0.68045
 C142 C 0.10357 0.03705 0.69708
 H143 H 0.12025 0.05399 0.70256
 C144 C 0.08407 0.04204 0.67236
 H145 H 0.08694 0.06238 0.65865
 N146 N 0.10149 0.01115 0.71408
 C147 C 0.17034 -0.04194 0.76236
 H148 H 0.16934 -0.03111 0.78466
 C149 C 0.19003 -0.06661 0.75738
 H150 H 0.20349 -0.07498 0.77636
 C151 C 0.15323 -0.04423 0.71096
 H152 H 0.13918 -0.03505 0.69283
 C153 C 0.17307 -0.06859 0.70477
 H154 H 0.17408 -0.07776 0.68172
 Zn155 Zn 0.12724 0.00277 0.74784
 N156 N 0.15216 -0.03156 0.73943
 C157 C 0.09949 -0.03283 0.79485
 N158 N 0.10147 -0.00458 0.78225
 C159 C 0.08375 0.01882 0.79276
 C160 C 0.06375 0.01454 0.81753
 C161 C 0.07955 -0.03821 0.81947
 C162 C 0.17240 0.04487 0.73231
 C163 C 0.19244 0.06887 0.73668
 C164 C 0.17595 0.07142 0.78975
 C165 C 0.15564 0.04787 0.78412
 N166 N 0.15386 0.03545 0.75561
 H167 H 0.11285 -0.05144 0.78546
 H168 H 0.08535 0.04093 0.78193
 H169 H 0.05046 0.03372 0.82597
 H170 H 0.07794 -0.06102 0.82870
 H171 H 0.17130 0.03392 0.71011
 H172 H 0.20587 0.07670 0.71728
 H173 H 0.17735 0.08036 0.81283
 H174 H 0.14177 0.03917 0.80275
 C175 C 0.19181 -0.08024 0.72818
 C176 C 0.06148 0.02065 0.66554
 C177 C 0.19449 0.08262 0.76575
 C178 C 0.06139 -0.01432 0.83127
 C179 C 0.57523 0.49127 0.20821
 H180 H 0.57110 0.47355 0.22499
 C181 C 0.55523 0.49534 0.18380
 H182 H 0.53550 0.48086 0.18238
 C183 C 0.60537 0.53240 0.19086
 H184 H 0.62489 0.54685 0.19383
 C185 C 0.58622 0.53696 0.16576
 H186 H 0.59164 0.55469 0.14936
 N187 N 0.59960 0.50978 0.21138
 C188 C 0.67042 0.46117 0.26120
 H189 H 0.67089 0.47397 0.28240
 C190 C 0.69016 0.43639 0.25695
 H191 H 0.70535 0.42999 0.27537
 C192 C 0.64934 0.45383 0.21188
 H193 H 0.63358 0.46093 0.19427
 C194 C 0.66899 0.42918 0.20647
 H195 H 0.66825 0.41776 0.18448
 Zn196 Zn 0.62441 0.50312 0.24599
 N197 N 0.65028 0.46912 0.23898
 C198 C 0.59947 0.46869 0.29530
 N199 N 0.59806 0.49568 0.28002
 C200 C 0.57670 0.51711 0.28753
 C201 C 0.55665 0.51244 0.31220
 C202 C 0.57957 0.46285 0.31980
 C203 C 0.67426 0.54077 0.23432
 C204 C 0.69434 0.56477 0.23885
 C205 C 0.66291 0.58153 0.28157
 C206 C 0.64381 0.55686 0.27662
 N207 N 0.64955 0.53724 0.25309
 H208 H 0.61567 0.45135 0.28826
 H209 H 0.57531 0.53798 0.27437
 H210 H 0.54055 0.53030 0.31831
 H211 H 0.58084 0.44098 0.33119
 H212 H 0.67860 0.52461 0.21604
 H213 H 0.71428 0.56647 0.22411
 H214 H 0.65724 0.59721 0.29994
 H215 H 0.62447 0.55358 0.29169
 C216 C 0.68971 0.42000 0.22924
 C217 C 0.56056 0.51841 0.16204
 C218 C 0.68880 0.58570 0.26273
 C219 C 0.55793 0.48499 0.32881
 C220 C 0.91754 0.51272 0.71028
 H221 H 0.91620 0.53486 0.72106
 C222 C 0.93749 0.50786 0.68554
 H223 H 0.95096 0.52665 0.67710
 C224 C 0.90112 0.46164 0.70819
 H225 H 0.88749 0.44347 0.71758
 C226 C 0.92101 0.45567 0.68359
 H227 H 0.92230 0.43287 0.67428
 N228 N 0.89942 0.48994 0.72069
 C229 C 0.83039 0.54372 0.76969
 H230 H 0.83135 0.53284 0.79199
 C231 C 0.81104 0.56871 0.76518
 H232 H 0.79758 0.57721 0.78438
 C233 C 0.84720 0.54585 0.71781
 H234 H 0.86076 0.53643 0.69921
 C235 C 0.82799 0.57077 0.71221
 H236 H 0.82711 0.58025 0.68926
 Zn237 Zn 0.87338 0.49877 0.75458
 N238 N 0.84833 0.53312 0.74631
 C239 C 0.90170 0.53467 0.80025
 N240 N 0.89898 0.50623 0.78845
 C241 C 0.91613 0.48262 0.79913
 C242 C 0.93647 0.48695 0.82316
 C243 C 0.92200 0.54010 0.82410
 C244 C 0.83002 0.45554 0.73911
 C245 C 0.80989 0.43153 0.74354
 C246 C 0.82342 0.43053 0.79721
 C247 C 0.84377 0.45419 0.79158
 N248 N 0.84693 0.46593 0.76280
 H249 H 0.88871 0.55338 0.79070
 H250 H 0.91394 0.46034 0.78893
 H251 H 0.94936 0.46764 0.83171
 H252 H 0.92426 0.56305 0.83265
 H253 H 0.83252 0.46571 0.71657
 H254 H 0.79762 0.42301 0.72397
 H255 H 0.82084 0.42204 0.82045
 H256 H 0.85658 0.46352 0.81036
 C257 C 0.80965 0.58264 0.73612
 C258 C 0.93942 0.47901 0.67177
 C259 C 0.80625 0.41863 0.77295
 C260 C 0.93974 0.51605 0.83596
 C261 C 0.21119 0.41978 0.01429
 H262 H 0.22361 0.42010 0.03564
 C263 C 0.18681 0.43995 0.00991
 H264 H 0.18025 0.45517 0.02841
 C265 C 0.20477 0.39925 -0.03546
 H266 H 0.21225 0.38390 -0.05340
 C267 C 0.18051 0.41931 -0.04098
 H268 H 0.16969 0.41899 -0.06322
 N269 N 0.21924 0.39946 -0.00795
 C270 C 0.26568 0.32511 0.03991
 H271 H 0.28528 0.32238 0.02481
 C272 C 0.26125 0.30486 0.06429
 H273 H 0.27745 0.28640 0.06733
 C274 C 0.22005 0.35159 0.05279
 H275 H 0.20366 0.36938 0.04798
 C276 C 0.21508 0.33230 0.07785
 H277 H 0.19531 0.33636 0.09242
 Zn278 Zn 0.25270 0.37288 -0.00023
 N279 N 0.24522 0.34790 0.03460
 C280 C 0.30207 0.39743 0.03335
 N281 N 0.28705 0.39758 0.00617
 C282 C 0.29528 0.41656 -0.01710
 C283 C 0.31985 0.43612 -0.01375
 C284 C 0.32660 0.41693 0.03783
 C285 C 0.23693 0.32817 -0.04302
 C286 C 0.24123 0.30822 -0.06766
 C287 C 0.29324 0.32530 -0.07233
 C288 C 0.28781 0.34520 -0.04789
 N289 N 0.25988 0.34658 -0.03404
 H290 H 0.29474 0.38259 0.05177
 H291 H 0.28272 0.41638 -0.03837
 H292 H 0.32632 0.45053 -0.03289
 H293 H 0.33776 0.41697 0.05990
 H294 H 0.21512 0.32928 -0.03120
 H295 H 0.22230 0.29450 -0.07498
 H296 H 0.31582 0.32425 -0.08260
 H297 H 0.30613 0.35915 -0.03970
 C298 C 0.23568 0.30829 0.08384
 C299 C 0.17098 0.43988 -0.01803
 C300 C 0.26971 0.30660 -0.08276
 C301 C 0.33581 0.43669 0.01409
 C302 C 0.70333 0.08008 -0.01493
 H303 H 0.71407 0.08191 -0.03735
 C304 C 0.67888 0.06043 -0.01053
 H305 H 0.67062 0.04769 -0.02994
 C306 C 0.70106 0.09497 0.03734
 H307 H 0.71024 0.10793 0.05610
 C308 C 0.67678 0.07531 0.04287
 H309 H 0.66757 0.07346 0.06598
 N310 N 0.71357 0.09723 0.00870
 C311 C 0.76297 0.16596 -0.04352
 H312 H 0.78512 0.16374 -0.03297
 C313 C 0.75873 0.18636 -0.06775
 H314 H 0.77800 0.19930 -0.07607
 C315 C 0.71118 0.15137 -0.04543
 H316 H 0.69253 0.13826 -0.03614
 C317 C 0.70584 0.17174 -0.06952
 H318 H 0.68300 0.17395 -0.07852
 Zn319 Zn 0.74729 0.12267 0.00058
 N320 N 0.73948 0.14867 -0.03317
 C321 C 0.79274 0.09414 -0.03689
 N322 N 0.78111 0.09682 -0.00791
 C323 C 0.79238 0.07991 0.01564
 C324 C 0.81719 0.06030 0.01083
 C325 C 0.81722 0.07436 -0.04287
 C326 C 0.73169 0.16578 0.04529
 C327 C 0.73615 0.18597 0.06950
 C328 C 0.78923 0.17074 0.07026
 C329 C 0.78366 0.15061 0.04622
 N330 N 0.75516 0.14825 0.03449
 H331 H 0.78271 0.10690 -0.05554
 H332 H 0.78228 0.08201 0.03835
 H333 H 0.82638 0.04798 0.03026
 H334 H 0.82565 0.07218 -0.06624
 H335 H 0.70939 0.16396 0.03508
 H336 H 0.71692 0.19911 0.07818
 H337 H 0.81222 0.17267 0.07881
 H338 H 0.80233 0.13747 0.03649
 C339 C 0.72982 0.18955 -0.08109
 C340 C 0.66522 0.05777 0.01872
 C341 C 0.76528 0.18873 0.08232
 C342 C 0.83003 0.05724 -0.01879
 C343 C 0.20201 0.57955 0.48431
 H344 H 0.21302 0.58138 0.46201
 C345 C 0.17762 0.55979 0.48846
 H346 H 0.16965 0.54695 0.46898
 C347 C 0.19906 0.59452 0.53654
 H348 H 0.20796 0.60753 0.55539
 C349 C 0.17483 0.57477 0.54182
 H350 H 0.16537 0.57292 0.56482
 N351 N 0.21186 0.59681 0.50803
 C352 C 0.26120 0.66666 0.45724
 H353 H 0.28312 0.66489 0.46832
 C354 C 0.25712 0.68693 0.43288
 H355 H 0.27631 0.70025 0.42501
 C356 C 0.20984 0.65093 0.45402
 H357 H 0.19127 0.63738 0.46280
 C358 C 0.20465 0.67116 0.42979
 H359 H 0.18202 0.67285 0.42020
 Zn360 Zn 0.24550 0.62241 0.50051
 N361 N 0.23789 0.64879 0.46696
 C362 C 0.29240 0.59540 0.46363
 N363 N 0.27942 0.59668 0.49213
 C364 C 0.28935 0.57839 0.51526
 C365 C 0.31406 0.55861 0.51054
 C366 C 0.31695 0.57569 0.45779
 C367 C 0.22937 0.66519 0.54521
 C368 C 0.23329 0.68468 0.57010
 C369 C 0.28589 0.66809 0.57276
 C370 C 0.28086 0.64866 0.54800
 N371 N 0.25285 0.64737 0.53497
 H372 H 0.28343 0.60925 0.44522
 H373 H 0.27821 0.57944 0.53755
 H374 H 0.32212 0.54498 0.52960
 H375 H 0.32660 0.57471 0.43480
 H376 H 0.20746 0.66409 0.53408
 H377 H 0.21403 0.69809 0.57827
 H378 H 0.30853 0.66923 0.58234
 H379 H 0.29954 0.63516 0.53884
 C380 C 0.22853 0.68943 0.41875
 C381 C 0.16364 0.55717 0.51755
 C382 C 0.26190 0.68642 0.58420
 C383 C 0.32828 0.55708 0.48147
 C384 C 0.71487 0.92263 0.51362
 H385 H 0.72732 0.92356 0.53493
 C386 C 0.69046 0.94262 0.50873
 H387 H 0.68388 0.95807 0.52700
 C388 C 0.70833 0.90062 0.46456
 H389 H 0.71566 0.88445 0.44725
 C390 C 0.68430 0.92077 0.45834
 H391 H 0.67369 0.91986 0.43603
 N392 N 0.72284 0.90168 0.49199
 C393 C 0.76899 0.82808 0.54104
 H394 H 0.78835 0.82466 0.52577
 C395 C 0.76446 0.80845 0.56593
 H396 H 0.78032 0.78973 0.56915
 C397 C 0.72404 0.85570 0.55391
 H398 H 0.70792 0.87369 0.54894
 C399 C 0.71904 0.83711 0.57948
 H400 H 0.69956 0.84193 0.59420
 Zn401 Zn 0.75635 0.87546 0.50015
 N402 N 0.74888 0.85113 0.53547
 C403 C 0.80493 0.90045 0.53403
 N404 N 0.79051 0.90044 0.50652
 C405 C 0.79895 0.91967 0.48355
 C406 C 0.82347 0.93921 0.48734
 C407 C 0.82910 0.92020 0.53912
 C408 C 0.74234 0.82639 0.46239
 C409 C 0.74626 0.80517 0.43878
 C410 C 0.79280 0.83036 0.42391
 C411 C 0.78835 0.85062 0.44824
 N412 N 0.76320 0.84859 0.46665
 H413 H 0.79729 0.88562 0.55232
 H414 H 0.78662 0.91972 0.46213
 H415 H 0.83026 0.95347 0.46823
 H416 H 0.83949 0.92040 0.56155
 H417 H 0.72277 0.82496 0.47766
 H418 H 0.72970 0.78729 0.43650
 H419 H 0.81250 0.83325 0.40905
 H420 H 0.80508 0.86792 0.45225
 C421 C 0.73921 0.81282 0.58572
 C422 C 0.67471 0.94201 0.48072
 C423 C 0.77170 0.80705 0.41890
 C424 C 0.83885 0.93994 0.51555
 C425 C 0.01071 0.20958 0.41830
 H426 H 0.03309 0.21954 0.41611
 C427 C 0.00580 0.18606 0.43929
 H428 H 0.02478 0.17764 0.45268
 C429 C -0.04095 0.20843 0.40305
 H430 H -0.05932 0.21777 0.38951
 C431 C -0.04696 0.18504 0.42396
 H432 H -0.06996 0.17652 0.42606
 N433 N -0.01235 0.21984 0.40026
 C434 C 0.04154 0.26562 0.32961
 H435 H 0.03112 0.28801 0.33075
 C436 C 0.06621 0.26027 0.30976
 H437 H 0.07498 0.27893 0.29615
 C438 C 0.04276 0.21435 0.34645
 H439 H 0.03307 0.19635 0.36024
 C440 C 0.06731 0.20792 0.32670
 H441 H 0.07630 0.18491 0.32565
 Zn442 Zn -0.00352 0.25231 0.37309
 N443 N 0.03063 0.24293 0.34777
 C444 C 0.03299 0.29717 0.40137
 N445 N 0.00425 0.28645 0.39803
 C446 C -0.01962 0.29844 0.41427
 C447 C -0.01526 0.32279 0.43421
 C448 C 0.03848 0.32120 0.42147
 C449 C -0.04795 0.23633 0.33063
 C450 C -0.07213 0.24070 0.31044
 C451 C -0.07109 0.29445 0.32163
 C452 C -0.04729 0.28895 0.34206
 N453 N -0.03654 0.26017 0.34649
 H454 H 0.05184 0.28658 0.38912
 H455 H -0.04215 0.28906 0.41164
 H456 H -0.03482 0.33241 0.44622
 H457 H 0.06167 0.32878 0.42435
 H458 H -0.03847 0.21377 0.33402
 H459 H -0.08150 0.22111 0.29904
 H460 H -0.07881 0.31764 0.31807
 H461 H -0.03705 0.30779 0.35390
 C462 C 0.07947 0.23107 0.30806
 C463 C -0.02335 0.17336 0.44230
 C464 C -0.08411 0.27010 0.30566
 C465 C 0.01417 0.33443 0.43823
 C466 C -0.01232 0.70599 0.07999
 H467 H -0.03488 0.71596 0.08241
 C468 C -0.00749 0.68155 0.06008
 H469 H -0.02678 0.67249 0.04796
 C470 C 0.03978 0.70558 0.09372
 H471 H 0.05825 0.71545 0.10642
 C472 C 0.04581 0.68153 0.07352
 H473 H 0.06904 0.67329 0.07096
 N474 N 0.01099 0.71702 0.09684
 C475 C -0.04230 0.76478 0.16724
 H476 H -0.03202 0.78699 0.16571
 C477 C -0.06683 0.76003 0.18732
 H478 H -0.07559 0.77893 0.20077
 C479 C -0.04336 0.71336 0.15120
 H480 H -0.03364 0.69501 0.13772
 C481 C -0.06781 0.70754 0.17113
 H482 H -0.07669 0.68470 0.17258
 Zn483 Zn 0.00217 0.75034 0.12305
 N484 N -0.03145 0.74175 0.14927
 C485 C -0.03512 0.79607 0.09544
 N486 N -0.00652 0.78398 0.09728
 C487 C 0.01666 0.79457 0.07938
 C488 C 0.01180 0.81894 0.05936
 C489 C -0.04108 0.82027 0.07545
 C490 C 0.04650 0.73531 0.16622
 C491 C 0.07044 0.74000 0.18649
 C492 C 0.07087 0.79289 0.17139
 C493 C 0.04709 0.78710 0.15117
 N494 N 0.03560 0.75860 0.14878
 H495 H -0.05350 0.78662 0.10899
 H496 H 0.03906 0.78416 0.08089
 H497 H 0.03086 0.82749 0.04603
 H498 H -0.06413 0.82918 0.07397
 H499 H 0.03659 0.71298 0.16426
 H500 H 0.07918 0.72090 0.19957
 H501 H 0.07923 0.81587 0.17338
 H502 H 0.03740 0.80557 0.13794
 C503 C -0.08000 0.73109 0.18943
 C504 C 0.02194 0.66891 0.05650
 C505 C 0.08293 0.76915 0.18941
 C506 C -0.01741 0.83217 0.05714
 C507 C 0.49196 0.21060 0.57601
 H508 H 0.47181 0.22483 0.57383
 C509 C 0.49674 0.18629 0.55590
 H510 H 0.48026 0.18248 0.53802
 C511 C 0.53840 0.19965 0.60120
 H512 H 0.55487 0.20516 0.61852
 C513 C 0.54377 0.17466 0.58201
 H514 H 0.56399 0.16086 0.58561
 N515 N 0.51255 0.21673 0.59821
 C516 C 0.45776 0.26501 0.66670
 H517 H 0.46788 0.28732 0.66538
 C518 C 0.43310 0.25996 0.68650
 H519 H 0.42402 0.27890 0.69967
 C520 C 0.45725 0.21370 0.65029
 H521 H 0.46711 0.19565 0.63646
 C522 C 0.43302 0.20744 0.67037
 H523 H 0.42472 0.18439 0.67179
 Zn524 Zn 0.50331 0.25057 0.62366
 N525 N 0.46901 0.24215 0.64878
 C526 C 0.46655 0.29617 0.59546
 N527 N 0.49512 0.28401 0.59731
 C528 C 0.51827 0.29445 0.57927
 C529 C 0.51344 0.31888 0.55929
 C530 C 0.46062 0.32042 0.57556
 C531 C 0.54460 0.23709 0.67045
 C532 C 0.56806 0.24216 0.69118
 C533 C 0.57193 0.29352 0.67187
 C534 C 0.54864 0.28731 0.65121
 N535 N 0.53581 0.25929 0.65053
 H536 H 0.44812 0.28679 0.60899
 H537 H 0.54063 0.28394 0.58069
 H538 H 0.53247 0.32737 0.54587
 H539 H 0.43760 0.32939 0.57415
 H540 H 0.53343 0.21527 0.67008
 H541 H 0.57526 0.22375 0.70607
 H542 H 0.58142 0.31613 0.67231
 H543 H 0.54051 0.30512 0.63617
 C544 C 0.42046 0.23076 0.68884
 C545 C 0.52278 0.16760 0.55890
 C546 C 0.58214 0.27071 0.69211
 C547 C 0.48429 0.33231 0.55727
 C548 C 0.50914 0.71219 0.92203
 H549 H 0.52997 0.72503 0.92359
 C550 C 0.50404 0.68785 0.94198
 H551 H 0.52154 0.68174 0.95829
 C552 C 0.46147 0.70456 0.89832
 H553 H 0.44477 0.71141 0.88152
 C554 C 0.45521 0.68031 0.91814
 H555 H 0.43355 0.66892 0.91638
 N556 N 0.48824 0.71971 0.90038
 C557 C 0.53686 0.76499 0.82585
 H558 H 0.52168 0.78426 0.82254
 C559 C 0.56143 0.76025 0.80570
 H560 H 0.56453 0.77586 0.78670
 C561 C 0.54983 0.72054 0.85380
 H562 H 0.54506 0.70480 0.87224
 C563 C 0.57509 0.71531 0.83464
 H564 H 0.58979 0.69598 0.83938
 Zn565 Zn 0.49672 0.75321 0.87443
 N566 N 0.53151 0.74527 0.84933
 C567 C 0.53167 0.80043 0.90016
 N568 N 0.50389 0.78701 0.90017
 C569 C 0.48141 0.79610 0.91995
 C570 C 0.48604 0.82032 0.93999
 C571 C 0.53758 0.82421 0.92042
 C572 C 0.45900 0.74005 0.82509
 C573 C 0.43543 0.74419 0.80412
 C574 C 0.42116 0.79059 0.83041
 C575 C 0.44542 0.78588 0.85046
 N576 N 0.46349 0.76068 0.84778
 H577 H 0.54955 0.79227 0.88490
 H578 H 0.45976 0.78453 0.92007
 H579 H 0.46730 0.82768 0.95464
 H580 H 0.56021 0.83375 0.92054
 H581 H 0.47401 0.72044 0.82315
 H582 H 0.43290 0.72776 0.78587
 H583 H 0.40657 0.81032 0.83377
 H584 H 0.44961 0.80243 0.86814
 C585 C 0.58119 0.73520 0.81001
 C586 C 0.47674 0.67147 0.94026
 C587 C 0.41587 0.76965 0.80669
 C588 C 0.51455 0.83470 0.94069
 C589 C 0.15445 0.19964 0.27627
 C590 C 0.15664 0.21446 0.24768
 C591 C 0.13292 0.23423 0.23878
 C592 C 0.10774 0.23927 0.25814
 C593 C 0.10578 0.22489 0.28701
 C594 C 0.12940 0.20490 0.29575
 H595 H 0.17241 0.18441 0.28392
 H596 H 0.13374 0.24581 0.21680
 H597 H 0.08970 0.25432 0.25037
 H598 H 0.12890 0.19378 0.31797
 C599 C 0.64385 0.69530 0.76345
 C600 C 0.65863 0.71993 0.74944
 C601 C 0.64784 0.74954 0.75526
 C602 C 0.62301 0.75449 0.77507
 C603 C 0.60786 0.72988 0.78900
 C604 C 0.61854 0.70018 0.78270
 H605 H 0.65157 0.67221 0.75912
 H606 H 0.65905 0.76897 0.74502
 H607 H 0.61609 0.77772 0.77981
 H608 H 0.60718 0.68055 0.79230
 C609 C 0.35576 0.80825 0.75707
 C610 C 0.34079 0.78326 0.74439
 C611 C 0.35082 0.75377 0.75187
 C612 C 0.37499 0.74934 0.77214
 C613 C 0.39018 0.77433 0.78489
 C614 C 0.38038 0.80386 0.77678
 H615 H 0.34868 0.83125 0.75142
 H616 H 0.33947 0.73409 0.74263
 H617 H 0.38132 0.72627 0.77823
 H618 H 0.39186 0.82371 0.78539
 C619 C -0.15613 0.30309 0.27009
 C620 C -0.15967 0.28468 0.24392
 C621 C -0.13781 0.26163 0.23814
 C622 C -0.11317 0.25723 0.25783
 C623 C -0.10995 0.27531 0.28422
 C624 C -0.13182 0.29826 0.29007
 H625 H -0.17244 0.32098 0.27562
 H626 H -0.13939 0.24708 0.21817
 H627 H -0.09648 0.23979 0.25210
 H628 H -0.13052 0.31227 0.31043
 C629 C -0.13241 0.73485 0.25942
 C630 C -0.15620 0.71552 0.25091
 C631 C -0.15458 0.70107 0.22214
 C632 C -0.12989 0.70608 0.20223
 C633 C -0.10614 0.72550 0.21070
 C634 C -0.10765 0.73970 0.23961
 H635 H -0.13279 0.74616 0.28151
 H636 H -0.17258 0.68617 0.21478
 H637 H -0.12967 0.69512 0.17997
 H638 H -0.08951 0.75434 0.24713
 C639 C 0.36703 0.23618 0.75817
 C640 C 0.34501 0.21412 0.75155
 C641 C 0.34842 0.19718 0.72424
 C642 C 0.37266 0.20267 0.70390
 C643 C 0.39464 0.22471 0.71057
 C644 C 0.39164 0.24110 0.73820
 H645 H 0.36562 0.24953 0.77905
 H646 H 0.33198 0.18009 0.71807
 H647 H 0.37375 0.18993 0.68266
 H648 H 0.40846 0.25764 0.74472
 C649 C 0.65528 0.30093 0.72636
 C650 C 0.65545 0.28685 0.75538
 C651 C 0.63112 0.26790 0.76369
 C652 C 0.60718 0.26304 0.74340
 C653 C 0.60720 0.27665 0.71409
 C654 C 0.63155 0.29573 0.70588
 H655 H 0.67382 0.31547 0.71919
 H656 H 0.63043 0.25696 0.78601
 H657 H 0.58854 0.24878 0.75084
 H658 H 0.63264 0.30620 0.68337
 C659 C 0.15506 0.80049 0.22474
 C660 C 0.15617 0.78480 0.25290
 C661 C 0.13285 0.76424 0.26016
 C662 C 0.10902 0.75941 0.23974
 C663 C 0.10807 0.77477 0.21136
 C664 C 0.13137 0.79543 0.20416
 H665 H 0.17276 0.81635 0.21835
 H666 H 0.13284 0.75198 0.28177
 H667 H 0.09116 0.74384 0.24638
 H668 H 0.13163 0.80733 0.18235
 C669 C 0.24238 0.13399 0.24191
 C670 C 0.25097 0.15774 0.22206
 C671 C 0.27990 0.15646 0.20785
 C672 C 0.29974 0.13197 0.21337
 C673 C 0.29103 0.10805 0.23301
 C674 C 0.26208 0.10941 0.24718
 H675 H 0.22017 0.13410 0.25303
 H676 H 0.28730 0.17446 0.19257
 H677 H 0.32204 0.13194 0.20245
 H678 H 0.25432 0.09116 0.26197
 C679 C 0.77869 0.65806 0.70621
 C680 C 0.74996 0.65984 0.72079
 C681 C 0.74098 0.63600 0.74034
 C682 C 0.76023 0.61095 0.74515
 C683 C 0.78905 0.60921 0.73074
 C684 C 0.79804 0.63310 0.71121
 H685 H 0.78641 0.67611 0.69115
 H686 H 0.71891 0.63651 0.75175
 H687 H 0.75232 0.59273 0.75989
 H688 H 0.82025 0.63275 0.70012
 C689 C 0.77088 0.34637 0.80507
 C690 C 0.74425 0.34379 0.78745
 C691 C 0.73810 0.36639 0.76530
 C692 C 0.75787 0.39078 0.76100
 C693 C 0.78473 0.39303 0.77821
 C694 C 0.79095 0.37045 0.80028
 H695 H 0.77669 0.32947 0.82226
 H696 H 0.71778 0.36558 0.75140
 H697 H 0.75181 0.40804 0.74431
 H698 H 0.81164 0.37098 0.81360
 C699 C 0.27079 -0.15523 0.30406
 C700 C 0.24453 -0.15791 0.28590
 C701 C 0.23885 -0.13543 0.26349
 C702 C 0.25867 -0.11100 0.25955
 C703 C 0.28508 -0.10859 0.27742
 C704 C 0.29088 -0.13113 0.29966
 H705 H 0.27628 -0.17203 0.32144
 H706 H 0.21885 -0.13636 0.24915
 H707 H 0.25298 -0.09381 0.24266
 H708 H 0.31126 -0.13052 0.31344
 C709 C 0.26043 -0.13364 0.73320
 C710 C 0.25280 -0.15688 0.71252
 C711 C 0.22520 -0.15413 0.69638
 C712 C 0.20550 -0.12941 0.70146
 C713 C 0.21307 -0.10634 0.72229
 C714 C 0.24102 -0.10862 0.73776
 H715 H 0.28157 -0.13453 0.74586
 H716 H 0.21827 -0.17147 0.68032
 H717 H 0.18401 -0.12879 0.68947
 H718 H 0.24811 -0.09098 0.75335
 C719 C 0.75998 0.36870 0.23181
 C720 C 0.75075 0.34355 0.21451
 C721 C 0.72137 0.34370 0.20196
 C722 C 0.70153 0.36835 0.20688
 C723 C 0.71077 0.39365 0.22407
 C724 C 0.74033 0.39354 0.23634
 H725 H 0.78260 0.36939 0.24153
 H726 H 0.71351 0.32454 0.18872
 H727 H 0.67878 0.36733 0.19755
 H728 H 0.74853 0.41283 0.24914
 C729 C 0.74639 0.64875 0.24923
 C730 C 0.75074 0.65961 0.27916
 C731 C 0.73454 0.64626 0.30359
 C732 C 0.71472 0.62222 0.29829
 C733 C 0.71004 0.61136 0.26830
 C734 C 0.72603 0.62513 0.24380
 H735 H 0.75843 0.65880 0.22993
 H736 H 0.73774 0.65392 0.32698
 H737 H 0.70352 0.61185 0.31789
 H738 H 0.72265 0.61792 0.22033
 C739 C 0.26290 0.13494 0.75872
 C740 C 0.25608 0.15740 0.78086
 C741 C 0.22878 0.15490 0.79800
 C742 C 0.20878 0.13096 0.79285
 C743 C 0.21579 0.10831 0.77102
 C744 C 0.24327 0.11057 0.75419
 H745 H 0.28376 0.13573 0.74520
 H746 H 0.22240 0.17175 0.81509
 H747 H 0.18758 0.13058 0.80579
 H748 H 0.24998 0.09331 0.73771
 C749 C 0.19541 0.26007 0.14436
 C750 C 0.22003 0.24631 0.15957
 C751 C 0.24984 0.25284 0.14977
 C752 C 0.25495 0.27314 0.12550
 C753 C 0.23033 0.28685 0.10997
 C754 C 0.20047 0.27979 0.11964
 H755 H 0.17216 0.25517 0.15123
 H756 H 0.26925 0.24274 0.16130
 H757 H 0.27827 0.27838 0.11930
 H758 H 0.18085 0.28914 0.10791
 C759 C 0.75257 0.75764 0.65207
 C760 C 0.72267 0.75203 0.66220
 C761 C 0.69830 0.76651 0.64727
 C762 C 0.70365 0.78590 0.62238
 C763 C 0.73360 0.79196 0.61227
 C764 C 0.75801 0.77768 0.62764
 H765 H 0.77178 0.74691 0.66337
 H766 H 0.67498 0.76225 0.65438
 H767 H 0.68415 0.79566 0.61079
 H768 H 0.78141 0.78215 0.62110
 C769 C 0.80997 0.75715 0.35797
 C770 C 0.78480 0.74453 0.34322
 C771 C 0.75532 0.75193 0.35382
 C772 C 0.75105 0.77220 0.37824
 C773 C 0.77621 0.78500 0.39314
 C774 C 0.80575 0.77681 0.38288
 H775 H 0.83296 0.75155 0.35043
 H776 H 0.73551 0.74272 0.34262
 H777 H 0.72794 0.77830 0.38490
 H778 H 0.82577 0.78540 0.39415
 C779 C 0.29942 0.27385 -0.15826
 C780 C 0.28515 0.24542 -0.15902
 C781 C 0.26567 0.23724 -0.13460
 C782 C 0.26078 0.25695 -0.10982
 C783 C 0.27493 0.28551 -0.10908
 C784 C 0.29422 0.29373 -0.13371
 H785 H 0.31435 0.28096 -0.17687
 H786 H 0.25452 0.21538 -0.13438
 H787 H 0.24625 0.24957 -0.09104
 H788 H 0.30503 0.31574 -0.13428
 C789 C 0.69968 0.22531 -0.15450
 C790 C 0.71495 0.25325 -0.15523
 C791 C 0.73512 0.26010 -0.13141
 C792 C 0.73980 0.23956 -0.10732
 C793 C 0.72467 0.21151 -0.10664
 C794 C 0.70459 0.20463 -0.13057
 H795 H 0.68415 0.21922 -0.17261
 H796 H 0.74707 0.28153 -0.13114
 H797 H 0.75498 0.24589 -0.08900
 H798 H 0.69295 0.18306 -0.13109
 C799 C 0.23392 0.75953 0.36778
 C800 C 0.21449 0.75209 0.34351
 C801 C 0.19962 0.72394 0.34419
 C802 C 0.20425 0.70361 0.36848
 C803 C 0.22360 0.71106 0.39285
 C804 C 0.23829 0.73935 0.39223
 H805 H 0.24552 0.78115 0.36811
 H806 H 0.18466 0.71743 0.32574
 H807 H 0.19297 0.68184 0.36790
 H808 H 0.25288 0.74614 0.41086
 C809 C 0.29177 0.72027 0.65825
 C810 C 0.27728 0.74894 0.65871
 C811 C 0.25729 0.75664 0.63482
 C812 C 0.25227 0.73637 0.61078
 C813 C 0.26686 0.70773 0.61017
 C814 C 0.28650 0.69985 0.63434
 H815 H 0.30715 0.71355 0.67642
 H816 H 0.24596 0.77863 0.63431
 H817 H 0.23745 0.74347 0.59231
 H818 H 0.29770 0.67780 0.63491
 C819 C 0.79658 0.22383 0.15511
 C820 C 0.78104 0.25194 0.15618
 C821 C 0.76032 0.25913 0.13278
 C822 C 0.75534 0.23874 0.10880
 C823 C 0.77072 0.21051 0.10779
 C824 C 0.79137 0.20331 0.13129
 H825 H 0.81254 0.21747 0.17290
 H826 H 0.74815 0.28069 0.13277
 H827 H 0.73973 0.24534 0.09080
 H828 H 0.80324 0.18159 0.13156
 C829 C 0.48818 0.38467 0.48772
 C830 C 0.46747 0.40793 0.49602
 C831 C 0.45235 0.40616 0.52460
 C832 C 0.45794 0.38178 0.54449
 C833 C 0.47852 0.35838 0.53615
 C834 C 0.49351 0.36012 0.50747
 H835 H 0.50003 0.38521 0.46577
 H836 H 0.43644 0.42382 0.53180
 H837 H 0.44640 0.38151 0.56660
 H838 H 0.50908 0.34227 0.50001
 C839 C -0.04901 0.90595 0.02395
 C840 C -0.03341 0.90777 -0.00437
 C841 C -0.01276 0.88442 -0.01247
 C842 C -0.00782 0.85980 0.00729
 C843 C -0.02314 0.85810 0.03582
 C844 C -0.04381 0.88151 0.04387
 H845 H -0.06492 0.92368 0.03099
 H846 H -0.00057 0.88500 -0.03424
 H847 H 0.00779 0.84192 0.00001
 H848 H -0.05563 0.88126 0.06584
 C849 C 0.05508 0.59610 0.02188
 C850 C 0.03719 0.59241 -0.00453
 C851 C 0.01468 0.61457 -0.01092
 C852 C 0.01023 0.63955 0.00845
 C853 C 0.02760 0.64284 0.03522
 C854 C 0.05011 0.62075 0.04162
 H855 H 0.07257 0.57960 0.02784
 H856 H 0.00059 0.61293 -0.03114
 H857 H -0.00677 0.65641 0.00218
 H858 H 0.06360 0.62208 0.06225
 C859 C 0.56219 0.10617 0.51067
 C860 C 0.53724 0.09047 0.49880
 C861 C 0.50761 0.10013 0.50678
 C862 C 0.50298 0.12482 0.52649
 C863 C 0.52787 0.14097 0.53816
 C864 C 0.55757 0.13135 0.52983
 H865 H 0.58529 0.09932 0.50467
 H866 H 0.48796 0.08819 0.49826
 H867 H 0.47979 0.13089 0.53289
 H868 H 0.57734 0.14346 0.53773
 C869 C -0.01813 0.12190 0.51240
 C870 C -0.03754 0.09803 0.50440
 C871 C -0.05310 0.09967 0.47635
 C872 C -0.04875 0.12423 0.45641
 C873 C -0.02894 0.14789 0.46414
 C874 C -0.01399 0.14660 0.49257
 H875 H -0.00599 0.12147 0.53395
 H876 H -0.06809 0.08159 0.46937
 H877 H -0.06030 0.12422 0.43454
 H878 H 0.00094 0.16472 0.49956
 C879 C 0.47788 0.62018 1.01072
 C880 C 0.46210 0.59460 1.00038
 C881 C 0.45029 0.59479 0.97050
 C882 C 0.45486 0.61974 0.95108
 C883 C 0.47096 0.64529 0.96125
 C884 C 0.48203 0.64531 0.99149
 H885 H 0.48696 0.62084 1.03376
 H886 H 0.43822 0.57531 0.96181
 H887 H 0.44641 0.61863 0.92783
 H888 H 0.49387 0.66481 1.00044
 C889 C 0.51000 0.88544 1.01151
 C890 C 0.53119 0.90830 1.00435
 C891 C 0.54692 0.90661 0.97599
 C892 C 0.54124 0.88311 0.95529
 C893 C 0.52032 0.86008 0.96261
 C894 C 0.50500 0.86151 0.99118
 H895 H 0.49758 0.88557 1.03317
 H896 H 0.56324 0.92380 0.96934
 H897 H 0.55305 0.88337 0.93333
 H898 H 0.48934 0.84391 0.99821
 C899 C 0.00690 0.38635 0.50780
 C900 C 0.02960 0.40808 0.50187
 C901 C 0.04718 0.40523 0.47469
 C902 C 0.04201 0.38159 0.45403
 C903 C 0.01949 0.35981 0.46011
 C904 C 0.00212 0.36245 0.48736
 H905 H -0.00705 0.38744 0.52848
 H906 H 0.06477 0.42147 0.46901
 H907 H 0.05548 0.38067 0.43305
 H908 H -0.01498 0.34578 0.49323
 C909 C 0.40356 0.52526 0.45089
 C910 C 0.40522 0.49683 0.46562
 C911 C 0.38134 0.48825 0.48549
 C912 C 0.35630 0.50763 0.49042
 C913 C 0.35471 0.53621 0.47590
 C914 C 0.37870 0.54478 0.45610
 H915 H 0.42169 0.53267 0.43563
 H916 H 0.38182 0.46639 0.49700
 H917 H 0.33801 0.50000 0.50536
 H918 H 0.37856 0.56682 0.44496
 C919 C 0.88480 -0.01010 -0.01232
 C920 C 0.90716 -0.00323 -0.03471
 C921 C 0.90361 0.02367 -0.05203
 C922 C 0.87878 0.04326 -0.04678
 C923 C 0.85645 0.03629 -0.02449
 C924 C 0.85971 0.00921 -0.00752
 H925 H 0.88636 -0.03065 0.00138
 H926 H 0.92027 0.03003 -0.06938
 H927 H 0.87744 0.06415 -0.05992
 H928 H 0.84268 0.00263 0.00933
 C929 C 0.61370 -0.01099 0.01323
 C930 C 0.59022 -0.00352 0.03420
 C931 C 0.59152 0.02427 0.05000
 C932 C 0.61568 0.04420 0.04485
 C933 C 0.63933 0.03666 0.02404
 C934 C 0.63804 0.00875 0.00836
 H935 H 0.61353 -0.03235 0.00089
 H936 H 0.57367 0.03081 0.06615
 H937 H 0.61558 0.06570 0.05692
 H938 H 0.65610 0.00188 -0.00738
 C939 C 0.11239 0.48828 0.51185
 C940 C 0.08861 0.49593 0.53240
 C941 C 0.08961 0.52385 0.54797
 C942 C 0.11379 0.54376 0.54300
 C943 C 0.13775 0.53607 0.52262
 C944 C 0.13676 0.50803 0.50716
 H945 H 0.11242 0.46682 0.49969
 H946 H 0.07151 0.53053 0.56377
 H947 H 0.11348 0.56537 0.55488
 H948 H 0.15506 0.50107 0.49175
 C949 C 0.12012 0.51047 -0.01524
 C950 C 0.09517 0.50156 -0.03297
 C951 C 0.09533 0.47229 -0.04585
 C952 C 0.11978 0.45228 -0.04089
 C953 C 0.14488 0.46119 -0.02326
 C954 C 0.14476 0.49062 -0.01062
 H955 H 0.12084 0.53298 -0.00524
 H956 H 0.07634 0.46466 -0.05944
 H957 H 0.11876 0.42964 -0.05052
 H958 H 0.16390 0.49855 0.00254
 C959 C 0.59941 0.97411 0.45118
 C960 C 0.59740 1.00247 0.46613
 C961 C 0.62161 1.01110 0.48514
 C962 C 0.64690 0.99194 0.48917
 C963 C 0.64843 0.96317 0.47506
 C964 C 0.62431 0.95461 0.45594
 H965 H 0.58130 0.96639 0.43647
 H966 H 0.62130 1.03286 0.49677
 H967 H 0.66529 0.99992 0.50331
 H968 H 0.62415 0.93250 0.44510
 C969 C 0.91165 0.97498 0.54593
 C970 C 0.91217 1.00328 0.53069
 C971 C 0.88851 1.01023 0.51009
 C972 C 0.86478 0.98990 0.50545
 C973 C 0.86433 0.96157 0.52054
 C974 C 0.88829 0.95431 0.54063
 H975 H 0.92951 0.96850 0.56174
 H976 H 0.88775 1.03180 0.49803
 H977 H 0.84648 0.99681 0.49040
 H978 H 0.88926 0.93250 0.55216
 C979 C 0.38448 0.50760 0.00932
 C980 C 0.40970 0.49939 0.02729
 C981 C 0.41066 0.47027 0.04064
 C982 C 0.38690 0.44983 0.03614
 C983 C 0.36145 0.45815 0.01845
 C984 C 0.36058 0.48733 0.00512
 H985 H 0.38288 0.52997 -0.00105
 H986 H 0.42987 0.46316 0.05446
 H987 H 0.38864 0.42740 0.04632
 H988 H 0.34113 0.49481 -0.00813
 C989 C 0.48703 0.48584 0.37992
 C990 C 0.49665 0.46847 0.40523
 C991 C 0.52651 0.45661 0.40531
 C992 C 0.54641 0.46220 0.38071
 C993 C 0.53678 0.47936 0.35518
 C994 C 0.50677 0.49102 0.35508
 H995 H 0.46405 0.49506 0.37909
 H996 H 0.53467 0.44339 0.42463
 H997 H 0.56950 0.45337 0.38195
 H998 H 0.49830 0.50380 0.33561
 C999 C 0.02721 -0.04528 0.90550
 C1000 C -0.00123 -0.03025 0.90676
 C1001 C -0.00882 -0.00974 0.88317
 C1002 C 0.01142 -0.00460 0.85872
 C1003 C 0.03990 -0.01961 0.85742
 C1004 C 0.04758 -0.03990 0.88122
 H1005 H 0.03388 -0.06104 0.92343
 H1006 H -0.03063 0.00205 0.88332
 H1007 H 0.00448 0.01076 0.84055
 H1008 H 0.06951 -0.05145 0.88130
 C1009 C 0.00773 0.00571 0.59918
 C1010 C -0.00082 0.03531 0.59049
 C1011 C 0.01122 0.06008 0.60641
 C1012 C 0.03111 0.05535 0.63088
 C1013 C 0.04006 0.02571 0.63954
 C1014 C 0.02822 0.00096 0.62316
 H1015 H -0.00103 -0.01379 0.58706
 H1016 H 0.00472 0.08315 0.60036
 H1017 H 0.03902 0.07501 0.64326
 H1018 H 0.03501 -0.02215 0.62853
 C1019 C 0.50371 0.50321 0.09856
 C1020 C 0.49804 0.53260 0.08717
 C1021 C 0.51325 0.55727 0.10026
 C1022 C 0.53343 0.55270 0.12453
 C1023 C 0.53929 0.52327 0.13595
 C1024 C 0.52430 0.49856 0.12246
 H1025 H 0.49257 0.48372 0.08869
 H1026 H 0.50914 0.58023 0.09212
 H1027 H 0.54399 0.57237 0.13466
 H1028 H 0.52867 0.47551 0.13012
 C1029 C 0.47466 -0.05159 0.09929
 C1030 C 0.50284 -0.03671 0.09751
 C1031 C 0.51115 -0.01742 0.12165
 C1032 C 0.49169 -0.01301 0.14694
 C1033 C 0.46327 -0.02750 0.14855
 C1034 C 0.45505 -0.04690 0.12441
 H1035 H 0.46746 -0.06643 0.08098
 H1036 H 0.53281 -0.00582 0.12111
 H1037 H 0.49907 0.00161 0.16535
 H1038 H 0.43316 -0.05804 0.12456
 C1039 C 0.97194 0.44894 0.59624
 C1040 C 1.00018 0.46368 0.59447
 C1041 C 1.00852 0.48305 0.61854
 C1042 C 0.98902 0.48770 0.64373
 C1043 C 0.96054 0.47335 0.64533
 C1044 C 0.95228 0.45384 0.62130
 H1045 H 0.96475 0.43401 0.57799
 H1046 H 1.03024 0.49454 0.61804
 H1047 H 0.99644 0.50236 0.66209
 H1048 H 0.93035 0.44277 0.62151
 C1049 C 0.97568 0.54768 0.90814
 C1050 C 1.00367 0.53183 0.90896
 C1051 C 1.01046 0.51066 0.88566
 C1052 C 0.98982 0.50561 0.86197
 C1053 C 0.96174 0.52138 0.86118
 C1054 C 0.95492 0.54241 0.88465
 H1055 H 0.96961 0.56397 0.92587
 H1056 H 1.03190 0.49821 0.88549
 H1057 H 0.99612 0.48966 0.84402
 H1058 H 0.93332 0.55457 0.88512
 C1059 C 0.50871 0.00489 0.39107
 C1060 C 0.50173 0.02559 0.41475
 C1061 C 0.47335 0.04075 0.41454
 C1062 C 0.45263 0.03568 0.39094
 C1063 C 0.45988 0.01550 0.36685
 C1064 C 0.48811 0.00000 0.36734
 H1065 H 0.53045 -0.00704 0.39041
 H1066 H 0.46713 0.05668 0.43255
 H1067 H 0.43088 0.04755 0.39162
 H1068 H 0.49468 -0.01534 0.34895
   
