data_POSCAR
  _audit_creation_date              2014-09-24
  _audit_creation_method            'ToBaCCo'
  _symmetry_space_group_name_H-M    'P1'
  _symmetry_Int_Tables_number       1
  _symmetry_cell_setting            triclinic
  loop_
  _symmetry_equiv_pos_as_xyz
 x,y,z
_cell_length_a 38.7552
_cell_length_b 39.0281
_cell_length_c 40.4869
_cell_angle_alpha 89.921500
_cell_angle_beta 89.991000
_cell_angle_gamma 89.671900
loop_
  _atom_site_label
  _atom_site_type_symbol
  _atom_site_fract_x
  _atom_site_fract_y
  _atom_site_fract_z
O1 O 0.39750 0.35305 -0.02281
 O2 O 0.34167 0.39226 0.04036
 O3 O 0.39445 0.35154 0.04127
 O4 O 0.34913 0.39888 -0.02290
 O5 O 0.31021 0.35801 -0.02704
 O6 O 0.35894 0.30779 0.03617
 O7 O 0.30526 0.34918 0.03610
 O8 O 0.36027 0.31094 -0.02893
 Cu9 Cu 0.37435 0.37800 0.00947
 Cu10 Cu 0.33013 0.32702 0.00336
 C11 C 0.38842 0.32537 -0.03671
 C12 C 0.31383 0.37753 0.04890
 C13 C 0.38496 0.32185 0.04970
 C14 C 0.32152 0.38745 -0.03525
 O15 O 0.62127 0.66723 -0.03864
 O16 O 0.66732 0.62217 0.02811
 O17 O 0.61488 0.66153 0.02450
 O18 O 0.67042 0.62096 -0.03616
 O19 O 0.70858 0.66239 -0.03206
 O20 O 0.65099 0.70487 0.02933
 O21 O 0.70461 0.66460 0.03177
 O22 O 0.65840 0.70970 -0.03517
 Cu23 Cu 0.64004 0.63869 -0.00634
 Cu24 Cu 0.68423 0.68989 -0.00160
 C25 C 0.63152 0.69668 -0.04771
 C26 C 0.69339 0.63595 0.04173
 C27 C 0.62336 0.68955 0.03771
 C28 C 0.69938 0.63360 -0.04383
 O29 O 0.65984 0.38470 0.98460
 O30 O 0.62141 0.32596 1.04421
 O31 O 0.67061 0.37072 1.04652
 O32 O 0.61181 0.33955 0.98257
 O33 O 0.64933 0.29908 0.96908
 O34 O 0.70948 0.33190 1.03244
 O35 O 0.65930 0.28577 1.03123
 O36 O 0.69826 0.34538 0.97031
 Cu37 Cu 0.63725 0.35920 1.01600
 Cu38 Cu 0.68305 0.31148 0.99952
 C39 C 0.68536 0.37528 0.96722
 C40 C 0.63307 0.29571 1.04756
 C41 C 0.70033 0.35728 1.05007
 C42 C 0.62027 0.31384 0.96520
 O43 O 0.36779 0.68305 1.04061
 O44 O 0.33533 0.61544 0.98601
 O45 O 0.38099 0.66264 0.98101
 O46 O 0.32472 0.63245 1.04691
 O47 O 0.28232 0.66567 1.02929
 O48 O 0.34076 0.69899 0.96410
 O49 O 0.29444 0.65055 0.96819
 O50 O 0.32606 0.71785 1.02427
 Cu51 Cu 0.35627 0.64506 1.01557
 Cu52 Cu 0.30673 0.68696 0.99493
 C53 C 0.35287 0.71214 1.04142
 C54 C 0.30933 0.62147 0.96780
 C55 C 0.37081 0.68589 0.96144
 C56 C 0.29362 0.64257 1.04878
 O57 O -0.03930 0.38938 0.35031
 O58 O 0.03453 0.34008 0.38028
 O59 O 0.02637 0.39152 0.34036
 O60 O -0.03166 0.33675 0.38851
 O61 O -0.03654 0.30130 0.34642
 O62 O 0.02281 0.35637 0.29781
 O63 O 0.03012 0.30390 0.33865
 O64 O -0.04357 0.35503 0.30719
 Cu65 Cu -0.00198 0.36783 0.36909
 Cu66 Cu -0.00725 0.32555 0.31821
 C67 C -0.05359 0.38118 0.32337
 C68 C 0.04467 0.31340 0.36519
 C69 C 0.03414 0.38373 0.31085
 C70 C -0.04401 0.30960 0.37595
 O71 O 0.02142 0.63841 0.60431
 O72 O -0.05008 0.60586 0.65358
 O73 O -0.04484 0.65128 0.60825
 O74 O 0.01565 0.59454 0.65211
 O75 O 0.02505 0.63470 0.68938
 O76 O -0.03579 0.69215 0.64475
 O77 O -0.04099 0.64557 0.69143
 O78 O 0.03066 0.67944 0.64073
 Cu79 Cu -0.01519 0.61864 0.62575
 Cu80 Cu -0.00429 0.66720 0.67021
 C81 C 0.03820 0.66432 0.61383
 C82 C -0.05749 0.61968 0.68095
 C83 C -0.05111 0.68124 0.61911
 C84 C 0.03020 0.60457 0.67845
 O85 O 1.05498 0.62007 0.32015
 O86 O 0.99409 0.65105 0.38218
 O87 O 0.99071 0.60622 0.33472
 O88 O 1.05550 0.66683 0.36570
 O89 O 1.03660 0.70584 0.33048
 O90 O 0.97115 0.64495 0.29947
 O91 O 0.97449 0.69039 0.34750
 O92 O 1.03497 0.65774 0.28401
 Cu93 Cu 1.02572 0.63192 0.35390
 Cu94 Cu 1.00246 0.67858 0.31164
 C95 C 1.05514 0.63313 0.29153
 C96 C 0.97493 0.67666 0.37603
 C97 C 0.96992 0.61510 0.31193
 C98 C 1.05625 0.69719 0.35426
 O99 O 0.96119 0.35102 0.61923
 O100 O 1.03469 0.38672 0.66196
 O101 O 1.02660 0.33912 0.61967
 O102 O 0.96759 0.38775 0.67364
 O103 O 0.96408 0.34335 0.70728
 O104 O 1.02534 0.29596 0.65494
 O105 O 1.03194 0.34601 0.69985
 O106 O 0.95988 0.30685 0.65343
 Cu107 Cu 0.99710 0.37044 0.64079
 Cu108 Cu 0.99573 0.31939 0.68247
 C109 C 0.94857 0.32266 0.62800
 C110 C 1.04552 0.37324 0.68838
 C111 C 1.03615 0.30902 0.62820
 C112 C 0.95578 0.37382 0.69979
 O113 O 0.34244 -0.01533 0.39177
 O114 O 0.37270 0.04632 0.32995
 O115 O 0.32961 0.04840 0.38015
 O116 O 0.38546 -0.01735 0.34421
 O117 O 0.34404 -0.03276 0.30985
 O118 O 0.28699 0.03319 0.34726
 O119 O 0.33081 0.03123 0.29615
 O120 O 0.30046 -0.03107 0.35820
 Cu121 Cu 0.36172 0.01754 0.36469
 Cu122 Cu 0.31121 -0.00091 0.32428
 C123 C 0.31658 -0.03398 0.38540
 C124 C 0.35768 0.04858 0.30214
 C125 C 0.29839 0.05112 0.37105
 C126 C 0.37434 -0.03658 0.32143
 O127 O 0.61271 0.02848 0.64445
 O128 O 0.66750 -0.03613 0.60466
 O129 O 0.61381 -0.03790 0.64335
 O130 O 0.66539 0.03000 0.60568
 O131 O 0.70061 0.02996 0.64853
 O132 O 0.64767 -0.03815 0.68722
 O133 O 0.70242 -0.03671 0.64770
 O134 O 0.64687 0.02868 0.68813
 Cu135 Cu 0.63642 -0.00404 0.62028
 Cu136 Cu 0.67787 -0.00425 0.67233
 C137 C 0.62027 0.03963 0.67294
 C138 C 0.69467 -0.04697 0.61887
 C139 C 0.62131 -0.04913 0.67186
 C140 C 0.69182 0.04153 0.62037
 O141 O 0.39666 0.97762 0.64781
 O142 O 0.34788 1.04572 0.60755
 O143 O 0.38868 1.04287 0.65788
 O144 O 0.35084 0.97962 0.60150
 O145 O 0.30811 0.97099 0.63657
 O146 O 0.34549 1.03563 0.69270
 O147 O 0.30367 1.03771 0.64108
 O148 O 0.35489 0.97000 0.68420
 Cu149 Cu 0.37519 1.01224 0.62528
 Cu150 Cu 0.32367 1.00278 0.66716
 C151 C 0.38473 0.96251 0.67295
 C152 C 0.31758 1.05315 0.61676
 C153 C 0.37364 1.05001 0.68497
 C154 C 0.32303 0.96456 0.60933
 O155 O 0.67471 1.00270 0.38507
 O156 O 0.63306 0.95495 0.31845
 O157 O 0.67872 0.94095 0.36329
 O158 O 0.62518 1.01566 0.34360
 O159 O 0.66278 1.03243 0.30595
 O160 O 0.72046 0.96129 0.33176
 O161 O 0.67396 0.97082 0.28381
 O162 O 0.71174 1.02445 0.34935
 Cu163 Cu 0.64888 0.97675 0.35596
 Cu164 Cu 0.69626 0.99882 0.31395
 C165 C 0.70021 1.02187 0.37863
 C166 C 0.64631 0.95469 0.28974
 C167 C 0.70928 0.93933 0.35238
 C168 C 0.63422 1.03627 0.32105
 C169 C 0.78753 0.88335 0.52246
 C170 C 0.78401 0.90206 0.49303
 C171 C 0.79981 0.89155 0.46375
 C172 C 0.82065 0.86172 0.46368
 C173 C 0.82551 0.84299 0.49346
 C174 C 0.80947 0.85421 0.52314
 C175 C 0.81521 0.83554 0.55238
 C176 C 0.83640 0.80652 0.55257
 C177 C 0.85187 0.79451 0.52335
 C178 C 0.84606 0.81269 0.49340
 C179 C 0.83732 0.85059 0.43483
 C180 C 0.85673 0.82058 0.43458
 C181 C 0.86072 0.80068 0.46333
 C182 C 0.87954 0.76951 0.46296
 C183 C 0.88463 0.75189 0.49278
 C184 C 0.87217 0.76426 0.52303
 H185 H 0.80337 0.84321 0.57544
 H186 H 0.83982 0.79303 0.57572
 H187 H 0.83558 0.86499 0.41204
 H188 H 0.86897 0.81361 0.41156
 H189 H 0.76777 0.92480 0.49270
 H190 H 0.89895 0.72806 0.49271
 C191 C 0.11112 0.23286 0.52428
 C192 C 0.10295 0.24638 0.49318
 C193 C 0.11689 0.23298 0.46408
 C194 C 0.13904 0.20428 0.46560
 C195 C 0.14740 0.18973 0.49678
 C196 C 0.13322 0.20387 0.52623
 C197 C 0.14238 0.18923 0.55677
 C198 C 0.16515 0.16151 0.55846
 C199 C 0.17985 0.14752 0.52971
 C200 C 0.17079 0.16163 0.49852
 C201 C 0.15382 0.19045 0.43686
 C202 C 0.17697 0.16317 0.43859
 C203 C 0.18601 0.14853 0.46913
 C204 C 0.21090 0.12204 0.47119
 C205 C 0.21934 0.10832 0.50212
 C206 C 0.20445 0.12071 0.53133
 H207 H 0.13250 0.19938 0.57977
 H208 H 0.17164 0.15156 0.58265
 H209 H 0.14814 0.20103 0.41273
 H210 H 0.18809 0.15404 0.41570
 H211 H 0.08483 0.26758 0.49140
 H212 H 0.23806 0.08759 0.50351
 C213 C 0.12794 0.76290 0.53142
 C214 C 0.12170 0.74512 0.50195
 C215 C 0.13619 0.75516 0.47192
 C216 C 0.15719 0.78467 0.47075
 C217 C 0.16429 0.80284 0.50042
 C218 C 0.15001 0.79164 0.53088
 C219 C 0.15909 0.80879 0.56012
 C220 C 0.18155 0.83649 0.55960
 C221 C 0.19522 0.84872 0.52973
 C222 C 0.18632 0.83185 0.49977
 C223 C 0.17213 0.79591 0.44109
 C224 C 0.19272 0.82500 0.44025
 C225 C 0.19997 0.84348 0.46922
 C226 C 0.22123 0.87276 0.46860
 C227 C 0.22939 0.88913 0.49832
 C228 C 0.21816 0.87683 0.52894
 H229 H 0.14963 0.80045 0.58393
 H230 H 0.18806 0.84813 0.58298
 H231 H 0.16812 0.78230 0.41818
 H232 H 0.20352 0.83238 0.41667
 H233 H 0.10452 0.72329 0.50205
 H234 H 0.24449 0.91241 0.49766
 C235 C 0.77997 0.12311 0.46454
 C236 C 0.76338 0.11214 0.49347
 C237 C 0.77415 0.12229 0.52487
 C238 C 0.80233 0.14481 0.52776
 C239 C 0.81809 0.15821 0.49877
 C240 C 0.80674 0.14758 0.46703
 C241 C 0.82268 0.16157 0.43885
 C242 C 0.84817 0.18645 0.44166
 C243 C 0.85979 0.19737 0.47274
 C244 C 0.84512 0.18249 0.50159
 C245 C 0.81441 0.15514 0.55885
 C246 C 0.84135 0.17826 0.56159
 C247 C 0.85686 0.19239 0.53335
 C248 C 0.88311 0.21699 0.53612
 C249 C 0.89688 0.23185 0.50761
 C250 C 0.88513 0.22325 0.47595
 H251 H 0.81536 0.15392 0.41421
 H252 H 0.85870 0.19696 0.41910
 H253 H 0.80292 0.14576 0.58145
 H254 H 0.84941 0.18550 0.58619
 H255 H 0.74168 0.09488 0.49168
 H256 H 0.91742 0.25041 0.51022
 C257 C 0.52584 0.77609 0.87713
 C258 C 0.49362 0.76715 0.89012
 C259 C 0.46292 0.78264 0.87934
 C260 C 0.46439 0.80864 0.85507
 C261 C 0.49684 0.81875 0.84206
 C262 C 0.52769 0.80256 0.85322
 C263 C 0.55938 0.81274 0.83959
 C264 C 0.56090 0.83841 0.81569
 C265 C 0.53077 0.85478 0.80427
 C266 C 0.49837 0.84473 0.81743
 C267 C 0.43418 0.82419 0.84286
 C268 C 0.43565 0.84937 0.81861
 C269 C 0.46741 0.86017 0.80564
 C270 C 0.46895 0.88530 0.78051
 C271 C 0.50117 0.89514 0.76814
 C272 C 0.53203 0.88026 0.77937
 H273 H 0.58339 0.80070 0.84697
 H274 H 0.58600 0.84485 0.80586
 H275 H 0.40891 0.81668 0.85148
 H276 H 0.41146 0.85994 0.80987
 H277 H 0.49253 0.74834 0.90981
 H278 H 0.50229 0.91552 0.74995
 C279 C 0.53985 0.12327 0.23108
 C280 C 0.50984 0.11681 0.24932
 C281 C 0.47759 0.12936 0.23957
 C282 C 0.47459 0.14843 0.20994
 C283 C 0.50484 0.15603 0.19153
 C284 C 0.53758 0.14388 0.20240
 C285 C 0.56734 0.15367 0.18495
 C286 C 0.56516 0.17517 0.15762
 C287 C 0.53308 0.18702 0.14615
 C288 C 0.50252 0.17680 0.16277
 C289 C 0.44260 0.16109 0.19879
 C290 C 0.44016 0.18019 0.16977
 C291 C 0.46978 0.18855 0.15153
 C292 C 0.46782 0.20974 0.12324
 C293 C 0.49834 0.21995 0.10761
 C294 C 0.53080 0.21002 0.11933
 H295 H 0.59284 0.14582 0.19287
 H296 H 0.58895 0.18249 0.14560
 H297 H 0.41909 0.15658 0.21244
 H298 H 0.41488 0.18926 0.16230
 H299 H 0.51121 0.10086 0.27123
 H300 H 0.49690 0.23677 0.08629
 C301 C 0.53267 0.11782 0.77749
 C302 C 0.50138 0.10905 0.76260
 C303 C 0.46988 0.12347 0.77246
 C304 C 0.46915 0.14624 0.79963
 C305 C 0.50058 0.15530 0.81539
 C306 C 0.53243 0.14123 0.80412
 C307 C 0.56326 0.15166 0.81917
 C308 C 0.56301 0.17514 0.84495
 C309 C 0.53187 0.18893 0.85699
 C310 C 0.50027 0.17900 0.84208
 C311 C 0.43809 0.16084 0.81094
 C312 C 0.43774 0.18378 0.83734
 C313 C 0.46846 0.19319 0.85335
 C314 C 0.46846 0.21700 0.87979
 C315 C 0.49994 0.22582 0.89442
 C316 C 0.53156 0.21304 0.88300
 H317 H 0.58807 0.14223 0.81083
 H318 H 0.58766 0.18255 0.85509
 H319 H 0.41374 0.15483 0.79930
 H320 H 0.41311 0.19444 0.84474
 H321 H 0.50138 0.09005 0.74308
 H322 H 0.49986 0.24255 0.91577
 C323 C 0.46973 0.77792 0.12308
 C324 C 0.50188 0.77089 0.10912
 C325 C 0.53198 0.78698 0.12014
 C326 C 0.52985 0.81046 0.14655
 C327 C 0.49705 0.81937 0.15976
 C328 C 0.46672 0.80361 0.14744
 C329 C 0.43455 0.81303 0.16068
 C330 C 0.43209 0.83773 0.18536
 C331 C 0.46186 0.85266 0.19885
 C332 C 0.49474 0.84277 0.18645
 C333 C 0.55972 0.82376 0.16127
 C334 C 0.55753 0.84485 0.18887
 C335 C 0.52535 0.85501 0.20162
 C336 C 0.52269 0.87602 0.22988
 C337 C 0.49028 0.88698 0.24060
 C338 C 0.45975 0.87606 0.22540
 H339 H 0.41093 0.80149 0.15197
 H340 H 0.40666 0.84397 0.19468
 H341 H 0.58519 0.81687 0.15244
 H342 H 0.58143 0.85304 0.19999
 H343 H 0.50348 0.75192 0.08960
 H344 H 0.48907 0.90462 0.26123
 C345 C 0.79054 0.46525 0.89223
 C346 C 0.77690 0.49549 0.90581
 C347 C 0.78747 0.52790 0.89524
 C348 C 0.81413 0.53053 0.87171
 C349 C 0.82811 0.50028 0.85731
 C350 C 0.81617 0.46755 0.86742
 C351 C 0.82925 0.43815 0.85158
 C352 C 0.85320 0.44078 0.82602
 C353 C 0.86548 0.47286 0.81568
 C354 C 0.85317 0.50289 0.83186
 C355 C 0.82631 0.56263 0.86137
 C356 C 0.85147 0.56514 0.83708
 C357 C 0.86487 0.53568 0.82178
 C358 C 0.88880 0.53822 0.79579
 C359 C 0.90065 0.50858 0.78009
 C360 C 0.88875 0.47600 0.78885
 H361 H 0.82041 0.41280 0.85816
 H362 H 0.86169 0.41735 0.81422
 H363 H 0.81633 0.58620 0.87180
 H364 H 0.85983 0.59051 0.82989
 H365 H 0.75759 0.49394 0.92513
 H366 H 0.91937 0.51109 0.76032
 C367 C 0.22173 0.47448 0.11829
 C368 C 0.23291 0.50677 0.10770
 C369 C 0.21430 0.53673 0.11443
 C370 C 0.18262 0.53453 0.13141
 C371 C 0.17094 0.50216 0.14291
 C372 C 0.19050 0.47201 0.13631
 C373 C 0.17874 0.44046 0.14864
 C374 C 0.14856 0.43849 0.16733
 C375 C 0.12876 0.46795 0.17415
 C376 C 0.13997 0.50008 0.16160
 C377 C 0.16267 0.56391 0.13772
 C378 C 0.13214 0.56179 0.15557
 C379 C 0.12080 0.53034 0.16848
 C380 C 0.09069 0.52836 0.18804
 C381 C 0.07970 0.49660 0.19979
 C382 C 0.09866 0.46648 0.19403
 H383 H 0.19315 0.41703 0.14452
 H384 H 0.14109 0.41362 0.17664
 H385 H 0.17055 0.58890 0.12901
 H386 H 0.11757 0.58520 0.15927
 H387 H 0.25625 0.50869 0.09304
 H388 H 0.05660 0.49553 0.21490
 C389 C 0.75054 0.47324 0.13830
 C390 C 0.73938 0.50462 0.12578
 C391 C 0.75637 0.53531 0.13292
 C392 C 0.78570 0.53456 0.15376
 C393 C 0.79767 0.50272 0.16656
 C394 C 0.78012 0.47187 0.15860
 C395 C 0.79202 0.44076 0.17187
 C396 C 0.82098 0.43970 0.19207
 C397 C 0.83876 0.46981 0.20030
 C398 C 0.82683 0.50175 0.18785
 C399 C 0.80271 0.56479 0.16300
 C400 C 0.83084 0.56392 0.18449
 C401 C 0.84356 0.53270 0.19713
 C402 C 0.87197 0.53147 0.21933
 C403 C 0.88386 0.49940 0.23029
 C404 C 0.86760 0.46886 0.22146
 H405 H 0.77892 0.41691 0.16694
 H406 H 0.82890 0.41499 0.20168
 H407 H 0.79391 0.58956 0.15427
 H408 H 0.84224 0.58812 0.19125
 H409 H 0.71734 0.50488 0.10925
 H410 H 0.90682 0.49792 0.24552
 C411 C 0.20475 0.52892 0.89378
 C412 C 0.21675 0.49798 0.90733
 C413 C 0.20446 0.46617 0.89678
 C414 C 0.17778 0.46511 0.87307
 C415 C 0.16506 0.49615 0.85905
 C416 C 0.17873 0.52812 0.86923
 C417 C 0.16668 0.55829 0.85390
 C418 C 0.14158 0.55722 0.82929
 C419 C 0.12733 0.52596 0.81906
 C420 C 0.13919 0.49512 0.83419
 C421 C 0.16416 0.43377 0.86233
 C422 C 0.13855 0.43280 0.83840
 C423 C 0.12589 0.46309 0.82393
 C424 C 0.10103 0.46203 0.79866
 C425 C 0.08945 0.49244 0.78404
 C426 C 0.10239 0.52448 0.79341
 H427 H 0.17700 0.58311 0.86023
 H428 H 0.13393 0.58123 0.81805
 H429 H 0.17333 0.40956 0.87207
 H430 H 0.12913 0.40792 0.83096
 H431 H 0.23568 0.49855 0.92702
 H432 H 0.06963 0.49096 0.76520
 C433 C 0.29035 0.39425 0.07269
 C434 C 0.30026 0.42175 0.08995
 C435 C 0.27705 0.44487 0.10861
 C436 C 0.24240 0.44406 0.10802
 H437 H 0.32695 0.42978 0.08858
 H438 H 0.28958 0.46630 0.12053
 H439 H 0.26428 0.38473 0.07443
 H440 H 0.22885 0.42273 0.09717
 C441 C 0.71096 0.61831 0.06917
 C442 C 0.69402 0.59553 0.08772
 C443 C 0.70978 0.57270 0.11262
 C444 C 0.74377 0.56691 0.11619
 H445 H 0.66667 0.59187 0.08352
 H446 H 0.69184 0.55657 0.12594
 H447 H 0.73772 0.62428 0.07390
 H448 H 0.76252 0.58288 0.10391
 C449 C 0.69945 0.40021 0.94370
 C450 C 0.73109 0.39821 0.93070
 C451 C 0.74410 0.42758 0.91160
 C452 C 0.77761 0.43193 0.90501
 H453 H 0.74793 0.37673 0.93635
 H454 H 0.72593 0.44766 0.90490
 H455 H 0.68382 0.42284 0.93896
 H456 H 0.79594 0.41174 0.91081
 C457 C 0.29640 0.59380 0.94668
 C458 C 0.26532 0.59485 0.93241
 C459 C 0.25225 0.56452 0.91502
 C460 C 0.21896 0.56154 0.90680
 H461 H 0.24873 0.61709 0.93540
 H462 H 0.26996 0.54348 0.91032
 H463 H 0.31211 0.57082 0.94461
 H464 H 0.20157 0.58292 0.91103
 C465 C 0.07208 0.29222 0.38005
 C466 C 0.09089 0.30451 0.40510
 C467 C 0.11019 0.28352 0.42913
 C468 C 0.10687 0.24957 0.43263
 H469 H 0.08936 0.33158 0.41089
 H470 H 0.12376 0.29762 0.44814
 H471 H 0.07427 0.26577 0.37240
 H472 H 0.09376 0.23422 0.41437
 C473 C 0.06641 0.67630 0.59269
 C474 C 0.07932 0.70790 0.59407
 C475 C 0.10377 0.71886 0.56839
 C476 C 0.10947 0.75192 0.56185
 H477 H 0.06975 0.72620 0.61204
 H478 H 0.11530 0.69937 0.55276
 H479 H 0.07500 0.65908 0.57330
 H480 H 0.09845 0.77135 0.57784
 C481 C 0.95533 0.69138 0.40357
 C482 C 0.93450 0.71856 0.40078
 C483 C 0.92178 0.73505 0.43104
 C484 C 0.89314 0.75428 0.43170
 H485 H 0.92796 0.72912 0.37680
 H486 H 0.93674 0.73115 0.45333
 H487 H 0.96035 0.68073 0.42789
 H488 H 0.87899 0.75804 0.40892
 C489 C 0.92175 0.30807 0.60696
 C490 C 0.91654 0.27445 0.60447
 C491 C 0.89718 0.26146 0.57600
 C492 C 0.89666 0.22825 0.56844
 H493 H 0.92986 0.25669 0.62075
 H494 H 0.88555 0.27973 0.55903
 H495 H 0.90952 0.32524 0.58934
 H496 H 0.90734 0.20937 0.58527
 C497 C 0.37291 0.06977 0.27577
 C498 C 0.39971 0.09021 0.28181
 C499 C 0.42130 0.10423 0.25509
 C500 C 0.44887 0.12298 0.26280
 H501 H 0.40792 0.09423 0.30712
 H502 H 0.41696 0.09628 0.22979
 H503 H 0.36410 0.06608 0.25063
 H504 H 0.45376 0.12876 0.28858
 C505 C 0.59696 0.06513 0.68782
 C506 C 0.59763 0.07408 0.71969
 C507 C 0.56987 0.09621 0.73274
 C508 C 0.56477 0.10101 0.76511
 H509 H 0.61681 0.06331 0.73625
 H510 H 0.55162 0.10718 0.71532
 H511 H 0.57673 0.07536 0.67206
 H512 H 0.58329 0.09093 0.78270
 C513 C 0.40693 0.93652 0.68855
 C514 C 0.40550 0.92809 0.72049
 C515 C 0.43353 0.90695 0.73460
 C516 C 0.43756 0.90247 0.76710
 H517 H 0.38579 0.93897 0.73639
 H518 H 0.45269 0.89625 0.71794
 H519 H 0.42800 0.92664 0.67363
 H520 H 0.41827 0.91231 0.78403
 C521 C 0.62836 0.93683 0.26276
 C522 C 0.60156 0.91654 0.26920
 C523 C 0.57843 0.90373 0.24323
 C524 C 0.55183 0.88413 0.25194
 H525 H 0.59505 0.91087 0.29468
 H526 H 0.58139 0.91234 0.21793
 H527 H 0.63574 0.94211 0.23745
 H528 H 0.54845 0.87757 0.27779
 C529 C 0.41184 0.31034 0.93847
 C530 C 0.40774 0.27932 0.92492
 C531 C 0.43550 0.26505 0.90397
 C532 C 0.43633 0.23228 0.89399
 H533 H 0.38553 0.26382 0.93106
 H534 H 0.45736 0.28134 0.89849
 H535 H 0.43475 0.32494 0.93251
 H536 H 0.41426 0.21598 0.89839
 C537 C 0.61116 0.71685 0.92821
 C538 C 0.58259 0.70412 0.91426
 C539 C 0.55677 0.72402 0.89517
 C540 C 0.55691 0.75811 0.89038
 H541 H 0.57604 0.67756 0.91871
 H542 H 0.53474 0.70956 0.88660
 H543 H 0.61877 0.74307 0.92384
 H544 H 0.57876 0.77338 0.89772
 C545 C 0.36790 0.74010 0.06111
 C546 C 0.39399 0.73411 0.08190
 C547 C 0.41476 0.76188 0.09624
 C548 C 0.44196 0.75368 0.11490
 H549 H 0.40205 0.70787 0.08655
 H550 H 0.40999 0.78829 0.08922
 H551 H 0.35913 0.76612 0.05668
 H552 H 0.44727 0.72689 0.12009
 C553 C 0.61465 0.27163 0.06942
 C554 C 0.58839 0.28283 0.08820
 C555 C 0.56315 0.26131 0.10573
 C556 C 0.56139 0.22704 0.10485
 H557 H 0.58310 0.31009 0.08942
 H558 H 0.54295 0.27526 0.11859
 H559 H 0.62121 0.24469 0.06818
 H560 H 0.58119 0.21164 0.09318
 C561 C 0.29931 0.07955 0.59759
 C562 C 0.26503 0.08292 0.59618
 C563 C 0.25020 0.10418 0.56956
 C564 C 0.21646 0.10558 0.56297
 H565 H 0.24847 0.06762 0.61185
 H566 H 0.26781 0.11693 0.55275
 H567 H 0.31505 0.09436 0.58068
 H568 H 0.19794 0.09405 0.57961
 C569 C 0.71585 0.03905 0.40462
 C570 C 0.74085 0.06223 0.40079
 C571 C 0.75729 0.07624 0.43041
 C572 C 0.76817 0.10865 0.43243
 H573 H 0.74868 0.07103 0.37653
 H574 H 0.75877 0.05960 0.45182
 H575 H 0.70711 0.03296 0.42941
 H576 H 0.76672 0.12486 0.41076
 C577 C 0.71826 0.92972 0.60088
 C578 C 0.70931 0.91707 0.57132
 C579 C 0.73258 0.89987 0.54758
 C580 C 0.76660 0.89453 0.55131
 H581 H 0.68339 0.92164 0.56225
 H582 H 0.72089 0.89336 0.52410
 H583 H 0.74368 0.92512 0.61102
 H584 H 0.77940 0.89950 0.57452
 C585 C 0.30556 0.94124 0.41046
 C586 C 0.27693 0.92258 0.40769
 C587 C 0.26592 0.90126 0.43563
 C588 C 0.23426 0.88799 0.43738
 H589 H 0.26069 0.92474 0.38598
 H590 H 0.28340 0.89830 0.45637
 H591 H 0.32096 0.93938 0.43277
 H592 H 0.21701 0.89013 0.41641
 C593 C 0.07287 0.39109 0.70609
 C594 C 0.07326 0.39299 0.73893
 C595 C 0.09256 0.42078 0.75464
 C596 C 0.08716 0.42949 0.78601
 H597 H 0.05570 0.37762 0.75355
 H598 H 0.10893 0.43686 0.73943
 H599 H 0.08892 0.40830 0.69178
 H600 H 0.07132 0.41380 0.80200
 C601 C 0.07831 0.61806 0.26697
 C602 C 0.06619 0.60662 0.23823
 C603 C 0.08671 0.58192 0.21901
 C604 C 0.07142 0.55886 0.19964
 H605 H 0.03955 0.61155 0.23141
 H606 H 0.11416 0.57966 0.22389
 H607 H 0.10377 0.61013 0.27516
 H608 H 0.04355 0.55898 0.19733
 C609 C 0.91919 0.40384 0.31072
 C610 C 0.90902 0.40365 0.27925
 C611 C 0.88876 0.43270 0.26650
 C612 C 0.88206 0.43632 0.23438
 H613 H 0.91855 0.38426 0.26235
 H614 H 0.88138 0.45305 0.28338
 H615 H 0.91024 0.42413 0.32695
 H616 H 0.88838 0.41592 0.21724
 C617 C 0.91523 0.60388 0.70060
 C618 C 0.91480 0.60500 0.73351
 C619 C 0.89445 0.57933 0.75131
 C620 C 0.90090 0.57136 0.78273
 H621 H 0.93297 0.62086 0.74683
 H622 H 0.87719 0.56308 0.73726
 H623 H 0.89830 0.58626 0.68783
 H624 H 0.91795 0.58689 0.79763
 C625 C 0.72170 0.61481 0.93578
 C626 C 0.71182 0.58463 0.92293
 C627 C 0.73427 0.55963 0.90604
 C628 C 0.76872 0.55826 0.90828
 H629 H 0.68530 0.57642 0.92564
 H630 H 0.72104 0.53891 0.89361
 H631 H 0.74754 0.62428 0.93161
 H632 H 0.78307 0.57827 0.92049
 C633 C 0.30389 0.40880 0.94287
 C634 C 0.27145 0.40403 0.93269
 C635 C 0.25449 0.43182 0.91396
 C636 C 0.22024 0.43469 0.91121
 H637 H 0.25686 0.38183 0.94050
 H638 H 0.27053 0.45206 0.90400
 H639 H 0.31671 0.43244 0.93598
 H640 H 0.20377 0.41454 0.92055
 C641 C 0.27126 0.62662 0.07113
 C642 C 0.28297 0.60255 0.09219
 C643 C 0.26163 0.57753 0.11017
 C644 C 0.22897 0.56961 0.10266
 H645 H 0.31053 0.59862 0.09496
 H646 H 0.27545 0.56119 0.12742
 H647 H 0.24396 0.63245 0.06970
 H648 H 0.21405 0.58498 0.08554
 C649 C 0.72373 0.37148 0.07245
 C650 C 0.71456 0.39707 0.09271
 C651 C 0.74005 0.41798 0.11050
 C652 C 0.72891 0.44345 0.12984
 H653 H 0.68768 0.40487 0.09420
 H654 H 0.76724 0.41548 0.10463
 H655 H 0.75030 0.36261 0.07212
 H656 H 0.70137 0.44648 0.13380
 C657 C 0.92539 0.70256 0.60244
 C658 C 0.90617 0.69077 0.57729
 C659 C 0.88488 0.71170 0.55454
 C660 C 0.88339 0.74607 0.55365
 H661 H 0.90742 0.66379 0.57106
 H662 H 0.87274 0.69750 0.53475
 H663 H 0.92325 0.72903 0.61011
 H664 H 0.89393 0.76122 0.57353
 C665 C 0.93459 0.28838 0.39495
 C666 C 0.92484 0.29731 0.42564
 C667 C 0.90466 0.27617 0.44892
 C668 C 0.90004 0.24211 0.44723
 H669 H 0.93208 0.32219 0.43518
 H670 H 0.89535 0.28968 0.47056
 H671 H 0.92607 0.26437 0.38446
 H672 H 0.90874 0.22783 0.42590
 C673 C 0.05814 0.28982 0.60790
 C674 C 0.07157 0.30284 0.58006
 C675 C 0.09258 0.28365 0.55581
 C676 C 0.09523 0.24936 0.55380
 H677 H 0.06676 0.32946 0.57384
 H678 H 0.10448 0.29915 0.53677
 H679 H 0.06412 0.26377 0.61521
 H680 H 0.08397 0.23313 0.57252
 C681 C 0.07714 0.72192 0.36922
 C682 C 0.09732 0.71447 0.39520
 C683 C 0.11201 0.74127 0.41671
 C684 C 0.12985 0.73200 0.44360
 H685 H 0.10053 0.68798 0.40285
 H686 H 0.10511 0.76791 0.41274
 H687 H 0.07470 0.74833 0.36114
 H688 H 0.13457 0.70495 0.44797
 C689 C 0.59774 0.92589 0.68692
 C690 C 0.59790 0.91778 0.71902
 C691 C 0.56857 0.89867 0.73299
 C692 C 0.56504 0.89315 0.76543
 H693 H 0.61769 0.92772 0.73526
 H694 H 0.54799 0.89095 0.71648
 H695 H 0.57712 0.91636 0.67138
 H696 H 0.58579 0.89978 0.78212
 C697 C 0.39758 0.93656 0.30917
 C698 C 0.39346 0.92042 0.28040
 C699 C 0.42107 0.89730 0.26906
 C700 C 0.42641 0.89071 0.23708
 H701 H 0.37186 0.92653 0.26439
 H702 H 0.43971 0.88835 0.28713
 H703 H 0.42053 0.93143 0.32375
 H704 H 0.40752 0.89892 0.21895
 C705 C 0.61034 0.06411 0.31222
 C706 C 0.60974 0.07829 0.28221
 C707 C 0.58087 0.10094 0.27290
 C708 C 0.57270 0.10633 0.24122
 H709 H 0.62839 0.07051 0.26367
 H710 H 0.56456 0.11123 0.29229
 H711 H 0.59016 0.07042 0.32979
 H712 H 0.58947 0.09616 0.22215
 C713 C 0.38988 0.07410 0.70827
 C714 C 0.41585 0.09425 0.69851
 C715 C 0.43943 0.11309 0.72055
 C716 C 0.43863 0.11313 0.75372
 H717 H 0.42272 0.09479 0.67257
 H718 H 0.46128 0.12483 0.70831
 H719 H 0.38164 0.07353 0.73378
 H720 H 0.41690 0.10293 0.76719
 C721 C 0.60007 0.70300 0.06310
 C722 C 0.60070 0.73482 0.07501
 C723 C 0.57267 0.74522 0.09740
 C724 C 0.56513 0.77790 0.10392
 H725 H 0.61963 0.75317 0.06654
 H726 H 0.55564 0.72547 0.10675
 H727 H 0.57979 0.68582 0.07113
 H728 H 0.58220 0.79812 0.09579
 C729 C 0.40585 0.30453 0.07501
 C730 C 0.40380 0.27139 0.08297
 C731 C 0.43139 0.25668 0.10375
 C732 C 0.43477 0.22318 0.10979
 H733 H 0.38433 0.25511 0.07207
 H734 H 0.45172 0.27364 0.11210
 H735 H 0.42621 0.31979 0.08592
 H736 H 0.41459 0.20548 0.10290
 C737 C 0.59524 0.30134 0.94090
 C738 C 0.59653 0.26991 0.92789
 C739 C 0.56762 0.25798 0.90744
 C740 C 0.56360 0.22500 0.89948
 H741 H 0.61738 0.25246 0.93416
 H742 H 0.54803 0.27646 0.90015
 H743 H 0.57332 0.31782 0.93550
 H744 H 0.58336 0.20651 0.90616
 C745 C 0.39507 0.69721 0.93593
 C746 C 0.39442 0.72843 0.92245
 C747 C 0.42360 0.73910 0.90165
 C748 C 0.42997 0.77201 0.89505
 H749 H 0.37442 0.74669 0.92909
 H750 H 0.44180 0.71966 0.89347
 H751 H 0.41653 0.68015 0.93049
 H752 H 0.41164 0.79151 0.90270
 C753 C 0.73212 0.91301 0.36631
 C754 C 0.76020 0.92233 0.38307
 C755 C 0.77520 0.89936 0.40823
 C756 C 0.79253 0.91227 0.43387
 H757 H 0.76863 0.94878 0.38209
 H758 H 0.76858 0.87240 0.40804
 H759 H 0.72166 0.88758 0.36993
 H760 H 0.79626 0.93973 0.43546
 C761 C 0.30854 0.93978 0.58578
 C762 C 0.27689 0.92641 0.58829
 C763 C 0.26387 0.90447 0.56144
 C764 C 0.23088 0.89452 0.55921
 H765 H 0.26026 0.93299 0.60888
 H766 H 0.28168 0.89750 0.54187
 H767 H 0.32423 0.93359 0.56440
 H768 H 0.21304 0.90054 0.57897
 C769 C 0.27470 0.07363 0.38981
 C770 C 0.28597 0.09080 0.41640
 C771 C 0.26411 0.10750 0.44165
 C772 C 0.22954 0.10870 0.44180
 H773 H 0.31332 0.09066 0.42196
 H774 H 0.27781 0.11800 0.46264
 H775 H 0.24761 0.07328 0.38348
 H776 H 0.21469 0.09970 0.42098
 C777 C 0.71309 0.06767 0.60383
 C778 C 0.70105 0.08441 0.57723
 C779 C 0.72155 0.10609 0.55477
 C780 C 0.75612 0.10739 0.55392
 H781 H 0.67442 0.08081 0.56993
 H782 H 0.70707 0.11889 0.53541
 H783 H 0.73898 0.07192 0.61284
 H784 H 0.77152 0.09524 0.57291
 C785 C 0.94454 0.58981 0.30029
 C786 C 0.92662 0.59294 0.27210
 C787 C 0.90385 0.56480 0.26141
 C788 C 0.89071 0.56270 0.23077
 H789 H 0.93000 0.61516 0.25637
 H790 H 0.89882 0.54441 0.27895
 H791 H 0.94181 0.56667 0.31490
 H792 H 0.89514 0.58347 0.21357
 C793 C 0.93334 0.39361 0.72233
 C794 C 0.92116 0.42455 0.71378
 C795 C 0.90272 0.44851 0.73591
 C796 C 0.90121 0.44630 0.76903
 H797 H 0.92580 0.43394 0.68899
 H798 H 0.89228 0.47119 0.72398
 H799 H 0.92789 0.38290 0.74641
 H800 H 0.91095 0.42395 0.78186
 C801 C 0.05269 0.58004 0.69605
 C802 C 0.06336 0.58408 0.72727
 C803 C 0.08192 0.55576 0.74393
 C804 C 0.08853 0.55565 0.77645
 H805 H 0.05658 0.60701 0.74094
 H806 H 0.08897 0.53353 0.72932
 H807 H 0.05876 0.55632 0.68331
 H808 H 0.08236 0.57814 0.79098
 C809 C 0.05552 0.40808 0.29210
 C810 C 0.06269 0.40541 0.25984
 C811 C 0.07922 0.43451 0.24278
 C812 C 0.08681 0.43449 0.21048
 H813 H 0.05454 0.38320 0.24590
 H814 H 0.08400 0.45760 0.25693
 H815 H 0.06383 0.43076 0.30530
 H816 H 0.08357 0.41140 0.19603
   
