data_POSCAR
  _audit_creation_date              2014-09-24
  _audit_creation_method            'ToBaCCo'
  _symmetry_space_group_name_H-M    'P1'
  _symmetry_Int_Tables_number       1
  _symmetry_cell_setting            triclinic
  loop_
  _symmetry_equiv_pos_as_xyz
 x,y,z
_cell_length_a 17.6377
_cell_length_b 17.6385
_cell_length_c 17.4680
_cell_angle_alpha 92.648800
_cell_angle_beta 92.074500
_cell_angle_gamma 95.790800
loop_
  _atom_site_label
  _atom_site_type_symbol
  _atom_site_fract_x
  _atom_site_fract_y
  _atom_site_fract_z
C1 C -0.08398 0.35376 0.18280
 H2 H -0.13214 0.36998 0.21366
 C3 C -0.08455 0.27865 0.15424
 H4 H -0.13306 0.23791 0.16375
 C5 C 0.04221 0.38293 0.14248
 H6 H 0.09254 0.42328 0.14122
 C7 C 0.04464 0.30782 0.11503
 H8 H 0.09729 0.29004 0.09355
 N9 N -0.02010 0.40329 0.17885
 C10 C -0.00130 0.64720 0.21350
 H11 H 0.00329 0.65118 0.27551
 C12 C -0.01001 0.71196 0.17317
 H13 H -0.00940 0.76658 0.20427
 C14 C -0.00830 0.57044 0.09762
 H15 H -0.00979 0.51461 0.06898
 C16 C -0.01587 0.63437 0.05477
 H17 H -0.02113 0.62836 -0.00715
 Zn18 Zn -0.00536 0.49560 0.23810
 N19 N -0.00096 0.57839 0.17546
 C20 C 0.14923 0.54170 0.28551
 N21 N 0.08670 0.49245 0.29700
 C22 C 0.09035 0.43405 0.34491
 C23 C 0.15899 0.42338 0.38359
 C24 C 0.21902 0.53291 0.32287
 C25 C -0.15767 0.50878 0.26494
 C26 C -0.22150 0.51981 0.30709
 C27 C -0.13953 0.54008 0.42156
 C28 C -0.07748 0.52573 0.37757
 N29 N -0.08804 0.50868 0.30096
 H30 H 0.14546 0.58679 0.24611
 H31 H 0.04005 0.39495 0.35201
 H32 H 0.16131 0.37705 0.42189
 H33 H 0.26812 0.57286 0.31341
 H34 H -0.16367 0.49913 0.20332
 H35 H -0.27702 0.51604 0.27782
 H36 H -0.13071 0.55415 0.48237
 H37 H -0.02093 0.52926 0.40435
 C38 C -0.01768 0.70563 0.09288
 C39 C -0.01832 0.25458 0.12379
 C40 C -0.21278 0.53410 0.38679
 C41 C 0.22438 0.47252 0.37206
 C42 C 0.07283 0.60026 0.84392
 H43 H 0.11467 0.56093 0.85515
 C44 C 0.08348 0.67467 0.87673
 H45 H 0.13261 0.69197 0.91483
 C46 C -0.04217 0.62632 0.78090
 H47 H -0.09007 0.60819 0.74177
 C48 C -0.03398 0.70112 0.81315
 H49 H -0.07703 0.73890 0.80069
 N50 N 0.01041 0.57715 0.79744
 C51 C -0.01590 0.40508 0.88880
 H52 H -0.03701 0.45763 0.90893
 C53 C -0.02018 0.34208 0.93507
 H54 H -0.04547 0.34615 0.99039
 C55 C 0.03513 0.33266 0.78911
 H56 H 0.05304 0.32801 0.73067
 C57 C 0.03507 0.26968 0.83462
 H58 H 0.05359 0.21710 0.81102
 Zn59 Zn 0.00440 0.47794 0.74676
 N60 N 0.01109 0.39914 0.81698
 C61 C 0.15683 0.46045 0.71656
 N62 N 0.09125 0.48134 0.68362
 C63 C 0.09223 0.51542 0.61521
 C64 C 0.16027 0.52668 0.57617
 C65 C 0.22575 0.47052 0.67955
 C66 C -0.15272 0.45880 0.74340
 C67 C -0.22746 0.46020 0.71476
 C68 C -0.18317 0.44503 0.58700
 C69 C -0.10845 0.44453 0.61796
 N70 N -0.09410 0.45667 0.69498
 H71 H 0.15651 0.43821 0.77316
 H72 H 0.04096 0.53601 0.59191
 H73 H 0.16055 0.55364 0.52170
 H74 H 0.27702 0.45352 0.70690
 H75 H -0.14057 0.46675 0.80450
 H76 H -0.27144 0.47175 0.75420
 H77 H -0.19339 0.44135 0.52558
 H78 H -0.06201 0.43906 0.58011
 C79 C 0.00638 0.27380 0.90835
 C80 C 0.02963 0.72578 0.86180
 C81 C -0.24235 0.45919 0.63553
 C82 C 0.22788 0.50424 0.60851
 C83 C 0.11259 0.01567 0.44038
 H84 H 0.09199 0.03038 0.49617
 C85 C 0.06717 0.02144 0.37402
 H86 H 0.01198 0.04233 0.37845
 C87 C 0.21360 -0.02041 0.36495
 H88 H 0.27194 -0.03387 0.36187
 C89 C 0.16911 -0.01959 0.29830
 H90 H 0.19344 -0.03251 0.24376
 N91 N 0.18390 -0.00626 0.43417
 C92 C 0.23786 0.02683 0.67302
 H93 H 0.28760 0.06711 0.66788
 C94 C 0.20417 0.01998 0.74395
 H95 H 0.22681 0.05638 0.79263
 C96 C 0.14828 -0.07099 0.61652
 H97 H 0.12720 -0.10648 0.56658
 C98 C 0.11333 -0.07995 0.68627
 H99 H 0.06414 -0.12145 0.69002
 Zn100 Zn 0.25422 -0.01302 0.51486
 N101 N 0.20857 -0.01746 0.61083
 C102 C 0.28983 0.14157 0.52990
 N103 N 0.32096 0.07680 0.50836
 C104 C 0.38703 0.07970 0.47019
 C105 C 0.42526 0.15044 0.45416
 C106 C 0.32680 0.21295 0.51665
 C107 C 0.25404 -0.16285 0.45568
 C108 C 0.28095 -0.23358 0.44189
 C109 C 0.39476 -0.18797 0.51847
 C110 C 0.36659 -0.11715 0.52901
 N111 N 0.29761 -0.10573 0.49698
 H112 H 0.23498 0.13763 0.55600
 H113 H 0.40849 0.02745 0.44975
 H114 H 0.47778 0.15273 0.42372
 H115 H 0.30162 0.26367 0.53576
 H116 H 0.19758 -0.15410 0.43408
 H117 H 0.24630 -0.27839 0.40845
 H118 H 0.44984 -0.19669 0.54409
 H119 H 0.39917 -0.07159 0.56321
 C120 C 0.14082 -0.03376 0.75044
 C121 C 0.09458 0.00054 0.30253
 C122 C 0.35134 -0.24683 0.47425
 C123 C 0.39555 0.21789 0.47844
 C124 C 0.91460 0.04960 0.58348
 H125 H 0.94200 0.05055 0.52910
 C126 C 0.95843 0.05019 0.65200
 H127 H 1.01983 0.05098 0.65075
 C128 C 0.80090 0.04656 0.65256
 H129 H 0.73939 0.04476 0.65198
 C130 C 0.84197 0.04637 0.72158
 H131 H 0.81164 0.04472 0.77438
 N132 N 0.83724 0.04618 0.58547
 C133 C 0.81652 0.09337 0.35515
 H134 H 0.78449 0.14119 0.36649
 C135 C 0.84480 0.08308 0.28244
 H136 H 0.83438 0.12315 0.23904
 C137 C 0.85875 -0.02357 0.39225
 H138 H 0.86154 -0.06606 0.43471
 C139 C 0.88556 -0.03717 0.31935
 H140 H 0.90807 -0.09079 0.30517
 Zn141 Zn 0.77036 0.04006 0.49974
 N142 N 0.82295 0.03974 0.40799
 C143 C 0.75003 0.19546 0.50017
 N144 N 0.71381 0.12493 0.51001
 C145 C 0.64067 0.11596 0.53280
 C146 C 0.60008 0.17939 0.54280
 C147 C 0.70996 0.25958 0.50457
 C148 C 0.72664 -0.10983 0.54389
 C149 C 0.68592 -0.18211 0.53827
 C150 C 0.60422 -0.13857 0.43913
 C151 C 0.64698 -0.06709 0.44611
 N152 N 0.70676 -0.05396 0.49815
 H153 H 0.80974 0.20166 0.48709
 H154 H 0.61431 0.05990 0.54448
 H155 H 0.54242 0.17236 0.56230
 H156 H 0.73819 0.31483 0.49267
 H157 H 0.77570 -0.09935 0.58317
 H158 H 0.70314 -0.22598 0.57455
 H159 H 0.55687 -0.14872 0.39748
 H160 H 0.63328 -0.02232 0.40926
 C161 C 0.87735 0.01614 0.26364
 C162 C 0.92154 0.04648 0.72156
 C163 C 0.62421 -0.19710 0.48488
 C164 C 0.63371 0.25129 0.52522
 C165 C 0.60652 0.12212 0.92137
 H166 H 0.55494 0.09803 0.89014
 C167 C 0.67518 0.09007 0.91077
 H168 H 0.67608 0.03998 0.87268
 C169 C 0.66912 0.21649 1.00921
 H170 H 0.66717 0.26732 1.04578
 C171 C 0.73820 0.18501 1.00196
 H172 H 0.78835 0.21050 1.03473
 N173 N 0.60442 0.18348 0.97113
 C174 C 0.36410 0.16444 0.92805
 H175 H 0.37251 0.19915 0.87927
 C176 C 0.29021 0.13178 0.94171
 H177 H 0.24261 0.14401 0.90498
 C178 C 0.41332 0.11261 1.03964
 H179 H 0.46031 0.10752 1.07968
 C180 C 0.34077 0.07882 1.05506
 H181 H 0.33290 0.04978 1.10792
 Zn182 Zn 0.51287 0.23126 0.98412
 N183 N 0.42297 0.15883 0.97982
 C184 C 0.55947 0.30270 0.84933
 N185 N 0.50471 0.30006 0.90255
 C186 C 0.44159 0.33772 0.89257
 C187 C 0.42967 0.37568 0.82509
 C188 C 0.55069 0.34162 0.78214
 C189 C 0.54729 0.23990 1.14334
 C190 C 0.55259 0.26905 1.21942
 C191 C 0.49995 0.38181 1.17748
 C192 C 0.49663 0.35090 1.10162
 N193 N 0.51982 0.28068 1.08581
 H194 H 0.60941 0.27287 0.85765
 H195 H 0.39827 0.33453 0.93491
 H196 H 0.37744 0.40195 0.81605
 H197 H 0.59475 0.34236 0.74051
 H198 H 0.56610 0.18451 1.13015
 H199 H 0.57497 0.23591 1.26409
 H200 H 0.48105 0.43758 1.18899
 H201 H 0.47486 0.38274 1.05575
 C202 C 0.27781 0.09094 1.00762
 C203 C 0.74136 0.12037 0.95292
 C204 C 0.52820 0.34032 1.23749
 C205 C 0.48438 0.37766 0.76888
 C206 C 0.35764 0.85551 0.94348
 H207 H 0.37727 0.83784 0.88833
 C208 C 0.28917 0.88832 0.94711
 H209 H 0.25559 0.89386 0.89482
 C210 C 0.37128 0.86021 1.07931
 H211 H 0.40203 0.84607 1.13054
 C212 C 0.30287 0.89244 1.08540
 H213 H 0.28001 0.90122 1.14154
 N214 N 0.39454 0.83825 1.00920
 C215 C 0.62134 0.78142 0.98067
 H216 H 0.60995 0.72083 0.96684
 C217 C 0.69399 0.81776 0.97346
 H218 H 0.73954 0.78514 0.95529
 C219 C 0.57564 0.89794 1.02308
 H220 H 0.52897 0.92836 1.04215
 C221 C 0.64805 0.93597 1.01899
 H222 H 0.65839 0.99575 1.03708
 Zn223 Zn 0.46875 0.76952 1.00646
 N224 N 0.56425 0.82206 1.00442
 C225 C 0.48476 0.74486 0.85213
 N226 N 0.45762 0.70938 0.91463
 C227 C 0.43234 0.63391 0.91102
 C228 C 0.43428 0.59110 0.84209
 C229 C 0.48957 0.70381 0.78302
 C230 C 0.52584 0.71938 1.14526
 C231 C 0.52398 0.68211 1.21387
 C232 C 0.39539 0.62809 1.17888
 C233 C 0.39928 0.66732 1.11106
 N234 N 0.46420 0.71134 1.09525
 H235 H 0.50534 0.80483 0.85685
 H236 H 0.41210 0.60663 0.96156
 H237 H 0.41397 0.53128 0.83907
 H238 H 0.51256 0.73255 0.73420
 H239 H 0.57640 0.75572 1.13278
 H240 H 0.57364 0.68922 1.25280
 H241 H 0.34389 0.59264 1.19093
 H242 H 0.35033 0.66337 1.07142
 C243 C 0.70721 0.89581 0.99300
 C244 C 0.25917 0.90195 1.01877
 C245 C 0.45806 0.63585 1.23115
 C246 C 0.46492 0.62579 0.77815
 B247 B 0.99979 1.06304 0.07158
 B248 B 1.01803 1.07508 -0.02222
 B249 B 1.08133 1.03518 0.03506
 B250 B 1.03022 0.97967 0.09500
 B251 B 0.93717 0.98488 0.07620
 B252 B 0.92906 1.04396 0.00394
 B253 B 0.99593 0.91939 -0.04946
 B254 B 0.97858 0.90969 0.04353
 B255 B 0.91658 0.94841 -0.01306
 B256 B 0.96559 1.00320 -0.07405
 B257 B 1.06000 0.99736 -0.05570
 B258 B 1.06721 0.93914 0.01826
 B259 B 0.58480 0.52149 0.45145
 B260 B 0.58824 0.52074 0.54838
 B261 B 0.55592 0.59440 0.50422
 B262 B 0.50597 0.56110 0.42426
 B263 B 0.50607 0.46552 0.41734
 B264 B 0.55804 0.44014 0.49481
 B265 B 0.43191 0.50295 0.54652
 B266 B 0.42891 0.50471 0.44993
 B267 B 0.46078 0.42907 0.49357
 B268 B 0.51172 0.46338 0.57466
 B269 B 0.51046 0.55857 0.57969
 B270 B 0.46052 0.58428 0.50377
 N271 N 0.99186 1.18569 0.12589
 N272 N 1.00374 1.12066 0.13794
 N273 N 0.98152 0.77236 0.05000
 N274 N 0.96342 0.83427 0.08082
 N275 N 0.99645 1.20709 -0.04757
 N276 N 1.03534 1.15095 -0.05930
 N277 N 1.03739 0.79874 -0.09712
 N278 N 0.99020 0.84842 -0.10400
 N279 N 1.04977 1.00526 0.23366
 N280 N 1.06541 0.96818 0.17313
 N281 N 1.09906 0.96099 -0.18118
 N282 N 1.11506 1.00326 -0.12058
 N283 N 0.87935 0.99504 0.19466
 N284 N 0.87196 0.97063 0.12848
 N285 N 0.96389 1.03883 -0.20850
 N286 N 0.92875 1.01288 -0.15158
 N287 N 1.21243 1.08195 0.03439
 N288 N 1.15353 1.07956 0.06909
 N289 N 0.80814 1.08029 -0.04931
 N290 N 0.86293 1.09336 0.00062
 N291 N 1.18858 0.89649 0.02351
 N292 N 1.12089 0.87992 0.03041
 N293 N 0.78182 0.93381 -0.00374
 N294 N 0.83899 0.90577 -0.03145
 N295 N 0.72231 0.53601 0.43350
 N296 N 0.65495 0.52818 0.40375
 N297 N 0.29410 0.46310 0.41385
 N298 N 0.35531 0.50456 0.40191
 N299 N 0.70480 0.49610 0.61207
 N300 N 0.66072 0.54269 0.59646
 N301 N 0.29732 0.51601 0.56828
 N302 N 0.35978 0.49313 0.59225
 N303 N 0.45462 0.59509 0.30013
 N304 N 0.50644 0.60731 0.35312
 N305 N 0.46954 0.58132 0.70863
 N306 N 0.51089 0.60488 0.65473
 N307 N 0.53362 0.36965 0.31611
 N308 N 0.50094 0.42792 0.33665
 N309 N 0.47256 0.41764 0.70020
 N310 N 0.51918 0.41776 0.64616
 N311 N 0.58177 0.72905 0.47598
 N312 N 0.60157 0.67243 0.51170
 N313 N 0.58926 0.31455 0.52789
 N314 N 0.60648 0.37392 0.49101
 N315 N 0.37822 0.68004 0.46240
 N316 N 0.42159 0.65620 0.51341
 N317 N 0.43814 0.29027 0.46906
 N318 N 0.41360 0.35217 0.49289
   
