data_POSCAR
  _audit_creation_date              2014-09-24
  _audit_creation_method            'ToBaCCo'
  _symmetry_space_group_name_H-M    'P1'
  _symmetry_Int_Tables_number       1
  _symmetry_cell_setting            triclinic
  loop_
  _symmetry_equiv_pos_as_xyz
 x,y,z
_cell_length_a 24.8576
_cell_length_b 24.9278
_cell_length_c 48.8400
_cell_angle_alpha 87.900900
_cell_angle_beta 91.468400
_cell_angle_gamma 119.948700
loop_
  _atom_site_label
  _atom_site_type_symbol
  _atom_site_fract_x
  _atom_site_fract_y
  _atom_site_fract_z
C1 C 0.03418 0.10167 0.53708
 H2 H 0.07660 0.09953 0.53720
 C3 C 0.03057 0.14569 0.55243
 H4 H 0.07020 0.17731 0.56459
 C5 C -0.06844 0.06437 0.52025
 H6 H -0.10626 0.03333 0.50719
 C7 C -0.07386 0.10826 0.53523
 H8 H -0.11626 0.11039 0.53384
 N9 N -0.01480 0.06219 0.52141
 C10 C 0.02518 -0.08600 0.50839
 H11 H 0.02879 -0.08363 0.48630
 C12 C 0.02564 -0.13466 0.52330
 H13 H 0.03035 -0.16948 0.51269
 C14 C 0.00994 -0.04625 0.54903
 H15 H 0.00114 -0.01335 0.55888
 C16 C 0.01051 -0.09391 0.56471
 H17 H 0.00321 -0.09639 0.58656
 Zn18 Zn 0.00058 0.01091 0.49930
 N19 N 0.01646 -0.04360 0.52135
 C20 C 0.12492 0.06734 0.47901
 N21 N 0.06921 0.06536 0.47754
 C22 C 0.06128 0.10720 0.46193
 C23 C 0.11045 0.15349 0.44694
 C24 C 0.17575 0.11348 0.46443
 C25 C -0.12061 -0.08408 0.48961
 C26 C -0.16858 -0.13056 0.47446
 C27 C -0.10896 -0.08417 0.43334
 C28 C -0.06203 -0.03880 0.44930
 N29 N -0.06826 -0.04003 0.47693
 H30 H 0.13041 0.03434 0.49202
 H31 H 0.01674 0.10513 0.46157
 H32 H 0.10365 0.18693 0.43481
 H33 H 0.22015 0.11538 0.46607
 H34 H -0.12371 -0.08485 0.51169
 H35 H -0.20895 -0.16668 0.48502
 H36 H -0.10151 -0.08311 0.41158
 H37 H -0.01935 -0.00465 0.43968
 C38 C 0.01703 -0.13949 0.55170
 C39 C -0.02355 0.14979 0.55131
 C40 C -0.16261 -0.13177 0.44599
 C41 C 0.16859 0.15744 0.44842
 C42 C 1.10783 0.04627 0.12703
 H43 H 1.10522 0.08834 0.12658
 C44 C 1.15208 0.04291 0.11141
 H45 H 1.18333 0.08233 0.09868
 C46 C 1.07198 -0.05544 0.14516
 H47 H 1.04160 -0.09292 0.15889
 C48 C 1.11616 -0.06054 0.12999
 H49 H 1.11901 -0.10242 0.13188
 N50 N 1.06909 -0.00233 0.14353
 C51 C 0.92403 0.04111 0.15994
 H52 H 0.92816 0.04444 0.18200
 C53 C 0.87569 0.04438 0.14628
 H54 H 0.84328 0.05114 0.15796
 C55 C 0.95925 0.02431 0.11818
 H56 H 0.99035 0.01404 0.10743
 C57 C 0.91162 0.02738 0.10372
 H58 H 0.90697 0.02058 0.08182
 Zn59 Zn 1.01858 0.01253 0.16664
 N60 N 0.96414 0.03053 0.14584
 C61 C 1.07657 0.13526 0.18743
 N62 N 1.07390 0.07935 0.18838
 C63 C 1.11521 0.06989 0.20354
 C64 C 1.16145 0.11759 0.21869
 C65 C 1.12265 0.18460 0.20218
 C66 C 0.92315 -0.10872 0.17622
 C67 C 0.87664 -0.15779 0.19142
 C68 C 0.92285 -0.10135 0.23269
 C69 C 0.96834 -0.05320 0.21671
 N70 N 0.96722 -0.05739 0.18898
 H71 H 1.04409 0.14208 0.17475
 H72 H 1.11262 0.02526 0.20349
 H73 H 1.19434 0.10956 0.23053
 H74 H 1.12493 0.22911 0.20101
 H75 H 0.92253 -0.11020 0.15410
 H76 H 0.84046 -0.19751 0.18099
 H77 H 0.92327 -0.09633 0.25460
 H78 H 1.00250 -0.01135 0.22642
 C79 C 0.86853 0.03623 0.11792
 C80 C 1.15724 -0.01049 0.11319
 C81 C 0.87560 -0.15371 0.21991
 C82 C 1.16590 0.17583 0.21783
 C83 C 0.03983 0.94169 0.87262
 H84 H -0.00518 0.90003 0.87230
 C85 C 0.08814 0.94271 0.88814
 H86 H 0.08018 0.90190 0.90004
 C87 C 0.10584 1.04475 0.85645
 H88 H 0.11278 1.08371 0.84346
 C89 C 0.15575 1.04753 0.87152
 H90 H 0.20072 1.08912 0.87033
 N91 N 0.04945 0.99209 0.85712
 C92 C -0.13944 0.95131 0.83910
 H93 H -0.13907 0.95054 0.81698
 C94 C -0.19087 0.94635 0.85237
 H95 H -0.22994 0.94085 0.84006
 C96 C -0.08653 0.96332 0.88147
 H97 H -0.04489 0.97238 0.89264
 C98 C -0.13695 0.95858 0.89559
 H99 H -0.13399 0.96292 0.91765
 Zn100 Zn -0.01645 0.98103 0.83356
 N101 N -0.08843 0.96033 0.85369
 C102 C -0.08142 0.86119 0.81009
 N103 N -0.02877 0.91758 0.80992
 C104 C 0.02114 0.92914 0.79472
 C105 C 0.01962 0.88293 0.77897
 C106 C -0.08471 0.81332 0.79472
 C107 C 0.01132 1.10359 0.82818
 C108 C 0.01583 1.15621 0.81491
 C109 C 0.00330 1.10745 0.77154
 C110 C -0.00118 1.05560 0.78564
 N111 N 0.00233 1.05444 0.81348
 H112 H -0.11995 0.85263 0.82285
 H113 H 0.06283 0.97403 0.79544
 H114 H 0.06007 0.89243 0.76730
 H115 H -0.12626 0.76828 0.79548
 H116 H 0.01264 1.10086 0.85032
 H117 H 0.02147 1.19418 0.82701
 H118 H -0.00115 1.10739 0.74943
 H119 H -0.01015 1.01543 0.77436
 C120 C -0.18954 0.95132 0.88100
 C121 C 0.14709 0.99562 0.88725
 C122 C 0.01066 1.15789 0.78629
 C123 C -0.03332 0.82403 0.77926
 C124 C 0.50147 -0.00753 0.01304
 C125 C 0.49605 -0.01584 -0.01448
 C126 C 0.44294 -0.01858 -0.03013
 C127 C 0.54288 -0.02148 -0.03038
 C128 C 0.55603 -0.00058 0.02897
 C129 C 0.45267 -0.00460 0.02859
 C130 C 0.38204 -0.06685 -0.02549
 C131 C 0.33213 -0.06631 -0.03911
 C132 C 0.34259 -0.01750 -0.05751
 C133 C 0.40357 0.03012 -0.06244
 C134 C 0.45344 0.02936 -0.04900
 C135 C 0.52447 -0.07526 -0.04514
 C136 C 0.56783 -0.08213 -0.05998
 C137 C 0.63020 -0.03500 -0.06047
 C138 C 0.64857 0.01922 -0.04604
 C139 C 0.60518 0.02607 -0.03113
 C140 C 0.59217 0.05366 0.04355
 C141 C 0.64454 0.06201 0.05829
 C142 C 0.66126 0.01593 0.05887
 C143 C 0.62460 -0.03880 0.04464
 C144 C 0.57221 -0.04712 0.02981
 C145 C 0.44004 0.04391 0.02389
 C146 C 0.39160 0.04416 0.03769
 C147 C 0.35530 -0.00407 0.05639
 C148 C 0.36858 -0.05204 0.06133
 C149 C 0.41722 -0.05209 0.04766
 H150 H 0.37325 -0.10432 -0.01106
 H151 H 0.28554 -0.10355 -0.03493
 H152 H 0.41243 0.06810 -0.07657
 H153 H 0.50017 0.06701 -0.05274
 H154 H 0.47653 -0.11227 -0.04489
 H155 H 0.55242 -0.12418 -0.07107
 H156 H 0.62008 0.06833 -0.02021
 H157 H 0.58022 0.08994 0.04322
 H158 H 0.67169 0.10443 0.06922
 H159 H 0.63664 -0.07502 0.04504
 H160 H 0.54435 -0.08968 0.01900
 H161 H 0.46729 0.08110 0.00933
 H162 H 0.38232 0.08168 0.03350
 H163 H 0.34105 -0.08956 0.07570
 H164 H 0.42640 -0.08987 0.05149
 H165 H 0.69650 0.05622 -0.04638
 C166 C -0.01591 0.49194 0.68024
 C167 C -0.01746 0.49154 0.65236
 C168 C -0.01648 0.44170 0.63715
 C169 C -0.01779 0.54233 0.63573
 C170 C -0.01594 0.54242 0.69533
 C171 C -0.01236 0.44299 0.69701
 C172 C 0.03366 0.43086 0.63986
 C173 C 0.03313 0.38263 0.62593
 C174 C -0.01740 0.34482 0.60900
 C175 C -0.06710 0.35621 0.60604
 C176 C -0.06647 0.40458 0.61989
 C177 C 0.03198 0.57891 0.61818
 C178 C 0.03519 0.63018 0.60410
 C179 C -0.01160 0.64524 0.60714
 C180 C -0.06249 0.60747 0.62400
 C181 C -0.06566 0.55621 0.63814
 C182 C -0.06574 0.52888 0.71251
 C183 C -0.06778 0.57632 0.72596
 C184 C -0.01964 0.63779 0.72273
 C185 C 0.03079 0.65122 0.70592
 C186 C 0.03269 0.60380 0.69234
 C187 C -0.05856 0.38050 0.69529
 C188 C -0.05286 0.33492 0.71048
 C189 C -0.00106 0.35120 0.72760
 C190 C 0.04447 0.41377 0.72969
 C191 C 0.03868 0.45931 0.71460
 H192 H 0.07298 0.45959 0.65285
 H193 H 0.07212 0.37497 0.62853
 H194 H -0.10637 0.32757 0.59301
 H195 H -0.10542 0.41250 0.61750
 H196 H 0.06929 0.56884 0.61606
 H197 H 0.07469 0.65877 0.59113
 H198 H -0.10475 0.52804 0.65138
 H199 H -0.10357 0.48172 0.71507
 H200 H -0.10696 0.56516 0.73890
 H201 H 0.06855 0.69821 0.70309
 H202 H 0.07177 0.61492 0.67935
 H203 H -0.09868 0.36711 0.68208
 H204 H -0.08866 0.28685 0.70881
 H205 H 0.08459 0.42765 0.74290
 H206 H 0.07467 0.50733 0.71623
 H207 H -0.09930 0.61794 0.62663
 C208 C 0.51335 0.51125 0.34822
 C209 C 0.51447 0.51187 0.32034
 C210 C 0.56549 0.56301 0.30446
 C211 C 0.46468 0.46117 0.30440
 C212 C 0.46151 0.46056 0.36388
 C213 C 0.56327 0.56154 0.36432
 C214 C 0.57899 0.62449 0.30675
 C215 C 0.62952 0.67254 0.29288
 C216 C 0.66688 0.65966 0.27636
 C217 C 0.65234 0.59809 0.27351
 C218 C 0.60183 0.55005 0.28736
 C219 C 0.42794 0.47406 0.28610
 C220 C 0.37889 0.42625 0.27194
 C221 C 0.36649 0.36507 0.27559
 C222 C 0.40406 0.35234 0.29350
 C223 C 0.45289 0.40010 0.30779
 C224 C 0.47322 0.42272 0.38211
 C225 C 0.42431 0.37282 0.39594
 C226 C 0.36319 0.36065 0.39202
 C227 C 0.35163 0.39932 0.37419
 C228 C 0.40049 0.44900 0.36025
 C229 C 0.62538 0.57622 0.36208
 C230 C 0.67239 0.62662 0.37587
 C231 C 0.65783 0.66264 0.39226
 C232 C 0.59562 0.64676 0.39519
 C233 C 0.54862 0.59639 0.38141
 H234 H 0.55088 0.63524 0.31956
 H235 H 0.63951 0.71958 0.29532
 H236 H 0.68057 0.58735 0.26077
 H237 H 0.59194 0.50286 0.28527
 H238 H 0.43648 0.52096 0.28324
 H239 H 0.35038 0.43687 0.25819
 H240 H 0.48120 0.38948 0.32166
 H241 H 0.52008 0.43108 0.38515
 H242 H 0.43402 0.34348 0.40964
 H243 H 0.30497 0.39102 0.37079
 H244 H 0.39076 0.47815 0.34643
 H245 H 0.63746 0.54928 0.34929
 H246 H 0.71999 0.63770 0.37340
 H247 H 0.58362 0.67396 0.40785
 H248 H 0.50093 0.58561 0.38346
 H249 H 0.39551 0.30559 0.29670
 C250 C -0.02794 0.28589 0.56268
 C251 C 0.02392 0.26888 0.56193
 C252 C -0.02511 0.20022 0.56654
 C253 C -0.07710 0.21665 0.56709
 C254 C -0.01621 0.20691 0.59775
 C255 C 0.03294 0.27602 0.59329
 C256 C -0.01895 0.29261 0.59391
 C257 C -0.06813 0.22399 0.59852
 H258 H -0.03250 0.31900 0.54833
 H259 H 0.06177 0.28706 0.54666
 H260 H -0.12264 0.19240 0.55636
 H261 H -0.01162 0.17381 0.61210
 H262 H 0.07874 0.29977 0.60383
 H263 H -0.10592 0.20598 0.61381
 C264 C 0.78917 0.72331 0.26700
 C265 C 0.79903 0.72743 0.23564
 C266 C 0.82159 0.79719 0.23595
 C267 C 0.81238 0.79367 0.26716
 C268 C 0.75493 0.78451 0.23090
 C269 C 0.73178 0.71425 0.23076
 C270 C 0.72255 0.71073 0.26194
 C271 C 0.74517 0.78055 0.26223
 H272 H 0.80278 0.69765 0.28204
 H273 H 0.82171 0.70596 0.22463
 H274 H 0.84519 0.82574 0.28255
 H275 H 0.74123 0.81012 0.21587
 H276 H 0.69807 0.68127 0.21586
 H277 H 0.72365 0.80352 0.27296
 C278 C 0.27311 0.03580 -0.06719
 C279 C 0.26933 0.04446 -0.09860
 C280 C 0.20020 -0.00565 -0.09797
 C281 C 0.20339 -0.01428 -0.06674
 C282 C 0.21685 -0.05639 -0.10259
 C283 C 0.28640 -0.00639 -0.10306
 C284 C 0.28964 -0.01500 -0.07182
 C285 C 0.22051 -0.06509 -0.07120
 H286 H 0.29669 0.07365 -0.05239
 H287 H 0.29016 0.08984 -0.10979
 H288 H 0.16888 -0.01726 -0.05189
 H289 H 0.19338 -0.09429 -0.11738
 H290 H 0.32086 -0.00343 -0.11794
 H291 H 0.19952 -0.11061 -0.06013
 C292 C 0.00300 0.71503 0.56175
 C293 C -0.04377 0.73885 0.56185
 C294 C 0.01012 0.80445 0.56738
 C295 C 0.05699 0.78126 0.56711
 C296 C 0.00155 0.79177 0.59852
 C297 C -0.05246 0.72560 0.59311
 C298 C -0.00558 0.70235 0.59285
 C299 C 0.04836 0.76793 0.59839
 H300 H 0.00333 0.68289 0.54670
 H301 H -0.08169 0.72731 0.54664
 H302 H 0.10218 0.80469 0.55635
 H303 H 0.00119 0.82291 0.61408
 H304 H -0.09795 0.70330 0.60359
 H305 H 0.08625 0.77940 0.61361
 C306 C 0.29586 0.24574 0.26002
 C307 C 0.22699 0.22643 0.26426
 C308 C 0.21811 0.22778 0.23302
 C309 C 0.28649 0.24670 0.22862
 C310 C 0.23522 0.29624 0.23335
 C311 C 0.24475 0.29547 0.26480
 C312 C 0.31308 0.31423 0.26041
 C313 C 0.30420 0.31562 0.22914
 H314 H 0.32020 0.22386 0.27076
 H315 H 0.19462 0.18938 0.27863
 H316 H 0.30335 0.22636 0.21351
 H317 H 0.21054 0.31755 0.22243
 H318 H 0.22804 0.31590 0.27993
 H319 H 0.33657 0.35265 0.21477
 C320 C 0.71342 0.00279 -0.10077
 C321 C 0.77391 0.00737 -0.08915
 C322 C 0.76159 -0.04717 -0.10471
 C323 C 0.70421 -0.05317 -0.11710
 C324 C 0.72819 -0.09044 -0.08186
 C325 C 0.73792 -0.03544 -0.06460
 C326 C 0.67715 -0.04142 -0.07665
 C327 C 0.66635 -0.09763 -0.09327
 H328 H 0.70865 0.04219 -0.10919
 H329 H 0.81993 0.05029 -0.08820
 H330 H 0.69013 -0.06071 -0.13899
 H331 H 0.73626 -0.12877 -0.07487
 H332 H 0.75351 -0.02802 -0.04287
 H333 H 0.62290 -0.14258 -0.09573
 C334 C 0.29559 -0.01189 0.10249
 C335 C 0.27702 0.03883 0.10177
 C336 C 0.20859 -0.01149 0.09809
 C337 C 0.22662 -0.06233 0.09899
 C338 C 0.21537 -0.00490 0.06676
 C339 C 0.28430 0.04551 0.07028
 C340 C 0.30240 -0.00527 0.07114
 C341 C 0.23404 -0.05569 0.06745
 H342 H 0.32919 -0.01449 0.11712
 H343 H 0.29441 0.07771 0.11611
 H344 H 0.20319 -0.10699 0.11075
 H345 H 0.18176 -0.00227 0.05215
 H346 H 0.30749 0.09037 0.05867
 H347 H 0.21683 -0.09451 0.05310
 C348 C 0.71147 0.72785 0.43753
 C349 C 0.78238 0.75405 0.43668
 C350 C 0.79167 0.81649 0.43099
 C351 C 0.72482 0.79491 0.43224
 C352 C 0.79002 0.80968 0.40108
 C353 C 0.77852 0.74309 0.40557
 C354 C 0.70787 0.71851 0.40630
 C355 C 0.71925 0.78485 0.40101
 H356 H 0.67976 0.69479 0.45333
 H357 H 0.81029 0.74381 0.45187
 H358 H 0.70498 0.81865 0.44366
 H359 H 0.82246 0.84421 0.38592
 H360 H 0.80380 0.72374 0.39501
 H361 H 0.69385 0.79938 0.38630
 C362 C 0.00164 0.24482 0.73066
 C363 C 0.05623 0.25266 0.74936
 C364 C 0.00947 0.21116 0.77142
 C365 C -0.04511 0.20273 0.75289
 C366 C 0.01250 0.26802 0.78438
 C367 C 0.05933 0.31013 0.76215
 C368 C 0.00466 0.30163 0.74363
 C369 C -0.04209 0.26005 0.76567
 H370 H -0.00286 0.23568 0.70841
 H371 H 0.09678 0.24921 0.74277
 H372 H -0.08817 0.15808 0.74920
 H373 H 0.01694 0.27858 0.80646
 H374 H 0.10293 0.35397 0.76620
 H375 H -0.08268 0.26343 0.77226
 C376 C 0.71299 -0.01890 0.09910
 C377 C 0.76692 -0.02415 0.08689
 C378 C 0.81356 0.03304 0.10287
 C379 C 0.76010 0.03834 0.11525
 C380 C 0.81788 0.07603 0.07859
 C381 C 0.77062 0.01879 0.06245
 C382 C 0.71721 0.02408 0.07484
 C383 C 0.76387 0.08137 0.09080
 H384 H 0.66935 -0.05812 0.10742
 H385 H 0.76855 -0.06765 0.08542
 H386 H 0.75478 0.04640 0.13696
 H387 H 0.86155 0.11521 0.07028
 H388 H 0.77451 0.01069 0.04058
 H389 H 0.76361 0.12547 0.09264
 C390 C 0.31003 0.29558 0.43810
 C391 C 0.24093 0.27807 0.43816
 C392 C 0.22213 0.21012 0.43361
 C393 C 0.29076 0.22701 0.43375
 C394 C 0.22327 0.22093 0.40237
 C395 C 0.24242 0.28934 0.40677
 C396 C 0.31111 0.30639 0.40685
 C397 C 0.29251 0.23850 0.40230
 H398 H 0.34607 0.32690 0.45273
 H399 H 0.21942 0.29403 0.45312
 H400 H 0.31110 0.20156 0.44481
 H401 H 0.18722 0.18961 0.38775
 H402 H 0.22131 0.31430 0.39593
 H403 H 0.31413 0.22270 0.38732
 C404 C 0.02745 0.75699 0.73807
 C405 C -0.02336 0.77490 0.73300
 C406 C -0.03241 0.77312 0.76412
 C407 C 0.01829 0.75560 0.76935
 C408 C -0.08274 0.70426 0.76346
 C409 C -0.07362 0.70546 0.73214
 C410 C -0.02282 0.68810 0.73738
 C411 C -0.03190 0.68633 0.76851
 H412 H 0.07325 0.77973 0.72785
 H413 H -0.02010 0.81169 0.71847
 H414 H 0.05608 0.77650 0.78487
 H415 H -0.12836 0.68195 0.77382
 H416 H -0.11135 0.68445 0.71660
 H417 H -0.03513 0.64958 0.78306
   
