data_POSCAR
  _audit_creation_date              2014-09-24
  _audit_creation_method            'ToBaCCo'
  _symmetry_space_group_name_H-M    'P1'
  _symmetry_Int_Tables_number       1
  _symmetry_cell_setting            triclinic
  loop_
  _symmetry_equiv_pos_as_xyz
 x,y,z
_cell_length_a 47.2725
_cell_length_b 49.0634
_cell_length_c 38.4822
_cell_angle_alpha 90.039800
_cell_angle_beta 89.718700
_cell_angle_gamma 117.905000
loop_
  _atom_site_label
  _atom_site_type_symbol
  _atom_site_fract_x
  _atom_site_fract_y
  _atom_site_fract_z
O1 O 0.03803 0.48144 -0.00690
 O2 O 0.00723 0.51931 -0.06709
 O3 O 0.04178 0.53533 -0.00932
 O4 O 0.00450 0.46547 -0.06312
 O5 O -0.04061 0.45005 -0.03383
 O6 O -0.00184 0.51787 0.02314
 O7 O -0.03583 0.50502 -0.03418
 O8 O -0.00747 0.46236 0.02264
 Cu9 Cu 0.02733 0.50240 -0.03985
 Cu10 Cu -0.02586 0.48240 -0.00240
 C11 C 0.02030 0.46501 0.01772
 C12 C -0.01974 0.51822 -0.06122
 C13 C 0.02691 0.53787 0.01704
 C14 C -0.02457 0.44581 -0.05791
 O15 O 0.50300 0.55099 0.02279
 O16 O 0.46989 0.47665 -0.02327
 O17 O 0.45593 0.49544 0.03336
 O18 O 0.51657 0.53022 -0.03546
 O19 O 0.55044 0.52093 -0.00485
 O20 O 0.48887 0.48388 0.06290
 O21 O 0.50369 0.46509 0.00438
 O22 O 0.53567 0.53876 0.05182
 Cu23 Cu 0.48322 0.51491 -0.00340
 Cu24 Cu 0.52278 0.50070 0.03151
 C25 C 0.52488 0.55751 0.04524
 C26 C 0.48145 0.45835 -0.01769
 C27 C 0.46200 0.48359 0.05971
 C28 C 0.54385 0.53138 -0.03210
 O29 O 0.54697 1.01873 -0.01613
 O30 O 0.46588 0.96665 0.01709
 O31 O 0.49407 1.00801 -0.03716
 O32 O 0.52646 0.98036 0.03221
 O33 O 0.52521 1.01515 0.06773
 O34 O 0.48799 1.03990 -0.00116
 O35 O 0.46771 1.00313 0.05190
 O36 O 0.54706 1.05585 0.01640
 Cu37 Cu 0.50633 0.98872 -0.00378
 Cu38 Cu 0.50728 1.03228 0.03714
 C39 C 0.56040 1.04669 -0.00625
 C40 C 0.45343 0.97562 0.04096
 C41 C 0.48689 1.02956 -0.03171
 C42 C 0.53171 0.99317 0.06179
 O43 O 1.01958 0.52679 0.48414
 O44 O 0.96359 0.45098 0.52158
 O45 O 1.00558 0.46970 0.47248
 O46 O 0.97907 0.50739 0.53750
 O47 O 0.94073 0.50426 0.50259
 O48 O 0.97115 0.47098 0.43492
 O49 O 0.92672 0.44792 0.48459
 O50 O 0.98078 0.52521 0.45113
 Cu51 Cu 0.99579 0.48924 0.50757
 Cu52 Cu 0.95084 0.48651 0.46486
 C53 C 1.00972 0.53872 0.46085
 C54 C 0.93549 0.43645 0.50927
 C55 C 0.99390 0.46494 0.44213
 C56 C 0.95489 0.51141 0.53173
 O57 O 0.44057 0.48769 0.49541
 O58 O 0.50210 0.52505 0.56277
 O59 O 0.47797 0.54440 0.51244
 O60 O 0.46406 0.46869 0.54524
 O61 O 0.50090 0.46948 0.50926
 O62 O 0.51574 0.54576 0.47740
 O63 O 0.53906 0.52624 0.52658
 O64 O 0.47787 0.48971 0.45919
 Cu65 Cu 0.46755 0.50647 0.53264
 Cu66 Cu 0.51205 0.50778 0.48952
 C67 C 0.44892 0.48294 0.46553
 C68 C 0.53099 0.53156 0.55631
 C69 C 0.49890 0.55777 0.48890
 C70 C 0.48029 0.45624 0.53315
 O71 O 0.53401 0.06088 0.47999
 O72 O 0.45646 0.00855 0.44110
 O73 O 0.47534 0.04930 0.49107
 O74 O 0.51413 0.01781 0.43172
 O75 O 0.51138 -0.01514 0.47220
 O76 O 0.46620 0.01183 0.52828
 O77 O 0.45164 -0.02828 0.47726
 O78 O 0.52659 0.02604 0.52015
 Cu79 Cu 0.49572 0.03780 0.45718
 Cu80 Cu 0.48812 -0.00491 0.50352
 C81 C 0.54332 0.05266 0.50705
 C82 C 0.44146 -0.01919 0.45153
 C83 C 0.46395 0.03575 0.51979
 C84 C 0.51939 -0.00413 0.44175
 C85 C 0.26982 0.37672 0.24165
 C86 C 0.26832 0.37801 0.27723
 C87 C 0.24927 0.39184 0.28466
 N88 N 0.23895 0.39882 0.25497
 C89 C 0.25170 0.38987 0.22866
 C90 C 0.24494 0.40161 0.31783
 C91 C 0.22040 0.40979 0.32430
 C92 C 0.21906 0.42682 0.35246
 C93 C 0.19048 0.42775 0.35021
 C94 C 0.17521 0.41135 0.32068
 N95 N 0.19369 0.40067 0.30491
 C96 C 0.14429 0.40522 0.30960
 C97 C 0.13555 0.39904 0.27427
 C98 C 0.10521 0.38960 0.26089
 C99 C 0.10863 0.39250 0.22543
 C100 C 0.14070 0.40225 0.21828
 N101 N 0.15704 0.40621 0.24813
 C102 C 0.15564 0.41172 0.18557
 C103 C 0.18578 0.41339 0.17817
 C104 C 0.20403 0.42667 0.14864
 C105 C 0.23090 0.42275 0.15094
 C106 C 0.22820 0.40681 0.18158
 N107 N 0.20046 0.40091 0.19783
 C108 C 0.25061 0.39745 0.19350
 H109 H 0.28352 0.36805 0.22700
 H110 H 0.28055 0.37048 0.29553
 H111 H 0.19096 0.38703 0.21971
 H112 H 0.23680 0.43755 0.37255
 H113 H 0.18205 0.43938 0.36816
 H114 H 0.08306 0.38246 0.27511
 H115 H 0.08961 0.38816 0.20731
 H116 H 0.25029 0.43099 0.13221
 H117 H 0.18689 0.38534 0.28407
 H118 H 0.19863 0.43789 0.12742
 C119 C 0.56256 0.70540 0.24514
 C120 C 0.56614 0.70665 0.28052
 C121 C 0.56748 0.73421 0.29124
 N122 N 0.56488 0.74983 0.26355
 C123 C 0.56223 0.73243 0.23526
 C124 C 0.56752 0.74289 0.32627
 C125 C 0.56742 0.77058 0.33591
 C126 C 0.55584 0.77561 0.36706
 C127 C 0.56058 0.80549 0.36618
 C128 C 0.57624 0.81836 0.33513
 N129 N 0.58004 0.79673 0.31676
 C130 C 0.58825 0.84966 0.32500
 C131 C 0.59918 0.85933 0.29079
 C132 C 0.61850 0.88956 0.28049
 C133 C 0.61906 0.88945 0.24482
 C134 C 0.59997 0.85917 0.23466
 N135 N 0.58809 0.84080 0.26278
 C136 C 0.58988 0.84943 0.20037
 C137 C 0.57492 0.81787 0.19096
 C138 C 0.55778 0.80576 0.16069
 C139 C 0.54860 0.77470 0.16082
 C140 C 0.55987 0.76852 0.19147
 N141 N 0.57620 0.79503 0.20947
 C142 C 0.55652 0.73934 0.20116
 H143 H 0.55978 0.68637 0.22881
 H144 H 0.56640 0.68867 0.29659
 H145 H 0.59011 0.79798 0.23142
 H146 H 0.54456 0.75941 0.38805
 H147 H 0.55332 0.81627 0.38638
 H148 H 0.63013 0.90965 0.29698
 H149 H 0.63116 0.90948 0.22823
 H150 H 0.53516 0.75863 0.14054
 H151 H 0.59343 0.80031 0.29407
 H152 H 0.55234 0.81789 0.14050
 C153 C 0.16743 0.65394 0.22765
 C154 C 0.16698 0.65378 0.26334
 C155 C 0.18679 0.68381 0.27379
 N156 N 0.19897 0.70233 0.24574
 C157 C 0.18737 0.68410 0.21749
 C158 C 0.19223 0.69386 0.30869
 C159 C 0.21516 0.72380 0.31877
 C160 C 0.21668 0.73631 0.35146
 C161 C 0.24345 0.76469 0.35164
 C162 C 0.25765 0.76868 0.31912
 N163 N 0.24024 0.74363 0.29926
 C164 C 0.28719 0.79400 0.30953
 C165 C 0.29836 0.80049 0.27483
 C166 C 0.32890 0.82228 0.26495
 C167 C 0.32968 0.82216 0.22930
 C168 C 0.29958 0.80033 0.21858
 N169 N 0.28042 0.78727 0.24644
 C170 C 0.28985 0.79368 0.18358
 C171 C 0.26021 0.76901 0.17357
 C172 C 0.24688 0.76568 0.14084
 C173 C 0.21958 0.73773 0.14067
 C174 C 0.21705 0.72467 0.17326
 N175 N 0.24188 0.74395 0.19319
 C176 C 0.19375 0.69455 0.18269
 H177 H 0.15457 0.63408 0.21114
 H178 H 0.15363 0.63384 0.27971
 H179 H 0.24826 0.73852 0.21697
 H180 H 0.20039 0.72591 0.37307
 H181 H 0.25176 0.78040 0.37345
 H182 H 0.34864 0.83669 0.28165
 H183 H 0.35009 0.83650 0.21315
 H184 H 0.20370 0.72788 0.11880
 H185 H 0.24723 0.73869 0.27548
 H186 H 0.25612 0.78156 0.11917
 C187 C 0.72115 0.62903 0.74032
 C188 C 0.72236 0.62743 0.77593
 C189 C 0.74018 0.61232 0.78315
 N190 N 0.75038 0.60525 0.75332
 C191 C 0.73857 0.61515 0.72716
 C192 C 0.74368 0.60155 0.81605
 C193 C 0.76728 0.59193 0.82138
 C194 C 0.76713 0.57261 0.84778
 C195 C 0.79573 0.57167 0.84557
 C196 C 0.81240 0.59022 0.81771
 N197 N 0.79476 0.60217 0.80285
 C198 C 0.84388 0.59732 0.80758
 C199 C 0.85444 0.60649 0.77313
 C200 C 0.88568 0.61832 0.76117
 C201 C 0.88438 0.61951 0.72554
 C202 C 0.85243 0.60861 0.71710
 N203 N 0.83427 0.60094 0.74619
 C204 C 0.83957 0.60180 0.68329
 C205 C 0.80815 0.59688 0.67647
 C206 C 0.79011 0.58199 0.64755
 C207 C 0.76199 0.58382 0.64998
 C208 C 0.76362 0.59972 0.68034
 N209 N 0.79174 0.60745 0.69642
 C210 C 0.74031 0.60810 0.69195
 H211 H 0.70836 0.63863 0.72578
 H212 H 0.71071 0.63566 0.79433
 H213 H 0.80053 0.62171 0.71809
 H214 H 0.74845 0.56047 0.86677
 H215 H 0.80331 0.55874 0.86251
 H216 H 0.90703 0.62463 0.77640
 H217 H 0.90447 0.62680 0.70781
 H218 H 0.74252 0.57430 0.63157
 H219 H 0.80257 0.61909 0.78353
 H220 H 0.79639 0.57081 0.62690
 C221 C 0.46831 0.32147 0.78123
 C222 C 0.46097 0.32109 0.74678
 C223 C 0.44745 0.29057 0.73626
 N224 N 0.44598 0.27230 0.76319
 C225 C 0.45883 0.29113 0.79072
 C226 C 0.43568 0.27999 0.70258
 C227 C 0.42768 0.25003 0.69057
 C228 C 0.41265 0.23781 0.65926
 C229 C 0.41222 0.20974 0.65549
 C230 C 0.42659 0.20543 0.68480
 N231 N 0.43599 0.23005 0.70600
 C232 C 0.43313 0.18042 0.68979
 C233 C 0.43727 0.17067 0.72324
 C234 C 0.44187 0.14530 0.72989
 C235 C 0.44227 0.14255 0.76524
 C236 C 0.43991 0.16744 0.77947
 N237 N 0.43599 0.18407 0.75362
 C238 C 0.44112 0.17420 0.81564
 C239 C 0.44486 0.20279 0.82918
 C240 C 0.44572 0.20974 0.86436
 C241 C 0.45112 0.23968 0.86682
 C242 C 0.45397 0.25071 0.83322
 N243 N 0.45052 0.22825 0.81049
 C244 C 0.46085 0.28130 0.82472
 H245 H 0.47938 0.34181 0.79742
 H246 H 0.46532 0.34104 0.73119
 H247 H 0.45480 0.23116 0.78405
 H248 H 0.40366 0.24835 0.64063
 H249 H 0.40271 0.19434 0.63353
 H250 H 0.44430 0.12982 0.71158
 H251 H 0.44435 0.12415 0.77837
 H252 H 0.45315 0.25202 0.89078
 H253 H 0.45118 0.23472 0.72707
 H254 H 0.44365 0.19533 0.88645
 C255 C 0.68677 0.12894 0.76052
 C256 C 0.68632 0.12941 0.72491
 C257 C 0.71684 0.15061 0.71417
 N258 N 0.73588 0.16311 0.74202
 C259 C 0.71750 0.14994 0.77038
 C260 C 0.72716 0.15676 0.67916
 C261 C 0.75654 0.18199 0.66911
 C262 C 0.77111 0.18545 0.63689
 C263 C 0.79804 0.21383 0.63699
 C264 C 0.79899 0.22695 0.66918
 N265 N 0.77356 0.20742 0.68851
 C266 C 0.82165 0.25703 0.67922
 C267 C 0.82429 0.26792 0.71363
 C268 C 0.84028 0.29868 0.72322
 C269 C 0.83879 0.29934 0.75878
 C270 C 0.82238 0.26890 0.76975
 N271 N 0.81349 0.24974 0.74208
 C272 C 0.81761 0.25901 0.80477
 C273 C 0.79734 0.22810 0.81437
 C274 C 0.79768 0.21515 0.84628
 C275 C 0.77254 0.18569 0.84623
 C276 C 0.75749 0.18160 0.81437
 N277 N 0.77287 0.20750 0.79507
 C278 C 0.72860 0.15562 0.80499
 H279 H 0.66669 0.11488 0.77721
 H280 H 0.66581 0.11571 0.70882
 H281 H 0.76464 0.21234 0.77206
 H282 H 0.76305 0.16930 0.61549
 H283 H 0.81471 0.22384 0.61561
 H284 H 0.85168 0.31858 0.70631
 H285 H 0.84884 0.31991 0.77464
 H286 H 0.76572 0.16938 0.86751
 H287 H 0.76619 0.21253 0.71201
 H288 H 0.81407 0.22596 0.86753
 C289 C 0.06321 0.46615 0.05534
 C290 C 0.07554 0.45170 0.07752
 C291 C 0.05754 0.41976 0.08445
 C292 C 0.02687 0.40313 0.07011
 C293 C 0.01429 0.41802 0.04899
 C294 C 0.03260 0.44944 0.04111
 C295 C 0.07039 0.40512 0.10580
 C296 C 0.10040 0.42230 0.12141
 C297 C 0.11760 0.45452 0.11563
 C298 C 0.10539 0.46886 0.09320
 C299 C 0.14662 0.47203 0.13277
 C300 C 0.15845 0.45785 0.15562
 C301 C 0.14221 0.42579 0.16075
 C302 C 0.11329 0.40800 0.14328
 H303 H 0.07714 0.49056 0.04960
 H304 H 0.01258 0.37872 0.07537
 H305 H -0.00940 0.40488 0.03812
 H306 H 0.05683 0.38054 0.11074
 H307 H 0.11887 0.49348 0.08841
 H308 H 0.15989 0.49676 0.12895
 H309 H 0.18057 0.47190 0.16926
 H310 H 0.10068 0.38324 0.14720
 C311 C 0.51806 0.59988 0.07396
 C312 C 0.53003 0.62655 0.09467
 C313 C 0.56259 0.64111 0.10464
 C314 C 0.58250 0.62861 0.09405
 C315 C 0.57015 0.60155 0.07447
 C316 C 0.53792 0.58697 0.06430
 C317 C 0.57456 0.66743 0.12576
 C318 C 0.55416 0.67879 0.13813
 C319 C 0.52147 0.66398 0.12866
 C320 C 0.50975 0.63831 0.10649
 C321 C 0.50088 0.67466 0.14226
 C322 C 0.51239 0.69933 0.16558
 C323 C 0.54481 0.71422 0.17494
 C324 C 0.56572 0.70418 0.16073
 H325 H 0.49305 0.58848 0.06656
 H326 H 0.60746 0.63938 0.10155
 H327 H 0.58584 0.59196 0.06720
 H328 H 0.59954 0.67855 0.13335
 H329 H 0.48469 0.62698 0.09924
 H330 H 0.47574 0.66351 0.13546
 H331 H 0.49598 0.70674 0.17659
 H332 H 0.59070 0.71554 0.16824
 C333 C 0.41338 0.92188 0.05806
 C334 C 0.38807 0.90185 0.07965
 C335 C 0.37169 0.91370 0.10060
 C336 C 0.38020 0.94511 0.09882
 C337 C 0.40581 0.96495 0.07793
 C338 C 0.42309 0.95370 0.05797
 C339 C 0.34791 0.89426 0.12393
 C340 C 0.34066 0.86320 0.12712
 C341 C 0.35646 0.85112 0.10560
 C342 C 0.37987 0.87045 0.08180
 C343 C 0.34913 0.82003 0.10887
 C344 C 0.32702 0.80131 0.13384
 C345 C 0.31192 0.81337 0.15588
 C346 C 0.31843 0.84420 0.15211
 H347 H 0.42672 0.91300 0.04302
 H348 H 0.36780 0.95455 0.11454
 H349 H 0.41273 0.98934 0.07820
 H350 H 0.33574 0.90352 0.14035
 H351 H 0.39235 0.86128 0.06574
 H352 H 0.36089 0.81033 0.09253
 H353 H 0.32206 0.77750 0.13646
 H354 H 0.30660 0.85341 0.16908
 C355 C 0.92872 0.54250 0.55303
 C356 C 0.91550 0.55214 0.58021
 C357 C 0.91496 0.54122 0.61437
 C358 C 0.92894 0.52215 0.62112
 C359 C 0.94282 0.51343 0.59419
 C360 C 0.94231 0.52302 0.55995
 C361 C 0.90024 0.54928 0.64124
 C362 C 0.88672 0.56877 0.63468
 C363 C 0.88866 0.58106 0.60101
 C364 C 0.90272 0.57237 0.57384
 C365 C 0.87621 0.60158 0.59510
 C366 C 0.86134 0.60928 0.62210
 C367 C 0.85800 0.59603 0.65524
 C368 C 0.87099 0.57592 0.66130
 H369 H 0.92859 0.55019 0.52665
 H370 H 0.92896 0.51380 0.64718
 H371 H 0.95309 0.49831 0.59995
 H372 H 0.89923 0.54032 0.66725
 H373 H 0.90361 0.58124 0.54783
 H374 H 0.87779 0.61153 0.56958
 H375 H 0.85178 0.62507 0.61698
 H376 H 0.86833 0.56538 0.68669
 C377 C 0.45295 0.41193 0.57431
 C378 C 0.45120 0.38603 0.59159
 C379 C 0.47253 0.37444 0.58236
 C380 C 0.49455 0.38841 0.55522
 C381 C 0.49631 0.41437 0.53832
 C382 C 0.47600 0.42676 0.54814
 C383 C 0.47212 0.34971 0.60105
 C384 C 0.45101 0.33678 0.62919
 C385 C 0.42912 0.34791 0.63782
 C386 C 0.42918 0.37227 0.61877
 C387 C 0.40816 0.33510 0.66607
 C388 C 0.40964 0.31226 0.68640
 C389 C 0.43193 0.30178 0.67866
 C390 C 0.45213 0.31363 0.64963
 H391 H 0.43702 0.42113 0.58208
 H392 H 0.51097 0.37974 0.54767
 H393 H 0.51423 0.42527 0.51820
 H394 H 0.48884 0.34113 0.59434
 H395 H 0.41275 0.38111 0.62577
 H396 H 0.39118 0.34327 0.67295
 H397 H 0.39393 0.30323 0.70874
 H398 H 0.46942 0.30556 0.64381
 C399 C 0.58943 0.06369 0.54634
 C400 C 0.61664 0.08449 0.56462
 C401 C 0.62776 0.11659 0.56091
 C402 C 0.61234 0.12731 0.53780
 C403 C 0.58548 0.10645 0.51941
 C404 C 0.57340 0.07452 0.52407
 C405 C 0.65357 0.13738 0.58097
 C406 C 0.66831 0.12647 0.60478
 C407 C 0.65808 0.09443 0.60736
 C408 C 0.63237 0.07366 0.58720
 C409 C 0.67307 0.08361 0.63093
 C410 C 0.69683 0.10416 0.65302
 C411 C 0.70588 0.13579 0.65195
 C412 C 0.69228 0.14697 0.62704
 H413 H 0.58049 0.03908 0.54978
 H414 H 0.62067 0.15182 0.53444
 H415 H 0.57353 0.11532 0.50237
 H416 H 0.66161 0.16196 0.57872
 H417 H 0.62407 0.04906 0.58978
 H418 H 0.66575 0.05919 0.63302
 H419 H 0.70731 0.09529 0.67198
 H420 H 0.69929 0.17140 0.62620
 C421 C 0.46181 0.05903 0.94418
 C422 C 0.45954 0.07700 0.91701
 C423 C 0.47887 0.08247 0.88702
 C424 C 0.49651 0.06642 0.88249
 C425 C 0.49635 0.04635 0.90825
 C426 C 0.48062 0.04391 0.94016
 C427 C 0.48032 0.10398 0.86219
 C428 C 0.46033 0.11777 0.86532
 C429 C 0.43758 0.10876 0.89258
 C430 C 0.43832 0.08955 0.91920
 C431 C 0.41448 0.11906 0.89257
 C432 C 0.41445 0.13861 0.86618
 C433 C 0.43912 0.15035 0.84114
 C434 C 0.46228 0.14002 0.84125
 H435 H 0.44869 0.05651 0.96819
 H436 H 0.51070 0.06963 0.85918
 H437 H 0.51099 0.03496 0.90435
 H438 H 0.49651 0.10952 0.84017
 H439 H 0.42214 0.08404 0.94122
 H440 H 0.39623 0.11168 0.91264
 H441 H 0.39601 0.14582 0.86620
 H442 H 0.48153 0.14897 0.82226
 C443 C 0.59919 0.55349 0.94772
 C444 C 0.62165 0.56361 0.92051
 C445 C 0.61111 0.56152 0.88583
 C446 C 0.57877 0.55233 0.87925
 C447 C 0.55683 0.54421 0.90668
 C448 C 0.56652 0.54337 0.94104
 C449 C 0.63305 0.56846 0.85839
 C450 C 0.66566 0.57924 0.86530
 C451 C 0.67660 0.58444 0.89998
 C452 C 0.65444 0.57578 0.92742
 C453 C 0.70950 0.59797 0.90660
 C454 C 0.73130 0.60528 0.87914
 C455 C 0.72056 0.59762 0.84472
 C456 C 0.68752 0.58477 0.83808
 H457 H 0.60727 0.55398 0.97416
 H458 H 0.57040 0.55126 0.85287
 H459 H 0.53191 0.53677 0.90069
 H460 H 0.62479 0.56560 0.83173
 H461 H 0.66270 0.57853 0.95407
 H462 H 0.71839 0.60286 0.93298
 H463 H 0.75663 0.61597 0.88492
 H464 H 0.67869 0.57851 0.81182
 C465 C 0.92813 0.39856 0.92479
 C466 C 0.91320 0.37314 0.90255
 C467 C 0.93134 0.36800 0.87647
 C468 C 0.96408 0.38834 0.87315
 C469 C 0.97868 0.41392 0.89495
 C470 C 0.96091 0.41952 0.92092
 C471 C 0.91633 0.34304 0.85366
 C472 C 0.88324 0.32366 0.85596
 C473 C 0.86507 0.32881 0.88203
 C474 C 0.88025 0.35323 0.90547
 C475 C 0.83185 0.30992 0.88364
 C476 C 0.81661 0.28684 0.85890
 C477 C 0.83438 0.28193 0.83257
 C478 C 0.86782 0.29985 0.83184
 H479 H 0.91390 0.40235 0.94454
 H480 H 0.97834 0.38475 0.85330
 H481 H 1.00396 0.42939 0.89127
 H482 H 0.93023 0.33921 0.83353
 H483 H 0.86628 0.35725 0.92536
 H484 H 0.81757 0.31352 0.90343
 H485 H 0.79080 0.27318 0.85981
 H486 H 0.88160 0.29592 0.81167
 C487 C 0.54485 0.96322 0.43088
 C488 C 0.55477 0.94736 0.40749
 C489 C 0.55085 0.94971 0.37141
 C490 C 0.54016 0.97017 0.35921
 C491 C 0.53187 0.98708 0.38257
 C492 C 0.53264 0.98272 0.41865
 C493 C 0.55717 0.93119 0.34818
 C494 C 0.56874 0.91139 0.36046
 C495 C 0.57576 0.91135 0.39608
 C496 C 0.56808 0.92884 0.41955
 C497 C 0.58994 0.89346 0.40757
 C498 C 0.59586 0.87483 0.38420
 C499 C 0.58611 0.87246 0.34936
 C500 C 0.57302 0.89134 0.33767
 H501 H 0.54656 0.96025 0.45859
 H502 H 0.53770 0.97273 0.33158
 H503 H 0.52289 1.00207 0.37222
 H504 H 0.55286 0.93202 0.32063
 H505 H 0.57217 0.92784 0.44712
 H506 H 0.59631 0.89377 0.43463
 H507 H 0.60706 0.86142 0.39359
 H508 H 0.56555 0.89000 0.31086
 C509 C 0.39227 0.45335 0.44490
 C510 C 0.36954 0.44440 0.41815
 C511 C 0.37980 0.45374 0.38358
 C512 C 0.41257 0.47048 0.37608
 C513 C 0.43502 0.47876 0.40271
 C514 C 0.42509 0.47089 0.43737
 C515 C 0.35717 0.44664 0.35711
 C516 C 0.32439 0.42983 0.36461
 C517 C 0.31410 0.41911 0.39879
 C518 C 0.33674 0.42670 0.42544
 C519 C 0.28129 0.40130 0.40575
 C520 C 0.25887 0.39474 0.37926
 C521 C 0.26881 0.40644 0.34555
 C522 C 0.30172 0.42386 0.33845
 H523 H 0.38445 0.44696 0.47156
 H524 H 0.42084 0.47759 0.34970
 H525 H 0.46016 0.49237 0.39632
 H526 H 0.36507 0.45442 0.33076
 H527 H 0.32883 0.41909 0.45183
 H528 H 0.27295 0.39259 0.43169
 H529 H 0.23365 0.38100 0.38519
 H530 H 0.30963 0.43315 0.31258
 C531 C 0.06475 0.57571 0.43976
 C532 C 0.08468 0.59973 0.41728
 C533 C 0.07196 0.61636 0.39869
 C534 C 0.03989 0.60932 0.40362
 C535 C 0.02010 0.58500 0.42534
 C536 C 0.03211 0.56757 0.44304
 C537 C 0.09112 0.63901 0.37459
 C538 C 0.12273 0.64496 0.36834
 C539 C 0.13574 0.62884 0.38743
 C540 C 0.11670 0.60649 0.41195
 C541 C 0.16744 0.63496 0.38116
 C542 C 0.18585 0.65639 0.35578
 C543 C 0.17282 0.67190 0.33628
 C544 C 0.14138 0.66636 0.34281
 H545 H 0.07415 0.56219 0.45300
 H546 H 0.02979 0.62192 0.38973
 H547 H -0.00494 0.57922 0.42753
 H548 H 0.08117 0.65142 0.36003
 H549 H 0.12654 0.59382 0.42618
 H550 H 0.17786 0.62294 0.39559
 H551 H 0.21018 0.66065 0.35099
 H552 H 0.13148 0.67854 0.32776
 C553 C 0.94945 0.54630 0.92291
 C554 C 0.93391 0.55537 0.89790
 C555 C 0.93450 0.54756 0.86258
 C556 C 0.95221 0.53256 0.85258
 C557 C 0.96841 0.52451 0.87744
 C558 C 0.96653 0.53061 0.91277
 C559 C 0.91706 0.55448 0.83790
 C560 C 0.89982 0.56999 0.84782
 C561 C 0.90089 0.57958 0.88266
 C562 C 0.91753 0.57181 0.90760
 C563 C 0.88502 0.59653 0.89200
 C564 C 0.86766 0.60331 0.86726
 C565 C 0.86499 0.59248 0.83296
 C566 C 0.88132 0.57585 0.82347
 H567 H 0.94817 0.55124 0.95017
 H568 H 0.95320 0.52670 0.82561
 H569 H 0.98132 0.51227 0.86923
 H570 H 0.91683 0.54771 0.81101
 H571 H 0.91761 0.57843 0.93452
 H572 H 0.88593 0.60446 0.91846
 H573 H 0.85564 0.61648 0.87510
 H574 H 0.87921 0.56705 0.79725
 C575 C 0.48805 0.41442 0.95714
 C576 C 0.47776 0.38893 0.93472
 C577 C 0.44792 0.37789 0.91775
 C578 C 0.42875 0.39221 0.92377
 C579 C 0.43945 0.41789 0.94546
 C580 C 0.46927 0.42946 0.96203
 C581 C 0.43805 0.35328 0.89431
 C582 C 0.45794 0.33996 0.88692
 C583 C 0.48768 0.35074 0.90401
 C584 C 0.49724 0.37494 0.92810
 C585 C 0.50767 0.33759 0.89606
 C586 C 0.49868 0.31460 0.87074
 C587 C 0.46947 0.30422 0.85328
 C588 C 0.44892 0.31658 0.86193
 H589 H 0.51120 0.42331 0.96958
 H590 H 0.40581 0.38401 0.91104
 H591 H 0.42447 0.42895 0.94897
 H592 H 0.41529 0.34504 0.88112
 H593 H 0.52017 0.38341 0.94097
 H594 H 0.53052 0.34552 0.90890
 H595 H 0.51472 0.30521 0.86430
 H596 H 0.42633 0.30849 0.84844
 C597 C 0.60536 0.05905 0.95169
 C598 C 0.63030 0.08039 0.93081
 C599 C 0.64095 0.11231 0.93531
 C600 C 0.62748 0.12234 0.96171
 C601 C 0.60245 0.10093 0.98218
 C602 C 0.59052 0.06911 0.97671
 C603 C 0.66398 0.13358 0.91258
 C604 C 0.67620 0.12329 0.88516
 C605 C 0.66647 0.09143 0.88152
 C606 C 0.64374 0.07021 0.90450
 C607 C 0.67895 0.08124 0.85428
 C608 C 0.69996 0.10226 0.83009
 C609 C 0.70869 0.13376 0.83264
 C610 C 0.69722 0.14423 0.86064
 H611 H 0.59651 0.03458 0.94727
 H612 H 0.63552 0.14673 0.96571
 H613 H 0.59152 0.10934 1.00127
 H614 H 0.67162 0.15803 0.91555
 H615 H 0.63574 0.04573 0.90120
 H616 H 0.67195 0.05695 0.85126
 H617 H 0.70887 0.09389 0.80882
 H618 H 0.70393 0.16855 0.86266
 C619 C 0.02706 0.44107 0.42572
 C620 C 0.04443 0.43449 0.40049
 C621 C 0.04377 0.44292 0.36553
 C622 C 0.02316 0.45485 0.35588
 C623 C 0.00459 0.45988 0.38096
 C624 C 0.00759 0.45454 0.41636
 C625 C 0.06400 0.43963 0.34100
 C626 C 0.08348 0.42639 0.35068
 C627 C 0.08164 0.41514 0.38485
 C628 C 0.06279 0.42000 0.40980
 C629 C 0.09886 0.39939 0.39350
 C630 C 0.11807 0.39516 0.36864
 C631 C 0.12183 0.40803 0.33520
 C632 C 0.10464 0.42405 0.32668
 H633 H 0.02889 0.43585 0.45275
 H634 H 0.02181 0.46079 0.32904
 H635 H -0.01034 0.47002 0.37284
 H636 H 0.06450 0.44722 0.31443
 H637 H 0.06240 0.41253 0.43641
 H638 H 0.09725 0.39008 0.41939
 H639 H 0.13058 0.38232 0.37576
 H640 H 0.10770 0.43473 0.30136
 C641 C 0.53171 0.60712 0.45720
 C642 C 0.53411 0.63243 0.43806
 C643 C 0.50702 0.63727 0.43457
 C644 C 0.47853 0.61770 0.45200
 C645 C 0.47645 0.59273 0.47137
 C646 C 0.50270 0.58675 0.47328
 C647 C 0.50860 0.66100 0.41300
 C648 C 0.53701 0.68007 0.39510
 C649 C 0.56457 0.67622 0.40013
 C650 C 0.56292 0.65239 0.42148
 C651 C 0.59318 0.69579 0.38295
 C652 C 0.59423 0.71830 0.36010
 C653 C 0.56667 0.72140 0.35381
 C654 C 0.53814 0.70244 0.37159
 H655 H 0.55215 0.60279 0.45885
 H656 H 0.45761 0.62121 0.44990
 H657 H 0.45384 0.57724 0.48350
 H658 H 0.48758 0.66420 0.40959
 H659 H 0.58383 0.64894 0.42455
 H660 H 0.61456 0.69329 0.38667
 H661 H 0.61631 0.73274 0.34638
 H662 H 0.51679 0.70466 0.36644
 C663 C 0.40294 0.92683 0.43436
 C664 C 0.37931 0.90613 0.41191
 C665 C 0.36488 0.91731 0.38757
 C666 C 0.37382 0.94887 0.38663
 C667 C 0.39786 0.96938 0.40850
 C668 C 0.41302 0.95866 0.43212
 C669 C 0.34255 0.89699 0.36380
 C670 C 0.33500 0.86574 0.36353
 C671 C 0.34907 0.85444 0.38820
 C672 C 0.37087 0.87465 0.41246
 C673 C 0.34167 0.82322 0.38765
 C674 C 0.32117 0.80354 0.36236
 C675 C 0.30762 0.81472 0.33740
 C676 C 0.31422 0.84573 0.33839
 H677 H 0.41466 0.91833 0.45225
 H678 H 0.36294 0.95782 0.36824
 H679 H 0.40513 0.99378 0.40634
 H680 H 0.33179 0.90566 0.34488
 H681 H 0.38195 0.86604 0.43108
 H682 H 0.35217 0.81416 0.40637
 H683 H 0.31620 0.77964 0.36186
 H684 H 0.30365 0.85429 0.31914
 C685 C 0.56051 0.96447 0.08169
 C686 C 0.56740 0.94847 0.10767
 C687 C 0.55734 0.94896 0.14223
 C688 C 0.54242 0.96700 0.15058
 C689 C 0.53587 0.98306 0.12458
 C690 C 0.54390 0.98109 0.08982
 C691 C 0.56135 0.93060 0.16760
 C692 C 0.57538 0.91187 0.15884
 C693 C 0.58718 0.91275 0.12481
 C694 C 0.58305 0.93103 0.09937
 C695 C 0.60209 0.89465 0.11660
 C696 C 0.60422 0.87498 0.14153
 C697 C 0.59095 0.87270 0.17480
 C698 C 0.57699 0.89161 0.18339
 H699 H 0.56706 0.96311 0.05494
 H700 H 0.53487 0.96788 0.17701
 H701 H 0.52301 0.99569 0.13138
 H702 H 0.55279 0.93027 0.19388
 H703 H 0.59120 0.93102 0.07298
 H704 H 0.61160 0.89530 0.09076
 H705 H 0.61538 0.86083 0.13459
 H706 H 0.56657 0.88988 0.20899
 C707 C 0.40568 0.45038 0.07833
 C708 C 0.38167 0.44009 0.10394
 C709 C 0.38971 0.45044 0.13857
 C710 C 0.42187 0.46920 0.14741
 C711 C 0.44572 0.47869 0.12187
 C712 C 0.43763 0.47007 0.08713
 C713 C 0.36543 0.44256 0.16355
 C714 C 0.33330 0.42410 0.15443
 C715 C 0.32547 0.41203 0.12042
 C716 C 0.34970 0.42027 0.09530
 C717 C 0.29339 0.39261 0.11188
 C718 C 0.26915 0.38638 0.13632
 C719 C 0.27653 0.39999 0.16941
 C720 C 0.30878 0.41831 0.17851
 H721 H 0.39953 0.44349 0.05149
 H722 H 0.42848 0.47705 0.17388
 H723 H 0.47031 0.49393 0.12893
 H724 H 0.37147 0.45132 0.18984
 H725 H 0.34362 0.41183 0.06890
 H726 H 0.28699 0.38279 0.08610
 H727 H 0.24446 0.37195 0.12897
 H728 H 0.31469 0.42902 0.20393
 C729 C 0.07747 0.57778 0.04346
 C730 C 0.09383 0.59920 0.06968
 C731 C 0.07648 0.60707 0.09419
 C732 C 0.04301 0.59339 0.09189
 C733 C 0.02683 0.57146 0.06618
 C734 C 0.04388 0.56332 0.04190
 C735 C 0.09281 0.62793 0.12099
 C736 C 0.12618 0.64050 0.12394
 C737 C 0.14341 0.63245 0.09943
 C738 C 0.12718 0.61210 0.07232
 C739 C 0.17665 0.64463 0.10261
 C740 C 0.19273 0.66454 0.12988
 C741 C 0.17593 0.67279 0.15428
 C742 C 0.14262 0.66079 0.15117
 H743 H 0.09085 0.57136 0.02519
 H744 H 0.02931 0.59910 0.11045
 H745 H 0.00093 0.56056 0.06554
 H746 H 0.07952 0.63395 0.13984
 H747 H 0.14044 0.60590 0.05362
 H748 H 0.19019 0.63864 0.08410
 H749 H 0.21842 0.67365 0.13199
 H750 H 0.12967 0.66727 0.16996
 C751 C 0.46042 0.08078 0.54516
 C752 C 0.44924 0.09392 0.57062
 C753 C 0.42544 0.07471 0.59454
 C754 C 0.41340 0.04262 0.59262
 C755 C 0.42558 0.02979 0.56797
 C756 C 0.44922 0.04877 0.54416
 C757 C 0.41496 0.08795 0.62071
 C758 C 0.42922 0.12016 0.62431
 C759 C 0.45337 0.13924 0.60060
 C760 C 0.46259 0.12603 0.57342
 C761 C 0.46883 0.17125 0.60517
 C762 C 0.46159 0.18423 0.63388
 C763 C 0.43804 0.16561 0.65801
 C764 C 0.42088 0.13362 0.65219
 H765 H 0.47904 0.09562 0.52722
 H766 H 0.39527 0.02751 0.61079
 H767 H 0.41664 0.00504 0.56760
 H768 H 0.39678 0.07324 0.63913
 H769 H 0.48116 0.14075 0.55534
 H770 H 0.48740 0.18619 0.58727
 H771 H 0.47494 0.20893 0.63773
 H772 H 0.40218 0.11918 0.67024
 C773 C 0.58769 0.56275 0.57551
 C774 C 0.61133 0.57144 0.60121
 C775 C 0.60244 0.56072 0.63568
 C776 C 0.56995 0.54310 0.64425
 C777 C 0.54655 0.53502 0.61863
 C778 C 0.55527 0.54402 0.58395
 C779 C 0.62616 0.56710 0.66076
 C780 C 0.65864 0.58437 0.65191
 C781 C 0.66744 0.59664 0.61800
 C782 C 0.64374 0.58996 0.59280
 C783 C 0.69990 0.61478 0.60965
 C784 C 0.72348 0.61971 0.63423
 C785 C 0.71509 0.60612 0.66735
 C786 C 0.68250 0.58890 0.67618
 H787 H 0.59454 0.57003 0.54883
 H788 H 0.56270 0.53495 0.67060
 H789 H 0.52171 0.52051 0.62565
 H790 H 0.61937 0.55813 0.68694
 H791 H 0.65055 0.59863 0.56652
 H792 H 0.70707 0.62470 0.58394
 H793 H 0.74842 0.63339 0.62705
 H794 H 0.67575 0.57820 0.70160
 C795 C 0.92295 0.39153 0.54867
 C796 C 0.90084 0.36489 0.56620
 C797 C 0.86773 0.35296 0.55977
 C798 C 0.85743 0.36722 0.53490
 C799 C 0.87960 0.39373 0.51755
 C800 C 0.91248 0.40652 0.52478
 C801 C 0.84545 0.32757 0.57898
 C802 C 0.85589 0.31419 0.60480
 C803 C 0.88910 0.32551 0.61032
 C804 C 0.91132 0.35063 0.59084
 C805 C 0.89956 0.31220 0.63610
 C806 C 0.87740 0.28888 0.65734
 C807 C 0.84445 0.27835 0.65303
 C808 C 0.83372 0.29049 0.62614
 H809 H 0.94825 0.40101 0.55431
 H810 H 0.83217 0.35830 0.52946
 H811 H 0.87088 0.40476 0.49923
 H812 H 0.82003 0.31883 0.57455
 H813 H 0.93673 0.35965 0.59562
 H814 H 0.92488 0.32047 0.64055
 H815 H 0.88594 0.27968 0.67802
 H816 H 0.80827 0.28245 0.62296
   
