data_POSCAR
  _audit_creation_date              2014-09-24
  _audit_creation_method            'ToBaCCo'
  _symmetry_space_group_name_H-M    'P1'
  _symmetry_Int_Tables_number       1
  _symmetry_cell_setting            triclinic
  loop_
  _symmetry_equiv_pos_as_xyz
 x,y,z
_cell_length_a 34.4924
_cell_length_b 33.9295
_cell_length_c 10.6010
_cell_angle_alpha 89.871500
_cell_angle_beta 89.915500
_cell_angle_gamma 120.698100
loop_
  _atom_site_label
  _atom_site_type_symbol
  _atom_site_fract_x
  _atom_site_fract_y
  _atom_site_fract_z
C1 C 0.24135 0.56290 0.48298
 C2 C 0.25625 0.56974 0.61126
 C3 C 0.29728 0.57207 0.63823
 C4 C 0.32597 0.57279 0.54329
 C5 C 0.31302 0.56994 0.41536
 C6 C 0.26986 0.56243 0.38794
 H7 H 0.25957 0.55897 0.28996
 H8 H 0.30772 0.57416 0.73566
 C9 C 0.55626 -0.25734 0.42799
 C10 C 0.56637 -0.24576 0.55678
 C11 C 0.55066 -0.21951 0.61584
 C12 C 0.52056 -0.20970 0.55332
 C13 C 0.50795 -0.22440 0.42736
 C14 C 0.52563 -0.24830 0.36690
 H15 H 0.51773 -0.25718 0.26821
 H16 H 0.55756 -0.21151 0.71526
 C17 C 1.23982 0.79648 0.40081
 C18 C 1.25443 0.80941 0.52739
 C19 C 1.22305 0.78959 0.62637
 C20 C 1.17836 0.75411 0.60543
 C21 C 1.16462 0.73941 0.47995
 C22 C 1.19492 0.76144 0.38077
 H23 H 1.18227 0.75118 0.28592
 H24 H 1.23501 0.79899 0.72226
 C25 C 0.74355 0.42624 0.40376
 C26 C 0.75938 0.43658 0.52949
 C27 C 0.73490 0.44577 0.61887
 C28 C 0.69349 0.44245 0.58815
 C29 C 0.68090 0.43719 0.45946
 C30 C 0.70582 0.42888 0.36965
 H31 H 0.69461 0.42273 0.27231
 H32 H 0.74666 0.45213 0.71560
 C33 C 0.46190 0.27785 0.49699
 C34 C 0.44997 0.25886 0.62116
 C35 C 0.46028 0.22474 0.65452
 C36 C 0.48346 0.21181 0.57069
 C37 C 0.48664 0.22452 0.44269
 C38 C 0.47627 0.25781 0.40762
 H39 H 0.48176 0.27006 0.31093
 H40 H 0.45597 0.21255 0.75071
 C41 C 0.73863 0.18248 0.48058
 C42 C 0.75466 0.19728 0.60364
 C43 C 0.79957 0.23277 0.61949
 C44 C 0.82699 0.25649 0.51495
 C45 C 0.81282 0.23694 0.39182
 C46 C 0.76875 0.19900 0.37911
 H47 H 0.75562 0.18453 0.28759
 H48 H 0.81143 0.24538 0.71377
 O49 O 0.92039 0.50141 -0.24251
 O50 O 0.88724 0.42945 -0.15417
 C51 C 0.88782 0.45884 -0.23287
 O52 O 1.09936 0.50910 -0.19224
 O53 O 1.12136 0.56607 -0.04469
 C54 C 1.12972 0.54544 -0.13492
 O55 O 0.98342 0.41479 -0.27384
 O56 O 0.91659 0.38729 -0.16604
 C57 C 0.94043 0.38657 -0.25937
 O58 O 1.03440 0.60621 -0.17365
 O59 O 1.08929 0.61402 -0.03583
 C60 C 1.07374 0.62971 -0.12100
 Zr61 Zr 0.98289 0.53697 -0.14253
 O62 O 0.98945 0.55134 -0.33858
 O63 O 0.95278 0.57704 -0.11410
 Zr64 Zr 1.02951 0.47021 -0.15912
 O65 O 1.04560 0.48526 -0.35255
 O66 O 1.05424 0.42463 -0.15704
 O67 O 0.97178 0.47313 -0.19488
 O68 O 1.04294 0.53685 -0.15311
 O69 O 1.00815 0.57699 0.26579
 O70 O 1.07700 0.60046 0.17419
 C71 C 1.05111 0.60515 0.25472
 O72 O 0.96062 0.37908 0.18460
 O73 O 0.90716 0.37203 0.04310
 C74 C 0.92203 0.35545 0.12725
 O75 O 1.07637 0.48366 0.24913
 O76 O 1.10880 0.55643 0.16588
 C77 C 1.10848 0.52655 0.24234
 O78 O 0.89725 0.47330 0.21156
 O79 O 0.87495 0.41689 0.06272
 C80 C 0.86695 0.43646 0.15630
 Zr81 Zr 0.96605 0.51544 0.16928
 O82 O 0.95932 0.50645 0.36725
 O83 O 0.93316 0.55375 0.17366
 Zr84 Zr 1.01300 0.44849 0.15233
 O85 O 1.00455 0.43124 0.34611
 O86 O 1.04106 0.40628 0.12495
 Zr87 Zr 0.93760 0.43859 -0.02851
 Zr88 Zr 1.05838 0.54745 0.04012
 O89 O 1.02298 0.51198 0.20391
 O90 O 0.95207 0.44776 0.16587
 O91 O 1.00736 0.56417 0.03544
 O92 O 0.98909 0.42267 -0.02583
 O93 O 0.93563 0.49906 -0.00572
 O94 O 1.06128 0.48732 0.01631
 H95 H 1.06575 0.55773 -0.21515
 H96 H 0.98133 0.39080 -0.04363
 H97 H 1.03644 0.52377 0.28784
 H98 H 0.90639 0.49782 -0.01298
 H99 H 1.06153 0.42195 -0.24589
 H100 H 1.07274 0.42622 0.09747
 H101 H 1.00200 0.45539 0.39040
 H102 H 0.94444 0.47317 0.38363
 H103 H 0.95280 0.58309 0.12932
 H104 H 0.95110 0.58859 -0.19860
 H105 H 1.01935 0.55718 -0.36590
 H106 H 1.02248 0.49093 -0.38886
 O107 O 0.58722 0.50602 0.24139
 O108 O 0.55055 0.43843 0.13176
 C109 C 0.57741 0.46415 0.21947
 O110 O 0.41616 0.51499 0.20720
 O111 O 0.45239 0.57675 0.07398
 C112 C 0.42215 0.55284 0.15916
 O113 O 0.44156 0.42204 0.26762
 O114 O 0.48021 0.39753 0.14582
 C115 C 0.45764 0.39554 0.24583
 O116 O 0.58317 0.61353 0.19281
 O117 O 0.53297 0.62492 0.07966
 C118 C 0.56609 0.63799 0.15857
 Zr119 Zr 0.56262 0.54537 0.15111
 O120 O 0.56719 0.55266 0.34994
 O121 O 0.63395 0.58272 0.13910
 Zr122 Zr 0.44871 0.47823 0.16199
 O123 O 0.44705 0.48848 0.35816
 O124 O 0.37885 0.42911 0.16550
 O125 O 0.50951 0.48054 0.18973
 O126 O 0.50216 0.54478 0.17051
 O127 O 0.57973 0.60284 -0.23798
 O128 O 0.53224 0.62009 -0.13160
 C129 C 0.56418 0.62977 -0.21158
 O130 O 0.42778 0.39844 -0.20116
 O131 O 0.47464 0.38775 -0.07056
 C132 C 0.44286 0.37344 -0.15302
 O133 O 0.41783 0.50475 -0.23529
 O134 O 0.45779 0.57493 -0.13771
 C135 C 0.42865 0.54718 -0.21873
 O136 O 0.58728 0.49534 -0.22407
 O137 O 0.55288 0.43477 -0.08540
 C138 C 0.58126 0.45744 -0.17574
 Zr139 Zr 0.55987 0.53591 -0.16601
 O140 O 0.55727 0.53376 -0.36546
 O141 O 0.63120 0.57381 -0.17294
 Zr142 Zr 0.44591 0.46723 -0.15484
 O143 O 0.44283 0.46231 -0.35382
 O144 O 0.37522 0.42277 -0.14197
 Zr145 Zr 0.51038 0.45193 0.01426
 Zr146 Zr 0.49805 0.56172 -0.01752
 O147 O 0.49940 0.53278 -0.19249
 O148 O 0.50645 0.46773 -0.17581
 O149 O 0.56616 0.57886 -0.01737
 O150 O 0.44276 0.43565 0.01574
 O151 O 0.57296 0.51330 0.00156
 O152 O 0.43488 0.50060 -0.00630
 H153 H 0.49972 0.56358 0.23784
 H154 H 0.41875 0.40323 0.02821
 H155 H 0.49837 0.54744 -0.27233
 H156 H 0.60102 0.51207 0.00628
 H157 H 0.36377 0.44077 0.11038
 H158 H 0.36219 0.44085 -0.10939
 H159 H 0.46323 0.45137 -0.38020
 H160 H 0.54027 0.50112 -0.39014
 H161 H 0.64137 0.60275 -0.12679
 H162 H 0.64300 0.61020 0.08641
 H163 H 0.54792 0.56475 0.37810
 H164 H 0.47681 0.49600 0.39166
 O165 O 0.46360 0.07087 0.21757
 O166 O 0.53226 0.11544 0.12104
 C167 C 0.49971 0.11033 0.19237
 O168 O 0.50836 -0.08267 0.24158
 O169 O 0.45072 -0.12316 0.10182
 C170 C 0.47624 -0.12072 0.19480
 O171 O 0.58196 0.04393 0.28341
 O172 O 0.58690 0.10259 0.16239
 C173 C 0.59843 0.08695 0.25807
 O174 O 0.38182 -0.05844 0.18575
 O175 O 0.39048 -0.11109 0.07170
 C176 C 0.36773 -0.09974 0.14502
 Zr177 Zr 0.44361 0.00354 0.14717
 O178 O 0.43132 -0.00497 0.34385
 O179 O 0.39117 0.01799 0.12429
 Zr180 Zr 0.53104 -0.01398 0.18798
 O181 O 0.51688 -0.02407 0.38355
 O182 O 0.58923 -0.01907 0.21301
 O183 O 0.51091 0.03453 0.20025
 O184 O 0.46173 -0.04510 0.18142
 O185 O 0.40713 -0.04812 -0.25646
 O186 O 0.40331 -0.10682 -0.13841
 C187 C 0.39075 -0.09117 -0.23194
 O188 O 0.60905 0.05690 -0.17574
 O189 O 0.60106 0.10865 -0.05622
 C190 C 0.62314 0.09815 -0.13436
 O191 O 0.53228 -0.07232 -0.19334
 O192 O 0.46166 -0.11740 -0.10811
 C193 C 0.49515 -0.11140 -0.17734
 O194 O 0.48491 0.07688 -0.23182
 O195 O 0.54274 0.11878 -0.09344
 C196 C 0.51780 0.11500 -0.18974
 Zr197 Zr 0.46081 0.00984 -0.16801
 O198 O 0.46953 0.01074 -0.36582
 O199 O 0.40784 0.02367 -0.18927
 Zr200 Zr 0.54955 -0.00615 -0.12631
 O201 O 0.55950 -0.00621 -0.32333
 O202 O 0.60705 -0.01170 -0.09194
 Zr203 Zr 0.53770 0.06552 0.02380
 Zr204 Zr 0.45466 -0.06882 -0.00529
 O205 O 0.48267 -0.03633 -0.17885
 O206 O 0.53124 0.04265 -0.16365
 O207 O 0.42035 -0.03253 -0.02252
 O208 O 0.57088 0.02826 0.04301
 O209 O 0.47014 0.04705 -0.00575
 O210 O 0.52190 -0.05188 0.02475
 H211 H 0.44514 -0.06746 0.24982
 H212 H 0.60382 0.04524 0.05843
 H213 H 0.47484 -0.05422 -0.25801
 H214 H 0.46202 0.07109 -0.01195
 H215 H 0.58545 -0.04498 0.16110
 H216 H 0.59652 -0.04216 -0.05371
 H217 H 0.55920 0.02058 -0.35898
 H218 H 0.50123 0.03410 -0.38493
 H219 H 0.38013 -0.00265 -0.15374
 H220 H 0.36995 -0.00390 0.06158
 H221 H 0.45790 0.02037 0.38605
 H222 H 0.51261 0.00110 0.41282
 C223 C 1.20157 0.56126 0.44340
 C224 C 1.18706 0.58999 0.48708
 C225 C 1.14969 0.57931 0.41896
 C226 C 1.14405 0.54514 0.33795
 O227 O 1.17600 0.53477 0.34968
 H228 H 1.20299 0.61711 0.55608
 H229 H 1.12942 0.59524 0.42521
 C230 C 0.57620 0.72285 0.35764
 C231 C 0.61795 0.72793 0.38080
 C232 C 0.62203 0.70044 0.29578
 C233 C 0.58266 0.68076 0.22682
 O234 O 0.55530 0.69507 0.26211
 H235 H 0.64238 0.74863 0.45179
 H236 H 0.64885 0.69278 0.29125
 C237 C 0.26822 -0.18284 0.29484
 C238 C 0.26045 -0.20237 0.17561
 C239 C 0.29625 -0.17281 0.10406
 C240 C 0.32304 -0.13695 0.18263
 O241 O 0.30638 -0.14261 0.29814
 H242 H 0.23348 -0.23542 0.14447
 H243 H 0.30277 -0.17737 0.00682
 C244 C 0.76756 0.41576 0.30500
 C245 C 0.74728 0.38284 0.21237
 C246 C 0.78197 0.38444 0.14505
 C247 C 0.82064 0.41838 0.20146
 O248 O 0.81195 0.43735 0.29785
 H249 H 0.71155 0.36026 0.19647
 H250 H 0.77941 0.36422 0.06327
 C251 C 0.46489 0.32118 0.45905
 C252 C 0.49191 0.36222 0.51997
 C253 C 0.48736 0.39375 0.45389
 C254 C 0.46021 0.37031 0.35327
 O255 O 0.44757 0.32641 0.35324
 H256 H 0.51299 0.36837 0.60183
 H257 H 0.50528 0.43037 0.46971
 C258 C 0.69012 0.15835 0.45003
 C259 C 0.66249 0.17518 0.48256
 C260 C 0.62415 0.15028 0.41424
 C261 C 0.63123 0.12010 0.34601
 O262 O 0.67128 0.12504 0.36601
 H263 H 0.67056 0.20401 0.54306
 H264 H 0.59485 0.15408 0.41218
 C265 C 0.50756 0.19204 -0.38004
 C266 C 0.54919 0.20076 -0.42323
 C267 C 0.56129 0.17708 -0.34454
 C268 C 0.52633 0.15552 -0.25998
 O269 O 0.49392 0.16472 -0.28038
 H270 H 0.56897 0.22245 -0.50104
 H271 H 0.59050 0.17333 -0.35281
 C272 C 0.66435 0.44010 -0.31393
 C273 C 0.66408 0.42399 -0.19344
 C274 C 0.63010 0.42477 -0.13070
 C275 C 0.61246 0.44223 -0.21526
 O276 O 0.63289 0.45141 -0.32687
 H277 H 0.68518 0.41172 -0.15587
 H278 H 0.62082 0.41595 -0.03264
 C279 C 0.86435 0.30054 -0.46150
 C280 C 0.87780 0.33861 -0.53754
 C281 C 0.91266 0.37407 -0.47705
 C282 C 0.91598 0.35636 -0.36405
 O283 O 0.88585 0.31223 -0.35179
 H284 H 0.86162 0.34137 -0.62177
 H285 H 0.92935 0.40974 -0.50353
 C286 C 0.49912 -0.19120 -0.37754
 C287 C 0.45312 -0.20877 -0.37928
 C288 C 0.44577 -0.18321 -0.29529
 C289 C 0.48784 -0.15086 -0.25195
 O290 O 0.52040 -0.15611 -0.29942
 H291 H 0.42782 -0.23775 -0.43226
 H292 H 0.41367 -0.18663 -0.27166
 C293 C 0.36644 0.57638 -0.41787
 C294 C 0.40841 0.60420 -0.47185
 C295 C 0.43752 0.59790 -0.40007
 C296 C 0.41120 0.56682 -0.30844
 O297 O 0.36831 0.55407 -0.31754
 H298 H 0.41721 0.62755 -0.55078
 H299 H 0.47349 0.61338 -0.41403
 C300 C 1.14940 0.72997 -0.28327
 C301 C 1.15437 0.74910 -0.16481
 C302 C 1.12526 0.71404 -0.08808
 C303 C 1.10408 0.67643 -0.16550
 O304 O 1.11889 0.68568 -0.28303
 H305 H 1.17733 0.78412 -0.13652
 H306 H 1.12072 0.71541 0.01255
 C307 C 0.79510 0.43179 -0.42744
 C308 C 0.79798 0.39328 -0.44951
 C309 C 0.83268 0.39867 -0.37719
 C310 C 0.84974 0.44071 -0.32034
 O311 O 0.82616 0.46048 -0.34705
 H312 H 0.77528 0.36322 -0.50375
 H313 H 0.84313 0.37401 -0.36290
 C314 C 0.43225 0.27598 -0.28677
 C315 C 0.41913 0.25921 -0.16511
 C316 C 0.41429 0.29157 -0.10301
 C317 C 0.42379 0.32544 -0.19048
 O318 O 0.43305 0.31514 -0.30167
 H319 H 0.41649 0.22901 -0.12221
 H320 H 0.40960 0.29286 -0.00242
 C321 C 0.72405 0.17877 -0.28546
 C322 C 0.72820 0.20379 -0.17848
 C323 C 0.69132 0.17620 -0.10712
 C324 C 0.66739 0.13617 -0.17478
 O325 O 0.68713 0.13746 -0.28297
 H326 H 0.75385 0.23875 -0.15719
 H327 H 0.68234 0.18459 -0.01741
 C328 C 1.23104 0.57204 -0.28606
 C329 C 1.24948 0.59615 -0.17525
 C330 C 1.21399 0.59089 -0.10484
 C331 C 1.17643 0.56323 -0.17585
 O332 O 1.18652 0.55149 -0.28471
 H333 H 1.28473 0.61667 -0.15016
 H334 H 1.21526 0.60484 -0.01219
 C335 C 0.58253 0.72959 -0.36316
 C336 C 0.61928 0.74983 -0.28409
 C337 C 0.61998 0.71415 -0.22569
 C338 C 0.58356 0.67486 -0.27322
 O339 O 0.56049 0.68425 -0.35530
 H340 H 0.64199 0.78608 -0.26870
 H341 H 0.64240 0.71650 -0.15095
 C342 C 0.30261 -0.16348 -0.43571
 C343 C 0.33592 -0.17008 -0.48541
 C344 C 0.37325 -0.14354 -0.41492
 C345 C 0.35974 -0.12387 -0.32491
 O346 O 0.31700 -0.13566 -0.33690
 H347 H 0.33308 -0.19241 -0.56208
 H348 H 0.40649 -0.13872 -0.42809
 C349 C 0.48288 -0.20859 0.34954
 C350 C 0.44794 -0.23613 0.26944
 C351 C 0.43898 -0.20693 0.20437
 C352 C 0.46947 -0.16376 0.24880
 O353 O 0.49602 -0.16472 0.33713
 H354 H 0.43205 -0.27283 0.25725
 H355 H 0.41458 -0.21578 0.12961
 C356 C 0.34312 0.57406 0.30897
 C357 C 0.35453 0.60492 0.21095
 C358 C 0.38631 0.60168 0.14228
 C359 C 0.39172 0.56874 0.20259
 O360 O 0.36541 0.55177 0.30353
 H361 H 0.34221 0.62810 0.19424
 H362 H 0.40345 0.62093 0.05825
 C363 C 1.11988 0.70065 0.44420
 C364 C 1.07890 0.69261 0.48901
 C365 C 1.04736 0.65534 0.42392
 C366 C 1.07145 0.64409 0.34233
 O367 O 1.11535 0.67166 0.35392
 H368 H 1.07278 0.71194 0.55920
 H369 H 1.01110 0.63860 0.43381
 C370 C 0.49954 0.20279 0.34360
 C371 C 0.52887 0.22690 0.24674
 C372 C 0.53244 0.19504 0.17909
 C373 C 0.50466 0.15360 0.23855
 O374 O 0.48454 0.15810 0.33916
 H375 H 0.54617 0.26344 0.22916
 H376 H 0.55286 0.20122 0.09548
 C377 C 0.63792 0.43103 0.41544
 C378 C 0.60169 0.38808 0.39127
 C379 C 0.57430 0.39539 0.31578
 C380 C 0.59540 0.44232 0.30117
 O381 O 0.63451 0.46422 0.36025
 H382 H 0.59770 0.35531 0.41693
 H383 H 0.54326 0.36944 0.27269
 C384 C 0.84135 0.25595 0.27489
 C385 C 0.82509 0.24496 0.15256
 C386 C 0.85744 0.27794 0.07799
 C387 C 0.89139 0.30683 0.15855
 O388 O 0.88276 0.29207 0.27614
 H389 H 0.79197 0.21941 0.12012
 H390 H 0.85407 0.28353 -0.02102
   
