data_POSCAR
  _audit_creation_date              2014-09-24
  _audit_creation_method            'ToBaCCo'
  _symmetry_space_group_name_H-M    'P1'
  _symmetry_Int_Tables_number       1
  _symmetry_cell_setting            triclinic
  loop_
  _symmetry_equiv_pos_as_xyz
 x,y,z
_cell_length_a 48.6022
_cell_length_b 48.4896
_cell_length_c 22.4001
_cell_angle_alpha 89.780500
_cell_angle_beta 90.326100
_cell_angle_gamma 120.184300
loop_
  _atom_site_label
  _atom_site_type_symbol
  _atom_site_fract_x
  _atom_site_fract_y
  _atom_site_fract_z
C1 C 0.14726 0.44424 0.51318
 C2 C 0.16327 0.44842 0.45950
 C3 C 0.18910 0.44340 0.45661
 C4 C 0.19864 0.43259 0.50685
 C5 C 0.18157 0.42776 0.56094
 C6 C 0.15663 0.43448 0.56432
 C7 C 0.22727 0.42834 0.50317
 C8 C 0.24421 0.42947 0.55533
 C9 C 0.27197 0.42768 0.55215
 C10 C 0.28415 0.42600 0.49693
 C11 C 0.26836 0.42549 0.44439
 C12 C 0.23952 0.42552 0.44743
 H13 H 0.12783 0.44920 0.51542
 H14 H 0.20193 0.44880 0.41499
 H15 H 0.18755 0.41920 0.60076
 H16 H 0.23700 0.43312 0.59874
 H17 H 0.30664 0.42639 0.49477
 H18 H 0.22749 0.42408 0.40590
 C19 C 0.57776 -0.28534 0.50462
 C20 C 0.57611 -0.27314 0.44898
 C21 C 0.57387 -0.24556 0.44519
 C22 C 0.57438 -0.22890 0.49703
 C23 C 0.57713 -0.24111 0.55315
 C24 C 0.57768 -0.26976 0.55689
 C25 C 0.56934 -0.20074 0.49254
 C26 C 0.55700 -0.19231 0.54157
 C27 C 0.55103 -0.16707 0.53763
 C28 C 0.55590 -0.15053 0.48418
 C29 C 0.56726 -0.15876 0.43427
 C30 C 0.57480 -0.18315 0.43864
 H31 H 0.57771 -0.30774 0.50726
 H32 H 0.57023 -0.23824 0.40159
 H33 H 0.57803 -0.22914 0.59433
 H34 H 0.55112 -0.20556 0.58294
 H35 H 0.55027 -0.13156 0.48112
 H36 H 0.58446 -0.18829 0.39971
 C37 C 1.29025 0.85820 0.50104
 C38 C 1.27826 0.84186 0.44734
 C39 C 1.24827 0.81433 0.44541
 C40 C 1.22934 0.80303 0.49701
 C41 C 1.24157 0.82031 0.55098
 C42 C 1.27222 0.84729 0.55314
 C43 C 1.19854 0.77188 0.49528
 C44 C 1.18792 0.75256 0.54672
 C45 C 1.16065 0.72237 0.54490
 C46 C 1.14392 0.71054 0.49151
 C47 C 1.15419 0.72889 0.43953
 C48 C 1.18092 0.75975 0.44153
 H49 H 1.31409 0.87882 0.50278
 H50 H 1.24052 0.80115 0.40394
 H51 H 1.22788 0.81260 0.59173
 H52 H 1.20140 0.76020 0.58797
 H53 H 1.12346 0.68657 0.48987
 H54 H 1.18815 0.77369 0.40087
 C55 C 0.86157 0.57598 0.51287
 C56 C 0.84534 0.57021 0.45870
 C57 C 0.81706 0.57123 0.45543
 C58 C 0.80530 0.57931 0.50615
 C59 C 0.82284 0.58605 0.56008
 C60 C 0.85010 0.58331 0.56369
 C61 C 0.77411 0.57881 0.50393
 C62 C 0.75610 0.57376 0.55646
 C63 C 0.72662 0.57235 0.55441
 C64 C 0.71399 0.57454 0.49966
 C65 C 0.73087 0.57863 0.44701
 C66 C 0.76110 0.58168 0.44915
 H67 H 0.88256 0.57357 0.51598
 H68 H 0.80404 0.56465 0.41370
 H69 H 0.81522 0.59266 0.60008
 H70 H 0.76415 0.56985 0.59906
 H71 H 0.69049 0.57199 0.49768
 H72 H 0.77385 0.58566 0.40769
 C73 C 0.42038 0.28408 0.50940
 C74 C 0.41577 0.26884 0.45457
 C75 C 0.41380 0.23908 0.45169
 C76 C 0.41899 0.22509 0.50307
 C77 C 0.42427 0.24143 0.55806
 C78 C 0.42422 0.27028 0.56126
 C79 C 0.42084 0.19498 0.49853
 C80 C 0.42010 0.17747 0.55005
 C81 C 0.42460 0.15113 0.54550
 C82 C 0.42777 0.14058 0.48956
 C83 C 0.42781 0.15686 0.43822
 C84 C 0.42516 0.18418 0.44253
 H85 H 0.42214 0.30729 0.51130
 H86 H 0.40904 0.22777 0.40851
 H87 H 0.42953 0.23278 0.59853
 H88 H 0.41669 0.18419 0.59407
 H89 H 0.43134 0.12027 0.48596
 H90 H 0.42756 0.19706 0.40172
 C91 C 0.71419 0.13887 0.51229
 C92 C 0.72430 0.15438 0.45748
 C93 C 0.75337 0.18301 0.45348
 C94 C 0.77330 0.19598 0.50415
 C95 C 0.76280 0.17951 0.55908
 C96 C 0.73307 0.15161 0.56320
 C97 C 0.80387 0.22728 0.50024
 C98 C 0.81641 0.24745 0.55066
 C99 C 0.84424 0.27729 0.54613
 C100 C 0.85925 0.28780 0.49104
 C101 C 0.84693 0.26859 0.44054
 C102 C 0.81999 0.23820 0.44524
 H103 H 0.69101 0.11745 0.51577
 H104 H 0.75960 0.19541 0.41112
 H105 H 0.77714 0.18844 0.59910
 H106 H 0.80421 0.24069 0.59309
 H107 H 0.88000 0.31148 0.48692
 H108 H 0.81149 0.22363 0.40549
 O109 O 0.98423 0.53828 -0.07648
 O110 O 1.02846 0.53217 0.11434
 O111 O 0.94099 0.49813 0.05704
 O112 O 1.08138 0.55548 -0.04392
 O113 O 0.97139 0.49337 0.12454
 O114 O 1.03925 0.55558 -0.07402
 O115 O 1.04635 0.56103 0.03357
 O116 O 0.93918 0.49711 -0.05579
 C117 C 0.95488 0.52467 -0.07660
 C118 C 1.04136 0.55915 0.08875
 C119 C 0.95048 0.50044 0.10987
 C120 C 1.06819 0.56474 -0.08315
 O121 O 1.02702 0.49749 -0.11382
 O122 O 0.98219 0.44707 0.08162
 O123 O 0.94227 0.44472 -0.05405
 O124 O 1.07220 0.52869 0.05937
 O125 O 1.03595 0.48218 0.07333
 O126 O 0.97049 0.48063 -0.12133
 O127 O 1.05081 0.49521 -0.03463
 O128 O 0.93778 0.44334 0.05779
 Co129 Co 1.00475 0.51644 -0.08823
 Co130 Co 1.00426 0.48974 0.09120
 Co131 Co 0.94564 0.47358 0.00113
 Co132 Co 1.04664 0.52731 -0.00231
 O133 O 0.99819 0.49971 0.00277
 C134 C 1.04403 0.48846 -0.08816
 C135 C 0.95290 0.43157 0.08079
 C136 C 0.95099 0.45213 -0.10687
 C137 C 1.06354 0.50306 0.08464
 O138 O 0.50204 0.46346 -0.11142
 O139 O 0.46544 0.50427 0.11779
 O140 O 0.50599 0.44732 0.07071
 O141 O 0.44903 0.50814 -0.06426
 O142 O 0.47148 0.45803 0.10571
 O143 O 0.45758 0.47212 -0.09970
 O144 O 0.43951 0.49462 0.03766
 O145 O 0.49192 0.43790 -0.03072
 C146 C 0.48945 0.43744 -0.08537
 C147 C 0.43927 0.49210 0.09235
 C148 C 0.48106 0.43895 0.09996
 C149 C 0.43956 0.48290 -0.09333
 O150 O 0.49759 0.53454 -0.11426
 O151 O 0.53429 0.49612 0.11910
 O152 O 0.55064 0.49026 -0.06148
 O153 O 0.49365 0.55246 0.06676
 O154 O 0.52816 0.54214 0.10431
 O155 O 0.54221 0.52602 -0.09940
 O156 O 0.50758 0.56102 -0.03490
 O157 O 0.56002 0.50513 0.03943
 Co158 Co 0.49986 0.49910 -0.09493
 Co159 Co 0.49984 0.50008 0.10057
 Co160 Co 0.52461 0.47291 0.00440
 Co161 Co 0.47498 0.52631 0.00148
 O162 O 0.49981 0.49960 0.00286
 C163 C 0.51024 0.56090 -0.08949
 C164 C 0.56036 0.50841 0.09380
 C165 C 0.56006 0.51501 -0.09238
 C166 C 0.51854 0.56109 0.09664
 O167 O 0.55129 0.01355 -0.08290
 O168 O 0.50149 -0.02941 0.10822
 O169 O 0.55764 0.05798 0.04976
 O170 O 0.46862 -0.08256 -0.04983
 O171 O 0.52264 0.02833 0.11802
 O172 O 0.51175 -0.04129 -0.08038
 O173 O 0.51058 -0.04836 0.02725
 O174 O 0.55691 0.05933 -0.06318
 C175 C 0.56793 0.04292 -0.08330
 C176 C 0.51432 -0.04330 0.08241
 C177 C 0.55076 0.04876 0.10280
 C178 C 0.49086 -0.07010 -0.08932
 O179 O 0.46728 -0.02703 -0.11950
 O180 O 0.46595 0.01983 0.07685
 O181 O 0.50240 0.05800 -0.05960
 O182 O 0.45265 -0.07207 0.05388
 O183 O 0.44476 -0.03439 0.06821
 O184 O 0.50839 0.02906 -0.12725
 O185 O 0.44122 -0.05004 -0.04012
 O186 O 0.50757 0.06331 0.05201
 Co187 Co 0.50877 -0.00584 -0.09433
 Co188 Co 0.48490 -0.00377 0.08553
 Co189 Co 0.52811 0.05406 -0.00540
 Co190 Co 0.47709 -0.04724 -0.00817
 O191 O 0.49991 0.00144 -0.00320
 C192 C 0.44121 -0.04325 -0.09366
 C193 C 0.48100 0.04918 0.07604
 C194 C 0.49956 0.04849 -0.11219
 C195 C 0.43671 -0.06237 0.07916
 C196 C 1.13248 0.47287 0.31280
 C197 C 1.14754 0.47093 0.25401
 C198 C 1.13556 0.47801 0.20485
 C199 C 1.10978 0.48631 0.21964
 C200 C 1.12529 0.51372 0.26488
 C201 C 1.13726 0.50664 0.31396
 C202 C 1.09658 0.45061 0.30424
 C203 C 1.08465 0.45767 0.25528
 C204 C 1.14468 0.46487 0.36579
 C205 C 1.15372 0.45749 0.40981
 C206 C 1.09598 0.49345 0.16798
 C207 C 1.08237 0.49836 0.12810
 H208 H 1.16599 0.46461 0.25126
 H209 H 1.14371 0.47779 0.15993
 H210 H 1.12682 0.53668 0.25881
 H211 H 1.14904 0.52351 0.35003
 H212 H 1.08181 0.43100 0.33403
 H213 H 1.05963 0.44409 0.24308
 C214 C 0.56273 0.67278 0.30431
 C215 C 0.58245 0.65609 0.30394
 C216 C 0.57538 0.63557 0.25740
 C217 C 0.54929 0.63383 0.21591
 C218 C 0.56123 0.66837 0.19621
 C219 C 0.56833 0.68894 0.24288
 C220 C 0.52795 0.64574 0.30319
 C221 C 0.52089 0.62529 0.25679
 C222 C 0.56944 0.69397 0.35528
 C223 C 0.57327 0.70995 0.39883
 C224 C 0.54070 0.61069 0.16769
 C225 C 0.53156 0.58920 0.13243
 H226 H 0.60046 0.66012 0.33714
 H227 H 0.58733 0.62201 0.25065
 H228 H 0.56393 0.67598 0.14992
 H229 H 0.57713 0.71423 0.23665
 H230 H 0.51033 0.64291 0.33598
 H231 H 0.49721 0.60495 0.24982
 C232 C 0.33395 -0.12787 0.30199
 C233 C 0.31779 -0.14430 0.24307
 C234 C 0.33758 -0.13310 0.19500
 C235 C 0.37145 -0.10666 0.21090
 C236 C 0.38281 -0.12099 0.25967
 C237 C 0.36306 -0.13217 0.30763
 C238 C 0.34758 -0.09216 0.29055
 C239 C 0.36729 -0.08100 0.24266
 C240 C 0.31313 -0.13938 0.35398
 C241 C 0.29658 -0.14827 0.39759
 C242 C 0.39321 -0.09371 0.16045
 C243 C 0.41244 -0.08069 0.12155
 H244 H 0.29306 -0.16305 0.23946
 H245 H 0.32986 -0.14223 0.15015
 H246 H 0.40439 -0.12234 0.25671
 H247 H 0.36771 -0.14308 0.34584
 H248 H 0.34219 -0.07696 0.31763
 H249 H 0.37881 -0.05620 0.22868
 C250 C 0.88303 0.54466 0.32031
 C251 C 0.87825 0.51113 0.32940
 C252 C 0.89216 0.50244 0.28649
 C253 C 0.90952 0.52812 0.23863
 C254 C 0.93316 0.55810 0.27329
 C255 C 0.91924 0.56678 0.31622
 C256 C 0.87045 0.54431 0.25716
 C257 C 0.88438 0.53561 0.21419
 C258 C 0.86834 0.55392 0.36728
 C259 C 0.85719 0.56140 0.40779
 C260 C 0.92448 0.51861 0.19264
 C261 C 0.93656 0.51048 0.15496
 H262 H 0.86506 0.49555 0.36629
 H263 H 0.89090 0.47944 0.28665
 H264 H 0.95859 0.57135 0.26484
 H265 H 0.93277 0.58749 0.34453
 H266 H 0.85224 0.55036 0.24709
 H267 H 0.87810 0.53421 0.16727
 C268 C 0.43035 0.32443 0.30644
 C269 C 0.41164 0.34217 0.30412
 C270 C 0.42042 0.36353 0.25834
 C271 C 0.44706 0.36507 0.21935
 C272 C 0.43458 0.33061 0.19854
 C273 C 0.42578 0.30920 0.24443
 C274 C 0.46546 0.35077 0.30864
 C275 C 0.47421 0.37206 0.26302
 C276 C 0.42202 0.30231 0.35698
 C277 C 0.41770 0.28601 0.40065
 C278 C 0.45741 0.38906 0.17167
 C279 C 0.46751 0.41081 0.13644
 H280 H 0.39305 0.33820 0.33549
 H281 H 0.40932 0.37786 0.25051
 H282 H 0.43275 0.32366 0.15203
 H283 H 0.41640 0.28389 0.23724
 H284 H 0.48208 0.35254 0.34309
 H285 H 0.49831 0.39201 0.25845
 C286 C 0.66166 0.11537 0.31706
 C287 C 0.67469 0.12808 0.25449
 C288 C 0.65247 0.11429 0.21028
 C289 C 0.61944 0.08916 0.23305
 C290 C 0.61087 0.10654 0.27999
 C291 C 0.63304 0.12031 0.32411
 C292 C 0.64725 0.07907 0.31277
 C293 C 0.62505 0.06529 0.26860
 C294 C 0.68519 0.13005 0.36525
 C295 C 0.70359 0.14156 0.40639
 C296 C 0.59532 0.07438 0.18587
 C297 C 0.57512 0.06249 0.14770
 H298 H 0.69917 0.14627 0.24568
 H299 H 0.65793 0.12066 0.16357
 H300 H 0.58926 0.10794 0.27866
 H301 H 0.63043 0.13350 0.36057
 H302 H 0.65393 0.06540 0.34182
 H303 H 0.61272 0.03983 0.25980
 C304 C 0.44633 0.11131 -0.31785
 C305 C 0.42535 0.07491 -0.31278
 C306 C 0.43573 0.06174 -0.27080
 C307 C 0.46608 0.08628 -0.23807
 C308 C 0.45803 0.11076 -0.21257
 C309 C 0.44765 0.12393 -0.25456
 C310 C 0.48001 0.11726 -0.32938
 C311 C 0.49037 0.10413 -0.28753
 C312 C 0.43597 0.12565 -0.36416
 C313 C 0.42949 0.13762 -0.40512
 C314 C 0.47766 0.07234 -0.19325
 C315 C 0.48762 0.06127 -0.15651
 H316 H 0.40418 0.06074 -0.33965
 H317 H 0.42346 0.03629 -0.26175
 H318 H 0.46024 0.11713 -0.16567
 H319 H 0.44095 0.14156 -0.24367
 H320 H 0.49449 0.13066 -0.36724
 H321 H 0.51368 0.10627 -0.28953
 C322 C 0.67128 0.55517 -0.30083
 C323 C 0.65479 0.57511 -0.30136
 C324 C 0.63414 0.56833 -0.25535
 C325 C 0.63197 0.54227 -0.21324
 C326 C 0.66634 0.55410 -0.19279
 C327 C 0.68706 0.56090 -0.23896
 C328 C 0.64410 0.52037 -0.29974
 C329 C 0.62347 0.51360 -0.25379
 C330 C 0.69282 0.56207 -0.35148
 C331 C 0.70922 0.56711 -0.39495
 C332 C 0.60876 0.53432 -0.16518
 C333 C 0.58761 0.52633 -0.12947
 H334 H 0.65903 0.59305 -0.33485
 H335 H 0.62071 0.58048 -0.24944
 H336 H 0.67373 0.55691 -0.14634
 H337 H 0.71222 0.56954 -0.23204
 H338 H 0.64132 0.50256 -0.33219
 H339 H 0.60304 0.48997 -0.24692
 C340 C 0.88264 0.33998 -0.31821
 C341 C 0.87770 0.36862 -0.32676
 C342 C 0.89185 0.39134 -0.28371
 C343 C 0.90958 0.38322 -0.23626
 C344 C 0.93305 0.37717 -0.27139
 C345 C 0.91889 0.35444 -0.31447
 C346 C 0.87051 0.32762 -0.25507
 C347 C 0.88468 0.35037 -0.21195
 C348 C 0.86764 0.31589 -0.36531
 C349 C 0.85613 0.29714 -0.40588
 C350 C 0.92478 0.40782 -0.19009
 C351 C 0.93699 0.42811 -0.15222
 H352 H 0.86423 0.37086 -0.36341
 H353 H 0.89052 0.41303 -0.28350
 H354 H 0.95853 0.38961 -0.26314
 H355 H 0.93226 0.34742 -0.34310
 H356 H 0.85242 0.30320 -0.24510
 H357 H 0.87872 0.34542 -0.16501
 C358 C 0.52248 -0.13757 -0.31646
 C359 C 0.52336 -0.15306 -0.25708
 C360 C 0.51550 -0.14132 -0.20900
 C361 C 0.50756 -0.11532 -0.22529
 C362 C 0.48098 -0.13053 -0.27234
 C363 C 0.48884 -0.14227 -0.32041
 C364 C 0.54459 -0.10166 -0.30713
 C365 C 0.53675 -0.08996 -0.25923
 C366 C 0.53147 -0.14944 -0.36821
 C367 C 0.53992 -0.15798 -0.41114
 C368 C 0.49982 -0.10178 -0.17444
 C369 C 0.49494 -0.08845 -0.13433
 H370 H 0.52953 -0.17163 -0.25319
 H371 H 0.51490 -0.14980 -0.16383
 H372 H 0.45802 -0.13203 -0.26820
 H373 H 0.47264 -0.15384 -0.35754
 H374 H 0.56466 -0.08670 -0.33569
 H375 H 0.55012 -0.06495 -0.24671
 C376 C 0.32740 0.44112 -0.30041
 C377 C 0.34336 0.42071 -0.30001
 C378 C 0.36407 0.42742 -0.25375
 C379 C 0.36672 0.45388 -0.21254
 C380 C 0.33254 0.44264 -0.19238
 C381 C 0.31177 0.43590 -0.23878
 C382 C 0.35489 0.47574 -0.29989
 C383 C 0.37554 0.48245 -0.25376
 C384 C 0.30600 0.43467 -0.35114
 C385 C 0.28986 0.43083 -0.39463
 C386 C 0.39003 0.46201 -0.16460
 C387 C 0.41155 0.47061 -0.12939
 H388 H 0.33872 0.40250 -0.33299
 H389 H 0.37718 0.41497 -0.24703
 H390 H 0.32531 0.44015 -0.14599
 H391 H 0.28669 0.42762 -0.23221
 H392 H 0.35786 0.49351 -0.33285
 H393 H 0.39621 0.50598 -0.24718
 C394 C 1.13156 0.66597 -0.31005
 C395 C 1.14717 0.68250 -0.25090
 C396 C 1.13626 0.66263 -0.20272
 C397 C 1.11089 0.62830 -0.21874
 C398 C 1.12632 0.61776 -0.26623
 C399 C 1.13722 0.63762 -0.31435
 C400 C 1.09569 0.65109 -0.30004
 C401 C 1.08482 0.63128 -0.25203
 C402 C 1.14275 0.68696 -0.36202
 C403 C 1.15130 0.70376 -0.40551
 C404 C 1.09830 0.60663 -0.16789
 C405 C 1.08575 0.58791 -0.12790
 H406 H 1.16519 0.70754 -0.24721
 H407 H 1.14491 0.67058 -0.15768
 H408 H 1.12856 0.59665 -0.26236
 H409 H 1.14881 0.63353 -0.35179
 H410 H 1.08018 0.65571 -0.32817
 H411 H 1.05995 0.61891 -0.23898
 C412 C 0.88901 0.57275 -0.28197
 C413 C 0.91797 0.60150 -0.25336
 C414 C 0.93074 0.59343 -0.20665
 C415 C 0.91322 0.55745 -0.19338
 C416 C 0.91337 0.54177 -0.25259
 C417 C 0.90070 0.54979 -0.29896
 C418 C 0.86559 0.55618 -0.23046
 C419 C 0.87834 0.54812 -0.18379
 C420 C 0.87531 0.58012 -0.33380
 C421 C 0.86392 0.58324 -0.37944
 C422 C 0.92719 0.54778 -0.14536
 C423 C 0.93942 0.53800 -0.11089
 H424 H 0.92750 0.62595 -0.26824
 H425 H 0.95122 0.61098 -0.18147
 H426 H 0.92268 0.52572 -0.25772
 H427 H 0.89919 0.54060 -0.34374
 H428 H 0.84123 0.55138 -0.23051
 H429 H 0.86493 0.53641 -0.14385
 C430 C 0.44362 0.32355 -0.29009
 C431 C 0.43839 0.30768 -0.22842
 C432 C 0.44614 0.32856 -0.18194
 C433 C 0.45831 0.36312 -0.20198
 C434 C 0.43205 0.36147 -0.24274
 C435 C 0.42433 0.34070 -0.28900
 C436 C 0.47855 0.35032 -0.29001
 C437 C 0.48625 0.37107 -0.24381
 C438 C 0.43578 0.30212 -0.34140
 C439 C 0.43010 0.28637 -0.38613
 C440 C 0.46739 0.38671 -0.15408
 C441 C 0.47654 0.40863 -0.11957
 H442 H 0.42940 0.28238 -0.22187
 H443 H 0.44380 0.32115 -0.13557
 H444 H 0.42041 0.37532 -0.23573
 H445 H 0.40610 0.33677 -0.32161
 H446 H 0.49578 0.35272 -0.32328
 H447 H 0.51011 0.39123 -0.23755
 C448 C 0.68343 0.11137 -0.28389
 C449 C 0.69851 0.12210 -0.22164
 C450 C 0.67722 0.10829 -0.17605
 C451 C 0.64311 0.08521 -0.19754
 C452 C 0.64587 0.06107 -0.23750
 C453 C 0.66707 0.07482 -0.28290
 C454 C 0.65613 0.11860 -0.28552
 C455 C 0.63502 0.10490 -0.24031
 C456 C 0.70488 0.12607 -0.33465
 C457 C 0.71947 0.13791 -0.37984
 C458 C 0.61902 0.07028 -0.15078
 C459 C 0.59678 0.05781 -0.11713
 H460 H 0.72358 0.13891 -0.21406
 H461 H 0.68404 0.11327 -0.12939
 H462 H 0.63250 0.03544 -0.23053
 H463 H 0.67186 0.06098 -0.31482
 H464 H 0.65364 0.13334 -0.31928
 H465 H 0.61448 0.10793 -0.23539
 C466 C 1.11397 0.44246 -0.28828
 C467 C 1.12322 0.47768 -0.28503
 C468 C 1.10852 0.48428 -0.24055
 C469 C 1.08583 0.45508 -0.20315
 C470 C 1.10632 0.44116 -0.18081
 C471 C 1.12113 0.43452 -0.22563
 C472 C 1.07749 0.42409 -0.29331
 C473 C 1.06272 0.43071 -0.24865
 C474 C 1.12991 0.43654 -0.33827
 C475 C 1.14273 0.43428 -0.38261
 C476 C 1.07005 0.46355 -0.15665
 C477 C 1.05767 0.47335 -0.12266
 H478 H 1.14000 0.49597 -0.31511
 H479 H 1.11276 0.50820 -0.23265
 H480 H 1.10889 0.43684 -0.13408
 H481 H 1.13637 0.42452 -0.21726
 H482 H 1.06439 0.40723 -0.32872
 H483 H 1.03701 0.41951 -0.24588
 C484 C 0.56051 0.67702 -0.29400
 C485 C 0.57938 0.65943 -0.29186
 C486 C 0.57068 0.63789 -0.24640
 C487 C 0.54390 0.63595 -0.20728
 C488 C 0.51678 0.62901 -0.25106
 C489 C 0.52547 0.65049 -0.29642
 C490 C 0.56489 0.69195 -0.23173
 C491 C 0.55616 0.67033 -0.18608
 C492 C 0.56906 0.69925 -0.34480
 C493 C 0.57414 0.71509 -0.38960
 C494 C 0.53369 0.61161 -0.15987
 C495 C 0.52377 0.58954 -0.12509
 H496 H 0.59806 0.66362 -0.32319
 H497 H 0.58193 0.62368 -0.23888
 H498 H 0.49273 0.60894 -0.24672
 H499 H 0.50883 0.64876 -0.33081
 H500 H 0.57408 0.71719 -0.22416
 H501 H 0.55786 0.67709 -0.13948
 C502 C 0.32486 -0.11001 -0.29599
 C503 C 0.34393 -0.07343 -0.30015
 C504 C 0.36538 -0.05924 -0.25486
 C505 C 0.36572 -0.08297 -0.20969
 C506 C 0.37144 -0.10599 -0.24731
 C507 C 0.35008 -0.12011 -0.29241
 C508 C 0.30961 -0.11720 -0.23372
 C509 C 0.33112 -0.10297 -0.18828
 C510 C 0.30283 -0.12542 -0.34649
 C511 C 0.28733 -0.13802 -0.39087
 C512 C 0.39004 -0.06786 -0.16252
 C513 C 0.41230 -0.05611 -0.12816
 H514 H 0.34075 -0.05985 -0.33543
 H515 H 0.38053 -0.03354 -0.25141
 H516 H 0.39065 -0.11084 -0.23913
 H517 H 0.35105 -0.13703 -0.32272
 H518 H 0.28422 -0.13204 -0.22604
 H519 H 0.32415 -0.10562 -0.14172
 C520 C 0.56023 -0.11379 0.28433
 C521 C 0.58020 -0.07722 0.28748
 C522 C 0.57357 -0.06213 0.24294
 C523 C 0.54761 -0.08504 0.19949
 C524 C 0.51897 -0.10631 0.23913
 C525 C 0.52556 -0.12133 0.28347
 C526 C 0.56602 -0.12233 0.22141
 C527 C 0.55938 -0.10719 0.17675
 C528 C 0.56609 -0.13017 0.33409
 C529 C 0.56816 -0.14347 0.37821
 C530 C 0.53912 -0.06902 0.15298
 C531 C 0.52934 -0.05667 0.11844
 H532 H 0.59808 -0.06432 0.32154
 H533 H 0.58579 -0.03633 0.23892
 H534 H 0.49542 -0.10937 0.23284
 H535 H 0.50764 -0.13722 0.31501
 H536 H 0.57464 -0.13868 0.21274
 H537 H 0.56232 -0.11059 0.12985
 C538 C 0.32265 0.44265 0.29365
 C539 C 0.30812 0.43887 0.23097
 C540 C 0.32986 0.44755 0.18592
 C541 C 0.36396 0.45916 0.20806
 C542 C 0.36133 0.43188 0.24723
 C543 C 0.33968 0.42322 0.29210
 C544 C 0.34953 0.47758 0.29669
 C545 C 0.37114 0.48622 0.25192
 C546 C 0.30028 0.43414 0.34382
 C547 C 0.28429 0.42906 0.38812
 C548 C 0.38841 0.46927 0.16131
 C549 C 0.41056 0.47900 0.12714
 H550 H 0.28304 0.43011 0.22271
 H551 H 0.32337 0.44623 0.13913
 H552 H 0.37519 0.42027 0.24017
 H553 H 0.33503 0.40422 0.32339
 H554 H 0.35140 0.49418 0.33106
 H555 H 0.39145 0.51019 0.24807
 C556 C 1.10972 0.67567 0.29053
 C557 C 1.11679 0.69037 0.22764
 C558 C 1.10193 0.66847 0.18313
 C559 C 1.08148 0.63407 0.20600
 C560 C 1.05841 0.63546 0.25080
 C561 C 1.07324 0.65731 0.29519
 C562 C 1.11899 0.64977 0.28838
 C563 C 1.10423 0.62802 0.24420
 C564 C 1.12584 0.69811 0.34004
 C565 C 1.13900 0.71384 0.38386
 C566 C 1.06582 0.60948 0.15960
 C567 C 1.05394 0.58738 0.12502
 H568 H 1.13201 0.71567 0.21886
 H569 H 1.10441 0.67503 0.13626
 H570 H 1.03270 0.62070 0.24778
 H571 H 1.06020 0.66123 0.33012
 H572 H 1.13581 0.64863 0.31897
 H573 H 1.10844 0.60830 0.23708
 C574 C 0.44343 0.12170 0.28417
 C575 C 0.43918 0.13360 0.22301
 C576 C 0.44553 0.11980 0.17597
 C577 C 0.45545 0.09557 0.19509
 C578 C 0.42837 0.07157 0.23506
 C579 C 0.42206 0.08529 0.28186
 C580 C 0.47756 0.12769 0.28414
 C581 C 0.48387 0.11398 0.23740
 C582 C 0.43706 0.13585 0.33607
 C583 C 0.43254 0.14615 0.38149
 C584 C 0.46287 0.08020 0.14666
 C585 C 0.47039 0.06648 0.11152
 H586 H 0.43184 0.15121 0.21719
 H587 H 0.44363 0.12556 0.12981
 H588 H 0.41520 0.04601 0.22715
 H589 H 0.40348 0.07150 0.31405
 H590 H 0.49529 0.14161 0.31783
 H591 H 0.50702 0.11617 0.23105
 C592 C 0.67704 0.56179 0.29574
 C593 C 0.69178 0.56568 0.23355
 C594 C 0.67006 0.55636 0.18803
 C595 C 0.63584 0.54411 0.20943
 C596 C 0.63769 0.57125 0.24756
 C597 C 0.65934 0.58054 0.29291
 C598 C 0.65077 0.52664 0.29916
 C599 C 0.62919 0.51738 0.25395
 C600 C 0.69925 0.57073 0.34626
 C601 C 0.71506 0.57569 0.39087
 C602 C 0.61142 0.53320 0.16250
 C603 C 0.58915 0.52259 0.12841
 H604 H 0.71698 0.57498 0.22597
 H605 H 0.67662 0.55766 0.14144
 H606 H 0.62336 0.58231 0.23946
 H607 H 0.66355 0.59955 0.32364
 H608 H 0.64928 0.51036 0.33409
 H609 H 0.60925 0.49318 0.25021
 C610 C 0.88491 0.31768 0.28575
 C611 C 0.87398 0.30175 0.22425
 C612 C 0.88706 0.32260 0.17761
 C613 C 0.90967 0.35717 0.19741
 C614 C 0.93440 0.35549 0.23786
 C615 C 0.92138 0.33473 0.28429
 C616 C 0.87693 0.34452 0.28569
 C617 C 0.88990 0.36521 0.23941
 C618 C 0.87107 0.29665 0.33751
 C619 C 0.85995 0.28225 0.38325
 C620 C 0.92407 0.38082 0.14955
 C621 C 0.93679 0.40282 0.11515
 H622 H 0.85757 0.27644 0.21794
 H623 H 0.88186 0.31519 0.13129
 H624 H 0.95990 0.36928 0.23048
 H625 H 0.93572 0.33072 0.31668
 H626 H 0.86222 0.34701 0.31911
 H627 H 0.88630 0.38540 0.23321
   
