data_POSCAR
  _audit_creation_date              2014-09-24
  _audit_creation_method            'ToBaCCo'
  _symmetry_space_group_name_H-M    'P1'
  _symmetry_Int_Tables_number       1
  _symmetry_cell_setting            triclinic
  loop_
  _symmetry_equiv_pos_as_xyz
 x,y,z
_cell_length_a 20.2125
_cell_length_b 20.6640
_cell_length_c 32.0657
_cell_angle_alpha 85.283900
_cell_angle_beta 86.223100
_cell_angle_gamma 91.387000
loop_
  _atom_site_label
  _atom_site_type_symbol
  _atom_site_fract_x
  _atom_site_fract_y
  _atom_site_fract_z
O1 O -0.04532 0.42921 1.04532
 O2 O -0.06186 0.56548 0.96496
 O3 O -0.06498 0.43876 0.96574
 O4 O -0.04795 0.55517 1.04521
 O5 O 0.06066 0.56010 1.03146
 O6 O 0.04354 0.44300 0.95152
 O7 O 0.04672 0.56877 0.95132
 O8 O 0.06320 0.43343 1.03121
 Cu9 Cu -0.06591 0.49671 1.00665
 Cu10 Cu 0.06443 0.50164 0.99010
 C11 C 0.01199 0.40797 1.05172
 C12 C -0.01004 0.59060 0.94459
 C13 C -0.01387 0.42088 0.94517
 C14 C 0.00892 0.57793 1.05169
 O15 O 0.56427 -0.04759 0.54744
 O16 O 0.43906 -0.06310 0.46985
 O17 O 0.56833 -0.06570 0.46799
 O18 O 0.43527 -0.04910 0.54976
 O19 O 0.43951 0.05741 0.53565
 O20 O 0.57197 0.04055 0.45264
 O21 O 0.44310 0.04340 0.45570
 O22 O 0.56949 0.05854 0.53191
 Cu23 Cu 0.50131 -0.06702 0.51021
 Cu24 Cu 0.50643 0.06068 0.49260
 C25 C 0.58888 0.00815 0.55251
 C26 C 0.41946 -0.01226 0.44978
 C27 C 0.59294 -0.01562 0.44643
 C28 C 0.41443 0.00671 0.55655
 C29 C 0.14754 0.01979 0.27600
 H30 H 0.13797 0.06285 0.25611
 C31 C 0.20243 0.01920 0.30027
 H32 H 0.23454 0.06218 0.29887
 C33 C 0.11746 -0.08813 0.30216
 H34 H 0.08421 -0.13002 0.30248
 C35 C 0.17184 -0.09091 0.32688
 H36 H 0.17957 -0.13568 0.34550
 N37 N 0.10584 -0.03312 0.27774
 C38 C -0.02535 -0.11186 0.19011
 H39 H -0.06727 -0.08082 0.19313
 C40 C -0.02748 -0.16248 0.16394
 H41 H -0.07151 -0.17006 0.14723
 C42 C 0.08316 -0.13900 0.20746
 H43 H 0.12678 -0.12905 0.22384
 C44 C 0.08307 -0.19039 0.18172
 H45 H 0.12626 -0.22008 0.18002
 Zn46 Zn 0.02983 -0.03047 0.24580
 N47 N 0.02925 -0.10121 0.21146
 C48 C 0.04888 0.04822 0.16947
 N49 N 0.03105 0.04814 0.21110
 C50 C 0.01159 0.10325 0.22824
 C51 C 0.00776 0.16123 0.20297
 C52 C 0.04652 0.10528 0.14314
 C53 C -0.04717 -0.05157 0.32379
 C54 C -0.10431 -0.04979 0.35055
 C55 C -0.16391 -0.00945 0.29145
 C56 C -0.10578 -0.01272 0.26570
 N57 N -0.04877 -0.03335 0.28211
 H58 H 0.06463 0.00391 0.15660
 H59 H -0.00183 0.10187 0.26153
 H60 H -0.00759 0.20455 0.21728
 H61 H 0.06048 0.10455 0.10999
 H62 H -0.00160 -0.06678 0.33668
 H63 H -0.10204 -0.06425 0.38366
 H64 H -0.20864 0.00679 0.27758
 H65 H -0.10579 0.00287 0.23269
 C66 C 0.02719 -0.20245 0.15924
 C67 C 0.21479 -0.03620 0.32664
 C68 C -0.16329 -0.02751 0.33462
 C69 C 0.02451 0.16234 0.15966
 C70 C -0.01713 0.15986 0.76996
 H71 H -0.01053 0.16815 0.73617
 C72 C -0.01447 0.21229 0.79476
 H73 H -0.00645 0.26096 0.77976
 C74 C -0.03737 0.08633 0.83042
 H75 H -0.04716 0.03732 0.84423
 C76 C -0.03624 0.13736 0.85630
 H77 H -0.04438 0.12707 0.88995
 N78 N -0.02639 0.09818 0.78813
 C79 C 0.06113 -0.01774 0.69220
 H80 H 0.02158 -0.05386 0.69173
 C81 C 0.11817 -0.02031 0.66551
 H82 H 0.12213 -0.05858 0.64441
 C83 C 0.10415 0.07530 0.72083
 H84 H 0.09938 0.11140 0.74324
 C85 C 0.16220 0.07455 0.69464
 H86 H 0.20116 0.11034 0.69756
 Zn87 Zn -0.02515 0.02824 0.75341
 N88 N 0.05457 0.03021 0.71862
 C89 C -0.09023 0.04727 0.67788
 N90 N -0.09926 0.03489 0.72023
 C91 C -0.16116 0.02716 0.73967
 C92 C -0.21694 0.02806 0.71613
 C93 C -0.14464 0.04974 0.65322
 C94 C 0.02200 -0.06194 0.81261
 C95 C 0.02351 -0.11919 0.83872
 C96 C -0.07678 -0.15656 0.81010
 C97 C -0.07644 -0.09835 0.78455
 N98 N -0.02817 -0.05195 0.78684
 H99 H -0.04081 0.05489 0.66305
 H100 H -0.16704 0.01856 0.77347
 H101 H -0.26585 0.01994 0.73190
 H102 H -0.13617 0.05770 0.61948
 H103 H 0.06058 -0.02485 0.81315
 H104 H 0.06352 -0.12580 0.85941
 H105 H -0.11524 -0.19282 0.80714
 H106 H -0.11437 -0.09082 0.76262
 C107 C 0.16931 0.02663 0.66606
 C108 C -0.02305 0.20099 0.83862
 C109 C -0.02672 -0.16709 0.83819
 C110 C -0.20898 0.03947 0.67238
 C111 C 0.01334 -0.37371 0.08269
 C112 C 0.06990 -0.34137 0.08837
 C113 C 0.07487 -0.28966 0.11750
 C114 C 0.02287 -0.25598 0.13122
 H115 H 0.11539 -0.35346 0.07134
 H116 H 0.12435 -0.27705 0.12549
 H117 H -0.03208 -0.36420 0.10060
 H118 H -0.02544 -0.26570 0.12008
 C119 C 0.02019 0.35240 0.08252
 C120 C -0.03027 0.32569 0.10785
 C121 C -0.02336 0.26825 0.13774
 C122 C 0.02057 0.22191 0.13105
 H123 H -0.07842 0.34759 0.10783
 H124 H -0.05938 0.26190 0.16436
 H125 H 0.06945 0.33334 0.08430
 H126 H 0.05168 0.22513 0.10209
 C127 C 0.35961 0.01112 0.58864
 C128 C 0.33111 0.06724 0.59625
 C129 C 0.27306 0.07178 0.62643
 C130 C 0.22938 0.02229 0.63737
 H131 H 0.35135 0.11231 0.58024
 H132 H 0.26426 0.11910 0.63741
 H133 H 0.34196 -0.03385 0.60590
 H134 H 0.23545 -0.02295 0.62298
 C135 C -0.36163 0.01305 0.58058
 C136 C -0.32840 0.06904 0.58457
 C137 C -0.27177 0.07331 0.61109
 C138 C -0.26775 0.03695 0.64735
 H139 H -0.33859 0.11243 0.56498
 H140 H -0.23334 0.10963 0.60084
 H141 H -0.34775 -0.03109 0.59807
 H142 H -0.30943 0.00565 0.65979
 C143 C -0.01386 -0.35667 0.91485
 C144 C -0.07094 -0.32813 0.90623
 C145 C -0.07461 -0.26973 0.87649
 C146 C -0.02350 -0.22727 0.86653
 H147 H -0.11753 -0.34838 0.92092
 H148 H -0.12270 -0.26001 0.86491
 H149 H 0.03229 -0.33842 0.89858
 H150 H 0.02252 -0.23464 0.88143
 C151 C -0.02227 0.37281 0.91441
 C152 C 0.02723 0.35741 0.88750
 C153 C 0.02007 0.30698 0.85788
 C154 C -0.01980 0.25412 0.86668
 H155 H 0.07442 0.38375 0.88606
 H156 H 0.05291 0.31118 0.82966
 H157 H -0.07094 0.34989 0.91388
 H158 H -0.04707 0.24673 0.89700
 C159 C -0.35270 -0.02374 0.41462
 C160 C -0.32705 0.02572 0.38842
 C161 C -0.27030 0.01914 0.35770
 C162 C -0.22273 -0.02414 0.36382
 H163 H -0.34922 0.07292 0.38851
 H164 H -0.26523 0.05489 0.33098
 H165 H -0.33359 -0.07201 0.41291
 H166 H -0.22449 -0.05515 0.39281
 C167 C 0.36819 -0.01656 0.41951
 C168 C 0.33726 -0.07272 0.41328
 C169 C 0.28220 -0.07774 0.38538
 C170 C 0.27233 -0.03407 0.35313
 H171 H 0.34950 -0.11684 0.43142
 H172 H 0.24922 -0.11962 0.39244
 H173 H 0.35393 0.02860 0.40354
 H174 H 0.30711 0.00658 0.34603
   
