data_POSCAR
  _audit_creation_date              2014-09-24
  _audit_creation_method            'ToBaCCo'
  _symmetry_space_group_name_H-M    'P1'
  _symmetry_Int_Tables_number       1
  _symmetry_cell_setting            triclinic
  loop_
  _symmetry_equiv_pos_as_xyz
 x,y,z
_cell_length_a 25.2343
_cell_length_b 25.3062
_cell_length_c 25.2672
_cell_angle_alpha 90.000300
_cell_angle_beta 90.000100
_cell_angle_gamma 90.000200
loop_
  _atom_site_label
  _atom_site_type_symbol
  _atom_site_fract_x
  _atom_site_fract_y
  _atom_site_fract_z
Zn1 Zn 0.78896 0.71289 0.78735
 Zn2 Zn 0.79165 0.79629 0.70391
 Zn3 Zn 0.70495 0.71699 0.70489
 Zn4 Zn 0.70917 0.79922 0.78947
 O5 O 0.74868 0.75648 0.74642
 O6 O 0.85808 0.72155 0.77605
 O7 O 0.77906 0.78718 0.63465
 O8 O 0.71309 0.64769 0.71518
 O9 O 0.86079 0.78237 0.71359
 O10 O 0.77467 0.64426 0.77723
 O11 O 0.71488 0.72778 0.63595
 O12 O 0.63940 0.79021 0.78003
 O13 O 0.78358 0.86538 0.71580
 O14 O 0.63639 0.73081 0.71625
 O15 O 0.72269 0.86803 0.77876
 O16 O 0.72134 0.78846 0.85860
 O17 O 0.78053 0.72417 0.85633
 C18 C 0.88426 0.75054 0.74464
 C19 C 0.74579 0.75816 0.61075
 C20 C 0.74192 0.62139 0.74673
 C21 C 0.61303 0.76187 0.74807
 C22 C 0.75494 0.89125 0.74794
 C23 C 0.75249 0.75681 0.88200
 Zn24 Zn 0.20518 0.71642 0.70320
 Zn25 Zn 0.20878 0.79985 0.78724
 Zn26 Zn 0.28916 0.71230 0.78513
 Zn27 Zn 0.29086 0.79666 0.70202
 O28 O 0.24850 0.75643 0.74456
 O29 O 0.13692 0.72782 0.71718
 O30 O 0.22146 0.78887 0.85634
 O31 O 0.27478 0.64349 0.77502
 O32 O 0.13860 0.79061 0.77844
 O33 O 0.21417 0.64708 0.71226
 O34 O 0.28025 0.72396 0.85417
 O35 O 0.35974 0.78508 0.71422
 O36 O 0.22238 0.86878 0.77648
 O37 O 0.35881 0.72122 0.77437
 O38 O 0.28210 0.86588 0.71267
 O39 O 0.27920 0.78643 0.63261
 O40 O 0.21388 0.72821 0.63413
 C41 C 0.11337 0.75872 0.74894
 C42 C 0.25237 0.75692 0.87974
 C43 C 0.24243 0.62061 0.74406
 C44 C 0.38366 0.75368 0.74527
 C45 C 0.25418 0.89197 0.74515
 C46 C 0.24529 0.75802 0.60876
 Zn47 Zn 0.70877 0.21274 0.78723
 Zn48 Zn 0.79086 0.21594 0.70201
 Zn49 Zn 0.70517 0.29618 0.70319
 Zn50 Zn 0.78916 0.30029 0.78512
 O51 O 0.74850 0.25616 0.74455
 O52 O 0.72238 0.14381 0.77647
 O53 O 0.77919 0.22616 0.63260
 O54 O 0.63691 0.28477 0.71718
 O55 O 0.78210 0.14671 0.71266
 O56 O 0.63859 0.22198 0.77843
 O57 O 0.71388 0.28438 0.63412
 O58 O 0.77477 0.36910 0.77501
 O59 O 0.85973 0.22751 0.71421
 O60 O 0.71416 0.36551 0.71225
 O61 O 0.85881 0.29138 0.77436
 O62 O 0.78025 0.28863 0.85417
 O63 O 0.72146 0.22372 0.85633
 C64 C 0.75418 0.12063 0.74513
 C65 C 0.74528 0.25458 0.60876
 C66 C 0.61337 0.25387 0.74893
 C67 C 0.74242 0.39198 0.74406
 C68 C 0.88365 0.25891 0.74526
 C69 C 0.75237 0.25567 0.87974
 Zn70 Zn 0.29164 0.21630 0.70392
 Zn71 Zn 0.20916 0.21337 0.78948
 Zn72 Zn 0.28895 0.29970 0.78735
 Zn73 Zn 0.20495 0.29560 0.70490
 O74 O 0.24868 0.25611 0.74643
 O75 O 0.28358 0.14721 0.71581
 O76 O 0.22133 0.22413 0.85861
 O77 O 0.35807 0.29104 0.77606
 O78 O 0.22269 0.14456 0.77877
 O79 O 0.36079 0.23022 0.71360
 O80 O 0.28053 0.28842 0.85634
 O81 O 0.21309 0.36490 0.71519
 O82 O 0.13940 0.22239 0.78004
 O83 O 0.27467 0.36833 0.77724
 O84 O 0.13638 0.28178 0.71626
 O85 O 0.21488 0.28481 0.63595
 O86 O 0.27906 0.22541 0.63466
 C87 C 0.25493 0.12134 0.74795
 C88 C 0.25248 0.25578 0.88201
 C89 C 0.38426 0.26204 0.74464
 C90 C 0.24192 0.39120 0.74674
 C91 C 0.11302 0.25072 0.74807
 C92 C 0.24579 0.25443 0.61076
 Zn93 Zn 0.70845 0.71630 0.20391
 Zn94 Zn 0.79515 0.79560 0.20489
 Zn95 Zn 0.71115 0.79970 0.28735
 Zn96 Zn 0.79094 0.71337 0.28947
 O97 O 0.75142 0.75611 0.24642
 O98 O 0.72104 0.72541 0.13465
 O99 O 0.78702 0.86490 0.21518
 O100 O 0.64203 0.79104 0.27605
 O101 O 0.78522 0.78481 0.13595
 O102 O 0.63931 0.73022 0.21359
 O103 O 0.72543 0.86833 0.27723
 O104 O 0.77876 0.72413 0.35860
 O105 O 0.86372 0.78178 0.21625
 O106 O 0.71957 0.78842 0.35633
 O107 O 0.86070 0.72238 0.28003
 O108 O 0.77741 0.64456 0.27876
 O109 O 0.71652 0.64721 0.21580
 C110 C 0.75431 0.75443 0.11075
 C111 C 0.75818 0.89120 0.24673
 C112 C 0.61584 0.76205 0.24464
 C113 C 0.74762 0.75578 0.38200
 C114 C 0.88708 0.75072 0.24807
 C115 C 0.74516 0.62134 0.24794
 Zn116 Zn 0.29493 0.79617 0.20320
 Zn117 Zn 0.20924 0.71593 0.20202
 Zn118 Zn 0.29133 0.71274 0.28724
 Zn119 Zn 0.21094 0.80029 0.28513
 O120 O 0.25160 0.75616 0.24456
 O121 O 0.28622 0.78438 0.13413
 O122 O 0.21800 0.64671 0.21267
 O123 O 0.36151 0.72198 0.27844
 O124 O 0.22091 0.72616 0.13260
 O125 O 0.36318 0.78477 0.21719
 O126 O 0.27772 0.64381 0.27648
 O127 O 0.21985 0.78863 0.35417
 O128 O 0.14037 0.72751 0.21422
 O129 O 0.27864 0.72372 0.35634
 O130 O 0.14129 0.79137 0.27437
 O131 O 0.22533 0.86910 0.27502
 O132 O 0.28594 0.86551 0.21226
 C133 C 0.25482 0.75457 0.10876
 C134 C 0.24592 0.62062 0.24514
 C135 C 0.38673 0.75387 0.24894
 C136 C 0.24773 0.75567 0.37974
 C137 C 0.11645 0.75891 0.24527
 C138 C 0.25768 0.89198 0.24406
 Zn139 Zn 0.70924 0.29666 0.20201
 Zn140 Zn 0.79492 0.21642 0.20319
 Zn141 Zn 0.79132 0.29985 0.28724
 Zn142 Zn 0.71093 0.21230 0.28512
 O143 O 0.75160 0.25643 0.24455
 O144 O 0.72090 0.28643 0.13260
 O145 O 0.86318 0.22782 0.21718
 O146 O 0.77771 0.36878 0.27647
 O147 O 0.78622 0.22821 0.13412
 O148 O 0.71799 0.36588 0.21266
 O149 O 0.86150 0.29061 0.27843
 O150 O 0.71984 0.22396 0.35417
 O151 O 0.78593 0.14708 0.21225
 O152 O 0.77864 0.28887 0.35633
 O153 O 0.72532 0.14349 0.27501
 O154 O 0.64129 0.22122 0.27436
 O155 O 0.64036 0.28508 0.21421
 C156 C 0.75481 0.25801 0.10876
 C157 C 0.88673 0.25872 0.24893
 C158 C 0.74592 0.39196 0.24514
 C159 C 0.74773 0.25692 0.37974
 C160 C 0.75767 0.12061 0.24406
 C161 C 0.61644 0.25368 0.24526
 Zn162 Zn 0.20845 0.29629 0.20392
 Zn163 Zn 0.29515 0.21699 0.20490
 Zn164 Zn 0.29093 0.29922 0.28948
 Zn165 Zn 0.21114 0.21288 0.28735
 O166 O 0.25141 0.25648 0.24643
 O167 O 0.22103 0.28718 0.13466
 O168 O 0.36371 0.23081 0.21626
 O169 O 0.27741 0.36803 0.27877
 O170 O 0.28521 0.22778 0.13595
 O171 O 0.21651 0.36538 0.21581
 O172 O 0.36070 0.29020 0.28004
 O173 O 0.21957 0.22417 0.35634
 O174 O 0.28701 0.14769 0.21519
 O175 O 0.27876 0.28846 0.35861
 O176 O 0.22543 0.14426 0.27724
 O177 O 0.14202 0.22155 0.27606
 O178 O 0.13931 0.28237 0.21360
 C179 C 0.25431 0.25816 0.11076
 C180 C 0.38707 0.26187 0.24807
 C181 C 0.24516 0.39125 0.24795
 C182 C 0.24761 0.25681 0.38201
 C183 C 0.25817 0.12139 0.24674
 C184 C 0.11584 0.25054 0.24464
 C185 C -0.02685 0.70454 0.76333
 C186 C -0.05672 0.74907 0.74559
 C187 C -0.02960 0.79546 0.73121
 C188 C 0.02541 0.79861 0.73403
 C189 C 0.05519 0.75582 0.75217
 C190 C 0.02922 0.70913 0.76882
 C191 C -0.05057 0.65511 0.77475
 C192 C -0.02104 0.61389 0.79645
 C193 C 0.03279 0.62030 0.80604
 C194 C 0.05809 0.66694 0.79138
 H195 H -0.09155 0.64673 0.76619
 H196 H -0.04004 0.57668 0.80577
 H197 H 0.05537 0.58841 0.82354
 H198 H 0.10030 0.66987 0.79842
 H199 H -0.05118 0.83001 0.71789
 H200 H 0.04497 0.83454 0.72127
 C201 C 0.80728 -0.02243 0.74296
 C202 C 0.75864 -0.05021 0.74918
 C203 C 0.71170 -0.02157 0.75628
 C204 C 0.71159 0.03337 0.75527
 C205 C 0.75832 0.06201 0.74660
 C206 C 0.80711 0.03407 0.74082
 C207 C 0.85644 -0.04933 0.74088
 C208 C 0.90368 -0.02196 0.73353
 C209 C 0.90344 0.03272 0.72994
 C210 C 0.85613 0.06065 0.73488
 H211 H 0.85960 -0.09151 0.74613
 H212 H 0.94081 -0.04329 0.73140
 H213 H 0.94040 0.05373 0.72452
 H214 H 0.85928 0.10305 0.73486
 H215 H 0.67431 -0.04196 0.76163
 H216 H 0.67415 0.05375 0.76018
 C217 C 0.80513 0.75526 -0.03222
 C218 C 0.75598 0.75757 -0.05960
 C219 C 0.70862 0.75854 -0.03076
 C220 C 0.70900 0.75635 0.02427
 C221 C 0.75677 0.75336 0.05231
 C222 C 0.80546 0.75158 0.02410
 C223 C 0.85411 0.75752 -0.05938
 C224 C 0.90191 0.75279 -0.03216
 C225 C 0.90208 0.74589 0.02241
 C226 C 0.85451 0.74523 0.05043
 H227 H 0.85628 0.76368 -0.10163
 H228 H 0.93903 0.75420 -0.05361
 H229 H 0.93930 0.74133 0.04322
 H230 H 0.85684 0.73894 0.09266
 H231 H 0.67084 0.76031 -0.05107
 H232 H 0.67156 0.75773 0.04522
 C233 C 0.52345 0.80719 0.76686
 C234 C 0.55393 0.76338 0.74830
 C235 C 0.52720 0.71789 0.73054
 C236 C 0.47215 0.71496 0.73061
 C237 C 0.44176 0.75703 0.74926
 C238 C 0.46712 0.80267 0.76948
 C239 C 0.54674 0.85585 0.78192
 C240 C 0.51630 0.89613 0.80415
 C241 C 0.46206 0.88955 0.81087
 C242 C 0.43737 0.84378 0.79286
 H243 H 0.58809 0.86447 0.77592
 H244 H 0.53495 0.93274 0.81619
 H245 H 0.43877 0.92068 0.82882
 H246 H 0.39489 0.84069 0.79789
 H247 H 0.54912 0.68385 0.71646
 H248 H 0.45307 0.67966 0.71556
 C249 C 0.30711 -0.02148 0.74084
 C250 C 0.25832 -0.04942 0.74661
 C251 C 0.21159 -0.02078 0.75528
 C252 C 0.21169 0.03416 0.75629
 C253 C 0.25864 0.06280 0.74919
 C254 C 0.30727 0.03502 0.74298
 C255 C 0.35613 -0.04805 0.73490
 C256 C 0.40344 -0.02013 0.72997
 C257 C 0.40368 0.03455 0.73355
 C258 C 0.35644 0.06192 0.74090
 H259 H 0.35928 -0.09045 0.73488
 H260 H 0.44040 -0.04114 0.72455
 H261 H 0.44081 0.05589 0.73142
 H262 H 0.35959 0.10411 0.74615
 H263 H 0.17414 -0.04116 0.76019
 H264 H 0.17431 0.05455 0.76163
 C265 C 0.30519 0.75678 -0.03463
 C266 C 0.25593 0.75781 -0.06184
 C267 C 0.20868 0.75763 -0.03283
 C268 C 0.20932 0.75548 0.02222
 C269 C 0.25724 0.75363 0.05018
 C270 C 0.30586 0.75303 0.02172
 C271 C 0.35393 0.76036 -0.06206
 C272 C 0.40197 0.75691 -0.03511
 C273 C 0.40260 0.74980 0.01944
 C274 C 0.35522 0.74775 0.04773
 H275 H 0.35565 0.76655 -0.10434
 H276 H 0.43892 0.75939 -0.05674
 H277 H 0.44004 0.74611 0.04004
 H278 H 0.35799 0.74120 0.08987
 H279 H 0.17081 0.75847 -0.05303
 H280 H 0.17190 0.75597 0.04326
 C281 C -0.03289 0.20993 0.76947
 C282 C -0.05824 0.25556 0.74925
 C283 C -0.02785 0.29764 0.73061
 C284 C 0.02720 0.29471 0.73054
 C285 C 0.05393 0.24921 0.74830
 C286 C 0.02344 0.20540 0.76686
 C287 C -0.06264 0.16881 0.79285
 C288 C -0.03794 0.12304 0.81086
 C289 C 0.01629 0.11646 0.80414
 C290 C 0.04673 0.15674 0.78191
 H291 H -0.10512 0.17190 0.79788
 H292 H -0.06124 0.09191 0.82881
 H293 H 0.03494 0.07985 0.81617
 H294 H 0.08808 0.14812 0.77591
 H295 H -0.04693 0.33294 0.71556
 H296 H 0.04912 0.32874 0.71646
 C297 C 0.68940 0.53515 0.74065
 C298 C 0.73800 0.56286 0.74764
 C299 C 0.78479 0.53413 0.75532
 C300 C 0.78482 0.47923 0.75435
 C301 C 0.73818 0.45062 0.74512
 C302 C 0.68952 0.47863 0.73847
 C303 C 0.64030 0.56211 0.73783
 C304 C 0.59319 0.53487 0.72937
 C305 C 0.59342 0.48022 0.72557
 C306 C 0.64054 0.45218 0.73155
 H307 H 0.63701 0.60424 0.74331
 H308 H 0.55614 0.55627 0.72657
 H309 H 0.55655 0.45931 0.71924
 H310 H 0.63715 0.40981 0.73153
 H311 H 0.82215 0.55443 0.76118
 H312 H 0.82220 0.45885 0.75982
 C313 C 0.80519 0.25581 -0.03464
 C314 C 0.75593 0.25477 -0.06185
 C315 C 0.70868 0.25496 -0.03283
 C316 C 0.70932 0.25711 0.02221
 C317 C 0.75723 0.25896 0.05018
 C318 C 0.80586 0.25956 0.02171
 C319 C 0.85392 0.25223 -0.06207
 C320 C 0.90197 0.25568 -0.03511
 C321 C 0.90260 0.26278 0.01944
 C322 C 0.85521 0.26483 0.04772
 H323 H 0.85564 0.24603 -0.10435
 H324 H 0.93892 0.25319 -0.05675
 H325 H 0.94004 0.26647 0.04003
 H326 H 0.85799 0.27138 0.08986
 H327 H 0.67081 0.25412 -0.05304
 H328 H 0.67190 0.25662 0.04325
 C329 C 0.52922 0.30347 0.76882
 C330 C 0.55518 0.25677 0.75217
 C331 C 0.52541 0.21398 0.73404
 C332 C 0.47040 0.21712 0.73122
 C333 C 0.44327 0.26352 0.74560
 C334 C 0.47314 0.30805 0.76333
 C335 C 0.55809 0.34565 0.79137
 C336 C 0.53279 0.39229 0.80602
 C337 C 0.47896 0.39870 0.79644
 C338 C 0.44943 0.35748 0.77475
 H339 H 0.60029 0.34272 0.79841
 H340 H 0.55537 0.42419 0.82352
 H341 H 0.45995 0.43591 0.80575
 H342 H 0.40845 0.36586 0.76619
 H343 H 0.54497 0.17805 0.72128
 H344 H 0.44882 0.18258 0.71791
 C345 C 0.18952 0.53396 0.73848
 C346 C 0.23819 0.56198 0.74513
 C347 C 0.28483 0.53336 0.75436
 C348 C 0.28479 0.47846 0.75532
 C349 C 0.23800 0.44973 0.74765
 C350 C 0.18941 0.47744 0.74066
 C351 C 0.14054 0.56041 0.73157
 C352 C 0.09342 0.53237 0.72558
 C353 C 0.09319 0.47773 0.72939
 C354 C 0.14030 0.45048 0.73784
 H355 H 0.13715 0.60278 0.73154
 H356 H 0.05655 0.55328 0.71926
 H357 H 0.05614 0.45632 0.72659
 H358 H 0.13701 0.40835 0.74332
 H359 H 0.32220 0.55374 0.75983
 H360 H 0.32216 0.45816 0.76118
 C361 C 0.30512 0.25733 -0.03222
 C362 C 0.25597 0.25503 -0.05960
 C363 C 0.20861 0.25406 -0.03075
 C364 C 0.20900 0.25625 0.02427
 C365 C 0.25676 0.25924 0.05231
 C366 C 0.30545 0.26101 0.02411
 C367 C 0.35410 0.25506 -0.05937
 C368 C 0.40190 0.25978 -0.03216
 C369 C 0.40207 0.26668 0.02242
 C370 C 0.35451 0.26735 0.05044
 H371 H 0.35627 0.24889 -0.10162
 H372 H 0.43902 0.25837 -0.05360
 H373 H 0.43929 0.27123 0.04323
 H374 H 0.35683 0.27364 0.09266
 H375 H 0.17083 0.25229 -0.05106
 H376 H 0.17155 0.25487 0.04523
 C377 C -0.02335 0.70540 0.26686
 C378 C -0.05383 0.74921 0.24830
 C379 C -0.02710 0.79470 0.23054
 C380 C 0.02796 0.79763 0.23061
 C381 C 0.05834 0.75556 0.24925
 C382 C 0.03299 0.70992 0.26948
 C383 C -0.04663 0.65674 0.28192
 C384 C -0.01620 0.61646 0.30415
 C385 C 0.03804 0.62304 0.31087
 C386 C 0.06274 0.66881 0.29286
 H387 H -0.08798 0.64812 0.27592
 H388 H -0.03485 0.57985 0.31619
 H389 H 0.06133 0.59191 0.32882
 H390 H 0.10522 0.67190 0.29789
 H391 H -0.04902 0.82874 0.21646
 H392 H 0.04704 0.83293 0.21556
 C393 C 0.81070 -0.02255 0.24066
 C394 C 0.76210 -0.05027 0.24764
 C395 C 0.71531 -0.02154 0.25531
 C396 C 0.71527 0.03336 0.25435
 C397 C 0.76191 0.06198 0.24512
 C398 C 0.81058 0.03396 0.23848
 C399 C 0.85980 -0.04952 0.23784
 C400 C 0.90691 -0.02227 0.22939
 C401 C 0.90668 0.03238 0.22559
 C402 C 0.85956 0.06042 0.23157
 H403 H 0.86309 -0.09165 0.24332
 H404 H 0.94396 -0.04367 0.22660
 H405 H 0.94355 0.05329 0.21927
 H406 H 0.86294 0.10279 0.23155
 H407 H 0.67794 -0.04184 0.26117
 H408 H 0.67790 0.05374 0.25981
 C409 C 0.69464 0.76101 0.52410
 C410 C 0.74333 0.75923 0.55231
 C411 C 0.79110 0.75624 0.52427
 C412 C 0.79149 0.75405 0.46924
 C413 C 0.74413 0.75503 0.44040
 C414 C 0.69497 0.75733 0.46777
 C415 C 0.64559 0.76736 0.55043
 C416 C 0.59803 0.76669 0.52241
 C417 C 0.59820 0.75979 0.46783
 C418 C 0.64600 0.75507 0.44062
 H419 H 0.64326 0.77365 0.59266
 H420 H 0.56081 0.77125 0.54322
 H421 H 0.56108 0.75838 0.44639
 H422 H 0.64383 0.74890 0.39837
 H423 H 0.82855 0.75487 0.54522
 H424 H 0.82927 0.75228 0.44893
 C425 C 0.52696 0.80805 0.26333
 C426 C 0.55683 0.76352 0.24559
 C427 C 0.52970 0.71713 0.23121
 C428 C 0.47469 0.71398 0.23403
 C429 C 0.44491 0.75677 0.25217
 C430 C 0.47088 0.80346 0.26882
 C431 C 0.55067 0.85748 0.27475
 C432 C 0.52114 0.89870 0.29645
 C433 C 0.46731 0.89229 0.30604
 C434 C 0.44202 0.84565 0.29138
 H435 H 0.59165 0.86586 0.26619
 H436 H 0.54015 0.93591 0.30577
 H437 H 0.44473 0.92418 0.32354
 H438 H 0.39981 0.84272 0.29842
 H439 H 0.55128 0.68258 0.21789
 H440 H 0.45513 0.67805 0.22127
 C441 C 0.31058 -0.02137 0.23848
 C442 C 0.26191 -0.04939 0.24513
 C443 C 0.21527 -0.02078 0.25436
 C444 C 0.21531 0.03413 0.25532
 C445 C 0.26210 0.06286 0.24765
 C446 C 0.31069 0.03515 0.24066
 C447 C 0.35956 -0.04782 0.23157
 C448 C 0.40668 -0.01978 0.22559
 C449 C 0.40691 0.03487 0.22939
 C450 C 0.35980 0.06211 0.23784
 H451 H 0.36295 -0.09019 0.23155
 H452 H 0.44355 -0.04069 0.21927
 H453 H 0.44396 0.05627 0.22659
 H454 H 0.36308 0.10424 0.24332
 H455 H 0.17790 -0.04116 0.25982
 H456 H 0.17794 0.05443 0.26118
 C457 C 0.19424 0.75956 0.52172
 C458 C 0.24287 0.75896 0.55018
 C459 C 0.29078 0.75710 0.52222
 C460 C 0.29142 0.75495 0.46717
 C461 C 0.24417 0.75477 0.43816
 C462 C 0.19491 0.75581 0.46537
 C463 C 0.14489 0.76484 0.54773
 C464 C 0.09751 0.76280 0.51944
 C465 C 0.09813 0.75569 0.46489
 C466 C 0.14618 0.75224 0.43794
 H467 H 0.14212 0.77140 0.58987
 H468 H 0.06007 0.76649 0.54004
 H469 H 0.06118 0.75322 0.44326
 H470 H 0.14446 0.74605 0.39566
 H471 H 0.32820 0.75661 0.54326
 H472 H 0.32930 0.75411 0.44697
 C473 C -0.02913 0.20913 0.26883
 C474 C -0.05509 0.25583 0.25217
 C475 C -0.02532 0.29861 0.23403
 C476 C 0.02969 0.29546 0.23121
 C477 C 0.05682 0.24907 0.24560
 C478 C 0.02695 0.20454 0.26334
 C479 C -0.05799 0.16695 0.29139
 C480 C -0.03270 0.12031 0.30605
 C481 C 0.02113 0.11390 0.29647
 C482 C 0.05066 0.15511 0.27477
 H483 H -0.10020 0.16988 0.29842
 H484 H -0.05528 0.08841 0.32356
 H485 H 0.04014 0.07669 0.30579
 H486 H 0.09164 0.14673 0.26621
 H487 H -0.04487 0.33454 0.22126
 H488 H 0.05128 0.33001 0.21789
 C489 C 0.69282 0.53502 0.24297
 C490 C 0.74146 0.56280 0.24918
 C491 C 0.78840 0.53416 0.25628
 C492 C 0.78851 0.47922 0.25526
 C493 C 0.74177 0.45058 0.24660
 C494 C 0.69299 0.47852 0.24083
 C495 C 0.64366 0.56192 0.24089
 C496 C 0.59642 0.53455 0.23355
 C497 C 0.59665 0.47987 0.22996
 C498 C 0.64397 0.45194 0.23489
 H499 H 0.64051 0.60411 0.24614
 H500 H 0.55929 0.55589 0.23142
 H501 H 0.55970 0.45886 0.22455
 H502 H 0.64082 0.40954 0.23488
 H503 H 0.82579 0.55455 0.26162
 H504 H 0.82595 0.45884 0.26017
 C505 C 0.69423 0.25303 0.52171
 C506 C 0.74286 0.25363 0.55018
 C507 C 0.79078 0.25549 0.52221
 C508 C 0.79141 0.25764 0.46717
 C509 C 0.74416 0.25782 0.43815
 C510 C 0.69490 0.25678 0.46536
 C511 C 0.64488 0.24775 0.54772
 C512 C 0.59750 0.24979 0.51944
 C513 C 0.59812 0.25690 0.46489
 C514 C 0.64617 0.26035 0.43793
 H515 H 0.64211 0.24120 0.58986
 H516 H 0.56006 0.24610 0.54003
 H517 H 0.56117 0.25938 0.44325
 H518 H 0.64445 0.26655 0.39565
 H519 H 0.82820 0.25598 0.54325
 H520 H 0.82929 0.25848 0.44696
 C521 C 0.53298 0.30266 0.26948
 C522 C 0.55833 0.25703 0.24925
 C523 C 0.52795 0.21496 0.23060
 C524 C 0.47289 0.21789 0.23053
 C525 C 0.44617 0.26338 0.24830
 C526 C 0.47665 0.30719 0.26686
 C527 C 0.56273 0.34377 0.29286
 C528 C 0.53804 0.38954 0.31088
 C529 C 0.48380 0.39612 0.30416
 C530 C 0.45337 0.35585 0.28192
 H531 H 0.60521 0.34069 0.29788
 H532 H 0.56133 0.42067 0.32883
 H533 H 0.46515 0.43273 0.31620
 H534 H 0.41201 0.36447 0.27593
 H535 H 0.54703 0.17966 0.21554
 H536 H 0.45098 0.18385 0.21645
 C537 C 0.19299 0.53407 0.24083
 C538 C 0.24178 0.56201 0.24661
 C539 C 0.28851 0.53337 0.25528
 C540 C 0.28840 0.47843 0.25629
 C541 C 0.24146 0.44979 0.24919
 C542 C 0.19282 0.47757 0.24297
 C543 C 0.14397 0.56065 0.23489
 C544 C 0.09665 0.53272 0.22996
 C545 C 0.09642 0.47804 0.23355
 C546 C 0.14366 0.45067 0.24090
 H547 H 0.14082 0.60305 0.23488
 H548 H 0.05970 0.55373 0.22454
 H549 H 0.05928 0.45671 0.23141
 H550 H 0.14050 0.40849 0.24615
 H551 H 0.32596 0.55375 0.26019
 H552 H 0.32579 0.45804 0.26164
 C553 C 0.19464 0.25158 0.52411
 C554 C 0.24333 0.25335 0.55231
 C555 C 0.29110 0.25634 0.52427
 C556 C 0.29148 0.25853 0.46925
 C557 C 0.24413 0.25756 0.44040
 C558 C 0.19497 0.25526 0.46778
 C559 C 0.14559 0.24524 0.55044
 C560 C 0.09802 0.24591 0.52241
 C561 C 0.09819 0.25281 0.46784
 C562 C 0.14600 0.25753 0.44063
 H563 H 0.14326 0.23895 0.59266
 H564 H 0.06080 0.24136 0.54323
 H565 H 0.06108 0.25423 0.44639
 H566 H 0.14383 0.26370 0.39838
 H567 H 0.32854 0.25771 0.54523
 H568 H 0.32927 0.26030 0.44894
   
