data_POSCAR
  _audit_creation_date              2014-09-24
  _audit_creation_method            'ToBaCCo'
  _symmetry_space_group_name_H-M    'P1'
  _symmetry_Int_Tables_number       1
  _symmetry_cell_setting            triclinic
  loop_
  _symmetry_equiv_pos_as_xyz
 x,y,z
_cell_length_a 57.6780
_cell_length_b 58.2406
_cell_length_c 27.3162
_cell_angle_alpha 89.687500
_cell_angle_beta 89.893200
_cell_angle_gamma 119.647400
loop_
  _atom_site_label
  _atom_site_type_symbol
  _atom_site_fract_x
  _atom_site_fract_y
  _atom_site_fract_z
C1 C 0.14896 0.42972 0.49160
 C2 C 0.16367 0.43742 0.44727
 C3 C 0.19036 0.44272 0.44847
 C4 C 0.20172 0.43923 0.49145
 C5 C 0.18614 0.43113 0.53450
 C6 C 0.16028 0.42781 0.53611
 C7 C 0.23021 0.44520 0.49225
 C8 C 0.24481 0.45296 0.53623
 C9 C 0.27115 0.45807 0.53820
 C10 C 0.28369 0.45667 0.49543
 C11 C 0.27023 0.45014 0.45046
 C12 C 0.24325 0.44370 0.44942
 H13 H 0.12870 0.42583 0.49182
 H14 H 0.20293 0.45112 0.41664
 H15 H 0.19393 0.42679 0.56701
 H16 H 0.23612 0.45563 0.56932
 H17 H 0.30395 0.46022 0.49756
 H18 H 0.23267 0.43780 0.41510
 C19 C 0.54902 -0.29533 0.51390
 C20 C 0.53987 -0.28830 0.47179
 C21 C 0.53485 -0.26703 0.47497
 C22 C 0.54099 -0.25157 0.51753
 C23 C 0.55058 -0.25898 0.55876
 C24 C 0.55400 -0.28131 0.55806
 C25 C 0.53828 -0.22724 0.51826
 C26 C 0.53392 -0.21761 0.56257
 C27 C 0.53350 -0.19374 0.56389
 C28 C 0.53571 -0.18013 0.52007
 C29 C 0.53874 -0.18992 0.47521
 C30 C 0.54077 -0.21295 0.47474
 H31 H 0.54981 -0.31348 0.51338
 H32 H 0.52723 -0.26173 0.44346
 H33 H 0.55660 -0.24664 0.59085
 H34 H 0.53137 -0.22824 0.59655
 H35 H 0.53449 -0.16215 0.52090
 H36 H 0.54500 -0.21911 0.44019
 C37 C 1.29196 0.83399 0.51021
 C38 C 1.27985 0.82990 0.46399
 C39 C 1.25265 0.81040 0.46021
 C40 C 1.23859 0.79433 0.50092
 C41 C 1.25204 0.79852 0.54603
 C42 C 1.27852 0.81845 0.55073
 C43 C 1.21026 0.77259 0.49669
 C44 C 1.19336 0.76495 0.53801
 C45 C 1.16784 0.74232 0.53795
 C46 C 1.15834 0.72898 0.49323
 C47 C 1.17448 0.73653 0.45095
 C48 C 1.20046 0.75823 0.45304
 H49 H 1.31190 0.85033 0.51600
 H50 H 1.24259 0.80704 0.42547
 H51 H 1.24230 0.78603 0.57752
 H52 H 1.20015 0.77700 0.57047
 H53 H 1.13890 0.71151 0.49141
 H54 H 1.21332 0.76299 0.42128
 C55 C 0.84312 0.57036 0.49755
 C56 C 0.83128 0.56618 0.45137
 C57 C 0.80606 0.56400 0.44720
 C58 C 0.79299 0.56722 0.48806
 C59 C 0.80547 0.57162 0.53425
 C60 C 0.83029 0.57277 0.53931
 C61 C 0.76642 0.56572 0.48202
 C62 C 0.74770 0.55705 0.52074
 C63 C 0.72222 0.55466 0.51496
 C64 C 0.71568 0.56054 0.46854
 C65 C 0.73368 0.56852 0.42928
 C66 C 0.75915 0.57187 0.43661
 H67 H 0.86205 0.57083 0.50122
 H68 H 0.79677 0.55983 0.41162
 H69 H 0.79627 0.57459 0.56634
 H70 H 0.75242 0.55056 0.55449
 H71 H 0.69659 0.55928 0.46226
 H72 H 0.77311 0.57929 0.40633
 C73 C 0.42020 0.26879 0.52292
 C74 C 0.42949 0.26477 0.47818
 C75 C 0.43464 0.24377 0.47367
 C76 C 0.43003 0.22623 0.51295
 C77 C 0.42090 0.23088 0.55787
 C78 C 0.41680 0.25268 0.56406
 C79 C 0.43637 0.20425 0.50774
 C80 C 0.44374 0.19457 0.54905
 C81 C 0.45163 0.17531 0.54451
 C82 C 0.45271 0.16637 0.49734
 C83 C 0.44582 0.17575 0.45592
 C84 C 0.43676 0.19388 0.46118
 H85 H 0.41743 0.28578 0.52606
 H86 H 0.44343 0.24202 0.43989
 H87 H 0.41633 0.21719 0.58800
 H88 H 0.44508 0.20324 0.58450
 H89 H 0.45795 0.15108 0.49208
 H90 H 0.43075 0.20021 0.42867
 C91 C 0.71829 0.17246 0.49993
 C92 C 0.73176 0.18259 0.45548
 C93 C 0.75691 0.20539 0.45555
 C94 C 0.76806 0.21965 0.49887
 C95 C 0.75340 0.20971 0.54292
 C96 C 0.72911 0.18572 0.54397
 C97 C 0.79494 0.24438 0.49787
 C98 C 0.81055 0.25349 0.54058
 C99 C 0.83579 0.27660 0.54040
 C100 C 0.84613 0.28949 0.49520
 C101 C 0.83143 0.28051 0.45188
 C102 C 0.80556 0.25873 0.45391
 H103 H 0.69899 0.15462 0.50015
 H104 H 0.76769 0.21145 0.42125
 H105 H 0.76079 0.22018 0.57693
 H106 H 0.80370 0.24193 0.57383
 H107 H 0.86509 0.30762 0.49348
 H108 H 0.79412 0.25296 0.42058
 O109 O 0.97033 0.50493 -0.10855
 O110 O 1.03565 0.53448 0.08031
 O111 O 0.95389 0.50171 0.03974
 O112 O 1.05193 0.55272 -0.06678
 O113 O 0.99136 0.52979 0.07152
 O114 O 1.01402 0.54388 -0.09694
 O115 O 1.04859 0.55801 0.01731
 O116 O 0.95702 0.51293 -0.04307
 C117 C 0.95899 0.51549 -0.08783
 C118 C 1.04648 0.55689 0.06221
 C119 C 0.96727 0.52191 0.06543
 C120 C 1.03789 0.56008 -0.09014
 O121 O 1.03569 0.51365 -0.11046
 O122 O 0.97123 0.47828 0.08024
 O123 O 0.95421 0.46473 -0.06760
 O124 O 1.05287 0.51249 0.03586
 O125 O 1.01538 0.48331 0.06683
 O126 O 0.99189 0.47429 -0.10030
 O127 O 1.04909 0.50366 -0.04744
 O128 O 0.95780 0.45697 0.01526
 Co129 Co 1.00301 0.50906 -0.09505
 Co130 Co 1.00339 0.50662 0.06550
 Co131 Co 0.96004 0.48626 -0.01403
 Co132 Co 1.04635 0.52960 -0.01528
 O133 O 1.00319 0.50790 -0.01472
 C134 C 1.04637 0.50182 -0.09207
 C135 C 0.95990 0.45658 0.06000
 C136 C 0.96810 0.45787 -0.09260
 C137 C 1.03944 0.49131 0.05962
 O138 O 0.46218 0.44521 -0.06920
 O139 O 0.47250 0.48896 0.09226
 O140 O 0.49533 0.44330 0.04281
 O141 O 0.45815 0.51450 -0.04760
 O142 O 0.50571 0.47469 0.09534
 O143 O 0.44777 0.47558 -0.06001
 O144 O 0.44885 0.48657 0.02995
 O145 O 0.49507 0.43990 -0.04845
 C146 C 0.47249 0.43099 -0.06696
 C147 C 0.44998 0.48116 0.07373
 C148 C 0.49588 0.45050 0.08588
 C149 C 0.44263 0.49353 -0.06754
 O150 O 0.49639 0.51581 -0.09676
 O151 O 0.54140 0.52100 0.05274
 O152 O 0.53956 0.48401 -0.05441
 O153 O 0.47459 0.53655 0.03566
 O154 O 0.51059 0.53667 0.05635
 O155 O 0.50978 0.48188 -0.10701
 O156 O 0.50702 0.53973 -0.03072
 O157 O 0.54319 0.48581 0.03762
 Co158 Co 0.48028 0.48059 -0.07720
 Co159 Co 0.50637 0.50387 0.06751
 Co160 Co 0.51610 0.46569 -0.00528
 Co161 Co 0.47886 0.51251 0.00094
 O162 O 0.49535 0.48882 -0.00566
 C163 C 0.50919 0.53814 -0.07614
 C164 C 0.55443 0.50933 0.05171
 C165 C 0.53306 0.48608 -0.09737
 C166 C 0.49451 0.54500 0.06533
 O167 O 0.55585 0.02413 -0.05591
 O168 O 0.53023 -0.02258 0.07539
 O169 O 0.54751 0.05591 0.05172
 O170 O 0.49277 -0.05570 -0.02337
 O171 O 0.55508 0.02426 0.06580
 O172 O 0.52884 -0.02670 -0.06297
 O173 O 0.49000 -0.05234 0.06708
 O174 O 0.54764 0.05541 -0.03721
 C175 C 0.56329 0.04814 -0.05435
 C176 C 0.51307 -0.04594 0.08046
 C177 C 0.56344 0.04829 0.06482
 C178 C 0.51300 -0.05001 -0.04989
 O179 O 0.48753 -0.02327 -0.09151
 O180 O 0.51460 0.02851 0.10755
 O181 O 0.49446 0.03646 -0.03752
 O182 O 0.45834 -0.03153 0.05543
 O183 O 0.48799 -0.01873 0.11259
 O184 O 0.51364 0.02554 -0.09261
 O185 O 0.45657 -0.04117 -0.03512
 O186 O 0.49302 0.03425 0.05054
 Co187 Co 0.52062 0.00033 -0.06733
 Co188 Co 0.52091 0.00269 0.08380
 Co189 Co 0.51976 0.04174 0.00749
 Co190 Co 0.47777 -0.04066 0.01588
 O191 O 0.50940 0.00083 0.00948
 C192 C 0.46333 -0.03714 -0.07919
 C193 C 0.49766 0.03475 0.09479
 C194 C 0.49820 0.03406 -0.08141
 C195 C 0.46436 -0.02627 0.09924
 C196 C 1.12789 0.44468 0.31550
 C197 C 1.11803 0.44651 0.36129
 C198 C 1.13009 0.44480 0.40424
 C199 C 1.15212 0.44038 0.40311
 C200 C 1.16202 0.43882 0.35643
 C201 C 1.15022 0.44122 0.31334
 C202 C 1.11477 0.44673 0.27065
 N203 N 1.12893 0.45786 0.22900
 N204 N 1.11717 0.46145 0.19000
 C205 C 1.09073 0.45373 0.19099
 N206 N 1.07656 0.44213 0.23233
 N207 N 1.08833 0.43878 0.27137
 C208 C 1.07794 0.46009 0.15026
 C209 C 1.05000 0.44696 0.14683
 C210 C 1.03750 0.45596 0.11451
 C211 C 1.05265 0.47851 0.08538
 C212 C 1.08062 0.49039 0.08592
 C213 C 1.09317 0.48118 0.11799
 H214 H 1.10125 0.44994 0.36398
 H215 H 1.12238 0.44805 0.43796
 H216 H 1.17821 0.43464 0.35245
 H217 H 1.15813 0.43963 0.27831
 H218 H 1.03772 0.43035 0.17063
 H219 H 1.01594 0.44601 0.11414
 H220 H 1.09283 0.50768 0.06357
 H221 H 1.11474 0.49163 0.11966
 C222 C 0.52880 0.66894 0.33978
 C223 C 0.54830 0.67192 0.37369
 C224 C 0.55181 0.68589 0.41680
 C225 C 0.53605 0.69762 0.42749
 C226 C 0.51681 0.69501 0.39266
 C227 C 0.51312 0.68068 0.34963
 C228 C 0.52471 0.65316 0.29510
 N229 N 0.50293 0.64561 0.26641
 N230 N 0.49885 0.63033 0.22757
 C231 C 0.51644 0.62207 0.21577
 N232 N 0.53833 0.62990 0.24415
 N233 N 0.54236 0.64508 0.28296
 C234 C 0.51142 0.60388 0.17444
 C235 C 0.53042 0.59640 0.16210
 C236 C 0.52510 0.57774 0.12578
 C237 C 0.50069 0.56615 0.10093
 C238 C 0.48196 0.57411 0.11201
 C239 C 0.48728 0.59284 0.14846
 H240 H 0.56089 0.66329 0.36718
 H241 H 0.56771 0.68818 0.44081
 H242 H 0.50360 0.70288 0.39926
 H243 H 0.49784 0.67867 0.32423
 H244 H 0.54929 0.60460 0.18108
 H245 H 0.54000 0.57211 0.11771
 H246 H 0.46297 0.56542 0.09333
 H247 H 0.47223 0.59819 0.15703
 C248 C 0.32799 -0.11900 0.34925
 C249 C 0.33918 -0.12640 0.38727
 C250 C 0.32317 -0.14405 0.42322
 C251 C 0.29523 -0.15454 0.42351
 C252 C 0.28382 -0.14828 0.38342
 C253 C 0.30010 -0.13065 0.34666
 C254 C 0.34602 -0.09939 0.31295
 N255 N 0.33833 -0.09932 0.26602
 N256 N 0.35594 -0.08334 0.23266
 C257 C 0.38180 -0.06671 0.24503
 N258 N 0.38912 -0.06629 0.29229
 N259 N 0.37163 -0.08227 0.32547
 C260 C 0.40242 -0.05195 0.20726
 C261 C 0.42935 -0.03646 0.22080
 C262 C 0.44952 -0.02680 0.18540
 C263 C 0.44317 -0.03231 0.13576
 C264 C 0.41620 -0.04586 0.12188
 C265 C 0.39601 -0.05563 0.15731
 H266 H 0.36053 -0.11867 0.38916
 H267 H 0.33305 -0.14971 0.45044
 H268 H 0.26257 -0.15563 0.38152
 H269 H 0.29097 -0.12546 0.31719
 H270 H 0.43502 -0.03290 0.25894
 H271 H 0.47012 -0.01604 0.19709
 H272 H 0.41067 -0.05015 0.08377
 H273 H 0.37549 -0.06724 0.14559
 C274 C 0.87202 0.56130 0.32275
 C275 C 0.84453 0.54399 0.32921
 C276 C 0.83135 0.54540 0.37105
 C277 C 0.84532 0.56423 0.40733
 C278 C 0.87278 0.58158 0.40086
 C279 C 0.88599 0.58012 0.35908
 C280 C 0.88614 0.55925 0.27906
 N281 N 0.91308 0.57420 0.27484
 N282 N 0.92589 0.57137 0.23677
 C283 C 0.91230 0.55356 0.20118
 N284 N 0.88533 0.53889 0.20506
 N285 N 0.87252 0.54169 0.24315
 C286 C 0.92668 0.54857 0.16132
 C287 C 0.91247 0.52944 0.12560
 C288 C 0.92586 0.52193 0.09234
 C289 C 0.95374 0.53334 0.09413
 C290 C 0.96811 0.55376 0.12756
 C291 C 0.95472 0.56130 0.16084
 H292 H 0.83318 0.52912 0.30216
 H293 H 0.81026 0.53151 0.37529
 H294 H 0.88401 0.59654 0.42785
 H295 H 0.90716 0.59379 0.35529
 H296 H 0.89089 0.51946 0.12452
 H297 H 0.91425 0.50629 0.06672
 H298 H 0.98962 0.56310 0.12951
 H299 H 0.96632 0.57630 0.18751
 C300 C 0.44695 0.31986 0.35908
 C301 C 0.43405 0.29253 0.35026
 C302 C 0.42839 0.27462 0.38885
 C303 C 0.43550 0.28367 0.43702
 C304 C 0.44859 0.31098 0.44574
 C305 C 0.45419 0.32886 0.40728
 C306 C 0.45302 0.33896 0.31840
 N307 N 0.46381 0.36517 0.32753
 N308 N 0.46956 0.38244 0.29107
 C309 C 0.46478 0.37426 0.24387
 N310 N 0.45391 0.34803 0.23471
 N311 N 0.44812 0.33074 0.27121
 C312 C 0.47180 0.39361 0.20331
 C313 C 0.46908 0.38546 0.15430
 C314 C 0.47662 0.40388 0.11614
 C315 C 0.48699 0.43085 0.12614
 C316 C 0.48923 0.43894 0.17508
 C317 C 0.48177 0.42054 0.21323
 H318 H 0.42818 0.28493 0.31358
 H319 H 0.41818 0.25367 0.38113
 H320 H 0.45485 0.31859 0.48231
 H321 H 0.46436 0.34976 0.41539
 H322 H 0.46143 0.36487 0.14533
 H323 H 0.47454 0.39701 0.07879
 H324 H 0.49703 0.45956 0.18397
 H325 H 0.48401 0.42750 0.25053
 C326 C 0.69421 0.14676 0.31929
 C327 C 0.70682 0.17427 0.32519
 C328 C 0.71934 0.18581 0.36917
 C329 C 0.71930 0.17009 0.40842
 C330 C 0.70688 0.14261 0.40255
 C331 C 0.69461 0.13106 0.35827
 C332 C 0.67975 0.13445 0.27356
 N333 N 0.67198 0.10886 0.26348
 N334 N 0.65757 0.09732 0.22385
 C335 C 0.65026 0.11084 0.19266
 N336 N 0.65831 0.13654 0.20242
 N337 N 0.67285 0.14813 0.24193
 C338 C 0.63168 0.09698 0.15197
 C339 C 0.61746 0.10793 0.12926
 C340 C 0.59636 0.09274 0.09759
 C341 C 0.58924 0.06640 0.08796
 C342 C 0.60501 0.05631 0.10719
 C343 C 0.62594 0.07140 0.13898
 H344 H 0.70689 0.18691 0.29591
 H345 H 0.72858 0.20704 0.37293
 H346 H 0.70674 0.13010 0.43216
 H347 H 0.68498 0.10979 0.35496
 H348 H 0.62152 0.12766 0.13821
 H349 H 0.58463 0.10107 0.08311
 H350 H 0.60019 0.03615 0.10008
 H351 H 0.63679 0.06253 0.15518
 C352 C 0.46630 0.13735 -0.33599
 C353 C 0.44983 0.14856 -0.32960
 C354 C 0.44592 0.16227 -0.36810
 C355 C 0.45815 0.16477 -0.41418
 C356 C 0.47610 0.15501 -0.41878
 C357 C 0.48000 0.14149 -0.38048
 C358 C 0.46866 0.12052 -0.29777
 N359 N 0.48105 0.10648 -0.30825
 N360 N 0.48299 0.09088 -0.27477
 C361 C 0.47256 0.08856 -0.22929
 N362 N 0.46008 0.10256 -0.21865
 N363 N 0.45806 0.11815 -0.25231
 C364 C 0.47597 0.07203 -0.19182
 C365 C 0.46929 0.07268 -0.14254
 C366 C 0.47530 0.05922 -0.10669
 C367 C 0.48808 0.04486 -0.11951
 C368 C 0.49337 0.04302 -0.16904
 C369 C 0.48741 0.05645 -0.20479
 H370 H 0.43917 0.14591 -0.29549
 H371 H 0.43183 0.16920 -0.36243
 H372 H 0.48756 0.15794 -0.45194
 H373 H 0.49355 0.13390 -0.38621
 H374 H 0.46032 0.08435 -0.13138
 H375 H 0.47090 0.06093 -0.06876
 H376 H 0.50300 0.03192 -0.18008
 H377 H 0.49250 0.05521 -0.24248
 C378 C 0.66614 0.53191 -0.36744
 C379 C 0.65750 0.52695 -0.41612
 C380 C 0.67578 0.53390 -0.45450
 C381 C 0.70353 0.54632 -0.44565
 C382 C 0.71197 0.55059 -0.39634
 C383 C 0.69355 0.54351 -0.35793
 C384 C 0.64658 0.52529 -0.32711
 N385 N 0.65415 0.52720 -0.27957
 N386 N 0.63649 0.52139 -0.24348
 C387 C 0.61055 0.51354 -0.25342
 N388 N 0.60302 0.51169 -0.30094
 N389 N 0.62065 0.51742 -0.33699
 C390 C 0.59084 0.50695 -0.21338
 C391 C 0.56477 0.50168 -0.22360
 C392 C 0.54606 0.49510 -0.18594
 C393 C 0.55295 0.49351 -0.13724
 C394 C 0.57906 0.49896 -0.12697
 C395 C 0.59779 0.50564 -0.16459
 H396 H 0.63647 0.51754 -0.42479
 H397 H 0.66771 0.52858 -0.49098
 H398 H 0.73290 0.56062 -0.38692
 H399 H 0.70091 0.54768 -0.32076
 H400 H 0.55878 0.50264 -0.26075
 H401 H 0.52615 0.49112 -0.19505
 H402 H 0.58504 0.49797 -0.08981
 H403 H 0.61767 0.50956 -0.15541
 C404 C 0.87779 0.31352 -0.32929
 C405 C 0.85007 0.29657 -0.32817
 C406 C 0.83639 0.28344 -0.37041
 C407 C 0.85002 0.28719 -0.41540
 C408 C 0.87809 0.30310 -0.41532
 C409 C 0.89172 0.31596 -0.37295
 C410 C 0.89182 0.33023 -0.28660
 N411 N 0.91877 0.34582 -0.28707
 N412 N 0.93118 0.36297 -0.25127
 C413 C 0.91718 0.36532 -0.21347
 N414 N 0.89028 0.34933 -0.21244
 N415 N 0.87787 0.33213 -0.24822
 C416 C 0.93066 0.38669 -0.17711
 C417 C 0.91568 0.39221 -0.14329
 C418 C 0.92804 0.41473 -0.11405
 C419 C 0.95562 0.43215 -0.11795
 C420 C 0.97083 0.42572 -0.14942
 C421 C 0.95849 0.40328 -0.17875
 H422 H 0.83873 0.29414 -0.29503
 H423 H 0.81487 0.27194 -0.36806
 H424 H 0.88986 0.30560 -0.44786
 H425 H 0.91316 0.32854 -0.37497
 H426 H 0.89423 0.37978 -0.14082
 H427 H 0.91582 0.41903 -0.08979
 H428 H 0.99216 0.43855 -0.15279
 H429 H 0.97069 0.39949 -0.20396
 C430 C 0.53025 -0.16005 -0.29824
 C431 C 0.51165 -0.18652 -0.30865
 C432 C 0.51268 -0.19763 -0.35338
 C433 C 0.53201 -0.18232 -0.38873
 C434 C 0.55050 -0.15591 -0.37837
 C435 C 0.54976 -0.14495 -0.33354
 C436 C 0.52909 -0.14774 -0.25170
 N437 N 0.55027 -0.12459 -0.23739
 N438 N 0.54879 -0.11227 -0.19767
 C439 C 0.52608 -0.12250 -0.17046
 N440 N 0.50499 -0.14593 -0.18424
 N441 N 0.50651 -0.15837 -0.22395
 C442 C 0.52361 -0.10674 -0.13041
 C443 C 0.49872 -0.11408 -0.10873
 C444 C 0.49562 -0.09641 -0.07852
 C445 C 0.51731 -0.07112 -0.06982
 C446 C 0.54261 -0.06478 -0.08785
 C447 C 0.54575 -0.08242 -0.11762
 H448 H 0.49639 -0.19864 -0.28219
 H449 H 0.49818 -0.21806 -0.36066
 H450 H 0.56577 -0.14381 -0.40485
 H451 H 0.56429 -0.12447 -0.32686
 H452 H 0.48130 -0.13275 -0.11749
 H453 H 0.47588 -0.10177 -0.06513
 H454 H 0.55975 -0.04552 -0.08125
 H455 H 0.56531 -0.07627 -0.13291
 C456 C 0.31461 0.47353 -0.32729
 C457 C 0.32571 0.49072 -0.36761
 C458 C 0.31139 0.48599 -0.41109
 C459 C 0.28554 0.46428 -0.41473
 C460 C 0.27401 0.44769 -0.37390
 C461 C 0.28850 0.45214 -0.33068
 C462 C 0.33078 0.47708 -0.28312
 N463 N 0.32484 0.45637 -0.25263
 N464 N 0.34055 0.45902 -0.21489
 C465 C 0.36272 0.48255 -0.20590
 N466 N 0.36839 0.50337 -0.23591
 N467 N 0.35280 0.50066 -0.27384
 C468 C 0.38133 0.48508 -0.16645
 C469 C 0.40026 0.51013 -0.14929
 C470 C 0.41951 0.51274 -0.11541
 C471 C 0.42042 0.49039 -0.09862
 C472 C 0.40106 0.46527 -0.11456
 C473 C 0.38153 0.46261 -0.14788
 H474 H 0.34582 0.50733 -0.36617
 H475 H 0.32059 0.49911 -0.44210
 H476 H 0.25412 0.43075 -0.37605
 H477 H 0.27940 0.43864 -0.30013
 H478 H 0.40051 0.52778 -0.16273
 H479 H 0.43427 0.53234 -0.10373
 H480 H 0.40137 0.44774 -0.10210
 H481 H 0.36726 0.44305 -0.16054
 C482 C 1.12540 0.70502 -0.33100
 C483 C 1.15292 0.72278 -0.33000
 C484 C 1.16660 0.73613 -0.37243
 C485 C 1.15322 0.73193 -0.41767
 C486 C 1.12522 0.71532 -0.41749
 C487 C 1.11156 0.70214 -0.37483
 C488 C 1.11171 0.68800 -0.28790
 N489 N 1.08485 0.67174 -0.28762
 N490 N 1.07292 0.65452 -0.25118
 C491 C 1.08731 0.65272 -0.21352
 N492 N 1.11411 0.66931 -0.21335
 N493 N 1.12603 0.68660 -0.24970
 C494 C 1.07442 0.63143 -0.17620
 C495 C 1.08991 0.62556 -0.14423
 C496 C 1.07792 0.60306 -0.11420
 C497 C 1.05020 0.58604 -0.11540
 C498 C 1.03457 0.59291 -0.14485
 C499 C 1.04654 0.61528 -0.17503
 H500 H 1.16421 0.72561 -0.29676
 H501 H 1.18805 0.74806 -0.36987
 H502 H 1.11355 0.71237 -0.45018
 H503 H 1.09023 0.68894 -0.37674
 H504 H 1.11143 0.63764 -0.14397
 H505 H 1.09048 0.59840 -0.09163
 H506 H 1.01312 0.58043 -0.14608
 H507 H 1.03396 0.61939 -0.19870
 C508 C 0.86820 0.57351 -0.32479
 C509 C 0.88289 0.59087 -0.36320
 C510 C 0.87030 0.59174 -0.40618
 C511 C 0.84268 0.57530 -0.41192
 C512 C 0.82765 0.55927 -0.37235
 C513 C 0.84029 0.55837 -0.32917
 C514 C 0.88234 0.56950 -0.28307
 N515 N 0.86879 0.55395 -0.24409
 N516 N 0.88151 0.54829 -0.20942
 C517 C 0.90826 0.55781 -0.21253
 N518 N 0.92181 0.57372 -0.25098
 N519 N 0.90915 0.57949 -0.28537
 C520 C 0.92213 0.54906 -0.17787
 C521 C 0.94538 0.54905 -0.19321
 C522 C 0.95740 0.53854 -0.16329
 C523 C 0.94697 0.52842 -0.11668
 C524 C 0.92440 0.52940 -0.10014
 C525 C 0.91183 0.53932 -0.13083
 H526 H 0.90436 0.60311 -0.36091
 H527 H 0.88232 0.60464 -0.43574
 H528 H 0.80634 0.54630 -0.37585
 H529 H 0.82835 0.54484 -0.30028
 H530 H 0.95377 0.55624 -0.22926
 H531 H 0.97476 0.53801 -0.17699
 H532 H 0.91592 0.52158 -0.06439
 H533 H 0.89395 0.53913 -0.11803
 C534 C 0.41126 0.28347 -0.29862
 C535 C 0.39796 0.28590 -0.33960
 C536 C 0.39835 0.27443 -0.38410
 C537 C 0.41188 0.25992 -0.38904
 C538 C 0.42284 0.25531 -0.34636
 C539 C 0.42282 0.26722 -0.30197
 C540 C 0.41537 0.30001 -0.25481
 N541 N 0.43422 0.30373 -0.22115
 N542 N 0.44044 0.32134 -0.18549
 C543 C 0.42804 0.33595 -0.18189
 N544 N 0.40870 0.33169 -0.21477
 N545 N 0.40254 0.31416 -0.25047
 C546 C 0.43719 0.35792 -0.14632
 C547 C 0.42420 0.37290 -0.14318
 C548 C 0.43495 0.39590 -0.11527
 C549 C 0.45901 0.40454 -0.08988
 C550 C 0.47120 0.38878 -0.09065
 C551 C 0.46039 0.36569 -0.11851
 H552 H 0.38833 0.29780 -0.33814
 H553 H 0.38818 0.27728 -0.41478
 H554 H 0.43366 0.24454 -0.34775
 H555 H 0.43296 0.26468 -0.27086
 H556 H 0.40620 0.36742 -0.16377
 H557 H 0.42497 0.40751 -0.11527
 H558 H 0.48968 0.39483 -0.07129
 H559 H 0.47086 0.35458 -0.11987
 C560 C 0.68913 0.15092 -0.31933
 C561 C 0.69318 0.13576 -0.35466
 C562 C 0.70598 0.14711 -0.39895
 C563 C 0.71533 0.17397 -0.40888
 C564 C 0.71161 0.18929 -0.37346
 C565 C 0.69847 0.17783 -0.32925
 C566 C 0.67472 0.13836 -0.27308
 N567 N 0.66502 0.15048 -0.24376
 N568 N 0.65082 0.13840 -0.20371
 C569 C 0.64590 0.11376 -0.19110
 N570 N 0.65596 0.10187 -0.22006
 N571 N 0.67003 0.11387 -0.26012
 C572 C 0.62808 0.09911 -0.14923
 C573 C 0.62422 0.07412 -0.13566
 C574 C 0.60444 0.05833 -0.10180
 C575 C 0.58799 0.06711 -0.08068
 C576 C 0.59318 0.09288 -0.09131
 C577 C 0.61303 0.10873 -0.12525
 H578 H 0.68619 0.11497 -0.34841
 H579 H 0.70884 0.13491 -0.42536
 H580 H 0.71852 0.21002 -0.38030
 H581 H 0.69567 0.19006 -0.30284
 H582 H 0.63568 0.06620 -0.15280
 H583 H 0.60111 0.03865 -0.09418
 H584 H 0.58087 0.10024 -0.07564
 H585 H 0.61560 0.12795 -0.13453
 C586 C 1.12096 0.42780 -0.33182
 C587 C 1.10609 0.41456 -0.37326
 C588 C 1.11874 0.41296 -0.41571
 C589 C 1.14681 0.42478 -0.41840
 C590 C 1.16134 0.43590 -0.37495
 C591 C 1.14859 0.43746 -0.33246
 C592 C 1.10805 0.43376 -0.29051
 N593 N 1.12181 0.44571 -0.24924
 N594 N 1.11104 0.45377 -0.21483
 C595 C 1.08612 0.45035 -0.22048
 N596 N 1.07221 0.43793 -0.26122
 N597 N 1.08291 0.42978 -0.29541
 C598 C 1.07514 0.46198 -0.18561
 C599 C 1.05526 0.46755 -0.20134
 C600 C 1.04610 0.48041 -0.17067
 C601 C 1.05606 0.48752 -0.12301
 C602 C 1.07533 0.48127 -0.10639
 C603 C 1.08505 0.46888 -0.13770
 H604 H 1.08463 0.40614 -0.37358
 H605 H 1.10619 0.40244 -0.44636
 H606 H 1.18289 0.44560 -0.37435
 H607 H 1.16067 0.44764 -0.30105
 H608 H 1.04728 0.46267 -0.23803
 H609 H 1.03113 0.48482 -0.18442
 H610 H 1.08331 0.48654 -0.06975
 H611 H 1.10036 0.46479 -0.12456
 C612 C 0.56665 0.68325 -0.31591
 C613 C 0.57670 0.68148 -0.36168
 C614 C 0.57396 0.69440 -0.40252
 C615 C 0.56094 0.70947 -0.39910
 C616 C 0.55321 0.71322 -0.35201
 C617 C 0.55587 0.70011 -0.31109
 C618 C 0.56502 0.66551 -0.27521
 N619 N 0.55529 0.66677 -0.23055
 N620 N 0.55081 0.64870 -0.19611
 C621 C 0.55574 0.62856 -0.20496
 N622 N 0.56599 0.62766 -0.24921
 N623 N 0.57057 0.64575 -0.28352
 C624 C 0.54746 0.60654 -0.16937
 C625 C 0.54433 0.58216 -0.18477
 C626 C 0.53286 0.56016 -0.15365
 C627 C 0.52469 0.56216 -0.10621
 C628 C 0.52932 0.58686 -0.08962
 C629 C 0.54041 0.60882 -0.12106
 H630 H 0.58586 0.66930 -0.36652
 H631 H 0.58202 0.69228 -0.43693
 H632 H 0.54300 0.72440 -0.34689
 H633 H 0.54812 0.70210 -0.27619
 H634 H 0.54956 0.57969 -0.22169
 H635 H 0.52969 0.54138 -0.16720
 H636 H 0.52317 0.58891 -0.05317
 H637 H 0.54273 0.62736 -0.10801
 C638 C 0.32681 -0.15131 -0.32210
 C639 C 0.30039 -0.15603 -0.32144
 C640 C 0.28351 -0.16816 -0.36130
 C641 C 0.29285 -0.17571 -0.40218
 C642 C 0.31837 -0.17307 -0.40090
 C643 C 0.33517 -0.16102 -0.36131
 C644 C 0.34642 -0.13430 -0.28497
 N645 N 0.37291 -0.12457 -0.29299
 N646 N 0.39091 -0.10791 -0.26163
 C647 C 0.38322 -0.10019 -0.22084
 N648 N 0.35671 -0.11004 -0.21252
 N649 N 0.33867 -0.12664 -0.24409
 C650 C 0.40344 -0.08186 -0.18591
 C651 C 0.39603 -0.07890 -0.13836
 C652 C 0.41545 -0.06338 -0.10421
 C653 C 0.44266 -0.05027 -0.11706
 C654 C 0.44995 -0.05212 -0.16532
 C655 C 0.43056 -0.06786 -0.19930
 H656 H 0.29328 -0.14895 -0.29159
 H657 H 0.26393 -0.16989 -0.36174
 H658 H 0.32589 -0.17891 -0.43203
 H659 H 0.35519 -0.15817 -0.36264
 H660 H 0.37531 -0.08931 -0.12695
 H661 H 0.40919 -0.06228 -0.06731
 H662 H 0.47074 -0.04229 -0.17633
 H663 H 0.43691 -0.06946 -0.23585
 C664 C 0.53784 -0.15049 0.34179
 C665 C 0.55416 -0.13599 0.38111
 C666 C 0.55472 -0.14878 0.42421
 C667 C 0.53928 -0.17636 0.42869
 C668 C 0.52351 -0.19094 0.38897
 C669 C 0.52266 -0.17814 0.34611
 C670 C 0.53598 -0.13672 0.29737
 N671 N 0.51550 -0.14922 0.26541
 N672 N 0.51307 -0.13639 0.22695
 C673 C 0.53113 -0.11055 0.21862
 N674 N 0.55179 -0.09817 0.25024
 N675 N 0.55414 -0.11095 0.28880
 C676 C 0.52754 -0.09557 0.17801
 C677 C 0.54814 -0.07012 0.16558
 C678 C 0.54387 -0.05462 0.13158
 C679 C 0.51881 -0.06410 0.10945
 C680 C 0.49863 -0.09007 0.11977
 C681 C 0.50298 -0.10570 0.15359
 H682 H 0.56607 -0.11467 0.37906
 H683 H 0.56721 -0.13710 0.45414
 H684 H 0.51127 -0.21223 0.39162
 H685 H 0.50995 -0.18989 0.31648
 H686 H 0.56739 -0.06181 0.18323
 H687 H 0.55988 -0.03472 0.12428
 H688 H 0.47914 -0.09794 0.10321
 H689 H 0.48672 -0.12526 0.16216
 C690 C 0.31505 0.44967 0.32414
 C691 C 0.28764 0.43142 0.32745
 C692 C 0.27271 0.43169 0.36791
 C693 C 0.28492 0.45053 0.40519
 C694 C 0.31203 0.46960 0.39996
 C695 C 0.32694 0.46895 0.36040
 C696 C 0.33195 0.44843 0.28474
 N697 N 0.35753 0.45506 0.29464
 N698 N 0.37362 0.45534 0.25945
 C699 C 0.36492 0.44921 0.21270
 N700 N 0.33922 0.44241 0.20265
 N701 N 0.32295 0.44183 0.23812
 C702 C 0.38406 0.45207 0.17369
 C703 C 0.38075 0.45794 0.12506
 C704 C 0.40158 0.46571 0.09092
 C705 C 0.42589 0.46757 0.10500
 C706 C 0.42820 0.45951 0.15243
 C707 C 0.40758 0.45193 0.18637
 H708 H 0.27805 0.41636 0.29985
 H709 H 0.25192 0.41664 0.37077
 H710 H 0.32193 0.48499 0.42687
 H711 H 0.34792 0.48360 0.35821
 H712 H 0.36282 0.45817 0.11424
 H713 H 0.39926 0.47179 0.05457
 H714 H 0.44654 0.46038 0.16421
 H715 H 0.41056 0.44708 0.22330
 C716 C 1.14110 0.68851 0.32254
 C717 C 1.15631 0.71617 0.31787
 C718 C 1.16788 0.73193 0.35928
 C719 C 1.16448 0.72026 0.40593
 C720 C 1.15040 0.69259 0.40989
 C721 C 1.13878 0.67697 0.36891
 C722 C 1.12656 0.67137 0.28053
 N723 N 1.10632 0.64651 0.28918
 N724 N 1.09287 0.63067 0.25247
 C725 C 1.09899 0.63884 0.20524
 N726 N 1.11930 0.66377 0.19626
 N727 N 1.13273 0.67979 0.23323
 C728 C 1.08404 0.62012 0.16529
 C729 C 1.09358 0.62413 0.11668
 C730 C 1.08061 0.60424 0.08146
 C731 C 1.05807 0.58015 0.09465
 C732 C 1.04779 0.57700 0.14230
 C733 C 1.06047 0.59667 0.17699
 H734 H 1.15852 0.72564 0.28262
 H735 H 1.17870 0.75322 0.35513
 H736 H 1.14810 0.68293 0.44499
 H737 H 1.12769 0.65573 0.37379
 H738 H 1.11163 0.64206 0.10646
 H739 H 1.08895 0.60713 0.04491
 H740 H 1.03028 0.55879 0.15342
 H741 H 1.05217 0.59302 0.21365
 C742 C 0.45716 0.14046 0.32818
 C743 C 0.47892 0.15779 0.35700
 C744 C 0.47534 0.17092 0.39615
 C745 C 0.44994 0.16705 0.40755
 C746 C 0.42844 0.15139 0.37675
 C747 C 0.43205 0.13820 0.33708
 C748 C 0.46066 0.12326 0.29270
 N749 N 0.44337 0.11138 0.25523
 N750 N 0.44670 0.09541 0.22465
 C751 C 0.46719 0.09040 0.23090
 N752 N 0.48430 0.10221 0.26845
 N753 N 0.48112 0.11829 0.29859
 C754 C 0.47168 0.07315 0.19718
 C755 C 0.48731 0.06209 0.21248
 C756 C 0.49450 0.04842 0.17967
 C757 C 0.48647 0.04567 0.13058
 C758 C 0.46963 0.05545 0.11574
 C759 C 0.46218 0.06899 0.14887
 H760 H 0.49860 0.16034 0.35064
 H761 H 0.49219 0.18299 0.41943
 H762 H 0.40864 0.14803 0.38524
 H763 H 0.41494 0.12503 0.31535
 H764 H 0.49459 0.06458 0.24968
 H765 H 0.50725 0.04087 0.19239
 H766 H 0.46303 0.05350 0.07813
 H767 H 0.45004 0.07722 0.13610
 C768 C 0.70040 0.56866 0.28883
 C769 C 0.69874 0.58368 0.32744
 C770 C 0.71069 0.58478 0.37249
 C771 C 0.72483 0.57116 0.37966
 C772 C 0.72796 0.55756 0.34019
 C773 C 0.71576 0.55620 0.29529
 C774 C 0.68418 0.56400 0.24407
 N775 N 0.67958 0.54395 0.21328
 N776 N 0.66254 0.53776 0.17625
 C777 C 0.64946 0.55145 0.16830
 N778 N 0.65457 0.57191 0.19838
 N779 N 0.67152 0.57802 0.23550
 C780 C 0.62799 0.54259 0.13125
 C781 C 0.61539 0.55756 0.12212
 C782 C 0.59240 0.54737 0.09358
 C783 C 0.58139 0.52192 0.07358
 C784 C 0.59498 0.50768 0.07982
 C785 C 0.61809 0.51793 0.10830
 H786 H 0.68715 0.59359 0.32372
 H787 H 0.70819 0.59558 0.40227
 H788 H 0.73864 0.54676 0.34489
 H789 H 0.71758 0.54461 0.26623
 H790 H 0.62263 0.57674 0.13871
 H791 H 0.58252 0.55895 0.08920
 H792 H 0.58706 0.48807 0.06471
 H793 H 0.62738 0.50593 0.11433
 C794 C 0.86777 0.32065 0.31599
 C795 C 0.88235 0.31519 0.35077
 C796 C 0.87038 0.30193 0.39430
 C797 C 0.84353 0.29386 0.40447
 C798 C 0.82868 0.29874 0.36924
 C799 C 0.84067 0.31196 0.32540
 C800 C 0.88139 0.33667 0.27179
 N801 N 0.86747 0.33983 0.23473
 N802 N 0.88014 0.35583 0.19692
 C803 C 0.90724 0.36935 0.19478
 N804 N 0.92106 0.36582 0.23141
 N805 N 0.90843 0.34977 0.26894
 C806 C 0.92164 0.38972 0.15660
 C807 C 0.94688 0.41114 0.16732
 C808 C 0.95952 0.43226 0.13474
 C809 C 0.94770 0.43221 0.08988
 C810 C 0.92315 0.41020 0.07755
 C811 C 0.90999 0.38922 0.11107
 H812 H 0.90318 0.32136 0.34462
 H813 H 0.88222 0.29797 0.42014
 H814 H 0.80800 0.29295 0.37609
 H815 H 0.82890 0.31596 0.29951
 H816 H 0.95635 0.41227 0.20211
 H817 H 0.97828 0.44912 0.14535
 H818 H 0.91354 0.40988 0.04333
 H819 H 0.89055 0.37291 0.10186
   
