data_POSCAR
  _audit_creation_date              2014-09-24
  _audit_creation_method            'ToBaCCo'
  _symmetry_space_group_name_H-M    'P1'
  _symmetry_Int_Tables_number       1
  _symmetry_cell_setting            triclinic
  loop_
  _symmetry_equiv_pos_as_xyz
 x,y,z
_cell_length_a 27.2684
_cell_length_b 22.8802
_cell_length_c 13.7657
_cell_angle_alpha 89.888800
_cell_angle_beta 90.098800
_cell_angle_gamma 90.202000
loop_
  _atom_site_label
  _atom_site_type_symbol
  _atom_site_fract_x
  _atom_site_fract_y
  _atom_site_fract_z
C1 C 0.20957 0.21329 0.20965
 C2 C 0.20780 0.27619 0.21540
 C3 C 0.24584 0.30441 0.26674
 C4 C 0.29003 0.27730 0.29433
 C5 C 0.29174 0.21448 0.29001
 C6 C 0.25401 0.18624 0.23742
 H7 H 0.25885 0.14052 0.21977
 H8 H 0.24178 0.35036 0.28310
 C9 C 0.79202 0.28123 0.21180
 C10 C 0.79064 0.21825 0.20689
 C11 C 0.74686 0.19020 0.23622
 C12 C 0.70863 0.21820 0.28659
 C13 C 0.71008 0.28084 0.29130
 C14 C 0.75408 0.30867 0.26423
 H15 H 0.75798 0.35452 0.28203
 H16 H 0.74283 0.14409 0.22097
 C17 C 0.71208 0.71871 0.70116
 C18 C 0.70814 0.78068 0.71663
 C19 C 0.75002 0.80968 0.75267
 C20 C 0.79334 0.78176 0.78422
 C21 C 0.79142 0.71893 0.79271
 C22 C 0.75238 0.69010 0.74471
 H23 H 0.75328 0.64316 0.74200
 H24 H 0.74890 0.85675 0.75585
 C25 C 0.29129 0.77890 0.71735
 C26 C 0.28856 0.71675 0.70260
 C27 C 0.24921 0.68679 0.74735
 C28 C 0.20991 0.71428 0.79630
 C29 C 0.20680 0.77699 0.78705
 C30 C 0.24899 0.80647 0.75348
 H31 H 0.24875 0.85357 0.75518
 H32 H 0.24932 0.63985 0.74408
 O33 O 0.95159 0.02044 0.11454
 O34 O 1.04688 -0.07532 0.01355
 O35 O 1.04806 0.02031 0.11549
 O36 O 0.95245 -0.07495 0.01172
 O37 O 0.95234 -0.02203 -0.12262
 O38 O 1.04831 0.07285 -0.01920
 O39 O 1.04793 -0.02277 -0.12118
 O40 O 0.95292 0.07330 -0.01977
 Cu41 Cu 0.99967 -0.03236 0.07772
 Cu42 Cu 1.00044 0.03066 -0.08415
 C43 C 0.93568 0.06296 0.06421
 C44 C 1.06348 -0.06560 -0.07111
 C45 C 1.06494 0.06247 0.06530
 C46 C 0.93615 -0.06484 -0.07312
 O47 O 0.45235 0.53037 0.59723
 O48 O 0.54740 0.43148 0.50524
 O49 O 0.54846 0.53031 0.59674
 O50 O 0.45247 0.43138 0.50586
 O51 O 0.45146 0.47913 0.36633
 O52 O 0.54782 0.57853 0.45769
 O53 O 0.54784 0.47931 0.36577
 O54 O 0.45240 0.57848 0.45806
 Cu55 Cu 0.50017 0.47632 0.56542
 Cu56 Cu 0.49985 0.53349 0.39773
 C57 C 0.43611 0.57126 0.54364
 C58 C 0.56417 0.43880 0.42010
 C59 C 0.56459 0.57127 0.54301
 C60 C 0.43533 0.43853 0.42089
 O61 O -0.04678 0.57319 0.03304
 O62 O 0.04813 0.47202 0.12261
 O63 O 0.04864 0.57261 0.03363
 O64 O -0.04776 0.47258 0.12194
 O65 O -0.04742 0.42664 -0.01894
 O66 O 0.04881 0.52629 -0.10688
 O67 O 0.04716 0.42607 -0.01825
 O68 O -0.04743 0.52701 -0.10759
 Cu69 Cu 0.00057 0.52713 0.09205
 Cu70 Cu 0.00025 0.47222 -0.07732
 C71 C -0.06326 0.56737 -0.05278
 C72 C 0.06355 0.43149 0.06765
 C73 C 0.06518 0.56645 -0.05192
 C74 C -0.06375 0.43226 0.06681
 O75 O 0.54743 1.02637 0.39644
 O76 O 0.45192 0.92925 0.49564
 O77 O 0.45121 1.02636 0.39685
 O78 O 0.54647 0.92925 0.49533
 O79 O 0.54729 0.97983 0.63179
 O80 O 0.45213 1.07697 0.53319
 O81 O 0.45160 0.97991 0.63202
 O82 O 0.54721 1.07691 0.53284
 Cu83 Cu 0.49922 0.97295 0.43208
 Cu84 Cu 0.49961 1.03343 0.59622
 C85 C 0.56356 1.06838 0.44772
 C86 C 0.43553 0.93791 0.58068
 C87 C 0.43546 1.06837 0.44820
 C88 C 0.56304 0.93786 0.58039
 C89 C 1.17041 0.17404 0.17591
 C90 C 1.11698 0.19459 0.18778
 C91 C 1.08279 0.15815 0.14873
 C92 C 1.10405 0.10184 0.10667
 C93 C 1.14237 0.12137 0.03199
 C94 C 1.17696 0.15818 0.06810
 C95 C 1.16817 0.11356 0.22789
 C96 C 1.13413 0.07582 0.19074
 H97 H 1.10557 0.22780 0.23801
 H98 H 1.04393 0.16449 0.16095
 H99 H 1.14325 0.10596 -0.04253
 H100 H 1.20719 0.17406 0.02391
 H101 H 1.18903 0.10248 0.29249
 H102 H 1.12762 0.03289 0.22193
 C103 C 0.67335 0.67890 0.65178
 C104 C 0.69188 0.61960 0.61113
 C105 C 0.65568 0.58401 0.57602
 C106 C 0.60431 0.61096 0.58133
 C107 C 0.59734 0.62691 0.68835
 C108 C 0.63366 0.66086 0.72521
 C109 C 0.64648 0.70409 0.56257
 C110 C 0.60962 0.66964 0.52769
 H111 H 0.73017 0.60858 0.60081
 H112 H 0.66345 0.54275 0.54045
 H113 H 0.56692 0.61161 0.73249
 H114 H 0.63418 0.67406 0.80095
 H115 H 0.65872 0.74210 0.52267
 H116 H 0.58973 0.68071 0.46187
 C117 C -0.17085 0.32010 0.16919
 C118 C -0.14574 0.29946 0.07513
 C119 C -0.10936 0.33530 0.04269
 C120 C -0.10275 0.39111 0.10342
 C121 C -0.15394 0.41851 0.10494
 C122 C -0.18964 0.38145 0.13725
 C123 C -0.12971 0.33423 0.24225
 C124 C -0.09391 0.36988 0.20752
 H125 H -0.15972 0.26513 0.02915
 H126 H -0.09143 0.32792 -0.02653
 H127 H -0.16202 0.46172 0.07664
 H128 H -0.22801 0.39353 0.13253
 H129 H -0.12896 0.31748 0.31612
 H130 H -0.06269 0.38308 0.25146
 C131 C 0.33288 0.82114 0.68563
 C132 C 0.33833 0.87725 0.74838
 C133 C 0.37149 0.91688 0.71368
 C134 C 0.39757 0.89667 0.62076
 C135 C 0.41925 0.83723 0.64828
 C136 C 0.38603 0.79874 0.68515
 C137 C 0.32261 0.84458 0.58272
 C138 C 0.35619 0.88336 0.54890
 H139 H 0.32079 0.88345 0.81831
 H140 H 0.38036 0.95684 0.75236
 H141 H 0.45824 0.82909 0.65219
 H142 H 0.39864 0.76137 0.72542
 H143 H 0.29071 0.83200 0.54018
 H144 H 0.35286 0.90386 0.47800
 C145 C -0.16995 0.67844 -0.15884
 C146 C -0.14282 0.70168 -0.06837
 C147 C -0.10666 0.66610 -0.03455
 C148 C -0.10219 0.60824 -0.09033
 C149 C -0.15403 0.58205 -0.08663
 C150 C -0.18950 0.61879 -0.12058
 C151 C -0.13028 0.66100 -0.23251
 C152 C -0.09465 0.62585 -0.19661
 H153 H -0.15478 0.73861 -0.02611
 H154 H -0.08701 0.67560 0.03225
 H155 H -0.16257 0.54014 -0.05357
 H156 H -0.22805 0.60803 -0.11219
 H157 H -0.13048 0.67519 -0.30784
 H158 H -0.06445 0.61063 -0.24108
 C159 C 0.32862 1.17669 0.33540
 C160 C 0.35301 1.19963 0.42907
 C161 C 0.38922 1.16501 0.46491
 C162 C 0.39645 1.10806 0.40781
 C163 C 0.34530 1.07995 0.40605
 C164 C 0.30973 1.11580 0.37001
 C165 C 0.37028 1.16149 0.26463
 C166 C 0.40597 1.12713 0.30279
 H167 H 0.33870 1.23494 0.47224
 H168 H 0.40665 1.17418 0.53420
 H169 H 0.33717 1.03718 0.43647
 H170 H 0.27137 1.10322 0.37302
 H171 H 0.37144 1.17653 0.18977
 H172 H 0.43750 1.11332 0.26073
 C173 C 1.16492 -0.18181 -0.17940
 C174 C 1.17633 -0.15805 -0.07714
 C175 C 1.14321 -0.11938 -0.04227
 C176 C 1.10101 -0.10659 -0.11231
 C177 C 1.12591 -0.08646 -0.20680
 C178 C 1.15862 -0.12590 -0.24254
 C179 C 1.11171 -0.20458 -0.17584
 C180 C 1.07903 -0.16630 -0.13767
 H181 H 1.20862 -0.17041 -0.03574
 H182 H 1.14730 -0.09882 0.02832
 H183 H 1.11676 -0.04654 -0.24538
 H184 H 1.17571 -0.11958 -0.31297
 H185 H 1.09827 -0.24208 -0.21453
 H186 H 1.04006 -0.17510 -0.13808
 C187 C 0.66848 0.32271 0.32276
 C188 C 0.66623 0.38041 0.26324
 C189 C 0.63250 0.41969 0.29563
 C190 C 0.60287 0.39774 0.38338
 C191 C 0.58120 0.33944 0.34960
 C192 C 0.61502 0.30124 0.31526
 C193 C 0.67571 0.34343 0.42812
 C194 C 0.64157 0.38195 0.45980
 H195 H 0.68734 0.38853 0.19785
 H196 H 0.62621 0.46116 0.25935
 H197 H 0.54226 0.33218 0.33966
 H198 H 0.60313 0.26531 0.27091
 H199 H 0.70605 0.32952 0.47370
 H200 H 0.64293 0.40082 0.53206
 C201 C 0.83286 -0.17903 -0.18362
 C202 C 0.83802 -0.12119 -0.24281
 C203 C 0.87129 -0.08245 -0.20598
 C204 C 0.89802 -0.10515 -0.11516
 C205 C 0.85721 -0.12048 -0.04335
 C206 C 0.82339 -0.15833 -0.07892
 C207 C 0.88610 -0.20120 -0.18630
 C208 C 0.91956 -0.16370 -0.14742
 H209 H 0.82012 -0.11311 -0.31205
 H210 H 0.87990 -0.04149 -0.24211
 H211 H 0.85442 -0.10196 0.02898
 H212 H 0.79187 -0.17205 -0.03630
 H213 H 0.89857 -0.23659 -0.23110
 H214 H 0.95851 -0.17120 -0.15443
 C215 C 0.33150 0.32021 0.32499
 C216 C 0.33347 0.37749 0.26422
 C217 C 0.36701 0.41759 0.29600
 C218 C 0.39669 0.39683 0.38454
 C219 C 0.35803 0.38107 0.46092
 C220 C 0.32411 0.34176 0.42980
 C221 C 0.38514 0.29965 0.31841
 C222 C 0.41868 0.33864 0.35229
 H223 H 0.31232 0.38473 0.19851
 H224 H 0.37310 0.45887 0.25888
 H225 H 0.35649 0.40058 0.53268
 H226 H 0.29376 0.32786 0.47538
 H227 H 0.39741 0.26362 0.27506
 H228 H 0.45768 0.33190 0.34306
 C229 C 0.17338 0.67586 -0.15817
 C230 C 0.19196 0.61539 -0.12140
 C231 C 0.15593 0.57922 -0.08747
 C232 C 0.10473 0.60672 -0.08921
 C233 C 0.11107 0.66396 -0.03213
 C234 C 0.14781 0.69889 -0.06611
 C235 C 0.13274 0.65984 -0.23112
 C236 C 0.09665 0.62533 -0.19487
 H237 H 0.23029 0.60382 -0.11273
 H238 H 0.16382 0.53708 -0.05479
 H239 H 0.09225 0.67335 0.03544
 H240 H 0.16106 0.73535 -0.02364
 H241 H 0.13231 0.67495 -0.30599
 H242 H 0.06560 0.61139 -0.23864
 C243 C 0.66996 1.17764 0.33432
 C244 C 0.68909 1.11702 0.36825
 C245 C 0.65370 1.08079 0.40475
 C246 C 0.60249 1.10835 0.40698
 C247 C 0.60980 1.16540 0.46398
 C248 C 0.64574 1.20045 0.42776
 C249 C 0.62813 1.16215 0.26375
 C250 C 0.59259 1.12738 0.30201
 H251 H 0.72748 1.10481 0.37026
 H252 H 0.66199 1.03801 0.43471
 H253 H 0.59232 1.17464 0.53302
 H254 H 0.65976 1.23647 0.47003
 H255 H 0.62689 1.17713 0.18889
 H256 H 0.56099 1.11320 0.26004
 C257 C 0.16891 0.31760 0.17010
 C258 C 0.18877 0.37835 0.13766
 C259 C 0.15371 0.41603 0.10520
 C260 C 0.10191 0.38976 0.10454
 C261 C 0.10700 0.33357 0.04444
 C262 C 0.14272 0.29706 0.07687
 C263 C 0.12841 0.33278 0.24350
 C264 C 0.09315 0.36909 0.20896
 H265 H 0.22737 0.38962 0.13329
 H266 H 0.16254 0.45908 0.07682
 H267 H 0.08846 0.32619 -0.02431
 H268 H 0.15552 0.26219 0.03116
 H269 H 0.12794 0.31658 0.31769
 H270 H 0.06255 0.38327 0.25332
 C271 C 0.66589 0.82184 0.68496
 C272 C 0.65933 0.87698 0.74946
 C273 C 0.62612 0.91633 0.71490
 C274 C 0.60097 0.89679 0.62030
 C275 C 0.64296 0.88529 0.54951
 C276 C 0.67660 0.84674 0.58313
 C277 C 0.61295 0.79831 0.68165
 C278 C 0.57965 0.83653 0.64477
 H279 H 0.67620 0.88259 0.82033
 H280 H 0.61654 0.95553 0.75477
 H281 H 0.64653 0.90662 0.47932
 H282 H 0.70879 0.83519 0.54107
 H283 H 0.60021 0.76037 0.72031
 H284 H 0.54073 0.82739 0.64639
 C285 C 0.83189 0.17652 0.17226
 C286 C 0.88552 0.19748 0.18039
 C287 C 0.91906 0.16023 0.14238
 C288 C 0.89710 0.10297 0.10478
 C289 C 0.86784 0.07881 0.19156
 C290 C 0.83430 0.11729 0.22749
 C291 C 0.82408 0.15843 0.06569
 C292 C 0.85804 0.12081 0.03045
 H293 H 0.89777 0.23228 0.22685
 H294 H 0.95811 0.16726 0.15151
 H295 H 0.87433 0.03649 0.22482
 H296 H 0.81368 0.10755 0.29293
 H297 H 0.79343 0.17338 0.02187
 H298 H 0.85628 0.10382 -0.04306
 C299 C 0.32760 0.67795 0.65269
 C300 C 0.36724 0.65987 0.72630
 C301 C 0.40349 0.62620 0.68947
 C302 C 0.39660 0.61071 0.58218
 C303 C 0.34518 0.58354 0.57585
 C304 C 0.30905 0.61878 0.61087
 C305 C 0.35468 0.70373 0.56417
 C306 C 0.39151 0.66963 0.52928
 H307 H 0.36671 0.67279 0.80217
 H308 H 0.43385 0.61089 0.73372
 H309 H 0.33737 0.54241 0.53963
 H310 H 0.27072 0.60765 0.59996
 H311 H 0.34237 0.74149 0.52399
 H312 H 0.41137 0.68097 0.46359
   
