data_POSCAR
  _audit_creation_date              2014-09-24
  _audit_creation_method            'ToBaCCo'
  _symmetry_space_group_name_H-M    'P1'
  _symmetry_Int_Tables_number       1
  _symmetry_cell_setting            triclinic
  loop_
  _symmetry_equiv_pos_as_xyz
 x,y,z
_cell_length_a 25.0814
_cell_length_b 25.0802
_cell_length_c 25.1307
_cell_angle_alpha 90.128100
_cell_angle_beta 90.122600
_cell_angle_gamma 90.006500
loop_
  _atom_site_label
  _atom_site_type_symbol
  _atom_site_fract_x
  _atom_site_fract_y
  _atom_site_fract_z
O1 O 0.45071 0.95845 -0.55157
 O2 O 0.55344 0.95974 -0.44662
 O3 O 0.44970 0.95863 -0.44803
 O4 O 0.55454 0.95892 -0.55026
 O5 O 0.55401 1.04710 -0.55051
 O6 O 0.44904 1.04681 -0.44812
 O7 O 0.55284 1.04791 -0.44682
 O8 O 0.45014 1.04663 -0.55171
 Cu9 Cu 0.50219 0.95003 -0.49911
 Cu10 Cu 0.50146 1.05602 -0.49933
 C11 C 0.43305 1.00236 -0.56930
 C12 C 0.57043 1.00403 -0.42896
 C13 C 0.43167 1.00263 -0.43081
 C14 C 0.57196 1.00301 -0.56766
 O15 O -0.55352 1.44717 0.04339
 O16 O -0.44921 1.55036 0.04479
 O17 O -0.55300 1.55105 0.04383
 O18 O -0.44969 1.44660 0.04329
 O19 O -0.44957 1.44724 -0.04472
 O20 O -0.55278 1.55153 -0.04416
 O21 O -0.44899 1.55101 -0.04322
 O22 O -0.55339 1.44766 -0.04460
 Cu23 Cu -0.50140 1.49872 0.05271
 Cu24 Cu -0.50119 1.49942 -0.05306
 C25 C -0.57105 1.42995 -0.00079
 C26 C -0.43148 1.56810 0.00105
 C27 C -0.57029 1.56895 -0.00012
 C28 C -0.43217 1.42934 -0.00084
 O29 O -0.04638 0.44884 0.44814
 O30 O -0.04542 0.55184 0.55305
 O31 O -0.04703 0.55265 0.44941
 O32 O -0.04726 0.44797 0.55176
 O33 O 0.04092 0.44740 0.55176
 O34 O 0.04115 0.55227 0.44924
 O35 O 0.04274 0.55125 0.55283
 O36 O 0.04181 0.44852 0.44819
 Cu37 Cu -0.05542 0.50038 0.50062
 Cu38 Cu 0.05055 0.49982 0.50051
 C39 C -0.00234 0.43134 0.43047
 C40 C -0.00110 0.56894 0.57061
 C41 C -0.00296 0.57010 0.43200
 C42 C -0.00328 0.42997 0.56901
 O43 O -0.13708 1.00011 -0.07144
 O44 O 0.13739 0.99735 -0.07314
 O45 O -0.00244 1.06993 -0.13783
 O46 O 0.00178 0.92582 -0.13692
 O47 O 0.00254 0.86124 -0.07155
 O48 O -0.00213 1.13565 -0.07329
 O49 O 0.07175 0.99662 -0.13775
 O50 O -0.07252 0.99972 -0.13685
 Zr51 Zr -0.00000 0.99827 -0.09403
 O52 O 0.04892 0.95043 -0.04866
 O53 O -0.04814 1.04687 -0.04867
 C54 C -0.12152 1.00077 -0.12057
 C55 C 0.12101 0.99626 -0.12208
 C56 C -0.00336 1.11920 -0.12222
 C57 C 0.00299 0.87682 -0.12069
 H58 H 0.07081 1.06964 -0.07198
 O59 O 0.04835 1.04695 -0.04901
 H60 H -0.07052 0.92739 -0.07038
 O61 O -0.04765 0.95036 -0.04789
 O62 O 0.13855 1.00166 0.07082
 O63 O -0.13584 0.99769 0.07248
 O64 O 0.07244 1.13657 0.00004
 O65 O 0.07331 0.86206 -0.00156
 O66 O -0.07091 0.86161 0.00250
 O67 O -0.07178 1.13606 -0.00267
 O68 O 0.00341 1.07240 0.13602
 O69 O -0.00012 0.92822 0.13698
 O70 O 0.00258 1.13698 0.07063
 O71 O -0.00040 0.86249 0.07245
 O72 O 0.13776 1.07165 0.00020
 O73 O -0.13669 1.07073 -0.00179
 O74 O -0.13620 0.92656 0.00262
 O75 O 0.13821 0.92741 -0.00246
 O76 O 0.07391 1.00198 0.13614
 O77 O -0.07015 0.99855 0.13703
 Zr78 Zr 0.09459 0.99938 -0.00091
 Zr79 Zr -0.09306 0.99879 0.00019
 Zr80 Zr 0.00048 1.09293 -0.00102
 Zr81 Zr 0.00104 0.90523 0.00017
 Zr82 Zr 0.00151 0.99991 0.09321
 O83 O -0.04708 0.95097 0.04847
 O84 O 0.04941 1.04808 0.04732
 C85 C 0.12292 1.00266 0.11994
 C86 C -0.11942 0.99754 0.12142
 C87 C 0.12163 1.12075 0.00072
 C88 C 0.12240 0.87821 -0.00275
 C89 C -0.12008 0.87748 0.00354
 C90 C -0.12087 1.11990 -0.00306
 C91 C 0.00379 1.12140 0.11975
 C92 C -0.00113 0.87895 0.12137
 H93 H -0.06976 1.07041 0.07027
 O94 O -0.04712 1.04751 0.04759
 H95 H 0.07230 0.92893 0.07042
 O96 O 0.04939 0.95148 0.04766
 C97 C 0.23833 1.00301 0.23494
 C98 C 0.25313 1.05120 0.26042
 C99 C 0.29315 1.05085 0.30054
 C100 C 0.31810 1.00229 0.31495
 C101 C 0.30313 0.95406 0.28957
 C102 C 0.26309 0.95442 0.24945
 C103 C 0.24868 0.90570 0.22473
 C104 C 0.27309 0.85799 0.23927
 C105 C 0.31230 0.85764 0.27842
 C106 C 0.32732 0.90500 0.30342
 C107 C 0.30726 1.09953 0.32549
 C108 C 0.28247 1.14716 0.31126
 C109 C 0.24330 1.14748 0.27207
 C110 C 0.22866 1.10019 0.24677
 C111 C 0.35899 1.00199 0.35595
 C112 C 0.39287 1.00201 0.39005
 C113 C 0.19750 1.00336 0.19398
 C114 C 0.16350 1.00335 0.16006
 H115 H 0.21846 0.90391 0.19398
 H116 H 0.26162 0.82110 0.21993
 H117 H 0.33121 0.82048 0.28950
 H118 H 0.35799 0.90271 0.33366
 H119 H 0.33749 1.10133 0.35623
 H120 H 0.29371 1.18402 0.33078
 H121 H 0.22413 1.18456 0.26120
 H122 H 0.19797 1.10248 0.21653
 C123 C -0.23304 0.99931 0.23770
 C124 C -0.26009 1.04750 0.24927
 C125 C -0.29976 1.04862 0.28957
 C126 C -0.31214 1.00153 0.31801
 C127 C -0.28481 0.95342 0.30663
 C128 C -0.24512 0.95232 0.26636
 C129 C -0.21828 0.90379 0.25571
 C130 C -0.23031 0.85767 0.28406
 C131 C -0.26915 0.85872 0.32340
 C132 C -0.29623 0.90592 0.33472
 C133 C -0.32628 1.09725 0.30043
 C134 C -0.31398 1.14345 0.27225
 C135 C -0.27524 1.14233 0.23281
 C136 C -0.24843 1.09505 0.22132
 C137 C -0.35316 1.00247 0.35871
 C138 C -0.38732 1.00293 0.39239
 C139 C -0.19279 0.99812 0.19634
 C140 C -0.15934 0.99752 0.16203
 H141 H -0.18775 0.90097 0.22547
 H142 H -0.20935 0.82093 0.27547
 H143 H -0.27835 0.82278 0.34531
 H144 H -0.32608 0.90474 0.36571
 H145 H -0.35672 1.10012 0.33075
 H146 H -0.33465 1.18030 0.28106
 H147 H -0.26592 1.17828 0.21098
 H148 H -0.21855 1.09623 0.19034
 C149 C -0.23804 1.00355 -0.23439
 C150 C -0.24989 1.05147 -0.26164
 C151 C -0.28999 1.05192 -0.30169
 C152 C -0.31797 1.00444 -0.31422
 C153 C -0.30637 0.95662 -0.28665
 C154 C -0.26626 0.95617 -0.24662
 C155 C -0.25525 0.90785 -0.21969
 C156 C -0.28300 0.86130 -0.23203
 C157 C -0.32231 0.86176 -0.27108
 C158 C -0.33402 0.90874 -0.29821
 C159 C -0.30110 1.10028 -0.32844
 C160 C -0.27331 1.14684 -0.31604
 C161 C -0.23403 1.14636 -0.27696
 C162 C -0.22235 1.09937 -0.24986
 C163 C -0.35838 1.00463 -0.35569
 C164 C -0.39188 1.00446 -0.39017
 C165 C -0.19664 1.00286 -0.19401
 C166 C -0.16226 1.00203 -0.16050
 H167 H -0.22514 0.90550 -0.18887
 H168 H -0.27401 0.82469 -0.21111
 H169 H -0.34384 0.82551 -0.28043
 H170 H -0.36493 0.90708 -0.32827
 H171 H -0.33130 1.10265 -0.35916
 H172 H -0.28229 1.18347 -0.33691
 H173 H -0.21251 1.18258 -0.26755
 H174 H -0.19154 1.10103 -0.21969
 C175 C 0.23546 0.99791 -0.23748
 C176 C 0.26030 1.04682 -0.25069
 C177 C 0.30039 1.04810 -0.29055
 C178 C 0.31535 1.00047 -0.31697
 C179 C 0.29036 0.95159 -0.30384
 C180 C 0.25030 0.95031 -0.26395
 C181 C 0.22596 0.90099 -0.25139
 C182 C 0.24087 0.85422 -0.27743
 C183 C 0.27992 0.85548 -0.31655
 C184 C 0.30453 0.90348 -0.32977
 C185 C 0.32472 1.09744 -0.30301
 C186 C 0.30985 1.14418 -0.27685
 C187 C 0.27062 1.14293 -0.23791
 C188 C 0.24600 1.09493 -0.22479
 C189 C 0.35658 1.00166 -0.35744
 C190 C 0.39086 1.00232 -0.39098
 C191 C 0.19476 0.99662 -0.19660
 C192 C 0.16103 0.99604 -0.16257
 H193 H 0.19524 0.89800 -0.22137
 H194 H 0.22188 0.81684 -0.26730
 H195 H 0.29125 0.81906 -0.33677
 H196 H 0.33471 0.90241 -0.36045
 H197 H 0.35543 1.10044 -0.33303
 H198 H 0.32888 1.18156 -0.28686
 H199 H 0.25923 1.17933 -0.21768
 H200 H 0.21574 1.09602 -0.19418
 C201 C 0.23624 1.23654 0.00025
 C202 C 0.27935 1.23283 -0.03587
 C203 C 0.31919 1.27313 -0.03645
 C204 C 0.31568 1.31687 -0.00087
 C205 C 0.27244 1.32066 0.03511
 C206 C 0.23257 1.28039 0.03564
 C207 C 0.18960 1.28512 0.07180
 C208 C 0.18606 1.32850 0.10634
 C209 C 0.22515 1.36777 0.10599
 C210 C 0.26794 1.36410 0.07089
 C211 C 0.36188 1.26858 -0.07293
 C212 C 0.36517 1.22540 -0.10778
 C213 C 0.32628 1.18594 -0.10714
 C214 C 0.28372 1.18944 -0.07175
 C215 C 0.35660 1.35784 -0.00115
 C216 C 0.39062 1.39180 -0.00113
 C217 C 0.19560 1.19540 0.00082
 C218 C 0.16183 1.16126 0.00101
 H219 H 0.15827 1.25553 0.07367
 H220 H 0.15275 1.33170 0.13347
 H221 H 0.22225 1.40133 0.13299
 H222 H 0.29730 1.39570 0.07204
 H223 H 0.39312 1.29826 -0.07492
 H224 H 0.39811 1.22253 -0.13540
 H225 H 0.32912 1.15239 -0.13415
 H226 H 0.25441 1.15778 -0.07284
 C227 C 0.23807 0.76342 -0.00293
 C228 C 0.23575 0.72083 -0.03993
 C229 C 0.27553 0.68048 -0.03909
 C230 C 0.31743 0.68300 -0.00128
 C231 C 0.31991 0.72579 0.03552
 C232 C 0.28013 0.76616 0.03466
 C233 C 0.28357 0.80867 0.07168
 C234 C 0.32519 0.81130 0.10840
 C235 C 0.36396 0.77172 0.10939
 C236 C 0.36154 0.72935 0.07348
 C237 C 0.27235 0.63828 -0.07647
 C238 C 0.23110 0.63605 -0.11365
 C239 C 0.19223 0.67554 -0.11450
 C240 C 0.19431 0.71752 -0.07814
 C241 C 0.35807 0.64176 -0.00048
 C242 C 0.39178 0.60749 -0.00012
 C243 C 0.19705 0.80421 -0.00331
 C244 C 0.16292 0.83802 -0.00332
 H245 H 0.25432 0.84038 0.07254
 H246 H 0.32744 0.84428 0.13615
 H247 H 0.39615 0.77391 0.13807
 H248 H 0.39268 0.69958 0.07575
 H249 H 0.30165 0.60662 -0.07741
 H250 H 0.22930 0.60351 -0.14197
 H251 H 0.16028 0.67366 -0.14348
 H252 H 0.16317 0.74730 -0.08040
 C253 C -0.23560 0.76264 0.00459
 C254 C -0.27993 0.76776 -0.03002
 C255 C -0.32008 0.72778 -0.03076
 C256 C -0.31570 0.68297 0.00318
 C257 C -0.27144 0.67797 0.03792
 C258 C -0.23125 0.71793 0.03861
 C259 C -0.18730 0.71203 0.07357
 C260 C -0.18313 0.66784 0.10682
 C261 C -0.22250 0.62883 0.10627
 C262 C -0.26623 0.63363 0.07230
 C263 C -0.36399 0.73372 -0.06575
 C264 C -0.36819 0.77800 -0.09891
 C265 C -0.32902 0.81718 -0.09805
 C266 C -0.28523 0.81227 -0.06420
 C267 C -0.35672 0.64212 0.00237
 C268 C -0.39085 0.60828 0.00170
 C269 C -0.19441 0.80323 0.00490
 C270 C -0.16035 0.83708 0.00462
 H271 H -0.15574 0.74139 0.07556
 H272 H -0.14916 0.66382 0.13314
 H273 H -0.21911 0.59463 0.13225
 H274 H -0.29579 0.60222 0.07326
 H275 H -0.39552 0.70434 -0.06781
 H276 H -0.40207 0.78196 -0.12536
 H277 H -0.33258 0.85161 -0.12371
 H278 H -0.25576 0.84377 -0.06506
 C279 C -0.23647 1.23464 -0.00337
 C280 C -0.24929 1.26099 0.04483
 C281 C -0.28957 1.30084 0.04541
 C282 C -0.31676 1.31410 -0.00222
 C283 C -0.30391 1.28771 -0.05041
 C284 C -0.26364 1.24784 -0.05098
 C285 C -0.25153 1.22193 -0.09960
 C286 C -0.27851 1.23498 -0.14631
 C287 C -0.31781 1.27404 -0.14579
 C288 C -0.33053 1.30024 -0.09852
 C289 C -0.30171 1.32662 0.09407
 C290 C -0.27474 1.31349 0.14079
 C291 C -0.23528 1.27460 0.14019
 C292 C -0.22259 1.24846 0.09291
 C293 C -0.35781 1.35492 -0.00163
 C294 C -0.39182 1.38888 -0.00118
 C295 C -0.19543 1.19392 -0.00386
 C296 C -0.16135 1.16010 -0.00381
 H297 H -0.22119 1.19134 -0.10205
 H298 H -0.26886 1.21469 -0.18309
 H299 H -0.33859 1.28408 -0.18221
 H300 H -0.36142 1.33031 -0.10012
 H301 H -0.33207 1.35717 0.09655
 H302 H -0.28449 1.33363 0.17764
 H303 H -0.21438 1.26464 0.17654
 H304 H -0.19164 1.21844 0.09451
 C305 C 0.00239 1.23713 0.23434
 C306 C 0.04979 1.26425 0.24873
 C307 C 0.04842 1.30431 0.28879
 C308 C -0.00035 1.31697 0.31421
 C309 C -0.04776 1.28984 0.29975
 C310 C -0.04638 1.24977 0.25971
 C311 C -0.09425 1.22303 0.24605
 C312 C -0.14207 1.23547 0.27130
 C313 C -0.14345 1.27476 0.31035
 C314 C -0.09696 1.30178 0.32457
 C315 C 0.09634 1.33087 0.30254
 C316 C 0.14421 1.31817 0.27746
 C317 C 0.14553 1.27895 0.23834
 C318 C 0.09899 1.25219 0.22393
 C319 C -0.00163 1.35763 0.35541
 C320 C -0.00230 1.39132 0.38968
 C321 C 0.00371 1.19617 0.19356
 C322 C 0.00419 1.16205 0.15978
 H323 H -0.09525 1.19221 0.21585
 H324 H -0.17824 1.21449 0.26052
 H325 H -0.18072 1.28434 0.32979
 H326 H -0.10004 1.33200 0.35521
 H327 H 0.09734 1.36168 0.33274
 H328 H 0.18048 1.33890 0.28844
 H329 H 0.18280 1.26932 0.21890
 H330 H 0.10203 1.22206 0.19320
 C331 C -0.00527 1.23306 -0.23825
 C332 C 0.04216 1.24386 -0.26673
 C333 C 0.04250 1.28406 -0.30651
 C334 C -0.00461 1.31316 -0.31760
 C335 C -0.05217 1.30199 -0.28942
 C336 C -0.05250 1.26180 -0.24962
 C337 C -0.10048 1.25135 -0.22194
 C338 C -0.14680 1.27987 -0.23321
 C339 C -0.14652 1.31912 -0.27215
 C340 C -0.09986 1.33024 -0.30005
 C341 C 0.09041 1.29419 -0.33441
 C342 C 0.13663 1.26537 -0.32339
 C343 C 0.13628 1.22603 -0.28454
 C344 C 0.08973 1.21525 -0.25637
 C345 C -0.00407 1.35462 -0.35785
 C346 C -0.00361 1.38905 -0.39125
 C347 C -0.00528 1.19265 -0.19704
 C348 C -0.00473 1.15912 -0.16281
 H349 H -0.10273 1.22110 -0.19138
 H350 H -0.18311 1.27143 -0.21162
 H351 H -0.18264 1.34112 -0.28078
 H352 H -0.10163 1.36115 -0.32998
 H353 H 0.09267 1.32437 -0.36502
 H354 H 0.17290 1.27360 -0.34515
 H355 H 0.17225 1.20370 -0.27619
 H356 H 0.09147 1.18425 -0.22654
 C357 C 0.00366 0.76086 -0.23520
 C358 C -0.03218 0.71744 -0.23108
 C359 C -0.03316 0.67751 -0.27130
 C360 C 0.00170 0.68126 -0.31538
 C361 C 0.03769 0.72460 -0.31939
 C362 C 0.03864 0.76454 -0.27918
 C363 C 0.07476 0.80763 -0.28415
 C364 C 0.10886 0.81122 -0.32769
 C365 C 0.10807 0.77208 -0.36692
 C366 C 0.07299 0.72917 -0.36302
 C367 C -0.06938 0.63453 -0.26636
 C368 C -0.10369 0.63111 -0.22295
 C369 C -0.10276 0.67017 -0.18364
 C370 C -0.06749 0.71292 -0.18744
 C371 C 0.00045 0.64063 -0.35663
 C372 C -0.00048 0.60689 -0.39087
 C373 C 0.00405 0.80199 -0.19451
 C374 C 0.00386 0.83617 -0.16075
 H375 H 0.07697 0.83900 -0.25459
 H376 H 0.13598 0.84461 -0.33106
 H377 H 0.13472 0.77501 -0.40061
 H378 H 0.07381 0.69975 -0.39457
 H379 H -0.07161 0.60316 -0.29591
 H380 H -0.13115 0.59797 -0.21981
 H381 H -0.12950 0.66735 -0.15000
 H382 H -0.06825 0.74229 -0.15584
 C383 C -0.00322 0.76533 0.23760
 C384 C -0.05114 0.73837 0.25021
 C385 C -0.05122 0.69850 0.29031
 C386 C -0.00338 0.68591 0.31761
 C387 C 0.04444 0.71322 0.30527
 C388 C 0.04451 0.75307 0.26515
 C389 C 0.09278 0.77989 0.25355
 C390 C 0.13962 0.76773 0.28085
 C391 C 0.13957 0.72873 0.32004
 C392 C 0.09266 0.70164 0.33227
 C393 C -0.09959 0.67203 0.30217
 C394 C -0.14656 0.68470 0.27528
 C395 C -0.14649 0.72377 0.23616
 C396 C -0.09944 0.75038 0.22353
 C397 C -0.00328 0.64486 0.35828
 C398 C -0.00308 0.61074 0.39199
 C399 C -0.00293 0.80559 0.19626
 C400 C -0.00230 0.83905 0.16197
 H401 H 0.09486 0.81056 0.22340
 H402 H 0.17613 0.78870 0.27155
 H403 H 0.17607 0.71941 0.34112
 H404 H 0.09463 0.67166 0.36311
 H405 H -0.10166 0.64138 0.33233
 H406 H -0.18321 0.66408 0.28487
 H407 H -0.18308 0.73347 0.21539
 H408 H -0.10140 0.78042 0.19274
   
