data_POSCAR
  _audit_creation_date              2014-09-24
  _audit_creation_method            'ToBaCCo'
  _symmetry_space_group_name_H-M    'P1'
  _symmetry_Int_Tables_number       1
  _symmetry_cell_setting            triclinic
  loop_
  _symmetry_equiv_pos_as_xyz
 x,y,z
_cell_length_a 43.8606
_cell_length_b 43.7710
_cell_length_c 43.8388
_cell_angle_alpha 89.972400
_cell_angle_beta 89.969700
_cell_angle_gamma 90.045200
loop_
  _atom_site_label
  _atom_site_type_symbol
  _atom_site_fract_x
  _atom_site_fract_y
  _atom_site_fract_z
N1 N 0.62480 0.62499 0.62529
 N2 N 0.87515 0.37509 0.12524
 N3 N 0.37506 0.12503 -0.12518
 N4 N 0.12464 0.87517 0.37467
 N5 N 0.08876 0.17449 0.11269
 N6 N 0.07659 0.16174 0.13700
 C7 C 0.05185 0.17788 0.14546
 C8 C 0.04855 0.20180 0.12528
 C9 C 0.07221 0.19913 0.10479
 H10 H 0.03732 0.17268 0.16471
 H11 H 0.07698 0.21392 0.08560
 Cu12 Cu 0.09460 0.12541 0.15494
 Cu13 Cu 0.12503 0.15825 0.09288
 Cu14 Cu 0.15730 0.09340 0.12524
 N15 N 0.11267 0.08923 0.17318
 N16 N 0.13735 0.07690 0.16139
 C17 C 0.14534 0.05235 0.17807
 C18 C 0.12455 0.04931 0.20144
 C19 C 0.10413 0.07296 0.19786
 H20 H 0.16476 0.03783 0.17354
 H21 H 0.08461 0.07788 0.21211
 N22 N 0.17396 0.11355 0.08863
 N23 N 0.16169 0.13821 0.07633
 C24 C 0.17806 0.14625 0.05157
 C25 C 0.20156 0.12568 0.04833
 C26 C 0.19845 0.10527 0.07202
 H27 H 0.17322 0.16550 0.03689
 H28 H 0.21289 0.08581 0.07667
 H29 H 0.11890 0.11334 0.10632
 H30 H 0.14316 0.13793 0.13122
 N31 N 0.41106 0.82612 0.61237
 N32 N 0.42299 0.83870 0.63683
 C33 C 0.44772 0.82251 0.64537
 C34 C 0.45122 0.79868 0.62510
 C35 C 0.42772 0.80154 0.60445
 H36 H 0.46205 0.82759 0.66479
 H37 H 0.42314 0.78690 0.58512
 Cu38 Cu 0.40490 0.87498 0.65493
 Cu39 Cu 0.37485 0.84255 0.59252
 Cu40 Cu 0.34251 0.90739 0.62487
 N41 N 0.38681 0.91126 0.67302
 N42 N 0.36234 0.92381 0.66110
 C43 C 0.35444 0.94841 0.67773
 C44 C 0.37507 0.95127 0.70125
 C45 C 0.39535 0.92748 0.69774
 H46 H 0.33519 0.96312 0.67307
 H47 H 0.41474 0.92240 0.71210
 N48 N 0.32591 0.88729 0.58821
 N49 N 0.33820 0.86264 0.57590
 C50 C 0.32172 0.85451 0.55126
 C51 C 0.29814 0.87499 0.54809
 C52 C 0.30130 0.89546 0.57172
 H53 H 0.32647 0.83517 0.53668
 H54 H 0.28675 0.91481 0.57647
 H55 H 0.38084 0.88729 0.60628
 H56 H 0.35630 0.86271 0.63082
 N57 N 0.91127 0.67358 0.38758
 N58 N 0.92324 0.66103 0.36310
 C59 C 0.94802 0.67721 0.35464
 C60 C 0.95142 0.70105 0.37490
 C61 C 0.92787 0.69819 0.39551
 H62 H 0.96240 0.67216 0.33525
 H63 H 0.92316 0.71289 0.41477
 Cu64 Cu 0.90512 0.62477 0.34505
 Cu65 Cu 0.87500 0.65716 0.40739
 Cu66 Cu 0.84276 0.59225 0.37514
 N67 N 0.88718 0.58841 0.32704
 N68 N 0.86271 0.57581 0.33901
 C69 C 0.85485 0.55115 0.32246
 C70 C 0.87556 0.54827 0.29901
 C71 C 0.89583 0.57210 0.30243
 H72 H 0.83554 0.53648 0.32709
 H73 H 0.91523 0.57717 0.28806
 N74 N 0.82607 0.61240 0.41168
 N75 N 0.83834 0.63709 0.42395
 C76 C 0.82184 0.64524 0.44857
 C77 C 0.79827 0.62471 0.45176
 C78 C 0.80145 0.60421 0.42818
 H79 H 0.82658 0.66459 0.46313
 H80 H 0.78693 0.58481 0.42347
 H81 H 0.88109 0.61247 0.39351
 H82 H 0.85646 0.63701 0.36893
 N83 N 0.58906 0.32596 -0.11232
 N84 N 0.57713 0.33855 -0.13681
 C85 C 0.55239 0.32238 -0.14531
 C86 C 0.54888 0.29855 -0.12504
 C87 C 0.57241 0.30134 -0.10441
 H88 H 0.53804 0.32748 -0.16470
 H89 H 0.57707 0.28659 -0.08518
 Cu90 Cu 0.59531 0.37482 -0.15483
 Cu91 Cu 0.62531 0.34230 -0.09252
 Cu92 Cu 0.65774 0.40718 -0.12490
 N93 N 0.61336 0.41109 -0.17299
 N94 N 0.63785 0.42364 -0.16106
 C95 C 0.64580 0.44824 -0.17773
 C96 C 0.62512 0.45112 -0.20119
 C97 C 0.60482 0.42732 -0.19768
 H98 H 0.66516 0.46286 -0.17317
 H99 H 0.58540 0.42227 -0.21200
 N100 N 0.67432 0.38702 -0.08829
 N101 N 0.66199 0.36235 -0.07598
 C102 C 0.67850 0.35412 -0.05142
 C103 C 0.70215 0.37455 -0.04832
 C104 C 0.69899 0.39510 -0.07187
 H105 H 0.67375 0.33475 -0.03686
 H106 H 0.71360 0.41443 -0.07663
 H107 H 0.61945 0.38702 -0.10629
 H108 H 0.64392 0.36244 -0.13090
 C109 C -0.05953 0.30969 0.12523
 C110 C -0.05377 0.29569 0.15681
 C111 C -0.03186 0.27366 0.15683
 C112 C -0.01786 0.26779 0.12528
 C113 C -0.00633 0.29911 0.11447
 C114 C -0.02825 0.32115 0.11444
 C115 C -0.06696 0.28247 0.10445
 C116 C -0.04504 0.26043 0.10447
 C117 C -0.08310 0.33335 0.12522
 C118 C -0.10252 0.35278 0.12522
 C119 C 0.00575 0.24413 0.12537
 C120 C 0.02524 0.22476 0.12541
 H121 H -0.06581 0.30252 0.17735
 H122 H -0.02511 0.26159 0.17738
 H123 H 0.01699 0.30357 0.10743
 H124 H -0.02371 0.34450 0.10742
 H125 H -0.08760 0.28070 0.09089
 H126 H -0.04689 0.23977 0.09090
 C127 C 0.55936 0.69048 0.62529
 C128 C 0.56521 0.71609 0.64846
 C129 C 0.54329 0.73814 0.64850
 C130 C 0.51764 0.73243 0.62537
 C131 C 0.50548 0.70041 0.63300
 C132 C 0.52741 0.67837 0.63297
 C133 C 0.55579 0.70678 0.59450
 C134 C 0.53387 0.72883 0.59453
 C135 C 0.58298 0.66677 0.62526
 C136 C 0.60243 0.64732 0.62526
 C137 C 0.49401 0.75619 0.62541
 C138 C 0.47453 0.77563 0.62536
 H139 H 0.58484 0.71684 0.66352
 H140 H 0.54415 0.75777 0.66361
 H141 H 0.48172 0.69547 0.63796
 H142 H 0.52245 0.65456 0.63790
 H143 H 0.56929 0.70145 0.57442
 H144 H 0.52857 0.74236 0.57446
 C145 C 1.05933 0.80948 0.37456
 C146 C 1.06191 0.78719 0.34767
 C147 C 1.04000 0.76509 0.34764
 C148 C 1.01766 0.76746 0.37450
 C149 C 1.00484 0.80005 0.37277
 C150 C 1.02675 0.82214 0.37280
 C151 C 1.05970 0.78926 0.40316
 C152 C 1.03779 0.76716 0.40314
 C153 C 1.08293 0.83323 0.37459
 C154 C 1.10234 0.85274 0.37463
 C155 C 0.99408 0.74367 0.37451
 C156 C 0.97465 0.72417 0.37461
 H157 H 1.07940 0.78863 0.33020
 H158 H 1.03873 0.74761 0.33012
 H159 H 0.98068 0.80532 0.37166
 H160 H 1.02138 0.84633 0.37171
 H161 H 1.07574 0.79206 0.42181
 H162 H 1.03505 0.75106 0.42178
 C163 C 0.44055 0.19053 -0.12522
 C164 C 0.46102 0.18983 -0.15362
 C165 C 0.48301 0.21184 -0.15366
 C166 C 0.48237 0.23240 -0.12530
 C167 C 0.48454 0.21036 -0.09812
 C168 C 0.46254 0.18835 -0.09808
 C169 C 0.42782 0.22316 -0.12400
 C170 C 0.44981 0.24517 -0.12404
 C171 C 0.41688 0.16686 -0.12519
 C172 C 0.39742 0.14740 -0.12519
 C173 C 0.50605 0.25610 -0.12535
 C174 C 0.52556 0.27551 -0.12529
 H175 H 0.45848 0.17348 -0.17206
 H176 H 0.49931 0.21434 -0.17214
 H177 H 0.50181 0.21191 -0.08045
 H178 H 0.46098 0.17104 -0.08040
 H179 H 0.40366 0.22849 -0.12315
 H180 H 0.44447 0.26938 -0.12321
 C181 C 0.12446 -0.05923 0.30927
 C182 C 0.10701 -0.03029 0.31852
 C183 C 0.10692 -0.00822 0.29660
 C184 C 0.12429 -0.01723 0.26757
 C185 C 0.10972 -0.04741 0.25724
 C186 C 0.10981 -0.06949 0.27918
 C187 C 0.15645 -0.04805 0.30045
 C188 C 0.15637 -0.02597 0.27852
 C189 C 0.12456 -0.08296 0.33289
 C190 C 0.12461 -0.10244 0.35232
 C191 C 0.12422 0.00659 0.24401
 C192 C 0.12428 0.02614 0.22464
 H193 H 0.09573 -0.02740 0.34038
 H194 H 0.09555 0.01359 0.29967
 H195 H 0.10021 -0.05114 0.23469
 H196 H 0.10035 -0.09211 0.27544
 H197 H 0.17733 -0.05672 0.31054
 H198 H 0.17719 -0.01576 0.26980
 C199 C 0.62481 0.55936 -0.30933
 C200 C 0.63235 0.52739 -0.32153
 C201 C 0.63234 0.50532 -0.29959
 C202 C 0.62480 0.51739 -0.26760
 C203 C 0.59404 0.53374 -0.27106
 C204 C 0.59404 0.55581 -0.29300
 C205 C 0.64804 0.56507 -0.28378
 C206 C 0.64804 0.54300 -0.26184
 C207 C 0.62480 0.58309 -0.33294
 C208 C 0.62478 0.60259 -0.35237
 C209 C 0.62479 0.49364 -0.24396
 C210 C 0.62487 0.47419 -0.22449
 H211 H 0.63731 0.52252 -0.34530
 H212 H 0.63731 0.48154 -0.30458
 H213 H 0.57402 0.52849 -0.25745
 H214 H 0.57404 0.56943 -0.29821
 H215 H 0.66319 0.58469 -0.28302
 H216 H 0.66318 0.54374 -0.24226
 C217 C 0.37511 1.05951 0.80939
 C218 C 0.36665 1.02767 0.82141
 C219 C 0.36672 1.00562 0.79947
 C220 C 0.37526 1.01756 0.76765
 C221 C 0.40625 1.03333 0.77185
 C222 C 0.40617 1.05538 0.79379
 C223 C 0.35261 1.06566 0.78330
 C224 C 0.35269 1.04361 0.76135
 C225 C 0.37504 1.08322 0.83301
 C226 C 0.37503 1.10268 0.85246
 C227 C 0.37535 0.99381 0.74401
 C228 C 0.37532 0.97434 0.72455
 H229 H 0.36105 1.02289 0.84506
 H230 H 0.36116 0.98194 0.80435
 H231 H 0.42648 1.02769 0.75873
 H232 H 0.42633 1.06862 0.79947
 H233 H 0.33790 1.08557 0.78217
 H234 H 0.33802 1.04463 0.74144
 C235 C 0.87556 0.44039 0.19077
 C236 C 0.89651 0.43295 0.21780
 C237 C 0.89666 0.45493 0.23981
 C238 C 0.87584 0.48217 0.23260
 C239 C 0.84425 0.46813 0.22697
 C240 C 0.84411 0.44616 0.20497
 C241 C 0.88628 0.47172 0.17926
 C242 C 0.88644 0.49370 0.20125
 C243 C 0.87535 0.41681 0.16708
 C244 C 0.87521 0.39742 0.14759
 C245 C 0.87594 0.50581 0.25628
 C246 C 0.87586 0.52521 0.27576
 H247 H 0.91005 0.41226 0.21951
 H248 H 0.91031 0.45306 0.26038
 H249 H 0.82379 0.47480 0.23923
 H250 H 0.82356 0.43400 0.19838
 H251 H 0.89324 0.47621 0.15591
 H252 H 0.89351 0.51704 0.19673
 C253 C 0.30950 0.12524 -0.05985
 C254 C 0.29303 0.15600 -0.05663
 C255 C 0.27101 0.15605 -0.03469
 C256 C 0.26762 0.12533 -0.01811
 C257 C 0.29959 0.11806 -0.00586
 C258 C 0.32160 0.11802 -0.02780
 C259 C 0.28409 0.10178 -0.06543
 C260 C 0.26207 0.10182 -0.04349
 C261 C 0.33319 0.12518 -0.08346
 C262 C 0.35266 0.12511 -0.10287
 C263 C 0.24395 0.12541 0.00554
 C264 C 0.22457 0.12552 0.02504
 H265 H 0.29823 0.17599 -0.07037
 H266 H 0.25733 0.17608 -0.02963
 H267 H 0.30450 0.11339 0.01796
 H268 H 0.34538 0.11331 -0.02278
 H269 H 0.28345 0.08649 -0.08492
 H270 H 0.24256 0.08655 -0.04419
 C271 C 0.69020 0.62482 0.55981
 C272 C 0.71850 0.60608 0.56838
 C273 C 0.74049 0.60605 0.54640
 C274 C 0.73201 0.62475 0.51802
 C275 C 0.72437 0.65675 0.53012
 C276 C 0.70238 0.65678 0.55210
 C277 C 0.67945 0.61154 0.52925
 C278 C 0.70143 0.61151 0.50727
 C279 C 0.66654 0.62488 0.58345
 C280 C 0.64710 0.62493 0.60291
 C281 C 0.75567 0.62472 0.49436
 C282 C 0.77511 0.62471 0.47491
 H283 H 0.72106 0.59394 0.58983
 H284 H 0.76189 0.59387 0.54903
 H285 H 0.73527 0.67756 0.52215
 H286 H 0.69445 0.67760 0.56295
 H287 H 0.65657 0.60295 0.52523
 H288 H 0.69738 0.60288 0.48441
 C289 C 0.81001 0.37473 0.05969
 C290 C 0.82253 0.38028 0.02745
 C291 C 0.80062 0.38016 0.00542
 C292 C 0.76836 0.37451 0.01781
 C293 C 0.76356 0.39916 0.04225
 C294 C 0.78547 0.39927 0.06426
 C295 C 0.79245 0.34446 0.05758
 C296 C 0.77054 0.34434 0.03555
 C297 C 0.83353 0.37491 0.08339
 C298 C 0.85287 0.37504 0.10288
 C299 C 0.74476 0.37445 -0.00584
 C300 C 0.72533 0.37448 -0.02525
 H301 H 0.84650 0.38385 0.02237
 H302 H 0.80583 0.38366 -0.01854
 H303 H 0.74461 0.41510 0.04229
 H304 H 0.78530 0.41529 0.08316
 H305 H 0.79690 0.32482 0.07205
 H306 H 0.75620 0.32460 0.03116
 C307 C 0.19009 0.87511 0.44005
 C308 C 0.18273 0.89590 0.46725
 C309 C 0.20470 0.89588 0.48923
 C310 C 0.23188 0.87507 0.48184
 C311 C 0.24334 0.88589 0.45055
 C312 C 0.22136 0.88592 0.42858
 C313 C 0.19588 0.84349 0.45402
 C314 C 0.21785 0.84346 0.47600
 C315 C 0.16645 0.87513 0.41640
 C316 C 0.14700 0.87515 0.39698
 C317 C 0.25554 0.87504 0.50551
 C318 C 0.27498 0.87501 0.52494
 H319 H 0.16207 0.90942 0.46910
 H320 H 0.20284 0.90939 0.50991
 H321 H 0.26665 0.89291 0.44603
 H322 H 0.22585 0.89295 0.40525
 H323 H 0.18378 0.82293 0.44726
 H324 H 0.22457 0.82287 0.48805
   
