data_POSCAR
  _audit_creation_date              2014-09-24
  _audit_creation_method            'ToBaCCo'
  _symmetry_space_group_name_H-M    'P1'
  _symmetry_Int_Tables_number       1
  _symmetry_cell_setting            triclinic
  loop_
  _symmetry_equiv_pos_as_xyz
 x,y,z
_cell_length_a 22.8838
_cell_length_b 22.8636
_cell_length_c 23.0583
_cell_angle_alpha 90.049500
_cell_angle_beta 89.547400
_cell_angle_gamma 89.849300
loop_
  _atom_site_label
  _atom_site_type_symbol
  _atom_site_fract_x
  _atom_site_fract_y
  _atom_site_fract_z
N1 N 0.18349 0.19122 0.20933
 N2 N -0.17238 0.82461 0.16282
 N3 N -0.19220 0.18749 -0.18131
 N4 N 0.19865 0.80931 -0.19659
 N5 N 0.18740 1.20140 0.82140
 N6 N 0.80515 0.82026 0.80253
 N7 N 0.18138 0.80389 1.17970
 N8 N 0.80845 1.17374 1.20114
 N9 N 0.55140 1.03714 1.12684
 N10 N 0.59593 1.03239 1.16252
 N11 N 0.43086 1.08657 1.09524
 N12 N 0.38517 1.11876 1.11052
 N13 N 0.42889 1.03546 1.12109
 N14 N 0.38219 1.03135 1.15455
 N15 N 0.55424 1.08660 1.09804
 N16 N 0.60092 1.11677 1.11347
 C17 C 0.62625 1.08233 1.15405
 C18 C 0.35551 1.08364 1.14770
 N19 N 0.43459 1.09163 0.92584
 N20 N 0.38866 1.10607 0.89447
 N21 N 0.55754 1.12057 0.97656
 N22 N 0.60443 1.15393 0.98047
 N23 N 0.55709 1.09333 0.92638
 N24 N 0.60313 1.10748 0.89478
 N25 N 0.43410 1.12011 0.97535
 N26 N 0.38750 1.15399 0.97936
 Mn27 Mn 0.49449 1.10431 1.03647
 C28 C 0.35990 1.14518 0.92846
 C29 C 0.63196 1.14555 0.92878
 N30 N 0.43260 0.91370 1.08752
 N31 N 0.38592 0.89668 1.11700
 N32 N 0.56162 0.89048 1.04329
 N33 N 0.61589 0.87028 1.03845
 N34 N 0.55446 0.91653 1.09374
 N35 N 0.60253 0.91371 1.12430
 N36 N 0.43735 0.88468 1.03856
 N37 N 0.39357 0.84763 1.03302
 Mn38 Mn 0.49137 0.97552 1.10771
 C39 C 0.36218 0.85530 1.08246
 C40 C 0.64009 0.88394 1.09034
 N41 N 0.56114 0.97273 0.89286
 N42 N 0.60388 0.97555 0.85421
 N43 N 0.44049 0.91880 0.91856
 N44 N 0.39581 0.88602 0.90279
 N45 N 0.43854 0.96970 0.89219
 N46 N 0.39278 0.97302 0.85802
 N47 N 0.56336 0.92310 0.92139
 N48 N 0.60746 0.89059 0.90257
 Mn49 Mn 0.49759 1.03201 0.90875
 Mn50 Mn 0.50106 0.90337 0.98037
 Cl51 Cl 0.49616 1.00381 1.00826
 C52 C 0.63234 0.92407 0.86078
 C53 C 0.36682 0.92045 0.86475
 N54 N 0.04403 0.42325 0.09456
 N55 N 0.05421 0.37433 0.12369
 N56 N 0.08087 0.55191 0.07677
 N57 N 0.11067 0.59980 0.08886
 N58 N 0.03765 0.54512 0.11389
 N59 N 0.03686 0.58816 0.15208
 N60 N 0.08451 0.43098 0.05461
 N61 N 0.12275 0.38801 0.05495
 C62 C 0.10353 0.35300 0.09803
 C63 C 0.08302 0.62153 0.13628
 N64 N 0.04857 0.58343 -0.08584
 N65 N 0.06207 0.63184 -0.11460
 N66 N 0.09031 0.45321 -0.06850
 N67 N 0.12390 0.40769 -0.08136
 N68 N 0.05384 0.46371 -0.11089
 N69 N 0.06188 0.42647 -0.15379
 N70 N 0.08658 0.57416 -0.04444
 N71 N 0.12570 0.61601 -0.04282
 Mn72 Mn 0.08612 0.50217 0.00460
 C73 C 0.10998 0.65183 -0.08628
 C74 C 0.10575 0.39206 -0.13507
 N75 N -0.08848 0.54182 0.10661
 N76 N -0.08800 0.59292 0.13400
 N77 N -0.11863 0.42189 0.04559
 N78 N -0.15447 0.37684 0.04609
 N79 N -0.08212 0.41876 0.08913
 N80 N -0.09220 0.37135 0.12050
 N81 N -0.12836 0.54257 0.06571
 N82 N -0.15594 0.59307 0.06563
 Mn83 Mn -0.02239 0.48220 0.10196
 C84 C -0.13153 0.62384 0.10875
 C85 C -0.13739 0.34564 0.09289
 N86 N -0.07031 0.45643 -0.11641
 N87 N -0.06624 0.41432 -0.15544
 N88 N -0.12204 0.56498 -0.05638
 N89 N -0.16257 0.60604 -0.05803
 N90 N -0.07930 0.57707 -0.09275
 N91 N -0.09016 0.62629 -0.12083
 N92 N -0.11165 0.44439 -0.07833
 N93 N -0.13726 0.39436 -0.09112
 Mn94 Mn -0.01193 0.52091 -0.10206
 Mn95 Mn -0.12066 0.49289 -0.00586
 Cl96 Cl -0.01723 0.49957 -0.00032
 C97 C -0.10879 0.37653 -0.13966
 C98 C -0.14222 0.64383 -0.09834
 N99 N 0.89047 0.03755 0.56895
 N100 N 0.84845 0.03766 0.60858
 N101 N 0.93677 0.10369 0.46175
 N102 N 0.93687 0.14414 0.42099
 N103 N 0.89921 0.06210 0.44926
 N104 N 0.87237 0.07390 0.39998
 N105 N 0.92935 0.07799 0.58076
 N106 N 0.91444 0.10717 0.62802
 C107 C 0.86416 0.08128 0.64504
 C108 C 0.89602 0.12558 0.38328
 N109 N 1.10267 0.07191 0.46019
 N110 N 1.13520 0.08869 0.41547
 N111 N 1.05654 0.08357 0.58859
 N112 N 1.06421 0.11196 0.63811
 N113 N 1.09908 0.04575 0.58007
 N114 N 1.13572 0.04615 0.62371
 N115 N 1.06113 0.11036 0.47032
 N116 N 1.06467 0.15448 0.43390
 Mn117 Mn 0.99575 0.09438 0.52595
 C118 C 1.11106 0.14075 0.40023
 C119 C 1.11365 0.08738 0.65961
 N120 N 0.90685 -0.06322 0.42409
 N121 N 0.87942 -0.06187 0.37346
 N122 N 0.94264 -0.12318 0.54109
 N123 N 0.94320 -0.15936 0.58554
 N124 N 0.89878 -0.08610 0.54573
 N125 N 0.86860 -0.09649 0.59389
 N126 N 0.94997 -0.10113 0.42181
 N127 N 0.95369 -0.12583 0.37060
 Mn128 Mn 0.89779 -0.01248 0.49660
 C129 C 0.90948 -0.10181 0.34093
 C130 C 0.89634 -0.14300 0.61762
 N131 N 1.10624 -0.07665 0.55585
 N132 N 1.13937 -0.09080 0.60047
 N133 N 1.07387 -0.09525 0.42767
 N134 N 1.08595 -0.12340 0.37906
 N135 N 1.11071 -0.05217 0.43563
 N136 N 1.14863 -0.04937 0.39228
 N137 N 1.06789 -0.11796 0.54612
 N138 N 1.07455 -0.16183 0.58236
 Mn139 Mn 1.10547 -0.00263 0.50767
 Mn140 Mn 1.00832 -0.10976 0.48430
 Cl141 Cl 1.00181 -0.00750 0.50371
 C142 C 1.11916 -0.14433 0.61593
 C143 C 1.13259 -0.09425 0.35755
 C144 C 1.15656 0.19736 0.26597
 C145 C 1.12901 0.24713 0.28695
 C146 C 1.10953 0.23252 0.34095
 C147 C 1.12760 0.17571 0.34951
 O148 O 1.15641 0.15437 0.30451
 H149 H 1.12381 0.28934 0.26670
 H150 H 1.08468 0.25989 0.37052
 C151 C 0.86808 -0.15221 0.20404
 C152 C 0.92772 -0.15339 0.19584
 C153 C 0.94982 -0.12926 0.24468
 C154 C 0.90220 -0.11519 0.27914
 O155 O 0.85200 -0.12888 0.25448
 H156 H 0.95199 -0.17081 0.15921
 H157 H 0.99553 -0.12491 0.25549
 C158 C 0.80773 0.14367 0.77310
 C159 C 0.77172 0.09509 0.77116
 C160 C 0.78664 0.06639 0.72129
 C161 C 0.83133 0.09838 0.69727
 O162 O 0.84395 0.14535 0.72807
 H163 H 0.73919 0.08099 0.80220
 H164 H 0.76818 0.02632 0.70474
 C165 C 1.17217 -0.19815 0.74734
 C166 C 1.15033 -0.25025 0.72611
 C167 C 1.12820 -0.23685 0.67316
 C168 C 1.13943 -0.17821 0.66553
 O169 O 1.16643 -0.15466 0.71002
 H170 H 1.15068 -0.29304 0.74599
 H171 H 1.10635 -0.26621 0.64361
 C172 C 0.22445 1.14400 1.20047
 C173 C 0.21463 1.08690 1.21717
 C174 C 0.26376 1.05734 1.20092
 C175 C 0.29915 1.09813 1.17463
 O176 O 0.27570 1.15096 1.17435
 H177 H 0.17599 1.06881 1.23754
 H178 H 0.27272 1.01130 1.20630
 C179 C 0.23813 0.85749 0.81208
 C180 C 0.22731 0.91416 0.79461
 C181 C 0.27538 0.94498 0.81066
 C182 C 0.31130 0.90508 0.83750
 O183 O 0.28906 0.85186 0.83830
 H184 H 0.18856 0.93121 0.77406
 H185 H 0.28296 0.99124 0.80482
 C186 C 0.78105 0.86048 1.14139
 C187 C 0.78207 0.92074 1.14088
 C188 C 0.73083 0.93663 1.11594
 C189 C 0.70262 0.88507 1.10288
 O190 O 0.73295 0.83848 1.11839
 H191 H 0.81570 0.94945 1.15718
 H192 H 0.71438 0.98067 1.11038
 C193 C 0.76590 1.18548 0.86595
 C194 C 0.77626 1.20636 0.92120
 C195 C 0.72594 1.19627 0.95162
 C196 C 0.68922 1.16945 0.91318
 O197 O 0.71299 1.16298 0.86111
 H198 H 0.81607 1.22548 0.93751
 H199 H 0.71705 1.20547 0.99675
 C200 C 0.17022 0.23016 0.16164
 C201 C 0.19621 0.22679 0.10735
 C202 C 0.17358 0.27203 0.07676
 C203 C 0.13431 0.29891 0.11359
 O204 O 0.13168 0.27357 0.16505
 H205 H 0.22814 0.19573 0.09153
 H206 H 0.18492 0.28470 0.03294
 C207 C -0.15231 0.23648 -0.18354
 C208 C -0.09831 0.23698 -0.21110
 C209 C -0.07584 0.29110 -0.20046
 C210 C -0.11709 0.31907 -0.16650
 O211 O -0.16331 0.28623 -0.15607
 H212 H -0.07627 0.20198 -0.23402
 H213 H -0.03330 0.30726 -0.21350
 C214 C 0.18504 0.76991 -0.14944
 C215 C 0.21564 0.76676 -0.09809
 C216 C 0.19009 0.72285 -0.06767
 C217 C 0.14513 0.70311 -0.10175
 O218 O 0.14154 0.73166 -0.15131
 H219 H 0.25287 0.79187 -0.08435
 H220 H 0.20375 0.70577 -0.02621
 C221 C -0.15621 0.77373 0.13011
 C222 C -0.14663 0.77486 0.07115
 C223 C -0.13266 0.71896 0.05705
 C224 C -0.13517 0.68790 0.10824
 O225 O -0.14895 0.72116 0.15333
 H226 H -0.14970 0.81197 0.04222
 H227 H -0.12274 0.70220 0.01423
 C228 C 1.17603 0.15272 0.78279
 C229 C 1.20391 0.09906 0.78563
 C230 C 1.18294 0.06770 0.74034
 C231 C 1.14266 0.10341 0.71397
 O232 O 1.13788 0.15492 0.73971
 H233 H 1.23620 0.08425 0.81617
 H234 H 1.19624 0.02425 0.72713
 C235 C 0.84564 -0.18074 0.75768
 C236 C 0.90043 -0.20707 0.75977
 C237 C 0.92517 -0.19797 0.70676
 C238 C 0.88478 -0.16611 0.67611
 O239 O 0.83669 -0.15538 0.70658
 H240 H 0.92185 -0.22779 0.79599
 H241 H 0.96865 -0.21087 0.69290
 C242 C 1.17976 -0.15127 0.22401
 C243 C 1.20528 -0.09672 0.21910
 C244 C 1.19310 -0.06894 0.27012
 C245 C 1.15998 -0.10781 0.30158
 O246 O 1.15185 -0.15779 0.27405
 H247 H 1.22840 -0.07856 0.18229
 H248 H 1.20495 -0.02496 0.28242
 C249 C 0.84773 0.17381 0.24644
 C250 C 0.90117 0.20270 0.24735
 C251 C 0.92497 0.19011 0.29989
 C252 C 0.88548 0.15389 0.32707
 O253 O 0.83883 0.14403 0.29520
 H254 H 0.92263 0.22746 0.21352
 H255 H 0.96740 0.20352 0.31546
 C256 C 0.15949 0.25760 -0.18651
 C257 C 0.13740 0.27831 -0.23831
 C258 C 0.11505 0.33209 -0.22567
 C259 C 0.12623 0.34086 -0.16773
 O260 O 0.15347 0.29613 -0.14389
 H261 H 0.13805 0.25797 -0.28060
 H262 H 0.09318 0.36154 -0.25519
 C263 C -0.18755 0.21448 0.15694
 C264 C -0.21344 0.20898 0.10291
 C265 C -0.19896 0.25828 0.07330
 C266 C -0.16435 0.28988 0.10991
 O267 O -0.15720 0.26390 0.16069
 H268 H -0.23783 0.17261 0.08560
 H269 H -0.21066 0.26976 0.02951
 C270 C -0.19294 0.77758 -0.15494
 C271 C -0.22187 0.77928 -0.10157
 C272 C -0.20869 0.72795 -0.07489
 C273 C -0.17131 0.69929 -0.11222
 O274 O -0.16190 0.72869 -0.16063
 H275 H -0.24731 0.81399 -0.08197
 H276 H -0.22273 0.71419 -0.03212
 C277 C 0.13773 0.75812 0.17963
 C278 C 0.08337 0.76214 0.20608
 C279 C 0.05655 0.71026 0.19507
 C280 C 0.09595 0.67872 0.16209
 O281 O 0.14517 0.70749 0.15250
 H282 H 0.06452 0.79875 0.22921
 H283 H 0.01266 0.69777 0.20765
 C284 C 0.22821 1.19465 0.86836
 C285 C 0.21835 1.21380 0.92438
 C286 C 0.26759 1.19926 0.95396
 C287 C 0.30327 1.17151 0.91414
 O288 O 0.27971 1.16877 0.86206
 H289 H 0.17951 1.23445 0.94188
 H290 H 0.27611 1.20665 0.99942
 C291 C 0.22799 0.80406 1.13691
 C292 C 0.22529 0.77787 1.08297
 C293 C 0.27680 0.79157 1.05607
 C294 C 0.30658 0.82576 1.09508
 O295 O 0.27737 0.83316 1.14418
 H296 H 0.18941 0.75377 1.06451
 H297 H 0.29030 0.77983 1.01256
 C298 C 0.76340 1.13354 1.20087
 C299 C 0.76427 1.07916 1.22777
 C300 C 0.71196 1.05406 1.21536
 C301 C 0.68297 1.09398 1.18137
 O302 O 0.71369 1.14210 1.17256
 H303 H 0.79955 1.05816 1.25077
 H304 H 0.69766 1.01065 1.22753
 C305 C 0.76173 0.86244 0.80355
 C306 C 0.76322 0.91531 0.77386
 C307 C 0.71332 0.94409 0.78961
 C308 C 0.68534 0.90782 0.82815
 O309 O 0.71390 0.85830 0.83624
 H310 H 0.79758 0.93290 0.74670
 H311 H 0.69961 0.98725 0.77631
   
