data_POSCAR
  _audit_creation_date              2014-09-24
  _audit_creation_method            'ToBaCCo'
  _symmetry_space_group_name_H-M    'P1'
  _symmetry_Int_Tables_number       1
  _symmetry_cell_setting            triclinic
  loop_
  _symmetry_equiv_pos_as_xyz
 x,y,z
_cell_length_a 27.2737
_cell_length_b 21.4640
_cell_length_c 15.7119
_cell_angle_alpha 89.972000
_cell_angle_beta 90.037400
_cell_angle_gamma 89.999600
loop_
  _atom_site_label
  _atom_site_type_symbol
  _atom_site_fract_x
  _atom_site_fract_y
  _atom_site_fract_z
C1 C 0.20924 0.21521 0.21384
 C2 C 0.21054 0.28160 0.21366
 C3 C 0.24854 0.31266 0.25609
 C4 C 0.28647 0.28062 0.29733
 C5 C 0.28743 0.21430 0.29526
 C6 C 0.24822 0.18340 0.25430
 H7 H 0.24813 0.13298 0.25371
 H8 H 0.24878 0.36324 0.25658
 C9 C 0.79132 0.28506 0.21573
 C10 C 0.78915 0.21869 0.21044
 C11 C 0.75032 0.18657 0.24914
 C12 C 0.71287 0.21772 0.29262
 C13 C 0.71402 0.28347 0.29730
 C14 C 0.75305 0.31584 0.25949
 H15 H 0.75274 0.36626 0.26363
 H16 H 0.74940 0.13608 0.24564
 C17 C 0.71337 0.71642 0.70587
 C18 C 0.71455 0.78217 0.70152
 C19 C 0.75351 0.81454 0.73940
 C20 C 0.79179 0.78381 0.78320
 C21 C 0.78975 0.71742 0.78828
 C22 C 0.75097 0.68526 0.74928
 H23 H 0.75018 0.63477 0.75263
 H24 H 0.75304 0.86497 0.73543
 C25 C 0.28697 0.78349 0.70686
 C26 C 0.28576 0.71771 0.70331
 C27 C 0.24683 0.68558 0.74162
 C28 C 0.20855 0.71659 0.78494
 C29 C 0.21056 0.78302 0.78899
 C30 C 0.24935 0.81492 0.74972
 H31 H 0.25011 0.86543 0.75234
 H32 H 0.24730 0.63512 0.73834
 O33 O 1.04894 -0.07691 0.00901
 O34 O 0.95115 0.01915 0.10275
 O35 O 0.95384 -0.08010 0.00422
 O36 O 1.04679 0.02029 0.10464
 O37 O 1.04530 0.08233 -0.00764
 O38 O 0.95243 -0.01830 -0.10830
 O39 O 0.95008 0.07884 -0.01187
 O40 O 1.04805 -0.01718 -0.10559
 Cu41 Cu 0.99985 -0.03541 0.06672
 Cu42 Cu 0.99922 0.03749 -0.06988
 C43 C 1.06509 -0.06334 -0.06438
 C44 C 0.93407 0.06532 0.06164
 C45 C 0.93740 -0.06634 -0.06909
 C46 C 1.06188 0.06831 0.06547
 O47 O 0.45209 0.47689 0.39696
 O48 O 0.54693 0.57785 0.49098
 O49 O 0.54728 0.47803 0.39718
 O50 O 0.45109 0.57771 0.48873
 O51 O 0.45205 0.52159 0.60666
 O52 O 0.54674 0.41994 0.51330
 O53 O 0.54721 0.51982 0.60716
 O54 O 0.45044 0.42094 0.51501
 Cu55 Cu 0.49937 0.53348 0.43183
 Cu56 Cu 0.49911 0.46460 0.57212
 C57 C 0.43479 0.43211 0.44041
 C58 C 0.56340 0.56580 0.56484
 C59 C 0.56340 0.43206 0.43960
 C60 C 0.43525 0.56670 0.56322
 O61 O -0.04888 0.57857 0.01145
 O62 O 0.04893 0.48266 0.10641
 O63 O 0.04633 0.58179 0.00734
 O64 O -0.04678 0.48176 0.10838
 O65 O -0.04529 0.41965 -0.00372
 O66 O 0.04775 0.51966 -0.10473
 O67 O 0.04995 0.42276 -0.00791
 O68 O -0.04782 0.51854 -0.10276
 Cu69 Cu 0.00021 0.53728 0.06990
 Cu70 Cu 0.00088 0.46405 -0.06623
 C71 C -0.06491 0.56481 -0.06200
 C72 C 0.06600 0.43641 0.06554
 C73 C 0.06282 0.56777 -0.06580
 C74 C -0.06189 0.43372 0.06931
 O75 O 0.54679 1.02086 0.39205
 O76 O 0.45326 0.91971 0.48970
 O77 O 0.45112 1.01822 0.39467
 O78 O 0.54894 0.92077 0.48564
 O79 O 0.54782 0.97742 0.60301
 O80 O 0.45436 1.07973 0.50731
 O81 O 0.45238 0.98014 0.60350
 O82 O 0.54943 1.07724 0.50961
 Cu83 Cu 0.50002 0.96396 0.42890
 Cu84 Cu 0.50097 1.03450 0.56754
 C85 C 0.56434 1.06593 0.43470
 C86 C 0.43654 0.93315 0.56285
 C87 C 0.43650 1.06589 0.43508
 C88 C 0.56476 0.93220 0.56002
 N89 N 1.16767 0.11692 0.19381
 C90 C 1.17086 0.17908 0.17722
 N91 N 1.13681 0.20427 0.12421
 N92 N 1.10216 0.16926 0.08821
 C93 C 1.09951 0.10743 0.10515
 N94 N 1.13263 0.08197 0.15919
 N95 N 0.65338 0.63091 0.71520
 C96 C 0.67307 0.67850 0.66956
 N97 N 0.65706 0.68791 0.58879
 N98 N 0.62193 0.65232 0.55556
 C99 C 0.60183 0.60537 0.60166
 N100 N 0.61833 0.59514 0.68199
 N101 N -0.13742 0.29763 0.12442
 C102 C -0.17040 0.32175 0.18017
 N103 N -0.16643 0.38334 0.19985
 N104 N -0.13150 0.41873 0.16560
 C105 C -0.09937 0.39430 0.10895
 N106 N -0.10292 0.33306 0.08895
 N107 N 0.34642 0.86977 0.71427
 C108 C 0.32720 0.82121 0.66994
 N109 N 0.34359 0.81060 0.58974
 N110 N 0.37861 0.84599 0.55584
 C111 C 0.39823 0.89393 0.60062
 N112 N 0.38137 0.90536 0.68037
 N113 N -0.16478 0.67864 -0.08665
 C114 C -0.17189 0.67846 -0.17218
 N115 N -0.14536 0.63849 -0.22075
 N116 N -0.11164 0.60169 -0.18554
 C117 C -0.10334 0.60345 -0.10041
 N118 N -0.13066 0.64236 -0.05154
 N119 N 0.32925 1.11575 0.31124
 C120 C 0.32592 1.17754 0.33016
 N121 N 0.36013 1.20190 0.38350
 N122 N 0.39524 1.16652 0.41734
 C123 C 0.39816 1.10514 0.39791
 N124 N 0.36475 1.08043 0.34377
 N125 N 1.14569 -0.13812 -0.22165
 C126 C 1.17216 -0.17774 -0.17231
 N127 N 1.16499 -0.17724 -0.08683
 N128 N 1.13086 -0.14068 -0.05247
 C129 C 1.10359 -0.10213 -0.10209
 N130 N 1.11195 -0.10103 -0.18719
 N131 N 0.65243 0.36673 0.28811
 C132 C 0.67375 0.32075 0.33457
 N133 N 0.65926 0.31245 0.41642
 N134 N 0.62384 0.34751 0.44984
 C135 C 0.60204 0.39280 0.40287
 N136 N 0.61718 0.40200 0.32155
 N137 N 0.86278 -0.20315 -0.12473
 C138 C 0.82987 -0.17931 -0.18094
 N139 N 0.83362 -0.11769 -0.20071
 N140 N 0.86822 -0.08200 -0.16610
 C141 C 0.90025 -0.10612 -0.10895
 N142 N 0.89697 -0.16740 -0.08888
 N143 N 0.35287 0.35729 0.28506
 C144 C 0.32549 0.31940 0.33529
 N145 N 0.33297 0.32041 0.42076
 N146 N 0.36804 0.35602 0.45430
 C147 C 0.39613 0.39290 0.40377
 N148 N 0.38755 0.39340 0.31867
 N149 N 0.13762 0.70417 -0.12281
 C150 C 0.17048 0.67996 -0.17871
 N151 N 0.16669 0.61823 -0.19769
 N152 N 0.13207 0.58279 -0.16267
 C153 C 0.10008 0.60729 -0.10587
 N154 N 0.10342 0.66867 -0.08654
 N155 N 0.65114 1.13445 0.28165
 C156 C 0.67282 1.17968 0.32902
 N157 N 0.65944 1.18606 0.41166
 N158 N 0.62468 1.15004 0.44509
 C159 C 0.60249 1.10556 0.39737
 N160 N 0.61649 1.09817 0.31511
 N161 N 0.16559 0.32212 0.08908
 C162 C 0.17252 0.32147 0.17465
 N163 N 0.14609 0.36126 0.22370
 N164 N 0.11258 0.39859 0.18888
 C165 C 0.10442 0.39757 0.10369
 N166 N 0.13169 0.35891 0.05437
 N167 N 0.65146 0.86328 0.71277
 C168 C 0.67435 0.81958 0.66460
 N169 N 0.66189 0.81427 0.58130
 N170 N 0.62671 0.84983 0.54808
 C171 C 0.60327 0.89276 0.59668
 N172 N 0.61648 0.89913 0.67950
 N173 N 0.85388 0.13960 0.21992
 C174 C 0.82745 0.17961 0.17113
 N175 N 0.83453 0.17963 0.08560
 N176 N 0.86853 0.14313 0.05070
 C177 C 0.89574 0.10415 0.09979
 N178 N 0.88748 0.10259 0.18492
 N179 N 0.33787 0.68443 0.58311
 C180 C 0.32588 0.68005 0.66670
 N181 N 0.34916 0.63702 0.71555
 N182 N 0.38407 0.60097 0.68262
 C183 C 0.39685 0.60645 0.59949
 N184 N 0.37301 0.64869 0.55023
   
