data_POSCAR
  _audit_creation_date              2014-09-24
  _audit_creation_method            'ToBaCCo'
  _symmetry_space_group_name_H-M    'P1'
  _symmetry_Int_Tables_number       1
  _symmetry_cell_setting            triclinic
  loop_
  _symmetry_equiv_pos_as_xyz
 x,y,z
_cell_length_a 58.4546
_cell_length_b 40.6244
_cell_length_c 28.6772
_cell_angle_alpha 89.960900
_cell_angle_beta 89.973600
_cell_angle_gamma 90.034400
loop_
  _atom_site_label
  _atom_site_type_symbol
  _atom_site_fract_x
  _atom_site_fract_y
  _atom_site_fract_z
C1 C 0.70722 0.28118 0.54341
 C2 C 0.69736 0.29016 0.50089
 C3 C 0.70734 0.28116 0.45856
 C4 C 0.72778 0.26263 0.45819
 C5 C 0.73801 0.25331 0.50110
 C6 C 0.72770 0.26261 0.54396
 C7 C 0.73815 0.25310 0.58605
 C8 C 0.75829 0.23483 0.58609
 C9 C 0.76879 0.22533 0.54403
 C10 C 0.75856 0.23466 0.50112
 C11 C 0.73825 0.25320 0.41614
 C12 C 0.75838 0.23493 0.41613
 C13 C 0.76884 0.22538 0.45822
 C14 C 0.78931 0.20678 0.45869
 C15 C 0.79920 0.19775 0.50115
 C16 C 0.78925 0.20674 0.54359
 H17 H 0.73081 0.25974 0.61942
 H18 H 0.76559 0.22818 0.61949
 H19 H 0.73093 0.25989 0.38278
 H20 H 0.76571 0.22832 0.38275
 H21 H 0.68163 0.30440 0.50065
 H22 H 0.81492 0.18346 0.50118
 C23 C 0.20965 0.78598 0.54359
 C24 C 0.19952 0.79456 0.50121
 C25 C 0.20940 0.78554 0.45877
 C26 C 0.23000 0.76737 0.45825
 C27 C 0.24049 0.75853 0.50110
 C28 C 0.23029 0.76789 0.54400
 C29 C 0.24097 0.75893 0.58604
 C30 C 0.26130 0.74109 0.58601
 C31 C 0.27173 0.73150 0.54390
 C32 C 0.26121 0.74029 0.50104
 C33 C 0.24038 0.75782 0.41615
 C34 C 0.26067 0.73988 0.41608
 C35 C 0.27135 0.73087 0.45812
 C36 C 0.29193 0.71266 0.45845
 C37 C 0.30215 0.70418 0.50077
 C38 C 0.29238 0.71333 0.54331
 H39 H 0.23367 0.76567 0.61940
 H40 H 0.26881 0.73483 0.61937
 H41 H 0.23286 0.76413 0.38283
 H42 H 0.26794 0.73312 0.38270
 H43 H 0.18367 0.80848 0.50126
 H44 H 0.31799 0.69018 0.50049
 C45 C 0.20811 0.21646 -0.45923
 C46 C 0.19797 0.20782 -0.50155
 C47 C 0.20804 0.21635 -0.54408
 C48 C 0.22889 0.23408 -0.54467
 C49 C 0.23935 0.24300 -0.50183
 C50 C 0.22892 0.23415 -0.45889
 C51 C 0.23956 0.24320 -0.41685
 C52 C 0.26007 0.26062 -0.41691
 C53 C 0.27072 0.26964 -0.45901
 C54 C 0.26028 0.26077 -0.50188
 C55 C 0.23956 0.24313 -0.58679
 C56 C 0.26007 0.26057 -0.58684
 C57 C 0.27075 0.26965 -0.54479
 C58 C 0.29160 0.28736 -0.54430
 C59 C 0.30168 0.29591 -0.50182
 C60 C 0.29153 0.28730 -0.45945
 H61 H 0.23208 0.23687 -0.38348
 H62 H 0.26755 0.26698 -0.38357
 H63 H 0.23210 0.23678 -0.62014
 H64 H 0.26753 0.26689 -0.62023
 H65 H 0.18197 0.19419 -0.50130
 H66 H 0.31769 0.30950 -0.50162
 C67 C -0.29195 0.71564 -0.45866
 C68 C -0.30183 0.70665 -0.50114
 C69 C -0.29191 0.71578 -0.54356
 C70 C -0.27148 0.73448 -0.54395
 C71 C -0.26126 0.74378 -0.50102
 C72 C -0.27152 0.73434 -0.45814
 C73 C -0.26107 0.74385 -0.41603
 C74 C -0.24099 0.76228 -0.41598
 C75 C -0.23057 0.77191 -0.45802
 C76 C -0.24077 0.76259 -0.50094
 C77 C -0.26100 0.74413 -0.58599
 C78 C -0.24092 0.76256 -0.58590
 C79 C -0.23050 0.77208 -0.54378
 C80 C -0.21010 0.79085 -0.54318
 C81 C -0.20026 0.79984 -0.50065
 C82 C -0.21020 0.79064 -0.45834
 H83 H -0.26838 0.73710 -0.38266
 H84 H -0.23368 0.76893 -0.38261
 H85 H -0.26828 0.73749 -0.61940
 H86 H -0.23359 0.76932 -0.61925
 H87 H -0.31754 0.69230 -0.50118
 H88 H -0.18460 0.81426 -0.50038
 N89 N -0.02365 0.96496 0.08333
 N90 N -0.03994 0.95946 0.11421
 N91 N 0.02453 0.94234 0.05106
 N92 N 0.04090 0.92068 0.05926
 N93 N 0.02444 0.96533 0.08324
 N94 N 0.04071 0.96000 0.11419
 N95 N -0.02361 0.94197 0.05113
 N96 N -0.03990 0.92015 0.05925
 C97 C -0.04999 0.93166 0.09844
 C98 C 0.05090 0.93230 0.09847
 N99 N 0.02440 0.96542 -0.08172
 N100 N 0.04076 0.96024 -0.11255
 N101 N -0.02363 0.94201 -0.04947
 N102 N -0.03987 0.92012 -0.05766
 N103 N -0.02369 0.96504 -0.08165
 N104 N -0.03993 0.95950 -0.11259
 N105 N 0.02451 0.94240 -0.04953
 N106 N 0.04098 0.92088 -0.05760
 Mn107 Mn 0.00045 0.94180 0.00080
 C108 C 0.05101 0.93260 -0.09675
 C109 C -0.04995 0.93164 -0.09686
 N110 N 0.02420 1.03621 0.08322
 N111 N 0.04052 1.04168 0.11403
 N112 N -0.02400 1.05886 0.05116
 N113 N -0.04038 1.08050 0.05942
 N114 N -0.02388 1.03584 0.08334
 N115 N -0.04015 1.04112 0.11434
 N116 N 0.02414 1.05923 0.05103
 N117 N 0.04044 1.08105 0.05908
 Mn118 Mn 0.00028 1.00059 0.08374
 C119 C 0.05056 1.06950 0.09822
 C120 C -0.05036 1.06882 0.09866
 N121 N -0.02393 1.03591 -0.08164
 N122 N -0.04025 1.04118 -0.11250
 N123 N 0.02411 1.05929 -0.04957
 N124 N 0.04035 1.08118 -0.05782
 N125 N 0.02415 1.03629 -0.08174
 N126 N 0.04040 1.04185 -0.11273
 N127 N -0.02403 1.05890 -0.04946
 N128 N -0.04045 1.08050 -0.05756
 Mn129 Mn 0.00023 1.00066 -0.08214
 Mn130 Mn 0.00005 1.05946 0.00079
 Cl131 Cl 0.00025 1.00063 0.00080
 C132 C -0.05047 1.06883 -0.09673
 C133 C 0.05042 1.06969 -0.09705
 N134 N 0.52540 0.55811 -0.05116
 N135 N 0.54181 0.57972 -0.05943
 N136 N 0.47719 0.53556 -0.08335
 N137 N 0.46090 0.54102 -0.11422
 N138 N 0.47726 0.55860 -0.05124
 N139 N 0.46099 0.58042 -0.05941
 N140 N 0.52527 0.53507 -0.08327
 N141 N 0.54157 0.54031 -0.11424
 C142 C 0.55181 0.56801 -0.09859
 C143 C 0.45088 0.56886 -0.09854
 N144 N 0.47663 0.44173 -0.05086
 N145 N 0.46015 0.42019 -0.05893
 N146 N 0.52489 0.46419 -0.08306
 N147 N 0.54113 0.45855 -0.11400
 N148 N 0.52477 0.44121 -0.05082
 N149 N 0.54095 0.41925 -0.05895
 N150 N 0.47681 0.46470 -0.08312
 N151 N 0.46048 0.45947 -0.11400
 Mn152 Mn 0.50104 0.49988 -0.08366
 C153 C 0.45018 0.43186 -0.09816
 C154 C 0.55107 0.43067 -0.09820
 N155 N 0.47721 0.55872 0.04937
 N156 N 0.46103 0.58067 0.05750
 N157 N 0.52518 0.53525 0.08169
 N158 N 0.54143 0.54058 0.11271
 N159 N 0.52535 0.55823 0.04944
 N160 N 0.54174 0.57987 0.05766
 N161 N 0.47710 0.53575 0.08164
 N162 N 0.46086 0.54139 0.11257
 Mn163 Mn 0.50131 0.55880 -0.00090
 C164 C 0.45092 0.56926 0.09675
 C165 C 0.55168 0.56826 0.09695
 N166 N 0.52471 0.44133 0.04979
 N167 N 0.54092 0.41943 0.05802
 N168 N 0.47671 0.46487 0.08186
 N169 N 0.46039 0.45967 0.11279
 N170 N 0.47657 0.44183 0.04975
 N171 N 0.46012 0.42027 0.05798
 N172 N 0.52480 0.46437 0.08190
 N173 N 0.54104 0.45883 0.11285
 Mn174 Mn 0.50067 0.44114 -0.00053
 Mn175 Mn 0.50095 0.50006 0.08223
 Cl176 Cl 0.50099 0.49997 -0.00072
 C177 C 0.55101 0.43095 0.09719
 C178 C 0.45013 0.43200 0.09714
 C179 C 0.30261 0.29673 0.41573
 C180 C 0.31290 0.30552 0.38146
 C181 C 0.32591 0.31666 0.34187
 C182 C 0.34774 0.30380 0.33369
 C183 C 0.36130 0.31647 0.29775
 C184 C 0.35320 0.34230 0.26951
 C185 C 0.33099 0.35451 0.27726
 C186 C 0.31746 0.34178 0.31326
 C187 C 0.36839 0.35756 0.23398
 C188 C 0.36904 0.39199 0.22865
 C189 C 0.38461 0.40663 0.19799
 C190 C 0.39970 0.38711 0.17213
 C191 C 0.39881 0.35280 0.17627
 C192 C 0.38324 0.33809 0.20694
 C193 C 0.41703 0.40244 0.14381
 C194 C 0.43194 0.41571 0.12164
 H195 H 0.35453 0.28452 0.35586
 H196 H 0.37842 0.30685 0.29318
 H197 H 0.32418 0.37412 0.25578
 H198 H 0.30059 0.35197 0.31934
 H199 H 0.35809 0.40770 0.24943
 H200 H 0.38527 0.43322 0.19533
 H201 H 0.41045 0.33745 0.15649
 H202 H 0.38297 0.31152 0.20986
 C203 C -0.19933 0.80087 0.41691
 C204 C -0.18929 0.81022 0.38264
 C205 C -0.17660 0.82204 0.34302
 C206 C -0.17489 0.85590 0.33485
 C207 C -0.16102 0.86773 0.29884
 C208 C -0.14861 0.84580 0.27053
 C209 C -0.15089 0.81174 0.27829
 C210 C -0.16478 0.79996 0.31436
 C211 C -0.13240 0.85859 0.23493
 C212 C -0.11069 0.84413 0.22954
 C213 C -0.09468 0.85774 0.19888
 C214 C -0.10014 0.88590 0.17309
 C215 C -0.12189 0.89998 0.17726
 C216 C -0.13794 0.88641 0.20792
 C217 C -0.08291 0.90154 0.14489
 C218 C -0.06808 0.91507 0.12282
 H219 H -0.18382 0.87322 0.35706
 H220 H -0.15938 0.89409 0.29426
 H221 H -0.14176 0.79424 0.25675
 H222 H -0.16596 0.77369 0.32044
 H223 H -0.10576 0.82302 0.25030
 H224 H -0.07783 0.84679 0.19620
 H225 H -0.12628 0.92184 0.15753
 H226 H -0.15460 0.89786 0.21089
 C227 C 0.69731 0.70605 0.41642
 C228 C 0.68722 0.69697 0.38208
 C229 C 0.67445 0.68549 0.34241
 C230 C 0.65269 0.69831 0.33344
 C231 C 0.63935 0.68535 0.29742
 C232 C 0.64761 0.65926 0.26989
 C233 C 0.66975 0.64707 0.27844
 C234 C 0.68307 0.66010 0.31452
 C235 C 0.63264 0.64371 0.23428
 C236 C 0.63199 0.60923 0.22961
 C237 C 0.61660 0.59436 0.19884
 C238 C 0.60170 0.61369 0.17223
 C239 C 0.60260 0.64802 0.17572
 C240 C 0.61799 0.66297 0.20649
 C241 C 0.58454 0.59813 0.14380
 C242 C 0.56974 0.58471 0.12154
 H243 H 0.64578 0.71780 0.35505
 H244 H 0.62227 0.69495 0.29223
 H245 H 0.67668 0.62726 0.25752
 H246 H 0.69988 0.64994 0.32122
 H247 H 0.64278 0.59369 0.25097
 H248 H 0.61593 0.56775 0.19668
 H249 H 0.59111 0.66322 0.15535
 H250 H 0.61827 0.68956 0.20890
 C251 C 0.19708 1.20689 0.41600
 C252 C 0.18684 1.19802 0.38174
 C253 C 0.17392 1.18676 0.34216
 C254 C 0.15193 1.19911 0.33424
 C255 C 0.13849 1.18628 0.29830
 C256 C 0.14687 1.16080 0.26980
 C257 C 0.16923 1.14911 0.27729
 C258 C 0.18265 1.16200 0.31329
 C259 C 0.13182 1.14530 0.23431
 C260 C 0.13156 1.11088 0.22881
 C261 C 0.11609 1.09599 0.19825
 C262 C 0.10072 1.11524 0.17266
 C263 C 0.10123 1.14955 0.17694
 C264 C 0.11670 1.16451 0.20751
 C265 C 0.08349 1.09960 0.14453
 C266 C 0.06865 1.08608 0.12253
 H267 H 0.14494 1.21810 0.35661
 H268 H 0.12125 1.19548 0.29393
 H269 H 0.17625 1.12978 0.25561
 H270 H 0.19965 1.15221 0.31918
 H271 H 0.14272 1.09537 0.24941
 H272 H 0.11572 1.06939 0.19548
 H273 H 0.08938 1.16468 0.15736
 H274 H 0.11667 1.19108 0.21056
 C275 C 0.69638 0.29095 -0.41666
 C276 C 0.68624 0.30010 -0.38241
 C277 C 0.67342 0.31167 -0.34284
 C278 C 0.65142 0.29941 -0.33450
 C279 C 0.63809 0.31251 -0.29857
 C280 C 0.64657 0.33817 -0.27051
 C281 C 0.66894 0.34978 -0.27844
 C282 C 0.68225 0.33662 -0.31442
 C283 C 0.63164 0.35390 -0.23499
 C284 C 0.63147 0.38835 -0.22985
 C285 C 0.61614 0.40344 -0.19918
 C286 C 0.60082 0.38437 -0.17314
 C287 C 0.60124 0.35004 -0.17710
 C288 C 0.61656 0.33487 -0.20777
 C289 C 0.58373 0.40021 -0.14483
 C290 C 0.56902 0.41389 -0.12267
 H291 H 0.64435 0.28028 -0.35652
 H292 H 0.62084 0.30336 -0.29387
 H293 H 0.67604 0.36924 -0.25710
 H294 H 0.69925 0.34633 -0.32064
 H295 H 0.64260 0.40373 -0.25077
 H296 H 0.61584 0.43005 -0.19666
 H297 H 0.58942 0.33503 -0.15717
 H298 H 0.61647 0.30829 -0.21054
 C299 C 0.19822 0.79622 -0.41418
 C300 C 0.18803 0.80526 -0.37995
 C301 C 0.17514 0.81665 -0.34039
 C302 C 0.15349 0.80340 -0.33132
 C303 C 0.14002 0.81625 -0.29543
 C304 C 0.14802 0.84264 -0.26814
 C305 C 0.17005 0.85524 -0.27677
 C306 C 0.18351 0.84233 -0.31272
 C307 C 0.13288 0.85806 -0.23274
 C308 C 0.13189 0.89254 -0.22849
 C309 C 0.11631 0.90725 -0.19797
 C310 C 0.10156 0.88776 -0.17120
 C311 C 0.10280 0.85343 -0.17426
 C312 C 0.11837 0.83864 -0.20478
 C313 C 0.08420 0.90311 -0.14307
 C314 C 0.06924 0.91636 -0.12106
 H315 H 0.14678 0.78368 -0.35276
 H316 H 0.12302 0.80633 -0.29017
 H317 H 0.17679 0.87529 -0.25603
 H318 H 0.20023 0.85281 -0.31950
 H319 H 0.14256 0.90819 -0.24999
 H320 H 0.11538 0.93386 -0.19614
 H321 H 0.09142 0.83811 -0.15376
 H322 H 0.11891 0.81204 -0.20687
 C323 C 0.30346 0.70409 -0.41679
 C324 C 0.31382 0.69543 -0.38256
 C325 C 0.32690 0.68444 -0.34301
 C326 C 0.34897 0.69676 -0.33578
 C327 C 0.36254 0.68419 -0.29984
 C328 C 0.35423 0.65902 -0.27065
 C329 C 0.33179 0.64736 -0.27748
 C330 C 0.31824 0.65999 -0.31348
 C331 C 0.36939 0.64381 -0.23509
 C332 C 0.36955 0.60945 -0.22878
 C333 C 0.38510 0.59480 -0.19813
 C334 C 0.40064 0.61423 -0.17326
 C335 C 0.40024 0.64849 -0.17835
 C336 C 0.38470 0.66322 -0.20901
 C337 C 0.41792 0.59878 -0.14501
 C338 C 0.43278 0.58537 -0.12292
 H339 H 0.35591 0.71551 -0.35867
 H340 H 0.37983 0.69335 -0.29600
 H341 H 0.32481 0.62828 -0.25526
 H342 H 0.30119 0.65023 -0.31882
 H343 H 0.35825 0.59378 -0.24881
 H344 H 0.38537 0.56823 -0.19473
 H345 H 0.41223 0.66376 -0.15934
 H346 H 0.38481 0.68974 -0.21269
 C347 C -0.20000 1.19692 -0.41640
 C348 C -0.18997 1.18777 -0.38203
 C349 C -0.17730 1.17621 -0.34228
 C350 C -0.17534 1.14238 -0.33405
 C351 C -0.16148 1.13083 -0.29787
 C352 C -0.14934 1.15301 -0.26946
 C353 C -0.15187 1.18702 -0.27729
 C354 C -0.16575 1.19852 -0.31351
 C355 C -0.13313 1.14055 -0.23368
 C356 C -0.11155 1.15541 -0.22810
 C357 C -0.09551 1.14209 -0.19729
 C358 C -0.10082 1.11383 -0.17154
 C359 C -0.12245 1.09936 -0.17589
 C360 C -0.13852 1.11264 -0.20670
 C361 C -0.08352 1.09848 -0.14324
 C362 C -0.06863 1.08517 -0.12112
 H363 H -0.18407 1.12489 -0.35633
 H364 H -0.15964 1.10451 -0.29325
 H365 H -0.14295 1.20470 -0.25568
 H366 H -0.16712 1.22477 -0.31964
 H367 H -0.10674 1.17660 -0.24883
 H368 H -0.07876 1.15334 -0.19447
 H369 H -0.12671 1.07742 -0.15620
 H370 H -0.15508 1.10088 -0.20982
 C371 C 0.69725 0.70581 -0.41869
 C372 C 0.68718 0.69666 -0.38435
 C373 C 0.67445 0.68514 -0.34461
 C374 C 0.65270 0.69798 -0.33550
 C375 C 0.63942 0.68501 -0.29936
 C376 C 0.64771 0.65891 -0.27185
 C377 C 0.66984 0.64672 -0.28056
 C378 C 0.68310 0.65975 -0.31675
 C379 C 0.63280 0.64336 -0.23612
 C380 C 0.63212 0.60889 -0.23146
 C381 C 0.61675 0.59401 -0.20061
 C382 C 0.60190 0.61334 -0.17391
 C383 C 0.60283 0.64768 -0.17737
 C384 C 0.61820 0.66262 -0.20823
 C385 C 0.58472 0.59780 -0.14546
 C386 C 0.56991 0.58440 -0.12319
 H387 H 0.64577 0.71747 -0.35708
 H388 H 0.62234 0.69461 -0.29405
 H389 H 0.67680 0.62691 -0.25966
 H390 H 0.69991 0.64960 -0.32357
 H391 H 0.64287 0.59334 -0.25290
 H392 H 0.61605 0.56740 -0.19847
 H393 H 0.59138 0.66287 -0.15693
 H394 H 0.61850 0.68922 -0.21063
 C395 C 0.19653 1.20656 -0.41694
 C396 C 0.18626 1.19774 -0.38266
 C397 C 0.17330 1.18655 -0.34302
 C398 C 0.18215 1.16218 -0.31360
 C399 C 0.16874 1.14940 -0.27745
 C400 C 0.14627 1.16080 -0.27036
 C401 C 0.13776 1.18588 -0.29945
 C402 C 0.15119 1.19861 -0.33554
 C403 C 0.13127 1.14543 -0.23459
 C404 C 0.11595 1.16468 -0.20832
 C405 C 0.10056 1.14979 -0.17744
 C406 C 0.10033 1.11553 -0.17233
 C407 C 0.11588 1.09626 -0.19740
 C408 C 0.13127 1.11107 -0.22827
 C409 C 0.08318 1.09990 -0.14387
 C410 C 0.06842 1.08635 -0.12161
 H411 H 0.19923 1.15263 -0.31914
 H412 H 0.17586 1.13038 -0.25532
 H413 H 0.12044 1.19484 -0.29539
 H414 H 0.14412 1.21729 -0.35833
 H415 H 0.11571 1.19120 -0.21200
 H416 H 0.08856 1.16494 -0.15828
 H417 H 0.11573 1.06969 -0.19399
 H418 H 0.14259 1.09552 -0.24844
 C419 C 0.30312 0.29716 -0.41721
 C420 C 0.31339 0.30590 -0.38294
 C421 C 0.32635 0.31696 -0.34329
 C422 C 0.31776 0.34181 -0.31441
 C423 C 0.33121 0.35444 -0.27827
 C424 C 0.35347 0.34238 -0.27064
 C425 C 0.36170 0.31682 -0.29917
 C426 C 0.34824 0.30426 -0.33525
 C427 C 0.36856 0.35756 -0.23495
 C428 C 0.38348 0.33806 -0.20811
 C429 C 0.39899 0.35272 -0.17735
 C430 C 0.39976 0.38701 -0.17293
 C431 C 0.38459 0.40655 -0.19856
 C432 C 0.36907 0.39197 -0.22931
 C433 C 0.41707 0.40232 -0.14464
 C434 C 0.43199 0.41558 -0.12253
 H435 H 0.30084 0.35186 -0.32038
 H436 H 0.32429 0.37384 -0.25657
 H437 H 0.37887 0.30735 -0.29469
 H438 H 0.35512 0.28519 -0.35762
 H439 H 0.38331 0.31150 -0.21127
 H440 H 0.41070 0.33736 -0.15774
 H441 H 0.38516 0.43314 -0.19568
 H442 H 0.35807 0.40770 -0.24994
 C443 C -0.19888 0.80105 -0.41604
 C444 C -0.18883 0.81032 -0.38177
 C445 C -0.17612 0.82205 -0.34215
 C446 C -0.16410 0.79995 -0.31387
 C447 C -0.15021 0.81168 -0.27779
 C448 C -0.14815 0.84572 -0.26963
 C449 C -0.16077 0.86766 -0.29757
 C450 C -0.17462 0.85588 -0.33359
 C451 C -0.13199 0.85849 -0.23398
 C452 C -0.13768 0.88604 -0.20660
 C453 C -0.12170 0.89960 -0.17583
 C454 C -0.09986 0.88577 -0.17191
 C455 C -0.09424 0.85788 -0.19810
 C456 C -0.11018 0.84428 -0.22887
 C457 C -0.08271 0.90142 -0.14355
 C458 C -0.06795 0.91498 -0.12136
 H459 H -0.16510 0.77370 -0.32025
 H460 H -0.14093 0.79416 -0.25655
 H461 H -0.15930 0.89400 -0.29269
 H462 H -0.18372 0.87322 -0.35550
 H463 H -0.15442 0.89730 -0.20934
 H464 H -0.12622 0.92125 -0.15580
 H465 H -0.07732 0.84713 -0.19562
 H466 H -0.10513 0.82339 -0.24991
 C467 C 0.30315 0.70202 0.41616
 C468 C 0.31308 0.69255 0.38187
 C469 C 0.32563 0.68057 0.34220
 C470 C 0.32704 0.64669 0.33401
 C471 C 0.34074 0.63467 0.29791
 C472 C 0.35330 0.65643 0.26952
 C473 C 0.35133 0.69052 0.27730
 C474 C 0.33760 0.70249 0.31346
 C475 C 0.36933 0.64342 0.23380
 C476 C 0.39116 0.65753 0.22826
 C477 C 0.40700 0.64370 0.19748
 C478 C 0.40124 0.61566 0.17172
 C479 C 0.37938 0.60192 0.17604
 C480 C 0.36350 0.61573 0.20683
 C481 C 0.41830 0.59978 0.14339
 C482 C 0.43299 0.58606 0.12123
 H483 H 0.31798 0.62949 0.35626
 H484 H 0.34215 0.60830 0.29331
 H485 H 0.36058 0.70789 0.25572
 H486 H 0.33666 0.72877 0.31956
 H487 H 0.39631 0.67854 0.24899
 H488 H 0.42393 0.65437 0.19468
 H489 H 0.37477 0.58016 0.15634
 H490 H 0.34675 0.60454 0.20991
 C491 C -0.19990 1.19701 0.41871
 C492 C -0.18981 1.18787 0.38438
 C493 C -0.17707 1.17632 0.34470
 C494 C -0.16531 1.19862 0.31620
 C495 C -0.15138 1.18710 0.28004
 C496 C -0.14902 1.15309 0.27201
 C497 C -0.16137 1.13095 0.30017
 C498 C -0.17526 1.14251 0.33628
 C499 C -0.13280 1.14059 0.23625
 C500 C -0.13829 1.11286 0.20904
 C501 C -0.12224 1.09957 0.17816
 C502 C -0.10054 1.11385 0.17396
 C503 C -0.09513 1.14193 0.19996
 C504 C -0.11114 1.15525 0.23085
 C505 C -0.08330 1.09850 0.14551
 C506 C -0.06846 1.08519 0.12324
 H507 H -0.16656 1.22485 0.32247
 H508 H -0.14231 1.20477 0.25863
 H509 H -0.15966 1.10463 0.29539
 H510 H -0.18416 1.12502 0.35835
 H511 H -0.15491 1.10126 0.21201
 H512 H -0.12660 1.07778 0.15828
 H513 H -0.07832 1.15303 0.19727
 H514 H -0.10625 1.17630 0.25174
 C515 C 0.69597 0.29149 0.41629
 C516 C 0.68588 0.30066 0.38202
 C517 C 0.67314 0.31224 0.34237
 C518 C 0.68199 0.33728 0.31407
 C519 C 0.66874 0.35042 0.27798
 C520 C 0.64643 0.33871 0.26983
 C521 C 0.63793 0.31296 0.29777
 C522 C 0.65120 0.29988 0.33381
 C523 C 0.63156 0.35442 0.23421
 C524 C 0.61661 0.33536 0.20680
 C525 C 0.60131 0.35050 0.17606
 C526 C 0.60079 0.38484 0.17224
 C527 C 0.61598 0.40395 0.19845
 C528 C 0.63129 0.38888 0.22918
 C529 C 0.58370 0.40063 0.14390
 C530 C 0.56898 0.41426 0.12171
 H531 H 0.69894 0.34707 0.32046
 H532 H 0.67585 0.36996 0.25673
 H533 H 0.62072 0.30373 0.29288
 H534 H 0.64412 0.28067 0.35573
 H535 H 0.61660 0.30877 0.20948
 H536 H 0.58959 0.33547 0.15599
 H537 H 0.61560 0.43057 0.19603
 H538 H 0.64232 0.40428 0.25025
 C539 C 0.19778 0.79551 0.41660
 C540 C 0.18747 0.80441 0.38245
 C541 C 0.17447 0.81570 0.34297
 C542 C 0.15251 0.80319 0.33507
 C543 C 0.13900 0.81601 0.29921
 C544 C 0.14727 0.84163 0.27076
 C545 C 0.16960 0.85350 0.27826
 C546 C 0.18309 0.84062 0.31418
 C547 C 0.13217 0.85705 0.23527
 C548 C 0.13181 0.89147 0.22976
 C549 C 0.11633 0.90627 0.19911
 C550 C 0.10105 0.88692 0.17346
 C551 C 0.10164 0.85261 0.17779
 C552 C 0.11712 0.83774 0.20844
 C553 C 0.08382 0.90244 0.14515
 C554 C 0.06899 0.91586 0.12298
 H555 H 0.14560 0.78407 0.35738
 H556 H 0.12178 0.80667 0.29484
 H557 H 0.17655 0.87294 0.25662
 H558 H 0.20006 0.85054 0.32005
 H559 H 0.14291 0.90706 0.25037
 H560 H 0.11589 0.93286 0.19630
 H561 H 0.08985 0.83739 0.15817
 H562 H 0.11717 0.81118 0.21151
   
