data_POSCAR
  _audit_creation_date              2014-09-24
  _audit_creation_method            'ToBaCCo'
  _symmetry_space_group_name_H-M    'P1'
  _symmetry_Int_Tables_number       1
  _symmetry_cell_setting            triclinic
  loop_
  _symmetry_equiv_pos_as_xyz
 x,y,z
_cell_length_a 57.0666
_cell_length_b 57.0623
_cell_length_c 54.9695
_cell_angle_alpha 89.991000
_cell_angle_beta 90.321400
_cell_angle_gamma 89.467500
loop_
  _atom_site_label
  _atom_site_type_symbol
  _atom_site_fract_x
  _atom_site_fract_y
  _atom_site_fract_z
C1 C 0.25380 0.49790 0.99874
 C2 C 0.74690 0.50187 0.00165
 C3 C 0.00210 0.24663 0.49884
 C4 C 0.99683 0.75372 0.50550
 C5 C 0.49981 0.00130 0.24934
 C6 C 0.49992 -0.00070 0.74911
 C7 C 0.28317 0.01183 0.47027
 H8 H 0.28321 0.02513 0.48430
 C9 C 0.29925 0.01290 0.45128
 H10 H 0.31143 0.02732 0.45063
 C11 C 0.26721 -0.02315 0.45426
 H12 H 0.25507 -0.03747 0.45576
 C13 C 0.28300 -0.02276 0.43493
 H14 H 0.28279 -0.03686 0.42175
 N15 N 0.26748 -0.00592 0.47136
 C16 C 0.21041 0.02079 0.51633
 H17 H 0.20973 0.00709 0.52990
 C18 C 0.19425 0.03929 0.51695
 H19 H 0.18107 0.03962 0.53103
 C20 C 0.22789 0.03634 0.48089
 H21 H 0.24077 0.03494 0.46664
 C22 C 0.21203 0.05515 0.48080
 H23 H 0.21323 0.06831 0.46669
 Zn24 Zn 0.24722 -0.00672 0.49851
 N25 N 0.22691 0.01972 0.49859
 C26 C 0.26464 0.00997 0.54393
 N27 N 0.26636 -0.00713 0.52677
 C28 C 0.28276 -0.02449 0.52863
 C29 C 0.29812 -0.02527 0.54847
 C30 C 0.27968 0.00987 0.56407
 C31 C 0.21245 -0.03496 0.47858
 C32 C 0.19697 -0.05369 0.47708
 C33 C 0.21371 -0.06922 0.51427
 C34 C 0.22890 -0.05017 0.51505
 N35 N 0.22806 -0.03357 0.49728
 H36 H 0.25184 0.02389 0.54191
 H37 H 0.28403 -0.03762 0.51448
 H38 H 0.31131 -0.03901 0.54935
 H39 H 0.27794 0.02354 0.57761
 H40 H 0.21196 -0.02135 0.46487
 H41 H 0.18482 -0.05455 0.46192
 H42 H 0.21430 -0.08199 0.52883
 H43 H 0.24101 -0.04846 0.53009
 C44 C 0.19490 0.05678 0.49899
 C45 C 0.29937 -0.00460 0.43331
 C46 C 0.19737 -0.07109 0.49517
 C47 C 0.29676 -0.00788 0.56650
 C48 C 0.71718 0.02177 0.53058
 H49 H 0.71676 0.03549 0.51699
 C50 C 0.70165 0.02258 0.55011
 H51 H 0.68920 0.03695 0.55134
 C52 C 0.73324 -0.01419 0.54473
 H53 H 0.74526 -0.02873 0.54237
 C54 C 0.71802 -0.01410 0.56453
 H55 H 0.71889 -0.02838 0.57748
 N56 N 0.73263 0.00363 0.52830
 C57 C 0.78885 0.02926 0.48218
 H58 H 0.78888 0.01578 0.46834
 C59 C 0.80540 0.04709 0.48146
 H60 H 0.81823 0.04713 0.46702
 C61 C 0.77264 0.04485 0.51839
 H62 H 0.76008 0.04372 0.53296
 C63 C 0.78892 0.06299 0.51840
 H64 H 0.78839 0.07594 0.53278
 Zn65 Zn 0.75199 0.00293 0.50043
 N66 N 0.77281 0.02854 0.50035
 C67 C 0.73384 0.02115 0.45582
 N68 N 0.73205 0.00394 0.47283
 C69 C 0.71524 -0.01272 0.47112
 C70 C 0.69968 -0.01281 0.45145
 C71 C 0.71860 0.02174 0.43585
 C72 C 0.78685 -0.02720 0.51820
 C73 C 0.80156 -0.04686 0.51886
 C74 C 0.78290 -0.06085 0.48214
 C75 C 0.76851 -0.04092 0.48220
 N76 N 0.77058 -0.02470 0.50020
 H77 H 0.74698 0.03452 0.45774
 H78 H 0.71394 -0.02593 0.48515
 H79 H 0.68628 -0.02610 0.45058
 H80 H 0.72048 0.03539 0.42233
 H81 H 0.78843 -0.01380 0.53202
 H82 H 0.81458 -0.04838 0.53319
 H83 H 0.78082 -0.07370 0.46781
 H84 H 0.75584 -0.03839 0.46775
 C85 C 0.80562 0.06425 0.49976
 C86 C 0.70187 0.00441 0.56736
 C87 C 0.79968 -0.06402 0.50066
 C88 C 0.70126 0.00456 0.43345
 C89 C 0.48676 0.21552 1.02689
 H90 H 0.47365 0.21422 1.01268
 C91 C 0.48648 0.19999 1.04650
 H92 H 0.47317 0.18661 1.04712
 C93 C 0.52052 0.23410 1.04276
 H94 H 0.53392 0.24722 1.04110
 C95 C 0.52092 0.21888 1.06268
 H96 H 0.53446 0.22077 1.07640
 N97 N 0.50345 0.23231 1.02550
 C98 C 0.47261 0.28723 0.98018
 H99 H 0.48605 0.28879 0.96648
 C100 C 0.45301 0.30203 0.97950
 H101 H 0.45158 0.31510 0.96527
 C102 C 0.45875 0.26885 1.01591
 H103 H 0.46121 0.25615 1.03028
 C104 C 0.43888 0.28332 1.01595
 H105 H 0.42600 0.28127 1.03016
 Zn106 Zn 0.50261 0.25226 0.99800
 N107 N 0.47503 0.27092 0.99807
 C108 C 0.48567 0.23358 0.95337
 N109 N 0.50339 0.23290 0.97002
 C110 C 0.52150 0.21739 0.96787
 C111 C 0.52238 0.20187 0.94824
 C112 C 0.48585 0.21838 0.93348
 C113 C 0.52898 0.28909 1.01669
 C114 C 0.54682 0.30563 1.01761
 C115 C 0.56278 0.28908 0.98073
 C116 C 0.54462 0.27282 0.98053
 N117 N 0.52827 0.27303 0.99844
 H118 H 0.47117 0.24565 0.95563
 H119 H 0.53513 0.21692 0.98162
 H120 H 0.53672 0.18938 0.94712
 H121 H 0.47165 0.21929 0.92035
 H122 H 0.51548 0.28915 1.03043
 H123 H 0.54684 0.31848 1.03210
 H124 H 0.57574 0.28852 0.96644
 H125 H 0.54350 0.26024 0.96590
 C126 C 0.43582 0.30019 0.99756
 C127 C 0.50370 0.20157 1.06476
 C128 C 0.56401 0.30581 0.99944
 C129 C 0.50431 0.20216 0.93077
 C130 C 0.47636 0.78389 -0.02846
 H131 H 0.46331 0.78476 -0.01428
 C132 C 0.47548 0.79980 -0.04772
 H133 H 0.46144 0.81267 -0.04842
 C134 C 0.51055 0.76600 -0.04457
 H135 H 0.52447 0.75313 -0.04301
 C136 C 0.51033 0.78159 -0.06419
 H137 H 0.52418 0.78053 -0.07754
 N138 N 0.49364 0.76735 -0.02727
 C139 C 0.46547 0.71265 0.01925
 H140 H 0.47921 0.71153 0.03286
 C141 C 0.44637 0.69761 0.02040
 H142 H 0.44563 0.68478 0.03489
 C143 C 0.45037 0.73015 -0.01673
 H144 H 0.45216 0.74261 -0.03137
 C145 C 0.43097 0.71542 -0.01630
 H146 H 0.41777 0.71703 -0.03044
 Zn147 Zn 0.49405 0.74761 0.00042
 N148 N 0.46705 0.72863 0.00100
 C149 C 0.47761 0.76699 0.04499
 N150 N 0.49490 0.76739 0.02806
 C151 C 0.51266 0.78304 0.02956
 C152 C 0.51362 0.79903 0.04874
 C153 C 0.47788 0.78268 0.06449
 C154 C 0.52158 0.71110 -0.01820
 C155 C 0.53999 0.69483 -0.01894
 C156 C 0.55557 0.71179 0.01795
 C157 C 0.53687 0.72776 0.01797
 N158 N 0.52041 0.72721 -0.00002
 H159 H 0.46329 0.75486 0.04316
 H160 H 0.52601 0.78320 0.01566
 H161 H 0.52801 0.81124 0.04967
 H162 H 0.46370 0.78242 0.07749
 H163 H 0.50801 0.71075 -0.03201
 H164 H 0.54038 0.68191 -0.03336
 H165 H 0.56859 0.71263 0.03232
 H166 H 0.53539 0.74035 0.03255
 C167 C 0.42879 0.69885 0.00244
 C168 C 0.49269 0.79887 -0.06588
 C169 C 0.55728 0.69498 -0.00065
 C170 C 0.49599 0.79909 0.06647
 C171 C 1.03357 0.48499 0.21413
 H172 H 1.02046 0.47144 0.21339
 C173 C 1.05271 0.48412 0.19844
 H174 H 1.05436 0.46962 0.18585
 C175 C 1.04722 0.52037 0.23150
 H176 H 1.04479 0.53474 0.24402
 C177 C 1.06663 0.52019 0.21614
 H178 H 1.07892 0.53450 0.21705
 N179 N 1.03128 0.50282 0.23037
 C180 C 0.98675 0.47547 0.28784
 H181 H 0.97326 0.48891 0.28821
 C182 C 0.98608 0.45688 0.30434
 H183 H 0.97205 0.45623 0.31748
 C184 C 1.02192 0.46062 0.27079
 H185 H 1.03605 0.46230 0.25795
 C186 C 1.02196 0.44175 0.28698
 H187 H 1.03593 0.42883 0.28605
 Zn188 Zn 1.00436 0.50320 0.25034
 N189 N 1.00436 0.47689 0.27136
 C190 C 0.96172 0.48557 0.23079
 N191 N 0.97784 0.50293 0.22949
 C192 C 0.97607 0.52010 0.21241
 C193 C 0.95728 0.52052 0.19604
 C194 C 0.94266 0.48529 0.21475
 C195 C 1.02152 0.53202 0.28711
 C196 C 1.02233 0.55125 0.30275
 C197 C 0.98709 0.56642 0.28364
 C198 C 0.98697 0.54686 0.26834
 N199 N 1.00415 0.53027 0.27021
 H200 H 0.96367 0.47178 0.24412
 H201 H 0.98939 0.53344 0.21147
 H202 H 0.95635 0.53420 0.18241
 H203 H 0.92986 0.47149 0.21627
 H204 H 1.03481 0.51843 0.28838
 H205 H 1.03651 0.55247 0.31583
 H206 H 0.97310 0.57928 0.28214
 H207 H 0.97298 0.54488 0.25521
 C208 C 1.00386 0.43970 0.30405
 C209 C 1.06955 0.50191 0.19930
 C210 C 1.00493 0.56877 0.30116
 C211 C 0.94025 0.50294 0.19707
 C212 C -0.02706 0.48130 0.78847
 H213 H -0.01413 0.46733 0.78810
 C214 C -0.04524 0.48073 0.80538
 H215 H -0.04611 0.46626 0.81807
 C216 C -0.04098 0.51764 0.77299
 H217 H -0.03907 0.53220 0.76065
 C218 C -0.05939 0.51778 0.78960
 H219 H -0.07177 0.53228 0.78944
 N220 N -0.02537 0.49948 0.77259
 C221 C 0.01589 0.47327 0.71160
 H222 H 0.02901 0.48681 0.71076
 C223 C 0.01617 0.45502 0.69472
 H224 H 0.02950 0.45475 0.68078
 C225 C -0.01782 0.45773 0.73044
 H226 H -0.03118 0.45898 0.74423
 C227 C -0.01822 0.43916 0.71387
 H228 H -0.03171 0.42603 0.71539
 Zn229 Zn 0.00042 0.49975 0.75104
 N230 N -0.00074 0.47415 0.72919
 C231 C 0.04411 0.48067 0.76701
 N232 N 0.02806 0.49817 0.77016
 C233 C 0.03097 0.51475 0.78765
 C234 C 0.05094 0.51451 0.80241
 C235 C 0.06433 0.47974 0.78140
 C236 C -0.01820 0.53045 0.71624
 C237 C -0.01940 0.55026 0.70139
 C238 C 0.01706 0.56338 0.71904
 C239 C 0.01756 0.54330 0.73357
 N240 N -0.00005 0.52745 0.73209
 H241 H 0.04127 0.46734 0.75339
 H242 H 0.01771 0.52821 0.79007
 H243 H 0.05284 0.52777 0.81635
 H244 H 0.07708 0.46589 0.77836
 H245 H -0.03181 0.51741 0.71522
 H246 H -0.03419 0.55249 0.68916
 H247 H 0.03139 0.57565 0.72023
 H248 H 0.03217 0.54032 0.74577
 C249 C -0.00099 0.43757 0.69578
 C250 C -0.06168 0.49918 0.80612
 C251 C -0.00159 0.56706 0.70267
 C252 C 0.06800 0.49687 0.79933
 C253 C 0.04666 0.19972 0.47804
 C254 C 0.05971 0.19551 0.49920
 C255 C 0.05436 0.20779 0.52048
 C256 C 0.03622 0.22443 0.52058
 C257 C 0.02341 0.22965 0.49910
 C258 C 0.02852 0.21633 0.47808
 C259 C 0.07808 0.17804 0.49926
 C260 C 0.09333 0.16327 0.49926
 C261 C 0.11102 0.14581 0.49923
 C262 C 0.12600 0.13076 0.49918
 C263 C 0.14369 0.11260 0.49909
 C264 C 0.15374 0.10490 0.52099
 C265 C 0.17053 0.08689 0.52096
 C266 C 0.17750 0.07632 0.49899
 C267 C 0.16741 0.08432 0.47705
 C268 C 0.15061 0.10232 0.47713
 H269 H 0.05032 0.18997 0.46156
 H270 H 0.06396 0.20423 0.53715
 H271 H 0.03198 0.23265 0.53773
 H272 H 0.01835 0.21881 0.46158
 H273 H 0.14854 0.11276 0.53809
 H274 H 0.17817 0.08133 0.53811
 H275 H 0.17215 0.07634 0.45988
 H276 H 0.14288 0.10808 0.46007
 C277 C 0.70001 0.54605 -0.02070
 C278 C 0.69559 0.55932 0.00017
 C279 C 0.70772 0.55424 0.02171
 C280 C 0.72441 0.53617 0.02237
 C281 C 0.72986 0.52314 0.00121
 C282 C 0.71668 0.52797 -0.02010
 C283 C 0.67806 0.57763 -0.00030
 C284 C 0.66327 0.59286 -0.00058
 C285 C 0.64581 0.61056 -0.00078
 C286 C 0.63078 0.62556 -0.00085
 C287 C 0.61268 0.64331 -0.00078
 C288 C 0.60214 0.64997 0.02111
 C289 C 0.58426 0.66688 0.02119
 C290 C 0.57664 0.67738 -0.00068
 C291 C 0.58744 0.67066 -0.02259
 C292 C 0.60534 0.65374 -0.02262
 H293 H 0.69037 0.54949 -0.03737
 H294 H 0.70399 0.56401 0.03816
 H295 H 0.73250 0.53215 0.03972
 H296 H 0.71932 0.51761 -0.03637
 H297 H 0.60761 0.64195 0.03810
 H298 H 0.57608 0.67142 0.03830
 H299 H 0.58218 0.67861 -0.03967
 H300 H 0.61340 0.64875 -0.03967
 C301 C 0.93605 -0.22070 0.48706
 C302 C 0.93313 -0.20330 0.50472
 C303 C 0.94996 -0.20068 0.52303
 C304 C 0.96999 -0.21487 0.52326
 C305 C 0.97393 -0.23170 0.50484
 C306 C 0.95611 -0.23499 0.48725
 C307 C 0.91338 -0.18748 0.50367
 C308 C 0.89738 -0.17357 0.50291
 C309 C 0.87929 -0.15657 0.50217
 C310 C 0.86434 -0.14153 0.50166
 C311 C 0.84708 -0.12299 0.50122
 C312 C 0.83710 -0.11508 0.52294
 C313 C 0.82141 -0.09612 0.52274
 C314 C 0.81552 -0.08481 0.50076
 C315 C 0.82537 -0.09315 0.47896
 C316 C 0.84107 -0.11209 0.47922
 H317 H 0.92290 -0.22311 0.47301
 H318 H 0.94779 -0.18739 0.53694
 H319 H 0.98291 -0.21228 0.53749
 H320 H 0.95734 -0.24847 0.47355
 H321 H 0.84166 -0.12337 0.54008
 H322 H 0.81388 -0.09031 0.53976
 H323 H 0.82142 -0.08463 0.46180
 H324 H 0.84883 -0.11798 0.46232
 C325 C 0.30084 0.45273 0.97999
 C326 C 0.29702 0.43424 0.99608
 C327 C 0.27833 0.43544 1.01237
 C328 C 0.26403 0.45546 1.01322
 C329 C 0.26870 0.47508 0.99833
 C330 C 0.28661 0.47273 0.98080
 C331 C 0.31280 0.41444 0.99625
 C332 C 0.32669 0.39840 0.99644
 C333 C 0.34364 0.38026 0.99669
 C334 C 0.35864 0.36526 0.99692
 C335 C 0.37712 0.34794 0.99721
 C336 C 0.38799 0.34173 1.01920
 C337 C 0.40685 0.32593 1.01937
 C338 C 0.41514 0.31617 0.99750
 C339 C 0.40388 0.32228 0.97553
 C340 C 0.38500 0.33807 0.97540
 H341 H 0.31501 0.45184 0.96698
 H342 H 0.27486 0.42093 1.02450
 H343 H 0.24930 0.45528 1.02548
 H344 H 0.28999 0.48681 0.96812
 H345 H 0.38213 0.34940 1.03616
 H346 H 0.41534 0.32183 1.03654
 H347 H 0.40966 0.31483 0.95844
 H348 H 0.37674 0.34279 0.95828
 C349 C 0.95759 0.20040 0.51941
 C350 C 0.94436 0.19674 0.49833
 C351 C 0.94972 0.20897 0.47708
 C352 C 0.96799 0.22512 0.47699
 C353 C 0.98089 0.22991 0.49845
 C354 C 0.97586 0.21652 0.51939
 C355 C 0.92564 0.18000 0.49836
 C356 C 0.91004 0.16590 0.49849
 C357 C 0.89189 0.14927 0.49871
 C358 C 0.87649 0.13495 0.49894
 C359 C 0.85828 0.11767 0.49923
 C360 C 0.84740 0.11090 0.47749
 C361 C 0.83011 0.09370 0.47768
 C362 C 0.82347 0.08303 0.49964
 C363 C 0.83438 0.09012 0.52142
 C364 C 0.85167 0.10731 0.52119
 H365 H 0.95391 0.19067 0.53586
 H366 H 0.93997 0.20581 0.46045
 H367 H 0.97219 0.23337 0.45988
 H368 H 0.98610 0.21866 0.53586
 H369 H 0.85235 0.11884 0.46039
 H370 H 0.82185 0.08884 0.46066
 H371 H 0.82989 0.08202 0.53857
 H372 H 0.86004 0.11236 0.53811
 C373 C 0.27274 0.56271 -0.00140
 C374 C 0.29648 0.56101 0.00476
 C375 C 0.30638 0.53915 0.01019
 C376 C 0.29289 0.51893 0.00860
 C377 C 0.26927 0.52001 0.00066
 C378 C 0.25916 0.54248 -0.00296
 C379 C 0.31103 0.58147 0.00517
 C380 C 0.32399 0.59802 0.00524
 C381 C 0.34000 0.61672 0.00504
 C382 C 0.35427 0.63215 0.00466
 C383 C 0.37197 0.64993 0.00400
 C384 C 0.38218 0.65608 -0.01816
 C385 C 0.40039 0.67227 -0.01873
 C386 C 0.40870 0.68250 0.00292
 C387 C 0.39807 0.67647 0.02508
 C388 C 0.37984 0.66028 0.02560
 H389 H 0.26474 0.57963 -0.00514
 H390 H 0.32461 0.53769 0.01565
 H391 H 0.30114 0.50257 0.01388
 H392 H 0.24076 0.54428 -0.00756
 H393 H 0.37633 0.64804 -0.03496
 H394 H 0.40841 0.67628 -0.03602
 H395 H 0.40387 0.68427 0.04200
 H396 H 0.37209 0.65561 0.04286
 C397 C 0.06161 -0.22786 0.50257
 C398 C 0.05983 -0.20379 0.49812
 C399 C 0.03779 -0.19336 0.49506
 C400 C 0.01753 -0.20669 0.49714
 C401 C 0.01882 -0.23081 0.50302
 C402 C 0.04132 -0.24130 0.50462
 C403 C 0.08039 -0.18943 0.49692
 C404 C 0.09689 -0.17642 0.49610
 C405 C 0.11535 -0.16017 0.49532
 C406 C 0.13041 -0.14551 0.49478
 C407 C 0.14755 -0.12718 0.49424
 C408 C 0.14068 -0.10452 0.48740
 C409 C 0.15692 -0.08636 0.48752
 C410 C 0.18033 -0.09060 0.49452
 C411 C 0.18713 -0.11350 0.50126
 C412 C 0.17082 -0.13167 0.50111
 H413 H 0.07863 -0.23622 0.50458
 H414 H 0.03623 -0.17481 0.49104
 H415 H 0.00103 -0.19784 0.49376
 H416 H 0.04312 -0.25993 0.50797
 H417 H 0.12268 -0.10082 0.48220
 H418 H 0.15102 -0.06889 0.48263
 H419 H 0.20507 -0.11737 0.50648
 H420 H 0.17632 -0.14915 0.50646
 C421 C 0.70925 0.44937 0.98039
 C422 C 0.69696 0.44416 1.00159
 C423 C 0.70065 0.45748 1.02257
 C424 C 0.71683 0.47570 1.02245
 C425 C 0.73025 0.48061 1.00154
 C426 C 0.72545 0.46759 0.98021
 C427 C 0.68009 0.42556 1.00158
 C428 C 0.66589 0.41004 1.00146
 C429 C 0.64918 0.39197 1.00119
 C430 C 0.63479 0.37663 1.00089
 C431 C 0.61746 0.35846 1.00047
 C432 C 0.61064 0.34767 1.02213
 C433 C 0.59342 0.33040 1.02179
 C434 C 0.58278 0.32368 0.99974
 C435 C 0.58990 0.33451 0.97803
 C436 C 0.60711 0.35179 0.97842
 H437 H 0.70607 0.43957 0.96384
 H438 H 0.69087 0.45392 1.03897
 H439 H 0.71896 0.48606 1.03880
 H440 H 0.73370 0.47168 0.96310
 H441 H 0.61857 0.35266 1.03929
 H442 H 0.58854 0.32219 1.03876
 H443 H 0.58183 0.32998 0.96082
 H444 H 0.61220 0.36009 0.96155
 C445 C 0.48733 0.06405 1.22455
 C446 C 0.50324 0.06508 1.20534
 C447 C 0.51862 0.04634 1.20127
 C448 C 0.51753 0.02630 1.21574
 C449 C 0.50048 0.02416 1.23416
 C450 C 0.48621 0.04398 1.23911
 C451 C 0.50347 0.08501 1.18929
 C452 C 0.50366 0.10117 1.17517
 C453 C 0.50384 0.11951 1.15795
 C454 C 0.50396 0.13471 1.14273
 C455 C 0.50401 0.15236 1.12401
 C456 C 0.52513 0.15916 1.11344
 C457 C 0.52509 0.17541 1.09438
 C458 C 0.50387 0.18500 1.08561
 C459 C 0.48275 0.17826 1.09658
 C460 C 0.48284 0.16204 1.11564
 H461 H 0.47573 0.07874 1.22824
 H462 H 0.53131 0.04708 1.18671
 H463 H 0.52968 0.01203 1.21216
 H464 H 0.47425 0.04429 1.25426
 H465 H 0.54161 0.15166 1.11967
 H466 H 0.54160 0.18000 1.08613
 H467 H 0.46616 0.18557 1.09045
 H468 H 0.46638 0.15688 1.12368
 C469 C -0.02187 0.70926 0.55396
 C470 C -0.00515 0.71229 0.57229
 C471 C 0.01138 0.73011 0.57026
 C472 C 0.01186 0.74418 0.54940
 C473 C -0.00378 0.74011 0.52982
 C474 C -0.02140 0.72321 0.53315
 C475 C -0.00435 0.69613 0.59237
 C476 C -0.00384 0.68160 0.60827
 C477 C -0.00341 0.66359 0.62584
 C478 C -0.00318 0.64748 0.64002
 C479 C -0.00305 0.62754 0.65603
 C480 C 0.00419 0.62973 0.68028
 C481 C 0.00461 0.61009 0.69553
 C482 C -0.00224 0.58802 0.68667
 C483 C -0.00954 0.58606 0.66228
 C484 C -0.00993 0.60569 0.64709
 H485 H -0.03500 0.69575 0.55549
 H486 H 0.02413 0.73291 0.58462
 H487 H 0.02460 0.75803 0.54881
 H488 H -0.03451 0.72034 0.51916
 H489 H 0.00954 0.64657 0.68738
 H490 H 0.01006 0.61220 0.71429
 H491 H -0.01457 0.56928 0.65481
 H492 H -0.01546 0.60378 0.62831
 C493 C 0.50039 0.93475 -0.22963
 C494 C 0.49482 0.93683 -0.20499
 C495 C 0.48991 0.95890 -0.19521
 C496 C 0.49130 0.97892 -0.20970
 C497 C 0.49849 0.97743 -0.23426
 C498 C 0.50178 0.95479 -0.24422
 C499 C 0.49421 0.91654 -0.18945
 C500 C 0.49380 0.90019 -0.17555
 C501 C 0.49340 0.88181 -0.15838
 C502 C 0.49309 0.86673 -0.14302
 C503 C 0.49271 0.84946 -0.12392
 C504 C 0.48694 0.85632 -0.10025
 C505 C 0.48686 0.83987 -0.08144
 C506 C 0.49257 0.81624 -0.08602
 C507 C 0.49833 0.80948 -0.10990
 C508 C 0.49839 0.82601 -0.12873
 H509 H 0.50374 0.91767 -0.23756
 H510 H 0.48491 0.96067 -0.17630
 H511 H 0.48642 0.99544 -0.20149
 H512 H 0.50587 0.95268 -0.26331
 H513 H 0.48264 0.87446 -0.09629
 H514 H 0.48273 0.84572 -0.06321
 H515 H 0.50257 0.79139 -0.11406
 H516 H 0.50288 0.82050 -0.14699
 C517 C 1.02288 0.28556 0.44541
 C518 C 1.00241 0.29816 0.43991
 C519 C 0.98201 0.29400 0.45310
 C520 C 0.98202 0.27719 0.47156
 C521 C 1.00226 0.26361 0.47686
 C522 C 1.02294 0.26871 0.46388
 C523 C 1.00257 0.31600 0.42140
 C524 C 1.00272 0.33112 0.40608
 C525 C 1.00290 0.34901 0.38834
 C526 C 1.00308 0.36444 0.37336
 C527 C 1.00332 0.38302 0.35565
 C528 C 0.98240 0.39058 0.34464
 C529 C 0.98257 0.40892 0.32777
 C530 C 1.00370 0.41997 0.32169
 C531 C 1.02465 0.41215 0.33277
 C532 C 1.02443 0.39382 0.34964
 H533 H 1.03895 0.28908 0.43573
 H534 H 0.96617 0.30400 0.44935
 H535 H 0.96612 0.27481 0.48191
 H536 H 1.03946 0.26030 0.46831
 H537 H 0.96596 0.38232 0.34913
 H538 H 0.96621 0.41433 0.31933
 H539 H 1.04114 0.42049 0.32874
 H540 H 1.04071 0.38817 0.35813
 C541 C 0.48915 0.96037 0.19412
 C542 C 0.49435 0.93842 0.20409
 C543 C 0.50011 0.93656 0.22877
 C544 C 0.50149 0.95672 0.24318
 C545 C 0.49804 0.97927 0.23298
 C546 C 0.49055 0.98051 0.20843
 C547 C 0.49410 0.91804 0.18867
 C548 C 0.49413 0.90159 0.17491
 C549 C 0.49441 0.88306 0.15790
 C550 C 0.49480 0.86783 0.14271
 C551 C 0.49541 0.85034 0.12385
 C552 C 0.48913 0.82717 0.12877
 C553 C 0.48943 0.81042 0.11018
 C554 C 0.49607 0.81665 0.08642
 C555 C 0.50244 0.83998 0.08174
 C556 C 0.50211 0.85667 0.10032
 H557 H 0.48402 0.96196 0.17517
 H558 H 0.50370 0.91958 0.23685
 H559 H 0.50581 0.95480 0.26228
 H560 H 0.48552 0.99695 0.20006
 H561 H 0.48395 0.82207 0.14693
 H562 H 0.48467 0.79256 0.11441
 H563 H 0.50726 0.84544 0.06359
 H564 H 0.50691 0.87457 0.09628
 C565 C 0.02171 0.29333 0.54513
 C566 C 0.00122 0.29761 0.55826
 C567 C -0.01914 0.28532 0.55253
 C568 C -0.01902 0.26867 0.53390
 C569 C 0.00176 0.26342 0.52097
 C570 C 0.02190 0.27670 0.52649
 C571 C 0.00083 0.31524 0.57697
 C572 C 0.00045 0.33017 0.59249
 C573 C 0.00000 0.34782 0.61047
 C574 C -0.00033 0.36304 0.62568
 C575 C -0.00059 0.38138 0.64365
 C576 C -0.02183 0.39165 0.65078
 C577 C -0.02202 0.40981 0.66787
 C578 C -0.00091 0.41797 0.67801
 C579 C 0.02033 0.40740 0.67083
 C580 C 0.02047 0.38924 0.65377
 H581 H 0.03747 0.30310 0.54906
 H582 H -0.03529 0.28894 0.56217
 H583 H -0.03547 0.26051 0.52930
 H584 H 0.03785 0.27421 0.51619
 H585 H -0.03823 0.38575 0.64299
 H586 H -0.03862 0.41777 0.67279
 H587 H 0.03684 0.41306 0.67855
 H588 H 0.03701 0.38139 0.64841
 C589 C 0.51939 0.04488 0.79657
 C590 C 0.50390 0.06354 0.79237
 C591 C 0.48769 0.06227 0.77327
 C592 C 0.48638 0.04205 0.75895
 C593 C 0.50079 0.02231 0.76404
 C594 C 0.51813 0.02469 0.78233
 C595 C 0.50428 0.08362 0.80821
 C596 C 0.50453 0.09994 0.82213
 C597 C 0.50472 0.11850 0.83910
 C598 C 0.50473 0.13390 0.85411
 C599 C 0.50455 0.15180 0.87256
 C600 C 0.48357 0.15778 0.88414
 C601 C 0.48345 0.17435 0.90286
 C602 C 0.50436 0.18516 0.91030
 C603 C 0.52535 0.17921 0.89836
 C604 C 0.52542 0.16262 0.87962
 H605 H 0.53231 0.04581 0.81105
 H606 H 0.47597 0.07688 0.76947
 H607 H 0.47417 0.04216 0.74386
 H608 H 0.53037 0.01049 0.78601
 H609 H 0.46734 0.14940 0.87894
 H610 H 0.46707 0.17828 0.91191
 H611 H 0.54168 0.18742 0.90347
 H612 H 0.54178 0.15810 0.87079
 C613 C 1.00113 0.69504 0.46238
 C614 C 1.00203 0.70637 0.43973
 C615 C 1.00175 0.73090 0.43757
 C616 C 1.00024 0.74536 0.45797
 C617 C 0.99855 0.73441 0.48272
 C618 C 0.99950 0.70709 0.48431
 C619 C 1.00307 0.69193 0.41829
 C620 C 1.00374 0.67861 0.40130
 C621 C 1.00434 0.66176 0.38253
 C622 C 1.00476 0.64647 0.36742
 C623 C 1.00521 0.62727 0.35046
 C624 C 0.99920 0.63072 0.32599
 C625 C 0.99915 0.61173 0.30988
 C626 C 1.00514 0.58907 0.31807
 C627 C 1.01120 0.58585 0.34270
 C628 C 1.01123 0.60481 0.35874
 H629 H 1.00162 0.67608 0.46314
 H630 H 1.00260 0.73892 0.41974
 H631 H 0.99993 0.76421 0.45574
 H632 H 0.99869 0.72198 0.48709
 H633 H 0.99449 0.64804 0.31940
 H634 H 0.99465 0.61481 0.29097
 H635 H 1.01553 0.56859 0.34967
 H636 H 1.01577 0.60192 0.37768
 C637 C 1.19953 0.50834 0.03958
 C638 C 1.20869 0.50352 0.06266
 C639 C 1.23252 0.49816 0.06535
 C640 C 1.24691 0.49677 0.04486
 C641 C 1.23755 0.49975 0.02117
 C642 C 1.21381 0.50691 0.01913
 C643 C 1.19326 0.50369 0.08326
 C644 C 1.17937 0.50359 0.09969
 C645 C 1.16214 0.50326 0.11798
 C646 C 1.14673 0.50283 0.13287
 C647 C 1.12762 0.50220 0.14981
 C648 C 1.13097 0.50876 0.17410
 C649 C 1.11214 0.50853 0.19029
 C650 C 1.08971 0.50172 0.18234
 C651 C 1.08660 0.49505 0.15791
 C652 C 1.10542 0.49530 0.14179
 H653 H 1.18123 0.51317 0.03736
 H654 H 1.23993 0.49488 0.08323
 H655 H 1.26534 0.49276 0.04742
 H656 H 1.20605 0.51165 0.00182
 H657 H 1.14810 0.51411 0.18051
 H658 H 1.11515 0.51351 0.20905
 H659 H 1.06950 0.49006 0.15113
 H660 H 1.10262 0.49029 0.12299
 C661 C 0.56269 -0.01270 0.72461
 C662 C 0.56361 0.00329 0.70538
 C663 C 0.54474 0.01852 0.70114
 C664 C 0.52470 0.01723 0.71550
 C665 C 0.52271 0.00012 0.73396
 C666 C 0.54263 -0.01403 0.73905
 C667 C 0.58358 0.00376 0.68951
 C668 C 0.59981 0.00410 0.67559
 C669 C 0.61829 0.00438 0.65864
 C670 C 0.63365 0.00448 0.64367
 C671 C 0.65151 0.00439 0.62528
 C672 C 0.66238 0.02528 0.61855
 C673 C 0.67896 0.02529 0.59990
 C674 C 0.68485 0.00437 0.58772
 C675 C 0.67397 -0.01657 0.59481
 C676 C 0.65742 -0.01653 0.61344
 H677 H 0.57747 -0.02420 0.72843
 H678 H 0.54539 0.03127 0.68656
 H679 H 0.51035 0.02929 0.71181
 H680 H 0.54303 -0.02604 0.75424
 H681 H 0.65792 0.04158 0.62758
 H682 H 0.68722 0.04163 0.59506
 H683 H 0.67785 -0.03289 0.58557
 H684 H 0.64899 -0.03278 0.61839
 C685 C -0.20562 0.48085 0.95693
 C686 C -0.20145 0.50093 0.94316
 C687 C -0.21402 0.52154 0.94798
 C688 C -0.23088 0.52202 0.96633
 C689 C -0.23601 0.50163 0.97987
 C690 C -0.22244 0.48127 0.97528
 C691 C -0.18367 0.50060 0.92469
 C692 C -0.16862 0.50028 0.90938
 C693 C -0.15084 0.49990 0.89164
 C694 C -0.13554 0.49965 0.87661
 C695 C -0.11714 0.49950 0.85880
 C696 C -0.10545 0.52025 0.85325
 C697 C -0.08745 0.52016 0.83611
 C698 C -0.08088 0.49926 0.82427
 C699 C -0.09273 0.47847 0.82999
 C700 C -0.11075 0.47861 0.84713
 H701 H -0.19565 0.46491 0.95371
 H702 H -0.21049 0.53738 0.93783
 H703 H -0.23931 0.53863 0.97021
 H704 H -0.22486 0.46561 0.98606
 H705 H -0.11018 0.53650 0.86225
 H706 H -0.07845 0.53638 0.83239
 H707 H -0.08827 0.46217 0.82099
 H708 H -0.11971 0.46245 0.85127
 C709 C 0.45967 -0.00897 0.30498
 C710 C 0.43756 -0.00401 0.29517
 C711 C 0.43535 0.00157 0.27049
 C712 C 0.45531 0.00296 0.25592
 C713 C 0.47800 -0.00030 0.26592
 C714 C 0.47961 -0.00756 0.29050
 C715 C 0.41736 -0.00444 0.31073
 C716 C 0.40109 -0.00461 0.32462
 C717 C 0.38275 -0.00462 0.34174
 C718 C 0.36766 -0.00450 0.35701
 C719 C 0.35031 -0.00425 0.37592
 C720 C 0.32716 -0.01064 0.37090
 C721 C 0.31052 -0.01066 0.38951
 C722 C 0.31685 -0.00426 0.41338
 C723 C 0.34016 0.00220 0.41817
 C724 C 0.35674 0.00220 0.39957
 H725 H 0.46153 -0.01397 0.32392
 H726 H 0.41824 0.00496 0.26254
 H727 H 0.45312 0.00709 0.23681
 H728 H 0.49617 -0.01245 0.29875
 H729 H 0.32198 -0.01563 0.35265
 H730 H 0.29266 -0.01547 0.38519
 H731 H 0.34569 0.00686 0.43640
 H732 H 0.37463 0.00707 0.40368
 C733 C 0.20823 0.47802 0.95141
 C734 C 0.21163 0.49366 0.93225
 C735 C 0.22990 0.50978 0.93347
 C736 C 0.24405 0.51099 0.95429
 C737 C 0.23959 0.49664 0.97470
 C738 C 0.22228 0.47921 0.97220
 C739 C 0.19556 0.49378 0.91200
 C740 C 0.18125 0.49397 0.89580
 C741 C 0.16366 0.49426 0.87767
 C742 C 0.14803 0.49457 0.86284
 C743 C 0.12877 0.49502 0.84585
 C744 C 0.12044 0.51641 0.83665
 C745 C 0.10084 0.51700 0.82130
 C746 C 0.08928 0.49617 0.81497
 C747 C 0.09799 0.47472 0.82406
 C748 C 0.11759 0.47418 0.83942
 H749 H 0.19437 0.46518 0.95051
 H750 H 0.23305 0.52160 0.91844
 H751 H 0.25838 0.52322 0.95417
 H752 H 0.21909 0.46701 0.98688
 H753 H 0.12894 0.53265 0.84156
 H754 H 0.09474 0.53374 0.81434
 H755 H 0.08931 0.45843 0.81978
 H756 H 0.12379 0.45754 0.84660
 C757 C 0.56284 -0.01086 0.27375
 C758 C 0.56408 0.00521 0.29289
 C759 C 0.54540 0.02067 0.29697
 C760 C 0.52521 0.01946 0.28261
 C761 C 0.52286 0.00220 0.26432
 C762 C 0.54263 -0.01211 0.25931
 C763 C 0.58411 0.00547 0.30890
 C764 C 0.60036 0.00561 0.32300
 C765 C 0.61881 0.00569 0.34020
 C766 C 0.63410 0.00566 0.35541
 C767 C 0.65184 0.00551 0.37412
 C768 C 0.65872 0.02653 0.38504
 C769 C 0.67503 0.02628 0.40412
 C770 C 0.68463 0.00495 0.41257
 C771 C 0.67782 -0.01605 0.40125
 C772 C 0.66152 -0.01575 0.38217
 H773 H 0.57748 -0.02253 0.27004
 H774 H 0.54630 0.03349 0.31148
 H775 H 0.51099 0.03164 0.28622
 H776 H 0.54277 -0.02423 0.24422
 H777 H 0.65121 0.04308 0.37906
 H778 H 0.67969 0.04270 0.41264
 H779 H 0.68512 -0.03270 0.40713
 H780 H 0.65630 -0.03212 0.37387
 C781 C 0.79344 0.52264 0.04767
 C782 C 0.79787 0.50244 0.06135
 C783 C 0.78565 0.48191 0.05617
 C784 C 0.76893 0.48158 0.03749
 C785 C 0.76359 0.50205 0.02395
 C786 C 0.77675 0.52237 0.02899
 C787 C 0.81570 0.50251 0.07999
 C788 C 0.83084 0.50257 0.09537
 C789 C 0.84880 0.50263 0.11314
 C790 C 0.86431 0.50267 0.12812
 C791 C 0.88303 0.50270 0.14579
 C792 C 0.89404 0.48164 0.15249
 C793 C 0.91255 0.48168 0.16927
 C794 C 0.92031 0.50284 0.17957
 C795 C 0.90903 0.52391 0.17280
 C796 C 0.89052 0.52382 0.15603
 H797 H 0.80314 0.53853 0.05117
 H798 H 0.78939 0.46598 0.06625
 H799 H 0.76084 0.46500 0.03332
 H800 H 0.77418 0.53810 0.01824
 H801 H 0.88846 0.46520 0.14459
 H802 H 0.92106 0.46522 0.17383
 H803 H 0.91440 0.54044 0.18063
 H804 H 0.88209 0.54023 0.15100
 C805 C 0.43507 -0.00091 0.72856
 C806 C 0.43681 -0.00673 0.70393
 C807 C 0.45875 -0.01164 0.69394
 C808 C 0.47897 -0.00997 0.70821
 C809 C 0.47782 -0.00252 0.73273
 C810 C 0.45531 0.00074 0.74292
 C811 C 0.41627 -0.00746 0.68863
 C812 C 0.39961 -0.00787 0.67505
 C813 C 0.38071 -0.00811 0.65836
 C814 C 0.36507 -0.00815 0.64353
 C815 C 0.34695 -0.00801 0.62520
 C816 C 0.33993 0.01314 0.61437
 C817 C 0.32334 0.01323 0.59557
 C818 C 0.31355 -0.00788 0.58727
 C819 C 0.32047 -0.02903 0.59851
 C820 C 0.33706 -0.02907 0.61734
 H821 H 0.41810 0.00245 0.73666
 H822 H 0.46025 -0.01680 0.67504
 H823 H 0.49541 -0.01483 0.69985
 H824 H 0.45347 0.00504 0.76200
 H825 H 0.34759 0.02953 0.62019
 H826 H 0.31866 0.02976 0.58708
 H827 H 0.31305 -0.04553 0.59275
 H828 H 0.34238 -0.04555 0.62556
   
