data_POSCAR
  _audit_creation_date              2014-09-24
  _audit_creation_method            'ToBaCCo'
  _symmetry_space_group_name_H-M    'P1'
  _symmetry_Int_Tables_number       1
  _symmetry_cell_setting            triclinic
  loop_
  _symmetry_equiv_pos_as_xyz
 x,y,z
_cell_length_a 33.1424
_cell_length_b 25.9765
_cell_length_c 13.7156
_cell_angle_alpha 91.192400
_cell_angle_beta 87.012200
_cell_angle_gamma 90.933000
loop_
  _atom_site_label
  _atom_site_type_symbol
  _atom_site_fract_x
  _atom_site_fract_y
  _atom_site_fract_z
C1 C 0.76290 0.28773 0.48171
 C2 C 0.75635 0.28262 0.57991
 C3 C 0.71586 0.29158 0.62854
 C4 C 0.78774 0.26045 0.63911
 C5 C 0.79479 0.25753 0.42711
 C6 C 0.73507 0.31822 0.42542
 C7 C 0.71200 0.31958 0.71706
 C8 C 0.67442 0.32278 0.76807
 C9 C 0.64043 0.29781 0.73128
 C10 C 0.64392 0.27096 0.64191
 C11 C 0.68139 0.26766 0.59106
 C12 C 0.82622 0.28376 0.64131
 C13 C 0.85725 0.25961 0.68733
 C14 C 0.85050 0.21132 0.72905
 C15 C 0.81160 0.18889 0.73018
 C16 C 0.78026 0.21375 0.68688
 C17 C 0.79679 0.20419 0.44083
 C18 C 0.82737 0.17549 0.39375
 C19 C 0.85561 0.19895 0.32921
 C20 C 0.85283 0.25189 0.31141
 C21 C 0.82250 0.28106 0.36037
 C22 C 0.71526 0.29529 0.34733
 C23 C 0.68467 0.32146 0.30372
 C24 C 0.67407 0.37133 0.33661
 C25 C 0.69554 0.39536 0.41043
 C26 C 0.72573 0.36894 0.45502
 H27 H 0.73826 0.33771 0.74778
 H28 H 0.67221 0.34289 0.83813
 H29 H 0.61808 0.25054 0.61380
 H30 H 0.68383 0.24447 0.52456
 H31 H 0.83241 0.31992 0.60514
 H32 H 0.88706 0.27732 0.68636
 H33 H 0.75076 0.19523 0.68589
 H34 H 0.77472 0.18475 0.48863
 H35 H 0.82896 0.13464 0.40707
 H36 H 0.87439 0.27069 0.26138
 H37 H 0.82104 0.32197 0.34754
 H38 H 0.72202 0.25621 0.32354
 H39 H 0.66873 0.30234 0.24599
 H40 H 0.68778 0.43385 0.43598
 H41 H 0.74095 0.38737 0.51473
 H42 H 0.80571 0.15182 0.76312
 C43 C 0.25683 0.76300 0.44746
 C44 C 0.25523 0.75806 0.54616
 C45 C 0.22165 0.78008 0.60769
 C46 C 0.28757 0.73216 0.59612
 C47 C 0.28765 0.73614 0.38381
 C48 C 0.22609 0.79277 0.39942
 C49 C 0.22241 0.83248 0.63398
 C50 C 0.18855 0.85493 0.68115
 C51 C 0.15423 0.82496 0.70597
 C52 C 0.15413 0.77191 0.68407
 C53 C 0.18759 0.74969 0.63410
 C54 C 0.32574 0.75587 0.60139
 C55 C 0.35706 0.73046 0.64392
 C56 C 0.35095 0.68064 0.67940
 C57 C 0.31257 0.65707 0.67519
 C58 C 0.28093 0.68302 0.63499
 C59 C 0.29168 0.68264 0.38946
 C60 C 0.32300 0.65776 0.33695
 C61 C 0.34991 0.68546 0.27536
 C62 C 0.34463 0.73853 0.26450
 C63 C 0.31357 0.76379 0.31877
 C64 C 0.19407 0.76708 0.35540
 C65 C 0.16349 0.79513 0.31560
 C66 C 0.16459 0.84933 0.31967
 C67 C 0.19705 0.87482 0.36204
 C68 C 0.22783 0.84677 0.40094
 H69 H 0.24860 0.85630 0.61457
 H70 H 0.18883 0.89590 0.69743
 H71 H 0.12764 0.74830 0.70168
 H72 H 0.18647 0.70925 0.61350
 H73 H 0.33128 0.79384 0.57186
 H74 H 0.38643 0.74911 0.64719
 H75 H 0.25169 0.66412 0.63128
 H76 H 0.27112 0.66030 0.43635
 H77 H 0.32675 0.61677 0.34539
 H78 H 0.36532 0.76058 0.21743
 H79 H 0.31059 0.80503 0.31259
 H80 H 0.19241 0.72540 0.35369
 H81 H 0.13873 0.77451 0.28323
 H82 H 0.19836 0.91650 0.36528
 H83 H 0.25268 0.86708 0.43368
 H84 H 0.30709 0.61878 0.70312
 C85 C 0.23357 0.25700 -0.45976
 C86 C 0.24090 0.26691 -0.55668
 C87 C 0.27086 0.30712 -0.58909
 C88 C 0.22189 0.23476 -0.63359
 C89 C 0.21122 0.20994 -0.42808
 C90 C 0.25160 0.28883 -0.38119
 C91 C 0.25873 0.34910 -0.64279
 C92 C 0.28570 0.39008 -0.66299
 C93 C 0.32512 0.38907 -0.63077
 C94 C 0.33790 0.34611 -0.58147
 C95 C 0.31104 0.30521 -0.56124
 C96 C 0.17981 0.22586 -0.63097
 C97 C 0.16292 0.19000 -0.69539
 C98 C 0.18782 0.16316 -0.76388
 C99 C 0.22945 0.17363 -0.76982
 C100 C 0.24639 0.20932 -0.70537
 C101 C 0.22543 0.16120 -0.45805
 C102 C 0.20445 0.11687 -0.42819
 C103 C 0.16945 0.12083 -0.36721
 C104 C 0.15567 0.16921 -0.33495
 C105 C 0.17669 0.21372 -0.36480
 C106 C 0.27246 0.26467 -0.30850
 C107 C 0.29437 0.29389 -0.24244
 C108 C 0.29603 0.34771 -0.24876
 C109 C 0.27293 0.37203 -0.31634
 C110 C 0.25014 0.34287 -0.38088
 H111 H 0.22796 0.35112 -0.66525
 H112 H 0.27552 0.42311 -0.70133
 H113 H 0.36834 0.34486 -0.55646
 H114 H 0.32110 0.27283 -0.52086
 H115 H 0.16027 0.24548 -0.57696
 H116 H 0.13064 0.18245 -0.69052
 H117 H 0.27883 0.21544 -0.70877
 H118 H 0.25260 0.15762 -0.50496
 H119 H 0.21517 0.07951 -0.45357
 H120 H 0.12847 0.17248 -0.28805
 H121 H 0.16574 0.25107 -0.34006
 H122 H 0.27377 0.22308 -0.30635
 H123 H 0.31237 0.27431 -0.19144
 H124 H 0.27414 0.41354 -0.32210
 H125 H 0.23316 0.36242 -0.43397
 H126 H 0.24897 0.15322 -0.82281
 C127 C -0.25020 0.71678 -0.46154
 C128 C -0.24693 0.73236 -0.55631
 C129 C -0.22417 0.77999 -0.58564
 C130 C -0.26685 0.70258 -0.63477
 C131 C -0.27753 0.67346 -0.43229
 C132 C -0.22675 0.74150 -0.38303
 C133 C -0.23253 0.82735 -0.53818
 C134 C -0.20950 0.87128 -0.56212
 C135 C -0.17810 0.86871 -0.63440
 C136 C -0.17041 0.82205 -0.68439
 C137 C -0.19353 0.77796 -0.66058
 C138 C -0.29456 0.72671 -0.69214
 C139 C -0.31424 0.69865 -0.76421
 C140 C -0.30631 0.64626 -0.78007
 C141 C -0.27847 0.62203 -0.72367
 C142 C -0.25875 0.65005 -0.65154
 C143 C -0.26188 0.62990 -0.38958
 C144 C -0.28710 0.58776 -0.36687
 C145 C -0.32813 0.58917 -0.38581
 C146 C -0.34414 0.63311 -0.42552
 C147 C -0.31899 0.67523 -0.44829
 C148 C -0.18517 0.75150 -0.39783
 C149 C -0.16402 0.77759 -0.32631
 C150 C -0.18365 0.79250 -0.23716
 C151 C -0.22435 0.77918 -0.21892
 C152 C -0.24590 0.75417 -0.29175
 H153 H -0.25643 0.83005 -0.48145
 H154 H -0.21570 0.90717 -0.52296
 H155 H -0.14615 0.81955 -0.74027
 H156 H -0.18676 0.74190 -0.69851
 H157 H -0.30117 0.76714 -0.68050
 H158 H -0.33523 0.71794 -0.80859
 H159 H -0.23705 0.63089 -0.60899
 H160 H -0.23001 0.62808 -0.37633
 H161 H -0.27456 0.55383 -0.33609
 H162 H -0.37592 0.63445 -0.44008
 H163 H -0.33164 0.70889 -0.47976
 H164 H -0.16921 0.74007 -0.46551
 H165 H -0.13231 0.78679 -0.34081
 H166 H -0.23979 0.79032 -0.15040
 H167 H -0.27780 0.74595 -0.27784
 H168 H -0.27154 0.58177 -0.73656
 N169 N 0.04932 1.05842 -0.15667
 N170 N 0.08474 1.07479 -0.19407
 N171 N -0.04365 1.04815 -0.17505
 N172 N -0.07628 1.05782 -0.22226
 N173 N -0.03147 1.08937 -0.12719
 N174 N -0.05517 1.12865 -0.14143
 N175 N 0.03722 1.01703 -0.20392
 N176 N 0.06396 1.00345 -0.27369
 C177 C 0.09311 1.03978 -0.26680
 C178 C -0.08279 1.10806 -0.20089
 N179 N -0.07088 0.91581 -0.05200
 N180 N -0.10086 0.88193 -0.06180
 N181 N 0.01407 0.91402 -0.15692
 N182 N 0.04336 0.89626 -0.21638
 N183 N 0.01026 0.88646 -0.07762
 N184 N 0.03662 0.84867 -0.08165
 N185 N -0.06689 0.94467 -0.12975
 N186 N -0.09418 0.93192 -0.19249
 Mn187 Mn -0.01488 0.98098 -0.16687
 C188 C -0.11567 0.89393 -0.14870
 C189 C 0.05652 0.85515 -0.16924
 N190 N -0.01845 1.11140 0.07576
 N191 N -0.04185 1.15219 0.08291
 N192 N 0.05888 1.05429 0.12732
 N193 N 0.09324 1.05604 0.17228
 N194 N 0.06225 1.08066 0.04646
 N195 N 0.09892 1.10081 0.03370
 N196 N -0.02233 1.08424 0.15563
 N197 N -0.04870 1.10543 0.21901
 Mn198 Mn 0.01558 1.08558 -0.04064
 C199 C -0.06017 1.14788 0.17281
 C200 C 0.11750 1.08585 0.11349
 N201 N 0.02242 0.90851 0.12547
 N202 N 0.04543 0.86868 0.13998
 N203 N -0.04615 0.97998 0.20303
 N204 N -0.07169 0.99027 0.27761
 N205 N -0.05831 0.93900 0.15397
 N206 N -0.09220 0.91979 0.19493
 N207 N 0.03500 0.94940 0.17397
 N208 N 0.06712 0.93860 0.22254
 Mn209 Mn -0.02438 0.91198 0.03794
 Mn210 Mn 0.00647 1.01707 0.16618
 Cl211 Cl -0.00441 0.99891 -0.00057
 C212 C 0.07298 0.88814 0.20037
 C213 C -0.10003 0.95258 0.27149
 N214 N 0.56393 0.55690 0.10041
 N215 N 0.59915 0.56355 0.14071
 N216 N 0.48436 0.60726 0.04066
 N217 N 0.45758 0.64445 0.03758
 N218 N 0.48307 0.58703 0.12792
 N219 N 0.45545 0.60933 0.18597
 N220 N 0.56548 0.57576 0.01207
 N221 N 0.60181 0.59450 -0.01137
 C222 C 0.62216 0.58716 0.06965
 C223 C 0.44035 0.64541 0.12936
 N224 N 0.45706 0.52470 -0.19056
 N225 N 0.42431 0.53040 -0.24000
 N226 N 0.54983 0.53781 -0.18068
 N227 N 0.58422 0.55256 -0.22553
 N228 N 0.53794 0.49289 -0.21533
 N229 N 0.56378 0.47549 -0.28410
 N230 N 0.46912 0.56914 -0.15401
 N231 N 0.44538 0.60654 -0.17864
 Mn232 Mn 0.51727 0.57317 -0.07077
 C233 C 0.41770 0.58157 -0.23207
 C234 C 0.59226 0.51308 -0.28943
 N235 N 0.46037 0.48838 0.20642
 N236 N 0.43502 0.50417 0.27804
 N237 N 0.52811 0.41259 0.14252
 N238 N 0.55268 0.37505 0.16152
 N239 N 0.54126 0.45674 0.17837
 N240 N 0.57505 0.45047 0.22337
 N241 N 0.44760 0.44454 0.16861
 N242 N 0.41354 0.42895 0.21367
 Mn243 Mn 0.51240 0.52245 0.15441
 C244 C 0.40616 0.46670 0.28123
 C245 C 0.58146 0.39933 0.21215
 N246 N 0.51616 0.39424 -0.13590
 N247 N 0.54157 0.36683 -0.19283
 N248 N 0.43181 0.40607 -0.02542
 N249 N 0.39730 0.37999 -0.01371
 N250 N 0.43494 0.42667 -0.11218
 N251 N 0.40249 0.41653 -0.16082
 N252 N 0.51188 0.37414 -0.04885
 N253 N 0.53330 0.33210 -0.04419
 Mn254 Mn 0.48654 0.45938 -0.16450
 Mn255 Mn 0.47960 0.40897 0.05982
 Cl256 Cl 0.49895 0.49106 -0.00525
 C257 C 0.55163 0.32828 -0.13391
 C258 C 0.37912 0.38823 -0.09809
 N259 N 0.34931 0.42909 0.35796
 N260 N 0.37217 0.46683 0.34961
 N261 N -0.15500 0.90934 0.34936
 N262 N -0.13396 0.94865 0.33979
 N263 N 0.67782 0.62146 0.14695
 N264 N 0.66405 0.59981 0.07495
 N265 N 0.17268 1.12740 0.17942
 N266 N 0.15971 1.09331 0.12507
 N267 N 0.60856 0.29370 -0.21597
 N268 N 0.57831 0.28745 -0.16140
 N269 N 0.11896 0.85008 -0.25367
 N270 N 0.09160 0.82730 -0.20145
 N271 N 0.38404 0.65487 -0.28069
 N272 N 0.38474 0.60611 -0.27414
 N273 N -0.11621 1.18449 -0.23469
 N274 N -0.11560 1.13556 -0.23671
 N275 N 0.64870 0.54888 -0.36967
 N276 N 0.62661 0.51095 -0.35619
 N277 N 0.14848 1.07938 -0.34564
 N278 N 0.12874 1.03978 -0.32931
 N279 N 0.32628 0.37709 -0.20110
 N280 N 0.34407 0.36104 -0.12785
 N281 N -0.16287 0.82453 -0.16936
 N282 N -0.14109 0.86117 -0.20386
 N283 N 0.38395 0.65902 0.23192
 N284 N 0.40608 0.67527 0.16011
 N285 N -0.11311 1.16783 0.28458
 N286 N -0.09078 1.18170 0.21135
 N287 N 0.64052 0.39724 0.29943
 N288 N 0.61511 0.37356 0.24782
 N289 N 0.13294 0.87913 0.28280
 N290 N 0.10474 0.85838 0.23549
   
