data_POSCAR
  _audit_creation_date              2014-09-24
  _audit_creation_method            'ToBaCCo'
  _symmetry_space_group_name_H-M    'P1'
  _symmetry_Int_Tables_number       1
  _symmetry_cell_setting            triclinic
  loop_
  _symmetry_equiv_pos_as_xyz
 x,y,z
_cell_length_a 58.3180
_cell_length_b 58.0117
_cell_length_c 22.7117
_cell_angle_alpha 90.199900
_cell_angle_beta 89.192300
_cell_angle_gamma 119.884500
loop_
  _atom_site_label
  _atom_site_type_symbol
  _atom_site_fract_x
  _atom_site_fract_y
  _atom_site_fract_z
C1 C 0.31480 0.49241 0.45578
 C2 C 0.31950 0.49733 0.51463
 C3 C 0.30125 0.50413 0.53660
 N4 N 0.28623 0.50433 0.49177
 C5 C 0.29444 0.49712 0.44253
 C6 C 0.30091 0.51364 0.59453
 C7 C 0.28188 0.52092 0.61260
 C8 C 0.28371 0.53603 0.66196
 C9 C 0.26002 0.53557 0.66811
 C10 C 0.24405 0.52005 0.62286
 N11 N 0.25753 0.51129 0.58917
 C12 C 0.21745 0.51365 0.61458
 C13 C 0.20437 0.50269 0.56092
 C14 C 0.17713 0.48863 0.55353
 C15 C 0.17292 0.48414 0.49445
 C16 C 0.19765 0.49478 0.46800
 N17 N 0.21689 0.50602 0.50850
 C18 C 0.20222 0.49599 0.40694
 C19 C 0.22626 0.49991 0.38262
 C20 C 0.23456 0.50685 0.32465
 C21 C 0.25796 0.50670 0.31844
 C22 C 0.26343 0.50004 0.37301
 N23 N 0.24401 0.49588 0.41184
 C24 C 0.28536 0.49690 0.38493
 H25 H 0.32588 0.48693 0.42587
 H26 H 0.33561 0.49709 0.53684
 H27 H 0.24158 0.48804 0.45411
 H28 H 0.30012 0.54625 0.69148
 H29 H 0.25520 0.54557 0.70227
 H30 H 0.16181 0.48227 0.58711
 H31 H 0.15387 0.47401 0.47333
 H32 H 0.26971 0.51116 0.27837
 H33 H 0.24942 0.49697 0.55636
 H34 H 0.22482 0.51150 0.29029
 C35 C 0.50809 -0.30338 0.46247
 C36 C 0.50537 -0.30512 0.52243
 C37 C 0.51595 -0.27936 0.54317
 N38 N 0.52493 -0.26186 0.49762
 C39 C 0.52050 -0.27656 0.44813
 C40 C 0.51695 -0.27249 0.60347
 C41 C 0.51685 -0.24913 0.62172
 C42 C 0.52134 -0.23921 0.67879
 C43 C 0.51782 -0.21751 0.67890
 C44 C 0.51171 -0.21440 0.62183
 N45 N 0.51106 -0.23377 0.58725
 C46 C 0.50630 -0.19435 0.60385
 C47 C 0.50728 -0.18666 0.54457
 C48 C 0.50055 -0.16820 0.52519
 C49 C 0.50625 -0.16481 0.46603
 C50 C 0.51597 -0.18155 0.45115
 N51 N 0.51673 -0.19479 0.49923
 C52 C 0.52512 -0.18335 0.39451
 C53 C 0.53105 -0.20333 0.37795
 C54 C 0.54431 -0.20291 0.32647
 C55 C 0.54499 -0.22624 0.32502
 C56 C 0.53213 -0.24033 0.37574
 N57 N 0.52368 -0.22622 0.40775
 C58 C 0.52760 -0.26601 0.39013
 H59 H 0.50089 -0.32013 0.43287
 H60 H 0.49576 -0.32340 0.54771
 H61 H 0.51125 -0.23315 0.44455
 H62 H 0.52669 -0.24666 0.71670
 H63 H 0.51986 -0.20520 0.71661
 H64 H 0.49262 -0.15799 0.55101
 H65 H 0.50349 -0.15158 0.43723
 H66 H 0.55413 -0.23201 0.29062
 H67 H 0.50445 -0.23783 0.54416
 H68 H 0.55261 -0.18743 0.29325
 C69 C 1.30109 0.83040 0.51258
 C70 C 1.30098 0.82640 0.45319
 C71 C 1.28781 0.79909 0.44469
 N72 N 1.27908 0.78625 0.49690
 C73 C 1.28749 0.80543 0.53846
 C74 C 1.28505 0.78627 0.38983
 C75 C 1.26390 0.76021 0.38016
 C76 C 1.26197 0.74400 0.33311
 C77 C 1.23797 0.72097 0.33908
 C78 C 1.22598 0.72366 0.38976
 N79 N 1.24185 0.74763 0.41434
 C80 C 1.20009 0.70542 0.40939
 C81 C 1.19072 0.70677 0.46615
 C82 C 1.16445 0.69374 0.48415
 C83 C 1.16426 0.69828 0.54341
 C84 C 1.19049 0.71294 0.56028
 N85 N 1.20659 0.71855 0.51265
 C86 C 1.19968 0.71925 0.61893
 C87 C 1.22575 0.73975 0.63060
 C88 C 1.23949 0.74201 0.68170
 C89 C 1.26372 0.76468 0.67603
 C90 C 1.26398 0.77604 0.62218
 N91 N 1.24095 0.76039 0.59423
 C92 C 1.28465 0.80048 0.59967
 H93 H 1.30986 0.84953 0.53416
 H94 H 1.30954 0.84190 0.42006
 H95 H 1.23504 0.76482 0.55472
 H96 H 1.27628 0.74823 0.29801
 H97 H 1.23013 0.70433 0.30903
 H98 H 1.14715 0.68218 0.45770
 H99 H 1.14672 0.69121 0.57089
 H100 H 1.27947 0.77152 0.70762
 H101 H 1.23677 0.75605 0.44911
 H102 H 1.23306 0.72836 0.71863
 C103 C 0.81973 0.49666 0.54024
 C104 C 0.82273 0.49998 0.48048
 C105 C 0.79972 0.49821 0.45973
 N106 N 0.78265 0.49365 0.50518
 C107 C 0.79496 0.49319 0.55498
 C108 C 0.79390 0.49813 0.39929
 C109 C 0.76992 0.49533 0.37854
 C110 C 0.76188 0.49045 0.32029
 C111 C 0.73862 0.49091 0.31734
 C112 C 0.73313 0.49617 0.37369
 N113 N 0.75231 0.49895 0.41069
 C114 C 0.71169 0.49983 0.38906
 C115 C 0.70423 0.50044 0.44805
 C116 C 0.68788 0.51007 0.46647
 C117 C 0.68391 0.50522 0.52569
 C118 C 0.69792 0.49264 0.54152
 N119 N 0.71051 0.48993 0.49393
 C120 C 0.69764 0.48238 0.59812
 C121 C 0.71722 0.47591 0.61438
 C122 C 0.71473 0.45861 0.65916
 C123 C 0.73868 0.45953 0.66307
 C124 C 0.75514 0.47689 0.61951
 N125 N 0.74173 0.48653 0.58962
 C126 C 0.78249 0.48556 0.61163
 H127 H 0.83366 0.49496 0.56816
 H128 H 0.83947 0.50193 0.45522
 H129 H 0.74983 0.50191 0.55874
 H130 H 0.77181 0.48722 0.28329
 H131 H 0.72722 0.48797 0.27801
 H132 H 0.67974 0.51969 0.44006
 H133 H 0.67221 0.51064 0.55377
 H134 H 0.74306 0.44822 0.69414
 H135 H 0.75470 0.50585 0.45371
 H136 H 0.69743 0.44635 0.68615
 C137 C 0.48150 0.17919 0.50840
 C138 C 0.47481 0.17810 0.45050
 C139 C 0.46719 0.19698 0.44301
 N140 N 0.46859 0.20935 0.49466
 C141 C 0.47709 0.19826 0.53503
 C142 C 0.45818 0.20168 0.38944
 C143 C 0.45633 0.22465 0.37874
 C144 C 0.44316 0.22799 0.33205
 C145 C 0.44757 0.25360 0.33545
 C146 C 0.46333 0.26513 0.38405
 N147 N 0.46862 0.24739 0.41004
 C148 C 0.47350 0.29173 0.40205
 C149 C 0.48443 0.30088 0.45800
 C150 C 0.49910 0.32744 0.47340
 C151 C 0.50411 0.32798 0.53215
 C152 C 0.49199 0.30173 0.55097
 N153 N 0.48019 0.28512 0.50537
 C154 C 0.49070 0.29350 0.61009
 C155 C 0.48626 0.26785 0.62476
 C156 C 0.48018 0.25690 0.68096
 C157 C 0.47733 0.23203 0.67689
 C158 C 0.48159 0.22820 0.61824
 N159 N 0.48712 0.25019 0.58672
 C160 C 0.48031 0.20473 0.59587
 H161 H 0.48912 0.16747 0.52815
 H162 H 0.47596 0.16523 0.41738
 H163 H 0.49315 0.25366 0.54275
 H164 H 0.43169 0.21354 0.29880
 H165 H 0.44010 0.26268 0.30546
 H166 H 0.50556 0.34464 0.44520
 H167 H 0.51541 0.34573 0.55809
 H168 H 0.47194 0.21807 0.71301
 H169 H 0.48212 0.25146 0.44345
 H170 H 0.47742 0.26554 0.72082
 C171 C 0.71072 0.13894 0.46186
 C172 C 0.71059 0.13557 0.52171
 C173 C 0.72656 0.16056 0.54523
 N174 N 0.73629 0.17909 0.50195
 C175 C 0.72654 0.16595 0.45089
 C176 C 0.73045 0.16629 0.60594
 C177 C 0.75072 0.19075 0.62779
 C178 C 0.75160 0.19946 0.68505
 C179 C 0.77447 0.22348 0.68951
 C180 C 0.78718 0.22882 0.63488
 N181 N 0.77252 0.20866 0.59748
 C182 C 0.81173 0.25181 0.62094
 C183 C 0.82046 0.25909 0.56172
 C184 C 0.84629 0.27645 0.54349
 C185 C 0.84553 0.28070 0.48441
 C186 C 0.81947 0.26492 0.46787
 N187 N 0.80419 0.25173 0.51510
 C188 C 0.80951 0.26478 0.41162
 C189 C 0.78465 0.24428 0.39301
 C190 C 0.77220 0.24483 0.34189
 C191 C 0.74995 0.22021 0.33686
 C192 C 0.74941 0.20533 0.38512
 N193 N 0.77069 0.22011 0.41892
 C194 C 0.73034 0.17839 0.39526
 H195 H 0.70018 0.12329 0.43021
 H196 H 0.69994 0.11687 0.54525
 H197 H 0.77688 0.21310 0.45387
 H198 H 0.73709 0.18971 0.71995
 H199 H 0.78060 0.23574 0.72853
 H200 H 0.86387 0.28550 0.57010
 H201 H 0.86233 0.29387 0.45708
 H202 H 0.73588 0.21394 0.30146
 H203 H 0.77815 0.20617 0.55532
 H204 H 0.77874 0.26106 0.31075
 N205 N 0.97251 0.45133 0.09957
 N206 N 0.95553 0.43667 0.14148
 N207 N 1.02736 0.46522 0.04742
 N208 N 1.04646 0.45941 0.05289
 N209 N 1.02797 0.48056 0.09073
 N210 N 1.04738 0.48556 0.12681
 N211 N 0.97194 0.43626 0.05563
 N212 N 0.95464 0.41107 0.06635
 C213 C 0.94438 0.41163 0.11968
 C214 C 1.05886 0.47243 0.10244
 N215 N 1.02267 0.48354 -0.11595
 N216 N 1.04331 0.49384 -0.15221
 N217 N 0.96861 0.43799 -0.07077
 N218 N 0.94937 0.41344 -0.08073
 N219 N 0.96698 0.45473 -0.10679
 N220 N 0.94651 0.44229 -0.14149
 N221 N 1.02424 0.46719 -0.07860
 N222 N 1.04591 0.46583 -0.08856
 Mn223 Mn 0.99803 0.45139 -0.01169
 C224 C 1.05753 0.48249 -0.13480
 C225 C 0.93572 0.41664 -0.12478
 N226 N 1.02699 0.52976 0.10044
 N227 N 1.04589 0.54326 0.13880
 N228 N 0.97002 0.51710 0.07190
 N229 N 0.95275 0.52392 0.09132
 N230 N 0.97167 0.50072 0.10923
 N231 N 0.95582 0.49616 0.15498
 N232 N 1.02548 0.54602 0.06257
 N233 N 1.04330 0.57089 0.07399
 Mn234 Mn 0.99979 0.49057 0.10055
 C235 C 1.05604 0.56887 0.12120
 C236 C 0.94388 0.51037 0.14282
 N237 N 0.96574 0.50333 -0.09788
 N238 N 0.94572 0.49764 -0.13282
 N239 N 1.02240 0.54779 -0.06398
 N240 N 1.04394 0.57143 -0.06975
 N241 N 1.02132 0.53199 -0.10670
 N242 N 1.04204 0.54414 -0.14200
 N243 N 0.96664 0.51896 -0.05497
 N244 N 0.94739 0.52457 -0.05990
 Mn245 Mn 0.99411 0.49337 -0.10737
 Mn246 Mn 0.99611 0.53274 0.00388
 Cl247 Cl 0.99696 0.49202 -0.00350
 C248 C 0.93434 0.51088 -0.10832
 C249 C 1.05575 0.56870 -0.11911
 N250 N 0.47783 0.46108 0.06347
 N251 N 0.47101 0.43587 0.07009
 N252 N 0.47418 0.51024 0.10388
 N253 N 0.46409 0.52003 0.14195
 N254 N 0.45657 0.49533 0.06489
 N255 N 0.43375 0.49437 0.07586
 N256 N 0.49526 0.47590 0.10289
 N257 N 0.50072 0.46111 0.13766
 C258 C 0.48536 0.43619 0.11659
 C259 C 0.43895 0.51002 0.12407
 N260 N 0.54321 0.57007 0.05854
 N261 N 0.55228 0.59560 0.06856
 N262 N 0.54775 0.52143 0.09930
 N263 N 0.55870 0.51229 0.13592
 N264 N 0.56472 0.53622 0.05815
 N265 N 0.58779 0.53759 0.06575
 N266 N 0.52631 0.55546 0.10003
 N267 N 0.52302 0.57060 0.13877
 Mn268 Mn 0.51089 0.51573 0.10214
 C269 C 0.53922 0.59553 0.11834
 C270 C 0.58363 0.52246 0.11434
 N271 N 0.45575 0.49409 -0.06247
 N272 N 0.43180 0.48979 -0.07351
 N273 N 0.49423 0.47434 -0.10383
 N274 N 0.49840 0.45906 -0.14040
 N275 N 0.47687 0.45999 -0.06284
 N276 N 0.46850 0.43447 -0.07081
 N277 N 0.47239 0.50813 -0.10494
 N278 N 0.46012 0.51391 -0.14588
 Mn279 Mn 0.46645 0.47743 0.00085
 C280 C 0.43489 0.50258 -0.12512
 C281 C 0.48230 0.43427 -0.11902
 N282 N 0.56398 0.53526 -0.06819
 N283 N 0.58646 0.53519 -0.07404
 N284 N 0.52498 0.55364 -0.10817
 N285 N 0.52050 0.56798 -0.14631
 N286 N 0.54238 0.56898 -0.06916
 N287 N 0.55055 0.59428 -0.08039
 N288 N 0.54685 0.51970 -0.10734
 N289 N 0.55726 0.50843 -0.14075
 Mn290 Mn 0.55383 0.55294 -0.00526
 Mn291 Mn 0.50966 0.51397 -0.10683
 Cl292 Cl 0.51017 0.51505 -0.00233
 C293 C 0.58203 0.51846 -0.11941
 C294 C 0.53651 0.59325 -0.12833
 N295 N 0.43280 -0.02139 0.08342
 N296 N 0.40979 -0.04333 0.09144
 N297 N 0.47628 0.03622 0.11388
 N298 N 0.48406 0.05753 0.14677
 N299 N 0.45919 0.03454 0.07472
 N300 N 0.45457 0.05458 0.08049
 N301 N 0.44984 -0.01973 0.12270
 N302 N 0.43896 -0.04047 0.15836
 C303 C 0.41394 -0.05491 0.13858
 C304 C 0.47030 0.06870 0.12573
 N305 N 0.54217 0.03704 0.07179
 N306 N 0.56686 0.05560 0.08240
 N307 N 0.49981 -0.01812 0.12072
 N308 N 0.49276 -0.03764 0.15897
 N309 N 0.51581 -0.01871 0.08023
 N310 N 0.52024 -0.03859 0.09015
 N311 N 0.52603 0.03771 0.11182
 N312 N 0.53907 0.05699 0.14969
 Mn313 Mn 0.48798 0.00903 0.11783
 C314 C 0.56439 0.06809 0.13069
 C315 C 0.50574 -0.05012 0.13958
 N316 N 0.45702 0.03023 -0.05239
 N317 N 0.45000 0.04792 -0.06639
 N318 N 0.44626 -0.02644 -0.08346
 N319 N 0.43274 -0.04690 -0.11853
 N320 N 0.43072 -0.02535 -0.04252
 N321 N 0.40623 -0.04506 -0.04845
 N322 N 0.47278 0.02936 -0.09312
 N323 N 0.47721 0.04663 -0.13546
 Mn324 Mn 0.44468 0.00457 0.01589
 C325 C 0.46303 0.05817 -0.11797
 C326 C 0.40784 -0.05840 -0.09581
 N327 N 0.51393 -0.02265 -0.04645
 N328 N 0.52170 -0.04015 -0.05660
 N329 N 0.52278 0.03086 -0.09557
 N330 N 0.53475 0.04632 -0.14137
 N331 N 0.54014 0.03285 -0.05659
 N332 N 0.56447 0.04946 -0.07570
 N333 N 0.49660 -0.02486 -0.08567
 N334 N 0.49205 -0.04400 -0.12337
 Mn335 Mn 0.52833 0.00723 0.01228
 Mn336 Mn 0.48456 0.00217 -0.08995
 Cl337 Cl 0.48646 0.00582 0.01390
 C338 C 0.50761 -0.05354 -0.10416
 C339 C 0.56064 0.05801 -0.12823
 C340 C 1.18158 0.49554 0.36903
 C341 C 1.17190 0.47968 0.31910
 C342 C 1.15010 0.47879 0.28489
 C343 C 1.14889 0.47418 0.22402
 C344 C 1.12915 0.47466 0.19054
 C345 C 1.11014 0.47950 0.21784
 C346 C 1.11099 0.48332 0.27889
 C347 C 1.13054 0.48272 0.31219
 C348 C 1.08962 0.48160 0.18484
 C349 C 1.08083 0.47087 0.12919
 H350 H 1.18108 0.46846 0.30369
 H351 H 1.16367 0.47094 0.20216
 H352 H 1.12931 0.47197 0.14344
 H353 H 1.09640 0.48678 0.30104
 H354 H 1.13013 0.48521 0.35935
 H355 H 1.07988 0.49098 0.20720
 H356 H 1.17277 0.50719 0.38368
 H357 H 1.08889 0.46004 0.10641
 C358 C 0.52921 0.71842 0.34395
 C359 C 0.53837 0.70051 0.35125
 C360 C 0.53581 0.68160 0.30484
 C361 C 0.55608 0.67560 0.29568
 C362 C 0.55298 0.65612 0.25503
 C363 C 0.52918 0.64179 0.22444
 C364 C 0.50888 0.64773 0.23381
 C365 C 0.51231 0.66778 0.27302
 C366 C 0.52434 0.61910 0.18685
 C367 C 0.54360 0.61963 0.14910
 H368 H 0.54816 0.70067 0.39158
 H369 H 0.57420 0.68582 0.32041
 H370 H 0.56870 0.65146 0.24940
 H371 H 0.49027 0.63665 0.21117
 H372 H 0.49618 0.67171 0.28036
 H373 H 0.50482 0.60159 0.18817
 H374 H 0.52510 0.72182 0.29939
 H375 H 0.56207 0.63796 0.14190
 C376 C 0.30318 -0.20020 0.34320
 C377 C 0.32971 -0.18145 0.35301
 C378 C 0.34757 -0.16174 0.30901
 C379 C 0.33804 -0.15479 0.25955
 C380 C 0.35524 -0.13317 0.22405
 C381 C 0.38228 -0.11804 0.23762
 C382 C 0.39184 -0.12585 0.28547
 C383 C 0.37468 -0.14733 0.32091
 C384 C 0.40111 -0.09352 0.20528
 C385 C 0.39403 -0.08061 0.16366
 H386 H 0.33761 -0.18030 0.39653
 H387 H 0.31718 -0.16519 0.24955
 H388 H 0.34704 -0.12822 0.18708
 H389 H 0.41257 -0.11472 0.29676
 H390 H 0.38251 -0.15220 0.35890
 H391 H 0.42175 -0.08427 0.21725
 H392 H 0.29695 -0.20558 0.29816
 H393 H 0.37388 -0.08893 0.14924
 C394 C 0.81316 0.49947 0.35423
 C395 C 0.83823 0.52171 0.34817
 C396 C 0.85668 0.52350 0.30109
 C397 C 0.88345 0.53385 0.31397
 C398 C 0.90095 0.53416 0.27094
 C399 C 0.89200 0.52473 0.21396
 C400 C 0.86556 0.51580 0.20011
 C401 C 0.84790 0.51487 0.24359
 C402 C 0.90985 0.52318 0.16957
 C403 C 0.92597 0.51288 0.18476
 H404 H 0.84502 0.53733 0.38083
 H405 H 0.89063 0.54090 0.35785
 H406 H 0.92143 0.54161 0.28221
 H407 H 0.85839 0.50869 0.15627
 H408 H 0.82741 0.50741 0.23230
 H409 H 0.90854 0.52777 0.12397
 H410 H 0.80673 0.48343 0.32277
 H411 H 0.92488 0.50553 0.22910
 C412 C 0.47127 0.31106 0.36363
 C413 C 0.48243 0.31755 0.30727
 C414 C 0.48669 0.34195 0.27713
 C415 C 0.48482 0.34235 0.21572
 C416 C 0.48839 0.36525 0.18700
 C417 C 0.49431 0.38827 0.21938
 C418 C 0.49736 0.38817 0.28042
 C419 C 0.49347 0.36525 0.30910
 C420 C 0.49746 0.41265 0.19126
 C421 C 0.48409 0.41211 0.14053
 H422 H 0.48875 0.30496 0.28556
 H423 H 0.48019 0.32480 0.19012
 H424 H 0.48676 0.36495 0.13957
 H425 H 0.50235 0.40578 0.30616
 H426 H 0.49610 0.36595 0.35627
 H427 H 0.50882 0.43136 0.21407
 H428 H 0.46421 0.32333 0.38395
 H429 H 0.47121 0.39342 0.11914
 C430 C 0.71336 0.16317 0.34518
 C431 C 0.68584 0.14953 0.35035
 C432 C 0.66754 0.13544 0.30141
 C433 C 0.64060 0.12661 0.31045
 C434 C 0.62231 0.11284 0.26655
 C435 C 0.63055 0.10769 0.21192
 C436 C 0.65747 0.11616 0.20304
 C437 C 0.67584 0.12994 0.24720
 C438 C 0.61132 0.09208 0.16548
 C439 C 0.58613 0.08916 0.16394
 H440 H 0.67719 0.15008 0.39253
 H441 H 0.63356 0.13016 0.35201
 H442 H 0.60168 0.10569 0.27664
 H443 H 0.66428 0.11198 0.16189
 H444 H 0.69629 0.13573 0.23875
 H445 H 0.61662 0.08151 0.13364
 H446 H 0.72281 0.16551 0.30261
 H447 H 0.58087 0.10041 0.19372
 C448 C 0.48236 0.18764 -0.36302
 C449 C 0.46751 0.15994 -0.36566
 C450 C 0.47031 0.14305 -0.32130
 C451 C 0.44781 0.12003 -0.30065
 C452 C 0.45020 0.10368 -0.25903
 C453 C 0.47526 0.10979 -0.23870
 C454 C 0.49778 0.13253 -0.26030
 C455 C 0.49533 0.14924 -0.30071
 C456 C 0.47851 0.09186 -0.19824
 C457 C 0.46047 0.07791 -0.15313
 H458 H 0.45189 0.15050 -0.39757
 H459 H 0.42839 0.11481 -0.31651
 H460 H 0.43258 0.08587 -0.24413
 H461 H 0.51729 0.13736 -0.24578
 H462 H 0.51302 0.16663 -0.31695
 H463 H 0.49613 0.09015 -0.20315
 H464 H 0.49348 0.19614 -0.32322
 H465 H 0.44429 0.08151 -0.14340
 C466 C 0.67630 0.47771 -0.36379
 C467 C 0.67730 0.47913 -0.30232
 C468 C 0.65579 0.47942 -0.26727
 C469 C 0.66212 0.49470 -0.21590
 C470 C 0.64295 0.49829 -0.18623
 C471 C 0.61693 0.48660 -0.20757
 C472 C 0.61021 0.46972 -0.25648
 C473 C 0.62936 0.46604 -0.28591
 C474 C 0.59651 0.49195 -0.18155
 C475 C 0.60215 0.51232 -0.14152
 H476 H 0.69575 0.48480 -0.28053
 H477 H 0.68220 0.50476 -0.19990
 H478 H 0.64893 0.51053 -0.14731
 H479 H 0.59022 0.45989 -0.27305
 H480 H 0.62346 0.45309 -0.32383
 H481 H 0.57639 0.48025 -0.19686
 H482 H 0.65884 0.47617 -0.38352
 H483 H 0.62192 0.52462 -0.12533
 C484 C 0.82703 0.26807 -0.33205
 C485 C 0.84205 0.29578 -0.33656
 C486 C 0.85814 0.31373 -0.28879
 C487 C 0.86791 0.34102 -0.29638
 C488 C 0.88396 0.35914 -0.25421
 C489 C 0.89047 0.35039 -0.20266
 C490 C 0.88098 0.32309 -0.19518
 C491 C 0.86494 0.30485 -0.23780
 C492 C 0.90848 0.36948 -0.15850
 C493 C 0.91296 0.39537 -0.15480
 H494 H 0.84063 0.30520 -0.37636
 H495 H 0.86342 0.34847 -0.33568
 H496 H 0.89178 0.38002 -0.26350
 H497 H 0.88616 0.31588 -0.15651
 H498 H 0.85847 0.28405 -0.23099
 H499 H 0.91952 0.36349 -0.13055
 H500 H 0.82462 0.25923 -0.28900
 H501 H 0.90125 0.40135 -0.18018
 C502 C 0.50025 -0.18006 -0.34988
 C503 C 0.51719 -0.15310 -0.33983
 C504 C 0.51120 -0.13773 -0.29656
 C505 C 0.53213 -0.11545 -0.27008
 C506 C 0.52711 -0.09974 -0.23115
 C507 C 0.50098 -0.10580 -0.21881
 C508 C 0.48006 -0.12789 -0.24586
 C509 C 0.48506 -0.14389 -0.28401
 C510 C 0.49524 -0.08837 -0.18137
 C511 C 0.51139 -0.07367 -0.13510
 H512 H 0.53581 -0.14303 -0.36404
 H513 H 0.55242 -0.11012 -0.27985
 H514 H 0.54372 -0.08237 -0.21239
 H515 H 0.45981 -0.13267 -0.23771
 H516 H 0.46853 -0.16052 -0.30506
 H517 H 0.47764 -0.08719 -0.19035
 H518 H 0.48324 -0.19138 -0.32131
 H519 H 0.52757 -0.07650 -0.12186
 C520 C 0.32093 0.51773 -0.36533
 C521 C 0.32813 0.49856 -0.35375
 C522 C 0.35017 0.50350 -0.31467
 C523 C 0.34933 0.48207 -0.28443
 C524 C 0.37034 0.48591 -0.24903
 C525 C 0.39286 0.51126 -0.24403
 C526 C 0.39396 0.53262 -0.27525
 C527 C 0.37270 0.52886 -0.30986
 C528 C 0.41573 0.51545 -0.20869
 C529 C 0.41253 0.50106 -0.15731
 H530 H 0.31633 0.47876 -0.37163
 H531 H 0.33237 0.46229 -0.28828
 H532 H 0.36922 0.46888 -0.22690
 H533 H 0.41128 0.55223 -0.27272
 H534 H 0.37423 0.54564 -0.33403
 H535 H 0.43540 0.53057 -0.22262
 H536 H 0.32883 0.53468 -0.33630
 H537 H 0.39284 0.48783 -0.14009
 C538 C 1.18340 0.70481 -0.33246
 C539 C 1.16415 0.67793 -0.33524
 C540 C 1.14609 0.66262 -0.28603
 C541 C 1.13246 0.63486 -0.28994
 C542 C 1.11414 0.61932 -0.24667
 C543 C 1.10907 0.63118 -0.19776
 C544 C 1.12242 0.65902 -0.19402
 C545 C 1.14086 0.67468 -0.23768
 C546 C 1.08865 0.61479 -0.15299
 C547 C 1.08145 0.58834 -0.14362
 H548 H 1.16323 0.66689 -0.37455
 H549 H 1.13569 0.62507 -0.32724
 H550 H 1.10341 0.59804 -0.25308
 H551 H 1.11845 0.66865 -0.15752
 H552 H 1.15036 0.69607 -0.23406
 H553 H 1.07785 0.62302 -0.13048
 H554 H 1.18785 0.71409 -0.28956
 H555 H 1.09286 0.58039 -0.16421
 C556 C 0.79675 0.48444 -0.33938
 C557 C 0.82293 0.50391 -0.32840
 C558 C 0.83950 0.50094 -0.28364
 C559 C 0.86101 0.52379 -0.26024
 C560 C 0.87885 0.52171 -0.22308
 C561 C 0.87575 0.49668 -0.20953
 C562 C 0.85409 0.47381 -0.23247
 C563 C 0.83597 0.47587 -0.26872
 C564 C 0.89604 0.49403 -0.17649
 C565 C 0.91196 0.51215 -0.13394
 H566 H 0.83177 0.52218 -0.35385
 H567 H 0.86436 0.54334 -0.27183
 H568 H 0.89569 0.53977 -0.20735
 H569 H 0.85148 0.45433 -0.22324
 H570 H 0.81997 0.45791 -0.28721
 H571 H 0.89851 0.47707 -0.18606
 H572 H 0.78662 0.47015 -0.30451
 H573 H 0.90808 0.52767 -0.11920
 C574 C 0.49347 0.31113 -0.34379
 C575 C 0.48259 0.32778 -0.34675
 C576 C 0.48606 0.34705 -0.30049
 C577 C 0.46521 0.35181 -0.28758
 C578 C 0.46867 0.37165 -0.24780
 C579 C 0.49331 0.38754 -0.22147
 C580 C 0.51420 0.38281 -0.23441
 C581 C 0.51051 0.36243 -0.27302
 C582 C 0.49809 0.41048 -0.18476
 C583 C 0.47878 0.40997 -0.14718
 H584 H 0.46964 0.32554 -0.38278
 H585 H 0.44632 0.34037 -0.30896
 H586 H 0.45241 0.37531 -0.23968
 H587 H 0.53345 0.39510 -0.21515
 H588 H 0.52704 0.35946 -0.28335
 H589 H 0.51734 0.42830 -0.18751
 H590 H 0.50144 0.30973 -0.30202
 H591 H 0.46064 0.39148 -0.13859
 C592 C 0.71193 0.14658 -0.35032
 C593 C 0.68473 0.13683 -0.35293
 C594 C 0.66565 0.12164 -0.30484
 C595 C 0.63863 0.10770 -0.31777
 C596 C 0.61971 0.09432 -0.27351
 C597 C 0.62736 0.09493 -0.21474
 C598 C 0.65442 0.10845 -0.20187
 C599 C 0.67341 0.12184 -0.24627
 C600 C 0.60766 0.08113 -0.16666
 C601 C 0.58144 0.07521 -0.17051
 H602 H 0.67705 0.14127 -0.39183
 H603 H 0.63209 0.10713 -0.36244
 H604 H 0.59917 0.08330 -0.28595
 H605 H 0.66087 0.10908 -0.15710
 H606 H 0.69396 0.13281 -0.23396
 H607 H 0.61396 0.07545 -0.12731
 H608 H 0.72033 0.14264 -0.31217
 H609 H 0.57517 0.08197 -0.20807
 C610 C 1.20380 0.51826 -0.33885
 C611 C 1.18485 0.52587 -0.34902
 C612 C 1.16490 0.52390 -0.30528
 C613 C 1.15017 0.53629 -0.31825
 C614 C 1.12850 0.53181 -0.28311
 C615 C 1.12078 0.51455 -0.23451
 C616 C 1.13622 0.50296 -0.21987
 C617 C 1.15805 0.50755 -0.25505
 C618 C 1.09618 0.50877 -0.20213
 C619 C 1.08304 0.48824 -0.16115
 H620 H 1.18366 0.53247 -0.39290
 H621 H 1.15495 0.54889 -0.35682
 H622 H 1.11718 0.54122 -0.29520
 H623 H 1.13142 0.48999 -0.18214
 H624 H 1.16873 0.49737 -0.24416
 H625 H 1.08712 0.52053 -0.21351
 H626 H 1.20935 0.51777 -0.29380
 H627 H 1.09112 0.47589 -0.14800
 C628 C 0.51654 0.71006 -0.35258
 C629 C 0.52879 0.69473 -0.35961
 C630 C 0.52688 0.67564 -0.31437
 C631 C 0.54884 0.67258 -0.30356
 C632 C 0.54696 0.65356 -0.26313
 C633 C 0.52282 0.63679 -0.23417
 C634 C 0.50081 0.63971 -0.24538
 C635 C 0.50290 0.65924 -0.28452
 C636 C 0.51960 0.61473 -0.19627
 C637 C 0.53940 0.61673 -0.15939
 H638 H 0.54150 0.69797 -0.39763
 H639 H 0.56741 0.68485 -0.32668
 H640 H 0.56406 0.65128 -0.25631
 H641 H 0.48194 0.62673 -0.22411
 H642 H 0.48553 0.66086 -0.29308
 H643 H 0.50075 0.59638 -0.19670
 H644 H 0.50849 0.71004 -0.30931
 H645 H 0.55716 0.63571 -0.15309
 C646 C 0.30416 -0.18000 -0.36372
 C647 C 0.30083 -0.17630 -0.30399
 C648 C 0.32281 -0.15597 -0.26869
 C649 C 0.31726 -0.14381 -0.22150
 C650 C 0.33779 -0.12381 -0.18900
 C651 C 0.36437 -0.11590 -0.20264
 C652 C 0.36977 -0.12870 -0.24882
 C653 C 0.34928 -0.14858 -0.28132
 C654 C 0.38704 -0.09389 -0.17192
 C655 C 0.38481 -0.08163 -0.12095
 H656 H 0.28129 -0.18666 -0.28394
 H657 H 0.29701 -0.14932 -0.21068
 H658 H 0.33258 -0.11439 -0.15438
 H659 H 0.38999 -0.12319 -0.26008
 H660 H 0.35425 -0.15819 -0.31613
 H661 H 0.40659 -0.08675 -0.19094
 H662 H 0.32266 -0.16546 -0.38415
 H663 H 0.36596 -0.08862 -0.09890
 C664 C 0.52990 -0.16229 0.35138
 C665 C 0.51462 -0.16789 0.30115
 C666 C 0.51682 -0.14655 0.26217
 C667 C 0.49386 -0.14857 0.23827
 C668 C 0.49527 -0.12783 0.20434
 C669 C 0.51980 -0.10499 0.19265
 C670 C 0.54291 -0.10357 0.21399
 C671 C 0.54144 -0.12404 0.24911
 C672 C 0.52159 -0.08232 0.15930
 C673 C 0.50332 -0.07382 0.16847
 H674 H 0.49884 -0.18808 0.29393
 H675 H 0.47473 -0.16589 0.24730
 H676 H 0.47720 -0.12966 0.18724
 H677 H 0.56203 -0.08626 0.20494
 H678 H 0.55951 -0.12230 0.26597
 H679 H 0.53892 -0.07052 0.13188
 H680 H 0.54329 -0.14181 0.36329
 H681 H 0.48760 -0.08384 0.20088
 C682 C 0.29954 0.49366 0.33372
 C683 C 0.32618 0.51162 0.32262
 C684 C 0.34155 0.50906 0.27315
 C685 C 0.36581 0.53128 0.25729
 C686 C 0.38209 0.52927 0.21440
 C687 C 0.37460 0.50477 0.18705
 C688 C 0.34982 0.48281 0.20086
 C689 C 0.33347 0.48483 0.24383
 C690 C 0.39292 0.50133 0.14700
 C691 C 0.42011 0.51549 0.15568
 H692 H 0.33621 0.52852 0.35175
 H693 H 0.37240 0.55022 0.27881
 H694 H 0.40069 0.54685 0.20337
 H695 H 0.34360 0.46376 0.18026
 H696 H 0.31512 0.46711 0.25539
 H697 H 0.38488 0.48533 0.11520
 H698 H 0.28802 0.47852 0.30180
 H699 H 0.42805 0.52976 0.19110
 C700 C 1.18322 0.68255 0.37121
 C701 C 1.16079 0.68009 0.34426
 C702 C 1.14297 0.65707 0.30733
 C703 C 1.12583 0.65970 0.26877
 C704 C 1.10821 0.63827 0.23432
 C705 C 1.10730 0.61360 0.23783
 C706 C 1.12412 0.61083 0.27717
 C707 C 1.14181 0.63230 0.31149
 C708 C 1.08828 0.59015 0.20346
 C709 C 1.07672 0.59220 0.15185
 H710 H 1.15639 0.69607 0.34977
 H711 H 1.12598 0.67840 0.26545
 H712 H 1.09496 0.64104 0.20623
 H713 H 1.12351 0.59194 0.28152
 H714 H 1.15403 0.62913 0.34208
 H715 H 1.08342 0.57057 0.21901
 H716 H 1.18985 0.66852 0.36156
 H717 H 1.08250 0.61150 0.13325
 C718 C 0.45006 0.18111 0.34308
 C719 C 0.46304 0.18673 0.28856
 C720 C 0.45961 0.16540 0.24761
 C721 C 0.48161 0.16816 0.21573
 C722 C 0.47958 0.14729 0.18103
 C723 C 0.45531 0.12347 0.17667
 C724 C 0.43291 0.12134 0.20553
 C725 C 0.43507 0.14203 0.24127
 C726 C 0.45334 0.10034 0.14455
 C727 C 0.47292 0.09342 0.14972
 H728 H 0.47872 0.20687 0.27953
 H729 H 0.50064 0.18611 0.21945
 H730 H 0.49704 0.14965 0.15811
 H731 H 0.41397 0.10326 0.20224
 H732 H 0.41763 0.13964 0.26426
 H733 H 0.43501 0.08683 0.12303
 H734 H 0.43690 0.16060 0.35572
 H735 H 0.48981 0.10529 0.17720
 C736 C 0.69638 0.50291 0.34112
 C737 C 0.66884 0.48765 0.34047
 C738 C 0.65189 0.49087 0.29722
 C739 C 0.62498 0.47157 0.29592
 C740 C 0.60771 0.47469 0.25926
 C741 C 0.61695 0.49716 0.22288
 C742 C 0.64399 0.51641 0.22345
 C743 C 0.66129 0.51332 0.26032
 C744 C 0.59748 0.50062 0.18869
 C745 C 0.60396 0.51830 0.14164
 H746 H 0.65912 0.47262 0.37442
 H747 H 0.61717 0.45420 0.32418
 H748 H 0.58695 0.45967 0.26000
 H749 H 0.65174 0.53438 0.19738
 H750 H 0.68170 0.52903 0.26108
 H751 H 0.57683 0.48861 0.20154
 H752 H 0.70715 0.51595 0.30465
 H753 H 0.62397 0.52925 0.12441
 C754 C 0.82453 0.28821 0.37276
 C755 C 0.84784 0.29317 0.34409
 C756 C 0.86426 0.31732 0.30812
 C757 C 0.88185 0.31692 0.26595
 C758 C 0.89823 0.33956 0.23237
 C759 C 0.89747 0.36324 0.24061
 C760 C 0.88028 0.36381 0.28364
 C761 C 0.86374 0.34109 0.31694
 C762 C 0.91513 0.38781 0.20696
 C763 C 0.92518 0.38737 0.15118
 H764 H 0.85413 0.27852 0.34780
 H765 H 0.88299 0.29902 0.25908
 H766 H 0.91188 0.33857 0.20113
 H767 H 0.87964 0.38192 0.29155
 H768 H 0.85111 0.34247 0.35041
 H769 H 0.91987 0.40679 0.22610
 H770 H 0.81615 0.30086 0.36490
 H771 H 0.91906 0.36861 0.12945
   
