data_POSCAR
  _audit_creation_date              2014-09-24
  _audit_creation_method            'ToBaCCo'
  _symmetry_space_group_name_H-M    'P1'
  _symmetry_Int_Tables_number       1
  _symmetry_cell_setting            triclinic
  loop_
  _symmetry_equiv_pos_as_xyz
 x,y,z
_cell_length_a 36.5619
_cell_length_b 35.6352
_cell_length_c 8.4319
_cell_angle_alpha 92.557400
_cell_angle_beta 89.840400
_cell_angle_gamma 89.956500
loop_
  _atom_site_label
  _atom_site_type_symbol
  _atom_site_fract_x
  _atom_site_fract_y
  _atom_site_fract_z
C1 C 0.31345 0.28270 0.42506
 C2 C 0.33141 0.24840 0.43771
 C3 C 0.31271 0.21408 0.42059
 C4 C 0.27392 0.21447 0.40363
 C5 C 0.25518 0.24938 0.39847
 C6 C 0.27509 0.28354 0.40806
 C7 C 0.25603 0.31780 0.40769
 C8 C 0.21811 0.31863 0.39998
 C9 C 0.19769 0.28523 0.39161
 C10 C 0.21630 0.25026 0.39000
 C11 C 0.25298 0.18139 0.40796
 C12 C 0.21511 0.18219 0.39602
 C13 C 0.19607 0.21625 0.38424
 C14 C 0.15722 0.21738 0.38110
 C15 C 0.13952 0.25236 0.39102
 C16 C 0.15906 0.28599 0.39141
 H17 H 0.27019 0.34443 0.41877
 H18 H 0.20491 0.34584 0.40630
 H19 H 0.26533 0.15449 0.42819
 H20 H 0.20083 0.15581 0.40508
 H21 H 0.36095 0.24854 0.45068
 H22 H 0.10996 0.25366 0.38157
 C23 C 0.66766 0.21291 0.14776
 C24 C 0.64833 0.24671 0.16331
 C25 C 0.66513 0.28098 0.13527
 C26 C 0.70255 0.28184 0.09304
 C27 C 0.72298 0.24798 0.08402
 C28 C 0.70534 0.21327 0.10945
 C29 C 0.72582 0.17994 0.09641
 C30 C 0.76298 0.18069 0.06035
 C31 C 0.78135 0.21488 0.04051
 C32 C 0.76112 0.24885 0.05036
 C33 C 0.72002 0.31562 0.05950
 C34 C 0.75714 0.31634 0.02307
 C35 C 0.77883 0.28367 0.02658
 C36 C 0.81727 0.28441 -0.00272
 C37 C 0.83621 0.25013 -0.02072
 C38 C 0.81925 0.21584 0.00700
 H39 H 0.71322 0.15293 0.11361
 H40 H 0.77711 0.15405 0.04655
 H41 H 0.70505 0.34183 0.05951
 H42 H 0.76843 0.34287 -0.01044
 H43 H 0.61968 0.24634 0.19727
 H44 H 0.86551 0.25020 -0.04155
 C45 C 0.67810 0.71848 0.59426
 C46 C 0.66159 0.75347 0.57982
 C47 C 0.68206 0.78663 0.59024
 C48 C 0.72056 0.78476 0.60563
 C49 C 0.73772 0.74933 0.61946
 C50 C 0.71637 0.71612 0.61446
 C51 C 0.73397 0.68124 0.62251
 C52 C 0.77157 0.67906 0.64247
 C53 C 0.79323 0.71167 0.65648
 C54 C 0.77633 0.74702 0.63587
 C55 C 0.74245 0.81706 0.60090
 C56 C 0.78042 0.81463 0.61001
 C57 C 0.79793 0.77997 0.63002
 C58 C 0.83649 0.77716 0.63961
 C59 C 0.85272 0.74205 0.65861
 C60 C 0.83169 0.70963 0.67807
 H61 H 0.71893 0.65513 0.61028
 H62 H 0.78358 0.65131 0.64102
 H63 H 0.73050 0.84441 0.58443
 H64 H 0.79587 0.84023 0.59851
 H65 H 0.63214 0.75499 0.56581
 H66 H 0.88217 0.74075 0.67320
 C67 C 0.18809 0.71213 1.05259
 C68 C 0.16918 0.74494 1.10160
 C69 C 0.18368 0.78101 1.08070
 C70 C 0.22038 0.78409 1.02389
 C71 C 0.24121 0.75100 0.98918
 C72 C 0.22530 0.71508 1.00658
 C73 C 0.24773 0.68304 0.98816
 C74 C 0.28372 0.68570 0.93752
 C75 C 0.29931 0.72068 0.90873
 C76 C 0.27828 0.75374 0.93829
 C77 C 0.23780 0.81918 1.01092
 C78 C 0.27367 0.82178 0.95609
 C79 C 0.29439 0.78944 0.91847
 C80 C 0.33083 0.79165 0.86171
 C81 C 0.35066 0.75864 0.82798
 C82 C 0.33565 0.72342 0.85349
 H83 H 0.23785 0.65545 1.01536
 H84 H 0.29928 0.65994 0.92200
 H85 H 0.22439 0.84522 1.04665
 H86 H 0.28520 0.84952 0.94572
 H87 H 0.14062 0.74236 1.13444
 H88 H 0.37851 0.76041 0.78417
 O89 O 0.97698 -0.03496 -0.23082
 O90 O 1.04671 0.03602 -0.10900
 O91 O 1.04667 -0.03571 -0.16149
 O92 O 0.97844 0.03874 -0.19507
 O93 O 0.96330 0.03391 0.05687
 O94 O 1.03156 -0.04233 0.08941
 O95 O 1.03062 0.03039 0.14176
 O96 O 0.96147 -0.03874 0.02129
 Cu97 Cu 1.01359 0.00146 -0.19961
 Cu98 Cu 0.99512 -0.00510 0.10197
 C99 C 0.95702 -0.04853 -0.12357
 C100 C 1.05022 0.04527 0.03769
 C101 C 1.05139 -0.05127 -0.03084
 C102 C 0.95968 0.04962 -0.07466
 O103 O 0.53787 0.46192 0.58001
 O104 O 0.46893 0.53534 0.67132
 O105 O 0.46872 0.46167 0.65031
 O106 O 0.53806 0.53511 0.60748
 O107 O 0.52569 0.53770 0.35213
 O108 O 0.45660 0.46362 0.39453
 O109 O 0.45655 0.53682 0.41568
 O110 O 0.52594 0.46410 0.32429
 Cu111 Cu 0.50474 0.49820 0.65207
 Cu112 Cu 0.48985 0.50067 0.34667
 C113 C 0.54357 0.45031 0.43747
 C114 C 0.45132 0.54902 0.55759
 C115 C 0.45103 0.44983 0.52872
 C116 C 0.54326 0.54945 0.47434
 O117 O 0.04734 0.53142 -0.09974
 O118 O -0.01924 0.45434 -0.17550
 O119 O -0.01475 0.52929 -0.22768
 O120 O 0.05005 0.46159 -0.08117
 O121 O 0.02556 0.46733 0.15862
 O122 O -0.03992 0.53687 0.01013
 O123 O -0.04232 0.46498 0.06428
 O124 O 0.02413 0.54027 0.14123
 Cu125 Cu 0.01667 0.49214 -0.17116
 Cu126 Cu -0.01058 0.50311 0.11719
 C127 C 0.04688 0.54900 0.03517
 C128 C -0.04171 0.44619 -0.06660
 C129 C -0.03732 0.54580 -0.13395
 C130 C 0.04938 0.45307 0.06311
 O131 O 0.47067 1.04447 0.64078
 O132 O 0.53869 0.96828 0.61079
 O133 O 0.53970 1.04057 0.58150
 O134 O 0.46858 0.97134 0.67182
 O135 O 0.45815 0.96289 0.41517
 O136 O 0.52830 1.03333 0.32503
 O137 O 0.52769 0.96052 0.35419
 O138 O 0.45841 1.03559 0.38563
 Cu139 Cu 0.50551 1.00690 0.65184
 Cu140 Cu 0.49188 0.99721 0.34518
 C141 C 0.45336 1.05339 0.51764
 C142 C 0.54480 0.95140 0.47762
 C143 C 0.54583 1.04922 0.43941
 C144 C 0.45155 0.95481 0.55756
 C145 C 1.12373 0.13060 0.18787
 C146 C 1.09013 0.12606 0.26525
 N147 N 1.07997 0.15087 0.38385
 C148 C 1.10170 0.18045 0.42731
 C149 C 1.13568 0.18512 0.35088
 N150 N 1.14578 0.15968 0.23322
 N151 N 1.13292 0.10698 0.06323
 C152 C 1.10985 0.07912 0.01161
 C153 C 1.07633 0.07440 0.08970
 N154 N 1.06747 0.09786 0.21584
 H155 H 1.09272 0.19985 0.52203
 H156 H 1.11767 0.06073 -0.08835
 C157 C 0.61415 0.64277 0.46004
 C158 C 0.60980 0.62308 0.59936
 N159 N 0.62763 0.63482 0.73345
 C160 C 0.64978 0.66542 0.73435
 C161 C 0.65430 0.68512 0.59507
 N162 N 0.63617 0.67346 0.46096
 N163 N 0.59615 0.63098 0.32638
 C164 C 0.57382 0.60044 0.32572
 C165 C 0.56911 0.58089 0.46550
 N166 N 0.58736 0.59281 0.59894
 H167 H 0.66375 0.67440 0.84246
 H168 H 0.55950 0.59192 0.21791
 C169 C -0.11127 0.35151 -0.10283
 C170 C -0.11757 0.38071 0.01071
 N171 N -0.14542 0.37794 0.11585
 C172 C -0.16765 0.34739 0.11197
 C173 C -0.16184 0.31784 -0.00252
 N174 N -0.13304 0.32059 -0.10505
 N175 N -0.08326 0.35443 -0.20791
 C176 C -0.06110 0.38519 -0.20370
 C177 C -0.06688 0.41411 -0.08730
 N178 N -0.09510 0.41098 0.01702
 H179 H -0.18856 0.34557 0.20232
 H180 H -0.03864 0.38654 -0.28725
 C181 C 0.37910 0.86562 0.64767
 C182 C 0.39231 0.88898 0.77317
 N183 N 0.38319 0.88148 0.92493
 C184 C 0.36186 0.85139 0.95681
 C185 C 0.34937 0.82749 0.83138
 N186 N 0.35839 0.83527 0.67963
 N187 N 0.38826 0.87284 0.49610
 C188 C 0.41045 0.90212 0.46390
 C189 C 0.42474 0.92503 0.58922
 N190 N 0.41504 0.91794 0.74137
 H191 H 0.35567 0.84542 1.07874
 H192 H 0.41759 0.90680 0.34171
 C193 C -0.09751 0.63801 -0.29137
 C194 C -0.11164 0.61590 -0.17198
 N195 N -0.14449 0.62486 -0.10538
 C196 C -0.16409 0.65471 -0.15398
 C197 C -0.15009 0.67704 -0.27447
 N198 N -0.11664 0.66823 -0.33746
 N199 N -0.06488 0.62897 -0.35948
 C200 C -0.04562 0.59874 -0.31362
 C201 C -0.05923 0.57693 -0.19172
 N202 N -0.09199 0.58615 -0.12316
 H203 H -0.18958 0.66182 -0.09418
 H204 H -0.01948 0.59239 -0.36911
 C205 C 0.38344 1.14780 0.53033
 C206 C 0.37859 1.11842 0.41610
 N207 N 0.35163 1.12083 0.30676
 C208 C 0.32909 1.15122 0.30704
 C209 C 0.33384 1.18096 0.42123
 N210 N 0.36156 1.17851 0.52824
 N211 N 0.40996 1.14519 0.64152
 C212 C 0.43208 1.11453 0.64316
 C213 C 0.42799 1.08545 0.52623
 N214 N 0.40125 1.08819 0.41510
 H215 H 0.30859 1.15273 0.21528
 H216 H 0.45324 1.11333 0.73243
 C217 C 1.13476 -0.13330 -0.01369
 C218 C 1.10692 -0.13178 0.10127
 N219 N 1.10607 -0.15802 0.21299
 C220 C 1.13142 -0.18604 0.21326
 C221 C 1.15942 -0.18796 0.09691
 N222 N 1.16008 -0.16110 -0.01306
 N223 N 1.13526 -0.10787 -0.12832
 C224 C 1.10893 -0.08113 -0.13466
 C225 C 1.08067 -0.07956 -0.02090
 N226 N 1.08054 -0.10485 0.09587
 H227 H 1.12987 -0.20640 0.30457
 H228 H 1.11010 -0.06126 -0.22791
 C229 C 0.61624 0.35954 0.34513
 C230 C 0.59897 0.37709 0.21951
 N231 N 0.60460 0.36365 0.06801
 C232 C 0.62645 0.33322 0.03680
 C233 C 0.64324 0.31540 0.16274
 N234 N 0.63774 0.32907 0.31407
 N235 N 0.61061 0.37273 0.49649
 C236 C 0.58819 0.40252 0.52867
 C237 C 0.57016 0.41980 0.40398
 N238 N 0.57620 0.40666 0.25166
 H239 H 0.63030 0.32269 -0.08442
 H240 H 0.58402 0.41213 0.65084
 C241 C 0.87805 -0.13283 -0.21504
 C242 C 0.90917 -0.13061 -0.31241
 N243 N 0.91528 -0.15781 -0.42734
 C244 C 0.89177 -0.18718 -0.44886
 C245 C 0.86062 -0.18945 -0.35151
 N246 N 0.85466 -0.16210 -0.23657
 N247 N 0.87256 -0.10661 -0.09593
 C248 C 0.89706 -0.07848 -0.06806
 C249 C 0.92848 -0.07632 -0.16399
 N250 N 0.93363 -0.10235 -0.28524
 H251 H 0.89754 -0.20884 -0.53947
 H252 H 0.89233 -0.05828 0.02964
 C253 C 0.37772 0.35867 0.55345
 C254 C 0.38133 0.37839 0.41370
 N255 N 0.36203 0.36724 0.28269
 C256 C 0.33938 0.33705 0.28472
 C257 C 0.33607 0.31696 0.42362
 N258 N 0.35545 0.32821 0.55495
 N259 N 0.39703 0.36993 0.68437
 C260 C 0.42011 0.39982 0.68148
 C261 C 0.42441 0.41913 0.54066
 N262 N 0.40467 0.40790 0.41027
 H263 H 0.32446 0.32842 0.17858
 H264 H 0.43543 0.40793 0.78713
 C265 C 0.11824 0.64095 0.12028
 C266 C 0.12290 0.61648 -0.01327
 N267 N 0.14973 0.62327 -0.11935
 C268 C 0.17225 0.65338 -0.09820
 C269 C 0.16778 0.67834 0.03562
 N270 N 0.14027 0.67144 0.14016
 N271 N 0.09120 0.63433 0.22595
 C272 C 0.06837 0.60447 0.20331
 C273 C 0.07246 0.58030 0.06772
 N274 N 0.09981 0.58696 -0.03725
 H275 H 0.19203 0.65880 -0.19006
 H276 H 0.04680 0.60015 0.28867
 C277 C 0.61908 1.13808 0.35567
 C278 C 0.60334 1.11719 0.22800
 N279 N 0.61049 1.12684 0.07705
 C280 C 0.63232 1.15669 0.04803
 C281 C 0.64738 1.17805 0.17559
 N282 N 0.64041 1.16821 0.32680
 N283 N 0.61193 1.12857 0.50650
 C284 C 0.58940 1.09938 0.53592
 C285 C 0.57276 1.07891 0.40889
 N286 N 0.58038 1.08829 0.25733
 H287 H 0.63716 1.16431 -0.07306
 H288 H 0.58396 1.09275 0.65767
 C289 C 0.12335 0.36984 0.20076
 C290 C 0.09339 0.37994 0.29818
 N291 N 0.08683 0.36067 0.43076
 C292 C 0.10857 0.33136 0.46867
 C293 C 0.13809 0.32078 0.36902
 N294 N 0.14476 0.34052 0.23781
 N295 N 0.12957 0.38827 0.06634
 C296 C 0.10682 0.41605 0.02289
 C297 C 0.07621 0.42574 0.11755
 N298 N 0.07043 0.40766 0.25449
 H299 H 0.10244 0.31590 0.57320
 H300 H 0.11227 0.42993 -0.08625
 C301 C 0.61825 0.85973 0.45874
 C302 C 0.61669 0.88440 0.59307
 N303 N 0.63804 0.87786 0.72048
 C304 C 0.66064 0.84749 0.72033
 C305 C 0.66166 0.82235 0.58702
 N306 N 0.64029 0.82912 0.45954
 N307 N 0.59696 0.86620 0.33130
 C308 C 0.57384 0.89610 0.33232
 C309 C 0.57144 0.92037 0.46817
 N310 N 0.59314 0.91391 0.59539
 H311 H 0.67677 0.84235 0.82482
 H312 H 0.55692 0.90031 0.22951
 C313 C 0.88666 0.14119 -0.10708
 C314 C 0.88975 0.12205 0.03434
 N315 N 0.86954 0.13349 0.16286
 C316 C 0.84628 0.16317 0.15618
 C317 C 0.84290 0.18223 0.01437
 N318 N 0.86354 0.17093 -0.11369
 N319 N 0.90709 0.12992 -0.23509
 C320 C 0.93049 0.10037 -0.22837
 C321 C 0.93378 0.08113 -0.08692
 N322 N 0.91323 0.09260 0.04132
 H323 H 0.83083 0.17211 0.26085
 H324 H 0.94661 0.09223 -0.33208
 C325 C 0.38154 0.64240 0.64491
 C326 C 0.40151 0.62714 0.76882
 N327 N 0.39952 0.64351 0.91708
 C328 C 0.37854 0.67456 0.94698
 C329 C 0.35880 0.68999 0.82308
 N330 N 0.36066 0.67347 0.67459
 N331 N 0.38364 0.62609 0.49670
 C332 C 0.40508 0.59541 0.46617
 C333 C 0.42558 0.58034 0.58939
 N334 N 0.42310 0.59663 0.73825
 H335 H 0.37721 0.68713 1.06608
 H336 H 0.40649 0.58329 0.34635
   
