data_POSCAR
  _audit_creation_date              2014-09-24
  _audit_creation_method            'ToBaCCo'
  _symmetry_space_group_name_H-M    'P1'
  _symmetry_Int_Tables_number       1
  _symmetry_cell_setting            triclinic
  loop_
  _symmetry_equiv_pos_as_xyz
 x,y,z
_cell_length_a 45.2925
_cell_length_b 44.7696
_cell_length_c 41.5428
_cell_angle_alpha 90.083200
_cell_angle_beta 89.990400
_cell_angle_gamma 118.141500
loop_
  _atom_site_label
  _atom_site_type_symbol
  _atom_site_fract_x
  _atom_site_fract_y
  _atom_site_fract_z
O1 O -0.00076 0.51254 -0.03463
 O2 O 0.03414 0.47063 0.01842
 O3 O -0.00531 0.45220 -0.03116
 O4 O 0.04115 0.53171 0.01422
 O5 O -0.00190 0.51703 0.04684
 O6 O -0.04944 0.43928 -0.00051
 O7 O -0.00916 0.45578 0.05088
 O8 O -0.04303 0.49842 -0.00100
 Cu9 Cu 0.02167 0.49335 -0.01153
 Cu10 Cu -0.03001 0.47580 0.02768
 C11 C -0.02827 0.51199 -0.02707
 C12 C 0.01845 0.45645 0.04399
 C13 C -0.03587 0.43286 -0.02448
 C14 C 0.02776 0.53785 0.03846
 O15 O 0.55469 0.50274 -0.00401
 O16 O 0.47690 0.46940 0.04382
 O17 O 0.49709 0.44879 -0.00623
 O18 O 0.53449 0.52305 0.04687
 O19 O 0.51852 0.55120 0.01364
 O20 O 0.47571 0.47424 -0.03641
 O21 O 0.45987 0.49916 0.01400
 O22 O 0.53482 0.52784 -0.03662
 Cu23 Cu 0.51777 0.48333 0.02323
 Cu24 Cu 0.49526 0.51563 -0.01471
 C25 C 0.55779 0.52058 -0.02881
 C26 C 0.45569 0.47964 0.03765
 C27 C 0.47972 0.44852 -0.03032
 C28 C 0.53280 0.54969 0.03943
 O29 O 0.44694 0.95203 0.00110
 O30 O 0.52093 0.99421 -0.05033
 O31 O 0.50504 0.95423 0.00039
 O32 O 0.46357 0.99372 -0.04742
 O33 O 0.48721 1.03889 -0.01634
 O34 O 0.52244 0.99704 0.03462
 O35 O 0.54355 1.03683 -0.01591
 O36 O 0.46580 0.99711 0.03248
 Cu37 Cu 0.48221 0.96916 -0.02741
 Cu38 Cu 0.50693 1.02196 0.01190
 C39 C 0.44359 0.96715 0.02558
 C40 C 0.54471 1.02267 -0.04208
 C41 C 0.51939 0.96841 0.02658
 C42 C 0.46912 1.02364 -0.04046
 O43 O 1.04454 0.54446 0.48727
 O44 O 0.99658 0.47104 0.53941
 O45 O 1.03717 0.48246 0.49053
 O46 O 1.00383 0.53092 0.53626
 O47 O 0.95940 0.50989 0.50465
 O48 O 0.99765 0.47028 0.45423
 O49 O 0.95562 0.45060 0.50361
 O50 O 1.00025 0.52898 0.45612
 Cu51 Cu 1.02514 0.50903 0.51646
 Cu52 Cu 0.97396 0.48792 0.47619
 C53 C 1.03037 0.54976 0.46317
 C54 C 0.96771 0.44867 0.53065
 C55 C 1.02392 0.46944 0.46363
 C56 C 0.97498 0.52718 0.52911
 O57 O 0.53965 0.53905 0.54371
 O58 O 0.46411 0.50895 0.49374
 O59 O 0.48124 0.48489 0.54410
 O60 O 0.52236 0.56148 0.49324
 O61 O 0.53876 0.53345 0.46020
 O62 O 0.50220 0.45944 0.51317
 O63 O 0.48155 0.47970 0.46355
 O64 O 0.55950 0.51379 0.51119
 Cu65 Cu 0.49987 0.52613 0.52206
 Cu66 Cu 0.52257 0.49400 0.48391
 C67 C 0.56259 0.53174 0.53598
 C68 C 0.46010 0.48955 0.46998
 C69 C 0.48532 0.45929 0.53759
 C70 C 0.53647 0.55985 0.46735
 O71 O 0.50755 -0.03502 0.48601
 O72 O 0.46422 0.00228 0.53394
 O73 O 0.44850 -0.03921 0.48492
 O74 O 0.52242 0.00549 0.53612
 O75 O 0.54357 0.04800 0.50162
 O76 O 0.46554 0.00569 0.45377
 O77 O 0.48604 0.04734 0.50259
 O78 O 0.52314 0.00717 0.45141
 Cu79 Cu 0.48383 -0.02105 0.51351
 Cu80 Cu 0.50661 0.03147 0.47405
 C81 C 0.52144 -0.02084 0.45973
 C82 C 0.46875 0.03181 0.52698
 C83 C 0.44410 -0.02459 0.46061
 C84 C 0.54539 0.03443 0.52790
 C85 C 0.11207 0.37250 0.27421
 C86 C 0.11107 0.37067 0.24118
 C87 C 0.14373 0.38978 0.23065
 N88 N 0.16458 0.40313 0.25595
 C89 C 0.14528 0.39298 0.28259
 C90 C 0.15341 0.39952 0.19850
 C91 C 0.18709 0.41186 0.18847
 C92 C 0.20035 0.42790 0.15946
 C93 C 0.23302 0.43392 0.15846
 C94 C 0.23930 0.42247 0.18736
 N95 N 0.21104 0.40862 0.20530
 C96 C 0.27008 0.42376 0.19606
 C97 C 0.27871 0.42131 0.22829
 C98 C 0.30803 0.42126 0.23785
 C99 C 0.30892 0.42308 0.27079
 C100 C 0.28018 0.42427 0.28039
 N101 N 0.26182 0.42333 0.25435
 C102 C 0.27340 0.43046 0.31221
 C103 C 0.24356 0.43118 0.32089
 C104 C 0.23950 0.44703 0.34795
 C105 C 0.20690 0.44126 0.34780
 C106 C 0.19143 0.42084 0.32136
 N107 N 0.21411 0.41505 0.30498
 C108 C 0.15695 0.40670 0.31347
 H109 H 0.09069 0.36135 0.29017
 H110 H 0.08879 0.35789 0.22651
 H111 H 0.20906 0.39827 0.28583
 H112 H 0.18804 0.43474 0.14077
 H113 H 0.25014 0.44579 0.13872
 H114 H 0.32748 0.42126 0.22275
 H115 H 0.32920 0.42478 0.28576
 H116 H 0.19613 0.45118 0.36532
 H117 H 0.20752 0.39505 0.22656
 H118 H 0.25801 0.46167 0.36589
 C119 C 0.62313 0.72417 0.23437
 C120 C 0.62319 0.72518 0.26743
 C121 C 0.60794 0.74455 0.27605
 N122 N 0.59898 0.75571 0.24953
 C123 C 0.60783 0.74295 0.22405
 C124 C 0.59728 0.74719 0.30735
 C125 C 0.58812 0.77249 0.31498
 C126 C 0.56881 0.77201 0.34110
 C127 C 0.56693 0.80180 0.34017
 C128 C 0.58508 0.81958 0.31348
 N129 N 0.59786 0.80153 0.29827
 C130 C 0.59054 0.85212 0.30406
 C131 C 0.59948 0.86349 0.27209
 C132 C 0.61097 0.89649 0.26158
 C133 C 0.61066 0.89536 0.22851
 C134 C 0.59905 0.86172 0.22003
 N135 N 0.59262 0.84238 0.24667
 C136 C 0.58960 0.84822 0.18873
 C137 C 0.58428 0.81524 0.18129
 C138 C 0.56595 0.79576 0.15537
 C139 C 0.56805 0.76608 0.15640
 C140 C 0.58765 0.76834 0.18289
 N141 N 0.59737 0.79834 0.19793
 C142 C 0.59711 0.74372 0.19233
 H143 H 0.63197 0.71006 0.21963
 H144 H 0.63208 0.71200 0.28333
 H145 H 0.61437 0.80797 0.21694
 H146 H 0.55691 0.75215 0.35878
 H147 H 0.55331 0.80920 0.35700
 H148 H 0.61766 0.91880 0.27621
 H149 H 0.61705 0.91661 0.21253
 H150 H 0.55609 0.74513 0.13976
 H151 H 0.61468 0.80989 0.27907
 H152 H 0.55211 0.80198 0.13778
 C153 C 0.30891 0.86272 0.26128
 C154 C 0.30877 0.86188 0.22827
 C155 C 0.27564 0.84284 0.21893
 N156 N 0.25555 0.83215 0.24508
 C157 C 0.27585 0.84426 0.27101
 C158 C 0.26412 0.83661 0.18678
 C159 C 0.23168 0.81100 0.17858
 C160 C 0.21633 0.80773 0.14895
 C161 C 0.18727 0.77731 0.14940
 C162 C 0.18568 0.76295 0.17931
 N163 N 0.21268 0.78376 0.19701
 C164 C 0.16160 0.73001 0.18857
 C165 C 0.15660 0.71945 0.22105
 C166 C 0.13832 0.68623 0.23139
 C167 C 0.13837 0.68722 0.26440
 C168 C 0.15669 0.72101 0.27310
 N169 N 0.16772 0.74066 0.24658
 C170 C 0.16180 0.73350 0.30498
 C171 C 0.18585 0.76695 0.31280
 C172 C 0.18742 0.78307 0.34175
 C173 C 0.21654 0.81344 0.34118
 C174 C 0.23197 0.81489 0.31195
 N175 N 0.21291 0.78662 0.29469
 C176 C 0.26451 0.83984 0.30322
 H177 H 0.33093 0.87520 0.27632
 H178 H 0.33063 0.87359 0.21296
 H179 H 0.22034 0.77902 0.27390
 H180 H 0.22557 0.82502 0.12880
 H181 H 0.16972 0.76660 0.12969
 H182 H 0.12638 0.66360 0.21674
 H183 H 0.12648 0.66549 0.28013
 H184 H 0.22578 0.83189 0.36046
 H185 H 0.22010 0.77749 0.21855
 H186 H 0.16984 0.77356 0.36153
 C187 C 0.70064 0.56411 0.73833
 C188 C 0.70040 0.56275 0.77134
 C189 C 0.73358 0.57718 0.78106
 N190 N 0.75402 0.58745 0.75518
 C191 C 0.73396 0.57935 0.72902
 C192 C 0.74478 0.58182 0.81333
 C193 C 0.77804 0.59009 0.82155
 C194 C 0.79269 0.60189 0.85137
 C195 C 0.82327 0.60228 0.85085
 C196 C 0.82637 0.59063 0.82073
 N197 N 0.79891 0.58370 0.80291
 C198 C 0.85177 0.58239 0.81172
 C199 C 0.85804 0.57811 0.77917
 C200 C 0.87698 0.56315 0.76849
 C201 C 0.87735 0.56486 0.73550
 C202 C 0.85859 0.58077 0.72715
 N203 N 0.84694 0.58897 0.75387
 C204 C 0.85291 0.58823 0.69544
 C205 C 0.82767 0.59723 0.68818
 C206 C 0.82495 0.61144 0.65942
 C207 C 0.79424 0.61076 0.65976
 C208 C 0.77919 0.59625 0.68876
 N209 N 0.79990 0.58851 0.70609
 C210 C 0.74565 0.58662 0.69699
 H211 H 0.67876 0.55460 0.72300
 H212 H 0.67829 0.55197 0.78638
 H213 H 0.79324 0.57324 0.72646
 H214 H 0.78198 0.60850 0.87172
 H215 H 0.84071 0.60917 0.87074
 H216 H 0.88881 0.55163 0.78284
 H217 H 0.88952 0.55493 0.71957
 H218 H 0.78368 0.61888 0.64042
 H219 H 0.79256 0.57044 0.78126
 H220 H 0.84267 0.62013 0.63972
 C221 C 0.42590 0.13018 0.73042
 C222 C 0.42572 0.12927 0.76344
 C223 C 0.41016 0.14785 0.77370
 N224 N 0.40089 0.16010 0.74810
 C225 C 0.41058 0.14941 0.72163
 C226 C 0.40374 0.15266 0.80608
 C227 C 0.39526 0.17818 0.81491
 C228 C 0.38149 0.18011 0.84416
 C229 C 0.38237 0.21130 0.84512
 C230 C 0.39668 0.22748 0.81645
 N231 N 0.40395 0.20690 0.79801
 C232 C 0.40684 0.26187 0.80948
 C233 C 0.41425 0.27455 0.77772
 C234 C 0.43168 0.30848 0.76930
 C235 C 0.43226 0.30965 0.73630
 C236 C 0.41526 0.27640 0.72568
 N237 N 0.40420 0.25501 0.75101
 C238 C 0.40931 0.26601 0.69316
 C239 C 0.39916 0.23216 0.68394
 C240 C 0.38623 0.21826 0.65409
 C241 C 0.38490 0.18689 0.65313
 C242 C 0.39713 0.18261 0.68241
 N243 N 0.40525 0.21007 0.70118
 C244 C 0.40490 0.15628 0.68970
 H245 H 0.43668 0.11855 0.71477
 H246 H 0.43640 0.11683 0.77809
 H247 H 0.41915 0.21570 0.72234
 H248 H 0.37289 0.16152 0.86328
 H249 H 0.37457 0.22143 0.86514
 H250 H 0.44331 0.33016 0.78518
 H251 H 0.44437 0.33237 0.72186
 H252 H 0.37713 0.16978 0.63275
 H253 H 0.41882 0.21418 0.77746
 H254 H 0.37967 0.23007 0.63461
 C255 C 0.70910 0.11099 0.75797
 C256 C 0.70844 0.11378 0.72511
 C257 C 0.72682 0.14797 0.71807
 N258 N 0.73898 0.16606 0.74539
 C259 C 0.72801 0.14355 0.76980
 C260 C 0.72838 0.16268 0.68766
 C261 C 0.75208 0.19662 0.68099
 C262 C 0.75058 0.21549 0.65519
 C263 C 0.77911 0.24625 0.65645
 C264 C 0.79708 0.24543 0.68316
 N265 N 0.78047 0.21513 0.69799
 C266 C 0.82881 0.27164 0.69230
 C267 C 0.84121 0.27487 0.72410
 C268 C 0.87303 0.29833 0.73395
 C269 C 0.87348 0.29643 0.76685
 C270 C 0.84223 0.27109 0.77615
 N271 N 0.82249 0.25811 0.74990
 C272 C 0.83108 0.26271 0.80838
 C273 C 0.80049 0.23384 0.81654
 C274 C 0.78489 0.22798 0.84638
 C275 C 0.75625 0.19751 0.84443
 C276 C 0.75552 0.18470 0.81388
 N277 N 0.78272 0.20691 0.79711
 C278 C 0.73080 0.15272 0.80259
 H279 H 0.69626 0.08783 0.77172
 H280 H 0.69504 0.09317 0.70840
 H281 H 0.79025 0.20263 0.77468
 H282 H 0.73101 0.20803 0.63729
 H283 H 0.78576 0.26695 0.63972
 H284 H 0.89359 0.31576 0.71914
 H285 H 0.89446 0.31254 0.78191
 H286 H 0.73824 0.18625 0.86362
 H287 H 0.78973 0.20642 0.71668
 H288 H 0.79292 0.24366 0.86769
 C289 C 0.06770 0.42265 0.11087
 C290 C 0.05092 0.44026 0.12192
 C291 C 0.03320 0.44943 0.09992
 C292 C 0.03346 0.44249 0.06694
 C293 C 0.05027 0.42475 0.05614
 C294 C 0.06705 0.41425 0.07819
 C295 C 0.08745 0.41410 0.13375
 C296 C 0.10423 0.39644 0.12285
 C297 C 0.12404 0.38954 0.14456
 C298 C 0.12863 0.40199 0.17637
 C299 C 0.11121 0.41930 0.18684
 C300 C 0.09024 0.42496 0.16583
 C301 C 0.08386 0.39627 0.06821
 C302 C 0.10184 0.38720 0.09022
 C303 C 0.05321 0.44944 0.15452
 C304 C 0.07282 0.44221 0.17605
 H305 H 0.08337 0.38941 0.04312
 H306 H 0.11469 0.37363 0.08146
 H307 H 0.04042 0.46307 0.16329
 H308 H 0.07463 0.45050 0.20083
 H309 H 0.02068 0.46357 0.10816
 H310 H 0.05045 0.41941 0.03070
 H311 H 0.13712 0.37595 0.13642
 H312 H 0.11478 0.42924 0.21116
 C313 C 0.56609 0.63264 0.10497
 C314 C 0.57419 0.63925 0.07219
 C315 C 0.56354 0.61196 0.05057
 C316 C 0.54596 0.57847 0.06189
 C317 C 0.53900 0.57228 0.09490
 C318 C 0.54840 0.59929 0.11649
 C319 C 0.57551 0.66115 0.12753
 C320 C 0.56549 0.65445 0.15983
 C321 C 0.57283 0.68156 0.18078
 C322 C 0.59114 0.71527 0.17001
 C323 C 0.60199 0.72154 0.13775
 C324 C 0.59357 0.69453 0.11620
 C325 C 0.53968 0.59363 0.14919
 C326 C 0.54781 0.62076 0.17045
 C327 C 0.59232 0.67298 0.06173
 C328 C 0.60212 0.70015 0.08342
 H329 H 0.52593 0.56801 0.15830
 H330 H 0.54011 0.61533 0.19538
 H331 H 0.59889 0.67844 0.03656
 H332 H 0.61597 0.72577 0.07435
 H333 H 0.56888 0.61665 0.02509
 H334 H 0.52499 0.54645 0.10350
 H335 H 0.56385 0.67646 0.20538
 H336 H 0.61608 0.74741 0.12932
 C337 C 0.36198 0.91262 0.09013
 C338 C 0.36933 0.89512 0.06604
 C339 C 0.39520 0.91340 0.04426
 C340 C 0.41426 0.94889 0.04683
 C341 C 0.40632 0.96613 0.07091
 C342 C 0.38004 0.94808 0.09258
 C343 C 0.33554 0.89333 0.11381
 C344 C 0.32838 0.91074 0.13816
 C345 C 0.30396 0.89216 0.16125
 C346 C 0.28753 0.85647 0.16053
 C347 C 0.29475 0.83949 0.13572
 C348 C 0.31860 0.85779 0.11218
 C349 C 0.37187 0.96463 0.11705
 C350 C 0.34638 0.94628 0.13937
 C351 C 0.35125 0.85960 0.06471
 C352 C 0.32640 0.84123 0.08748
 H353 H 0.38550 0.99197 0.11915
 H354 H 0.34110 0.96001 0.15804
 H355 H 0.35672 0.84585 0.04621
 H356 H 0.31341 0.81383 0.08592
 H357 H 0.40125 0.89981 0.02601
 H358 H 0.42081 0.99343 0.07305
 H359 H 0.29836 0.90527 0.18032
 H360 H 0.28231 0.81203 0.13525
 C361 C 0.92462 0.56106 0.59508
 C362 C 0.90643 0.53814 0.57055
 C363 C 0.92346 0.52867 0.54803
 C364 C 0.95836 0.54121 0.55036
 C365 C 0.97636 0.56472 0.57475
 C366 C 0.95958 0.57483 0.59715
 C367 C 0.90656 0.56980 0.61975
 C368 C 0.92463 0.59231 0.64463
 C369 C 0.90715 0.59950 0.66871
 C370 C 0.87189 0.58351 0.66841
 C371 C 0.85427 0.56134 0.64307
 C372 C 0.87146 0.55455 0.61857
 C373 C 0.97685 0.59768 0.62211
 C374 C 0.95968 0.60640 0.64536
 C375 C 0.87141 0.52421 0.56965
 C376 C 0.85420 0.53217 0.59336
 H377 H 1.00383 0.60860 0.62392
 H378 H 0.97392 0.62381 0.66441
 H379 H 0.85713 0.50649 0.55082
 H380 H 0.82712 0.52039 0.59215
 H381 H 0.90930 0.51034 0.52957
 H382 H 1.00322 0.57450 0.57672
 H383 H 0.92075 0.61665 0.68819
 H384 H 0.82712 0.54879 0.64293
 C385 C 0.44757 0.37340 0.60044
 C386 C 0.43526 0.39681 0.60340
 C387 C 0.44732 0.42483 0.58260
 C388 C 0.47125 0.42922 0.55884
 C389 C 0.48275 0.40505 0.55592
 C390 C 0.47125 0.37732 0.57680
 C391 C 0.43606 0.34467 0.62300
 C392 C 0.44946 0.32213 0.62077
 C393 C 0.43979 0.29592 0.64326
 C394 C 0.41669 0.29195 0.66768
 C395 C 0.40261 0.31408 0.66895
 C396 C 0.41259 0.34083 0.64689
 C397 C 0.48349 0.35379 0.57487
 C398 C 0.47287 0.32673 0.59658
 C399 C 0.41150 0.39190 0.62739
 C400 C 0.40028 0.36432 0.64868
 H401 H 0.50178 0.35659 0.55669
 H402 H 0.48329 0.30943 0.59458
 H403 H 0.40170 0.40966 0.62989
 H404 H 0.38217 0.36166 0.66701
 H405 H 0.43825 0.44322 0.58497
 H406 H 0.50131 0.40824 0.53789
 H407 H 0.45089 0.27912 0.64239
 H408 H 0.38478 0.31103 0.68773
 C409 C 0.62417 0.08861 0.59499
 C410 C 0.59069 0.07275 0.60529
 C411 C 0.56532 0.05456 0.58302
 C412 C 0.57307 0.05309 0.55048
 C413 C 0.60663 0.06965 0.54022
 C414 C 0.63246 0.08701 0.56264
 C415 C 0.65099 0.10732 0.61857
 C416 C 0.68458 0.12235 0.60866
 C417 C 0.70999 0.13976 0.63140
 C418 C 0.70179 0.14310 0.66349
 C419 C 0.66790 0.12840 0.67270
 C420 C 0.64246 0.10996 0.65055
 C421 C 0.66636 0.10270 0.55354
 C422 C 0.69197 0.11981 0.57621
 C423 C 0.58320 0.07557 0.63759
 C424 C 0.60865 0.09414 0.65979
 H425 H 0.67316 0.10159 0.52873
 H426 H 0.71777 0.13139 0.56820
 H427 H 0.55743 0.06355 0.64572
 H428 H 0.60182 0.09594 0.68445
 H429 H 0.53939 0.04215 0.59079
 H430 H 0.61254 0.06841 0.51512
 H431 H 0.73603 0.15108 0.62417
 H432 H 0.66140 0.13131 0.69720
 C433 C 0.43438 0.07606 0.89919
 C434 C 0.45619 0.09320 0.92465
 C435 C 0.46646 0.07523 0.94538
 C436 C 0.45616 0.04048 0.94018
 C437 C 0.43393 0.02363 0.91455
 C438 C 0.42274 0.04127 0.89420
 C439 C 0.42437 0.09517 0.87672
 C440 C 0.40256 0.07811 0.85118
 C441 C 0.39416 0.09668 0.82919
 C442 C 0.40867 0.13222 0.83183
 C443 C 0.43006 0.14876 0.85792
 C444 C 0.43772 0.13034 0.88060
 C445 C 0.40063 0.02499 0.86857
 C446 C 0.39052 0.04305 0.84758
 C447 C 0.46810 0.12821 0.92840
 C448 C 0.45923 0.14652 0.90659
 H449 H 0.39129 -0.00188 0.86454
 H450 H 0.37371 0.02958 0.82795
 H451 H 0.48498 0.14172 0.94797
 H452 H 0.46954 0.17362 0.90992
 H453 H 0.48358 0.08878 0.96481
 H454 H 0.42549 -0.00307 0.91026
 H455 H 0.37751 0.08380 0.80927
 H456 H 0.44150 0.17610 0.85997
 C457 C 0.64241 0.55203 0.90867
 C458 C 0.62261 0.56844 0.90708
 C459 C 0.59536 0.55850 0.92809
 C460 C 0.58796 0.53248 0.95070
 C461 C 0.60864 0.51690 0.95253
 C462 C 0.63571 0.52635 0.93132
 C463 C 0.67007 0.56123 0.88555
 C464 C 0.68899 0.54382 0.88624
 C465 C 0.71409 0.55142 0.86312
 C466 C 0.72033 0.57627 0.83955
 C467 C 0.70190 0.59428 0.83986
 C468 C 0.67643 0.58656 0.86258
 C469 C 0.65574 0.51009 0.93176
 C470 C 0.68185 0.51860 0.90954
 C471 C 0.63006 0.59402 0.88410
 C472 C 0.65659 0.60299 0.86229
 H473 H 0.65086 0.49026 0.94912
 H474 H 0.69634 0.50507 0.91038
 H475 H 0.61504 0.60696 0.88273
 H476 H 0.66125 0.62258 0.84471
 H477 H 0.57972 0.57078 0.92661
 H478 H 0.60304 0.49673 0.96971
 H479 H 0.72817 0.53743 0.86281
 H480 H 0.70678 0.61349 0.82177
 C481 C 0.90704 0.35661 0.90894
 C482 C 0.94100 0.36571 0.91299
 C483 C 0.96010 0.39109 0.93534
 C484 C 0.94483 0.40550 0.95520
 C485 C 0.91011 0.39417 0.95227
 C486 C 0.89152 0.37098 0.92813
 C487 C 0.88759 0.33224 0.88351
 C488 C 0.85474 0.32598 0.87714
 C489 C 0.83708 0.30440 0.85166
 C490 C 0.85087 0.28678 0.83449
 C491 C 0.88341 0.29236 0.84203
 C492 C 0.90241 0.31617 0.86566
 C493 C 0.85808 0.36294 0.92193
 C494 C 0.84023 0.34137 0.89641
 C495 C 0.95522 0.34959 0.89426
 C496 C 0.93604 0.32470 0.87147
 H497 H 0.84590 0.37413 0.93636
 H498 H 0.81476 0.33644 0.89194
 H499 H 0.98132 0.35612 0.89736
 H500 H 0.94787 0.31268 0.85773
 H501 H 0.98668 0.39925 0.93759
 H502 H 0.89812 0.40545 0.96688
 H503 H 0.81223 0.30055 0.84565
 H504 H 0.89415 0.27890 0.82885
 C505 C 0.55413 0.92787 0.39363
 C506 C 0.53399 0.94195 0.38291
 C507 C 0.52439 0.95957 0.40476
 C508 C 0.53370 0.96206 0.43733
 C509 C 0.55344 0.94741 0.44798
 C510 C 0.56428 0.93074 0.42596
 C511 C 0.56435 0.90937 0.37061
 C512 C 0.58516 0.89594 0.38099
 C513 C 0.59477 0.87834 0.35890
 C514 C 0.58256 0.87300 0.32703
 C515 C 0.56130 0.88629 0.31731
 C516 C 0.55268 0.90503 0.33876
 C517 C 0.58494 0.91677 0.43552
 C518 C 0.59545 0.89995 0.41336
 C519 C 0.52340 0.93769 0.35068
 C520 C 0.53232 0.91925 0.32904
 H521 H 0.59310 0.91892 0.46032
 H522 H 0.61141 0.88961 0.42172
 H523 H 0.50773 0.94834 0.34221
 H524 H 0.52328 0.91616 0.30448
 H525 H 0.50877 0.97047 0.39671
 H526 H 0.56061 0.94941 0.47310
 H527 H 0.61109 0.86815 0.36656
 H528 H 0.55123 0.88175 0.29307
 C529 C 0.37837 0.46327 0.40531
 C530 C 0.38642 0.43801 0.41536
 C531 C 0.41326 0.44659 0.43672
 C532 C 0.43106 0.47982 0.44870
 C533 C 0.42217 0.50460 0.43902
 C534 C 0.39622 0.49662 0.41683
 C535 C 0.35107 0.45476 0.38192
 C536 C 0.34418 0.48041 0.37068
 C537 C 0.31891 0.47241 0.34767
 C538 C 0.29981 0.43883 0.33696
 C539 C 0.30666 0.41330 0.34878
 C540 C 0.33269 0.42125 0.37093
 C541 C 0.38818 0.52145 0.40548
 C542 C 0.36278 0.51354 0.38256
 C543 C 0.36761 0.40482 0.40364
 C544 C 0.34101 0.39651 0.38201
 H545 H 0.40189 0.54730 0.41409
 H546 H 0.35760 0.53350 0.37416
 H547 H 0.37346 0.38508 0.41129
 H548 H 0.32709 0.37060 0.37362
 H549 H 0.42017 0.42753 0.44422
 H550 H 0.43628 0.53034 0.44789
 H551 H 0.31391 0.49211 0.33814
 H552 H 0.29216 0.38753 0.34014
 C553 C 0.08583 0.63376 0.40052
 C554 C 0.05082 0.61569 0.39773
 C555 C 0.03269 0.58870 0.41880
 C556 C 0.04933 0.57980 0.44257
 C557 C 0.08440 0.59879 0.44553
 C558 C 0.10280 0.62561 0.42437
 C559 C 0.10516 0.66104 0.37740
 C560 C 0.14027 0.67817 0.37938
 C561 C 0.15861 0.70276 0.35624
 C562 C 0.14204 0.71016 0.33133
 C563 C 0.10681 0.69362 0.33032
 C564 C 0.08822 0.66871 0.35312
 C565 C 0.13790 0.64391 0.42609
 C566 C 0.15633 0.66969 0.40391
 C567 C 0.03473 0.62452 0.37348
 C568 C 0.05311 0.65064 0.35160
 H569 H 0.15129 0.63790 0.44440
 H570 H 0.18339 0.68280 0.40575
 H571 H 0.00772 0.61085 0.37115
 H572 H 0.03976 0.65635 0.33301
 H573 H 0.00572 0.57436 0.41638
 H574 H 0.09748 0.59208 0.46362
 H575 H 0.18575 0.71539 0.35692
 H576 H 0.09408 0.69940 0.31115
 C577 C 0.92222 0.54708 0.90718
 C578 C 0.90371 0.52304 0.93072
 C579 C 0.92046 0.51270 0.95265
 C580 C 0.95541 0.52549 0.95078
 C581 C 0.97372 0.54959 0.92702
 C582 C 0.95720 0.56074 0.90529
 C583 C 0.90451 0.55751 0.88364
 C584 C 0.92289 0.58160 0.86007
 C585 C 0.90575 0.59085 0.83731
 C586 C 0.87047 0.57527 0.83749
 C587 C 0.85255 0.55133 0.86144
 C588 C 0.86942 0.54259 0.88474
 C589 C 0.97477 0.58493 0.88145
 C590 C 0.95793 0.59533 0.85935
 C591 C 0.86871 0.50927 0.93149
 C592 C 0.85182 0.51874 0.90875
 H593 H 1.00175 0.59581 0.87977
 H594 H 0.97242 0.61390 0.84126
 H595 H 0.85420 0.49065 0.94954
 H596 H 0.82476 0.50716 0.90987
 H597 H 0.90609 0.49381 0.97057
 H598 H 1.00062 0.55954 0.92547
 H599 H 0.91963 0.60937 0.81894
 H600 H 0.82541 0.53906 0.86150
 C601 C 0.44137 0.36466 0.90677
 C602 C 0.43137 0.38973 0.90291
 C603 C 0.44382 0.41749 0.92409
 C604 C 0.46566 0.41994 0.94944
 C605 C 0.47429 0.39367 0.95352
 C606 C 0.46278 0.36643 0.93194
 C607 C 0.43012 0.33660 0.88338
 C608 C 0.44193 0.31279 0.88606
 C609 C 0.43327 0.28772 0.86240
 C610 C 0.41243 0.28594 0.83650
 C611 C 0.39934 0.30891 0.83513
 C612 C 0.40878 0.33482 0.85810
 C613 C 0.47307 0.34141 0.93452
 C614 C 0.46304 0.31520 0.91181
 C615 C 0.40962 0.38684 0.87756
 C616 C 0.39832 0.35971 0.85568
 H617 H 0.48961 0.34253 0.95386
 H618 H 0.47216 0.29688 0.91423
 H619 H 0.40152 0.40588 0.87442
 H620 H 0.38187 0.35866 0.83627
 H621 H 0.43661 0.43718 0.92067
 H622 H 0.49107 0.39498 0.97273
 H623 H 0.44361 0.27028 0.86347
 H624 H 0.38314 0.30750 0.81534
 C625 C 0.62437 0.07416 0.89130
 C626 C 0.59118 0.06434 0.88218
 C627 C 0.56537 0.04688 0.90421
 C628 C 0.57261 0.04031 0.93546
 C629 C 0.60594 0.05067 0.94462
 C630 C 0.63202 0.06720 0.92229
 C631 C 0.65163 0.09256 0.86810
 C632 C 0.68482 0.10190 0.87684
 C633 C 0.71069 0.11994 0.85474
 C634 C 0.70355 0.12998 0.82484
 C635 C 0.67005 0.12016 0.81656
 C636 C 0.64400 0.10106 0.83784
 C637 C 0.66554 0.07697 0.93019
 C638 C 0.69144 0.09376 0.90776
 C639 C 0.58449 0.07254 0.85137
 C640 C 0.61050 0.09089 0.82967
 H641 H 0.67181 0.07161 0.95390
 H642 H 0.71693 0.10091 0.91487
 H643 H 0.55898 0.06515 0.84415
 H644 H 0.60435 0.09722 0.80632
 H645 H 0.53962 0.03906 0.89738
 H646 H 0.61137 0.04538 0.96872
 H647 H 0.73642 0.12733 0.86117
 H648 H 0.66439 0.12802 0.79373
 C649 C 0.07341 0.43369 0.40116
 C650 C 0.05072 0.44381 0.38873
 C651 C 0.03255 0.45319 0.40998
 C652 C 0.03901 0.45543 0.44339
 C653 C 0.06223 0.44551 0.45544
 C654 C 0.07867 0.43354 0.43444
 C655 C 0.09295 0.42428 0.37879
 C656 C 0.11461 0.41273 0.39105
 C657 C 0.13349 0.40429 0.36954
 C658 C 0.13319 0.41047 0.33624
 C659 C 0.11143 0.42246 0.32461
 C660 C 0.09048 0.42823 0.34558
 C661 C 0.10068 0.42195 0.44590
 C662 C 0.11784 0.41109 0.42458
 C663 C 0.04763 0.44568 0.35524
 C664 C 0.06767 0.43868 0.33404
 H665 H 0.10471 0.42131 0.47153
 H666 H 0.13459 0.40239 0.43442
 H667 H 0.03034 0.45368 0.34537
 H668 H 0.06532 0.44149 0.30840
 H669 H 0.01519 0.46117 0.40018
 H670 H 0.06716 0.44663 0.48108
 H671 H 0.14965 0.39457 0.37879
 H672 H 0.11121 0.42791 0.29923
 C673 C 0.56690 0.64022 0.39933
 C674 C 0.57550 0.64824 0.43188
 C675 C 0.56565 0.62186 0.45442
 C676 C 0.54843 0.58791 0.44418
 C677 C 0.54082 0.58036 0.41141
 C678 C 0.54940 0.60640 0.38895
 C679 C 0.57576 0.66770 0.37575
 C680 C 0.56541 0.65955 0.34364
 C681 C 0.57253 0.68567 0.32163
 C682 C 0.59100 0.71984 0.33110
 C683 C 0.60200 0.72760 0.36325
 C684 C 0.59381 0.70157 0.38587
 C685 C 0.54020 0.59928 0.35645
 C686 C 0.54780 0.62543 0.33422
 C687 C 0.59347 0.68242 0.44114
 C688 C 0.60275 0.70863 0.41848
 H689 H 0.52657 0.57328 0.34823
 H690 H 0.53983 0.61889 0.30945
 H691 H 0.60042 0.68899 0.46612
 H692 H 0.61658 0.73463 0.42664
 H693 H 0.57148 0.62761 0.47971
 H694 H 0.52705 0.55418 0.40364
 H695 H 0.56341 0.67945 0.29712
 H696 H 0.61619 0.75383 0.37070
 C697 C 0.36306 0.91981 0.39820
 C698 C 0.36898 0.90350 0.42429
 C699 C 0.39499 0.92249 0.44578
 C700 C 0.41601 0.95748 0.44074
 C701 C 0.40932 0.97349 0.41455
 C702 C 0.38272 0.95480 0.39338
 C703 C 0.33641 0.89968 0.37493
 C704 C 0.33046 0.91593 0.34876
 C705 C 0.30576 0.89648 0.32617
 C706 C 0.28810 0.86093 0.32898
 C707 C 0.29419 0.84513 0.35557
 C708 C 0.31807 0.86441 0.37878
 C709 C 0.37578 0.97023 0.36708
 C710 C 0.34995 0.95116 0.34528
 C711 C 0.34938 0.86830 0.42789
 C712 C 0.32452 0.84904 0.40539
 H713 H 0.39063 0.99723 0.36316
 H714 H 0.34563 0.96401 0.32518
 H715 H 0.35375 0.85542 0.44794
 H716 H 0.31041 0.82187 0.40870
 H717 H 0.39963 0.90957 0.46565
 H718 H 0.42495 1.00036 0.41036
 H719 H 0.30100 0.90875 0.30583
 H720 H 0.28083 0.81777 0.35773
 C721 C 0.55081 0.91798 0.09476
 C722 C 0.53044 0.93217 0.10449
 C723 C 0.52086 0.94899 0.08181
 C724 C 0.53056 0.95078 0.04943
 C725 C 0.55036 0.93584 0.03970
 C726 C 0.56111 0.91986 0.06255
 C727 C 0.56141 0.90074 0.11878
 C728 C 0.58257 0.88734 0.10943
 C729 C 0.59272 0.87115 0.13255
 C730 C 0.58082 0.86732 0.16446
 C731 C 0.55919 0.88051 0.17313
 C732 C 0.54991 0.89775 0.15060
 C733 C 0.58204 0.90585 0.05403
 C734 C 0.59280 0.89012 0.07712
 C735 C 0.51986 0.92910 0.13665
 C736 C 0.52919 0.91190 0.15927
 H737 H 0.59031 0.90721 0.02936
 H738 H 0.60903 0.87979 0.06955
 H739 H 0.50401 0.93985 0.14433
 H740 H 0.52026 0.90981 0.18379
 H741 H 0.50525 0.96018 0.08916
 H742 H 0.55788 0.93736 0.01474
 H743 H 0.60932 0.86099 0.12570
 H744 H 0.54940 0.87712 0.19743
 C745 C 0.37385 0.45412 0.10215
 C746 C 0.38337 0.42934 0.09419
 C747 C 0.41021 0.43766 0.07289
 C748 C 0.42663 0.47010 0.05897
 C749 C 0.41624 0.49433 0.06662
 C750 C 0.39024 0.48667 0.08866
 C751 C 0.34659 0.44601 0.12550
 C752 C 0.33827 0.47134 0.13467
 C753 C 0.31322 0.46389 0.15777
 C754 C 0.29578 0.43110 0.17076
 C755 C 0.30392 0.40579 0.16090
 C756 C 0.32975 0.41328 0.13861
 C757 C 0.38073 0.51111 0.09792
 C758 C 0.35537 0.50365 0.12075
 C759 C 0.36601 0.39692 0.10790
 C760 C 0.33949 0.38895 0.12953
 H761 H 0.39330 0.53635 0.08775
 H762 H 0.34908 0.52334 0.12755
 H763 H 0.37300 0.37754 0.10186
 H764 H 0.32677 0.36364 0.13955
 H765 H 0.41819 0.41897 0.06696
 H766 H 0.42921 0.51949 0.05627
 H767 H 0.30717 0.48344 0.16571
 H768 H 0.29068 0.38066 0.17125
 C769 C 0.08425 0.62511 0.09737
 C770 C 0.10086 0.61564 0.07419
 C771 C 0.08211 0.58774 0.05419
 C772 C 0.04708 0.56898 0.05768
 C773 C 0.03082 0.57919 0.08076
 C774 C 0.04929 0.60728 0.10063
 C775 C 0.10394 0.65360 0.11931
 C776 C 0.08737 0.66266 0.14288
 C777 C 0.10629 0.68879 0.16457
 C778 C 0.14151 0.70519 0.16323
 C779 C 0.15772 0.69633 0.13902
 C780 C 0.13903 0.67052 0.11694
 C781 C 0.03356 0.61747 0.12415
 C782 C 0.05228 0.64475 0.14487
 C783 C 0.13594 0.63374 0.07204
 C784 C 0.15471 0.66065 0.09312
 H785 H 0.00659 0.60399 0.12683
 H786 H 0.03921 0.65152 0.16293
 H787 H 0.14905 0.62670 0.05424
 H788 H 0.18175 0.67358 0.09099
 H789 H 0.09490 0.58001 0.03663
 H790 H 0.00388 0.56504 0.08356
 H791 H 0.09382 0.69569 0.18318
 H792 H 0.18484 0.70885 0.13807
 C793 C 0.43465 0.08360 0.59153
 C794 C 0.42045 0.04817 0.59340
 C795 C 0.43097 0.03101 0.57169
 C796 C 0.45526 0.04910 0.54812
 C797 C 0.46842 0.08453 0.54606
 C798 C 0.45853 0.10193 0.56792
 C799 C 0.42519 0.10199 0.61540
 C800 C 0.44072 0.13753 0.61446
 C801 C 0.43319 0.15500 0.63833
 C802 C 0.41005 0.13720 0.66280
 C803 C 0.39376 0.10151 0.66273
 C804 C 0.40165 0.08376 0.63933
 C805 C 0.47279 0.13741 0.56721
 C806 C 0.46415 0.15493 0.59019
 C807 C 0.39660 0.03077 0.61740
 C808 C 0.38725 0.04825 0.63988
 H809 H 0.49125 0.15181 0.54909
 H810 H 0.47618 0.18234 0.58916
 H811 H 0.38534 0.00343 0.61904
 H812 H 0.36906 0.03388 0.65821
 H813 H 0.42066 0.00375 0.57342
 H814 H 0.48733 0.09875 0.52822
 H815 H 0.44600 0.18247 0.63847
 H816 H 0.37589 0.08776 0.68154
 C817 C 0.64581 0.56119 0.59997
 C818 C 0.62552 0.57702 0.60238
 C819 C 0.59892 0.56801 0.58071
 C820 C 0.59257 0.54338 0.55674
 C821 C 0.61379 0.52849 0.55409
 C822 C 0.64027 0.53708 0.57586
 C823 C 0.67268 0.56925 0.62377
 C824 C 0.69210 0.55241 0.62214
 C825 C 0.71649 0.55890 0.64575
 C826 C 0.72153 0.58207 0.67077
 C827 C 0.70255 0.59949 0.67156
 C828 C 0.67780 0.59289 0.64826
 C829 C 0.66076 0.52137 0.57457
 C830 C 0.68619 0.52884 0.59737
 C831 C 0.63175 0.60096 0.62688
 C832 C 0.65751 0.60882 0.64939
 H833 H 0.65677 0.50274 0.55608
 H834 H 0.70109 0.51578 0.59581
 H835 H 0.61633 0.61342 0.62891
 H836 H 0.66122 0.62713 0.66813
 H837 H 0.58283 0.57973 0.58288
 H838 H 0.60901 0.50939 0.53586
 H839 H 0.73103 0.54539 0.64522
 H840 H 0.70653 0.61741 0.69077
 C841 C 0.90768 0.37274 0.59833
 C842 C 0.91411 0.36262 0.56820
 C843 C 0.93347 0.38748 0.54552
 C844 C 0.94716 0.42198 0.55353
 C845 C 0.94080 0.43165 0.58387
 C846 C 0.92063 0.40714 0.60621
 C847 C 0.88710 0.34685 0.62214
 C848 C 0.87987 0.35704 0.65181
 C849 C 0.86014 0.33237 0.67429
 C850 C 0.84887 0.29779 0.66786
 C851 C 0.85637 0.28799 0.63797
 C852 C 0.87515 0.31244 0.61483
 C853 C 0.91304 0.41637 0.63621
 C854 C 0.89276 0.39172 0.65853
 C855 C 0.90121 0.32790 0.56157
 C856 C 0.88230 0.30325 0.58459
 H857 H 0.92276 0.44286 0.64243
 H858 H 0.88741 0.39988 0.68136
 H859 H 0.90603 0.31972 0.53851
 H860 H 0.87310 0.27678 0.57860
 H861 H 0.93846 0.38017 0.52208
 H862 H 0.95107 0.45832 0.58975
 H863 H 0.85389 0.33998 0.69699
 H864 H 0.84751 0.26137 0.63285
   
