data_POSCAR
  _audit_creation_date              2014-09-24
  _audit_creation_method            'ToBaCCo'
  _symmetry_space_group_name_H-M    'P1'
  _symmetry_Int_Tables_number       1
  _symmetry_cell_setting            triclinic
  loop_
  _symmetry_equiv_pos_as_xyz
 x,y,z
_cell_length_a 8.3423
_cell_length_b 26.8756
_cell_length_c 11.3791
_cell_angle_alpha 89.786500
_cell_angle_beta 88.726300
_cell_angle_gamma 90.393100
loop_
  _atom_site_label
  _atom_site_type_symbol
  _atom_site_fract_x
  _atom_site_fract_y
  _atom_site_fract_z
C1 C 0.74992 0.36432 0.50742
 C2 C 0.73269 0.34033 0.61635
 C3 C 0.69515 0.28935 0.61807
 C4 C 0.66455 0.26313 0.51213
 C5 C 0.66186 0.29110 0.40573
 C6 C 0.70620 0.34144 0.40320
 C7 C 0.63588 0.20745 0.51168
 C8 C 0.64622 0.18030 0.40474
 C9 C 0.63475 0.12815 0.40364
 C10 C 0.60764 0.10298 0.51017
 C11 C 0.61054 0.12782 0.61772
 C12 C 0.61659 0.17994 0.61809
 H13 H 0.78291 0.40335 0.50409
 H14 H 0.69041 0.27135 0.70273
 H15 H 0.62022 0.27501 0.32515
 H16 H 0.67649 0.19864 0.32272
 H17 H 0.59927 0.06271 0.51042
 H18 H 0.61425 0.19772 0.70264
 C19 C 0.37394 0.89749 0.49279
 C20 C 0.35131 0.87189 0.59913
 C21 C 0.34429 0.81968 0.59767
 C22 C 0.35467 0.79285 0.49044
 C23 C 0.37111 0.82063 0.38422
 C24 C 0.37287 0.87278 0.38505
 C25 C 0.33204 0.73696 0.48952
 C26 C 0.29872 0.71104 0.38377
 C27 C 0.27494 0.65945 0.38398
 C28 C 0.27558 0.63385 0.49099
 C29 C 0.31603 0.65702 0.59589
 C30 C 0.34466 0.70856 0.59482
 H31 H 0.37842 0.93782 0.49323
 H32 H 0.31673 0.80092 0.67966
 H33 H 0.37570 0.80287 0.29960
 H34 H 0.29129 0.72971 0.30023
 H35 H 0.25304 0.59414 0.49165
 H36 H 0.38411 0.72541 0.67519
 C37 C 0.11974 0.39727 -0.50485
 C38 C 0.11475 0.37229 -0.61261
 C39 C 0.11855 0.32013 -0.61293
 C40 C 0.14395 0.29279 -0.50788
 C41 C 0.16188 0.32000 -0.40221
 C42 C 0.14939 0.37195 -0.40035
 C43 C 0.16904 0.23716 -0.50943
 C44 C 0.16462 0.20912 -0.40286
 C45 C 0.20199 0.15827 -0.40227
 C46 C 0.24149 0.13551 -0.50913
 C47 C 0.22685 0.15994 -0.61660
 C48 C 0.19659 0.21109 -0.61672
 H49 H 0.11572 0.43756 -0.50340
 H50 H 0.10882 0.30207 -0.69678
 H51 H 0.19772 0.30189 -0.32230
 H52 H 0.12717 0.22579 -0.32067
 H53 H 0.27136 0.09639 -0.50972
 H54 H 0.19362 0.22924 -0.70113
 C55 C -0.25547 0.86428 -0.49097
 C56 C -0.21707 0.84131 -0.59762
 C57 C -0.17757 0.79068 -0.59688
 C58 C -0.17666 0.76291 -0.49015
 C59 C -0.20536 0.78898 -0.38301
 C60 C -0.23914 0.84000 -0.38343
 C61 C -0.14260 0.70772 -0.49176
 C62 C -0.11159 0.68083 -0.38709
 C63 C -0.09905 0.62877 -0.38774
 C64 C -0.09959 0.60379 -0.49572
 C65 C -0.13431 0.62869 -0.59990
 C66 C -0.15630 0.68028 -0.59744
 H67 H -0.28649 0.90333 -0.49104
 H68 H -0.13964 0.77424 -0.67918
 H69 H -0.19958 0.77097 -0.29856
 H70 H -0.10552 0.69903 -0.30315
 H71 H -0.08958 0.56360 -0.49739
 H72 H -0.19664 0.69765 -0.67697
 N73 N -0.13888 0.93842 0.20863
 N74 N -0.19129 0.92158 0.31104
 N75 N 0.20783 0.91945 0.12472
 N76 N 0.28868 0.88316 0.17550
 N77 N 0.19600 0.95765 0.19629
 N78 N 0.27513 0.94883 0.29261
 N79 N -0.11939 0.90145 0.13413
 N80 N -0.15279 0.85646 0.19311
 C81 C -0.19901 0.87167 0.30198
 C82 C 0.33375 0.90259 0.27959
 N83 N 0.18079 0.95599 -0.20728
 N84 N 0.24853 0.94566 -0.30971
 N85 N -0.12573 0.90093 -0.12330
 N86 N -0.16430 0.85819 -0.17415
 N87 N -0.15568 0.93831 -0.19427
 N88 N -0.22267 0.92181 -0.28993
 N89 N 0.20105 0.91910 -0.13268
 N90 N 0.27891 0.88012 -0.19173
 Mn91 Mn 0.04088 0.91035 0.00073
 C92 C 0.30755 0.89931 -0.30046
 C93 C -0.22889 0.87197 -0.27754
 N94 N 0.13818 1.06205 0.19485
 N95 N 0.20638 1.07835 0.29013
 N96 N -0.21319 1.08174 0.13772
 N97 N -0.28180 1.11891 0.19627
 N98 N -0.20057 1.04258 0.20671
 N99 N -0.27728 1.05227 0.31352
 N100 N 0.11103 1.09938 0.12307
 N101 N 0.15156 1.14205 0.17365
 Mn102 Mn -0.00130 1.00039 0.20039
 C103 C 0.21533 1.12809 0.27732
 C104 C -0.32228 1.10009 0.30381
 N105 N -0.21200 1.04297 -0.19414
 N106 N -0.29109 1.05186 -0.29040
 N107 N 0.09841 1.09892 -0.13638
 N108 N 0.12626 1.14123 -0.19476
 N109 N 0.12684 1.06056 -0.20519
 N110 N 0.18902 1.07756 -0.31181
 N111 N -0.22586 1.08080 -0.12158
 N112 N -0.30717 1.11708 -0.17213
 Mn113 Mn -0.01530 0.99961 -0.19898
 Mn114 Mn -0.05734 1.09012 0.00071
 Cl115 Cl -0.00824 1.00001 0.00069
 C116 C -0.35107 1.09788 -0.27680
 C117 C 0.18341 1.12742 -0.30238
 N118 N 0.67612 0.54478 0.21220
 N119 N 0.74273 0.55427 0.31357
 N120 N 0.38393 0.59974 0.11977
 N121 N 0.35013 0.64252 0.17276
 N122 N 0.34206 0.56240 0.18919
 N123 N 0.26958 0.57914 0.28442
 N124 N 0.70717 0.58112 0.13696
 N125 N 0.79001 0.61684 0.18874
 C126 C 0.81555 0.59876 0.29809
 C127 C 0.27549 0.62900 0.27520
 N128 N 0.40475 0.56052 -0.21318
 N129 N 0.35724 0.57682 -0.31561
 N130 N 0.74099 0.58083 -0.12181
 N131 N 0.81875 0.61805 -0.17551
 N132 N 0.73755 0.54198 -0.19180
 N133 N 0.82108 0.55137 -0.28879
 N134 N 0.41558 0.59760 -0.13827
 N135 N 0.38029 0.64225 -0.19643
 Mn136 Mn 0.56213 0.58971 -0.00097
 C137 C 0.34199 0.62658 -0.30547
 C138 C 0.87124 0.59879 -0.27930
 N139 N 0.28101 0.45833 0.19101
 N140 N 0.19681 0.44927 0.28778
 N141 N 0.60089 0.40223 0.13837
 N142 N 0.63854 0.35985 0.19124
 N143 N 0.61385 0.43959 0.21217
 N144 N 0.66659 0.42366 0.31330
 N145 N 0.27706 0.41940 0.12124
 N146 N 0.19852 0.38237 0.17515
 Mn147 Mn 0.47874 0.50127 0.19983
 C148 C 0.14597 0.40192 0.27866
 C149 C 0.68395 0.37422 0.29974
 N150 N 0.67889 0.43785 -0.18842
 N151 N 0.75077 0.41972 -0.29024
 N152 N 0.31132 0.41888 -0.13752
 N153 N 0.22756 0.38331 -0.18912
 N154 N 0.34328 0.45512 -0.21277
 N155 N 0.27638 0.44577 -0.31403
 N156 N 0.63384 0.40005 -0.12110
 N157 N 0.65890 0.35746 -0.17774
 Mn158 Mn 0.54035 0.49874 -0.20019
 Mn159 Mn 0.45587 0.41026 0.00028
 Cl160 Cl 0.50930 0.50003 -0.00025
 C161 C 0.73058 0.37015 -0.28198
 C162 C 0.20248 0.40144 -0.29847
   
