data_POSCAR
  _audit_creation_date              2014-09-24
  _audit_creation_method            'ToBaCCo'
  _symmetry_space_group_name_H-M    'P1'
  _symmetry_Int_Tables_number       1
  _symmetry_cell_setting            triclinic
  loop_
  _symmetry_equiv_pos_as_xyz
 x,y,z
_cell_length_a 20.4096
_cell_length_b 20.5884
_cell_length_c 36.3089
_cell_angle_alpha 89.763900
_cell_angle_beta 90.444000
_cell_angle_gamma 88.562400
loop_
  _atom_site_label
  _atom_site_type_symbol
  _atom_site_fract_x
  _atom_site_fract_y
  _atom_site_fract_z
C1 C -0.07407 0.32840 0.98185
 C2 C -0.07314 0.32780 1.01968
 C3 C -0.02382 0.36882 1.03046
 N4 N 0.00411 0.39581 1.00073
 C5 C -0.02571 0.37017 0.97108
 C6 C -0.00054 0.37830 1.06657
 C7 C 0.02163 0.44049 1.07693
 C8 C 0.05495 0.45556 1.10912
 C9 C 0.06246 0.52163 1.10909
 C10 C 0.03165 0.54590 1.07763
 N11 N 0.00809 0.49607 1.05780
 C12 C 0.02253 0.61262 1.06885
 C13 C 0.02075 0.63472 1.03161
 C14 C 0.02183 0.69919 1.02052
 C15 C 0.02130 0.69980 0.98296
 C16 C 0.01973 0.63576 0.97161
 N17 N 0.02117 0.59588 1.00149
 C18 C 0.01991 0.61518 0.93430
 C19 C 0.02703 0.54898 0.92464
 C20 C 0.05407 0.52600 0.89220
 C21 C 0.04597 0.45999 0.89176
 C22 C 0.01603 0.44387 0.92459
 N23 N 0.00495 0.49854 0.94451
 C24 C -0.00529 0.38153 0.93486
 H25 H -0.10779 0.30273 0.96437
 H26 H -0.10621 0.30166 1.03716
 H27 H -0.02287 0.50204 0.96840
 H28 H 0.07185 0.42362 1.13096
 H29 H 0.08841 0.54846 1.12991
 H30 H 0.02570 0.74216 1.03710
 H31 H 0.02480 0.74321 0.96652
 H32 H 0.06012 0.42875 0.86930
 H33 H -0.02218 0.50048 1.03463
 H34 H 0.07821 0.55351 0.87107
 C35 C 0.32777 -0.07585 0.48055
 C36 C 0.32870 -0.07675 0.51839
 C37 C 0.36980 -0.02786 0.52931
 N38 N 0.39515 0.00188 0.49969
 C39 C 0.36851 -0.02659 0.46992
 C40 C 0.38068 -0.00675 0.56554
 C41 C 0.44251 0.01767 0.57566
 C42 C 0.45708 0.05011 0.60797
 C43 C 0.52328 0.06054 0.60781
 C44 C 0.54811 0.03235 0.57609
 N45 N 0.49835 0.00751 0.55627
 C46 C 0.61540 0.02660 0.56705
 C47 C 0.63642 0.02673 0.52973
 C48 C 0.70092 0.03025 0.51830
 C49 C 0.70013 0.03004 0.48072
 C50 C 0.63524 0.02661 0.46976
 N51 N 0.59616 0.02633 0.49982
 C52 C 0.61305 0.02651 0.43261
 C53 C 0.54590 0.03257 0.42331
 C54 C 0.52107 0.05998 0.39108
 C55 C 0.45468 0.05059 0.39092
 C56 C 0.44028 0.01913 0.42361
 N57 N 0.49632 0.00879 0.44329
 C58 C 0.37843 -0.00451 0.43379
 H59 H 0.30228 -0.10936 0.46299
 H60 H 0.30410 -0.11118 0.53572
 H61 H 0.50147 -0.01974 0.46696
 H62 H 0.42466 0.06461 0.62989
 H63 H 0.54981 0.08661 0.62872
 H64 H 0.74469 0.03535 0.53467
 H65 H 0.74305 0.03492 0.46394
 H66 H 0.42203 0.06486 0.36870
 H67 H 0.50327 -0.02150 0.53295
 H68 H 0.54770 0.08493 0.36988
 C69 C 0.12598 0.00976 0.26738
 H70 H 0.13210 0.02069 0.23847
 C71 C 0.17982 0.01097 0.29139
 H72 H 0.22744 0.02288 0.28080
 C73 C 0.05625 -0.01929 0.31642
 H74 H 0.00805 -0.03144 0.32599
 C75 C 0.10869 -0.01892 0.34125
 H76 H 0.10067 -0.03050 0.36997
 N77 N 0.06571 -0.00499 0.28027
 C78 C -0.05543 -0.09760 0.19731
 H79 H -0.09692 -0.06396 0.19547
 C80 C -0.05297 -0.15233 0.17480
 H81 H -0.09240 -0.16054 0.15537
 C82 C 0.04758 -0.12691 0.22395
 H83 H 0.08705 -0.11643 0.24283
 C84 C 0.05166 -0.18267 0.20219
 H85 H 0.09457 -0.21442 0.20432
 Zn86 Zn -0.00672 -0.00607 0.24761
 N87 N -0.00478 -0.08497 0.22060
 C88 C -0.01065 0.05790 0.17796
 N89 N -0.00187 0.06622 0.21483
 C90 C 0.01198 0.12567 0.22881
 C91 C 0.01511 0.17990 0.20561
 C92 C -0.00838 0.11075 0.15391
 C93 C -0.12210 -0.05331 0.28028
 C94 C -0.17614 -0.05110 0.30366
 C95 C -0.15285 0.06072 0.31720
 C96 C -0.09923 0.05641 0.29365
 N97 N -0.08465 -0.00007 0.27583
 H98 H -0.01958 0.01050 0.16688
 H99 H 0.02135 0.13097 0.25796
 H100 H 0.02558 0.22688 0.21720
 H101 H -0.01646 0.10354 0.12471
 H102 H -0.10888 -0.09833 0.26676
 H103 H -0.20447 -0.09428 0.30746
 H104 H -0.16320 0.10557 0.33177
 H105 H -0.06835 0.09775 0.29044
 C106 C 0.00140 -0.19506 0.17686
 C107 C 0.17116 -0.00347 0.32878
 C108 C -0.19136 0.00630 0.32270
 C109 C 0.00423 0.17253 0.16774
 C110 C -0.00266 0.13285 0.76950
 H111 H -0.00416 0.14056 0.74001
 C112 C -0.00232 0.18625 0.79316
 H113 H -0.00285 0.23487 0.78173
 C114 C -0.00270 0.06032 0.82034
 H115 H -0.00363 0.01133 0.83099
 C116 C -0.00338 0.11224 0.84489
 H117 H -0.00440 0.10283 0.87425
 N118 N -0.00161 0.07124 0.78335
 C119 C 0.08857 -0.06004 0.70305
 H120 H 0.05960 -0.10231 0.70818
 C121 C 0.14082 -0.06434 0.67854
 H122 H 0.15079 -0.10972 0.66452
 C123 C 0.11146 0.04990 0.71562
 H124 H 0.10068 0.09424 0.73027
 C125 C 0.16397 0.04779 0.69115
 H126 H 0.19257 0.09074 0.68685
 Zn127 Zn -0.00158 -0.00143 0.75103
 N128 N 0.07382 -0.00313 0.72042
 C129 C -0.08421 -0.04180 0.69338
 N130 N -0.07839 0.00206 0.72107
 C131 C -0.12613 0.04810 0.72711
 C132 C -0.18129 0.05252 0.70409
 C133 C -0.13834 -0.03893 0.66969
 C134 C 0.05659 -0.09523 0.79747
 C135 C 0.05925 -0.14927 0.82078
 C136 C -0.05414 -0.16896 0.80589
 C137 C -0.05468 -0.11449 0.78279
 N138 N -0.00002 -0.07851 0.77943
 H139 H -0.04658 -0.07873 0.68935
 H140 H -0.12150 0.08172 0.74968
 H141 H -0.21819 0.09010 0.70888
 H142 H -0.14171 -0.07329 0.64728
 H143 H 0.09923 -0.06560 0.79432
 H144 H 0.10414 -0.16140 0.83565
 H145 H -0.09836 -0.19628 0.80893
 H146 H -0.09921 -0.09999 0.76831
 C147 C 0.17846 -0.00960 0.67199
 C148 C -0.00231 0.17591 0.83132
 C149 C 0.00318 -0.18617 0.82549
 C150 C -0.18719 0.00904 0.67475
 C151 C 0.05842 -0.30635 0.15013
 C152 C 0.00334 -0.35368 0.13973
 C153 C 0.01682 -0.34058 0.09845
 C154 C 0.07140 -0.29361 0.10874
 C155 C -0.03472 -0.28427 0.09870
 C156 C -0.04741 -0.29666 0.13996
 C157 C 0.00750 -0.24998 0.14994
 C158 C 0.02012 -0.23685 0.10899
 H159 H 0.09675 -0.31636 0.17138
 H160 H -0.00632 -0.40041 0.15375
 H161 H 0.12043 -0.29218 0.09579
 H162 H -0.07380 -0.27495 0.07776
 H163 H -0.09633 -0.29768 0.15307
 H164 H 0.02679 -0.18814 0.09655
 C165 C 0.04720 0.23063 0.10693
 C166 C -0.01356 0.25273 0.08416
 C167 C 0.00192 0.32452 0.09232
 C168 C 0.06320 0.30224 0.11469
 C169 C -0.04017 0.32292 0.12728
 C170 C -0.05597 0.25107 0.11924
 C171 C 0.00487 0.22936 0.14171
 C172 C 0.02096 0.30044 0.15002
 H173 H 0.08337 0.19229 0.09877
 H174 H -0.02542 0.22866 0.05777
 H175 H 0.11324 0.32172 0.11241
 H176 H -0.07640 0.36107 0.13563
 H177 H -0.10519 0.22963 0.12123
 H178 H 0.03554 0.32059 0.17708
 C179 C 0.30321 0.00863 0.65119
 C180 C 0.32761 -0.05043 0.62829
 C181 C 0.32496 -0.00805 0.59326
 C182 C 0.30071 0.05110 0.61585
 C183 C 0.25318 -0.02712 0.58605
 C184 C 0.25573 -0.06987 0.62119
 C185 C 0.23210 -0.01091 0.64385
 C186 C 0.22912 0.03163 0.60900
 H187 H 0.32352 0.02342 0.67825
 H188 H 0.36851 -0.08433 0.63621
 H189 H 0.31783 0.10166 0.61331
 H190 H 0.22824 -0.03971 0.55990
 H191 H 0.23811 -0.12032 0.62289
 H192 H 0.18812 0.06552 0.60121
 C193 C -0.23171 0.02983 0.60688
 C194 C -0.27702 -0.02640 0.59620
 C195 C -0.33625 0.02191 0.59647
 C196 C -0.29138 0.07784 0.60715
 C197 C -0.34759 0.00594 0.63763
 C198 C -0.28771 -0.04155 0.63734
 C199 C -0.24313 0.01467 0.64773
 C200 C -0.30237 0.06234 0.64845
 H201 H -0.18340 0.03947 0.59441
 H202 H -0.26632 -0.06380 0.57499
 H203 H -0.29276 0.12713 0.59462
 H204 H -0.39376 -0.00659 0.65160
 H205 H -0.28589 -0.09072 0.65001
 H206 H -0.31375 0.09897 0.66995
 C207 C 0.02027 -0.23007 0.89374
 C208 C -0.03577 -0.27581 0.90422
 C209 C 0.01359 -0.33395 0.90356
 C210 C 0.06930 -0.28860 0.89306
 C211 C -0.00281 -0.34486 0.86238
 C212 C -0.05146 -0.28612 0.86303
 C213 C 0.00468 -0.24112 0.85282
 C214 C 0.05337 -0.29924 0.85176
 H215 H 0.02946 -0.18223 0.90653
 H216 H -0.07330 -0.26602 0.92559
 H217 H 0.11914 -0.28961 0.90553
 H218 H -0.01484 -0.39081 0.84829
 H219 H -0.10152 -0.28580 0.85088
 H220 H 0.08992 -0.30878 0.82984
 C221 C 0.01131 0.30338 0.84946
 C222 C -0.04861 0.32377 0.87310
 C223 C -0.00403 0.32573 0.90742
 C224 C 0.05601 0.30546 0.88414
 C225 C -0.01712 0.25346 0.91567
 C226 C -0.06198 0.25129 0.88120
 C227 C -0.00230 0.23168 0.85784
 C228 C 0.04250 0.23334 0.89203
 H229 H 0.02349 0.32445 0.82226
 H230 H -0.08632 0.36128 0.86540
 H231 H 0.10555 0.32637 0.88573
 H232 H -0.02689 0.22946 0.94239
 H233 H -0.11069 0.22859 0.87983
 H234 H 0.08026 0.19582 0.89967
 C235 C -0.23249 0.02558 0.39104
 C236 C -0.29112 0.07474 0.39011
 C237 C -0.33693 0.02018 0.40165
 C238 C -0.27872 -0.02925 0.40260
 C239 C -0.34985 0.00321 0.36079
 C240 C -0.30373 0.05819 0.34909
 C241 C -0.24555 0.00935 0.35042
 C242 C -0.29106 -0.04559 0.36173
 H243 H -0.18360 0.03445 0.40337
 H244 H -0.29118 0.12439 0.40190
 H245 H -0.26827 -0.06594 0.42450
 H246 H -0.39698 -0.00834 0.34719
 H247 H -0.31390 0.09403 0.32673
 H248 H -0.29183 -0.09548 0.35032
 C249 C 0.29870 0.01542 0.34842
 C250 C 0.29813 0.05639 0.38414
 C251 C 0.32183 -0.00415 0.40618
 C252 C 0.32251 -0.04505 0.37079
 C253 C 0.24986 -0.02200 0.41335
 C254 C 0.22630 0.03818 0.39095
 C255 C 0.22734 -0.00289 0.35571
 C256 C 0.25040 -0.06317 0.37781
 H257 H 0.31955 0.03118 0.32180
 H258 H 0.31669 0.10634 0.38711
 H259 H 0.36240 -0.07953 0.36259
 H260 H 0.22582 -0.03550 0.43946
 H261 H 0.18632 0.07265 0.39904
 H262 H 0.23038 -0.11256 0.37503
   
