data_POSCAR
  _audit_creation_date              2014-09-24
  _audit_creation_method            'ToBaCCo'
  _symmetry_space_group_name_H-M    'P1'
  _symmetry_Int_Tables_number       1
  _symmetry_cell_setting            triclinic
  loop_
  _symmetry_equiv_pos_as_xyz
 x,y,z
_cell_length_a 45.8937
_cell_length_b 43.1736
_cell_length_c 35.6714
_cell_angle_alpha 90.421900
_cell_angle_beta 90.025700
_cell_angle_gamma 89.976500
loop_
  _atom_site_label
  _atom_site_type_symbol
  _atom_site_fract_x
  _atom_site_fract_y
  _atom_site_fract_z
C1 C 0.29548 0.29205 0.23542
 H2 H 0.29699 0.29235 0.26569
 C3 C 0.31376 0.31093 0.21424
 H4 H 0.32936 0.32591 0.22819
 C5 C 0.27320 0.27234 0.18018
 H6 H 0.25756 0.25709 0.16699
 C7 C 0.29109 0.29086 0.15794
 H8 H 0.28895 0.29006 0.12770
 N9 N 0.27533 0.27370 0.21823
 C10 C 0.20649 0.26293 0.30156
 H11 H 0.20505 0.23796 0.30316
 C12 C 0.18797 0.28146 0.32330
 H13 H 0.17228 0.27080 0.34185
 C14 C 0.22842 0.30747 0.27517
 H15 H 0.24383 0.31759 0.25598
 C16 C 0.21033 0.32681 0.29635
 H17 H 0.21214 0.35172 0.29371
 Zn18 Zn 0.25084 0.24983 0.24950
 N19 N 0.22649 0.27615 0.27849
 C20 C 0.27321 0.22730 0.31882
 N21 N 0.27530 0.22587 0.28077
 C22 C 0.29537 0.20740 0.26360
 C23 C 0.31363 0.18849 0.28480
 C24 C 0.29108 0.20874 0.34109
 C25 C 0.20640 0.23690 0.19746
 C26 C 0.18778 0.21844 0.17577
 C27 C 0.21003 0.17301 0.20273
 C28 C 0.22822 0.19227 0.22387
 N29 N 0.22639 0.22361 0.22052
 H30 H 0.25764 0.24263 0.33200
 H31 H 0.29684 0.20706 0.23333
 H32 H 0.32917 0.17343 0.27088
 H33 H 0.28899 0.20960 0.37133
 H34 H 0.20504 0.26187 0.19584
 H35 H 0.17210 0.22916 0.15723
 H36 H 0.21175 0.14809 0.20541
 H37 H 0.24362 0.18210 0.24305
 C38 C 0.19003 0.31369 0.32074
 C39 C 0.31136 0.31051 0.17517
 C40 C 0.18973 0.18620 0.17836
 C41 C 0.31128 0.18899 0.32387
 C42 C 0.79622 0.79302 0.23496
 H43 H 0.79774 0.79332 0.26523
 C44 C 0.81437 0.81203 0.21377
 H45 H 0.82987 0.82710 0.22780
 C46 C 0.77401 0.77316 0.17975
 H47 H 0.75844 0.75782 0.16658
 C48 C 0.79175 0.79181 0.15747
 H49 H 0.78953 0.79096 0.12723
 N50 N 0.77616 0.77454 0.21780
 C51 C 0.70726 0.76355 0.30102
 H52 H 0.70589 0.73858 0.30260
 C53 C 0.68867 0.78202 0.32273
 H54 H 0.67299 0.77130 0.34125
 C55 C 0.72911 0.80817 0.27469
 H56 H 0.74452 0.81833 0.25555
 C57 C 0.71095 0.82744 0.29586
 H58 H 0.71270 0.85235 0.29323
 Zn59 Zn 0.75173 0.75059 0.24906
 N60 N 0.72726 0.77683 0.27800
 C61 C 0.77400 0.72810 0.31845
 N62 N 0.77621 0.72671 0.28041
 C63 C 0.79634 0.70826 0.26332
 C64 C 0.81450 0.68930 0.28460
 C65 C 0.79177 0.70949 0.34079
 C66 C 0.70735 0.73746 0.19698
 C67 C 0.68880 0.71892 0.17530
 C68 C 0.71118 0.67359 0.20234
 C69 C 0.72930 0.69294 0.22347
 N70 N 0.72738 0.72426 0.22008
 H71 H 0.75839 0.74341 0.33157
 H72 H 0.79790 0.70795 0.23306
 H73 H 0.83007 0.67422 0.27073
 H74 H 0.78956 0.71029 0.37101
 H75 H 0.70591 0.76243 0.19534
 H76 H 0.67309 0.72957 0.15675
 H77 H 0.71298 0.64869 0.20506
 H78 H 0.74472 0.68284 0.24268
 C79 C 0.69066 0.81426 0.32020
 C80 C 0.81193 0.81163 0.17468
 C81 C 0.69086 0.68669 0.17794
 C82 C 0.81200 0.68972 0.32365
 C83 C 0.79654 0.29148 0.73680
 H84 H 0.79810 0.29177 0.76707
 C85 C 0.81469 0.31045 0.71556
 H86 H 0.83025 0.32551 0.72946
 C87 C 0.77420 0.27169 0.68164
 H88 H 0.75858 0.25640 0.66849
 C89 C 0.79195 0.29031 0.65934
 H90 H 0.78974 0.28953 0.62911
 N91 N 0.77641 0.27305 0.71968
 C92 C 0.70757 0.26226 0.80303
 H93 H 0.70614 0.23729 0.80465
 C94 C 0.68900 0.28079 0.82470
 H95 H 0.67329 0.27013 0.84322
 C96 C 0.72949 0.30680 0.77662
 H97 H 0.74491 0.31691 0.75744
 C98 C 0.71136 0.32613 0.79774
 H99 H 0.71314 0.35104 0.79505
 Zn100 Zn 0.75195 0.24916 0.75099
 N101 N 0.72759 0.27547 0.77997
 C102 C 0.77426 0.22653 0.82029
 N103 N 0.77640 0.22518 0.78224
 C104 C 0.79647 0.20672 0.76507
 C105 C 0.81465 0.18768 0.78624
 C106 C 0.79202 0.20787 0.84257
 C107 C 0.70748 0.23624 0.69899
 C108 C 0.68888 0.21779 0.67726
 C109 C 0.71118 0.17235 0.70413
 C110 C 0.72935 0.19160 0.72531
 N111 N 0.72749 0.22294 0.72202
 H112 H 0.75869 0.24186 0.83346
 H113 H 0.79798 0.20645 0.73480
 H114 H 0.83015 0.17265 0.77212
 H115 H 0.78977 0.20875 0.87282
 H116 H 0.70609 0.26121 0.69742
 H117 H 0.67318 0.22852 0.65875
 H118 H 0.71293 0.14743 0.70676
 H119 H 0.74477 0.18142 0.74446
 C120 C 0.69104 0.31302 0.82210
 C121 C 0.81218 0.31005 0.67651
 C122 C 0.69087 0.18554 0.67979
 C123 C 0.81222 0.18804 0.82536
 C124 C 0.29542 0.79257 0.73627
 H125 H 0.29689 0.79290 0.76654
 C126 C 0.31367 0.81147 0.71509
 H127 H 0.32921 0.82652 0.72903
 C128 C 0.27325 0.77270 0.68103
 H129 H 0.25767 0.75738 0.66784
 C130 C 0.29110 0.79124 0.65878
 H131 H 0.28901 0.79039 0.62854
 N132 N 0.27534 0.77412 0.71909
 C133 C 0.20644 0.76319 0.80234
 H134 H 0.20509 0.73822 0.80398
 C135 C 0.18782 0.78168 0.82398
 H136 H 0.17214 0.77098 0.84250
 C137 C 0.22826 0.80777 0.77590
 H138 H 0.24367 0.81792 0.75673
 C139 C 0.21007 0.82707 0.79699
 H140 H 0.21179 0.85198 0.79429
 Zn141 Zn 0.25089 0.75019 0.75035
 N142 N 0.22643 0.77645 0.77928
 C143 C 0.27325 0.72767 0.81970
 N144 N 0.27539 0.72631 0.78165
 C145 C 0.29554 0.70794 0.76448
 C146 C 0.31381 0.68905 0.78567
 C147 C 0.29113 0.70913 0.84196
 C148 C 0.20653 0.73708 0.69823
 C149 C 0.18801 0.71854 0.67651
 C150 C 0.21037 0.67321 0.70355
 C151 C 0.22846 0.69255 0.72473
 N152 N 0.22654 0.72387 0.72135
 H153 H 0.25761 0.74292 0.83287
 H154 H 0.29704 0.70765 0.73421
 H155 H 0.32941 0.67405 0.77174
 H156 H 0.28899 0.70991 0.87219
 H157 H 0.20510 0.76205 0.69660
 H158 H 0.17232 0.72920 0.65793
 H159 H 0.21217 0.64830 0.70625
 H160 H 0.24387 0.68244 0.74395
 C161 C 0.18977 0.81391 0.82135
 C162 C 0.31131 0.81098 0.67601
 C163 C 0.19007 0.68631 0.67912
 C164 C 0.31140 0.68946 0.82474
 C165 C -0.03349 -0.02361 0.01736
 C166 C -0.01813 0.00023 -0.00043
 C167 C -0.03350 0.02409 -0.01823
 C168 C -0.06402 0.02391 -0.01859
 C169 C -0.07924 0.00025 -0.00045
 C170 C -0.06400 -0.02341 0.01771
 C171 C 0.01396 0.00022 -0.00042
 C172 C 0.02933 -0.02357 -0.01876
 C173 C 0.05984 -0.02339 -0.01907
 C174 C 0.07506 0.00019 -0.00036
 C175 C 0.05984 0.02378 0.01833
 C176 C 0.02932 0.02400 0.01796
 H177 H -0.02169 -0.04195 0.03140
 H178 H -0.02171 0.04242 -0.03226
 H179 H 0.01754 -0.04184 -0.03324
 H180 H 0.01754 0.04229 0.03242
 H181 H -0.10287 0.00026 -0.00045
 H182 H 0.09869 0.00017 -0.00033
 C183 C -0.03251 0.47606 0.51797
 C184 C -0.01716 0.49990 0.50016
 C185 C -0.03254 0.52375 0.48236
 C186 C -0.06305 0.52356 0.48200
 C187 C -0.07827 0.49991 0.50017
 C188 C -0.06302 0.47626 0.51833
 C189 C 0.01493 0.49990 0.50015
 C190 C 0.03029 0.47614 0.48172
 C191 C 0.06080 0.47635 0.48135
 C192 C 0.07602 0.49990 0.50010
 C193 C 0.06081 0.52346 0.51888
 C194 C 0.03030 0.52365 0.51856
 H195 H -0.02071 0.45773 0.53201
 H196 H -0.02075 0.54207 0.46831
 H197 H 0.01850 0.45789 0.46721
 H198 H 0.01851 0.54191 0.53308
 H199 H -0.10190 0.49992 0.50017
 H200 H 0.09966 0.49991 0.50008
 C201 C 0.46789 -0.02387 0.51791
 C202 C 0.48325 -0.00003 0.50010
 C203 C 0.46788 0.02382 0.48228
 C204 C 0.43737 0.02363 0.48192
 C205 C 0.42215 -0.00001 0.50008
 C206 C 0.43738 -0.02367 0.51826
 C207 C 0.51534 -0.00005 0.50010
 C208 C 0.53069 -0.02375 0.48155
 C209 C 0.56120 -0.02356 0.48120
 C210 C 0.57643 -0.00008 0.50008
 C211 C 0.56123 0.02342 0.51896
 C212 C 0.53071 0.02364 0.51863
 H213 H 0.47969 -0.04220 0.53197
 H214 H 0.47967 0.04213 0.46823
 H215 H 0.51889 -0.04194 0.46695
 H216 H 0.51893 0.04185 0.53324
 H217 H 0.39851 -0.00001 0.50007
 H218 H 0.60007 -0.00009 0.50006
 C219 C 0.46804 0.47593 0.01763
 C220 C 0.48341 0.49984 -0.00004
 C221 C 0.46804 0.52377 -0.01770
 C222 C 0.43752 0.52359 -0.01805
 C223 C 0.42230 0.49988 -0.00003
 C224 C 0.43753 0.47615 0.01799
 C225 C 0.51550 0.49982 -0.00003
 C226 C 0.53087 0.47596 -0.01826
 C227 C 0.56138 0.47615 -0.01860
 C228 C 0.57660 0.49980 -0.00002
 C229 C 0.56139 0.52345 0.01856
 C230 C 0.53087 0.52367 0.01821
 H231 H 0.47983 0.45754 0.03158
 H232 H 0.47982 0.54214 -0.03165
 H233 H 0.51908 0.45764 -0.03265
 H234 H 0.51909 0.54200 0.03259
 H235 H 0.39867 0.49989 -0.00003
 H236 H 0.60024 0.49979 -0.00001
 C237 C 0.13809 -0.12738 -0.11646
 C238 C 0.12521 -0.14109 -0.08049
 C239 C 0.10880 -0.12055 -0.06035
 C240 C 0.10690 -0.08835 -0.07818
 C241 C 0.09542 -0.09420 -0.11804
 C242 C 0.11182 -0.11472 -0.13816
 C243 C 0.15503 -0.09860 -0.10348
 C244 C 0.13865 -0.07810 -0.08338
 C245 C 0.15597 -0.14915 -0.13828
 C246 C 0.17114 -0.16636 -0.15653
 C247 C 0.08949 -0.06594 -0.05668
 C248 C 0.07570 -0.04688 -0.03935
 H249 H 0.12866 -0.16482 -0.07165
 H250 H 0.09818 -0.12668 -0.03424
 H251 H 0.07609 -0.08323 -0.12943
 H252 H 0.10653 -0.12133 -0.16679
 H253 H 0.17791 -0.09467 -0.10954
 H254 H 0.14750 -0.05661 -0.07221
 C255 C 0.13868 0.37245 0.38332
 C256 C 0.12599 0.35873 0.41940
 C257 C 0.10968 0.37927 0.43968
 C258 C 0.10769 0.41147 0.42187
 C259 C 0.09601 0.40563 0.38211
 C260 C 0.11230 0.38511 0.36185
 C261 C 0.15569 0.40123 0.39616
 C262 C 0.13941 0.42173 0.41641
 C263 C 0.15645 0.35068 0.36135
 C264 C 0.17152 0.33346 0.34299
 C265 C 0.09038 0.43387 0.44352
 C266 C 0.07663 0.45291 0.46096
 H267 H 0.12948 0.33500 0.42820
 H268 H 0.09919 0.37313 0.46587
 H269 H 0.07661 0.41660 0.37089
 H270 H 0.10687 0.37851 0.33326
 H271 H 0.17853 0.40517 0.38992
 H272 H 0.14831 0.44321 0.42751
 C273 C 0.63918 -0.12717 0.38286
 C274 C 0.62650 -0.14098 0.41889
 C275 C 0.61015 -0.12050 0.43922
 C276 C 0.60813 -0.08827 0.42150
 C277 C 0.59646 -0.09405 0.38172
 C278 C 0.61279 -0.11450 0.36140
 C279 C 0.65614 -0.09839 0.39579
 C280 C 0.63983 -0.07795 0.41608
 C281 C 0.65699 -0.14888 0.36084
 C282 C 0.67209 -0.16604 0.34246
 C283 C 0.59079 -0.06594 0.44321
 C284 C 0.57703 -0.04695 0.46072
 H285 H 0.63002 -0.16472 0.42763
 H286 H 0.59967 -0.12670 0.46539
 H287 H 0.57706 -0.08308 0.37052
 H288 H 0.60738 -0.12106 0.33280
 H289 H 0.67899 -0.09441 0.38956
 H290 H 0.64871 -0.05648 0.42724
 C291 C 0.63948 0.37188 -0.11575
 C292 C 0.62672 0.35829 -0.07964
 C293 C 0.61034 0.37889 -0.05953
 C294 C 0.60837 0.41102 -0.07753
 C295 C 0.59678 0.40502 -0.11730
 C296 C 0.61314 0.38444 -0.13739
 C297 C 0.65643 0.40072 -0.10300
 C298 C 0.64009 0.42128 -0.08293
 C299 C 0.65732 0.35005 -0.13753
 C300 C 0.67245 0.33280 -0.15577
 C301 C 0.59100 0.43349 -0.05607
 C302 C 0.57723 0.45261 -0.03880
 H303 H 0.63021 0.33460 -0.07069
 H304 H 0.59980 0.37285 -0.03335
 H305 H 0.57741 0.41593 -0.12866
 H306 H 0.60778 0.37773 -0.16596
 H307 H 0.67929 0.40465 -0.10918
 H308 H 0.64896 0.44282 -0.07191
 C309 C -0.14027 0.12937 -0.11457
 C310 C -0.12120 0.10818 -0.13909
 C311 C -0.10540 0.08726 -0.11916
 C312 C -0.11020 0.08956 -0.07665
 C313 C -0.14325 0.08637 -0.07133
 C314 C -0.15905 0.10730 -0.09126
 C315 C -0.11915 0.14434 -0.08638
 C316 C -0.10333 0.12339 -0.06643
 C317 C -0.15743 0.15163 -0.13624
 C318 C -0.17186 0.16936 -0.15449
 C319 C -0.09334 0.06676 -0.05540
 C320 C -0.07980 0.04750 -0.03838
 H321 H -0.12017 0.10952 -0.16944
 H322 H -0.09083 0.07068 -0.13245
 H323 H -0.15335 0.06921 -0.05344
 H324 H -0.18268 0.10805 -0.09043
 H325 H -0.11684 0.16917 -0.08244
 H326 H -0.08746 0.13027 -0.04539
 C327 C -0.13905 0.62913 0.38587
 C328 C -0.11988 0.60799 0.36141
 C329 C -0.10416 0.58704 0.38137
 C330 C -0.10912 0.58925 0.42386
 C331 C -0.14219 0.58604 0.42896
 C332 C -0.15792 0.60700 0.40899
 C333 C -0.11806 0.64404 0.41424
 C334 C -0.10231 0.62306 0.43423
 C335 C -0.15614 0.65143 0.36416
 C336 C -0.17050 0.66920 0.34590
 C337 C -0.09233 0.56642 0.44515
 C338 C -0.07883 0.54715 0.46220
 H339 H -0.11874 0.60939 0.33107
 H340 H -0.08954 0.57049 0.36813
 H341 H -0.15236 0.56883 0.44673
 H342 H -0.18156 0.60774 0.40967
 H343 H -0.11576 0.66887 0.41827
 H344 H -0.08652 0.62990 0.45539
 C345 C 0.36075 0.12876 0.38592
 C346 C 0.35578 0.13091 0.42842
 C347 C 0.37170 0.11006 0.44836
 C348 C 0.39101 0.08911 0.42383
 C349 C 0.40971 0.11142 0.40071
 C350 C 0.39379 0.13228 0.38077
 C351 C 0.35421 0.09491 0.37555
 C352 C 0.37010 0.07408 0.39547
 C353 C 0.34347 0.15093 0.36427
 C354 C 0.32895 0.16858 0.34606
 C355 C 0.40797 0.06640 0.44508
 C356 C 0.42156 0.04719 0.46211
 H357 H 0.34109 0.14738 0.44168
 H358 H 0.37065 0.10866 0.47871
 H359 H 0.43336 0.11090 0.40009
 H360 H 0.40380 0.14963 0.36306
 H361 H 0.33846 0.08790 0.35441
 H362 H 0.36797 0.04924 0.39138
 C363 C 0.36088 0.62910 -0.11342
 C364 C 0.35606 0.63122 -0.07089
 C365 C 0.37198 0.61029 -0.05106
 C366 C 0.39116 0.58931 -0.07573
 C367 C 0.40985 0.61159 -0.09891
 C368 C 0.39392 0.63252 -0.11873
 C369 C 0.35423 0.59528 -0.12381
 C370 C 0.37013 0.57438 -0.10401
 C371 C 0.34360 0.65134 -0.13496
 C372 C 0.32908 0.66903 -0.15310
 C373 C 0.40813 0.56653 -0.05462
 C374 C 0.42172 0.54724 -0.03771
 H375 H 0.34145 0.64771 -0.05753
 H376 H 0.37102 0.60886 -0.02072
 H377 H 0.43349 0.61101 -0.09965
 H378 H 0.40392 0.64987 -0.13646
 H379 H 0.33840 0.58834 -0.14488
 H380 H 0.36791 0.54955 -0.10814
 C381 C -0.14004 -0.12889 0.11375
 C382 C -0.14574 -0.13043 0.07137
 C383 C -0.12998 -0.10948 0.05140
 C384 C -0.11008 -0.08905 0.07579
 C385 C -0.09119 -0.11186 0.09797
 C386 C -0.10695 -0.13281 0.11794
 C387 C -0.14611 -0.09511 0.12494
 C388 C -0.13037 -0.07418 0.10500
 C389 C -0.15714 -0.15116 0.13544
 C390 C -0.17152 -0.16891 0.15368
 C391 C -0.09328 -0.06625 0.05453
 C392 C -0.07977 -0.04699 0.03750
 H393 H -0.16079 -0.14657 0.05820
 H394 H -0.13154 -0.10766 0.02113
 H395 H -0.06753 -0.11160 0.09796
 H396 H -0.09679 -0.15050 0.13504
 H397 H -0.16143 -0.08822 0.14663
 H398 H -0.13223 -0.04937 0.10962
 C399 C -0.13892 0.37067 0.61438
 C400 C -0.15485 0.38267 0.57954
 C401 C -0.13914 0.40365 0.55959
 C402 C -0.10903 0.41057 0.57643
 C403 C -0.09411 0.37886 0.57971
 C404 C -0.10984 0.35787 0.59968
 C405 C -0.13079 0.39983 0.63692
 C406 C -0.11509 0.42079 0.61698
 C407 C -0.15599 0.34836 0.63606
 C408 C -0.17033 0.33059 0.65429
 C409 C -0.09226 0.43340 0.55517
 C410 C -0.07878 0.45267 0.53813
 H411 H -0.17654 0.37531 0.57123
 H412 H -0.14737 0.41426 0.53420
 H413 H -0.07307 0.37338 0.56743
 H414 H -0.10227 0.33440 0.60450
 H415 H -0.13683 0.40367 0.66601
 H416 H -0.10768 0.44258 0.62900
 C417 C 0.36076 -0.12880 0.61406
 C418 C 0.34464 -0.09829 0.60675
 C419 C 0.36054 -0.07746 0.58688
 C420 C 0.39104 -0.08915 0.57623
 C421 C 0.38582 -0.11982 0.55521
 C422 C 0.36989 -0.14069 0.57512
 C423 C 0.38931 -0.11925 0.63337
 C424 C 0.40523 -0.09841 0.61348
 C425 C 0.34348 -0.15097 0.63567
 C426 C 0.32897 -0.16862 0.65384
 C427 C 0.40800 -0.06645 0.55503
 C428 C 0.42159 -0.04723 0.53804
 H429 H 0.32263 -0.09347 0.61633
 H430 H 0.35215 -0.05480 0.57944
 H431 H 0.39394 -0.12472 0.52721
 H432 H 0.36436 -0.16346 0.56417
 H433 H 0.39642 -0.12811 0.66028
 H434 H 0.42597 -0.08941 0.62335
 C435 C 0.36087 0.37077 0.11336
 C436 C 0.34511 0.38304 0.07853
 C437 C 0.36103 0.40393 0.05873
 C438 C 0.39117 0.41050 0.07569
 C439 C 0.40581 0.37864 0.07884
 C440 C 0.38987 0.35773 0.09867
 C441 C 0.36921 0.39977 0.13606
 C442 C 0.38513 0.42065 0.11627
 C443 C 0.34358 0.34857 0.13489
 C444 C 0.32905 0.33090 0.15303
 C445 C 0.40814 0.43326 0.05458
 C446 C 0.42173 0.45252 0.03766
 H447 H 0.32336 0.37592 0.07014
 H448 H 0.35292 0.41471 0.03337
 H449 H 0.42682 0.37301 0.06659
 H450 H 0.39722 0.33418 0.10340
 H451 H 0.36317 0.40358 0.16516
 H452 H 0.39271 0.44232 0.12842
 C453 C 0.13807 0.12760 0.11600
 C454 C 0.11367 0.11241 0.13885
 C455 C 0.09728 0.09193 0.11866
 C456 C 0.10689 0.08864 0.07761
 C457 C 0.13930 0.08003 0.07942
 C458 C 0.15568 0.10050 0.09958
 C459 C 0.12265 0.14221 0.08225
 C460 C 0.10624 0.12170 0.06205
 C461 C 0.15595 0.14933 0.13789
 C462 C 0.17111 0.16650 0.15618
 C463 C 0.08948 0.06628 0.05604
 C464 C 0.07569 0.04724 0.03866
 H465 H 0.10961 0.11735 0.16827
 H466 H 0.07917 0.07932 0.13080
 H467 H 0.14859 0.05965 0.06600
 H468 H 0.17899 0.09764 0.10344
 H469 H 0.12444 0.16649 0.07490
 H470 H 0.09396 0.12841 0.03738
 C471 C 0.13872 0.62749 0.61665
 C472 C 0.15127 0.62024 0.57768
 C473 C 0.13497 0.59969 0.55747
 C474 C 0.10772 0.58840 0.57821
 C475 C 0.09112 0.61800 0.58914
 C476 C 0.10744 0.63858 0.60937
 C477 C 0.13537 0.59587 0.63554
 C478 C 0.11908 0.57533 0.61535
 C479 C 0.15649 0.64929 0.63856
 C480 C 0.17156 0.66654 0.65689
 C481 C 0.09041 0.56597 0.55662
 C482 C 0.07666 0.54691 0.53922
 H483 H 0.17118 0.63039 0.56688
 H484 H 0.14093 0.59223 0.52937
 H485 H 0.06858 0.62242 0.58165
 H486 H 0.09887 0.66063 0.61921
 H487 H 0.14493 0.59011 0.66245
 H488 H 0.11471 0.55199 0.62496
 C489 C 0.63933 0.12700 0.61718
 C490 C 0.65191 0.11975 0.57822
 C491 C 0.63556 0.09930 0.55794
 C492 C 0.60823 0.08810 0.57860
 C493 C 0.59174 0.11776 0.58955
 C494 C 0.60811 0.13824 0.60986
 C495 C 0.63584 0.09537 0.63599
 C496 C 0.61950 0.07493 0.61573
 C497 C 0.65716 0.14870 0.63916
 C498 C 0.67229 0.16586 0.65753
 C499 C 0.59086 0.06577 0.55692
 C500 C 0.57709 0.04679 0.53943
 H501 H 0.67187 0.12983 0.56748
 H502 H 0.64152 0.09185 0.52983
 H503 H 0.56922 0.12229 0.58202
 H504 H 0.59962 0.16031 0.61972
 H505 H 0.64535 0.08953 0.66291
 H506 H 0.61502 0.05160 0.62529
 C507 C 0.63939 0.62778 0.11574
 C508 C 0.64743 0.62630 0.07399
 C509 C 0.63110 0.60570 0.05389
 C510 C 0.60834 0.58860 0.07751
 C511 C 0.59027 0.61427 0.09638
 C512 C 0.60661 0.63489 0.11649
 C513 C 0.64202 0.59431 0.12952
 C514 C 0.62571 0.57373 0.10944
 C515 C 0.65720 0.64963 0.13753
 C516 C 0.67230 0.66690 0.15579
 C517 C 0.59100 0.56611 0.05605
 C518 C 0.57723 0.54699 0.03876
 H519 H 0.66442 0.64024 0.06132
 H520 H 0.63410 0.60198 0.02400
 H521 H 0.56674 0.61611 0.09411
 H522 H 0.59708 0.65439 0.13146
 H523 H 0.65552 0.58737 0.15302
 H524 H 0.62524 0.54917 0.11575
   
