data_POSCAR
  _audit_creation_date              2014-09-24
  _audit_creation_method            'ToBaCCo'
  _symmetry_space_group_name_H-M    'P1'
  _symmetry_Int_Tables_number       1
  _symmetry_cell_setting            triclinic
  loop_
  _symmetry_equiv_pos_as_xyz
 x,y,z
_cell_length_a 25.6310
_cell_length_b 25.4858
_cell_length_c 25.1887
_cell_angle_alpha 89.830000
_cell_angle_beta 89.848800
_cell_angle_gamma 90.571100
loop_
  _atom_site_label
  _atom_site_type_symbol
  _atom_site_fract_x
  _atom_site_fract_y
  _atom_site_fract_z
N1 N 0.32112 0.23835 0.17101
 N2 N 0.29517 0.27998 0.15583
 C3 C 0.31707 0.29932 0.11114
 C4 C 0.35947 0.26870 0.09831
 C5 C 0.36063 0.23009 0.13685
 H6 H 0.30235 0.33205 0.08850
 H7 H 0.38686 0.19713 0.13839
 Cu8 Cu 0.23344 0.30317 0.19376
 Cu9 Cu 0.29918 0.19536 0.23095
 Cu10 Cu 0.18728 0.23289 0.29758
 N11 N 0.16971 0.32238 0.23064
 N12 N 0.15184 0.29475 0.27103
 C13 C 0.10648 0.31530 0.28762
 C14 C 0.09562 0.35844 0.25633
 C15 C 0.13623 0.36145 0.22016
 H16 H 0.08258 0.29963 0.31951
 H17 H 0.14004 0.38898 0.18763
 N18 N 0.22863 0.17145 0.31839
 N19 N 0.27094 0.15687 0.29257
 C20 C 0.28902 0.11245 0.31461
 C21 C 0.25707 0.09893 0.35675
 C22 C 0.21891 0.13682 0.35779
 H23 H 0.32251 0.09092 0.30076
 H24 H 0.18572 0.13797 0.38433
 H25 H 0.22069 0.21345 0.22552
 H26 H 0.26112 0.25383 0.27195
 N27 N 0.67871 -0.24127 0.17013
 N28 N 0.70885 -0.27843 0.15157
 C29 C 0.68887 -0.29624 0.10554
 C30 C 0.64252 -0.27039 0.09563
 C31 C 0.63761 -0.23545 0.13748
 H32 H 0.70646 -0.32608 0.08104
 H33 H 0.60861 -0.20517 0.14154
 Cu34 Cu 0.77141 -0.29943 0.18941
 Cu35 Cu 0.69937 -0.19773 0.23041
 Cu36 Cu 0.81516 -0.23011 0.29332
 N37 N 0.83337 -0.32060 0.22819
 N38 N 0.85229 -0.29074 0.26611
 C39 C 0.89781 -0.31059 0.28285
 C40 C 0.90717 -0.35668 0.25553
 C41 C 0.86545 -0.36158 0.22077
 H42 H 0.92189 -0.29342 0.31357
 H43 H 0.86060 -0.39098 0.19024
 N44 N 0.77169 -0.17069 0.31540
 N45 N 0.72759 -0.15834 0.29161
 C46 C 0.70849 -0.11467 0.31429
 C47 C 0.74154 -0.09964 0.35488
 C48 C 0.78133 -0.13572 0.35424
 H49 H 0.67377 -0.09445 0.30161
 H50 H 0.81562 -0.13524 0.37916
 H51 H 0.77843 -0.21002 0.22302
 H52 H 0.74189 -0.25457 0.26915
 N53 N 0.67801 0.23448 0.82581
 N54 N 0.70198 0.27865 0.83803
 C55 C 0.68094 0.29798 0.88285
 C56 C 0.64106 0.26459 0.89880
 C57 C 0.64046 0.22453 0.86201
 H58 H 0.69423 0.33310 0.90292
 H59 H 0.61595 0.18975 0.86287
 Cu60 Cu 0.75933 0.30614 0.79539
 Cu61 Cu 0.70018 0.19090 0.76684
 Cu62 Cu 0.81458 0.22834 0.70375
 N63 N 0.82712 0.32275 0.76474
 N64 N 0.84961 0.29084 0.73105
 C65 C 0.89728 0.30982 0.71880
 C66 C 0.90470 0.35719 0.74492
 C67 C 0.85932 0.36372 0.77430
 H68 H 0.92412 0.29124 0.69168
 H69 H 0.85141 0.39441 0.80270
 N70 N 0.77291 0.16669 0.68190
 N71 N 0.72944 0.15223 0.70635
 C72 C 0.71122 0.10772 0.68413
 C73 C 0.74425 0.09411 0.64319
 C74 C 0.78316 0.13203 0.64303
 H75 H 0.67696 0.08615 0.69717
 H76 H 0.81714 0.13320 0.61751
 H77 H 0.77700 0.21495 0.77527
 H78 H 0.73841 0.24772 0.72177
 N79 N 0.32117 -0.23390 0.83026
 N80 N 0.29629 -0.27724 0.84405
 C81 C 0.31785 -0.29638 0.88874
 C82 C 0.35897 -0.26381 0.90292
 C83 C 0.35971 -0.22437 0.86522
 H84 H 0.30412 -0.33077 0.91003
 H85 H 0.38507 -0.19020 0.86467
 Cu86 Cu 0.23718 -0.30409 0.80345
 Cu87 Cu 0.29915 -0.19066 0.77094
 Cu88 Cu 0.18514 -0.22775 0.70808
 N89 N 0.17026 -0.32103 0.77073
 N90 N 0.14922 -0.28970 0.73545
 C91 C 0.10216 -0.30888 0.72161
 C92 C 0.09351 -0.35585 0.74831
 C93 C 0.13757 -0.36189 0.77976
 H94 H 0.07660 -0.29074 0.69297
 H95 H 0.14414 -0.39223 0.80905
 N96 N 0.22712 -0.16649 0.68574
 N97 N 0.27042 -0.15202 0.71012
 C98 C 0.28873 -0.10750 0.68759
 C99 C 0.25590 -0.09399 0.64654
 C100 C 0.21706 -0.13190 0.64664
 H101 H 0.32288 -0.08584 0.70050
 H102 H 0.18320 -0.13306 0.62113
 H103 H 0.22180 -0.21296 0.77979
 H104 H 0.26055 -0.24813 0.72801
 N105 N 0.68028 -0.23924 0.83009
 N106 N 0.70419 -0.28303 0.84234
 C107 C 0.68286 -0.30319 0.88701
 C108 C 0.64283 -0.27075 0.90287
 C109 C 0.64262 -0.23033 0.86617
 H110 H 0.69587 -0.33836 0.90691
 H111 H 0.61795 -0.19615 0.86680
 Cu112 Cu 0.76163 -0.30915 0.79963
 Cu113 Cu 0.70171 -0.19530 0.77040
 Cu114 Cu 0.81531 -0.23030 0.70630
 N115 N 0.82909 -0.32403 0.76786
 N116 N 0.85099 -0.29161 0.73364
 C117 C 0.89840 -0.30957 0.72045
 C118 C 0.90625 -0.35688 0.74644
 C119 C 0.86145 -0.36440 0.77680
 H120 H 0.92466 -0.29048 0.69263
 H121 H 0.85403 -0.39552 0.80521
 N122 N 0.77331 -0.16991 0.68425
 N123 N 0.73013 -0.15619 0.70904
 C124 C 0.71156 -0.11233 0.68624
 C125 C 0.74410 -0.09849 0.64459
 C126 C 0.78305 -0.13551 0.64467
 H127 H 0.67740 -0.09138 0.69932
 H128 H 0.81675 -0.13622 0.61878
 H129 H 0.73940 -0.25157 0.72575
 H130 H 0.77861 -0.21757 0.77838
 N131 N 0.31829 0.23692 0.83174
 N132 N 0.29177 0.27792 0.84754
 C133 C 0.31401 0.29749 0.89172
 C134 C 0.35711 0.26759 0.90362
 C135 C 0.35838 0.22916 0.86510
 H136 H 0.29935 0.33011 0.91451
 H137 H 0.38519 0.19673 0.86293
 Cu138 Cu 0.22931 0.29988 0.81048
 Cu139 Cu 0.29688 0.19432 0.77164
 Cu140 Cu 0.18571 0.23277 0.70446
 N141 N 0.16699 0.32089 0.77260
 N142 N 0.15025 0.29458 0.73109
 C143 C 0.10559 0.31593 0.71380
 C144 C 0.09404 0.35824 0.74582
 C145 C 0.13348 0.35990 0.78311
 H146 H 0.08245 0.30114 0.68116
 H147 H 0.13638 0.38650 0.81637
 N148 N 0.22705 0.17134 0.68385
 N149 N 0.26904 0.15640 0.70988
 C150 C 0.28691 0.11183 0.68819
 C151 C 0.25514 0.09858 0.64611
 C152 C 0.21731 0.13675 0.64470
 H153 H 0.32002 0.08991 0.70234
 H154 H 0.18425 0.13804 0.61816
 H155 H 0.25887 0.25356 0.73162
 H156 H 0.21809 0.21111 0.77624
 N157 N 0.32079 -0.23141 0.17055
 N158 N 0.29410 -0.27314 0.15567
 C159 C 0.31549 -0.29244 0.11102
 C160 C 0.35831 -0.26171 0.09783
 C161 C 0.36034 -0.22305 0.13616
 H162 H 0.30056 -0.32565 0.08893
 H163 H 0.38732 -0.19020 0.13758
 Cu164 Cu 0.23281 -0.29728 0.19466
 Cu165 Cu 0.29996 -0.18892 0.23097
 Cu166 Cu 0.18921 -0.22906 0.29967
 N167 N 0.16989 -0.31804 0.23287
 N168 N 0.15314 -0.29128 0.27395
 C169 C 0.10811 -0.31271 0.29154
 C170 C 0.09632 -0.35559 0.26024
 C171 C 0.13599 -0.35749 0.22298
 H172 H 0.08495 -0.29762 0.32393
 H173 H 0.13881 -0.38458 0.19015
 N174 N 0.23080 -0.16707 0.31973
 N175 N 0.27259 -0.15126 0.29318
 C176 C 0.29042 -0.10621 0.31470
 C177 C 0.25883 -0.09371 0.35722
 C178 C 0.22117 -0.13275 0.35899
 H179 H 0.32331 -0.08349 0.30009
 H180 H 0.18823 -0.13478 0.38584
 H181 H 0.26265 -0.24845 0.27219
 H182 H 0.22147 -0.20806 0.22697
 N183 N 0.68116 0.23126 0.16619
 N184 N 0.70809 0.27287 0.15095
 C185 C 0.68679 0.29245 0.10640
 C186 C 0.64380 0.26201 0.09365
 C187 C 0.64155 0.22324 0.13210
 H188 H 0.70185 0.32563 0.08410
 H189 H 0.61425 0.19064 0.13393
 Cu190 Cu 0.76950 0.29563 0.18974
 Cu191 Cu 0.70165 0.18851 0.22685
 Cu192 Cu 0.81226 0.22890 0.29559
 N193 N 0.83132 0.31829 0.22787
 N194 N 0.84794 0.29181 0.26929
 C195 C 0.89253 0.31391 0.28684
 C196 C 0.90409 0.35685 0.25512
 C197 C 0.86476 0.35818 0.21773
 H198 H 0.91561 0.29923 0.31945
 H199 H 0.86206 0.38501 0.18454
 N200 N 0.77057 0.16643 0.31569
 N201 N 0.72883 0.15077 0.28925
 C202 C 0.71061 0.10585 0.31108
 C203 C 0.74186 0.09317 0.35372
 C204 C 0.77976 0.13204 0.35521
 H205 H 0.67758 0.08338 0.29670
 H206 H 0.81248 0.13402 0.38217
 H207 H 0.73921 0.24766 0.26793
 H208 H 0.78049 0.20676 0.22357
 C209 C 0.25935 0.05047 0.38901
 C210 C 0.26171 0.00267 0.36205
 C211 C 0.26051 -0.04523 0.38923
 C212 C 0.25889 -0.04571 0.44542
 C213 C 0.25759 0.00247 0.47345
 C214 C 0.25790 0.05075 0.44518
 C215 C 0.25888 0.09795 0.47390
 C216 C 0.25842 0.09788 0.52909
 C217 C 0.25685 0.05060 0.55796
 C218 C 0.25696 0.00241 0.52990
 C219 C 0.26050 -0.09294 0.47437
 C220 C 0.25963 -0.09299 0.52958
 C221 C 0.25747 -0.04582 0.55820
 C222 C 0.25789 -0.04547 0.61437
 C223 C 0.25884 0.00234 0.64136
 C224 C 0.25731 0.05017 0.61414
 H225 H 0.26130 0.13559 0.45411
 H226 H 0.26053 0.13547 0.54877
 H227 H 0.26366 -0.13044 0.45477
 H228 H 0.26197 -0.13052 0.54952
 H229 H 0.26227 0.00269 0.31898
 H230 H 0.25875 0.00229 0.68443
 C231 C 0.73924 -0.05104 0.38676
 C232 C 0.73736 -0.00327 0.35941
 C233 C 0.73941 0.04472 0.38618
 C234 C 0.74100 0.04528 0.44239
 C235 C 0.74187 -0.00287 0.47083
 C236 C 0.74116 -0.05120 0.44296
 C237 C 0.74055 -0.09835 0.47209
 C238 C 0.74120 -0.09816 0.52735
 C239 C 0.74258 -0.05081 0.55583
 C240 C 0.74264 -0.00267 0.52732
 C241 C 0.73984 0.09258 0.47097
 C242 C 0.74076 0.09277 0.52618
 C243 C 0.74255 0.04566 0.55520
 C244 C 0.74218 0.04549 0.61140
 C245 C 0.74078 -0.00226 0.63883
 C246 C 0.74196 -0.05020 0.61206
 H247 H 0.73838 -0.13602 0.45252
 H248 H 0.73945 -0.13568 0.54745
 H249 H 0.73698 0.13007 0.45109
 H250 H 0.73881 0.13037 0.54582
 H251 H 0.73673 -0.00346 0.31635
 H252 H 0.74082 -0.00207 0.68190
 C253 C 0.39060 0.27094 0.04885
 C254 C 0.36344 0.27261 0.00085
 C255 C 0.38938 0.27056 -0.04796
 C256 C 0.44455 0.26903 -0.04925
 C257 C 0.47280 0.26808 -0.00089
 C258 C 0.44578 0.26901 0.04836
 C259 C 0.47474 0.26988 0.09567
 C260 C 0.52896 0.26850 0.09478
 C261 C 0.55654 0.26643 0.04653
 C262 C 0.52824 0.26697 -0.00179
 C263 C 0.47228 0.27029 -0.09749
 C264 C 0.52650 0.26927 -0.09836
 C265 C 0.55528 0.26716 -0.05102
 C266 C 0.61046 0.26713 -0.05156
 C267 C 0.63780 0.26742 -0.00365
 C268 C 0.61175 0.26585 0.04519
 H269 H 0.45590 0.27276 0.13399
 H270 H 0.54895 0.27033 0.13248
 H271 H 0.45250 0.27334 -0.13520
 H272 H 0.54558 0.27123 -0.13666
 H273 H 0.32112 0.27301 0.00154
 H274 H 0.68011 0.26660 -0.00448
 C275 C 0.39030 0.73398 -0.04792
 C276 C 0.36350 0.73367 0.00044
 C277 C 0.39001 0.73508 0.04886
 C278 C 0.44526 0.73446 0.04931
 C279 C 0.47317 0.73392 0.00061
 C280 C 0.44556 0.73393 -0.04822
 C281 C 0.47388 0.73170 -0.09596
 C282 C 0.52805 0.72965 -0.09589
 C283 C 0.55631 0.72986 -0.04809
 C284 C 0.52872 0.73200 0.00074
 C285 C 0.47322 0.73170 0.09707
 C286 C 0.52742 0.72945 0.09721
 C287 C 0.55638 0.73086 0.04962
 C288 C 0.61178 0.72661 0.04929
 C289 C 0.63775 0.72156 0.00039
 C290 C 0.61128 0.72564 -0.04790
 H291 H 0.45444 0.73008 -0.13397
 H292 H 0.54740 0.72623 -0.13391
 H293 H 0.45345 0.72941 0.13500
 H294 H 0.54594 0.72430 0.13529
 H295 H 0.32118 0.73443 0.00034
 H296 H 0.67998 0.71921 -0.00050
 C297 C 0.04742 0.38998 0.25708
 C298 C -0.00020 0.36288 0.25784
 C299 C -0.04774 0.38922 0.25620
 C300 C -0.04807 0.44481 0.25493
 C301 C -0.00011 0.47309 0.25505
 C302 C 0.04782 0.44556 0.25653
 C303 C 0.09469 0.47431 0.26013
 C304 C 0.09476 0.52878 0.26122
 C305 C 0.04798 0.55699 0.25846
 C306 C -0.00007 0.52899 0.25556
 C307 C -0.09494 0.47288 0.25646
 C308 C -0.09493 0.52744 0.25677
 C309 C -0.04804 0.55666 0.25516
 C310 C -0.04754 0.61246 0.25836
 C311 C 0.00046 0.63883 0.26367
 C312 C 0.04787 0.61236 0.26151
 H313 H 0.13187 0.45510 0.26398
 H314 H 0.13203 0.54834 0.26611
 H315 H -0.13233 0.45309 0.25927
 H316 H -0.13233 0.54610 0.26081
 H317 H -0.00025 0.32032 0.25800
 H318 H 0.00135 0.68135 0.26540
 C319 C 0.04590 0.38986 0.74498
 C320 C -0.00158 0.36284 0.74156
 C321 C -0.04955 0.38864 0.74465
 C322 C -0.04959 0.44451 0.74770
 C323 C -0.00144 0.47281 0.75012
 C324 C 0.04635 0.44523 0.74860
 C325 C 0.09336 0.47384 0.74674
 C326 C 0.09385 0.52826 0.74702
 C327 C 0.04738 0.55703 0.75018
 C328 C -0.00097 0.52893 0.75071
 C329 C -0.09578 0.47320 0.74212
 C330 C -0.09538 0.52762 0.74229
 C331 C -0.04879 0.55663 0.74822
 C332 C -0.04820 0.61236 0.74513
 C333 C -0.00007 0.63876 0.74139
 C334 C 0.04766 0.61280 0.74659
 H335 H 0.13050 0.45464 0.74225
 H336 H 0.13132 0.54706 0.74133
 H337 H -0.13272 0.45432 0.73388
 H338 H -0.13206 0.54635 0.73403
 H339 H -0.00086 0.32033 0.73989
 H340 H 0.00017 0.68127 0.73972
   
