data_POSCAR
  _audit_creation_date              2014-09-24
  _audit_creation_method            'ToBaCCo'
  _symmetry_space_group_name_H-M    'P1'
  _symmetry_Int_Tables_number       1
  _symmetry_cell_setting            triclinic
  loop_
  _symmetry_equiv_pos_as_xyz
 x,y,z
_cell_length_a 25.5396
_cell_length_b 25.0195
_cell_length_c 70.4875
_cell_angle_alpha 91.349200
_cell_angle_beta 88.762700
_cell_angle_gamma 118.608400
loop_
  _atom_site_label
  _atom_site_type_symbol
  _atom_site_fract_x
  _atom_site_fract_y
  _atom_site_fract_z
C1 C -0.06656 -0.07387 0.48204
 C2 C -0.02823 -0.04370 0.49711
 C3 C -0.02304 -0.07712 0.51190
 C4 C -0.05590 -0.14120 0.51193
 C5 C -0.09449 -0.17072 0.49656
 C6 C -0.10065 -0.13786 0.48148
 C7 C 0.00628 0.02340 0.49751
 C8 C -0.00033 0.05655 0.51281
 C9 C 0.03175 0.12042 0.51324
 C10 C 0.07152 0.15081 0.49826
 C11 C 0.07890 0.11809 0.48288
 C12 C 0.04562 0.05426 0.48257
 H13 H -0.06813 -0.04673 0.47056
 H14 H 0.00548 -0.05225 0.52365
 H15 H -0.03063 0.03246 0.52436
 H16 H 0.05022 0.02842 0.47070
 H17 H -0.12009 -0.21971 0.49636
 H18 H 0.09674 0.20007 0.49856
 C19 C 1.05482 -0.00829 0.15352
 C20 C 1.02285 -0.00113 0.16890
 C21 C 1.05360 0.03559 0.18442
 C22 C 1.11598 0.06711 0.18432
 C23 C 1.14778 0.06030 0.16880
 C24 C 1.11785 0.02141 0.15327
 C25 C 0.95712 -0.03041 0.16844
 C26 C 0.92265 -0.06777 0.18332
 C27 C 0.86015 -0.09526 0.18299
 C28 C 0.83247 -0.08442 0.16763
 C29 C 0.86648 -0.04680 0.15268
 C30 C 0.92886 -0.02020 0.15317
 H31 H 1.02979 -0.03583 0.14154
 H32 H 1.02898 0.04140 0.19628
 H33 H 0.94459 -0.07521 0.19518
 H34 H 0.95558 0.00862 0.14167
 H35 H 1.19592 0.08295 0.16962
 H36 H 0.78427 -0.10529 0.16732
 C37 C 0.07616 1.02037 0.85179
 C38 C 0.04050 1.01488 0.83624
 C39 C 0.03693 0.97699 0.82086
 C40 C 0.06840 0.94406 0.82090
 C41 C 0.10411 0.94985 0.83652
 C42 C 0.10901 0.98828 0.85220
 C43 C 0.00686 1.04905 0.83602
 C44 C 0.01780 1.09078 0.82164
 C45 C -0.01440 1.12285 0.82106
 C46 C -0.05814 1.11243 0.83506
 C47 C -0.07163 1.06906 0.84949
 C48 C -0.03743 1.03826 0.84978
 H49 H 0.07659 1.04869 0.86370
 H50 H 0.00972 0.97342 0.80880
 H51 H 0.05113 1.09777 0.81080
 H52 H -0.04663 1.00304 0.85993
 H53 H 0.12949 0.92550 0.83597
 H54 H -0.07966 1.14051 0.83487
 O55 O 0.57302 0.03379 -0.01842
 O56 O 0.47848 0.04187 0.01989
 O57 O 0.57476 0.03091 0.01867
 O58 O 0.47185 0.03504 -0.01708
 O59 O 0.42293 -0.06534 -0.01713
 O60 O 0.52128 -0.06918 0.01889
 O61 O 0.42506 -0.05825 0.01991
 O62 O 0.52439 -0.06666 -0.01793
 Cu63 Cu 0.52966 0.04538 0.00075
 Cu64 Cu 0.46822 -0.07480 0.00093
 C65 C 0.56538 -0.01726 -0.02474
 C66 C 0.43567 -0.00623 0.02651
 C67 C 0.56484 -0.02047 0.02498
 C68 C 0.43002 -0.01515 -0.02334
 O69 O 0.05960 0.59549 0.68518
 O70 O 0.06641 0.49202 0.64890
 O71 O 0.06193 0.59377 0.64819
 O72 O 0.05714 0.49040 0.68587
 O73 O -0.04104 0.44226 0.68437
 O74 O -0.03632 0.54391 0.64723
 O75 O -0.03177 0.44239 0.64748
 O76 O -0.03867 0.54730 0.68423
 Cu77 Cu 0.07107 0.54778 0.66715
 Cu78 Cu -0.04673 0.48910 0.66571
 C79 C 0.00973 0.58933 0.69103
 C80 C 0.01893 0.44972 0.64188
 C81 C 0.01314 0.58600 0.64123
 C82 C 0.00671 0.44865 0.69159
 O83 O 0.41503 0.47443 0.35065
 O84 O 0.52149 0.56820 0.31420
 O85 O 0.41700 0.47272 0.31356
 O86 O 0.52269 0.56636 0.35105
 O87 O 0.56194 0.50468 0.34999
 O88 O 0.45585 0.41063 0.31352
 O89 O 0.56124 0.50698 0.31300
 O90 O 0.45457 0.41302 0.35039
 Cu91 Cu 0.46503 0.52648 0.33246
 Cu92 Cu 0.51241 0.45274 0.33162
 C93 C 0.41643 0.42797 0.35688
 C94 C 0.55943 0.55394 0.30727
 C95 C 0.41845 0.42538 0.30724
 C96 C 0.56052 0.55125 0.35689
 C97 C -0.03387 0.13909 0.53648
 C98 C -0.04162 0.17250 0.55142
 C99 C 0.00766 0.22237 0.55948
 C100 C 0.06516 0.23856 0.55239
 C101 C 0.07295 0.20538 0.53741
 C102 C 0.02352 0.15532 0.52927
 N103 N -0.00166 0.25617 0.57465
 N104 N 0.04190 0.30063 0.58281
 C105 C 0.03425 0.33590 0.59783
 C106 C 0.08511 0.38291 0.60613
 C107 C 0.07995 0.41934 0.62054
 C108 C 0.02348 0.40949 0.62692
 C109 C -0.02776 0.36186 0.61865
 C110 C -0.02245 0.32525 0.60420
 H111 H -0.07283 0.10115 0.53034
 H112 H -0.08615 0.15966 0.55671
 H113 H 0.10406 0.27690 0.55838
 H114 H 0.11772 0.21849 0.53230
 H115 H 0.12900 0.39153 0.60132
 H116 H 0.12036 0.45558 0.62657
 H117 H -0.07184 0.35314 0.62325
 H118 H -0.06245 0.28909 0.59795
 C119 C 0.77483 0.87031 0.20615
 C120 C 0.73949 0.83215 0.22063
 C121 C 0.75189 0.78786 0.22783
 C122 C 0.80081 0.78247 0.22054
 C123 C 0.83652 0.82095 0.20609
 C124 C 0.82359 0.86499 0.19867
 N125 N 0.71374 0.74912 0.24244
 N126 N 0.71934 0.70552 0.24929
 C127 C 0.67961 0.66802 0.26389
 C128 C 0.68507 0.61862 0.27057
 C129 C 0.64615 0.58113 0.28469
 C130 C 0.60127 0.59283 0.29237
 C131 C 0.59626 0.64266 0.28565
 C132 C 0.63487 0.67975 0.27158
 H133 H 0.76429 0.90433 0.20089
 H134 H 0.70204 0.83685 0.22621
 H135 H 0.81124 0.74854 0.22592
 H136 H 0.87355 0.81555 0.20048
 H137 H 0.71936 0.60904 0.26477
 H138 H 0.65118 0.54316 0.28958
 H139 H 0.56225 0.65305 0.29122
 H140 H 0.62961 0.71762 0.26672
 C141 C 0.17286 0.04892 -0.12111
 C142 C 0.21116 0.05572 -0.10624
 C143 C 0.22334 0.00864 -0.10189
 C144 C 0.19655 -0.04573 -0.11258
 C145 C 0.15882 -0.05253 -0.12753
 C146 C 0.14631 -0.00523 -0.13224
 N147 N 0.26321 0.01680 -0.08672
 N148 N 0.27112 -0.02705 -0.08143
 C149 C 0.31089 -0.02181 -0.06665
 C150 C 0.31134 -0.07465 -0.06098
 C151 C 0.34975 -0.07218 -0.04684
 C152 C 0.38916 -0.01637 -0.03815
 C153 C 0.38891 0.03700 -0.04388
 C154 C 0.34979 0.03430 -0.05801
 H155 H 0.16672 0.08761 -0.12430
 H156 H 0.23177 0.09805 -0.09817
 H157 H 0.20476 -0.08319 -0.10942
 H158 H 0.13796 -0.09612 -0.13486
 H159 H 0.28169 -0.11805 -0.06758
 H160 H 0.34886 -0.11415 -0.04286
 H161 H 0.41873 0.08061 -0.03744
 H162 H 0.35029 0.07583 -0.06227
 C163 C -0.09865 0.76794 0.53217
 C164 C -0.09343 0.73481 0.54698
 C165 C -0.04042 0.75708 0.55704
 C166 C 0.00773 0.81360 0.55226
 C167 C 0.00261 0.84729 0.53753
 C168 C -0.05069 0.82501 0.52706
 N169 N -0.03730 0.72135 0.57210
 N170 N 0.01009 0.73574 0.58131
 C171 C 0.01059 0.69848 0.59638
 C172 C 0.06445 0.71258 0.60519
 C173 C 0.06580 0.67623 0.61981
 C174 C 0.01299 0.62541 0.62590
 C175 C -0.04095 0.61181 0.61708
 C176 C -0.04215 0.64778 0.60247
 H177 H -0.14155 0.74941 0.52540
 H178 H -0.13113 0.69153 0.55072
 H179 H 0.04934 0.83164 0.55984
 H180 H 0.04165 0.88962 0.53395
 H181 H 0.10544 0.75157 0.60064
 H182 H 0.10800 0.68792 0.62634
 H183 H -0.08245 0.57299 0.62138
 H184 H -0.08443 0.63588 0.59597
 C185 C 0.13741 0.08391 0.21900
 C186 C 0.16840 0.12148 0.23432
 C187 C 0.20914 0.18293 0.23152
 C188 C 0.21928 0.20648 0.21310
 C189 C 0.18933 0.16856 0.19769
 C190 C 0.14804 0.10707 0.20055
 N191 N 0.24146 0.21967 0.24742
 N192 N 0.26771 0.27760 0.24719
 C193 C 0.30272 0.31344 0.26287
 C194 C 0.31821 0.37518 0.26432
 C195 C 0.35436 0.41155 0.27913
 C196 C 0.37677 0.38679 0.29238
 C197 C 0.36097 0.32480 0.29091
 C198 C 0.32383 0.28830 0.27641
 H199 H 0.10590 0.03653 0.22146
 H200 H 0.16056 0.10276 0.24843
 H201 H 0.25109 0.25371 0.21059
 H202 H 0.19796 0.18724 0.18355
 H203 H 0.30241 0.39515 0.25392
 H204 H 0.36623 0.45930 0.27989
 H205 H 0.37749 0.30455 0.30098
 H206 H 0.31285 0.24082 0.27550
 C207 C 0.83535 0.07075 -0.14073
 C208 C 0.79021 0.05969 -0.12740
 C209 C 0.78840 0.03259 -0.11018
 C210 C 0.83268 0.01673 -0.10626
 C211 C 0.87883 0.02886 -0.11939
 C212 C 0.88149 0.05644 -0.13699
 N213 N 0.74297 0.02484 -0.09659
 N214 N 0.72926 -0.01058 -0.08252
 C215 C 0.68592 -0.01383 -0.06868
 C216 C 0.66034 -0.06286 -0.05619
 C217 C 0.61939 -0.06546 -0.04217
 C218 C 0.60488 -0.01805 -0.04021
 C219 C 0.63047 0.03084 -0.05281
 C220 C 0.67015 0.03271 -0.06700
 H221 H 0.83207 0.08882 -0.15415
 H222 H 0.75599 0.07183 -0.13061
 H223 H 0.83269 -0.00329 -0.09281
 H224 H 0.91337 0.01866 -0.11509
 H225 H 0.67227 -0.09893 -0.05729
 H226 H 0.60048 -0.10344 -0.03255
 H227 H 0.61986 0.06785 -0.05165
 H228 H 0.68957 0.07129 -0.07638
 C229 C 0.12451 -0.04273 0.12710
 C230 C 0.15650 -0.05236 0.11229
 C231 C 0.21434 -0.00774 0.10776
 C232 C 0.24021 0.04696 0.11831
 C233 C 0.20866 0.05663 0.13323
 C234 C 0.14997 0.01200 0.13798
 N235 N 0.24595 -0.01884 0.09246
 N236 N 0.29698 0.02220 0.08697
 C237 C 0.33018 0.01299 0.07183
 C238 C 0.38329 0.06275 0.06588
 C239 C 0.41718 0.05625 0.05115
 C240 C 0.39878 -0.00060 0.04211
 C241 C 0.34550 -0.05089 0.04819
 C242 C 0.31123 -0.04412 0.06291
 H243 H 0.08076 -0.07977 0.13041
 H244 H 0.13618 -0.09497 0.10436
 H245 H 0.28487 0.08248 0.11502
 H246 H 0.23002 0.10040 0.14045
 H247 H 0.39837 0.10689 0.07268
 H248 H 0.45810 0.09589 0.04691
 H249 H 0.33020 -0.09521 0.04150
 H250 H 0.27027 -0.08333 0.06735
 C251 C 0.83260 0.86011 0.45624
 C252 C 0.79261 0.82949 0.44158
 C253 C 0.77908 0.77014 0.43634
 C254 C 0.80619 0.74150 0.44593
 C255 C 0.84578 0.77166 0.46068
 C256 C 0.85978 0.83166 0.46625
 N257 N 0.73754 0.73967 0.42137
 N258 N 0.72673 0.68705 0.41538
 C259 C 0.68508 0.65480 0.40063
 C260 C 0.67981 0.59928 0.39415
 C261 C 0.63956 0.56597 0.37990
 C262 C 0.60328 0.58748 0.37192
 C263 C 0.60844 0.64331 0.37849
 C264 C 0.64921 0.67690 0.39272
 H265 H 0.83970 0.90511 0.46017
 H266 H 0.77170 0.85198 0.43437
 H267 H 0.79690 0.69571 0.44204
 H268 H 0.86695 0.74818 0.46709
 H269 H 0.70712 0.58178 0.40018
 H270 H 0.63664 0.52309 0.37523
 H271 H 0.58116 0.66108 0.37261
 H272 H 0.65245 0.71974 0.39757
 C273 C 0.05477 0.20677 0.79943
 C274 C 0.06440 0.24702 0.78465
 C275 C 0.01609 0.24723 0.77572
 C276 C -0.04225 0.20678 0.78182
 C277 C -0.05190 0.16680 0.79660
 C278 C -0.00355 0.16627 0.80556
 N279 N 0.02693 0.28857 0.76053
 N280 N -0.01609 0.28819 0.75165
 C281 C -0.00812 0.32853 0.73649
 C282 C -0.05891 0.32297 0.72764
 C283 C -0.05380 0.36168 0.71299
 C284 C 0.00257 0.40710 0.70687
 C285 C 0.05382 0.41251 0.71570
 C286 C 0.04854 0.37343 0.73043
 H287 H 0.09289 0.20773 0.80619
 H288 H 0.10956 0.27801 0.78013
 H289 H -0.08046 0.20588 0.77516
 H290 H -0.09732 0.13556 0.80083
 H291 H -0.10275 0.28853 0.73220
 H292 H -0.09423 0.35614 0.70654
 H293 H 0.09781 0.44704 0.71132
 H294 H 0.08847 0.37850 0.73711
 C295 C 0.85852 0.02353 0.12942
 C296 C 0.82952 0.03410 0.11449
 C297 C 0.77869 -0.01397 0.10644
 C298 C 0.75716 -0.07307 0.11349
 C299 C 0.78586 -0.08361 0.12844
 C300 C 0.83674 -0.03544 0.13660
 N301 N 0.74914 -0.00205 0.09133
 N302 N 0.70437 -0.04530 0.08323
 C303 C 0.67215 -0.03665 0.06833
 C304 C 0.62484 -0.08822 0.06032
 C305 C 0.59075 -0.08260 0.04614
 C306 C 0.60322 -0.02489 0.03965
 C307 C 0.65128 0.02718 0.04759
 C308 C 0.68563 0.02137 0.06186
 H309 H 0.89733 0.06160 0.13557
 H310 H 0.84651 0.07985 0.10924
 H311 H 0.71799 -0.11114 0.10753
 H312 H 0.76853 -0.12960 0.13351
 H313 H 0.61408 -0.13309 0.06521
 H314 H 0.55420 -0.12374 0.04037
 H315 H 0.66195 0.07221 0.04289
 H316 H 0.72211 0.06193 0.06792
 C317 C 0.15881 0.12853 0.45951
 C318 C 0.19921 0.15952 0.44488
 C319 C 0.20279 0.21276 0.43762
 C320 C 0.16523 0.23476 0.44519
 C321 C 0.12494 0.20394 0.45984
 C322 C 0.12133 0.15052 0.46719
 N323 N 0.24497 0.24384 0.42273
 N324 N 0.24926 0.29189 0.41548
 C325 C 0.29120 0.32426 0.40070
 C326 C 0.29176 0.37608 0.39351
 C327 C 0.33226 0.40946 0.37924
 C328 C 0.37326 0.39160 0.37187
 C329 C 0.37256 0.33930 0.37909
 C330 C 0.33181 0.30581 0.39340
 H331 H 0.15752 0.08789 0.46504
 H332 H 0.22799 0.14217 0.43922
 H333 H 0.16700 0.27577 0.43980
 H334 H 0.09614 0.22154 0.46529
 H335 H 0.26071 0.39072 0.39903
 H336 H 0.33152 0.44947 0.37403
 H337 H 0.40355 0.32437 0.37371
 H338 H 0.33218 0.26583 0.39877
 C339 C 0.11650 0.90487 0.79706
 C340 C 0.11304 0.86672 0.78181
 C341 C 0.05795 0.82708 0.77377
 C342 C 0.00595 0.82631 0.78104
 C343 C 0.00936 0.86471 0.79628
 C344 C 0.06468 0.90412 0.80451
 N345 N 0.05645 0.78796 0.75841
 N346 N 0.00834 0.74883 0.75062
 C347 C 0.00905 0.71020 0.73538
 C348 C -0.04489 0.66562 0.72776
 C349 C -0.04513 0.62638 0.71320
 C350 C 0.00884 0.63138 0.70603
 C351 C 0.06285 0.67671 0.71359
 C352 C 0.06299 0.71563 0.72810
 H353 H 0.15980 0.93537 0.80293
 H354 H 0.15342 0.86782 0.77627
 H355 H -0.03716 0.79598 0.77504
 H356 H -0.03131 0.86290 0.80183
 H357 H -0.08680 0.66095 0.73323
 H358 H -0.08744 0.59196 0.70767
 H359 H 0.10525 0.68194 0.70841
 H360 H 0.10535 0.74973 0.73368
   
