data_POSCAR
  _audit_creation_date              2014-09-24
  _audit_creation_method            'ToBaCCo'
  _symmetry_space_group_name_H-M    'P1'
  _symmetry_Int_Tables_number       1
  _symmetry_cell_setting            triclinic
  loop_
  _symmetry_equiv_pos_as_xyz
 x,y,z
_cell_length_a 15.5943
_cell_length_b 15.5570
_cell_length_c 16.7625
_cell_angle_alpha 89.428700
_cell_angle_beta 89.645800
_cell_angle_gamma 89.660000
loop_
  _atom_site_label
  _atom_site_type_symbol
  _atom_site_fract_x
  _atom_site_fract_y
  _atom_site_fract_z
O1 O 0.45677 0.90273 -0.57533
 O2 O 0.61366 0.97452 -0.42665
 O3 O 0.46618 0.89630 -0.41949
 O4 O 0.60634 0.97645 -0.58113
 O5 O 0.53856 1.10154 -0.57858
 O6 O 0.39810 1.02119 -0.41674
 O7 O 0.54643 1.09974 -0.42218
 O8 O 0.38984 1.02822 -0.57087
 Cu9 Cu 0.54208 0.92474 -0.50103
 Cu10 Cu 0.46204 1.07554 -0.49624
 C11 C 0.39723 0.95304 -0.59872
 C12 C 0.60645 1.04996 -0.39905
 C13 C 0.40820 0.94481 -0.39086
 C14 C 0.59584 1.05240 -0.60773
 O15 O -0.51841 1.38273 0.07520
 O16 O -0.45404 1.60866 0.06622
 O17 O -0.60140 1.52852 0.08854
 O18 O -0.37889 1.46140 0.04841
 O19 O -0.40587 1.46497 -0.08091
 O20 O -0.62325 1.54520 -0.04085
 O21 O -0.47986 1.61454 -0.06333
 O22 O -0.55842 1.39203 -0.05077
 Cu23 Cu -0.48616 1.49559 0.08284
 Cu24 Cu -0.51866 1.50298 -0.07262
 C25 C -0.55159 1.34950 0.01417
 C26 C -0.45469 1.64952 0.00033
 C27 C -0.64928 1.55083 0.03067
 C28 C -0.35516 1.45062 -0.02330
 O29 O -0.02749 0.39948 0.41627
 O30 O -0.09569 0.53691 0.58380
 O31 O -0.10621 0.54818 0.42760
 O32 O -0.02265 0.38771 0.57016
 O33 O 0.10211 0.45440 0.56900
 O34 O 0.01892 0.61406 0.42491
 O35 O 0.02816 0.60495 0.57891
 O36 O 0.09715 0.46626 0.41319
 Cu37 Cu -0.07587 0.46198 0.49946
 Cu38 Cu 0.07432 0.54119 0.49619
 C39 C 0.04695 0.40950 0.38654
 C40 C -0.04540 0.59401 0.61009
 C41 C -0.05813 0.60801 0.40179
 C42 C 0.05393 0.39421 0.59419
 O43 O -0.20167 1.07366 -0.11723
 O44 O 0.21027 0.91630 -0.10128
 O45 O 0.04045 1.10047 -0.21266
 O46 O -0.02647 0.87524 -0.20108
 O47 O -0.06855 0.78495 -0.09823
 O48 O 0.07761 1.20121 -0.11909
 O49 O 0.11738 0.95106 -0.20338
 O50 O -0.10405 1.02781 -0.21186
 Zr51 Zr 0.00456 0.99150 -0.14315
 O52 O 0.05005 0.89538 -0.06828
 O53 O -0.04490 1.09447 -0.08103
 C54 C -0.17751 1.06043 -0.19020
 C55 C 0.19054 0.92355 -0.17613
 C56 C 0.06828 1.17558 -0.19176
 C57 C -0.05464 0.80237 -0.17305
 H58 H 0.14892 1.06272 -0.10836
 O59 O 0.10077 1.04218 -0.07480
 H60 H -0.14153 0.92448 -0.10695
 O61 O -0.09583 0.94854 -0.07336
 O62 O 0.20520 0.92962 0.11248
 O63 O -0.21126 1.07741 0.09741
 O64 O 0.18215 1.16762 -0.00614
 O65 O 0.03513 0.75207 0.01691
 O66 O -0.18162 0.83232 0.00846
 O67 O -0.03565 1.24607 -0.02324
 O68 O 0.03230 1.12235 0.19812
 O69 O -0.04396 0.90128 0.20958
 O70 O 0.07362 1.21241 0.09489
 O71 O -0.08214 0.80093 0.11597
 O72 O 0.24644 1.03449 0.00666
 O73 O -0.16824 1.18178 -0.01732
 O74 O -0.24640 0.96501 -0.00473
 O75 O 0.16807 0.81575 0.01039
 O76 O 0.10777 0.97580 0.20720
 O77 O -0.11785 1.04368 0.19934
 Zr78 Zr 0.14194 0.94865 0.00336
 Zr79 Zr -0.14112 1.04984 -0.00729
 Zr80 Zr 0.05014 1.14119 -0.00909
 Zr81 Zr -0.04950 0.85796 0.00554
 Zr82 Zr -0.00324 1.00786 0.13951
 O83 O -0.10031 0.95669 0.07183
 O84 O 0.09756 1.05069 0.06983
 C85 C 0.18192 0.94470 0.18534
 C86 C -0.19184 1.06890 0.17219
 C87 C 0.24840 1.11776 0.00235
 C88 C 0.11820 0.74970 0.01791
 C89 C -0.24831 0.88202 0.00275
 C90 C -0.11879 1.24798 -0.02467
 C91 C 0.06178 1.19462 0.16992
 C92 C -0.07413 0.82714 0.18868
 H93 H -0.07281 1.15153 0.09432
 O94 O -0.04897 1.10262 0.06399
 H95 H 0.06606 0.86082 0.11433
 O96 O 0.04522 0.90550 0.07682
 N97 N 0.29075 0.85114 0.24151
 N98 N 0.34922 0.85086 0.29839
 C99 C 0.33813 0.92417 0.33939
 C100 C 0.27009 0.96935 0.30631
 N101 N 0.24246 0.92125 0.24550
 H102 H 0.24687 1.03291 0.32140
 N103 N -0.31485 1.15156 0.21881
 N104 N -0.37245 1.14969 0.27726
 C105 C -0.35112 1.08301 0.32533
 C106 C -0.27810 1.04440 0.29502
 N107 N -0.25759 1.08929 0.22878
 H108 H -0.24577 0.98696 0.31651
 N109 N -0.28382 1.15553 -0.24886
 N110 N -0.34388 1.15443 -0.30434
 C111 C -0.33641 1.07835 -0.34167
 C112 C -0.26857 1.03321 -0.30820
 N113 N -0.23764 1.08390 -0.25068
 H114 H -0.24752 0.96823 -0.32066
 N115 N 0.31310 0.84011 -0.22277
 N116 N 0.37269 0.84391 -0.27941
 C117 C 0.35331 0.91250 -0.32588
 C118 C 0.27933 0.95011 -0.29665
 N119 N 0.25623 0.90276 -0.23262
 H120 H 0.24819 1.00866 -0.31702
 N121 N 0.37796 1.14750 0.07448
 N122 N 0.43166 1.21255 0.08185
 C123 C 0.41600 1.26689 0.02037
 C124 C 0.35169 1.23299 -0.02525
 N125 N 0.32915 1.15888 0.01090
 H126 H 0.31729 1.26420 -0.07357
 N127 N 0.16355 0.63869 0.10915
 N128 N 0.23074 0.58678 0.11700
 C129 C 0.27025 0.58563 0.04533
 C130 C 0.22490 0.63743 -0.00669
 N131 N 0.15892 0.66967 0.03537
 H132 H 0.24446 0.65884 -0.06573
 N133 N -0.39251 0.86283 -0.04790
 N134 N -0.44953 0.80008 -0.05183
 C135 C -0.42124 0.73675 -0.00299
 C136 C -0.34561 0.76191 0.03049
 N137 N -0.32960 0.84071 0.00101
 H138 H -0.30213 0.72329 0.06629
 N139 N -0.15715 1.37463 -0.10210
 N140 N -0.22297 1.42898 -0.10590
 C141 C -0.26942 1.41627 -0.03874
 C142 C -0.23056 1.35307 0.00597
 N143 N -0.16065 1.32882 -0.03516
 H144 H -0.25580 1.32108 0.05874
 N145 N 0.14343 1.31784 0.21384
 N146 N 0.14160 1.37626 0.27080
 C147 C 0.07526 1.35621 0.31935
 C148 C 0.03684 1.28289 0.29087
 N149 N 0.08155 1.26104 0.22515
 H150 H -0.01992 1.25089 0.31350
 N151 N 0.16210 1.28314 -0.24980
 N152 N 0.16059 1.34302 -0.30648
 C153 C 0.08641 1.33307 -0.34608
 C154 C 0.04276 1.26452 -0.31257
 N155 N 0.09241 1.23516 -0.25296
 H156 H -0.02130 1.24261 -0.32593
 N157 N -0.14191 0.68571 -0.22258
 N158 N -0.14196 0.62908 -0.28112
 C159 C -0.07092 0.64391 -0.32535
 C160 C -0.02763 0.71236 -0.29261
 N161 N -0.07421 0.73634 -0.22872
 H162 H 0.03251 0.74044 -0.31187
 N163 N -0.16807 0.71950 0.24687
 N164 N -0.16581 0.65925 0.30324
 C165 C -0.09142 0.66935 0.34252
 C166 C -0.04852 0.73840 0.30921
 N167 N -0.09873 0.76798 0.25006
 H168 H 0.01559 0.76043 0.32223
   
