data_POSCAR
  _audit_creation_date              2014-09-24
  _audit_creation_method            'ToBaCCo'
  _symmetry_space_group_name_H-M    'P1'
  _symmetry_Int_Tables_number       1
  _symmetry_cell_setting            triclinic
  loop_
  _symmetry_equiv_pos_as_xyz
 x,y,z
_cell_length_a 30.4891
_cell_length_b 21.6693
_cell_length_c 29.7762
_cell_angle_alpha 89.476200
_cell_angle_beta 88.905900
_cell_angle_gamma 90.675900
loop_
  _atom_site_label
  _atom_site_type_symbol
  _atom_site_fract_x
  _atom_site_fract_y
  _atom_site_fract_z
C1 C 0.31657 0.37333 0.20929
 H2 H 0.33662 0.34637 0.23144
 C3 C 0.33648 0.40806 0.17456
 H4 H 0.37179 0.40732 0.17022
 C5 C 0.24632 0.40796 0.18833
 H6 H 0.21115 0.40728 0.19387
 C7 C 0.26488 0.44410 0.15379
 H8 H 0.24370 0.47113 0.13269
 N9 N 0.27221 0.37370 0.21532
 C10 C 0.19137 0.35852 0.33777
 H11 H 0.18575 0.30933 0.34132
 C12 C 0.17259 0.39870 0.36898
 H13 H 0.15221 0.37997 0.39609
 C14 C 0.22657 0.44231 0.29961
 H15 H 0.24815 0.45933 0.27301
 C16 C 0.20917 0.48389 0.33051
 H17 H 0.21713 0.53255 0.32695
 Zn18 Zn 0.24337 0.32624 0.26094
 N19 N 0.21724 0.38086 0.30341
 C20 C 0.29064 0.27947 0.33514
 N21 N 0.28450 0.27470 0.29013
 C22 C 0.30749 0.23331 0.26524
 C23 C 0.33766 0.19450 0.28545
 C24 C 0.32018 0.24098 0.35683
 C25 C 0.15820 0.27015 0.24719
 C26 C 0.12902 0.23029 0.22571
 C27 C 0.18682 0.20523 0.17275
 C28 C 0.21480 0.24524 0.19525
 N29 N 0.20062 0.27581 0.23237
 H30 H 0.27278 0.31319 0.35441
 H31 H 0.30297 0.23077 0.22949
 H32 H 0.35554 0.16192 0.26494
 H33 H 0.32448 0.24564 0.39263
 H34 H 0.14670 0.29615 0.27565
 H35 H 0.09559 0.22579 0.23836
 H36 H 0.19947 0.18117 0.14371
 H37 H 0.24794 0.25234 0.18267
 C38 C 0.18153 0.46229 0.36550
 C39 C 0.31046 0.44406 0.14638
 C40 C 0.14336 0.19673 0.18820
 C41 C 0.34404 0.19767 0.33187
 C42 C 0.82475 0.74258 0.19688
 H43 H 0.84596 0.71064 0.21385
 C44 C 0.84291 0.78845 0.16825
 H45 H 0.87818 0.79149 0.16394
 C46 C 0.75298 0.77563 0.18057
 H47 H 0.71787 0.76966 0.18494
 C48 C 0.76951 0.82241 0.15261
 H49 H 0.74644 0.85207 0.13590
 N50 N 0.78042 0.73713 0.20228
 C51 C 0.67380 0.67837 0.29122
 H52 H 0.67076 0.63013 0.28265
 C53 C 0.64195 0.70556 0.31869
 H54 H 0.61425 0.67817 0.33102
 C55 C 0.71401 0.77255 0.28635
 H56 H 0.74240 0.79828 0.27397
 C57 C 0.68362 0.80107 0.31472
 H58 H 0.68851 0.84903 0.32342
 Zn59 Zn 0.75021 0.67509 0.23623
 N60 N 0.70822 0.71254 0.27455
 C61 C 0.81624 0.65608 0.30063
 N62 N 0.78688 0.62765 0.27361
 C63 C 0.77826 0.56610 0.27770
 C64 C 0.79931 0.53071 0.30993
 C65 C 0.83824 0.62221 0.33339
 C66 C 0.67878 0.62749 0.18539
 C67 C 0.65943 0.58862 0.15400
 C68 C 0.73039 0.54376 0.13945
 C69 C 0.74841 0.58391 0.17066
 N70 N 0.72239 0.62351 0.19383
 H71 H 0.82139 0.70545 0.29785
 H72 H 0.75337 0.54475 0.25750
 H73 H 0.79106 0.48211 0.31318
 H74 H 0.86062 0.64601 0.35524
 H75 H 0.65895 0.66120 0.20257
 H76 H 0.62461 0.59198 0.14821
 H77 H 0.75161 0.51187 0.12194
 H78 H 0.78322 0.58290 0.17702
 C79 C 0.64678 0.76763 0.33068
 C80 C 0.81504 0.82910 0.14541
 C81 C 0.68531 0.54558 0.13096
 C82 C 0.82919 0.55878 0.33883
 C83 C 0.81082 0.26643 0.73283
 H84 H 0.81449 0.25653 0.76816
 C85 C 0.83757 0.31133 0.71212
 H86 H 0.86092 0.33649 0.73214
 C87 C 0.77797 0.24311 0.66350
 H88 H 0.75538 0.21582 0.64433
 C89 C 0.80413 0.28769 0.64139
 H90 H 0.80079 0.29423 0.60558
 N91 N 0.78137 0.23371 0.70858
 C92 C 0.66130 0.19101 0.77424
 H93 H 0.65143 0.15555 0.75117
 C94 C 0.62963 0.21825 0.80194
 H95 H 0.59563 0.20398 0.79932
 C96 C 0.71737 0.25115 0.80694
 H97 H 0.75162 0.26334 0.80934
 C98 C 0.68690 0.27923 0.83542
 H99 H 0.69838 0.31340 0.85882
 Zn100 Zn 0.74780 0.17145 0.73936
 N101 N 0.70425 0.20829 0.77676
 C102 C 0.82657 0.11174 0.75881
 N103 N 0.78643 0.12653 0.77581
 C104 C 0.77462 0.11239 0.81893
 C105 C 0.80413 0.08343 0.84727
 C106 C 0.85728 0.08306 0.78597
 C107 C 0.69002 0.14077 0.66994
 C108 C 0.67061 0.10305 0.63801
 C109 C 0.71563 0.01900 0.66317
 C110 C 0.73396 0.05824 0.69486
 N111 N 0.72124 0.11807 0.69742
 H112 H 0.83506 0.12352 0.72432
 H113 H 0.74236 0.12420 0.83159
 H114 H 0.79347 0.07362 0.88144
 H115 H 0.88926 0.07289 0.77157
 H116 H 0.68037 0.18849 0.67270
 H117 H 0.64624 0.12249 0.61627
 H118 H 0.72645 -0.02834 0.66137
 H119 H 0.75864 0.04093 0.71711
 C120 C 0.64231 0.26305 0.83301
 C121 C 0.83447 0.32244 0.66580
 C122 C 0.68361 0.04136 0.63415
 C123 C 0.84666 0.06918 0.83128
 C124 C 0.31282 0.85993 0.68375
 H125 H 0.31493 0.81028 0.68116
 C126 C 0.33399 0.89750 0.65172
 H127 H 0.35234 0.87607 0.62474
 C128 C 0.28443 0.94734 0.72111
 H129 H 0.26461 0.96640 0.74797
 C130 C 0.30462 0.98676 0.68928
 H131 H 0.30045 1.03615 0.69204
 N132 N 0.28872 0.88512 0.71768
 C133 C 0.18831 0.87680 0.81266
 H134 H 0.16664 0.85636 0.78849
 C135 C 0.17075 0.90326 0.85163
 H136 H 0.13556 0.90291 0.85686
 C137 C 0.26050 0.90081 0.83551
 H138 H 0.29552 0.89851 0.82931
 C139 C 0.24442 0.92767 0.87479
 H140 H 0.26741 0.94655 0.89845
 Zn141 Zn 0.25876 0.83049 0.75834
 N142 N 0.23253 0.87514 0.80581
 C143 C 0.28385 0.73737 0.81851
 N144 N 0.29938 0.77607 0.78551
 C145 C 0.34307 0.77929 0.77520
 C146 C 0.37264 0.74166 0.79753
 C147 C 0.31227 0.69922 0.84186
 C148 C 0.21170 0.79451 0.68126
 C149 C 0.18149 0.76049 0.65666
 C150 C 0.15738 0.70964 0.72535
 C151 C 0.18859 0.74389 0.74855
 N152 N 0.21543 0.78503 0.72632
 H153 H 0.24952 0.73746 0.82791
 H154 H 0.35556 0.81215 0.75063
 H155 H 0.40726 0.74535 0.78900
 H156 H 0.29891 0.66918 0.86802
 H157 H 0.23194 0.82863 0.66402
 H158 H 0.17931 0.76872 0.62087
 H159 H 0.13642 0.67707 0.74366
 H160 H 0.19079 0.73810 0.78443
 C161 C 0.19905 0.92813 0.88371
 C162 C 0.32976 0.96180 0.65404
 C163 C 0.15401 0.71720 0.67872
 C164 C 0.35737 0.70125 0.83155
 C165 C -0.05186 -0.04148 0.04915
 C166 C -0.01994 -0.01831 0.01837
 C167 C -0.03218 -0.00349 -0.02567
 C168 C -0.07581 -0.00959 -0.03888
 C169 C -0.10729 -0.03210 -0.00780
 C170 C -0.09569 -0.04863 0.03606
 C171 C 0.02578 -0.00576 0.03208
 C172 C 0.06099 -0.02276 0.00385
 C173 C 0.10423 -0.00499 0.01352
 C174 C 0.11183 0.02947 0.05238
 C175 C 0.07705 0.04764 0.08084
 C176 C 0.03411 0.02881 0.07075
 H177 H -0.04283 -0.05285 0.08321
 H178 H -0.00801 0.01552 -0.04925
 H179 H 0.05429 -0.04938 -0.02582
 H180 H 0.00690 0.04367 0.09174
 H181 H -0.14098 -0.03791 -0.01790
 H182 H 0.14509 0.04280 0.05994
 C183 C -0.04316 0.48694 0.55480
 C184 C -0.02610 0.51794 0.51665
 C185 C -0.05112 0.52025 0.47755
 C186 C -0.09252 0.49116 0.47645
 C187 C -0.10875 0.45954 0.51483
 C188 C -0.08441 0.45781 0.55440
 C189 C 0.01823 0.54663 0.51809
 C190 C 0.04884 0.53768 0.48306
 C191 C 0.09180 0.56120 0.48594
 C192 C 0.10391 0.59466 0.52404
 C193 C 0.07383 0.60307 0.55980
 C194 C 0.03103 0.57950 0.55618
 H195 H -0.02376 0.48424 0.58483
 H196 H -0.03833 0.54428 0.44797
 H197 H 0.03954 0.51131 0.45396
 H198 H 0.00762 0.58634 0.58344
 H199 H -0.14091 0.43802 0.51405
 H200 H 0.13738 0.61112 0.52662
 C201 C 0.45488 0.00753 0.51911
 C202 C 0.48049 0.00689 0.47953
 C203 C 0.46571 0.03784 0.44119
 C204 C 0.42615 0.07054 0.44239
 C205 C 0.40115 0.07128 0.48260
 C206 C 0.41496 0.03901 0.52075
 C207 C 0.52267 -0.02618 0.47838
 C208 C 0.53202 -0.06841 0.44411
 C209 C 0.57202 -0.09969 0.44306
 C210 C 0.60267 -0.08874 0.47670
 C211 C 0.59376 -0.04701 0.51132
 C212 C 0.55360 -0.01589 0.51194
 H213 H 0.46584 -0.01706 0.54860
 H214 H 0.48543 0.03725 0.41055
 H215 H 0.50819 -0.07709 0.41832
 H216 H 0.54611 0.01614 0.53860
 H217 H 0.36994 0.09440 0.48395
 H218 H 0.63336 -0.11334 0.47622
 C219 C 0.44573 0.49179 0.02118
 C220 C 0.47632 0.49683 -0.01452
 C221 C 0.46708 0.53384 -0.05193
 C222 C 0.42764 0.56619 -0.05414
 C223 C 0.39718 0.56053 -0.01828
 C224 C 0.40551 0.52288 0.01924
 C225 C 0.51770 0.46226 -0.01386
 C226 C 0.52695 0.42017 -0.04813
 C227 C 0.56726 0.38986 -0.05008
 C228 C 0.59839 0.40207 -0.01706
 C229 C 0.58992 0.44454 0.01737
 C230 C 0.54898 0.47391 0.01908
 H231 H 0.45321 0.46291 0.04977
 H232 H 0.49081 0.53739 -0.07941
 H233 H 0.50292 0.41184 -0.07379
 H234 H 0.54154 0.50680 0.04516
 H235 H 0.36669 0.58528 -0.01941
 H236 H 0.62954 0.37877 -0.01827
 N237 N 0.18213 -0.00853 -0.00688
 N238 N 0.20819 -0.02499 -0.04063
 C239 C 0.18228 -0.04728 -0.07305
 C240 C 0.13923 -0.04406 -0.05777
 N241 N 0.14049 -0.01966 -0.01626
 H242 H 0.11006 -0.05759 -0.07540
 N243 N 0.15637 0.58689 0.43929
 N244 N 0.18085 0.56212 0.40709
 C245 C 0.16331 0.50605 0.39856
 C246 C 0.12700 0.49748 0.42642
 N247 N 0.12375 0.54894 0.45118
 H248 H 0.10543 0.45753 0.42891
 N249 N 0.55174 -0.18150 0.39120
 N250 N 0.57064 -0.21843 0.36152
 C251 C 0.61362 -0.20285 0.35977
 C252 C 0.62052 -0.15540 0.38942
 N253 N 0.58119 -0.14353 0.40840
 H254 H 0.65113 -0.13214 0.39675
 N255 N 0.54657 0.31995 -0.11036
 N256 N 0.56532 0.28567 -0.14179
 C257 C 0.60910 0.29245 -0.13754
 C258 C 0.61648 0.33195 -0.10226
 N259 N 0.57672 0.34799 -0.08615
 H260 H 0.64763 0.34841 -0.09008
 N261 N -0.06097 0.01076 -0.11866
 N262 N -0.08131 0.03194 -0.15447
 C263 C -0.12304 0.04423 -0.14158
 C264 C -0.12745 0.02918 -0.09634
 N265 N -0.08811 0.00862 -0.08343
 H266 H -0.15576 0.03453 -0.07436
 N267 N -0.14586 0.44895 0.42475
 N268 N -0.16684 0.46517 0.38805
 C269 C -0.15230 0.52219 0.37611
 C270 C -0.12128 0.54026 0.40686
 N271 N -0.11832 0.49329 0.43659
 H272 H -0.10384 0.58392 0.40859
 N273 N 0.42609 0.08870 0.36132
 N274 N 0.40498 0.12142 0.33100
 C275 C 0.37538 0.15572 0.35353
 C276 C 0.37908 0.14279 0.39880
 N277 N 0.41100 0.10060 0.40230
 H278 H 0.36010 0.16182 0.42629
 N279 N 0.44912 0.62237 -0.12285
 N280 N 0.43170 0.65828 -0.15386
 C281 C 0.38873 0.66338 -0.14313
 C282 C 0.38046 0.62937 -0.10440
 N283 N 0.41897 0.60462 -0.09266
 H284 H 0.34949 0.62353 -0.08655
 N285 N -0.17083 -0.05422 0.06414
 N286 N -0.19565 -0.08652 0.09284
 C287 C -0.16915 -0.12564 0.11475
 C288 C -0.12658 -0.11529 0.09862
 N289 N -0.12932 -0.07067 0.06689
 H290 H -0.09714 -0.14003 0.10685
 N291 N -0.08544 0.43773 0.63510
 N292 N -0.10622 0.40281 0.66555
 C293 C -0.13634 0.36905 0.64368
 C294 C -0.13332 0.38471 0.59855
 N295 N -0.10114 0.42770 0.59462
 H296 H -0.15183 0.36567 0.57123
 N297 N 0.35996 0.07906 0.57355
 N298 N 0.33687 0.06014 0.60939
 C299 C 0.34991 0.00223 0.61892
 C300 C 0.38202 -0.01343 0.58794
 N301 N 0.38733 0.03555 0.56031
 H302 H 0.39881 -0.05692 0.58470
 N303 N 0.33559 0.54781 0.05550
 N304 N 0.30935 0.52807 0.08864
 C305 C 0.33007 0.48146 0.10927
 C306 C 0.37008 0.47335 0.08763
 N307 N 0.37227 0.51564 0.05411
 H308 H 0.39397 0.43812 0.09432
 N309 N 0.05566 0.09943 0.15069
 N310 N 0.07198 0.13925 0.17973
 C311 C 0.11321 0.15333 0.16549
 C312 C 0.12149 0.12062 0.12673
 N313 N 0.08493 0.08735 0.11859
 H314 H 0.15088 0.12232 0.10591
 N315 N 0.06627 0.62202 0.64018
 N316 N 0.08675 0.65111 0.67275
 C317 C 0.12176 0.68031 0.65367
 C318 C 0.12209 0.66800 0.60818
 N319 N 0.08694 0.63135 0.60112
 H320 H 0.14583 0.68352 0.58297
 N321 N 0.65629 -0.07714 0.55632
 N322 N 0.68069 -0.05538 0.58907
 C323 C 0.66477 0.00053 0.59978
 C324 C 0.62960 0.01218 0.57250
 N325 N 0.62535 -0.03736 0.54592
 H326 H 0.60955 0.05298 0.57155
 N327 N 0.66081 0.42768 0.05186
 N328 N 0.68714 0.45334 0.08138
 C329 C 0.66611 0.50270 0.09811
 C330 C 0.62577 0.50628 0.07782
 N331 N 0.62372 0.45861 0.04908
 H332 H 0.60136 0.54159 0.08222
   
