data_POSCAR
  _audit_creation_date              2014-09-24
  _audit_creation_method            'ToBaCCo'
  _symmetry_space_group_name_H-M    'P1'
  _symmetry_Int_Tables_number       1
  _symmetry_cell_setting            triclinic
  loop_
  _symmetry_equiv_pos_as_xyz
 x,y,z
_cell_length_a 37.0567
_cell_length_b 38.2725
_cell_length_c 36.3358
_cell_angle_alpha 89.755400
_cell_angle_beta 89.779600
_cell_angle_gamma 89.453600
loop_
  _atom_site_label
  _atom_site_type_symbol
  _atom_site_fract_x
  _atom_site_fract_y
  _atom_site_fract_z
N1 N 0.20921 0.21108 0.19775
 N2 N -0.22229 0.77693 0.24479
 N3 N -0.21536 0.22649 -0.18947
 N4 N 0.21440 0.78281 -0.22745
 N5 N 0.21330 1.20362 0.79229
 N6 N 0.78523 0.77426 0.77068
 N7 N 0.22468 0.79258 1.21585
 N8 N 0.78125 1.21713 1.19097
 O9 O 0.54129 0.96042 0.92489
 O10 O 0.47525 0.96282 1.07806
 O11 O 0.54867 0.92890 1.03532
 O12 O 0.44846 0.92687 0.96740
 O13 O 0.54023 0.96760 1.07623
 O14 O 0.47410 0.95713 0.92339
 O15 O 0.46040 0.92565 1.03610
 O16 O 0.55378 0.92569 0.96954
 C17 C 0.55229 0.93117 0.93602
 C18 C 0.46514 0.93261 1.06911
 C19 C 0.54981 0.93723 1.06808
 C20 C 0.45484 0.93197 0.93406
 O21 O 0.46788 1.02287 0.94061
 O22 O 0.53427 1.03044 1.04148
 O23 O 0.57930 0.99178 0.96676
 O24 O 0.43068 0.98908 1.04020
 O25 O 0.47011 1.02823 1.04637
 O26 O 0.53658 1.02653 0.94821
 O27 O 0.42782 0.99288 0.97241
 O28 O 0.57778 0.99444 1.03303
 Co29 Co 0.50533 0.99052 0.94072
 Co30 Co 0.50489 0.99548 1.05555
 Co31 Co 0.55987 0.96162 1.00130
 Co32 Co 0.44801 0.96025 1.00395
 O33 O 0.50431 0.97702 0.99991
 C34 C 0.43611 1.01800 0.95130
 C35 C 0.56711 1.02493 1.03930
 C36 C 0.56920 1.02097 0.95408
 C37 C 0.43808 1.01992 1.04744
 O38 O 0.04035 0.47584 0.06940
 O39 O 0.05378 0.52896 -0.04976
 O40 O 0.01565 0.42039 -0.02501
 O41 O 0.01769 0.58267 0.03359
 O42 O 0.04353 0.46507 -0.04999
 O43 O 0.04231 0.54220 0.06974
 O44 O 0.02309 0.57531 -0.03331
 O45 O 0.05261 0.45853 0.01444
 C46 C 0.06060 0.45954 0.04762
 C47 C 0.05134 0.56149 -0.04670
 C48 C 0.03664 0.43246 -0.05117
 C49 C 0.04062 0.57317 0.05781
 O50 O -0.02618 0.54485 0.07815
 O51 O -0.02708 0.47790 -0.06511
 O52 O -0.00831 0.43784 0.04233
 O53 O -0.04833 0.55224 -0.03321
 O54 O -0.01138 0.54031 -0.07495
 O55 O -0.03205 0.48069 0.07205
 O56 O -0.05254 0.56404 0.02956
 O57 O -0.04167 0.45534 -0.01326
 Co58 Co 0.00585 0.51038 0.06600
 Co59 Co 0.01313 0.50360 -0.05359
 Co60 Co 0.00509 0.45966 -0.00009
 Co61 Co -0.01358 0.56399 -0.00096
 O62 O 0.00147 0.51154 0.00576
 C63 C -0.05128 0.56155 0.06343
 C64 C -0.04902 0.46078 -0.04601
 C65 C -0.03123 0.44895 0.06475
 C66 C -0.04150 0.55170 -0.06613
 O67 O 1.06311 0.04327 0.46691
 O68 O 0.92407 0.05497 0.53868
 O69 O 0.95636 0.03084 0.42609
 O70 O 1.03444 0.06709 0.54522
 O71 O 0.93059 0.05811 0.47064
 O72 O 1.07267 0.02843 0.53306
 O73 O 0.97368 0.07573 0.55881
 O74 O 1.01324 0.05985 0.44244
 C75 C 1.04588 0.06486 0.44749
 C76 C 0.94045 0.07712 0.55699
 C77 C 0.93526 0.05427 0.43698
 C78 C 1.06616 0.05819 0.54452
 O79 O 1.04320 -0.03281 0.52340
 O80 O 0.92711 -0.01218 0.46930
 O81 O 1.02070 0.00268 0.40813
 O82 O 0.96491 0.00842 0.58027
 O83 O 0.92677 -0.01159 0.53861
 O84 O 1.04304 -0.02390 0.45651
 O85 O 1.03004 -0.00163 0.57171
 O86 O 0.97969 -0.02909 0.45085
 Co87 Co 1.04954 0.00577 0.49555
 Co88 Co 0.93334 0.02218 0.50366
 Co89 Co 0.99715 0.01580 0.44941
 Co90 Co 1.00068 0.03596 0.55913
 O91 O 0.99245 0.02139 0.50420
 C92 C 1.04085 -0.03004 0.55760
 C93 C 0.94679 -0.03460 0.45391
 C94 C 1.04541 -0.01817 0.42204
 C95 C 0.93912 -0.01141 0.57088
 N96 N 1.14042 0.20030 0.26965
 C97 C 1.15666 0.17711 0.29270
 N98 N 1.19043 0.16546 0.28458
 N99 N 1.20743 0.17665 0.25441
 C100 C 1.19125 0.19981 0.23110
 N101 N 1.15742 0.21149 0.23948
 C102 C 1.13747 0.16326 0.32400
 C103 C 1.12116 0.15033 0.34943
 C104 C 1.10158 0.13300 0.37844
 N105 N 1.11948 0.11412 0.40437
 N106 N 1.10146 0.09412 0.42815
 C107 C 1.06487 0.09236 0.42693
 N108 N 1.04699 0.11183 0.40138
 N109 N 1.06501 0.13183 0.37759
 N110 N 0.80204 -0.16947 0.32403
 C111 C 0.83840 -0.17371 0.32497
 N112 N 0.85462 -0.19474 0.29984
 N113 N 0.83508 -0.21098 0.27452
 C114 C 0.79862 -0.20671 0.27330
 N115 N 0.78249 -0.18571 0.29870
 C116 C 0.85958 -0.15430 0.35070
 C117 C 0.87671 -0.13666 0.37168
 C118 C 0.89579 -0.11375 0.39586
 N119 N 0.93195 -0.10929 0.39236
 N120 N 0.94877 -0.08512 0.41215
 C121 C 0.92993 -0.06461 0.43602
 N122 N 0.89385 -0.06951 0.43972
 N123 N 0.87709 -0.09366 0.42003
 N124 N 0.84958 0.21336 0.73545
 C125 C 0.83179 0.19080 0.71349
 N126 N 0.79812 0.18062 0.72319
 N127 N 0.78275 0.19256 0.75395
 C128 C 0.80054 0.21501 0.77622
 N129 N 0.83422 0.22530 0.76621
 C130 C 0.84946 0.17574 0.68195
 C131 C 0.86480 0.16185 0.65648
 C132 C 0.88369 0.14368 0.62760
 N133 N 0.86573 0.12199 0.60479
 N134 N 0.88374 0.10198 0.58089
 C135 C 0.92034 0.10297 0.57898
 N136 N 0.93820 0.12508 0.60152
 N137 N 0.92019 0.14509 0.62540
 N138 N 1.17786 -0.14653 0.71498
 C139 C 1.15194 -0.16318 0.69576
 N140 N 1.14710 -0.19788 0.70138
 N141 N 1.16746 -0.21530 0.72560
 C142 C 1.19341 -0.19868 0.74511
 N143 N 1.19819 -0.16392 0.73919
 C144 C 1.12939 -0.14388 0.67055
 C145 C 1.11092 -0.12647 0.65003
 C146 C 1.08978 -0.10410 0.62638
 N147 N 1.09012 -0.10858 0.58935
 N148 N 1.07317 -0.08580 0.56736
 C149 C 1.05529 -0.05779 0.58167
 N150 N 1.05466 -0.05367 0.61877
 N151 N 1.07156 -0.07643 0.64073
 N152 N 0.26075 1.13387 1.16823
 C153 C 0.28651 1.14833 1.14654
 N154 N 0.28717 1.18353 1.14243
 N155 N 0.26269 1.20362 1.15926
 C156 C 0.23664 1.18929 1.18087
 N157 N 0.23624 1.15397 1.18507
 C158 C 0.31254 1.12666 1.12779
 C159 C 0.33441 1.10846 1.11206
 C160 C 0.36052 1.08657 1.09371
 N161 N 0.39504 1.09733 1.08927
 N162 N 0.41961 1.07642 1.07366
 C163 C 0.41047 1.04406 1.06189
 N164 N 0.37582 1.03347 1.06611
 N165 N 0.35125 1.05438 1.08171
 N166 N 0.29039 0.80418 0.83216
 C167 C 0.31047 0.82506 0.81013
 N168 N 0.29917 0.83160 0.77528
 N169 N 0.26868 0.81761 0.76295
 C170 C 0.24832 0.79677 0.78508
 N171 N 0.25996 0.79028 0.81988
 C172 C 0.34172 0.84186 0.82494
 C173 C 0.36650 0.85591 0.84021
 C174 C 0.39370 0.87253 0.86193
 N175 N 0.41170 0.90091 0.84923
 N176 N 0.43310 0.91891 0.87160
 C177 C 0.43704 0.90915 0.90739
 N178 N 0.41941 0.88043 0.91970
 N179 N 0.39820 0.86244 0.89738
 N180 N 0.71128 0.84418 1.21947
 C181 C 0.68619 0.82518 1.20156
 N182 N 0.69072 0.79008 1.19909
 N183 N 0.71956 0.77450 1.21388
 C184 C 0.74503 0.79345 1.23153
 N185 N 0.74013 0.82860 1.23426
 C186 C 0.65722 0.84240 1.18231
 C187 C 0.63421 0.85728 1.16465
 C188 C 0.60863 0.87561 1.14186
 N189 N 0.60148 0.86384 1.10755
 N190 N 0.58126 0.88280 1.08456
 C191 C 0.56750 0.91423 1.09510
 N192 N 0.57425 0.92574 1.12969
 N193 N 0.59451 0.90676 1.15268
 N194 N 0.73989 1.14728 0.84340
 C195 C 0.71522 1.16043 0.86736
 N196 N 0.71341 1.19548 0.87256
 N197 N 0.73566 1.21669 0.85440
 C198 C 0.76045 1.20363 0.83028
 N199 N 0.76211 1.16846 0.82525
 C200 C 0.69060 1.13748 0.88599
 C201 C 0.66967 1.11780 0.90066
 C202 C 0.64422 1.09403 0.91677
 N203 N 0.60833 1.10069 0.91424
 N204 N 0.58450 1.07769 0.92692
 C205 C 0.59572 1.04718 0.94253
 N206 N 0.63171 1.04068 0.94534
 N207 N 0.65556 1.06371 0.93264
 N208 N 0.17314 0.29935 0.18194
 C209 C 0.17674 0.30269 0.14493
 N210 N 0.19117 0.27584 0.12545
 N211 N 0.20178 0.24662 0.14246
 C212 C 0.19822 0.24307 0.17956
 N213 N 0.18377 0.27011 0.19897
 C214 C 0.16320 0.33330 0.12634
 C215 C 0.15028 0.35846 0.11099
 C216 C 0.13250 0.38762 0.09356
 N217 N 0.12643 0.38768 0.05675
 N218 N 0.10536 0.41214 0.04145
 C219 C 0.08967 0.43735 0.06248
 N220 N 0.09641 0.43756 0.09920
 N221 N 0.11748 0.41318 0.11445
 N222 N -0.19366 0.29341 -0.12148
 C223 C -0.18034 0.31928 -0.14305
 N224 N -0.17940 0.31482 -0.18003
 N225 N -0.19134 0.28537 -0.19496
 C226 C -0.20446 0.25920 -0.17346
 N227 N -0.20559 0.26396 -0.13641
 C228 C -0.16413 0.34942 -0.12669
 C229 C -0.14873 0.37353 -0.11258
 C230 C -0.12801 0.40041 -0.09530
 N231 N -0.12453 0.40076 -0.05818
 N232 N -0.10092 0.42187 -0.04224
 C233 C -0.07998 0.44341 -0.06285
 N234 N -0.08405 0.44353 -0.09999
 N235 N -0.10767 0.42238 -0.11594
 N236 N 0.20665 0.70243 -0.17288
 C237 C 0.17041 0.70002 -0.16851
 N238 N 0.14871 0.72430 -0.18465
 N239 N 0.16276 0.75036 -0.20426
 C240 C 0.19908 0.75314 -0.20848
 N241 N 0.22071 0.72850 -0.19253
 C242 C 0.15502 0.67332 -0.14553
 C243 C 0.14058 0.65206 -0.12590
 C244 C 0.12112 0.62835 -0.10253
 N245 N 0.09610 0.64112 -0.07874
 N246 N 0.07515 0.61955 -0.05960
 C247 C 0.07853 0.58439 -0.06340
 N248 N 0.10404 0.57157 -0.08683
 N249 N 0.12500 0.59321 -0.10609
 N250 N -0.17016 0.69745 0.22473
 C251 C -0.17758 0.69257 0.18861
 N252 N -0.20042 0.71504 0.17134
 N253 N -0.21530 0.74167 0.18957
 C254 C -0.20781 0.74688 0.22572
 N255 N -0.18507 0.72409 0.24298
 C256 C -0.15927 0.66575 0.16812
 C257 C -0.14289 0.64436 0.15025
 C258 C -0.12207 0.62037 0.12836
 N259 N -0.12531 0.62053 0.09121
 N260 N -0.10354 0.60079 0.07051
 C261 C -0.07776 0.58028 0.08629
 N262 N -0.07483 0.57991 0.12354
 N263 N -0.09660 0.59966 0.14423
 N264 N 1.21608 0.15704 0.70600
 C265 C 1.18453 0.16732 0.69055
 N266 N 1.16329 0.19072 0.70847
 N267 N 1.17311 0.20322 0.74103
 C268 C 1.20444 0.19266 0.75728
 N269 N 1.22589 0.16961 0.73856
 C270 C 1.17138 0.15057 0.65814
 C271 C 1.15768 0.13588 0.63258
 C272 C 1.13787 0.11813 0.60463
 N273 N 1.10588 0.13169 0.59337
 N274 N 1.08396 0.11304 0.57244
 C275 C 1.09323 0.08015 0.56202
 N276 N 1.12565 0.06678 0.57266
 N277 N 1.14758 0.08546 0.59378
 N278 N 0.81917 -0.14245 0.73590
 C279 C 0.84395 -0.15310 0.71075
 N280 N 0.84905 -0.18778 0.70499
 N281 N 0.83013 -0.21114 0.72408
 C282 C 0.80529 -0.20060 0.74942
 N283 N 0.80026 -0.16579 0.75498
 C284 C 0.86301 -0.12795 0.68905
 C285 C 0.87793 -0.10686 0.66977
 C286 C 0.89402 -0.08220 0.64510
 N287 N 0.92137 -0.06133 0.65599
 N288 N 0.93588 -0.03846 0.63253
 C289 C 0.92337 -0.03578 0.59752
 N290 N 0.89601 -0.05672 0.58686
 N291 N 0.88156 -0.07950 0.61024
 N292 N 1.15733 -0.17791 0.28106
 C293 C 1.16932 -0.14555 0.28912
 N294 N 1.20029 -0.13421 0.27347
 N295 N 1.21856 -0.15455 0.25017
 C296 C 1.20665 -0.18705 0.24143
 N297 N 1.17563 -0.19823 0.25775
 C298 C 1.14876 -0.12307 0.31281
 C299 C 1.13113 -0.10408 0.33230
 C300 C 1.10979 -0.08157 0.35523
 N301 N 1.08767 -0.05708 0.34003
 N302 N 1.06728 -0.03660 0.36135
 C303 C 1.06836 -0.03999 0.39852
 N304 N 1.09061 -0.06445 0.41365
 N305 N 1.11100 -0.08492 0.39234
 N306 N 0.79220 0.16153 0.27081
 C307 C 0.82525 0.17106 0.28269
 N308 N 0.84298 0.19675 0.26471
 N309 N 0.82826 0.21225 0.23549
 C310 C 0.79525 0.20264 0.22282
 N311 N 0.77747 0.17709 0.24157
 C312 C 0.84271 0.15218 0.31176
 C313 C 0.85846 0.13563 0.33501
 C314 C 0.87815 0.11518 0.36132
 N315 N 0.90198 0.09051 0.34966
 N316 N 0.92037 0.07122 0.37386
 C317 C 0.91554 0.07603 0.41053
 N318 N 0.89169 0.10083 0.42217
 N319 N 0.87329 0.12013 0.39793
 N320 N 0.16227 0.28424 -0.19986
 C321 C 0.16106 0.28846 -0.16290
 N322 N 0.17809 0.26487 -0.14105
 N323 N 0.19559 0.23773 -0.15567
 C324 C 0.19674 0.23285 -0.19278
 N325 N 0.17983 0.25706 -0.21447
 C326 C 0.13999 0.31605 -0.14674
 C327 C 0.12160 0.33803 -0.13193
 C328 C 0.09906 0.36263 -0.11278
 N329 N 0.07250 0.35094 -0.09029
 N330 N 0.05228 0.37336 -0.07114
 C331 C 0.05793 0.40825 -0.07381
 N332 N 0.08442 0.41999 -0.09652
 N333 N 0.10470 0.39751 -0.11570
 N334 N -0.17246 0.29952 0.18819
 C335 C -0.17329 0.30708 0.15180
 N336 N -0.19100 0.28552 0.12876
 N337 N -0.20694 0.25692 0.14168
 C338 C -0.20549 0.24848 0.17811
 N339 N -0.18838 0.27093 0.20107
 C340 C -0.15170 0.33475 0.13736
 C341 C -0.13175 0.35647 0.12497
 C342 C -0.10634 0.38048 0.10974
 N343 N -0.10711 0.41473 0.11915
 N344 N -0.08287 0.43665 0.10513
 C345 C -0.05705 0.42492 0.08147
 N346 N -0.05637 0.39062 0.07222
 N347 N -0.08056 0.36875 0.08620
 N348 N -0.14428 0.71046 -0.20604
 C349 C -0.16372 0.68381 -0.19185
 N350 N -0.20022 0.68668 -0.19063
 N351 N -0.21673 0.71539 -0.20329
 C352 C -0.19729 0.74234 -0.21733
 N353 N -0.16075 0.73913 -0.21862
 C354 C -0.14548 0.65479 -0.17483
 C355 C -0.12913 0.63205 -0.15880
 C356 C -0.10890 0.60723 -0.13736
 N357 N -0.11960 0.59985 -0.10254
 N358 N -0.09862 0.58079 -0.08044
 C359 C -0.06617 0.56848 -0.09236
 N360 N -0.05568 0.57543 -0.12747
 N361 N -0.07669 0.59460 -0.14959
 N362 N 0.20580 0.71744 0.15930
 C363 C 0.16929 0.71869 0.15781
 N364 N 0.15138 0.74428 0.17605
 N365 N 0.16941 0.76804 0.19505
 C366 C 0.20614 0.76728 0.19677
 N367 N 0.22384 0.74127 0.17834
 C368 C 0.14952 0.69307 0.13768
 C369 C 0.13192 0.67176 0.12154
 C370 C 0.11005 0.64635 0.10350
 N371 N 0.08598 0.65626 0.07732
 N372 N 0.06417 0.63287 0.06220
 C373 C 0.06566 0.59884 0.07288
 N374 N 0.08992 0.58903 0.09896
 N375 N 0.11171 0.61238 0.11404
 N376 N 0.26607 1.13053 0.82598
 C377 C 0.28289 1.14478 0.85521
 N378 N 0.27683 1.17886 0.86322
 N379 N 0.25435 1.19803 0.84271
 C380 C 0.23713 1.18400 0.81324
 N381 N 0.24364 1.14970 0.80553
 C382 C 0.30795 1.12425 0.87625
 C383 C 0.32969 1.10654 0.89255
 C384 C 0.35667 1.08522 0.90997
 N385 N 0.39193 1.09040 0.90199
 N386 N 0.41718 1.06926 0.91585
 C387 C 0.40804 1.04215 0.93811
 N388 N 0.37268 1.03712 0.94633
 N389 N 0.34736 1.05830 0.93240
 N390 N 0.30885 0.79781 1.16598
 C391 C 0.32894 0.81741 1.18893
 N392 N 0.31475 0.82731 1.22167
 N393 N 0.28133 0.81817 1.23095
 C394 C 0.26045 0.79919 1.20772
 N395 N 0.27543 0.78873 1.17526
 C396 C 0.36199 0.83226 1.17592
 C397 C 0.38763 0.84651 1.16229
 C398 C 0.41488 0.86515 1.14246
 N399 N 0.42438 0.85422 1.10836
 N400 N 0.44288 0.87501 1.08590
 C401 C 0.45250 0.90751 1.09671
 N402 N 0.44393 0.91808 1.13132
 N403 N 0.42526 0.89727 1.15377
 N404 N 0.71287 1.19716 1.12377
 C405 C 0.70895 1.16236 1.12910
 N406 N 0.72868 1.14608 1.15541
 N407 N 0.75186 1.16397 1.17566
 C408 C 0.75632 1.19894 1.17060
 N409 N 0.73612 1.21507 1.14410
 C410 C 0.68414 1.14260 1.10762
 C411 C 0.66360 1.12432 1.09103
 C412 C 0.63941 1.10078 1.07342
 N413 N 0.65162 1.06926 1.06156
 N414 N 0.62863 1.04547 1.04935
 C415 C 0.59265 1.05239 1.04873
 N416 N 0.58054 1.08416 1.06013
 N417 N 0.60354 1.10795 1.07237
 N418 N 0.70807 0.78596 0.83259
 C419 C 0.68733 0.80896 0.81336
 N420 N 0.69811 0.81903 0.77930
 N421 N 0.72885 0.80675 0.76505
 C422 C 0.75004 0.78409 0.78441
 N423 N 0.73883 0.77366 0.81834
 C424 C 0.65721 0.82603 0.83078
 C425 C 0.63368 0.84190 0.84669
 C426 C 0.60809 0.86217 0.86748
 N427 N 0.59459 0.89261 0.85374
 N428 N 0.57516 0.91401 0.87506
 C429 C 0.56879 0.90572 0.91086
 N430 N 0.58189 0.87499 0.92431
 N431 N 0.60123 0.85361 0.90301
   
