data_POSCAR
  _audit_creation_date              2014-09-24
  _audit_creation_method            'ToBaCCo'
  _symmetry_space_group_name_H-M    'P1'
  _symmetry_Int_Tables_number       1
  _symmetry_cell_setting            triclinic
  loop_
  _symmetry_equiv_pos_as_xyz
 x,y,z
_cell_length_a 30.1648
_cell_length_b 35.4989
_cell_length_c 32.3271
_cell_angle_alpha 90.227500
_cell_angle_beta 90.404300
_cell_angle_gamma 90.105500
loop_
  _atom_site_label
  _atom_site_type_symbol
  _atom_site_fract_x
  _atom_site_fract_y
  _atom_site_fract_z
C1 C 1.21963 0.22330 0.22755
 C2 C 1.24718 0.25041 0.20108
 C3 C 1.27554 0.27288 0.22340
 C4 C 1.27333 0.26609 0.27062
 C5 C 1.25378 0.20159 0.25302
 C6 C 1.28184 0.22369 0.27530
 C7 C 1.19633 0.24901 0.25847
 C8 C 1.22386 0.27135 0.28144
 H9 H 1.24433 0.25179 0.16771
 H10 H 1.29626 0.28369 0.28928
 H11 H 1.25597 0.17111 0.25294
 H12 H 1.16057 0.24975 0.26121
 C13 C 0.71988 -0.27454 0.22407
 C14 C 0.74959 -0.24976 0.19727
 C15 C 0.77685 -0.22625 0.21921
 C16 C 0.77185 -0.22999 0.26664
 C17 C 0.75168 -0.29510 0.25311
 C18 C 0.77850 -0.27196 0.27545
 C19 C 0.69524 -0.24652 0.25164
 C20 C 0.72214 -0.22358 0.27461
 H21 H 0.74810 -0.24994 0.16379
 H22 H 0.79424 -0.21155 0.28488
 H23 H 0.75133 -0.32539 0.25726
 H24 H 0.65942 -0.24572 0.25347
 C25 C 0.72019 0.22996 -0.28169
 C26 C 0.74789 0.25492 -0.30633
 C27 C 0.77958 0.27648 -0.28229
 C28 C 0.77713 0.26810 -0.23753
 C29 C 0.75097 0.20671 -0.25857
 C30 C 0.78245 0.22705 -0.23383
 C31 C 0.69992 0.25475 -0.25143
 C32 C 0.73072 0.27547 -0.22617
 H33 H 0.74349 0.25848 -0.33938
 H34 H 0.80069 0.28403 -0.21838
 H35 H 0.74980 0.17616 -0.25974
 H36 H 0.66438 0.25893 -0.24978
 C37 C 1.22640 -0.27854 -0.26930
 C38 C 1.25553 -0.25241 -0.29510
 C39 C 1.28317 -0.22988 -0.27224
 C40 C 1.27896 -0.23583 -0.22502
 C41 C 1.25886 -0.30032 -0.24214
 C42 C 1.28601 -0.27820 -0.21891
 C43 C 1.20222 -0.25196 -0.23979
 C44 C 1.22934 -0.22981 -0.21611
 H45 H 1.25358 -0.25117 -0.32853
 H46 H 1.30165 -0.21829 -0.20606
 H47 H 1.25931 -0.33081 -0.24045
 H48 H 1.16639 -0.25073 -0.23818
 C49 C 0.21461 0.22788 0.77705
 C50 C 0.24477 0.25111 0.80112
 C51 C 0.27502 0.27284 0.77686
 C52 C 0.26909 0.26700 0.73223
 C53 C 0.19145 0.25530 0.74794
 C54 C 0.21950 0.27574 0.72393
 C55 C 0.24398 0.20399 0.74922
 C56 C 0.27278 0.22414 0.72595
 H57 H 0.24350 0.25289 0.83455
 H58 H 0.29167 0.28307 0.71217
 H59 H 0.15575 0.25854 0.74704
 H60 H 0.24277 0.17346 0.74891
 C61 C 0.70966 0.72004 0.77639
 C62 C 0.73239 0.74572 0.80429
 C63 C 0.76234 0.77120 0.78474
 C64 C 0.76484 0.76505 0.73954
 C65 C 0.68842 0.74446 0.74601
 C66 C 0.71856 0.76947 0.72507
 C67 C 0.74445 0.70065 0.75447
 C68 C 0.77476 0.72468 0.73307
 H69 H 0.72779 0.74502 0.83742
 H70 H 0.78893 0.78431 0.72518
 H71 H 0.65284 0.74531 0.74131
 H72 H 0.74528 0.67016 0.75210
 C73 C 0.72476 0.21972 0.27808
 C74 C 0.75572 0.24405 0.30503
 C75 C 0.78323 0.26693 0.28302
 C76 C 0.77743 0.26298 0.23566
 C77 C 0.70053 0.24812 0.25080
 C78 C 0.72761 0.27061 0.22815
 C79 C 0.75536 0.19837 0.24884
 C80 C 0.78293 0.22069 0.22686
 H81 H 0.75427 0.24469 0.33848
 H82 H 0.79982 0.28107 0.21734
 H83 H 0.66471 0.25014 0.24968
 H84 H 0.75518 0.16794 0.24581
 C85 C 0.22262 0.72121 0.26993
 C86 C 0.25148 0.74739 0.29679
 C87 C 0.27881 0.77050 0.27486
 C88 C 0.27462 0.76513 0.22749
 C89 C 0.19797 0.74798 0.24082
 C90 C 0.22472 0.77088 0.21816
 C91 C 0.25540 0.70018 0.24251
 C92 C 0.28264 0.72286 0.22059
 H93 H 0.24966 0.74816 0.33022
 H94 H 0.29686 0.78330 0.20918
 H95 H 0.16213 0.74900 0.23893
 H96 H 0.25769 0.66972 0.24146
 N97 N 1.07614 0.03572 0.04453
 N98 N 1.10550 0.06258 0.05124
 N99 N 1.03945 -0.04166 0.07119
 N100 N 1.04488 -0.06689 0.10058
 N101 N 1.07211 -0.04337 0.04455
 N102 N 1.10104 -0.06952 0.05567
 N103 N 1.04379 0.03763 0.07141
 N104 N 1.05096 0.06556 0.09790
 C105 C 1.08947 0.08102 0.08450
 C106 C 1.08316 -0.08431 0.09041
 N107 N 0.91616 -0.03912 0.03390
 N108 N 0.88518 -0.06487 0.03959
 N109 N 0.94739 0.04054 0.06503
 N110 N 0.93811 0.06753 0.09193
 N111 N 0.91792 0.03999 0.03489
 N112 N 0.88797 0.06649 0.04045
 N113 N 0.94430 -0.03875 0.06515
 N114 N 0.93327 -0.06432 0.09279
 Mn115 Mn 0.99369 -0.00038 0.06869
 C116 C 0.89656 -0.08059 0.07629
 C117 C 0.90112 0.08368 0.07589
 N118 N 1.07745 -0.04260 -0.04566
 N119 N 1.10520 -0.07072 -0.05270
 N120 N 1.05199 0.03868 -0.07291
 N121 N 1.06059 0.06735 -0.09726
 N122 N 1.08150 0.03645 -0.04305
 N123 N 1.11084 0.06391 -0.04591
 N124 N 1.04819 -0.04009 -0.07578
 N125 N 1.05439 -0.06669 -0.10349
 Mn126 Mn 1.07731 -0.00375 0.00011
 C127 C 1.08981 -0.08567 -0.08877
 C128 C 1.09716 0.08289 -0.07985
 N129 N 0.92353 0.04113 -0.05370
 N130 N 0.89299 0.06583 -0.06455
 N131 N 0.95430 -0.03711 -0.08295
 N132 N 0.94706 -0.06048 -0.11407
 N133 N 0.92166 -0.03823 -0.05636
 N134 N 0.89099 -0.06247 -0.06906
 N135 N 0.95686 0.04200 -0.07958
 N136 N 0.94980 0.06739 -0.10868
 Mn137 Mn 0.91935 0.00070 -0.01027
 Mn138 Mn 1.00298 0.00105 -0.07806
 Cl139 Cl 0.99823 -0.00074 -0.00480
 C140 C 0.91040 0.08276 -0.09817
 C141 C 0.90770 -0.07642 -0.10494
 N142 N 1.08071 0.53709 0.54387
 N143 N 1.11270 0.56200 0.54962
 N144 N 1.03843 0.46254 0.57458
 N145 N 1.04334 0.43809 0.60477
 N146 N 1.07016 0.45865 0.54722
 N147 N 1.09774 0.43162 0.55841
 N148 N 1.04996 0.54087 0.57212
 N149 N 1.06044 0.56820 0.59820
 C150 C 1.09943 0.58127 0.58352
 C151 C 1.08009 0.41874 0.59406
 N152 N 0.91323 0.47434 0.54363
 N153 N 0.88175 0.44897 0.54932
 N154 N 0.95517 0.55100 0.57046
 N155 N 0.94714 0.57540 0.60041
 N156 N 0.92474 0.55342 0.54129
 N157 N 0.89523 0.57946 0.55109
 N158 N 0.94335 0.47213 0.57305
 N159 N 0.93290 0.44548 0.59977
 Mn160 Mn 0.99674 0.50660 0.57291
 C161 C 0.89439 0.43118 0.58452
 C162 C 0.91054 0.59395 0.58737
 N163 N 1.07200 0.45513 0.45750
 N164 N 1.10025 0.42775 0.44873
 N165 N 1.05250 0.53537 0.42569
 N166 N 1.06300 0.56156 0.39853
 N167 N 1.08234 0.53385 0.45533
 N168 N 1.11378 0.55915 0.44945
 N169 N 1.04066 0.45682 0.42916
 N170 N 1.04625 0.43048 0.40091
 Mn171 Mn 1.07677 0.49608 0.50103
 C172 C 1.08314 0.41225 0.41366
 C173 C 1.10121 0.57624 0.41390
 N174 N 0.92696 0.55011 0.45130
 N175 N 0.90258 0.57977 0.44142
 N176 N 0.94599 0.46672 0.42683
 N177 N 0.93594 0.43871 0.40141
 N178 N 0.91485 0.47124 0.45457
 N179 N 0.88291 0.44620 0.44897
 N180 N 0.95828 0.54502 0.42383
 N181 N 0.95631 0.57085 0.39486
 Mn182 Mn 0.91940 0.51243 0.49765
 Mn183 Mn 0.99930 0.50090 0.42605
 Cl184 Cl 0.99799 0.50395 0.49946
 C185 C 0.92176 0.59254 0.40624
 C186 C 0.89657 0.42607 0.41572
 N187 N 0.58060 0.03353 0.54634
 N188 N 0.61029 0.06065 0.55016
 N189 N 0.54340 -0.04299 0.57580
 N190 N 0.54890 -0.06932 0.60396
 N191 N 0.57400 -0.04550 0.54718
 N192 N 0.60193 -0.07317 0.55588
 N193 N 0.55034 0.03628 0.57520
 N194 N 0.55910 0.06519 0.59988
 C195 C 0.59656 0.08016 0.58366
 C196 C 0.58531 -0.08807 0.59114
 N197 N 0.41822 -0.03716 0.54723
 N198 N 0.38741 -0.06276 0.55385
 N199 N 0.45411 0.04149 0.57597
 N200 N 0.44483 0.06648 0.60518
 N201 N 0.42310 0.04162 0.54726
 N202 N 0.39227 0.06645 0.55591
 N203 N 0.44837 -0.03777 0.57670
 N204 N 0.43881 -0.06393 0.60426
 Mn205 Mn 0.49916 -0.00058 0.57645
 C206 C 0.40079 -0.07942 0.58936
 C207 C 0.40654 0.08229 0.59153
 N208 N 0.57201 -0.04518 0.45645
 N209 N 0.59983 -0.07245 0.44641
 N210 N 0.54782 0.03645 0.42980
 N211 N 0.55707 0.06405 0.40395
 N212 N 0.57890 0.03365 0.45827
 N213 N 0.60962 0.05960 0.45311
 N214 N 0.54050 -0.04228 0.42833
 N215 N 0.54537 -0.06778 0.39915
 Mn216 Mn 0.57689 -0.00618 0.50205
 C217 C 0.58215 -0.08659 0.41088
 C218 C 0.59553 0.07838 0.41925
 N219 N 0.42169 0.04235 0.45947
 N220 N 0.39429 0.07084 0.45465
 N221 N 0.44581 -0.03725 0.42833
 N222 N 0.43548 -0.06324 0.40044
 N223 N 0.41655 -0.03684 0.45812
 N224 N 0.38550 -0.06239 0.45141
 N225 N 0.45174 0.04210 0.43035
 N226 N 0.44515 0.07036 0.40442
 Mn227 Mn 0.41962 0.00231 0.50301
 Mn228 Mn 0.49654 -0.00007 0.42871
 Cl229 Cl 0.49809 -0.00123 0.50259
 C230 C 0.40932 0.08825 0.42039
 C231 C 0.39784 -0.07884 0.41545
 N232 N 0.58286 0.53047 0.04533
 N233 N 0.61379 0.55644 0.05027
 N234 N 0.54256 0.45636 0.07918
 N235 N 0.54786 0.43318 0.11061
 N236 N 0.57479 0.45205 0.05235
 N237 N 0.60293 0.42603 0.06507
 N238 N 0.55132 0.53475 0.07277
 N239 N 0.56021 0.56352 0.09744
 C240 C 0.59907 0.57689 0.08276
 C241 C 0.58535 0.41420 0.10115
 N242 N 0.41774 0.46435 0.04423
 N243 N 0.38582 0.43964 0.05059
 N244 N 0.45591 0.54264 0.06825
 N245 N 0.44798 0.57098 0.09390
 N246 N 0.42736 0.54288 0.03742
 N247 N 0.39950 0.57120 0.04109
 N248 N 0.44684 0.46364 0.07461
 N249 N 0.43529 0.43846 0.10265
 Mn250 Mn 0.49917 0.49934 0.07425
 C251 C 0.39714 0.42361 0.08709
 C252 C 0.41296 0.58882 0.07614
 N253 N 0.57912 0.44496 -0.03727
 N254 N 0.60877 0.41829 -0.04469
 N255 N 0.55759 0.52310 -0.07331
 N256 N 0.56661 0.54936 -0.10075
 N257 N 0.58682 0.52355 -0.04310
 N258 N 0.61653 0.55026 -0.04899
 N259 N 0.54815 0.44471 -0.06605
 N260 N 0.55517 0.41760 -0.09303
 Mn261 Mn 0.58141 0.48767 0.00442
 C262 C 0.59263 0.40103 -0.07918
 C263 C 0.60346 0.56601 -0.08515
 N264 N 0.43186 0.53623 -0.05110
 N265 N 0.40747 0.56555 -0.06191
 N266 N 0.45365 0.45266 -0.07115
 N267 N 0.44373 0.42491 -0.09685
 N268 N 0.42205 0.45743 -0.04398
 N269 N 0.39000 0.43268 -0.04995
 N270 N 0.46353 0.53067 -0.07802
 N271 N 0.46154 0.55566 -0.10792
 Mn272 Mn 0.42431 0.50031 -0.00338
 Mn273 Mn 0.50575 0.48767 -0.07243
 Cl274 Cl 0.50267 0.49363 0.00083
 C275 C 0.42671 0.57742 -0.09737
 C276 C 0.40420 0.41250 -0.08285
 C277 C 1.16429 0.16681 0.14311
 C278 C 1.13372 0.14525 0.16563
 N279 N 1.13099 0.14997 0.20716
 C280 C 1.15751 0.17514 0.22726
 C281 C 1.18805 0.19705 0.20489
 N282 N 1.19060 0.19220 0.16314
 N283 N 1.16830 0.16096 0.10181
 C284 C 1.14356 0.13425 0.08209
 C285 C 1.11316 0.11245 0.10458
 N286 N 1.10874 0.11872 0.14590
 H287 H 1.15522 0.17775 0.26055
 H288 H 1.14793 0.12979 0.04922
 C289 C 1.17691 0.66355 0.64467
 C290 C 1.14293 0.64434 0.66532
 N291 N 1.13636 0.65071 0.70616
 C292 C 1.16222 0.67552 0.72742
 C293 C 1.19585 0.69546 0.70682
 N294 N 1.20247 0.68871 0.66579
 N295 N 1.18456 0.65591 0.60415
 C296 C 1.15985 0.62978 0.58341
 C297 C 1.12571 0.61070 0.60405
 N298 N 1.11801 0.61864 0.64453
 H299 H 1.15687 0.67942 0.76023
 H300 H 1.16678 0.62396 0.55120
 C301 C 0.67015 0.16981 0.63680
 C302 C 0.63580 0.15225 0.65865
 N303 N 0.62842 0.16199 0.69850
 C304 C 0.65391 0.18833 0.71777
 C305 C 0.68855 0.20657 0.69615
 N306 N 0.69576 0.19633 0.65597
 N307 N 0.67872 0.15865 0.59744
 C308 C 0.65483 0.13049 0.57918
 C309 C 0.62077 0.11257 0.60128
 N310 N 0.61191 0.12422 0.64046
 H311 H 0.64816 0.19391 0.75022
 H312 H 0.66271 0.12189 0.54792
 C313 C 0.67295 0.66339 0.14048
 C314 C 0.63865 0.64489 0.16144
 N315 N 0.63082 0.65327 0.20166
 C316 C 0.65579 0.67934 0.22201
 C317 C 0.68986 0.69842 0.20106
 N318 N 0.69765 0.68972 0.16067
 N319 N 0.68189 0.65382 0.10070
 C320 C 0.65822 0.62638 0.08102
 C321 C 0.62388 0.60789 0.10200
 N322 N 0.61480 0.61781 0.14170
 H323 H 0.64951 0.68480 0.25440
 H324 H 0.66622 0.61901 0.04942
 C325 C 0.82022 -0.16281 0.13771
 C326 C 0.85682 -0.14601 0.15738
 N327 N 0.86714 -0.15580 0.19687
 C328 C 0.84234 -0.18150 0.21771
 C329 C 0.80540 -0.19831 0.19816
 N330 N 0.79560 -0.18845 0.15842
 N331 N 0.80957 -0.15299 0.09835
 C332 C 0.83384 -0.12690 0.07771
 C333 C 0.87050 -0.10984 0.09729
 N334 N 0.88118 -0.11997 0.13677
 H335 H 0.85195 -0.18895 0.24887
 H336 H 0.82445 -0.11947 0.04642
 C337 C 0.82171 0.34270 0.64045
 C338 C 0.85587 0.36107 0.66211
 N339 N 0.86498 0.35080 0.70165
 C340 C 0.84128 0.32328 0.72081
 C341 C 0.80651 0.30461 0.69936
 N342 N 0.79828 0.31497 0.65934
 N343 N 0.81194 0.35335 0.60113
 C344 C 0.83475 0.38165 0.58248
 C345 C 0.86926 0.40012 0.60396
 N346 N 0.87906 0.38915 0.64340
 H347 H 0.85063 0.31604 0.75202
 H348 H 0.82612 0.38953 0.55113
 C349 C 0.32587 -0.16373 0.64878
 C350 C 0.36260 -0.14742 0.66880
 N351 N 0.37320 -0.15842 0.70785
 C352 C 0.34859 -0.18485 0.72785
 C353 C 0.31157 -0.20114 0.70786
 N354 N 0.30150 -0.19005 0.66862
 N355 N 0.31483 -0.15280 0.60993
 C356 C 0.33876 -0.12604 0.59011
 C357 C 0.37555 -0.10941 0.60999
 N358 N 0.38672 -0.12065 0.64899
 H359 H 0.35841 -0.19325 0.75866
 H360 H 0.32901 -0.11779 0.55917
 C361 C 0.31889 0.34031 0.14538
 C362 C 0.35680 0.35484 0.16517
 N363 N 0.36792 0.34219 0.20345
 C364 C 0.34272 0.31589 0.22297
 C365 C 0.30439 0.30141 0.20339
 N366 N 0.29379 0.31405 0.16479
 N367 N 0.30758 0.35283 0.10715
 C368 C 0.33238 0.37937 0.08779
 C369 C 0.37038 0.39421 0.10746
 N370 N 0.38174 0.38141 0.14583
 H371 H 0.35316 0.30612 0.25310
 H372 H 0.32241 0.38882 0.05733
 C373 C 0.83215 0.14824 -0.17863
 C374 C 0.86594 0.16540 -0.15535
 N375 N 0.87214 0.20324 -0.15850
 C376 C 0.84596 0.22472 -0.18371
 C377 C 0.81189 0.20745 -0.20735
 N378 N 0.80658 0.16945 -0.20386
 N379 N 0.82480 0.11070 -0.17527
 C380 C 0.84983 0.08933 -0.14945
 C381 C 0.88399 0.10616 -0.12625
 N382 N 0.89149 0.14396 -0.12969
 H383 H 0.85247 0.25457 -0.18524
 H384 H 0.84326 0.05941 -0.14714
 C385 C 0.86638 0.67281 0.32547
 C386 C 0.84926 0.66844 0.36552
 N387 N 0.81231 0.68776 0.37650
 C388 C 0.79103 0.71034 0.34884
 C389 C 0.80685 0.71295 0.30821
 N390 N 0.84437 0.69431 0.29760
 N391 N 0.90298 0.65342 0.31417
 C392 C 0.92272 0.62905 0.34067
 C393 C 0.90434 0.62291 0.37998
 N394 N 0.86827 0.64323 0.39175
 H395 H 0.76061 0.72428 0.35766
 H396 H 0.95148 0.61350 0.33041
 C397 C 0.33521 0.17388 0.36190
 C398 C 0.37284 0.15874 0.34260
 N399 N 0.38247 0.16904 0.30325
 C400 C 0.35552 0.19296 0.28199
 C401 C 0.31694 0.20683 0.30071
 N402 N 0.30789 0.19712 0.34040
 N403 N 0.32476 0.16290 0.40074
 C404 C 0.34956 0.13679 0.42089
 C405 C 0.38614 0.12027 0.40108
 N406 N 0.39732 0.13211 0.36247
 H407 H 0.36280 0.19951 0.25006
 H408 H 0.33987 0.12815 0.45160
 C409 C 0.37057 0.65805 -0.17706
 C410 C 0.36056 0.65861 -0.13468
 N411 N 0.33029 0.68365 -0.12025
 C412 C 0.30863 0.70732 -0.14654
 C413 C 0.31673 0.70498 -0.18917
 N414 N 0.34782 0.68059 -0.20331
 N415 N 0.40080 0.63329 -0.19171
 C416 C 0.42089 0.60836 -0.16606
 C417 C 0.40919 0.60730 -0.12406
 N418 N 0.37956 0.63282 -0.10917
 H419 H 0.28331 0.72598 -0.13468
 H420 H 0.44439 0.58851 -0.17878
 C421 C 1.14736 -0.17006 -0.16234
 C422 C 1.17306 -0.15143 -0.13224
 N423 N 1.21710 -0.15909 -0.12936
 C424 C 1.23661 -0.18426 -0.15547
 C425 C 1.21086 -0.20251 -0.18611
 N426 N 1.16676 -0.19488 -0.18823
 N427 N 1.10357 -0.16245 -0.16601
 C428 C 1.08423 -0.13642 -0.14132
 C429 C 1.10982 -0.11700 -0.11161
 N430 N 1.15377 -0.12518 -0.10742
 H431 H 1.27158 -0.18990 -0.15188
 H432 H 1.04928 -0.13048 -0.14538
 C433 C 1.14173 0.33019 0.33691
 C434 C 1.16763 0.34919 0.36652
 N435 N 1.21197 0.34237 0.36832
 C436 C 1.23153 0.31759 0.34170
 C437 C 1.20551 0.29870 0.31175
 N438 N 1.16115 0.30565 0.31060
 N439 N 1.09764 0.33698 0.33427
 C440 C 1.07812 0.36241 0.35967
 C441 C 1.10377 0.38201 0.38917
 N442 N 1.14814 0.37476 0.39215
 H443 H 1.26675 0.31267 0.34437
 H444 H 1.04291 0.36758 0.35647
 C445 C 0.64016 -0.16513 0.33008
 C446 C 0.66557 -0.14874 0.36192
 N447 N 0.70945 -0.15692 0.36485
 C448 C 0.72908 -0.18060 0.33725
 C449 C 0.70362 -0.19680 0.30506
 N450 N 0.65967 -0.18857 0.30271
 N451 N 0.59645 -0.15710 0.32664
 C452 C 0.57690 -0.13289 0.35336
 C453 C 0.60222 -0.11584 0.38497
 N454 N 0.64610 -0.12436 0.38876
 H455 H 0.76384 -0.18700 0.34112
 H456 H 0.54201 -0.12660 0.34954
 C457 C 0.65196 0.32191 -0.15823
 C458 C 0.67880 0.34569 -0.13411
 N459 N 0.72342 0.34535 -0.14001
 C460 C 0.74229 0.32259 -0.16917
 C461 C 0.71508 0.29921 -0.19421
 N462 N 0.67061 0.29972 -0.18727
 N463 N 0.60741 0.32227 -0.15350
 C464 C 0.58814 0.34609 -0.12621
 C465 C 0.61451 0.37088 -0.10264
 N466 N 0.65955 0.36992 -0.10678
 H467 H 0.77780 0.32369 -0.17279
 H468 H 0.55235 0.34645 -0.12382
 C469 C 1.16856 0.16944 -0.13742
 C470 C 1.13264 0.15174 -0.15735
 N471 N 1.12271 0.16030 -0.19713
 C472 C 1.14737 0.18566 -0.21817
 C473 C 1.18347 0.20360 -0.19845
 N474 N 1.19317 0.19484 -0.15840
 N475 N 1.17952 0.15958 -0.09812
 C476 C 1.15641 0.13237 -0.07804
 C477 C 1.12089 0.11433 -0.09832
 N478 N 1.10968 0.12476 -0.13736
 H479 H 1.13963 0.19098 -0.25036
 H480 H 1.16605 0.12458 -0.04691
 C481 C 1.17567 0.66088 0.35432
 C482 C 1.14203 0.64119 0.33313
 N483 N 1.13462 0.64823 0.29247
 C484 C 1.15933 0.67408 0.27194
 C485 C 1.19274 0.69436 0.29309
 N486 N 1.20014 0.68697 0.33392
 N487 N 1.18408 0.65284 0.39464
 C488 C 1.16047 0.62589 0.41471
 C489 C 1.12667 0.60622 0.39358
 N490 N 1.11819 0.61455 0.35323
 H491 H 1.15332 0.67846 0.23927
 H492 H 1.16799 0.61993 0.44681
 C493 C 0.67281 0.16188 0.36171
 C494 C 0.63949 0.14256 0.33961
 N495 N 0.63405 0.14900 0.29860
 C496 C 0.66051 0.17385 0.27858
 C497 C 0.69376 0.19356 0.30058
 N498 N 0.69906 0.18695 0.34180
 N499 N 0.67926 0.15438 0.40243
 C500 C 0.65415 0.12816 0.42197
 C501 C 0.62092 0.10870 0.39984
 N502 N 0.61422 0.11660 0.35916
 H503 H 0.65596 0.17798 0.24567
 H504 H 0.66028 0.12239 0.45437
 C505 C 0.66990 0.65544 -0.14338
 C506 C 0.63532 0.63645 -0.16372
 N507 N 0.62449 0.64605 -0.20314
 C508 C 0.64671 0.67391 -0.22318
 C509 C 0.68118 0.69366 -0.20261
 N510 N 0.69190 0.68306 -0.16327
 N511 N 0.68191 0.64529 -0.10450
 C512 C 0.66086 0.61672 -0.08490
 C513 C 0.62623 0.59746 -0.10516
 N514 N 0.61414 0.60791 -0.14416
 H515 H 0.63824 0.67983 -0.25507
 H516 H 0.67114 0.60913 -0.05389
 C517 C 0.84200 -0.15568 -0.18263
 C518 C 0.82445 -0.14508 -0.14414
 N519 N 0.78618 -0.16067 -0.13120
 C520 C 0.76502 -0.18717 -0.15424
 C521 C 0.78285 -0.19924 -0.19254
 N522 N 0.82070 -0.18225 -0.20618
 N523 N 0.88072 -0.13994 -0.19513
 C524 C 0.90256 -0.11436 -0.17084
 C525 C 0.88492 -0.10389 -0.13219
 N526 N 0.84605 -0.11951 -0.12003
 H527 H 0.73379 -0.19755 -0.14280
 H528 H 0.93340 -0.10238 -0.18159
 C529 C 0.82293 0.33770 0.35994
 C530 C 0.86109 0.35193 0.34097
 N531 N 0.87381 0.33770 0.30385
 C532 C 0.84987 0.31008 0.28461
 C533 C 0.81139 0.29589 0.30339
 N534 N 0.79916 0.31008 0.34086
 N535 N 0.80979 0.35219 0.39678
 C536 C 0.83300 0.38045 0.41552
 C537 C 0.87124 0.39489 0.39663
 N538 N 0.88444 0.38008 0.35974
 H539 H 0.86113 0.29917 0.25524
 H540 H 0.82166 0.39151 0.44484
 C541 C 0.32186 -0.16313 0.35494
 C542 C 0.35883 -0.14725 0.33551
 N543 N 0.36951 -0.15869 0.29669
 C544 C 0.34473 -0.18510 0.27630
 C545 C 0.30738 -0.20092 0.29560
 N546 N 0.29724 -0.18946 0.33469
 N547 N 0.31085 -0.15174 0.39362
 C548 C 0.33505 -0.12497 0.41379
 C549 C 0.37208 -0.10877 0.39448
 N550 N 0.38318 -0.12047 0.35566
 H551 H 0.35468 -0.19388 0.24571
 H552 H 0.32532 -0.11637 0.44457
 C553 C 0.32594 0.33044 -0.14262
 C554 C 0.35966 0.34907 -0.16397
 N555 N 0.36552 0.34187 -0.20483
 C556 C 0.33887 0.31708 -0.22551
 C557 C 0.30470 0.29826 -0.20417
 N558 N 0.29982 0.30552 -0.16303
 N559 N 0.31896 0.33825 -0.10209
 C560 C 0.34416 0.36427 -0.08190
 C561 C 0.37806 0.38298 -0.10316
 N562 N 0.38522 0.37477 -0.14374
 H563 H 0.34531 0.31209 -0.25784
 H564 H 0.33773 0.37030 -0.04964
 C565 C 1.14259 -0.16575 0.16807
 C566 C 1.16716 -0.14909 0.13634
 N567 N 1.21049 -0.15864 0.13173
 C568 C 1.23034 -0.18401 0.15748
 C569 C 1.20568 -0.20078 0.18937
 N570 N 1.16226 -0.19104 0.19350
 N571 N 1.09948 -0.15626 0.17323
 C572 C 1.07969 -0.13059 0.14819
 C573 C 1.10400 -0.11360 0.11632
 N574 N 1.14736 -0.12340 0.11103
 H575 H 1.26464 -0.19131 0.15245
 H576 H 1.04528 -0.12345 0.15327
 C577 C 1.13926 0.33982 0.67383
 C578 C 1.16327 0.35440 0.64057
 N579 N 1.20610 0.34362 0.63519
 C580 C 1.22591 0.31881 0.66160
 C581 C 1.20162 0.30404 0.69484
 N582 N 1.15887 0.31519 0.69979
 N583 N 1.09666 0.35039 0.67979
 C584 C 1.07679 0.37525 0.65397
 C585 C 1.10056 0.39016 0.62059
 N586 N 1.14339 0.37929 0.61452
 H587 H 1.25973 0.31033 0.65602
 H588 H 1.04280 0.38340 0.65963
 C589 C 0.64009 -0.17398 0.66549
 C590 C 0.66789 -0.15111 0.64175
 N591 N 0.71253 -0.15524 0.64534
 C592 C 0.73067 -0.18088 0.67183
 C593 C 0.70277 -0.20387 0.69608
 N594 N 0.65807 -0.19965 0.69153
 N595 N 0.59554 -0.16942 0.66323
 C596 C 0.57738 -0.14262 0.63856
 C597 C 0.60493 -0.11943 0.61470
 N598 N 0.64977 -0.12439 0.61663
 H599 H 0.76630 -0.18317 0.67313
 H600 H 0.54172 -0.13923 0.63785
 C601 C 0.64645 0.33640 0.18152
 C602 C 0.66938 0.35037 0.14727
 N603 N 0.71170 0.33892 0.14044
 C604 C 0.73205 0.31396 0.16625
 C605 C 0.70885 0.29956 0.20034
 N606 N 0.66655 0.31140 0.20689
 N607 N 0.60431 0.34775 0.18875
 C608 C 0.58387 0.37261 0.16319
 C609 C 0.60649 0.38659 0.12863
 N610 N 0.64888 0.37507 0.12146
 H611 H 0.76539 0.30484 0.15945
 H612 H 0.55025 0.38127 0.16977
 C613 C 0.82270 0.16278 0.14003
 C614 C 0.86777 0.15862 0.15013
 N615 N 0.88512 0.17856 0.18243
 C616 C 0.85914 0.20167 0.20568
 C617 C 0.81361 0.20418 0.19686
 N618 N 0.79660 0.18478 0.16402
 N619 N 0.80516 0.14313 0.10780
 C620 C 0.83041 0.11886 0.08558
 C621 C 0.87501 0.11309 0.09678
 N622 N 0.89282 0.13347 0.12870
 H623 H 0.87327 0.21619 0.23218
 H624 H 0.81526 0.10317 0.06041
 C625 C 0.83139 0.65180 0.67379
 C626 C 0.85840 0.67239 0.64707
 N627 N 0.85863 0.71070 0.64997
 C628 C 0.83279 0.72927 0.67808
 C629 C 0.80509 0.70851 0.70476
 N630 N 0.80594 0.67020 0.70151
 N631 N 0.83030 0.61369 0.67136
 C632 C 0.85519 0.59497 0.64323
 C633 C 0.88241 0.61517 0.61621
 N634 N 0.88367 0.65365 0.61873
 H635 H 0.83371 0.75967 0.67880
 H636 H 0.85396 0.56449 0.64208
 C637 C 0.31881 0.15043 0.65864
 C638 C 0.36336 0.16139 0.65493
 N639 N 0.37697 0.19447 0.67229
 C640 C 0.34813 0.21667 0.69368
 C641 C 0.30399 0.20482 0.69847
 N642 N 0.29062 0.17205 0.68052
 N643 N 0.30442 0.11799 0.64102
 C644 C 0.33262 0.09575 0.61967
 C645 C 0.37741 0.10604 0.61637
 N646 N 0.39203 0.13875 0.63406
 H647 H 0.35995 0.24236 0.70815
 H648 H 0.32023 0.07003 0.60561
 C649 C 0.33493 0.67210 0.13420
 C650 C 0.37473 0.66001 0.15266
 N651 N 0.38573 0.67266 0.19111
 C652 C 0.35817 0.69601 0.21232
 C653 C 0.31748 0.70670 0.19460
 N654 N 0.30697 0.69461 0.15578
 N655 N 0.32342 0.65905 0.09615
 C656 C 0.34931 0.63377 0.07602
 C657 C 0.38813 0.62014 0.09513
 N658 N 0.40024 0.63406 0.13293
 H659 H 0.36674 0.70449 0.24358
 H660 H 0.33876 0.62342 0.04598
   
