data_POSCAR
  _audit_creation_date              2014-09-24
  _audit_creation_method            'ToBaCCo'
  _symmetry_space_group_name_H-M    'P1'
  _symmetry_Int_Tables_number       1
  _symmetry_cell_setting            triclinic
  loop_
  _symmetry_equiv_pos_as_xyz
 x,y,z
_cell_length_a 37.7523
_cell_length_b 38.5341
_cell_length_c 38.6565
_cell_angle_alpha 90.185100
_cell_angle_beta 89.989600
_cell_angle_gamma 89.894700
loop_
  _atom_site_label
  _atom_site_type_symbol
  _atom_site_fract_x
  _atom_site_fract_y
  _atom_site_fract_z
O1 O 0.32923 0.36938 0.03563
 O2 O 0.37316 0.32478 -0.03614
 O3 O 0.32631 0.37367 -0.03103
 O4 O 0.37591 0.32006 0.03053
 O5 O 0.33322 0.28102 0.03007
 O6 O 0.28300 0.33564 -0.03126
 O7 O 0.33077 0.28538 -0.03728
 O8 O 0.28598 0.33083 0.03506
 Cu9 Cu 0.35543 0.35078 -0.00017
 Cu10 Cu 0.30400 0.30414 -0.00110
 C11 C 0.30003 0.35816 0.04734
 C12 C 0.35976 0.29744 -0.04887
 C13 C 0.29548 0.36468 -0.04074
 C14 C 0.36343 0.29117 0.04040
 O15 O 0.67017 0.62577 0.03186
 O16 O 0.62721 0.68301 -0.03061
 O17 O 0.66946 0.63055 -0.03518
 O18 O 0.62859 0.67928 0.03594
 O19 O 0.67346 0.71609 0.03622
 O20 O 0.71707 0.66325 -0.03167
 O21 O 0.67400 0.71732 -0.03096
 O22 O 0.71543 0.66173 0.03566
 Cu23 Cu 0.64435 0.65108 0.00037
 Cu24 Cu 0.69977 0.69308 0.00241
 C25 C 0.69975 0.63412 0.04496
 C26 C 0.64292 0.71000 -0.04128
 C27 C 0.70037 0.63815 -0.04555
 C28 C 0.64352 0.70638 0.04757
 O29 O 0.62536 0.32118 1.03083
 O30 O 0.67458 0.37226 0.96737
 O31 O 0.62548 0.32477 0.96366
 O32 O 0.67327 0.36802 1.03396
 O33 O 0.71602 0.32957 1.03027
 O34 O 0.66559 0.28303 0.96242
 O35 O 0.71512 0.33106 0.96359
 O36 O 0.66710 0.28093 1.03001
 Cu37 Cu 0.64542 0.35048 0.99893
 Cu38 Cu 0.69500 0.30188 0.99631
 C39 C 0.63809 0.29281 1.04180
 C40 C 0.70370 0.36094 0.95537
 C41 C 0.63698 0.29638 0.95130
 C42 C 0.70343 0.35706 1.04370
 O43 O 0.32943 0.62702 0.96907
 O44 O 0.38066 0.66913 1.03808
 O45 O 0.33195 0.62231 1.03573
 O46 O 0.38150 0.67145 0.97107
 O47 O 0.34168 0.71335 0.97291
 O48 O 0.29103 0.66294 1.03770
 O49 O 0.34082 0.71105 1.04083
 O50 O 0.28905 0.66859 0.97178
 Cu51 Cu 0.35993 0.64346 1.00312
 Cu52 Cu 0.31187 0.69347 1.00617
 C53 C 0.30012 0.64005 0.95940
 C54 C 0.36936 0.69718 1.05141
 C55 C 0.30237 0.63331 1.04699
 C56 C 0.37026 0.70063 0.96074
 O57 O -0.03313 0.37890 0.32692
 O58 O 0.03331 0.33417 0.37937
 O59 O 0.03497 0.37778 0.32811
 O60 O -0.03578 0.33529 0.37728
 O61 O -0.03337 0.29006 0.34247
 O62 O 0.03338 0.33566 0.28918
 O63 O 0.03577 0.29164 0.34112
 O64 O -0.03516 0.33439 0.29089
 Cu65 Cu -0.00009 0.36072 0.35680
 Cu66 Cu 0.00021 0.30838 0.31228
 C67 C -0.04525 0.36460 0.29981
 C68 C 0.04644 0.30565 0.36903
 C69 C 0.04530 0.36464 0.29970
 C70 C -0.04681 0.30542 0.36856
 O71 O 0.03148 0.66950 0.62305
 O72 O -0.03311 0.62297 0.67654
 O73 O -0.03658 0.66494 0.62486
 O74 O 0.03570 0.62351 0.67231
 O75 O 0.03521 0.66553 0.71130
 O76 O -0.03549 0.70928 0.66085
 O77 O -0.03359 0.66633 0.71414
 O78 O 0.03294 0.71190 0.66158
 Cu79 Cu -0.00047 0.64084 0.64559
 Cu80 Cu -0.00025 0.69257 0.69083
 C81 C 0.04248 0.69911 0.63277
 C82 C -0.04435 0.63673 0.70436
 C83 C -0.04826 0.69438 0.63410
 C84 C 0.04753 0.63692 0.69997
 O85 O 0.96544 0.67190 0.36986
 O86 O 1.03400 0.62643 0.32037
 O87 O 1.03411 0.67296 0.36885
 O88 O 0.96578 0.62528 0.32100
 O89 O 0.96451 0.66637 0.28148
 O90 O 1.03162 0.71547 0.33113
 O91 O 1.03405 0.66818 0.28162
 O92 O 0.96359 0.71357 0.33078
 Cu93 Cu 0.99993 0.64506 0.34892
 Cu94 Cu 0.99838 0.69495 0.30210
 C95 C 0.95304 0.70053 0.35910
 C96 C 1.04555 0.63911 0.29232
 C97 C 1.04368 0.70301 0.35912
 C98 C 0.95405 0.63713 0.29262
 O99 O 0.97059 0.32713 0.62903
 O100 O 1.03834 0.37701 0.67509
 O101 O 1.03883 0.32846 0.62908
 O102 O 0.96965 0.37739 0.67423
 O103 O 0.96935 0.33881 0.71626
 O104 O 1.03763 0.28826 0.66931
 O105 O 1.03886 0.33799 0.71680
 O106 O 0.96992 0.28797 0.67074
 Cu107 Cu 1.00426 0.35650 0.64785
 Cu108 Cu 1.00405 0.30954 0.69779
 C109 C 0.95942 0.29875 0.64150
 C110 C 1.05039 0.36595 0.70362
 C111 C 1.04905 0.29920 0.64042
 C112 C 0.95760 0.36665 0.70286
 O113 O 0.37521 0.03098 0.32424
 O114 O 0.32555 -0.03196 0.37594
 O115 O 0.37193 -0.03575 0.32604
 O116 O 0.32836 0.03517 0.37304
 O117 O 0.28478 0.03545 0.33495
 O118 O 0.32936 -0.03566 0.28717
 O119 O 0.28254 -0.03208 0.33729
 O120 O 0.33232 0.03202 0.28550
 Cu121 Cu 0.35446 -0.00053 0.35372
 Cu122 Cu 0.30290 -0.00008 0.30732
 C123 C 0.36268 0.04186 0.29581
 C124 C 0.29536 -0.04232 0.36589
 C125 C 0.35876 -0.04735 0.29807
 C126 C 0.29922 0.04746 0.36216
 O127 O 0.62772 0.03497 0.66798
 O128 O 0.67753 -0.03495 0.62559
 O129 O 0.62515 -0.03173 0.66926
 O130 O 0.68046 0.03232 0.62469
 O131 O 0.71875 0.03213 0.66797
 O132 O 0.66367 -0.03360 0.71206
 O133 O 0.71694 -0.03484 0.66786
 O134 O 0.66523 0.03424 0.71172
 Cu135 Cu 0.64900 0.00023 0.64254
 Cu136 Cu 0.69487 -0.00060 0.69443
 C137 C 0.63766 0.04641 0.69719
 C138 C 0.70595 -0.04634 0.63897
 C139 C 0.63491 -0.04377 0.69822
 C140 C 0.70904 0.04284 0.63842
 O141 O 0.36908 0.96454 0.67954
 O142 O 0.32207 1.02796 0.62595
 O143 O 0.36985 1.03122 0.67369
 O144 O 0.32164 0.96125 0.63034
 O145 O 0.27910 0.96456 0.66913
 O146 O 0.32863 1.03429 0.71415
 O147 O 0.28028 1.03232 0.66561
 O148 O 0.32672 0.96714 0.71881
 Cu149 Cu 0.34986 0.99570 0.64849
 Cu150 Cu 0.29935 0.99981 0.69587
 C151 C 0.35654 0.95574 0.70870
 C152 C 0.29297 1.04078 0.63640
 C153 C 0.35774 1.04463 0.70127
 C154 C 0.29164 0.95152 0.64148
 O155 O 0.67727 1.03558 0.37801
 O156 O 0.62662 0.97113 0.32870
 O157 O 0.67449 0.96843 0.37713
 O158 O 0.62912 1.03807 0.33046
 O159 O 0.67062 1.03731 0.29020
 O160 O 0.71681 0.96718 0.33769
 O161 O 0.66842 0.96972 0.28880
 O162 O 0.71958 1.03402 0.33901
 Cu163 Cu 0.64772 1.00336 0.35752
 Cu164 Cu 0.69802 1.00202 0.30981
 C165 C 0.70773 1.04508 0.36773
 C166 C 0.63840 0.96002 0.29996
 C167 C 0.70349 0.95617 0.36578
 C168 C 0.64184 1.04950 0.30236
 C169 C 0.87704 0.76984 0.46705
 C170 C 0.88926 0.75593 0.49816
 C171 C 0.87622 0.76724 0.53017
 C172 C 0.85128 0.79470 0.53126
 C173 C 0.83926 0.80971 0.49980
 C174 C 0.85191 0.79700 0.46756
 C175 C 0.83860 0.81127 0.43676
 C176 C 0.81342 0.83772 0.43751
 C177 C 0.80081 0.85099 0.46909
 C178 C 0.81386 0.83689 0.50053
 C179 C 0.83739 0.80701 0.56275
 C180 C 0.81306 0.83420 0.56348
 C181 C 0.80102 0.84948 0.53271
 C182 C 0.77589 0.87665 0.53319
 C183 C 0.76324 0.89023 0.50210
 C184 C 0.77494 0.87753 0.47017
 H185 H 0.84740 0.80191 0.41175
 H186 H 0.80385 0.84767 0.41307
 H187 H 0.84510 0.79571 0.58719
 H188 H 0.80341 0.84288 0.58843
 H189 H 0.90857 0.73504 0.49739
 H190 H 0.74341 0.91064 0.50275
 C191 C 0.23272 0.12668 0.52994
 C192 C 0.24543 0.11525 0.49794
 C193 C 0.23357 0.12983 0.46699
 C194 C 0.20777 0.15642 0.46776
 C195 C 0.19480 0.16848 0.50013
 C196 C 0.20793 0.15414 0.53136
 C197 C 0.19589 0.16747 0.56314
 C198 C 0.17030 0.19349 0.56429
 C199 C 0.15548 0.20673 0.53372
 C200 C 0.16843 0.19471 0.50129
 C201 C 0.19483 0.17141 0.43718
 C202 C 0.16900 0.19728 0.43830
 C203 C 0.15512 0.20891 0.47004
 C204 C 0.12856 0.23472 0.47153
 C205 C 0.11504 0.24516 0.50353
 C206 C 0.12803 0.23174 0.53458
 H207 H 0.20609 0.15776 0.58743
 H208 H 0.16187 0.20284 0.58942
 H209 H 0.20455 0.16319 0.41211
 H210 H 0.15990 0.20800 0.41403
 H211 H 0.26454 0.09419 0.49706
 H212 H 0.09414 0.26453 0.50427
 C213 C 0.12584 0.76473 0.52724
 C214 C 0.11320 0.75365 0.49518
 C215 C 0.12682 0.76669 0.46421
 C216 C 0.15439 0.79153 0.46525
 C217 C 0.16707 0.80346 0.49776
 C218 C 0.15311 0.78964 0.52887
 C219 C 0.16637 0.80139 0.56077
 C220 C 0.19207 0.82719 0.56219
 C221 C 0.20512 0.84238 0.53176
 C222 C 0.19309 0.82992 0.49922
 C223 C 0.16918 0.80510 0.43480
 C224 C 0.19451 0.83134 0.43623
 C225 C 0.20632 0.84451 0.46815
 C226 C 0.23076 0.87218 0.46994
 C227 C 0.24214 0.88437 0.50214
 C228 C 0.22956 0.87010 0.53298
 H229 H 0.15670 0.79091 0.58495
 H230 H 0.20125 0.83551 0.58740
 H231 H 0.16075 0.79597 0.40961
 H232 H 0.20459 0.84147 0.41206
 H233 H 0.09163 0.73508 0.49434
 H234 H 0.26042 0.90604 0.50324
 C235 C 0.77751 0.12416 0.47210
 C236 C 0.76729 0.10957 0.50363
 C237 C 0.78036 0.12188 0.53511
 C238 C 0.80551 0.14896 0.53536
 C239 C 0.81581 0.16448 0.50364
 C240 C 0.80118 0.15259 0.47193
 C241 C 0.81061 0.16933 0.44103
 C242 C 0.83496 0.19649 0.44106
 C243 C 0.85089 0.20775 0.47198
 C244 C 0.84085 0.19189 0.50364
 C245 C 0.82064 0.16079 0.56640
 C246 C 0.84542 0.18747 0.56639
 C247 C 0.85579 0.20339 0.53534
 C248 C 0.88087 0.23048 0.53511
 C249 C 0.89100 0.24540 0.50380
 C250 C 0.87621 0.23481 0.47233
 H251 H 0.79926 0.16146 0.41653
 H252 H 0.84121 0.20855 0.41658
 H253 H 0.81356 0.14933 0.59098
 H254 H 0.85644 0.19553 0.59098
 H255 H 0.74863 0.08817 0.50367
 H256 H 0.91058 0.26599 0.50397
 C257 C 0.46498 0.88002 0.77864
 C258 C 0.49618 0.89248 0.76387
 C259 C 0.52940 0.88034 0.77421
 C260 C 0.53178 0.85582 0.80125
 C261 C 0.50022 0.84292 0.81655
 C262 C 0.46665 0.85463 0.80482
 C263 C 0.43575 0.84057 0.81935
 C264 C 0.43770 0.81548 0.84515
 C265 C 0.47062 0.80401 0.85767
 C266 C 0.50220 0.81791 0.84331
 C267 C 0.56468 0.84340 0.81293
 C268 C 0.56664 0.81932 0.83966
 C269 C 0.53576 0.80637 0.85522
 C270 C 0.53744 0.78179 0.88216
 C271 C 0.50620 0.76831 0.89596
 C272 C 0.47298 0.77847 0.88371
 H273 H 0.40977 0.84872 0.81069
 H274 H 0.41315 0.80524 0.85531
 H275 H 0.58923 0.85223 0.80154
 H276 H 0.59261 0.81071 0.84790
 H277 H 0.49457 0.91182 0.74357
 H278 H 0.50778 0.74885 0.91614
 C279 C 0.47043 0.12252 0.22875
 C280 C 0.50284 0.11208 0.24279
 C281 C 0.53494 0.12557 0.23092
 C282 C 0.53494 0.15001 0.20378
 C283 C 0.50220 0.16116 0.18947
 C284 C 0.46978 0.14778 0.20231
 C285 C 0.43767 0.15991 0.18838
 C286 C 0.43737 0.18418 0.16174
 C287 C 0.46917 0.19720 0.14815
 C288 C 0.50189 0.18575 0.16226
 C289 C 0.56670 0.16385 0.19086
 C290 C 0.56640 0.18779 0.16397
 C291 C 0.53433 0.19892 0.14925
 C292 C 0.53372 0.22322 0.12205
 C293 C 0.50141 0.23410 0.10828
 C294 C 0.46925 0.22154 0.12088
 H295 H 0.41247 0.15065 0.19796
 H296 H 0.41199 0.19262 0.15178
 H297 H 0.59208 0.15624 0.20144
 H298 H 0.59156 0.19760 0.15483
 H299 H 0.50315 0.09277 0.26316
 H300 H 0.50130 0.25284 0.08738
 C301 C 0.53007 0.12488 0.76708
 C302 C 0.49773 0.11213 0.75495
 C303 C 0.46547 0.12457 0.76765
 C304 C 0.46521 0.15019 0.79383
 C305 C 0.49784 0.16303 0.80687
 C306 C 0.53044 0.15035 0.79347
 C307 C 0.56239 0.16400 0.80623
 C308 C 0.56239 0.18950 0.83188
 C309 C 0.53045 0.20238 0.84553
 C310 C 0.49785 0.18914 0.83284
 C311 C 0.43328 0.16382 0.80673
 C312 C 0.43329 0.18951 0.83213
 C313 C 0.46523 0.20243 0.84558
 C314 C 0.46552 0.22888 0.87094
 C315 C 0.49780 0.24136 0.88345
 C316 C 0.53011 0.22871 0.87106
 H317 H 0.58769 0.15520 0.79634
 H318 H 0.58769 0.19929 0.84071
 H319 H 0.40795 0.15493 0.79707
 H320 H 0.40797 0.19933 0.84097
 H321 H 0.49766 0.09253 0.73472
 H322 H 0.49777 0.26166 0.90299
 C323 C 0.53882 0.76965 0.13240
 C324 C 0.50740 0.75443 0.12090
 C325 C 0.47455 0.76440 0.13426
 C326 C 0.47275 0.79039 0.16003
 C327 C 0.50446 0.80617 0.17192
 C328 C 0.53768 0.79564 0.15821
 C329 C 0.56876 0.81145 0.17046
 C330 C 0.56725 0.83744 0.19555
 C331 C 0.53458 0.84881 0.20892
 C332 C 0.50289 0.83289 0.19719
 C333 C 0.44020 0.80085 0.17431
 C334 C 0.43866 0.82710 0.19910
 C335 C 0.46960 0.84394 0.21034
 C336 C 0.46818 0.87181 0.23420
 C337 C 0.49966 0.88700 0.24569
 C338 C 0.53265 0.87590 0.23356
 H339 H 0.59452 0.80385 0.16069
 H340 H 0.59193 0.84883 0.20417
 H341 H 0.41559 0.78886 0.16634
 H342 H 0.41293 0.83431 0.20923
 H343 H 0.50850 0.73474 0.10078
 H344 H 0.49845 0.90840 0.26398
 C345 C 0.77101 0.46933 0.87808
 C346 C 0.75717 0.50079 0.89002
 C347 C 0.76868 0.53259 0.87686
 C348 C 0.79578 0.53314 0.85159
 C349 C 0.81008 0.50131 0.83920
 C350 C 0.79724 0.46926 0.85205
 C351 C 0.81086 0.43806 0.83853
 C352 C 0.83696 0.43826 0.81306
 C353 C 0.85065 0.46967 0.80053
 C354 C 0.83708 0.50150 0.81369
 C355 C 0.80857 0.56452 0.83802
 C356 C 0.83557 0.56472 0.81349
 C357 C 0.85018 0.53353 0.80107
 C358 C 0.87732 0.53344 0.77599
 C359 C 0.89042 0.50203 0.76330
 C360 C 0.87714 0.47026 0.77472
 H361 H 0.80128 0.41318 0.84746
 H362 H 0.84641 0.41355 0.80335
 H363 H 0.79786 0.58926 0.84627
 H364 H 0.84473 0.58957 0.80409
 H365 H 0.73695 0.50055 0.90997
 H366 H 0.91087 0.50230 0.74357
 C367 C 0.23400 0.52758 0.12567
 C368 C 0.24562 0.49538 0.11324
 C369 C 0.23293 0.46426 0.12683
 C370 C 0.20687 0.46488 0.15298
 C371 C 0.19494 0.49727 0.16613
 C372 C 0.20926 0.52872 0.15317
 C373 C 0.19841 0.56036 0.16795
 C374 C 0.17232 0.56130 0.19338
 C375 C 0.15633 0.53060 0.20511
 C376 C 0.16846 0.49822 0.19215
 C377 C 0.19258 0.43407 0.16637
 C378 C 0.16634 0.43502 0.19169
 C379 C 0.15379 0.46680 0.20478
 C380 C 0.12674 0.46811 0.23002
 C381 C 0.11422 0.50024 0.24163
 C382 C 0.12832 0.53140 0.22936
 H383 H 0.20971 0.58474 0.15961
 H384 H 0.16450 0.58638 0.20354
 H385 H 0.20134 0.40893 0.15712
 H386 H 0.15584 0.41059 0.20083
 H387 H 0.26497 0.49448 0.09249
 H388 H 0.09283 0.50102 0.26038
 C389 C 0.76910 0.46307 0.12354
 C390 C 0.75688 0.49440 0.10976
 C391 C 0.76726 0.52639 0.12340
 C392 C 0.79202 0.52762 0.15070
 C393 C 0.80500 0.49614 0.16483
 C394 C 0.79269 0.46374 0.15200
 C395 C 0.80421 0.43302 0.16799
 C396 C 0.82932 0.43392 0.19433
 C397 C 0.84336 0.46561 0.20599
 C398 C 0.83036 0.49707 0.19187
 C399 C 0.80378 0.55937 0.16447
 C400 C 0.82901 0.56026 0.19073
 C401 C 0.84318 0.52942 0.20426
 C402 C 0.87011 0.52999 0.22967
 C403 C 0.88307 0.49873 0.24286
 C404 C 0.87028 0.46673 0.23131
 H405 H 0.79429 0.40795 0.15989
 H406 H 0.83792 0.40950 0.20531
 H407 H 0.79387 0.58386 0.15479
 H408 H 0.83757 0.58536 0.20018
 H409 H 0.73836 0.49392 0.08830
 H410 H 0.90425 0.49929 0.26183
 C411 C 0.22710 0.47270 0.88312
 C412 C 0.23834 0.50454 0.89659
 C413 C 0.22673 0.53602 0.88281
 C414 C 0.20227 0.53612 0.85520
 C415 C 0.19053 0.50409 0.84115
 C416 C 0.20342 0.47224 0.85472
 C417 C 0.19245 0.44090 0.83947
 C418 C 0.16830 0.44072 0.81225
 C419 C 0.15453 0.47190 0.79905
 C420 C 0.16605 0.50393 0.81331
 C421 C 0.18944 0.56734 0.84123
 C422 C 0.16545 0.56718 0.81385
 C423 C 0.15330 0.53579 0.79964
 C424 C 0.12907 0.53528 0.77178
 C425 C 0.11762 0.50350 0.75839
 C426 C 0.12997 0.47200 0.77152
 H427 H 0.20237 0.41620 0.84859
 H428 H 0.16060 0.41588 0.80151
 H429 H 0.19789 0.59220 0.85138
 H430 H 0.15652 0.59191 0.80388
 H431 H 0.25685 0.50485 0.91806
 H432 H 0.09872 0.50329 0.73723
 C433 C 0.22963 0.41423 0.08661
 C434 C 0.24597 0.38794 0.06753
 C435 C 0.28136 0.37885 0.07385
 C436 C 0.29946 0.39421 0.10211
 C437 C 0.28282 0.42089 0.12148
 C438 C 0.24817 0.43174 0.11268
 C439 C 0.30174 0.43636 0.14878
 N440 N 0.33496 0.42528 0.15634
 N441 N 0.35046 0.39987 0.13842
 C442 C 0.33388 0.38395 0.11161
 H443 H 0.20310 0.42239 0.07963
 H444 H 0.23175 0.37650 0.04599
 H445 H 0.29029 0.45689 0.16436
 H446 H 0.34751 0.36309 0.09837
 C447 C 0.76971 0.57783 0.08519
 C448 C 0.75317 0.60402 0.06635
 C449 C 0.71676 0.61043 0.07002
 C450 C 0.69724 0.59177 0.09530
 C451 C 0.71425 0.56538 0.11464
 C452 C 0.75041 0.55776 0.10862
 C453 C 0.69439 0.54710 0.13939
 N454 N 0.65980 0.55504 0.14450
 N455 N 0.64379 0.57997 0.12656
 C456 C 0.66125 0.59859 0.10224
 H457 H 0.79739 0.57215 0.08037
 H458 H 0.76854 0.61799 0.04727
 H459 H 0.70613 0.52685 0.15498
 H460 H 0.64680 0.61878 0.08908
 C461 C 0.72272 0.42719 0.88711
 C462 C 0.70646 0.40095 0.90593
 C463 C 0.72456 0.38379 0.93253
 C464 C 0.76044 0.39261 0.93947
 C465 C 0.77687 0.41953 0.92033
 C466 C 0.75751 0.43723 0.89444
 C467 C 0.81182 0.42894 0.92879
 N468 N 0.82913 0.41229 0.95458
 N469 N 0.81375 0.38713 0.97266
 C470 C 0.78006 0.37688 0.96616
 H471 H 0.70753 0.44086 0.86764
 H472 H 0.67901 0.39482 0.90052
 H473 H 0.82550 0.44945 0.91528
 H474 H 0.76914 0.35673 0.98214
 C475 C 0.22980 0.57842 0.93077
 C476 C 0.24752 0.60414 0.94927
 C477 C 0.27768 0.62005 0.93550
 C478 C 0.28849 0.61190 0.90144
 C479 C 0.27075 0.58550 0.88270
 C480 C 0.24175 0.56808 0.89802
 C481 C 0.28336 0.57680 0.84956
 N482 N 0.31116 0.59433 0.83591
 N483 N 0.32720 0.61980 0.85322
 C484 C 0.31677 0.62918 0.88550
 H485 H 0.20777 0.56513 0.94285
 H486 H 0.23904 0.61000 0.97542
 H487 H 0.27126 0.55643 0.83433
 H488 H 0.33003 0.65048 0.89824
 C489 C 0.08954 0.23434 0.42001
 C490 C 0.06959 0.25182 0.39523
 C491 C 0.07304 0.28779 0.39078
 C492 C 0.09951 0.30591 0.40969
 C493 C 0.12008 0.28793 0.43456
 C494 C 0.11398 0.25223 0.44055
 C495 C 0.14600 0.30642 0.45312
 N496 N 0.15101 0.34066 0.44694
 N497 N 0.13186 0.35759 0.42351
 C498 C 0.10637 0.34147 0.40471
 H499 H 0.08455 0.20704 0.42449
 H500 H 0.04964 0.23748 0.38101
 H501 H 0.16258 0.29387 0.47219
 H502 H 0.09220 0.35665 0.38584
 C503 C 0.11480 0.71741 0.56878
 C504 C 0.09425 0.70146 0.59401
 C505 C 0.06577 0.71901 0.60947
 C506 C 0.05835 0.75383 0.59972
 C507 C 0.07950 0.77005 0.57412
 C508 C 0.10747 0.75136 0.55827
 C509 C 0.07104 0.80415 0.56410
 N510 N 0.04308 0.82073 0.57868
 N511 N 0.02286 0.80543 0.60233
 C512 C 0.02935 0.77259 0.61318
 H513 H 0.13581 0.70273 0.55640
 H514 H 0.10004 0.67481 0.60089
 H515 H 0.08627 0.81773 0.54472
 H516 H 0.01142 0.76163 0.63185
 C517 C 0.91756 0.77091 0.41659
 C518 C 0.93576 0.75404 0.39000
 C519 C 0.92772 0.71962 0.38118
 C520 C 0.89871 0.70298 0.39737
 C521 C 0.88007 0.72024 0.42420
 C522 C 0.89057 0.75393 0.43465
 C523 C 0.85164 0.70296 0.44007
 N524 N 0.84254 0.67060 0.42949
 N525 N 0.85991 0.65444 0.40412
 C526 C 0.88762 0.66950 0.38767
 H527 H 0.92584 0.79669 0.42438
 H528 H 0.95789 0.76713 0.37790
 H529 H 0.83632 0.71507 0.46045
 H530 H 0.90031 0.65540 0.36683
 C531 C 0.93285 0.23508 0.57355
 C532 C 0.95181 0.25141 0.59981
 C533 C 0.93594 0.27720 0.62017
 C534 C 0.89976 0.28526 0.61541
 C535 C 0.88052 0.26897 0.58842
 C536 C 0.89760 0.24423 0.56696
 C537 C 0.84503 0.27878 0.58328
 N538 N 0.82983 0.30266 0.60449
 N539 N 0.84776 0.31743 0.63030
 C540 C 0.88221 0.30953 0.63648
 H541 H 0.94626 0.21635 0.55716
 H542 H 0.97964 0.24527 0.60299
 H543 H 0.82924 0.26760 0.56275
 H544 H 0.89548 0.32180 0.65805
 C545 C 0.42865 0.11180 0.27670
 C546 C 0.40254 0.09223 0.29280
 C547 C 0.38462 0.06584 0.27494
 C548 C 0.39227 0.06027 0.23930
 C549 C 0.41951 0.07982 0.22313
 C550 C 0.43807 0.10540 0.24227
 C551 C 0.42832 0.07209 0.18857
 N552 N 0.41039 0.04711 0.17118
 N553 N 0.38456 0.02910 0.18612
 C554 C 0.37505 0.03467 0.21950
 H555 H 0.44285 0.13107 0.29172
 H556 H 0.39722 0.09687 0.31997
 H557 H 0.44932 0.08554 0.17520
 H558 H 0.35414 0.01897 0.22994
 C559 C 0.58302 0.08667 0.76799
 C560 C 0.60925 0.06778 0.75083
 C561 C 0.61534 0.07243 0.71531
 C562 C 0.59669 0.09907 0.69757
 C563 C 0.57034 0.11851 0.71524
 C564 C 0.56259 0.11119 0.75028
 C565 C 0.55205 0.14456 0.69707
 N566 N 0.55986 0.15073 0.66343
 N567 N 0.58468 0.13263 0.64680
 C568 C 0.60332 0.10711 0.66264
 H569 H 0.57728 0.08078 0.79480
 H570 H 0.62315 0.04765 0.76489
 H571 H 0.53192 0.16032 0.70941
 H572 H 0.62338 0.09382 0.64778
 C573 C 0.42071 0.88554 0.73215
 C574 C 0.39451 0.90425 0.71510
 C575 C 0.37803 0.93278 0.73097
 C576 C 0.38687 0.94135 0.76574
 C577 C 0.41376 0.92225 0.78299
 C578 C 0.43136 0.89487 0.76554
 C579 C 0.42341 0.93226 0.81670
 N580 N 0.40699 0.95950 0.83216
 N581 N 0.38188 0.97755 0.81605
 C582 C 0.37141 0.96959 0.78342
 H583 H 0.43431 0.86488 0.71841
 H584 H 0.38825 0.89743 0.68858
 H585 H 0.44385 0.91875 0.83091
 H586 H 0.35127 0.98564 0.77189
 C587 C 0.57455 0.88797 0.28106
 C588 C 0.59998 0.90853 0.29712
 C589 C 0.61608 0.93606 0.27950
 C590 C 0.60702 0.94220 0.24434
 C591 C 0.58088 0.92127 0.22810
 C592 C 0.56425 0.89439 0.24693
 C593 C 0.57116 0.92885 0.19382
 N594 N 0.58678 0.95551 0.17693
 N595 N 0.61118 0.97525 0.19211
 C596 C 0.62170 0.96966 0.22517
 H597 H 0.56169 0.86774 0.29585
 H598 H 0.60635 0.90361 0.32400
 H599 H 0.55124 0.91391 0.18031
 H600 H 0.64122 0.98695 0.23595
 C601 C 0.41338 0.22680 0.90990
 C602 C 0.38698 0.24345 0.92902
 C603 C 0.37979 0.27878 0.92403
 C604 C 0.39690 0.29666 0.89676
 C605 C 0.42362 0.27971 0.87728
 C606 C 0.43283 0.24498 0.88501
 C607 C 0.44077 0.29836 0.85095
 N608 N 0.43128 0.33166 0.84444
 N609 N 0.40587 0.34750 0.86248
 C610 C 0.38834 0.33118 0.88836
 H611 H 0.42015 0.20018 0.91599
 H612 H 0.37407 0.22933 0.94963
 H613 H 0.46132 0.28663 0.83526
 H614 H 0.36751 0.34512 0.90171
 C615 C 0.58041 0.73404 0.88799
 C616 C 0.60621 0.71658 0.90681
 C617 C 0.62363 0.73276 0.93450
 C618 C 0.61667 0.76831 0.94166
 C619 C 0.59011 0.78600 0.92254
 C620 C 0.57111 0.76818 0.89642
 C621 C 0.58221 0.82058 0.93133
 N622 N 0.60004 0.83642 0.95738
 N623 N 0.62491 0.81990 0.97539
 C624 C 0.63370 0.78642 0.96858
 H625 H 0.56587 0.72006 0.86822
 H626 H 0.61110 0.68944 0.90104
 H627 H 0.56208 0.83515 0.91774
 H628 H 0.65379 0.77450 0.98445
 C629 C 0.42320 0.76654 0.09459
 C630 C 0.39749 0.75016 0.07453
 C631 C 0.39091 0.71457 0.07820
 C632 C 0.40835 0.69588 0.10481
 C633 C 0.43460 0.71256 0.12507
 C634 C 0.44277 0.74782 0.11901
 C635 C 0.45213 0.69323 0.15069
 N636 N 0.44333 0.65956 0.15595
 N637 N 0.41823 0.64400 0.13735
 C638 C 0.40040 0.66098 0.11206
 H639 H 0.42927 0.79356 0.08971
 H640 H 0.38433 0.76489 0.05444
 H641 H 0.47241 0.70472 0.16683
 H642 H 0.37977 0.64720 0.09836
 C643 C 0.58277 0.22194 0.07966
 C644 C 0.60850 0.23890 0.06017
 C645 C 0.61780 0.27326 0.06776
 C646 C 0.60338 0.28970 0.09745
 C647 C 0.57727 0.27245 0.11721
 C648 C 0.56610 0.23886 0.10734
 C649 C 0.56257 0.28976 0.14591
 N650 N 0.57395 0.32203 0.15444
 N651 N 0.59889 0.33810 0.13617
 C652 C 0.61400 0.32308 0.10801
 H653 H 0.57429 0.19623 0.07187
 H654 H 0.61931 0.22601 0.03754
 H655 H 0.54243 0.27778 0.16178
 H656 H 0.63450 0.33715 0.09448
 C657 C 0.28062 0.11089 0.57043
 C658 C 0.29501 0.09004 0.59613
 C659 C 0.27422 0.06557 0.61359
 C660 C 0.23752 0.06305 0.60558
 C661 C 0.22304 0.08401 0.57889
 C662 C 0.24501 0.10778 0.56108
 C663 C 0.18720 0.07951 0.56994
 N664 N 0.16711 0.05610 0.58708
 N665 N 0.18051 0.03665 0.61227
 C666 C 0.21492 0.03917 0.62196
 H667 H 0.29775 0.12874 0.55675
 H668 H 0.32303 0.09233 0.60172
 H669 H 0.17493 0.09423 0.54941
 H670 H 0.22396 0.02237 0.64227
 C671 C 0.72581 0.10971 0.43616
 C672 C 0.70885 0.08952 0.41150
 C673 C 0.72785 0.06745 0.38907
 C674 C 0.76579 0.06688 0.39152
 C675 C 0.78285 0.08716 0.41761
 C676 C 0.76249 0.10823 0.44025
 C677 C 0.81982 0.08436 0.42149
 N678 N 0.83867 0.06309 0.40052
 N679 N 0.82303 0.04392 0.37632
 C680 C 0.78750 0.04474 0.37131
 H681 H 0.70989 0.12547 0.45350
 H682 H 0.68019 0.09104 0.41029
 H683 H 0.83399 0.09863 0.44117
 H684 H 0.77732 0.02734 0.35201
 C685 C 0.77681 0.92067 0.57994
 C686 C 0.76013 0.93901 0.60652
 C687 C 0.72712 0.92834 0.61910
 C688 C 0.71241 0.89680 0.60708
 C689 C 0.72913 0.87831 0.57991
 C690 C 0.76096 0.89112 0.56557
 C691 C 0.71296 0.84788 0.56751
 N692 N 0.68253 0.83644 0.58224
 N693 N 0.66730 0.85340 0.60841
 C694 C 0.68126 0.88315 0.62133
 H695 H 0.80125 0.93065 0.56919
 H696 H 0.77183 0.96301 0.61557
 H697 H 0.72438 0.83297 0.54651
 H698 H 0.66858 0.89551 0.64316
 C699 C 0.27849 0.88507 0.42825
 C700 C 0.29408 0.90609 0.40334
 C701 C 0.27533 0.93368 0.38837
 C702 C 0.23948 0.93947 0.39814
 C703 C 0.22362 0.91786 0.42349
 C704 C 0.24364 0.89096 0.43899
 C705 C 0.18852 0.92478 0.43361
 N706 N 0.17060 0.95165 0.41931
 N707 N 0.18551 0.97221 0.39587
 C708 C 0.21928 0.96721 0.38496
 H709 H 0.29419 0.86486 0.44026
 H710 H 0.32150 0.90140 0.39640
 H711 H 0.17518 0.90919 0.45281
 H712 H 0.22983 0.98526 0.36641
 C713 C 0.08946 0.42158 0.77343
 C714 C 0.07029 0.39545 0.75693
 C715 C 0.07680 0.38719 0.72217
 C716 C 0.10540 0.40332 0.70473
 C717 C 0.12480 0.42991 0.72150
 C718 C 0.11579 0.43985 0.75565
 C719 C 0.15246 0.44608 0.70332
 N720 N 0.16034 0.43575 0.67064
 N721 N 0.14245 0.41040 0.65501
 C722 C 0.11533 0.39381 0.67091
 H723 H 0.08234 0.42900 0.79958
 H724 H 0.04855 0.38336 0.77065
 H725 H 0.16811 0.46652 0.71493
 H726 H 0.10224 0.37298 0.65718
 C727 C 0.11570 0.57215 0.27716
 C728 C 0.09600 0.59872 0.29213
 C729 C 0.07208 0.61851 0.27254
 C730 C 0.07044 0.61298 0.23611
 C731 C 0.08973 0.58497 0.22110
 C732 C 0.11194 0.56410 0.24210
 C733 C 0.08514 0.57792 0.18564
 N734 N 0.06397 0.59853 0.16623
 N735 N 0.04680 0.62543 0.17995
 C736 C 0.04918 0.63328 0.21408
 H737 H 0.13263 0.55645 0.29349
 H738 H 0.09814 0.60267 0.31982
 H739 H 0.09817 0.55630 0.17309
 H740 H 0.03475 0.65559 0.22311
 C741 C 0.88164 0.42695 0.27990
 C742 C 0.90217 0.40202 0.29640
 C743 C 0.92920 0.38439 0.27868
 C744 C 0.93426 0.39076 0.24282
 C745 C 0.91350 0.41654 0.22614
 C746 C 0.88763 0.43520 0.24521
 C747 C 0.92046 0.42394 0.19117
 N748 N 0.94612 0.40628 0.17402
 N749 N 0.96553 0.38204 0.18954
 C750 C 0.96065 0.37381 0.22328
 H751 H 0.86213 0.44124 0.29480
 H752 H 0.89801 0.39759 0.32377
 H753 H 0.90586 0.44363 0.17731
 H754 H 0.97773 0.35430 0.23425
 C755 C 0.92485 0.57732 0.77422
 C756 C 0.94390 0.60282 0.75684
 C757 C 0.93096 0.61691 0.72598
 C758 C 0.89702 0.60724 0.71392
 C759 C 0.87778 0.58114 0.73139
 C760 C 0.89244 0.56547 0.76117
 C761 C 0.84483 0.57094 0.71785
 N762 N 0.83184 0.58670 0.68917
 N763 N 0.84964 0.61181 0.67318
 C764 C 0.88177 0.62261 0.68460
 H765 H 0.93640 0.56530 0.79688
 H766 H 0.96995 0.60990 0.76624
 H767 H 0.82921 0.55082 0.72992
 H768 H 0.89488 0.64351 0.67117
 C769 C 0.77064 0.58677 0.91189
 C770 C 0.75386 0.61331 0.93025
 C771 C 0.71681 0.61732 0.92902
 C772 C 0.69730 0.59727 0.90447
 C773 C 0.71463 0.57058 0.88553
 C774 C 0.75123 0.56440 0.89057
 C775 C 0.69475 0.55092 0.86174
 N776 N 0.66003 0.55818 0.85663
 N777 N 0.64395 0.58393 0.87347
 C778 C 0.66134 0.60385 0.89690
 H779 H 0.79874 0.58252 0.91573
 H780 H 0.76972 0.62860 0.94799
 H781 H 0.70666 0.53030 0.84663
 H782 H 0.64708 0.62534 0.90828
 C783 C 0.27838 0.43594 0.89768
 C784 C 0.29500 0.41036 0.91698
 C785 C 0.27570 0.38770 0.93835
 C786 C 0.23790 0.39140 0.93970
 C787 C 0.22121 0.41843 0.92041
 C788 C 0.24178 0.44083 0.89948
 C789 C 0.18445 0.42338 0.92397
 N790 N 0.16544 0.40257 0.94509
 N791 N 0.18076 0.37756 0.96338
 C792 C 0.21610 0.37147 0.96177
 H793 H 0.29451 0.45309 0.88209
 H794 H 0.32358 0.40837 0.91505
 H795 H 0.17059 0.44379 0.91044
 H796 H 0.22619 0.35165 0.97857
 C797 C 0.28547 0.56347 0.10997
 C798 C 0.30204 0.58866 0.09023
 C799 C 0.28265 0.61165 0.06925
 C800 C 0.24477 0.60900 0.06906
 C801 C 0.22812 0.58194 0.08826
 C802 C 0.24880 0.55911 0.10877
 C803 C 0.19127 0.57744 0.08498
 N804 N 0.17212 0.59907 0.06476
 N805 N 0.18735 0.62450 0.04705
 C806 C 0.22277 0.63005 0.04820
 H807 H 0.30169 0.54610 0.12529
 H808 H 0.33071 0.59000 0.09138
 H809 H 0.17742 0.55675 0.09799
 H810 H 0.23273 0.65049 0.03211
 C811 C 0.71842 0.42607 0.10827
 C812 C 0.70245 0.40039 0.08862
 C813 C 0.72241 0.37691 0.06847
 C814 C 0.76031 0.37815 0.07124
 C815 C 0.77637 0.40649 0.08923
 C816 C 0.75506 0.43060 0.10770
 C817 C 0.81335 0.41051 0.08723
 N818 N 0.83331 0.38642 0.07071
 N819 N 0.81876 0.35883 0.05570
 C820 C 0.78323 0.35383 0.05535
 H821 H 0.70173 0.44404 0.12251
 H822 H 0.67374 0.39962 0.08859
 H823 H 0.82668 0.43249 0.09869
 H824 H 0.77408 0.33052 0.04304
 C825 C 0.90962 0.76595 0.58583
 C826 C 0.92715 0.74792 0.61198
 C827 C 0.92643 0.71141 0.61323
 C828 C 0.90281 0.69339 0.59054
 C829 C 0.88374 0.71217 0.56502
 C830 C 0.88886 0.74838 0.56146
 C831 C 0.85984 0.69408 0.54362
 N832 N 0.85540 0.65946 0.54745
 N833 N 0.87298 0.64175 0.57143
 C834 C 0.89624 0.65740 0.59312
 H835 H 0.91361 0.79369 0.58363
 H836 H 0.94414 0.76262 0.62919
 H837 H 0.84410 0.70727 0.52434
 H838 H 0.90833 0.64145 0.61265
 C839 C 0.90970 0.23473 0.41692
 C840 C 0.92820 0.25218 0.39104
 C841 C 0.92746 0.28866 0.38905
 C842 C 0.90293 0.30710 0.41042
 C843 C 0.88386 0.28912 0.43643
 C844 C 0.88872 0.25296 0.44069
 C845 C 0.86015 0.30794 0.45745
 N846 N 0.85517 0.34232 0.45208
 N847 N 0.87207 0.35907 0.42698
 C848 C 0.89545 0.34270 0.40585
 H849 H 0.91344 0.20699 0.41967
 H850 H 0.94581 0.23714 0.37467
 H851 H 0.84496 0.29548 0.47761
 H852 H 0.90681 0.35754 0.38498
 C853 C 0.11568 0.28122 0.57307
 C854 C 0.09577 0.29775 0.59835
 C855 C 0.07233 0.27930 0.61976
 C856 C 0.07032 0.24233 0.61591
 C857 C 0.08971 0.22583 0.58871
 C858 C 0.11217 0.24566 0.56704
 C859 C 0.08460 0.19012 0.58285
 N860 N 0.06245 0.17182 0.60336
 N861 N 0.04455 0.18690 0.62895
 C862 C 0.04741 0.22130 0.63575
 H863 H 0.13261 0.29676 0.55661
 H864 H 0.09838 0.32567 0.60075
 H865 H 0.09778 0.17652 0.56203
 H866 H 0.03115 0.23126 0.65632
 C867 C 0.11270 0.71838 0.42493
 C868 C 0.09139 0.70271 0.40023
 C869 C 0.06725 0.72199 0.38027
 C870 C 0.06564 0.75886 0.38528
 C871 C 0.08674 0.77450 0.41170
 C872 C 0.11006 0.75387 0.43178
 C873 C 0.08242 0.81015 0.41856
 N874 N 0.05918 0.82916 0.39986
 N875 N 0.03944 0.81484 0.37520
 C876 C 0.04153 0.78056 0.36750
 H877 H 0.13008 0.70221 0.44035
 H878 H 0.09364 0.67483 0.39701
 H879 H 0.09702 0.82316 0.43879
 H880 H 0.02363 0.77121 0.34802
 C881 C 0.58290 0.91762 0.77164
 C882 C 0.60828 0.93592 0.75295
 C883 C 0.61147 0.93174 0.71697
 C884 C 0.59022 0.90638 0.69999
 C885 C 0.56509 0.88715 0.71934
 C886 C 0.56058 0.89386 0.75511
 C887 C 0.54477 0.86181 0.70216
 N888 N 0.54916 0.85639 0.66779
 N889 N 0.57248 0.87454 0.64950
 C890 C 0.59307 0.89925 0.66432
 H891 H 0.57956 0.92317 0.79895
 H892 H 0.62410 0.95508 0.76646
 H893 H 0.52569 0.84604 0.71580
 H894 H 0.61150 0.91264 0.64790
 C895 C 0.42761 0.88434 0.28272
 C896 C 0.40070 0.90368 0.29800
 C897 C 0.37932 0.92609 0.27840
 C898 C 0.38339 0.92626 0.24171
 C899 C 0.41198 0.90758 0.22639
 C900 C 0.43454 0.88703 0.24733
 C901 C 0.41786 0.91109 0.19062
 N902 N 0.39545 0.93036 0.17120
 N903 N 0.36783 0.94667 0.18516
 C904 C 0.36109 0.94539 0.21958
 H905 H 0.44461 0.86870 0.29904
 H906 H 0.39782 0.90251 0.32587
 H907 H 0.43996 0.89867 0.17783
 H908 H 0.33802 0.95897 0.22870
 C909 C 0.58809 0.08763 0.23041
 C910 C 0.61470 0.06953 0.24774
 C911 C 0.62124 0.07566 0.28294
 C912 C 0.60327 0.10324 0.29987
 C913 C 0.57629 0.12166 0.28222
 C914 C 0.56776 0.11270 0.24770
 C915 C 0.55826 0.14827 0.29996
 N916 N 0.56721 0.15611 0.33304
 N917 N 0.59291 0.13915 0.34950
 C918 C 0.61126 0.11305 0.33409
 H919 H 0.58188 0.08061 0.20394
 H920 H 0.62836 0.04883 0.23424
 H921 H 0.53745 0.16313 0.28768
 H922 H 0.63231 0.10069 0.34849
 C923 C 0.41339 0.08557 0.77045
 C924 C 0.38671 0.06647 0.75433
 C925 C 0.37916 0.07123 0.71916
 C926 C 0.39638 0.09819 0.70085
 C927 C 0.42336 0.11769 0.71728
 C928 C 0.43276 0.11026 0.75192
 C929 C 0.44046 0.14384 0.69829
 N930 N 0.43072 0.15012 0.66513
 N931 N 0.40509 0.13206 0.64977
 C932 C 0.38756 0.10638 0.66646
 H933 H 0.42031 0.07972 0.79700
 H934 H 0.37366 0.04617 0.76880
 H935 H 0.46114 0.15958 0.70963
 H936 H 0.36653 0.09307 0.65291
 C937 C 0.57924 0.77122 0.08230
 C938 C 0.60514 0.75591 0.06159
 C939 C 0.62442 0.72728 0.07344
 C940 C 0.61949 0.71557 0.10772
 C941 C 0.59290 0.73087 0.12870
 C942 C 0.57195 0.75818 0.11531
 C943 C 0.58743 0.71749 0.16204
 N944 N 0.60798 0.69106 0.17367
 N945 N 0.63340 0.67709 0.15415
 C946 C 0.63984 0.68845 0.12156
 H947 H 0.56317 0.79193 0.07166
 H948 H 0.60832 0.76488 0.03527
 H949 H 0.56723 0.72796 0.17898
 H950 H 0.66109 0.67662 0.10690
 C951 C 0.42671 0.26927 0.11184
 C952 C 0.40142 0.28624 0.09189
 C953 C 0.38508 0.26952 0.06387
 C954 C 0.39340 0.23418 0.05689
 C955 C 0.41932 0.21697 0.07729
 C956 C 0.43660 0.23508 0.10435
 C957 C 0.42826 0.18251 0.06898
 N958 N 0.41221 0.16638 0.04203
 N959 N 0.38811 0.18248 0.02270
 C960 C 0.37831 0.21578 0.02904
 H961 H 0.44009 0.28355 0.13219
 H962 H 0.39558 0.31321 0.09754
 H963 H 0.44786 0.16827 0.08361
 H964 H 0.35903 0.22734 0.01204
 C965 C 0.58132 0.22650 0.91114
 C966 C 0.60752 0.24302 0.93055
 C967 C 0.61552 0.27809 0.92501
 C968 C 0.59907 0.29587 0.89724
 C969 C 0.57244 0.27906 0.87757
 C970 C 0.56272 0.24454 0.88551
 C971 C 0.55596 0.29760 0.85072
 N972 N 0.56603 0.33062 0.84385
 N973 N 0.59141 0.34629 0.86200
 C974 C 0.60830 0.33007 0.88837
 H975 H 0.57405 0.20009 0.91750
 H976 H 0.61985 0.22901 0.95163
 H977 H 0.53549 0.28599 0.83491
 H978 H 0.62915 0.34386 0.90173
 C979 C 0.42083 0.77552 0.92283
 C980 C 0.39592 0.75639 0.94139
 C981 C 0.39188 0.72060 0.93569
 C982 C 0.41141 0.70448 0.90853
 C983 C 0.43624 0.72418 0.88934
 C984 C 0.44185 0.75956 0.89755
 C985 C 0.45527 0.70767 0.86262
 N986 N 0.44967 0.67365 0.85565
 N987 N 0.42640 0.65507 0.87358
 C988 C 0.40715 0.66923 0.89968
 H989 H 0.42499 0.80256 0.92943
 H990 H 0.38134 0.76923 0.96192
 H991 H 0.47427 0.72159 0.84700
 H992 H 0.38858 0.65271 0.91283
 C993 C 0.77578 0.91807 0.42043
 C994 C 0.75841 0.93689 0.39472
 C995 C 0.72272 0.93042 0.38695
 C996 C 0.70520 0.90243 0.40336
 C997 C 0.72288 0.88333 0.42946
 C998 C 0.75803 0.89208 0.43874
 C999 C 0.70456 0.85621 0.44584
 N1000 N 0.67092 0.84857 0.43619
 N1001 N 0.65445 0.86620 0.41134
 C1002 C 0.67041 0.89279 0.39457
 H1003 H 0.80266 0.92503 0.42736
 H1004 H 0.77221 0.95821 0.38249
 H1005 H 0.71678 0.84083 0.46595
 H1006 H 0.65595 0.90573 0.37419
 C1007 C 0.27738 0.88232 0.57476
 C1008 C 0.29208 0.90166 0.60153
 C1009 C 0.27169 0.92553 0.62059
 C1010 C 0.23453 0.92745 0.61408
 C1011 C 0.21988 0.90848 0.58585
 C1012 C 0.24179 0.88631 0.56578
 C1013 C 0.18385 0.91323 0.57780
 N1014 N 0.16347 0.93430 0.59765
 N1015 N 0.17675 0.95115 0.62477
 C1016 C 0.21141 0.94853 0.63361
 H1017 H 0.29442 0.86542 0.55966
 H1018 H 0.32028 0.89922 0.60621
 H1019 H 0.17161 0.90038 0.55600
 H1020 H 0.21987 0.96263 0.65613
 C1021 C 0.22935 0.09023 0.41658
 C1022 C 0.24542 0.07023 0.39085
 C1023 C 0.28134 0.07471 0.38278
 C1024 C 0.30033 0.10232 0.39845
 C1025 C 0.28398 0.12258 0.42462
 C1026 C 0.24868 0.11547 0.43457
 C1027 C 0.30376 0.14909 0.44049
 N1028 N 0.33751 0.15519 0.43018
 N1029 N 0.35273 0.13656 0.40518
 C1030 C 0.33533 0.11040 0.38894
 H1031 H 0.20232 0.08452 0.42403
 H1032 H 0.23038 0.04945 0.37899
 H1033 H 0.29254 0.16524 0.46066
 H1034 H 0.34880 0.09663 0.36838
 C1035 C 0.77651 0.07101 0.57375
 C1036 C 0.75930 0.05182 0.59915
 C1037 C 0.73175 0.06649 0.61852
 C1038 C 0.72298 0.10184 0.61388
 C1039 C 0.74010 0.12131 0.58771
 C1040 C 0.76652 0.10536 0.56699
 C1041 C 0.72925 0.15582 0.58248
 N1042 N 0.70378 0.16995 0.60293
 N1043 N 0.68834 0.15185 0.62806
 C1044 C 0.69707 0.11828 0.63421
 H1045 H 0.79646 0.05841 0.55792
 H1046 H 0.76611 0.02470 0.60227
 H1047 H 0.74084 0.17172 0.56247
 H1048 H 0.68416 0.10482 0.65520
 C1049 C 0.88230 0.57183 0.27673
 C1050 C 0.90268 0.59782 0.29182
 C1051 C 0.92852 0.61559 0.27276
 C1052 C 0.93233 0.60805 0.23686
 C1053 C 0.91203 0.58089 0.22172
 C1054 C 0.88728 0.56238 0.24211
 C1055 C 0.91826 0.57212 0.18688
 N1056 N 0.94239 0.59005 0.16820
 N1057 N 0.96099 0.61585 0.18211
 C1058 C 0.95694 0.62532 0.21569
 H1059 H 0.86370 0.55769 0.29270
 H1060 H 0.89926 0.60312 0.31918
 H1061 H 0.90427 0.55117 0.17426
 H1062 H 0.97300 0.64631 0.22511
 C1063 C 0.91649 0.41864 0.77481
 C1064 C 0.93599 0.39344 0.75711
 C1065 C 0.93111 0.38805 0.72151
 C1066 C 0.90365 0.40629 0.70415
 C1067 C 0.88358 0.43156 0.72233
 C1068 C 0.89115 0.43865 0.75750
 C1069 C 0.85676 0.44953 0.70452
 N1070 N 0.85043 0.44238 0.67074
 N1071 N 0.86911 0.41855 0.65363
 C1072 C 0.89542 0.40031 0.66910
 H1073 H 0.92260 0.42393 0.80169
 H1074 H 0.95675 0.37978 0.77085
 H1075 H 0.84054 0.46892 0.71724
 H1076 H 0.90924 0.38110 0.65385
 C1077 C 0.08732 0.58511 0.77213
 C1078 C 0.06761 0.61019 0.75460
 C1079 C 0.07455 0.61758 0.71976
 C1080 C 0.10408 0.60181 0.70335
 C1081 C 0.12412 0.57641 0.72119
 C1082 C 0.11469 0.56711 0.75536
 C1083 C 0.15273 0.56059 0.70393
 N1084 N 0.16082 0.57006 0.67112
 N1085 N 0.14224 0.59420 0.65446
 C1086 C 0.11420 0.61041 0.66942
 H1087 H 0.07976 0.57814 0.79824
 H1088 H 0.04510 0.62194 0.76753
 H1089 H 0.16892 0.54109 0.71637
 H1090 H 0.10045 0.63020 0.65486
 C1091 C 0.07531 0.42864 0.23351
 C1092 C 0.05567 0.40306 0.25014
 C1093 C 0.06992 0.38478 0.27812
 C1094 C 0.10540 0.39086 0.28810
 C1095 C 0.12532 0.41713 0.27147
 C1096 C 0.10971 0.43664 0.24447
 C1097 C 0.15995 0.42358 0.28314
 N1098 N 0.17380 0.40424 0.30913
 N1099 N 0.15532 0.37906 0.32423
 C1100 C 0.12160 0.37172 0.31460
 H1101 H 0.06296 0.44352 0.21304
 H1102 H 0.02842 0.39904 0.24249
 H1103 H 0.17616 0.44365 0.27176
 H1104 H 0.10789 0.35067 0.32723
   
