data_POSCAR
  _audit_creation_date              2014-09-24
  _audit_creation_method            'ToBaCCo'
  _symmetry_space_group_name_H-M    'P1'
  _symmetry_Int_Tables_number       1
  _symmetry_cell_setting            triclinic
  loop_
  _symmetry_equiv_pos_as_xyz
 x,y,z
_cell_length_a 51.8383
_cell_length_b 51.8309
_cell_length_c 14.9065
_cell_angle_alpha 89.999700
_cell_angle_beta 89.824700
_cell_angle_gamma 119.981900
loop_
  _atom_site_label
  _atom_site_type_symbol
  _atom_site_fract_x
  _atom_site_fract_y
  _atom_site_fract_z
C1 C 0.25226 0.50134 0.54260
 C2 C 0.25076 0.50134 0.45126
 C3 C 0.22409 0.49826 0.40502
 C4 C 0.27475 0.50219 0.39438
 C5 C 0.27641 0.49922 0.58867
 C6 C 0.22869 0.50123 0.59980
 C7 C 0.19594 0.47358 0.42183
 C8 C 0.17058 0.47185 0.38385
 C9 C 0.17257 0.49503 0.32887
 C10 C 0.20140 0.51861 0.30686
 C11 C 0.22676 0.52026 0.34519
 C12 C 0.26814 0.47865 0.33548
 C13 C 0.29095 0.47713 0.29004
 C14 C 0.32092 0.49964 0.30037
 C15 C 0.32729 0.52346 0.35880
 C16 C 0.30444 0.52494 0.40421
 C17 C 0.29567 0.52186 0.64680
 C18 C 0.31973 0.52095 0.68558
 C19 C 0.32499 0.49731 0.66652
 C20 C 0.30447 0.47387 0.61190
 C21 C 0.28054 0.47486 0.57320
 C22 C 0.22041 0.52301 0.58933
 C23 C 0.19578 0.52057 0.63542
 C24 C 0.17938 0.49679 0.69530
 C25 C 0.18821 0.47531 0.70646
 C26 C 0.21282 0.47776 0.66021
 H27 H 0.19358 0.45580 0.46541
 H28 H 0.14925 0.45233 0.39819
 H29 H 0.20477 0.53583 0.25958
 H30 H 0.24849 0.53903 0.32941
 H31 H 0.24542 0.46061 0.32820
 H32 H 0.28499 0.45759 0.24988
 H33 H 0.31000 0.54326 0.44976
 H34 H 0.29239 0.54054 0.66077
 H35 H 0.33373 0.53871 0.73075
 H36 H 0.30713 0.45479 0.59856
 H37 H 0.26538 0.45677 0.53024
 H38 H 0.23235 0.54128 0.54279
 H39 H 0.18901 0.53682 0.62164
 H40 H 0.17549 0.45582 0.74787
 H41 H 0.21857 0.46046 0.66815
 H42 H 0.35004 0.54053 0.37193
 C43 C 0.49984 -0.25013 0.54831
 C44 C 0.49917 -0.24987 0.45690
 C45 C 0.50218 -0.27231 0.40365
 C46 C 0.49731 -0.22604 0.40714
 C47 C 0.50194 -0.22488 0.60074
 C48 C 0.50042 -0.27457 0.59868
 C49 C 0.52757 -0.27509 0.41226
 C50 C 0.52914 -0.29805 0.36867
 C51 C 0.50524 -0.31895 0.31622
 C52 C 0.48060 -0.31480 0.30339
 C53 C 0.47915 -0.29166 0.34683
 C54 C 0.51986 -0.20790 0.34650
 C55 C 0.52038 -0.18298 0.30862
 C56 C 0.49861 -0.17540 0.33160
 C57 C 0.47464 -0.19523 0.38657
 C58 C 0.47410 -0.22019 0.42409
 C59 C 0.47865 -0.22911 0.65787
 C60 C 0.47896 -0.20468 0.69889
 C61 C 0.50264 -0.17552 0.68315
 C62 C 0.52690 -0.17187 0.63072
 C63 C 0.52646 -0.19622 0.58944
 C64 C 0.47828 -0.30435 0.58598
 C65 C 0.48045 -0.32737 0.62761
 C66 C 0.50439 -0.32117 0.68554
 C67 C 0.52673 -0.29105 0.69655
 C68 C 0.52444 -0.26811 0.65506
 H69 H 0.54588 -0.25985 0.45437
 H70 H 0.54885 -0.29996 0.37764
 H71 H 0.46228 -0.32917 0.26050
 H72 H 0.45963 -0.28939 0.33829
 H73 H 0.53772 -0.21234 0.33127
 H74 H 0.53839 -0.16905 0.26329
 H75 H 0.45592 -0.23458 0.46836
 H76 H 0.45979 -0.25123 0.66837
 H77 H 0.46059 -0.20899 0.74255
 H78 H 0.54604 -0.14995 0.62013
 H79 H 0.54492 -0.19267 0.54684
 H80 H 0.45969 -0.30982 0.54185
 H81 H 0.46363 -0.35004 0.61229
 H82 H 0.54659 -0.28496 0.73512
 H83 H 0.54213 -0.24530 0.66400
 H84 H 0.45623 -0.19173 0.40145
 C85 C 1.24853 0.74897 0.54680
 C86 C 1.24822 0.74929 0.45522
 C87 C 1.27288 0.77355 0.40320
 C88 C 1.22221 0.72650 0.40392
 C89 C 1.22585 0.72277 0.59786
 C90 C 1.27003 0.77556 0.59860
 C91 C 1.26675 0.79032 0.34234
 C92 C 1.28993 0.81504 0.29964
 C93 C 1.31997 0.82305 0.31400
 C94 C 1.32582 0.80593 0.37569
 C95 C 1.30256 0.78126 0.41852
 C96 C 1.19340 0.72088 0.42396
 C97 C 1.16879 0.69835 0.37963
 C98 C 1.17237 0.68162 0.31132
 C99 C 1.20144 0.68753 0.29103
 C100 C 1.22609 0.70998 0.33618
 C101 C 1.22067 0.69411 0.57828
 C102 C 1.19611 0.66904 0.61488
 C103 C 1.17588 0.67207 0.67150
 C104 C 1.18320 0.70113 0.69800
 C105 C 1.20774 0.72615 0.66110
 C106 C 1.28829 0.77328 0.66337
 C107 C 1.30978 0.79869 0.70807
 C108 C 1.31291 0.82697 0.69105
 C109 C 1.29440 0.82885 0.62512
 C110 C 1.27286 0.80344 0.58127
 H111 H 1.24402 0.78511 0.33103
 H112 H 1.28411 0.82839 0.25768
 H113 H 1.34836 0.81201 0.39358
 H114 H 1.30774 0.76868 0.46595
 H115 H 1.18991 0.73358 0.47543
 H116 H 1.14683 0.69376 0.39995
 H117 H 1.24815 0.71386 0.32023
 H118 H 1.23512 0.69113 0.53197
 H119 H 1.19331 0.64760 0.59739
 H120 H 1.16916 0.70453 0.74486
 H121 H 1.21170 0.74812 0.67849
 H122 H 1.28663 0.75197 0.67698
 H123 H 1.32449 0.79616 0.75396
 H124 H 1.29692 0.85002 0.60487
 H125 H 1.25886 0.80567 0.53170
 H126 H 1.20531 0.67437 0.24244
 C127 C 0.75433 0.50434 0.54577
 C128 C 0.75444 0.50613 0.45441
 C129 C 0.78037 0.51019 0.40066
 C130 C 0.72906 0.50519 0.40562
 C131 C 0.73151 0.50663 0.59987
 C132 C 0.77770 0.50140 0.59425
 C133 C 0.80907 0.53360 0.41989
 C134 C 0.83378 0.53579 0.37533
 C135 C 0.83035 0.51532 0.30777
 C136 C 0.80137 0.49206 0.28807
 C137 C 0.77663 0.48979 0.33327
 C138 C 0.73376 0.52858 0.34830
 C139 C 0.70955 0.52951 0.31093
 C140 C 0.68010 0.50732 0.33126
 C141 C 0.67573 0.48263 0.38272
 C142 C 0.69994 0.48168 0.41976
 C143 C 0.71213 0.48318 0.65586
 C144 C 0.68833 0.48380 0.69826
 C145 C 0.68333 0.50798 0.68489
 C146 C 0.70453 0.53246 0.63397
 C147 C 0.72814 0.53169 0.59161
 C148 C 0.78366 0.47860 0.57221
 C149 C 0.80835 0.47831 0.60818
 C150 C 0.82804 0.50120 0.66641
 C151 C 0.82009 0.52235 0.69459
 C152 C 0.79536 0.52256 0.65846
 H153 H 0.81241 0.54966 0.47157
 H154 H 0.85566 0.55316 0.39566
 H155 H 0.79768 0.47492 0.24014
 H156 H 0.75465 0.47138 0.31827
 H157 H 0.75612 0.54664 0.33506
 H158 H 0.71387 0.54803 0.26766
 H159 H 0.69595 0.46288 0.46126
 H160 H 0.71486 0.46393 0.66440
 H161 H 0.67421 0.46519 0.74093
 H162 H 0.70240 0.55206 0.62505
 H163 H 0.74340 0.55037 0.55033
 H164 H 0.76956 0.46141 0.52508
 H165 H 0.81161 0.46004 0.58936
 H166 H 0.83365 0.53942 0.74274
 H167 H 0.79078 0.54003 0.67772
 H168 H 0.65374 0.46395 0.39496
 C169 C 0.50253 0.25139 0.54961
 C170 C 0.50383 0.25330 0.45828
 C171 C 0.50166 0.27733 0.41136
 C172 C 0.50425 0.22990 0.40183
 C173 C 0.49748 0.22402 0.59685
 C174 C 0.50336 0.27562 0.60507
 C175 C 0.47631 0.28009 0.42258
 C176 C 0.47478 0.30356 0.38239
 C177 C 0.49875 0.32510 0.33107
 C178 C 0.52349 0.32122 0.31613
 C179 C 0.52489 0.29754 0.35610
 C180 C 0.48196 0.21501 0.33762
 C181 C 0.47976 0.19052 0.29177
 C182 C 0.50039 0.18082 0.30710
 C183 C 0.52307 0.19627 0.37063
 C184 C 0.52522 0.22078 0.41651
 C185 C 0.51755 0.22557 0.66212
 C186 C 0.51363 0.19963 0.70347
 C187 C 0.48891 0.17150 0.68262
 C188 C 0.46918 0.17032 0.61545
 C189 C 0.47303 0.19625 0.57488
 C190 C 0.52683 0.30503 0.59642
 C191 C 0.52563 0.32827 0.64010
 C192 C 0.50130 0.32260 0.69609
 C193 C 0.47786 0.29281 0.70415
 C194 C 0.47917 0.26964 0.66054
 H195 H 0.45779 0.26414 0.46313
 H196 H 0.45485 0.30503 0.39211
 H197 H 0.54172 0.33606 0.27316
 H198 H 0.54433 0.29525 0.34524
 H199 H 0.46525 0.22137 0.32636
 H200 H 0.46101 0.17853 0.24747
 H201 H 0.54259 0.23196 0.46601
 H202 H 0.53678 0.24680 0.67904
 H203 H 0.53049 0.20173 0.75023
 H204 H 0.45095 0.14933 0.59235
 H205 H 0.45724 0.19459 0.52459
 H206 H 0.54557 0.31012 0.55299
 H207 H 0.54338 0.35075 0.62704
 H208 H 0.45780 0.28726 0.74141
 H209 H 0.46052 0.24716 0.66643
 H210 H 0.53860 0.18882 0.38725
 C211 C 0.74958 0.24641 0.55157
 C212 C 0.75040 0.24612 0.46008
 C213 C 0.72802 0.22012 0.40816
 C214 C 0.77447 0.27140 0.40941
 C215 C 0.77529 0.26915 0.60327
 C216 C 0.72379 0.22312 0.60250
 C217 C 0.72282 0.19143 0.42750
 C218 C 0.69985 0.16663 0.38516
 C219 C 0.68223 0.16994 0.31945
 C220 C 0.68778 0.19890 0.29981
 C221 C 0.71070 0.22374 0.34290
 C222 C 0.79300 0.26667 0.35136
 C223 C 0.81800 0.29089 0.31285
 C224 C 0.82522 0.32035 0.33258
 C225 C 0.80502 0.32471 0.38485
 C226 C 0.78004 0.30051 0.42314
 C227 C 0.77211 0.28904 0.65937
 C228 C 0.79709 0.31261 0.69991
 C229 C 0.82591 0.31690 0.68428
 C230 C 0.82827 0.29511 0.63379
 C231 C 0.80337 0.27178 0.59308
 C232 C 0.69479 0.21693 0.58311
 C233 C 0.67025 0.19209 0.62063
 C234 C 0.67419 0.17271 0.67794
 C235 C 0.70340 0.18078 0.70375
 C236 C 0.72796 0.20561 0.66596
 H237 H 0.73600 0.18817 0.47767
 H238 H 0.69550 0.14481 0.40582
 H239 H 0.67390 0.20247 0.25328
 H240 H 0.71416 0.24570 0.32793
 H241 H 0.78876 0.24431 0.33864
 H242 H 0.83220 0.28659 0.26939
 H243 H 0.76536 0.30451 0.46540
 H244 H 0.75040 0.28682 0.66963
 H245 H 0.79339 0.32713 0.74328
 H246 H 0.84963 0.29646 0.62409
 H247 H 0.80606 0.25606 0.55190
 H248 H 0.69118 0.23085 0.53652
 H249 H 0.64839 0.18826 0.60362
 H250 H 0.70728 0.16722 0.75102
 H251 H 0.75019 0.21035 0.68311
 H252 H 0.80824 0.34666 0.39694
 N253 N 0.96943 0.52879 0.08288
 N254 N 0.94688 0.53370 0.09078
 N255 N 1.03171 0.54224 0.14861
 N256 N 1.05438 0.55721 0.20325
 N257 N 1.03221 0.55940 0.08307
 N258 N 1.05535 0.58650 0.09109
 N259 N 0.96912 0.51172 0.14840
 N260 N 0.94643 0.50463 0.20289
 C261 C 0.93277 0.51854 0.16610
 C262 C 1.06892 0.58480 0.16658
 N263 N 1.03059 0.46741 0.09921
 N264 N 1.05365 0.46355 0.11075
 N265 N 0.96818 0.45580 0.15796
 N266 N 0.94512 0.44251 0.21267
 N267 N 0.96792 0.43681 0.09914
 N268 N 0.94467 0.41004 0.11240
 N269 N 1.03087 0.48636 0.15815
 N270 N 1.05417 0.49592 0.21142
 Mn271 Mn 0.99997 0.49903 0.15441
 C272 C 1.06814 0.48142 0.18120
 C273 C 0.93067 0.41396 0.18353
 N274 N 1.03235 0.55666 -0.10971
 N275 N 1.05599 0.58325 -0.12128
 N276 N 0.96947 0.50713 -0.16877
 N277 N 0.94635 0.49758 -0.22263
 N278 N 0.96959 0.52602 -0.10991
 N279 N 0.94649 0.52984 -0.12216
 N280 N 1.03215 0.53771 -0.16849
 N281 N 1.05568 0.55085 -0.22155
 Mn282 Mn 1.00089 0.54306 -0.01350
 C283 C 1.07030 0.57927 -0.19141
 C284 C 0.93225 0.51200 -0.19295
 N285 N 0.96821 0.43412 -0.09382
 N286 N 0.94467 0.40723 -0.10057
 N287 N 1.03125 0.48194 -0.15884
 N288 N 1.05524 0.49110 -0.20927
 N289 N 1.03104 0.46488 -0.09341
 N290 N 1.05497 0.46207 -0.09744
 N291 N 0.96857 0.45136 -0.15890
 N292 N 0.94528 0.43672 -0.21157
 Mn293 Mn 0.99942 0.45045 0.00280
 Mn294 Mn 1.00036 0.49451 -0.16485
 Cl295 Cl 1.00015 0.49676 -0.00524
 C296 C 0.93065 0.40919 -0.17459
 C297 C 1.06975 0.47842 -0.17045
 N298 N 0.47130 0.44049 0.09569
 N299 N 0.46798 0.41370 0.10591
 N300 N 0.45720 0.48990 0.15215
 N301 N 0.44238 0.49918 0.20227
 N302 N 0.43997 0.47186 0.08920
 N303 N 0.41303 0.46845 0.09453
 N304 N 0.48857 0.45854 0.15851
 N305 N 0.49755 0.44459 0.21306
 C306 C 0.48439 0.41660 0.17967
 C307 C 0.41483 0.48554 0.16555
 N308 N 0.53163 0.56307 0.09309
 N309 N 0.53579 0.59023 0.10163
 N310 N 0.54399 0.51375 0.16034
 N311 N 0.55757 0.50472 0.21613
 N312 N 0.56258 0.53138 0.09865
 N313 N 0.58936 0.53490 0.11098
 N314 N 0.51282 0.54525 0.15399
 N315 N 0.50358 0.55973 0.20545
 Mn316 Mn 0.50062 0.50188 0.15739
 C317 C 0.51820 0.58779 0.17219
 C318 C 0.58588 0.51815 0.18464
 N319 N 0.44178 0.47131 -0.10322
 N320 N 0.41484 0.46739 -0.11457
 N321 N 0.49141 0.45777 -0.15936
 N322 N 0.50102 0.44325 -0.20960
 N323 N 0.47315 0.44015 -0.09701
 N324 N 0.46987 0.41330 -0.10298
 N325 N 0.46015 0.48938 -0.16455
 N326 N 0.44619 0.49837 -0.21914
 Mn327 Mn 0.45625 0.45564 -0.00385
 C328 C 0.41788 0.48428 -0.18736
 C329 C 0.48730 0.41549 -0.17363
 N330 N 0.56437 0.53125 -0.09455
 N331 N 0.59151 0.53530 -0.10224
 N332 N 0.51585 0.54505 -0.16268
 N333 N 0.50671 0.55938 -0.21544
 N334 N 0.53328 0.56282 -0.09950
 N335 N 0.53639 0.58956 -0.10734
 N336 N 0.54698 0.51330 -0.15742
 N337 N 0.56178 0.50449 -0.20929
 Mn338 Mn 0.54831 0.54743 -0.00062
 Mn339 Mn 0.50360 0.50139 -0.16234
 Cl340 Cl 0.50220 0.50159 -0.00243
 C341 C 0.58957 0.51851 -0.17426
 C342 C 0.51984 0.58720 -0.18018
 N343 N 0.43458 -0.03079 0.10340
 N344 N 0.40811 -0.05483 0.11034
 N345 N 0.48449 0.03228 0.16078
 N346 N 0.49477 0.05660 0.21002
 N347 N 0.46652 0.03198 0.09843
 N348 N 0.46418 0.05615 0.10330
 N349 N 0.45247 -0.03049 0.16600
 N350 N 0.43853 -0.05434 0.21761
 C351 C 0.41082 -0.06924 0.18213
 C352 C 0.48183 0.07123 0.17346
 N353 N 0.55707 0.03084 0.09725
 N354 N 0.58447 0.05330 0.10609
 N355 N 0.50763 -0.03107 0.16514
 N356 N 0.49826 -0.05406 0.21978
 N357 N 0.52518 -0.03191 0.10288
 N358 N 0.52826 -0.05553 0.11376
 N359 N 0.53968 0.03157 0.16023
 N360 N 0.55487 0.05451 0.21399
 Mn361 Mn 0.49607 0.00060 0.16425
 C362 C 0.58279 0.06785 0.17924
 C363 C 0.51135 -0.06909 0.18713
 N364 N 0.46541 0.03017 -0.09404
 N365 N 0.46190 0.05349 -0.10442
 N366 N 0.45104 -0.03322 -0.15160
 N367 N 0.43617 -0.05648 -0.20437
 N368 N 0.43355 -0.03253 -0.08898
 N369 N 0.40629 -0.05538 -0.09724
 N370 N 0.48284 0.02947 -0.15687
 N371 N 0.49166 0.05236 -0.21191
 Mn372 Mn 0.44969 -0.00029 0.00482
 C373 C 0.47831 0.06708 -0.17835
 C374 C 0.40826 -0.07008 -0.16968
 N375 N 0.52443 -0.03341 -0.09032
 N376 N 0.52861 -0.05638 -0.09922
 N377 N 0.53794 0.02877 -0.15757
 N378 N 0.55182 0.05172 -0.21223
 N379 N 0.55616 0.02928 -0.09572
 N380 N 0.58301 0.05265 -0.10679
 N381 N 0.50619 -0.03392 -0.15212
 N382 N 0.49737 -0.05734 -0.20462
 Mn383 Mn 0.54105 -0.00130 0.00352
 Mn384 Mn 0.49450 -0.00225 -0.15570
 Cl385 Cl 0.49535 -0.00081 0.00420
 C386 C 0.51162 -0.07109 -0.17086
 C387 C 0.57994 0.06636 -0.18001
 C388 C 1.14567 0.49264 0.29080
 C389 C 1.14802 0.52030 0.25592
 C390 C 1.12101 0.51610 0.21651
 C391 C 1.09662 0.48534 0.22055
 C392 C 1.10796 0.46776 0.17689
 C393 C 1.13490 0.47180 0.21552
 C394 C 1.12063 0.48148 0.35434
 C395 C 1.09358 0.47718 0.31523
 H396 H 1.16614 0.54255 0.27016
 H397 H 1.11840 0.53468 0.19482
 H398 H 1.09761 0.45326 0.11972
 H399 H 1.14630 0.46057 0.18946
 H400 H 1.12246 0.47881 0.42591
 H401 H 1.07345 0.47023 0.35439
 C402 C 0.50729 0.65519 0.27549
 C403 C 0.47908 0.62979 0.23102
 C404 C 0.48309 0.60777 0.19601
 C405 C 0.51460 0.61274 0.20877
 C406 C 0.53530 0.64351 0.16742
 C407 C 0.53147 0.66562 0.20233
 C408 C 0.51609 0.63896 0.34508
 C409 C 0.52014 0.61703 0.31008
 H410 H 0.45737 0.62797 0.22991
 H411 H 0.46523 0.58823 0.16393
 H412 H 0.55148 0.64764 0.11491
 H413 H 0.54432 0.68852 0.17932
 H414 H 0.51844 0.64397 0.41631
 H415 H 0.52618 0.60358 0.35120
 C416 C 0.34388 -0.14965 0.27670
 C417 C 0.33737 -0.14072 0.18418
 C418 C 0.35940 -0.11406 0.15313
 C419 C 0.38642 -0.09872 0.21595
 C420 C 0.37369 -0.09644 0.30652
 C421 C 0.35154 -0.12292 0.33815
 C422 C 0.37388 -0.14872 0.26124
 C423 C 0.39607 -0.12203 0.23007
 H424 H 0.31820 -0.15495 0.14310
 H425 H 0.35838 -0.10574 0.08718
 H426 H 0.38150 -0.07571 0.34290
 H427 H 0.34049 -0.12473 0.40182
 H428 H 0.37712 -0.16773 0.26847
 H429 H 0.41806 -0.11833 0.21315
 C430 C 0.85774 0.51636 0.26629
 C431 C 0.88456 0.54798 0.25265
 C432 C 0.90944 0.54849 0.22074
 C433 C 0.90534 0.51747 0.20355
 C434 C 0.89435 0.50091 0.29335
 C435 C 0.86957 0.50038 0.32597
 C436 C 0.85354 0.50182 0.17303
 C437 C 0.87840 0.50229 0.14076
 H438 H 0.88382 0.56831 0.26327
 H439 H 0.92984 0.56913 0.20604
 H440 H 0.90504 0.49046 0.32861
 H441 H 0.85922 0.48951 0.38888
 H442 H 0.83351 0.49342 0.13302
 H443 H 0.87911 0.49365 0.07505
 C444 C 0.49627 0.35064 0.28982
 C445 C 0.47462 0.34014 0.21015
 C446 C 0.47054 0.36179 0.17301
 C447 C 0.48848 0.39224 0.21885
 C448 C 0.47965 0.38638 0.31821
 C449 C 0.48395 0.36489 0.35555
 C450 C 0.52513 0.37754 0.25326
 C451 C 0.52091 0.39914 0.21589
 H452 H 0.46357 0.31751 0.18460
 H453 H 0.45599 0.35753 0.11597
 H454 H 0.47144 0.39861 0.35660
 H455 H 0.47969 0.35912 0.42615
 H456 H 0.54730 0.38072 0.26083
 H457 H 0.53923 0.41984 0.19019
 C458 C 0.65572 0.14256 0.27898
 C459 C 0.66003 0.11535 0.26746
 C460 C 0.63558 0.09063 0.23596
 C461 C 0.60907 0.09520 0.21684
 C462 C 0.60334 0.10663 0.30549
 C463 C 0.62770 0.13130 0.33784
 C464 C 0.64596 0.14672 0.18487
 C465 C 0.62149 0.12201 0.15289
 H466 H 0.68089 0.11574 0.27855
 H467 H 0.63555 0.07003 0.22248
 H468 H 0.58204 0.09630 0.34015
 H469 H 0.62710 0.14192 0.40001
 H470 H 0.65795 0.16671 0.14446
 H471 H 0.61242 0.12133 0.08685
 C472 C 0.48578 0.14442 -0.27905
 C473 C 0.49779 0.14711 -0.18259
 C474 C 0.49570 0.12153 -0.15046
 C475 C 0.48142 0.09532 -0.21631
 C476 C 0.45135 0.09248 -0.24007
 C477 C 0.45347 0.11808 -0.27175
 C478 C 0.50243 0.13232 -0.33494
 C479 C 0.50021 0.10677 -0.30229
 H480 H 0.50559 0.16671 -0.14068
 H481 H 0.50236 0.11977 -0.08276
 H482 H 0.43005 0.07245 -0.22866
 H483 H 0.43372 0.11968 -0.28449
 H484 H 0.51499 0.14302 -0.39542
 H485 H 0.51089 0.09582 -0.33494
 C486 C 0.65818 0.50915 -0.27727
 C487 C 0.64225 0.51849 -0.34656
 C488 C 0.61994 0.52201 -0.31165
 C489 C 0.61487 0.51536 -0.21088
 C490 C 0.61002 0.48380 -0.20066
 C491 C 0.63242 0.48033 -0.23558
 C492 C 0.66776 0.53248 -0.20196
 C493 C 0.64525 0.53573 -0.16741
 H494 H 0.64758 0.52140 -0.41771
 H495 H 0.60661 0.52820 -0.35266
 H496 H 0.59014 0.46545 -0.17121
 H497 H 0.63036 0.45850 -0.23755
 H498 H 0.69043 0.54523 -0.17722
 H499 H 0.64884 0.55129 -0.11366
 C500 C 0.85256 0.34167 -0.27862
 C501 C 0.85051 0.36882 -0.24443
 C502 C 0.87637 0.39086 -0.20890
 C503 C 0.90211 0.38427 -0.21135
 C504 C 0.89011 0.35425 -0.16291
 C505 C 0.86433 0.33209 -0.19802
 C506 C 0.87887 0.35574 -0.34571
 C507 C 0.90471 0.37766 -0.31019
 H508 H 0.83158 0.37204 -0.25330
 H509 H 0.87872 0.41179 -0.18568
 H510 H 0.90079 0.35065 -0.10559
 H511 H 0.85312 0.30971 -0.17030
 H512 H 0.87715 0.34969 -0.41610
 H513 H 0.92490 0.38985 -0.34981
 C514 C 0.50354 -0.14803 -0.27678
 C515 C 0.52618 -0.13483 -0.19997
 C516 C 0.52894 -0.10943 -0.16439
 C517 C 0.50882 -0.09922 -0.20877
 C518 C 0.51638 -0.09683 -0.30908
 C519 C 0.51339 -0.12233 -0.34483
 C520 C 0.47432 -0.15164 -0.23706
 C521 C 0.47723 -0.12611 -0.20131
 H522 H 0.53884 -0.14484 -0.17512
 H523 H 0.54403 -0.09784 -0.10942
 H524 H 0.52283 -0.07702 -0.34915
 H525 H 0.51700 -0.12424 -0.41573
 H526 H 0.45271 -0.17163 -0.24111
 H527 H 0.45846 -0.12491 -0.17361
 C528 C 0.35093 0.49529 -0.29354
 C529 C 0.37619 0.52350 -0.24869
 C530 C 0.39811 0.51952 -0.21303
 C531 C 0.39324 0.48804 -0.22579
 C532 C 0.36232 0.46728 -0.18525
 C533 C 0.34033 0.47109 -0.22065
 C534 C 0.36739 0.48655 -0.36279
 C535 C 0.38928 0.48254 -0.32723
 H536 H 0.37802 0.54524 -0.24839
 H537 H 0.41752 0.53737 -0.18055
 H538 H 0.35798 0.45100 -0.13301
 H539 H 0.31735 0.45813 -0.19829
 H540 H 0.36264 0.48430 -0.43415
 H541 H 0.40294 0.47662 -0.36798
 C542 C 1.14848 0.64688 -0.29629
 C543 C 1.12131 0.65136 -0.30621
 C544 C 1.09561 0.62892 -0.27115
 C545 C 1.09890 0.60358 -0.23039
 C546 C 1.11217 0.59373 -0.30632
 C547 C 1.13789 0.61625 -0.34138
 C548 C 1.14978 0.64111 -0.19555
 C549 C 1.12396 0.61855 -0.16131
 H550 H 1.12200 0.67021 -0.34032
 H551 H 1.07463 0.62880 -0.27470
 H552 H 1.10153 0.57135 -0.33369
 H553 H 1.14778 0.61239 -0.40021
 H554 H 1.16953 0.65357 -0.15466
 H555 H 1.12168 0.61179 -0.09149
 C556 C 0.85522 0.50321 -0.30049
 C557 C 0.88233 0.53510 -0.30477
 C558 C 0.90768 0.53783 -0.26887
 C559 C 0.90411 0.50851 -0.23285
 C560 C 0.87815 0.49693 -0.16593
 C561 C 0.85270 0.49418 -0.20107
 C562 C 0.86665 0.48432 -0.34865
 C563 C 0.89196 0.48697 -0.31269
 H564 H 0.88191 0.55383 -0.33589
 H565 H 0.92860 0.55880 -0.26868
 H566 H 0.87959 0.49114 -0.09689
 H567 H 0.83243 0.48601 -0.16170
 H568 H 0.85775 0.47199 -0.41027
 H569 H 0.90319 0.47608 -0.34226
 C570 C 0.49838 0.34682 -0.26670
 C571 C 0.48259 0.35724 -0.33247
 C572 C 0.47897 0.37989 -0.30133
 C573 C 0.49136 0.39035 -0.20688
 C574 C 0.47626 0.36213 -0.14829
 C575 C 0.48013 0.33956 -0.17879
 C576 C 0.52781 0.37542 -0.24280
 C577 C 0.52404 0.39812 -0.21222
 H578 H 0.47489 0.34756 -0.39844
 H579 H 0.46822 0.38949 -0.34052
 H580 H 0.46501 0.36052 -0.08524
 H581 H 0.47265 0.31933 -0.13993
 H582 H 0.54960 0.37727 -0.24403
 H583 H 0.54252 0.41914 -0.18967
 C584 C 0.64801 0.14385 -0.28666
 C585 C 0.61809 0.13194 -0.33653
 C586 C 0.59547 0.10644 -0.30098
 C587 C 0.60461 0.09467 -0.21948
 C588 C 0.63099 0.09168 -0.25295
 C589 C 0.65356 0.11723 -0.28855
 C590 C 0.64074 0.14636 -0.18809
 C591 C 0.61808 0.12074 -0.15310
 H592 H 0.61500 0.14102 -0.39838
 H593 H 0.57355 0.09498 -0.33137
 H594 H 0.63153 0.07101 -0.25111
 H595 H 0.67320 0.11814 -0.31780
 H596 H 0.65235 0.16672 -0.14925
 H597 H 0.61034 0.11921 -0.08453
 C598 C 1.15036 0.49217 -0.26406
 C599 C 1.13997 0.47364 -0.17669
 C600 C 1.11320 0.46881 -0.14535
 C601 C 1.09926 0.48321 -0.20313
 C602 C 1.12336 0.51624 -0.20833
 C603 C 1.15010 0.52097 -0.23963
 C604 C 1.12431 0.47575 -0.32965
 C605 C 1.09770 0.47108 -0.29792
 H606 H 1.15322 0.46658 -0.13893
 H607 H 1.10372 0.45718 -0.08269
 H608 H 1.11998 0.53432 -0.18640
 H609 H 1.16951 0.54311 -0.24273
 H610 H 1.12665 0.46837 -0.39581
 H611 H 1.07736 0.45971 -0.33685
 C612 C 0.50782 0.65497 -0.27658
 C613 C 0.52544 0.66245 -0.18774
 C614 C 0.52966 0.64020 -0.15632
 C615 C 0.51549 0.61203 -0.21492
 C616 C 0.48268 0.60362 -0.22210
 C617 C 0.47856 0.62598 -0.25363
 C618 C 0.52454 0.64514 -0.34103
 C619 C 0.52850 0.62279 -0.30892
 H620 H 0.53214 0.68248 -0.14876
 H621 H 0.54048 0.64196 -0.09255
 H622 H 0.46432 0.58238 -0.20019
 H623 H 0.45657 0.62363 -0.25648
 H624 H 0.53258 0.65496 -0.40681
 H625 H 0.53989 0.61360 -0.34711
 C626 C 0.33707 -0.14635 -0.26987
 C627 C 0.34644 -0.14973 -0.17411
 C628 C 0.37027 -0.12450 -0.14169
 C629 C 0.38247 -0.09798 -0.20673
 C630 C 0.38926 -0.10935 -0.29378
 C631 C 0.36562 -0.13449 -0.32657
 C632 C 0.33171 -0.11965 -0.26072
 C633 C 0.35555 -0.09441 -0.22885
 H634 H 0.33451 -0.16957 -0.13300
 H635 H 0.37883 -0.12320 -0.07444
 H636 H 0.41077 -0.09863 -0.32721
 H637 H 0.36711 -0.14503 -0.38783
 H638 H 0.31051 -0.12078 -0.27202
 H639 H 0.35470 -0.07423 -0.21597
 C640 C 0.50134 -0.14660 0.29542
 C641 C 0.49312 -0.14887 0.19555
 C642 C 0.49624 -0.12327 0.15989
 C643 C 0.50743 -0.09746 0.22698
 C644 C 0.48526 -0.10979 0.30571
 C645 C 0.48218 -0.13528 0.34191
 C646 C 0.53324 -0.11970 0.30101
 C647 C 0.53641 -0.09417 0.26471
 H648 H 0.48530 -0.16905 0.15631
 H649 H 0.49114 -0.12158 0.09028
 H650 H 0.47392 -0.09878 0.33367
 H651 H 0.46896 -0.14479 0.40198
 H652 H 0.55164 -0.12041 0.33311
 H653 H 0.55745 -0.07334 0.26514
 C654 C 0.34611 0.49625 0.26001
 C655 C 0.35699 0.48100 0.32618
 C656 C 0.37961 0.47742 0.29442
 C657 C 0.38956 0.48937 0.19901
 C658 C 0.36108 0.47371 0.14220
 C659 C 0.33848 0.47747 0.17353
 C660 C 0.37437 0.52565 0.23408
 C661 C 0.39706 0.52200 0.20267
 H662 H 0.34757 0.47359 0.39271
 H663 H 0.38950 0.46697 0.33372
 H664 H 0.35925 0.46207 0.07992
 H665 H 0.31798 0.46951 0.13611
 H666 H 0.37604 0.54736 0.23608
 H667 H 0.41799 0.54053 0.17938
 C668 C 1.14491 0.65581 0.26861
 C669 C 1.11929 0.66219 0.25117
 C670 C 1.09409 0.63847 0.21861
 C671 C 1.09669 0.61053 0.20456
 C672 C 1.12413 0.62086 0.14402
 C673 C 1.14933 0.64460 0.17696
 C674 C 1.13125 0.62814 0.32950
 C675 C 1.10616 0.60452 0.29622
 H676 H 1.12108 0.68379 0.26050
 H677 H 1.07443 0.63980 0.20176
 H678 H 1.12356 0.61104 0.07922
 H679 H 1.16977 0.65523 0.13810
 H680 H 1.14063 0.62721 0.39364
 H681 H 1.09425 0.58355 0.33223
 C682 C 0.49586 0.15185 0.26672
 C683 C 0.47811 0.14192 0.17822
 C684 C 0.47328 0.11518 0.14718
 C685 C 0.48694 0.10079 0.20628
 C686 C 0.52001 0.12465 0.21327
 C687 C 0.52471 0.15139 0.24446
 C688 C 0.47871 0.12561 0.33168
 C689 C 0.47407 0.09903 0.30020
 H690 H 0.47183 0.15553 0.13902
 H691 H 0.46239 0.10614 0.08349
 H692 H 0.53813 0.12111 0.19287
 H693 H 0.54689 0.17065 0.24930
 H694 H 0.47088 0.12783 0.39733
 H695 H 0.46229 0.07857 0.33879
 C696 C 0.65401 0.50983 0.29469
 C697 C 0.65890 0.54174 0.29683
 C698 C 0.63627 0.54432 0.26016
 C699 C 0.61049 0.51482 0.22555
 C700 C 0.62487 0.50289 0.15983
 C701 C 0.64759 0.50034 0.19586
 C702 C 0.62381 0.49121 0.34328
 C703 C 0.60112 0.49367 0.30668
 H704 H 0.67800 0.56056 0.32746
 H705 H 0.63631 0.56528 0.25865
 H706 H 0.61775 0.49690 0.09080
 H707 H 0.65984 0.49214 0.15752
 H708 H 0.62062 0.47885 0.40491
 H709 H 0.57895 0.48270 0.33592
 C710 C 0.85386 0.34637 0.29525
 C711 C 0.85130 0.35184 0.19513
 C712 C 0.87669 0.37436 0.15846
 C713 C 0.90258 0.38951 0.22487
 C714 C 0.89020 0.39944 0.30313
 C715 C 0.86494 0.37697 0.34037
 C716 C 0.88102 0.34178 0.30115
 C717 C 0.90634 0.36421 0.26387
 H718 H 0.83110 0.33910 0.15642
 H719 H 0.87816 0.38081 0.08850
 H720 H 0.90111 0.42186 0.33032
 H721 H 0.85548 0.38069 0.40055
 H722 H 0.88066 0.32296 0.33430
 H723 H 0.92733 0.36431 0.26450
   
