data_POSCAR
  _audit_creation_date              2014-09-24
  _audit_creation_method            'ToBaCCo'
  _symmetry_space_group_name_H-M    'P1'
  _symmetry_Int_Tables_number       1
  _symmetry_cell_setting            triclinic
  loop_
  _symmetry_equiv_pos_as_xyz
 x,y,z
_cell_length_a 42.3888
_cell_length_b 42.3710
_cell_length_c 42.4278
_cell_angle_alpha 90.104100
_cell_angle_beta 90.386900
_cell_angle_gamma 90.230100
loop_
  _atom_site_label
  _atom_site_type_symbol
  _atom_site_fract_x
  _atom_site_fract_y
  _atom_site_fract_z
C1 C 0.17846 1.21918 0.21404
 C2 C 0.16461 1.24597 0.20038
 C3 C 0.17611 1.25884 0.17190
 C4 C 0.20267 1.24442 0.15800
 C5 C 0.21668 1.21765 0.17141
 C6 C 0.20442 1.20485 0.19941
 C7 C 0.16596 1.20596 0.24162
 C8 C 0.17863 1.17805 0.25476
 C9 C 0.20497 1.16429 0.23987
 C10 C 0.21789 1.17748 0.21254
 C11 C 0.24384 1.16336 0.19786
 C12 C 0.25629 1.17602 0.16996
 C13 C 0.24261 1.20326 0.15695
 H14 H 0.14370 1.25547 0.21131
 H15 H 0.21326 1.25429 0.13706
 H16 H 0.14515 1.21665 0.25164
 H17 H 0.21627 1.14372 0.24990
 H18 H 0.25389 1.14203 0.20772
 H19 H 0.25219 1.21326 0.13554
 C20 C 0.82559 0.78667 0.21846
 C21 C 0.83756 0.75833 0.20639
 C22 C 0.82380 0.74356 0.17968
 C23 C 0.79669 0.75760 0.16612
 C24 C 0.78453 0.78598 0.17794
 C25 C 0.79926 0.80075 0.20397
 C26 C 0.84017 0.80148 0.24438
 C27 C 0.82951 0.83096 0.25567
 C28 C 0.80304 0.84473 0.24074
 C29 C 0.78789 0.82983 0.21524
 C30 C 0.76170 0.84382 0.20062
 C31 C 0.74685 0.82931 0.17460
 C32 C 0.75838 0.80031 0.16349
 H33 H 0.85732 0.74759 0.21852
 H34 H 0.78588 0.74773 0.14512
 H35 H 0.86107 0.79072 0.25440
 H36 H 0.79337 0.86668 0.24943
 H37 H 0.75279 0.86604 0.20952
 H38 H 0.74744 0.78926 0.14308
 C39 C 0.82556 1.21161 -0.21740
 C40 C 0.83881 1.23880 -0.20367
 C41 C 0.82522 1.25259 -0.17684
 C42 C 0.79770 1.23922 -0.16413
 C43 C 0.78423 1.21199 -0.17753
 C44 C 0.79833 1.19803 -0.20415
 C45 C 0.83970 1.19738 -0.24361
 C46 C 0.82742 1.16917 -0.25682
 C47 C 0.79989 1.15611 -0.24331
 C48 C 0.78547 1.17021 -0.21721
 C49 C 0.75861 1.15653 -0.20366
 C50 C 0.74458 1.17009 -0.17696
 C51 C 0.75741 1.19801 -0.16419
 H52 H 0.85983 1.24919 -0.21378
 H53 H 0.78732 1.24945 -0.14320
 H54 H 0.86137 1.20758 -0.25237
 H55 H 0.78886 1.13533 -0.25345
 H56 H 0.74866 1.13517 -0.21381
 H57 H 0.74704 1.20835 -0.14331
 C58 C 0.17026 0.78163 -0.21449
 C59 C 0.15518 0.75583 -0.20032
 C60 C 0.16711 0.74220 -0.17227
 C61 C 0.19521 0.75495 -0.15922
 C62 C 0.21045 0.78083 -0.17313
 C63 C 0.19795 0.79423 -0.20086
 C64 C 0.15771 0.79533 -0.24190
 C65 C 0.17222 0.82180 -0.25566
 C66 C 0.19996 0.83413 -0.24198
 C67 C 0.21288 0.82058 -0.21468
 C68 C 0.24000 0.83348 -0.20052
 C69 C 0.25236 0.82054 -0.17258
 C70 C 0.23757 0.79404 -0.15919
 H71 H 0.13454 0.74602 -0.21192
 H72 H 0.20458 0.74612 -0.13716
 H73 H 0.13649 0.78548 -0.25247
 H74 H 0.21103 0.85485 -0.25208
 H75 H 0.25097 0.85419 -0.21074
 H76 H 0.24716 0.78375 -0.13783
 C77 C 0.54797 1.04144 -0.01210
 H78 H 0.54939 1.04105 0.01337
 C79 C 0.56952 1.05935 -0.02927
 H80 H 0.58763 1.07252 -0.01678
 C81 C 0.52356 1.02325 -0.05918
 H82 H 0.50598 1.00872 -0.07076
 C83 C 0.54463 1.04086 -0.07730
 H84 H 0.54260 1.04014 -0.10274
 N85 N 0.52556 1.02390 -0.02718
 C86 C 0.45075 1.00841 0.04102
 H87 H 0.44962 0.98290 0.04077
 C88 C 0.42907 1.02561 0.05866
 H89 H 0.41116 1.01307 0.07178
 C90 C 0.47452 1.05559 0.02272
 H91 H 0.49189 1.06720 0.00824
 C92 C 0.45334 1.07372 0.04007
 H93 H 0.45511 1.09920 0.03923
 Zn94 Zn 0.49931 0.99833 -0.00186
 N95 N 0.47288 1.02354 0.02354
 C96 C 0.52501 0.97419 0.05537
 N97 N 0.52622 0.97321 0.02336
 C98 C 0.54830 0.95575 0.00820
 C99 C 0.57029 0.93822 0.02532
 C100 C 0.54660 0.95702 0.07344
 C101 C 0.45018 0.98752 -0.04466
 C102 C 0.42838 0.97001 -0.06230
 C103 C 0.45309 0.92224 -0.04358
 C104 C 0.47441 0.94068 -0.02625
 N105 N 0.47263 0.97271 -0.02715
 H106 H 0.50768 0.98867 0.06698
 H107 H 0.54909 0.95590 -0.01728
 H108 H 0.58810 0.92505 0.01278
 H109 H 0.54524 0.95802 0.09889
 H110 H 0.44892 1.01302 -0.04445
 H111 H 0.41025 0.98228 -0.07548
 H112 H 0.45497 0.89678 -0.04266
 H113 H 0.49201 0.92932 -0.01172
 C114 C 0.43004 1.05875 0.05818
 C115 C 0.56816 1.05907 -0.06236
 C116 C 0.42953 0.93689 -0.06177
 C117 C 0.56977 0.93887 0.05841
 C118 C -0.01813 0.54592 1.04952
 H119 H 0.00738 0.54681 1.04980
 C120 C -0.03527 0.56659 1.06837
 H121 H -0.02274 0.58347 1.08305
 C122 C -0.06533 0.52375 1.02879
 H123 H -0.07692 0.50739 1.01291
 C124 C -0.08343 0.54419 1.04712
 H125 H -0.10892 0.54301 1.04556
 N126 N -0.03328 0.52496 1.03037
 C127 C 0.03779 0.45319 1.01234
 H128 H 0.03790 0.45350 0.98684
 C129 C 0.05683 0.43188 1.02867
 H130 H 0.07145 0.41570 1.01552
 C131 C 0.01738 0.47302 1.06028
 H132 H 0.00154 0.48866 1.07251
 C133 C 0.03599 0.45202 1.07757
 H134 H 0.03473 0.45222 1.10305
 Zn135 Zn -0.00780 0.49982 1.00399
 N136 N 0.01872 0.47333 1.02826
 C137 C 0.04842 0.52830 0.98061
 N138 N 0.01634 0.52794 0.97922
 C139 C 0.00022 0.54913 0.96137
 C140 C 0.01636 0.57157 0.94357
 C141 C 0.06553 0.55044 0.96325
 C142 C -0.05032 0.45059 0.99272
 C143 C -0.06772 0.42873 0.97505
 C144 C -0.04900 0.45373 0.92755
 C145 C -0.03189 0.47507 0.94615
 N146 N -0.03289 0.47317 0.97812
 H147 H 0.06080 0.51186 0.99562
 H148 H -0.02530 0.54862 0.96108
 H149 H 0.00302 0.58791 0.92919
 H150 H 0.09101 0.55074 0.96515
 H151 H -0.05021 0.44925 1.01819
 H152 H -0.08078 0.41047 0.98718
 H153 H -0.04799 0.45572 0.90214
 H154 H -0.01738 0.49273 0.93493
 C155 C 0.05599 0.43102 1.06175
 C156 C -0.06837 0.56603 1.06717
 C157 C -0.06705 0.42998 0.94197
 C158 C 0.04949 0.57255 0.94448
 C159 C 1.05049 -0.00771 0.54822
 H160 H 1.04906 0.01761 0.55120
 C161 C 1.06811 -0.02568 0.56945
 H162 H 1.08009 -0.01397 0.58885
 C163 C 1.03494 -0.05377 0.52030
 H164 H 1.02153 -0.06465 0.50143
 C165 C 1.05224 -0.07266 0.54104
 H166 H 1.05239 -0.09799 0.53757
 N167 N 1.03432 -0.02192 0.52429
 C168 C 1.01704 0.04792 0.45122
 H169 H 0.99172 0.04551 0.44880
 C170 C 1.03378 0.06667 0.43006
 H171 H 1.02103 0.07833 0.41125
 C172 C 1.06434 0.03368 0.47752
 H173 H 1.07624 0.02030 0.49564
 C174 C 1.08199 0.05249 0.45711
 H175 H 1.10731 0.05385 0.46034
 Zn176 Zn 1.00812 0.00375 0.49893
 N177 N 1.03247 0.03168 0.47417
 C178 C 0.98123 0.05856 0.52651
 N179 N 0.98170 0.02647 0.52652
 C180 C 0.96494 0.00955 0.54789
 C181 C 0.94658 0.02488 0.57032
 C182 C 0.96328 0.07489 0.54868
 C183 C 0.99959 -0.03469 0.44618
 C184 C 0.98315 -0.05193 0.42328
 C185 C 0.93494 -0.04240 0.45178
 C186 C 0.95222 -0.02485 0.47386
 N187 N 0.98399 -0.02146 0.47076
 H188 H 0.99528 0.07157 0.50978
 H189 H 0.96616 -0.01595 0.54767
 H190 H 0.93319 0.01089 0.58688
 H191 H 0.96382 0.10044 0.54879
 H192 H 1.02481 -0.03136 0.44413
 H193 H 0.99584 -0.06210 0.40368
 H194 H 0.90963 -0.04467 0.45432
 H195 H 0.94012 -0.01366 0.49316
 C196 C 1.06680 0.06895 0.43261
 C197 C 1.06887 -0.05866 0.56621
 C198 C 0.95041 -0.05588 0.42595
 C199 C 0.94579 0.05802 0.57114
 C200 C 0.12855 0.33560 1.12740
 C201 C 0.12726 0.33171 1.16019
 C202 C 0.14314 0.30685 1.17489
 C203 C 0.16091 0.28495 1.15722
 C204 C 0.16243 0.28950 1.12425
 C205 C 0.14649 0.31434 1.10966
 C206 C 0.11057 0.36116 1.11155
 C207 C 0.12361 0.37767 1.08601
 C208 C 0.10609 0.40064 1.07015
 C209 C 0.07515 0.40767 1.07949
 C210 C 0.06231 0.39156 1.10538
 C211 C 0.07982 0.36857 1.12122
 H212 H 0.14213 0.30570 1.20032
 H213 H 0.17444 0.27300 1.10906
 H214 H 0.11680 0.41301 1.05062
 H215 H 0.03838 0.39609 1.11284
 H216 H 0.14741 0.31628 1.08423
 H217 H 0.14742 0.37287 1.07833
 H218 H 0.11419 0.34815 1.17461
 H219 H 0.06893 0.35594 1.14049
 C220 C -0.13428 0.66299 1.13660
 C221 C -0.16683 0.66830 1.13381
 C222 C -0.18075 0.69440 1.14830
 C223 C -0.16252 0.71607 1.16619
 C224 C -0.12988 0.71000 1.16940
 C225 C -0.11606 0.68400 1.15478
 C226 C -0.11902 0.63638 1.11971
 C227 C -0.09397 0.61975 1.13374
 C228 C -0.07802 0.59641 1.11694
 C229 C -0.08685 0.58905 1.08581
 C230 C -0.11253 0.60492 1.07211
 C231 C -0.12840 0.62838 1.08885
 H232 H -0.20605 0.69679 1.14605
 H233 H -0.11425 0.72619 1.18161
 H234 H -0.05863 0.58420 1.12827
 H235 H -0.11961 0.60002 1.04802
 H236 H -0.09077 0.68103 1.15683
 H237 H -0.08656 0.62491 1.15767
 H238 H -0.18166 0.65213 1.12053
 H239 H -0.14729 0.64102 1.07719
 C240 C -0.13029 0.33146 0.87023
 C241 C -0.16317 0.33080 0.86561
 C242 C -0.17762 0.30540 0.85004
 C243 C -0.15950 0.28017 0.83868
 C244 C -0.12662 0.28099 0.84302
 C245 C -0.11219 0.30630 0.85864
 C246 C -0.11488 0.35784 0.88771
 C247 C -0.08545 0.36966 0.87813
 C248 C -0.07019 0.39336 0.89544
 C249 C -0.08405 0.40590 0.92272
 C250 C -0.11378 0.39452 0.93196
 C251 C -0.12901 0.37076 0.91467
 H252 H -0.20297 0.30557 0.84670
 H253 H -0.11210 0.26163 0.83502
 H254 H -0.04717 0.40131 0.88785
 H255 H -0.12526 0.40394 0.95264
 H256 H -0.08690 0.30577 0.86232
 H257 H -0.07411 0.36050 0.85724
 H258 H -0.17772 0.35002 0.87385
 H259 H -0.15153 0.36198 0.92286
 C260 C 0.11790 0.66822 0.87490
 C261 C 0.15073 0.67125 0.87805
 C262 C 0.16697 0.69528 0.86239
 C263 C 0.15086 0.71700 0.84285
 C264 C 0.11785 0.71322 0.83939
 C265 C 0.10171 0.68932 0.85524
 C266 C 0.10045 0.64358 0.89255
 C267 C 0.07187 0.65089 0.90741
 C268 C 0.05543 0.62788 0.92423
 C269 C 0.06709 0.59694 0.92651
 C270 C 0.09572 0.58963 0.91165
 C271 C 0.11225 0.61272 0.89490
 H272 H 0.19234 0.69598 0.86509
 H273 H 0.10384 0.72957 0.82573
 H274 H 0.03381 0.63449 0.93593
 H275 H 0.10513 0.56593 0.91258
 H276 H 0.07638 0.68742 0.85220
 H277 H 0.06249 0.67461 0.90648
 H278 H 0.16386 0.65530 0.89307
 H279 H 0.13403 0.60632 0.88339
 C280 C 1.13515 0.13460 0.33416
 C281 C 1.13402 0.16747 0.33014
 C282 C 1.14838 0.18181 0.30424
 C283 C 1.16475 0.16375 0.28164
 C284 C 1.16628 0.13078 0.28628
 C285 C 1.15154 0.11650 0.31193
 C286 C 1.11860 0.11904 0.36085
 C287 C 1.13133 0.09202 0.37524
 C288 C 1.11481 0.07614 0.39881
 C289 C 1.08527 0.08707 0.40895
 C290 C 1.07302 0.11469 0.39529
 C291 C 1.08938 0.13037 0.37144
 H292 H 1.14746 0.20727 0.30278
 H293 H 1.17731 0.11542 0.26924
 H294 H 1.12488 0.05477 0.40844
 H295 H 1.05060 0.12413 0.40284
 H296 H 1.15222 0.09103 0.31374
 H297 H 1.15402 0.08292 0.36812
 H298 H 1.12227 0.18227 0.34721
 H299 H 1.07866 0.15091 0.36075
 C300 C 1.13003 -0.13126 0.66452
 C301 C 1.16285 -0.13567 0.66610
 C302 C 1.17655 -0.15123 0.69178
 C303 C 1.15772 -0.16269 0.71643
 C304 C 1.12489 -0.15851 0.71467
 C305 C 1.11121 -0.14301 0.68902
 C306 C 1.11542 -0.11375 0.63792
 C307 C 1.08660 -0.12389 0.62473
 C308 C 1.07189 -0.10640 0.60098
 C309 C 1.08563 -0.07833 0.58988
 C310 C 1.11481 -0.06856 0.60256
 C311 C 1.12956 -0.08610 0.62629
 H312 H 1.20187 -0.15447 0.69227
 H313 H 1.10979 -0.16653 0.73355
 H314 H 1.04928 -0.11440 0.59194
 H315 H 1.12614 -0.04722 0.59427
 H316 H 1.08592 -0.13949 0.68877
 H317 H 1.07531 -0.14529 0.63294
 H318 H 1.17792 -0.12723 0.64739
 H319 H 1.15162 -0.07754 0.63614
 C320 C 0.87911 -0.12170 0.32956
 C321 C 0.86299 -0.10449 0.30640
 C322 C 0.84615 -0.11999 0.28254
 C323 C 0.84548 -0.15331 0.28075
 C324 C 0.86176 -0.17037 0.30437
 C325 C 0.87805 -0.15474 0.32858
 C326 C 0.89748 -0.10512 0.35435
 C327 C 0.89345 -0.11277 0.38627
 C328 C 0.91054 -0.09666 0.40963
 C329 C 0.93237 -0.07311 0.40137
 C330 C 0.93665 -0.06576 0.36942
 C331 C 0.91916 -0.08144 0.34614
 H332 H 0.83507 -0.10555 0.26465
 H333 H 0.86120 -0.19589 0.30497
 H334 H 0.90696 -0.10277 0.43412
 H335 H 0.95319 -0.04753 0.36253
 H336 H 0.89029 -0.16850 0.34630
 H337 H 0.87675 -0.13087 0.39312
 H338 H 0.86347 -0.07893 0.30674
 H339 H 0.92278 -0.07531 0.32165
 C340 C 0.87529 0.12290 0.66813
 C341 C 0.85652 0.10568 0.68911
 C342 C 0.84044 0.12087 0.71338
 C343 C 0.84279 0.15390 0.71765
 C344 C 0.86147 0.17104 0.69606
 C345 C 0.87733 0.15576 0.67164
 C346 C 0.89323 0.10644 0.64315
 C347 C 0.89441 0.11855 0.61237
 C348 C 0.91134 0.10284 0.58894
 C349 C 0.92758 0.07477 0.59585
 C350 C 0.92653 0.06287 0.62674
 C351 C 0.90949 0.07846 0.65007
 H352 H 0.82750 0.10612 0.72960
 H353 H 0.86330 0.19648 0.69719
 H354 H 0.91133 0.11242 0.56531
 H355 H 0.93933 0.04172 0.63308
 H356 H 0.89165 0.16965 0.65576
 H357 H 0.88183 0.13991 0.60632
 H358 H 0.85438 0.08030 0.68686
 H359 H 0.90947 0.06889 0.67372
 C360 C 0.33298 1.12887 0.12341
 C361 C 0.33347 1.13317 0.15628
 C362 C 0.30872 1.14865 0.17138
 C363 C 0.28298 1.16026 0.15394
 C364 C 0.28260 1.15620 0.12107
 C365 C 0.30728 1.14065 0.10598
 C366 C 0.35881 1.11167 0.10734
 C367 C 0.36977 1.12170 0.07779
 C368 C 0.39315 1.10480 0.06209
 C369 C 0.40621 1.07749 0.07557
 C370 C 0.39563 1.06775 0.10536
 C371 C 0.37220 1.08463 0.12105
 H372 H 0.30983 1.15180 0.19670
 H373 H 0.26284 1.16443 0.10707
 H374 H 0.40049 1.11276 0.03903
 H375 H 0.40546 1.04703 0.11656
 H376 H 0.30588 1.13723 0.08072
 H377 H 0.36024 1.14266 0.06677
 H378 H 0.35315 1.12480 0.17032
 H379 H 0.36409 1.07608 0.14363
 C380 C 0.66614 1.12437 -0.13145
 C381 C 0.66636 1.15727 -0.13569
 C382 C 0.69167 1.17214 -0.15065
 C383 C 0.71727 1.15441 -0.16174
 C384 C 0.71694 1.12151 -0.15768
 C385 C 0.69170 1.10667 -0.14269
 C386 C 0.63978 1.10850 -0.11476
 C387 C 0.62844 1.07898 -0.12506
 C388 C 0.60484 1.06324 -0.10840
 C389 C 0.59195 1.07666 -0.08106
 C390 C 0.60279 1.10650 -0.07115
 C391 C 0.62644 1.12223 -0.08780
 H392 H 0.69112 1.19749 -0.15379
 H393 H 0.73658 1.10729 -0.16545
 H394 H 0.59726 1.04016 -0.11650
 H395 H 0.59308 1.11765 -0.05041
 H396 H 0.69257 1.08138 -0.13926
 H397 H 0.63794 1.06795 -0.14597
 H398 H 0.64682 1.17151 -0.12767
 H399 H 0.63483 1.14480 -0.07909
 C400 C 0.33131 0.86612 -0.12658
 C401 C 0.33120 0.86149 -0.15940
 C402 C 0.30579 0.84636 -0.17432
 C403 C 0.27998 0.83547 -0.15673
 C404 C 0.28028 0.83974 -0.12389
 C405 C 0.30562 0.85491 -0.10899
 C406 C 0.35764 0.88329 -0.11074
 C407 C 0.36892 0.87347 -0.08112
 C408 C 0.39258 0.89054 -0.06550
 C409 C 0.40556 0.91783 -0.07914
 C410 C 0.39473 0.92730 -0.10904
 C411 C 0.37104 0.91023 -0.12465
 H412 H 0.30640 0.84302 -0.19962
 H413 H 0.26049 0.83210 -0.10977
 H414 H 0.40015 0.88279 -0.04237
 H415 H 0.40450 0.94800 -0.12034
 H416 H 0.30471 0.85859 -0.08375
 H417 H 0.35936 0.85260 -0.06995
 H418 H 0.35085 0.86944 -0.17355
 H419 H 0.36268 0.91859 -0.14730
 C420 C 0.66888 0.87471 0.12749
 C421 C 0.66835 0.84199 0.13293
 C422 C 0.69357 0.82724 0.14831
 C423 C 0.71984 0.84490 0.15858
 C424 C 0.72032 0.87761 0.15318
 C425 C 0.69515 0.89233 0.13783
 C426 C 0.64244 0.89044 0.11067
 C427 C 0.63179 0.92024 0.12045
 C428 C 0.60786 0.93568 0.10383
 C429 C 0.59401 0.92169 0.07702
 C430 C 0.60427 0.89163 0.06756
 C431 C 0.62819 0.87617 0.08422
 H432 H 0.69234 0.80207 0.15250
 H433 H 0.74048 0.89176 0.16030
 H434 H 0.60073 0.95894 0.11154
 H435 H 0.59383 0.88008 0.04721
 H436 H 0.69654 0.91747 0.13347
 H437 H 0.64204 0.93168 0.14096
 H438 H 0.64827 0.82784 0.12561
 H439 H 0.63605 0.85334 0.07593
   
