data_POSCAR
  _audit_creation_date              2014-09-24
  _audit_creation_method            'ToBaCCo'
  _symmetry_space_group_name_H-M    'P1'
  _symmetry_Int_Tables_number       1
  _symmetry_cell_setting            triclinic
  loop_
  _symmetry_equiv_pos_as_xyz
 x,y,z
_cell_length_a 38.2092
_cell_length_b 38.1159
_cell_length_c 38.0900
_cell_angle_alpha 89.950400
_cell_angle_beta 89.938900
_cell_angle_gamma 89.961900
loop_
  _atom_site_label
  _atom_site_type_symbol
  _atom_site_fract_x
  _atom_site_fract_y
  _atom_site_fract_z
C1 C 0.16588 0.16785 0.20960
 C2 C 0.14833 0.19510 0.19177
 C3 C 0.16305 0.21071 0.16201
 C4 C 0.19474 0.19826 0.14859
 C5 C 0.21264 0.17038 0.16495
 C6 C 0.19837 0.15623 0.19614
 H7 H 0.12409 0.20580 0.20194
 H8 H 0.20571 0.21123 0.12578
 H9 H 0.21076 0.13363 0.20802
 C10 C -0.16449 0.83659 0.21326
 C11 C -0.14940 0.80722 0.19651
 C12 C -0.16642 0.79041 0.16856
 C13 C -0.19847 0.80353 0.15639
 C14 C -0.21318 0.83360 0.17152
 C15 C -0.19654 0.84954 0.20018
 H16 H -0.12531 0.79590 0.20629
 H17 H -0.21115 0.79126 0.13411
 H18 H -0.20805 0.87310 0.21112
 C19 C -0.16587 0.16299 -0.21448
 C20 C -0.19462 0.14678 -0.19774
 C21 C -0.21191 0.16318 -0.16964
 C22 C -0.19977 0.19555 -0.15720
 C23 C -0.17030 0.21131 -0.17228
 C24 C -0.15399 0.19539 -0.20116
 H25 H -0.20509 0.12232 -0.20764
 H26 H -0.21233 0.20768 -0.13474
 H27 H -0.13086 0.20774 -0.21203
 C28 C 0.16900 0.83200 -0.21071
 C29 C 0.15462 0.80099 -0.19644
 C30 C 0.16687 0.78726 -0.16452
 C31 C 0.19469 0.80379 -0.14720
 C32 C 0.21055 0.83351 -0.16179
 C33 C 0.19744 0.84768 -0.19310
 H34 H 0.13210 0.78873 -0.20856
 H35 H 0.20459 0.79296 -0.12282
 H36 H 0.21024 0.87056 -0.20405
 C37 C 0.17019 1.16815 0.78748
 C38 C 0.15267 1.19627 0.80418
 C39 C 0.16704 1.21270 0.83375
 C40 C 0.19843 1.20034 0.84793
 C41 C 0.21592 1.17214 0.83231
 C42 C 0.20241 1.15679 0.80175
 H43 H 0.12860 1.20678 0.79346
 H44 H 0.20896 1.21229 0.87148
 H45 H 0.21589 1.13425 0.79093
 C46 C 0.83347 0.83842 0.78742
 C47 C 0.80097 0.85023 0.80043
 C48 C 0.78566 0.83452 0.82992
 C49 C 0.80157 0.80523 0.84536
 C50 C 0.83367 0.79217 0.83272
 C51 C 0.84971 0.80966 0.80428
 H52 H 0.78867 0.87340 0.78950
 H53 H 0.78948 0.79378 0.86841
 H54 H 0.87346 0.79885 0.79321
 C55 C 0.16656 0.82908 1.21076
 C56 C 0.15353 0.79717 1.19727
 C57 C 0.16732 0.78269 1.16642
 C58 C 0.19557 0.79888 1.14958
 C59 C 0.20960 0.83006 1.16291
 C60 C 0.19467 0.84533 1.19292
 H61 H 0.13091 0.78469 1.20902
 H62 H 0.20615 0.78758 1.12571
 H63 H 0.20640 0.86906 1.20320
 C64 C 0.83503 1.16584 1.21578
 C65 C 0.80573 1.14945 1.20026
 C66 C 0.78807 1.16520 1.17212
 C67 C 0.80001 1.19707 1.15839
 C68 C 0.82990 1.21307 1.17233
 C69 C 0.84677 1.19784 1.20130
 H70 H 0.79538 1.12519 1.21082
 H71 H 0.78694 1.20858 1.13590
 H72 H 0.87023 1.21029 1.21121
 O73 O 0.54808 0.94111 0.93618
 O74 O 0.58669 0.97006 0.97200
 C75 C 0.57959 0.94874 0.94651
 O76 O 0.45222 1.06711 0.94229
 O77 O 0.41335 1.03377 0.97373
 C78 C 0.42061 1.05822 0.95120
 O79 O 0.55056 1.06239 0.94021
 O80 O 0.58809 1.02818 0.97250
 C81 C 0.58173 1.05182 0.94887
 O82 O 0.44938 0.93932 0.94001
 O83 O 0.41174 0.97256 0.97325
 C84 C 0.41816 0.94863 0.94996
 Zr85 Zr 0.49905 0.95750 0.95695
 O86 O 0.49550 0.95727 0.90150
 O87 O 0.49983 0.90211 0.95896
 Zr88 Zr 0.50090 1.04633 0.95925
 O89 O 0.49748 1.04809 0.90380
 O90 O 0.50564 1.10163 0.96131
 O91 O 0.53110 1.00145 0.95124
 O92 O 0.46966 1.00269 0.95162
 O93 O 0.44911 0.93512 1.06056
 O94 O 0.41181 0.97217 1.03130
 C95 C 0.41795 0.94623 1.05242
 O96 O 0.55012 1.05918 1.06812
 O97 O 0.58773 1.02740 1.03365
 C98 C 0.58140 1.04977 1.05849
 O99 O 0.45181 1.06363 1.06575
 O100 O 0.41296 1.03283 1.03161
 C101 C 0.42035 1.05591 1.05546
 O102 O 0.54783 0.93644 1.06451
 O103 O 0.58668 0.96956 1.03258
 C104 C 0.57939 0.94601 1.05605
 Zr105 Zr 0.49889 0.95508 1.04564
 O106 O 0.49477 0.95450 1.10108
 O107 O 0.50098 0.89962 1.04469
 Zr108 Zr 0.50064 1.04380 1.04814
 O109 O 0.49698 1.04205 1.10357
 O110 O 0.50528 1.09913 1.04940
 Zr111 Zr 0.55174 0.99965 1.00252
 Zr112 Zr 0.44801 1.00190 1.00238
 O113 O 0.46937 0.99989 1.05324
 O114 O 0.53093 0.99861 1.05378
 O115 O 0.46766 0.95026 1.00105
 O116 O 0.53124 1.05086 1.00387
 O117 O 0.52930 0.94930 1.00112
 O118 O 0.46976 1.05265 1.00382
 H119 H 0.45386 1.00335 0.93102
 H120 H 0.54757 1.07103 1.00434
 H121 H 0.45337 0.99959 1.07373
 H122 H 0.54479 0.92844 1.00059
 H123 H 0.48562 1.11067 0.97508
 H124 H 0.48575 1.10893 1.03546
 H125 H 0.51626 1.02702 1.11218
 H126 H 0.51556 0.96669 1.11055
 H127 H 0.48587 0.89183 1.02511
 H128 H 0.49958 0.89405 0.93424
 H129 H 0.51311 0.97406 0.89259
 H130 H 0.51681 1.03365 0.89431
 O131 O 0.05432 0.54886 -0.06628
 O132 O 0.02375 0.58709 -0.03130
 C133 C 0.04608 0.58032 -0.05598
 O134 O -0.07175 0.45156 -0.06356
 O135 O -0.03769 0.41275 -0.03264
 C136 C -0.06203 0.41997 -0.05518
 O137 O -0.06770 0.55039 -0.06549
 O138 O -0.03416 0.58798 -0.03255
 C139 C -0.05734 0.58159 -0.05650
 O140 O 0.05684 0.44986 -0.06310
 O141 O 0.02241 0.41179 -0.03180
 C142 C 0.04713 0.41839 -0.05416
 Zr143 Zr 0.03734 0.49945 -0.04676
 O144 O 0.03698 0.49575 -0.10222
 O145 O 0.09264 0.50289 -0.04707
 Zr146 Zr -0.05134 0.50055 -0.04665
 O147 O -0.05080 0.49732 -0.10212
 O148 O -0.10657 0.50499 -0.04671
 O149 O -0.00661 0.53128 -0.05338
 O150 O -0.00731 0.46966 -0.05334
 O151 O 0.05663 0.44891 0.05790
 O152 O 0.02235 0.41137 0.02595
 C153 C 0.04692 0.41761 0.04851
 O154 O -0.06752 0.54934 0.06197
 O155 O -0.03454 0.58739 0.02897
 C156 C -0.05745 0.58071 0.05317
 O157 O -0.07176 0.45063 0.05842
 O158 O -0.03776 0.41224 0.02692
 C159 C -0.06210 0.41914 0.04962
 O160 O 0.05411 0.54776 0.06242
 O161 O 0.02292 0.58661 0.02878
 C162 C 0.04539 0.57944 0.05322
 Zr163 Zr 0.03730 0.49873 0.04210
 O164 O 0.03719 0.49418 0.09749
 O165 O 0.09261 0.50215 0.04213
 Zr166 Zr -0.05136 0.49984 0.04214
 O167 O -0.05113 0.49560 0.09756
 O168 O -0.10659 0.50444 0.04211
 Zr169 Zr -0.00632 0.55159 -0.00193
 Zr170 Zr -0.00762 0.44764 -0.00265
 O171 O -0.00736 0.46886 0.04834
 O172 O -0.00666 0.53041 0.04921
 O173 O 0.04376 0.46781 -0.00255
 O174 O -0.05730 0.53077 -0.00203
 O175 O 0.04411 0.52937 -0.00209
 O176 O -0.05855 0.46893 -0.00247
 H177 H -0.00733 0.45390 -0.07401
 H178 H -0.07754 0.54704 -0.00189
 H179 H -0.00741 0.45279 0.06880
 H180 H 0.06482 0.54500 -0.00188
 H181 H -0.11592 0.48560 -0.03221
 H182 H -0.11597 0.48500 0.02776
 H183 H -0.03713 0.51535 0.10680
 H184 H 0.02283 0.51364 0.10685
 H185 H 0.10163 0.48264 0.02760
 H186 H 0.10167 0.48355 -0.03230
 H187 H 0.02305 0.51569 -0.11125
 H188 H -0.03714 0.51751 -0.11099
 O189 O 1.06238 -0.06966 0.45049
 O190 O 1.03437 -0.03230 0.41251
 C191 C 1.05482 -0.05856 0.41914
 O192 O 0.93805 -0.05648 0.54977
 O193 O 0.97533 -0.02858 0.58783
 C194 C 0.94902 -0.04888 0.58115
 O195 O 0.94076 -0.05982 0.45070
 O196 O 0.97623 -0.02982 0.41235
 C197 C 0.95144 -0.05191 0.41927
 O198 O 1.06577 -0.06676 0.54930
 O199 O 1.03585 -0.03122 0.58768
 C200 C 1.05801 -0.05598 0.58071
 Zr201 Zr 1.04772 -0.04840 0.49988
 O202 O 1.04452 -0.10370 0.50364
 O203 O 1.10292 -0.05132 0.49578
 Zr204 Zr 0.95926 -0.04212 0.50017
 O205 O 0.95658 -0.09747 0.50413
 O206 O 0.90407 -0.03933 0.49659
 O207 O 1.00293 -0.05208 0.46876
 O208 O 1.00313 -0.05172 0.53045
 O209 O 1.07489 0.05551 0.54925
 O210 O 1.03800 0.02713 0.58741
 C211 C 1.06389 0.04797 0.58066
 O212 O 0.95041 0.06743 0.45070
 O213 O 0.97885 0.03066 0.41241
 C214 C 0.95801 0.05655 0.41927
 O215 O 0.94738 0.06428 0.54983
 O216 O 0.97768 0.02882 0.58798
 C217 C 0.95523 0.05337 0.58119
 O218 O 1.07152 0.05869 0.45021
 O219 O 1.03617 0.02830 0.41214
 C220 C 1.06058 0.05086 0.41887
 Zr221 Zr 1.05397 0.04020 0.49987
 O222 O 1.05787 0.09546 0.50370
 O223 O 1.10907 0.03594 0.49579
 Zr224 Zr 0.96557 0.04657 0.50021
 O225 O 0.96959 0.10182 0.50411
 O226 O 0.91043 0.05056 0.49654
 Zr227 Zr 1.00640 -0.00089 0.44806
 Zr228 Zr 1.00674 -0.00105 0.55201
 O229 O 1.01021 0.04970 0.53046
 O230 O 1.01011 0.05024 0.46882
 O231 O 1.05774 -0.00461 0.53116
 O232 O 0.95590 0.00269 0.46987
 O233 O 1.05707 -0.00446 0.46938
 O234 O 0.95567 0.00265 0.53138
 H235 H 1.00178 -0.07218 0.54646
 H236 H 0.93535 0.00407 0.45408
 H237 H 1.01142 0.07023 0.54635
 H238 H 1.07745 -0.00568 0.45332
 H239 H 0.89603 -0.02239 0.51452
 H240 H 0.90033 0.03723 0.51640
 H241 H 0.98427 0.10997 0.48432
 H242 H 1.04405 0.10562 0.48424
 H243 H 1.11716 0.02110 0.51549
 H244 H 1.11288 -0.03910 0.51637
 H245 H 1.02785 -0.11167 0.48548
 H246 H 0.96795 -0.10738 0.48301
 C247 C 1.12135 0.11961 0.29933
 C248 C 1.15783 0.12284 0.29684
 C249 C 1.17250 0.13857 0.26696
 C250 C 1.15099 0.15203 0.23984
 C251 C 1.11423 0.14900 0.24344
 C252 C 1.09940 0.13239 0.27274
 C253 C 1.10584 0.10234 0.33031
 C254 C 1.06940 0.09791 0.33211
 C255 C 1.05486 0.08076 0.36119
 C256 C 1.07640 0.06901 0.38873
 C257 C 1.11279 0.07423 0.38697
 C258 C 1.12774 0.09042 0.35744
 C259 C 1.06300 0.12790 0.27573
 C260 C 1.04827 0.11074 0.30480
 C261 C 1.17893 0.11038 0.32439
 C262 C 1.16413 0.09467 0.35428
 H263 H 1.04577 0.13751 0.25530
 H264 H 1.02010 0.10759 0.30598
 H265 H 1.20714 0.11287 0.32288
 H266 H 1.18133 0.08551 0.37495
 H267 H 1.20067 0.14153 0.26568
 H268 H 1.09698 0.15787 0.22269
 H269 H 1.02676 0.07696 0.36270
 H270 H 1.12937 0.06491 0.40810
 C271 C 0.88476 -0.11605 0.30071
 C272 C 0.90539 -0.13070 0.27400
 C273 C 0.88900 -0.14673 0.24526
 C274 C 0.85206 -0.14733 0.24239
 C275 C 0.83195 -0.13172 0.26944
 C276 C 0.84812 -0.11662 0.29879
 C277 C 0.90187 -0.09981 0.33133
 C278 C 0.88120 -0.08625 0.35868
 C279 C 0.89761 -0.07131 0.38798
 C280 C 0.93429 -0.06891 0.38932
 C281 C 0.95466 -0.08210 0.36152
 C282 C 0.93856 -0.09813 0.33265
 C283 C 0.82831 -0.10241 0.32646
 C284 C 0.84457 -0.08771 0.35602
 C285 C 0.94205 -0.12883 0.27643
 C286 C 0.95836 -0.11258 0.30514
 H287 H 0.79998 -0.10283 0.32536
 H288 H 0.82833 -0.07721 0.37686
 H289 H 0.95829 -0.13988 0.25588
 H290 H 0.98670 -0.11154 0.30592
 H291 H 0.90524 -0.15729 0.22446
 H292 H 0.80363 -0.13275 0.26872
 H293 H 0.88198 -0.06076 0.40928
 H294 H 0.98297 -0.08035 0.36272
 C295 C 0.88499 0.11632 0.69851
 C296 C 0.87057 0.09480 0.72469
 C297 C 0.85307 0.11029 0.75314
 C298 C 0.85087 0.14723 0.75629
 C299 C 0.86597 0.16824 0.72960
 C300 C 0.88255 0.15295 0.70058
 C301 C 0.90304 0.10017 0.66835
 C302 C 0.91641 0.12171 0.64153
 C303 C 0.93306 0.10620 0.61263
 C304 C 0.93727 0.06961 0.61114
 C305 C 0.92427 0.04838 0.63843
 C306 C 0.90659 0.06353 0.66689
 C307 C 0.89656 0.17366 0.67344
 C308 C 0.91299 0.15828 0.64429
 C309 C 0.87430 0.05819 0.72210
 C310 C 0.89222 0.04283 0.69382
 H311 H 0.89469 0.20199 0.67466
 H312 H 0.92329 0.17518 0.62386
 H313 H 0.86344 0.04127 0.74222
 H314 H 0.89467 0.01451 0.69291
 H315 H 0.84278 0.09343 0.77359
 H316 H 0.86359 0.19655 0.73044
 H317 H 0.94335 0.12249 0.59168
 H318 H 0.92732 0.02012 0.63707
 C319 C 1.12398 -0.12080 0.69942
 C320 C 1.13859 -0.09959 0.72565
 C321 C 1.15432 -0.11543 0.75485
 C322 C 1.15458 -0.15237 0.75878
 C323 C 1.13935 -0.17311 0.73205
 C324 C 1.12455 -0.15749 0.70218
 C325 C 1.10749 -0.10422 0.66861
 C326 C 1.09372 -0.12544 0.64183
 C327 C 1.07825 -0.10950 0.61248
 C328 C 1.07553 -0.07276 0.61060
 C329 C 1.08905 -0.05186 0.63779
 C330 C 1.10558 -0.06747 0.66665
 C331 C 1.11030 -0.17786 0.67497
 C332 C 1.09538 -0.16211 0.64519
 C333 C 1.13667 -0.06290 0.72248
 C334 C 1.12021 -0.04710 0.69360
 H335 H 1.11073 -0.20624 0.67668
 H336 H 1.08476 -0.17877 0.62478
 H337 H 1.14772 -0.04624 0.74266
 H338 H 1.11901 -0.01872 0.69230
 H339 H 1.16456 -0.09867 0.77537
 H340 H 1.14012 -0.20148 0.73366
 H341 H 1.06749 -0.12553 0.59161
 H342 H 1.08710 -0.02351 0.63614
 C343 C 0.30277 1.12488 1.11886
 C344 C 0.27701 1.13978 1.09731
 C345 C 0.24776 1.15570 1.11278
 C346 C 0.24338 1.15604 1.14971
 C347 C 0.26984 1.14078 1.17080
 C348 C 0.29962 1.12554 1.15554
 C349 C 0.33346 1.10786 1.10267
 C350 C 0.35961 1.09346 1.12423
 C351 C 0.38868 1.07718 1.10862
 C352 C 0.39094 1.07449 1.07188
 C353 C 0.36459 1.08900 1.05069
 C354 C 0.33588 1.10604 1.06592
 C355 C 0.32631 1.11084 1.17627
 C356 C 0.35589 1.09525 1.16088
 C357 C 0.28064 1.13791 1.06063
 C358 C 0.30951 1.12117 1.04519
 H359 H 0.32429 1.11134 1.20464
 H360 H 0.37583 1.08419 1.17781
 H361 H 0.26085 1.14922 1.04369
 H362 H 0.31120 1.12006 1.01681
 H363 H 0.22754 1.16596 1.09570
 H364 H 0.26801 1.14167 1.19917
 H365 H 0.40899 1.06579 1.12491
 H366 H 0.36678 1.08743 1.02241
 C367 C 0.29955 0.88109 0.88661
 C368 C 0.30161 0.87013 0.85148
 C369 C 0.27228 0.85465 0.83581
 C370 C 0.24134 0.84958 0.85522
 C371 C 0.23982 0.86015 0.89057
 C372 C 0.26880 0.87632 0.90633
 C373 C 0.33010 0.89806 0.90299
 C374 C 0.32775 0.90990 0.93781
 C375 C 0.35666 0.92665 0.95300
 C376 C 0.38792 0.93090 0.93381
 C377 C 0.39003 0.91835 0.89914
 C378 C 0.36102 0.90227 0.88343
 C379 C 0.26762 0.88811 0.94126
 C380 C 0.29654 0.90477 0.95669
 C381 C 0.33292 0.87493 0.83272
 C382 C 0.36219 0.89057 0.84849
 H383 H 0.24406 0.88465 0.95673
 H384 H 0.29447 0.91368 0.98362
 H385 H 0.33483 0.86649 0.80563
 H386 H 0.38586 0.89374 0.83312
 H387 H 0.27352 0.84622 0.80866
 H388 H 0.21590 0.85640 0.90544
 H389 H 0.35503 0.93597 0.97985
 H390 H 0.41396 0.92178 0.88421
 C391 C 0.69724 0.88145 1.12421
 C392 C 0.69541 0.84612 1.13458
 C393 C 0.72483 0.83036 1.15008
 C394 C 0.75548 0.85002 1.15578
 C395 C 0.75669 0.88549 1.14560
 C396 C 0.72776 0.90127 1.12949
 C397 C 0.66673 0.89797 1.10722
 C398 C 0.66902 0.93297 1.09595
 C399 C 0.64028 0.94833 1.07916
 C400 C 0.60915 0.92927 1.07420
 C401 C 0.60698 0.89438 1.08621
 C402 C 0.63595 0.87842 1.10238
 C403 C 0.72885 0.93637 1.11827
 C404 C 0.70001 0.95191 1.10163
 C405 C 0.66424 0.82733 1.12916
 C406 C 0.63495 0.84326 1.11351
 H407 H 0.75228 0.95188 1.12217
 H408 H 0.70198 0.97898 1.09317
 H409 H 0.66244 0.80010 1.13713
 H410 H 0.61142 0.82785 1.10987
 H411 H 0.72390 0.80305 1.15800
 H412 H 0.78045 0.90050 1.14958
 H413 H 0.64197 0.97525 1.07028
 H414 H 0.58314 0.87951 1.08223
 C415 C 0.69970 1.11508 0.87970
 C416 C 0.73065 1.09565 0.87534
 C417 C 0.75939 1.11134 0.85863
 C418 C 0.75744 1.14636 0.84703
 C419 C 0.72630 1.16551 0.85175
 C420 C 0.69720 1.14989 0.86782
 C421 C 0.66938 1.09874 0.89720
 C422 C 0.63826 1.11800 0.90104
 C423 C 0.60945 1.10231 0.91757
 C424 C 0.61191 1.06791 0.93085
 C425 C 0.64338 1.04903 0.92700
 C426 C 0.67213 1.06423 0.90987
 C427 C 0.66569 1.16836 0.87229
 C428 C 0.63665 1.15263 0.88848
 C429 C 0.73228 1.06105 0.88801
 C430 C 0.70356 1.04565 0.90513
 H431 H 0.66343 1.19520 0.86315
 H432 H 0.61281 1.16776 0.89136
 H433 H 0.75602 1.04581 0.88485
 H434 H 0.70596 1.01897 0.91468
 H435 H 0.78348 1.09667 0.85525
 H436 H 0.72471 1.19241 0.84258
 H437 H 0.58537 1.11704 0.92069
 H438 H 0.64532 1.02242 0.93690
 C439 C 0.11384 0.29865 0.11339
 C440 C 0.14451 0.30365 0.13306
 C441 C 0.16062 0.27457 0.14878
 C442 C 0.14584 0.24100 0.14540
 C443 C 0.11496 0.23635 0.12598
 C444 C 0.09898 0.26515 0.10954
 C445 C 0.09698 0.32908 0.09649
 C446 C 0.06675 0.32400 0.07623
 C447 C 0.05088 0.35298 0.06014
 C448 C 0.06458 0.38703 0.06477
 C449 C 0.09498 0.39160 0.08518
 C450 C 0.11142 0.36267 0.10090
 C451 C 0.06862 0.26114 0.08917
 C452 C 0.05291 0.29004 0.07260
 C453 C 0.15836 0.33759 0.13664
 C454 C 0.14200 0.36663 0.12096
 H455 H 0.05700 0.23543 0.08588
 H456 H 0.02966 0.28578 0.05692
 H457 H 0.18197 0.34176 0.15180
 H458 H 0.15344 0.39238 0.12450
 H459 H 0.18443 0.27795 0.16388
 H460 H 0.10381 0.21034 0.12336
 H461 H 0.02768 0.34900 0.04431
 H462 H 0.10596 0.41757 0.08871
 C463 C -0.12462 0.30151 -0.12397
 C464 C -0.10395 0.27176 -0.13061
 C465 C -0.11908 0.24265 -0.14698
 C466 C -0.15472 0.24291 -0.15619
 C467 C -0.17524 0.27281 -0.14920
 C468 C -0.16016 0.30242 -0.13333
 C469 C -0.10875 0.33219 -0.10666
 C470 C -0.12916 0.36224 -0.10043
 C471 C -0.11377 0.39140 -0.08400
 C472 C -0.07857 0.39005 -0.07316
 C473 C -0.05866 0.35965 -0.07952
 C474 C -0.07348 0.33078 -0.09653
 C475 C -0.17981 0.33287 -0.12656
 C476 C -0.16453 0.36233 -0.11055
 C477 C -0.06862 0.27156 -0.12048
 C478 C -0.05367 0.30056 -0.10360
 H479 H -0.20722 0.33396 -0.13373
 H480 H -0.18060 0.38529 -0.10585
 H481 H -0.05245 0.24874 -0.12546
 H482 H -0.02637 0.29934 -0.09606
 H483 H -0.10339 0.21946 -0.15192
 H484 H -0.20268 0.27302 -0.15638
 H485 H -0.12922 0.41474 -0.07901
 H486 H -0.03145 0.35866 -0.07164
 C487 C 0.11572 0.69859 -0.11858
 C488 C 0.12757 0.69655 -0.15344
 C489 C 0.14427 0.72572 -0.16847
 C490 C 0.14963 0.75638 -0.14861
 C491 C 0.13793 0.75784 -0.11361
 C492 C 0.12065 0.72911 -0.09854
 C493 C 0.09775 0.66822 -0.10277
 C494 C 0.08529 0.67059 -0.06818
 C495 C 0.06802 0.64180 -0.05334
 C496 C 0.06380 0.61051 -0.07252
 C497 C 0.07673 0.60839 -0.10708
 C498 C 0.09345 0.63739 -0.12249
 C499 C 0.10803 0.73036 -0.06391
 C500 C 0.09051 0.70163 -0.04903
 C501 C 0.12252 0.66539 -0.17247
 C502 C 0.10590 0.63625 -0.15720
 H503 H 0.11162 0.75378 -0.04822
 H504 H 0.08110 0.70367 -0.02228
 H505 H 0.13160 0.66346 -0.19936
 H506 H 0.10267 0.61268 -0.17274
 H507 H 0.15343 0.72453 -0.19539
 H508 H 0.14171 0.78158 -0.09842
 H509 H 0.05843 0.64353 -0.02662
 H510 H 0.07335 0.58445 -0.12205
 C511 C -0.11964 0.70041 0.12054
 C512 C -0.15457 0.69868 0.13197
 C513 C -0.16993 0.72838 0.14734
 C514 C -0.15035 0.75932 0.15184
 C515 C -0.11529 0.76052 0.14052
 C516 C -0.09987 0.73121 0.12454
 C517 C -0.10350 0.66944 0.10393
 C518 C -0.06889 0.67149 0.09168
 C519 C -0.05394 0.64224 0.07519
 C520 C -0.07317 0.61094 0.07149
 C521 C -0.10760 0.60908 0.08452
 C522 C -0.12307 0.63845 0.10042
 C523 C -0.06516 0.73210 0.11235
 C524 C -0.04997 0.70278 0.09604
 C525 C -0.17335 0.66727 0.12788
 C526 C -0.15782 0.63761 0.11252
 H527 H -0.04967 0.75571 0.11525
 H528 H -0.02320 0.70462 0.08680
 H529 H -0.20027 0.66558 0.13668
 H530 H -0.17322 0.61390 0.10989
 H531 H -0.19685 0.72735 0.15630
 H532 H -0.10028 0.78443 0.14373
 H533 H -0.02730 0.64373 0.06545
 H534 H -0.12259 0.58513 0.08148
 C535 C 1.12572 0.11708 0.69937
 C536 C 1.16223 0.11961 0.70209
 C537 C 1.17693 0.13617 0.73150
 C538 C 1.15540 0.15124 0.75780
 C539 C 1.11863 0.14869 0.75401
 C540 C 1.10378 0.13127 0.72527
 C541 C 1.11013 0.09919 0.66882
 C542 C 1.07362 0.09568 0.66681
 C543 C 1.05893 0.07831 0.63801
 C544 C 1.08037 0.06544 0.61085
 C545 C 1.11689 0.06958 0.61286
 C546 C 1.13199 0.08601 0.64220
 C547 C 1.06733 0.12749 0.72213
 C548 C 1.05251 0.10978 0.69351
 C549 C 1.18330 0.10574 0.67516
 C550 C 1.16844 0.08946 0.64562
 H551 H 1.05011 0.13818 0.74205
 H552 H 1.02429 0.10731 0.69215
 H553 H 1.21154 0.10764 0.67683
 H554 H 1.18564 0.07932 0.62540
 H555 H 1.20514 0.13858 0.73294
 H556 H 1.10133 0.15866 0.77422
 H557 H 1.03074 0.07544 0.63630
 H558 H 1.13340 0.05947 0.59203
 C559 C 0.88201 -0.11252 0.70023
 C560 C 0.84538 -0.11407 0.70189
 C561 C 0.82933 -0.12969 0.73116
 C562 C 0.84964 -0.14486 0.75833
 C563 C 0.88656 -0.14306 0.75576
 C564 C 0.90275 -0.12660 0.72714
 C565 C 0.89901 -0.09598 0.66963
 C566 C 0.93566 -0.09357 0.66854
 C567 C 0.95169 -0.07762 0.63958
 C568 C 0.93141 -0.06511 0.61142
 C569 C 0.89474 -0.06806 0.61259
 C570 C 0.87832 -0.08305 0.64200
 C571 C 0.93937 -0.12385 0.72499
 C572 C 0.95554 -0.10740 0.69628
 C573 C 0.82551 -0.10037 0.67400
 C574 C 0.84170 -0.08535 0.64446
 H575 H 0.95568 -0.13445 0.74570
 H576 H 0.98385 -0.10575 0.69567
 H577 H 0.79719 -0.10152 0.67488
 H578 H 0.82542 -0.07535 0.62344
 H579 H 0.80105 -0.13148 0.73173
 H580 H 0.90292 -0.15311 0.77670
 H581 H 0.97999 -0.07558 0.63854
 H582 H 0.87912 -0.05812 0.59100
 C583 C 1.11975 -0.12372 0.29982
 C584 C 1.12113 -0.16040 0.29751
 C585 C 1.13639 -0.17599 0.26783
 C586 C 1.15125 -0.15520 0.24082
 C587 C 1.15000 -0.11824 0.24423
 C588 C 1.13387 -0.10248 0.27327
 C589 C 1.10311 -0.10720 0.33060
 C590 C 1.10064 -0.07049 0.33223
 C591 C 1.08432 -0.05492 0.36121
 C592 C 1.07148 -0.07573 0.38889
 C593 C 1.07461 -0.11246 0.38727
 C594 C 1.08996 -0.12841 0.35779
 C595 C 1.13123 -0.06580 0.27605
 C596 C 1.11467 -0.05008 0.30492
 C597 C 1.10738 -0.18079 0.32504
 C598 C 1.09229 -0.16507 0.35478
 H599 H 1.14187 -0.04911 0.25563
 H600 H 1.11301 -0.02171 0.30597
 H601 H 1.10842 -0.20917 0.32367
 H602 H 1.08216 -0.18175 0.37547
 H603 H 1.13789 -0.20435 0.26667
 H604 H 1.15991 -0.10147 0.22351
 H605 H 1.08216 -0.02657 0.36262
 H606 H 1.06448 -0.12847 0.40851
 C607 C 0.88786 0.11983 0.30201
 C608 C 0.88593 0.15647 0.29940
 C609 C 0.86881 0.17159 0.27055
 C610 C 0.85259 0.15041 0.24472
 C611 C 0.85448 0.11350 0.24839
 C612 C 0.87249 0.09818 0.27656
 C613 C 0.90625 0.10381 0.33204
 C614 C 0.90910 0.06714 0.33401
 C615 C 0.92682 0.05205 0.36241
 C616 C 0.94060 0.07329 0.38923
 C617 C 0.93719 0.10996 0.38724
 C618 C 0.92046 0.12544 0.35828
 C619 C 0.87568 0.06157 0.27962
 C620 C 0.89389 0.04631 0.30774
 C621 C 0.90089 0.17729 0.32588
 C622 C 0.91764 0.16204 0.35495
 H623 H 0.86410 0.04455 0.26005
 H624 H 0.89584 0.01797 0.30907
 H625 H 0.89945 0.20563 0.32425
 H626 H 0.92859 0.17903 0.37490
 H627 H 0.86684 0.19992 0.26926
 H628 H 0.84347 0.09647 0.22852
 H629 H 0.92916 0.02373 0.36417
 H630 H 0.94801 0.12628 0.40784
 C631 C 0.11600 0.30024 -0.11865
 C632 C 0.10119 0.26665 -0.11538
 C633 C 0.11777 0.23803 -0.13153
 C634 C 0.14922 0.24290 -0.15005
 C635 C 0.16397 0.27656 -0.15282
 C636 C 0.14723 0.30549 -0.13743
 C637 C 0.09853 0.33049 -0.10202
 C638 C 0.11294 0.36417 -0.10584
 C639 C 0.09598 0.39291 -0.09030
 C640 C 0.06511 0.38806 -0.07058
 C641 C 0.05142 0.35391 -0.06658
 C642 C 0.06780 0.32513 -0.08254
 C643 C 0.16102 0.33952 -0.14044
 C644 C 0.14407 0.36839 -0.12507
 C645 C 0.07028 0.26238 -0.09584
 C646 C 0.05401 0.29108 -0.07949
 H647 H 0.18505 0.34390 -0.15492
 H648 H 0.15551 0.39421 -0.12815
 H649 H 0.05868 0.23660 -0.09298
 H650 H 0.03037 0.28660 -0.06440
 H651 H 0.10664 0.21196 -0.12933
 H652 H 0.18822 0.28013 -0.16719
 H653 H 0.10698 0.41895 -0.09332
 H654 H 0.02789 0.34968 -0.05127
 C655 C -0.12477 0.30155 0.12033
 C656 C -0.10442 0.27148 0.12654
 C657 C -0.11942 0.24292 0.14409
 C658 C -0.15463 0.24403 0.15486
 C659 C -0.17486 0.27418 0.14818
 C660 C -0.15988 0.30327 0.13120
 C661 C -0.10899 0.33176 0.10204
 C662 C -0.12899 0.36219 0.09646
 C663 C -0.11359 0.39104 0.07943
 C664 C -0.07879 0.38908 0.06738
 C665 C -0.05933 0.35819 0.07288
 C666 C -0.07414 0.32961 0.09052
 C667 C -0.17918 0.33404 0.12488
 C668 C -0.16395 0.36307 0.10798
 C669 C -0.06954 0.27048 0.11490
 C670 C -0.05470 0.29902 0.09706
 H671 H -0.20625 0.33575 0.13320
 H672 H -0.17971 0.38633 0.10378
 H673 H -0.05363 0.24740 0.11951
 H674 H -0.02774 0.29719 0.08844
 H675 H -0.10397 0.21952 0.14882
 H676 H -0.20197 0.27504 0.15655
 H677 H -0.12871 0.41474 0.07513
 H678 H -0.03242 0.35668 0.06406
 C679 C -0.11982 0.70226 -0.12145
 C680 C -0.09835 0.72923 -0.13428
 C681 C -0.11381 0.75874 -0.14997
 C682 C -0.15067 0.76215 -0.15184
 C683 C -0.17164 0.73477 -0.13809
 C684 C -0.15638 0.70465 -0.12351
 C685 C -0.10370 0.67094 -0.10541
 C686 C -0.12518 0.64342 -0.09364
 C687 C -0.10972 0.61361 -0.07861
 C688 C -0.07323 0.61191 -0.07422
 C689 C -0.05204 0.63982 -0.08576
 C690 C -0.06714 0.66922 -0.10194
 C691 C -0.17702 0.67672 -0.11116
 C692 C -0.16168 0.64651 -0.09674
 C693 C -0.06183 0.72633 -0.13081
 C694 C -0.04650 0.69697 -0.11465
 H695 H -0.20530 0.67817 -0.11278
 H696 H -0.17854 0.62554 -0.08764
 H697 H -0.04495 0.74705 -0.14044
 H698 H -0.01826 0.69590 -0.11224
 H699 H -0.09699 0.77971 -0.15916
 H700 H -0.19989 0.73597 -0.14016
 H701 H -0.12601 0.59224 -0.06932
 H702 H -0.02388 0.63838 -0.08247
 C703 C 0.11504 0.69594 0.11922
 C704 C 0.13652 0.69008 0.14858
 C705 C 0.15373 0.71863 0.16416
 C706 C 0.14994 0.75247 0.15000
 C707 C 0.12861 0.75792 0.12048
 C708 C 0.11079 0.72975 0.10512
 C709 C 0.09666 0.66614 0.10290
 C710 C 0.07479 0.67216 0.07393
 C711 C 0.05757 0.64377 0.05834
 C712 C 0.06251 0.60936 0.07108
 C713 C 0.08439 0.60386 0.10037
 C714 C 0.10140 0.63222 0.11649
 C715 C 0.08868 0.73471 0.07610
 C716 C 0.07081 0.70642 0.06089
 C717 C 0.14033 0.65581 0.16168
 C718 C 0.12318 0.62735 0.14581
 H719 H 0.08508 0.76070 0.06512
 H720 H 0.05389 0.71138 0.03862
 H721 H 0.15682 0.65092 0.18428
 H722 H 0.12700 0.60132 0.15661
 H723 H 0.17016 0.71466 0.18701
 H724 H 0.12558 0.78418 0.10990
 H725 H 0.04071 0.64849 0.03597
 H726 H 0.08824 0.57759 0.11060
 C727 C 0.30371 1.12569 0.88360
 C728 C 0.27012 1.12203 0.89816
 C729 C 0.24161 1.13789 0.88137
 C730 C 0.24649 1.15657 0.84992
 C731 C 0.28015 1.15985 0.83539
 C732 C 0.30905 1.14470 0.85241
 C733 C 0.33380 1.10902 0.90120
 C734 C 0.36749 1.11304 0.88700
 C735 C 0.39602 1.09702 0.90384
 C736 C 0.39083 1.07643 0.93418
 C737 C 0.35670 1.07240 0.94771
 C738 C 0.32821 1.08903 0.93165
 C739 C 0.34314 1.14806 0.83893
 C740 C 0.37188 1.13266 0.85604
 C741 C 0.26567 1.10231 0.92901
 C742 C 0.29421 1.08588 0.94535
 H743 H 0.34765 1.16273 0.81498
 H744 H 0.39773 1.13591 0.84476
 H745 H 0.23987 1.09929 0.94045
 H746 H 0.28962 1.07063 0.96893
 H747 H 0.21553 1.13531 0.89232
 H748 H 0.28373 1.17434 0.81115
 H749 H 0.42206 1.09999 0.89292
 H750 H 0.35220 1.05627 0.97070
 C751 C 0.29802 0.87894 1.11430
 C752 C 0.30003 0.84347 1.12415
 C753 C 0.27070 0.82738 1.13942
 C754 C 0.23993 0.84678 1.14553
 C755 C 0.23839 0.88232 1.13564
 C756 C 0.26729 0.89847 1.11969
 C757 C 0.32878 0.89602 1.09830
 C758 C 0.32656 0.93131 1.08797
 C759 C 0.35580 0.94742 1.07269
 C760 C 0.38734 0.92871 1.06838
 C761 C 0.38924 0.89341 1.07916
 C762 C 0.35986 0.87681 1.09383
 C763 C 0.26614 0.93377 1.10911
 C764 C 0.29522 0.94987 1.09334
 C765 C 0.33142 0.82497 1.11885
 C766 C 0.36088 0.84141 1.10411
 H767 H 0.24256 0.94909 1.11303
 H768 H 0.29323 0.97714 1.08552
 H769 H 0.33331 0.79763 1.12639
 H770 H 0.38463 0.82625 1.10069
 H771 H 0.27197 0.80007 1.14730
 H772 H 0.21460 0.89720 1.14015
 H773 H 0.35420 0.97468 1.06469
 H774 H 0.41333 0.87879 1.07563
 C775 C 0.69997 1.11493 1.12539
 C776 C 0.73387 1.10283 1.11768
 C777 C 0.76267 1.11918 1.13351
 C778 C 0.75763 1.14770 1.15630
 C779 C 0.72364 1.15970 1.16370
 C780 C 0.69458 1.14318 1.14846
 C781 C 0.66957 1.09789 1.10876
 C782 C 0.63568 1.10978 1.11665
 C783 C 0.60686 1.09359 1.10061
 C784 C 0.61180 1.06606 1.07638
 C785 C 0.64611 1.05472 1.06864
 C786 C 0.67503 1.07030 1.08499
 C787 C 0.66027 1.15435 1.15570
 C788 C 0.63132 1.13784 1.14017
 C789 C 0.73824 1.07486 1.09408
 C790 C 0.70932 1.05900 1.07785
 H791 H 0.65576 1.17604 1.17350
 H792 H 0.60531 1.14729 1.14644
 H793 H 0.76424 1.06533 1.08788
 H794 H 0.71386 1.03773 1.05956
 H795 H 0.78900 1.11016 1.12785
 H796 H 0.71996 1.18170 1.18135
 H797 H 0.58069 1.10280 1.10662
 H798 H 0.65042 1.03393 1.04975
 C799 C 0.69713 0.88261 0.87907
 C800 C 0.72789 0.87698 0.89843
 C801 C 0.75647 0.86068 0.88218
 C802 C 0.75468 0.85064 0.84670
 C803 C 0.72386 0.85678 0.82745
 C804 C 0.69476 0.87246 0.84369
 C805 C 0.66688 0.89953 0.89618
 C806 C 0.63581 0.90454 0.87714
 C807 C 0.60697 0.92032 0.89374
 C808 C 0.60950 0.93167 0.92884
 C809 C 0.64101 0.92673 0.94735
 C810 C 0.66965 0.91038 0.93128
 C811 C 0.66334 0.87819 0.82538
 C812 C 0.63431 0.89377 0.84188
 C813 C 0.72954 0.88797 0.93358
 C814 C 0.70096 0.90454 0.94968
 H815 H 0.66112 0.87043 0.79812
 H816 H 0.61055 0.89756 0.82685
 H817 H 0.75318 0.88385 0.94872
 H818 H 0.70333 0.91274 0.97681
 H819 H 0.78039 0.85635 0.89687
 H820 H 0.72252 0.84902 0.80011
 H821 H 0.58286 0.92427 0.87929
 H822 H 0.64307 0.93511 0.97447
   
