data_POSCAR
  _audit_creation_date              2014-09-24
  _audit_creation_method            'ToBaCCo'
  _symmetry_space_group_name_H-M    'P1'
  _symmetry_Int_Tables_number       1
  _symmetry_cell_setting            triclinic
  loop_
  _symmetry_equiv_pos_as_xyz
 x,y,z
_cell_length_a 50.8702
_cell_length_b 50.8474
_cell_length_c 58.5669
_cell_angle_alpha 90.060300
_cell_angle_beta 89.970000
_cell_angle_gamma 119.922600
loop_
  _atom_site_label
  _atom_site_type_symbol
  _atom_site_fract_x
  _atom_site_fract_y
  _atom_site_fract_z
O1 O 0.02884 0.53685 1.27197
 O2 O -0.02989 0.50728 1.22722
 O3 O -0.03020 0.50700 1.27170
 O4 O 0.02913 0.53708 1.22748
 O5 O 0.02949 0.49377 1.22737
 O6 O -0.02983 0.46368 1.27158
 O7 O -0.02953 0.46397 1.22710
 O8 O 0.02921 0.49354 1.27186
 Cu9 Cu -0.00057 0.52642 1.24961
 Cu10 Cu -0.00013 0.47437 1.24947
 C11 C 0.03891 0.52018 1.27948
 C12 C -0.03960 0.48065 1.21958
 C13 C -0.04000 0.48027 1.27912
 C14 C 0.03928 0.52048 1.21994
 O15 O 0.46299 0.49288 1.27290
 O16 O 0.49288 0.46375 1.22824
 O17 O 0.49287 0.46362 1.27272
 O18 O 0.46301 0.49301 1.22840
 O19 O 0.50628 0.53661 1.22848
 O20 O 0.53614 0.50722 1.27280
 O21 O 0.53614 0.50735 1.22831
 O22 O 0.50625 0.53647 1.27298
 Cu23 Cu 0.47357 0.47392 1.25056
 Cu24 Cu 0.52556 0.52631 1.25065
 C25 C 0.47958 0.51958 1.28051
 C26 C 0.51954 0.48064 1.22072
 C27 C 0.51954 0.48046 1.28024
 C28 C 0.47963 0.51975 1.22093
 O29 O 0.50629 0.97018 1.27314
 O30 O 0.53633 1.02923 1.22863
 O31 O 0.53613 1.02925 1.27313
 O32 O 0.50642 0.97015 1.22864
 O33 O 0.46316 0.97057 1.22854
 O34 O 0.49285 1.02965 1.27301
 O35 O 0.49307 1.02964 1.22851
 O36 O 0.46303 0.97058 1.27304
 Cu37 Cu 0.52566 0.99966 1.25090
 Cu38 Cu 0.47366 1.00015 1.25076
 C39 C 0.47961 0.96044 1.28064
 C40 C 0.51976 1.03938 1.22104
 C41 C 0.51948 1.03939 1.28060
 C42 C 0.47979 0.96042 1.22106
 O43 O 0.97099 0.50730 0.72738
 O44 O 1.03003 0.53708 0.77183
 O45 O 1.03003 0.53709 0.72732
 O46 O 0.97097 0.50721 0.77188
 O47 O 0.97133 0.46391 0.77180
 O48 O 1.03038 0.49377 0.72727
 O49 O 1.03040 0.49377 0.77177
 O50 O 0.97134 0.46398 0.72730
 Cu51 Cu 1.00047 0.52654 0.74961
 Cu52 Cu 1.00090 0.47449 0.74953
 C53 C 0.96124 0.48063 0.71981
 C54 C 1.04015 0.52045 0.77933
 C55 C 1.04014 0.52045 0.71974
 C56 C 0.96120 0.48052 0.77938
 O57 O 0.49288 0.46308 0.72769
 O58 O 0.46341 0.49275 0.77213
 O59 O 0.46342 0.49273 0.72764
 O60 O 0.49290 0.46314 0.77218
 O61 O 0.53636 0.50655 0.77218
 O62 O 0.50688 0.53614 0.72765
 O63 O 0.50686 0.53617 0.77215
 O64 O 0.53635 0.50648 0.72769
 Cu65 Cu 0.47377 0.47354 0.74991
 Cu66 Cu 0.52600 0.52572 0.74991
 C67 C 0.51957 0.47978 0.72016
 C68 C 0.48018 0.51944 0.77967
 C69 C 0.48020 0.51942 0.72011
 C70 C 0.51959 0.47987 0.77973
 O71 O 0.53613 0.02900 0.72750
 O72 O 0.50660 -0.03012 0.77185
 O73 O 0.50658 -0.03006 0.72736
 O74 O 0.53613 0.02893 0.77199
 O75 O 0.49270 0.02903 0.77203
 O76 O 0.46316 -0.02997 0.72741
 O77 O 0.46317 -0.03003 0.77190
 O78 O 0.49270 0.02909 0.72754
 Cu79 Cu 0.52574 -0.00057 0.74967
 Cu80 Cu 0.47355 -0.00046 0.74972
 C81 C 0.51939 0.03899 0.72001
 C82 C 0.47992 -0.04001 0.77939
 C83 C 0.47990 -0.03994 0.71982
 C84 C 0.51939 0.03890 0.77957
 O85 O 0.37936 0.66003 0.98104
 O86 O 0.37816 0.71005 0.97408
 C87 C 0.36376 0.72379 0.96977
 O88 O 0.34056 0.71969 0.98084
 O89 O 0.29065 0.66853 0.97376
 C90 C 0.27694 0.64040 0.96951
 O91 O 0.28101 0.62134 0.98069
 O92 O 0.33225 0.62254 0.97392
 C93 C 0.36041 0.63693 0.96980
 O94 O 0.37780 0.66826 1.02647
 O95 O 0.37919 0.71957 1.01951
 C96 C 0.36012 0.72376 1.03059
 O97 O 0.33203 0.71012 1.02626
 O98 O 0.28085 0.66024 1.01917
 C99 C 0.27664 0.63706 1.03033
 O100 O 0.29033 0.62257 1.02615
 O101 O 0.34026 0.62115 1.01938
 C102 C 0.36333 0.64012 1.03064
 Cr103 Cr 0.37694 0.68864 1.00027
 Cr104 Cr 0.31187 0.68880 1.00001
 Cr105 Cr 0.31181 0.62359 1.00004
 O106 O 0.33354 0.66701 1.00011
 O107 O 0.62137 0.34005 0.98104
 O108 O 0.62250 0.28992 0.97429
 C109 C 0.63696 0.27624 0.96991
 O110 O 0.66029 0.28052 0.98089
 O111 O 0.71029 0.33168 0.97396
 C112 C 0.72391 0.35979 0.96961
 O113 O 0.71971 0.37886 0.98069
 O114 O 0.66845 0.37771 0.97409
 C115 C 0.64031 0.36324 0.96988
 O116 O 0.62290 0.33219 1.02653
 O117 O 0.62151 0.28080 1.01979
 C118 C 0.64054 0.27648 1.03078
 O119 O 0.66862 0.29000 1.02636
 O120 O 0.71986 0.33992 1.01943
 C121 C 0.72423 0.36326 1.03048
 O122 O 0.71065 0.37783 1.02621
 O123 O 0.66065 0.37922 1.01960
 C124 C 0.63744 0.36034 1.03076
 Cr125 Cr 0.62379 0.31159 1.00041
 Cr126 Cr 0.68891 0.31139 1.00017
 Cr127 Cr 0.68900 0.37669 1.00015
 O128 O 0.66723 0.33322 1.00024
 O129 O 0.66009 0.37860 0.51905
 O130 O 0.71000 0.37720 0.52595
 C131 C 0.72370 0.36273 0.53016
 O132 O 0.71951 0.33953 0.51899
 O133 O 0.66828 0.28968 0.52599
 C134 C 0.64015 0.27603 0.53022
 O135 O 0.62115 0.28019 0.51906
 O136 O 0.62248 0.33149 0.52598
 C137 C 0.63693 0.35964 0.53021
 O138 O 0.66829 0.37721 0.47361
 O139 O 0.71947 0.37836 0.48050
 C140 C 0.72353 0.35928 0.46931
 O141 O 0.70985 0.33115 0.47357
 O142 O 0.65993 0.27999 0.48057
 C143 C 0.63678 0.27587 0.46941
 O144 O 0.62240 0.28966 0.47362
 O145 O 0.62116 0.33968 0.48054
 C146 C 0.64016 0.36281 0.46938
 Cr147 Cr 0.68862 0.37615 0.49978
 Cr148 Cr 0.68855 0.31094 0.49978
 Cr149 Cr 0.62348 0.31110 0.49980
 O150 O 0.66688 0.33273 0.49979
 O151 O 0.33996 0.62131 0.51926
 O152 O 0.28994 0.62257 0.52614
 C153 C 0.27631 0.63708 0.53050
 O154 O 0.28054 0.66035 0.51945
 O155 O 0.33179 0.71036 0.52615
 C156 C 0.35992 0.72398 0.53039
 O157 O 0.37888 0.71969 0.51925
 O158 O 0.37773 0.66843 0.52596
 C159 C 0.36326 0.64031 0.53028
 O160 O 0.33175 0.62248 0.47378
 O161 O 0.28049 0.62126 0.48067
 C162 C 0.27614 0.64025 0.46963
 O163 O 0.28972 0.66837 0.47395
 O164 O 0.33970 0.71965 0.48065
 C165 C 0.36293 0.72393 0.46952
 O166 O 0.37747 0.71031 0.47375
 O167 O 0.37883 0.66029 0.48045
 C168 C 0.35984 0.63698 0.46942
 Cr169 Cr 0.31139 0.62362 0.49996
 Cr170 Cr 0.31130 0.68883 0.50005
 Cr171 Cr 0.37651 0.68882 0.49986
 O172 O 0.33307 0.66709 0.49995
 C173 C 0.46865 0.53022 0.29709
 C174 C 0.45898 0.53961 0.31190
 C175 C 0.44750 0.55073 0.32969
 C176 C 0.44199 0.53780 0.35149
 C177 C 0.43099 0.54864 0.36883
 C178 C 0.42532 0.57261 0.36461
 C179 C 0.43087 0.58542 0.34261
 C180 C 0.44190 0.57455 0.32529
 C181 C 0.41374 0.58422 0.38307
 C182 C 0.39140 0.59212 0.37847
 C183 C 0.38046 0.60292 0.39590
 C184 C 0.39170 0.60600 0.41814
 C185 C 0.41395 0.59827 0.42288
 C186 C 0.42491 0.58745 0.40549
 C187 C 0.38037 0.61701 0.43612
 C188 C 0.37095 0.62616 0.45128
 H189 H 0.44616 0.51929 0.35508
 H190 H 0.42656 0.53802 0.38548
 H191 H 0.42711 0.60414 0.33888
 H192 H 0.44617 0.58480 0.30850
 H193 H 0.38208 0.58953 0.36146
 H194 H 0.36317 0.60876 0.39204
 H195 H 0.42288 0.60065 0.44002
 H196 H 0.44239 0.58196 0.40953
 C197 C 0.46866 0.93887 0.29718
 C198 C 0.45903 0.91983 0.31196
 C199 C 0.44767 0.89725 0.32973
 C200 C 0.44015 0.90399 0.35109
 C201 C 0.42938 0.88222 0.36844
 C202 C 0.42598 0.85334 0.36465
 C203 C 0.43351 0.84674 0.34308
 C204 C 0.44429 0.86857 0.32576
 C205 C 0.41475 0.83026 0.38315
 C206 C 0.39421 0.79955 0.37832
 C207 C 0.38366 0.77790 0.39577
 C208 C 0.39350 0.78661 0.41825
 C209 C 0.41394 0.81707 0.42323
 C210 C 0.42450 0.83877 0.40582
 C211 C 0.38263 0.76434 0.43624
 C212 C 0.37360 0.74582 0.45139
 H213 H 0.44260 0.92609 0.35433
 H214 H 0.42340 0.88786 0.38473
 H215 H 0.43151 0.82488 0.33972
 H216 H 0.45014 0.86313 0.30931
 H217 H 0.38599 0.79234 0.36111
 H218 H 0.36778 0.75439 0.39173
 H219 H 0.42177 0.82406 0.44056
 H220 H 0.44060 0.86213 0.41005
 C221 C 0.06161 0.53163 0.29704
 C222 C 0.08058 0.54124 0.31187
 C223 C 0.10308 0.55270 0.32969
 C224 C 0.09853 0.56566 0.34931
 C225 C 0.12025 0.57666 0.36669
 C226 C 0.14688 0.57485 0.36469
 C227 C 0.15127 0.56184 0.34486
 C228 C 0.12950 0.55083 0.32750
 C229 C 0.16990 0.58641 0.38321
 C230 C 0.20107 0.60240 0.37803
 C231 C 0.22270 0.61332 0.39550
 C232 C 0.21348 0.60840 0.41837
 C233 C 0.18255 0.59250 0.42370
 C234 C 0.16089 0.58158 0.40627
 C235 C 0.23572 0.61969 0.43637
 C236 C 0.25423 0.62910 0.45152
 H237 H 0.07820 0.56730 0.35115
 H238 H 0.11639 0.58691 0.38159
 H239 H 0.17133 0.55977 0.34293
 H240 H 0.13321 0.54076 0.31241
 H241 H 0.20873 0.60682 0.36047
 H242 H 0.24658 0.62568 0.39118
 H243 H 0.17517 0.58848 0.44135
 H244 H 0.13711 0.56901 0.41082
 C245 C 0.53112 0.46907 0.29757
 C246 C 0.54081 0.45954 0.31220
 C247 C 0.55234 0.44821 0.32973
 C248 C 0.58061 0.46736 0.33967
 C249 C 0.59171 0.45646 0.35686
 C250 C 0.57462 0.42622 0.36436
 C251 C 0.54625 0.40713 0.35421
 C252 C 0.53521 0.41807 0.33701
 C253 C 0.58625 0.41472 0.38278
 C254 C 0.56665 0.39557 0.39991
 C255 C 0.57765 0.38494 0.41736
 C256 C 0.60833 0.39326 0.41793
 C257 C 0.62800 0.41223 0.40095
 C258 C 0.61706 0.42291 0.38348
 C259 C 0.61964 0.38249 0.43600
 C260 C 0.62905 0.37349 0.45122
 H261 H 0.59401 0.49076 0.33421
 H262 H 0.61344 0.47182 0.36454
 H263 H 0.53275 0.38365 0.35941
 H264 H 0.51332 0.40304 0.32939
 H265 H 0.54291 0.38919 0.40001
 H266 H 0.56225 0.37035 0.43047
 H267 H 0.65179 0.41875 0.40120
 H268 H 0.63262 0.43729 0.37039
 C269 C 0.53029 0.06097 0.29713
 C270 C 0.53976 0.08002 0.31191
 C271 C 0.55089 0.10259 0.32967
 C272 C 0.53257 0.09924 0.34851
 C273 C 0.54337 0.12102 0.36587
 C274 C 0.57269 0.14649 0.36459
 C275 C 0.59091 0.14969 0.34553
 C276 C 0.58007 0.12785 0.32819
 C277 C 0.58422 0.16954 0.38309
 C278 C 0.60123 0.20067 0.37790
 C279 C 0.61198 0.22233 0.39536
 C280 C 0.60591 0.21318 0.41819
 C281 C 0.58906 0.18229 0.42353
 C282 C 0.57827 0.16059 0.40611
 C283 C 0.61690 0.23544 0.43617
 C284 C 0.62602 0.25397 0.45131
 H285 H 0.50992 0.07981 0.34978
 H286 H 0.52865 0.11813 0.38016
 H287 H 0.61371 0.16883 0.34419
 H288 H 0.59447 0.13061 0.31370
 H289 H 0.60586 0.20828 0.36034
 H290 H 0.62495 0.24620 0.39104
 H291 H 0.58431 0.17496 0.44116
 H292 H 0.56560 0.13680 0.41066
 C293 C 0.93707 0.46862 0.29645
 C294 C 0.91791 0.45884 0.31111
 C295 C 0.89518 0.44719 0.32871
 C296 C 0.88628 0.46623 0.33923
 C297 C 0.86447 0.45503 0.35654
 C298 C 0.85129 0.42459 0.36357
 C299 C 0.86032 0.40560 0.35283
 C300 C 0.88213 0.41686 0.33551
 C301 C 0.82840 0.41276 0.38215
 C302 C 0.82897 0.39316 0.39883
 C303 C 0.80757 0.38222 0.41642
 C304 C 0.78532 0.39068 0.41757
 C305 C 0.78449 0.41010 0.40103
 C306 C 0.80589 0.42110 0.38343
 C307 C 0.76344 0.37957 0.43577
 C308 C 0.74518 0.37028 0.45107
 H309 H 0.89633 0.48979 0.33415
 H310 H 0.85827 0.47029 0.36469
 H311 H 0.85031 0.38198 0.35766
 H312 H 0.88882 0.40191 0.32744
 H313 H 0.84626 0.38666 0.39847
 H314 H 0.80845 0.36726 0.42918
 H315 H 0.76730 0.41673 0.40174
 H316 H 0.80463 0.43584 0.37068
 C317 C 0.53110 0.46937 1.20321
 C318 C 0.54075 0.45994 1.18842
 C319 C 0.55220 0.44873 1.17067
 C320 C 0.54946 0.42004 1.17264
 C321 C 0.56036 0.40905 1.15531
 C322 C 0.57414 0.42664 1.13574
 C323 C 0.57685 0.45550 1.13396
 C324 C 0.56595 0.46644 1.15131
 C325 C 0.58550 0.41491 1.11721
 C326 C 0.58136 0.41973 1.09415
 C327 C 0.59199 0.40864 1.07672
 C328 C 0.60691 0.39259 1.08207
 C329 C 0.61117 0.38767 1.10494
 C330 C 0.60054 0.39873 1.12241
 C331 C 0.61778 0.38116 1.06407
 C332 C 0.62680 0.37163 1.04890
 H333 H 0.53877 0.40609 1.18752
 H334 H 0.55759 0.38661 1.15706
 H335 H 0.58770 0.46976 1.11926
 H336 H 0.56826 0.48872 1.14963
 H337 H 0.56953 0.43172 1.08958
 H338 H 0.58848 0.41249 1.05908
 H339 H 0.62275 0.37535 1.10928
 H340 H 0.60442 0.39497 1.13997
 C341 C 0.93895 0.46986 1.20295
 C342 C 0.92000 0.46038 1.18810
 C343 C 0.89753 0.44917 1.17027
 C344 C 0.90507 0.46195 1.14843
 C345 C 0.88333 0.45109 1.13105
 C346 C 0.85369 0.42725 1.13530
 C347 C 0.84632 0.41458 1.15733
 C348 C 0.86812 0.42548 1.17468
 C349 C 0.83060 0.41568 1.11681
 C350 C 0.80044 0.40806 1.12136
 C351 C 0.77878 0.39731 1.10391
 C352 C 0.78694 0.39401 1.08171
 C353 C 0.81685 0.40146 1.07703
 C354 C 0.83854 0.41222 1.09444
 C355 C 0.76469 0.38309 1.06372
 C356 C 0.74616 0.37400 1.04858
 H357 H 0.92774 0.48037 1.14484
 H358 H 0.88960 0.46159 1.11437
 H359 H 0.82383 0.39597 1.16107
 H360 H 0.86206 0.41536 1.19151
 H361 H 0.79370 0.41082 1.13832
 H362 H 0.75571 0.39170 1.10771
 H363 H 0.82339 0.39890 1.05992
 H364 H 0.86145 0.41749 1.09046
 C365 C 0.53139 0.06219 1.20357
 C366 C 0.54117 0.08125 1.18880
 C367 C 0.55283 0.10386 1.17106
 C368 C 0.54256 0.12468 1.16910
 C369 C 0.55371 0.14647 1.15175
 C370 C 0.57529 0.14770 1.13608
 C371 C 0.58552 0.12670 1.13824
 C372 C 0.57436 0.10495 1.15561
 C373 C 0.58697 0.17066 1.11751
 C374 C 0.59156 0.16279 1.09541
 C375 C 0.60248 0.18437 1.07792
 C376 C 0.60898 0.21409 1.08225
 C377 C 0.60451 0.22217 1.10416
 C378 C 0.59357 0.20062 1.12168
 C379 C 0.62017 0.23624 1.06418
 C380 C 0.62950 0.25467 1.04897
 H381 H 0.52583 0.12398 1.18091
 H382 H 0.54509 0.16204 1.15037
 H383 H 0.60241 0.12731 1.12666
 H384 H 0.58253 0.08900 1.15700
 H385 H 0.58631 0.13984 1.09156
 H386 H 0.60576 0.17784 1.06101
 H387 H 0.60954 0.24513 1.10772
 H388 H 0.59064 0.20749 1.13856
 C389 C 0.46813 0.53107 1.20349
 C390 C 0.45857 0.54052 1.18870
 C391 C 0.44727 0.55173 1.17092
 C392 C 0.44564 0.57811 1.17436
 C393 C 0.43493 0.58915 1.15697
 C394 C 0.42575 0.57391 1.13589
 C395 C 0.42740 0.54735 1.13264
 C396 C 0.43809 0.53635 1.15005
 C397 C 0.41464 0.58573 1.11732
 C398 C 0.42321 0.58536 1.09452
 C399 C 0.41275 0.59647 1.07704
 C400 C 0.39361 0.60809 1.08208
 C401 C 0.38496 0.60859 1.10469
 C402 C 0.39541 0.59750 1.12221
 C403 C 0.38285 0.61945 1.06403
 C404 C 0.37391 0.62892 1.04882
 H405 H 0.45278 0.59024 1.19043
 H406 H 0.43428 0.60985 1.15989
 H407 H 0.42012 0.53489 1.11672
 H408 H 0.43920 0.51586 1.14723
 H409 H 0.43831 0.57683 1.09025
 H410 H 0.41965 0.59607 1.05959
 H411 H 0.37008 0.61746 1.10876
 H412 H 0.38813 0.59775 1.13955
 C413 C 0.06215 0.53206 1.20256
 C414 C 0.08122 0.54168 1.18783
 C415 C 0.10381 0.55303 1.17012
 C416 C 0.09862 0.56431 1.14988
 C417 C 0.12037 0.57502 1.13253
 C418 C 0.14763 0.57458 1.13521
 C419 C 0.15269 0.56329 1.15567
 C420 C 0.13088 0.55257 1.17300
 C421 C 0.17061 0.58569 1.11670
 C422 C 0.20172 0.60312 1.12182
 C423 C 0.22331 0.61356 1.10434
 C424 C 0.21410 0.60670 1.08156
 C425 C 0.18323 0.58937 1.07629
 C426 C 0.16161 0.57893 1.09373
 C427 C 0.23629 0.61746 1.06357
 C428 C 0.25477 0.62643 1.04842
 H429 H 0.07776 0.56482 1.14751
 H430 H 0.11600 0.58395 1.11711
 H431 H 0.17327 0.56231 1.15813
 H432 H 0.13507 0.54378 1.18858
 H433 H 0.20932 0.60901 1.13931
 H434 H 0.24716 0.62704 1.10859
 H435 H 0.17588 0.58387 1.05871
 H436 H 0.13787 0.56522 1.08927
 C437 C 0.46830 0.93764 1.20358
 C438 C 0.45865 0.91863 1.18878
 C439 C 0.44713 0.89613 1.17098
 C440 C 0.43154 0.89928 1.15247
 C441 C 0.42053 0.87759 1.13504
 C442 C 0.42497 0.85242 1.13592
 C443 C 0.44059 0.84940 1.15465
 C444 C 0.45160 0.87114 1.17205
 C445 C 0.41346 0.82950 1.11733
 C446 C 0.39999 0.79837 1.12235
 C447 C 0.38913 0.77683 1.10481
 C448 C 0.39162 0.78612 1.08204
 C449 C 0.40500 0.81701 1.07687
 C450 C 0.41585 0.83858 1.09437
 C451 C 0.38045 0.76398 1.06398
 C452 C 0.37114 0.74556 1.04877
 H453 H 0.42789 0.91850 1.15151
 H454 H 0.40824 0.88033 1.12102
 H455 H 0.44469 0.83049 1.15566
 H456 H 0.46372 0.86854 1.18627
 H457 H 0.39748 0.79065 1.13986
 H458 H 0.37874 0.75296 1.10900
 H459 H 0.40712 0.82444 1.05929
 H460 H 0.42647 0.86238 1.08994
 C461 C 0.53091 0.46832 0.70269
 C462 C 0.54033 0.45871 0.68790
 C463 C 0.55142 0.44727 0.67010
 C464 C 0.53653 0.43894 0.64902
 C465 C 0.54733 0.42797 0.63164
 C466 C 0.57320 0.42518 0.63514
 C467 C 0.58797 0.43356 0.65643
 C468 C 0.57714 0.44455 0.67378
 C469 C 0.58473 0.41365 0.61664
 C470 C 0.59527 0.39341 0.62156
 C471 C 0.60598 0.38247 0.60409
 C472 C 0.60633 0.39162 0.58151
 C473 C 0.59597 0.41179 0.57646
 C474 C 0.58523 0.42274 0.59389
 C475 C 0.61721 0.38028 0.56351
 C476 C 0.62626 0.37082 0.54834
 H477 H 0.51655 0.44088 0.64602
 H478 H 0.53523 0.42132 0.61556
 H479 H 0.60814 0.43203 0.65954
 H480 H 0.58888 0.45102 0.69003
 H481 H 0.59482 0.38571 0.63886
 H482 H 0.61388 0.36679 0.60817
 H483 H 0.59623 0.41908 0.55904
 H484 H 0.57766 0.43861 0.58961
 C485 C 0.53078 0.06178 0.70257
 C486 C 0.54031 0.08078 0.68780
 C487 C 0.55161 0.10328 0.67003
 C488 C 0.57526 0.13269 0.67457
 C489 C 0.58638 0.15447 0.65723
 C490 C 0.57399 0.14707 0.63511
 C491 C 0.55017 0.11746 0.63076
 C492 C 0.53908 0.09573 0.64812
 C493 C 0.58590 0.17009 0.61663
 C494 C 0.58979 0.16205 0.59441
 C495 C 0.60093 0.18369 0.57699
 C496 C 0.60830 0.21362 0.58153
 C497 C 0.60456 0.22188 0.60357
 C498 C 0.59344 0.20027 0.62103
 C499 C 0.61962 0.23579 0.56353
 C500 C 0.62903 0.25423 0.54836
 H501 H 0.58518 0.13874 0.69147
 H502 H 0.60497 0.17696 0.66104
 H503 H 0.53989 0.11119 0.61399
 H504 H 0.52071 0.07304 0.64445
 H505 H 0.58458 0.13911 0.59056
 H506 H 0.60383 0.17708 0.55999
 H507 H 0.61012 0.24498 0.60724
 H508 H 0.59034 0.20706 0.63789
 C509 C 0.93847 0.46917 0.70234
 C510 C 0.91948 0.45965 0.68754
 C511 C 0.89697 0.44843 0.66975
 C512 C 0.90527 0.45877 0.64734
 C513 C 0.88349 0.44789 0.63000
 C514 C 0.85307 0.42650 0.63488
 C515 C 0.84495 0.41627 0.65748
 C516 C 0.86678 0.42717 0.67480
 C517 C 0.82994 0.41492 0.61645
 C518 C 0.80078 0.41068 0.62036
 C519 C 0.77911 0.39996 0.60293
 C520 C 0.78627 0.39333 0.58140
 C521 C 0.81518 0.39739 0.57736
 C522 C 0.83689 0.40811 0.59475
 C523 C 0.76405 0.38247 0.56342
 C524 C 0.74556 0.37343 0.54827
 H525 H 0.92857 0.47529 0.64327
 H526 H 0.89037 0.45650 0.61284
 H527 H 0.82180 0.39955 0.66172
 H528 H 0.86014 0.41897 0.69209
 H529 H 0.79487 0.41607 0.63679
 H530 H 0.75682 0.39698 0.60622
 H531 H 0.82093 0.39223 0.56077
 H532 H 0.85899 0.41075 0.59130
 C533 C 0.46883 0.53085 0.70262
 C534 C 0.45935 0.54041 0.68782
 C535 C 0.44814 0.55176 0.67004
 C536 C 0.44483 0.57710 0.67401
 C537 C 0.43413 0.58823 0.65668
 C538 C 0.42661 0.57415 0.63511
 C539 C 0.42997 0.54864 0.63131
 C540 C 0.44065 0.53754 0.64867
 C541 C 0.41542 0.58605 0.61662
 C542 C 0.42518 0.58730 0.59395
 C543 C 0.41461 0.59843 0.57654
 C544 C 0.39413 0.60845 0.58152
 C545 C 0.38429 0.60734 0.60400
 C546 C 0.39486 0.59623 0.62145
 C547 C 0.38319 0.61978 0.56354
 C548 C 0.37407 0.62920 0.54839
 H549 H 0.45065 0.58834 0.69048
 H550 H 0.43217 0.60813 0.66005
 H551 H 0.42399 0.53705 0.61501
 H552 H 0.44304 0.51786 0.64542
 H553 H 0.44130 0.58003 0.58972
 H554 H 0.42244 0.59926 0.55921
 H555 H 0.36838 0.61495 0.60804
 H556 H 0.38662 0.59521 0.63866
 C557 C 0.46911 0.93853 0.70322
 C558 C 0.45959 0.91954 0.68838
 C559 C 0.44829 0.89704 0.67054
 C560 C 0.46144 0.90434 0.64880
 C561 C 0.45040 0.88261 0.63139
 C562 C 0.42601 0.85322 0.63550
 C563 C 0.41299 0.84608 0.65744
 C564 C 0.42407 0.86787 0.67482
 C565 C 0.41416 0.83018 0.61696
 C566 C 0.40564 0.79977 0.62148
 C567 C 0.39457 0.77814 0.60399
 C568 C 0.39185 0.78659 0.58176
 C569 C 0.40022 0.81676 0.57710
 C570 C 0.41130 0.83842 0.59455
 C571 C 0.38053 0.76437 0.56373
 C572 C 0.37109 0.74587 0.54855
 H573 H 0.48026 0.92683 0.64531
 H574 H 0.46117 0.88870 0.61479
 H575 H 0.39396 0.82380 0.66106
 H576 H 0.41365 0.86199 0.69157
 H577 H 0.40792 0.79279 0.63848
 H578 H 0.38824 0.75487 0.60778
 H579 H 0.39812 0.82353 0.55997
 H580 H 0.41727 0.86153 0.59057
 C581 C 0.06168 0.53132 0.70316
 C582 C 0.08067 0.54086 0.68833
 C583 C 0.10318 0.55211 0.67051
 C584 C 0.09470 0.55323 0.64796
 C585 C 0.11645 0.56394 0.63058
 C586 C 0.14704 0.57369 0.63552
 C587 C 0.15535 0.57255 0.65827
 C588 C 0.13354 0.56182 0.67562
 C589 C 0.17013 0.58492 0.61703
 C590 C 0.19916 0.61016 0.62063
 C591 C 0.22080 0.62075 0.60317
 C592 C 0.21376 0.60627 0.58189
 C593 C 0.18499 0.58112 0.57814
 C594 C 0.16331 0.57051 0.59557
 C595 C 0.23598 0.61723 0.56386
 C596 C 0.25446 0.62633 0.54867
 H597 H 0.07128 0.54586 0.64380
 H598 H 0.10939 0.56491 0.61331
 H599 H 0.17861 0.57953 0.66259
 H600 H 0.14035 0.56097 0.69301
 H601 H 0.20499 0.62198 0.63685
 H602 H 0.24298 0.64029 0.60623
 H603 H 0.17931 0.56968 0.56176
 H604 H 0.14133 0.55079 0.59235
 C605 C 0.46880 0.53085 0.79716
 C606 C 0.45927 0.54031 0.81198
 C607 C 0.44794 0.55145 0.82982
 C608 C 0.44255 0.53849 0.85159
 C609 C 0.43164 0.54932 0.86899
 C610 C 0.42597 0.57329 0.86482
 C611 C 0.43142 0.58614 0.84285
 C612 C 0.44235 0.57528 0.82547
 C613 C 0.41445 0.58483 0.88332
 C614 C 0.39192 0.59248 0.87882
 C615 C 0.38098 0.60317 0.89631
 C616 C 0.39243 0.60638 0.91848
 C617 C 0.41489 0.59891 0.92312
 C618 C 0.42585 0.58820 0.90567
 C619 C 0.38108 0.61723 0.93650
 C620 C 0.37161 0.62625 0.95168
 H621 H 0.44673 0.51997 0.85511
 H622 H 0.42728 0.53869 0.88563
 H623 H 0.42763 0.60485 0.83919
 H624 H 0.44654 0.58552 0.80868
 H625 H 0.38244 0.58977 0.86186
 H626 H 0.36352 0.60881 0.89255
 H627 H 0.42396 0.60140 0.94022
 H628 H 0.44348 0.58289 0.90961
 C629 C 0.06293 0.53197 0.79679
 C630 C 0.08194 0.54164 0.81158
 C631 C 0.10445 0.55315 0.82936
 C632 C 0.10009 0.56655 0.84879
 C633 C 0.12180 0.57756 0.86618
 C634 C 0.14819 0.57531 0.86435
 C635 C 0.15240 0.56188 0.84470
 C636 C 0.13064 0.55086 0.82733
 C637 C 0.17115 0.58683 0.88290
 C638 C 0.20233 0.60248 0.87775
 C639 C 0.22389 0.61337 0.89526
 C640 C 0.21459 0.60872 0.91810
 C641 C 0.18365 0.59314 0.92340
 C642 C 0.16205 0.58226 0.90593
 C643 C 0.23675 0.61996 0.93613
 C644 C 0.25517 0.62932 0.95133
 H645 H 0.07993 0.56851 0.85050
 H646 H 0.11810 0.58815 0.88095
 H647 H 0.17229 0.55948 0.84292
 H648 H 0.13419 0.54045 0.81238
 H649 H 0.21003 0.60668 0.86020
 H650 H 0.24780 0.62547 0.89098
 H651 H 0.17621 0.58935 0.94103
 H652 H 0.13824 0.56994 0.91044
 C653 C 0.46856 0.93725 0.79686
 C654 C 0.45912 0.91829 0.81167
 C655 C 0.44796 0.89588 0.82950
 C656 C 0.44172 0.90317 0.85111
 C657 C 0.43112 0.88154 0.86854
 C658 C 0.42663 0.85228 0.86456
 C659 C 0.43289 0.84514 0.84274
 C660 C 0.44351 0.86683 0.82533
 C661 C 0.41556 0.82937 0.88311
 C662 C 0.39394 0.79890 0.87858
 C663 C 0.38346 0.77739 0.89611
 C664 C 0.39446 0.78604 0.91835
 C665 C 0.41601 0.81626 0.92303
 C666 C 0.42650 0.83781 0.90554
 C667 C 0.38360 0.76396 0.93641
 C668 C 0.37453 0.74556 0.95162
 H669 H 0.44502 0.92558 0.85450
 H670 H 0.42612 0.88759 0.88506
 H671 H 0.43002 0.82295 0.83923
 H672 H 0.44837 0.86099 0.80867
 H673 H 0.38481 0.79179 0.86156
 H674 H 0.36671 0.75405 0.89233
 H675 H 0.42473 0.82317 0.94018
 H676 H 0.44345 0.86099 0.90950
 C677 C 0.53096 0.46848 0.79724
 C678 C 0.54047 0.45900 0.81207
 C679 C 0.55176 0.44779 0.82989
 C680 C 0.53967 0.44349 0.85194
 C681 C 0.55073 0.43282 0.86933
 C682 C 0.57407 0.42629 0.86490
 C683 C 0.58603 0.43061 0.84266
 C684 C 0.57494 0.44131 0.82529
 C685 C 0.58594 0.41510 0.88342
 C686 C 0.59300 0.39208 0.87913
 C687 C 0.60408 0.38153 0.89661
 C688 C 0.60830 0.39386 0.91857
 C689 C 0.60140 0.41680 0.92300
 C690 C 0.59029 0.42735 0.90557
 C691 C 0.61964 0.38297 0.93659
 C692 C 0.62910 0.37393 0.95176
 H693 H 0.52166 0.44836 0.85568
 H694 H 0.54076 0.42934 0.88618
 H695 H 0.60426 0.42616 0.83877
 H696 H 0.58454 0.44465 0.80830
 H697 H 0.58954 0.38192 0.86235
 H698 H 0.60927 0.36371 0.89300
 H699 H 0.60466 0.42656 0.93993
 H700 H 0.58547 0.44538 0.90935
 C701 C 0.93834 0.46894 0.79683
 C702 C 0.91924 0.45919 0.81157
 C703 C 0.89653 0.44755 0.82926
 C704 C 0.88880 0.42002 0.83995
 C705 C 0.86699 0.40882 0.85728
 C706 C 0.85257 0.42503 0.86416
 C707 C 0.86043 0.45264 0.85324
 C708 C 0.88228 0.46381 0.83592
 C709 C 0.82957 0.41327 0.88272
 C710 C 0.80319 0.41559 0.88114
 C711 C 0.78164 0.40462 0.89867
 C712 C 0.78616 0.39123 0.91802
 C713 C 0.81230 0.38879 0.91975
 C714 C 0.83386 0.39971 0.90224
 C715 C 0.76407 0.38009 0.93614
 C716 C 0.74567 0.37080 0.95138
 H717 H 0.89964 0.40720 0.83489
 H718 H 0.86116 0.38731 0.86513
 H719 H 0.85005 0.46584 0.85833
 H720 H 0.88815 0.48519 0.82781
 H721 H 0.79903 0.42554 0.86622
 H722 H 0.76145 0.40656 0.89712
 H723 H 0.81608 0.37855 0.93468
 H724 H 0.85410 0.39796 0.90412
 C725 C 0.53078 0.06165 0.79712
 C726 C 0.54027 0.08062 0.81197
 C727 C 0.55150 0.10311 0.82982
 C728 C 0.55848 0.13289 0.82517
 C729 C 0.56925 0.15468 0.84255
 C730 C 0.57315 0.14692 0.86486
 C731 C 0.56611 0.11691 0.86934
 C732 C 0.55537 0.09518 0.85193
 C733 C 0.58444 0.16998 0.88339
 C734 C 0.57193 0.16229 0.90546
 C735 C 0.58261 0.18396 0.92291
 C736 C 0.60591 0.21359 0.91857
 C737 C 0.61849 0.22149 0.89668
 C738 C 0.60784 0.19986 0.87919
 C739 C 0.61694 0.23582 0.93660
 C740 C 0.62611 0.25433 0.95178
 H741 H 0.55549 0.13926 0.80812
 H742 H 0.57410 0.17747 0.83862
 H743 H 0.56925 0.11032 0.88624
 H744 H 0.55012 0.07221 0.85571
 H745 H 0.55363 0.13962 0.90917
 H746 H 0.57264 0.17762 0.93978
 H747 H 0.63661 0.24434 0.89314
 H748 H 0.61819 0.20638 0.86247
   
