data_POSCAR
  _audit_creation_date              2014-09-24
  _audit_creation_method            'ToBaCCo'
  _symmetry_space_group_name_H-M    'P1'
  _symmetry_Int_Tables_number       1
  _symmetry_cell_setting            triclinic
  loop_
  _symmetry_equiv_pos_as_xyz
 x,y,z
_cell_length_a 33.0384
_cell_length_b 33.4578
_cell_length_c 24.6252
_cell_angle_alpha 89.125000
_cell_angle_beta 90.567000
_cell_angle_gamma 97.214000
loop_
  _atom_site_label
  _atom_site_type_symbol
  _atom_site_fract_x
  _atom_site_fract_y
  _atom_site_fract_z
C1 C 0.01153 0.26431 -0.03251
 C2 C 0.00736 0.26472 0.02266
 C3 C -0.02563 0.28343 0.04851
 C4 C 0.03913 0.25174 0.05999
 C5 C 0.04938 0.25229 -0.05574
 C6 C -0.01648 0.28345 -0.07068
 C7 C -0.02813 0.32477 0.04146
 C8 C -0.06100 0.34166 0.06275
 C9 C -0.09127 0.31751 0.09186
 C10 C -0.08798 0.27662 0.10095
 C11 C -0.05507 0.25967 0.07965
 C12 C 0.06397 0.28087 0.08979
 C13 C 0.09608 0.27000 0.12189
 C14 C 0.10335 0.22955 0.12587
 C15 C 0.07764 0.20019 0.09763
 C16 C 0.04604 0.21124 0.06430
 C17 C 0.04792 0.21807 -0.08814
 C18 C 0.08389 0.20691 -0.10958
 C19 C 0.12155 0.22988 -0.09905
 C20 C 0.12291 0.26428 -0.06676
 C21 C 0.08707 0.27550 -0.04562
 C22 C -0.05942 0.27679 -0.06638
 C23 C -0.08388 0.30271 -0.09310
 C24 C -0.06575 0.33489 -0.12550
 C25 C -0.02376 0.33812 -0.13489
 C26 C 0.00059 0.31272 -0.10815
 H27 H -0.00526 0.34357 0.01817
 H28 H -0.06337 0.37329 0.05530
 H29 H -0.11137 0.25765 0.12320
 H30 H -0.05326 0.22782 0.08580
 H31 H 0.05920 0.31228 0.08688
 H32 H 0.11518 0.29318 0.14373
 H33 H 0.02717 0.18835 0.04163
 H34 H 0.01904 0.20005 -0.09662
 H35 H 0.08240 0.18061 -0.13495
 H36 H 0.15150 0.28287 -0.05866
 H37 H 0.08860 0.30249 -0.02158
 H38 H -0.07370 0.25371 -0.03903
 H39 H -0.11610 0.30017 -0.08401
 H40 H -0.00912 0.36326 -0.15868
 H41 H 0.03333 0.31861 -0.11313
 H42 H 0.08273 0.16888 0.10043
 C43 C 0.47318 0.78260 0.45586
 C44 C 0.48036 0.78388 0.51023
 C45 C 0.44740 0.77288 0.55077
 C46 C 0.52245 0.78772 0.53167
 C47 C 0.50675 0.78945 0.41516
 C48 C 0.43266 0.76633 0.43490
 C49 C 0.41253 0.79306 0.55250
 C50 C 0.38244 0.78240 0.59185
 C51 C 0.38710 0.75154 0.63001
 C52 C 0.42174 0.73161 0.62814
 C53 C 0.45155 0.74206 0.58906
 C54 C 0.53716 0.82022 0.56463
 C55 C 0.57486 0.82073 0.59092
 C56 C 0.59736 0.78811 0.58549
 C57 C 0.58308 0.75628 0.55150
 C58 C 0.54603 0.75623 0.52416
 C59 C 0.50903 0.76117 0.37399
 C60 C 0.54128 0.76545 0.33752
 C61 C 0.57232 0.79809 0.34134
 C62 C 0.56972 0.82706 0.38124
 C63 C 0.53694 0.82308 0.41753
 C64 C 0.42038 0.72465 0.43756
 C65 C 0.38537 0.70808 0.40997
 C66 C 0.36164 0.73315 0.38134
 C67 C 0.37291 0.77507 0.38078
 C68 C 0.40872 0.79153 0.40675
 H69 H 0.40885 0.81722 0.52383
 H70 H 0.35584 0.79825 0.59260
 H71 H 0.42558 0.70771 0.65718
 H72 H 0.47784 0.72575 0.58860
 H73 H 0.51891 0.84442 0.57116
 H74 H 0.58526 0.84522 0.61790
 H75 H 0.53463 0.73066 0.49948
 H76 H 0.48653 0.73488 0.37077
 H77 H 0.54250 0.74248 0.30731
 H78 H 0.59335 0.85244 0.38466
 H79 H 0.53551 0.84585 0.44797
 H80 H 0.43908 0.70490 0.45866
 H81 H 0.37692 0.67575 0.41039
 H82 H 0.35500 0.79475 0.35823
 H83 H 0.41825 0.82367 0.40397
 H84 H 0.60006 0.73081 0.54775
 C85 C 0.97883 0.69942 -0.04760
 C86 C 0.96430 0.68964 0.00322
 C87 C 0.99038 0.67669 0.04804
 C88 C 0.92270 0.69745 0.01875
 C89 C 0.95193 0.71464 -0.08914
 C90 C 1.02154 0.69666 -0.06350
 C91 C 1.01762 0.64809 0.04063
 C92 C 1.04747 0.64317 0.07998
 C93 C 1.04855 0.66505 0.12825
 C94 C 1.01819 0.68926 0.13850
 C95 C 0.98965 0.69553 0.09858
 C96 C 0.89287 0.66526 0.03188
 C97 C 0.85493 0.67271 0.05129
 C98 C 0.84690 0.71229 0.05939
 C99 C 0.87651 0.74457 0.04518
 C100 C 0.91405 0.73717 0.02459
 C101 C 0.96005 0.75453 -0.10833
 C102 C 0.93056 0.77169 -0.13874
 C103 C 0.89278 0.74922 -0.14949
 C104 C 0.88592 0.70844 -0.13349
 C105 C 0.91551 0.69117 -0.10399
 C106 C 1.05455 0.71832 -0.03595
 C107 C 1.09455 0.71168 -0.04738
 C108 C 1.10188 0.68391 -0.08701
 C109 C 1.06921 0.66397 -0.11658
 C110 C 1.02923 0.67048 -0.10511
 H111 H 1.01745 0.63152 0.00322
 H112 H 1.07049 0.62374 0.07188
 H113 H 1.01881 0.70606 0.17583
 H114 H 0.96866 0.71713 0.10625
 H115 H 0.89924 0.63448 0.02781
 H116 H 0.83237 0.64761 0.06215
 H117 H 0.93696 0.76231 0.01506
 H118 H 0.98815 0.77294 -0.09717
 H119 H 0.93634 0.80295 -0.15165
 H120 H 0.85731 0.69021 -0.14269
 H121 H 0.90914 0.66017 -0.09006
 H122 H 1.04918 0.73907 -0.00425
 H123 H 1.11964 0.72725 -0.02427
 H124 H 1.07458 0.64242 -0.14726
 H125 H 1.00417 0.65378 -0.12703
 H126 H 0.87084 0.77541 0.05081
 C127 C 0.52647 0.22911 0.48696
 C128 C 0.53426 0.23132 0.54144
 C129 C 0.57632 0.24177 0.56365
 C130 C 0.50073 0.23006 0.58154
 C131 C 0.48400 0.22663 0.46480
 C132 C 0.55989 0.23616 0.44637
 C133 C 0.59394 0.21429 0.59742
 C134 C 0.63077 0.22615 0.62502
 C135 C 0.64973 0.26605 0.62041
 C136 C 0.63251 0.29314 0.58590
 C137 C 0.59642 0.28104 0.55717
 C138 C 0.46897 0.19791 0.58364
 C139 C 0.43706 0.19831 0.62059
 C140 C 0.43685 0.23072 0.65630
 C141 C 0.46889 0.26218 0.65496
 C142 C 0.50051 0.26196 0.61797
 C143 C 0.46233 0.26002 0.46785
 C144 C 0.42541 0.26049 0.43961
 C145 C 0.40888 0.22730 0.40901
 C146 C 0.42958 0.19309 0.40772
 C147 C 0.46720 0.19304 0.43480
 C148 C 0.55730 0.26500 0.40482
 C149 C 0.58868 0.27358 0.36753
 C150 C 0.62350 0.25394 0.37099
 C151 C 0.62630 0.22448 0.41169
 C152 C 0.59442 0.21537 0.44887
 H153 H 0.57852 0.18406 0.60355
 H154 H 0.64320 0.20492 0.65213
 H155 H 0.64656 0.32410 0.58243
 H156 H 0.58297 0.30287 0.53214
 H157 H 0.46881 0.17270 0.55655
 H158 H 0.41262 0.17353 0.62112
 H159 H 0.52445 0.28720 0.61718
 H160 H 0.47506 0.28650 0.48992
 H161 H 0.41004 0.28722 0.44055
 H162 H 0.41770 0.16735 0.38369
 H163 H 0.48375 0.16724 0.43131
 H164 H 0.53130 0.28165 0.40175
 H165 H 0.58623 0.29628 0.33624
 H166 H 0.65289 0.20867 0.41471
 H167 H 0.59682 0.19238 0.47973
 H168 H 0.46903 0.28729 0.68223
 C169 C 0.75691 0.03908 -0.05260
 C170 C 0.75309 0.03386 0.00234
 C171 C 0.74046 -0.00660 0.02686
 C172 C 0.75599 0.06842 0.03954
 C173 C 0.76647 0.07981 -0.07798
 C174 C 0.74471 0.00451 -0.08844
 C175 C 0.70205 -0.01478 0.05134
 C176 C 0.68720 -0.05408 0.06755
 C177 C 0.71075 -0.08549 0.05993
 C178 C 0.74996 -0.07713 0.03814
 C179 C 0.76489 -0.03779 0.02202
 C180 C 0.72969 0.09808 0.03332
 C181 C 0.73372 0.13145 0.06717
 C182 C 0.76374 0.13520 0.10822
 C183 C 0.78899 0.10490 0.11555
 C184 C 0.78507 0.07159 0.08156
 C185 C 0.80018 0.10650 -0.06026
 C186 C 0.80345 0.14744 -0.07454
 C187 C 0.77361 0.16187 -0.10764
 C188 C 0.74212 0.13475 -0.12941
 C189 C 0.73866 0.09392 -0.11492
 C190 C 0.77420 -0.01789 -0.10891
 C191 C 0.76233 -0.05623 -0.13012
 C192 C 0.72095 -0.07185 -0.13164
 C193 C 0.69143 -0.04819 -0.11510
 C194 C 0.70321 -0.01019 -0.09357
 H195 H 0.68275 0.00889 0.05532
 H196 H 0.65668 -0.06027 0.08385
 H197 H 0.76830 -0.10127 0.03165
 H198 H 0.79479 -0.03193 0.00381
 H199 H 0.70644 0.09559 0.00181
 H200 H 0.71367 0.15436 0.06099
 H201 H 0.80526 0.04871 0.08722
 H202 H 0.82231 0.09619 -0.03233
 H203 H 0.82775 0.16817 -0.05704
 H204 H 0.71863 0.14564 -0.15459
 H205 H 0.71246 0.07407 -0.12928
 H206 H 0.80635 -0.00708 -0.10453
 H207 H 0.78540 -0.07453 -0.14231
 H208 H 0.65941 -0.06020 -0.11562
 H209 H 0.68018 0.00659 -0.07735
 H210 H 0.81212 0.10745 0.14720
 C211 C 0.18904 0.44720 0.50824
 C212 C 0.19504 0.45389 0.56234
 C213 C 0.20697 0.42177 0.59958
 C214 C 0.19954 0.49547 0.58396
 C215 C 0.18102 0.48029 0.47001
 C216 C 0.20017 0.40992 0.48338
 C217 C 0.18540 0.38267 0.60028
 C218 C 0.19971 0.35190 0.63137
 C219 C 0.23525 0.36022 0.66305
 C220 C 0.25564 0.39935 0.66418
 C221 C 0.24187 0.42982 0.63264
 C222 C 0.17247 0.50662 0.62291
 C223 C 0.18027 0.54407 0.64832
 C224 C 0.21595 0.57002 0.63619
 C225 C 0.24243 0.55913 0.59660
 C226 C 0.23401 0.52245 0.57001
 C227 C 0.20578 0.48832 0.42417
 C228 C 0.20203 0.52167 0.39104
 C229 C 0.17350 0.54803 0.40307
 C230 C 0.14747 0.53928 0.44735
 C231 C 0.15086 0.50535 0.48034
 C232 C 0.24130 0.40335 0.48245
 C233 C 0.25325 0.37182 0.45255
 C234 C 0.22430 0.34576 0.42429
 C235 C 0.18285 0.35114 0.42693
 C236 C 0.17093 0.38350 0.45571
 H237 H 0.15797 0.37587 0.57600
 H238 H 0.18313 0.32187 0.63077
 H239 H 0.28286 0.40605 0.68894
 H240 H 0.25931 0.45944 0.63304
 H241 H 0.14603 0.48591 0.63461
 H242 H 0.15994 0.55167 0.67968
 H243 H 0.25556 0.51405 0.54069
 H244 H 0.22933 0.46976 0.41497
 H245 H 0.22256 0.52755 0.35705
 H246 H 0.12519 0.55919 0.45695
 H247 H 0.13081 0.49932 0.51481
 H248 H 0.26435 0.42389 0.50277
 H249 H 0.28532 0.36828 0.45018
 H250 H 0.16014 0.33171 0.40447
 H251 H 0.13918 0.38851 0.45545
 H252 H 0.27033 0.57860 0.58758
 C253 C 0.25946 0.96876 -0.00490
 C254 C 0.24785 0.96823 0.04838
 C255 C 0.25061 1.00638 0.07952
 C256 C 0.23821 0.93023 0.08008
 C257 C 0.26199 0.93144 -0.03662
 C258 C 0.27708 1.00729 -0.03052
 C259 C 0.27932 1.01296 0.12196
 C260 C 0.28858 1.05133 0.14409
 C261 C 0.26895 1.08343 0.12447
 C262 C 0.23830 1.07641 0.08477
 C263 C 0.22894 1.03801 0.06265
 C264 C 0.26598 0.90174 0.08294
 C265 C 0.25645 0.86585 0.11228
 C266 C 0.21944 0.85834 0.14059
 C267 C 0.19250 0.88747 0.13963
 C268 C 0.20176 0.92319 0.10950
 C269 C 0.23029 0.89905 -0.03690
 C270 C 0.23632 0.86225 -0.06024
 C271 C 0.27355 0.85795 -0.08496
 C272 C 0.30382 0.89100 -0.08843
 C273 C 0.29815 0.92738 -0.06459
 C274 C 0.25523 1.02623 -0.07039
 C275 C 0.27033 1.06471 -0.08987
 C276 C 0.30753 1.08395 -0.07001
 C277 C 0.33010 1.06432 -0.03200
 C278 C 0.31505 1.02614 -0.01244
 H279 H 0.29651 0.98907 0.13539
 H280 H 0.31259 1.05645 0.17440
 H281 H 0.22312 1.10106 0.06895
 H282 H 0.20655 1.03351 0.03020
 H283 H 0.29494 0.90722 0.06219
 H284 H 0.27817 0.84417 0.11320
 H285 H 0.18034 0.94519 0.10865
 H286 H 0.20174 0.90159 -0.01683
 H287 H 0.21276 0.83674 -0.05683
 H288 H 0.33290 0.88789 -0.10682
 H289 H 0.32313 0.95163 -0.06547
 H290 H 0.22591 1.01193 -0.08467
 H291 H 0.25261 1.07985 -0.11914
 H292 H 0.35881 1.07910 -0.01632
 H293 H 0.33233 1.01169 0.01808
 H294 H 0.16410 0.88224 0.16171
 C295 C 0.79554 0.55587 0.44798
 C296 C 0.79754 0.55160 0.50293
 C297 C 0.79047 0.58515 0.53906
 C298 C 0.79808 0.51152 0.52967
 C299 C 0.79285 0.52062 0.41155
 C300 C 0.78909 0.59486 0.42191
 C301 C 0.81457 0.62294 0.53652
 C302 C 0.80478 0.65482 0.56818
 C303 C 0.77118 0.64881 0.60319
 C304 C 0.74808 0.61099 0.60674
 C305 C 0.75744 0.57949 0.57493
 C306 C 0.83210 0.50337 0.56064
 C307 C 0.83049 0.46798 0.59220
 C308 C 0.79435 0.44096 0.59428
 C309 C 0.76084 0.44868 0.56229
 C310 C 0.76282 0.48336 0.52957
 C311 C 0.75963 0.51360 0.37537
 C312 C 0.75510 0.47976 0.34267
 C313 C 0.78334 0.45212 0.34566
 C314 C 0.81721 0.45921 0.38083
 C315 C 0.82209 0.49351 0.41328
 C316 C 0.75009 0.60734 0.42078
 C317 C 0.74258 0.64067 0.38911
 C318 C 0.77429 0.66268 0.35958
 C319 C 0.81380 0.65183 0.36369
 C320 C 0.82104 0.61760 0.39384
 H321 H 0.84054 0.62782 0.50970
 H322 H 0.82332 0.68384 0.56547
 H323 H 0.72228 0.60609 0.63389
 H324 H 0.73814 0.55091 0.57753
 H325 H 0.85937 0.52502 0.56162
 H326 H 0.85644 0.46292 0.61740
 H327 H 0.73611 0.48940 0.50650
 H328 H 0.73647 0.53373 0.37320
 H329 H 0.72895 0.47455 0.31567
 H330 H 0.83964 0.43828 0.38337
 H331 H 0.84832 0.49865 0.44012
 H332 H 0.72513 0.59006 0.44224
 H333 H 0.71190 0.64880 0.38660
 H334 H 0.83844 0.66849 0.34095
 H335 H 0.85126 0.60826 0.39429
 H336 H 0.73264 0.42836 0.56410
 O337 O 0.23376 0.25716 0.20269
 O338 O 0.31961 0.23765 0.29167
 O339 O 0.29516 0.21523 0.19361
 O340 O 0.25795 0.27673 0.30005
 O341 O 0.21925 0.22309 0.33213
 O342 O 0.25757 0.16086 0.22552
 O343 O 0.28303 0.18282 0.32394
 O344 O 0.19639 0.20234 0.23369
 Cu345 Cu 0.28043 0.25185 0.24338
 Cu346 Cu 0.23553 0.18675 0.28238
 C347 C 0.20052 0.23358 0.20315
 C348 C 0.31581 0.20732 0.32363
 C349 C 0.28256 0.17787 0.19091
 C350 C 0.23204 0.26048 0.33401
 O351 O 0.70961 0.82825 0.15440
 O352 O 0.73796 0.75486 0.25803
 O353 O 0.76993 0.78622 0.16887
 O354 O 0.67723 0.79785 0.24642
 O355 O 0.64299 0.74905 0.19894
 O356 O 0.73642 0.73470 0.12566
 O357 O 0.70112 0.70587 0.21375
 O358 O 0.67642 0.77791 0.10865
 Cu359 Cu 0.72689 0.79702 0.21154
 Cu360 Cu 0.68577 0.73716 0.15677
 C361 C 0.68865 0.81514 0.11334
 C362 C 0.72402 0.71784 0.25335
 C363 C 0.76915 0.75788 0.13511
 C364 C 0.64447 0.77489 0.23626
 O365 O 0.73713 0.26306 0.16329
 O366 O 0.75956 0.35239 0.24915
 O367 O 0.78184 0.33540 0.15601
 O368 O 0.70845 0.28987 0.25548
 O369 O 0.75585 0.25937 0.29715
 O370 O 0.82986 0.30321 0.19325
 O371 O 0.80892 0.32418 0.28994
 O372 O 0.78474 0.23420 0.20682
 Cu373 Cu 0.74177 0.31152 0.20089
 Cu374 Cu 0.79971 0.27725 0.25093
 C375 C 0.75725 0.23345 0.17048
 C376 C 0.78840 0.35350 0.28396
 C377 C 0.81823 0.32736 0.15745
 C378 C 0.71937 0.26781 0.29389
 O379 O 0.22813 0.72588 0.31997
 O380 O 0.14397 0.68656 0.23166
 O381 O 0.18035 0.65759 0.31501
 O382 O 0.19501 0.75223 0.23363
 O383 O 0.23896 0.72570 0.18233
 O384 O 0.22118 0.63099 0.25906
 O385 O 0.18592 0.66131 0.17598
 O386 O 0.27046 0.69678 0.26907
 Cu387 Cu 0.18234 0.70801 0.28046
 Cu388 Cu 0.23338 0.67594 0.21620
 C389 C 0.26363 0.71792 0.30969
 C390 C 0.15032 0.66825 0.18847
 C391 C 0.19855 0.62823 0.30040
 C392 C 0.22027 0.75506 0.19464
 O393 O 0.82922 0.33161 0.69981
 O394 O 0.80244 0.25592 0.81006
 O395 O 0.77595 0.26657 0.71030
 O396 O 0.85818 0.31961 0.79789
 O397 O 0.81335 0.35858 0.82502
 O398 O 0.73190 0.30456 0.74242
 O399 O 0.75978 0.29540 0.84210
 O400 O 0.78243 0.36740 0.72979
 Cu401 Cu 0.82085 0.28941 0.75158
 Cu402 Cu 0.76744 0.33481 0.78884
 C403 C 0.80958 0.36194 0.69558
 C404 C 0.77659 0.26344 0.84521
 C405 C 0.74035 0.27734 0.71063
 C406 C 0.84943 0.34932 0.82511
 O407 O 0.30694 0.71244 0.75165
 O408 O 0.23459 0.66866 0.85535
 O409 O 0.25092 0.65167 0.75570
 O410 O 0.29245 0.72833 0.85237
 O411 O 0.24851 0.76899 0.82443
 O412 O 0.20438 0.68981 0.72874
 O413 O 0.19008 0.70899 0.82818
 O414 O 0.26220 0.75170 0.72214
 Cu415 Cu 0.27569 0.68644 0.80663
 Cu416 Cu 0.22194 0.73405 0.77276
 C417 C 0.29674 0.73904 0.71866
 C418 C 0.20021 0.68145 0.85971
 C419 C 0.22055 0.65735 0.72597
 C420 C 0.27770 0.76135 0.85547
 O421 O 0.32639 0.21759 0.86478
 O422 O 0.28304 0.28119 0.76424
 O423 O 0.26041 0.25371 0.85817
 O424 O 0.34473 0.24085 0.76574
 O425 O 0.30875 0.18661 0.73206
 O426 O 0.22385 0.20063 0.82224
 O427 O 0.24648 0.22829 0.72785
 O428 O 0.28915 0.16368 0.83213
 Cu429 Cu 0.30747 0.25339 0.81700
 Cu430 Cu 0.26367 0.18913 0.77516
 C431 C 0.31530 0.18005 0.86601
 C432 C 0.25713 0.26614 0.72954
 C433 C 0.22718 0.23026 0.85421
 C434 C 0.34085 0.21168 0.73280
 O435 O 0.79956 0.79910 0.76943
 O436 O 0.71846 0.82841 0.67926
 O437 O 0.74089 0.84538 0.77946
 O438 O 0.77521 0.78049 0.67249
 O439 O 0.73406 0.72927 0.70671
 O440 O 0.69802 0.79375 0.80879
 O441 O 0.67804 0.77497 0.70865
 O442 O 0.75682 0.74861 0.80238
 Cu443 Cu 0.76269 0.81895 0.72229
 Cu444 Cu 0.71220 0.75690 0.76035
 C445 C 0.79221 0.76801 0.79968
 C446 C 0.68484 0.80560 0.67754
 C447 C 0.71313 0.83030 0.81189
 C448 C 0.76081 0.74338 0.67256
 N449 N 0.28273 0.12040 0.13784
 N450 N 0.29697 0.15538 0.14787
 N451 N 0.75969 0.67976 0.63685
 N452 N 0.77517 0.71653 0.63481
 N453 N 0.69444 0.87716 0.06718
 N454 N 0.67834 0.84200 0.07129
 N455 N 0.25124 0.33017 0.69570
 N456 N 0.23926 0.29260 0.69306
 N457 N 0.87730 0.33185 0.10606
 N458 N 0.84604 0.34605 0.11804
 N459 N 0.35752 0.73924 0.67106
 N460 N 0.32427 0.75423 0.67654
 N461 N 0.08272 0.66839 0.16418
 N462 N 0.11713 0.65800 0.15199
 N463 N 0.68355 0.28111 0.65449
 N464 N 0.70950 0.25952 0.67403
 N465 N 0.77094 0.20052 0.88951
 N466 N 0.76608 0.23641 0.88966
 N467 N 0.17260 0.58471 0.37249
 N468 N 0.19529 0.59170 0.33117
 N469 N 0.28295 0.82229 0.90316
 N470 N 0.29472 0.78939 0.89518
 N471 N 0.77616 0.41688 0.31321
 N472 N 0.79766 0.38802 0.31710
 N473 N 0.15747 0.21937 0.87550
 N474 N 0.19249 0.23906 0.88362
 N475 N 0.60760 0.80060 0.30730
 N476 N 0.60904 0.77616 0.26847
 N477 N 0.86131 0.76803 0.82413
 N478 N 0.82434 0.75258 0.82861
 N479 N 0.37351 0.23087 0.37570
 N480 N 0.34880 0.20091 0.35975
 N481 N 0.70993 0.89007 0.85872
 N482 N 0.69791 0.85409 0.85266
 N483 N 0.23835 0.31742 0.38828
 N484 N 0.21685 0.28493 0.37422
 N485 N 0.32020 0.12120 0.91633
 N486 N 0.33318 0.15657 0.90623
 N487 N 0.76604 0.69352 0.32162
 N488 N 0.73381 0.68867 0.29256
 N489 N 0.13867 0.67439 0.90633
 N490 N 0.17302 0.66438 0.90098
 N491 N 0.65527 0.26533 0.33269
 N492 N 0.69029 0.25327 0.33443
 N493 N 0.91575 0.37126 0.86832
 N494 N 0.88022 0.37664 0.85111
 N495 N 0.32750 0.71558 0.35044
 N496 N 0.29638 0.73384 0.34383
 N497 N 0.20904 0.82156 0.17071
 N498 N 0.22879 0.79173 0.16436
 N499 N 0.78892 0.40890 0.63375
 N500 N 0.81779 0.39047 0.65201
 N501 N 0.76993 0.16978 0.14211
 N502 N 0.74923 0.19919 0.13658
 N503 N 0.22896 0.60435 0.66879
 N504 N 0.20463 0.62654 0.68922
 N505 N 0.80958 0.71891 0.08479
 N506 N 0.80599 0.75175 0.10859
 N507 N 0.40431 0.23314 0.69357
 N508 N 0.37273 0.20721 0.69554
 N509 N 0.13656 0.21800 0.15823
 N510 N 0.16749 0.24334 0.16947
 N511 N 0.63169 0.78391 0.61945
 N512 N 0.65414 0.81369 0.63963
   
