data_POSCAR
  _audit_creation_date              2014-09-24
  _audit_creation_method            'ToBaCCo'
  _symmetry_space_group_name_H-M    'P1'
  _symmetry_Int_Tables_number       1
  _symmetry_cell_setting            triclinic
  loop_
  _symmetry_equiv_pos_as_xyz
 x,y,z
_cell_length_a 21.7932
_cell_length_b 21.7885
_cell_length_c 21.8147
_cell_angle_alpha 90.050000
_cell_angle_beta 89.832500
_cell_angle_gamma 90.008800
loop_
  _atom_site_label
  _atom_site_type_symbol
  _atom_site_fract_x
  _atom_site_fract_y
  _atom_site_fract_z
N1 N 0.37817 0.37888 1.37544
 N2 N 1.12189 0.62139 0.87990
 N3 N 0.62341 -0.12550 0.12082
 N4 N -0.12408 1.12328 -0.37284
 N5 N 0.62403 0.62575 0.62085
 N6 N 0.87593 0.37715 0.12648
 N7 N 0.37572 0.12283 0.87283
 N8 N 0.12177 0.87821 0.37982
 Zn9 Zn 0.01746 1.07173 -0.03701
 Zn10 Zn -0.04652 0.94978 -0.04683
 Zn11 Zn 0.07223 0.96185 0.02055
 Zn12 Zn -0.04030 1.01691 0.07380
 O13 O 0.00040 0.99995 0.00242
 O14 O -0.01660 1.07474 -0.11098
 O15 O -0.00952 0.87710 -0.06377
 O16 O 0.13850 1.00093 -0.00772
 O17 O -0.06473 0.98553 -0.11931
 O18 O 0.09780 1.08359 -0.04986
 O19 O 0.07676 0.88767 -0.01176
 O20 O -0.00220 0.98822 0.14067
 O21 O -0.11900 0.93070 -0.01170
 O22 O 0.08272 0.94979 0.10048
 O23 O -0.11429 0.98258 0.07559
 O24 O -0.05270 1.09734 0.08588
 O25 O -0.01086 1.13792 0.00277
 C26 C -0.05005 1.03776 -0.14092
 C27 C 0.04169 0.85604 -0.04547
 C28 C 0.14411 1.05065 -0.03732
 C29 C 0.04871 0.96063 0.14647
 C30 C -0.14249 0.94712 0.03914
 C31 C -0.03977 1.14368 0.05305
 Zn32 Zn 0.46262 0.01928 0.42559
 Zn33 Zn 0.45088 -0.04750 0.54475
 Zn34 Zn 0.57241 -0.03883 0.47958
 Zn35 Zn 0.51864 0.07264 0.53708
 O36 O 0.50102 0.00122 0.49706
 O37 O 0.38829 -0.01282 0.42199
 O38 O 0.48594 -0.12033 0.56262
 O39 O 0.58450 -0.05088 0.39929
 O40 O 0.37797 -0.06414 0.50880
 O41 O 0.50135 -0.00914 0.35928
 O42 O 0.57434 -0.11313 0.51268
 O43 O 0.59898 0.08319 0.54985
 O44 O 0.43258 -0.01203 0.61712
 O45 O 0.63902 -0.00062 0.50872
 O46 O 0.48422 0.07537 0.61103
 O47 O 0.49111 0.13982 0.49833
 O48 O 0.45114 0.09931 0.41455
 C49 C 0.35675 -0.04617 0.45764
 C50 C 0.53752 -0.14266 0.54673
 C51 C 0.55133 -0.03827 0.35328
 C52 C 0.64497 0.04947 0.53781
 C53 C 0.44903 0.03908 0.63991
 C54 C 0.46311 0.14554 0.44774
 Zn55 Zn 1.01722 0.42802 0.46220
 Zn56 Zn 1.07307 0.53753 0.51986
 Zn57 Zn 0.95377 0.55008 0.45313
 Zn58 Zn 0.96044 0.48294 0.57350
 O59 O 1.00084 0.49978 0.50198
 O60 O 1.09730 0.41631 0.44805
 O61 O 1.07745 0.61186 0.48788
 O62 O 0.93508 0.51470 0.38051
 O63 O 1.13907 0.49835 0.49056
 O64 O 0.98247 0.42514 0.38862
 O65 O 0.99082 0.62265 0.43646
 O66 O 0.88643 0.51727 0.57574
 O67 O 1.08414 0.54939 0.59996
 O68 O 0.88152 0.56918 0.48859
 O69 O 0.99891 0.51163 0.64013
 O70 O 0.94810 0.40256 0.58561
 O71 O 0.98927 0.36176 0.50221
 C72 C 1.14401 0.44873 0.46054
 C73 C 1.04216 0.64360 0.45456
 C74 C 0.94928 0.46236 0.35880
 C75 C 0.85814 0.55275 0.53944
 C76 C 1.05001 0.53886 0.64596
 C77 C 0.96074 0.35614 0.55273
 Zn78 Zn 0.46241 0.48102 0.92519
 Zn79 Zn 0.57214 0.53939 0.97934
 Zn80 Zn 0.45090 0.54639 1.04616
 Zn81 Zn 0.51952 0.42724 1.03523
 O82 O 0.50104 0.49881 0.99678
 O83 O 0.50085 0.51013 0.85900
 O84 O 0.57341 0.61354 1.01273
 O85 O 0.37722 0.56221 1.01094
 O86 O 0.58408 0.55170 0.89913
 O87 O 0.38809 0.51310 0.92270
 O88 O 0.48543 0.61980 1.06363
 O89 O 0.48668 0.42373 1.10937
 O90 O 0.63924 0.50174 1.00813
 O91 O 0.43479 0.51046 1.11944
 O92 O 0.59987 0.41673 1.04711
 O93 O 0.49167 0.36056 0.99636
 O94 O 0.45102 0.40082 0.91291
 C95 C 0.55089 0.53919 0.85309
 C96 C 0.53663 0.64267 1.04719
 C97 C 0.35622 0.54527 0.95923
 C98 C 0.45299 0.45931 1.14080
 C99 C 0.64557 0.45110 1.03605
 C100 C 0.46321 0.35468 0.94608
 C101 C 1.31487 0.39924 0.39505
 C102 C 1.28667 0.45715 0.36442
 C103 C 1.23004 0.47243 0.38629
 C104 C 1.20624 0.42983 0.43702
 C105 C 1.20890 0.36532 0.40872
 C106 C 1.26488 0.34977 0.38620
 C107 C 1.31336 0.41657 0.46360
 C108 C 1.25672 0.43088 0.48576
 H109 H 1.30665 0.48408 0.32802
 H110 H 1.20433 0.51128 0.36871
 H111 H 1.16968 0.33487 0.40484
 H112 H 1.27231 0.30659 0.36261
 H113 H 1.35404 0.41787 0.49217
 H114 H 1.24908 0.44404 0.53318
 C115 C 0.18486 0.59922 0.89909
 C116 C 0.18627 0.57932 0.96703
 C117 C 0.24275 0.56243 0.98796
 C118 C 0.29309 0.56455 0.93872
 C119 C 0.26778 0.52441 0.88664
 C120 C 0.21172 0.54174 0.86618
 C121 C 0.23608 0.64780 0.89188
 C122 C 0.29179 0.62998 0.91326
 H123 H 0.14564 0.57775 0.99589
 H124 H 0.25025 0.54671 1.03454
 H125 H 0.29128 0.48466 0.86782
 H126 H 0.19116 0.51565 0.82966
 H127 H 0.22964 0.69204 0.87016
 H128 H 0.33201 0.65925 0.91030
 C129 C -0.31356 0.88948 0.09615
 C130 C -0.30980 0.95717 0.07620
 C131 C -0.25319 0.97579 0.05786
 C132 C -0.20498 0.92468 0.05808
 C133 C -0.20553 0.89861 0.12342
 C134 C -0.26157 0.87970 0.14299
 C135 C -0.28968 0.85497 0.03809
 C136 C -0.23303 0.87353 0.01868
 H137 H -0.34912 0.98776 0.07599
 H138 H -0.24421 1.02217 0.04205
 H139 H -0.16461 0.89308 0.15117
 H140 H -0.26788 0.85782 0.18719
 H141 H -0.31149 0.81702 0.01508
 H142 H -0.20980 0.85220 -0.01992
 C143 C 0.81407 0.10615 0.60109
 C144 C 0.78996 0.14203 0.54416
 C145 C 0.73407 0.12299 0.52380
 C146 C 0.70725 0.06921 0.56008
 C147 C 0.75747 0.01967 0.55769
 C148 C 0.81316 0.03935 0.57790
 C149 C 0.76109 0.11141 0.64785
 C150 C 0.70613 0.09124 0.62689
 H151 H 0.81314 0.17855 0.52007
 H152 H 0.71182 0.14333 0.48425
 H153 H 0.75061 -0.02632 0.53983
 H154 H 0.85357 0.01023 0.57678
 H155 H 0.76583 0.13087 0.69332
 H156 H 0.66491 0.09281 0.65493
 C157 C 0.39811 0.31584 0.39667
 C158 C 0.46623 0.31525 0.41583
 C159 C 0.48859 0.25886 0.43080
 C160 C 0.44032 0.20777 0.42850
 C161 C 0.38818 0.23086 0.46971
 C162 C 0.36615 0.28710 0.45388
 C163 C 0.39114 0.26561 0.34722
 C164 C 0.41385 0.21004 0.36334
 H165 H 0.49434 0.35634 0.41789
 H166 H 0.53566 0.25182 0.44531
 H167 H 0.36972 0.20493 0.50806
 H168 H 0.32862 0.30611 0.47998
 H169 H 0.36852 0.27251 0.30358
 H170 H 0.41118 0.17078 0.33280
 C171 C 0.90064 0.18606 0.61115
 C172 C 0.85273 0.23799 0.61622
 C173 C 0.87258 0.29331 0.59546
 C174 C 0.93962 0.29363 0.57366
 C175 C 0.97597 0.26819 0.62800
 C176 C 0.95634 0.21205 0.64767
 C177 C 0.92432 0.18719 0.54460
 C178 C 0.94346 0.24307 0.52469
 H179 H 0.80747 0.23225 0.63620
 H180 H 0.84379 0.33396 0.59701
 H181 H 1.01346 0.29261 0.64981
 H182 H 0.97804 0.19158 0.68704
 H183 H 0.92616 0.14669 0.51563
 H184 H 0.96129 0.24993 0.47870
 C185 C 0.10277 0.68445 -0.09838
 C186 C 0.03435 0.68637 -0.07990
 C187 C 0.01334 0.74297 -0.06332
 C188 C 0.06291 0.79294 -0.06442
 C189 C 0.11407 0.76716 -0.02339
 C190 C 0.13461 0.71083 -0.04040
 C191 C 0.11136 0.73557 -0.14674
 C192 C 0.08985 0.79148 -0.12928
 H193 H 0.00520 0.64598 -0.07902
 H194 H -0.03361 0.75083 -0.04854
 H195 H 0.13212 0.79051 0.01669
 H196 H 0.17025 0.68945 -0.01376
 H197 H 0.13406 0.72895 -0.19052
 H198 H 0.09370 0.83170 -0.15839
 C199 C 0.59711 0.81254 1.10444
 C200 C 0.64249 0.75927 1.11442
 C201 C 0.62147 0.70380 1.09586
 C202 C 0.55643 0.70503 1.06916
 C203 C 0.51698 0.73449 1.11953
 C204 C 0.53753 0.79074 1.13783
 C205 C 0.57792 0.80935 1.03660
 C206 C 0.55824 0.75311 1.01789
 H207 H 0.68682 0.76422 1.13625
 H208 H 0.64817 0.66214 1.10164
 H209 H 0.47615 0.71349 1.13891
 H210 H 0.51249 0.81532 1.17279
 H211 H 0.57876 0.84870 1.00612
 H212 H 0.54251 0.74449 0.97150
 C213 C 0.39969 0.39862 1.31240
 C214 C 0.45797 0.36701 1.28576
 C215 C 0.47495 0.38756 1.22961
 C216 C 0.43374 0.43857 1.20397
 C217 C 0.36886 0.41159 1.20551
 C218 C 0.35132 0.39018 1.26141
 C219 C 0.41784 0.46712 1.31054
 C220 C 0.43453 0.48817 1.25396
 H221 H 0.48503 0.33142 1.30669
 H222 H 0.51527 0.36965 1.20634
 H223 H 0.33970 0.40795 1.16541
 H224 H 0.30741 0.36780 1.26812
 H225 H 0.41848 0.49627 1.35091
 H226 H 0.44911 0.53516 1.24613
 C227 C 0.60747 -0.10024 0.18342
 C228 C 0.54146 -0.07514 0.18471
 C229 C 0.52210 -0.05532 0.24061
 C230 C 0.57119 -0.06005 0.29087
 C231 C 0.59120 -0.12753 0.29071
 C232 C 0.61115 -0.14812 0.23543
 C233 C 0.64517 -0.04496 0.20900
 C234 C 0.62626 -0.02490 0.26513
 H235 H 0.51255 -0.07263 0.14434
 H236 H 0.47659 -0.03631 0.24765
 H237 H 0.59200 -0.15620 0.33139
 H238 H 0.62973 -0.19392 0.22997
 H239 H 0.68393 -0.02280 0.18760
 H240 H 0.64839 0.01290 0.28883
 C241 C -0.10783 1.09764 -0.31071
 C242 C -0.03962 1.07942 -0.30735
 C243 C -0.02084 1.06014 -0.25116
 C244 C -0.07226 1.05782 -0.20311
 C245 C -0.10000 1.12261 -0.20209
 C246 C -0.11884 1.14313 -0.25767
 C247 C -0.14062 1.03793 -0.28864
 C248 C -0.12207 1.01775 -0.23248
 H249 H -0.00886 1.08085 -0.34655
 H250 H 0.02587 1.04527 -0.24245
 H251 H -0.10618 1.14945 -0.16057
 H252 H -0.14124 1.18723 -0.26305
 H253 H -0.17631 1.01324 -0.31231
 H254 H -0.14166 0.97731 -0.21098
 C255 C 1.10065 0.60247 0.81675
 C256 C 1.04326 0.63445 0.78886
 C257 C 1.02749 0.61315 0.73228
 C258 C 1.06903 0.56159 0.70825
 C259 C 1.13409 0.58859 0.71076
 C260 C 1.15010 0.61064 0.76658
 C261 C 1.08177 0.53424 0.81514
 C262 C 1.06698 0.51260 0.75855
 H263 H 1.01690 0.67120 0.80904
 H264 H 0.98888 0.63154 0.70686
 H265 H 1.16455 0.59226 0.67148
 H266 H 1.19361 0.63361 0.77375
 H267 H 1.07979 0.50552 0.85575
 H268 H 1.05267 0.46550 0.75084
 C269 C 0.68710 0.61059 0.59636
 C270 C 0.69078 0.54286 0.57642
 C271 C 0.74740 0.52415 0.55816
 C272 C 0.79568 0.57520 0.55846
 C273 C 0.76776 0.62633 0.51903
 C274 C 0.71113 0.64498 0.53835
 C275 C 0.73901 0.62036 0.64330
 C276 C 0.79508 0.60136 0.62381
 H277 H 0.65143 0.51231 0.57618
 H278 H 0.75635 0.47772 0.54238
 H279 H 0.79109 0.64761 0.48050
 H280 H 0.68946 0.68295 0.51531
 H281 H 0.73265 0.64229 0.68751
 H282 H 0.83595 0.60684 0.65163
 C283 C 0.81429 0.39441 1.10006
 C284 C 0.76105 0.38927 1.14651
 C285 C 0.70627 0.40949 1.12523
 C286 C 0.70780 0.43147 1.05846
 C287 C 0.75809 0.48096 1.05640
 C288 C 0.81364 0.46122 1.07694
 C289 C 0.79046 0.35853 1.04294
 C290 C 0.73474 0.37764 1.02227
 H291 H 0.76548 0.36986 1.19199
 H292 H 0.66488 0.40800 1.15304
 H293 H 0.75140 0.52692 1.03848
 H294 H 0.85410 0.49027 1.07608
 H295 H 0.81371 0.32195 1.01896
 H296 H 0.71271 0.35732 0.98255
 C297 C 0.31364 1.10643 -0.10099
 C298 C 0.31201 1.03951 -0.07843
 C299 C 0.25614 1.02032 -0.05812
 C300 C 0.20643 1.07041 -0.05975
 C301 C 0.23379 1.12363 -0.02312
 C302 C 0.28992 1.14221 -0.04363
 C303 C 0.26074 1.11264 -0.14743
 C304 C 0.20555 1.09294 -0.12634
 H305 H 0.35208 1.00993 -0.07785
 H306 H 0.24882 0.97424 -0.04071
 H307 H 0.21165 1.14404 0.01662
 H308 H 0.31343 1.17848 -0.01954
 H309 H 0.26570 1.13242 -0.19273
 H310 H 0.16435 1.09522 -0.15412
 C311 C 0.18500 -0.09977 0.39839
 C312 C 0.18692 -0.07955 0.46621
 C313 C 0.24357 -0.06276 0.48670
 C314 C 0.29361 -0.06533 0.43716
 C315 C 0.29191 -0.13088 0.41195
 C316 C 0.23599 -0.14858 0.39098
 C317 C 0.21189 -0.04255 0.36510
 C318 C 0.26820 -0.02537 0.38509
 H319 H 0.14649 -0.07771 0.49534
 H320 H 0.25142 -0.04683 0.53318
 H321 H 0.33202 -0.16027 0.40875
 H322 H 0.22928 -0.19286 0.36934
 H323 H 0.19125 -0.01660 0.32857
 H324 H 0.29183 0.01408 0.36587
 C325 C 0.59788 -0.31233 0.60430
 C326 C 0.57886 -0.30933 0.53640
 C327 C 0.55933 -0.25314 0.51756
 C328 C 0.55744 -0.20490 0.56875
 C329 C 0.51783 -0.23419 0.61907
 C330 C 0.53825 -0.29038 0.63750
 C331 C 0.64329 -0.25906 0.61434
 C332 C 0.62240 -0.20361 0.59561
 H333 H 0.57974 -0.34879 0.50599
 H334 H 0.54375 -0.24464 0.47110
 H335 H 0.47699 -0.21309 0.63834
 H336 H 0.51308 -0.31480 0.67245
 H337 H 0.68756 -0.26398 0.63629
 H338 H 0.64914 -0.16195 0.60138
 C339 C 1.10279 0.81518 0.40159
 C340 C 1.13503 0.78886 0.45933
 C341 C 1.11467 0.73250 0.47639
 C342 C 1.06325 0.70670 0.43567
 C343 C 1.01365 0.75662 0.43721
 C344 C 1.03451 0.81323 0.42057
 C345 C 1.11102 0.76406 0.35308
 C346 C 1.08970 0.70815 0.37062
 H347 H 1.17066 0.81040 0.48590
 H348 H 1.13290 0.70921 0.51638
 H349 H 0.96683 0.74875 0.45236
 H350 H 1.00536 0.85361 0.42177
 H351 H 1.13337 0.77066 0.30914
 H352 H 1.09336 0.66792 0.34143
 C353 C -0.09956 1.31419 0.11074
 C354 C -0.14775 1.26247 0.11557
 C355 C -0.12802 1.20698 0.09507
 C356 C -0.06083 1.20630 0.07373
 C357 C -0.05643 1.25667 0.02469
 C358 C -0.07544 1.31271 0.04436
 C359 C -0.04421 1.28808 0.14766
 C360 C -0.02473 1.23178 0.12825
 H361 H -0.19312 1.26847 0.13522
 H362 H -0.15699 1.16645 0.09652
 H363 H -0.03835 1.24958 -0.02118
 H364 H -0.07320 1.35310 0.01532
 H365 H -0.02261 1.30860 0.18710
 H366 H 0.01252 1.20729 0.15034
 C367 C 0.40115 0.18528 0.88882
 C368 C 0.42477 0.18632 0.95526
 C369 C 0.44467 0.24204 0.97491
 C370 C 0.44145 0.29239 0.92579
 C371 C 0.47752 0.26637 0.87138
 C372 C 0.45725 0.21045 0.85200
 C373 C 0.35384 0.23772 0.88396
 C374 C 0.37439 0.29284 0.90441
 H375 H 0.42609 0.14591 0.98430
 H376 H 0.46261 0.24890 1.02077
 H377 H 0.51539 0.29020 0.84939
 H378 H 0.47892 0.18964 0.81264
 H379 H 0.30846 0.23245 0.86440
 H380 H 0.34607 0.33382 0.90301
 C381 C 0.60780 0.60067 0.68340
 C382 C 0.54172 0.57567 0.68444
 C383 C 0.52209 0.55605 0.74029
 C384 C 0.57097 0.56083 0.79073
 C385 C 0.62608 0.52551 0.76522
 C386 C 0.64527 0.54540 0.70916
 C387 C 0.61138 0.64867 0.73538
 C388 C 0.59114 0.62826 0.79060
 H389 H 0.51298 0.57310 0.64396
 H390 H 0.47651 0.53714 0.74716
 H391 H 0.64803 0.48772 0.78904
 H392 H 0.68406 0.52312 0.68790
 H393 H 0.63011 0.69441 0.72996
 H394 H 0.59183 0.65704 0.83126
 C395 C 0.39152 0.09751 0.81039
 C396 C 0.45944 0.07827 0.80663
 C397 C 0.47812 0.05948 0.75015
 C398 C 0.42681 0.05854 0.70228
 C399 C 0.37634 0.01876 0.73124
 C400 C 0.35792 0.03853 0.78774
 C401 C 0.38120 0.14373 0.75794
 C402 C 0.40000 0.12364 0.70210
 H403 H 0.49006 0.07869 0.84579
 H404 H 0.52462 0.04398 0.74112
 H405 H 0.35631 -0.02119 0.70929
 H406 H 0.32193 0.01402 0.81132
 H407 H 0.35916 0.18796 0.76387
 H408 H 0.39420 0.15097 0.66092
 C409 C 0.10008 0.89708 0.31687
 C410 C 0.08154 0.96541 0.31542
 C411 C 0.06642 0.98702 0.25895
 C412 C 0.06783 0.93792 0.20867
 C413 C 0.13276 0.91058 0.21069
 C414 C 0.14907 0.88854 0.26635
 C415 C 0.04229 0.86532 0.28946
 C416 C 0.02618 0.88662 0.23300
 H417 H 0.08004 0.99420 0.35604
 H418 H 0.05228 1.03417 0.25134
 H419 H 0.16294 0.90667 0.17121
 H420 H 0.19251 0.86535 0.27317
 H421 H 0.01598 0.82866 0.30980
 H422 H -0.01269 0.86835 0.20785
 C423 C 0.89187 0.40280 0.18872
 C424 C 0.88038 0.35738 0.24165
 C425 C 0.89905 0.37784 0.29734
 C426 C 0.92708 0.44250 0.29653
 C427 C 0.97870 0.43998 0.24872
 C428 C 0.96012 0.42077 0.19242
 C429 C 0.85921 0.46265 0.21070
 C430 C 0.87759 0.48279 0.26700
 H431 H 0.85776 0.31340 0.23612
 H432 H 0.89250 0.35106 0.33880
 H433 H 1.02543 0.45471 0.25765
 H434 H 0.99106 0.41924 0.15336
 H435 H 0.82372 0.48743 0.18687
 H436 H 0.85806 0.52330 0.28849
   
