data_POSCAR
  _audit_creation_date              2014-09-24
  _audit_creation_method            'ToBaCCo'
  _symmetry_space_group_name_H-M    'P1'
  _symmetry_Int_Tables_number       1
  _symmetry_cell_setting            triclinic
  loop_
  _symmetry_equiv_pos_as_xyz
 x,y,z
_cell_length_a 36.9570
_cell_length_b 37.6278
_cell_length_c 37.4716
_cell_angle_alpha 93.089200
_cell_angle_beta 90.892400
_cell_angle_gamma 84.745300
loop_
  _atom_site_label
  _atom_site_type_symbol
  _atom_site_fract_x
  _atom_site_fract_y
  _atom_site_fract_z
C1 C 0.26034 0.23998 0.21238
 C2 C 0.28835 0.23530 0.18736
 C3 C 0.31770 0.20930 0.19150
 C4 C 0.31838 0.18729 0.22067
 C5 C 0.29050 0.19172 0.24599
 C6 C 0.26143 0.21828 0.24195
 C7 C 0.23160 0.26646 0.20852
 C8 C 0.20388 0.27191 0.23399
 C9 C 0.20507 0.25022 0.26353
 C10 C 0.23364 0.22337 0.26764
 C11 C 0.23513 0.20180 0.29716
 C12 C 0.26407 0.17524 0.30138
 C13 C 0.29153 0.17034 0.27552
 H14 H 0.28735 0.25199 0.16460
 H15 H 0.34110 0.16739 0.22419
 H16 H 0.23126 0.28351 0.18607
 H17 H 0.18366 0.25413 0.28317
 H18 H 0.21409 0.20608 0.31717
 H19 H 0.31364 0.14963 0.27825
 C20 C 0.74063 -0.28217 0.22295
 C21 C 0.71402 -0.28395 0.19589
 C22 C 0.68425 -0.25758 0.19422
 C23 C 0.68191 -0.22936 0.22086
 C24 C 0.70816 -0.22740 0.24814
 C25 C 0.73756 -0.25394 0.24924
 C26 C 0.77027 -0.30834 0.22405
 C27 C 0.79692 -0.30720 0.25152
 C28 C 0.79312 -0.27863 0.27770
 C29 C 0.76390 -0.25220 0.27667
 C30 C 0.76078 -0.22394 0.30275
 C31 C 0.73165 -0.19720 0.30183
 C32 C 0.70535 -0.19924 0.27443
 H33 H 0.71767 -0.30526 0.17533
 H34 H 0.65883 -0.20943 0.22163
 H35 H 0.77139 -0.33041 0.20422
 H36 H 0.81367 -0.27575 0.29829
 H37 H 0.78085 -0.22303 0.32410
 H38 H 0.68300 -0.17856 0.27321
 C39 C 0.76677 0.28307 0.78905
 C40 C 0.74118 0.28181 0.81606
 C41 C 0.71667 0.25505 0.81515
 C42 C 0.71905 0.22908 0.78639
 C43 C 0.74435 0.23030 0.75904
 C44 C 0.76818 0.25750 0.76026
 C45 C 0.79086 0.30978 0.79056
 C46 C 0.81653 0.31192 0.76338
 C47 C 0.81711 0.28634 0.73423
 C48 C 0.79339 0.25915 0.73268
 C49 C 0.79462 0.23343 0.70403
 C50 C 0.77094 0.20613 0.70261
 C51 C 0.74593 0.20480 0.73029
 H52 H 0.74155 0.30114 0.83850
 H53 H 0.70009 0.20876 0.78398
 H54 H 0.78823 0.32983 0.81242
 H55 H 0.83705 0.28631 0.71337
 H56 H 0.81373 0.23488 0.68262
 H57 H 0.72796 0.18356 0.72972
 C58 C 0.23392 -0.27771 0.76478
 C59 C 0.26093 -0.27976 0.79154
 C60 C 0.28733 -0.25506 0.79410
 C61 C 0.28647 -0.22812 0.76937
 C62 C 0.25965 -0.22574 0.74246
 C63 C 0.23337 -0.25073 0.74009
 C64 C 0.20748 -0.30226 0.76247
 C65 C 0.18023 -0.30069 0.73550
 C66 C 0.18036 -0.27352 0.71085
 C67 C 0.20645 -0.24864 0.71310
 C68 C 0.20570 -0.22141 0.68889
 C69 C 0.23147 -0.19605 0.69127
 C70 C 0.25854 -0.19859 0.71807
 H71 H 0.26101 -0.30023 0.81082
 H72 H 0.30691 -0.20918 0.77085
 H73 H 0.20936 -0.32345 0.78101
 H74 H 0.15918 -0.27036 0.69069
 H75 H 0.18514 -0.22011 0.66794
 H76 H 0.27830 -0.17899 0.72042
 C77 C 0.73044 -0.25275 0.77266
 C78 C 0.70558 -0.24936 0.80087
 C79 C 0.67831 -0.22064 0.80330
 C80 C 0.67644 -0.19496 0.77724
 C81 C 0.70109 -0.19792 0.74894
 C82 C 0.72803 -0.22705 0.74652
 C83 C 0.75745 -0.28160 0.77004
 C84 C 0.78210 -0.28564 0.74123
 C85 C 0.77908 -0.25949 0.71539
 C86 C 0.75253 -0.23047 0.71791
 C87 C 0.75031 -0.20469 0.69215
 C88 C 0.72389 -0.17536 0.69450
 C89 C 0.69919 -0.17227 0.72293
 H90 H 0.70760 -0.26898 0.82112
 H91 H 0.65529 -0.17299 0.77858
 H92 H 0.75795 -0.30161 0.78978
 H93 H 0.79840 -0.26049 0.69386
 H94 H 0.76897 -0.20771 0.66993
 H95 H 0.67885 -0.14963 0.72512
 C96 C 0.26321 0.28381 0.78452
 C97 C 0.29117 0.28375 0.81024
 C98 C 0.32058 0.25725 0.80852
 C99 C 0.32179 0.23069 0.78058
 C100 C 0.29401 0.23042 0.75467
 C101 C 0.26458 0.25708 0.75659
 C102 C 0.23382 0.31012 0.78641
 C103 C 0.20565 0.31015 0.76076
 C104 C 0.20725 0.28351 0.73287
 C105 C 0.23649 0.25694 0.73066
 C106 C 0.23803 0.23017 0.70302
 C107 C 0.26729 0.20347 0.70095
 C108 C 0.29515 0.20384 0.72694
 H109 H 0.28973 0.30402 0.83198
 H110 H 0.34459 0.21042 0.77878
 H111 H 0.23305 0.33086 0.80769
 H112 H 0.18543 0.28313 0.71322
 H113 H 0.21666 0.23035 0.68287
 H114 H 0.31751 0.18306 0.72589
 C115 C 0.23991 -0.28647 0.22307
 C116 C 0.26502 -0.28678 0.19525
 C117 C 0.28826 -0.25907 0.19293
 C118 C 0.28533 -0.23082 0.21952
 C119 C 0.26046 -0.23027 0.24749
 C120 C 0.23775 -0.25821 0.24930
 C121 C 0.21698 -0.31414 0.22500
 C122 C 0.19189 -0.31436 0.25317
 C123 C 0.19037 -0.28569 0.27923
 C124 C 0.21289 -0.25788 0.27744
 C125 C 0.21073 -0.22961 0.30347
 C126 C 0.23329 -0.20167 0.30195
 C127 C 0.25819 -0.20223 0.27389
 H128 H 0.26519 -0.30817 0.17474
 H129 H 0.30347 -0.20981 0.21977
 H130 H 0.22005 -0.33618 0.20518
 H131 H 0.17052 -0.28379 0.30034
 H132 H 0.19186 -0.22964 0.32533
 H133 H 0.27545 -0.18059 0.27238
 C134 C 0.76660 0.28195 0.23788
 C135 C 0.74006 0.28199 0.21068
 C136 C 0.71474 0.25624 0.20875
 C137 C 0.71627 0.23025 0.23445
 C138 C 0.74261 0.22993 0.26178
 C139 C 0.76779 0.25598 0.26364
 C140 C 0.79199 0.30745 0.23951
 C141 C 0.81902 0.30773 0.26666
 C142 C 0.81933 0.28183 0.29269
 C143 C 0.79420 0.25596 0.29117
 C144 C 0.79540 0.22973 0.31653
 C145 C 0.77058 0.20345 0.31468
 C146 C 0.74425 0.20384 0.28718
 H147 H 0.73950 0.30175 0.19062
 H148 H 0.69661 0.21053 0.23346
 H149 H 0.78957 0.32784 0.22010
 H150 H 0.84021 0.28034 0.31327
 H151 H 0.81549 0.22993 0.33791
 H152 H 0.72535 0.18340 0.28514
 O153 O 0.27491 0.03150 0.47045
 O154 O 0.28156 -0.03580 0.53882
 O155 O 0.28177 -0.03782 0.46931
 O156 O 0.27581 0.03403 0.54001
 O157 O 0.21610 0.03437 0.53971
 O158 O 0.22207 -0.03763 0.46881
 O159 O 0.22184 -0.03530 0.53844
 O160 O 0.21521 0.03163 0.47001
 Cu161 Cu 0.28449 -0.00201 0.50481
 Cu162 Cu 0.21283 -0.00170 0.50431
 C163 C 0.24392 0.04285 0.45829
 C164 C 0.25277 -0.04721 0.55022
 C165 C 0.25294 -0.04991 0.45678
 C166 C 0.24501 0.04663 0.55189
 O167 O 0.77634 0.04302 0.53510
 O168 O 0.78030 -0.02842 0.46397
 O169 O 0.77634 0.04117 0.46586
 O170 O 0.77924 -0.02624 0.53374
 O171 O 0.71939 -0.02380 0.53263
 O172 O 0.71649 0.04341 0.46468
 O173 O 0.72048 -0.02638 0.46283
 O174 O 0.71647 0.04552 0.53399
 Cu175 Cu 0.78406 0.00701 0.49970
 Cu176 Cu 0.71221 0.00983 0.49833
 C177 C 0.74575 0.05660 0.54669
 C178 C 0.75118 -0.03966 0.45117
 C179 C 0.74585 0.05412 0.45392
 C180 C 0.74980 -0.03631 0.54508
 O181 O 0.48481 0.25646 0.04034
 O182 O 0.55538 0.25313 -0.02761
 O183 O 0.48502 0.25442 -0.02901
 O184 O 0.55520 0.25427 0.04175
 O185 O 0.55948 0.19534 0.03957
 O186 O 0.48867 0.19552 -0.03053
 O187 O 0.55924 0.19421 -0.03011
 O188 O 0.48870 0.19756 0.03899
 Cu189 Cu 0.51973 0.26046 0.00655
 Cu190 Cu 0.52446 0.18971 0.00433
 C191 C 0.47458 0.22772 0.05135
 C192 C 0.56935 0.22326 -0.04065
 C193 C 0.47474 0.22499 -0.04182
 C194 C 0.56940 0.22476 0.05275
 O195 O 0.51472 0.79626 0.03441
 O196 O 0.44446 0.79692 -0.03563
 O197 O 0.44429 0.79692 0.03387
 O198 O 0.51527 0.79261 -0.03519
 O199 O 0.51812 0.73376 -0.03664
 O200 O 0.44786 0.73804 0.03206
 O201 O 0.44742 0.73805 -0.03765
 O202 O 0.51866 0.73738 0.03308
 Cu203 Cu 0.47935 0.80153 -0.00048
 Cu204 Cu 0.48333 0.73093 -0.00241
 C205 C 0.52880 0.76695 0.04583
 C206 C 0.43382 0.76782 -0.04873
 C207 C 0.43398 0.76807 0.04479
 C208 C 0.52877 0.76227 -0.04777
 O209 O 0.04392 0.45883 0.26970
 O210 O -0.02850 0.53130 0.26093
 O211 O -0.02649 0.46240 0.26510
 O212 O 0.04236 0.52748 0.26201
 O213 O 0.04433 0.51887 0.20338
 O214 O -0.02477 0.45515 0.20631
 O215 O -0.02678 0.52373 0.20220
 O216 O 0.04555 0.44995 0.21107
 Cu217 Cu 0.00772 0.49591 0.27029
 Cu218 Cu 0.00996 0.48622 0.19987
 C219 C 0.05681 0.44158 0.24204
 C220 C -0.04037 0.53979 0.23029
 C221 C -0.03748 0.44776 0.23601
 C222 C 0.05511 0.53429 0.23203
 O223 O 0.02569 0.54373 0.78232
 O224 O -0.03922 0.47502 0.77523
 O225 O 0.03093 0.47442 0.77509
 O226 O -0.04507 0.54453 0.78362
 O227 O -0.04706 0.54766 0.72502
 O228 O 0.02953 0.47792 0.71650
 O229 O -0.04068 0.47802 0.71660
 O230 O 0.02365 0.54730 0.72376
 Cu231 Cu -0.00682 0.50919 0.78494
 Cu232 Cu -0.00891 0.51320 0.71461
 C233 C 0.03602 0.55710 0.75419
 C234 C -0.05073 0.46443 0.74470
 C235 C 0.04322 0.46409 0.74442
 C236 C -0.05919 0.55804 0.75576
 C237 C 0.36344 0.17250 0.15269
 C238 C 0.34811 0.20614 0.16584
 C239 C 0.36181 0.23711 0.15422
 C240 C 0.38995 0.23468 0.12939
 C241 C 0.40495 0.20078 0.11595
 C242 C 0.39161 0.16983 0.12792
 C243 C 0.43285 0.19849 0.09067
 C244 C 0.44583 0.22971 0.07862
 C245 C 0.43079 0.26321 0.09250
 C246 C 0.40317 0.26567 0.11765
 H247 H 0.35066 0.26319 0.16469
 H248 H 0.40276 0.14361 0.11793
 H249 H 0.44420 0.17249 0.08023
 H250 H 0.39198 0.29185 0.12776
 H251 H 0.35318 0.14827 0.16111
 H252 H 0.44027 0.28769 0.08379
 C253 C 0.64963 0.70773 0.14965
 C254 C 0.65745 0.74073 0.16658
 C255 C 0.63764 0.77213 0.15520
 C256 C 0.61093 0.77066 0.12831
 C257 C 0.60331 0.73742 0.11208
 C258 C 0.62288 0.70614 0.12292
 C259 C 0.57633 0.73608 0.08524
 C260 C 0.55713 0.76773 0.07424
 C261 C 0.56525 0.80067 0.09053
 C262 C 0.59181 0.80211 0.11728
 H263 H 0.64377 0.79818 0.16603
 H264 H 0.61733 0.68033 0.11091
 H265 H 0.57051 0.71051 0.07283
 H266 H 0.59736 0.82789 0.12938
 H267 H 0.66292 0.68265 0.15790
 H268 H 0.55095 0.82550 0.08270
 C269 C 0.67652 0.28669 -0.13927
 C270 C 0.69020 0.25465 -0.15779
 C271 C 0.67656 0.22242 -0.14865
 C272 C 0.65036 0.22228 -0.12192
 C273 C 0.63713 0.25470 -0.10403
 C274 C 0.65036 0.28668 -0.11288
 C275 C 0.61080 0.25473 -0.07756
 C276 C 0.59750 0.22265 -0.06837
 C277 C 0.61108 0.19039 -0.08604
 C278 C 0.63726 0.19021 -0.11262
 H279 H 0.68717 0.19705 -0.16111
 H280 H 0.64024 0.31184 -0.09958
 H281 H 0.60074 0.27983 -0.06407
 H282 H 0.64717 0.16501 -0.12596
 H283 H 0.68465 0.31237 -0.14602
 H284 H 0.60130 0.16530 -0.07949
 C285 C 0.33242 0.70971 -0.16752
 C286 C 0.31548 0.74291 -0.17711
 C287 C 0.32544 0.77426 -0.15891
 C288 C 0.35194 0.77256 -0.13170
 C289 C 0.36878 0.73907 -0.12225
 C290 C 0.35879 0.70780 -0.14034
 C291 C 0.39536 0.73747 -0.09497
 C292 C 0.40544 0.76900 -0.07714
 C293 C 0.38838 0.80211 -0.08686
 C294 C 0.36187 0.80387 -0.11378
 H295 H 0.31223 0.80000 -0.16561
 H296 H 0.37146 0.68188 -0.13358
 H297 H 0.40831 0.71176 -0.08785
 H298 H 0.34921 0.82976 -0.12066
 H299 H 0.32557 0.68518 -0.18137
 H300 H 0.39549 0.82684 -0.07360
 C301 C 0.15843 0.30711 0.19628
 C302 C 0.17442 0.30104 0.22997
 C303 C 0.16328 0.32390 0.25943
 C304 C 0.13704 0.35281 0.25520
 C305 C 0.12150 0.35893 0.22110
 C306 C 0.13220 0.33575 0.19188
 C307 C 0.09559 0.38814 0.21679
 C308 C 0.08482 0.41128 0.24620
 C309 C 0.10041 0.40481 0.28000
 C310 C 0.12631 0.37592 0.28443
 H311 H 0.17573 0.31976 0.28545
 H312 H 0.12046 0.33989 0.16558
 H313 H 0.08366 0.39266 0.19063
 H314 H 0.13794 0.37167 0.31075
 H315 H 0.16627 0.28963 0.17325
 H316 H 0.09262 0.42216 0.30313
 C317 C 0.13679 0.66519 0.70020
 C318 C 0.15342 0.67439 0.73326
 C319 C 0.14245 0.65808 0.76399
 C320 C 0.11593 0.63358 0.76175
 C321 C 0.09996 0.62472 0.72839
 C322 C 0.11057 0.64068 0.69784
 C323 C 0.07372 0.59996 0.72608
 C324 C 0.06300 0.58395 0.75683
 C325 C 0.07880 0.59331 0.79000
 C326 C 0.10501 0.61786 0.79244
 H327 H 0.15323 0.66532 0.79013
 H328 H 0.09878 0.63399 0.67195
 H329 H 0.06174 0.59312 0.70031
 H330 H 0.11686 0.62442 0.81832
 H331 H 0.14493 0.67562 0.67551
 H332 H 0.07111 0.58142 0.81412
 C333 C -0.15667 0.65751 0.28611
 C334 C -0.17336 0.66602 0.25305
 C335 C -0.15948 0.64712 0.22175
 C336 C -0.12984 0.62101 0.22349
 C337 C -0.11380 0.61313 0.25689
 C338 C -0.12743 0.63147 0.28795
 C339 C -0.08445 0.58690 0.25879
 C340 C -0.07059 0.56830 0.22766
 C341 C -0.08644 0.57660 0.19442
 C342 C -0.11581 0.60271 0.19236
 H343 H -0.17048 0.65352 0.19569
 H344 H -0.11563 0.62548 0.31384
 H345 H -0.07252 0.58091 0.28464
 H346 H -0.12765 0.60845 0.16643
 H347 H -0.16694 0.66979 0.31114
 H348 H -0.07637 0.56269 0.17002
 C349 C -0.14812 0.35388 0.79902
 C350 C -0.15912 0.33914 0.76550
 C351 C -0.14543 0.35257 0.73436
 C352 C -0.12220 0.38018 0.73671
 C353 C -0.11181 0.39446 0.77053
 C354 C -0.12478 0.38102 0.80144
 C355 C -0.08861 0.42199 0.77295
 C356 C -0.07573 0.43578 0.74192
 C357 C -0.08646 0.42159 0.70832
 C358 C -0.10944 0.39402 0.70574
 H359 H -0.15401 0.34298 0.70810
 H360 H -0.11676 0.39143 0.82763
 H361 H -0.08065 0.43267 0.79906
 H362 H -0.11719 0.38351 0.67951
 H363 H -0.15629 0.34367 0.82381
 H364 H -0.07692 0.43165 0.68396
 C365 C 0.29925 0.14367 0.35000
 C366 C 0.26583 0.15250 0.33270
 C367 C 0.23437 0.13883 0.34499
 C368 C 0.23640 0.11613 0.37363
 C369 C 0.27028 0.10695 0.39032
 C370 C 0.30146 0.12110 0.37849
 C371 C 0.27250 0.08345 0.41828
 C372 C 0.24127 0.06889 0.42988
 C373 C 0.20761 0.07868 0.41344
 C374 C 0.20520 0.10203 0.38557
 H375 H 0.20849 0.14512 0.33170
 H376 H 0.32763 0.11455 0.39112
 H377 H 0.29863 0.07627 0.43075
 H378 H 0.17898 0.10881 0.37315
 H379 H 0.32377 0.15433 0.34153
 H380 H 0.18311 0.06789 0.42181
 C381 C 0.80598 0.16357 0.65910
 C382 C 0.77239 0.17874 0.67247
 C383 C 0.74014 0.16702 0.65746
 C384 C 0.74139 0.14018 0.62992
 C385 C 0.77531 0.12492 0.61692
 C386 C 0.80744 0.13694 0.63156
 C387 C 0.77657 0.09777 0.58967
 C388 C 0.74431 0.08552 0.57520
 C389 C 0.71071 0.10107 0.58824
 C390 C 0.70926 0.12816 0.61531
 H391 H 0.71404 0.17887 0.66713
 H392 H 0.83369 0.12550 0.62196
 H393 H 0.80269 0.08611 0.57989
 H394 H 0.68301 0.13959 0.62494
 H395 H 0.83121 0.17180 0.67045
 H396 H 0.68546 0.09223 0.57756
 C397 C 0.19588 -0.14967 0.65598
 C398 C 0.22968 -0.16678 0.66597
 C399 C 0.26156 -0.15592 0.65146
 C400 C 0.25964 -0.12871 0.62706
 C401 C 0.22544 -0.11212 0.61695
 C402 C 0.19377 -0.12268 0.63169
 C403 C 0.22342 -0.08537 0.59212
 C404 C 0.25518 -0.07480 0.57716
 C405 C 0.28910 -0.09122 0.58771
 C406 C 0.29131 -0.11796 0.61237
 H407 H 0.28779 -0.16908 0.65861
 H408 H 0.16733 -0.11009 0.62441
 H409 H 0.19706 -0.07291 0.58436
 H410 H 0.31778 -0.13034 0.61983
 H411 H 0.17095 -0.15699 0.66721
 H412 H 0.31399 -0.08365 0.57662
 C413 C 0.69506 -0.15448 0.34423
 C414 C 0.72887 -0.16721 0.32949
 C415 C 0.76019 -0.15142 0.34161
 C416 C 0.75792 -0.12373 0.36832
 C417 C 0.72383 -0.11125 0.38303
 C418 C 0.69256 -0.12673 0.37070
 C419 C 0.72166 -0.08365 0.40993
 C420 C 0.75320 -0.06847 0.42249
 C421 C 0.78692 -0.08115 0.40753
 C422 C 0.78924 -0.10843 0.38066
 H423 H 0.78636 -0.16052 0.33011
 H424 H 0.66620 -0.11759 0.38173
 H425 H 0.69547 -0.07421 0.42121
 H426 H 0.81560 -0.11766 0.36966
 H427 H 0.67057 -0.16641 0.33573
 H428 H 0.81164 -0.06995 0.41657
 C429 C 0.63985 0.81560 -0.15059
 C430 C 0.65132 0.78220 -0.16738
 C431 C 0.63633 0.75155 -0.15649
 C432 C 0.61017 0.75419 -0.12949
 C433 C 0.59861 0.78793 -0.11305
 C434 C 0.61375 0.81845 -0.12373
 C435 C 0.57205 0.79057 -0.08634
 C436 C 0.55698 0.75982 -0.07573
 C437 C 0.56896 0.72641 -0.09218
 C438 C 0.59521 0.72363 -0.11882
 H439 H 0.64447 0.72569 -0.16950
 H440 H 0.60538 0.84453 -0.11133
 H441 H 0.56319 0.81649 -0.07386
 H442 H 0.60376 0.69755 -0.13112
 H443 H 0.65129 0.83958 -0.15809
 H444 H 0.55786 0.70228 -0.08463
 C445 C 0.36339 0.28935 -0.15139
 C446 C 0.34986 0.25717 -0.16390
 C447 C 0.36422 0.22494 -0.14972
 C448 C 0.39159 0.22482 -0.12337
 C449 C 0.40484 0.25735 -0.11088
 C450 C 0.39061 0.28944 -0.12513
 C451 C 0.43202 0.25725 -0.08432
 C452 C 0.44625 0.22502 -0.07003
 C453 C 0.43295 0.19281 -0.08279
 C454 C 0.40585 0.19272 -0.10917
 H455 H 0.35369 0.20000 -0.15877
 H456 H 0.40054 0.31461 -0.11597
 H457 H 0.44203 0.28229 -0.07481
 H458 H 0.39601 0.16754 -0.11844
 H459 H 0.35314 0.31447 -0.16222
 H460 H 0.44339 0.16761 -0.07226
 C461 C 0.32849 0.70753 0.14814
 C462 C 0.31410 0.74023 0.16497
 C463 C 0.32660 0.77214 0.15335
 C464 C 0.35269 0.77133 0.12638
 C465 C 0.36684 0.73830 0.11037
 C466 C 0.35446 0.70663 0.12134
 C467 C 0.39323 0.73743 0.08371
 C468 C 0.40572 0.76927 0.07262
 C469 C 0.39116 0.80208 0.08851
 C470 C 0.36490 0.80310 0.11512
 H471 H 0.31529 0.79795 0.16417
 H472 H 0.36521 0.68100 0.10947
 H473 H 0.40405 0.71190 0.07166
 H474 H 0.35428 0.82875 0.12701
 H475 H 0.32120 0.68212 0.15657
 H476 H 0.40020 0.82701 0.08051
 C477 C 0.66881 0.28879 0.16933
 C478 C 0.68679 0.25640 0.17985
 C479 C 0.67786 0.22414 0.16269
 C480 C 0.65127 0.22418 0.13557
 C481 C 0.63343 0.25691 0.12521
 C482 C 0.64242 0.28906 0.14224
 C483 C 0.60684 0.25696 0.09808
 C484 C 0.59765 0.22466 0.08119
 C485 C 0.61559 0.19226 0.09175
 C486 C 0.64220 0.19203 0.11863
 H487 H 0.69186 0.19901 0.17017
 H488 H 0.62892 0.31439 0.13474
 H489 H 0.59321 0.28215 0.09029
 H490 H 0.65562 0.16669 0.12623
 H491 H 0.67483 0.31397 0.18243
 H492 H 0.60911 0.16701 0.07917
 C493 C -0.17685 0.67237 0.70444
 C494 C -0.19060 0.68514 0.73823
 C495 C -0.17584 0.66835 0.76879
 C496 C -0.14765 0.64067 0.76570
 C497 C -0.13407 0.62891 0.73167
 C498 C -0.14909 0.64470 0.70126
 C499 C -0.10548 0.60174 0.72856
 C500 C -0.08991 0.58619 0.75913
 C501 C -0.10374 0.59796 0.79293
 C502 C -0.13234 0.62491 0.79618
 H503 H -0.18467 0.67782 0.79531
 H504 H -0.13933 0.63568 0.67488
 H505 H -0.09516 0.59298 0.70230
 H506 H -0.14233 0.63357 0.82256
 H507 H -0.18819 0.68279 0.67993
 H508 H -0.09234 0.58644 0.81695
 C509 C -0.13811 0.34458 0.29970
 C510 C -0.15465 0.33306 0.26734
 C511 C -0.14396 0.34734 0.23541
 C512 C -0.11794 0.37219 0.23574
 C513 C -0.10204 0.38358 0.26837
 C514 C -0.11233 0.36960 0.30018
 C515 C -0.07598 0.40856 0.26856
 C516 C -0.06530 0.42189 0.23635
 C517 C -0.08123 0.41010 0.20404
 C518 C -0.10733 0.38558 0.20374
 H519 H -0.15448 0.33809 0.20977
 H520 H -0.10055 0.37813 0.32552
 H521 H -0.06378 0.41726 0.29365
 H522 H -0.11919 0.37705 0.17843
 H523 H -0.14596 0.33553 0.32512
 H524 H -0.07362 0.41994 0.17884
 C525 C 0.15887 0.34836 0.79671
 C526 C 0.17451 0.33800 0.76336
 C527 C 0.16055 0.35463 0.73269
 C528 C 0.13157 0.38146 0.73535
 C529 C 0.11627 0.39178 0.76908
 C530 C 0.13003 0.37499 0.79956
 C531 C 0.08750 0.41875 0.77184
 C532 C 0.07364 0.43566 0.74129
 C533 C 0.08899 0.42511 0.70783
 C534 C 0.11772 0.39828 0.70490
 H535 H 0.17264 0.34714 0.70688
 H536 H 0.11852 0.38247 0.82560
 H537 H 0.07591 0.42652 0.79781
 H538 H 0.12911 0.39072 0.67881
 H539 H 0.16878 0.33561 0.82065
 H540 H 0.07885 0.43766 0.68387
 C541 C 0.15498 0.64898 0.28844
 C542 C 0.16850 0.65776 0.25521
 C543 C 0.15744 0.63839 0.22413
 C544 C 0.13302 0.61208 0.22613
 C545 C 0.11948 0.60432 0.25957
 C546 C 0.13090 0.62269 0.29054
 C547 C 0.09444 0.57859 0.26150
 C548 C 0.08247 0.56058 0.23027
 C549 C 0.09639 0.56833 0.19711
 C550 C 0.12141 0.59380 0.19507
 H551 H 0.16605 0.64483 0.19796
 H552 H 0.12116 0.61676 0.31650
 H553 H 0.08399 0.57293 0.28726
 H554 H 0.13147 0.59936 0.16913
 H555 H 0.16374 0.66147 0.31336
 H556 H 0.08774 0.55488 0.17260
 C557 C 0.68879 -0.13403 0.65328
 C558 C 0.72233 -0.14813 0.66713
 C559 C 0.75459 -0.13666 0.65415
 C560 C 0.75347 -0.11196 0.62737
 C561 C 0.71963 -0.09816 0.61344
 C562 C 0.68744 -0.10925 0.62669
 C563 C 0.71857 -0.07359 0.58648
 C564 C 0.75094 -0.06257 0.57321
 C565 C 0.78442 -0.07649 0.58735
 C566 C 0.78567 -0.10093 0.61419
 H567 H 0.78062 -0.14686 0.66501
 H568 H 0.66125 -0.09898 0.61629
 H569 H 0.69253 -0.06305 0.57591
 H570 H 0.81185 -0.11125 0.62459
 H571 H 0.66358 -0.14270 0.66251
 H572 H 0.80975 -0.06845 0.57771
 C573 C 0.19684 -0.15705 0.34221
 C574 C 0.23090 -0.17215 0.32995
 C575 C 0.26262 -0.15947 0.34512
 C576 C 0.26036 -0.13239 0.37246
 C577 C 0.22596 -0.11762 0.38474
 C578 C 0.19438 -0.13003 0.36932
 C579 C 0.22368 -0.09077 0.41229
 C580 C 0.25538 -0.07838 0.42783
 C581 C 0.28945 -0.09323 0.41532
 C582 C 0.29192 -0.12000 0.38792
 H583 H 0.28903 -0.17120 0.33617
 H584 H 0.16778 -0.11891 0.37829
 H585 H 0.19722 -0.07954 0.42157
 H586 H 0.31852 -0.13102 0.37886
 H587 H 0.17203 -0.16606 0.33063
 H588 H 0.31431 -0.08420 0.42676
 C589 C 0.80588 0.15919 0.35275
 C590 C 0.77223 0.17537 0.34119
 C591 C 0.74005 0.16411 0.35460
 C592 C 0.74141 0.13689 0.37883
 C593 C 0.77538 0.12082 0.39022
 C594 C 0.80745 0.13223 0.37709
 C595 C 0.77671 0.09364 0.41455
 C596 C 0.74447 0.08221 0.42763
 C597 C 0.71084 0.09832 0.41594
 C598 C 0.70932 0.12544 0.39182
 H599 H 0.71392 0.17670 0.34636
 H600 H 0.83374 0.12013 0.38545
 H601 H 0.80285 0.08149 0.42331
 H602 H 0.68305 0.13746 0.38334
 H603 H 0.83105 0.16697 0.34248
 H604 H 0.68559 0.09013 0.42563
 C605 C 0.30192 0.16362 0.65498
 C606 C 0.26880 0.17503 0.67180
 C607 C 0.23732 0.15879 0.66097
 C608 C 0.23897 0.13137 0.63395
 C609 C 0.27250 0.11994 0.61754
 C610 C 0.30377 0.13633 0.62815
 C611 C 0.27427 0.09228 0.59083
 C612 C 0.24290 0.07585 0.58008
 C613 C 0.20963 0.08758 0.59643
 C614 C 0.20769 0.11503 0.62318
 H615 H 0.21170 0.16702 0.67398
 H616 H 0.32966 0.12803 0.61571
 H617 H 0.30011 0.08364 0.57838
 H618 H 0.18174 0.12346 0.63545
 H619 H 0.32643 0.17604 0.66242
 H620 H 0.18506 0.07540 0.58868
   
