data_POSCAR
  _audit_creation_date              2014-09-24
  _audit_creation_method            'ToBaCCo'
  _symmetry_space_group_name_H-M    'P1'
  _symmetry_Int_Tables_number       1
  _symmetry_cell_setting            triclinic
  loop_
  _symmetry_equiv_pos_as_xyz
 x,y,z
_cell_length_a 41.4791
_cell_length_b 33.8011
_cell_length_c 21.0853
_cell_angle_alpha 89.949500
_cell_angle_beta 89.959300
_cell_angle_gamma 90.049200
loop_
  _atom_site_label
  _atom_site_type_symbol
  _atom_site_fract_x
  _atom_site_fract_y
  _atom_site_fract_z
C1 C 0.69573 0.30002 0.55893
 C2 C 0.68259 0.31206 0.50106
 C3 C 0.69590 0.29988 0.44350
 C4 C 0.72317 0.27492 0.44302
 C5 C 0.73681 0.26241 0.50143
 C6 C 0.72305 0.27499 0.55975
 C7 C 0.73698 0.26220 0.61702
 C8 C 0.76386 0.23757 0.61710
 C9 C 0.77789 0.22475 0.55991
 C10 C 0.76424 0.23729 0.50149
 C11 C 0.73712 0.26217 0.38584
 C12 C 0.76402 0.23755 0.38586
 C13 C 0.77797 0.22474 0.44312
 C14 C 0.80529 0.19972 0.44381
 C15 C 0.81846 0.18761 0.50160
 C16 C 0.80520 0.19971 0.55932
 H17 H 0.72715 0.27119 0.66236
 H18 H 0.77362 0.22861 0.66251
 H19 H 0.72733 0.27115 0.34048
 H20 H 0.77382 0.22859 0.34049
 H21 H 0.66161 0.33128 0.50068
 H22 H 0.83945 0.16836 0.50166
 C23 C 0.19606 0.80014 0.55934
 C24 C 0.18280 0.81227 0.50169
 C25 C 0.19596 0.80014 0.44395
 C26 C 0.22321 0.77512 0.44323
 C27 C 0.23694 0.76256 0.50155
 C28 C 0.22330 0.77512 0.55993
 C29 C 0.23725 0.76234 0.61712
 C30 C 0.26412 0.73765 0.61708
 C31 C 0.27805 0.72482 0.55981
 C32 C 0.26432 0.73741 0.50148
 C33 C 0.23707 0.76235 0.38595
 C34 C 0.26395 0.73767 0.38586
 C35 C 0.27792 0.72488 0.44304
 C36 C 0.30515 0.69986 0.44351
 C37 C 0.31845 0.68767 0.50108
 C38 C 0.30534 0.69974 0.55897
 H39 H 0.22746 0.77137 0.66247
 H40 H 0.27394 0.72867 0.66243
 H41 H 0.22722 0.77136 0.34066
 H42 H 0.27371 0.72867 0.34048
 H43 H 0.16185 0.83150 0.50175
 H44 H 0.33941 0.66840 0.50069
 C45 C 0.19511 0.20022 -0.44428
 C46 C 0.18181 0.18802 -0.50182
 C47 C 0.19501 0.20000 -0.55973
 C48 C 0.22238 0.22500 -0.56066
 C49 C 0.23613 0.23760 -0.50240
 C50 C 0.22244 0.22516 -0.44392
 C51 C 0.23642 0.23795 -0.38679
 C52 C 0.26337 0.26253 -0.38696
 C53 C 0.27732 0.27522 -0.44427
 C54 C 0.26361 0.26267 -0.50257
 C55 C 0.23637 0.23772 -0.61799
 C56 C 0.26332 0.26233 -0.61816
 C57 C 0.27734 0.27516 -0.56101
 C58 C 0.30472 0.30016 -0.56042
 C59 C 0.31793 0.31224 -0.50265
 C60 C 0.30465 0.30014 -0.44497
 H61 H 0.22660 0.22903 -0.34138
 H62 H 0.27322 0.27155 -0.34167
 H63 H 0.22654 0.22871 -0.66329
 H64 H 0.27313 0.27124 -0.66358
 H65 H 0.16078 0.16882 -0.50138
 H66 H 0.33896 0.33143 -0.50243
 C67 C -0.30534 0.69935 -0.44360
 C68 C -0.31848 0.68725 -0.50141
 C69 C -0.30523 0.69950 -0.55911
 C70 C -0.27797 0.72469 -0.55962
 C71 C -0.26436 0.73721 -0.50115
 C72 C -0.27808 0.72451 -0.44283
 C73 C -0.26417 0.73730 -0.38552
 C74 C -0.23733 0.76206 -0.38541
 C75 C -0.22339 0.77497 -0.44254
 C76 C -0.23699 0.76248 -0.50100
 C77 C -0.26395 0.73767 -0.61676
 C78 C -0.23712 0.76245 -0.61659
 C79 C -0.22324 0.77522 -0.55927
 C80 C -0.19597 0.80039 -0.55837
 C81 C -0.18287 0.81241 -0.50048
 C82 C -0.19616 0.80008 -0.44294
 H83 H -0.27398 0.72822 -0.34018
 H84 H -0.22758 0.77102 -0.34002
 H85 H -0.27367 0.72873 -0.66219
 H86 H -0.22729 0.77156 -0.66190
 H87 H -0.33944 0.66790 -0.50148
 H88 H -0.16193 0.83174 -0.50006
 N89 N 0.03331 1.07074 -0.06754
 N90 N 0.05521 1.09795 -0.08088
 N91 N -0.03448 1.04288 -0.11082
 N92 N -0.05635 1.05029 -0.15460
 N93 N -0.03450 1.07070 -0.06733
 N94 N -0.05640 1.09786 -0.08050
 N95 N 0.03326 1.04291 -0.11099
 N96 N 0.05510 1.05034 -0.15491
 C97 C 0.06884 1.08435 -0.13494
 C98 C -0.07008 1.08426 -0.13449
 N99 N -0.03456 0.92992 -0.06710
 N100 N -0.05646 0.90270 -0.08023
 N101 N 0.03323 0.95775 -0.11077
 N102 N 0.05522 0.95042 -0.15441
 N103 N 0.03325 0.92996 -0.06716
 N104 N 0.05528 0.90290 -0.08007
 N105 N -0.03452 0.95772 -0.11068
 N106 N -0.05637 0.95027 -0.15448
 Mn107 Mn -0.00063 1.00032 -0.11132
 C108 C -0.07011 0.91627 -0.13431
 C109 C 0.06901 0.91653 -0.13407
 N110 N -0.03446 1.07074 0.06972
 N111 N -0.05630 1.09798 0.08303
 N112 N 0.03332 1.04297 0.11308
 N113 N 0.05529 1.05035 0.15669
 N114 N 0.03335 1.07075 0.06947
 N115 N 0.05536 1.09787 0.08237
 N116 N -0.03442 1.04294 0.11329
 N117 N -0.05621 1.05041 0.15726
 Mn118 Mn -0.00058 1.07117 0.00108
 C119 C -0.06991 1.08441 0.13720
 C120 C 0.06907 1.08428 0.13634
 N121 N 0.03328 0.92997 0.06980
 N122 N 0.05522 0.90283 0.08291
 N123 N -0.03447 0.95777 0.11342
 N124 N -0.05641 0.95040 0.15718
 N125 N -0.03453 0.92997 0.06991
 N126 N -0.05653 0.90286 0.08302
 N127 N 0.03328 0.95779 0.11328
 N128 N 0.05519 0.95041 0.15700
 Mn129 Mn -0.00064 0.92953 0.00136
 Mn130 Mn -0.00057 1.00037 0.11378
 Cl131 Cl -0.00061 1.00035 0.00123
 C132 C 0.06892 0.91645 0.13687
 C133 C -0.07021 0.91647 0.13703
 N134 N 0.53447 0.57015 -0.06939
 N135 N 0.55638 0.59735 -0.08263
 N136 N 0.46668 0.54241 -0.11294
 N137 N 0.44481 0.54986 -0.15672
 N138 N 0.46666 0.57020 -0.06941
 N139 N 0.44476 0.59738 -0.08254
 N140 N 0.53442 0.54235 -0.11290
 N141 N 0.55628 0.54980 -0.15677
 C142 C 0.57003 0.58377 -0.13669
 C143 C 0.43109 0.58382 -0.13658
 N144 N 0.46651 0.42942 -0.06935
 N145 N 0.44454 0.40229 -0.08246
 N146 N 0.53434 0.45719 -0.11289
 N147 N 0.55623 0.44977 -0.15668
 N148 N 0.53432 0.42937 -0.06934
 N149 N 0.55623 0.40219 -0.08246
 N150 N 0.46659 0.45725 -0.11288
 N151 N 0.44471 0.44990 -0.15665
 Mn152 Mn 0.50051 0.49980 -0.11341
 C153 C 0.43090 0.41594 -0.13649
 C154 C 0.56993 0.41579 -0.13651
 N155 N 0.46661 0.57013 0.06759
 N156 N 0.44470 0.59730 0.08070
 N157 N 0.53433 0.54228 0.11120
 N158 N 0.55614 0.54972 0.15510
 N159 N 0.53442 0.57010 0.06765
 N160 N 0.55631 0.59731 0.08089
 N161 N 0.46658 0.54230 0.11113
 N162 N 0.44468 0.54970 0.15489
 Mn163 Mn 0.50054 0.57058 -0.00089
 C164 C 0.43098 0.58368 0.13472
 C165 C 0.56990 0.58372 0.13500
 N166 N 0.53425 0.42933 0.06767
 N167 N 0.55618 0.40218 0.08078
 N168 N 0.46648 0.45714 0.11118
 N169 N 0.44455 0.44972 0.15495
 N170 N 0.46644 0.42935 0.06765
 N171 N 0.44446 0.40219 0.08077
 N172 N 0.53422 0.45712 0.11119
 N173 N 0.55611 0.44972 0.15494
 Mn174 Mn 0.50038 0.42893 -0.00084
 Mn175 Mn 0.50040 0.49971 0.11169
 Cl176 Cl 0.50046 0.49976 -0.00086
 C177 C 0.56985 0.41577 0.13479
 C178 C 0.43078 0.41577 0.13480
 C179 C 0.31932 0.31350 0.38541
 C180 C 0.33345 0.32643 0.33988
 C181 C 0.35149 0.34295 0.28960
 C182 C 0.36807 0.35816 0.24942
 C183 C 0.38878 0.37716 0.20578
 C184 C 0.40745 0.39431 0.17159
 C185 C -0.18138 0.81392 0.38761
 C186 C -0.16730 0.82696 0.34213
 C187 C -0.14934 0.84357 0.29185
 C188 C -0.13282 0.85883 0.25166
 C189 C -0.11217 0.87787 0.20801
 C190 C -0.09353 0.89504 0.17381
 C191 C 0.68032 0.68614 0.38665
 C192 C 0.66634 0.67320 0.34102
 C193 C 0.64850 0.65667 0.29058
 C194 C 0.63208 0.64145 0.25023
 C195 C 0.61158 0.62242 0.20636
 C196 C 0.59307 0.60524 0.17199
 C197 C 0.18041 1.18658 0.38626
 C198 C 0.16631 1.17361 0.34082
 C199 C 0.14832 1.15707 0.29061
 C200 C 0.13178 1.14186 0.25050
 C201 C 0.11110 1.12286 0.20698
 C202 C 0.09242 1.10571 0.17293
 C203 C 0.68112 0.31342 -0.38701
 C204 C 0.66700 0.32639 -0.34155
 C205 C 0.64899 0.34294 -0.29132
 C206 C 0.63245 0.35816 -0.25116
 C207 C 0.61181 0.37716 -0.20752
 C208 C 0.59320 0.39432 -0.17332
 C209 C 0.18070 0.81427 -0.38348
 C210 C 0.16654 0.82728 -0.33815
 C211 C 0.14848 0.84385 -0.28806
 C212 C 0.13187 0.85907 -0.24804
 C213 C 0.11113 0.87805 -0.20462
 C214 C 0.09240 0.89517 -0.17063
 C215 C 0.31994 0.68632 -0.38698
 C216 C 0.33406 0.67333 -0.34153
 C217 C 0.35206 0.65676 -0.29132
 C218 C 0.36859 0.64151 -0.25118
 C219 C 0.38923 0.62248 -0.20756
 C220 C 0.40784 0.60530 -0.17338
 C221 C -0.18034 1.18636 -0.38646
 C222 C -0.16639 1.17347 -0.34077
 C223 C -0.14861 1.15701 -0.29020
 C224 C -0.13224 1.14186 -0.24975
 C225 C -0.11176 1.12289 -0.20581
 C226 C -0.09326 1.10574 -0.17142
 C227 C 0.68013 0.68591 -0.38946
 C228 C 0.66616 0.67299 -0.34375
 C229 C 0.64840 0.65654 -0.29306
 C230 C 0.63207 0.64141 -0.25246
 C231 C 0.61165 0.62246 -0.20831
 C232 C 0.59317 0.60530 -0.17375
 C233 C 0.17973 1.18623 -0.38694
 C234 C 0.16561 1.17335 -0.34138
 C235 C 0.14764 1.15694 -0.29091
 C236 C 0.13116 1.14184 -0.25047
 C237 C 0.11059 1.12294 -0.20648
 C238 C 0.09204 1.10583 -0.17200
 C239 C 0.32003 0.31421 -0.38780
 C240 C 0.33414 0.32710 -0.34232
 C241 C 0.35206 0.34351 -0.29192
 C242 C 0.36852 0.35859 -0.25156
 C243 C 0.38908 0.37746 -0.20769
 C244 C 0.40766 0.39453 -0.17334
 C245 C -0.18086 0.81412 -0.38562
 C246 C -0.16678 0.82704 -0.34011
 C247 C -0.14886 0.84350 -0.28972
 C248 C -0.13240 0.85866 -0.24939
 C249 C -0.11185 0.87761 -0.20554
 C250 C -0.09330 0.89476 -0.17120
 C251 C 0.32043 0.68578 0.38621
 C252 C 0.33446 0.67285 0.34066
 C253 C 0.35231 0.65638 0.29021
 C254 C 0.36873 0.64123 0.24981
 C255 C 0.38924 0.62229 0.20593
 C256 C 0.40778 0.60515 0.17158
 C257 C -0.18016 1.18639 0.38964
 C258 C -0.16614 1.17352 0.34399
 C259 C -0.14831 1.15711 0.29341
 C260 C -0.13192 1.14200 0.25290
 C261 C -0.11147 1.12308 0.20882
 C262 C -0.09301 1.10594 0.17429
 C263 C 0.68058 0.31392 0.38621
 C264 C 0.66652 0.32680 0.34067
 C265 C 0.64863 0.34322 0.29022
 C266 C 0.63219 0.35832 0.24984
 C267 C 0.61164 0.37722 0.20596
 C268 C 0.59308 0.39432 0.17163
 C269 C 0.18050 0.81425 0.38684
 C270 C 0.16628 0.82724 0.34154
 C271 C 0.14819 0.84378 0.29143
 C272 C 0.13159 0.85897 0.25135
 C273 C 0.11089 0.87792 0.20777
 C274 C 0.09223 0.89504 0.17362
   
