data_POSCAR
  _audit_creation_date              2014-09-24
  _audit_creation_method            'ToBaCCo'
  _symmetry_space_group_name_H-M    'P1'
  _symmetry_Int_Tables_number       1
  _symmetry_cell_setting            triclinic
  loop_
  _symmetry_equiv_pos_as_xyz
 x,y,z
_cell_length_a 32.6596
_cell_length_b 32.6977
_cell_length_c 32.8013
_cell_angle_alpha 89.987400
_cell_angle_beta 89.997100
_cell_angle_gamma 90.028300
loop_
  _atom_site_label
  _atom_site_type_symbol
  _atom_site_fract_x
  _atom_site_fract_y
  _atom_site_fract_z
N1 N 0.14244 0.23961 0.24947
 N2 N 0.15384 0.20737 0.27064
 C3 C 0.12773 0.20211 0.30205
 C4 C 0.09877 0.23269 0.30020
 C5 C 0.10877 0.25594 0.26663
 H6 H 0.12938 0.17782 0.32437
 H7 H 0.09261 0.28252 0.25541
 Cu8 Cu 0.20124 0.17529 0.25438
 Cu9 Cu 0.17183 0.25794 0.20114
 Cu10 Cu 0.25697 0.20145 0.17235
 N11 N 0.24918 0.14396 0.23823
 N12 N 0.27078 0.15434 0.20598
 C13 C 0.30174 0.12759 0.20119
 C14 C 0.29923 0.09917 0.23209
 C15 C 0.26570 0.11020 0.25508
 H16 H 0.32418 0.12855 0.17697
 H17 H 0.25417 0.09460 0.28180
 N18 N 0.23806 0.25012 0.14234
 N19 N 0.20560 0.27160 0.15325
 C20 C 0.20064 0.30278 0.12683
 C21 C 0.23142 0.30062 0.09825
 C22 C 0.25459 0.26708 0.10871
 H23 H 0.17648 0.32535 0.12814
 H24 H 0.28140 0.25590 0.09289
 H25 H 0.19501 0.20137 0.18501
 H26 H 0.22809 0.23435 0.21776
 N27 N 0.64253 0.73981 0.74985
 N28 N 0.65402 0.70759 0.77099
 C29 C 0.62787 0.70219 0.80234
 C30 C 0.59879 0.73268 0.80049
 C31 C 0.60878 0.75601 0.76697
 H32 H 0.62961 0.67791 0.82466
 H33 H 0.59258 0.78258 0.75579
 Cu34 Cu 0.70174 0.67578 0.75502
 Cu35 Cu 0.67195 0.75832 0.70163
 Cu36 Cu 0.75716 0.70211 0.67272
 N37 N 0.74958 0.64447 0.73844
 N38 N 0.77109 0.65495 0.70616
 C39 C 0.80203 0.62821 0.70119
 C40 C 0.79962 0.59969 0.73199
 C41 C 0.76615 0.61064 0.75512
 H42 H 0.82440 0.62925 0.67690
 H43 H 0.75469 0.59495 0.78181
 N44 N 0.73819 0.75080 0.64283
 N45 N 0.70570 0.77221 0.65380
 C46 C 0.70064 0.80339 0.62739
 C47 C 0.73140 0.80129 0.59876
 C48 C 0.75465 0.76779 0.60918
 H49 H 0.67641 0.82587 0.62871
 H50 H 0.78142 0.75665 0.59330
 H51 H 0.69522 0.70175 0.68563
 H52 H 0.72830 0.73491 0.71823
 N53 N 0.35634 0.76084 0.74999
 N54 N 0.34487 0.79312 0.77103
 C55 C 0.37098 0.79851 0.80243
 C56 C 0.40001 0.76796 0.80069
 C57 C 0.39003 0.74461 0.76720
 H58 H 0.36925 0.82283 0.82470
 H59 H 0.40620 0.71799 0.75610
 Cu60 Cu 0.29716 0.82494 0.75491
 Cu61 Cu 0.32696 0.74228 0.70178
 Cu62 Cu 0.24179 0.79847 0.67261
 N63 N 0.24935 0.85629 0.73822
 N64 N 0.22784 0.84576 0.70594
 C65 C 0.19689 0.87252 0.70090
 C66 C 0.19935 0.90107 0.73169
 C67 C 0.23281 0.89016 0.75485
 H68 H 0.17453 0.87143 0.67659
 H69 H 0.24429 0.90587 0.78152
 N70 N 0.26081 0.74965 0.64286
 N71 N 0.29329 0.72828 0.65395
 C72 C 0.29845 0.69705 0.62763
 C73 C 0.26778 0.69904 0.59892
 C74 C 0.24447 0.73256 0.60920
 H75 H 0.32272 0.67461 0.62905
 H76 H 0.21775 0.74367 0.59319
 H77 H 0.30369 0.79883 0.68557
 H78 H 0.27057 0.76576 0.71823
 N79 N 0.85843 0.26020 0.24997
 N80 N 0.84712 0.29263 0.27088
 C81 C 0.87318 0.29804 0.30231
 C82 C 0.90199 0.26731 0.30073
 C83 C 0.89202 0.24383 0.26731
 H84 H 0.87149 0.32246 0.32449
 H85 H 0.90804 0.21705 0.25635
 Cu86 Cu 0.79948 0.32452 0.25479
 Cu87 Cu 0.82895 0.24158 0.20180
 Cu88 Cu 0.74391 0.29796 0.17270
 N89 N 0.75172 0.35591 0.23810
 N90 N 0.73011 0.34528 0.20595
 C91 C 0.69898 0.37183 0.20111
 C92 C 0.70138 0.40039 0.23187
 C93 C 0.73504 0.38966 0.25483
 H94 H 0.67641 0.37056 0.17701
 H95 H 0.74645 0.40535 0.28153
 N96 N 0.76271 0.24913 0.14297
 N97 N 0.79513 0.22763 0.15399
 C98 C 0.80007 0.19638 0.12764
 C99 C 0.76932 0.19853 0.09900
 C100 C 0.74620 0.23213 0.10936
 H101 H 0.82423 0.17382 0.12902
 H102 H 0.71947 0.24334 0.09345
 H103 H 0.80589 0.29813 0.18555
 H104 H 0.77273 0.26525 0.21837
 N105 N 0.85746 0.73956 0.25027
 N106 N 0.84635 0.70690 0.22960
 C107 C 0.87249 0.70145 0.19825
 C108 C 0.90118 0.73235 0.19962
 C109 C 0.89098 0.75597 0.23285
 H110 H 0.87101 0.67686 0.17626
 H111 H 0.90688 0.78290 0.24364
 Cu112 Cu 0.79909 0.67462 0.24609
 Cu113 Cu 0.82790 0.75830 0.29831
 Cu114 Cu 0.74278 0.70198 0.32742
 N115 N 0.75086 0.64371 0.26237
 N116 N 0.72902 0.65457 0.29429
 C117 C 0.69783 0.62805 0.29910
 C118 C 0.70043 0.59928 0.26856
 C119 C 0.73425 0.60986 0.24575
 H120 H 0.67517 0.62941 0.32310
 H121 H 0.74591 0.59391 0.21931
 N122 N 0.76156 0.75090 0.35703
 N123 N 0.79401 0.77237 0.34599
 C124 C 0.79896 0.80369 0.37226
 C125 C 0.76818 0.80160 0.40087
 C126 C 0.74503 0.76797 0.39059
 H127 H 0.82317 0.82621 0.37089
 H128 H 0.71832 0.75676 0.40654
 H129 H 0.80486 0.70187 0.31508
 H130 H 0.77188 0.73419 0.28156
 N131 N 0.35829 0.23982 -0.25028
 N132 N 0.34695 0.20753 -0.27142
 C133 C 0.37323 0.20215 -0.30268
 C134 C 0.40222 0.23274 -0.30072
 C135 C 0.39210 0.25610 -0.26728
 H136 H 0.37164 0.17779 -0.32493
 H137 H 0.40823 0.28271 -0.25602
 Cu138 Cu 0.29935 0.17555 -0.25527
 Cu139 Cu 0.32868 0.25828 -0.20213
 Cu140 Cu 0.24335 0.20188 -0.17351
 N141 N 0.25132 0.14418 -0.23920
 N142 N 0.22962 0.15466 -0.20705
 C143 C 0.19867 0.12787 -0.20221
 C144 C 0.20126 0.09931 -0.23296
 C145 C 0.23485 0.11031 -0.25593
 H146 H 0.17618 0.12889 -0.17803
 H147 H 0.24647 0.09460 -0.28252
 N148 N 0.26218 0.25064 -0.14357
 N149 N 0.29471 0.27210 -0.15441
 C150 C 0.29965 0.30328 -0.12798
 C151 C 0.26878 0.30115 -0.09948
 C152 C 0.24559 0.26761 -0.10998
 H153 H 0.32389 0.32578 -0.12921
 H154 H 0.21877 0.25640 -0.09419
 H155 H 0.30535 0.20174 -0.18592
 H156 H 0.27243 0.23466 -0.21886
 N157 N 0.64186 0.25962 -0.24993
 N158 N 0.65327 0.29187 -0.27110
 C159 C 0.62704 0.29725 -0.30240
 C160 C 0.59801 0.26669 -0.30046
 C161 C 0.60805 0.24335 -0.26696
 H162 H 0.62872 0.32157 -0.32470
 H163 H 0.59189 0.21677 -0.25569
 Cu164 Cu 0.70103 0.32380 -0.25523
 Cu165 Cu 0.67138 0.24123 -0.20169
 Cu166 Cu 0.75657 0.29765 -0.17297
 N167 N 0.74891 0.35522 -0.23875
 N168 N 0.77045 0.34478 -0.20649
 C169 C 0.80145 0.37150 -0.20159
 C170 C 0.79906 0.39999 -0.23242
 C171 C 0.76553 0.38903 -0.25549
 H172 H 0.82386 0.37046 -0.17734
 H173 H 0.75407 0.40469 -0.28219
 N174 N 0.73769 0.24898 -0.14297
 N175 N 0.70522 0.22747 -0.15385
 C176 C 0.70026 0.19632 -0.12737
 C177 C 0.73105 0.19855 -0.09878
 C178 C 0.75422 0.23209 -0.10931
 H179 H 0.67607 0.17376 -0.12863
 H180 H 0.78101 0.24333 -0.09350
 H181 H 0.69459 0.29786 -0.18580
 H182 H 0.72766 0.26473 -0.21841
 N183 N 0.14327 0.76115 0.25038
 N184 N 0.15487 0.79332 0.22920
 C185 C 0.12873 0.79873 0.19784
 C186 C 0.09956 0.76831 0.19971
 C187 C 0.10946 0.74501 0.23327
 H188 H 0.13063 0.82292 0.17542
 H189 H 0.09324 0.71842 0.24441
 Cu190 Cu 0.20298 0.82479 0.24486
 Cu191 Cu 0.17279 0.74247 0.29847
 Cu192 Cu 0.25790 0.79879 0.32760
 N193 N 0.25035 0.85659 0.26200
 N194 N 0.27171 0.84621 0.29441
 C195 C 0.30258 0.87306 0.29954
 C196 C 0.30023 0.90153 0.26867
 C197 C 0.26691 0.89048 0.24536
 H198 H 0.32490 0.87201 0.32389
 H199 H 0.25561 0.90601 0.21851
 N200 N 0.23908 0.74984 0.35725
 N201 N 0.20662 0.72839 0.34619
 C202 C 0.20166 0.69703 0.37241
 C203 C 0.23243 0.69902 0.40101
 C204 C 0.25559 0.73268 0.39078
 H205 H 0.17744 0.67450 0.37098
 H206 H 0.28233 0.74383 0.40674
 H207 H 0.19601 0.79912 0.31431
 H208 H 0.22924 0.76578 0.28208
 N209 N 0.48972 0.39220 0.50042
 N210 N 0.45709 0.40340 0.52114
 C211 C 0.45179 0.37753 0.55272
 C212 C 0.48275 0.34893 0.55147
 C213 C 0.50625 0.35889 0.51805
 H214 H 0.42724 0.37912 0.57479
 H215 H 0.53315 0.34295 0.50725
 Cu216 Cu 0.42462 0.45044 0.50450
 Cu217 Cu 0.50826 0.42139 0.45207
 Cu218 Cu 0.45186 0.50624 0.42274
 N219 N 0.39380 0.49866 0.48811
 N220 N 0.40461 0.52030 0.45604
 C221 C 0.37826 0.55161 0.45131
 C222 C 0.34965 0.54934 0.48207
 C223 C 0.36014 0.51554 0.50491
 H224 H 0.37966 0.57417 0.42724
 H225 H 0.34430 0.50411 0.53153
 N226 N 0.50063 0.48726 0.39294
 N227 N 0.52215 0.45492 0.40406
 C228 C 0.55346 0.44991 0.37775
 C229 C 0.55134 0.48055 0.34902
 C230 C 0.51768 0.50366 0.35929
 H231 H 0.57608 0.42582 0.37925
 H232 H 0.50649 0.53035 0.34333
 H233 H 0.48423 0.47737 0.46870
 H234 H 0.45174 0.44426 0.43546
 N235 N -0.01059 -0.10777 0.99862
 N236 N -0.04322 -0.09659 1.01935
 C237 C -0.04871 -0.12267 1.05072
 C238 C -0.01785 -0.15138 1.04933
 C239 C 0.00578 -0.14126 1.01604
 H240 H -0.07320 -0.12103 1.07286
 H241 H 0.03278 -0.15709 1.00532
 Cu242 Cu -0.07475 -0.04881 1.00318
 Cu243 Cu 0.00841 -0.07810 0.95068
 Cu244 Cu -0.04787 0.00706 0.92157
 N245 N -0.10636 -0.00123 0.98661
 N246 N -0.09553 0.02061 0.95466
 C247 C -0.12208 0.05177 0.94996
 C248 C -0.15082 0.04914 0.98059
 C249 C -0.14021 0.01532 1.00331
 H250 H -0.12061 0.07456 0.92611
 H251 H -0.15601 0.00376 1.02991
 N252 N 0.00129 -0.01163 0.89208
 N253 N 0.02270 -0.04409 0.90312
 C254 C 0.05411 -0.04904 0.87692
 C255 C 0.05220 -0.01826 0.84835
 C256 C 0.01854 0.00490 0.85858
 H257 H 0.07656 -0.07329 0.87829
 H258 H 0.00740 0.03160 0.84261
 H259 H -0.01527 -0.02189 0.96715
 H260 H -0.04801 -0.05484 0.93407
 N261 N 1.01095 0.60750 0.99912
 N262 N 1.04361 0.59633 1.01980
 C263 C 1.04911 0.62237 1.05119
 C264 C 1.01825 0.65107 1.04985
 C265 C 0.99459 0.64098 1.01658
 H266 H 1.07370 0.62080 1.07320
 H267 H 0.96765 0.65689 1.00583
 Cu268 Cu 1.07579 0.54907 1.00335
 Cu269 Cu 0.99203 0.57792 0.95115
 Cu270 Cu 1.04819 0.49280 0.92210
 N271 N 1.10659 0.50082 0.98711
 N272 N 1.09567 0.47903 0.95519
 C273 C 1.12207 0.44776 0.95048
 C274 C 1.15081 0.45024 0.98109
 C275 C 1.14035 0.48410 1.00383
 H276 H 1.12061 0.42506 0.92654
 H277 H 1.15629 0.49567 1.03032
 N278 N 0.99919 0.51155 0.89254
 N279 N 0.97777 0.54399 0.90355
 C280 C 0.94632 0.54886 0.87738
 C281 C 0.94825 0.51801 0.84887
 C282 C 0.98194 0.49494 0.85910
 H283 H 0.92380 0.57305 0.87876
 H284 H 0.99307 0.46820 0.84319
 H285 H 1.01604 0.52200 0.96791
 H286 H 1.04845 0.55486 0.93434
 N287 N 0.51016 0.10758 0.50022
 N288 N 0.54283 0.09639 0.52088
 C289 C 0.54826 0.12231 0.55238
 C290 C 0.51736 0.15096 0.55115
 C291 C 0.49373 0.14095 0.51782
 H292 H 0.57287 0.12071 0.57438
 H293 H 0.46679 0.15689 0.50708
 Cu294 Cu 0.57518 0.04931 0.50426
 Cu295 Cu 0.49141 0.07821 0.45204
 Cu296 Cu 0.54785 -0.00664 0.42272
 N297 N 0.60611 0.00120 0.48786
 N298 N 0.59527 -0.02048 0.45584
 C299 C 0.62170 -0.05170 0.45105
 C300 C 0.65038 -0.04931 0.48172
 C301 C 0.63986 -0.01556 0.50457
 H302 H 0.62030 -0.07430 0.42702
 H303 H 0.65573 -0.00408 0.53115
 N304 N 0.49892 0.01213 0.39312
 N305 N 0.47738 0.04446 0.40422
 C306 C 0.44593 0.04928 0.37803
 C307 C 0.44801 0.01852 0.34943
 C308 C 0.48177 -0.00445 0.35963
 H309 H 0.42327 0.07334 0.37950
 H310 H 0.49297 -0.03115 0.34371
 H311 H 0.51552 0.02227 0.46866
 H312 H 0.54790 0.05537 0.43529
 N313 N -0.01088 0.10789 0.50060
 N314 N -0.04356 0.09672 0.47994
 C315 C -0.04907 0.12276 0.44855
 C316 C -0.01821 0.15147 0.44987
 C317 C 0.00548 0.14138 0.48312
 H318 H -0.07367 0.12117 0.42654
 H319 H 0.03244 0.15730 0.49385
 Cu320 Cu -0.07577 0.04945 0.49638
 Cu321 Cu 0.00800 0.07831 0.54860
 Cu322 Cu -0.04824 -0.00685 0.57765
 N323 N -0.10658 0.00120 0.51259
 N324 N -0.09569 -0.02062 0.54451
 C325 C -0.12209 -0.05192 0.54917
 C326 C -0.15079 -0.04942 0.51852
 C327 C -0.14032 -0.01553 0.49583
 H328 H -0.12066 -0.07464 0.57309
 H329 H -0.15622 -0.00395 0.46932
 N330 N 0.00074 0.01193 0.60724
 N331 N 0.02220 0.04437 0.59622
 C332 C 0.05370 0.04917 0.62235
 C333 C 0.05176 0.01828 0.65083
 C334 C 0.01801 -0.00475 0.64063
 H335 H 0.07630 0.07331 0.62091
 H336 H 0.00689 -0.03154 0.65648
 H337 H -0.01605 0.02233 0.53180
 H338 H -0.04844 0.05518 0.56536
 N339 N 0.48932 0.60762 0.00103
 N340 N 0.45656 0.59657 -0.01956
 C341 C 0.45108 0.62265 -0.05094
 C342 C 0.48205 0.65125 -0.04968
 C343 C 0.50576 0.64106 -0.01647
 H344 H 0.42647 0.62113 -0.07295
 H345 H 0.53279 0.65689 -0.00579
 Cu346 Cu 0.42435 0.54929 -0.00319
 Cu347 Cu 0.50824 0.57794 0.04896
 Cu348 Cu 0.45188 0.49283 0.07794
 N349 N 0.39347 0.50106 0.01297
 N350 N 0.40438 0.47915 0.04481
 C351 C 0.37804 0.44777 0.04932
 C352 C 0.34937 0.45030 0.01864
 C353 C 0.35979 0.48429 -0.00391
 H354 H 0.37953 0.42494 0.07313
 H355 H 0.34394 0.49586 -0.03046
 N356 N 0.50089 0.51152 0.10754
 N357 N 0.52241 0.54392 0.09654
 C358 C 0.55380 0.54877 0.12278
 C359 C 0.55172 0.51796 0.15133
 C360 C 0.51801 0.49491 0.14104
 H361 H 0.57636 0.57295 0.12142
 H362 H 0.50676 0.46820 0.15694
 H363 H 0.48408 0.52206 0.03209
 H364 H 0.45181 0.55491 0.06575
 N365 N 0.51028 -0.10733 0.00102
 N366 N 0.54278 -0.09600 -0.01984
 C367 C 0.54818 -0.12199 -0.05128
 C368 C 0.51740 -0.15079 -0.04979
 C369 C 0.49390 -0.14083 -0.01639
 H370 H 0.57262 -0.12031 -0.07346
 H371 H 0.46706 -0.15685 -0.00551
 Cu372 Cu 0.57470 -0.04846 -0.00364
 Cu373 Cu 0.49161 -0.07800 0.04919
 Cu374 Cu 0.54808 0.00689 0.07854
 N375 N 0.60614 -0.00081 0.01314
 N376 N 0.59552 0.02075 0.04532
 C377 C 0.62215 0.05184 0.05016
 C378 C 0.65072 0.04947 0.01936
 C379 C 0.63993 0.01587 -0.00360
 H380 H 0.62091 0.07437 0.07426
 H381 H 0.65560 0.00451 -0.03033
 N382 N 0.49911 -0.01200 0.10818
 N383 N 0.47760 -0.04436 0.09702
 C384 C 0.44624 -0.04941 0.12327
 C385 C 0.44831 -0.01880 0.15200
 C386 C 0.48199 0.00437 0.14180
 H387 H 0.42365 -0.07356 0.12177
 H388 H 0.49318 0.03103 0.15782
 H389 H 0.51537 -0.02177 0.03278
 H390 H 0.54821 -0.05497 0.06557
 N391 N 1.00985 0.39315 0.49985
 N392 N 1.04212 0.40463 0.47871
 C393 C 1.04737 0.37864 0.44724
 C394 C 1.01674 0.34968 0.44900
 C395 C 0.99349 0.35955 0.48260
 H396 H 1.07167 0.38039 0.42490
 H397 H 0.96686 0.34336 0.49377
 Cu398 Cu 1.07413 0.45217 0.49480
 Cu399 Cu 0.99148 0.42235 0.54822
 Cu400 Cu 1.04807 0.50721 0.57736
 N401 N 1.10565 0.49982 0.51150
 N402 N 1.09527 0.52118 0.54389
 C403 C 1.12201 0.55215 0.54882
 C404 C 1.15042 0.54992 0.51787
 C405 C 1.13941 0.51652 0.49471
 H406 H 1.12102 0.57445 0.57314
 H407 H 1.15498 0.50523 0.46789
 N408 N 0.99931 0.48825 0.60726
 N409 N 0.97775 0.45590 0.59619
 C410 C 0.94647 0.45089 0.62253
 C411 C 0.94864 0.48153 0.65123
 C412 C 0.98231 0.50466 0.64092
 H413 H 0.92383 0.42679 0.62108
 H414 H 0.99353 0.53135 0.65685
 H415 H 1.01504 0.47864 0.53177
 H416 H 1.04819 0.44538 0.56420
 C417 C 0.37315 -0.00061 0.25070
 C418 C 0.12707 -0.00057 0.74928
 C419 C 0.62640 0.49943 0.25033
 C420 C 0.87347 0.49972 0.74991
 C421 C 0.25014 0.37560 -0.00042
 C422 C 0.75014 0.12391 0.00012
 C423 C 0.25026 0.62414 0.49995
 C424 C 0.74977 0.87610 0.49991
 C425 C -0.00081 0.25030 0.37453
 C426 C 0.00043 0.75009 0.12478
 C427 C 0.50018 0.24983 0.62644
 C428 C 0.49948 0.75027 0.87525
 C429 C 0.06444 0.23856 0.32687
 C430 C 0.03522 0.24375 0.34874
 C431 C 0.56450 0.73852 0.82726
 C432 C 0.53537 0.74371 0.84924
 C433 C 0.43429 0.76209 0.82748
 C434 C 0.46347 0.75685 0.84940
 C435 C -0.06569 0.26175 0.32624
 C436 C -0.03667 0.25664 0.34841
 C437 C -0.06459 0.73822 0.17277
 C438 C -0.03548 0.74345 0.15076
 C439 C 0.43488 0.23823 0.67416
 C440 C 0.46416 0.24336 0.65232
 C441 C 0.56541 0.26122 0.67434
 C442 C 0.53618 0.25616 0.65241
 C443 C 0.06540 0.76230 0.17278
 C444 C 0.03634 0.75691 0.15073
 C445 C 0.32545 0.06455 0.23846
 C446 C 0.34718 0.03526 0.24390
 C447 C 0.82585 0.56503 0.73812
 C448 C 0.84758 0.53569 0.74335
 C449 C 0.82544 0.43458 0.76142
 C450 C 0.84735 0.46383 0.75628
 C451 C 0.32522 -0.06576 0.26274
 C452 C 0.34712 -0.03652 0.25739
 C453 C 0.17456 -0.06604 0.73746
 C454 C 0.15288 -0.03664 0.74270
 C455 C 0.67473 0.43468 0.23827
 C456 C 0.65264 0.46372 0.24366
 C457 C 0.67404 0.56472 0.26237
 C458 C 0.65225 0.53542 0.25706
 C459 C 0.17504 0.06460 0.76087
 C460 C 0.15323 0.03529 0.75570
 C461 C 0.23778 0.32738 0.06414
 C462 C 0.24329 0.34946 0.03521
 C463 C 0.73763 0.82800 0.56459
 C464 C 0.74304 0.85001 0.53559
 C465 C 0.76193 0.82828 0.43505
 C466 C 0.75650 0.85019 0.46411
 C467 C 0.26246 0.32779 -0.06528
 C468 C 0.25697 0.34971 -0.03623
 C469 C 0.73745 0.17190 -0.06458
 C470 C 0.74309 0.14995 -0.03556
 C471 C 0.23859 0.67222 0.43514
 C472 C 0.24385 0.65017 0.46415
 C473 C 0.26182 0.67228 0.56473
 C474 C 0.25669 0.65021 0.53572
 C475 C 0.76295 0.17183 0.06484
 C476 C 0.75729 0.14988 0.03583
 C477 C 0.48864 0.31485 0.57846
 C478 C 0.49379 0.28578 0.60053
 C479 C -0.01174 0.81471 0.07646
 C480 C -0.00633 0.78583 0.09868
 C481 C 0.01236 0.68515 0.07683
 C482 C 0.00712 0.71418 0.09889
 C483 C 0.51157 0.18501 0.57818
 C484 C 0.50654 0.21399 0.60036
 C485 C -0.01240 0.18554 0.42285
 C486 C -0.00731 0.21452 0.40067
 C487 C 0.48790 0.68535 0.92336
 C488 C 0.49301 0.71439 0.90126
 C489 C 0.51143 0.81516 0.92324
 C490 C 0.50614 0.78613 0.90119
 C491 C 0.01082 0.31547 0.42223
 C492 C 0.00563 0.28631 0.40032
 C493 C 0.31531 0.57600 0.48836
 C494 C 0.28617 0.59804 0.49358
 C495 C 0.81494 0.07581 -0.01272
 C496 C 0.78590 0.09783 -0.00697
 C497 C 0.68509 0.07604 0.01282
 C498 C 0.71425 0.09795 0.00717
 C499 C 0.18498 0.57633 0.51161
 C500 C 0.21426 0.59818 0.50637
 C501 C 0.18515 0.42363 -0.01252
 C502 C 0.21427 0.40165 -0.00711
 C503 C 0.68475 0.92411 0.48801
 C504 C 0.71390 0.90214 0.49332
 C505 C 0.81483 0.92402 0.51210
 C506 C 0.78567 0.90209 0.50665
 C507 C 0.31511 0.42361 0.01203
 C508 C 0.28601 0.40161 0.00645
 C509 C 0.57820 0.48692 0.31495
 C510 C 0.60029 0.49250 0.28600
 C511 C 0.07899 -0.01219 0.81417
 C512 C 0.10104 -0.00699 0.78512
 C513 C 0.07876 0.01178 0.68475
 C514 C 0.10092 0.00618 0.71362
 C515 C 0.57845 0.51162 0.18549
 C516 C 0.60042 0.50612 0.21453
 C517 C 0.42144 -0.01266 0.18609
 C518 C 0.39932 -0.00731 0.21504
 C519 C 0.92180 0.48778 0.68531
 C520 C 0.89966 0.49315 0.71424
 C521 C 0.92143 0.51170 0.81478
 C522 C 0.89943 0.50628 0.78575
 C523 C 0.42113 0.01199 0.31542
 C524 C 0.39912 0.00630 0.28647
   
