data_POSCAR
  _audit_creation_date              2014-09-24
  _audit_creation_method            'ToBaCCo'
  _symmetry_space_group_name_H-M    'P1'
  _symmetry_Int_Tables_number       1
  _symmetry_cell_setting            triclinic
  loop_
  _symmetry_equiv_pos_as_xyz
 x,y,z
_cell_length_a 57.5745
_cell_length_b 57.6192
_cell_length_c 44.2969
_cell_angle_alpha 89.948400
_cell_angle_beta 89.941000
_cell_angle_gamma 90.494900
loop_
  _atom_site_label
  _atom_site_type_symbol
  _atom_site_fract_x
  _atom_site_fract_y
  _atom_site_fract_z
O1 O 0.02262 0.29602 -0.02894
 O2 O -0.02301 0.29611 0.02968
 O3 O 0.02245 0.29632 0.02983
 O4 O -0.02280 0.29598 -0.02911
 O5 O -0.02291 0.25763 -0.02871
 O6 O 0.02208 0.25797 0.03006
 O7 O -0.02312 0.25778 0.02986
 O8 O 0.02225 0.25767 -0.02851
 Cu9 Cu -0.00017 0.29997 0.00035
 Cu10 Cu -0.00045 0.25393 0.00072
 C11 C 0.03026 0.27677 -0.03856
 C12 C -0.03095 0.27690 0.03961
 C13 C 0.03005 0.27716 0.03980
 C14 C -0.03061 0.27670 -0.03882
 O15 O 0.47741 0.79600 0.52944
 O16 O 0.52277 0.79577 0.47048
 O17 O 0.47734 0.79585 0.47063
 O18 O 0.52287 0.79599 0.52925
 O19 O 0.52238 0.75764 0.52942
 O20 O 0.47709 0.75751 0.47100
 O21 O 0.52227 0.75743 0.47085
 O22 O 0.47716 0.75765 0.52959
 Cu23 Cu 0.50013 0.79977 0.49994
 Cu24 Cu 0.49968 0.75373 0.50025
 C25 C 0.46949 0.77682 0.53939
 C26 C 0.53030 0.77651 0.46078
 C27 C 0.46941 0.77661 0.46097
 C28 C 0.53046 0.77679 0.53913
 O29 O 0.97672 0.70426 -0.03087
 O30 O 1.02238 0.70349 0.02759
 O31 O 0.97691 0.70370 0.02790
 O32 O 1.02216 0.70401 -0.03120
 O33 O 1.02255 0.74233 -0.03055
 O34 O 0.97756 0.74204 0.02835
 O35 O 1.02277 0.74183 0.02803
 O36 O 0.97737 0.74259 -0.03020
 Cu37 Cu 0.99949 0.70000 -0.00169
 Cu38 Cu 1.00012 0.74602 -0.00103
 C39 C 0.96917 0.72361 -0.04035
 C40 C 1.03042 0.72259 0.03760
 C41 C 0.96944 0.72287 0.03800
 C42 C 1.03016 0.72328 -0.04082
 O43 O 0.52232 0.20229 0.52882
 O44 O 0.47688 0.20287 0.47012
 O45 O 0.52230 0.20272 0.47003
 O46 O 0.47685 0.20243 0.52889
 O47 O 0.47743 0.24077 0.52923
 O48 O 0.52262 0.24107 0.47060
 O49 O 0.47745 0.24121 0.47068
 O50 O 0.52264 0.24063 0.52917
 Cu51 Cu 0.49954 0.19870 0.49944
 Cu52 Cu 0.50008 0.24475 0.49998
 C53 C 0.53030 0.22141 0.53881
 C54 C 0.46937 0.22219 0.46055
 C55 C 0.53024 0.22200 0.46043
 C56 C 0.46932 0.22161 0.53890
 O57 O 0.70379 -0.02253 0.02926
 O58 O 0.70398 0.02290 -0.02955
 O59 O 0.70391 -0.02248 -0.02952
 O60 O 0.70390 0.02292 0.02923
 O61 O 0.74227 0.02303 0.02921
 O62 O 0.74229 -0.02209 -0.02933
 O63 O 0.74234 0.02304 -0.02936
 O64 O 0.74216 -0.02215 0.02923
 Cu65 Cu 0.70002 0.00018 -0.00013
 Cu66 Cu 0.74610 0.00048 -0.00004
 C67 C 0.72299 -0.03017 0.03907
 C68 C 0.72325 0.03079 -0.03936
 C69 C 0.72316 -0.03006 -0.03929
 C70 C 0.72314 0.03079 0.03904
 O71 O 0.20405 0.47731 0.53043
 O72 O 0.20401 0.52249 0.47130
 O73 O 0.20411 0.47711 0.47166
 O74 O 0.20403 0.52277 0.53010
 O75 O 0.24240 0.52302 0.52998
 O76 O 0.24248 0.47761 0.47176
 O77 O 0.24239 0.52275 0.47139
 O78 O 0.24242 0.47782 0.53032
 Cu79 Cu 0.20017 0.49989 0.50090
 Cu80 Cu 0.24626 0.50034 0.50088
 C81 C 0.22329 0.46977 0.54024
 C82 C 0.22324 0.53035 0.46140
 C83 C 0.22336 0.46954 0.46190
 C84 C 0.22325 0.53075 0.53980
 O85 O 0.29508 0.97795 -0.02980
 O86 O 0.29556 1.02347 0.02882
 O87 O 0.29569 0.97803 0.02897
 O88 O 0.29507 1.02334 -0.02996
 O89 O 0.25672 1.02285 -0.02920
 O90 O 0.25732 0.97776 0.02953
 O91 O 0.25719 1.02294 0.02937
 O92 O 0.25673 0.97769 -0.02903
 Cu93 Cu 0.29922 1.00074 -0.00054
 Cu94 Cu 0.25316 1.00027 0.00024
 C95 C 0.27577 0.96997 -0.03927
 C96 C 0.27639 1.03104 0.03889
 C97 C 0.27656 0.97009 0.03910
 C98 C 0.27575 1.03091 -0.03949
 O99 O 0.79641 0.47802 0.47114
 O100 O 0.79685 0.52330 0.53003
 O101 O 0.79680 0.47785 0.52991
 O102 O 0.79646 0.52339 0.47125
 O103 O 0.75809 0.52298 0.47185
 O104 O 0.75842 0.47769 0.53029
 O105 O 0.75847 0.52287 0.53042
 O106 O 0.75803 0.47786 0.47174
 Cu107 Cu 0.80051 0.50067 0.50056
 Cu108 Cu 0.75442 0.50032 0.50114
 C109 C 0.77709 0.47018 0.46155
 C110 C 0.77768 0.53088 0.54007
 C111 C 0.77761 0.46992 0.53990
 C112 C 0.77717 0.53099 0.46169
 C113 C 0.20166 0.21937 0.19173
 C114 C 0.21841 0.20261 0.19155
 C115 C 0.23762 0.21202 0.20607
 N116 N 0.23314 0.23393 0.21517
 C117 C 0.21116 0.23846 0.20635
 C118 C 0.25932 0.20100 0.20896
 C119 C 0.27697 0.20928 0.22842
 C120 C 0.30003 0.20257 0.22735
 C121 C 0.31115 0.21356 0.25087
 C122 C 0.29457 0.22668 0.26566
 N123 N 0.27378 0.22396 0.25185
 C124 C 0.29860 0.23983 0.29208
 C125 C 0.28312 0.25699 0.30238
 C126 C 0.28409 0.26748 0.33051
 C127 C 0.26734 0.28423 0.33068
 C128 C 0.25667 0.28344 0.30266
 N129 N 0.26631 0.26674 0.28539
 C130 C 0.23944 0.29898 0.29270
 C131 C 0.22611 0.29507 0.26639
 C132 C 0.21287 0.31170 0.25189
 C133 C 0.20176 0.30071 0.22836
 C134 C 0.20851 0.27767 0.22913
 N135 N 0.22333 0.27437 0.25239
 C136 C 0.20016 0.26014 0.20956
 H137 H 0.18443 0.21762 0.18220
 H138 H 0.21660 0.18546 0.18187
 H139 H 0.22925 0.25845 0.26018
 H140 H 0.30807 0.19101 0.21128
 H141 H 0.32938 0.21208 0.25637
 H142 H 0.29562 0.26348 0.34903
 H143 H 0.26345 0.29565 0.34936
 H144 H 0.19009 0.30882 0.21248
 H145 H 0.25788 0.22980 0.25987
 H146 H 0.21140 0.32989 0.25758
 C147 C 0.71574 0.73249 0.32994
 C148 C 0.73253 0.71578 0.32999
 C149 C 0.74316 0.71667 0.30191
 N150 N 0.73347 0.73341 0.28473
 C151 C 0.71666 0.74307 0.30183
 C152 C 0.76040 0.70120 0.29182
 C153 C 0.77367 0.70517 0.26543
 C154 C 0.78688 0.68858 0.25083
 C155 C 0.79793 0.69963 0.22725
 C156 C 0.79118 0.72267 0.22811
 N157 N 0.77641 0.72590 0.25147
 C158 C 0.79951 0.74025 0.20853
 C159 C 0.78849 0.76194 0.20547
 C160 C 0.79797 0.78110 0.19087
 C161 C 0.78122 0.79785 0.19088
 C162 C 0.76204 0.78839 0.20548
 N163 N 0.76653 0.76645 0.21445
 C164 C 0.74034 0.79941 0.20855
 C165 C 0.72271 0.79105 0.22805
 C166 C 0.69965 0.79776 0.22711
 C167 C 0.68855 0.78667 0.25063
 C168 C 0.70514 0.77349 0.26529
 N169 N 0.72592 0.77628 0.25140
 C170 C 0.70113 0.76023 0.29166
 H171 H 0.70422 0.73641 0.34852
 H172 H 0.73646 0.70431 0.34862
 H173 H 0.74183 0.77041 0.25932
 H174 H 0.78837 0.67038 0.25647
 H175 H 0.80957 0.69156 0.21127
 H176 H 0.81517 0.78287 0.18124
 H177 H 0.78301 0.81504 0.18126
 H178 H 0.67032 0.78813 0.25620
 H179 H 0.77051 0.74181 0.25934
 H180 H 0.69159 0.80939 0.21112
 C181 C 0.79880 0.22027 0.19103
 C182 C 0.78197 0.20329 0.19075
 C183 C 0.76307 0.21205 0.20631
 N184 N 0.76786 0.23376 0.21620
 C185 C 0.78974 0.23877 0.20701
 C186 C 0.74132 0.20071 0.20936
 C187 C 0.72357 0.20871 0.22874
 C188 C 0.70055 0.20144 0.22764
 C189 C 0.68919 0.21247 0.25079
 C190 C 0.70556 0.22620 0.26541
 N191 N 0.72648 0.22376 0.25190
 C192 C 0.70116 0.23971 0.29138
 C193 C 0.71639 0.25742 0.30144
 C194 C 0.71499 0.26836 0.32924
 C195 C 0.73169 0.28545 0.32930
 C196 C 0.74278 0.28440 0.30154
 N197 N 0.73341 0.26724 0.28454
 C198 C 0.76032 0.29997 0.29170
 C199 C 0.77410 0.29593 0.26584
 C200 C 0.78830 0.31235 0.25199
 C201 C 0.79982 0.30117 0.22907
 C202 C 0.79217 0.27828 0.22936
 N203 N 0.77662 0.27521 0.25195
 C204 C 0.80082 0.26055 0.21057
 H205 H 0.81566 0.21917 0.18032
 H206 H 0.78348 0.18648 0.18007
 H207 H 0.77017 0.25937 0.25963
 H208 H 0.69268 0.18951 0.21172
 H209 H 0.67092 0.21065 0.25612
 H210 H 0.70323 0.26442 0.34764
 H211 H 0.73530 0.29722 0.34776
 H212 H 0.81253 0.30900 0.21411
 H213 H 0.74226 0.23010 0.25996
 H214 H 0.79034 0.33047 0.25788
 C215 C 0.26722 0.71521 0.32923
 C216 C 0.28408 0.73215 0.32932
 C217 C 0.28325 0.74286 0.30132
 N218 N 0.26642 0.73307 0.28414
 C219 C 0.25663 0.71612 0.30117
 C220 C 0.29888 0.76027 0.29129
 C221 C 0.29495 0.77365 0.26507
 C222 C 0.31161 0.78715 0.25055
 C223 C 0.30059 0.79820 0.22712
 C224 C 0.27751 0.79114 0.22796
 N225 N 0.27421 0.77621 0.25119
 C226 C 0.25995 0.79931 0.20849
 C227 C 0.23820 0.78803 0.20535
 C228 C 0.21910 0.79731 0.19082
 C229 C 0.20227 0.78035 0.19067
 C230 C 0.21163 0.76125 0.20513
 N231 N 0.23359 0.76599 0.21416
 C232 C 0.20050 0.73941 0.20802
 C233 C 0.20868 0.72184 0.22749
 C234 C 0.20178 0.69874 0.22649
 C235 C 0.21277 0.68771 0.24997
 C236 C 0.22608 0.70439 0.26466
 N237 N 0.22346 0.72515 0.25084
 C238 C 0.23935 0.70046 0.29096
 H239 H 0.26323 0.70359 0.34776
 H240 H 0.29561 0.73611 0.34794
 H241 H 0.22946 0.74109 0.25880
 H242 H 0.32984 0.78884 0.25616
 H243 H 0.30872 0.81003 0.21124
 H244 H 0.21741 0.81452 0.18132
 H245 H 0.18509 0.78195 0.18105
 H246 H 0.21117 0.66947 0.25550
 H247 H 0.25827 0.77006 0.25903
 H248 H 0.19010 0.69060 0.21049
 C249 C 0.76758 0.21482 0.82953
 C250 C 0.78445 0.23175 0.82949
 C251 C 0.78357 0.24239 0.80145
 N252 N 0.76670 0.23258 0.78437
 C253 C 0.75694 0.21567 0.80150
 C254 C 0.79918 0.25977 0.79130
 C255 C 0.79522 0.27308 0.76503
 C256 C 0.81187 0.28652 0.75041
 C257 C 0.80081 0.29756 0.72699
 C258 C 0.77772 0.29055 0.72796
 N259 N 0.77445 0.27566 0.75124
 C260 C 0.76012 0.29874 0.70857
 C261 C 0.73836 0.28746 0.70552
 C262 C 0.71923 0.29673 0.69104
 C263 C 0.70239 0.27977 0.69102
 C264 C 0.71178 0.26069 0.70549
 N265 N 0.73377 0.26543 0.71440
 C266 C 0.70065 0.23886 0.70849
 C267 C 0.70888 0.22131 0.72794
 C268 C 0.70199 0.19820 0.72701
 C269 C 0.71300 0.18721 0.75048
 C270 C 0.72633 0.20390 0.76510
 N271 N 0.72370 0.22465 0.75125
 C272 C 0.73962 0.20000 0.79140
 H273 H 0.76361 0.20325 0.84811
 H274 H 0.79601 0.23575 0.84806
 H275 H 0.72970 0.24059 0.75916
 H276 H 0.83011 0.28820 0.75594
 H277 H 0.80892 0.30935 0.71105
 H278 H 0.71751 0.31393 0.68152
 H279 H 0.68518 0.28136 0.68147
 H280 H 0.71140 0.16897 0.75606
 H281 H 0.75852 0.26956 0.75917
 H282 H 0.69028 0.19005 0.71105
 C283 C 0.21383 0.76891 0.82930
 C284 C 0.23056 0.78598 0.82951
 C285 C 0.24181 0.78490 0.80187
 N286 N 0.23251 0.76773 0.78479
 C287 C 0.21538 0.75795 0.80153
 C288 C 0.25943 0.80043 0.79220
 C289 C 0.27335 0.79635 0.76646
 C290 C 0.28765 0.81274 0.75271
 C291 C 0.29924 0.80153 0.72988
 C292 C 0.29155 0.77865 0.73013
 N293 N 0.27589 0.77562 0.75260
 C294 C 0.30025 0.76091 0.71140
 C295 C 0.28917 0.73913 0.70779
 C296 C 0.29830 0.72061 0.69189
 C297 C 0.28147 0.70364 0.69150
 C298 C 0.26250 0.71241 0.70689
 N299 N 0.26725 0.73413 0.71680
 C300 C 0.24073 0.70107 0.70978
 C301 C 0.22289 0.70910 0.72901
 C302 C 0.19988 0.70184 0.72774
 C303 C 0.18841 0.71292 0.75076
 C304 C 0.20470 0.72668 0.76547
 N305 N 0.22570 0.72420 0.75213
 C306 C 0.20018 0.74025 0.79135
 H307 H 0.20196 0.76500 0.84760
 H308 H 0.23408 0.79774 0.84801
 H309 H 0.24143 0.73057 0.76031
 H310 H 0.28969 0.83086 0.75861
 H311 H 0.31203 0.80934 0.71502
 H312 H 0.31521 0.71950 0.68133
 H313 H 0.28303 0.68683 0.68085
 H314 H 0.17011 0.71111 0.75595
 H315 H 0.26938 0.75980 0.76023
 H316 H 0.19208 0.68987 0.71181
 C317 C 0.29798 0.28035 0.69156
 C318 C 0.28137 0.29725 0.69168
 C319 C 0.26212 0.28790 0.70623
 N320 N 0.26643 0.26588 0.71506
 C321 C 0.28835 0.26122 0.70605
 C322 C 0.24052 0.29910 0.70938
 C323 C 0.22283 0.29082 0.72884
 C324 C 0.19983 0.29773 0.72796
 C325 C 0.18865 0.28666 0.75142
 C326 C 0.20513 0.27329 0.76599
 N327 N 0.22592 0.27595 0.75211
 C328 C 0.20101 0.25997 0.79229
 C329 C 0.21638 0.24263 0.80234
 C330 C 0.21538 0.23195 0.83037
 C331 C 0.23201 0.21508 0.83029
 C332 C 0.24263 0.21598 0.80221
 N333 N 0.23308 0.23287 0.78515
 C334 C 0.25972 0.20038 0.79200
 C335 C 0.27301 0.20434 0.76564
 C336 C 0.28608 0.18770 0.75092
 C337 C 0.29724 0.19874 0.72742
 C338 C 0.29069 0.22184 0.72843
 N339 N 0.27594 0.22511 0.75181
 C340 C 0.29917 0.23943 0.70899
 H341 H 0.31520 0.28201 0.68194
 H342 H 0.28331 0.31446 0.68216
 H343 H 0.27018 0.24103 0.75979
 H344 H 0.19186 0.30948 0.71204
 H345 H 0.17043 0.28826 0.75702
 H346 H 0.20391 0.23591 0.84900
 H347 H 0.23584 0.20350 0.84885
 H348 H 0.30881 0.19064 0.71140
 H349 H 0.24178 0.26991 0.75998
 H350 H 0.28742 0.16946 0.75645
 C351 C 0.70249 0.71908 0.69159
 C352 C 0.71934 0.70241 0.69168
 C353 C 0.73845 0.71201 0.70619
 N354 N 0.73384 0.73395 0.71502
 C355 C 0.71186 0.73831 0.70604
 C356 C 0.76021 0.70112 0.70929
 C357 C 0.77778 0.70957 0.72874
 C358 C 0.80087 0.70294 0.72784
 C359 C 0.81188 0.71409 0.75132
 C360 C 0.79522 0.72723 0.76591
 N361 N 0.77447 0.72436 0.75202
 C362 C 0.79913 0.74054 0.79222
 C363 C 0.78356 0.75771 0.80224
 C364 C 0.78439 0.76839 0.83025
 C365 C 0.76756 0.78507 0.83014
 C366 C 0.75698 0.78404 0.80207
 N367 N 0.76675 0.76727 0.78504
 C368 C 0.73972 0.79944 0.79184
 C369 C 0.72647 0.79532 0.76552
 C370 C 0.71320 0.81182 0.75081
 C371 C 0.70216 0.80064 0.72736
 C372 C 0.70899 0.77763 0.72840
 N373 N 0.72378 0.77453 0.75174
 C374 C 0.70074 0.75995 0.70898
 H375 H 0.68530 0.71719 0.68200
 H376 H 0.71765 0.68519 0.68217
 H377 H 0.72974 0.75868 0.75973
 H378 H 0.80899 0.69132 0.71191
 H379 H 0.83011 0.71270 0.75691
 H380 H 0.79588 0.76457 0.84888
 H381 H 0.76357 0.79659 0.84867
 H382 H 0.69050 0.80862 0.71136
 H383 H 0.75853 0.73018 0.75991
 H384 H 0.71165 0.83003 0.75630
 N385 N 0.25546 0.07557 0.09147
 C386 C 0.27556 0.08554 0.10099
 N387 N 0.29605 0.07731 0.09053
 N388 N 0.29640 0.05968 0.07106
 C389 C 0.27626 0.04973 0.06139
 N390 N 0.25580 0.05797 0.07202
 C391 C 0.27491 0.10524 0.12076
 C392 C 0.27358 0.12208 0.13678
 C393 C 0.27106 0.14243 0.15511
 N394 N 0.27564 0.14179 0.18513
 N395 N 0.27220 0.16049 0.20224
 C396 C 0.26401 0.18040 0.18989
 N397 N 0.25961 0.18098 0.15978
 N398 N 0.26305 0.16231 0.14271
 N399 N 0.75675 0.57535 0.59270
 C400 C 0.77686 0.58527 0.60227
 N401 N 0.79735 0.57702 0.59185
 N402 N 0.79769 0.55940 0.57237
 C403 C 0.77755 0.54950 0.56264
 N404 N 0.75709 0.55776 0.57324
 C405 C 0.77622 0.60501 0.62196
 C406 C 0.77486 0.62191 0.63787
 C407 C 0.77228 0.64233 0.65602
 N408 N 0.76431 0.66215 0.64339
 N409 N 0.76078 0.68089 0.66028
 C410 C 0.76504 0.68046 0.69042
 N411 N 0.77320 0.66061 0.70300
 N412 N 0.77673 0.64184 0.68607
 N413 N 0.70348 0.92362 0.09103
 C414 C 0.72401 0.91529 0.10119
 N415 N 0.74409 0.92518 0.09139
 N416 N 0.74369 0.94281 0.07194
 C417 C 0.72320 0.95115 0.06161
 N418 N 0.70308 0.94128 0.07156
 C419 C 0.72469 0.89554 0.12091
 C420 C 0.72604 0.87864 0.13686
 C421 C 0.72857 0.85822 0.15509
 N422 N 0.73652 0.83838 0.14253
 N423 N 0.73996 0.81963 0.15948
 C424 C 0.73563 0.82009 0.18962
 N425 N 0.72751 0.83996 0.20212
 N426 N 0.72407 0.85874 0.18514
 N427 N 0.20396 0.42358 0.59233
 C428 C 0.22451 0.41530 0.60247
 N429 N 0.24456 0.42524 0.59263
 N430 N 0.24410 0.44286 0.57317
 C431 C 0.22358 0.45114 0.56285
 N432 N 0.20350 0.44123 0.57285
 C433 C 0.22525 0.39553 0.62215
 C434 C 0.22662 0.37861 0.63806
 C435 C 0.22912 0.35815 0.65620
 N436 N 0.23695 0.33829 0.64354
 N437 N 0.24029 0.31947 0.66041
 C438 C 0.23598 0.31987 0.69055
 N439 N 0.22797 0.33976 0.70315
 N440 N 0.22463 0.35860 0.68626
 N441 N 0.92518 0.25583 0.09123
 C442 C 0.91595 0.27590 0.10144
 N443 N 0.92472 0.29641 0.09132
 N444 N 0.94215 0.29679 0.07148
 C445 C 0.95137 0.27668 0.06107
 N446 N 0.94259 0.25621 0.07142
 C447 C 0.89660 0.27528 0.12188
 C448 C 0.88011 0.27407 0.13860
 C449 C 0.86022 0.27185 0.15797
 N450 N 0.83966 0.28133 0.14991
 N451 N 0.82083 0.27811 0.16698
 C452 C 0.82197 0.26529 0.19264
 N453 N 0.84258 0.25585 0.20072
 N454 N 0.86140 0.25908 0.18364
 N455 N 0.42487 0.75583 0.59249
 C456 C 0.41556 0.77592 0.60252
 N457 N 0.42422 0.79641 0.59218
 N458 N 0.44164 0.79676 0.57232
 C459 C 0.45094 0.77663 0.56215
 N460 N 0.44227 0.75618 0.57265
 C461 C 0.39621 0.77533 0.62295
 C462 C 0.37969 0.77418 0.63966
 C463 C 0.35977 0.77205 0.65899
 N464 N 0.33924 0.78153 0.65082
 N465 N 0.32037 0.77837 0.66784
 C466 C 0.32146 0.76562 0.69357
 N467 N 0.34204 0.75620 0.70177
 N468 N 0.36089 0.75936 0.68473
 N469 N 0.07544 0.74320 0.09019
 C470 C 0.08491 0.72305 0.09979
 N471 N 0.07620 0.70263 0.08936
 N472 N 0.05857 0.70240 0.06985
 C473 C 0.04912 0.72259 0.06010
 N474 N 0.05784 0.74298 0.07069
 C475 C 0.10460 0.72357 0.11962
 C476 C 0.12146 0.72483 0.13568
 C477 C 0.14184 0.72733 0.15405
 N478 N 0.14111 0.72271 0.18407
 N479 N 0.15984 0.72622 0.20121
 C480 C 0.17989 0.73452 0.18890
 N481 N 0.18056 0.73894 0.15879
 N482 N 0.16186 0.73543 0.14168
 N483 N 0.57521 0.24221 0.59140
 C484 C 0.58475 0.22210 0.60102
 N485 N 0.57610 0.20164 0.59062
 N486 N 0.55847 0.20134 0.57112
 C487 C 0.54896 0.22150 0.56136
 N488 N 0.55761 0.24192 0.57192
 C489 C 0.60448 0.22270 0.62076
 C490 C 0.62137 0.22404 0.63673
 C491 C 0.64181 0.22662 0.65496
 N492 N 0.64119 0.22209 0.68500
 N493 N 0.65998 0.22565 0.70201
 C494 C 0.67997 0.23395 0.68953
 N495 N 0.68054 0.23829 0.65940
 N496 N 0.66177 0.23472 0.64243
 N497 N 0.74461 0.07431 0.90878
 C498 C 0.72458 0.08348 0.89829
 N499 N 0.70401 0.07479 0.90833
 N500 N 0.70351 0.05748 0.92833
 C501 C 0.72358 0.04833 0.93902
 N502 N 0.74413 0.05704 0.92876
 C503 C 0.72537 0.10276 0.87779
 C504 C 0.72690 0.11925 0.86111
 C505 C 0.72978 0.13917 0.84198
 N506 N 0.71132 0.15235 0.83417
 N507 N 0.71436 0.17152 0.81768
 C508 C 0.73596 0.17816 0.80856
 N509 N 0.75435 0.16479 0.81625
 N510 N 0.75131 0.14565 0.83270
 N511 N 0.24449 0.57453 0.40793
 C512 C 0.22445 0.58385 0.39772
 N513 N 0.20389 0.57535 0.40809
 N514 N 0.20343 0.55806 0.42813
 C515 C 0.22352 0.54876 0.43847
 N516 N 0.24404 0.55728 0.42795
 C517 C 0.22520 0.60313 0.37720
 C518 C 0.22671 0.61961 0.36052
 C519 C 0.22956 0.63954 0.34139
 N520 N 0.21109 0.65272 0.33362
 N521 N 0.21410 0.67191 0.31717
 C522 C 0.23570 0.67857 0.30804
 N523 N 0.25410 0.66520 0.31568
 N524 N 0.25108 0.64605 0.33210
 N525 N 0.25415 0.92616 0.90960
 C526 C 0.27413 0.91701 0.89889
 N527 N 0.29475 0.92581 0.90853
 N528 N 0.29535 0.94321 0.92836
 C529 C 0.27533 0.95235 0.93926
 N530 N 0.25473 0.94353 0.92940
 C531 C 0.27327 0.89766 0.87855
 C532 C 0.27174 0.88113 0.86198
 C533 C 0.26898 0.86117 0.84292
 N534 N 0.28737 0.84757 0.83610
 N535 N 0.28443 0.82843 0.81961
 C536 C 0.26300 0.82222 0.80945
 N537 N 0.24467 0.83598 0.81618
 N538 N 0.24761 0.85510 0.83265
 N539 N 0.75539 0.42587 0.40875
 C540 C 0.77535 0.41647 0.39835
 N541 N 0.79599 0.42497 0.40835
 N542 N 0.79662 0.44232 0.42823
 C543 C 0.77662 0.45171 0.43877
 N544 N 0.75601 0.44319 0.42861
 C545 C 0.77443 0.39714 0.37798
 C546 C 0.77285 0.38063 0.36140
 C547 C 0.77003 0.36069 0.34235
 N548 N 0.78840 0.34712 0.33540
 N549 N 0.78541 0.32797 0.31892
 C550 C 0.76394 0.32175 0.30893
 N551 N 0.74563 0.33549 0.31579
 N552 N 0.74862 0.35461 0.33224
 N553 N 0.07455 0.25530 0.90881
 C554 C 0.08432 0.27528 0.89855
 N555 N 0.07609 0.29587 0.90860
 N556 N 0.05862 0.29642 0.92838
 C557 C 0.04886 0.27640 0.93878
 N558 N 0.05712 0.25585 0.92857
 C559 C 0.10374 0.27443 0.87827
 C560 C 0.12031 0.27283 0.86177
 C561 C 0.14028 0.26990 0.84280
 N562 N 0.15382 0.28832 0.83494
 N563 N 0.17297 0.28525 0.81852
 C564 C 0.17925 0.26365 0.80951
 N565 N 0.16553 0.24530 0.81727
 N566 N 0.14641 0.24837 0.83366
 N567 N 0.57445 0.75501 0.40796
 C568 C 0.58425 0.77499 0.39773
 N569 N 0.57607 0.79558 0.40784
 N570 N 0.55863 0.79614 0.42766
 C571 C 0.54885 0.77612 0.43803
 N572 N 0.55705 0.75556 0.42776
 C573 C 0.60367 0.77414 0.37745
 C574 C 0.62026 0.77260 0.36097
 C575 C 0.64027 0.76977 0.34204
 N576 N 0.65364 0.78829 0.33407
 N577 N 0.67284 0.78534 0.31769
 C578 C 0.67932 0.76376 0.30883
 N579 N 0.66577 0.74531 0.31669
 N580 N 0.64660 0.74827 0.33304
 N581 N 0.92433 0.70489 0.90780
 C582 C 0.91596 0.72555 0.89818
 N583 N 0.92563 0.74546 0.90875
 N584 N 0.94308 0.74478 0.92842
 C585 C 0.95147 0.72415 0.93828
 N586 N 0.94181 0.70420 0.92750
 C587 C 0.89650 0.72652 0.87800
 C588 C 0.87990 0.72813 0.86159
 C589 C 0.85988 0.73099 0.84272
 N590 N 0.85354 0.75251 0.83373
 N591 N 0.83441 0.75547 0.81737
 C592 C 0.82089 0.73702 0.80950
 N593 N 0.82737 0.71544 0.81836
 N594 N 0.84654 0.71248 0.83474
 N595 N 0.42528 0.24405 0.40799
 C596 C 0.41542 0.22414 0.39769
 N597 N 0.42354 0.20348 0.40767
 N598 N 0.44098 0.20278 0.42743
 C599 C 0.45082 0.22273 0.43787
 N600 N 0.44269 0.24336 0.42773
 C601 C 0.39600 0.22515 0.37749
 C602 C 0.37942 0.22683 0.36107
 C603 C 0.35941 0.22982 0.34223
 N604 N 0.34596 0.21140 0.33422
 N605 N 0.32678 0.21450 0.31792
 C606 C 0.32039 0.23614 0.30919
 N607 N 0.33402 0.25450 0.31709
 N608 N 0.35317 0.25140 0.33336
 N609 N 0.70394 0.92429 0.90789
 C610 C 0.72453 0.91611 0.89768
 N611 N 0.74455 0.92587 0.90781
 N612 N 0.74404 0.94323 0.92761
 C613 C 0.72349 0.95143 0.93798
 N614 N 0.70343 0.94168 0.92771
 C615 C 0.72535 0.89673 0.87740
 C616 C 0.72692 0.88019 0.86092
 C617 C 0.72984 0.86022 0.84201
 N618 N 0.75139 0.85404 0.83291
 N619 N 0.75445 0.83490 0.81662
 C620 C 0.73606 0.82123 0.80892
 N621 N 0.71443 0.82757 0.81787
 N622 N 0.71138 0.84673 0.83419
 N623 N 0.20418 0.42366 0.40937
 C624 C 0.22477 0.41546 0.39919
 N625 N 0.24478 0.42527 0.40926
 N626 N 0.24426 0.44270 0.42897
 C627 C 0.22371 0.45092 0.43931
 N628 N 0.20366 0.44112 0.42910
 C629 C 0.22559 0.39606 0.37895
 C630 C 0.22711 0.37951 0.36244
 C631 C 0.22992 0.35956 0.34345
 N632 N 0.25144 0.35328 0.33432
 N633 N 0.25438 0.33421 0.31786
 C634 C 0.23591 0.32069 0.31002
 N635 N 0.21433 0.32712 0.31903
 N636 N 0.21139 0.34622 0.33552
 N637 N 0.29472 0.07530 0.90806
 C638 C 0.27409 0.08369 0.89835
 N639 N 0.25411 0.07420 0.90907
 N640 N 0.25469 0.05688 0.92897
 C641 C 0.27529 0.04846 0.93891
 N642 N 0.29531 0.05795 0.92798
 C643 C 0.27324 0.10304 0.87796
 C644 C 0.27173 0.11957 0.86140
 C645 C 0.26899 0.13954 0.84240
 N646 N 0.28758 0.15281 0.83442
 N647 N 0.28472 0.17199 0.81802
 C648 C 0.26315 0.17856 0.80916
 N649 N 0.24463 0.16510 0.81702
 N650 N 0.24750 0.14595 0.83339
 N651 N 0.79616 0.57663 0.40857
 C652 C 0.77553 0.58484 0.39858
 N653 N 0.75556 0.57512 0.40899
 N654 N 0.75614 0.55777 0.42883
 C655 C 0.77673 0.54953 0.43897
 N656 N 0.79675 0.55924 0.42843
 C657 C 0.77464 0.60418 0.37820
 C658 C 0.77306 0.62069 0.36162
 C659 C 0.77017 0.64060 0.34256
 N660 N 0.78865 0.65401 0.33453
 N661 N 0.78563 0.67311 0.31803
 C662 C 0.76402 0.67946 0.30911
 N663 N 0.74560 0.66588 0.31702
 N664 N 0.74862 0.64680 0.33349
 N665 N 0.07382 0.74471 0.90751
 C666 C 0.08287 0.72471 0.89679
 N667 N 0.07405 0.70414 0.90659
 N668 N 0.05672 0.70361 0.92658
 C669 C 0.04769 0.72365 0.93751
 N670 N 0.05652 0.74420 0.92749
 C671 C 0.10222 0.72553 0.87636
 C672 C 0.11878 0.72709 0.85979
 C673 C 0.13882 0.73002 0.84083
 N674 N 0.15251 0.71174 0.83390
 N675 N 0.17183 0.71488 0.81771
 C676 C 0.17812 0.73642 0.80803
 N677 N 0.16424 0.75463 0.81482
 N678 N 0.14495 0.75148 0.83097
 N679 N 0.57552 0.20304 0.40722
 C680 C 0.58408 0.22365 0.39717
 N681 N 0.57470 0.24361 0.40755
 N682 N 0.55734 0.24301 0.42743
 C683 C 0.54877 0.22243 0.43764
 N684 N 0.55813 0.20244 0.42712
 C685 C 0.60346 0.22457 0.37680
 C686 C 0.62002 0.22622 0.36024
 C687 C 0.64003 0.22925 0.34126
 N688 N 0.64611 0.25076 0.33152
 N689 N 0.66534 0.25398 0.31527
 C690 C 0.67920 0.23581 0.30826
 N691 N 0.67296 0.21423 0.31784
 N692 N 0.65371 0.21101 0.33412
 N693 N 0.92519 0.25515 0.90808
 C694 C 0.91579 0.27512 0.89776
 N695 N 0.92425 0.29572 0.90792
 N696 N 0.94157 0.29630 0.92787
 C697 C 0.95095 0.27628 0.93834
 N698 N 0.94248 0.25572 0.92802
 C699 C 0.89649 0.27424 0.87733
 C700 C 0.87999 0.27266 0.86072
 C701 C 0.86004 0.26974 0.84167
 N702 N 0.84677 0.28814 0.83393
 N703 N 0.82759 0.28507 0.81751
 C704 C 0.82103 0.26347 0.80840
 N705 N 0.83448 0.24514 0.81602
 N706 N 0.85363 0.24822 0.83240
 N707 N 0.42412 0.79580 0.40800
 C708 C 0.41554 0.77523 0.39789
 N709 N 0.42490 0.75523 0.40816
 N710 N 0.44226 0.75573 0.42799
 C711 C 0.45086 0.77626 0.43826
 N712 N 0.44151 0.79631 0.42785
 C713 C 0.39619 0.77443 0.37751
 C714 C 0.37966 0.77290 0.36092
 C715 C 0.35970 0.77005 0.34185
 N716 N 0.35327 0.74856 0.33249
 N717 N 0.33414 0.74554 0.31606
 C718 C 0.32071 0.76391 0.30847
 N719 N 0.32730 0.78548 0.31768
 N720 N 0.34647 0.78849 0.33415
 N721 N 0.25589 0.92515 0.09188
 C722 C 0.27604 0.91563 0.10138
 N723 N 0.29648 0.92430 0.09086
 N724 N 0.29672 0.94195 0.07136
 C725 C 0.27653 0.95145 0.06170
 N726 N 0.25612 0.94276 0.07239
 C727 C 0.27552 0.89586 0.12109
 C728 C 0.27428 0.87892 0.13702
 C729 C 0.27183 0.85841 0.15518
 N730 N 0.26398 0.83842 0.14256
 N731 N 0.26054 0.81958 0.15946
 C732 C 0.26477 0.82008 0.18961
 N733 N 0.27283 0.84009 0.20217
 N734 N 0.27627 0.85896 0.18524
 N735 N 0.75660 0.42485 0.59225
 C736 C 0.77669 0.41520 0.60178
 N737 N 0.79719 0.42383 0.59143
 N738 N 0.79757 0.44156 0.57205
 C739 C 0.77744 0.45118 0.56236
 N740 N 0.75697 0.44254 0.57289
 C741 C 0.77602 0.39537 0.62140
 C742 C 0.77466 0.37840 0.63726
 C743 C 0.77209 0.35788 0.65537
 N744 N 0.76407 0.33797 0.64273
 N745 N 0.76057 0.31912 0.65959
 C746 C 0.76491 0.31954 0.68972
 N747 N 0.77312 0.33949 0.70230
 N748 N 0.77662 0.35836 0.68541
 N749 N 0.70387 0.07663 0.09109
 C750 C 0.72444 0.08519 0.10126
 N751 N 0.74447 0.07558 0.09141
 N752 N 0.74398 0.05801 0.07193
 C753 C 0.72344 0.04944 0.06159
 N754 N 0.70338 0.05902 0.07158
 C755 C 0.72523 0.10487 0.12107
 C756 C 0.72667 0.12170 0.13712
 C757 C 0.72929 0.14204 0.15551
 N758 N 0.72548 0.14109 0.18571
 N759 N 0.72902 0.15981 0.20282
 C760 C 0.73657 0.18006 0.19030
 N761 N 0.74019 0.18095 0.16002
 N762 N 0.73665 0.16225 0.14294
 N763 N 0.20387 0.57670 0.59166
 C764 C 0.22442 0.58539 0.60171
 N765 N 0.24447 0.57585 0.59185
 N766 N 0.24403 0.55821 0.57245
 C767 C 0.22352 0.54950 0.56223
 N768 N 0.20342 0.55902 0.57224
 C769 C 0.22514 0.60511 0.62148
 C770 C 0.22651 0.62197 0.63752
 C771 C 0.22902 0.64233 0.65590
 N772 N 0.23644 0.66254 0.64337
 N773 N 0.23987 0.68126 0.66045
 C774 C 0.23607 0.68040 0.69070
 N775 N 0.22846 0.66016 0.70318
 N776 N 0.22503 0.64142 0.68606
 N777 N 0.92326 0.70333 0.09004
 C778 C 0.91512 0.72383 0.10053
 N779 N 0.92512 0.74389 0.09091
 N780 N 0.94268 0.74351 0.07134
 C781 C 0.95084 0.72305 0.06068
 N782 N 0.94086 0.70295 0.07045
 C783 C 0.89542 0.72451 0.12038
 C784 C 0.87857 0.72587 0.13643
 C785 C 0.85820 0.72842 0.15477
 N786 N 0.83830 0.73635 0.14231
 N787 N 0.81959 0.73981 0.15936
 C788 C 0.82014 0.73552 0.18950
 N789 N 0.84007 0.72741 0.20191
 N790 N 0.85881 0.72395 0.18482
 N791 N 0.42301 0.20211 0.59078
 C792 C 0.41482 0.22261 0.60117
 N793 N 0.42483 0.24267 0.59154
 N794 N 0.44244 0.24227 0.57204
 C795 C 0.45064 0.22180 0.56148
 N796 N 0.44066 0.20171 0.57127
 C797 C 0.39509 0.22332 0.62096
 C798 C 0.37822 0.22471 0.63697
 C799 C 0.35783 0.22733 0.65527
 N800 N 0.33801 0.23546 0.64281
 N801 N 0.31931 0.23900 0.65984
 C802 C 0.31979 0.23460 0.68996
 N803 N 0.33964 0.22628 0.70236
 N804 N 0.35837 0.22275 0.68530
 N805 N 0.07604 0.29685 0.09185
 C806 C 0.08436 0.27638 0.10221
 N807 N 0.07453 0.25627 0.09250
 N808 N 0.05698 0.25659 0.07296
 C809 C 0.04865 0.27702 0.06244
 N810 N 0.05845 0.29717 0.07230
 C811 C 0.10406 0.27578 0.12198
 C812 C 0.12094 0.27449 0.13795
 C813 C 0.14136 0.27201 0.15616
 N814 N 0.14078 0.27636 0.18624
 N815 N 0.15955 0.27291 0.20321
 C816 C 0.17950 0.26493 0.19065
 N817 N 0.18002 0.26077 0.16049
 N818 N 0.16127 0.26422 0.14356
 N819 N 0.57669 0.79628 0.59098
 C820 C 0.58499 0.77578 0.60123
 N821 N 0.57510 0.75571 0.59151
 N822 N 0.55748 0.75610 0.57206
 C823 C 0.54916 0.77658 0.56163
 N824 N 0.55904 0.79668 0.57151
 C825 C 0.60471 0.77511 0.62100
 C826 C 0.62158 0.77381 0.63700
 C827 C 0.64197 0.77136 0.65530
 N828 N 0.64136 0.77595 0.68532
 N829 N 0.66011 0.77263 0.70237
 C830 C 0.68007 0.76454 0.68997
 N831 N 0.68062 0.76013 0.65986
 N832 N 0.66189 0.76346 0.64284
   
