data_POSCAR
  _audit_creation_date              2014-09-24
  _audit_creation_method            'ToBaCCo'
  _symmetry_space_group_name_H-M    'P1'
  _symmetry_Int_Tables_number       1
  _symmetry_cell_setting            triclinic
  loop_
  _symmetry_equiv_pos_as_xyz
 x,y,z
_cell_length_a 58.6680
_cell_length_b 58.6592
_cell_length_c 22.7445
_cell_angle_alpha 89.992400
_cell_angle_beta 89.946000
_cell_angle_gamma 119.988400
loop_
  _atom_site_label
  _atom_site_type_symbol
  _atom_site_fract_x
  _atom_site_fract_y
  _atom_site_fract_z
C1 C 0.16888 0.46117 0.49477
 C2 C 0.18307 0.46456 0.44310
 C3 C 0.20698 0.46462 0.44499
 C4 C 0.21639 0.45993 0.49845
 C5 C 0.20118 0.45580 0.54989
 C6 C 0.17806 0.45722 0.54819
 C7 C 0.24204 0.45992 0.50083
 C8 C 0.25597 0.46430 0.55443
 C9 C 0.27977 0.46418 0.55637
 C10 C 0.29071 0.46105 0.50472
 C11 C 0.27779 0.45743 0.45122
 C12 C 0.25330 0.45608 0.44933
 H13 H 0.15081 0.46203 0.49356
 H14 H 0.21818 0.46881 0.40473
 H15 H 0.20707 0.45160 0.59166
 H16 H 0.24892 0.46829 0.59484
 H17 H 0.30960 0.46186 0.50604
 H18 H 0.24344 0.45218 0.40736
 C19 C 0.53679 -0.29347 0.50016
 C20 C 0.54105 -0.27963 0.44758
 C21 C 0.54259 -0.25500 0.44767
 C22 C 0.53835 -0.24456 0.50010
 C23 C 0.53338 -0.25935 0.55249
 C24 C 0.53324 -0.28329 0.55260
 C25 C 0.53836 -0.21892 0.49991
 C26 C 0.54262 -0.20421 0.55228
 C27 C 0.54113 -0.18111 0.55228
 C28 C 0.53685 -0.17156 0.49977
 C29 C 0.53325 -0.18532 0.44744
 C30 C 0.53337 -0.20911 0.44754
 H31 H 0.53583 -0.31245 0.50012
 H32 H 0.54695 -0.24432 0.40663
 H33 H 0.52911 -0.25278 0.59329
 H34 H 0.54697 -0.21047 0.59338
 H35 H 0.53592 -0.15354 0.49977
 H36 H 0.52906 -0.21990 0.40672
 C37 C 1.29190 0.83047 0.49484
 C38 C 1.28102 0.81652 0.44302
 C39 C 1.25714 0.79264 0.44481
 C40 C 1.24311 0.78304 0.49834
 C41 C 1.25431 0.79800 0.54996
 C42 C 1.27885 0.82109 0.54826
 C43 C 1.21738 0.75745 0.50053
 C44 C 1.20784 0.74323 0.55386
 C45 C 1.18386 0.71943 0.55551
 C46 C 1.16975 0.70884 0.50374
 C47 C 1.17905 0.72211 0.45053
 C48 C 1.20222 0.74657 0.44903
 H49 H 1.31083 0.84852 0.49383
 H50 H 1.25006 0.78162 0.40439
 H51 H 1.24437 0.79200 0.59187
 H52 H 1.21898 0.75008 0.59416
 H53 H 1.15163 0.68997 0.50458
 H54 H 1.20816 0.75668 0.40730
 C55 C 0.82967 0.53854 0.49562
 C56 C 0.81579 0.53543 0.44374
 C57 C 0.79204 0.53565 0.44511
 C58 C 0.78246 0.54030 0.49835
 C59 C 0.79732 0.54408 0.55016
 C60 C 0.82033 0.54245 0.54884
 C61 C 0.75697 0.54062 0.50002
 C62 C 0.74255 0.53582 0.55305
 C63 C 0.71879 0.53608 0.55427
 C64 C 0.70846 0.53986 0.50234
 C65 C 0.72194 0.54395 0.44937
 C66 C 0.74635 0.54510 0.44831
 H67 H 0.84764 0.53752 0.49470
 H68 H 0.78114 0.53171 0.40454
 H69 H 0.79129 0.54817 0.59187
 H70 H 0.74922 0.53136 0.59343
 H71 H 0.68962 0.53917 0.50286
 H72 H 0.75665 0.54934 0.40680
 C73 C 0.46264 0.29211 0.50104
 C74 C 0.46609 0.28174 0.44886
 C75 C 0.46604 0.25784 0.44952
 C76 C 0.46122 0.24328 0.50230
 C77 C 0.45710 0.25394 0.55444
 C78 C 0.45857 0.27853 0.55391
 C79 C 0.46108 0.21757 0.50316
 C80 C 0.46593 0.20777 0.55581
 C81 C 0.46580 0.18380 0.55631
 C82 C 0.46210 0.16995 0.50402
 C83 C 0.45797 0.17952 0.45140
 C84 C 0.45670 0.20272 0.45106
 H85 H 0.46354 0.31106 0.50052
 H86 H 0.47022 0.25118 0.40878
 H87 H 0.45285 0.24347 0.59574
 H88 H 0.47031 0.21871 0.59645
 H89 H 0.46286 0.15182 0.50400
 H90 H 0.45243 0.20894 0.40982
 C91 C 0.70934 0.16996 0.49936
 C92 C 0.71974 0.18404 0.44745
 C93 C 0.74352 0.20798 0.44854
 C94 C 0.75794 0.21758 0.50150
 C95 C 0.74725 0.20250 0.55329
 C96 C 0.72279 0.17930 0.55230
 C97 C 0.78350 0.24331 0.50299
 C98 C 0.79314 0.25758 0.55613
 C99 C 0.81697 0.28151 0.55728
 C100 C 0.83084 0.29218 0.50520
 C101 C 0.82142 0.27887 0.45212
 C102 C 0.79837 0.25429 0.45107
 H103 H 0.69048 0.15186 0.49870
 H104 H 0.75019 0.21902 0.40804
 H105 H 0.75753 0.20853 0.59477
 H106 H 0.78217 0.25063 0.59670
 H107 H 0.84886 0.31114 0.50573
 H108 H 0.79228 0.24413 0.40944
 N109 N 0.97267 0.52708 0.06237
 N110 N 0.95349 0.53220 0.07270
 N111 N 1.02805 0.53889 0.10237
 N112 N 1.04582 0.55216 0.14301
 N113 N 1.02799 0.55489 0.06210
 N114 N 1.04567 0.57952 0.07449
 N115 N 0.97273 0.51098 0.10239
 N116 N 0.95362 0.50460 0.14068
 C117 C 0.94166 0.51784 0.12159
 C118 C 1.05686 0.57747 0.12480
 N119 N 1.02828 0.47381 0.06250
 N120 N 1.04734 0.46854 0.07306
 N121 N 0.97293 0.46208 0.10292
 N122 N 0.95518 0.44888 0.14374
 N123 N 0.97294 0.44601 0.06278
 N124 N 0.95524 0.42140 0.07544
 N125 N 1.02826 0.48999 0.10236
 N126 N 1.04729 0.49628 0.14076
 Mn127 Mn 1.00050 0.50049 0.10302
 C128 C 1.05915 0.48290 0.12191
 C129 C 0.94409 0.42355 0.12579
 N130 N 1.02817 0.55480 -0.06495
 N131 N 1.04725 0.57912 -0.07556
 N132 N 0.97279 0.51114 -0.10482
 N133 N 0.95495 0.50652 -0.14539
 N134 N 0.97282 0.52722 -0.06466
 N135 N 0.95506 0.53406 -0.07704
 N136 N 1.02813 0.53860 -0.10483
 N137 N 1.04716 0.55134 -0.14332
 Mn138 Mn 1.00041 0.54128 -0.00128
 C139 C 1.05905 0.57658 -0.12449
 C140 C 0.94384 0.52073 -0.12725
 N141 N 0.97265 0.44593 -0.06428
 N142 N 0.95352 0.42161 -0.07449
 N143 N 1.02797 0.48952 -0.10484
 N144 N 1.04570 0.49400 -0.14568
 N145 N 1.02798 0.47349 -0.06458
 N146 N 1.04565 0.46654 -0.07717
 N147 N 0.97266 0.46207 -0.10429
 N148 N 0.95354 0.44930 -0.14244
 Mn149 Mn 1.00046 0.45953 -0.00089
 Mn150 Mn 1.00039 0.50033 -0.10521
 Cl151 Cl 1.00044 0.50041 -0.00109
 C152 C 0.94164 0.42410 -0.12329
 C153 C 1.05678 0.47977 -0.12760
 N154 N 0.52663 0.55494 0.05997
 N155 N 0.53360 0.57964 0.07192
 N156 N 0.53877 0.51187 0.10182
 N157 N 0.55225 0.50772 0.14259
 N158 N 0.55458 0.52763 0.06086
 N159 N 0.57929 0.53475 0.07295
 N160 N 0.51071 0.53913 0.10076
 N161 N 0.50634 0.55258 0.14120
 C162 C 0.52048 0.57780 0.12244
 C163 C 0.57746 0.52189 0.12380
 N164 N 0.47379 0.44603 0.06488
 N165 N 0.46877 0.42186 0.07640
 N166 N 0.46185 0.48978 0.10324
 N167 N 0.44869 0.49454 0.14379
 N168 N 0.44570 0.47327 0.06382
 N169 N 0.42110 0.46629 0.07669
 N170 N 0.49002 0.46262 0.10409
 N171 N 0.49659 0.45028 0.14302
 Mn172 Mn 0.50032 0.50085 0.10297
 C173 C 0.48333 0.42489 0.12516
 C174 C 0.42331 0.47997 0.12639
 N175 N 0.55387 0.52626 -0.06618
 N176 N 0.57822 0.53166 -0.07709
 N177 N 0.50962 0.53704 -0.10637
 N178 N 0.50280 0.54932 -0.14490
 N179 N 0.52580 0.55361 -0.06712
 N180 N 0.53054 0.57772 -0.07815
 N181 N 0.53759 0.50966 -0.10527
 N182 N 0.55029 0.50322 -0.14352
 Mn183 Mn 0.54050 0.54089 -0.00320
 C184 C 0.57560 0.51694 -0.12535
 C185 C 0.51588 0.57466 -0.12671
 N186 N 0.44502 0.47227 -0.06318
 N187 N 0.42065 0.46706 -0.07297
 N188 N 0.48879 0.46055 -0.10300
 N189 N 0.49335 0.44709 -0.14307
 N190 N 0.47292 0.44479 -0.06214
 N191 N 0.46616 0.42011 -0.07357
 N192 N 0.46095 0.48805 -0.10393
 N193 N 0.44801 0.49415 -0.14218
 Mn194 Mn 0.45908 0.45881 0.00087
 Mn195 Mn 0.49926 0.49883 -0.10516
 Cl196 Cl 0.49979 0.49985 -0.00107
 C197 C 0.42292 0.48105 -0.12235
 C198 C 0.47934 0.42191 -0.12392
 N199 N 0.44530 -0.02750 0.06363
 N200 N 0.42093 -0.04666 0.07350
 N201 N 0.48892 0.02794 0.10376
 N202 N 0.49335 0.04584 0.14404
 N203 N 0.47306 0.02787 0.06299
 N204 N 0.46618 0.04567 0.07470
 N205 N 0.46121 -0.02738 0.10429
 N206 N 0.44826 -0.04645 0.14255
 C207 C 0.42318 -0.05843 0.12281
 C208 C 0.47927 0.05696 0.12512
 N209 N 0.55414 0.02760 0.06660
 N210 N 0.57845 0.04661 0.07746
 N211 N 0.50996 -0.02756 0.10650
 N212 N 0.50308 -0.04678 0.14476
 N213 N 0.52620 -0.02783 0.06715
 N214 N 0.53093 -0.04723 0.07785
 N215 N 0.53780 0.02778 0.10579
 N216 N 0.55042 0.04690 0.14408
 Mn217 Mn 0.49949 0.00021 0.10560
 C218 C 0.57574 0.05860 0.12582
 C219 C 0.51620 -0.05898 0.12632
 N220 N 0.47406 0.02774 -0.06405
 N221 N 0.46898 0.04687 -0.07533
 N222 N 0.46233 -0.02781 -0.10291
 N223 N 0.44924 -0.04565 -0.14358
 N224 N 0.44611 -0.02757 -0.06340
 N225 N 0.42154 -0.04521 -0.07633
 N226 N 0.49036 0.02753 -0.10335
 N227 N 0.49691 0.04651 -0.14213
 Mn228 Mn 0.45935 0.00013 -0.00024
 C229 C 0.48356 0.05853 -0.12406
 C230 C 0.42384 -0.05655 -0.12617
 N231 N 0.52715 -0.02808 -0.05991
 N232 N 0.53409 -0.04584 -0.07184
 N233 N 0.53920 0.02718 -0.10132
 N234 N 0.55269 0.04492 -0.14194
 N235 N 0.55498 0.02718 -0.06043
 N236 N 0.57968 0.04486 -0.07239
 N237 N 0.51128 -0.02814 -0.10067
 N238 N 0.50691 -0.04597 -0.14110
 Mn239 Mn 0.54090 -0.00029 0.00343
 Mn240 Mn 0.50078 -0.00032 -0.10257
 Cl241 Cl 0.50013 -0.00006 0.00150
 C242 C 0.52102 -0.05708 -0.12235
 C243 C 0.57789 0.05600 -0.12311
 C244 C 1.10798 0.46292 0.17504
 C245 C 1.11918 0.47985 0.22315
 C246 C 1.11192 0.49871 0.23543
 C247 C 1.09297 0.50015 0.20115
 C248 C 1.17332 0.46810 0.39163
 C249 C 1.08903 0.46443 0.14034
 C250 C 1.13621 0.47658 0.26364
 C251 C 1.14931 0.47398 0.30100
 C252 C 1.16309 0.47091 0.34837
 C253 C 1.08098 0.48273 0.15393
 H254 H 1.11331 0.44810 0.16539
 H255 H 1.12032 0.51181 0.27271
 H256 H 1.08726 0.51454 0.21252
 H257 H 1.08008 0.45076 0.10425
 C258 C 0.54606 0.64750 0.17770
 C259 C 0.53100 0.64273 0.22887
 C260 C 0.51171 0.61699 0.24309
 C261 C 0.50788 0.59602 0.20741
 C262 C 0.54185 0.70864 0.39643
 C263 C 0.54216 0.62645 0.14165
 C264 C 0.53587 0.66363 0.26917
 C265 C 0.53894 0.67960 0.30632
 C266 C 0.54121 0.69630 0.35343
 C267 C 0.52329 0.60046 0.15679
 H268 H 0.56111 0.66735 0.16634
 H269 H 0.49997 0.61304 0.28259
 H270 H 0.49314 0.57624 0.22012
 H271 H 0.55434 0.63042 0.10293
 C272 C 0.38596 -0.11180 0.23506
 C273 C 0.35987 -0.11892 0.22287
 C274 C 0.35425 -0.10745 0.17508
 C275 C 0.37478 -0.08837 0.14065
 C276 C 0.29421 -0.17353 0.39147
 C277 C 0.40641 -0.09271 0.20109
 C278 C 0.33955 -0.13605 0.26325
 C279 C 0.32389 -0.14925 0.30064
 C280 C 0.30715 -0.16317 0.34813
 C281 C 0.40109 -0.08043 0.15427
 H282 H 0.39057 -0.12041 0.27208
 H283 H 0.33413 -0.11268 0.16551
 H284 H 0.37016 -0.07919 0.10486
 H285 H 0.42647 -0.08712 0.21243
 C286 C 0.88856 0.50169 0.23462
 C287 C 0.88115 0.52042 0.22206
 C288 C 0.89237 0.53736 0.17391
 C289 C 0.91148 0.53599 0.13945
 C290 C 0.82629 0.53177 0.38957
 C291 C 0.90767 0.50039 0.20058
 C292 C 0.86397 0.52356 0.26232
 C293 C 0.85073 0.52608 0.29950
 C294 C 0.83675 0.52904 0.34662
 C295 C 0.91968 0.51784 0.15335
 H296 H 0.88014 0.48859 0.27194
 H297 H 0.88692 0.55208 0.16406
 H298 H 0.92044 0.54967 0.10333
 H299 H 0.91348 0.48611 0.21216
 C300 C 0.46444 0.35650 0.17929
 C301 C 0.48116 0.36256 0.22790
 C302 C 0.49951 0.38882 0.24039
 C303 C 0.50067 0.40900 0.20572
 C304 C 0.46991 0.29621 0.39511
 C305 C 0.46566 0.37674 0.14425
 C306 C 0.47818 0.34238 0.26842
 C307 C 0.47572 0.32664 0.30557
 C308 C 0.47272 0.30958 0.35245
 C309 C 0.48346 0.40320 0.15794
 H310 H 0.45002 0.33624 0.16947
 H311 H 0.51244 0.39376 0.27806
 H312 H 0.51467 0.42919 0.21718
 H313 H 0.45217 0.37174 0.10771
 C314 C 0.64446 0.10759 0.17876
 C315 C 0.63871 0.11879 0.22687
 C316 C 0.61257 0.11144 0.23930
 C317 C 0.59220 0.09243 0.20512
 C318 C 0.70533 0.17355 0.39360
 C319 C 0.62402 0.08857 0.14419
 C320 C 0.65903 0.13592 0.26710
 C321 C 0.67486 0.14914 0.30411
 C322 C 0.69197 0.16310 0.35093
 C323 C 0.59767 0.08045 0.15789
 H324 H 0.66462 0.11299 0.16899
 H325 H 0.60787 0.11985 0.27659
 H326 H 0.57210 0.08666 0.21657
 H327 H 0.62877 0.07964 0.10807
 C328 C 0.49961 0.11095 -0.23888
 C329 C 0.48119 0.11876 -0.22612
 C330 C 0.46448 0.10798 -0.17746
 C331 C 0.46577 0.08894 -0.14264
 C332 C 0.46951 0.17369 -0.39297
 C333 C 0.50084 0.09191 -0.20443
 C334 C 0.47812 0.13595 -0.26646
 C335 C 0.47556 0.14921 -0.30350
 C336 C 0.47244 0.16322 -0.35031
 C337 C 0.48363 0.08037 -0.15660
 H338 H 0.51253 0.11902 -0.27660
 H339 H 0.45001 0.11374 -0.16743
 H340 H 0.45227 0.08035 -0.10606
 H341 H 0.51488 0.08579 -0.21610
 C342 C 0.64440 0.53711 -0.17891
 C343 C 0.63872 0.52008 -0.22681
 C344 C 0.61262 0.50109 -0.23884
 C345 C 0.59221 0.49961 -0.20448
 C346 C 0.70515 0.53234 -0.39468
 C347 C 0.62392 0.53557 -0.14416
 C348 C 0.65903 0.52340 -0.26732
 C349 C 0.67483 0.52611 -0.30458
 C350 C 0.69187 0.52935 -0.35172
 C351 C 0.59760 0.51714 -0.15749
 H352 H 0.66452 0.55203 -0.16946
 H353 H 0.60797 0.48792 -0.27597
 H354 H 0.57214 0.48512 -0.21564
 H355 H 0.62860 0.54931 -0.10824
 C356 C 0.88857 0.38708 -0.23603
 C357 C 0.88131 0.36096 -0.22364
 C358 C 0.89261 0.35527 -0.17565
 C359 C 0.91165 0.37576 -0.14120
 C360 C 0.82692 0.29495 -0.39153
 C361 C 0.90761 0.40750 -0.20201
 C362 C 0.86424 0.34066 -0.26397
 C363 C 0.85110 0.32493 -0.30122
 C364 C 0.83725 0.30805 -0.34845
 C365 C 0.91970 0.40210 -0.15495
 H366 H 0.88009 0.39174 -0.27323
 H367 H 0.88728 0.33513 -0.16593
 H368 H 0.92068 0.37107 -0.10521
 H369 H 0.91331 0.42758 -0.21347
 C370 C 0.51230 -0.10510 -0.24278
 C371 C 0.53132 -0.11185 -0.22801
 C372 C 0.54620 -0.10169 -0.17666
 C373 C 0.54239 -0.08439 -0.14092
 C374 C 0.54205 -0.16774 -0.39384
 C375 C 0.50854 -0.08782 -0.20740
 C376 C 0.53609 -0.12811 -0.26787
 C377 C 0.53912 -0.14119 -0.30461
 C378 C 0.54138 -0.15585 -0.35123
 C379 C 0.52378 -0.07700 -0.15655
 H380 H 0.50069 -0.11280 -0.28242
 H381 H 0.56104 -0.10672 -0.16487
 H382 H 0.55441 -0.07630 -0.10202
 H383 H 0.49401 -0.08257 -0.22049
 C384 C 0.35397 0.46136 -0.17381
 C385 C 0.35959 0.47837 -0.22178
 C386 C 0.38569 0.49719 -0.23444
 C387 C 0.40615 0.49850 -0.20072
 C388 C 0.29365 0.46758 -0.38918
 C389 C 0.37452 0.46275 -0.13964
 C390 C 0.33922 0.47527 -0.26182
 C391 C 0.32350 0.47286 -0.29893
 C392 C 0.30667 0.47010 -0.34609
 C393 C 0.40083 0.48099 -0.15368
 H394 H 0.33384 0.44658 -0.16388
 H395 H 0.39030 0.51035 -0.27160
 H396 H 0.42621 0.51285 -0.21238
 H397 H 0.36989 0.44902 -0.10367
 C398 C 1.10817 0.64540 -0.17717
 C399 C 1.11932 0.63970 -0.22550
 C400 C 1.11188 0.61356 -0.23815
 C401 C 1.09284 0.59315 -0.20398
 C402 C 1.17398 0.70599 -0.39318
 C403 C 1.08913 0.62492 -0.14259
 C404 C 1.13648 0.66006 -0.26578
 C405 C 1.14970 0.67585 -0.30295
 C406 C 1.16363 0.69283 -0.35010
 C407 C 1.08093 0.59857 -0.15652
 H408 H 1.11364 0.66556 -0.16723
 H409 H 1.12023 0.60889 -0.27560
 H410 H 1.08701 0.57306 -0.21561
 H411 H 1.08025 0.62963 -0.10630
 C412 C 0.89608 0.51202 -0.24814
 C413 C 0.88920 0.53094 -0.23315
 C414 C 0.89916 0.54568 -0.18158
 C415 C 0.91641 0.54186 -0.14582
 C416 C 0.83375 0.54286 -0.39789
 C417 C 0.91332 0.50825 -0.21269
 C418 C 0.87308 0.53583 -0.27296
 C419 C 0.86012 0.53911 -0.30948
 C420 C 0.84559 0.54179 -0.35569
 C421 C 0.92395 0.52338 -0.16164
 H422 H 0.88853 0.50053 -0.28799
 H423 H 0.89402 0.56042 -0.16965
 H424 H 0.92433 0.55379 -0.10673
 H425 H 0.91870 0.49383 -0.22589
 C426 C 0.45409 0.35212 -0.17757
 C427 C 0.46915 0.35676 -0.22865
 C428 C 0.48841 0.38246 -0.24328
 C429 C 0.49218 0.40354 -0.20810
 C430 C 0.45789 0.29045 -0.39522
 C431 C 0.45792 0.37327 -0.14202
 C432 C 0.46422 0.33577 -0.26859
 C433 C 0.46104 0.31970 -0.30550
 C434 C 0.45864 0.30290 -0.35239
 C435 C 0.47672 0.39921 -0.15763
 H436 H 0.43907 0.33230 -0.16594
 H437 H 0.50015 0.38629 -0.28275
 H438 H 0.50687 0.42328 -0.22110
 H439 H 0.44572 0.36940 -0.10338
 C440 C 0.64771 0.10025 -0.17710
 C441 C 0.64311 0.11034 -0.22872
 C442 C 0.61742 0.10371 -0.24380
 C443 C 0.59631 0.08658 -0.20842
 C444 C 0.71008 0.16575 -0.39424
 C445 C 0.62654 0.08310 -0.14137
 C446 C 0.66420 0.12639 -0.26855
 C447 C 0.68038 0.13932 -0.30526
 C448 C 0.69740 0.15386 -0.35179
 C449 C 0.60060 0.07580 -0.15731
 H450 H 0.66753 0.10521 -0.16511
 H451 H 0.61362 0.11138 -0.28367
 H452 H 0.57657 0.08138 -0.22170
 H453 H 0.63037 0.07505 -0.10224
 C454 C 1.10072 0.45414 -0.18323
 C455 C 1.11064 0.46887 -0.23488
 C456 C 1.10404 0.48803 -0.24943
 C457 C 1.08708 0.49203 -0.21350
 C458 C 1.16524 0.45675 -0.40145
 C459 C 1.08375 0.45820 -0.14697
 C460 C 1.12645 0.46376 -0.27522
 C461 C 1.13917 0.46038 -0.31221
 C462 C 1.15349 0.45771 -0.35893
 C463 C 1.07646 0.47691 -0.16238
 H464 H 1.10565 0.43921 -0.17165
 H465 H 1.11158 0.49952 -0.28934
 H466 H 1.08189 0.50663 -0.22637
 H467 H 1.07582 0.44626 -0.10783
 C468 C 0.53442 0.64295 -0.18037
 C469 C 0.51746 0.63684 -0.22850
 C470 C 0.49894 0.61059 -0.24058
 C471 C 0.49792 0.59044 -0.20608
 C472 C 0.52940 0.70284 -0.39675
 C473 C 0.53334 0.62275 -0.14548
 C474 C 0.52051 0.65691 -0.26928
 C475 C 0.52312 0.67257 -0.30671
 C476 C 0.52636 0.68953 -0.35391
 C477 C 0.51545 0.59628 -0.15892
 H478 H 0.54898 0.66321 -0.17092
 H479 H 0.48583 0.60563 -0.27791
 H480 H 0.48383 0.57024 -0.21726
 H481 H 0.54707 0.62776 -0.10940
 C482 C 0.35439 -0.10076 -0.18173
 C483 C 0.35928 -0.11066 -0.23329
 C484 C 0.38507 -0.10393 -0.24789
 C485 C 0.40599 -0.08687 -0.21205
 C486 C 0.29200 -0.16550 -0.39859
 C487 C 0.37536 -0.08369 -0.14559
 C488 C 0.33835 -0.12658 -0.27343
 C489 C 0.32215 -0.13937 -0.31012
 C490 C 0.30496 -0.15374 -0.35641
 C491 C 0.40139 -0.07629 -0.16100
 H492 H 0.33450 -0.10579 -0.17011
 H493 H 0.38908 -0.11144 -0.28774
 H494 H 0.42581 -0.08157 -0.22493
 H495 H 0.37128 -0.07580 -0.10651
 C496 C 0.49904 -0.11224 0.23935
 C497 C 0.51755 -0.11997 0.22697
 C498 C 0.53458 -0.10897 0.17892
 C499 C 0.53358 -0.08970 0.14441
 C500 C 0.52921 -0.17469 0.39401
 C501 C 0.49810 -0.09297 0.20522
 C502 C 0.52051 -0.13716 0.26739
 C503 C 0.52305 -0.15036 0.30454
 C504 C 0.52622 -0.16425 0.35143
 C505 C 0.51570 -0.08115 0.15815
 H506 H 0.48588 -0.12050 0.27663
 H507 H 0.54912 -0.11467 0.16925
 H508 H 0.54736 -0.08089 0.10838
 H509 H 0.48402 -0.08686 0.21663
 C510 C 0.35377 0.45466 0.18179
 C511 C 0.35857 0.46950 0.23322
 C512 C 0.38432 0.48860 0.24778
 C513 C 0.40531 0.49247 0.21203
 C514 C 0.29102 0.45712 0.39818
 C515 C 0.37480 0.45857 0.14574
 C516 C 0.33758 0.46450 0.27327
 C517 C 0.32132 0.46110 0.30988
 C518 C 0.30405 0.45829 0.35609
 C519 C 0.40080 0.47725 0.16111
 H520 H 0.33391 0.43977 0.17020
 H521 H 0.38826 0.50016 0.28753
 H522 H 0.42510 0.50704 0.22488
 H523 H 0.37079 0.44656 0.10676
 C524 C 1.10084 0.64707 0.17984
 C525 C 1.11082 0.64231 0.23141
 C526 C 1.10425 0.61658 0.24609
 C527 C 1.08726 0.59558 0.21036
 C528 C 1.16553 0.70922 0.39728
 C529 C 1.08384 0.62602 0.14379
 C530 C 1.12666 0.66327 0.27155
 C531 C 1.13941 0.67942 0.30838
 C532 C 1.15375 0.69645 0.35491
 C533 C 1.07658 0.60004 0.15934
 H534 H 1.10575 0.66692 0.16817
 H535 H 1.11183 0.61267 0.28593
 H536 H 1.08208 0.57580 0.22333
 H537 H 1.07586 0.62998 0.10473
 C538 C 0.48795 0.10505 0.24515
 C539 C 0.46863 0.11142 0.23070
 C540 C 0.45366 0.10111 0.17955
 C541 C 0.45764 0.08396 0.14373
 C542 C 0.45710 0.16621 0.39758
 C543 C 0.49186 0.08790 0.20970
 C544 C 0.46359 0.12736 0.27084
 C545 C 0.46034 0.14016 0.30786
 C546 C 0.45788 0.15450 0.35479
 C547 C 0.47649 0.07687 0.15914
 H548 H 0.49962 0.11288 0.28467
 H549 H 0.43860 0.10587 0.16806
 H550 H 0.44551 0.07570 0.10503
 H551 H 0.50658 0.08288 0.22255
 C552 C 0.61689 0.51396 0.24493
 C553 C 0.64258 0.53311 0.22996
 C554 C 0.64723 0.54777 0.17825
 C555 C 0.62609 0.54364 0.14235
 C556 C 0.70929 0.54482 0.39590
 C557 C 0.59582 0.50988 0.20938
 C558 C 0.66361 0.53822 0.26994
 C559 C 0.67973 0.54152 0.30676
 C560 C 0.69667 0.54403 0.35340
 C561 C 0.60016 0.52492 0.15819
 H562 H 0.61306 0.50252 0.28487
 H563 H 0.66705 0.56269 0.16633
 H564 H 0.62996 0.55551 0.10315
 H565 H 0.57608 0.49528 0.22259
 C566 C 0.89974 0.35399 0.18113
 C567 C 0.88982 0.35883 0.23275
 C568 C 0.89660 0.38462 0.24743
 C569 C 0.91371 0.40558 0.21163
 C570 C 0.83480 0.29179 0.39865
 C571 C 0.91686 0.37500 0.14502
 C572 C 0.87383 0.33787 0.27291
 C573 C 0.86098 0.32171 0.30972
 C574 C 0.84656 0.30461 0.35624
 C575 C 0.92431 0.40103 0.16053
 H576 H 0.89468 0.33410 0.16944
 H577 H 0.88907 0.38860 0.28731
 H578 H 0.91902 0.42539 0.22460
 H579 H 0.92477 0.37096 0.10589
   
