data_POSCAR
  _audit_creation_date              2014-09-24
  _audit_creation_method            'ToBaCCo'
  _symmetry_space_group_name_H-M    'P1'
  _symmetry_Int_Tables_number       1
  _symmetry_cell_setting            triclinic
  loop_
  _symmetry_equiv_pos_as_xyz
 x,y,z
_cell_length_a 34.0690
_cell_length_b 28.9093
_cell_length_c 27.4478
_cell_angle_alpha 90.060600
_cell_angle_beta 90.040800
_cell_angle_gamma 90.052700
loop_
  _atom_site_label
  _atom_site_type_symbol
  _atom_site_fract_x
  _atom_site_fract_y
  _atom_site_fract_z
C1 C 0.27442 0.33276 0.20811
 H2 H 0.25371 0.34869 0.23266
 C3 C 0.29764 0.36066 0.17831
 H4 H 0.29445 0.39792 0.17976
 C5 C 0.30440 0.26518 0.17630
 H6 H 0.30679 0.22786 0.17587
 C7 C 0.32821 0.29183 0.14584
 H8 H 0.34909 0.27508 0.12189
 N9 N 0.27756 0.28587 0.20583
 C10 C 0.21862 0.28598 0.33458
 H11 H 0.24041 0.26404 0.35127
 C12 C 0.19680 0.31619 0.36364
 H13 H 0.20217 0.31764 0.40251
 C14 C 0.18489 0.31132 0.26390
 H15 H 0.18066 0.30933 0.22489
 C16 C 0.16225 0.34174 0.29163
 H17 H 0.14036 0.36310 0.27398
 Zn18 Zn 0.24455 0.24780 0.24427
 N19 N 0.21305 0.28502 0.28548
 C20 C 0.30547 0.22676 0.30978
 N21 N 0.27703 0.20776 0.28122
 C22 C 0.27255 0.16107 0.27789
 C23 C 0.29651 0.13160 0.30498
 C24 C 0.33008 0.19850 0.33753
 C25 C 0.21397 0.21470 0.15438
 C26 C 0.18980 0.18749 0.12492
 C27 C 0.15785 0.15854 0.19732
 C28 C 0.18267 0.18626 0.22545
 N29 N 0.21055 0.21292 0.20374
 H30 H 0.30883 0.26395 0.31115
 H31 H 0.25047 0.14646 0.25424
 H32 H 0.29229 0.09452 0.30263
 H33 H 0.35236 0.21396 0.36056
 H34 H 0.23567 0.23675 0.13766
 H35 H 0.19352 0.18818 0.08573
 H36 H 0.13630 0.13669 0.21498
 H37 H 0.18029 0.18592 0.26475
 C38 C 0.16896 0.34526 0.34189
 C39 C 0.32431 0.34009 0.14613
 C40 C 0.16142 0.15898 0.14645
 C41 C 0.32575 0.15035 0.33503
 C42 C 0.81907 0.78434 0.22443
 H43 H 0.83302 0.76530 0.25337
 C44 C 0.84168 0.81417 0.19594
 H45 H 0.87285 0.81706 0.20320
 C46 C 0.76262 0.80114 0.17747
 H47 H 0.73192 0.79525 0.16978
 C48 C 0.78417 0.83095 0.14780
 H49 H 0.76923 0.84876 0.11846
 N50 N 0.77991 0.77963 0.21592
 C51 C 0.71501 0.78084 0.34385
 H52 H 0.73229 0.75487 0.36215
 C53 C 0.69350 0.81241 0.37160
 H54 H 0.69483 0.81090 0.41099
 C55 C 0.69158 0.81449 0.27077
 H56 H 0.69057 0.81503 0.23151
 C57 C 0.66928 0.84634 0.29710
 H58 H 0.65130 0.87128 0.27792
 Zn59 Zn 0.74710 0.74311 0.25671
 N60 N 0.71451 0.78308 0.29429
 C61 C 0.80262 0.72584 0.33139
 N62 N 0.77777 0.70541 0.29896
 C63 C 0.77392 0.65857 0.29704
 C64 C 0.79573 0.63042 0.32825
 C65 C 0.82513 0.69897 0.36305
 C66 C 0.67611 0.70444 0.22059
 C67 C 0.65338 0.67759 0.18897
 C68 C 0.71286 0.65278 0.14873
 C69 C 0.73444 0.68027 0.18088
 N70 N 0.71586 0.70538 0.21587
 H71 H 0.80477 0.76315 0.33285
 H72 H 0.75369 0.64288 0.27159
 H73 H 0.79236 0.59319 0.32646
 H74 H 0.84505 0.71561 0.38837
 H75 H 0.66199 0.72445 0.24885
 H76 H 0.62175 0.67696 0.19288
 H77 H 0.72787 0.63290 0.12095
 H78 H 0.76608 0.68181 0.17794
 C79 C 0.67105 0.84631 0.34811
 C80 C 0.82403 0.83943 0.15803
 C81 C 0.67188 0.65170 0.15243
 C82 C 0.82142 0.65070 0.36196
 C83 C 0.82321 0.27639 0.71616
 H84 H 0.83593 0.24834 0.73671
 C85 C 0.84768 0.30522 0.68882
 H86 H 0.87910 0.29958 0.68890
 C87 C 0.76704 0.31738 0.68924
 H88 H 0.73563 0.32166 0.68878
 C89 C 0.79040 0.34688 0.66138
 H90 H 0.77683 0.37407 0.64011
 N91 N 0.78365 0.28328 0.71649
 C92 C 0.72265 0.28167 0.84448
 H93 H 0.74526 0.26108 0.86122
 C94 C 0.69870 0.30899 0.87402
 H95 H 0.70361 0.30981 0.91301
 C96 C 0.68802 0.30574 0.77408
 H97 H 0.68319 0.30333 0.73527
 C98 C 0.66337 0.33353 0.80231
 H99 H 0.64026 0.35327 0.78498
 Zn100 Zn 0.75038 0.24447 0.75446
 N101 N 0.71751 0.28114 0.79526
 C102 C 0.80776 0.22167 0.82500
 N103 N 0.78127 0.20377 0.79309
 C104 C 0.77631 0.15731 0.78884
 C105 C 0.79687 0.12703 0.81908
 C106 C 0.82883 0.19272 0.85613
 C107 C 0.72506 0.20784 0.66406
 C108 C 0.70108 0.18165 0.63334
 C109 C 0.66229 0.15940 0.70323
 C110 C 0.68694 0.18612 0.73264
 N111 N 0.71765 0.20951 0.71273
 H112 H 0.81229 0.25869 0.82656
 H113 H 0.75577 0.14350 0.76260
 H114 H 0.79040 0.09047 0.81605
 H115 H 0.85070 0.20821 0.87973
 H116 H 0.74985 0.22636 0.64912
 H117 H 0.70742 0.18007 0.59471
 H118 H 0.63807 0.14062 0.71941
 H119 H 0.68182 0.18804 0.77149
 C120 C 0.66868 0.33524 0.85287
 C121 C 0.83119 0.34124 0.66157
 C122 C 0.66921 0.15729 0.65297
 C123 C 0.82263 0.14441 0.85516
 C124 C 0.32312 0.78895 0.71319
 H125 H 0.33758 0.76577 0.73823
 C126 C 0.34558 0.81885 0.68453
 H127 H 0.37727 0.81874 0.68777
 C128 C 0.26449 0.81701 0.67724
 H129 H 0.23281 0.81596 0.67470
 C130 C 0.28579 0.84747 0.64800
 H131 H 0.27050 0.87003 0.62289
 N132 N 0.28326 0.78926 0.70977
 C133 C 0.19627 0.76570 0.82359
 H134 H 0.19544 0.72830 0.82436
 C135 C 0.17294 0.79118 0.85568
 H136 H 0.15380 0.77342 0.88101
 C137 C 0.22232 0.83467 0.78981
 H138 H 0.24204 0.85156 0.76472
 C139 C 0.19957 0.86143 0.82129
 H140 H 0.20157 0.89881 0.81989
 Zn141 Zn 0.25149 0.75095 0.74949
 N142 N 0.22000 0.78768 0.79113
 C143 C 0.30614 0.73319 0.82359
 N144 N 0.28263 0.71254 0.78986
 C145 C 0.27977 0.66566 0.78693
 C146 C 0.30149 0.63764 0.81834
 C147 C 0.32848 0.70643 0.85561
 C148 C 0.17985 0.71622 0.71018
 C149 C 0.15703 0.68897 0.67907
 C150 C 0.21655 0.65986 0.64236
 C151 C 0.23825 0.68768 0.67411
 N152 N 0.21973 0.71463 0.70761
 H153 H 0.30738 0.77054 0.82567
 H154 H 0.26023 0.64983 0.76080
 H155 H 0.29888 0.60036 0.81583
 H156 H 0.34731 0.72317 0.88212
 H157 H 0.16561 0.73856 0.73627
 H158 H 0.12533 0.68996 0.68181
 H159 H 0.23159 0.63814 0.61617
 H160 H 0.26997 0.68754 0.67244
 C161 C 0.17473 0.83961 0.85480
 C162 C 0.32675 0.84912 0.65222
 C163 C 0.17548 0.66051 0.64466
 C164 C 0.32586 0.65808 0.85341
 C165 C -0.04671 -0.04197 0.03010
 C166 C -0.02661 -0.01101 -0.00025
 C167 C -0.04768 0.02068 -0.02868
 C168 C -0.08873 0.02143 -0.02677
 C169 C -0.10868 -0.00907 0.00415
 C170 C -0.08780 -0.04041 0.03321
 C171 C 0.01646 -0.00961 0.00025
 C172 C 0.03831 -0.04276 -0.02527
 C173 C 0.07947 -0.04119 -0.02451
 C174 C 0.09856 -0.00593 0.00155
 C175 C 0.07685 0.02729 0.02721
 C176 C 0.03575 0.02510 0.02668
 H177 H -0.03038 -0.06608 0.05252
 H178 H -0.03217 0.04501 -0.05175
 H179 H 0.02334 -0.06960 -0.04571
 H180 H 0.01878 0.05024 0.04706
 H181 H -0.14044 -0.00769 0.00635
 H182 H 0.13035 -0.00422 0.00166
 C183 C -0.03906 0.46644 0.53556
 C184 C -0.02038 0.49866 0.50527
 C185 C -0.04277 0.53074 0.47898
 C186 C -0.08381 0.53075 0.48278
 C187 C -0.10231 0.49819 0.51288
 C188 C -0.08010 0.46658 0.54004
 C189 C 0.02265 0.49978 0.50193
 C190 C 0.04237 0.46972 0.47022
 C191 C 0.08334 0.47216 0.46557
 C192 C 0.10450 0.50399 0.49398
 C193 C 0.08491 0.53452 0.52531
 C194 C 0.04393 0.53209 0.52940
 H195 H -0.02173 0.44183 0.55613
 H196 H -0.02825 0.55577 0.45576
 H197 H 0.02583 0.44516 0.44850
 H198 H 0.02862 0.55543 0.55379
 H199 H -0.13406 0.49788 0.51566
 H200 H 0.13620 0.50559 0.49097
 C201 C 0.45546 -0.02649 0.52785
 C202 C 0.47615 0.00216 0.49573
 C203 C 0.45570 0.03020 0.46281
 C204 C 0.41455 0.02929 0.46139
 C205 C 0.39397 0.00083 0.49397
 C206 C 0.41428 -0.02692 0.52746
 C207 C 0.51923 0.00299 0.49662
 C208 C 0.54060 -0.02622 0.46571
 C209 C 0.58178 -0.02504 0.46583
 C210 C 0.60138 0.00508 0.49783
 C211 C 0.58014 0.03511 0.52801
 C212 C 0.53900 0.03363 0.52768
 H213 H 0.47135 -0.04828 0.55321
 H214 H 0.47178 0.05266 0.43829
 H215 H 0.52520 -0.04953 0.44132
 H216 H 0.52244 0.05655 0.55123
 H217 H 0.36215 0.00037 0.49335
 H218 H 0.63319 0.00577 0.49855
 C219 C 0.45614 0.46450 0.02591
 C220 C 0.47687 0.49887 0.00075
 C221 C 0.45640 0.53357 -0.02425
 C222 C 0.41522 0.53397 -0.02428
 C223 C 0.39469 0.49936 0.00090
 C224 C 0.41499 0.46460 0.02609
 C225 C 0.52001 0.49819 0.00014
 C226 C 0.53989 0.46457 -0.02709
 C227 C 0.58104 0.46350 -0.02755
 C228 C 0.60220 0.49661 -0.00092
 C229 C 0.58253 0.53044 0.02645
 C230 C 0.54133 0.53092 0.02701
 H231 H 0.47199 0.43779 0.04540
 H232 H 0.47247 0.55995 -0.04398
 H233 H 0.52337 0.43943 -0.04810
 H234 H 0.52589 0.55638 0.04876
 H235 H 0.36287 0.49940 0.00081
 H236 H 0.63401 0.49591 -0.00130
 C237 C 0.09824 -0.07538 -0.10361
 C238 C 0.12166 -0.10352 -0.13271
 C239 C 0.15020 -0.13229 -0.11200
 C240 C 0.15495 -0.13300 -0.06067
 C241 C 0.13079 -0.10466 -0.03098
 C242 C 0.10275 -0.07500 -0.05290
 C243 C 0.13540 -0.10721 0.01989
 N244 N 0.16330 -0.13507 0.03933
 N245 N 0.18680 -0.16057 0.01140
 C246 C 0.18368 -0.16041 -0.03786
 H247 H 0.07702 -0.05284 -0.12092
 H248 H 0.11768 -0.10263 -0.17187
 H249 H 0.11698 -0.08759 0.04440
 H250 H 0.20380 -0.18155 -0.05859
 C251 C 0.10210 0.39348 0.43869
 C252 C 0.12323 0.36299 0.40943
 C253 C 0.14717 0.37941 0.37171
 C254 C 0.14980 0.42775 0.36335
 C255 C 0.12765 0.45872 0.39254
 C256 C 0.10428 0.44133 0.43116
 C257 C 0.12945 0.50627 0.38173
 N258 N 0.15326 0.52166 0.34566
 N259 N 0.17527 0.49278 0.31959
 C260 C 0.17448 0.44647 0.32727
 H261 H 0.08438 0.37966 0.46805
 H262 H 0.12094 0.32618 0.41629
 H263 H 0.11200 0.53135 0.40131
 H264 H 0.19337 0.42491 0.30528
 C265 C 0.59909 -0.10385 0.43805
 C266 C 0.62100 -0.13479 0.41031
 C267 C 0.64905 -0.11893 0.37694
 C268 C 0.65511 -0.07061 0.37158
 C269 C 0.63206 -0.03906 0.39897
 C270 C 0.60441 -0.05602 0.43323
 C271 C 0.63725 0.00860 0.39067
 N272 N 0.66507 0.02341 0.35903
 N273 N 0.68793 -0.00614 0.33501
 C274 C 0.68403 -0.05253 0.34029
 H275 H 0.57810 -0.11738 0.46405
 H276 H 0.61599 -0.17156 0.41485
 H277 H 0.61932 0.03425 0.40869
 H278 H 0.70379 -0.07469 0.32023
 C279 C 0.62566 0.44454 -0.09554
 C280 C 0.64619 0.41363 -0.12488
 C281 C 0.64402 0.36590 -0.11663
 C282 C 0.61993 0.34895 -0.07848
 C283 C 0.59931 0.38049 -0.04824
 C284 C 0.60217 0.42869 -0.05716
 C285 C 0.57700 0.36260 -0.00946
 N286 N 0.57447 0.31622 -0.00281
 N287 N 0.59283 0.28658 -0.03212
 C288 C 0.61539 0.30131 -0.06973
 H289 H 0.62809 0.48126 -0.10285
 H290 H 0.66452 0.42713 -0.15382
 H291 H 0.56171 0.38492 0.01578
 H292 H 0.62931 0.27563 -0.09254
 C293 C -0.12187 0.04285 -0.10309
 C294 C -0.14489 0.07205 -0.13138
 C295 C -0.15802 0.11533 -0.11369
 C296 C -0.14926 0.12679 -0.06390
 C297 C -0.12475 0.09722 -0.03584
 C298 C -0.11116 0.05518 -0.05584
 C299 C -0.11564 0.10983 0.01240
 N300 N -0.13226 0.14786 0.03246
 N301 N -0.15767 0.17368 0.00774
 C302 C -0.16725 0.16407 -0.03915
 H303 H -0.11203 0.01030 -0.11842
 H304 H -0.15010 0.06143 -0.16867
 H305 H -0.09599 0.08936 0.03460
 H306 H -0.18990 0.18482 -0.05579
 C307 C -0.10520 0.56172 0.40320
 C308 C -0.12855 0.58997 0.37414
 C309 C -0.15498 0.62132 0.39504
 C310 C -0.15790 0.62417 0.44652
 C311 C -0.13360 0.59592 0.47614
 C312 C -0.10757 0.56388 0.45409
 C313 C -0.13597 0.60109 0.52703
 N314 N -0.16214 0.63108 0.54669
 N315 N -0.18596 0.65631 0.51894
 C316 C -0.18484 0.65381 0.46963
 H317 H -0.08550 0.53738 0.38579
 H318 H -0.12593 0.58741 0.33489
 H319 H -0.11715 0.58187 0.55141
 H320 H -0.20520 0.67480 0.44911
 C321 C 0.36843 0.09362 0.44637
 C322 C 0.34767 0.12338 0.41597
 C323 C 0.35060 0.11964 0.36523
 C324 C 0.37561 0.08561 0.34473
 C325 C 0.39642 0.05492 0.37570
 C326 C 0.39287 0.05931 0.42698
 C327 C 0.41965 0.02030 0.35410
 N328 N 0.42285 0.01794 0.30492
 N329 N 0.40432 0.04767 0.27592
 C330 C 0.38090 0.08143 0.29409
 H331 H 0.36548 0.09746 0.48547
 H332 H 0.32863 0.14913 0.43220
 H333 H 0.43510 -0.00506 0.37571
 H334 H 0.36689 0.10480 0.26876
 C335 C 0.39901 0.56965 -0.10352
 C336 C 0.37702 0.59896 -0.13303
 C337 C 0.34887 0.62865 -0.11293
 C338 C 0.34304 0.62902 -0.06176
 C339 C 0.36582 0.59953 -0.03162
 C340 C 0.39346 0.56898 -0.05297
 C341 C 0.36027 0.60185 0.01910
 N342 N 0.33271 0.63053 0.03797
 N343 N 0.31043 0.65706 0.00959
 C344 C 0.31453 0.65720 -0.03954
 H345 H 0.41993 0.54643 -0.12042
 H346 H 0.38181 0.59828 -0.17205
 H347 H 0.37771 0.58141 0.04396
 H348 H 0.29533 0.67916 -0.06065
 C349 C -0.13654 -0.10187 0.04831
 C350 C -0.15862 -0.13025 0.07859
 C351 C -0.15411 -0.12889 0.12955
 C352 C -0.12778 -0.09560 0.15003
 C353 C -0.10509 -0.06685 0.11880
 C354 C -0.10930 -0.07065 0.06758
 C355 C -0.08027 -0.03343 0.14002
 N356 N -0.07881 -0.02862 0.18907
 N357 N -0.10094 -0.05435 0.21834
 C358 C -0.12565 -0.08706 0.20062
 H359 H -0.14049 -0.10459 0.00923
 H360 H -0.17831 -0.15492 0.06160
 H361 H -0.06262 -0.01031 0.11822
 H362 H -0.14424 -0.10477 0.22637
 C363 C -0.12626 0.40173 0.55246
 C364 C -0.14771 0.37164 0.58173
 C365 C -0.14379 0.37266 0.63250
 C366 C -0.11768 0.40485 0.65426
 C367 C -0.09590 0.43567 0.62443
 C368 C -0.10027 0.43384 0.57306
 C369 C -0.07149 0.46845 0.64731
 N370 N -0.06880 0.46963 0.69658
 N371 N -0.08912 0.44062 0.72453
 C372 C -0.11357 0.40847 0.70514
 H373 H -0.13018 0.40022 0.51331
 H374 H -0.16777 0.34745 0.56463
 H375 H -0.05484 0.49349 0.62667
 H376 H -0.12982 0.38645 0.72973
 C377 C 0.36924 -0.09262 0.54156
 C378 C 0.34826 -0.12252 0.57158
 C379 C 0.34968 -0.11788 0.62235
 C380 C 0.37213 -0.08156 0.64325
 C381 C 0.39355 -0.05110 0.61263
 C382 C 0.39230 -0.05714 0.56138
 C383 C 0.41465 -0.01467 0.63443
 N384 N 0.41441 -0.00953 0.68354
 N385 N 0.39427 -0.03805 0.71225
 C386 C 0.37301 -0.07368 0.69384
 H387 H 0.36780 -0.09746 0.50245
 H388 H 0.33099 -0.14985 0.55506
 H389 H 0.43091 0.01013 0.61299
 H390 H 0.35665 -0.09505 0.71894
 C391 C 0.39754 0.42934 0.10508
 C392 C 0.37531 0.39977 0.13406
 C393 C 0.34808 0.36932 0.11318
 C394 C 0.34342 0.36837 0.06184
 C395 C 0.36632 0.39825 0.03229
 C396 C 0.39303 0.42953 0.05435
 C397 C 0.36179 0.39561 -0.01858
 N398 N 0.33517 0.36606 -0.03818
 N399 N 0.31287 0.33897 -0.01039
 C400 C 0.31598 0.33919 0.03887
 H401 H 0.41779 0.45312 0.12247
 H402 H 0.37913 0.40092 0.17324
 H403 H 0.37928 0.41651 -0.04297
 H404 H 0.29686 0.31669 0.05947
 C405 C 0.12181 0.04808 0.09430
 C406 C 0.14150 0.07976 0.12365
 C407 C 0.13743 0.12742 0.11604
 C408 C 0.11233 0.14343 0.07843
 C409 C 0.09265 0.11109 0.04803
 C410 C 0.09734 0.06300 0.05643
 C411 C 0.06945 0.12816 0.00963
 N412 N 0.06508 0.17442 0.00360
 N413 N 0.08245 0.20472 0.03316
 C414 C 0.10583 0.19085 0.07037
 H415 H 0.12563 0.01146 0.10126
 H416 H 0.16066 0.06695 0.15212
 H417 H 0.05493 0.10530 -0.01583
 H418 H 0.11887 0.21703 0.09342
 C419 C 0.13455 0.55200 0.58837
 C420 C 0.15644 0.58233 0.61696
 C421 C 0.15200 0.63028 0.61223
 C422 C 0.12555 0.64802 0.57700
 C423 C 0.10326 0.61708 0.54779
 C424 C 0.10755 0.56867 0.55415
 C425 C 0.07818 0.63580 0.51216
 N426 N 0.07546 0.68230 0.50674
 N427 N 0.09632 0.71131 0.53418
 C428 C 0.12137 0.69581 0.56892
 H429 H 0.13838 0.51510 0.59336
 H430 H 0.17670 0.56826 0.64353
 H431 H 0.06109 0.61403 0.48814
 H432 H 0.13808 0.72100 0.58938
 C433 C 0.62364 0.05068 0.59819
 C434 C 0.64471 0.08019 0.62865
 C435 C 0.64422 0.12812 0.62126
 C436 C 0.62124 0.14677 0.58295
 C437 C 0.59994 0.11669 0.55174
 C438 C 0.60122 0.06826 0.55967
 C439 C 0.57856 0.13620 0.51302
 N440 N 0.57769 0.18275 0.50715
 N441 N 0.59685 0.21105 0.53723
 C442 C 0.61851 0.19471 0.57492
 H443 H 0.62492 0.01373 0.60458
 H444 H 0.66218 0.06544 0.65774
 H445 H 0.56263 0.11498 0.48725
 H446 H 0.63317 0.21936 0.59834
 C447 C 0.63056 0.54553 0.09209
 C448 C 0.65198 0.57465 0.12253
 C449 C 0.64858 0.62274 0.11868
 C450 C 0.62373 0.64193 0.08256
 C451 C 0.60214 0.61226 0.05117
 C452 C 0.60523 0.56359 0.05662
 C453 C 0.57902 0.63248 0.01443
 N454 N 0.57720 0.67917 0.01028
 N455 N 0.59717 0.70697 0.04004
 C456 C 0.62046 0.69000 0.07587
 H457 H 0.63340 0.50846 0.09665
 H458 H 0.67108 0.55954 0.14978
 H459 H 0.56281 0.61175 -0.01147
 H460 H 0.63648 0.71424 0.09839
   
