data_POSCAR
  _audit_creation_date              2014-09-24
  _audit_creation_method            'ToBaCCo'
  _symmetry_space_group_name_H-M    'P1'
  _symmetry_Int_Tables_number       1
  _symmetry_cell_setting            triclinic
  loop_
  _symmetry_equiv_pos_as_xyz
 x,y,z
_cell_length_a 20.8781
_cell_length_b 20.9758
_cell_length_c 20.8933
_cell_angle_alpha 90.139200
_cell_angle_beta 90.306400
_cell_angle_gamma 90.085000
loop_
  _atom_site_label
  _atom_site_type_symbol
  _atom_site_fract_x
  _atom_site_fract_y
  _atom_site_fract_z
C1 C 0.53227 0.99967 -0.50665
 C2 C 0.46758 0.99621 -0.50465
 C3 C 0.42656 1.00122 -0.56262
 C4 C 0.43336 0.99352 -0.44315
 C5 C 0.57205 1.00076 -0.44787
 C6 C 0.56806 0.99970 -0.56727
 C7 C 0.37698 1.04608 -0.56343
 C8 C 0.33476 1.04950 -0.61492
 C9 C 0.34221 1.01020 -0.66941
 C10 C 0.39186 0.96417 -0.66743
 C11 C 0.43263 0.95924 -0.61444
 C12 C 0.42556 1.04895 -0.40657
 C13 C 0.38368 1.04907 -0.35482
 C14 C 0.35105 0.99308 -0.33740
 C15 C 0.36078 0.93708 -0.37297
 C16 C 0.40122 0.93751 -0.42593
 C17 C 0.57461 0.94764 -0.40724
 C18 C 0.61839 0.94622 -0.35642
 C19 C 0.66066 0.99747 -0.34646
 C20 C 0.65621 1.05155 -0.38539
 C21 C 0.61232 1.05311 -0.43586
 C22 C 0.59199 0.94186 -0.59058
 C23 C 0.63450 0.94126 -0.64167
 C24 C 0.65715 0.99877 -0.66739
 C25 C 0.63088 1.05665 -0.64608
 C26 C 0.58615 1.05706 -0.59643
 H27 H 0.36967 1.07787 -0.52325
 H28 H 0.29421 1.08115 -0.60992
 H29 H 0.40122 0.93280 -0.70746
 H30 H 0.46814 0.92186 -0.61381
 H31 H 0.44910 1.09284 -0.42036
 H32 H 0.37540 1.09332 -0.32938
 H33 H 0.40626 0.89468 -0.45453
 H34 H 0.54437 0.90656 -0.41625
 H35 H 0.62099 0.90436 -0.32627
 H36 H 0.68822 1.09163 -0.37796
 H37 H 0.61083 1.09464 -0.46646
 H38 H 0.57883 0.89727 -0.56808
 H39 H 0.65269 0.89600 -0.65873
 H40 H 0.64703 1.10150 -0.66592
 H41 H 0.56821 1.10211 -0.57860
 H42 H 0.33567 0.89359 -0.36076
 C43 C -0.46540 1.50071 -0.01677
 C44 C -0.53026 1.50197 -0.01568
 C45 C -0.56957 1.44333 -0.01264
 C46 C -0.56692 1.56239 -0.01685
 C47 C -0.42721 1.55997 -0.01473
 C48 C -0.42805 1.44071 -0.01761
 C49 C -0.57073 1.39917 -0.06326
 C50 C -0.61422 1.34827 -0.06246
 C51 C -0.65653 1.34121 -0.01100
 C52 C -0.65464 1.38476 0.03984
 C53 C -0.61167 1.43559 0.03889
 C54 C -0.61113 1.57263 -0.06658
 C55 C -0.65442 1.62311 -0.06338
 C56 C -0.65449 1.66381 -0.01009
 C57 C -0.60817 1.65569 0.03821
 C58 C -0.56505 1.60481 0.03521
 C59 C -0.40062 1.58032 0.04346
 C60 C -0.35943 1.63276 0.04551
 C61 C -0.34294 1.66561 -0.01096
 C62 C -0.36909 1.64342 -0.06950
 C63 C -0.41169 1.59202 -0.07114
 C64 C -0.43066 1.39761 0.03365
 C65 C -0.38779 1.34641 0.03662
 C66 C -0.34136 1.33836 -0.01117
 C67 C -0.34084 1.37966 -0.06374
 C68 C -0.38365 1.43052 -0.06681
 H69 H -0.53936 1.40518 -0.10392
 H70 H -0.61524 1.31471 -0.10194
 H71 H -0.68699 1.37966 0.07989
 H72 H -0.61183 1.46962 0.07798
 H73 H -0.61367 1.53995 -0.10675
 H74 H -0.68960 1.62891 -0.10120
 H75 H -0.53252 1.59677 0.07485
 H76 H -0.41156 1.55521 0.08732
 H77 H -0.34120 1.64795 0.09171
 H78 H -0.35455 1.66386 -0.11468
 H79 H -0.43045 1.57552 -0.11669
 H80 H -0.46399 1.40511 0.07248
 H81 H -0.38916 1.31448 0.07724
 H82 H -0.30568 1.37385 -0.10124
 H83 H -0.38088 1.46309 -0.10681
 H84 H -0.60734 1.68708 0.07944
 C85 C -0.00766 0.49990 0.46526
 C86 C -0.00659 0.49943 0.53015
 C87 C -0.00083 0.55864 0.56860
 C88 C -0.00875 0.43926 0.56700
 C89 C -0.00698 0.44034 0.42721
 C90 C -0.00488 0.55970 0.42777
 C91 C 0.05491 0.56948 0.60463
 C92 C 0.05882 0.62104 0.64691
 C93 C 0.00724 0.66386 0.65376
 C94 C -0.04902 0.65201 0.61771
 C95 C -0.05290 0.60007 0.57562
 C96 C 0.04664 0.40264 0.57583
 C97 C 0.04626 0.35038 0.61735
 C98 C -0.00992 0.33296 0.65038
 C99 C -0.06525 0.37051 0.64117
 C100 C -0.06458 0.42291 0.59997
 C101 C -0.06378 0.41636 0.40041
 C102 C -0.06177 0.36711 0.35505
 C103 C -0.00257 0.34256 0.33403
 C104 C 0.05378 0.36400 0.36482
 C105 C 0.05160 0.41276 0.41038
 C106 C -0.06110 0.59359 0.41368
 C107 C -0.05961 0.64549 0.37163
 C108 C -0.00199 0.66376 0.34237
 C109 C 0.05402 0.62911 0.35600
 C110 C 0.05267 0.57793 0.39871
 H111 H 0.09490 0.53682 0.60137
 H112 H 0.10135 0.62547 0.67648
 H113 H -0.09004 0.68331 0.62147
 H114 H -0.09720 0.59120 0.54997
 H115 H 0.09069 0.41566 0.55201
 H116 H 0.08994 0.32313 0.62301
 H117 H -0.10719 0.45196 0.59521
 H118 H -0.10939 0.43753 0.41269
 H119 H -0.10629 0.35151 0.33322
 H120 H 0.09989 0.34373 0.35280
 H121 H 0.09593 0.43064 0.43076
 H122 H -0.10639 0.57875 0.43383
 H123 H -0.10358 0.67079 0.36109
 H124 H 0.09865 0.64114 0.33273
 H125 H 0.09622 0.55137 0.40773
 H126 H -0.10837 0.36140 0.66825
 O127 O -0.16123 1.00180 -0.09326
 O128 O 0.16748 0.99775 -0.08739
 O129 O -0.00134 1.08494 -0.16975
 O130 O 0.00964 0.91233 -0.16755
 O131 O 0.00517 0.83489 -0.08913
 O132 O -0.00038 1.16416 -0.09271
 O133 O 0.09157 1.00158 -0.16744
 O134 O -0.08244 0.99807 -0.17028
 Zr135 Zr 0.00371 0.99943 -0.11690
 O136 O 0.06058 0.94153 -0.06097
 O137 O -0.05526 1.05786 -0.06377
 C138 C -0.14180 0.99879 -0.15208
 C139 C 0.15053 1.00121 -0.14691
 C140 C -0.00302 1.14412 -0.15156
 C141 C 0.00924 0.85355 -0.14819
 H142 H 0.08751 1.08538 -0.08862
 O143 O 0.06032 1.05789 -0.06162
 H144 H -0.08102 0.91482 -0.09009
 O145 O -0.05456 0.94249 -0.06219
 O146 O 0.16540 1.00199 0.08410
 O147 O -0.16336 0.99695 0.07997
 O148 O 0.08986 1.16443 -0.00326
 O149 O 0.08862 0.83636 -0.00216
 O150 O -0.08572 0.83617 -0.00398
 O151 O -0.08483 1.16470 -0.00652
 O152 O 0.00236 1.08937 0.15982
 O153 O 0.00143 0.91671 0.16151
 O154 O 0.00484 1.16601 0.08079
 O155 O -0.00075 0.83727 0.08489
 O156 O 0.16667 1.08579 -0.00040
 O157 O -0.16281 1.08648 -0.00776
 O158 O -0.16287 0.91480 -0.00630
 O159 O 0.16647 0.91461 -0.00341
 O160 O 0.08711 1.00708 0.16150
 O161 O -0.08597 0.99968 0.15899
 Zr162 Zr 0.11394 1.00032 -0.00266
 Zr163 Zr -0.11025 1.00056 -0.00582
 Zr164 Zr 0.00218 1.11323 -0.00532
 Zr165 Zr 0.00166 0.88782 -0.00288
 Zr166 Zr 0.00103 1.00221 0.10839
 O167 O -0.05679 0.94313 0.05389
 O168 O 0.05959 1.05934 0.05403
 C169 C 0.14617 1.00618 0.14275
 C170 C -0.14492 0.99590 0.13942
 C171 C 0.14895 1.14491 -0.00030
 C172 C 0.14774 0.85570 -0.00239
 C173 C -0.14475 0.85568 -0.00662
 C174 C -0.14401 1.14546 -0.00678
 C175 C 0.00515 1.14807 0.14021
 C176 C 0.00094 0.85731 0.14383
 H177 H -0.08363 1.08588 0.07958
 O178 O -0.05610 1.05895 0.05229
 H179 H 0.08629 0.91722 0.08286
 O180 O 0.05883 0.94370 0.05494
 C181 C 0.23338 0.95587 0.20276
 C182 C 0.28349 0.95712 0.24671
 C183 C 0.29986 1.01351 0.28043
 C184 C 0.26702 1.07101 0.26283
 C185 C 0.21270 1.06802 0.22194
 C186 C 0.19631 1.00995 0.19187
 C187 C 0.17864 1.12441 0.20919
 N188 N 0.20113 1.18107 0.23100
 N189 N 0.25558 1.18500 0.26410
 C190 C 0.28984 1.13233 0.27956
 H191 H 0.22209 0.91151 0.17840
 H192 H 0.30572 0.91176 0.25711
 H193 H 0.13570 1.12414 0.18021
 H194 H 0.33539 1.13913 0.30341
 C195 C -0.25193 1.02673 0.17969
 C196 C -0.29886 1.02900 0.22680
 C197 C -0.28995 0.99802 0.28551
 C198 C -0.23212 0.96427 0.29692
 C199 C -0.18656 0.95807 0.24729
 C200 C -0.19525 0.99206 0.18910
 C201 C -0.13447 0.91672 0.25746
 N202 N -0.12516 0.88936 0.31545
 N203 N -0.16485 0.90000 0.36389
 C204 C -0.21776 0.93669 0.35676
 H205 H -0.25973 1.05294 0.13571
 H206 H -0.34264 1.05505 0.21727
 H207 H -0.10208 0.90446 0.21963
 H208 H -0.24771 0.94416 0.39810
 C209 C -0.24292 1.03762 -0.19943
 C210 C -0.29047 1.03752 -0.24631
 C211 C -0.28856 0.99402 -0.29714
 C212 C -0.23773 0.94946 -0.30072
 C213 C -0.18994 0.94875 -0.25225
 C214 C -0.19176 0.99465 -0.20223
 C215 C -0.14279 0.90096 -0.25494
 N216 N -0.14161 0.85949 -0.30478
 N217 N -0.18464 0.86220 -0.35191
 C218 C -0.23252 0.90577 -0.35170
 H219 H -0.24550 1.07234 -0.16119
 H220 H -0.32902 1.07189 -0.24309
 H221 H -0.10751 0.89533 -0.21759
 H222 H -0.26584 0.90577 -0.39145
 C223 C 0.19156 0.97832 -0.25561
 C224 C 0.24040 0.97388 -0.30039
 C225 C 0.30264 0.99461 -0.28576
 C226 C 0.31555 1.02120 -0.22467
 C227 C 0.26481 1.02999 -0.18064
 C228 C 0.20283 1.00466 -0.19488
 C229 C 0.27806 1.06569 -0.12486
 N230 N 0.33881 1.08424 -0.11106
 N231 N 0.38733 1.07044 -0.14967
 C232 C 0.37783 1.03943 -0.20588
 H233 H 0.14464 0.96017 -0.26852
 H234 H 0.22928 0.95435 -0.34721
 H235 H 0.24088 1.08116 -0.09313
 H236 H 0.41909 1.02933 -0.23521
 C237 C 0.19225 1.24764 -0.03887
 C238 C 0.23989 1.29393 -0.04354
 C239 C 0.29719 1.28809 -0.00913
 C240 C 0.30700 1.23463 0.03068
 C241 C 0.25841 1.18761 0.03614
 C242 C 0.20044 1.19393 0.00026
 C243 C 0.26934 1.13700 0.07891
 N244 N 0.32543 1.13284 0.11162
 N245 N 0.37151 1.17615 0.10502
 C246 C 0.36420 1.22694 0.06578
 H247 H 0.14881 1.25351 -0.06684
 H248 H 0.23170 1.33514 -0.07364
 H249 H 0.23372 1.10142 0.08813
 H250 H 0.40317 1.26079 0.06238
 C251 C 0.24456 0.80732 -0.04866
 C252 C 0.29220 0.76099 -0.05057
 C253 C 0.29504 0.71293 -0.00419
 C254 C 0.24873 0.71162 0.04530
 C255 C 0.20092 0.75952 0.04787
 C256 C 0.19819 0.80673 -0.00050
 C257 C 0.15797 0.75901 0.09957
 N258 N 0.16090 0.71179 0.14366
 N259 N 0.20397 0.66524 0.13969
 C260 C 0.24777 0.66337 0.09202
 H261 H 0.24322 0.84338 -0.08572
 H262 H 0.32706 0.76241 -0.08878
 H263 H 0.12259 0.79592 0.10582
 H264 H 0.28111 0.62405 0.09114
 C265 C -0.19443 0.75546 0.03077
 C266 C -0.24386 0.71085 0.03163
 C267 C -0.29760 0.71625 -0.00931
 C268 C -0.30133 0.77050 -0.05030
 C269 C -0.24874 0.81328 -0.05411
 C270 C -0.19600 0.80696 -0.01142
 C271 C -0.25065 0.86104 -0.10123
 N272 N -0.30457 0.87038 -0.13629
 N273 N -0.35665 0.83492 -0.12752
 C274 C -0.35717 0.78597 -0.08528
 H275 H -0.15452 0.74969 0.06358
 H276 H -0.23814 0.67024 0.06303
 H277 H -0.20958 0.89039 -0.11107
 H278 H -0.40161 0.76041 -0.07882
 C279 C -0.24193 1.19435 -0.05152
 C280 C -0.28962 1.24069 -0.05247
 C281 C -0.29141 1.28861 -0.00569
 C282 C -0.24402 1.28968 0.04323
 C283 C -0.19607 1.24182 0.04475
 C284 C -0.19439 1.19468 -0.00404
 C285 C -0.15189 1.24233 0.09587
 N286 N -0.15386 1.28942 0.14036
 N287 N -0.19717 1.33583 0.13741
 C288 C -0.24215 1.33771 0.09040
 H289 H -0.24142 1.15858 -0.08889
 H290 H -0.32523 1.23950 -0.09037
 H291 H -0.11633 1.20550 0.10139
 H292 H -0.27574 1.37683 0.09039
 C293 C -0.03911 1.19721 0.23811
 C294 C -0.04281 1.24565 0.28373
 C295 C 0.00014 1.29744 0.28341
 C296 C 0.04558 1.30140 0.23265
 C297 C 0.05012 1.25113 0.18712
 C298 C 0.00682 1.19898 0.18960
 C299 C 0.09835 1.25481 0.14045
 N300 N 0.13581 1.30738 0.13632
 N301 N 0.12818 1.35673 0.17560
 C302 C 0.08409 1.35589 0.22296
 H303 H -0.07310 1.15818 0.24031
 H304 H -0.07818 1.24101 0.32120
 H305 H 0.10738 1.21615 0.10780
 H306 H 0.07878 1.39856 0.25140
 C307 C 0.04347 1.23409 -0.21164
 C308 C 0.04310 1.27793 -0.26169
 C309 C -0.00928 1.28247 -0.30437
 C310 C -0.06089 1.23827 -0.29731
 C311 C -0.06086 1.19475 -0.24524
 C312 C -0.00795 1.19248 -0.20263
 C313 C -0.11416 1.15447 -0.23749
 N314 N -0.16189 1.15424 -0.28167
 N315 N -0.15983 1.19153 -0.33305
 C316 C -0.11088 1.23290 -0.34272
 H317 H 0.08454 1.23245 -0.17974
 H318 H 0.08315 1.31064 -0.26490
 H319 H -0.11832 1.12331 -0.19668
 H320 H -0.11096 1.26002 -0.38659
 C321 C -0.04255 0.76809 -0.21099
 C322 C -0.04411 0.72438 -0.26129
 C323 C 0.00978 0.71407 -0.30041
 C324 C 0.06562 0.75216 -0.28908
 C325 C 0.06732 0.79544 -0.23660
 C326 C 0.01246 0.80392 -0.19817
 C327 C 0.12423 0.82934 -0.22427
 N328 N 0.17458 0.82366 -0.26451
 N329 N 0.17150 0.78698 -0.31649
 C330 C 0.11866 0.75191 -0.33064
 H331 H -0.08503 0.77444 -0.18208
 H332 H -0.08732 0.69635 -0.26747
 H333 H 0.12905 0.86050 -0.18318
 H334 H 0.11834 0.72535 -0.37497
 C335 C -0.03972 0.75744 0.19250
 C336 C -0.04168 0.71200 0.24112
 C337 C -0.00089 0.71635 0.29456
 C338 C 0.04245 0.76838 0.29902
 C339 C 0.04612 0.81332 0.24838
 C340 C 0.00336 0.80865 0.19535
 C341 C 0.09390 0.86061 0.25203
 N342 N 0.13182 0.86528 0.30469
 N343 N 0.12562 0.82556 0.35384
 C344 C 0.08220 0.77747 0.35292
 H345 H -0.07259 0.75284 0.15248
 H346 H -0.07490 0.67249 0.23657
 H347 H 0.10241 0.89317 0.21322
 H348 H 0.07901 0.74713 0.39451
   
