data_POSCAR
  _audit_creation_date              2014-09-24
  _audit_creation_method            'ToBaCCo'
  _symmetry_space_group_name_H-M    'P1'
  _symmetry_Int_Tables_number       1
  _symmetry_cell_setting            triclinic
  loop_
  _symmetry_equiv_pos_as_xyz
 x,y,z
_cell_length_a 30.0211
_cell_length_b 33.3441
_cell_length_c 28.7605
_cell_angle_alpha 90.927100
_cell_angle_beta 88.844300
_cell_angle_gamma 90.470000
loop_
  _atom_site_label
  _atom_site_type_symbol
  _atom_site_fract_x
  _atom_site_fract_y
  _atom_site_fract_z
N1 N 0.07833 0.16056 0.21163
 N2 N 0.09650 0.12743 0.19501
 C3 C 0.09141 0.09841 0.22683
 C4 C 0.07138 0.11527 0.26618
 C5 C 0.06245 0.15437 0.25484
 H6 H 0.10724 0.06939 0.22426
 H7 H 0.04924 0.17773 0.27758
 Cu8 Cu 0.13835 0.12940 0.14199
 Cu9 Cu 0.08460 0.21117 0.18048
 Cu10 Cu 0.18373 0.22476 0.12928
 N11 N 0.19662 0.13922 0.11129
 N12 N 0.21552 0.17517 0.11137
 C13 C 0.25954 0.17111 0.10369
 C14 C 0.26874 0.13077 0.09817
 C15 C 0.22795 0.11141 0.10156
 H16 H 0.28344 0.19550 0.10524
 H17 H 0.22249 0.07939 0.10403
 N18 N 0.14214 0.26896 0.13907
 N19 N 0.10402 0.26357 0.16146
 C20 C 0.08343 0.29888 0.16738
 C21 C 0.10986 0.32794 0.14710
 C22 C 0.14670 0.30811 0.12889
 H23 H 0.05113 0.30294 0.18406
 H24 H 0.17475 0.32115 0.11020
 H25 H 0.13211 0.18789 0.11514
 H26 H 0.15759 0.18176 0.17313
 N27 N -0.16531 0.83176 0.24797
 N28 N -0.20302 0.82918 0.27223
 C29 C -0.19809 0.84790 0.31347
 C30 C -0.15555 0.86365 0.31494
 C31 C -0.13540 0.85285 0.27294
 H32 H -0.22453 0.85209 0.33914
 H33 H -0.10179 0.85989 0.26132
 Cu34 Cu -0.25937 0.81054 0.24550
 Cu35 Cu -0.15832 0.80636 0.18608
 Cu36 Cu -0.25349 0.77747 0.13587
 N37 N -0.31015 0.81392 0.20471
 N38 N -0.30629 0.80523 0.16007
 C39 C -0.34146 0.82037 0.13803
 C40 C -0.36893 0.83915 0.17106
 C41 C -0.34860 0.83334 0.21306
 H42 H -0.34535 0.81972 0.10071
 H43 H -0.35795 0.84658 0.24639
 N44 N -0.19811 0.74836 0.12456
 N45 N -0.16012 0.76101 0.14182
 C46 C -0.12831 0.73368 0.13185
 C47 C -0.14779 0.70187 0.10825
 C48 C -0.19205 0.71219 0.10418
 H49 H -0.09487 0.73478 0.14519
 H50 H -0.21847 0.69364 0.09017
 H51 H -0.22417 0.82821 0.18878
 H52 H -0.21273 0.77655 0.20888
 N53 N -0.17904 0.19117 -0.30297
 N54 N -0.19246 0.15505 -0.29110
 C55 C -0.17821 0.12832 -0.32361
 C56 C -0.15478 0.14899 -0.35774
 C57 C -0.15658 0.18881 -0.34381
 H58 H -0.18154 0.09613 -0.32071
 H59 H -0.13910 0.21375 -0.35964
 Cu60 Cu -0.22104 0.14615 -0.23083
 Cu61 Cu -0.18260 0.23682 -0.25969
 Cu62 Cu -0.18642 0.20713 -0.14521
 N63 N -0.24944 0.14530 -0.16948
 N64 N -0.23358 0.16747 -0.13528
 C65 C -0.25711 0.16013 -0.09608
 C66 C -0.29009 0.13243 -0.10645
 C67 C -0.28433 0.12357 -0.15343
 H68 H -0.25131 0.17488 -0.06296
 H69 H -0.30351 0.10262 -0.17419
 N70 N -0.16168 0.25909 -0.16460
 N71 N -0.16443 0.27177 -0.20768
 C72 C -0.14953 0.30981 -0.20952
 C73 C -0.13632 0.32138 -0.16556
 C74 C -0.14423 0.28854 -0.13785
 H75 H -0.14744 0.32738 -0.24079
 H76 H -0.13928 0.28669 -0.10079
 H77 H -0.16319 0.19585 -0.21356
 H78 H -0.22052 0.21573 -0.20353
 N79 N 0.11104 0.85333 -0.21550
 N80 N 0.13737 0.88451 -0.20864
 C81 C 0.13723 0.90771 -0.24643
 C82 C 0.11075 0.88926 -0.27912
 C83 C 0.09435 0.85500 -0.25849
 H84 H 0.15919 0.93315 -0.25200
 H85 H 0.07464 0.83160 -0.27480
 Cu86 Cu 0.18036 0.88548 -0.15891
 Cu87 Cu 0.10836 0.80944 -0.17153
 Cu88 Cu 0.21609 0.79179 -0.13974
 N89 N 0.23650 0.87584 -0.12938
 N90 N 0.25204 0.83923 -0.12624
 C91 C 0.29521 0.84118 -0.11492
 C92 C 0.30702 0.88117 -0.11010
 C93 C 0.26874 0.90242 -0.11858
 H94 H 0.31651 0.81542 -0.11164
 H95 H 0.26572 0.93460 -0.12138
 N96 N 0.16840 0.75056 -0.13739
 N97 N 0.12643 0.75842 -0.14629
 C98 C 0.10119 0.72577 -0.13803
 C99 C 0.12890 0.69569 -0.12404
 C100 C 0.17123 0.71219 -0.12406
 H101 H 0.06565 0.72377 -0.14329
 H102 H 0.20158 0.69763 -0.11411
 H103 H 0.16068 0.82255 -0.12280
 H104 H 0.17503 0.81604 -0.18600
 N105 N 0.23155 1.16879 0.71459
 N106 N 0.19470 1.18962 0.71191
 C107 C 0.17105 1.17599 0.67549
 C108 C 0.19482 1.14550 0.65369
 C109 C 0.23316 1.14184 0.67923
 H110 H 0.13928 1.18765 0.66520
 H111 H 0.25970 1.12051 0.67327
 Cu112 Cu 0.18265 1.23377 0.75505
 Cu113 Cu 0.27389 1.17787 0.76472
 Cu114 Cu 0.23289 1.23590 0.85755
 N115 N 0.17745 1.27993 0.79692
 N116 N 0.19510 1.27978 0.83839
 C117 C 0.18259 1.31318 0.86210
 C118 C 0.15669 1.33577 0.83333
 C119 C 0.15421 1.31388 0.79225
 H120 H 0.19184 1.32051 0.89741
 H121 H 0.13546 1.32142 0.76193
 N122 N 0.28524 1.20098 0.86200
 N123 N 0.30153 1.17949 0.82672
 C124 C 0.33682 1.15863 0.84136
 C125 C 0.34311 1.16781 0.88793
 C126 C 0.30988 1.19477 0.89974
 H127 H 0.35580 1.13760 0.82009
 H128 H 0.30349 1.20834 0.93359
 H129 H 0.22145 1.18996 0.80799
 H130 H 0.25558 1.23454 0.79102
 N131 N 0.85400 0.84246 0.74239
 N132 N 0.88577 0.81708 0.75180
 C133 C 0.92257 0.82664 0.72653
 C134 C 0.91311 0.85990 0.70026
 C135 C 0.86932 0.86901 0.71111
 H136 H 0.95380 0.81074 0.72727
 H137 H 0.84979 0.89286 0.69694
 Cu138 Cu 0.87505 0.77434 0.79646
 Cu139 Cu 0.79457 0.83830 0.77004
 Cu140 Cu 0.79029 0.78626 0.87296
 N141 N 0.85596 0.73089 0.83729
 N142 N 0.82299 0.73620 0.86754
 C143 C 0.81754 0.70296 0.89288
 C144 C 0.84860 0.67514 0.87771
 C145 C 0.87263 0.69382 0.84241
 H146 H 0.79332 0.69978 0.92095
 H147 H 0.90075 0.68178 0.82285
 N148 N 0.74584 0.82638 0.85714
 N149 N 0.74573 0.84358 0.81615
 C150 C 0.70964 0.86691 0.81374
 C151 C 0.68619 0.86456 0.85537
 C152 C 0.71006 0.83878 0.88235
 H153 H 0.70188 0.88535 0.78444
 H154 H 0.70161 0.82917 0.91719
 H155 H 0.82592 0.82610 0.82954
 H156 H 0.79457 0.78314 0.80319
 N157 N 0.18602 0.80826 1.27567
 N158 N 0.15889 0.77707 1.27533
 C159 C 0.12587 0.78312 1.30703
 C160 C 0.13274 0.81992 1.32852
 C161 C 0.17130 0.83505 1.30793
 H162 H 0.09810 0.76290 1.31305
 H163 H 0.18641 0.86408 1.31455
 Cu164 Cu 0.16705 0.73317 1.23072
 Cu165 Cu 0.23613 0.81323 1.23138
 Cu166 Cu 0.25753 0.72993 1.16058
 N167 N 0.17577 0.68947 1.18585
 N168 N 0.21155 0.68830 1.15877
 C169 C 0.20868 0.65642 1.12965
 C170 C 0.16876 0.63673 1.13864
 C171 C 0.14869 0.65849 1.17455
 H172 H 0.23291 0.64929 1.10250
 H173 H 0.11607 0.65305 1.18990
 N174 N 0.29309 0.77990 1.15758
 N175 N 0.28525 0.81174 1.18432
 C176 C 0.31322 0.84162 1.17122
 C177 C 0.33940 0.82797 1.13414
 C178 C 0.32570 0.78880 1.12653
 H179 H 0.31298 0.87172 1.18579
 H180 H 0.33737 0.76874 1.09908
 H181 H 0.21279 0.77458 1.17973
 H182 H 0.24557 0.75315 1.22780
 N183 N 0.85259 1.14920 1.25367
 N184 N 0.87616 1.18243 1.25852
 C185 C 0.90173 1.17944 1.29642
 C186 C 0.89424 1.14209 1.31564
 C187 C 0.86283 1.12382 1.28776
 H188 H 0.92280 1.20316 1.31000
 H189 H 0.84663 1.09517 1.29350
 Cu190 Cu 0.86862 1.22721 1.21601
 Cu191 Cu 0.80605 1.14369 1.20706
 Cu192 Cu 0.76479 1.23635 1.17806
 N193 N 0.85249 1.27134 1.17541
 N194 N 0.81083 1.27593 1.16334
 C195 C 0.80731 1.30958 1.13853
 C196 C 0.84917 1.32661 1.13360
 C197 C 0.87724 1.30156 1.15739
 H198 H 0.77670 1.32019 1.12396
 H199 H 0.91269 1.30550 1.16198
 N200 N 0.73021 1.18614 1.17204
 N201 N 0.74697 1.15037 1.17942
 C202 C 0.71644 1.12212 1.16804
 C203 C 0.67864 1.14130 1.15322
 C204 C 0.68856 1.18176 1.15631
 H205 H 0.72100 1.09015 1.17134
 H206 H 0.66745 1.20625 1.14659
 H207 H 0.81321 1.19532 1.16619
 H208 H 0.79326 1.20018 1.22783
 O209 O 0.55379 0.97995 0.92230
 O210 O 0.44789 0.96079 1.09223
 O211 O 0.55033 0.93996 1.05813
 O212 O 0.41523 0.99618 0.95629
 O213 O 0.52595 0.97524 1.11398
 O214 O 0.47299 0.97243 0.92179
 O215 O 0.42836 0.95144 1.02196
 O216 O 0.57453 0.94506 0.98008
 C217 C 0.57332 0.95049 0.93763
 C218 C 0.43044 0.93863 1.06193
 C219 C 0.54133 0.94288 1.09974
 C220 C 0.43212 0.97123 0.92866
 O221 O 0.46635 1.05279 0.93521
 O222 O 0.51715 1.05081 1.09227
 O223 O 0.59667 1.02314 0.99156
 O224 O 0.38318 1.01536 1.04212
 O225 O 0.43721 1.04149 1.08370
 O226 O 0.55159 1.05415 0.94330
 O227 O 0.43965 1.05904 1.00453
 O228 O 0.57847 1.01880 1.07540
 Co229 Co 0.50951 1.01377 0.93838
 Co230 Co 0.48367 1.00601 1.08749
 Co231 Co 0.56893 0.98331 1.02595
 Co232 Co 0.43664 1.00469 1.01451
 O233 O 0.50286 1.00056 1.01290
 C234 C 0.44497 1.07287 0.96514
 C235 C 0.55874 1.04957 1.09143
 C236 C 0.58865 1.05101 0.96322
 C237 C 0.39546 1.03819 1.07736
 O238 O 0.00803 0.46075 0.08566
 O239 O 0.04710 0.53687 -0.08512
 O240 O 0.05881 0.43162 -0.04874
 O241 O 0.05093 0.55864 0.01593
 O242 O 0.03648 0.46641 -0.10573
 O243 O 0.02981 0.53226 0.07983
 O244 O 0.01290 0.58474 -0.05097
 O245 O 0.05197 0.43866 0.03300
 C246 C 0.04267 0.44289 0.07451
 C247 C 0.04444 0.57326 -0.07654
 C248 C 0.06170 0.44086 -0.09009
 C249 C 0.05916 0.55042 0.05649
 O250 O -0.05749 0.54716 0.06056
 O251 O -0.04820 0.47119 -0.10020
 O252 O -0.03696 0.42063 0.02957
 O253 O -0.06406 0.55563 -0.01992
 O254 O -0.04326 0.54567 -0.09028
 O255 O -0.07121 0.47455 0.05499
 O256 O -0.02073 0.59927 0.03392
 O257 O -0.02887 0.41848 -0.05870
 Co258 Co -0.02025 0.50346 0.06198
 Co259 Co -0.00208 0.50504 -0.08755
 Co260 Co 0.00961 0.43340 -0.01085
 Co261 Co -0.00620 0.55522 -0.00105
 O262 O -0.00286 0.49654 -0.01301
 C263 C -0.05089 0.58488 0.06282
 C264 C -0.05134 0.43439 -0.09077
 C265 C -0.07003 0.43716 0.04962
 C266 C -0.07174 0.55858 -0.06163
 O267 O 1.09957 0.02825 0.43885
 O268 O 0.93752 0.02431 0.55241
 O269 O 0.99152 0.03960 0.42010
 O270 O 1.06951 0.06436 0.55141
 O271 O 0.93545 0.03327 0.46663
 O272 O 1.12071 0.02723 0.52175
 O273 O 0.99154 0.06407 0.55211
 O274 O 1.05435 -0.00224 0.39337
 C275 C 1.08064 0.02624 0.40076
 C276 C 0.95129 0.05909 0.55678
 C277 C 0.95527 0.05235 0.43503
 C278 C 1.10949 0.05821 0.54336
 O279 O 1.10425 -0.04755 0.52873
 O280 O 0.94670 -0.04745 0.45744
 O281 O 1.02100 -0.06512 0.43577
 O282 O 0.99133 -0.01230 0.59324
 O283 O 0.96038 -0.05078 0.54073
 O284 O 1.09100 -0.05210 0.44130
 O285 O 1.07263 -0.01088 0.58546
 O286 O 0.96781 -0.02813 0.38765
 Co287 Co 1.09645 -0.01017 0.48315
 Co288 Co 0.95220 -0.00883 0.50325
 Co289 Co 1.00627 -0.01175 0.43152
 Co290 Co 1.02993 0.02426 0.56484
 O291 O 1.02495 0.00028 0.49722
 C292 C 1.09541 -0.04095 0.57136
 C293 C 0.93768 -0.04562 0.41447
 C294 C 1.06031 -0.07605 0.43077
 C295 C 0.97436 -0.04566 0.58108
 N296 N 1.07325 0.09818 0.38741
 N297 N 1.06614 0.12269 0.34966
 C298 C 1.07093 0.09987 0.31081
 C299 C 1.07978 0.06054 0.32264
 C300 C 1.08109 0.06094 0.37073
 H301 H 1.08399 0.03488 0.29949
 H302 H 1.06936 0.10697 0.42227
 H303 H 1.06031 0.15348 0.35216
 N304 N 0.86816 -0.08536 0.42179
 N305 N 0.84384 -0.10956 0.39577
 C306 C 0.86240 -0.11153 0.35280
 C307 C 0.89997 -0.08710 0.35105
 C308 C 0.90224 -0.07105 0.39567
 H309 H 0.92282 -0.08246 0.32202
 H310 H 0.86172 -0.07935 0.45701
 H311 H 0.81557 -0.12499 0.40776
 N312 N 0.93110 0.13087 0.55701
 N313 N 0.90250 0.15469 0.57900
 C314 C 0.87505 0.13219 0.60577
 C315 C 0.88603 0.09207 0.59964
 C316 C 0.92213 0.09277 0.56892
 H317 H 0.87278 0.06657 0.61833
 H318 H 0.95738 0.14080 0.53566
 H319 H 0.90357 0.18594 0.57744
 N320 N 1.11447 -0.10938 0.59672
 N321 N 1.11540 -0.12844 0.63662
 C322 C 1.11046 -0.10133 0.67150
 C323 C 1.10630 -0.06358 0.65345
 C324 C 1.10846 -0.07002 0.60587
 H325 H 1.09992 -0.03575 0.67224
 H326 H 1.11530 -0.12347 0.56401
 H327 H 1.11895 -0.15940 0.63973
 N328 N 0.38284 1.10611 1.10910
 N329 N 0.34795 1.13330 1.11075
 C330 C 0.31070 1.11329 1.09866
 C331 C 0.32083 1.07340 1.08858
 C332 C 0.36640 1.07037 1.09487
 H333 H 0.29859 1.05033 1.07544
 H334 H 0.41632 1.11380 1.11340
 H335 H 0.35112 1.16351 1.12033
 N336 N 0.42268 0.90114 0.90181
 N337 N 0.38707 0.87501 0.89409
 C338 C 0.34949 0.89681 0.89678
 C339 C 0.35990 0.93663 0.90668
 C340 C 0.40582 0.93794 0.90988
 H341 H 0.33699 0.96111 0.91305
 H342 H 0.45585 0.89248 0.90478
 H343 H 0.39003 0.84430 0.88722
 N344 N 0.54670 0.91337 1.17802
 N345 N 0.57254 0.88403 1.19814
 C346 C 0.59566 0.86511 1.16367
 C347 C 0.58418 0.88086 1.12119
 C348 C 0.55454 0.91161 1.13184
 H349 H 0.59939 0.87426 1.08752
 H350 H 0.52826 0.93502 1.19645
 H351 H 0.57543 0.88027 1.23391
 N352 N 0.64390 1.10085 0.99042
 N353 N 0.67810 1.12380 0.97075
 C354 C 0.67816 1.11678 0.92444
 C355 C 0.64369 1.09040 0.91345
 C356 C 0.62331 1.08126 0.95565
 H357 H 0.63572 1.07796 0.87961
 H358 H 0.63692 1.09867 1.02597
 H359 H 0.70052 1.14137 0.98966
 N360 N 0.05618 0.42197 0.15504
 N361 N 0.07425 0.39070 0.17469
 C362 C 0.09766 0.36995 0.14209
 C363 C 0.09494 0.38902 0.09996
 C364 C 0.06737 0.42134 0.10947
 H365 H 0.10499 0.37725 0.06608
 H366 H 0.03323 0.44101 0.17171
 H367 H 0.06746 0.38195 0.20884
 N368 N -0.10254 0.42401 -0.15630
 N369 N -0.12430 0.39423 -0.17653
 C370 C -0.11858 0.36081 -0.15183
 C371 C -0.09196 0.36957 -0.11404
 C372 C -0.08225 0.41006 -0.11852
 H373 H -0.07984 0.34916 -0.08839
 H374 H -0.10068 0.45313 -0.16911
 H375 H -0.14230 0.39685 -0.20702
 N376 N 0.12053 0.59026 -0.10545
 N377 N 0.14334 0.62280 -0.11680
 C378 C 0.11605 0.65454 -0.11280
 C379 C 0.07425 0.64197 -0.09780
 C380 C 0.07864 0.60104 -0.09353
 H381 H 0.04498 0.65999 -0.09080
 H382 H 0.13371 0.56136 -0.10520
 H383 H 0.17677 0.62302 -0.12759
 N384 N -0.12627 0.59690 0.09611
 N385 N -0.15246 0.62761 0.10583
 C386 C -0.12893 0.66175 0.10020
 C387 C -0.08565 0.65245 0.08611
 C388 C -0.08557 0.61082 0.08361
 H389 H -0.05891 0.67296 0.07686
 H390 H -0.13681 0.56696 0.09619
 H391 H -0.18597 0.62506 0.11595
 N392 N 1.18824 0.07765 0.55634
 N393 N 1.21084 0.09977 0.58634
 C394 C 1.18191 0.12119 0.61283
 C395 C 1.13881 0.11263 0.59873
 C396 C 1.14434 0.08436 0.56312
 H397 H 1.10790 0.12248 0.61504
 H398 H 1.20267 0.05663 0.53345
 H399 H 1.24540 0.09895 0.58960
 N400 N 0.99659 -0.10946 0.61703
 N401 N 0.98078 -0.13432 0.64879
 C402 C 0.94244 -0.11933 0.66661
 C403 C 0.93377 -0.08308 0.64567
 C404 C 0.96909 -0.07793 0.61472
 H405 H 0.90520 -0.06385 0.65104
 H406 H 1.02495 -0.11467 0.59634
 H407 H 0.99534 -0.16163 0.65681
 N408 N 1.04141 -0.14421 0.39962
 N409 N 1.06070 -0.17173 0.37259
 C410 C 1.10269 -0.15964 0.36229
 C411 C 1.11069 -0.12317 0.38436
 C412 C 1.07093 -0.11438 0.40747
 H413 H 1.14019 -0.10442 0.38157
 H414 H 1.00819 -0.14533 0.41109
 H415 H 1.04460 -0.19743 0.35996
 N416 N 0.90046 0.10816 0.43246
 N417 N 0.88494 0.13248 0.40081
 C418 C 0.90881 0.12757 0.36097
 C419 C 0.94111 0.09884 0.36763
 C420 C 0.93463 0.08725 0.41349
 H421 H 0.96311 0.08539 0.34159
 H422 H 0.88632 0.10455 0.46563
 H423 H 0.85666 0.15023 0.40558
 N424 N 0.09578 0.42736 -0.16800
 N425 N 0.12020 0.39918 -0.18843
 C426 C 0.13398 0.37379 -0.15586
 C427 C 0.11789 0.38651 -0.11258
 C428 C 0.09325 0.42036 -0.12200
 H429 H 0.12021 0.37122 -0.07981
 H430 H 0.07920 0.44969 -0.18575
 H431 H 0.12584 0.39666 -0.22431
 N432 N -0.14730 0.42290 0.07919
 N433 N -0.16841 0.39364 0.10127
 C434 C -0.13952 0.36369 0.10842
 C435 C -0.09838 0.37405 0.08931
 C436 C -0.10485 0.41177 0.07097
 H437 H -0.06784 0.35704 0.08967
 H438 H -0.16176 0.45002 0.07024
 H439 H -0.20178 0.39469 0.11216
 N440 N -0.14527 0.59020 -0.04861
 N441 N -0.16611 0.62179 -0.06430
 C442 C -0.14316 0.63592 -0.10141
 C443 C -0.10673 0.61156 -0.11048
 C444 C -0.10905 0.58322 -0.07579
 H445 H -0.07942 0.61678 -0.13484
 H446 H -0.15405 0.57552 -0.01790
 H447 H -0.19385 0.63481 -0.04782
 N448 N 0.14024 0.56346 0.05187
 N449 N 0.16931 0.58684 0.07328
 C450 C 0.14938 0.60333 0.11130
 C451 C 0.10590 0.58892 0.11482
 C452 C 0.10145 0.56395 0.07617
 H453 H 0.07978 0.59890 0.13868
 H454 H 0.14612 0.54944 0.01961
 H455 H 0.20125 0.59322 0.06024
 N456 N 0.40579 1.13618 0.98530
 N457 N 0.37830 1.16089 0.96510
 C458 C 0.37556 1.15052 0.91975
 C459 C 0.40334 1.11811 0.91051
 C460 C 0.42153 1.10974 0.95326
 H461 H 0.40640 1.10068 0.87855
 H462 H 0.41187 1.13630 1.02092
 H463 H 0.36024 1.18320 0.98281
 N464 N 0.40695 0.86902 1.04201
 N465 N 0.38322 0.83984 1.06108
 C466 C 0.37071 0.85123 1.10456
 C467 C 0.38808 0.88922 1.11391
 C468 C 0.41079 0.89935 1.07316
 H469 H 0.38268 0.90778 1.14469
 H470 H 0.41921 0.86851 1.00775
 H471 H 0.37422 0.81338 1.04364
 N472 N 0.56650 1.11996 1.11966
 N473 N 0.59801 1.14413 1.13540
 C474 C 0.63624 1.12345 1.13782
 C475 C 0.62880 1.08425 1.12271
 C476 C 0.58406 1.08346 1.11127
 H477 H 0.65260 1.06011 1.11956
 H478 H 0.53371 1.12864 1.11408
 H479 H 0.59317 1.17429 1.14430
 N480 N 0.58917 0.92542 0.85786
 N481 N 0.61917 0.90307 0.83598
 C482 C 0.64538 0.88649 0.86771
 C483 C 0.63111 0.89833 0.91203
 C484 C 0.59570 0.92358 0.90398
 H485 H 0.64679 0.89258 0.94479
 H486 H 0.56592 0.94305 0.84119
 H487 H 0.62249 0.90055 0.79983
   
