data_POSCAR
  _audit_creation_date              2014-09-24
  _audit_creation_method            'ToBaCCo'
  _symmetry_space_group_name_H-M    'P1'
  _symmetry_Int_Tables_number       1
  _symmetry_cell_setting            triclinic
  loop_
  _symmetry_equiv_pos_as_xyz
 x,y,z
_cell_length_a 28.8629
_cell_length_b 28.8636
_cell_length_c 28.9259
_cell_angle_alpha 95.958900
_cell_angle_beta 83.919400
_cell_angle_gamma 98.937300
loop_
  _atom_site_label
  _atom_site_type_symbol
  _atom_site_fract_x
  _atom_site_fract_y
  _atom_site_fract_z
O1 O 0.57329 0.52891 0.04356
 O2 O 0.44595 0.51835 0.03451
 O3 O 0.50431 0.45937 0.04282
 O4 O 0.51587 0.58701 0.03207
 O5 O 0.52805 0.57371 -0.04462
 O6 O 0.51628 0.44662 -0.03392
 O7 O 0.45781 0.50548 -0.04222
 O8 O 0.58567 0.51581 -0.03314
 Cu9 Cu 0.50855 0.52463 0.04598
 Cu10 Cu 0.52307 0.50901 -0.04621
 C11 C 0.60098 0.52410 0.00691
 C12 C 0.43035 0.51063 -0.00534
 C13 C 0.50882 0.43152 0.00619
 C14 C 0.52390 0.60181 -0.00824
 O15 O -0.05249 0.54511 0.52311
 O16 O -0.04136 0.41921 0.51499
 O17 O -0.04082 0.48592 0.58211
 O18 O -0.05003 0.47825 0.45517
 O19 O 0.02738 0.49595 0.44326
 O20 O 0.03654 0.50387 0.56962
 O21 O 0.03607 0.43676 0.50294
 O22 O 0.02484 0.56307 0.51082
 Cu23 Cu -0.05400 0.48051 0.52001
 Cu24 Cu 0.03898 0.50183 0.50538
 C25 C -0.01586 0.57536 0.51822
 C26 C -0.00080 0.40673 0.50809
 C27 C -0.00036 0.49554 0.59714
 C28 C -0.01277 0.48570 0.42781
 O29 O 0.49667 0.02822 0.55681
 O30 O 0.50368 0.03550 0.43008
 O31 O 0.43723 0.03687 0.49745
 O32 O 0.56312 0.02396 0.48862
 O33 O 0.54411 -0.05334 0.47773
 O34 O 0.41862 -0.04052 0.48679
 O35 O 0.48468 -0.04181 0.41899
 O36 O 0.47791 -0.04913 0.54628
 Cu37 Cu 0.50221 0.03891 0.49438
 Cu38 Cu 0.47961 -0.05402 0.48142
 C39 C 0.48603 -0.01160 0.57303
 C40 C 0.49468 -0.00168 0.40319
 C41 C 0.40674 0.00030 0.49315
 C42 C 0.57481 -0.01700 0.48176
 C43 C 0.50746 -0.08006 -0.10465
 C44 C 0.49672 -0.03643 -0.11337
 C45 C 0.49349 -0.00080 -0.07677
 C46 C 0.50312 -0.00779 -0.03121
 C47 C 0.51560 -0.05173 -0.02383
 C48 C 0.51636 -0.08788 -0.05988
 C49 C 0.50004 0.02996 0.00848
 C50 C 0.49292 0.01832 0.05528
 C51 C 0.49259 0.05340 0.09245
 C52 C 0.49644 0.10052 0.08368
 C53 C 0.50176 0.11284 0.03779
 C54 C 0.50465 0.07803 0.00040
 H55 H 0.50873 -0.10800 -0.13271
 H56 H 0.48306 0.03184 -0.08425
 H57 H 0.52486 -0.05856 0.00981
 H58 H 0.48756 -0.01790 0.06355
 H59 H 0.49547 0.12763 0.11256
 H60 H 0.51102 0.08900 -0.03461
 C61 C -0.08137 0.50690 1.10242
 C62 C -0.08843 0.51612 1.05752
 C63 C -0.05154 0.51612 1.02205
 C64 C -0.00759 0.50409 1.03016
 C65 C -0.00142 0.49414 1.07581
 C66 C -0.03780 0.49660 1.11181
 C67 C 0.03099 0.50165 0.99114
 C68 C 0.07887 0.50661 1.00003
 C69 C 0.11438 0.50410 0.96315
 C70 C 0.10291 0.49883 0.91700
 C71 C 0.05600 0.49463 0.90749
 C72 C 0.02028 0.49459 0.94412
 H73 H -0.10983 0.50763 1.13005
 H74 H -0.05779 0.52559 0.98830
 H75 H 0.03117 0.48403 1.08381
 H76 H 0.08913 0.51291 1.03527
 H77 H 0.13051 0.49813 0.88850
 H78 H -0.01574 0.48892 0.93524
 C79 C -0.10720 -0.10947 0.49981
 C80 C -0.06235 -0.11669 0.50874
 C81 C -0.02559 -0.07880 0.51033
 C82 C -0.03241 -0.03345 0.50049
 C83 C -0.07782 -0.02737 0.49030
 C84 C -0.11510 -0.06473 0.49122
 C85 C 0.00737 0.00703 0.50080
 C86 C -0.00151 0.05426 0.50683
 C87 C 0.03564 0.09179 0.50574
 C88 C 0.08214 0.08298 0.50115
 C89 C 0.09179 0.03678 0.49639
 C90 C 0.05488 -0.00094 0.49495
 H91 H -0.13590 -0.13859 0.49957
 H92 H 0.00801 -0.08532 0.51951
 H93 H -0.08485 0.00614 0.48135
 H94 H -0.03701 0.06258 0.51268
 H95 H 0.11084 0.11212 0.50127
 H96 H 0.06389 -0.03616 0.48894
 C97 C -0.34958 0.52726 1.01121
 C98 C -0.30839 0.52906 1.01612
 C99 C -0.26063 0.52991 1.02318
 C100 C -0.22031 0.52934 1.03013
 C101 C -0.17370 0.52689 1.03913
 C102 C -0.13448 0.52305 1.04733
 C103 C 0.38348 0.50876 0.99147
 C104 C 0.34192 0.50795 0.98892
 C105 C 0.29337 0.50765 0.98581
 C106 C 0.25204 0.50755 0.98260
 C107 C 0.20382 0.50721 0.97770
 C108 C 0.16287 0.50632 0.97209
 C109 C -0.02055 -0.37833 0.52018
 C110 C -0.02555 -0.33750 0.52118
 C111 C -0.03229 -0.29002 0.52131
 C112 C -0.03863 -0.24980 0.52041
 C113 C -0.04659 -0.20306 0.51799
 C114 C -0.05369 -0.16350 0.51461
 C115 C 0.00342 0.35777 0.50710
 C116 C 0.00675 0.31667 0.50715
 C117 C 0.01080 0.26864 0.50778
 C118 C 0.01478 0.22776 0.50833
 C119 C 0.02044 0.18009 0.50856
 C120 C 0.02651 0.13964 0.50794
 C121 C 0.48390 -0.01400 -0.38013
 C122 C 0.48280 -0.01576 -0.33854
 C123 C 0.48265 -0.01785 -0.28995
 C124 C 0.48367 -0.02014 -0.24869
 C125 C 0.48638 -0.02393 -0.20079
 C126 C 0.49018 -0.02860 -0.16048
 C127 C 0.49456 0.00223 0.35417
 C128 C 0.49363 0.00709 0.31341
 C129 C 0.49210 0.01440 0.26612
 C130 C 0.49091 0.02185 0.22607
 C131 C 0.49012 0.03183 0.17943
 C132 C 0.49045 0.04125 0.13975
 C133 C 0.52749 -0.34885 -0.01316
 C134 C 0.52956 -0.30773 -0.01855
 C135 C 0.53061 -0.26008 -0.02605
 C136 C 0.53009 -0.21982 -0.03324
 C137 C 0.52758 -0.17326 -0.04230
 C138 C 0.52358 -0.13402 -0.05031
 C139 C 0.50647 0.38206 0.01011
 C140 C 0.50549 0.34055 0.01299
 C141 C 0.50506 0.29204 0.01631
 C142 C 0.50492 0.25072 0.01956
 C143 C 0.50460 0.20249 0.02429
 C144 C 0.50379 0.16149 0.02956
 C145 C -0.37641 -0.02258 0.47938
 C146 C -0.33573 -0.02809 0.47825
 C147 C -0.28840 -0.03528 0.47806
 C148 C -0.24828 -0.04185 0.47900
 C149 C -0.20160 -0.04983 0.48154
 C150 C -0.16202 -0.05670 0.48510
 C151 C 0.35792 0.00511 0.49444
 C152 C 0.31691 0.00883 0.49460
 C153 C 0.26895 0.01316 0.49417
 C154 C 0.22810 0.01722 0.49374
 C155 C 0.18041 0.02272 0.49359
 C156 C 0.13987 0.02843 0.49423
 C157 C -0.01595 0.48317 1.37843
 C158 C -0.01807 0.48199 1.33693
 C159 C -0.02040 0.48184 1.28841
 C160 C -0.02274 0.48294 1.24720
 C161 C -0.02636 0.48583 1.19934
 C162 C -0.03069 0.48982 1.15901
 C163 C 0.00425 0.49573 0.64602
 C164 C 0.00965 0.49503 0.68666
 C165 C 0.01750 0.49371 0.73378
 C166 C 0.02527 0.49266 0.77373
 C167 C 0.03536 0.49201 0.82029
 C168 C 0.04457 0.49243 0.86001
   
