data_POSCAR
  _audit_creation_date              2014-09-24
  _audit_creation_method            'ToBaCCo'
  _symmetry_space_group_name_H-M    'P1'
  _symmetry_Int_Tables_number       1
  _symmetry_cell_setting            triclinic
  loop_
  _symmetry_equiv_pos_as_xyz
 x,y,z
_cell_length_a 46.6709
_cell_length_b 46.7011
_cell_length_c 46.5956
_cell_angle_alpha 89.891500
_cell_angle_beta 90.060000
_cell_angle_gamma 90.088500
loop_
  _atom_site_label
  _atom_site_type_symbol
  _atom_site_fract_x
  _atom_site_fract_y
  _atom_site_fract_z
N1 N 0.17620 0.17535 0.17428
 N2 N -0.17522 0.82392 0.17618
 N3 N -0.17425 0.17532 -0.17732
 N4 N 0.17484 0.82466 -0.17401
 N5 N 0.17609 1.17637 0.82395
 N6 N 0.82405 0.82412 0.82416
 N7 N 0.17558 0.82488 1.17475
 N8 N 0.82409 1.17623 1.17581
 N9 N 0.53139 1.05043 0.96807
 N10 N 0.55397 1.06719 0.96505
 N11 N 0.47062 1.03066 0.94846
 N12 N 0.44811 1.03354 0.93153
 N13 N 0.47108 1.05095 0.96794
 N14 N 0.44902 1.06829 0.96463
 N15 N 0.53097 1.03066 0.94808
 N16 N 0.55316 1.03359 0.93076
 C17 C 0.56729 1.05651 0.94160
 C18 C 0.43490 1.05719 0.94180
 N19 N 0.47054 0.94941 0.96925
 N20 N 0.44799 0.93251 0.96673
 N21 N 0.53074 0.96894 0.94870
 N22 N 0.55284 0.96557 0.93137
 N23 N 0.53104 0.94954 0.96913
 N24 N 0.55351 0.93264 0.96644
 N25 N 0.47056 0.96896 0.94896
 N26 N 0.44819 0.96571 0.93192
 Mn27 Mn 0.50070 0.99982 0.94818
 C28 C 0.43433 0.94285 0.94326
 C29 C 0.56683 0.94281 0.94271
 N30 N 0.47111 1.05151 1.02981
 N31 N 0.44889 1.06875 1.03265
 N32 N 0.53109 1.03149 1.05010
 N33 N 0.55328 1.03466 1.06740
 N34 N 0.53146 1.05101 1.02979
 N35 N 0.55400 1.06787 1.03261
 N36 N 0.47076 1.03158 1.04970
 N37 N 0.44820 1.03454 1.06647
 Mn38 Mn 0.50128 1.05134 0.99889
 C39 C 0.43483 1.05790 1.05566
 C40 C 0.56736 1.05749 1.05624
 N41 N 0.53109 0.95006 1.03080
 N42 N 0.55356 0.93321 1.03381
 N43 N 0.47049 0.97006 1.05040
 N44 N 0.44791 0.96738 1.06723
 N45 N 0.47077 0.94979 1.03093
 N46 N 0.44850 0.93263 1.03413
 N47 N 0.53085 0.96982 1.05079
 N48 N 0.55306 0.96681 1.06810
 Mn49 Mn 0.50088 0.94934 1.00002
 Mn50 Mn 0.50078 1.00075 1.05061
 Cl51 Cl 0.50091 1.00031 0.99942
 C52 C 0.56700 0.94384 1.05725
 C53 C 0.43446 0.94384 1.05690
 N54 N 0.03053 0.46997 0.05058
 N55 N 0.03359 0.44768 0.06777
 N56 N 0.05047 0.53024 0.03036
 N57 N 0.06746 0.55268 0.03315
 N58 N 0.03074 0.53016 0.05042
 N59 N 0.03394 0.55240 0.06757
 N60 N 0.05022 0.46983 0.03048
 N61 N 0.06705 0.44732 0.03329
 C62 C 0.05651 0.43377 0.05673
 C63 C 0.05697 0.56624 0.05655
 N64 N 0.03058 0.53059 -0.05101
 N65 N 0.03348 0.55315 -0.06786
 N66 N 0.05032 0.46992 -0.03117
 N67 N 0.06713 0.44740 -0.03396
 N68 N 0.03072 0.47026 -0.05138
 N69 N 0.03379 0.44807 -0.06862
 N70 N 0.05070 0.53020 -0.03133
 N71 N 0.06803 0.55235 -0.03440
 Mn72 Mn 0.05079 0.50003 -0.00040
 C73 C 0.05703 0.56646 -0.05731
 C74 C 0.05665 0.43403 -0.05750
 N75 N -0.03098 0.53028 0.05013
 N76 N -0.03383 0.55274 0.06702
 N77 N -0.05087 0.46970 0.03025
 N78 N -0.06820 0.44758 0.03357
 N79 N -0.03127 0.47004 0.05049
 N80 N -0.03490 0.44831 0.06828
 N81 N -0.05113 0.53000 0.03043
 N82 N -0.06836 0.55217 0.03355
 Mn83 Mn -0.00025 0.50012 0.05077
 C84 C -0.05732 0.56613 0.05650
 C85 C -0.05802 0.43448 0.05744
 N86 N -0.03090 0.47006 -0.05132
 N87 N -0.03359 0.44763 -0.06830
 N88 N -0.05116 0.53014 -0.03147
 N89 N -0.06845 0.55226 -0.03465
 N90 N -0.03098 0.53051 -0.05108
 N91 N -0.03379 0.55308 -0.06793
 N92 N -0.05096 0.46998 -0.03160
 N93 N -0.06802 0.44764 -0.03480
 Mn94 Mn -0.00016 0.50037 -0.05156
 Mn95 Mn -0.05140 0.49993 -0.00059
 Cl96 Cl -0.00026 0.50011 -0.00044
 C97 C -0.05693 0.43392 -0.05783
 C98 C -0.05734 0.56636 -0.05752
 N99 N 0.94953 0.03063 0.52954
 N100 N 0.93268 0.03366 0.55206
 N101 N 0.96952 0.04996 0.46863
 N102 N 0.96714 0.06626 0.44559
 N103 N 0.94930 0.03040 0.46907
 N104 N 0.93243 0.03304 0.44646
 N105 N 0.96921 0.05073 0.52907
 N106 N 0.96613 0.06815 0.55112
 C107 C 0.94322 0.05725 0.56524
 C108 C 0.94379 0.05557 0.43205
 N109 N 1.05109 0.03019 0.46930
 N110 N 1.06837 0.03317 0.44707
 N111 N 1.03083 0.05046 0.52944
 N112 N 1.03366 0.06759 0.55176
 N113 N 1.05083 0.03072 0.52961
 N114 N 1.06798 0.03406 0.55189
 N115 N 1.03105 0.04988 0.46889
 N116 N 1.03399 0.06663 0.44624
 Mn117 Mn 1.00016 0.05062 0.49899
 C118 C 1.05743 0.05603 0.43290
 C119 C 1.05702 0.05718 0.56550
 N120 N 0.94929 -0.03118 0.46948
 N121 N 0.93225 -0.03419 0.44705
 N122 N 0.96899 -0.05105 0.52999
 N123 N 0.96570 -0.06825 0.55226
 N124 N 0.94941 -0.03089 0.53007
 N125 N 0.93248 -0.03361 0.55259
 N126 N 0.96895 -0.05126 0.46974
 N127 N 0.96563 -0.06865 0.44769
 Mn128 Mn 0.94901 -0.00027 0.49956
 C129 C 0.94263 -0.05774 0.43374
 C130 C 0.94282 -0.05710 0.56615
 N131 N 1.05048 -0.03095 0.53029
 N132 N 1.06737 -0.03376 0.55284
 N133 N 1.03067 -0.05115 0.46968
 N134 N 1.03353 -0.06813 0.44726
 N135 N 1.05086 -0.03153 0.46988
 N136 N 1.06814 -0.03480 0.44772
 N137 N 1.03078 -0.05106 0.53010
 N138 N 1.03389 -0.06823 0.55242
 Mn139 Mn 1.05118 -0.00041 0.49979
 Mn140 Mn 0.99986 -0.05149 0.49987
 Cl141 Cl 1.00005 -0.00039 0.49955
 C142 C 1.05684 -0.05719 0.56639
 C143 C 1.05708 -0.05776 0.43383
 C144 C 1.13964 0.13902 0.24990
 C145 C 1.14511 0.16863 0.24808
 C146 C 1.15678 0.18055 0.22317
 C147 C 1.16369 0.16310 0.19974
 C148 C 1.15852 0.13357 0.20146
 C149 C 1.14639 0.12166 0.22617
 C150 C 1.12709 0.12633 0.27645
 C151 C 1.13503 0.09876 0.28568
 C152 C 1.12334 0.08694 0.31065
 C153 C 1.10374 0.10254 0.32735
 C154 C 1.09588 0.13014 0.31816
 C155 C 1.10720 0.14177 0.29295
 C156 C 1.09170 0.09022 0.35430
 C157 C 1.06350 0.09656 0.36286
 C158 C 1.05246 0.08558 0.38849
 C159 C 1.06917 0.06760 0.40588
 C160 C 1.09712 0.06080 0.39726
 C161 C 1.10837 0.07219 0.37189
 H162 H 1.14083 0.18262 0.26606
 H163 H 1.16094 0.20335 0.22232
 H164 H 1.16355 0.11984 0.18346
 H165 H 1.14199 0.09891 0.22648
 H166 H 1.15058 0.08634 0.27383
 H167 H 1.12959 0.06546 0.31672
 H168 H 1.08120 0.14303 0.33061
 H169 H 1.10016 0.16285 0.28634
 H170 H 1.04976 0.10979 0.34964
 H171 H 1.03071 0.09090 0.39452
 H172 H 1.11048 0.04708 0.41039
 H173 H 1.13032 0.06723 0.36636
 C174 C 0.86020 -0.14009 0.25214
 C175 C 0.83093 -0.14691 0.25075
 C176 C 0.81923 -0.15837 0.22565
 C177 C 0.83674 -0.16373 0.20181
 C178 C 0.86605 -0.15715 0.20326
 C179 C 0.87765 -0.14511 0.22814
 C180 C 0.87253 -0.12792 0.27866
 C181 C 0.88839 -0.10237 0.27773
 C182 C 0.89970 -0.09069 0.30293
 C183 C 0.89584 -0.10474 0.32931
 C184 C 0.88027 -0.13046 0.33018
 C185 C 0.86843 -0.14181 0.30509
 C186 C 0.90801 -0.09260 0.35592
 C187 C 0.92539 -0.10944 0.37381
 C188 C 0.93693 -0.09798 0.39898
 C189 C 0.93074 -0.06969 0.40698
 C190 C 0.91319 -0.05290 0.38918
 C191 C 0.90216 -0.06418 0.36368
 H192 H 0.81710 -0.14309 0.26899
 H193 H 0.79660 -0.16347 0.22489
 H194 H 0.87979 -0.16112 0.18499
 H195 H 0.90031 -0.14011 0.22885
 H196 H 0.89168 -0.09129 0.25755
 H197 H 0.91175 -0.07088 0.30181
 H198 H 0.87696 -0.14155 0.35035
 H199 H 0.85637 -0.16161 0.30622
 H200 H 0.93027 -0.13138 0.36811
 H201 H 0.95041 -0.11134 0.41236
 H202 H 0.90823 -0.03097 0.39483
 H203 H 0.88869 -0.05088 0.35021
 C204 C 0.86128 0.13934 0.74690
 C205 C 0.87868 0.14441 0.77097
 C206 C 0.86704 0.15641 0.79581
 C207 C 0.83773 0.16291 0.79714
 C208 C 0.82026 0.15748 0.77323
 C209 C 0.83200 0.14606 0.74818
 C210 C 0.87367 0.12726 0.72041
 C211 C 0.86959 0.14115 0.69397
 C212 C 0.88146 0.12987 0.66891
 C213 C 0.89706 0.10421 0.66982
 C214 C 0.90093 0.09017 0.69621
 C215 C 0.88958 0.10179 0.72138
 C216 C 0.90916 0.09207 0.64321
 C217 C 0.90328 0.06362 0.63551
 C218 C 0.91415 0.05235 0.60998
 C219 C 0.93159 0.06919 0.59208
 C220 C 0.93784 0.09750 0.60004
 C221 C 0.92645 0.10895 0.62525
 H222 H 0.90135 0.13950 0.77034
 H223 H 0.88075 0.16044 0.81412
 H224 H 0.79763 0.16253 0.77390
 H225 H 0.81821 0.14220 0.72988
 H226 H 0.85749 0.16089 0.69281
 H227 H 0.87813 0.14093 0.64874
 H228 H 0.91300 0.07041 0.69735
 H229 H 0.89286 0.09071 0.74156
 H230 H 0.88988 0.05029 0.64903
 H231 H 0.90914 0.03041 0.60437
 H232 H 0.95124 0.11089 0.58658
 H233 H 0.93136 0.13090 0.63091
 C234 C 1.13923 -0.13864 0.75007
 C235 C 1.12164 -0.14552 0.77366
 C236 C 1.13332 -0.15767 0.79847
 C237 C 1.16286 -0.16270 0.80046
 C238 C 1.18055 -0.15561 0.77722
 C239 C 1.16886 -0.14394 0.75219
 C240 C 1.12676 -0.12621 0.72336
 C241 C 1.14231 -0.10630 0.70686
 C242 C 1.13086 -0.09511 0.68150
 C243 C 1.10333 -0.10311 0.67216
 C244 C 1.08762 -0.12273 0.68886
 C245 C 1.09926 -0.13429 0.71397
 C246 C 1.09116 -0.09121 0.64506
 C247 C 1.07319 -0.10797 0.62752
 C248 C 1.06180 -0.09681 0.60212
 C249 C 1.06855 -0.06885 0.59339
 C250 C 1.08656 -0.05207 0.61067
 C251 C 1.09753 -0.06302 0.63635
 H252 H 1.09887 -0.14124 0.77313
 H253 H 1.11940 -0.16283 0.81633
 H254 H 1.20337 -0.15966 0.77829
 H255 H 1.18303 -0.13956 0.73435
 H256 H 1.16334 -0.09916 0.71358
 H257 H 1.14384 -0.08042 0.66906
 H258 H 1.06617 -0.12908 0.68269
 H259 H 1.08676 -0.14987 0.72579
 H260 H 1.06823 -0.12992 0.63314
 H261 H 1.04808 -0.11023 0.58905
 H262 H 1.09185 -0.03031 0.60455
 H263 H 1.11074 -0.04922 0.64952
 C264 C 0.25190 1.13927 1.13821
 C265 C 0.22816 1.14588 1.12073
 C266 C 0.20342 1.15783 1.13255
 C267 C 0.20167 1.16296 1.16213
 C268 C 0.22509 1.15617 1.17971
 C269 C 0.25003 1.14469 1.16788
 C270 C 0.27848 1.12692 1.12561
 C271 C 0.29507 1.10713 1.14117
 C272 C 0.32028 1.09596 1.12961
 C273 C 0.32939 1.10387 1.10194
 C274 C 0.31262 1.12339 1.08622
 C275 C 0.28765 1.13493 1.09798
 C276 C 0.35632 1.09194 1.08966
 C277 C 0.37380 1.10864 1.07155
 C278 C 0.39914 1.09747 1.06021
 C279 C 0.40783 1.06957 1.06714
 C280 C 0.39054 1.05283 1.08520
 C281 C 0.36494 1.06378 1.09613
 H282 H 0.22851 1.14151 1.09793
 H283 H 0.18543 1.16276 1.11872
 H284 H 0.22421 1.16031 1.20255
 H285 H 0.26800 1.14051 1.18196
 H286 H 0.28852 1.10004 1.16230
 H287 H 0.33279 1.08135 1.14260
 H288 H 0.31864 1.12969 1.06469
 H289 H 0.27573 1.15041 1.08546
 H290 H 0.36822 1.13056 1.06648
 H291 H 0.41221 1.11085 1.04642
 H292 H 0.39661 1.03110 1.09062
 H293 H 0.35180 1.05001 1.10941
 C294 C 0.25034 0.86047 0.86313
 C295 C 0.22669 0.87794 0.85636
 C296 C 0.20200 0.86620 0.84410
 C297 C 0.20020 0.83671 0.83883
 C298 C 0.22350 0.81912 0.84586
 C299 C 0.24839 0.83088 0.85764
 C300 C 0.27697 0.87302 0.87556
 C301 C 0.29360 0.85746 0.89536
 C302 C 0.31896 0.86892 0.90644
 C303 C 0.32819 0.89649 0.89842
 C304 C 0.31133 0.91223 0.87897
 C305 C 0.28621 0.90058 0.86753
 C306 C 0.35537 0.90862 0.91007
 C307 C 0.37270 0.92662 0.89309
 C308 C 0.39821 0.93795 0.90399
 C309 C 0.40724 0.93113 0.93189
 C310 C 0.39016 0.91310 0.94888
 C311 C 0.36438 0.90217 0.93819
 H312 H 0.22709 0.90068 0.86079
 H313 H 0.18410 0.88003 0.83900
 H314 H 0.22258 0.79635 0.84163
 H315 H 0.26629 0.81680 0.86194
 H316 H 0.28700 0.83639 0.90248
 H317 H 0.33152 0.85593 0.92101
 H318 H 0.31740 0.93370 0.87263
 H319 H 0.27428 0.91309 0.85204
 H320 H 0.36685 0.93164 0.87118
 H321 H 0.41110 0.95170 0.89041
 H322 H 0.39652 0.90776 0.97060
 H323 H 0.35139 0.88893 0.95215
 C324 C 0.74937 0.86029 1.13953
 C325 C 0.77309 0.87765 1.14644
 C326 C 0.79774 0.86572 1.15858
 C327 C 0.79942 0.83616 1.16358
 C328 C 0.77602 0.81870 1.15647
 C329 C 0.75116 0.83064 1.14481
 C330 C 0.72286 0.87302 1.12704
 C331 C 0.70631 0.85769 1.10703
 C332 C 0.68117 0.86937 1.09572
 C333 C 0.67211 0.89695 1.10371
 C334 C 0.68886 0.91243 1.12345
 C335 C 0.71375 0.90054 1.13512
 C336 C 0.64526 0.90936 1.09165
 C337 C 0.62781 0.92738 1.10835
 C338 C 0.60256 0.93888 1.09706
 C339 C 0.59391 0.93218 1.06903
 C340 C 0.61116 0.91420 1.05229
 C341 C 0.63668 0.90313 1.06336
 H342 H 0.77281 0.90043 1.14218
 H343 H 0.81571 0.87946 1.16375
 H344 H 0.77685 0.79587 1.16050
 H345 H 0.73320 0.81664 1.14040
 H346 H 0.71282 0.83665 1.09987
 H347 H 0.66868 0.85656 1.08095
 H348 H 0.68289 0.93388 1.12980
 H349 H 0.72563 0.91288 1.15078
 H350 H 0.63336 0.93226 1.13037
 H351 H 0.58952 0.95259 1.11045
 H352 H 0.60511 0.90897 1.03047
 H353 H 0.64980 0.88992 1.04959
 C354 C 0.75007 1.13926 0.85919
 C355 C 0.77364 1.12180 0.85227
 C356 C 0.79837 1.13362 0.84017
 C357 C 0.80028 1.16317 0.83521
 C358 C 0.77702 1.18074 0.84230
 C359 C 0.75209 1.16891 0.85393
 C360 C 0.72349 1.12666 0.87169
 C361 C 0.70712 1.14207 0.89173
 C362 C 0.68192 1.13050 0.90305
 C363 C 0.67261 1.10298 0.89506
 C364 C 0.68918 1.08742 0.87530
 C365 C 0.71413 1.09919 0.86361
 C366 C 0.64570 1.09068 0.90714
 C367 C 0.62805 1.07276 0.89044
 C368 C 0.60275 1.06137 0.90175
 C369 C 0.59424 1.06807 0.92980
 C370 C 0.61168 1.08597 0.94654
 C371 C 0.63725 1.09694 0.93544
 H372 H 0.77318 1.09901 0.85651
 H373 H 0.81623 1.11979 0.83500
 H374 H 0.77803 1.20356 0.83830
 H375 H 0.73424 1.18299 0.85834
 H376 H 0.71382 1.16307 0.89888
 H377 H 0.66957 1.14336 0.91784
 H378 H 0.68301 1.06600 0.86894
 H379 H 0.72587 1.08680 0.84794
 H380 H 0.63349 1.06787 0.86841
 H381 H 0.58956 1.04772 0.88836
 H382 H 0.60574 1.09120 0.96837
 H383 H 0.65051 1.11008 0.94921
 C384 C 0.13987 0.25086 0.13782
 C385 C 0.12252 0.22706 0.14446
 C386 C 0.13443 0.20237 0.15652
 C387 C 0.16397 0.20075 0.16172
 C388 C 0.18143 0.22422 0.15487
 C389 C 0.16951 0.24911 0.14328
 C390 C 0.12716 0.27741 0.12544
 C391 C 0.14258 0.29412 0.10559
 C392 C 0.13092 0.31933 0.09444
 C393 C 0.10331 0.32832 0.10242
 C394 C 0.08774 0.31142 0.12198
 C395 C 0.09958 0.28644 0.13350
 C396 C 0.09094 0.35527 0.09056
 C397 C 0.07292 0.37259 0.10740
 C398 C 0.06146 0.39793 0.09629
 C399 C 0.06817 0.40679 0.06832
 C400 C 0.08615 0.38966 0.05144
 C401 C 0.09721 0.36406 0.06234
 H402 H 0.09975 0.22732 0.14006
 H403 H 0.12069 0.18433 0.16149
 H404 H 0.20424 0.22343 0.15905
 H405 H 0.18350 0.26713 0.13907
 H406 H 0.16366 0.28767 0.09847
 H407 H 0.14379 0.33194 0.07979
 H408 H 0.06625 0.31734 0.12833
 H409 H 0.08719 0.27443 0.14903
 H410 H 0.06802 0.36688 0.12937
 H411 H 0.04774 0.41087 0.10978
 H412 H 0.09140 0.39588 0.02966
 H413 H 0.11043 0.35105 0.04847
 C414 C -0.13745 0.25070 -0.14111
 C415 C -0.14291 0.24892 -0.17079
 C416 C -0.15459 0.22406 -0.18267
 C417 C -0.16155 0.20065 -0.16513
 C418 C -0.15632 0.20230 -0.13555
 C419 C -0.14416 0.22695 -0.12368
 C420 C -0.12506 0.27727 -0.12843
 C421 C -0.13304 0.28631 -0.10079
 C422 C -0.12157 0.31133 -0.08899
 C423 C -0.10215 0.32828 -0.10467
 C424 C -0.09422 0.31926 -0.13233
 C425 C -0.10532 0.29400 -0.14393
 C426 C -0.09041 0.35531 -0.09237
 C427 C -0.06233 0.36431 -0.09881
 C428 C -0.05156 0.38996 -0.08776
 C429 C -0.06840 0.40694 -0.06961
 C430 C -0.09625 0.39790 -0.06276
 C431 C -0.10724 0.37252 -0.07422
 H432 H -0.13866 0.26689 -0.18484
 H433 H -0.15878 0.22325 -0.20552
 H434 H -0.16137 0.18432 -0.12175
 H435 H -0.13976 0.22723 -0.10087
 H436 H -0.14849 0.27430 -0.08831
 H437 H -0.12786 0.31724 -0.06745
 H438 H -0.07968 0.33190 -0.14529
 H439 H -0.09824 0.28755 -0.16506
 H440 H -0.04847 0.35140 -0.11214
 H441 H -0.02988 0.39632 -0.09312
 H442 H -0.10972 0.41071 -0.04892
 H443 H -0.12911 0.36668 -0.06920
 C444 C 0.13862 0.74870 -0.13890
 C445 C 0.14363 0.77260 -0.12134
 C446 C 0.15569 0.79750 -0.13285
 C447 C 0.16230 0.79907 -0.16218
 C448 C 0.15691 0.77534 -0.17981
 C449 C 0.14543 0.75023 -0.16820
 C450 C 0.12655 0.72211 -0.12663
 C451 C 0.14051 0.69585 -0.13081
 C452 C 0.12928 0.67070 -0.11902
 C453 C 0.10359 0.67135 -0.10340
 C454 C 0.08946 0.69756 -0.09946
 C455 C 0.10103 0.72282 -0.11073
 C456 C 0.09154 0.64466 -0.09132
 C457 C 0.06311 0.63678 -0.09723
 C458 C 0.05194 0.61117 -0.08637
 C459 C 0.06886 0.59337 -0.06893
 C460 C 0.09715 0.60151 -0.06266
 C461 C 0.10850 0.62680 -0.07403
 H462 H 0.13865 0.77178 -0.09865
 H463 H 0.15970 0.81567 -0.11901
 H464 H 0.16204 0.77619 -0.20245
 H465 H 0.14161 0.73206 -0.18211
 H466 H 0.16029 0.69489 -0.14291
 H467 H 0.14042 0.65066 -0.12240
 H468 H 0.06967 0.69850 -0.08738
 H469 H 0.08989 0.74287 -0.10737
 H470 H 0.04972 0.65023 -0.11062
 H471 H 0.03001 0.60543 -0.09139
 H472 H 0.11060 0.58813 -0.04926
 H473 H 0.13044 0.63259 -0.06911
 C474 C -0.13864 0.74860 0.13991
 C475 C -0.14394 0.75040 0.16961
 C476 C -0.15555 0.77523 0.18151
 C477 C -0.16260 0.79861 0.16397
 C478 C -0.15754 0.79694 0.13437
 C479 C -0.14545 0.77231 0.12248
 C480 C -0.12625 0.72209 0.12722
 C481 C -0.13436 0.71296 0.09962
 C482 C -0.12283 0.68804 0.08779
 C483 C -0.10322 0.67127 0.10340
 C484 C -0.09520 0.68035 0.13104
 C485 C -0.10635 0.70552 0.14267
 C486 C -0.09132 0.64438 0.09104
 C487 C -0.06312 0.63574 0.09736
 C488 C -0.05218 0.61021 0.08629
 C489 C -0.06898 0.59301 0.06823
 C490 C -0.09694 0.60169 0.06148
 C491 C -0.10810 0.62696 0.07296
 H492 H -0.13961 0.73245 0.18366
 H493 H -0.15963 0.77604 0.20437
 H494 H -0.16265 0.81490 0.12057
 H495 H -0.14117 0.77203 0.09966
 H496 H -0.14992 0.72486 0.08719
 H497 H -0.12921 0.68205 0.06628
 H498 H -0.08051 0.66785 0.14395
 H499 H -0.09919 0.71204 0.16377
 H500 H -0.04930 0.64882 0.11063
 H501 H -0.03041 0.60413 0.09158
 H502 H -0.11038 0.58870 0.04771
 H503 H -0.13005 0.63254 0.06802
 C504 C 1.13897 0.14046 0.74844
 C505 C 1.14557 0.12303 0.77225
 C506 C 1.15788 0.13480 0.79692
 C507 C 1.16335 0.16427 0.79855
 C508 C 1.15653 0.18181 0.77508
 C509 C 1.14471 0.17002 0.75019
 C510 C 1.12639 0.12787 0.72187
 C511 C 1.10676 0.14349 0.70512
 C512 C 1.09546 0.13195 0.67987
 C513 C 1.10308 0.10425 0.67089
 C514 C 1.12238 0.08846 0.68787
 C515 C 1.13406 0.10019 0.71285
 C516 C 1.09113 0.09199 0.64387
 C517 C 1.10772 0.07363 0.62667
 C518 C 1.09652 0.06212 0.60136
 C519 C 1.06871 0.06912 0.59238
 C520 C 1.05210 0.08752 0.60932
 C521 C 1.06308 0.09863 0.63491
 H522 H 1.14096 0.10032 0.77202
 H523 H 1.16281 0.12101 0.81497
 H524 H 1.16091 0.20457 0.77587
 H525 H 1.14055 0.18406 0.73217
 H526 H 1.09992 0.16466 0.71155
 H527 H 1.08101 0.14497 0.66723
 H528 H 1.12843 0.06689 0.68199
 H529 H 1.14941 0.08762 0.72488
 H530 H 1.12956 0.06845 0.63247
 H531 H 1.10982 0.04809 0.58857
 H532 H 1.03045 0.09301 0.60300
 H533 H 1.04941 0.11215 0.64782
 C534 C 0.85992 -0.13890 0.74961
 C535 C 0.83002 -0.14040 0.75323
 C536 C 0.81815 -0.15220 0.77810
 C537 C 0.83578 -0.16357 0.79990
 C538 C 0.86573 -0.16221 0.79612
 C539 C 0.87758 -0.14977 0.77155
 C540 C 0.87256 -0.12633 0.72299
 C541 C 0.89854 -0.13674 0.71185
 C542 C 0.91031 -0.12506 0.68687
 C543 C 0.89615 -0.10305 0.67187
 C544 C 0.87012 -0.09271 0.68295
 C545 C 0.85867 -0.10396 0.70828
 C546 C 0.90833 -0.09113 0.64474
 C547 C 0.90407 -0.06222 0.63719
 C548 C 0.91500 -0.05126 0.61149
 C549 C 0.93101 -0.06875 0.59309
 C550 C 0.93573 -0.09742 0.60065
 C551 C 0.92423 -0.10859 0.62599
 H552 H 0.81562 -0.13300 0.73660
 H553 H 0.79504 -0.15341 0.77981
 H554 H 0.88005 -0.17008 0.81264
 H555 H 0.90067 -0.14838 0.77001
 H556 H 0.90973 -0.15423 0.72217
 H557 H 0.93065 -0.13329 0.67945
 H558 H 0.85825 -0.07613 0.67190
 H559 H 0.83893 -0.09492 0.71635
 H560 H 0.89257 -0.04785 0.65125
 H561 H 0.91134 -0.02895 0.60625
 H562 H 0.94786 -0.11138 0.58666
 H563 H 0.92749 -0.13107 0.63058
 C564 C 1.13879 -0.13981 0.25056
 C565 C 1.14441 -0.16936 0.24857
 C566 C 1.15612 -0.18096 0.22359
 C567 C 1.16293 -0.16323 0.20025
 C568 C 1.15756 -0.13377 0.20211
 C569 C 1.14538 -0.12220 0.22689
 C570 C 1.12633 -0.12744 0.27724
 C571 C 1.13419 -0.09987 0.28652
 C572 C 1.12260 -0.08833 0.31159
 C573 C 1.10318 -0.10420 0.32837
 C574 C 1.09539 -0.13179 0.31913
 C575 C 1.10662 -0.14315 0.29381
 C576 C 1.09125 -0.09212 0.35542
 C577 C 1.06311 -0.09867 0.36414
 C578 C 1.05212 -0.08771 0.38975
 C579 C 1.06881 -0.06955 0.40696
 C580 C 1.09674 -0.06265 0.39823
 C581 C 1.10794 -0.07401 0.37289
 H582 H 1.14025 -0.18354 0.26649
 H583 H 1.16042 -0.20371 0.22261
 H584 H 1.16248 -0.11984 0.18418
 H585 H 1.14085 -0.09948 0.22732
 H586 H 1.14962 -0.08725 0.27463
 H587 H 1.12878 -0.06684 0.31768
 H588 H 1.08085 -0.14488 0.33163
 H589 H 1.09965 -0.16424 0.28718
 H590 H 1.04938 -0.11200 0.35103
 H591 H 1.03039 -0.09312 0.39588
 H592 H 1.11010 -0.04881 0.41123
 H593 H 1.12985 -0.06891 0.36726
 C594 C 0.86356 0.13815 0.24791
 C595 C 0.85390 0.12121 0.22489
 C596 C 0.84078 0.13375 0.20099
 C597 C 0.83731 0.16370 0.19917
 C598 C 0.84771 0.18062 0.22195
 C599 C 0.86026 0.16802 0.24606
 C600 C 0.87658 0.12481 0.27395
 C601 C 0.89809 0.13913 0.28950
 C602 C 0.90930 0.12733 0.31468
 C603 C 0.89979 0.10055 0.32477
 C604 C 0.87880 0.08587 0.30882
 C605 C 0.86717 0.09794 0.28393
 C606 C 0.91134 0.08831 0.35202
 C607 C 0.89382 0.07165 0.37017
 C608 C 0.90450 0.06065 0.39596
 C609 C 0.93271 0.06655 0.40451
 C610 C 0.95029 0.08310 0.38655
 C611 C 0.93984 0.09359 0.36047
 H612 H 0.85670 0.09822 0.22513
 H613 H 0.83386 0.12007 0.18356
 H614 H 0.84508 0.20365 0.22161
 H615 H 0.86676 0.18180 0.26354
 H616 H 0.90636 0.15957 0.28228
 H617 H 0.92510 0.13957 0.32647
 H618 H 0.87126 0.06497 0.31551
 H619 H 0.85040 0.08635 0.27284
 H620 H 0.87163 0.06755 0.36480
 H621 H 0.89049 0.04803 0.40953
 H622 H 0.97227 0.08765 0.39252
 H623 H 0.95425 0.10568 0.34687
 C624 C 0.13990 0.25159 -0.13914
 C625 C 0.12252 0.22783 -0.14585
 C626 C 0.13439 0.20325 -0.15805
 C627 C 0.16392 0.20166 -0.16332
 C628 C 0.18140 0.22508 -0.15637
 C629 C 0.16951 0.24987 -0.14465
 C630 C 0.12721 0.27806 -0.12666
 C631 C 0.14269 0.29469 -0.10682
 C632 C 0.13104 0.31982 -0.09557
 C633 C 0.10337 0.32881 -0.10345
 C634 C 0.08773 0.31199 -0.12299
 C635 C 0.09957 0.28710 -0.13461
 C636 C 0.09101 0.35569 -0.09150
 C637 C 0.07283 0.37304 -0.10824
 C638 C 0.06139 0.39832 -0.09708
 C639 C 0.06829 0.40710 -0.06914
 C640 C 0.08643 0.38994 -0.05236
 C641 C 0.09746 0.36440 -0.06331
 H642 H 0.09977 0.22805 -0.14141
 H643 H 0.12063 0.18525 -0.16308
 H644 H 0.20420 0.22432 -0.16060
 H645 H 0.18352 0.26786 -0.14038
 H646 H 0.16383 0.28824 -0.09978
 H647 H 0.14397 0.33236 -0.08095
 H648 H 0.06620 0.31790 -0.12926
 H649 H 0.08711 0.27517 -0.15012
 H650 H 0.06778 0.36740 -0.13019
 H651 H 0.04754 0.41127 -0.11050
 H652 H 0.09183 0.39609 -0.03061
 H653 H 0.11082 0.35137 -0.04951
 C654 C -0.14194 0.25314 0.14231
 C655 C -0.12379 0.23066 0.15087
 C656 C -0.13504 0.20539 0.16232
 C657 C -0.16489 0.20143 0.16489
 C658 C -0.18304 0.22399 0.15630
 C659 C -0.17172 0.24952 0.14542
 C660 C -0.12984 0.28013 0.13011
 C661 C -0.14473 0.29552 0.10884
 C662 C -0.13334 0.32076 0.09736
 C663 C -0.10647 0.33106 0.10641
 C664 C -0.09151 0.31557 0.12756
 C665 C -0.10316 0.29066 0.13945
 C666 C -0.09407 0.35774 0.09381
 C667 C -0.07678 0.37604 0.11048
 C668 C -0.06484 0.40081 0.09856
 C669 C -0.07040 0.40819 0.06991
 C670 C -0.08784 0.39024 0.05325
 C671 C -0.09930 0.36514 0.06496
 H672 H -0.10081 0.23227 0.14826
 H673 H -0.12040 0.18842 0.16830
 H674 H -0.20604 0.22215 0.15875
 H675 H -0.18639 0.26657 0.13984
 H676 H -0.16510 0.28796 0.10071
 H677 H -0.14579 0.33226 0.08151
 H678 H -0.07058 0.32246 0.13481
 H679 H -0.09121 0.27978 0.15612
 H680 H -0.07272 0.37151 0.13290
 H681 H -0.05161 0.41445 0.11191
 H682 H -0.09223 0.39535 0.03099
 H683 H -0.11192 0.35137 0.05121
 C684 C -0.13924 0.74955 -0.14006
 C685 C -0.15002 0.77137 -0.12232
 C686 C -0.16238 0.79594 -0.13414
 C687 C -0.16375 0.79985 -0.16413
 C688 C -0.15248 0.77815 -0.18183
 C689 C -0.14076 0.75329 -0.16999
 C690 C -0.12670 0.72296 -0.12745
 C691 C -0.10434 0.70840 -0.14141
 C692 C -0.09310 0.68310 -0.12999
 C693 C -0.10343 0.67192 -0.10391
 C694 C -0.12545 0.68675 -0.08969
 C695 C -0.13712 0.71170 -0.10144
 C696 C -0.09148 0.64485 -0.09175
 C697 C -0.10893 0.62599 -0.07584
 C698 C -0.09773 0.60068 -0.06441
 C699 C -0.06903 0.59328 -0.06921
 C700 C -0.05156 0.61181 -0.08520
 C701 C -0.06255 0.63747 -0.09607
 H702 H -0.14862 0.76973 -0.09920
 H703 H -0.17017 0.81237 -0.11976
 H704 H -0.15370 0.77996 -0.20498
 H705 H -0.13342 0.73676 -0.18444
 H706 H -0.09530 0.71656 -0.16118
 H707 H -0.07652 0.67218 -0.14190
 H708 H -0.13368 0.67923 -0.06932
 H709 H -0.15460 0.72192 -0.09019
 H710 H -0.13143 0.63047 -0.07254
 H711 H -0.11167 0.58660 -0.05229
 H712 H -0.02924 0.60670 -0.08891
 H713 H -0.04819 0.65162 -0.10755
 C714 C 0.13979 0.74934 0.13784
 C715 C 0.16938 0.75126 0.14353
 C716 C 0.18113 0.77616 0.15525
 C717 C 0.16354 0.79949 0.16201
 C718 C 0.13405 0.79770 0.15657
 C719 C 0.12231 0.77301 0.14436
 C720 C 0.12724 0.72274 0.12539
 C721 C 0.09958 0.71359 0.13318
 C722 C 0.08788 0.68857 0.12161
 C723 C 0.10367 0.67173 0.10229
 C724 C 0.13136 0.68084 0.09456
 C725 C 0.14287 0.70610 0.10576
 C726 C 0.09144 0.64471 0.09042
 C727 C 0.09806 0.63584 0.06234
 C728 C 0.08704 0.61023 0.05144
 C729 C 0.06875 0.59316 0.06816
 C730 C 0.06175 0.60206 0.09601
 C731 C 0.07317 0.62740 0.10713
 H732 H 0.18346 0.73335 0.13942
 H733 H 0.20391 0.77708 0.15962
 H734 H 0.12021 0.81563 0.16146
 H735 H 0.09958 0.77264 0.13978
 H736 H 0.08701 0.72552 0.14854
 H737 H 0.06633 0.68258 0.12775
 H738 H 0.14440 0.66829 0.08011
 H739 H 0.16403 0.71263 0.09883
 H740 H 0.11150 0.64883 0.04857
 H741 H 0.09252 0.60398 0.02975
 H742 H 0.04779 0.58918 0.10939
 H743 H 0.06800 0.63315 0.12901
 C744 C 0.25192 1.13965 0.85949
 C745 C 0.24979 1.14516 0.82983
 C746 C 0.22482 1.15688 0.81818
 C747 C 0.20163 1.16383 0.83594
 C748 C 0.20364 1.15860 0.86550
 C749 C 0.22841 1.14641 0.87715
 C750 C 0.27855 1.12709 0.87191
 C751 C 0.28801 1.13496 0.89947
 C752 C 0.31303 1.12326 0.91106
 C753 C 0.32958 1.10371 0.89525
 C754 C 0.32016 1.09590 0.86766
 C755 C 0.29489 1.10724 0.85625
 C756 C 0.35659 1.09166 0.90737
 C757 C 0.36510 1.06348 0.90094
 C758 C 0.39067 1.05238 0.91193
 C759 C 0.40805 1.06901 0.92999
 C760 C 0.39952 1.09698 0.93676
 C761 C 0.37422 1.10828 0.92538
 H762 H 0.26758 1.14087 0.81561
 H763 H 0.22375 1.16107 0.79534
 H764 H 0.18583 1.16362 0.87948
 H765 H 0.22894 1.14198 0.89995
 H766 H 0.27630 1.15047 0.91206
 H767 H 0.31927 1.12947 0.93255
 H768 H 0.33248 1.08126 0.85461
 H769 H 0.28812 1.10025 0.83518
 H770 H 0.35186 1.04979 0.88769
 H771 H 0.39663 1.03062 0.90661
 H772 H 0.41265 1.11030 0.95053
 H773 H 0.36876 1.13022 0.93038
 C774 C 0.25105 0.86214 1.13900
 C775 C 0.22742 0.85537 1.12144
 C776 C 0.20276 0.84303 1.13315
 C777 C 0.20097 0.83766 1.16270
 C778 C 0.22428 0.84463 1.18038
 C779 C 0.24915 0.85651 1.16865
 C780 C 0.27761 0.87477 1.12649
 C781 C 0.29411 0.89458 1.14213
 C782 C 0.31937 0.90590 1.13068
 C783 C 0.32863 0.89811 1.10306
 C784 C 0.31190 0.87864 1.08724
 C785 C 0.28688 0.86696 1.09888
 C786 C 0.35571 0.91001 1.09095
 C787 C 0.37317 0.89328 1.07297
 C788 C 0.39860 0.90439 1.06169
 C789 C 0.40743 0.93227 1.06855
 C790 C 0.39021 0.94903 1.08654
 C791 C 0.36451 0.93812 1.09743
 H792 H 0.22779 0.85990 1.09865
 H793 H 0.18485 0.83798 1.11925
 H794 H 0.22337 0.84033 1.20320
 H795 H 0.26704 0.86080 1.18280
 H796 H 0.28747 0.90153 1.16325
 H797 H 0.33183 0.92049 1.14373
 H798 H 0.31800 0.87246 1.06573
 H799 H 0.27504 0.85148 1.08630
 H800 H 0.36748 0.87138 1.06793
 H801 H 0.41159 0.89098 1.04795
 H802 H 0.39641 0.97073 1.09191
 H803 H 0.35140 0.95190 1.11066
 C804 C 0.74988 1.13947 1.13913
 C805 C 0.76900 1.15531 1.12216
 C806 C 0.79372 1.16720 1.13418
 C807 C 0.79991 1.16395 1.16374
 C808 C 0.78040 1.14792 1.18057
 C809 C 0.75590 1.13574 1.16838
 C810 C 0.72353 1.12712 1.12641
 C811 C 0.70591 1.14380 1.10861
 C812 C 0.68072 1.13237 1.09707
 C813 C 0.67277 1.10384 1.10279
 C814 C 0.69069 1.08709 1.12038
 C815 C 0.71568 1.09866 1.13221
 C816 C 0.64581 1.09172 1.09069
 C817 C 0.62926 1.07215 1.10663
 C818 C 0.60390 1.06087 1.09534
 C819 C 0.59430 1.06920 1.06803
 C820 C 0.61069 1.08876 1.05205
 C821 C 0.63625 1.09976 1.06317
 H822 H 0.76501 1.15815 1.09943
 H823 H 0.80832 1.17853 1.12013
 H824 H 0.78360 1.14543 1.20345
 H825 H 0.74125 1.12393 1.18200
 H826 H 0.71133 1.16592 1.10410
 H827 H 0.66723 1.14609 1.08411
 H828 H 0.68560 1.06489 1.12480
 H829 H 0.72911 1.08526 1.14560
 H830 H 0.63563 1.06584 1.12807
 H831 H 0.59159 1.04591 1.10816
 H832 H 0.60390 1.09533 1.03080
 H833 H 0.64867 1.11433 1.05003
 C834 C 0.74968 0.85991 0.86101
 C835 C 0.75326 0.83004 0.85954
 C836 C 0.77806 0.81819 0.84778
 C837 C 0.79986 0.83583 0.83644
 C838 C 0.79612 0.86575 0.83779
 C839 C 0.77160 0.87758 0.85018
 C840 C 0.72313 0.87253 0.87354
 C841 C 0.71200 0.89850 0.86301
 C842 C 0.68709 0.91026 0.87465
 C843 C 0.67216 0.89610 0.89675
 C844 C 0.68322 0.87007 0.90720
 C845 C 0.70848 0.85863 0.89598
 C846 C 0.64513 0.90829 0.90866
 C847 C 0.63771 0.90407 0.93767
 C848 C 0.61211 0.91502 0.94863
 C849 C 0.59367 0.93099 0.93105
 C850 C 0.60109 0.93565 0.90227
 C851 C 0.62634 0.92415 0.89110
 H852 H 0.73664 0.81564 0.86694
 H853 H 0.77974 0.79510 0.84659
 H854 H 0.81263 0.88008 0.82994
 H855 H 0.77009 0.90065 0.85155
 H856 H 0.72229 0.90969 0.84546
 H857 H 0.67967 0.93059 0.86634
 H858 H 0.67221 0.85822 0.92385
 H859 H 0.71654 0.83889 0.90510
 H860 H 0.65181 0.89261 0.95210
 H861 H 0.60698 0.91141 0.97102
 H862 H 0.58707 0.94775 0.88824
 H863 H 0.63084 0.92737 0.86855
   
