data_POSCAR
  _audit_creation_date              2014-09-24
  _audit_creation_method            'ToBaCCo'
  _symmetry_space_group_name_H-M    'P1'
  _symmetry_Int_Tables_number       1
  _symmetry_cell_setting            triclinic
  loop_
  _symmetry_equiv_pos_as_xyz
 x,y,z
_cell_length_a 44.5592
_cell_length_b 44.5495
_cell_length_c 8.9375
_cell_angle_alpha 90.000100
_cell_angle_beta 90.000200
_cell_angle_gamma 90.000000
loop_
  _atom_site_label
  _atom_site_type_symbol
  _atom_site_fract_x
  _atom_site_fract_y
  _atom_site_fract_z
O1 O 0.22571 0.27892 0.09902
 O2 O 0.28304 0.22057 0.15749
 O3 O 0.22580 0.22048 0.09888
 O4 O 0.28294 0.27900 0.15758
 O5 O 0.27316 0.27896 0.39945
 O6 O 0.21602 0.22044 0.34052
 O7 O 0.27326 0.22053 0.39936
 O8 O 0.21593 0.27888 0.34090
 Cu9 Cu 0.25538 0.24974 0.10417
 Cu10 Cu 0.24358 0.24969 0.39411
 C11 C 0.21099 0.28891 0.21014
 C12 C 0.28800 0.21056 0.28829
 C13 C 0.21104 0.21037 0.20975
 C14 C 0.28786 0.28900 0.28841
 O15 O 0.78315 0.27873 0.34138
 O16 O 0.72601 0.22021 0.40008
 O17 O 0.78326 0.22029 0.34169
 O18 O 0.72593 0.27864 0.40012
 O19 O 0.71615 0.27860 0.15824
 O20 O 0.77348 0.22025 0.09981
 O21 O 0.71624 0.22017 0.15842
 O22 O 0.77337 0.27869 0.09951
 Cu23 Cu 0.75559 0.24947 0.39488
 Cu24 Cu 0.74380 0.24942 0.10494
 C25 C 0.78807 0.28874 0.21056
 C26 C 0.71125 0.21011 0.28920
 C27 C 0.78822 0.21028 0.21092
 C28 C 0.71120 0.28863 0.28902
 O29 O 0.77424 0.77890 0.90090
 O30 O 0.71690 0.72055 0.84244
 O31 O 0.77415 0.72047 0.90087
 O32 O 0.71700 0.77899 0.84220
 O33 O 0.72678 0.77895 0.60032
 O34 O 0.78392 0.72043 0.65921
 O35 O 0.72668 0.72051 0.60056
 O36 O 0.78402 0.77886 0.65902
 Cu37 Cu 0.74456 0.74973 0.89567
 Cu38 Cu 0.75636 0.74969 0.60572
 C39 C 0.78897 0.78888 0.78980
 C40 C 0.71195 0.71054 0.71166
 C41 C 0.78890 0.71036 0.78998
 C42 C 0.71208 0.78900 0.71137
 O43 O 0.28329 0.77965 0.84221
 O44 O 0.22595 0.72130 0.90069
 O45 O 0.28319 0.72121 0.84199
 O46 O 0.22605 0.77974 0.90069
 O47 O 0.21627 0.77978 0.65905
 O48 O 0.27340 0.72125 0.60012
 O49 O 0.21617 0.72134 0.65882
 O50 O 0.27350 0.77969 0.60034
 Cu51 Cu 0.25562 0.75047 0.89546
 Cu52 Cu 0.24383 0.75052 0.60552
 C53 C 0.28824 0.78966 0.71144
 C54 C 0.21122 0.71132 0.78960
 C55 C 0.28811 0.71121 0.71116
 C56 C 0.21129 0.78985 0.78982
 O57 O 0.97155 -0.02358 -0.15120
 O58 O 1.02990 0.03372 -0.09079
 O59 O 1.03000 -0.02349 -0.15132
 O60 O 0.97146 0.03360 -0.09048
 O61 O 0.97150 0.02340 0.15167
 O62 O 1.03004 -0.03368 0.09083
 O63 O 1.02996 0.02352 0.15137
 O64 O 0.97161 -0.03378 0.09095
 Cu65 Cu 1.00072 0.00611 -0.14524
 Cu66 Cu 1.00079 -0.00618 0.14551
 C67 C 0.96173 -0.03836 -0.04019
 C68 C 1.03977 0.03830 0.04034
 C69 C 1.03989 -0.03824 -0.04037
 C70 C 0.96159 0.03814 0.04071
 O71 O 0.52885 0.46620 0.59073
 O72 O 0.47050 0.52349 0.65146
 O73 O 0.47042 0.46630 0.59065
 O74 O 0.52896 0.52337 0.65175
 O75 O 0.52900 0.53362 0.40965
 O76 O 0.47045 0.47655 0.34855
 O77 O 0.47055 0.53373 0.40935
 O78 O 0.52890 0.47645 0.34863
 Cu79 Cu 0.49968 0.49379 0.64545
 Cu80 Cu 0.49973 0.50614 0.35475
 C81 C 0.53872 0.46164 0.45956
 C82 C 0.46068 0.53829 0.54050
 C83 C 0.46056 0.46178 0.45944
 C84 C 0.53886 0.53814 0.54087
 O85 O -0.02977 0.46653 -0.09094
 O86 O 0.02867 0.52373 -0.15141
 O87 O 0.02866 0.46654 -0.09079
 O88 O -0.02979 0.52373 -0.15143
 O89 O -0.02979 0.53392 0.09073
 O90 O 0.02865 0.47672 0.15137
 O91 O 0.02865 0.53392 0.09076
 O92 O -0.02980 0.47672 0.15123
 Cu93 Cu -0.00056 0.49409 -0.14544
 Cu94 Cu -0.00057 0.50637 0.14532
 C95 C -0.03964 0.46195 0.04021
 C96 C 0.03852 0.53850 -0.04039
 C97 C 0.03851 0.46196 0.04039
 C98 C -0.03965 0.53849 -0.04044
 O99 O 0.47126 1.03394 0.59049
 O100 O 0.52972 0.97677 0.65141
 O101 O 0.52971 1.03395 0.59052
 O102 O 0.47126 0.97678 0.65158
 O103 O 0.47126 0.96652 0.40950
 O104 O 0.52971 1.02369 0.34844
 O105 O 0.52969 0.96651 0.40932
 O106 O 0.47124 1.02368 0.34841
 Cu107 Cu 0.50049 1.00642 0.64530
 Cu108 Cu 0.50048 0.99405 0.35462
 C109 C 0.46138 1.03846 0.45932
 C110 C 0.53956 0.96197 0.54050
 C111 C 0.53957 1.03848 0.45933
 C112 C 0.46139 0.96199 0.54070
 C113 C 1.16140 0.15449 0.02224
 C114 C 1.14517 0.14338 0.14419
 C115 C 1.15083 0.15446 0.28784
 C116 C 1.17263 0.17659 0.30977
 C117 C 1.18917 0.18805 0.18785
 C118 C 1.18323 0.17663 0.04359
 C119 C 1.12262 0.12068 0.12201
 C120 C 1.10369 0.10171 0.10364
 C121 C 1.08147 0.07955 0.08208
 C122 C 1.06245 0.06068 0.06334
 H123 H 1.15717 0.14607 -0.08952
 H124 H 1.13838 0.14600 0.38304
 H125 H 1.17644 0.18469 0.42248
 H126 H 1.19539 0.18477 -0.05322
 C127 C 0.65059 0.65364 0.78924
 C128 C 0.64472 0.64272 0.64542
 C129 C 0.66086 0.65390 0.52318
 C130 C 0.68278 0.67594 0.54455
 C131 C 0.68883 0.68711 0.68875
 C132 C 0.67249 0.67569 0.81093
 C133 C 0.62206 0.62012 0.62329
 C134 C 0.60304 0.60125 0.60485
 C135 C 0.58072 0.57920 0.58310
 C136 C 0.56162 0.56042 0.56414
 H137 H 0.63822 0.64515 0.88465
 H138 H 0.65648 0.64560 0.41133
 H139 H 0.69494 0.68425 0.44818
 H140 H 0.67659 0.68379 0.92332
 C141 C -0.16111 0.34561 0.02187
 C142 C -0.14503 0.35688 0.14408
 C143 C -0.15084 0.34593 0.28792
 C144 C -0.17262 0.32377 0.30967
 C145 C -0.18891 0.31226 0.18753
 C146 C -0.18292 0.32345 0.04330
 C147 C -0.12250 0.37959 0.12194
 C148 C -0.10357 0.39857 0.10358
 C149 C -0.08135 0.42073 0.08201
 C150 C -0.06233 0.43959 0.06324
 H151 H -0.15678 0.35392 -0.08999
 H152 H -0.13851 0.35449 0.38330
 H153 H -0.17668 0.31566 0.42208
 H154 H -0.19505 0.31507 -0.05304
 C155 C 0.33937 0.84626 0.52295
 C156 C 0.35552 0.85743 0.64519
 C157 C 0.34964 0.84651 0.78901
 C158 C 0.32772 0.82448 0.81070
 C159 C 0.31137 0.81308 0.68852
 C160 C 0.31743 0.82424 0.54432
 C161 C 0.37820 0.88001 0.62306
 C162 C 0.39723 0.89887 0.60462
 C163 C 0.41955 0.92092 0.58289
 C164 C 0.43865 0.93970 0.56394
 H165 H 0.34376 0.85456 0.41110
 H166 H 0.36202 0.85500 0.88441
 H167 H 0.32361 0.81639 0.92310
 H168 H 0.30526 0.81593 0.44795
 C169 C -0.16143 0.65451 -0.02257
 C170 C -0.14519 0.64341 -0.14453
 C171 C -0.15087 0.65448 -0.28817
 C172 C -0.17268 0.67660 -0.31009
 C173 C -0.18922 0.68805 -0.18815
 C174 C -0.18327 0.67663 -0.04390
 C175 C -0.12262 0.62073 -0.12235
 C176 C -0.10366 0.60178 -0.10394
 C177 C -0.08141 0.57966 -0.08232
 C178 C -0.06236 0.56083 -0.06351
 H179 H -0.15719 0.64608 0.08919
 H180 H -0.13841 0.64603 -0.38339
 H181 H -0.17649 0.68469 -0.42279
 H182 H -0.19543 0.68477 0.05292
 C183 C 0.33920 1.15403 0.47695
 C184 C 0.35537 1.14288 0.35477
 C185 C 0.34947 1.15378 0.21090
 C186 C 0.32752 1.17577 0.18913
 C187 C 0.31115 1.18717 0.31127
 C188 C 0.31722 1.17603 0.45550
 C189 C 0.37808 1.12034 0.37697
 C190 C 0.39714 1.10151 0.39545
 C191 C 0.41950 1.07950 0.41720
 C192 C 0.43862 1.06074 0.43613
 H193 H 0.34359 1.14576 0.58883
 H194 H 0.36187 1.14530 0.11553
 H195 H 0.32341 1.18385 0.07671
 H196 H 0.30504 1.18433 0.55184
 C197 C 1.16166 -0.15427 -0.02270
 C198 C 1.14543 -0.14315 -0.14466
 C199 C 1.15109 -0.15423 -0.28830
 C200 C 1.17289 -0.17637 -0.31023
 C201 C 1.18942 -0.18783 -0.18830
 C202 C 1.18349 -0.17641 -0.04405
 C203 C 1.12287 -0.12046 -0.12246
 C204 C 1.10392 -0.10151 -0.10403
 C205 C 1.08167 -0.07939 -0.08237
 C206 C 1.06262 -0.06056 -0.06353
 H207 H 1.15743 -0.14584 0.08906
 H208 H 1.13864 -0.14578 -0.38351
 H209 H 1.17669 -0.18446 -0.42293
 H210 H 1.19564 -0.18455 0.05277
 C211 C 0.66024 0.34539 0.47748
 C212 C 0.64413 0.35660 0.35524
 C213 C 0.64996 0.34565 0.21143
 C214 C 0.67179 0.32354 0.18976
 C215 C 0.68811 0.31209 0.31194
 C216 C 0.68210 0.32328 0.45613
 C217 C 0.62156 0.37929 0.37733
 C218 C 0.60262 0.39825 0.39576
 C219 C 0.58040 0.42040 0.41748
 C220 C 0.56139 0.43926 0.43639
 H221 H 0.65589 0.35371 0.58931
 H222 H 0.63761 0.35417 0.11601
 H223 H 0.67588 0.31542 0.07736
 H224 H 0.69425 0.31494 0.55250
 C225 C 0.85029 -0.15418 -0.28781
 C226 C 0.85615 -0.14324 -0.14400
 C227 C 0.84002 -0.15443 -0.02176
 C228 C 0.81812 -0.17651 -0.04309
 C229 C 0.81208 -0.18768 -0.18728
 C230 C 0.82841 -0.17626 -0.30947
 C231 C 0.87876 -0.12060 -0.12194
 C232 C 0.89773 -0.10167 -0.10359
 C233 C 0.92000 -0.07956 -0.08199
 C234 C 0.93904 -0.06072 -0.06321
 H235 H 0.86265 -0.14568 -0.38323
 H236 H 0.84439 -0.14612 0.09008
 H237 H 0.80596 -0.18482 0.05328
 H238 H 0.82432 -0.18436 -0.42186
 C239 C 0.34904 0.34610 0.21108
 C240 C 0.35489 0.35702 0.35494
 C241 C 0.33878 0.34577 0.47713
 C242 C 0.31692 0.32366 0.45568
 C243 C 0.31091 0.31250 0.31144
 C244 C 0.32721 0.32399 0.18931
 C245 C 0.37748 0.37967 0.37713
 C246 C 0.39646 0.39859 0.39557
 C247 C 0.41874 0.42068 0.41728
 C248 C 0.43781 0.43948 0.43619
 H249 H 0.36139 0.35464 0.11571
 H250 H 0.34314 0.35407 0.58901
 H251 H 0.30478 0.31530 0.55202
 H252 H 0.32313 0.31590 0.07688
 C253 C 0.16021 0.65459 -0.02196
 C254 C 0.14409 0.64339 -0.14421
 C255 C 0.14994 0.65434 -0.28801
 C256 C 0.17179 0.67643 -0.30967
 C257 C 0.18812 0.68787 -0.18749
 C258 C 0.18209 0.67668 -0.04330
 C259 C 0.12150 0.62073 -0.12215
 C260 C 0.10253 0.60179 -0.10380
 C261 C 0.08028 0.57967 -0.08221
 C262 C 0.06123 0.56084 -0.06343
 H263 H 0.15586 0.64627 0.08987
 H264 H 0.13758 0.64583 -0.38343
 H265 H 0.17588 0.68454 -0.42206
 H266 H 0.19425 0.68501 0.05307
 C267 C 0.65095 1.15429 0.21112
 C268 C 0.64525 1.14324 0.35478
 C269 C 0.66151 1.15433 0.47673
 C270 C 0.68338 1.17642 0.45536
 C271 C 0.68935 1.18781 0.31109
 C272 C 0.67279 1.17637 0.18917
 C273 C 0.62264 1.12060 0.37702
 C274 C 0.60366 1.10169 0.39548
 C275 C 0.58137 1.07960 0.41719
 C276 C 0.56230 1.06080 0.43610
 H277 H 0.63848 1.14585 0.11591
 H278 H 0.65725 1.14592 0.58850
 H279 H 0.69555 1.18454 0.55217
 H280 H 0.67662 1.18445 0.07645
 C281 C 0.14977 0.34595 0.28794
 C282 C 0.14394 0.35693 0.14418
 C283 C 0.16004 0.34571 0.02188
 C284 C 0.18189 0.32358 0.04314
 C285 C 0.18790 0.31238 0.18729
 C286 C 0.17160 0.32382 0.30952
 C287 C 0.12139 0.37963 0.12220
 C288 C 0.10245 0.39859 0.10389
 C289 C 0.08022 0.42074 0.08231
 C290 C 0.06120 0.43960 0.06350
 H291 H 0.13744 0.35447 0.38339
 H292 H 0.15569 0.35405 -0.08992
 H293 H 0.19403 0.31525 -0.05326
 H294 H 0.17568 0.31569 0.42188
 C295 C 0.66119 0.84580 0.52263
 C296 C 0.64509 0.85705 0.64483
 C297 C 0.65092 0.84612 0.78869
 C298 C 0.67274 0.82400 0.81046
 C299 C 0.68904 0.81250 0.68833
 C300 C 0.68304 0.82367 0.54409
 C301 C 0.62252 0.87973 0.62265
 C302 C 0.60357 0.89867 0.60423
 C303 C 0.58132 0.92080 0.58256
 C304 C 0.56227 0.93963 0.56369
 H305 H 0.65685 0.85410 0.41076
 H306 H 0.63858 0.85468 0.88406
 H307 H 0.67681 0.81590 0.92289
 H308 H 0.69517 0.81530 0.44776
 C309 C 0.84965 0.15347 0.28858
 C310 C 0.85555 0.14256 0.14476
 C311 C 0.83940 0.15371 0.02250
 C312 C 0.81744 0.17572 0.04384
 C313 C 0.81136 0.18687 0.18803
 C314 C 0.82771 0.17547 0.31023
 C315 C 0.87826 0.12000 0.12268
 C316 C 0.89732 0.10116 0.10431
 C317 C 0.91968 0.07915 0.08269
 C318 C 0.93881 0.06040 0.06385
 H319 H 0.86203 0.14499 0.38400
 H320 H 0.84381 0.14542 -0.08934
 H321 H 0.80527 0.18402 -0.05254
 H322 H 0.82359 0.18357 0.42263
 C323 C 0.33903 0.65445 0.52241
 C324 C 0.35514 0.64320 0.64460
 C325 C 0.34930 0.65413 0.78847
 C326 C 0.32747 0.67623 0.81024
 C327 C 0.31116 0.68772 0.68812
 C328 C 0.31718 0.67656 0.54387
 C329 C 0.37773 0.62054 0.62244
 C330 C 0.39669 0.60160 0.60404
 C331 C 0.41894 0.57948 0.58242
 C332 C 0.43798 0.56064 0.56361
 H333 H 0.34339 0.64615 0.41053
 H334 H 0.36165 0.64558 0.88384
 H335 H 0.32339 0.68432 0.92267
 H336 H 0.30504 0.68492 0.44754
   
