data_POSCAR
  _audit_creation_date              2014-09-24
  _audit_creation_method            'ToBaCCo'
  _symmetry_space_group_name_H-M    'P1'
  _symmetry_Int_Tables_number       1
  _symmetry_cell_setting            triclinic
  loop_
  _symmetry_equiv_pos_as_xyz
 x,y,z
_cell_length_a 58.8962
_cell_length_b 33.5205
_cell_length_c 20.3127
_cell_angle_alpha 89.970800
_cell_angle_beta 89.857600
_cell_angle_gamma 90.183900
loop_
  _atom_site_label
  _atom_site_type_symbol
  _atom_site_fract_x
  _atom_site_fract_y
  _atom_site_fract_z
C1 C 0.74856 0.24514 0.46997
 C2 C 0.74855 0.24573 0.53711
 C3 C 0.72919 0.26214 0.57550
 C4 C 0.76801 0.23012 0.57554
 C5 C 0.76690 0.22511 0.43207
 C6 C 0.73044 0.26485 0.43117
 C7 C 0.73315 0.29166 0.62317
 C8 C 0.71511 0.30779 0.65903
 C9 C 0.69288 0.29435 0.64802
 C10 C 0.68885 0.26436 0.60133
 C11 C 0.70693 0.24820 0.56551
 C12 C 0.79011 0.24476 0.56497
 C13 C 0.80839 0.22884 0.59986
 C14 C 0.80472 0.19849 0.64608
 C15 C 0.78267 0.18448 0.65797
 C16 C 0.76438 0.20034 0.62307
 C17 C 0.77222 0.18482 0.44332
 C18 C 0.79014 0.16684 0.40928
 C19 C 0.80273 0.18880 0.36318
 C20 C 0.79712 0.22863 0.35054
 C21 C 0.77924 0.24665 0.38460
 C22 C 0.71840 0.24300 0.38366
 C23 C 0.70097 0.26097 0.34788
 C24 C 0.69553 0.30105 0.35884
 C25 C 0.70778 0.32325 0.40515
 C26 C 0.72524 0.30533 0.44092
 H27 H 0.75020 0.30263 0.63186
 H28 H 0.71856 0.33091 0.69501
 H29 H 0.67178 0.25347 0.59235
 H30 H 0.70357 0.22490 0.52989
 H31 H 0.79318 0.26823 0.52937
 H32 H 0.82538 0.24001 0.59051
 H33 H 0.74744 0.18886 0.63215
 H34 H 0.76265 0.16749 0.47888
 H35 H 0.79427 0.13596 0.41923
 H36 H 0.80672 0.24587 0.31488
 H37 H 0.77532 0.27766 0.37499
 H38 H 0.72226 0.21185 0.37514
 H39 H 0.69162 0.24355 0.31204
 H40 H 0.70378 0.35434 0.41379
 H41 H 0.73463 0.32290 0.47641
 H42 H 0.77965 0.16105 0.69373
 C43 C 0.24913 0.74517 0.46548
 C44 C 0.24911 0.74466 0.53262
 C45 C 0.23102 0.76460 0.57144
 C46 C 0.26737 0.72455 0.57047
 C47 C 0.26857 0.72942 0.42690
 C48 C 0.22981 0.76162 0.42724
 C49 C 0.22597 0.80512 0.56151
 C50 C 0.20849 0.82324 0.59712
 C51 C 0.19606 0.80119 0.64346
 C52 C 0.20135 0.76108 0.65463
 C53 C 0.21881 0.74290 0.61900
 C54 C 0.27970 0.74605 0.61781
 C55 C 0.29755 0.72796 0.65172
 C56 C 0.30313 0.68812 0.63907
 C57 C 0.29054 0.66621 0.59314
 C58 C 0.27266 0.68425 0.55924
 C59 C 0.26490 0.69971 0.37938
 C60 C 0.28317 0.68377 0.34427
 C61 C 0.30524 0.69763 0.35592
 C62 C 0.30896 0.72790 0.40215
 C63 C 0.29070 0.74390 0.43725
 C64 C 0.20752 0.74776 0.43755
 C65 C 0.18949 0.76402 0.40192
 C66 C 0.19358 0.79395 0.35521
 C67 C 0.21579 0.80731 0.34384
 C68 C 0.23382 0.79112 0.37946
 H69 H 0.23548 0.82256 0.52596
 H70 H 0.20459 0.85436 0.58832
 H71 H 0.19187 0.74378 0.69048
 H72 H 0.22255 0.71172 0.62764
 H73 H 0.27582 0.77707 0.62741
 H74 H 0.30715 0.74517 0.68726
 H75 H 0.26309 0.66695 0.52380
 H76 H 0.24795 0.68836 0.37046
 H77 H 0.28011 0.66041 0.30850
 H78 H 0.32597 0.73895 0.41132
 H79 H 0.29381 0.76733 0.47283
 H80 H 0.20412 0.72449 0.47326
 H81 H 0.17238 0.75335 0.41092
 H82 H 0.21915 0.83040 0.30775
 H83 H 0.25088 0.80204 0.37051
 H84 H 0.29464 0.63531 0.58319
 C85 C 0.24870 0.25493 -0.46764
 C86 C 0.24857 0.25552 -0.53478
 C87 C 0.26688 0.27560 -0.57305
 C88 C 0.23032 0.23568 -0.57317
 C89 C 0.22936 0.23853 -0.42888
 C90 C 0.26829 0.27055 -0.42957
 C91 C 0.27237 0.31587 -0.56187
 C92 C 0.29031 0.33388 -0.59609
 C93 C 0.30278 0.31194 -0.64236
 C94 C 0.29697 0.27210 -0.65496
 C95 C 0.27906 0.25409 -0.62069
 C96 C 0.21819 0.25744 -0.62045
 C97 C 0.20063 0.23935 -0.65580
 C98 C 0.19515 0.19921 -0.64461
 C99 C 0.20752 0.17710 -0.59850
 C100 C 0.22510 0.19518 -0.56320
 C101 C 0.23332 0.20905 -0.38116
 C102 C 0.21529 0.19302 -0.34483
 C103 C 0.19311 0.20651 -0.35542
 C104 C 0.18909 0.23642 -0.40217
 C105 C 0.20713 0.25250 -0.43848
 C106 C 0.29033 0.25598 -0.44056
 C107 C 0.30872 0.27181 -0.40581
 C108 C 0.30521 0.30199 -0.35931
 C109 C 0.28323 0.31595 -0.34704
 C110 C 0.26484 0.30019 -0.38180
 H111 H 0.26291 0.33317 -0.52617
 H112 H 0.29453 0.36477 -0.58603
 H113 H 0.30642 0.25478 -0.69071
 H114 H 0.27500 0.22309 -0.63025
 H115 H 0.22207 0.28861 -0.62912
 H116 H 0.19124 0.25679 -0.69144
 H117 H 0.23456 0.17769 -0.52787
 H118 H 0.25034 0.19806 -0.37275
 H119 H 0.21868 0.16996 -0.30877
 H120 H 0.17203 0.24728 -0.41070
 H121 H 0.20378 0.27577 -0.47413
 H122 H 0.29327 0.23260 -0.47633
 H123 H 0.32565 0.26068 -0.41545
 H124 H 0.28034 0.33924 -0.31105
 H125 H 0.24795 0.31160 -0.37238
 H126 H 0.20354 0.14596 -0.58956
 C127 C -0.25132 0.75517 -0.46914
 C128 C -0.25126 0.75468 -0.53629
 C129 C -0.23174 0.77054 -0.57472
 C130 C -0.27057 0.73814 -0.57465
 C131 C -0.26949 0.73521 -0.43032
 C132 C -0.23300 0.77528 -0.43125
 C133 C -0.23528 0.80042 -0.62200
 C134 C -0.21693 0.81655 -0.65684
 C135 C -0.19489 0.80271 -0.64513
 C136 C -0.19132 0.77222 -0.59912
 C137 C -0.20967 0.75605 -0.56434
 C138 C -0.29285 0.75181 -0.56445
 C139 C -0.31088 0.73548 -0.60022
 C140 C -0.30681 0.70562 -0.64703
 C141 C -0.28458 0.69247 -0.65827
 C142 C -0.26656 0.70874 -0.62248
 C143 C -0.27468 0.69470 -0.44017
 C144 C -0.29216 0.67651 -0.40432
 C145 C -0.30446 0.69852 -0.35779
 C146 C -0.29902 0.73868 -0.34677
 C147 C -0.28156 0.75687 -0.38265
 C148 C -0.22071 0.75374 -0.38403
 C149 C -0.20283 0.77183 -0.35004
 C150 C -0.19717 0.81173 -0.36249
 C151 C -0.20972 0.83369 -0.40834
 C152 C -0.22763 0.81563 -0.44232
 H153 H -0.25219 0.81177 -0.63093
 H154 H -0.21995 0.84005 -0.69239
 H155 H -0.17437 0.76109 -0.58978
 H156 H -0.20667 0.73250 -0.52892
 H157 H -0.29624 0.77502 -0.52871
 H158 H -0.32797 0.74609 -0.59118
 H159 H -0.24951 0.69798 -0.63135
 H160 H -0.26525 0.67728 -0.47578
 H161 H -0.29610 0.64536 -0.41314
 H162 H -0.30836 0.75604 -0.31081
 H163 H -0.27770 0.78805 -0.37406
 H164 H -0.22466 0.72267 -0.37458
 H165 H -0.19326 0.75459 -0.31458
 H166 H -0.20555 0.86463 -0.41815
 H167 H -0.23716 0.83296 -0.47770
 H168 H -0.28115 0.66945 -0.69439
 O169 O -0.03150 0.92997 0.11849
 O170 O -0.05647 0.96634 0.05586
 C171 C -0.05183 0.94044 0.10118
 O172 O 0.03253 1.07106 0.11893
 O173 O 0.05748 1.03428 0.05680
 C174 C 0.05285 1.06091 0.10094
 O175 O -0.03108 1.06735 0.12535
 O176 O -0.05603 1.03270 0.06004
 C177 C -0.05140 1.05719 0.10743
 O178 O 0.03210 0.92584 0.11257
 O179 O 0.05717 0.96489 0.05420
 C180 C 0.05245 0.93675 0.09584
 Zr181 Zr 0.00043 0.94821 0.08028
 O182 O 0.00061 0.94044 0.18363
 O183 O -0.00043 0.88580 0.06594
 Zr184 Zr 0.00064 1.04924 0.08615
 O185 O 0.00280 1.04717 0.19011
 O186 O -0.00180 1.11224 0.08835
 O187 O -0.01960 0.99845 0.09626
 O188 O 0.02023 0.99857 0.09537
 O189 O 0.03260 0.92994 -0.11763
 O190 O 0.05754 0.96740 -0.05631
 C191 C 0.05292 0.94049 -0.10004
 O192 O -0.03131 1.07176 -0.11630
 O193 O -0.05636 1.03444 -0.05470
 C194 C -0.05166 1.06083 -0.09931
 O195 O 0.03253 1.07568 -0.11056
 O196 O 0.05752 1.03638 -0.05307
 C197 C 0.05287 1.06475 -0.09419
 O198 O -0.03100 0.93348 -0.12465
 O199 O -0.05600 0.96802 -0.05932
 C200 C -0.05134 0.94356 -0.10674
 Zr201 Zr 0.00068 0.95172 -0.08535
 O202 O 0.00335 0.95340 -0.18926
 O203 O -0.00161 0.88869 -0.08702
 Zr204 Zr 0.00061 1.05261 -0.08004
 O205 O 0.00320 1.05499 -0.18394
 O206 O -0.00194 1.11554 -0.07569
 Zr207 Zr -0.03327 1.00040 0.00041
 Zr208 Zr 0.03442 1.00071 0.00033
 O209 O 0.02035 1.00251 -0.09479
 O210 O -0.01957 1.00233 -0.09559
 O211 O 0.02092 0.94243 -0.00281
 O212 O -0.01914 1.05812 0.00355
 O213 O -0.01938 0.94269 -0.00282
 O214 O 0.02091 1.05886 0.00338
 H215 H 0.03050 0.99803 0.13389
 H216 H -0.02944 1.08143 0.00485
 H217 H 0.03061 1.00326 -0.13351
 H218 H -0.02981 0.91944 -0.00396
 H219 H 0.01122 1.12313 0.06320
 H220 H 0.01103 1.12548 -0.04952
 H221 H -0.00937 1.03881 -0.20216
 H222 H -0.00881 0.97105 -0.20567
 H223 H 0.01026 0.87829 -0.05725
 H224 H -0.00115 0.87383 0.11049
 H225 H 0.00581 0.96583 0.20318
 H226 H -0.00933 1.02901 0.20590
 O227 O 0.46865 0.43239 0.12286
 O228 O 0.44388 0.46739 0.05757
 C229 C 0.44837 0.44268 0.10477
 O230 O 0.53280 0.57399 0.11069
 O231 O 0.55777 0.53481 0.05272
 C232 C 0.55313 0.56303 0.09413
 O233 O 0.46901 0.57024 0.11646
 O234 O 0.44401 0.53336 0.05439
 C235 C 0.44867 0.55952 0.09931
 O236 O 0.53254 0.42842 0.11715
 O237 O 0.55764 0.46574 0.05573
 C238 C 0.55291 0.43887 0.09953
 Zr239 Zr 0.50070 0.45019 0.08452
 O240 O 0.50311 0.45140 0.18846
 O241 O 0.49796 0.38720 0.08602
 Zr242 Zr 0.50095 0.55113 0.07989
 O243 O 0.50335 0.55324 0.18379
 O244 O 0.49849 0.61409 0.07591
 O245 O 0.48061 0.50091 0.09507
 O246 O 0.52049 0.50085 0.09433
 O247 O 0.53286 0.42475 -0.11234
 O248 O 0.55780 0.46391 -0.05410
 C249 C 0.55318 0.43570 -0.09556
 O250 O 0.46921 0.56640 -0.12481
 O251 O 0.44415 0.53138 -0.05976
 C252 C 0.44884 0.55611 -0.10688
 O253 O 0.53311 0.57033 -0.11866
 O254 O 0.55791 0.53298 -0.05713
 C255 C 0.55339 0.55990 -0.10089
 O256 O 0.46937 0.42808 -0.11945
 O257 O 0.44442 0.46483 -0.05743
 C258 C 0.44906 0.43878 -0.10246
 Zr259 Zr 0.50098 0.44751 -0.08175
 O260 O 0.50370 0.44525 -0.18561
 O261 O 0.49828 0.38456 -0.07691
 Zr262 Zr 0.50110 0.54849 -0.08641
 O263 O 0.50380 0.54705 -0.19034
 O264 O 0.49862 0.61148 -0.08833
 Zr265 Zr 0.46715 0.49938 -0.00103
 Zr266 Zr 0.53471 0.49935 -0.00081
 O267 O 0.52074 0.49782 -0.09606
 O268 O 0.48084 0.49778 -0.09702
 O269 O 0.52112 0.44108 0.00183
 O270 O 0.48129 0.55710 -0.00363
 O271 O 0.48104 0.44164 0.00162
 O272 O 0.52132 0.55760 -0.00355
 H273 H 0.53067 0.50149 0.13307
 H274 H 0.47098 0.58040 -0.00471
 H275 H 0.53103 0.49720 -0.13470
 H276 H 0.47064 0.41836 0.00265
 H277 H 0.51154 0.62405 0.04987
 H278 H 0.51154 0.62229 -0.06287
 H279 H 0.49118 0.53039 -0.20703
 H280 H 0.49173 0.46265 -0.20382
 H281 H 0.51146 0.37464 -0.05172
 H282 H 0.51104 0.37641 0.06121
 H283 H 0.49081 0.46875 0.20499
 H284 H 0.49091 0.53662 0.20187
 C285 C 0.32076 0.32897 0.32587
 C286 C 0.33685 0.34369 0.29801
 C287 C 0.35621 0.36083 0.26494
 C288 C 0.35915 0.40232 0.26309
 C289 C 0.37803 0.41887 0.23114
 C290 C 0.39406 0.39400 0.20095
 C291 C 0.39111 0.35252 0.20284
 C292 C 0.37224 0.33598 0.23477
 C293 C 0.41339 0.41101 0.16756
 C294 C 0.42946 0.42535 0.13917
 H295 H 0.34687 0.42181 0.28629
 H296 H 0.38012 0.45099 0.22989
 H297 H 0.40338 0.33301 0.17959
 H298 H 0.37014 0.30386 0.23594
 C299 C -0.17696 0.81931 0.32240
 C300 C -0.16110 0.83433 0.29400
 C301 C -0.14220 0.85256 0.26047
 C302 C -0.12532 0.82876 0.23199
 C303 C -0.10690 0.84655 0.19966
 C304 C -0.10530 0.88820 0.19573
 C305 C -0.12219 0.91199 0.22419
 C306 C -0.14061 0.89420 0.25651
 C307 C -0.08638 0.90652 0.16248
 C308 C -0.07056 0.92196 0.13455
 H309 H -0.12639 0.79653 0.23482
 H310 H -0.09393 0.82789 0.17779
 H311 H -0.12112 0.94423 0.22141
 H312 H -0.15357 0.91287 0.27841
 C313 C 0.67563 0.68902 0.31900
 C314 C 0.66020 0.67383 0.28904
 C315 C 0.64191 0.65514 0.25357
 C316 C 0.62479 0.67838 0.22519
 C317 C 0.60691 0.66003 0.19136
 C318 C 0.60611 0.61838 0.18575
 C319 C 0.62328 0.59518 0.21391
 C320 C 0.64114 0.61351 0.24771
 C321 C 0.58748 0.59933 0.15231
 C322 C 0.57183 0.58298 0.12519
 H323 H 0.62521 0.71059 0.22944
 H324 H 0.59370 0.67826 0.16990
 H325 H 0.62280 0.56295 0.21001
 H326 H 0.65429 0.59525 0.26948
 C327 C 0.17767 1.18189 0.32212
 C328 C 0.16207 1.16668 0.29301
 C329 C 0.14334 1.14861 0.25871
 C330 C 0.12845 1.17231 0.22198
 C331 C 0.11006 1.15480 0.18937
 C332 C 0.10649 1.11352 0.19340
 C333 C 0.12142 1.08982 0.22997
 C334 C 0.13980 1.10732 0.26257
 C335 C 0.08748 1.09546 0.16040
 C336 C 0.07161 1.07995 0.13308
 H337 H 0.13102 1.20427 0.21875
 H338 H 0.09862 1.17340 0.16124
 H339 H 0.11881 1.05787 0.23341
 H340 H 0.15120 1.08873 0.29091
 C341 C 0.67599 0.31012 -0.31928
 C342 C 0.66052 0.32511 -0.28924
 C343 C 0.64219 0.34359 -0.25367
 C344 C 0.64356 0.38404 -0.23674
 C345 C 0.62563 0.40229 -0.20314
 C346 C 0.60625 0.38017 -0.18626
 C347 C 0.60491 0.33966 -0.20288
 C348 C 0.62285 0.32140 -0.23651
 C349 C 0.58758 0.39931 -0.15323
 C350 C 0.57190 0.41571 -0.12637
 H351 H 0.65842 0.40149 -0.24981
 H352 H 0.62682 0.43366 -0.19070
 H353 H 0.58998 0.32230 -0.19022
 H354 H 0.62160 0.29011 -0.24940
 C355 C 0.17767 0.81953 -0.32117
 C356 C 0.16212 0.83475 -0.29193
 C357 C 0.14342 0.85282 -0.25752
 C358 C 0.14064 0.89430 -0.25886
 C359 C 0.12227 0.91182 -0.22626
 C360 C 0.10659 0.88792 -0.19223
 C361 C 0.10941 0.84645 -0.19069
 C362 C 0.12779 0.82893 -0.22329
 C363 C 0.08758 0.90600 -0.15933
 C364 C 0.07170 0.92149 -0.13209
 H365 H 0.15261 0.91304 -0.28525
 H366 H 0.12024 0.94392 -0.22776
 H367 H 0.09738 0.82770 -0.16454
 H368 H 0.12977 0.79681 -0.22203
 C369 C 0.32205 0.67006 -0.32765
 C370 C 0.33806 0.65533 -0.30001
 C371 C 0.35733 0.63815 -0.26712
 C372 C 0.36012 0.59666 -0.26542
 C373 C 0.37889 0.58007 -0.23351
 C374 C 0.39495 0.60491 -0.20322
 C375 C 0.39216 0.64639 -0.20499
 C376 C 0.37340 0.66297 -0.23688
 C377 C 0.41414 0.58785 -0.16979
 C378 C 0.43009 0.57348 -0.14136
 H379 H 0.34781 0.57719 -0.28867
 H380 H 0.38086 0.54795 -0.23235
 H381 H 0.40445 0.66586 -0.18166
 H382 H 0.37142 0.69508 -0.23794
 C383 C -0.17641 1.18121 -0.31950
 C384 C -0.16062 1.16637 -0.29106
 C385 C -0.14180 1.14831 -0.25749
 C386 C -0.12510 1.17226 -0.22824
 C387 C -0.10674 1.15462 -0.19597
 C388 C -0.10502 1.11298 -0.19286
 C389 C -0.12173 1.08904 -0.22205
 C390 C -0.14008 1.10668 -0.25431
 C391 C -0.08613 1.09480 -0.15982
 C392 C -0.07035 1.07939 -0.13218
 H393 H -0.12626 1.20448 -0.23046
 H394 H -0.09390 1.17339 -0.17355
 H395 H -0.12055 1.05681 -0.21992
 H396 H -0.15290 1.08790 -0.27680
 C397 C 0.67815 0.68110 -0.32396
 C398 C 0.66263 0.66584 -0.29435
 C399 C 0.64397 0.64774 -0.25946
 C400 C 0.62834 0.67165 -0.22565
 C401 C 0.60998 0.65410 -0.19265
 C402 C 0.60719 0.61258 -0.19336
 C403 C 0.62287 0.58867 -0.22694
 C404 C 0.64123 0.60621 -0.25994
 C405 C 0.58815 0.59448 -0.16024
 C406 C 0.57223 0.57895 -0.13291
 H407 H 0.63029 0.70380 -0.22505
 H408 H 0.59794 0.67286 -0.16686
 H409 H 0.62086 0.55653 -0.22782
 H410 H 0.65320 0.58746 -0.28600
 C411 C 0.17554 1.19023 -0.32079
 C412 C 0.16010 1.17536 -0.29024
 C413 C 0.14179 1.15705 -0.25403
 C414 C 0.12157 1.17796 -0.24301
 C415 C 0.10365 1.15977 -0.20888
 C416 C 0.10588 1.12061 -0.18562
 C417 C 0.12615 1.09980 -0.19633
 C418 C 0.14406 1.11798 -0.23043
 C419 C 0.08723 1.10141 -0.15225
 C420 C 0.07157 1.08490 -0.12518
 H421 H 0.11962 1.20816 -0.26111
 H422 H 0.08802 1.17609 -0.20105
 H423 H 0.12804 1.06948 -0.17874
 H424 H 0.15961 1.10152 -0.23874
 C425 C 0.32418 0.31912 -0.32489
 C426 C 0.34003 0.33387 -0.29634
 C427 C 0.35889 0.35182 -0.26255
 C428 C 0.37556 0.32780 -0.23372
 C429 C 0.39393 0.34534 -0.20108
 C430 C 0.39568 0.38697 -0.19718
 C431 C 0.37901 0.41099 -0.22598
 C432 C 0.36064 0.39345 -0.25861
 C433 C 0.41457 0.40505 -0.16372
 C434 C 0.43036 0.42035 -0.13572
 H435 H 0.37436 0.29558 -0.23653
 H436 H 0.40673 0.32651 -0.17897
 H437 H 0.38021 0.44321 -0.22324
 H438 H 0.34785 0.41229 -0.28076
 C439 C -0.17823 0.82981 -0.32906
 C440 C -0.16220 0.84455 -0.30126
 C441 C -0.14292 0.86170 -0.26816
 C442 C -0.14026 0.90322 -0.26507
 C443 C -0.12148 0.91978 -0.23293
 C444 C -0.10527 0.89489 -0.20380
 C445 C -0.10792 0.85338 -0.20697
 C446 C -0.12670 0.83683 -0.23909
 C447 C -0.08607 0.91190 -0.17012
 C448 C -0.07011 0.92624 -0.14147
 H449 H -0.15268 0.92273 -0.28741
 H450 H -0.11961 0.95192 -0.23069
 H451 H -0.09552 0.83386 -0.18454
 H452 H -0.12858 0.80469 -0.24121
 C453 C 0.32409 0.68027 0.32125
 C454 C 0.33985 0.66536 0.29256
 C455 C 0.35863 0.64722 0.25869
 C456 C 0.37539 0.67110 0.22930
 C457 C 0.39371 0.65338 0.19672
 C458 C 0.39532 0.61174 0.19345
 C459 C 0.37855 0.58787 0.22277
 C460 C 0.36024 0.60558 0.25533
 C461 C 0.41419 0.59348 0.16016
 C462 C 0.42996 0.57805 0.13234
 H463 H 0.37430 0.70333 0.23166
 H464 H 0.40659 0.67210 0.17421
 H465 H 0.37965 0.55563 0.22052
 H466 H 0.34737 0.58686 0.27793
 C467 C -0.17833 1.17079 0.32966
 C468 C -0.16231 1.15609 0.30181
 C469 C -0.14303 1.13896 0.26866
 C470 C -0.12680 1.16384 0.23901
 C471 C -0.10802 1.14730 0.20689
 C472 C -0.10538 1.10581 0.20431
 C473 C -0.12160 1.08091 0.23400
 C474 C -0.14038 1.09746 0.26614
 C475 C -0.08617 1.08880 0.17068
 C476 C -0.07019 1.07448 0.14209
 H477 H -0.12866 1.19596 0.24069
 H478 H -0.09560 1.16683 0.18403
 H479 H -0.11975 1.04878 0.23222
 H480 H -0.15282 1.07794 0.28892
 C481 C 0.67719 0.31919 0.32319
 C482 C 0.66168 0.33422 0.29368
 C483 C 0.64305 0.35206 0.25887
 C484 C 0.62775 0.32800 0.22398
 C485 C 0.60944 0.34529 0.19094
 C486 C 0.60637 0.38670 0.19269
 C487 C 0.62171 0.41077 0.22741
 C488 C 0.64001 0.39348 0.26044
 C489 C 0.58742 0.40455 0.15936
 C490 C 0.57160 0.41992 0.13182
 H491 H 0.62993 0.29593 0.22253
 H492 H 0.59767 0.32641 0.16427
 H493 H 0.61948 0.44282 0.22909
 H494 H 0.65173 0.41234 0.28734
 C495 C 0.17501 0.81140 0.31947
 C496 C 0.15958 0.82651 0.28969
 C497 C 0.14126 0.84509 0.25444
 C498 C 0.12345 0.82191 0.22926
 C499 C 0.10554 0.84016 0.19574
 C500 C 0.10538 0.88165 0.18725
 C501 C 0.12324 0.90479 0.21220
 C502 C 0.14114 0.88655 0.24570
 C503 C 0.08674 0.90063 0.15405
 C504 C 0.07110 0.91690 0.12700
 H505 H 0.12337 0.78983 0.23576
 H506 H 0.09179 0.82200 0.17676
 H507 H 0.12327 0.93690 0.20605
 H508 H 0.15482 0.90476 0.26499
   
