data_POSCAR
  _audit_creation_date              2014-09-24
  _audit_creation_method            'ToBaCCo'
  _symmetry_space_group_name_H-M    'P1'
  _symmetry_Int_Tables_number       1
  _symmetry_cell_setting            triclinic
  loop_
  _symmetry_equiv_pos_as_xyz
 x,y,z
_cell_length_a 52.2616
_cell_length_b 52.3752
_cell_length_c 52.5600
_cell_angle_alpha 89.999400
_cell_angle_beta 89.995300
_cell_angle_gamma 90.002900
loop_
  _atom_site_label
  _atom_site_type_symbol
  _atom_site_fract_x
  _atom_site_fract_y
  _atom_site_fract_z
N1 N 0.27994 0.22876 0.20877
 N2 N 0.26922 0.24907 0.19853
 C3 C 0.28269 0.25598 0.17776
 C4 C 0.30275 0.23911 0.17506
 C5 C 0.30053 0.22210 0.19490
 H6 H 0.27830 0.27198 0.16550
 H7 H 0.31291 0.20604 0.19886
 Cu8 Cu 0.23878 0.26410 0.21362
 Cu9 Cu 0.26621 0.21213 0.23907
 Cu10 Cu 0.21145 0.23862 0.26549
 N11 N 0.20823 0.27911 0.22854
 N12 N 0.19761 0.26890 0.24886
 C13 C 0.17690 0.28269 0.25541
 C14 C 0.17456 0.30249 0.23835
 C15 C 0.19460 0.29980 0.22153
 H16 H 0.16451 0.27867 0.27140
 H17 H 0.19890 0.31205 0.20552
 N18 N 0.22838 0.20808 0.27953
 N19 N 0.24938 0.19812 0.26963
 C20 C 0.25632 0.17763 0.28354
 C21 C 0.23884 0.17472 0.30293
 C22 C 0.22141 0.19418 0.29996
 H23 H 0.27279 0.16569 0.27988
 H24 H 0.20492 0.19788 0.31183
 H25 H 0.22872 0.22331 0.23360
 H26 H 0.24887 0.24410 0.25428
 N27 N 0.71984 -0.22883 0.20804
 N28 N 0.73044 -0.24925 0.19793
 C29 C 0.71696 -0.25621 0.17717
 C30 C 0.69699 -0.23924 0.17439
 C31 C 0.69928 -0.22210 0.19414
 H32 H 0.72127 -0.27230 0.16500
 H33 H 0.68694 -0.20599 0.19807
 Cu34 Cu 0.76086 -0.26442 0.21305
 Cu35 Cu 0.73351 -0.21229 0.23842
 Cu36 Cu 0.78772 -0.23934 0.26538
 N37 N 0.79123 -0.27961 0.22824
 N38 N 0.80163 -0.26965 0.24878
 C39 C 0.82235 -0.28347 0.25533
 C40 C 0.82493 -0.30298 0.23794
 C41 C 0.80502 -0.30013 0.22099
 H42 H 0.83460 -0.27960 0.27148
 H43 H 0.80097 -0.31206 0.20468
 N44 N 0.77084 -0.20871 0.27938
 N45 N 0.75018 -0.19841 0.26913
 C46 C 0.74336 -0.17778 0.28289
 C47 C 0.76054 -0.17512 0.30258
 C48 C 0.77769 -0.19490 0.29992
 H49 H 0.72716 -0.16556 0.27893
 H50 H 0.79392 -0.19884 0.31205
 H51 H 0.77095 -0.22374 0.23325
 H52 H 0.75034 -0.24442 0.25361
 N53 N 0.72058 0.22862 0.79133
 N54 N 0.73104 0.24916 0.80135
 C55 C 0.71747 0.25613 0.82204
 C56 C 0.69761 0.23904 0.82493
 C57 C 0.70005 0.22185 0.80525
 H58 H 0.72164 0.27233 0.83412
 H59 H 0.68780 0.20566 0.80140
 Cu60 Cu 0.76143 0.26437 0.78619
 Cu61 Cu 0.73433 0.21203 0.76104
 Cu62 Cu 0.78854 0.23913 0.73408
 N63 N 0.79186 0.27957 0.77109
 N64 N 0.80239 0.26953 0.75065
 C65 C 0.82309 0.28338 0.74411
 C66 C 0.82553 0.30302 0.76141
 C67 C 0.80555 0.30017 0.77829
 H68 H 0.83542 0.27947 0.72804
 H69 H 0.80138 0.31217 0.79451
 N70 N 0.77171 0.20843 0.72013
 N71 N 0.75107 0.19811 0.73040
 C72 C 0.74421 0.17751 0.71662
 C73 C 0.76134 0.17489 0.69688
 C74 C 0.77850 0.19467 0.69954
 H75 H 0.72798 0.16532 0.72056
 H76 H 0.79467 0.19867 0.68734
 H77 H 0.77172 0.22363 0.76625
 H78 H 0.75110 0.24415 0.74573
 N79 N 0.27977 -0.22860 0.79179
 N80 N 0.26926 -0.24913 0.80179
 C81 C 0.28287 -0.25620 0.82240
 C82 C 0.30281 -0.23922 0.82530
 C83 C 0.30038 -0.22196 0.80567
 H84 H 0.27868 -0.27245 0.83441
 H85 H 0.31271 -0.20583 0.80180
 Cu86 Cu 0.23885 -0.26446 0.78678
 Cu87 Cu 0.26600 -0.21205 0.76151
 Cu88 Cu 0.21180 -0.23914 0.73455
 N89 N 0.20844 -0.27953 0.77151
 N90 N 0.19791 -0.26950 0.75105
 C91 C 0.17728 -0.28345 0.74445
 C92 C 0.17490 -0.30313 0.76171
 C93 C 0.19484 -0.30021 0.77862
 H94 H 0.16499 -0.27961 0.72834
 H95 H 0.19908 -0.31224 0.79480
 N96 N 0.22860 -0.20842 0.72063
 N97 N 0.24924 -0.19810 0.73089
 C98 C 0.25609 -0.17750 0.71709
 C99 C 0.23895 -0.17489 0.69737
 C100 C 0.22179 -0.19465 0.70005
 H101 H 0.27233 -0.16532 0.72101
 H102 H 0.20561 -0.19865 0.68786
 H103 H 0.22864 -0.22370 0.76668
 H104 H 0.24926 -0.24427 0.74621
 N105 N 0.72071 -0.22863 0.79164
 N106 N 0.73128 -0.24908 0.80171
 C107 C 0.71764 -0.25621 0.82230
 C108 C 0.69766 -0.23926 0.82512
 C109 C 0.70004 -0.22204 0.80546
 H110 H 0.72182 -0.27244 0.83432
 H111 H 0.68764 -0.20600 0.80150
 Cu112 Cu 0.76169 -0.26423 0.78657
 Cu113 Cu 0.73443 -0.21199 0.76135
 Cu114 Cu 0.78880 -0.23885 0.73452
 N115 N 0.79213 -0.27934 0.77143
 N116 N 0.80267 -0.26922 0.75104
 C117 C 0.82326 -0.28315 0.74433
 C118 C 0.82562 -0.30290 0.76147
 C119 C 0.80567 -0.30012 0.77839
 H120 H 0.83549 -0.27927 0.72818
 H121 H 0.80137 -0.31233 0.79443
 N122 N 0.77199 -0.20817 0.72061
 N123 N 0.75123 -0.19798 0.73076
 C124 C 0.74430 -0.17745 0.71691
 C125 C 0.76153 -0.17474 0.69727
 C126 C 0.77882 -0.19437 0.70006
 H127 H 0.72794 -0.16540 0.72071
 H128 H 0.79506 -0.19829 0.68793
 H129 H 0.75127 -0.24420 0.74599
 H130 H 0.77175 -0.22351 0.76650
 N131 N 0.27972 0.22831 0.79147
 N132 N 0.26922 0.24883 0.80147
 C133 C 0.28275 0.25587 0.82216
 C134 C 0.30265 0.23885 0.82504
 C135 C 0.30026 0.22161 0.80541
 H136 H 0.27855 0.27209 0.83422
 H137 H 0.31251 0.20542 0.80160
 Cu138 Cu 0.23886 0.26408 0.78642
 Cu139 Cu 0.26600 0.21175 0.76119
 Cu140 Cu 0.21184 0.23883 0.73418
 N141 N 0.20850 0.27916 0.77119
 N142 N 0.19803 0.26914 0.75073
 C143 C 0.17733 0.28297 0.74419
 C144 C 0.17484 0.30257 0.76148
 C145 C 0.19479 0.29973 0.77838
 H146 H 0.16500 0.27906 0.72813
 H147 H 0.19889 0.31176 0.79461
 N148 N 0.22866 0.20820 0.72028
 N149 N 0.24928 0.19786 0.73055
 C150 C 0.25608 0.17723 0.71679
 C151 C 0.23892 0.17465 0.69709
 C152 C 0.22181 0.19443 0.69973
 H153 H 0.27225 0.16498 0.72076
 H154 H 0.20561 0.19842 0.68756
 H155 H 0.24920 0.24396 0.74583
 H156 H 0.22855 0.22339 0.76631
 N157 N 0.27991 -0.22852 0.20868
 N158 N 0.26926 -0.24891 0.19854
 C159 C 0.28284 -0.25602 0.17792
 C160 C 0.30287 -0.23914 0.17514
 C161 C 0.30058 -0.22197 0.19485
 H162 H 0.27860 -0.27220 0.16586
 H163 H 0.31305 -0.20598 0.19885
 Cu164 Cu 0.23888 -0.26402 0.21364
 Cu165 Cu 0.26623 -0.21197 0.23902
 Cu166 Cu 0.21197 -0.23899 0.26597
 N167 N 0.20850 -0.27913 0.22874
 N168 N 0.19812 -0.26923 0.24931
 C169 C 0.17753 -0.28317 0.25594
 C170 C 0.17501 -0.30269 0.23858
 C171 C 0.19486 -0.29975 0.22160
 H172 H 0.16535 -0.27945 0.27216
 H173 H 0.19898 -0.31176 0.20537
 N174 N 0.22881 -0.20837 0.27990
 N175 N 0.24947 -0.19806 0.26966
 C176 C 0.25627 -0.17744 0.28343
 C177 C 0.23907 -0.17483 0.30310
 C178 C 0.22194 -0.19459 0.30043
 H179 H 0.27249 -0.16523 0.27951
 H180 H 0.20572 -0.19857 0.31258
 H181 H 0.24936 -0.24426 0.25430
 H182 H 0.22877 -0.22347 0.23400
 N183 N 0.72016 0.22830 0.20843
 N184 N 0.73061 0.24885 0.19846
 C185 C 0.71712 0.25584 0.17774
 C186 C 0.69728 0.23876 0.17482
 C187 C 0.69966 0.22154 0.19446
 H188 H 0.72133 0.27203 0.16567
 H189 H 0.68742 0.20534 0.19825
 Cu190 Cu 0.76098 0.26400 0.21355
 Cu191 Cu 0.73389 0.21170 0.23870
 Cu192 Cu 0.78806 0.23879 0.26571
 N193 N 0.79129 0.27916 0.22871
 N194 N 0.80182 0.26912 0.24913
 C195 C 0.82250 0.28297 0.25566
 C196 C 0.82490 0.30260 0.23839
 C197 C 0.80497 0.29974 0.22151
 H198 H 0.83486 0.27909 0.27170
 H199 H 0.80085 0.31174 0.20528
 N200 N 0.77125 0.20814 0.27961
 N201 N 0.75063 0.19779 0.26933
 C202 C 0.74381 0.17719 0.28312
 C203 C 0.76096 0.17462 0.30284
 C204 C 0.77808 0.19440 0.30018
 H205 H 0.72762 0.16495 0.27917
 H206 H 0.79426 0.19841 0.31236
 H207 H 0.75073 0.24385 0.25407
 H208 H 0.77137 0.22334 0.23356
 C209 C 0.23893 -0.02330 0.55394
 C210 C 0.23893 -0.00010 0.56691
 C211 C 0.23889 0.02311 0.55393
 C212 C 0.23889 0.02343 0.52707
 C213 C 0.23890 -0.00008 0.51358
 C214 C 0.23892 -0.02360 0.52706
 C215 C 0.23893 -0.04663 0.51333
 C216 C 0.23892 -0.04661 0.48680
 C217 C 0.23889 -0.02356 0.47309
 C218 C 0.23889 -0.00006 0.48659
 C219 C 0.23887 0.04648 0.51336
 C220 C 0.23887 0.04650 0.48683
 C221 C 0.23887 0.02346 0.47311
 C222 C 0.23886 0.02317 0.44623
 C223 C 0.23887 -0.00002 0.43325
 C224 C 0.23888 -0.02323 0.44622
 H225 H 0.23895 -0.06486 0.52305
 H226 H 0.23893 -0.06483 0.47707
 H227 H 0.23887 0.06471 0.52309
 H228 H 0.23886 0.06473 0.47712
 H229 H 0.23895 -0.00009 0.58758
 H230 H 0.23888 -0.00002 0.41258
 C231 C 0.76092 -0.02343 0.44595
 C232 C 0.76093 -0.00023 0.43298
 C233 C 0.76098 0.02298 0.44595
 C234 C 0.76100 0.02330 0.47282
 C235 C 0.76099 -0.00021 0.48632
 C236 C 0.76095 -0.02373 0.47283
 C237 C 0.76095 -0.04676 0.48657
 C238 C 0.76098 -0.04674 0.51311
 C239 C 0.76102 -0.02369 0.52682
 C240 C 0.76102 -0.00018 0.51332
 C241 C 0.76102 0.04635 0.48653
 C242 C 0.76104 0.04637 0.51306
 C243 C 0.76104 0.02334 0.52679
 C244 C 0.76106 0.02306 0.55367
 C245 C 0.76106 -0.00015 0.56666
 C246 C 0.76105 -0.02336 0.55369
 H247 H 0.76092 -0.06499 0.47685
 H248 H 0.76098 -0.06496 0.52284
 H249 H 0.76102 0.06458 0.47680
 H250 H 0.76105 0.06461 0.52277
 H251 H 0.76089 -0.00022 0.41230
 H252 H 0.76107 -0.00013 0.58733
 C253 C 0.44583 0.23921 -0.02315
 C254 C 0.43279 0.23923 -0.00002
 C255 C 0.44586 0.23922 0.02309
 C256 C 0.47289 0.23923 0.02337
 C257 C 0.48644 0.23922 -0.00007
 C258 C 0.47286 0.23922 -0.02349
 C259 C 0.48663 0.23924 -0.04646
 C260 C 0.51332 0.23922 -0.04649
 C261 C 0.52713 0.23920 -0.02355
 C262 C 0.51359 0.23921 -0.00011
 C263 C 0.48670 0.23925 0.04632
 C264 C 0.51339 0.23923 0.04629
 C265 C 0.52716 0.23920 0.02331
 C266 C 0.55419 0.23917 0.02297
 C267 C 0.56723 0.23918 -0.00016
 C268 C 0.55417 0.23917 -0.02327
 H269 H 0.47684 0.23925 -0.06462
 H270 H 0.52307 0.23923 -0.06467
 H271 H 0.47694 0.23926 0.06449
 H272 H 0.52317 0.23924 0.06445
 H273 H 0.41200 0.23925 -0.00001
 H274 H 0.58802 0.23921 -0.00017
 C275 C 0.44626 0.76069 -0.02282
 C276 C 0.43318 0.76068 0.00029
 C277 C 0.44621 0.76067 0.02343
 C278 C 0.47325 0.76069 0.02377
 C279 C 0.48684 0.76069 0.00036
 C280 C 0.47330 0.76070 -0.02309
 C281 C 0.48713 0.76073 -0.04603
 C282 C 0.51382 0.76073 -0.04600
 C283 C 0.52759 0.76072 -0.02302
 C284 C 0.51400 0.76070 0.00039
 C285 C 0.48703 0.76071 0.04675
 C286 C 0.51371 0.76072 0.04678
 C287 C 0.52755 0.76071 0.02384
 C288 C 0.55459 0.76072 0.02357
 C289 C 0.56766 0.76073 0.00045
 C290 C 0.55463 0.76072 -0.02269
 H291 H 0.47737 0.76075 -0.06420
 H292 H 0.52361 0.76075 -0.06415
 H293 H 0.47723 0.76072 0.06490
 H294 H 0.52346 0.76074 0.06496
 H295 H 0.41239 0.76071 0.00028
 H296 H 0.58845 0.76076 0.00047
 C297 C -0.02391 0.55441 0.23823
 C298 C -0.00068 0.56747 0.23826
 C299 C 0.02259 0.55449 0.23827
 C300 C 0.02299 0.52753 0.23829
 C301 C -0.00052 0.51394 0.23828
 C302 C -0.02413 0.52741 0.23825
 C303 C -0.04717 0.51357 0.23825
 C304 C -0.04707 0.48694 0.23827
 C305 C -0.02392 0.47325 0.23830
 C306 C -0.00041 0.48685 0.23831
 C307 C 0.04614 0.51383 0.23832
 C308 C 0.04624 0.48721 0.23834
 C309 C 0.02320 0.47337 0.23834
 C310 C 0.02297 0.44639 0.23837
 C311 C -0.00024 0.43332 0.23835
 C312 C -0.02351 0.44629 0.23832
 H313 H -0.06547 0.52326 0.23824
 H314 H -0.06530 0.47712 0.23827
 H315 H 0.06438 0.52363 0.23833
 H316 H 0.06454 0.47751 0.23836
 H317 H -0.00071 0.58821 0.23829
 H318 H -0.00019 0.41257 0.23835
 C319 C 0.02298 0.44618 0.76157
 C320 C -0.00029 0.43318 0.76154
 C321 C -0.02355 0.44621 0.76156
 C322 C -0.02379 0.47322 0.76157
 C323 C -0.00019 0.48674 0.76158
 C324 C 0.02334 0.47316 0.76159
 C325 C 0.04647 0.48690 0.76161
 C326 C 0.04653 0.51353 0.76163
 C327 C 0.02348 0.52736 0.76162
 C328 C -0.00012 0.51385 0.76159
 C329 C -0.04684 0.48704 0.76156
 C330 C -0.04677 0.51369 0.76157
 C331 C -0.02365 0.52744 0.76158
 C332 C -0.02329 0.55443 0.76158
 C333 C 0.00001 0.56741 0.76161
 C334 C 0.02326 0.55436 0.76164
 H335 H 0.06472 0.47712 0.76161
 H336 H 0.06482 0.52324 0.76164
 H337 H -0.06512 0.47731 0.76155
 H338 H -0.06503 0.52347 0.76157
 H339 H -0.00029 0.41244 0.76151
 H340 H 0.00004 0.58815 0.76162
 C341 C 0.32213 0.23926 0.15572
 C342 C 0.33851 0.23930 0.13960
 C343 C 0.35811 0.23934 0.12040
 C344 C 0.35153 0.24279 0.09481
 C345 C 0.37057 0.24283 0.07615
 C346 C 0.39628 0.23944 0.08296
 C347 C 0.40289 0.23599 0.10855
 C348 C 0.38381 0.23596 0.12725
 C349 C 0.41553 0.23930 0.06340
 C350 C 0.43032 0.23925 0.04581
 H351 H 0.33173 0.24542 0.08930
 H352 H 0.36524 0.24543 0.05639
 H353 H 0.42268 0.23328 0.11402
 H354 H 0.38906 0.23328 0.14701
 C355 C 0.67857 0.76054 0.15613
 C356 C 0.66212 0.76047 0.14005
 C357 C 0.64244 0.76058 0.12089
 C358 C 0.61799 0.75109 0.12647
 C359 C 0.59882 0.75136 0.10786
 C360 C 0.60407 0.76114 0.08360
 C361 C 0.62854 0.77059 0.07805
 C362 C 0.64766 0.77031 0.09663
 C363 C 0.58488 0.76089 0.06396
 C364 C 0.57012 0.76078 0.04632
 H365 H 0.61379 0.74345 0.14517
 H366 H 0.58004 0.74386 0.11233
 H367 H 0.63285 0.77806 0.05931
 H368 H 0.66651 0.77763 0.09207
 C369 C 0.67816 0.23921 -0.15578
 C370 C 0.66170 0.23927 -0.13971
 C371 C 0.64201 0.23937 -0.12057
 C372 C 0.61716 0.23128 -0.12660
 C373 C 0.59803 0.23137 -0.10795
 C374 C 0.60370 0.23960 -0.08323
 C375 C 0.62856 0.24765 -0.07723
 C376 C 0.64766 0.24755 -0.09584
 C377 C 0.58448 0.23932 -0.06362
 C378 C 0.56971 0.23921 -0.04601
 H379 H 0.61263 0.22485 -0.14566
 H380 H 0.57893 0.22497 -0.11276
 H381 H 0.63320 0.25390 -0.05812
 H382 H 0.66681 0.25378 -0.09093
 C383 C 0.32226 0.76050 -0.15539
 C384 C 0.33869 0.76042 -0.13928
 C385 C 0.35836 0.76052 -0.12010
 C386 C 0.38327 0.75264 -0.12614
 C387 C 0.40242 0.75290 -0.10751
 C388 C 0.39670 0.76106 -0.08278
 C389 C 0.37178 0.76892 -0.07676
 C390 C 0.35267 0.76866 -0.09536
 C391 C 0.41593 0.76086 -0.06317
 C392 C 0.43072 0.76075 -0.04556
 H393 H 0.38785 0.74629 -0.14522
 H394 H 0.42157 0.74667 -0.11235
 H395 H 0.36711 0.77515 -0.05766
 H396 H 0.33348 0.77476 -0.09044
 C397 C 0.15540 0.32210 0.23837
 C398 C 0.13939 0.33864 0.23840
 C399 C 0.12038 0.35847 0.23834
 C400 C 0.11691 0.37379 0.25992
 C401 C 0.09852 0.39320 0.25978
 C402 C 0.08360 0.39739 0.23803
 C403 C 0.08700 0.38196 0.21651
 C404 C 0.10538 0.36257 0.21665
 C405 C 0.06362 0.41627 0.23827
 C406 C 0.04585 0.43093 0.23835
 H407 H 0.12831 0.37064 0.27685
 H408 H 0.09573 0.40471 0.27669
 H409 H 0.07525 0.38472 0.19975
 H410 H 0.10779 0.35070 0.19994
 C411 C 0.15675 0.67823 0.76189
 C412 C 0.14066 0.66170 0.76199
 C413 C 0.12136 0.64204 0.76195
 C414 C 0.12786 0.61670 0.76767
 C415 C 0.10906 0.59763 0.76746
 C416 C 0.08367 0.60384 0.76152
 C417 C 0.07721 0.62918 0.75583
 C418 C 0.09597 0.64821 0.75605
 C419 C 0.06392 0.58462 0.76163
 C420 C 0.04618 0.56987 0.76165
 H421 H 0.14744 0.61173 0.77230
 H422 H 0.11429 0.57814 0.77196
 H423 H 0.05763 0.63425 0.75129
 H424 H 0.09068 0.66772 0.75164
 C425 C -0.15681 0.67852 0.23775
 C426 C -0.14070 0.66204 0.23769
 C427 C -0.12157 0.64225 0.23782
 C428 C -0.11890 0.62595 0.21684
 C429 C -0.10042 0.60661 0.21711
 C430 C -0.08460 0.60345 0.23839
 C431 C -0.08720 0.61984 0.25931
 C432 C -0.10566 0.63917 0.25904
 C433 C -0.06458 0.58455 0.23824
 C434 C -0.04679 0.56989 0.23821
 H435 H -0.13100 0.62828 0.20027
 H436 H -0.09830 0.59434 0.20065
 H437 H -0.07478 0.61786 0.27570
 H438 H -0.10744 0.65176 0.27530
 C439 C -0.15627 0.32161 0.76160
 C440 C -0.14020 0.33815 0.76169
 C441 C -0.12102 0.35791 0.76164
 C442 C -0.09681 0.35308 0.75129
 C443 C -0.07821 0.37228 0.75106
 C444 C -0.08370 0.39645 0.76116
 C445 C -0.10789 0.40128 0.77160
 C446 C -0.12652 0.38205 0.77182
 C447 C -0.06404 0.41576 0.76140
 C448 C -0.04640 0.43063 0.76151
 H449 H -0.09230 0.33448 0.74344
 H450 H -0.05951 0.36824 0.74311
 H451 H -0.11230 0.41981 0.77963
 H452 H -0.14516 0.38596 0.77995
 C453 C 0.23887 0.15553 0.32244
 C454 C 0.23885 0.13951 0.33889
 C455 C 0.23884 0.12038 0.35853
 C456 C 0.23553 0.12743 0.38406
 C457 C 0.23559 0.10880 0.40315
 C458 C 0.23896 0.08306 0.39673
 C459 C 0.24223 0.07604 0.37120
 C460 C 0.24216 0.09464 0.35215
 C461 C 0.23887 0.06355 0.41599
 C462 C 0.23885 0.04595 0.43076
 H463 H 0.23290 0.14730 0.38916
 H464 H 0.23299 0.11442 0.42281
 H465 H 0.24478 0.05618 0.36603
 H466 H 0.24469 0.08896 0.33249
 C467 C 0.76125 0.15566 0.67739
 C468 C 0.76121 0.13958 0.66097
 C469 C 0.76115 0.12040 0.64135
 C470 C 0.76469 0.12737 0.61584
 C471 C 0.76458 0.10872 0.59676
 C472 C 0.76093 0.08301 0.60317
 C473 C 0.75742 0.07606 0.62868
 C474 C 0.75753 0.09469 0.64773
 C475 C 0.76102 0.06347 0.58392
 C476 C 0.76106 0.04585 0.56915
 H477 H 0.76754 0.14721 0.61073
 H478 H 0.76737 0.11430 0.57711
 H479 H 0.75466 0.05622 0.63386
 H480 H 0.75482 0.08904 0.66738
 C481 C 0.23903 -0.15569 0.67784
 C482 C 0.23906 -0.13965 0.66139
 C483 C 0.23908 -0.12050 0.64174
 C484 C 0.24282 -0.09480 0.64806
 C485 C 0.24286 -0.07620 0.62899
 C486 C 0.23918 -0.08318 0.60350
 C487 C 0.23540 -0.10887 0.59716
 C488 C 0.23536 -0.12751 0.61626
 C489 C 0.23904 -0.06367 0.58423
 C490 C 0.23897 -0.04608 0.56943
 H491 H 0.24566 -0.08914 0.66768
 H492 H 0.24573 -0.05636 0.63412
 H493 H 0.23247 -0.11447 0.57753
 H494 H 0.23241 -0.14733 0.61119
 C495 C 0.76057 -0.15581 0.32199
 C496 C 0.76063 -0.13970 0.33838
 C497 C 0.76068 -0.12054 0.35803
 C498 C 0.76389 -0.12763 0.38355
 C499 C 0.76387 -0.10901 0.40267
 C500 C 0.76064 -0.08325 0.39630
 C501 C 0.75748 -0.07619 0.37076
 C502 C 0.75750 -0.09477 0.35167
 C503 C 0.76078 -0.06377 0.41561
 C504 C 0.76085 -0.04621 0.43044
 H505 H 0.76640 -0.14751 0.38864
 H506 H 0.76639 -0.11468 0.42233
 H507 H 0.75503 -0.05630 0.36561
 H508 H 0.75505 -0.08905 0.33201
 C509 C 0.67826 0.76052 -0.15554
 C510 C 0.66189 0.76050 -0.13938
 C511 C 0.64231 0.76062 -0.12014
 C512 C 0.61736 0.75284 -0.12612
 C513 C 0.59829 0.75307 -0.10742
 C514 C 0.60413 0.76111 -0.08268
 C515 C 0.62909 0.76888 -0.07672
 C516 C 0.64813 0.76864 -0.09539
 C517 C 0.58496 0.76090 -0.06302
 C518 C 0.57020 0.76079 -0.04540
 H519 H 0.61270 0.74657 -0.14521
 H520 H 0.57910 0.74692 -0.11222
 H521 H 0.63384 0.77501 -0.05760
 H522 H 0.66735 0.77465 -0.09052
 C523 C 0.32208 0.23909 -0.15567
 C524 C 0.33850 0.23922 -0.13959
 C525 C 0.35813 0.23936 -0.12043
 C526 C 0.38337 0.23302 -0.12684
 C527 C 0.40246 0.23310 -0.10816
 C528 C 0.39631 0.23956 -0.08304
 C529 C 0.37105 0.24587 -0.07666
 C530 C 0.35200 0.24579 -0.09530
 C531 C 0.41552 0.23933 -0.06345
 C532 C 0.43029 0.23924 -0.04585
 H533 H 0.38826 0.22798 -0.14623
 H534 H 0.42189 0.22805 -0.11327
 H535 H 0.36607 0.25074 -0.05724
 H536 H 0.33254 0.25067 -0.09012
 C537 C 0.32225 0.76058 0.15580
 C538 C 0.33863 0.76050 0.13967
 C539 C 0.35833 0.76060 0.12057
 C540 C 0.35992 0.78082 0.10321
 C541 C 0.37926 0.78108 0.08483
 C542 C 0.39710 0.76113 0.08373
 C543 C 0.39543 0.74084 0.10101
 C544 C 0.37608 0.74059 0.11941
 C545 C 0.41599 0.76086 0.06384
 C546 C 0.43066 0.76073 0.04614
 H547 H 0.34618 0.79631 0.10382
 H548 H 0.38014 0.79669 0.07132
 H549 H 0.40889 0.72514 0.10011
 H550 H 0.37489 0.72478 0.13265
 C551 C 0.67788 0.23899 0.15551
 C552 C 0.66147 0.23914 0.13943
 C553 C 0.64182 0.23932 0.12029
 C554 C 0.61714 0.23063 0.12612
 C555 C 0.59804 0.23076 0.10746
 C556 C 0.60360 0.23964 0.08294
 C557 C 0.62829 0.24831 0.07714
 C558 C 0.64736 0.24817 0.09577
 C559 C 0.58445 0.23935 0.06331
 C560 C 0.56972 0.23922 0.04568
 H561 H 0.61272 0.22370 0.14504
 H562 H 0.57907 0.22386 0.11210
 H563 H 0.63283 0.25505 0.05818
 H564 H 0.66639 0.25488 0.09104
 C565 C -0.15619 0.67854 0.76155
 C566 C -0.14011 0.66203 0.76162
 C567 C -0.12100 0.64224 0.76169
 C568 C -0.10775 0.63642 0.78412
 C569 C -0.08929 0.61708 0.78420
 C570 C -0.08401 0.60345 0.76186
 C571 C -0.09715 0.60938 0.73939
 C572 C -0.11562 0.62872 0.73931
 C573 C -0.06392 0.58464 0.76168
 C574 C -0.04612 0.56999 0.76160
 H575 H -0.11159 0.64690 0.80148
 H576 H -0.07894 0.61296 0.80158
 H577 H -0.09293 0.59928 0.72190
 H578 H -0.12560 0.63324 0.72181
 C579 C -0.15599 0.32222 0.23823
 C580 C -0.13998 0.33875 0.23817
 C581 C -0.12084 0.35843 0.23819
 C582 C -0.09506 0.35196 0.24134
 C583 C -0.07641 0.37105 0.24146
 C584 C -0.08346 0.39668 0.23845
 C585 C -0.10925 0.40319 0.23529
 C586 C -0.12793 0.38406 0.23517
 C587 C -0.06391 0.41596 0.23837
 C588 C -0.04628 0.43075 0.23833
 H589 H -0.08938 0.33220 0.24368
 H590 H -0.05649 0.36582 0.24387
 H591 H -0.11488 0.42295 0.23290
 H592 H -0.14786 0.38921 0.23272
 C593 C 0.15559 0.32210 0.76166
 C594 C 0.13954 0.33860 0.76172
 C595 C 0.12054 0.35844 0.76170
 C596 C 0.11211 0.36898 0.78471
 C597 C 0.09372 0.38838 0.78465
 C598 C 0.08375 0.39734 0.76157
 C599 C 0.09211 0.38670 0.73857
 C600 C 0.11050 0.36731 0.73863
 C601 C 0.06364 0.41608 0.76157
 C602 C 0.04581 0.43067 0.76157
 H603 H 0.11963 0.36212 0.80266
 H604 H 0.08704 0.39613 0.80257
 H605 H 0.08419 0.39314 0.72064
 H606 H 0.11677 0.35913 0.72075
 C607 C 0.15576 0.67781 0.23833
 C608 C 0.13964 0.66139 0.23820
 C609 C 0.12048 0.64173 0.23826
 C610 C 0.10445 0.63878 0.25940
 C611 C 0.08593 0.61954 0.25960
 C612 C 0.08338 0.60317 0.23867
 C613 C 0.09934 0.60619 0.21746
 C614 C 0.11788 0.62545 0.21727
 C615 C 0.06326 0.58449 0.23841
 C616 C 0.04541 0.56997 0.23831
 H617 H 0.10618 0.65141 0.27563
 H618 H 0.07342 0.61761 0.27593
 H619 H 0.09726 0.59388 0.20103
 H620 H 0.13007 0.62773 0.20075
 C621 C 0.76135 -0.15563 0.67767
 C622 C 0.76125 -0.13964 0.66117
 C623 C 0.76115 -0.12053 0.64150
 C624 C 0.75797 -0.09477 0.64787
 C625 C 0.75788 -0.07618 0.62880
 C626 C 0.76095 -0.08323 0.60325
 C627 C 0.76416 -0.10899 0.59684
 C628 C 0.76425 -0.12761 0.61595
 C629 C 0.76103 -0.06372 0.58398
 C630 C 0.76105 -0.04613 0.56919
 H631 H 0.75560 -0.08905 0.66754
 H632 H 0.75545 -0.05629 0.63397
 H633 H 0.76661 -0.11464 0.57717
 H634 H 0.76676 -0.14749 0.61085
 C635 C 0.23905 -0.15560 0.32255
 C636 C 0.23898 -0.13954 0.33895
 C637 C 0.23890 -0.12039 0.35856
 C638 C 0.23519 -0.12740 0.38404
 C639 C 0.23524 -0.10876 0.40312
 C640 C 0.23901 -0.08308 0.39674
 C641 C 0.24266 -0.07610 0.37125
 C642 C 0.24260 -0.09470 0.35220
 C643 C 0.23891 -0.06358 0.41598
 C644 C 0.23888 -0.04599 0.43075
 H645 H 0.23225 -0.14723 0.38911
 H646 H 0.23233 -0.11435 0.42275
 H647 H 0.24551 -0.05626 0.36611
 H648 H 0.24542 -0.08905 0.33257
 C649 C 0.76094 0.15543 0.32233
 C650 C 0.76097 0.13940 0.33876
 C651 C 0.76100 0.12025 0.35837
 C652 C 0.76464 0.12724 0.38386
 C653 C 0.76459 0.10858 0.40293
 C654 C 0.76088 0.08290 0.39652
 C655 C 0.75728 0.07594 0.37102
 C656 C 0.75734 0.09456 0.35199
 C657 C 0.76097 0.06336 0.41574
 C658 C 0.76100 0.04575 0.43049
 H659 H 0.76753 0.14707 0.38896
 H660 H 0.76745 0.11416 0.42257
 H661 H 0.75447 0.05611 0.36585
 H662 H 0.75455 0.08893 0.33235
 C663 C 0.23895 0.15546 0.67760
 C664 C 0.23893 0.13944 0.66116
 C665 C 0.23892 0.12032 0.64153
 C666 C 0.24232 0.09460 0.64792
 C667 C 0.24237 0.07600 0.62888
 C668 C 0.23901 0.08300 0.60336
 C669 C 0.23556 0.10872 0.59694
 C670 C 0.23552 0.12737 0.61602
 C671 C 0.23891 0.06349 0.58413
 C672 C 0.23889 0.04588 0.56939
 H673 H 0.24492 0.08894 0.66758
 H674 H 0.24498 0.05614 0.63405
 H675 H 0.23289 0.11433 0.57728
 H676 H 0.23283 0.14722 0.61092
   
