data_POSCAR
  _audit_creation_date              2014-09-24
  _audit_creation_method            'ToBaCCo'
  _symmetry_space_group_name_H-M    'P1'
  _symmetry_Int_Tables_number       1
  _symmetry_cell_setting            triclinic
  loop_
  _symmetry_equiv_pos_as_xyz
 x,y,z
_cell_length_a 41.2742
_cell_length_b 39.9182
_cell_length_c 8.9893
_cell_angle_alpha 90.397300
_cell_angle_beta 89.999700
_cell_angle_gamma 90.077200
loop_
  _atom_site_label
  _atom_site_type_symbol
  _atom_site_fract_x
  _atom_site_fract_y
  _atom_site_fract_z
O1 O 0.22399 0.27989 0.09549
 O2 O 0.28573 0.21503 0.15370
 O3 O 0.22348 0.21482 0.10200
 O4 O 0.28576 0.28009 0.15989
 O5 O 0.27500 0.28049 0.40088
 O6 O 0.21321 0.21531 0.34342
 O7 O 0.27545 0.21541 0.39515
 O8 O 0.21324 0.28035 0.33649
 Cu9 Cu 0.25582 0.24743 0.10362
 Cu10 Cu 0.24314 0.24795 0.39313
 C11 C 0.20797 0.29087 0.20572
 C12 C 0.29124 0.20444 0.28381
 C13 C 0.20769 0.20422 0.21343
 C14 C 0.29104 0.29108 0.29055
 O15 O 0.71425 0.28433 0.15307
 O16 O 0.77598 0.21926 0.09567
 O17 O 0.71422 0.21930 0.16007
 O18 O 0.77649 0.28435 0.10136
 O19 O 0.78677 0.28476 0.34278
 O20 O 0.72498 0.21979 0.40107
 O21 O 0.78674 0.21969 0.33666
 O22 O 0.72453 0.28485 0.39452
 Cu23 Cu 0.74415 0.25175 0.10339
 Cu24 Cu 0.75684 0.25230 0.39290
 C25 C 0.70874 0.29541 0.28306
 C26 C 0.79201 0.20869 0.20602
 C27 C 0.70893 0.20879 0.29086
 C28 C 0.79229 0.29537 0.21267
 O29 O 0.78656 0.71627 0.65800
 O30 O 0.72509 0.78138 0.59947
 O31 O 0.78689 0.78133 0.66377
 O32 O 0.72435 0.71633 0.60623
 O33 O 0.71407 0.71693 0.84768
 O34 O 0.77614 0.78184 0.90474
 O35 O 0.71434 0.78195 0.84046
 O36 O 0.77628 0.71675 0.89944
 Cu37 Cu 0.75681 0.74880 0.60772
 Cu38 Cu 0.74413 0.74946 0.89724
 C39 C 0.79200 0.70565 0.78814
 C40 C 0.70909 0.79243 0.70962
 C41 C 0.79225 0.79233 0.79437
 C42 C 0.70853 0.70581 0.71775
 O43 O 0.28568 0.78494 0.84592
 O44 O 0.22402 0.71985 0.90448
 O45 O 0.28576 0.71989 0.84004
 O46 O 0.22341 0.78492 0.89752
 O47 O 0.21315 0.78432 0.65609
 O48 O 0.27501 0.71937 0.59904
 O49 O 0.21327 0.71928 0.66348
 O50 O 0.27542 0.78445 0.60446
 Cu51 Cu 0.25580 0.75245 0.89614
 Cu52 Cu 0.24312 0.75179 0.60663
 C53 C 0.29120 0.79550 0.71574
 C54 C 0.20802 0.70876 0.79430
 C55 C 0.29105 0.70886 0.70945
 C56 C 0.20760 0.79542 0.78601
 C57 C 0.99964 0.08697 0.09363
 C58 C 1.02864 0.06912 0.08993
 C59 C 1.02847 0.03477 0.05754
 C60 C 0.99935 0.01794 0.01925
 C61 C 0.97035 0.03692 0.01997
 C62 C 0.97048 0.07084 0.06093
 C63 C 0.99929 -0.01886 -0.02103
 C64 C 0.97022 -0.03781 -0.02183
 C65 C 0.97023 -0.07174 -0.06278
 C66 C 0.99934 -0.08789 -0.09539
 C67 C 1.02840 -0.07008 -0.09160
 C68 C 1.02835 -0.03572 -0.05922
 H69 H 0.99976 0.11344 0.12182
 H70 H 1.05131 0.02174 0.06353
 H71 H 0.94742 0.02598 -0.01164
 H72 H 0.94732 -0.02684 0.00971
 H73 H 0.99937 -0.11436 -0.12356
 H74 H 1.05124 -0.02272 -0.06515
 C75 C 0.49887 0.58750 0.59717
 C76 C 0.52790 0.56972 0.59319
 C77 C 0.52780 0.53541 0.55996
 C78 C 0.49873 0.51857 0.52105
 C79 C 0.46969 0.53749 0.52209
 C80 C 0.46975 0.57137 0.56390
 C81 C 0.49875 0.48184 0.47977
 C82 C 0.46974 0.46281 0.47862
 C83 C 0.46983 0.42893 0.43680
 C84 C 0.49898 0.41291 0.40363
 C85 C 0.52799 0.43081 0.40772
 C86 C 0.52784 0.46512 0.44097
 H87 H 0.49894 0.61395 0.62597
 H88 H 0.55066 0.52241 0.56575
 H89 H 0.44679 0.52654 0.49005
 H90 H 0.44682 0.47367 0.51058
 H91 H 0.49908 0.38647 0.37481
 H92 H 0.55070 0.47820 0.43526
 C93 C 0.00037 0.41227 0.09293
 C94 C -0.02864 0.43009 0.08951
 C95 C -0.02847 0.46438 0.05786
 C96 C 0.00065 0.48115 0.02006
 C97 C 0.02965 0.46218 0.02050
 C98 C 0.02953 0.42833 0.06070
 C99 C 0.00071 0.51787 -0.01938
 C100 C 0.02978 0.53682 -0.01986
 C101 C 0.02976 0.57067 -0.06002
 C102 C 0.00065 0.58676 -0.09217
 C103 C -0.02841 0.56896 -0.08871
 C104 C -0.02836 0.53466 -0.05710
 H105 H 0.00024 0.38585 0.12058
 H106 H -0.05132 0.47741 0.06407
 H107 H 0.05259 0.47306 -0.01074
 H108 H 0.05269 0.52592 0.01132
 H109 H 0.00061 0.61317 -0.11977
 H110 H -0.05125 0.52165 -0.06326
 C111 C 0.50111 0.91313 0.59524
 C112 C 0.47207 0.93090 0.59123
 C113 C 0.47218 0.96514 0.55852
 C114 C 0.50126 0.98190 0.52018
 C115 C 0.53030 0.96299 0.52125
 C116 C 0.53024 0.92921 0.56254
 C117 C 0.50125 1.01854 0.47949
 C118 C 0.53026 1.03757 0.47854
 C119 C 0.53017 1.07135 0.43727
 C120 C 0.50103 1.08731 0.40446
 C121 C 0.47201 1.06943 0.40835
 C122 C 0.47215 1.03519 0.44104
 H123 H 0.50103 0.88676 0.62368
 H124 H 0.44931 0.97813 0.56431
 H125 H 0.55322 0.97387 0.48966
 H126 H 0.55319 1.02678 0.51021
 H127 H 0.50092 1.11368 0.37604
 H128 H 0.44929 1.02210 0.43517
 C129 C 1.18376 0.18127 0.19344
 C130 C 1.16174 0.16168 0.17814
 C131 C 1.13508 0.13978 0.16202
 C132 C 1.11162 0.12203 0.14842
 C133 C 1.08339 0.10238 0.13133
 C134 C 1.05871 0.08663 0.11440
 C135 C 0.68319 0.68162 0.69687
 C136 C 0.66109 0.66213 0.68188
 C137 C 0.63436 0.64031 0.66594
 C138 C 0.61086 0.62261 0.65238
 C139 C 0.58262 0.60299 0.63519
 C140 C 0.55795 0.58725 0.61805
 C141 C -0.18377 0.31823 0.19243
 C142 C -0.16175 0.33777 0.17701
 C143 C -0.13508 0.35961 0.16085
 C144 C -0.11162 0.37732 0.14730
 C145 C -0.08339 0.39692 0.13037
 C146 C -0.05871 0.41263 0.11365
 C147 C 0.31651 0.81964 0.69433
 C148 C 0.33864 0.83905 0.67908
 C149 C 0.36543 0.86073 0.66304
 C150 C 0.38899 0.87832 0.64953
 C151 C 0.41730 0.89779 0.63254
 C152 C 0.44201 0.91344 0.61568
 C153 C -0.18290 0.68134 -0.19055
 C154 C -0.16099 0.66173 -0.17539
 C155 C -0.13447 0.63978 -0.15947
 C156 C -0.11112 0.62196 -0.14610
 C157 C -0.08301 0.60224 -0.12933
 C158 C -0.05842 0.58646 -0.11273
 C159 C 0.31654 1.18036 0.30510
 C160 C 0.33865 1.16098 0.32029
 C161 C 0.36541 1.13934 0.33631
 C162 C 0.38895 1.12178 0.34985
 C163 C 0.41723 1.10236 0.36689
 C164 C 0.44194 1.08678 0.38382
 C165 C 1.18361 -0.18176 -0.19414
 C166 C 1.16155 -0.16228 -0.17899
 C167 C 1.13483 -0.14052 -0.16306
 C168 C 1.11134 -0.12286 -0.14962
 C169 C 1.08310 -0.10330 -0.13272
 C170 C 1.05843 -0.08760 -0.11594
 C171 C 0.68344 0.31957 0.30409
 C172 C 0.66134 0.33901 0.31916
 C173 C 0.63459 0.36071 0.33513
 C174 C 0.61106 0.37831 0.34870
 C175 C 0.58277 0.39778 0.36585
 C176 C 0.55807 0.41340 0.38294
 C177 C 0.81630 -0.18499 -0.18265
 C178 C 0.83826 -0.16563 -0.16078
 C179 C 0.86471 -0.14392 -0.13470
 C180 C 0.88792 -0.12617 -0.11342
 C181 C 0.91585 -0.10631 -0.09105
 C182 C 0.94031 -0.09013 -0.07552
 C183 C 0.31632 0.31519 0.31504
 C184 C 0.33821 0.33461 0.33723
 C185 C 0.36457 0.35642 0.36369
 C186 C 0.38772 0.37424 0.38528
 C187 C 0.41556 0.39420 0.40799
 C188 C 0.43996 0.41046 0.42378
 C189 C 0.18286 0.68461 -0.18091
 C190 C 0.16109 0.66512 -0.15857
 C191 C 0.13486 0.64324 -0.13207
 C192 C 0.11181 0.62535 -0.11055
 C193 C 0.08404 0.60534 -0.08805
 C194 C 0.05966 0.58907 -0.07254
 C195 C 0.68366 1.18476 0.31559
 C196 C 0.66178 1.16540 0.33791
 C197 C 0.63542 1.14367 0.36443
 C198 C 0.61229 1.12591 0.38602
 C199 C 0.58445 1.10601 0.40867
 C200 C 0.56004 1.08979 0.42439
 C201 C 0.18275 0.31490 0.18105
 C202 C 0.16092 0.33426 0.15883
 C203 C 0.13463 0.35601 0.13247
 C204 C 0.11154 0.37380 0.11106
 C205 C 0.08375 0.39371 0.08866
 C206 C 0.05938 0.40993 0.07321
 C207 C 0.68386 0.81644 0.68476
 C208 C 0.66199 0.83574 0.66235
 C209 C 0.63561 0.85737 0.63574
 C210 C 0.61245 0.87503 0.61409
 C211 C 0.58457 0.89480 0.59135
 C212 C 0.56014 0.91090 0.57555
 C213 C 0.81724 0.18459 0.18158
 C214 C 0.83907 0.16516 0.15947
 C215 C 0.86537 0.14334 0.13314
 C216 C 0.88846 0.12550 0.11170
 C217 C 0.91626 0.10554 0.08920
 C218 C 0.94063 0.08928 0.07362
 C219 C 0.31632 0.68481 0.68513
 C220 C 0.33819 0.66541 0.66303
 C221 C 0.36452 0.64364 0.63666
 C222 C 0.38764 0.62585 0.61513
 C223 C 0.41547 0.60594 0.59250
 C224 C 0.43987 0.58974 0.57678
   
