data_POSCAR
  _audit_creation_date              2014-09-24
  _audit_creation_method            'ToBaCCo'
  _symmetry_space_group_name_H-M    'P1'
  _symmetry_Int_Tables_number       1
  _symmetry_cell_setting            triclinic
  loop_
  _symmetry_equiv_pos_as_xyz
 x,y,z
_cell_length_a 53.5637
_cell_length_b 40.1149
_cell_length_c 39.6765
_cell_angle_alpha 90.140100
_cell_angle_beta 90.027100
_cell_angle_gamma 89.821500
loop_
  _atom_site_label
  _atom_site_type_symbol
  _atom_site_fract_x
  _atom_site_fract_y
  _atom_site_fract_z
C1 C 1.24978 0.25030 0.24831
 C2 C 0.74997 -0.25055 0.24831
 C3 C 0.74990 0.24964 -0.25197
 C4 C 1.25010 -0.25012 -0.25123
 C5 C 0.24938 0.24985 0.75142
 C6 C 0.74916 0.75015 0.75169
 C7 C 0.74945 0.25002 0.25176
 C8 C 0.24925 0.74964 0.25100
 O9 O 1.03552 0.05777 0.06105
 O10 O 1.06277 0.02659 0.02918
 C11 C 1.05779 0.04855 0.05222
 O12 O 0.96477 -0.06047 0.05950
 O13 O 0.93732 -0.02836 0.02903
 C14 C 0.94243 -0.05139 0.05080
 O15 O 1.03454 -0.05868 0.06245
 O16 O 1.06232 -0.02963 0.02972
 C17 C 1.05699 -0.05069 0.05337
 O18 O 0.96593 0.06239 0.05783
 O19 O 0.93784 0.03027 0.02855
 C20 C 0.94341 0.05380 0.04965
 Zr21 Zr 1.00050 0.04149 0.04274
 O22 O 0.99967 0.03635 0.09572
 O23 O 1.00173 0.09399 0.04725
 Zr24 Zr 0.99976 -0.04227 0.04305
 O25 O 0.99745 -0.04135 0.09631
 O26 O 1.00209 -0.09498 0.04310
 O27 O 1.02257 -0.00072 0.04927
 O28 O 0.97819 0.00017 0.04909
 O29 O 0.96543 0.06040 -0.05887
 O30 O 0.93760 0.02944 -0.02812
 C31 C 0.94299 0.05216 -0.05007
 O32 O 1.03448 -0.05956 -0.06105
 O33 O 1.06244 -0.02981 -0.02901
 C34 C 1.05697 -0.05127 -0.05228
 O35 O 0.96451 -0.06172 -0.05775
 O36 O 0.93721 -0.02898 -0.02759
 C37 C 0.94221 -0.05251 -0.04899
 O38 O 1.03515 0.05644 -0.06190
 O39 O 1.06262 0.02605 -0.02971
 C40 C 1.05750 0.04748 -0.05311
 Zr41 Zr 1.00021 0.04108 -0.04248
 O42 O 0.99739 0.04045 -0.09571
 O43 O 1.00306 0.09372 -0.04252
 Zr44 Zr 0.99957 -0.04299 -0.04201
 O45 O 0.99657 -0.04301 -0.09523
 O46 O 1.00204 -0.09567 -0.04176
 Zr47 Zr 1.03737 -0.00132 0.00005
 Zr48 Zr 0.96257 0.00012 0.00041
 O49 O 0.97810 -0.00061 -0.04832
 O50 O 1.02220 -0.00141 -0.04902
 O51 O 0.97819 0.04837 0.00017
 O52 O 1.02136 -0.04917 0.00047
 O53 O 1.02212 0.04708 -0.00004
 O54 O 0.97728 -0.04874 0.00064
 H55 H 0.96690 0.00065 0.06886
 H56 H 1.03245 -0.06898 0.00057
 H57 H 0.96681 -0.00065 -0.06811
 H58 H 1.03352 0.06647 -0.00029
 H59 H 0.98792 -0.10355 0.02969
 H60 H 0.98826 -0.10411 -0.02761
 H61 H 1.01092 -0.03040 -0.10424
 H62 H 1.01119 0.02646 -0.10444
 H63 H 0.98899 0.10264 -0.02903
 H64 H 1.00479 0.10291 0.02446
 H65 H 0.99945 0.05930 0.10499
 H66 H 1.01032 -0.02567 0.10454
 O67 O 1.03528 0.55892 0.56070
 O68 O 1.06271 0.52828 0.52855
 C69 C 1.05761 0.55005 0.55172
 O70 O 0.96541 0.43967 0.55901
 O71 O 0.93764 0.47153 0.52880
 C72 C 0.94297 0.44843 0.55043
 O73 O 1.03518 0.44261 0.56158
 O74 O 1.06267 0.47215 0.52882
 C75 C 1.05754 0.45097 0.55241
 O76 O 0.96564 0.56266 0.55787
 O77 O 0.93771 0.53025 0.52863
 C78 C 0.94316 0.55380 0.54977
 Zr79 Zr 1.00031 0.54227 0.54250
 O80 O 0.99968 0.53687 0.59546
 O81 O 1.00111 0.59477 0.54728
 Zr82 Zr 1.00021 0.45851 0.54244
 O83 O 0.99805 0.45909 0.59571
 O84 O 1.00300 0.40584 0.54216
 O85 O 1.02273 0.50035 0.54872
 O86 O 0.97834 0.50061 0.54881
 O87 O 0.96486 0.56120 0.44128
 O88 O 0.93735 0.52969 0.47201
 C89 C 0.94251 0.55258 0.45017
 O90 O 1.03456 0.44197 0.43786
 O91 O 1.06239 0.47201 0.46977
 C92 C 1.05700 0.45053 0.44648
 O93 O 0.96479 0.43914 0.44167
 O94 O 0.93735 0.47132 0.47219
 C95 C 0.94245 0.44800 0.45061
 O96 O 1.03463 0.55832 0.43788
 O97 O 1.06243 0.52810 0.46970
 C98 C 1.05709 0.54963 0.44647
 Zr99 Zr 0.99983 0.54225 0.45730
 O100 O 0.99686 0.54162 0.40408
 O101 O 1.00223 0.59493 0.45733
 Zr102 Zr 0.99977 0.45818 0.45740
 O103 O 0.99661 0.45827 0.40420
 O104 O 1.00262 0.40552 0.45768
 Zr105 Zr 1.03743 0.50020 0.49943
 Zr106 Zr 0.96259 0.50058 0.50022
 O107 O 0.97799 0.50030 0.45141
 O108 O 1.02210 0.50009 0.45046
 O109 O 0.97785 0.54903 0.50009
 O110 O 1.02177 0.45214 0.49972
 O111 O 1.02179 0.54837 0.49966
 O112 O 0.97766 0.45192 0.50014
 H113 H 0.96709 0.50083 0.56863
 H114 H 1.03301 0.43248 0.49967
 H115 H 0.96665 0.50022 0.43167
 H116 H 1.03303 0.56793 0.49946
 H117 H 0.98884 0.39713 0.52882
 H118 H 0.98871 0.39688 0.47147
 H119 H 1.01061 0.47158 0.39520
 H120 H 1.01105 0.52843 0.39521
 H121 H 0.98829 0.60360 0.47122
 H122 H 1.00428 0.60386 0.52459
 H123 H 0.99929 0.55978 0.60484
 H124 H 1.01076 0.47499 0.60397
 O125 O 0.53460 0.05773 0.55986
 O126 O 0.56206 0.02673 0.52812
 C127 C 0.55695 0.04867 0.55114
 O128 O 0.46428 -0.06099 0.55809
 O129 O 0.43674 -0.02908 0.52753
 C130 C 0.44192 -0.05205 0.54934
 O131 O 0.53405 -0.05870 0.56111
 O132 O 0.56179 -0.02945 0.52847
 C133 C 0.55648 -0.05055 0.55206
 O134 O 0.46498 0.06177 0.55657
 O135 O 0.43704 0.02951 0.52718
 C136 C 0.44250 0.05303 0.54835
 Zr137 Zr 0.49964 0.04119 0.54145
 O138 O 0.49883 0.03602 0.59442
 O139 O 0.50044 0.09372 0.54598
 Zr140 Zr 0.49922 -0.04258 0.54167
 O141 O 0.49688 -0.04182 0.59493
 O142 O 0.50176 -0.09527 0.54162
 O143 O 0.52186 -0.00087 0.54800
 O144 O 0.47750 -0.00030 0.54772
 O145 O 0.46468 0.06006 0.43995
 O146 O 0.43692 0.02881 0.47054
 C147 C 0.44226 0.05163 0.44870
 O148 O 0.53391 -0.05973 0.43744
 O149 O 0.56172 -0.02978 0.46946
 C150 C 0.55635 -0.05131 0.44622
 O151 O 0.46412 -0.06211 0.44069
 O152 O 0.43666 -0.02964 0.47086
 C153 C 0.44176 -0.05308 0.44939
 O154 O 0.53442 0.05653 0.43702
 O155 O 0.56196 0.02626 0.46920
 C156 C 0.55679 0.04769 0.44583
 Zr157 Zr 0.49950 0.04086 0.45627
 O158 O 0.49672 0.04017 0.40303
 O159 O 0.50209 0.09352 0.45624
 Zr160 Zr 0.49910 -0.04321 0.45664
 O161 O 0.49617 -0.04317 0.40341
 O162 O 0.50174 -0.09588 0.45701
 Zr163 Zr 0.53677 -0.00131 0.49884
 Zr164 Zr 0.46193 -0.00041 0.49902
 O165 O 0.47751 -0.00095 0.45033
 O166 O 0.52163 -0.00148 0.44975
 O167 O 0.47737 0.04793 0.49886
 O168 O 0.52091 -0.04926 0.49914
 O169 O 0.52132 0.04697 0.49876
 O170 O 0.47680 -0.04918 0.49923
 H171 H 0.46619 0.00008 0.56749
 H172 H 0.53207 -0.06900 0.49924
 H173 H 0.46624 -0.00102 0.43051
 H174 H 0.53268 0.06641 0.49855
 H175 H 0.48758 -0.10391 0.52827
 H176 H 0.48785 -0.10439 0.47093
 H177 H 0.51030 -0.03006 0.39450
 H178 H 0.51083 0.02676 0.39427
 H179 H 0.48826 0.10226 0.47027
 H180 H 0.50476 0.10269 0.52359
 H181 H 0.49840 0.05896 0.60370
 H182 H 0.50958 -0.02592 0.60321
 O183 O 0.53493 0.55771 0.06156
 O184 O 0.56232 0.52738 0.02906
 C185 C 0.55725 0.54888 0.05250
 O186 O 0.46471 0.44036 0.06037
 O187 O 0.43713 0.47198 0.02962
 C188 C 0.44234 0.44917 0.05157
 O189 O 0.53443 0.44255 0.06284
 O190 O 0.56207 0.47147 0.02982
 C191 C 0.55683 0.45064 0.05365
 O192 O 0.46528 0.56206 0.05883
 O193 O 0.43735 0.53035 0.02882
 C194 C 0.44279 0.55352 0.05041
 Zr195 Zr 0.49995 0.54296 0.04176
 O196 O 0.49974 0.54885 0.09475
 O197 O 0.50106 0.59518 0.03506
 Zr198 Zr 0.49957 0.45872 0.04361
 O199 O 0.49738 0.46035 0.09688
 O200 O 0.50207 0.40604 0.04453
 O201 O 0.52201 0.50066 0.04919
 O202 O 0.47805 0.50121 0.04912
 O203 O 0.46484 0.56026 -0.05913
 O204 O 0.43716 0.52926 -0.02811
 C205 C 0.44244 0.55187 -0.05022
 O206 O 0.53382 0.44002 -0.06071
 O207 O 0.56178 0.47028 -0.02924
 C208 C 0.55631 0.44848 -0.05221
 O209 O 0.46385 0.43831 -0.05675
 O210 O 0.43653 0.47128 -0.02678
 C211 C 0.44153 0.44761 -0.04802
 O212 O 0.53454 0.55628 -0.06265
 O213 O 0.56213 0.52639 -0.03018
 C214 C 0.55693 0.54750 -0.05383
 Zr215 Zr 0.49966 0.54101 -0.04294
 O216 O 0.49670 0.53968 -0.09614
 O217 O 0.50235 0.59364 -0.04353
 Zr218 Zr 0.49912 0.45689 -0.04139
 O219 O 0.49602 0.45579 -0.09458
 O220 O 0.50164 0.40421 -0.04000
 Zr221 Zr 0.53700 0.49929 0.00001
 Zr222 Zr 0.46221 0.50031 0.00062
 O223 O 0.47762 0.49914 -0.04818
 O224 O 0.52169 0.49848 -0.04898
 O225 O 0.47741 0.54871 -0.00051
 O226 O 0.52108 0.45140 0.00105
 O227 O 0.52179 0.54771 -0.00077
 O228 O 0.47700 0.45152 0.00142
 H229 H 0.46684 0.50160 0.06896
 H230 H 0.53221 0.43162 0.00132
 H231 H 0.46630 0.49890 -0.06793
 H232 H 0.53324 0.56706 -0.00110
 H233 H 0.48823 0.39721 0.03066
 H234 H 0.48731 0.39594 -0.02675
 H235 H 0.50987 0.46921 -0.10382
 H236 H 0.51067 0.52595 -0.10479
 H237 H 0.48971 0.60244 -0.02761
 H238 H 0.50180 0.60496 0.05799
 H239 H 0.49489 0.52720 0.10450
 H240 H 0.51138 0.47425 0.10504
 C241 C 1.23401 0.22878 0.22750
 C242 C 1.22069 0.21132 0.21054
 C243 C 1.20439 0.19084 0.19058
 C244 C 1.19013 0.20519 0.16485
 C245 C 1.17344 0.18568 0.14635
 C246 C 1.17079 0.15152 0.15339
 C247 C 1.18546 0.13722 0.17902
 C248 C 1.20216 0.15679 0.19749
 C249 C 1.15220 0.13121 0.13478
 C250 C 1.13726 0.10801 0.15196
 C251 C 1.11886 0.09011 0.13478
 C252 C 1.11520 0.09510 0.10024
 C253 C 1.13024 0.11770 0.08280
 C254 C 1.14864 0.13565 0.09993
 C255 C 1.09535 0.07805 0.08303
 C256 C 1.07837 0.06429 0.06885
 H257 H 1.19164 0.23157 0.15942
 H258 H 1.16215 0.19751 0.12712
 H259 H 1.18404 0.11092 0.18476
 H260 H 1.21314 0.14545 0.21736
 H261 H 1.13931 0.10437 0.17885
 H262 H 1.10722 0.07279 0.14854
 H263 H 1.12754 0.12174 0.05605
 H264 H 1.16005 0.15303 0.08595
 C265 C 1.23443 0.72879 0.72738
 C266 C 1.22115 0.71160 0.71009
 C267 C 1.20484 0.69138 0.68989
 C268 C 1.19040 0.70607 0.66454
 C269 C 1.17363 0.68679 0.64593
 C270 C 1.17106 0.65252 0.65251
 C271 C 1.18593 0.63788 0.67774
 C272 C 1.20271 0.65722 0.69631
 C273 C 1.15230 0.63246 0.63394
 C274 C 1.13750 0.60907 0.65108
 C275 C 1.11897 0.59136 0.63398
 C276 C 1.11503 0.59673 0.59957
 C277 C 1.12990 0.61955 0.58215
 C278 C 1.14844 0.63731 0.59921
 C279 C 1.09511 0.57974 0.58245
 C280 C 1.07811 0.56595 0.56833
 H281 H 1.19182 0.73254 0.65952
 H282 H 1.16219 0.69886 0.62702
 H283 H 1.18457 0.61150 0.68310
 H284 H 1.21381 0.64562 0.71590
 H285 H 1.13979 0.60512 0.67789
 H286 H 1.10746 0.57387 0.64772
 H287 H 1.12699 0.62387 0.55549
 H288 H 1.15974 0.65486 0.58526
 C289 C 0.73403 0.22817 0.72718
 C290 C 0.72051 0.21094 0.71020
 C291 C 0.70387 0.19088 0.69018
 C292 C 0.68798 0.20611 0.66679
 C293 C 0.67107 0.18695 0.64823
 C294 C 0.66980 0.15221 0.65286
 C295 C 0.68606 0.13708 0.67618
 C296 C 0.70297 0.15632 0.69471
 C297 C 0.65112 0.13209 0.63407
 C298 C 0.63789 0.10648 0.65031
 C299 C 0.61951 0.08855 0.63306
 C300 C 0.61414 0.09589 0.59936
 C301 C 0.62745 0.12096 0.58282
 C302 C 0.64583 0.13894 0.60002
 C303 C 0.59436 0.07859 0.58214
 C304 C 0.57745 0.06462 0.56789
 H305 H 0.68842 0.23287 0.66321
 H306 H 0.65858 0.19942 0.63086
 H307 H 0.68575 0.11037 0.68002
 H308 H 0.71520 0.14427 0.71274
 H309 H 0.64127 0.10089 0.67660
 H310 H 0.60924 0.06930 0.64616
 H311 H 0.62346 0.12684 0.55673
 H312 H 0.65591 0.15818 0.58669
 C313 C 0.73444 0.72798 0.22709
 C314 C 0.72124 0.71049 0.20999
 C315 C 0.70498 0.68993 0.19005
 C316 C 0.69192 0.70373 0.16289
 C317 C 0.67509 0.68425 0.14456
 C318 C 0.67107 0.65071 0.15325
 C319 C 0.68460 0.63693 0.18028
 C320 C 0.70143 0.65646 0.19857
 C321 C 0.65220 0.63060 0.13495
 C322 C 0.63606 0.60932 0.15271
 C323 C 0.61747 0.59161 0.13574
 C324 C 0.61478 0.59487 0.10083
 C325 C 0.63097 0.61556 0.08284
 C326 C 0.64958 0.63332 0.09977
 C327 C 0.59481 0.57800 0.08369
 C328 C 0.57778 0.56441 0.06943
 H329 H 0.69444 0.72968 0.15623
 H330 H 0.66472 0.69570 0.12419
 H331 H 0.68213 0.61108 0.18729
 H332 H 0.71145 0.64555 0.21957
 H333 H 0.63738 0.60706 0.17984
 H334 H 0.60493 0.57579 0.14991
 H335 H 0.62903 0.61823 0.05580
 H336 H 0.66190 0.64919 0.08536
 C337 C 0.76591 -0.22970 0.22717
 C338 C 0.77974 -0.21279 0.21049
 C339 C 0.79702 -0.19297 0.19152
 C340 C 0.82183 -0.19066 0.20224
 C341 C 0.83887 -0.17153 0.18409
 C342 C 0.83131 -0.15441 0.15490
 C343 C 0.80632 -0.15693 0.14423
 C344 C 0.78927 -0.17609 0.16250
 C345 C 0.84957 -0.13430 0.13566
 C346 C 0.85001 -0.13537 0.10021
 C347 C 0.86807 -0.11762 0.08227
 C348 C 0.88579 -0.09853 0.09954
 C349 C 0.88519 -0.09682 0.13474
 C350 C 0.86721 -0.11455 0.15271
 C351 C 0.90521 -0.08161 0.08145
 C352 C 0.92198 -0.06769 0.06704
 H353 H 0.82804 -0.20376 0.22460
 H354 H 0.85806 -0.17052 0.19263
 H355 H 0.79992 -0.14378 0.12203
 H356 H 0.77007 -0.17769 0.15403
 H357 H 0.83683 -0.15063 0.08642
 H358 H 0.86844 -0.11919 0.05501
 H359 H 0.89881 -0.08206 0.14834
 H360 H 0.86710 -0.11284 0.17995
 C361 C 0.76558 0.27037 0.72629
 C362 C 0.77904 0.28702 0.70874
 C363 C 0.79570 0.30639 0.68820
 C364 C 0.79483 0.34125 0.68927
 C365 C 0.81183 0.35998 0.67049
 C366 C 0.82997 0.34404 0.65039
 C367 C 0.83045 0.30898 0.64917
 C368 C 0.81345 0.29033 0.66797
 C369 C 0.84879 0.36379 0.63158
 C370 C 0.85631 0.35414 0.59898
 C371 C 0.87480 0.37194 0.58192
 C372 C 0.88600 0.39962 0.59715
 C373 C 0.87842 0.40968 0.62937
 C374 C 0.85994 0.39193 0.64648
 C375 C 0.90577 0.41710 0.58021
 C376 C 0.92262 0.43151 0.56641
 H377 H 0.78116 0.35395 0.70485
 H378 H 0.81079 0.38692 0.67164
 H379 H 0.84438 0.29595 0.63435
 H380 H 0.81438 0.26335 0.66711
 H381 H 0.84788 0.33285 0.58667
 H382 H 0.88050 0.36395 0.55697
 H383 H 0.88705 0.43097 0.64148
 H384 H 0.85483 0.39972 0.67170
 C385 C 0.26588 -0.22892 0.72777
 C386 C 0.27952 -0.21174 0.71110
 C387 C 0.29652 -0.19162 0.69199
 C388 C 0.32007 -0.18433 0.70529
 C389 C 0.33698 -0.16536 0.68676
 C390 C 0.33055 -0.15341 0.65459
 C391 C 0.30679 -0.16077 0.64143
 C392 C 0.28986 -0.17976 0.66007
 C393 C 0.34880 -0.13380 0.63479
 C394 C 0.35193 -0.13967 0.60006
 C395 C 0.37005 -0.12231 0.58186
 C396 C 0.38517 -0.09886 0.59813
 C397 C 0.38187 -0.09242 0.63250
 C398 C 0.36380 -0.10974 0.65073
 C399 C 0.40470 -0.08220 0.58002
 C400 C 0.42151 -0.06839 0.56560
 H401 H 0.32543 -0.19354 0.72992
 H402 H 0.35526 -0.16056 0.69734
 H403 H 0.30124 -0.15162 0.61688
 H404 H 0.27165 -0.18525 0.64958
 H405 H 0.34084 -0.15829 0.58718
 H406 H 0.37253 -0.12755 0.55526
 H407 H 0.39346 -0.07427 0.64530
 H408 H 0.36159 -0.10435 0.67732
 C409 C 0.26529 0.27118 0.22660
 C410 C 0.27854 0.28802 0.20903
 C411 C 0.29492 0.30767 0.18846
 C412 C 0.29462 0.34247 0.19091
 C413 C 0.31147 0.36141 0.17213
 C414 C 0.32884 0.34572 0.15068
 C415 C 0.32871 0.31074 0.14803
 C416 C 0.31187 0.29187 0.16684
 C417 C 0.34762 0.36557 0.13205
 C418 C 0.35418 0.35714 0.09876
 C419 C 0.37278 0.37486 0.08188
 C420 C 0.38502 0.40120 0.09803
 C421 C 0.37838 0.41009 0.13095
 C422 C 0.35978 0.39243 0.14787
 C423 C 0.40494 0.41843 0.08128
 C424 C 0.42190 0.43259 0.06756
 H425 H 0.28156 0.35493 0.20760
 H426 H 0.31093 0.38831 0.17439
 H427 H 0.34207 0.29791 0.13212
 H428 H 0.31234 0.26492 0.16492
 H429 H 0.34494 0.33684 0.08579
 H430 H 0.37778 0.36780 0.05638
 H431 H 0.38784 0.43034 0.14372
 H432 H 0.35540 0.39921 0.17363
 C433 C 0.76612 0.22909 -0.23061
 C434 C 0.78016 0.21255 -0.21365
 C435 C 0.79769 0.19327 -0.19419
 C436 C 0.82286 0.19270 -0.20356
 C437 C 0.84010 0.17415 -0.18492
 C438 C 0.83241 0.15583 -0.15658
 C439 C 0.80706 0.15663 -0.14726
 C440 C 0.78980 0.17522 -0.16600
 C441 C 0.85087 0.13610 -0.13693
 C442 C 0.85011 0.13569 -0.10146
 C443 C 0.86811 0.11802 -0.08309
 C444 C 0.88701 0.10048 -0.09993
 C445 C 0.88769 0.10037 -0.13518
 C446 C 0.86977 0.11802 -0.15356
 C447 C 0.90617 0.08328 -0.08130
 C448 C 0.92273 0.06900 -0.06655
 H449 H 0.82919 0.20669 -0.22524
 H450 H 0.85953 0.17449 -0.19244
 H451 H 0.80053 0.14254 -0.12577
 H452 H 0.77035 0.17545 -0.15855
 H453 H 0.83596 0.14964 -0.08792
 H454 H 0.86745 0.11836 -0.05580
 H455 H 0.90220 0.08683 -0.14848
 H456 H 0.87065 0.11742 -0.18082
 C457 C 0.76590 0.72892 0.26994
 C458 C 0.77978 0.71238 0.28707
 C459 C 0.79716 0.69310 0.30661
 C460 C 0.82233 0.69239 0.29729
 C461 C 0.83946 0.67372 0.31593
 C462 C 0.83164 0.65545 0.34421
 C463 C 0.80630 0.65642 0.35353
 C464 C 0.78915 0.67512 0.33477
 C465 C 0.84997 0.63561 0.36382
 C466 C 0.84937 0.63551 0.39929
 C467 C 0.86740 0.61791 0.41762
 C468 C 0.88614 0.60015 0.40072
 C469 C 0.88662 0.59964 0.36548
 C470 C 0.86867 0.61721 0.34714
 C471 C 0.90542 0.58321 0.41926
 C472 C 0.92211 0.56917 0.43389
 H473 H 0.82874 0.70636 0.27562
 H474 H 0.85890 0.67392 0.30846
 H475 H 0.79970 0.64237 0.37500
 H476 H 0.76968 0.67550 0.34216
 H477 H 0.83535 0.64970 0.41282
 H478 H 0.86692 0.61854 0.44491
 H479 H 0.90102 0.58591 0.35216
 H480 H 0.86939 0.61640 0.31987
 C481 C 0.26604 0.22978 0.26952
 C482 C 0.28001 0.21313 0.28639
 C483 C 0.29737 0.19360 0.30573
 C484 C 0.32223 0.19120 0.29521
 C485 C 0.33932 0.17237 0.31375
 C486 C 0.33177 0.15563 0.34314
 C487 C 0.30674 0.15827 0.35361
 C488 C 0.28963 0.17713 0.33496
 C489 C 0.35007 0.13567 0.36269
 C490 C 0.35037 0.13698 0.39814
 C491 C 0.36834 0.11918 0.41636
 C492 C 0.38614 0.09982 0.39937
 C493 C 0.38572 0.09796 0.36417
 C494 C 0.36781 0.11572 0.34593
 C495 C 0.40537 0.08264 0.41776
 C496 C 0.42199 0.06841 0.43235
 H497 H 0.32842 0.20398 0.27270
 H498 H 0.35854 0.17127 0.30535
 H499 H 0.30035 0.14540 0.37595
 H500 H 0.27041 0.17881 0.34328
 H501 H 0.33711 0.15239 0.41171
 H502 H 0.36858 0.12087 0.44362
 H503 H 0.39938 0.08300 0.35078
 H504 H 0.36782 0.11384 0.31870
 C505 C 0.26614 0.72895 -0.23014
 C506 C 0.28001 0.71207 -0.21335
 C507 C 0.29730 0.69238 -0.19408
 C508 C 0.32218 0.69006 -0.20448
 C509 C 0.33925 0.67123 -0.18589
 C510 C 0.33164 0.65442 -0.15659
 C511 C 0.30657 0.65692 -0.14626
 C512 C 0.28949 0.67578 -0.16496
 C513 C 0.34994 0.63462 -0.13688
 C514 C 0.35012 0.63603 -0.10143
 C515 C 0.36815 0.61850 -0.08306
 C516 C 0.38612 0.59929 -0.09989
 C517 C 0.38580 0.59728 -0.13509
 C518 C 0.36784 0.61479 -0.15348
 C519 C 0.40543 0.58242 -0.08136
 C520 C 0.42210 0.56843 -0.06667
 H521 H 0.32843 0.70295 -0.22690
 H522 H 0.35850 0.67022 -0.19418
 H523 H 0.30013 0.64399 -0.12399
 H524 H 0.27024 0.67741 -0.15673
 H525 H 0.33674 0.65136 -0.08798
 H526 H 0.36830 0.62029 -0.05581
 H527 H 0.39959 0.58242 -0.14835
 H528 H 0.36794 0.61282 -0.18070
 C529 C 1.23413 -0.22926 -0.22990
 C530 C 1.22063 -0.21220 -0.21270
 C531 C 1.20410 -0.19206 -0.19263
 C532 C 1.19174 -0.20604 -0.16503
 C533 C 1.17474 -0.18696 -0.14646
 C534 C 1.16985 -0.15363 -0.15533
 C535 C 1.18265 -0.13967 -0.18283
 C536 C 1.19966 -0.15880 -0.20136
 C537 C 1.15090 -0.13389 -0.13663
 C538 C 1.13409 -0.11314 -0.15407
 C539 C 1.11560 -0.09553 -0.13666
 C540 C 1.11369 -0.09837 -0.10163
 C541 C 1.13049 -0.11862 -0.08398
 C542 C 1.14899 -0.13629 -0.10135
 C543 C 1.09399 -0.08130 -0.08398
 C544 C 1.07721 -0.06739 -0.06941
 H545 H 1.19497 -0.23183 -0.15819
 H546 H 1.16494 -0.19853 -0.12571
 H547 H 1.17951 -0.11397 -0.18999
 H548 H 1.20915 -0.14775 -0.22268
 H549 H 1.13485 -0.11117 -0.18126
 H550 H 1.10259 -0.08005 -0.15057
 H551 H 1.12915 -0.12097 -0.05684
 H552 H 1.16184 -0.15176 -0.08720
 C553 C 1.23392 0.27148 0.26949
 C554 C 1.22050 0.28878 0.28657
 C555 C 1.20405 0.30918 0.30650
 C556 C 1.19171 0.29554 0.33428
 C557 C 1.17481 0.31489 0.35275
 C558 C 1.17000 0.34816 0.34360
 C559 C 1.18277 0.36179 0.31590
 C560 C 1.19967 0.34239 0.29747
 C561 C 1.15114 0.36816 0.36221
 C562 C 1.13432 0.38882 0.34467
 C563 C 1.11582 0.40652 0.36201
 C564 C 1.11392 0.40386 0.39706
 C565 C 1.13077 0.38376 0.41480
 C566 C 1.14927 0.36601 0.39751
 C567 C 1.09415 0.42086 0.41464
 C568 C 1.07731 0.43465 0.42924
 H569 H 1.19488 0.26980 0.34135
 H570 H 1.16503 0.30355 0.37365
 H571 H 1.17968 0.38743 0.30850
 H572 H 1.20915 0.35318 0.27600
 H573 H 1.13505 0.39062 0.31746
 H574 H 1.10279 0.42188 0.34802
 H575 H 1.12945 0.38155 0.44195
 H576 H 1.16213 0.35063 0.41174
 C577 C 0.73383 -0.22933 0.26905
 C578 C 0.72016 -0.21195 0.28568
 C579 C 0.70339 -0.19141 0.30498
 C580 C 0.68591 -0.17131 0.28841
 C581 C 0.66892 -0.15223 0.30698
 C582 C 0.66918 -0.15305 0.34243
 C583 C 0.68703 -0.17307 0.35887
 C584 C 0.70402 -0.19213 0.34022
 C585 C 0.65042 -0.13387 0.36205
 C586 C 0.63882 -0.14817 0.39032
 C587 C 0.62034 -0.13070 0.40793
 C588 C 0.61325 -0.09874 0.39756
 C589 C 0.62490 -0.08409 0.36976
 C590 C 0.64338 -0.10152 0.35210
 C591 C 0.59349 -0.08145 0.41486
 C592 C 0.57666 -0.06743 0.42923
 H593 H 0.68520 -0.17071 0.26113
 H594 H 0.65519 -0.13746 0.29360
 H595 H 0.68787 -0.17391 0.38612
 H596 H 0.71752 -0.20760 0.35327
 H597 H 0.64357 -0.17319 0.39831
 H598 H 0.61134 -0.14232 0.42933
 H599 H 0.61955 -0.05933 0.36156
 H600 H 0.65219 -0.08971 0.33069
 C601 C 0.73398 0.27098 -0.23092
 C602 C 0.72038 0.28830 -0.21406
 C603 C 0.70360 0.30865 -0.19443
 C604 C 0.68793 0.33162 -0.21051
 C605 C 0.67082 0.35041 -0.19175
 C606 C 0.66913 0.34643 -0.15659
 C607 C 0.68520 0.32356 -0.14061
 C608 C 0.70230 0.30480 -0.15943
 C609 C 0.65021 0.36539 -0.13688
 C610 C 0.63673 0.34977 -0.11092
 C611 C 0.61827 0.36719 -0.09321
 C612 C 0.61301 0.40046 -0.10112
 C613 C 0.62649 0.41636 -0.12662
 C614 C 0.64497 0.39898 -0.14439
 C615 C 0.59333 0.41791 -0.08368
 C616 C 0.57656 0.43210 -0.06923
 H617 H 0.68868 0.33467 -0.23761
 H618 H 0.65850 0.36744 -0.20487
 H619 H 0.68457 0.32023 -0.11355
 H620 H 0.71436 0.28710 -0.14672
 H621 H 0.64005 0.32383 -0.10484
 H622 H 0.60787 0.35458 -0.07363
 H623 H 0.62260 0.44212 -0.13294
 H624 H 0.65521 0.41183 -0.16394
 C625 C 1.23363 0.22803 -0.22808
 C626 C 1.22026 0.21044 -0.21138
 C627 C 1.20384 0.18993 -0.19167
 C628 C 1.20187 0.15578 -0.19842
 C629 C 1.18511 0.13619 -0.18013
 C630 C 1.17010 0.15056 -0.15483
 C631 C 1.17245 0.18485 -0.14800
 C632 C 1.18919 0.20437 -0.16632
 C633 C 1.15156 0.13017 -0.13626
 C634 C 1.14765 0.13512 -0.10152
 C635 C 1.12933 0.11707 -0.08443
 C636 C 1.11470 0.09382 -0.10176
 C637 C 1.11871 0.08830 -0.13617
 C638 C 1.13703 0.10631 -0.15333
 C639 C 1.09490 0.07668 -0.08453
 C640 C 1.07799 0.06299 -0.07016
 H641 H 1.21313 0.14434 -0.21799
 H642 H 1.18394 0.10981 -0.18571
 H643 H 1.16092 0.19676 -0.12906
 H644 H 1.19047 0.23082 -0.16102
 H645 H 1.15874 0.15299 -0.08759
 H646 H 1.12639 0.12153 -0.05777
 H647 H 1.10740 0.07048 -0.14987
 H648 H 1.13934 0.10223 -0.18013
 C649 C 1.23421 0.72925 0.27070
 C650 C 1.22067 0.71194 0.28756
 C651 C 1.20395 0.69184 0.30737
 C652 C 1.20229 0.65746 0.30166
 C653 C 1.18528 0.63825 0.31996
 C654 C 1.16966 0.65319 0.34425
 C655 C 1.17168 0.68772 0.35003
 C656 C 1.18868 0.70686 0.33170
 C657 C 1.15092 0.63309 0.36294
 C658 C 1.14624 0.63918 0.39732
 C659 C 1.12789 0.62120 0.41450
 C660 C 1.11396 0.59687 0.39762
 C661 C 1.11870 0.59029 0.36355
 C662 C 1.13705 0.60822 0.34632
 C663 C 1.09425 0.57952 0.41494
 C664 C 1.07744 0.56555 0.42937
 H665 H 1.21401 0.64555 0.28289
 H666 H 1.18440 0.61169 0.31520
 H667 H 1.15970 0.70008 0.36816
 H668 H 1.18969 0.73348 0.33619
 H669 H 1.15680 0.65782 0.41097
 H670 H 1.12443 0.62650 0.44088
 H671 H 1.10796 0.57162 0.35016
 H672 H 1.13994 0.60321 0.31978
 C673 C 0.73376 0.22810 0.27224
 C674 C 0.72038 0.21048 0.28889
 C675 C 0.70389 0.19000 0.30851
 C676 C 0.70182 0.15587 0.30167
 C677 C 0.68493 0.13635 0.31981
 C678 C 0.66987 0.15076 0.34503
 C679 C 0.67233 0.18502 0.35197
 C680 C 0.68921 0.20447 0.33381
 C681 C 0.65117 0.13046 0.36341
 C682 C 0.64715 0.13533 0.39813
 C683 C 0.62871 0.11735 0.41505
 C684 C 0.61406 0.09425 0.39754
 C685 C 0.61816 0.08882 0.36313
 C686 C 0.63661 0.10677 0.34616
 C687 C 0.59419 0.07710 0.41461
 C688 C 0.57725 0.06334 0.42887
 H689 H 0.71310 0.14441 0.28214
 H690 H 0.68368 0.10999 0.31416
 H691 H 0.66077 0.19696 0.37086
 H692 H 0.69056 0.23090 0.33918
 H693 H 0.65827 0.15307 0.41220
 H694 H 0.62570 0.12172 0.44170
 H695 H 0.60684 0.07111 0.34930
 H696 H 0.63901 0.10275 0.31936
 C697 C 0.73346 0.72819 -0.22791
 C698 C 0.72010 0.71048 -0.21132
 C699 C 0.70366 0.68984 -0.19178
 C700 C 0.68986 0.70381 -0.16532
 C701 C 0.67304 0.68423 -0.14721
 C702 C 0.66974 0.65037 -0.15536
 C703 C 0.68393 0.63645 -0.18176
 C704 C 0.70077 0.65608 -0.19984
 C705 C 0.65108 0.62999 -0.13698
 C706 C 0.63567 0.60748 -0.15451
 C707 C 0.61728 0.58950 -0.13746
 C708 C 0.61407 0.59371 -0.10271
 C709 C 0.62957 0.61562 -0.08496
 C710 C 0.64796 0.63364 -0.10195
 C711 C 0.59426 0.57661 -0.08548
 C712 C 0.57736 0.56295 -0.07105
 H713 H 0.69185 0.72996 -0.15900
 H714 H 0.66215 0.69582 -0.12737
 H715 H 0.68203 0.61037 -0.18837
 H716 H 0.71137 0.64502 -0.22028
 H717 H 0.63737 0.60444 -0.18153
 H718 H 0.60530 0.57274 -0.15148
 H719 H 0.62726 0.61906 -0.05804
 H720 H 0.65973 0.65044 -0.08769
 C721 C 0.76454 -0.22897 -0.22622
 C722 C 0.77774 -0.21200 -0.20856
 C723 C 0.79410 -0.19200 -0.18812
 C724 C 0.79832 -0.20027 -0.15435
 C725 C 0.81525 -0.18183 -0.13506
 C726 C 0.82820 -0.15485 -0.14935
 C727 C 0.82353 -0.14646 -0.18320
 C728 C 0.80661 -0.16494 -0.20242
 C729 C 0.84712 -0.13621 -0.12950
 C730 C 0.84928 -0.10140 -0.13264
 C731 C 0.86792 -0.08414 -0.11522
 C732 C 0.88462 -0.10141 -0.09442
 C733 C 0.88238 -0.13595 -0.09072
 C734 C 0.86376 -0.15326 -0.10810
 C735 C 0.90459 -0.08390 -0.07786
 C736 C 0.92162 -0.06945 -0.06445
 H737 H 0.78873 -0.22119 -0.14303
 H738 H 0.81822 -0.18865 -0.10897
 H739 H 0.83345 -0.12617 -0.19509
 H740 H 0.80359 -0.15845 -0.22861
 H741 H 0.83657 -0.08752 -0.14858
 H742 H 0.86948 -0.05739 -0.11825
 H743 H 0.89529 -0.14958 -0.07482
 H744 H 0.86281 -0.18009 -0.10551
 C745 C 0.76480 0.27102 0.27376
 C746 C 0.77801 0.28807 0.29134
 C747 C 0.79438 0.30814 0.31169
 C748 C 0.79843 0.30018 0.34558
 C749 C 0.81538 0.31866 0.36480
 C750 C 0.82854 0.34536 0.35032
 C751 C 0.82404 0.35344 0.31635
 C752 C 0.80710 0.33493 0.29720
 C753 C 0.84747 0.36403 0.37012
 C754 C 0.84982 0.39879 0.36663
 C755 C 0.86847 0.41606 0.38403
 C756 C 0.88498 0.39887 0.40515
 C757 C 0.88256 0.36439 0.40919
 C758 C 0.86392 0.34706 0.39184
 C759 C 0.90494 0.41640 0.42172
 C760 C 0.92194 0.43092 0.43514
 H761 H 0.78868 0.27947 0.35705
 H762 H 0.81821 0.31208 0.39098
 H763 H 0.83412 0.37351 0.30432
 H764 H 0.80422 0.34118 0.27092
 H765 H 0.83726 0.41261 0.35044
 H766 H 0.87016 0.44276 0.38073
 H767 H 0.89532 0.35081 0.42536
 H768 H 0.86283 0.32028 0.39471
 C769 C 0.26394 -0.23034 0.27167
 C770 C 0.27725 -0.21323 0.28917
 C771 C 0.29378 -0.19317 0.30943
 C772 C 0.29773 -0.20087 0.34341
 C773 C 0.31478 -0.18241 0.36255
 C774 C 0.32814 -0.15597 0.34792
 C775 C 0.32376 -0.14816 0.31385
 C776 C 0.30673 -0.16665 0.29478
 C777 C 0.34710 -0.13722 0.36773
 C778 C 0.34974 -0.10253 0.36382
 C779 C 0.36829 -0.08519 0.38139
 C780 C 0.38446 -0.10222 0.40314
 C781 C 0.38179 -0.13664 0.40754
 C782 C 0.36324 -0.15402 0.39002
 C783 C 0.40431 -0.08463 0.42003
 C784 C 0.42124 -0.07010 0.43369
 H785 H 0.28782 -0.22136 0.35503
 H786 H 0.31748 -0.18879 0.38880
 H787 H 0.33398 -0.12830 0.30168
 H788 H 0.30395 -0.16058 0.26844
 H789 H 0.33743 -0.08878 0.34721
 H790 H 0.37016 -0.05856 0.37778
 H791 H 0.39427 -0.15013 0.42416
 H792 H 0.36196 -0.18075 0.39325
 C793 C 0.26475 0.27082 -0.22657
 C794 C 0.27792 0.28786 -0.20892
 C795 C 0.29422 0.30791 -0.18844
 C796 C 0.29760 0.30046 -0.15429
 C797 C 0.31443 0.31895 -0.13488
 C798 C 0.32810 0.34515 -0.14941
 C799 C 0.32428 0.35271 -0.18365
 C800 C 0.30747 0.33419 -0.20300
 C801 C 0.34686 0.36386 -0.12933
 C802 C 0.34961 0.39850 -0.13337
 C803 C 0.36810 0.41578 -0.11569
 C804 C 0.38406 0.39871 -0.09371
 C805 C 0.38123 0.36435 -0.08911
 C806 C 0.36274 0.34703 -0.10675
 C807 C 0.40395 0.41618 -0.07695
 C808 C 0.42095 0.43063 -0.06345
 H809 H 0.28743 0.28016 -0.14277
 H810 H 0.31674 0.31278 -0.10850
 H811 H 0.33478 0.37238 -0.19571
 H812 H 0.30510 0.34004 -0.22945
 H813 H 0.33747 0.41223 -0.15023
 H814 H 0.37013 0.44237 -0.11944
 H815 H 0.39357 0.35086 -0.07230
 H816 H 0.36134 0.32032 -0.10343
 C817 C 1.23412 -0.23041 0.23083
 C818 C 1.22053 -0.21330 0.21370
 C819 C 1.20381 -0.19321 0.19372
 C820 C 1.18965 -0.20792 0.16807
 C821 C 1.17261 -0.18879 0.14959
 C822 C 1.16945 -0.15461 0.15655
 C823 C 1.18399 -0.13997 0.18215
 C824 C 1.20104 -0.15915 0.20059
 C825 C 1.15065 -0.13457 0.13773
 C826 C 1.13570 -0.11091 0.15460
 C827 C 1.11738 -0.09295 0.13718
 C828 C 1.11374 -0.09829 0.10265
 C829 C 1.12870 -0.12146 0.08554
 C830 C 1.14703 -0.13947 0.10292
 C831 C 1.09410 -0.08087 0.08506
 C832 C 1.07733 -0.06679 0.07050
 H833 H 1.19152 -0.23430 0.16265
 H834 H 1.16148 -0.20094 0.13040
 H835 H 1.18224 -0.11366 0.18786
 H836 H 1.21189 -0.14748 0.22039
 H837 H 1.13775 -0.10687 0.18145
 H838 H 1.10583 -0.07522 0.15074
 H839 H 1.12607 -0.12581 0.05882
 H840 H 1.15841 -0.15717 0.08911
 C841 C 1.23342 0.27101 0.73035
 C842 C 1.21996 0.28823 0.71328
 C843 C 1.20350 0.30850 0.69321
 C844 C 1.18930 0.29391 0.66754
 C845 C 1.17258 0.31327 0.64884
 C846 C 1.16979 0.34753 0.65562
 C847 C 1.18437 0.36205 0.68124
 C848 C 1.20110 0.34263 0.69991
 C849 C 1.15124 0.36775 0.63669
 C850 C 1.13632 0.39146 0.65351
 C851 C 1.11808 0.40944 0.63601
 C852 C 1.11453 0.40405 0.60149
 C853 C 1.12951 0.38091 0.58441
 C854 C 1.14776 0.36287 0.60186
 C855 C 1.09485 0.42128 0.58391
 C856 C 1.07800 0.43515 0.56941
 H857 H 1.19092 0.26748 0.66227
 H858 H 1.16139 0.30125 0.62963
 H859 H 1.18287 0.38842 0.68679
 H860 H 1.21202 0.35419 0.71972
 H861 H 1.13829 0.39546 0.68037
 H862 H 1.10648 0.42716 0.64952
 H863 H 1.12692 0.37653 0.55768
 H864 H 1.15915 0.34511 0.58812
 C865 C 0.73314 -0.22859 0.73082
 C866 C 0.71958 -0.21123 0.71403
 C867 C 0.70295 -0.19075 0.69443
 C868 C 0.70205 -0.19418 0.65935
 C869 C 0.68514 -0.17521 0.64050
 C870 C 0.66890 -0.15255 0.65655
 C871 C 0.67020 -0.14899 0.69180
 C872 C 0.68710 -0.16799 0.71058
 C873 C 0.65017 -0.13341 0.63679
 C874 C 0.64486 -0.09991 0.64472
 C875 C 0.62651 -0.08238 0.62692
 C876 C 0.61324 -0.09809 0.60099
 C877 C 0.61860 -0.13126 0.59266
 C878 C 0.63694 -0.14882 0.61040
 C879 C 0.59361 -0.08062 0.58359
 C880 C 0.57682 -0.06656 0.56913
 H881 H 0.71426 -0.21171 0.64659
 H882 H 0.68481 -0.17821 0.61338
 H883 H 0.65773 -0.13212 0.70495
 H884 H 0.68757 -0.16525 0.73775
 H885 H 0.65493 -0.08724 0.66463
 H886 H 0.62252 -0.05670 0.63357
 H887 H 0.60835 -0.14371 0.57275
 H888 H 0.64032 -0.17469 0.60400
 C889 C 0.73342 0.27115 0.23078
 C890 C 0.71987 0.28835 0.21380
 C891 C 0.70330 0.30858 0.19388
 C892 C 0.70068 0.34262 0.20084
 C893 C 0.68382 0.36198 0.18234
 C894 C 0.66933 0.34749 0.15662
 C895 C 0.67234 0.31331 0.14956
 C896 C 0.68920 0.29401 0.16810
 C897 C 0.65066 0.36763 0.13783
 C898 C 0.64724 0.36299 0.10296
 C899 C 0.62891 0.38095 0.08563
 C900 C 0.61376 0.40380 0.10286
 C901 C 0.61723 0.40895 0.13744
 C902 C 0.63557 0.39103 0.15483
 C903 C 0.59405 0.42099 0.08535
 C904 C 0.57721 0.43484 0.07081
 H905 H 0.71152 0.35415 0.22074
 H906 H 0.68214 0.38829 0.18809
 H907 H 0.66122 0.30131 0.13026
 H908 H 0.69099 0.26764 0.16262
 H909 H 0.65876 0.34548 0.08910
 H910 H 0.62637 0.37678 0.05885
 H911 H 0.60552 0.42643 0.15106
 H912 H 0.63749 0.39484 0.18172
 C913 C 0.76595 0.22999 0.23027
 C914 C 0.78020 0.21401 0.21306
 C915 C 0.79796 0.19551 0.19322
 C916 C 0.78993 0.17217 0.16929
 C917 C 0.80742 0.15408 0.15042
 C918 C 0.83317 0.15908 0.15536
 C919 C 0.84099 0.18277 0.17932
 C920 C 0.82350 0.20081 0.19809
 C921 C 0.85188 0.13959 0.13589
 C922 C 0.87354 0.12744 0.15182
 C923 C 0.89146 0.10970 0.13351
 C924 C 0.88804 0.10379 0.09906
 C925 C 0.86647 0.11551 0.08298
 C926 C 0.84846 0.13327 0.10128
 C927 C 0.90694 0.08604 0.08044
 C928 C 0.92331 0.07128 0.06582
 H929 H 0.77018 0.16784 0.16536
 H930 H 0.80084 0.13579 0.13241
 H931 H 0.86065 0.18757 0.18334
 H932 H 0.82992 0.21892 0.21644
 H933 H 0.87653 0.13145 0.17851
 H934 H 0.90805 0.10065 0.14624
 H935 H 0.86367 0.11114 0.05629
 H936 H 0.83211 0.14260 0.08826
 C937 C 0.76564 0.73015 0.73013
 C938 C 0.77986 0.71412 0.71293
 C939 C 0.79759 0.69548 0.69315
 C940 C 0.78950 0.67284 0.66859
 C941 C 0.80695 0.65459 0.64978
 C942 C 0.83270 0.65874 0.65542
 C943 C 0.84059 0.68175 0.68002
 C944 C 0.82315 0.69995 0.69872
 C945 C 0.85136 0.63908 0.63602
 C946 C 0.87261 0.62604 0.65220
 C947 C 0.89055 0.60825 0.63395
 C948 C 0.88753 0.60318 0.59930
 C949 C 0.86633 0.61574 0.58296
 C950 C 0.84831 0.63355 0.60121
 C951 C 0.90652 0.58559 0.58070
 C952 C 0.92298 0.57100 0.56605
 H953 H 0.76974 0.66916 0.66411
 H954 H 0.80031 0.63685 0.63125
 H955 H 0.86026 0.68590 0.68459
 H956 H 0.82961 0.71750 0.71758
 H957 H 0.87530 0.62942 0.67904
 H958 H 0.90684 0.59856 0.64687
 H959 H 0.86385 0.61203 0.55611
 H960 H 0.83228 0.64356 0.58799
 C961 C 0.26585 0.22969 0.72999
 C962 C 0.28002 0.21354 0.71283
 C963 C 0.29764 0.19475 0.69300
 C964 C 0.28946 0.17347 0.66728
 C965 C 0.30679 0.15517 0.64833
 C966 C 0.33252 0.15790 0.65498
 C967 C 0.34051 0.17952 0.68077
 C968 C 0.32319 0.19778 0.69962
 C969 C 0.35104 0.13825 0.63532
 C970 C 0.37169 0.12363 0.65156
 C971 C 0.38952 0.10587 0.63309
 C972 C 0.38700 0.10241 0.59816
 C973 C 0.36640 0.11655 0.58175
 C974 C 0.34849 0.13433 0.60022
 C975 C 0.40592 0.08486 0.57938
 C976 C 0.42233 0.07028 0.56462
 H977 H 0.26971 0.17091 0.66198
 H978 H 0.30006 0.13849 0.62887
 H979 H 0.36019 0.18258 0.68615
 H980 H 0.32973 0.21430 0.71936
 H981 H 0.37398 0.12576 0.67859
 H982 H 0.40535 0.09495 0.64606
 H983 H 0.36432 0.11411 0.55470
 H984 H 0.33294 0.14559 0.58697
 C985 C 0.26481 0.73018 0.23085
 C986 C 0.27900 0.71373 0.21388
 C987 C 0.29675 0.69472 0.19437
 C988 C 0.28875 0.67322 0.16872
 C989 C 0.30621 0.65482 0.15004
 C990 C 0.33193 0.65765 0.15686
 C991 C 0.33972 0.67945 0.18262
 C992 C 0.32226 0.69780 0.20119
 C993 C 0.35063 0.63802 0.13737
 C994 C 0.37141 0.62383 0.15370
 C995 C 0.38942 0.60619 0.13538
 C996 C 0.38697 0.60240 0.10047
 C997 C 0.36624 0.61610 0.08397
 C998 C 0.34815 0.63375 0.10229
 C999 C 0.40607 0.58497 0.08178
 C1000 C 0.42257 0.57053 0.06697
 H1001 H 0.26903 0.67058 0.16323
 H1002 H 0.29960 0.63802 0.13062
 H1003 H 0.35937 0.68263 0.18817
 H1004 H 0.32869 0.71447 0.22088
 H1005 H 0.37369 0.62621 0.18072
 H1006 H 0.40535 0.59564 0.14846
 H1007 H 0.36417 0.61341 0.05694
 H1008 H 0.33251 0.64465 0.08892
   
