data_POSCAR
  _audit_creation_date              2014-09-24
  _audit_creation_method            'ToBaCCo'
  _symmetry_space_group_name_H-M    'P1'
  _symmetry_Int_Tables_number       1
  _symmetry_cell_setting            triclinic
  loop_
  _symmetry_equiv_pos_as_xyz
 x,y,z
_cell_length_a 29.3382
_cell_length_b 29.0906
_cell_length_c 54.1649
_cell_angle_alpha 89.736400
_cell_angle_beta 90.387800
_cell_angle_gamma 119.835900
loop_
  _atom_site_label
  _atom_site_type_symbol
  _atom_site_fract_x
  _atom_site_fract_y
  _atom_site_fract_z
C1 C 0.00735 0.08671 0.53312
 H2 H 0.04318 0.08494 0.53505
 C3 C 0.00078 0.12344 0.54671
 H4 H 0.03137 0.14885 0.55955
 C5 C -0.07572 0.05520 0.51390
 H6 H -0.10475 0.02927 0.50062
 C7 C -0.08360 0.09217 0.52689
 H8 H -0.11887 0.09431 0.52343
 N9 N -0.03055 0.05355 0.51714
 C10 C 0.02068 -0.06233 0.50783
 H11 H 0.02832 -0.05909 0.48820
 C12 C 0.02702 -0.09910 0.52194
 H13 H 0.04062 -0.12334 0.51309
 C14 C -0.00791 -0.03567 0.54299
 H15 H -0.02354 -0.01247 0.55097
 C16 C -0.00227 -0.07197 0.55775
 H17 H -0.01336 -0.07586 0.57700
 Zn18 Zn -0.01264 0.01109 0.49788
 N19 N 0.00340 -0.03161 0.51850
 C20 C 0.09479 0.06635 0.48220
 N21 N 0.04570 0.05929 0.47896
 C22 C 0.03680 0.09103 0.46357
 C23 C 0.07805 0.13181 0.45063
 C24 C 0.13752 0.10727 0.46979
 C25 C -0.11348 -0.07252 0.48844
 C26 C -0.15435 -0.11217 0.47462
 C27 C -0.10308 -0.07429 0.43780
 C28 C -0.06309 -0.03575 0.45244
 N29 N -0.06885 -0.03563 0.47727
 H30 H 0.10123 0.04166 0.49510
 H31 H -0.00250 0.08512 0.46171
 H32 H 0.06973 0.15618 0.43833
 H33 H 0.17658 0.11351 0.47325
 H34 H -0.11696 -0.07160 0.50828
 H35 H -0.18951 -0.13912 0.48454
 H36 H -0.09459 -0.07387 0.41841
 H37 H -0.02656 -0.00727 0.44395
 C38 C 0.01475 -0.10480 0.54721
 C39 C -0.04462 0.12748 0.54333
 C40 C -0.14990 -0.11472 0.44866
 C41 C 0.12949 0.14115 0.45398
 C42 C 1.08293 0.01669 0.12926
 H43 H 1.07806 0.05103 0.12725
 C44 C 1.12261 0.01430 0.11645
 H45 H 1.14713 0.04643 0.10408
 C46 C 1.05722 -0.06602 0.14842
 H47 H 1.03272 -0.09622 0.16157
 C48 C 1.09715 -0.06974 0.13612
 H49 H 1.10281 -0.10315 0.13986
 N50 N 1.05142 -0.02285 0.14496
 C51 C 0.93248 0.02316 0.15518
 H52 H 0.93617 0.03057 0.17485
 C53 C 0.89398 0.02728 0.14164
 H54 H 0.86875 0.03892 0.15095
 C55 C 0.95954 -0.00320 0.11939
 H56 H 0.98356 -0.01731 0.11098
 C57 C 0.92169 0.00055 0.10514
 H58 H 0.91745 -0.01026 0.08582
 Zn59 Zn 1.00740 -0.00748 0.16428
 N60 N 0.96398 0.00772 0.14396
 C61 C 1.06304 0.10120 0.17992
 N62 N 1.05408 0.05111 0.18366
 C63 C 1.08374 0.04105 0.19976
 C64 C 1.12479 0.08217 0.21268
 C65 C 1.10444 0.14390 0.19230
 C66 C 0.92963 -0.11248 0.17423
 C67 C 0.88932 -0.15292 0.18795
 C68 C 0.91609 -0.09396 0.22304
 C69 C 0.95608 -0.05489 0.20875
 N70 N 0.96177 -0.06454 0.18474
 H71 H 1.03980 0.10836 0.16651
 H72 H 1.07621 0.00090 0.20204
 H73 H 1.14776 0.07296 0.22540
 H74 H 1.11256 0.18378 0.18834
 H75 H 0.93400 -0.11856 0.15490
 H76 H 0.86293 -0.19028 0.17911
 H77 H 0.91131 -0.08519 0.24194
 H78 H 0.98079 -0.01600 0.21652
 C79 C 0.88764 0.01500 0.11635
 C80 C 1.13123 -0.02854 0.12029
 C81 C 0.88150 -0.14336 0.21252
 C82 C 1.13666 0.13466 0.20856
 C83 C 0.07005 0.99659 0.87269
 H84 H 0.03077 0.96324 0.87478
 C85 C 0.11165 0.99776 0.88576
 H86 H 0.10369 0.96560 0.89832
 C87 C 0.12760 1.07851 0.85343
 H88 H 0.13368 1.10898 0.84021
 C89 C 0.17065 1.08104 0.86600
 H90 H 0.20965 1.11380 0.86239
 N91 N 0.07859 1.03645 0.85689
 C92 C -0.08675 0.98623 0.84827
 H93 H -0.09227 0.97534 0.82896
 C94 C -0.12932 0.97986 0.86227
 H95 H -0.16694 0.96444 0.85307
 C96 C -0.02924 1.02443 0.88233
 H97 H 0.01015 1.04299 0.88987
 C98 C -0.07039 1.01975 0.89689
 H99 H -0.06177 1.03271 0.91589
 Zn100 Zn 0.01985 1.02501 0.83777
 N101 N -0.03799 1.00801 0.85846
 C102 C -0.03068 0.91789 0.82139
 N103 N 0.00679 0.96864 0.81628
 C104 C 0.04194 0.97981 0.79782
 C105 C 0.04031 0.93920 0.78359
 C106 C -0.03327 0.87585 0.80780
 C107 C 0.04979 1.13187 0.83334
 C108 C 0.05222 1.17663 0.82247
 C109 C 0.01826 1.12709 0.78466
 C110 C 0.01678 1.08332 0.79622
 N111 N 0.03219 1.08640 0.82018
 H112 H -0.05678 0.90968 0.83683
 H113 H 0.07236 1.02035 0.79463
 H114 H 0.06870 0.94927 0.76896
 H115 H -0.06186 0.83566 0.81290
 H116 H 0.06049 1.13281 0.85256
 H117 H 0.06616 1.21232 0.83335
 H118 H 0.00377 1.12310 0.76591
 H119 H 0.00083 1.04619 0.78640
 C120 C -0.12162 0.99786 0.88694
 C121 C 0.16301 1.03979 0.88214
 C122 C 0.03534 1.17434 0.79794
 C123 C 0.00318 0.88617 0.78885
 C124 C 0.48943 -0.04241 0.01266
 C125 C 0.49246 -0.03602 -0.01234
 C126 C 0.45351 -0.02837 -0.02686
 C127 C 0.53505 -0.03748 -0.02627
 C128 C 0.53472 -0.03811 0.02703
 C129 C 0.44229 -0.05161 0.02684
 C130 C 0.43098 -0.05833 -0.04828
 C131 C 0.39292 -0.05296 -0.06156
 C132 C 0.37647 -0.01751 -0.05370
 C133 C 0.40043 0.01382 -0.03270
 C134 C 0.43891 0.00880 -0.01957
 C135 C 0.53893 -0.08366 -0.02633
 C136 C 0.57924 -0.08505 -0.03928
 C137 C 0.61670 -0.03999 -0.05201
 C138 C 0.61272 0.00617 -0.05196
 C139 C 0.57173 0.00719 -0.03943
 C140 C 0.58410 0.00795 0.02549
 C141 C 0.62648 0.01271 0.03937
 C142 C 0.62027 -0.02840 0.05522
 C143 C 0.57059 -0.07436 0.05687
 C144 C 0.52814 -0.07903 0.04298
 C145 C 0.44845 -0.02236 0.04836
 C146 C 0.40463 -0.02893 0.06130
 C147 C 0.35349 -0.06468 0.05293
 C148 C 0.34739 -0.09546 0.03189
 C149 C 0.39135 -0.08940 0.01915
 H150 H 0.44210 -0.08671 -0.05448
 H151 H 0.37621 -0.07679 -0.07796
 H152 H 0.38855 0.04129 -0.02604
 H153 H 0.45672 0.03334 -0.00346
 H154 H 0.51065 -0.11856 -0.01637
 H155 H 0.58174 -0.12096 -0.03904
 H156 H 0.56911 0.04303 -0.03960
 H157 H 0.58961 0.04053 0.01374
 H158 H 0.66389 0.04902 0.03805
 H159 H 0.56467 -0.10693 0.06872
 H160 H 0.49023 -0.11472 0.04450
 H161 H 0.48729 0.00644 0.05491
 H162 H 0.41086 -0.00562 0.07780
 H163 H 0.30868 -0.12321 0.02486
 H164 H 0.38557 -0.11354 0.00300
 H165 H 0.64108 0.04121 -0.06181
 C166 C -0.01597 0.50786 0.68019
 C167 C -0.01892 0.50720 0.65503
 C168 C -0.02010 0.46364 0.64016
 C169 C -0.01762 0.55185 0.64103
 C170 C -0.02250 0.54718 0.69502
 C171 C -0.00409 0.47050 0.69378
 C172 C 0.01342 0.47584 0.61984
 C173 C 0.01375 0.43557 0.60610
 C174 C -0.01914 0.38204 0.61247
 C175 C -0.05376 0.36981 0.63243
 C176 C -0.05465 0.41018 0.64595
 C177 C 0.02442 0.60365 0.64406
 C178 C 0.02721 0.64508 0.62978
 C179 C -0.01201 0.63548 0.61217
 C180 C -0.05428 0.58350 0.60936
 C181 C -0.05681 0.54205 0.62352
 C182 C -0.06495 0.55578 0.69067
 C183 C -0.06912 0.59494 0.70364
 C184 C -0.03142 0.62574 0.72158
 C185 C 0.00981 0.61547 0.72662
 C186 C 0.01420 0.57663 0.71348
 C187 C -0.03792 0.43777 0.71233
 C188 C -0.02843 0.40046 0.72413
 C189 C 0.01543 0.39562 0.71775
 C190 C 0.05021 0.42982 0.69975
 C191 C 0.04066 0.46701 0.68796
 H192 H 0.03998 0.51670 0.61479
 H193 H 0.03994 0.44647 0.59046
 H194 H -0.07940 0.32912 0.63798
 H195 H -0.08188 0.39969 0.66114
 H196 H 0.05564 0.61176 0.65712
 H197 H 0.06076 0.68437 0.63212
 H198 H -0.08940 0.50226 0.62087
 H199 H -0.09448 0.53270 0.67692
 H200 H -0.10119 0.60191 0.69916
 H201 H 0.03884 0.63757 0.74071
 H202 H 0.04694 0.57032 0.71737
 H203 H -0.07251 0.44006 0.71714
 H204 H -0.05623 0.37442 0.73775
 H205 H 0.08490 0.42786 0.69479
 H206 H 0.06786 0.49274 0.67405
 H207 H -0.08556 0.57485 0.59626
 C208 C 0.50418 0.49638 0.34389
 C209 C 0.50305 0.49895 0.31875
 C210 C 0.55014 0.53806 0.30492
 C211 C 0.45586 0.46209 0.30401
 C212 C 0.46373 0.44980 0.35786
 C213 C 0.54573 0.54093 0.35850
 C214 C 0.54680 0.57356 0.28842
 C215 C 0.59126 0.61045 0.27551
 C216 C 0.63945 0.61163 0.27855
 C217 C 0.64244 0.57538 0.29474
 C218 C 0.59819 0.53903 0.30789
 C219 C 0.40540 0.45162 0.31078
 C220 C 0.36113 0.41489 0.29758
 C221 C 0.36643 0.38871 0.27697
 C222 C 0.41723 0.40130 0.26954
 C223 C 0.46138 0.43744 0.28294
 C224 C 0.44924 0.39789 0.35071
 C225 C 0.41014 0.35441 0.36348
 C226 C 0.38545 0.36187 0.38401
 C227 C 0.40153 0.41394 0.39168
 C228 C 0.44013 0.45736 0.37871
 C229 C 0.57359 0.53118 0.37699
 C230 C 0.61151 0.57288 0.39119
 C231 C 0.62213 0.62510 0.38720
 C232 C 0.59396 0.63468 0.36875
 C233 C 0.55593 0.59299 0.35467
 H234 H 0.50994 0.57309 0.28580
 H235 H 0.58793 0.63773 0.26296
 H236 H 0.67920 0.57572 0.29748
 H237 H 0.60130 0.51145 0.32033
 H238 H 0.40019 0.47122 0.32656
 H239 H 0.32269 0.40605 0.30392
 H240 H 0.49988 0.44540 0.27711
 H241 H 0.46780 0.39100 0.33505
 H242 H 0.39855 0.31497 0.35693
 H243 H 0.38433 0.42121 0.40776
 H244 H 0.45111 0.49698 0.38480
 H245 H 0.56612 0.49129 0.38033
 H246 H 0.63291 0.56438 0.40514
 H247 H 0.60057 0.67431 0.36557
 H248 H 0.53392 0.60125 0.34095
 H249 H 0.42293 0.38296 0.25340
 C250 C -0.09872 0.16075 0.56476
 C251 C -0.04977 0.16976 0.55620
 C252 C -0.00507 0.21976 0.56010
 C253 C -0.00877 0.25954 0.57283
 C254 C -0.05804 0.25011 0.58140
 C255 C -0.10286 0.20063 0.57715
 C256 C -0.06152 0.29023 0.59413
 C257 C -0.01615 0.33949 0.59869
 C258 C 0.03265 0.34790 0.59021
 C259 C 0.03625 0.30853 0.57727
 H260 H 0.03278 0.22801 0.55311
 H261 H -0.14099 0.19258 0.58364
 H262 H -0.09954 0.28321 0.60026
 H263 H 0.07440 0.31621 0.57098
 H264 H -0.13374 0.12256 0.56225
 H265 H 0.06844 0.38479 0.59390
 C266 C 0.80421 0.83276 0.23961
 C267 C 0.83529 0.81691 0.22652
 C268 C 0.82120 0.76313 0.22642
 C269 C 0.77663 0.72562 0.23931
 C270 C 0.74533 0.74201 0.25215
 C271 C 0.75955 0.79565 0.25223
 C272 C 0.70039 0.70452 0.26473
 C273 C 0.68664 0.65088 0.26501
 C274 C 0.71833 0.63502 0.25250
 C275 C 0.76279 0.67202 0.23963
 H276 H 0.84518 0.75065 0.21652
 H277 H 0.73605 0.80889 0.26198
 H278 H 0.67649 0.71713 0.27462
 H279 H 0.78634 0.65873 0.22996
 H280 H 0.81393 0.87388 0.23967
 H281 H 0.70822 0.59379 0.25243
 C282 C 0.25136 0.08569 -0.09662
 C283 C 0.20819 0.03894 -0.10568
 C284 C 0.20814 -0.00923 -0.10305
 C285 C 0.24980 -0.01102 -0.09118
 C286 C 0.29285 0.03608 -0.08201
 C287 C 0.29336 0.08429 -0.08493
 C288 C 0.33444 0.03404 -0.07002
 C289 C 0.33331 -0.01464 -0.06690
 C290 C 0.29003 -0.06114 -0.07610
 C291 C 0.24886 -0.05932 -0.08821
 H292 H 0.17579 -0.04547 -0.11042
 H293 H 0.32599 0.12083 -0.07800
 H294 H 0.36775 0.07032 -0.06330
 H295 H 0.21597 -0.09583 -0.09502
 H296 H 0.25230 0.12326 -0.09822
 H297 H 0.28747 -0.09929 -0.07356
 C298 C 0.03339 0.86269 0.58698
 C299 C 0.01651 0.85322 0.56222
 C300 C -0.00116 0.80256 0.55219
 C301 C -0.00286 0.76175 0.56675
 C302 C 0.01334 0.77150 0.59172
 C303 C 0.03179 0.82222 0.60160
 C304 C 0.01031 0.73027 0.60646
 C305 C -0.00848 0.67928 0.59655
 C306 C -0.02382 0.67036 0.57156
 C307 C -0.02118 0.71112 0.55684
 H308 H -0.01510 0.79437 0.53326
 H309 H 0.04465 0.83051 0.62067
 H310 H 0.02167 0.73769 0.62574
 H311 H -0.03349 0.70301 0.53769
 H312 H 0.04781 0.90148 0.59508
 H313 H -0.03743 0.63186 0.56328
 C314 C 0.23019 0.17583 0.22285
 C315 C 0.18413 0.17912 0.22021
 C316 C 0.18406 0.22473 0.22877
 C317 C 0.22902 0.26583 0.24019
 C318 C 0.27446 0.26121 0.24315
 C319 C 0.27471 0.21623 0.23431
 C320 C 0.31895 0.30144 0.25502
 C321 C 0.31928 0.34698 0.26386
 C322 C 0.27407 0.35156 0.26055
 C323 C 0.22932 0.31132 0.24890
 H324 H 0.14887 0.22782 0.22698
 H325 H 0.30942 0.21230 0.23621
 H326 H 0.35296 0.29664 0.25781
 H327 H 0.19499 0.31578 0.24670
 H328 H 0.23204 0.14199 0.21586
 H329 H 0.27335 0.38646 0.26685
 C330 C 0.84680 0.03409 -0.08055
 C331 C 0.83666 -0.00381 -0.09916
 C332 C 0.78372 -0.04233 -0.10397
 C333 C 0.74247 -0.04248 -0.09091
 C334 C 0.75362 -0.00319 -0.07295
 C335 C 0.80585 0.03459 -0.06780
 C336 C 0.71234 -0.00232 -0.06043
 C337 C 0.66003 -0.04107 -0.06524
 C338 C 0.64926 -0.08087 -0.08263
 C339 C 0.69012 -0.08136 -0.09552
 H340 H 0.77421 -0.07348 -0.11730
 H341 H 0.81510 0.06501 -0.05407
 H342 H 0.72081 0.02803 -0.04675
 H343 H 0.68078 -0.11205 -0.10911
 H344 H 0.88626 0.06555 -0.07653
 H345 H 0.60908 -0.11105 -0.08653
 C346 C 0.22531 0.02007 0.10709
 C347 C 0.17749 -0.02800 0.10891
 C348 C 0.17457 -0.07466 0.09980
 C349 C 0.21853 -0.07295 0.08861
 C350 C 0.26580 -0.02408 0.08649
 C351 C 0.26884 0.02207 0.09589
 C352 C 0.30937 -0.02190 0.07490
 C353 C 0.30701 -0.06804 0.06554
 C354 C 0.25994 -0.11666 0.06795
 C355 C 0.21608 -0.11907 0.07931
 H356 H 0.13801 -0.11195 0.10098
 H357 H 0.30497 0.05977 0.09462
 H358 H 0.34486 0.01610 0.07277
 H359 H 0.18029 -0.15699 0.08085
 H360 H 0.22929 0.05638 0.11453
 H361 H 0.25711 -0.15297 0.06120
 C362 C 0.80785 0.85006 0.40890
 C363 C 0.81173 0.84497 0.43480
 C364 C 0.77489 0.79586 0.44567
 C365 C 0.73709 0.75391 0.43135
 C366 C 0.73460 0.76031 0.40566
 C367 C 0.76992 0.80855 0.39468
 C368 C 0.69703 0.71824 0.39134
 C369 C 0.66200 0.66943 0.40237
 C370 C 0.66501 0.66334 0.42797
 C371 C 0.70213 0.70519 0.44234
 H372 H 0.77695 0.78804 0.46505
 H373 H 0.76815 0.81436 0.37499
 H374 H 0.69559 0.72320 0.37155
 H375 H 0.70343 0.69943 0.46206
 H376 H 0.83228 0.88683 0.39928
 H377 H 0.63809 0.62637 0.43696
 C378 C 0.01585 0.24894 0.80111
 C379 C 0.03234 0.21964 0.78682
 C380 C 0.04385 0.23261 0.76170
 C381 C 0.03813 0.27351 0.75097
 C382 C 0.02110 0.30226 0.76551
 C383 C 0.01047 0.28992 0.79060
 C384 C 0.01441 0.34248 0.75470
 C385 C 0.02421 0.35427 0.72941
 C386 C 0.04153 0.32563 0.71517
 C387 C 0.04854 0.28575 0.72585
 H388 H 0.05718 0.21086 0.75050
 H389 H -0.00278 0.31143 0.80202
 H390 H 0.00174 0.36468 0.76598
 H391 H 0.06149 0.26404 0.71438
 H392 H 0.00576 0.23933 0.82036
 H393 H 0.04867 0.33334 0.69560
 C394 C 0.85119 0.03243 0.07760
 C395 C 0.84369 0.01376 0.10206
 C396 C 0.79328 -0.00854 0.11246
 C397 C 0.75081 -0.01290 0.09855
 C398 C 0.75872 0.00556 0.07391
 C399 C 0.80912 0.02846 0.06366
 C400 C 0.71604 0.00037 0.05987
 C401 C 0.66538 -0.02305 0.07011
 C402 C 0.65810 -0.04104 0.09468
 C403 C 0.70039 -0.03604 0.10876
 H404 H 0.78675 -0.02391 0.13115
 H405 H 0.81594 0.04297 0.04482
 H406 H 0.72213 0.01377 0.04085
 H407 H 0.69364 -0.05028 0.12765
 H408 H 0.88971 0.05016 0.06924
 H409 H 0.61971 -0.05845 0.10315
 C410 C 0.17402 0.23530 0.43912
 C411 C 0.17433 0.18730 0.44179
 C412 C 0.21752 0.18397 0.43279
 C413 C 0.25932 0.22770 0.42106
 C414 C 0.25784 0.27523 0.41816
 C415 C 0.21514 0.27866 0.42731
 C416 C 0.29899 0.31862 0.40609
 C417 C 0.34231 0.31571 0.39705
 C418 C 0.34366 0.26836 0.40027
 C419 C 0.30249 0.22473 0.41208
 H420 H 0.21826 0.14722 0.43452
 H421 H 0.21361 0.31497 0.42543
 H422 H 0.29673 0.35438 0.40339
 H423 H 0.30450 0.18873 0.41424
 H424 H 0.14209 0.23964 0.44639
 H425 H 0.37681 0.26513 0.39385
 C426 C 0.05342 0.84712 0.76911
 C427 C 0.00481 0.84212 0.77571
 C428 C -0.04166 0.79452 0.77021
 C429 C -0.03950 0.75273 0.75837
 C430 C 0.00962 0.75868 0.75170
 C431 C 0.05578 0.80603 0.75711
 C432 C 0.01191 0.71721 0.73976
 C433 C -0.03428 0.66928 0.73452
 C434 C -0.08298 0.66366 0.74138
 C435 C -0.08558 0.70502 0.75312
 H436 H -0.07948 0.79006 0.77494
 H437 H 0.09381 0.81112 0.75228
 H438 H 0.04971 0.72265 0.73421
 H439 H -0.12362 0.69958 0.75819
 H440 H 0.08997 0.88258 0.77361
 H441 H -0.11916 0.62702 0.73790
   
