data_POSCAR
  _audit_creation_date              2014-09-24
  _audit_creation_method            'ToBaCCo'
  _symmetry_space_group_name_H-M    'P1'
  _symmetry_Int_Tables_number       1
  _symmetry_cell_setting            triclinic
  loop_
  _symmetry_equiv_pos_as_xyz
 x,y,z
_cell_length_a 10.3636
_cell_length_b 10.8739
_cell_length_c 26.8212
_cell_angle_alpha 86.283900
_cell_angle_beta 90.745500
_cell_angle_gamma 117.985600
loop_
  _atom_site_label
  _atom_site_type_symbol
  _atom_site_fract_x
  _atom_site_fract_y
  _atom_site_fract_z
C1 C 0.17822 0.02275 0.50772
 C2 C 1.02391 0.23508 0.16853
 C3 C -0.20688 0.79740 0.83876
 O4 O 0.47111 0.00468 0.07318
 O5 O 0.21499 -0.09646 -0.03140
 O6 O 0.43250 -0.14921 -0.00409
 O7 O 0.24942 0.03171 0.04834
 O8 O 0.40019 0.22816 0.00596
 O9 O 0.57743 0.04215 -0.04988
 O10 O 0.36702 0.09645 -0.07515
 O11 O 0.62637 0.19239 0.02773
 Cu12 Cu 0.32813 -0.07350 0.02543
 Cu13 Cu 0.50813 0.15892 -0.02727
 C14 C 0.59053 0.11774 0.06852
 C15 C 0.24693 -0.01531 -0.07074
 C16 C 0.53448 -0.08546 -0.03641
 C17 C 0.29512 0.16054 0.03721
 O18 O 0.06580 0.32708 0.63303
 O19 O -0.04429 0.47541 0.73527
 O20 O -0.04090 0.24496 0.72447
 O21 O 0.13228 0.58767 0.65882
 O22 O -0.07232 0.54282 0.61996
 O23 O -0.24713 0.18875 0.68475
 O24 O -0.25326 0.41844 0.69674
 O25 O -0.13773 0.28981 0.59425
 Cu26 Cu 0.05068 0.41408 0.69054
 Cu27 Cu -0.19316 0.35669 0.64530
 C28 C -0.02054 0.28075 0.59643
 C29 C -0.17146 0.46702 0.73358
 C30 C -0.17251 0.15927 0.71695
 C31 C 0.06017 0.62646 0.62946
 O32 O 0.70115 0.80554 0.30139
 O33 O 0.49971 0.51554 0.39769
 O34 O 0.74404 0.74927 0.39092
 O35 O 0.42717 0.61336 0.31213
 O36 O 0.49972 0.47562 0.27859
 O37 O 0.83087 0.62223 0.35681
 O38 O 0.59881 0.39820 0.36462
 O39 O 0.78594 0.67472 0.26941
 Cu40 Cu 0.58078 0.67888 0.35368
 Cu41 Cu 0.67879 0.52548 0.31220
 C42 C 0.78558 0.79033 0.27099
 C43 C 0.52464 0.41108 0.39887
 C44 C 0.84276 0.71310 0.38699
 C45 C 0.40815 0.52268 0.28178
 C46 C 0.08531 0.09232 0.51916
 C47 C 0.00455 0.12654 0.48473
 C48 C -0.04602 0.20121 0.50942
 C49 C 0.01148 0.21213 0.55648
 O50 O 0.09208 0.14762 0.56248
 H51 H -0.01181 0.10445 0.44576
 H52 H -0.11416 0.24524 0.49459
 C53 C 0.99690 1.09803 0.19637
 C54 C 1.10084 1.05277 0.20330
 C55 C 1.03215 0.92849 0.23043
 C56 C 0.89312 0.90883 0.23968
 O57 O 0.87140 1.01138 0.21965
 H58 H 1.21365 1.10473 0.19038
 H59 H 1.07916 0.86224 0.24353
 C60 C -0.05197 -0.12935 -0.15113
 C61 C 0.05959 -0.07214 -0.18716
 C62 C 0.18646 -0.01855 -0.16153
 C63 C 0.14436 -0.05096 -0.11197
 O64 O 0.00091 -0.11861 -0.10537
 H65 H 0.04951 -0.07061 -0.22739
 H66 H 0.29656 0.03444 -0.17706
 C67 C 0.18458 0.94061 0.55493
 C68 C 0.28337 0.99171 0.59294
 C69 C 0.25037 0.87991 0.62609
 C70 C 0.13152 0.76987 0.60659
 O71 O 0.09054 0.80648 0.56390
 H72 H 0.36991 1.09708 0.59575
 H73 H 0.30564 0.87874 0.66049
 C74 C 0.11078 0.35066 0.20277
 C75 C 0.07618 0.45208 0.21661
 C76 C 0.18400 0.53047 0.24795
 C77 C 0.27748 0.47254 0.25057
 O78 O 0.23405 0.36434 0.22302
 H79 H -0.01589 0.46774 0.20530
 H80 H 0.19342 0.61941 0.26672
 C81 C 0.70814 -0.21397 -0.11364
 C82 C 0.66881 -0.31671 -0.07513
 C83 C 0.59696 -0.28308 -0.04056
 C84 C 0.60129 -0.16059 -0.05987
 O85 O 0.66945 -0.11793 -0.10369
 H86 H 0.68997 -0.40522 -0.07267
 H87 H 0.54889 -0.33978 -0.00533
 C88 C 0.11478 0.26228 0.12114
 C89 C 0.18139 0.38776 0.09262
 C90 C 0.25681 0.36703 0.05545
 C91 C 0.22836 0.23022 0.06376
 O92 O 0.14170 0.16673 0.10293
 H93 H 0.17838 0.48354 0.09915
 H94 H 0.32627 0.44278 0.02663
 C95 C 1.11694 0.91869 0.46732
 C96 C 1.18765 0.84993 0.44843
 C97 C 1.09373 0.76137 0.41562
 C98 C 0.97245 0.78147 0.41729
 O99 O 0.98542 0.87524 0.44868
 H100 H 1.29439 0.86173 0.45796
 H101 H 1.11143 0.69111 0.39325
 C102 C -0.24852 -0.12918 0.80008
 C103 C -0.38761 -0.17783 0.78055
 C104 C -0.37881 -0.07672 0.74573
 C105 C -0.23615 0.02638 0.74687
 O106 O -0.15801 -0.00406 0.77982
 H107 H -0.48431 -0.27482 0.79074
 H108 H -0.46583 -0.07736 0.72282
 C109 C 0.87637 0.22334 0.15373
 C110 C 0.76536 0.20115 0.18707
 C111 C 0.64270 0.16056 0.15924
 C112 C 0.68805 0.16317 0.11101
 O113 O 0.82875 0.20132 0.10740
 H114 H 0.77133 0.20402 0.22731
 H115 H 0.53278 0.12903 0.17259
 C116 C 0.32526 0.13801 0.48854
 C117 C 0.45575 0.13228 0.49113
 C118 C 0.55001 0.23969 0.45971
 C119 C 0.47096 0.30348 0.44027
 O120 O 0.33487 0.24189 0.45725
 H121 H 0.47685 0.05361 0.51074
 H122 H 0.66108 0.26451 0.45009
 C123 C -0.24130 0.65583 0.82040
 C124 C -0.37809 0.53981 0.82217
 C125 C -0.36741 0.44931 0.79176
 C126 C -0.22520 0.51577 0.77399
 O127 O -0.14905 0.64053 0.79083
 H128 H -0.47638 0.52673 0.84061
 H129 H -0.45452 0.34990 0.78171
   
