data_POSCAR
  _audit_creation_date              2014-09-24
  _audit_creation_method            'ToBaCCo'
  _symmetry_space_group_name_H-M    'P1'
  _symmetry_Int_Tables_number       1
  _symmetry_cell_setting            triclinic
  loop_
  _symmetry_equiv_pos_as_xyz
 x,y,z
_cell_length_a 46.6547
_cell_length_b 45.8370
_cell_length_c 46.5074
_cell_angle_alpha 89.924200
_cell_angle_beta 90.003000
_cell_angle_gamma 89.999900
loop_
  _atom_site_label
  _atom_site_type_symbol
  _atom_site_fract_x
  _atom_site_fract_y
  _atom_site_fract_z
C1 C 0.61203 0.64969 0.61285
 C2 C 0.63671 0.63734 0.60071
 C3 C 0.64907 0.61290 0.61316
 C4 C 0.63690 0.60053 0.63790
 C5 C 0.61250 0.61274 0.64990
 C6 C 0.60000 0.63746 0.63730
 C7 C 0.59547 0.67339 0.60537
 N8 N 0.57388 0.67565 0.62469
 C9 C 0.57632 0.65392 0.64430
 C10 C 0.60545 0.59629 0.67368
 N11 N 0.62500 0.57458 0.67618
 C12 C 0.64433 0.57683 0.65455
 C13 C 0.67269 0.60569 0.59689
 N14 N 0.67477 0.62515 0.57507
 C15 C 0.65301 0.64459 0.57707
 H16 H 0.59883 0.68790 0.58729
 H17 H 0.56195 0.65042 0.66226
 H18 H 0.58752 0.59981 0.68805
 H19 H 0.66237 0.56235 0.65122
 H20 H 0.68727 0.58769 0.60061
 H21 H 0.64937 0.66261 0.56243
 C22 C 0.88875 0.34995 0.11240
 C23 C 0.86409 0.36238 0.10026
 C24 C 0.85179 0.38682 0.11269
 C25 C 0.86401 0.39913 0.13741
 C26 C 0.88838 0.38685 0.14941
 C27 C 0.90083 0.36212 0.13684
 C28 C 0.90524 0.32621 0.10494
 N29 N 0.92683 0.32389 0.12428
 C30 C 0.92447 0.34559 0.14388
 C31 C 0.89545 0.40325 0.17317
 N32 N 0.87596 0.42499 0.17568
 C33 C 0.85664 0.42280 0.15406
 C34 C 0.82817 0.39411 0.09644
 N35 N 0.82603 0.37467 0.07464
 C36 C 0.84775 0.35519 0.07665
 H37 H 0.90181 0.31173 0.08688
 H38 H 0.93884 0.34905 0.16185
 H39 H 0.91335 0.39968 0.18756
 H40 H 0.83863 0.43732 0.15075
 H41 H 0.81362 0.41212 0.10014
 H42 H 0.85133 0.33718 0.06204
 C43 C 0.38781 0.14921 -0.11273
 C44 C 0.36313 0.13683 -0.10058
 C45 C 0.35074 0.11245 -0.11304
 C46 C 0.36287 0.10016 -0.13780
 C47 C 0.38727 0.11239 -0.14981
 C48 C 0.39981 0.13706 -0.13720
 C49 C 0.40439 0.17287 -0.10526
 N50 N 0.42597 0.17518 -0.12460
 C51 C 0.42349 0.15352 -0.14422
 C52 C 0.39428 0.09603 -0.17362
 N53 N 0.37471 0.07435 -0.17612
 C54 C 0.35541 0.07653 -0.15448
 C55 C 0.32712 0.10521 -0.09676
 N56 N 0.32507 0.12460 -0.07492
 C57 C 0.34685 0.14402 -0.07692
 H58 H 0.40106 0.18733 -0.08717
 H59 H 0.43784 0.15007 -0.16220
 H60 H 0.41220 0.09959 -0.18800
 H61 H 0.33736 0.06206 -0.15115
 H62 H 0.31252 0.08724 -0.10048
 H63 H 0.35051 0.16199 -0.06228
 C64 C 0.11119 0.85058 0.38753
 C65 C 0.13583 0.86303 0.39967
 C66 C 0.14814 0.88747 0.38718
 C67 C 0.13597 0.89975 0.36239
 C68 C 0.11162 0.88744 0.35039
 C69 C 0.09916 0.86272 0.36302
 C70 C 0.09471 0.82683 0.39504
 N71 N 0.07315 0.82448 0.37566
 C72 C 0.07554 0.84617 0.35600
 C73 C 0.10457 0.90380 0.32655
 N74 N 0.12408 0.92554 0.32401
 C75 C 0.14337 0.92341 0.34567
 C76 C 0.17174 0.89477 0.40345
 N77 N 0.17385 0.87535 0.42531
 C78 C 0.15213 0.85586 0.42333
 H79 H 0.09811 0.81237 0.41316
 H80 H 0.06120 0.84961 0.33799
 H81 H 0.08667 0.90018 0.31215
 H82 H 0.16138 0.93793 0.34898
 H83 H 0.18629 0.91278 0.39970
 H84 H 0.14853 0.83785 0.43799
 N85 N 0.09087 0.17038 0.11130
 N86 N 0.07926 0.15814 0.13404
 C87 C 0.05603 0.17364 0.14190
 C88 C 0.05283 0.19686 0.12303
 C89 C 0.07542 0.19401 0.10389
 H90 H 0.04236 0.16826 0.15989
 H91 H 0.08049 0.20817 0.08600
 Cu92 Cu 0.09563 0.12316 0.15121
 Cu93 Cu 0.12519 0.15489 0.09304
 Cu94 Cu 0.15562 0.09335 0.12385
 N95 N 0.11346 0.08909 0.16867
 N96 N 0.13685 0.07753 0.15785
 C97 C 0.14457 0.05438 0.17390
 C98 C 0.12499 0.05118 0.19610
 C99 C 0.10555 0.07369 0.19204
 H100 H 0.16323 0.04107 0.16978
 H101 H 0.08689 0.07841 0.20498
 N102 N 0.17145 0.11254 0.08940
 N103 N 0.15989 0.13599 0.07770
 C104 C 0.17553 0.14384 0.05462
 C105 C 0.19805 0.12440 0.05154
 C106 C 0.19471 0.10485 0.07403
 H107 H 0.17067 0.16222 0.04089
 H108 H 0.20834 0.08648 0.07902
 H109 H 0.11953 0.11208 0.10585
 H110 H 0.14169 0.13575 0.12979
 N111 N 0.40827 0.82986 0.61151
 N112 N 0.41982 0.84206 0.63427
 C113 C 0.44309 0.82661 0.64215
 C114 C 0.44638 0.80346 0.62328
 C115 C 0.42380 0.80630 0.60410
 H116 H 0.45672 0.83197 0.66016
 H117 H 0.41880 0.79218 0.58621
 Cu118 Cu 0.40333 0.87694 0.65142
 Cu119 Cu 0.37393 0.84531 0.59321
 Cu120 Cu 0.34324 0.90661 0.62406
 N121 N 0.38540 0.91092 0.66886
 N122 N 0.36197 0.92243 0.65804
 C123 C 0.35419 0.94554 0.67406
 C124 C 0.37378 0.94876 0.69625
 C125 C 0.39329 0.92631 0.69220
 H126 H 0.33550 0.95881 0.66993
 H127 H 0.41196 0.92164 0.70514
 N128 N 0.32747 0.88743 0.58962
 N129 N 0.33918 0.86414 0.57785
 C130 C 0.32361 0.85633 0.55472
 C131 C 0.30094 0.87562 0.55171
 C132 C 0.30413 0.89504 0.57429
 H133 H 0.32834 0.83781 0.54119
 H134 H 0.29063 0.91354 0.57909
 H135 H 0.37941 0.88809 0.60606
 H136 H 0.35733 0.86423 0.62996
 N137 N 0.90909 0.67100 0.38890
 N138 N 0.92073 0.65874 0.36622
 C139 C 0.94399 0.67422 0.35835
 C140 C 0.94717 0.69745 0.37715
 C141 C 0.92455 0.69462 0.39627
 H142 H 0.95768 0.66883 0.34040
 H143 H 0.91946 0.70879 0.41411
 Cu144 Cu 0.90436 0.62378 0.34912
 Cu145 Cu 0.87475 0.65552 0.40716
 Cu146 Cu 0.84433 0.59400 0.37648
 N147 N 0.88653 0.58972 0.33172
 N148 N 0.86312 0.57817 0.34254
 C149 C 0.85540 0.55503 0.32654
 C150 C 0.87500 0.55182 0.30437
 C151 C 0.89446 0.57432 0.30840
 H152 H 0.83673 0.54173 0.33067
 H153 H 0.91313 0.57902 0.29547
 N154 N 0.82848 0.61319 0.41087
 N155 N 0.84001 0.63665 0.42251
 C156 C 0.82436 0.64450 0.44556
 C157 C 0.80184 0.62506 0.44867
 C158 C 0.80520 0.60550 0.42624
 H159 H 0.82919 0.66288 0.45924
 H160 H 0.79158 0.58712 0.42130
 H161 H 0.88041 0.61271 0.39448
 H162 H 0.85828 0.63639 0.37045
 N163 N 0.59202 0.32891 -0.11197
 N164 N 0.58080 0.34082 -0.13508
 C165 C 0.55751 0.32541 -0.14293
 C166 C 0.55387 0.30257 -0.12369
 C167 C 0.57627 0.30557 -0.10432
 H168 H 0.54408 0.33059 -0.16116
 H169 H 0.58098 0.29171 -0.08612
 Cu170 Cu 0.59777 0.37533 -0.15257
 Cu171 Cu 0.62625 0.34446 -0.09353
 Cu172 Cu 0.65682 0.40600 -0.12432
 N173 N 0.61514 0.40983 -0.16967
 N174 N 0.63819 0.42173 -0.15847
 C175 C 0.64569 0.44514 -0.17425
 C176 C 0.62631 0.44818 -0.19665
 C177 C 0.60721 0.42529 -0.19299
 H178 H 0.66406 0.45876 -0.16979
 H179 H 0.58877 0.42038 -0.20617
 N180 N 0.67248 0.38686 -0.08975
 N181 N 0.66089 0.36342 -0.07807
 C182 C 0.67645 0.35559 -0.05492
 C183 C 0.69897 0.37503 -0.05179
 C184 C 0.69570 0.39456 -0.07432
 H185 H 0.67157 0.33721 -0.04121
 H186 H 0.70937 0.41290 -0.07929
 H187 H 0.62056 0.38710 -0.10685
 H188 H 0.64347 0.36340 -0.13000
 C189 C -0.01265 0.26298 0.12371
 C190 C 0.00560 0.26025 0.10001
 C191 C 0.02690 0.23879 0.09977
 C192 C -0.05295 0.30356 0.12408
 C193 C 0.01173 0.22267 0.14701
 C194 C -0.00954 0.24416 0.14720
 C195 C -0.03457 0.28507 0.12391
 C196 C 0.03024 0.21970 0.12328
 H197 H 0.00334 0.27468 0.08168
 H198 H 0.04051 0.23711 0.08103
 H199 H 0.01370 0.20862 0.16560
 H200 H -0.02353 0.24612 0.16569
 C201 C 0.51204 0.73753 0.62403
 C202 C 0.49381 0.74027 0.60030
 C203 C 0.47245 0.76167 0.60004
 C204 C 0.55245 0.69707 0.62445
 C205 C 0.48753 0.77770 0.64730
 C206 C 0.50885 0.75627 0.64751
 C207 C 0.53402 0.71550 0.62426
 C208 C 0.46903 0.78069 0.62355
 H209 H 0.49612 0.72589 0.58197
 H210 H 0.45885 0.76336 0.58128
 H211 H 0.48549 0.79170 0.66588
 H212 H 0.52283 0.75430 0.66602
 C213 C 1.01267 0.76355 0.37636
 C214 C 0.99439 0.76083 0.40005
 C215 C 0.97309 0.73937 0.40033
 C216 C 1.05295 0.80414 0.37588
 C217 C 0.98831 0.72323 0.35315
 C218 C 1.00958 0.74472 0.35292
 C219 C 1.03458 0.78564 0.37610
 C220 C 0.96977 0.72027 0.37687
 H221 H 0.99663 0.77527 0.41834
 H222 H 0.95946 0.73770 0.41906
 H223 H 0.98635 0.70916 0.33461
 H224 H 1.02359 0.74666 0.33444
 C225 C 0.48790 0.23696 -0.12407
 C226 C 0.50586 0.23998 -0.10018
 C227 C 0.52730 0.26129 -0.10002
 C228 C 0.44741 0.19658 -0.12439
 C229 C 0.51286 0.27669 -0.14773
 C230 C 0.49144 0.25535 -0.14783
 C231 C 0.46586 0.21499 -0.12423
 C232 C 0.53109 0.27994 -0.12381
 H233 H 0.50327 0.22589 -0.08164
 H234 H 0.54069 0.26320 -0.08114
 H235 H 0.51518 0.29039 -0.16653
 H236 H 0.47768 0.25316 -0.16647
 C237 C 0.12459 -0.01411 0.26268
 C238 C 0.14299 -0.01693 0.23911
 C239 C 0.14316 0.00427 0.21747
 C240 C 0.12426 -0.05430 0.30354
 C241 C 0.10645 0.03125 0.24295
 C242 C 0.10634 0.01001 0.26456
 C243 C 0.12442 -0.03597 0.28492
 C244 C 0.12487 0.02866 0.21910
 H245 H 0.15719 -0.03556 0.23742
 H246 H 0.15748 0.00133 0.19943
 H247 H 0.09222 0.04974 0.24515
 H248 H 0.09203 0.01244 0.28275
 C249 C 0.62561 0.51393 -0.26279
 C250 C 0.60779 0.48951 -0.26505
 C251 C 0.60799 0.46813 -0.24358
 C252 C 0.62519 0.55433 -0.30344
 C253 C 0.64393 0.49556 -0.21747
 C254 C 0.64367 0.51691 -0.23897
 C255 C 0.62538 0.53592 -0.28490
 C256 C 0.62607 0.47087 -0.21949
 H257 H 0.59375 0.48696 -0.28343
 H258 H 0.59411 0.44941 -0.24608
 H259 H 0.65798 0.49862 -0.19923
 H260 H 0.65753 0.53576 -0.23698
 C261 C 0.37412 1.01401 0.76270
 C262 C 0.35575 1.01685 0.73910
 C263 C 0.35559 0.99566 0.71751
 C264 C 0.37449 1.05419 0.80346
 C265 C 0.39226 0.96864 0.74309
 C266 C 0.39236 0.98987 0.76465
 C267 C 0.37431 1.03587 0.78488
 C268 C 0.37387 0.97126 0.71921
 H269 H 0.34157 1.03549 0.73735
 H270 H 0.34130 0.99862 0.69944
 H271 H 0.40647 0.95015 0.74534
 H272 H 0.40664 0.98742 0.78286
 C273 C 0.87544 0.48652 0.23797
 C274 C 0.85700 0.48372 0.26152
 C275 C 0.85682 0.50493 0.28310
 C276 C 0.87577 0.44631 0.19724
 C277 C 0.89360 0.53186 0.25761
 C278 C 0.89372 0.51062 0.23606
 C279 C 0.87562 0.46465 0.21580
 C280 C 0.87514 0.52929 0.28143
 H281 H 0.84278 0.46511 0.26324
 H282 H 0.84246 0.50200 0.30112
 H283 H 0.90785 0.55033 0.25538
 H284 H 0.90806 0.51303 0.21788
 C285 C 0.26359 0.12455 -0.01357
 C286 C 0.26014 0.10027 0.00435
 C287 C 0.23887 0.10020 0.02553
 C288 C 0.30379 0.12458 -0.05366
 C289 C 0.22439 0.14877 0.01091
 C290 C 0.24569 0.14878 -0.01024
 C291 C 0.28548 0.12457 -0.03538
 C292 C 0.22069 0.12446 0.02908
 H293 H 0.27385 0.08136 0.00193
 H294 H 0.23660 0.08100 0.03887
 H295 H 0.21105 0.16793 0.01307
 H296 H 0.24822 0.16772 -0.02397
 C297 C 0.73627 0.62518 0.51373
 C298 C 0.73986 0.60083 0.49601
 C299 C 0.76114 0.60077 0.47484
 C300 C 0.69606 0.62518 0.55381
 C301 C 0.77534 0.64950 0.48909
 C302 C 0.75403 0.64950 0.51022
 C303 C 0.71438 0.62519 0.53554
 C304 C 0.77918 0.62511 0.47111
 H305 H 0.72626 0.58185 0.49858
 H306 H 0.76353 0.58151 0.46165
 H307 H 0.78858 0.66873 0.48677
 H308 H 0.75140 0.66850 0.52380
 C309 C 0.76447 0.37481 0.01336
 C310 C 0.74655 0.35060 0.01002
 C311 C 0.72525 0.35063 -0.01113
 C312 C 0.80471 0.37471 0.05341
 C313 C 0.73977 0.39920 -0.02573
 C314 C 0.76103 0.39910 -0.00455
 C315 C 0.78637 0.37475 0.03515
 C316 C 0.72158 0.37495 -0.02930
 H317 H 0.74906 0.33164 0.02374
 H318 H 0.71190 0.33148 -0.01331
 H319 H 0.73752 0.41840 -0.03907
 H320 H 0.77477 0.41800 -0.00211
 C321 C 0.23537 0.87544 0.48662
 C322 C 0.23251 0.89316 0.51091
 C323 C 0.25379 0.89324 0.53208
 C324 C 0.19514 0.87538 0.44656
 C325 C 0.28092 0.85776 0.50472
 C326 C 0.25961 0.85775 0.48358
 C327 C 0.21347 0.87541 0.46483
 C328 C 0.27829 0.87553 0.52926
 H329 H 0.21380 0.90691 0.51351
 H330 H 0.25082 0.90702 0.55069
 H331 H 0.29949 0.84402 0.50160
 H332 H 0.26207 0.84396 0.46483
   
