data_POSCAR
  _audit_creation_date              2014-09-24
  _audit_creation_method            'ToBaCCo'
  _symmetry_space_group_name_H-M    'P1'
  _symmetry_Int_Tables_number       1
  _symmetry_cell_setting            triclinic
  loop_
  _symmetry_equiv_pos_as_xyz
 x,y,z
_cell_length_a 36.0909
_cell_length_b 37.1014
_cell_length_c 13.2577
_cell_angle_alpha 90.226300
_cell_angle_beta 88.095200
_cell_angle_gamma 121.631800
loop_
  _atom_site_label
  _atom_site_type_symbol
  _atom_site_fract_x
  _atom_site_fract_y
  _atom_site_fract_z
C1 C 0.14212 0.43349 0.45342
 C2 C 0.17549 0.45325 0.37819
 C3 C 0.21875 0.47052 0.40591
 C4 C 0.22869 0.46421 0.50416
 C5 C 0.19460 0.44515 0.57818
 C6 C 0.15188 0.43317 0.55561
 C7 C 0.27460 0.47839 0.52909
 C8 C 0.29000 0.49042 0.62815
 C9 C 0.33338 0.50424 0.64827
 C10 C 0.36175 0.50749 0.57025
 C11 C 0.34730 0.49484 0.47307
 C12 C 0.30367 0.47976 0.45273
 H13 H 0.10893 0.42125 0.43290
 H14 H 0.24458 0.48807 0.34955
 H15 H 0.20143 0.44133 0.65493
 H16 H 0.26911 0.48995 0.68917
 H17 H 0.39537 0.51871 0.58660
 H18 H 0.29256 0.46940 0.37746
 C19 C 0.56771 -0.28687 0.53729
 C20 C 0.55534 -0.28147 0.44113
 C21 C 0.53824 -0.25508 0.43246
 C22 C 0.53117 -0.23644 0.51853
 C23 C 0.54254 -0.24401 0.61325
 C24 C 0.55902 -0.27034 0.62444
 C25 C 0.50920 -0.21164 0.51225
 C26 C 0.48600 -0.20897 0.59757
 C27 C 0.46620 -0.18528 0.59357
 C28 C 0.46655 -0.16661 0.50258
 C29 C 0.49140 -0.16624 0.41834
 C30 C 0.51208 -0.18940 0.42292
 H31 H 0.58216 -0.30571 0.54489
 H32 H 0.52773 -0.25154 0.35960
 H33 H 0.53858 -0.22957 0.68041
 H34 H 0.48244 -0.22542 0.66763
 H35 H 0.44910 -0.15020 0.49977
 H36 H 0.53156 -0.18865 0.35819
 C37 C 1.29073 0.86146 0.56390
 C38 C 1.28274 0.85529 0.46062
 C39 C 1.24724 0.81583 0.42953
 C40 C 1.22253 0.78255 0.50115
 C41 C 1.23397 0.78961 0.60305
 C42 C 1.26640 0.82904 0.63458
 C43 C 1.18688 0.73928 0.47228
 C44 C 1.15355 0.71341 0.54458
 C45 C 1.12575 0.66977 0.53096
 C46 C 1.12755 0.65327 0.43626
 C47 C 1.15815 0.67885 0.36074
 C48 C 1.18838 0.72160 0.37900
 H49 H 1.31762 0.89130 0.58996
 H50 H 1.23959 0.81038 0.35080
 H51 H 1.21863 0.76423 0.65883
 H52 H 1.15070 0.72680 0.61501
 H53 H 1.10547 0.62047 0.41844
 H54 H 1.21383 0.74008 0.32259
 C55 C 0.86178 0.50922 0.53777
 C56 C 0.86118 0.52859 0.44764
 C57 C 0.83451 0.54551 0.44397
 C58 C 0.80658 0.54102 0.52678
 C59 C 0.80752 0.52095 0.61618
 C60 C 0.83522 0.50520 0.62128
 C61 C 0.77516 0.55532 0.51660
 C62 C 0.76182 0.57018 0.59999
 C63 C 0.73101 0.58231 0.58997
 C64 C 0.71557 0.58141 0.49269
 C65 C 0.72745 0.56543 0.41041
 C66 C 0.75638 0.55181 0.42296
 H67 H 0.88391 0.49808 0.54549
 H68 H 0.83519 0.56173 0.37554
 H69 H 0.78602 0.51627 0.68033
 H70 H 0.77486 0.57171 0.67337
 H71 H 0.69063 0.58850 0.48047
 H72 H 0.76305 0.53714 0.35988
 C73 C 0.51278 0.36372 0.49070
 C74 C 0.51728 0.34575 0.40297
 C75 C 0.50521 0.30360 0.40344
 C76 C 0.48497 0.27730 0.49008
 C77 C 0.47967 0.29611 0.57886
 C78 C 0.49553 0.34004 0.58123
 C79 C 0.47205 0.23149 0.48606
 C80 C 0.46652 0.20701 0.57408
 C81 C 0.46072 0.16626 0.56620
 C82 C 0.46590 0.15313 0.46971
 C83 C 0.46970 0.17590 0.38332
 C84 C 0.46916 0.21288 0.39092
 H85 H 0.52065 0.39609 0.48483
 H86 H 0.51301 0.29257 0.33538
 H87 H 0.46425 0.27726 0.64658
 H88 H 0.46743 0.21946 0.64840
 H89 H 0.46924 0.12603 0.45959
 H90 H 0.46948 0.22792 0.32114
 C91 C 0.65292 0.11742 0.45136
 C92 C 0.67570 0.14503 0.37012
 C93 C 0.71870 0.17871 0.38145
 C94 C 0.73929 0.18398 0.47398
 C95 C 0.71617 0.15416 0.55291
 C96 C 0.67284 0.12148 0.54344
 C97 C 0.78384 0.22109 0.49204
 C98 C 0.79423 0.23789 0.58985
 C99 C 0.83696 0.26858 0.61327
 C100 C 0.86900 0.28591 0.53467
 C101 C 0.85786 0.27455 0.43368
 C102 C 0.81597 0.24037 0.41365
 H103 H 0.61885 0.09397 0.44249
 H104 H 0.73505 0.20136 0.32002
 H105 H 0.73150 0.15666 0.62356
 H106 H 0.76916 0.22628 0.64940
 H107 H 0.90179 0.31099 0.55063
 H108 H 0.80832 0.22976 0.33678
 N109 N 0.97264 0.52411 0.13191
 N110 N 0.94179 0.52901 0.17410
 N111 N 1.06990 0.55078 0.11452
 N112 N 1.10254 0.57894 0.16800
 N113 N 1.05834 0.56995 0.05084
 N114 N 1.08256 0.61146 0.06143
 N115 N 0.98380 0.50434 0.19437
 N116 N 0.96086 0.49488 0.27981
 C117 C 0.93513 0.51063 0.26668
 C118 C 1.11087 0.61673 0.13271
 N119 N 1.06264 0.44210 0.06061
 N120 N 1.08484 0.42450 0.08656
 N121 N 0.98673 0.42854 0.19765
 N122 N 0.96659 0.41381 0.28613
 N123 N 0.97625 0.39731 0.13506
 N124 N 0.94859 0.36038 0.17969
 N125 N 1.07317 0.47489 0.11827
 N126 N 1.10369 0.48081 0.18028
 Mn127 Mn 1.02846 0.48973 0.15624
 C128 C 1.11154 0.44987 0.15870
 C129 C 0.94293 0.37143 0.27415
 N130 N 1.02524 0.55041 -0.15245
 N131 N 1.04958 0.58685 -0.20245
 N132 N 0.92927 0.47423 -0.12993
 N133 N 0.89561 0.46636 -0.18309
 N134 N 0.93977 0.50611 -0.06939
 N135 N 0.91360 0.52060 -0.08109
 N136 N 1.01467 0.51852 -0.21274
 N137 N 1.03138 0.53202 -0.30428
 Mn138 Mn 0.99912 0.53802 -0.00979
 C139 C 1.05316 0.57447 -0.29720
 C140 C 0.88544 0.49483 -0.15036
 N141 N 0.94535 0.37818 -0.07090
 N142 N 0.92655 0.33808 -0.09777
 N143 N 1.01745 0.44280 -0.20999
 N144 N 1.03473 0.44587 -0.30088
 N145 N 1.03114 0.42561 -0.14621
 N146 N 1.05836 0.41661 -0.19256
 N147 N 0.93179 0.39777 -0.12770
 N148 N 0.90237 0.37081 -0.18956
 Mn149 Mn 1.00395 0.41069 -0.00535
 Mn150 Mn 0.97320 0.45830 -0.16977
 Cl151 Cl 1.00128 0.47416 -0.00725
 C152 C 0.89865 0.33353 -0.16934
 C153 C 1.06029 0.42979 -0.28912
 N154 N 0.49520 0.43696 0.08974
 N155 N 0.48652 0.39778 0.10124
 N156 N 0.46950 0.49405 0.20366
 N157 N 0.44871 0.50016 0.27863
 N158 N 0.44219 0.46985 0.13545
 N159 N 0.40191 0.45873 0.16222
 N160 N 0.52316 0.46182 0.15622
 N161 N 0.53491 0.44073 0.21256
 C162 C 0.51254 0.40101 0.17679
 C163 C 0.40665 0.47792 0.25195
 N164 N 0.56798 0.60954 0.14821
 N165 N 0.57503 0.64529 0.18882
 N166 N 0.59817 0.54460 0.16464
 N167 N 0.62323 0.54009 0.22674
 N168 N 0.62161 0.57698 0.10298
 N169 N 0.66331 0.59599 0.12397
 N170 N 0.54537 0.57767 0.21195
 N171 N 0.53678 0.59070 0.29694
 Mn172 Mn 0.53397 0.51945 0.18457
 C173 C 0.55460 0.63259 0.28136
 C174 C 0.66382 0.57173 0.19936
 N175 N 0.43499 0.48132 -0.07497
 N176 N 0.39290 0.46657 -0.08106
 N177 N 0.51124 0.48086 -0.18630
 N178 N 0.52525 0.46899 -0.26479
 N179 N 0.48844 0.44892 -0.12308
 N180 N 0.48570 0.41408 -0.15795
 N181 N 0.45782 0.51382 -0.13661
 N182 N 0.43197 0.52241 -0.18520
 Mn183 Mn 0.46479 0.45868 0.00665
 C184 C 0.39157 0.49312 -0.14865
 C185 C 0.50911 0.42747 -0.24660
 N186 N 0.61492 0.58766 -0.11213
 N187 N 0.65542 0.60462 -0.14880
 N188 N 0.53457 0.59782 -0.13290
 N189 N 0.53219 0.62128 -0.20367
 N190 N 0.56370 0.62221 -0.06729
 N191 N 0.58215 0.66245 -0.09491
 N192 N 0.58697 0.56469 -0.18101
 N193 N 0.60746 0.56563 -0.26579
 Mn194 Mn 0.59239 0.59943 0.01813
 Mn195 Mn 0.52241 0.53920 -0.15957
 Cl196 Cl 0.52852 0.52940 0.01228
 C197 C 0.64989 0.58979 -0.24438
 C198 C 0.56095 0.66144 -0.17782
 N199 N 0.38189 -0.02831 0.12149
 N200 N 0.34182 -0.05892 0.14750
 N201 N 0.46675 0.06114 0.13221
 N202 N 0.47910 0.09408 0.19018
 N203 N 0.43787 0.05767 0.06900
 N204 N 0.42920 0.08782 0.08435
 N205 N 0.40958 -0.02490 0.18839
 N206 N 0.38880 -0.05272 0.26272
 C207 C 0.34650 -0.07342 0.23659
 C208 C 0.45618 0.11100 0.15845
 N209 N 0.55949 0.03837 0.06475
 N210 N 0.60202 0.06056 0.07735
 N211 N 0.48363 -0.03536 0.18718
 N212 N 0.47796 -0.05449 0.27456
 N213 N 0.50300 -0.04708 0.12073
 N214 N 0.51049 -0.07511 0.16148
 N215 N 0.53959 0.04982 0.13052
 N216 N 0.56814 0.08041 0.18763
 Mn217 Mn 0.47486 0.01276 0.16025
 C218 C 0.60708 0.08753 0.15237
 C219 C 0.49409 -0.07957 0.25724
 N220 N 0.42667 0.03623 -0.14170
 N221 N 0.42361 0.06763 -0.17897
 N222 N 0.38916 -0.06174 -0.14894
 N223 N 0.36099 -0.09601 -0.19617
 N224 N 0.36920 -0.04936 -0.08681
 N225 N 0.32650 -0.07458 -0.09173
 N226 N 0.44493 0.02355 -0.20860
 N227 N 0.45440 0.04556 -0.29316
 Mn228 Mn 0.40362 0.00428 -0.00954
 C229 C 0.44173 0.07333 -0.27332
 C230 C 0.32208 -0.10415 -0.15857
 N231 N 0.48985 -0.07026 -0.09018
 N232 N 0.49785 -0.10094 -0.10449
 N233 N 0.51668 0.01049 -0.21245
 N234 N 0.53508 0.02560 -0.30199
 N235 N 0.54571 0.01533 -0.14773
 N236 N 0.58507 0.03462 -0.19210
 N237 N 0.46058 -0.07410 -0.15279
 N238 N 0.44764 -0.10753 -0.20970
 Mn239 Mn 0.52497 -0.01589 -0.01311
 Mn240 Mn 0.45269 -0.02551 -0.18105
 Cl241 Cl 0.46433 -0.00593 -0.01079
 C242 C 0.47035 -0.12462 -0.17766
 C243 C 0.57759 0.04117 -0.28805
 C244 C 1.16650 0.46055 0.28009
 C245 C 1.12861 0.43469 0.23613
 H246 H 1.19094 0.48886 0.23917
 H247 H 1.10623 0.40334 0.26744
 C248 C 0.55698 0.69602 0.35585
 C249 C 0.55709 0.65995 0.36480
 H250 H 0.55380 0.70575 0.28124
 H251 H 0.55348 0.64579 0.43830
 C252 C 0.31290 -0.11159 0.39501
 C253 C 0.31029 -0.10904 0.29510
 H254 H 0.34132 -0.08536 0.42883
 H255 H 0.28170 -0.13185 0.25581
 C256 C 0.88881 0.53209 0.35783
 C257 C 0.90294 0.50543 0.34461
 H258 H 0.89815 0.55724 0.30287
 H259 H 0.89290 0.47944 0.39710
 C260 C 0.53390 0.37246 0.31136
 C261 C 0.50827 0.36490 0.23333
 H262 H 0.56184 0.40411 0.32075
 H263 H 0.47926 0.33396 0.22455
 C264 C 0.65121 0.13962 0.27882
 C265 C 0.64752 0.11216 0.20817
 H266 H 0.62678 0.14821 0.28501
 H267 H 0.67103 0.10239 0.20318
 C268 C 0.45345 0.14075 -0.34702
 C269 C 0.44064 0.09954 -0.35397
 H270 H 0.45879 0.15480 -0.27301
 H271 H 0.43170 0.08346 -0.42510
 C272 C 0.71232 0.58916 -0.32186
 C273 C 0.68405 0.60231 -0.32324
 H274 H 0.71785 0.57938 -0.24974
 H275 H 0.67870 0.61435 -0.39153
 C276 C 0.84571 0.28483 -0.28853
 C277 C 0.88483 0.30171 -0.24830
 H278 H 0.81970 0.28427 -0.24372
 H279 H 0.90984 0.29770 -0.28407
 C280 C 0.44917 -0.17471 -0.31569
 C281 C 0.47417 -0.15652 -0.23619
 H282 H 0.42173 -0.17090 -0.32605
 H283 H 0.50276 -0.15845 -0.22635
 C284 C 0.35140 0.51495 -0.25067
 C285 C 0.35143 0.48485 -0.19562
 H286 H 0.37784 0.54743 -0.24203
 H287 H 0.32594 0.45201 -0.20448
 C288 C 1.09941 0.64422 -0.38578
 C289 C 1.07714 0.60174 -0.38531
 H290 H 1.09927 0.65965 -0.31624
 H291 H 1.07696 0.58444 -0.45089
 C292 C 0.83782 0.48380 -0.28850
 C293 C 0.85849 0.50606 -0.20778
 H294 H 0.83518 0.45365 -0.30109
 H295 H 0.86333 0.53720 -0.19684
 C296 C 0.49225 0.35975 -0.32986
 C297 C 0.51689 0.40208 -0.31932
 H298 H 0.46920 0.34054 -0.26973
 H299 H 0.54360 0.42119 -0.37233
 C300 C 0.64769 0.09562 -0.36582
 C301 C 0.60957 0.05921 -0.37229
 H302 H 0.65878 0.10894 -0.29205
 H303 H 0.59786 0.04511 -0.44476
 C304 C 1.12170 0.42521 -0.36372
 C305 C 1.08627 0.42779 -0.37415
 H306 H 1.13037 0.42248 -0.28777
 H307 H 1.07833 0.43454 -0.44667
 C308 C 0.55956 0.71535 -0.27757
 C309 C 0.57963 0.69493 -0.25494
 H310 H 0.53906 0.71745 -0.21897
 H311 H 0.60383 0.69533 -0.30596
 C312 C 0.28035 -0.16476 -0.26124
 C313 C 0.28178 -0.13352 -0.20801
 H314 H 0.30175 -0.17595 -0.24316
 H315 H 0.26019 -0.12242 -0.22460
 C316 C 0.49702 -0.13998 0.32808
 C317 C 0.49691 -0.10414 0.33908
 H318 H 0.50015 -0.15046 0.25364
 H319 H 0.49566 -0.09295 0.41389
 C320 C 0.37976 0.49856 0.39670
 C321 C 0.37074 0.47505 0.31409
 H322 H 0.41361 0.52010 0.41404
 H323 H 0.33757 0.45254 0.29430
 C324 C 1.15924 0.65801 0.26712
 C325 C 1.13549 0.65614 0.18982
 H326 H 1.16672 0.63346 0.27547
 H327 H 1.12633 0.67953 0.18274
 C328 C 0.48141 0.16345 0.28833
 C329 C 0.45240 0.14248 0.21792
 H330 H 0.51052 0.16179 0.28945
 H331 H 0.42245 0.14259 0.21689
 C332 C 0.70240 0.55478 0.31823
 C333 C 0.70116 0.58405 0.26263
 H334 H 0.68008 0.52147 0.30415
 H335 H 0.72440 0.61740 0.27352
 C336 C 0.88833 0.30040 0.34861
 C337 C 0.91464 0.34251 0.35638
 H338 H 0.88619 0.28553 0.27675
 H339 H 0.91438 0.35769 0.42605
   
