data_POSCAR
  _audit_creation_date              2014-09-24
  _audit_creation_method            'ToBaCCo'
  _symmetry_space_group_name_H-M    'P1'
  _symmetry_Int_Tables_number       1
  _symmetry_cell_setting            triclinic
  loop_
  _symmetry_equiv_pos_as_xyz
 x,y,z
_cell_length_a 35.4196
_cell_length_b 34.5261
_cell_length_c 33.5490
_cell_angle_alpha 89.167900
_cell_angle_beta 89.163200
_cell_angle_gamma 90.413500
loop_
  _atom_site_label
  _atom_site_type_symbol
  _atom_site_fract_x
  _atom_site_fract_y
  _atom_site_fract_z
C1 C 1.19913 0.26588 0.31122
 H2 H 1.19854 0.23455 0.31261
 C3 C 1.17323 0.28683 0.33369
 H4 H 1.15278 0.27148 0.35246
 C5 C 1.22566 0.32376 0.28384
 H6 H 1.24609 0.33801 0.26433
 C7 C 1.20057 0.34601 0.30651
 H8 H 1.20144 0.37726 0.30349
 N9 N 1.22366 0.28437 0.28573
 C10 C 1.23040 0.18599 0.20604
 H11 H 1.25993 0.17829 0.20708
 C12 C 1.20491 0.16261 0.18548
 H13 H 1.21523 0.13670 0.17142
 C14 C 1.18135 0.22905 0.22355
 H15 H 1.17225 0.25550 0.23737
 C16 C 1.15506 0.20660 0.20360
 H17 H 1.12588 0.21576 0.20306
 Zn18 Zn 1.25216 0.25037 0.25323
 N19 N 1.21813 0.21815 0.22518
 C20 C 1.27815 0.18360 0.29713
 N21 N 1.28320 0.22187 0.28843
 C22 C 1.31177 0.24246 0.30472
 C23 C 1.33830 0.22418 0.32859
 C24 C 1.30331 0.16427 0.32224
 C25 C 1.27107 0.30721 0.19312
 C26 C 1.29566 0.32736 0.16696
 C27 C 1.34484 0.28242 0.18443
 C28 C 1.31949 0.26336 0.21016
 N29 N 1.28374 0.27672 0.21520
 H30 H 1.25477 0.16795 0.28448
 H31 H 1.31470 0.27307 0.29787
 H32 H 1.36147 0.24127 0.33997
 H33 H 1.29877 0.13364 0.32747
 H34 H 1.24207 0.31639 0.19637
 H35 H 1.28506 0.35225 0.15092
 H36 H 1.37343 0.27170 0.18171
 H37 H 1.32857 0.23784 0.22621
 C38 C 1.16653 0.17290 0.18425
 C39 C 1.17338 0.32731 0.33113
 C40 C 1.33344 0.31528 0.16294
 C41 C 1.33455 0.18450 0.33789
 C42 C 0.68865 -0.24927 0.31239
 H43 H 0.68560 -0.28038 0.31041
 C44 C 0.66379 -0.22842 0.33630
 H45 H 0.64158 -0.24366 0.35276
 C46 C 0.72062 -0.19155 0.29225
 H47 H 0.74266 -0.17730 0.27481
 C48 C 0.69655 -0.16952 0.31621
 H49 H 0.70000 -0.13837 0.31622
 N50 N 0.71562 -0.23058 0.29003
 C51 C 0.72682 -0.30966 0.19052
 H52 H 0.75675 -0.31569 0.19054
 C53 C 0.70330 -0.32850 0.16372
 H54 H 0.71577 -0.34863 0.14308
 C55 C 0.67489 -0.27530 0.21724
 H56 H 0.66388 -0.25410 0.23757
 C57 C 0.65046 -0.29330 0.19101
 H58 H 0.62074 -0.28609 0.19199
 Zn59 Zn 0.74442 -0.26175 0.25511
 N60 N 0.71214 -0.28451 0.21735
 C61 C 0.75863 -0.33892 0.28245
 N62 N 0.76725 -0.30076 0.28695
 C63 C 0.79102 -0.28907 0.31589
 C64 C 0.80815 -0.31618 0.34092
 C65 C 0.77501 -0.36704 0.30695
 C66 C 0.76848 -0.20298 0.20181
 C67 C 0.79403 -0.17993 0.17969
 C68 C 0.84500 -0.21684 0.20793
 C69 C 0.81850 -0.23912 0.22950
 N70 N 0.78103 -0.23157 0.22650
 H71 H 0.73878 -0.34771 0.26016
 H72 H 0.79695 -0.25851 0.31927
 H73 H 0.82790 -0.30565 0.36252
 H74 H 0.76806 -0.39729 0.30267
 H75 H 0.73847 -0.19797 0.19949
 H76 H 0.78294 -0.15720 0.16089
 H77 H 0.87474 -0.22324 0.21092
 H78 H 0.82797 -0.26257 0.24841
 C79 C 0.66431 -0.32090 0.16439
 C80 C 0.66728 -0.18804 0.33812
 C81 C 0.83305 -0.18671 0.18264
 C82 C 0.80011 -0.35596 0.33673
 C83 C 0.69948 0.26051 -0.19272
 H84 H 0.69923 0.22919 -0.19097
 C85 C 0.67393 0.28148 -0.16982
 H86 H 0.65404 0.26615 -0.15037
 C87 C 0.72495 0.31836 -0.22132
 H88 H 0.74477 0.33256 -0.24159
 C89 C 0.70016 0.34062 -0.19834
 H90 H 0.70069 0.37183 -0.20181
 N91 N 0.72342 0.27898 -0.21884
 C92 C 0.73167 0.18320 -0.30197
 H93 H 0.76143 0.17633 -0.30189
 C94 C 0.70647 0.16007 -0.32324
 H95 H 0.71736 0.13530 -0.33888
 C96 C 0.68176 0.22388 -0.28140
 H97 H 0.67212 0.24928 -0.26602
 C98 C 0.65577 0.20171 -0.30208
 H99 H 0.62635 0.21009 -0.30164
 Zn100 Zn 0.75241 0.24548 -0.25128
 N101 N 0.71885 0.21398 -0.28093
 C102 C 0.77920 0.17673 -0.21063
 N103 N 0.78224 0.21586 -0.21556
 C104 C 0.80727 0.23679 -0.19415
 C105 C 0.83198 0.21835 -0.16823
 C106 C 0.80308 0.15707 -0.18435
 C107 C 0.77060 0.30130 -0.31240
 C108 C 0.79468 0.32236 -0.33841
 C109 C 0.84665 0.28374 -0.31497
 C110 C 0.82171 0.26382 -0.28942
 N111 N 0.78458 0.27335 -0.28781
 H112 H 0.75855 0.16067 -0.22722
 H113 H 0.80870 0.26792 -0.19815
 H114 H 0.85254 0.23545 -0.15243
 H115 H 0.80110 0.12585 -0.18173
 H116 H 0.74073 0.30764 -0.31144
 H117 H 0.78239 0.34470 -0.35684
 H118 H 0.87615 0.27554 -0.31501
 H119 H 0.83220 0.24049 -0.27099
 C120 C 0.66777 0.16923 -0.32323
 C121 C 0.67375 0.32196 -0.17275
 C122 C 0.83368 0.31400 -0.33967
 C123 C 0.83023 0.17805 -0.16314
 C124 C 1.17380 -0.22713 -0.21541
 H125 H 1.16285 -0.25226 -0.23025
 C126 C 1.14920 -0.20430 -0.19339
 H127 H 1.11945 -0.21182 -0.19223
 C128 C 1.22574 -0.18779 -0.19757
 H129 H 1.25575 -0.18176 -0.19929
 C130 C 1.20202 -0.16402 -0.17503
 H131 H 1.21421 -0.13951 -0.16008
 N132 N 1.21118 -0.21811 -0.21793
 C133 C 1.21677 -0.32368 -0.27649
 H134 H 1.23749 -0.33678 -0.25731
 C135 C 1.19284 -0.34719 -0.29873
 H136 H 1.19475 -0.37838 -0.29584
 C137 C 1.18870 -0.26717 -0.30360
 H138 H 1.18739 -0.23590 -0.30532
 C139 C 1.16385 -0.28942 -0.32554
 H140 H 1.14322 -0.27517 -0.34413
 Zn141 Zn 1.24311 -0.24962 -0.24933
 N142 N 1.21364 -0.28445 -0.27875
 C143 C 1.26434 -0.30251 -0.18843
 N144 N 1.27704 -0.27531 -0.21521
 C145 C 1.31411 -0.26485 -0.21721
 C146 C 1.34033 -0.28329 -0.19317
 C147 C 1.28973 -0.32186 -0.16371
 C148 C 1.27006 -0.18139 -0.29107
 C149 C 1.29453 -0.16208 -0.31783
 C150 C 1.31933 -0.22406 -0.33775
 C151 C 1.29421 -0.24209 -0.31106
 N152 N 1.27118 -0.22064 -0.28748
 H153 H 1.23452 -0.30940 -0.18656
 H154 H 1.32355 -0.24196 -0.23729
 H155 H 1.36980 -0.27485 -0.19573
 H156 H 1.27882 -0.34342 -0.14285
 H157 H 1.25098 -0.16497 -0.27258
 H158 H 1.29454 -0.13075 -0.31896
 H159 H 1.33860 -0.24151 -0.35514
 H160 H 1.29411 -0.27332 -0.30779
 C161 C 1.16563 -0.32983 -0.32311
 C162 C 1.16303 -0.17214 -0.17304
 C163 C 1.32004 -0.18363 -0.34101
 C164 C 1.32851 -0.31264 -0.16648
 C165 C 0.27532 0.20639 0.68266
 H166 H 0.25246 0.21992 0.66685
 C167 C 0.30047 0.18264 0.66204
 H168 H 0.29659 0.17855 0.63046
 C169 C 0.30943 0.19757 0.74230
 H170 H 0.31308 0.20416 0.77344
 C171 C 0.33537 0.17392 0.72280
 H172 H 0.35886 0.16213 0.73921
 N173 N 0.28013 0.21328 0.72211
 C174 C 0.18547 0.24018 0.79963
 H175 H 0.18028 0.26950 0.78942
 C176 C 0.15897 0.22119 0.82422
 H177 H 0.13353 0.23635 0.83289
 C178 C 0.22441 0.18472 0.79937
 H179 H 0.24947 0.17028 0.78876
 C180 C 0.19907 0.16486 0.82481
 H181 H 0.20541 0.13523 0.83287
 Zn182 Zn 0.24854 0.24828 0.74969
 N183 N 0.21718 0.22166 0.78731
 C184 C 0.18788 0.25325 0.69762
 N185 N 0.21645 0.27417 0.71360
 C186 C 0.22004 0.31289 0.70639
 C187 C 0.19423 0.33207 0.68212
 C188 C 0.16128 0.27131 0.67351
 C189 C 0.27543 0.29151 0.81518
 C190 C 0.30068 0.31602 0.83449
 C191 C 0.33492 0.32482 0.77216
 C192 C 0.30889 0.30048 0.75402
 N193 N 0.28002 0.28422 0.77567
 H194 H 0.18531 0.22261 0.70443
 H195 H 0.24240 0.32915 0.72014
 H196 H 0.19704 0.36307 0.67783
 H197 H 0.13833 0.25436 0.66156
 H198 H 0.25262 0.27775 0.83196
 H199 H 0.29710 0.32045 0.86616
 H200 H 0.35817 0.33696 0.75461
 H201 H 0.31214 0.29379 0.72276
 C202 C 0.16542 0.18298 0.83725
 C203 C 0.33107 0.16612 0.68220
 C204 C 0.33107 0.33287 0.81286
 C205 C 0.16428 0.31115 0.66541
 C206 C 0.78292 0.71613 0.67925
 H207 H 0.76181 0.73069 0.66186
 C208 C 0.80730 0.69020 0.66050
 H209 H 0.80458 0.68553 0.62885
 C210 C 0.81373 0.70638 0.74072
 H211 H 0.81671 0.71348 0.77180
 C212 C 0.83892 0.68068 0.72311
 H213 H 0.86093 0.66779 0.74093
 N214 N 0.78627 0.72345 0.71881
 C215 C 0.68145 0.74170 0.77545
 H216 H 0.67279 0.76585 0.75702
 C217 C 0.65417 0.72017 0.79670
 H218 H 0.62475 0.72803 0.79387
 C219 C 0.73005 0.70276 0.80178
 H220 H 0.75968 0.69605 0.80369
 C221 C 0.70373 0.68044 0.82365
 H222 H 0.71429 0.65698 0.84182
 Zn223 Zn 0.75497 0.75960 0.74557
 N224 N 0.71857 0.73229 0.77768
 C225 C 0.70467 0.77650 0.68339
 N226 N 0.73014 0.79245 0.70839
 C227 C 0.73676 0.83135 0.70816
 C228 C 0.71680 0.85588 0.68263
 C229 C 0.68418 0.79989 0.65741
 C230 C 0.77803 0.79607 0.81696
 C231 C 0.80275 0.81749 0.84038
 C232 C 0.84428 0.82526 0.78296
 C233 C 0.81870 0.80413 0.76064
 N234 N 0.78647 0.78985 0.77789
 H235 H 0.69959 0.74557 0.68433
 H236 H 0.75689 0.84362 0.72838
 H237 H 0.72175 0.88685 0.68345
 H238 H 0.66423 0.78635 0.63776
 H239 H 0.75230 0.78417 0.83002
 H240 H 0.79596 0.82138 0.87160
 H241 H 0.87009 0.83598 0.76884
 H242 H 0.82472 0.79856 0.72955
 C243 C 0.66490 0.68865 0.82088
 C244 C 0.83573 0.67207 0.68263
 C245 C 0.83646 0.83228 0.82327
 C246 C 0.68945 0.84032 0.65757
 C247 C 0.76864 0.20029 0.19293
 H248 H 0.73864 0.19412 0.19346
 C249 C 0.79296 0.17829 0.16918
 H250 H 0.78105 0.15539 0.15161
 C251 C 0.81994 0.23842 0.21480
 H252 H 0.83044 0.26240 0.23180
 C253 C 0.84511 0.21738 0.19156
 H254 H 0.87481 0.22510 0.19163
 N255 N 0.78260 0.22902 0.21595
 C256 C 0.69742 0.24389 0.30957
 H257 H 0.69647 0.27521 0.30888
 C258 C 0.67296 0.22300 0.33477
 H259 H 0.65306 0.23839 0.35345
 C260 C 0.72389 0.18585 0.28514
 H261 H 0.74379 0.17154 0.26571
 C262 C 0.70019 0.16372 0.31043
 H263 H 0.70152 0.13245 0.30943
 Zn264 Zn 0.75002 0.25776 0.24954
 N265 N 0.72136 0.22518 0.28450
 C266 C 0.67957 0.27803 0.21793
 N267 N 0.71700 0.28702 0.21696
 C268 C 0.73087 0.31548 0.19223
 C269 C 0.70648 0.33724 0.16839
 C270 C 0.65432 0.29888 0.19472
 C271 C 0.80360 0.27004 0.30652
 C272 C 0.82920 0.29007 0.32976
 C273 C 0.80277 0.35025 0.30576
 C274 C 0.77793 0.32894 0.28234
 N275 N 0.77949 0.28957 0.28248
 H276 H 0.66909 0.25437 0.23643
 H277 H 0.76089 0.32150 0.19130
 H278 H 0.71829 0.36010 0.14965
 H279 H 0.62459 0.29132 0.19631
 H280 H 0.80385 0.23870 0.30638
 H281 H 0.84918 0.27403 0.34760
 H282 H 0.80219 0.38157 0.30420
 H283 H 0.75802 0.34388 0.26361
 C284 C 0.67389 0.18247 0.33516
 C285 C 0.83198 0.18648 0.16883
 C286 C 0.82923 0.33061 0.32931
 C287 C 0.66745 0.32908 0.16970
 C288 C 0.28337 0.68459 0.20614
 H289 H 0.26246 0.66893 0.22385
 C290 C 0.30652 0.66439 0.17962
 H291 H 0.30321 0.63331 0.17770
 C292 C 0.31456 0.74361 0.18914
 H293 H 0.31794 0.77441 0.19355
 C294 C 0.33853 0.72452 0.16265
 H295 H 0.36025 0.74087 0.14659
 N296 N 0.28779 0.72350 0.21048
 C297 C 0.23345 0.70755 0.31739
 H298 H 0.25717 0.72069 0.33211
 C299 C 0.20834 0.68359 0.33907
 H300 H 0.21285 0.67893 0.37059
 C301 C 0.19773 0.69954 0.25881
 H302 H 0.19359 0.70641 0.22762
 C303 C 0.17185 0.67580 0.27934
 H304 H 0.14777 0.66431 0.26372
 Zn305 Zn 0.25830 0.75049 0.24879
 N306 N 0.22755 0.71514 0.27808
 C307 C 0.19548 0.79850 0.24517
 N308 N 0.22550 0.78595 0.22329
 C309 C 0.22985 0.79616 0.18416
 C310 C 0.20352 0.82019 0.16570
 C311 C 0.16837 0.82221 0.22785
 C312 C 0.32761 0.76708 0.28535
 C313 C 0.35270 0.78753 0.30898
 C314 C 0.30126 0.82826 0.33024
 C315 C 0.27718 0.80696 0.30604
 N316 N 0.29073 0.77741 0.28372
 H317 H 0.19195 0.78910 0.27589
 H318 H 0.25324 0.78513 0.16689
 H319 H 0.20705 0.82699 0.13428
 H320 H 0.14431 0.83135 0.24558
 H321 H 0.33774 0.74296 0.26815
 H322 H 0.38204 0.77878 0.30915
 H323 H 0.28912 0.85177 0.34683
 H324 H 0.24771 0.81450 0.30472
 C325 C 0.17686 0.66767 0.31995
 C326 C 0.33471 0.68444 0.15761
 C327 C 0.34001 0.81903 0.33165
 C328 C 0.17219 0.83343 0.18770
 O329 O 1.05127 0.06686 0.07997
 O330 O 1.09346 0.03330 0.04140
 C331 C 1.08541 0.05773 0.06919
 O332 O 0.94728 -0.07402 0.07727
 O333 O 0.90498 -0.03715 0.04237
 C334 C 0.91314 -0.06454 0.06768
 O335 O 1.05257 -0.06808 0.07995
 O336 O 1.09410 -0.03203 0.04127
 C337 C 1.08651 -0.05753 0.06901
 O338 O 0.94571 0.06929 0.07652
 O339 O 0.90419 0.03147 0.04212
 C340 C 0.91178 0.05883 0.06688
 Zr341 Zr 0.99870 0.04746 0.05812
 O342 O 0.99383 0.04493 0.12110
 O343 O 1.00253 0.10863 0.05951
 Zr344 Zr 0.99962 -0.04995 0.05816
 O345 O 0.99508 -0.04970 0.12117
 O346 O 1.00373 -0.11106 0.05861
 O347 O 1.03305 -0.00074 0.06549
 O348 O 0.96598 -0.00192 0.06579
 O349 O 0.94589 0.06986 -0.06125
 O350 O 0.90421 0.03163 -0.02505
 C351 C 0.91190 0.05883 -0.05108
 O352 O 1.05313 -0.06527 -0.06560
 O353 O 1.09481 -0.03083 -0.02786
 C354 C 1.08712 -0.05535 -0.05558
 O355 O 0.94779 -0.07158 -0.06076
 O356 O 0.90518 -0.03614 -0.02455
 C357 C 0.91357 -0.06246 -0.05038
 O358 O 1.05149 0.06993 -0.06490
 O359 O 1.09346 0.03396 -0.02876
 C360 C 1.08558 0.06002 -0.05551
 Zr361 Zr 0.99890 0.04894 -0.04249
 O362 O 0.99543 0.04884 -0.10545
 O363 O 1.00194 0.11022 -0.04269
 Zr364 Zr 0.99997 -0.04871 -0.04222
 O365 O 0.99650 -0.04991 -0.10512
 O366 O 1.00253 -0.10979 -0.03830
 Zr367 Zr 1.05586 0.00043 0.00701
 Zr368 Zr 0.94265 -0.00160 0.00844
 O369 O 0.96658 -0.00046 -0.04934
 O370 O 1.03322 0.00085 -0.05076
 O371 O 0.96496 0.05525 0.00818
 O372 O 1.03285 -0.05591 0.00750
 O373 O 1.03160 0.05591 0.00741
 O374 O 0.96609 -0.05749 0.00830
 H375 H 0.94864 -0.00251 0.08924
 H376 H 1.05005 -0.07842 0.00725
 H377 H 0.94980 -0.00065 -0.07272
 H378 H 1.04826 0.07910 0.00733
 H379 H 0.98744 -0.12064 0.03711
 H380 H 1.00307 -0.11909 -0.06611
 H381 H 1.01497 -0.03075 -0.11595
 H382 H 1.01794 0.03534 -0.11592
 H383 H 0.98031 0.11970 -0.02670
 H384 H 0.98369 0.11896 0.04076
 H385 H 1.01632 0.03141 0.13132
 H386 H 1.01694 -0.03501 0.13127
 O387 O 1.05303 0.55813 0.58096
 O388 O 1.09505 0.52600 0.54100
 C389 C 1.08703 0.54836 0.57060
 O390 O 0.94325 0.42359 0.55957
 O391 O 0.90367 0.46671 0.52889
 C392 C 0.90981 0.43621 0.55099
 O393 O 1.04899 0.42362 0.56547
 O394 O 1.09326 0.46184 0.53272
 C395 C 1.08369 0.43393 0.55716
 O396 O 0.94844 0.56613 0.57537
 O397 O 0.90619 0.53474 0.53567
 C398 C 0.91439 0.55881 0.56364
 Zr399 Zr 1.00049 0.54261 0.55671
 O400 O 0.99405 0.52961 0.61840
 O401 O 1.00313 0.60216 0.57051
 Zr402 Zr 0.99719 0.44631 0.54449
 O403 O 0.99090 0.43843 0.60694
 O404 O 0.99869 0.38560 0.53676
 O405 O 1.03246 0.49237 0.55907
 O406 O 0.96539 0.49477 0.55712
 O407 O 0.95336 0.58397 0.44228
 O408 O 0.90834 0.54309 0.46991
 C409 C 0.91866 0.57398 0.44988
 O410 O 1.05337 0.44224 0.42082
 O411 O 1.09510 0.47066 0.46341
 C412 C 1.08735 0.44963 0.43284
 O413 O 0.94779 0.44198 0.42205
 O414 O 0.90595 0.47543 0.46121
 C415 C 0.91379 0.45167 0.43276
 O416 O 1.05793 0.57473 0.43643
 O417 O 1.09737 0.53479 0.47141
 C418 C 1.09123 0.56264 0.44602
 Zr419 Zr 1.00414 0.55592 0.45678
 O420 O 1.00171 0.56291 0.39407
 O421 O 1.01104 0.61643 0.46332
 Zr422 Zr 1.00054 0.45919 0.44496
 O423 O 1.00380 0.46377 0.38195
 O424 O 0.99914 0.39804 0.44292
 Zr425 Zr 1.05710 0.49931 0.50174
 Zr426 Zr 0.94392 0.50323 0.49949
 O427 O 0.96949 0.50983 0.44286
 O428 O 1.03621 0.50738 0.44374
 O429 O 0.96922 0.55810 0.50705
 O430 O 1.03173 0.44464 0.49441
 O431 O 1.03542 0.55542 0.50814
 O432 O 0.96470 0.44652 0.49314
 H433 H 0.94733 0.49265 0.57990
 H434 H 1.04802 0.42156 0.49194
 H435 H 0.95278 0.51400 0.41981
 H436 H 1.05337 0.57735 0.51069
 H437 H 0.98057 0.37931 0.51559
 H438 H 1.00044 0.39135 0.41432
 H439 H 0.98629 0.48427 0.37324
 H440 H 1.01997 0.54459 0.38231
 H441 H 0.99300 0.62460 0.48432
 H442 H 1.01495 0.61585 0.54743
 H443 H 1.01810 0.51871 0.62795
 H444 H 1.01209 0.45216 0.61960
 O445 O 0.55228 0.06378 0.57247
 O446 O 0.59400 0.02858 0.53491
 C447 C 0.58627 0.05338 0.56247
 O448 O 0.44235 -0.07215 0.56617
 O449 O 0.40256 -0.03265 0.53096
 C450 C 0.40892 -0.06056 0.55610
 O451 O 0.54761 -0.07163 0.57146
 O452 O 0.59201 -0.03683 0.53521
 C453 C 0.58229 -0.06281 0.56194
 O454 O 0.44708 0.06952 0.56822
 O455 O 0.40500 0.03491 0.53116
 C456 C 0.41304 0.06077 0.55747
 Zr457 Zr 0.49953 0.04692 0.54908
 O458 O 0.49405 0.04630 0.61201
 O459 O 0.50553 0.10801 0.54834
 Zr460 Zr 0.49634 -0.05068 0.54888
 O461 O 0.49059 -0.05064 0.61180
 O462 O 0.49765 -0.11196 0.54943
 O463 O 0.53155 -0.00293 0.55734
 O464 O 0.46487 -0.00121 0.55599
 O465 O 0.44973 0.07255 0.42980
 O466 O 0.40640 0.03449 0.46381
 C467 C 0.41523 0.06213 0.43884
 O468 O 0.55165 -0.06890 0.42660
 O469 O 0.59364 -0.03551 0.46484
 C470 C 0.58569 -0.06005 0.43727
 O471 O 0.44638 -0.07040 0.42959
 O472 O 0.40463 -0.03190 0.46332
 C473 C 0.41236 -0.05949 0.43867
 O474 O 0.55549 0.06619 0.42691
 O475 O 0.59560 0.02931 0.46461
 C476 C 0.58899 0.05518 0.43722
 Zr477 Zr 0.50172 0.04854 0.44874
 O478 O 0.49886 0.04919 0.38574
 O479 O 0.50789 0.10959 0.44874
 Zr480 Zr 0.49903 -0.04922 0.44867
 O481 O 0.49666 -0.04918 0.38565
 O482 O 0.49908 -0.11041 0.45212
 Zr483 Zr 0.55585 -0.00260 0.49955
 Zr484 Zr 0.44269 0.00021 0.49815
 O485 O 0.46776 0.00050 0.44089
 O486 O 0.53432 -0.00102 0.44123
 O487 O 0.46702 0.05616 0.49859
 O488 O 0.53051 -0.05788 0.49915
 O489 O 0.53386 0.05393 0.49928
 O490 O 0.46368 -0.05668 0.49828
 H491 H 0.44728 -0.00128 0.57924
 H492 H 0.54667 -0.08119 0.49923
 H493 H 0.45145 0.00114 0.41715
 H494 H 0.55154 0.07629 0.49951
 H495 H 0.48173 -0.12074 0.52727
 H496 H 0.49936 -0.11956 0.42425
 H497 H 0.51752 -0.03246 0.37542
 H498 H 0.52010 0.03358 0.37551
 H499 H 0.48721 0.12004 0.46542
 H500 H 0.48410 0.11887 0.53339
 H501 H 0.51377 0.02900 0.62261
 H502 H 0.51295 -0.03723 0.62250
 O503 O 0.55327 0.56776 0.06356
 O504 O 0.59543 0.53483 0.02432
 C505 C 0.58736 0.55899 0.05236
 O506 O 0.44900 0.42754 0.05910
 O507 O 0.40679 0.46521 0.02512
 C508 C 0.41485 0.43747 0.04989
 O509 O 0.55464 0.43290 0.06090
 O510 O 0.59606 0.46976 0.02297
 C511 C 0.58854 0.44377 0.05030
 O512 O 0.44765 0.56955 0.06165
 O513 O 0.40591 0.53211 0.02701
 C514 C 0.41365 0.55897 0.05240
 Zr515 Zr 0.50061 0.54885 0.04189
 O516 O 0.49704 0.54759 0.10495
 O517 O 0.50181 0.61008 0.03999
 Zr518 Zr 0.50168 0.45109 0.03966
 O519 O 0.49781 0.44863 0.10269
 O520 O 0.50606 0.39001 0.03773
 O521 O 0.53493 0.50035 0.04796
 O522 O 0.46840 0.49909 0.04897
 O523 O 0.44669 0.57468 -0.07432
 O524 O 0.40563 0.53459 -0.03944
 C525 C 0.41288 0.56318 -0.06385
 O526 O 0.55389 0.43710 -0.08430
 O527 O 0.59558 0.47232 -0.04730
 C528 C 0.58786 0.44758 -0.07479
 O529 O 0.44833 0.43198 -0.07822
 O530 O 0.40631 0.46726 -0.04098
 C531 C 0.41424 0.44111 -0.06715
 O532 O 0.55250 0.57357 -0.08116
 O533 O 0.59490 0.53747 -0.04556
 C534 C 0.58673 0.56393 -0.07188
 Zr535 Zr 0.50007 0.55239 -0.05850
 O536 O 0.49600 0.55314 -0.12141
 O537 O 0.50252 0.61362 -0.05813
 Zr538 Zr 0.50111 0.45509 -0.06109
 O539 O 0.49951 0.46383 -0.12350
 O540 O 0.50217 0.39434 -0.06827
 Zr541 Zr 0.55751 0.50285 -0.01056
 Zr542 Zr 0.44468 0.50063 -0.00809
 O543 O 0.46740 0.50332 -0.06633
 O544 O 0.53452 0.50463 -0.06820
 O545 O 0.46658 0.55746 -0.00733
 O546 O 0.53440 0.44655 -0.01153
 O547 O 0.53327 0.55829 -0.00879
 O548 O 0.46798 0.44466 -0.01015
 H549 H 0.45146 0.49803 0.07273
 H550 H 0.55177 0.42421 -0.01221
 H551 H 0.44989 0.50388 -0.08911
 H552 H 0.54988 0.58150 -0.00858
 H553 H 0.48519 0.38039 0.02115
 H554 H 0.51029 0.38286 -0.04270
 H555 H 0.49865 0.43766 -0.13519
 H556 H 0.51685 0.53719 -0.13204
 H557 H 0.48737 0.62204 -0.03486
 H558 H 0.50153 0.61853 0.06810
 H559 H 0.51772 0.53099 0.11465
 H560 H 0.51833 0.46504 0.11307
 C561 C 1.13719 0.14965 0.16416
 C562 C 1.14398 0.12241 0.13702
 C563 C 1.11207 0.10256 0.11797
 C564 C 1.11734 0.07660 0.08923
 H565 H 1.17253 0.11545 0.12791
 H566 H 1.08360 0.10987 0.12734
 H567 H 1.10800 0.15642 0.17122
 H568 H 1.14579 0.06936 0.07979
 C569 C 1.13697 0.64752 0.65581
 C570 C 1.14336 0.61299 0.63969
 C571 C 1.11261 0.59378 0.61850
 C572 C 1.11852 0.56477 0.59325
 H573 H 1.17103 0.59988 0.64086
 H574 H 1.08432 0.60505 0.62253
 H575 H 1.10969 0.66100 0.65167
 H576 H 1.14688 0.55432 0.58782
 C577 C 0.63859 0.14623 0.65604
 C578 C 0.64534 0.11795 0.63003
 C579 C 0.61334 0.09848 0.61070
 C580 C 0.61839 0.07135 0.58308
 H581 H 0.67384 0.10967 0.62215
 H582 H 0.58493 0.10717 0.61884
 H583 H 0.60939 0.15381 0.66204
 H584 H 0.64676 0.06275 0.57472
 C585 C 0.63680 0.65919 0.13868
 C586 C 0.64409 0.62773 0.11708
 C587 C 0.61321 0.60871 0.09575
 C588 C 0.61897 0.57813 0.07249
 H589 H 0.67191 0.61510 0.11602
 H590 H 0.58490 0.62001 0.09946
 H591 H 0.60815 0.67013 0.13906
 H592 H 0.64732 0.56738 0.06768
 C593 C 0.86234 -0.16344 0.16065
 C594 C 0.85546 -0.13554 0.13351
 C595 C 0.88711 -0.11434 0.11390
 C596 C 0.88145 -0.08605 0.08694
 H597 H 0.82698 -0.12809 0.12543
 H598 H 0.91566 -0.12203 0.12193
 H599 H 0.89156 -0.16987 0.16718
 H600 H 0.85290 -0.07832 0.07896
 C601 C 0.85936 0.33347 0.63724
 C602 C 0.85240 0.36514 0.61169
 C603 C 0.88278 0.38364 0.59213
 C604 C 0.87853 0.41627 0.56735
 H605 H 0.82427 0.37626 0.60746
 H606 H 0.91095 0.37268 0.59727
 H607 H 0.88860 0.32435 0.63911
 H608 H 0.85046 0.42706 0.56146
 C609 C 0.34981 -0.16515 0.63395
 C610 C 0.34669 -0.13002 0.61730
 C611 C 0.37911 -0.11259 0.59580
 C612 C 0.37592 -0.07959 0.57502
 H613 H 0.32062 -0.11396 0.61982
 H614 H 0.40626 -0.12679 0.59762
 H615 H 0.37553 -0.18138 0.62895
 H616 H 0.34855 -0.06605 0.57211
 C617 C 0.36247 0.33612 0.13829
 C618 C 0.35608 0.36665 0.11436
 C619 C 0.38802 0.38619 0.09360
 C620 C 0.38291 0.41656 0.06917
 H621 H 0.32793 0.37777 0.11032
 H622 H 0.41636 0.37585 0.09898
 H623 H 0.39128 0.32595 0.14060
 H624 H 0.35455 0.42666 0.06348
 C625 C 0.85893 0.15909 -0.13798
 C626 C 0.85361 0.12543 -0.11833
 C627 C 0.88487 0.10830 -0.09560
 C628 C 0.87989 0.07750 -0.07134
 H629 H 0.82657 0.11061 -0.11894
 H630 H 0.91279 0.12106 -0.09930
 H631 H 0.88566 0.17422 -0.13485
 H632 H 0.85185 0.06530 -0.06679
 C633 C 0.81854 0.61335 0.36107
 C634 C 0.83800 0.62041 0.39411
 C635 C 0.86083 0.59024 0.41360
 C636 C 0.89005 0.60103 0.43559
 H637 H 0.83945 0.64933 0.40591
 H638 H 0.85627 0.55993 0.40698
 H639 H 0.81716 0.58384 0.35049
 H640 H 0.89620 0.63164 0.43879
 C641 C 0.36139 0.16759 0.36040
 C642 C 0.35902 0.13036 0.37728
 C643 C 0.38968 0.11442 0.39717
 C644 C 0.38530 0.08081 0.42034
 H645 H 0.33285 0.11402 0.37686
 H646 H 0.41695 0.12890 0.39538
 H647 H 0.38641 0.18450 0.36725
 H648 H 0.35710 0.06898 0.42515
 C649 C 0.35783 0.66758 -0.14281
 C650 C 0.35241 0.63479 -0.12177
 C651 C 0.38468 0.61593 -0.10266
 C652 C 0.38040 0.58338 -0.08107
 H653 H 0.32500 0.62087 -0.11977
 H654 H 0.41257 0.62860 -0.10698
 H655 H 0.38613 0.67983 -0.14440
 H656 H 0.35244 0.57112 -0.07607
 C657 C 1.13536 -0.14814 -0.15117
 C658 C 1.14387 -0.12061 -0.12501
 C659 C 1.11296 -0.10009 -0.10474
 C660 C 1.11898 -0.07378 -0.07661
 H661 H 1.17279 -0.11382 -0.11774
 H662 H 1.08424 -0.10744 -0.11270
 H663 H 1.10576 -0.15429 -0.15638
 H664 H 1.14756 -0.06635 -0.06833
 C665 C 1.14303 0.34845 0.35204
 C666 C 1.14696 0.38411 0.36647
 C667 C 1.11480 0.40241 0.38701
 C668 C 1.11941 0.43270 0.41086
 H669 H 1.17386 0.39918 0.36429
 H670 H 1.08691 0.38980 0.38368
 H671 H 1.11649 0.33315 0.35714
 H672 H 1.14752 0.44407 0.41589
 C673 C 0.63823 -0.16639 0.36058
 C674 C 0.64365 -0.13119 0.37572
 C675 C 0.61220 -0.11150 0.39600
 C676 C 0.61746 -0.07944 0.41715
 H677 H 0.67101 -0.11705 0.37358
 H678 H 0.58409 -0.12392 0.39390
 H679 H 0.61106 -0.18055 0.36535
 H680 H 0.64571 -0.06784 0.42070
 C681 C 0.64383 0.34308 -0.15112
 C682 C 0.64753 0.37930 -0.13809
 C683 C 0.61560 0.39772 -0.11731
 C684 C 0.61992 0.42990 -0.09613
 H685 H 0.67400 0.39492 -0.14189
 H686 H 0.58803 0.38396 -0.11864
 H687 H 0.61775 0.32742 -0.14453
 H688 H 0.64774 0.44275 -0.09325
 C689 C 1.13738 0.16416 -0.13934
 C690 C 1.14186 0.12874 -0.11926
 C691 C 1.11124 0.11108 -0.09956
 C692 C 1.11591 0.07860 -0.07489
 H693 H 1.16923 0.11517 -0.11765
 H694 H 1.08338 0.12348 -0.10282
 H695 H 1.11042 0.17859 -0.13583
 H696 H 1.14420 0.06823 -0.06925
 C697 C 1.14716 0.64512 0.34156
 C698 C 1.15241 0.62556 0.37573
 C699 C 1.12016 0.60557 0.39532
 C700 C 1.12420 0.58187 0.42684
 H701 H 1.18002 0.62404 0.38907
 H702 H 1.09228 0.61034 0.38331
 H703 H 1.11947 0.64420 0.32816
 H704 H 1.15209 0.57599 0.43822
 C705 C 0.64498 0.16118 0.35909
 C706 C 0.64933 0.12532 0.37382
 C707 C 0.61762 0.10636 0.39538
 C708 C 0.62163 0.07363 0.41662
 H709 H 0.67582 0.11020 0.37021
 H710 H 0.59015 0.11995 0.39398
 H711 H 0.61881 0.17623 0.36538
 H712 H 0.64926 0.06070 0.41957
 C713 C 0.63637 0.66675 -0.15937
 C714 C 0.64227 0.63468 -0.13422
 C715 C 0.61166 0.61466 -0.11701
 C716 C 0.61686 0.58356 -0.09056
 H717 H 0.67040 0.62497 -0.12742
 H718 H 0.58327 0.62394 -0.12390
 H719 H 0.60733 0.67527 -0.16418
 H720 H 0.64536 0.57497 -0.08320
 C721 C 0.86510 -0.14676 -0.15350
 C722 C 0.85756 -0.12704 -0.12030
 C723 C 0.88843 -0.10693 -0.09995
 C724 C 0.88218 -0.08297 -0.06960
 H725 H 0.82898 -0.12487 -0.10873
 H726 H 0.91706 -0.11146 -0.11070
 H727 H 0.89381 -0.14650 -0.16525
 H728 H 0.85356 -0.07767 -0.05933
 C729 C 0.85896 0.35098 0.35138
 C730 C 0.85486 0.38614 0.36691
 C731 C 0.88653 0.40393 0.38802
 C732 C 0.88191 0.43475 0.41116
 H733 H 0.82825 0.40128 0.36490
 H734 H 0.91415 0.39079 0.38526
 H735 H 0.88515 0.33560 0.35618
 H736 H 0.85405 0.44696 0.41536
 C737 C 0.36560 -0.16100 0.35298
 C738 C 0.35814 -0.12899 0.37713
 C739 C 0.38790 -0.10998 0.39558
 C740 C 0.38221 -0.07854 0.42077
 H741 H 0.32984 -0.11840 0.38190
 H742 H 0.41640 -0.12015 0.39016
 H743 H 0.39484 -0.17021 0.35110
 H744 H 0.35369 -0.06893 0.42713
 C745 C 0.36064 0.35655 -0.16807
 C746 C 0.35550 0.37604 -0.13423
 C747 C 0.38721 0.39746 -0.11672
 C748 C 0.38235 0.42045 -0.08531
 H749 H 0.32811 0.37650 -0.11949
 H750 H 0.41514 0.39425 -0.12989
 H751 H 0.38794 0.35846 -0.18309
 H752 H 0.35428 0.42448 -0.07281
 C753 C 1.14172 -0.14357 0.16938
 C754 C 1.14657 -0.12110 0.13688
 C755 C 1.11424 -0.10078 0.11939
 C756 C 1.11876 -0.07627 0.08846
 H757 H 1.17422 -0.11761 0.12303
 H758 H 1.08623 -0.10651 0.13167
 H759 H 1.11408 -0.14482 0.18373
 H760 H 1.14688 -0.07014 0.07669
 C761 C 1.13449 0.33020 0.64180
 C762 C 1.14000 0.36317 0.62105
 C763 C 1.10863 0.38175 0.59993
 C764 C 1.11457 0.41315 0.57688
 H765 H 1.16768 0.37667 0.61951
 H766 H 1.08035 0.36994 0.60382
 H767 H 1.10703 0.31614 0.64103
 H768 H 1.14305 0.42433 0.57262
 C769 C 0.66591 -0.13324 0.63330
 C770 C 0.63006 -0.14217 0.62487
 C771 C 0.60332 -0.11654 0.60426
 C772 C 0.61224 -0.08489 0.58219
 H773 H 0.61800 -0.16915 0.63609
 H774 H 0.57409 -0.12583 0.60671
 H775 H 0.67724 -0.10491 0.62541
 H776 H 0.64136 -0.07604 0.57756
 C777 C 0.63907 0.35087 0.14641
 C778 C 0.64665 0.37859 0.11904
 C779 C 0.61516 0.39767 0.09847
 C780 C 0.62063 0.42518 0.07042
 H781 H 0.67531 0.38719 0.11153
 H782 H 0.58662 0.38878 0.10662
 H783 H 0.60968 0.34331 0.15218
 H784 H 0.64908 0.43414 0.06206
 C785 C 0.86034 0.16411 0.14593
 C786 C 0.85339 0.13157 0.12601
 C787 C 0.88495 0.11113 0.10674
 C788 C 0.87971 0.07927 0.08527
 H789 H 0.82525 0.11941 0.12447
 H790 H 0.91329 0.12251 0.11040
 H791 H 0.88927 0.17463 0.14656
 H792 H 0.85139 0.06824 0.08076
 C793 C 0.86406 0.64639 0.66416
 C794 C 0.85793 0.62582 0.63135
 C795 C 0.88857 0.60267 0.61392
 C796 C 0.88300 0.57972 0.58273
 H797 H 0.83063 0.62606 0.61725
 H798 H 0.91648 0.60509 0.62656
 H799 H 0.89111 0.64388 0.67871
 H800 H 0.85497 0.57676 0.57052
 C801 C 0.36037 0.14303 0.66164
 C802 C 0.35493 0.12421 0.62754
 C803 C 0.38638 0.10333 0.60855
 C804 C 0.38134 0.08121 0.57661
 H805 H 0.32752 0.12385 0.61370
 H806 H 0.41427 0.10614 0.62115
 H807 H 0.38770 0.14102 0.67566
 H808 H 0.35330 0.07752 0.56464
 C809 C 0.36252 0.66439 0.13193
 C810 C 0.35645 0.62999 0.11512
 C811 C 0.38721 0.61111 0.09284
 C812 C 0.38187 0.57854 0.07243
 H813 H 0.32928 0.61557 0.11800
 H814 H 0.41515 0.62410 0.09370
 H815 H 0.38945 0.67886 0.12659
 H816 H 0.35379 0.56610 0.07037
   
