data_POSCAR
  _audit_creation_date              2014-09-24
  _audit_creation_method            'ToBaCCo'
  _symmetry_space_group_name_H-M    'P1'
  _symmetry_Int_Tables_number       1
  _symmetry_cell_setting            triclinic
  loop_
  _symmetry_equiv_pos_as_xyz
 x,y,z
_cell_length_a 21.2148
_cell_length_b 21.2283
_cell_length_c 28.3952
_cell_angle_alpha 89.845400
_cell_angle_beta 89.951800
_cell_angle_gamma 90.000000
loop_
  _atom_site_label
  _atom_site_type_symbol
  _atom_site_fract_x
  _atom_site_fract_y
  _atom_site_fract_z
O1 O -0.06830 0.44889 1.03965
 O2 O -0.05504 0.56591 0.94863
 O3 O -0.05087 0.44149 0.94891
 O4 O -0.03566 0.56803 1.04028
 O5 O 0.06692 0.55137 1.03939
 O6 O 0.05287 0.43517 0.94823
 O7 O 0.04869 0.55979 0.94887
 O8 O 0.03427 0.43240 1.04003
 Cu9 Cu -0.06161 0.50731 0.99421
 Cu10 Cu 0.05992 0.49338 0.99388
 C11 C -0.02105 0.41964 1.05542
 C12 C -0.00231 0.58492 0.93364
 C13 C 0.00002 0.41654 0.93348
 C14 C 0.01981 0.58061 1.05539
 O15 O 0.44937 0.06766 0.53947
 O16 O 0.56631 0.05426 0.44859
 O17 O 0.44191 0.05023 0.44874
 O18 O 0.56843 0.03519 0.54035
 O19 O 0.55174 -0.06731 0.53984
 O20 O 0.43564 -0.05350 0.44833
 O21 O 0.56023 -0.04941 0.44914
 O22 O 0.43245 -0.03478 0.54001
 Cu23 Cu 0.50778 0.06121 0.49410
 Cu24 Cu 0.49379 -0.06042 0.49415
 C25 C 0.41978 0.02056 0.55519
 C26 C 0.58535 0.00156 0.43381
 C27 C 0.41706 -0.00068 0.43337
 C28 C 0.58095 -0.02020 0.55573
 C29 C -0.07931 0.02427 0.28096
 C30 C -0.02092 0.02690 0.25819
 C31 C -0.00313 0.08089 0.23332
 C32 C -0.04343 0.13315 0.23064
 C33 C -0.10251 0.13003 0.25363
 C34 C -0.12064 0.07592 0.27957
 C35 C 0.02063 -0.02827 0.25814
 C36 C 0.00248 -0.08230 0.23369
 C37 C 0.04311 -0.13421 0.23047
 C38 C 0.10266 -0.13081 0.25263
 C39 C 0.12102 -0.07683 0.27838
 C40 C 0.07936 -0.02551 0.28033
 H41 H -0.09186 -0.01807 0.30025
 H42 H 0.04111 0.08040 0.21437
 H43 H -0.04214 -0.08180 0.21519
 H44 H 0.09208 0.01688 0.29936
 H45 H -0.13439 0.16958 0.25065
 H46 H 0.13474 -0.16996 0.24887
 C47 C -0.02464 -0.07977 0.78103
 C48 C -0.02708 -0.02133 0.75837
 C49 C -0.08104 -0.00321 0.73364
 C50 C -0.13344 -0.04336 0.73095
 C51 C -0.13050 -0.10246 0.75386
 C52 C -0.07640 -0.12088 0.77964
 C53 C 0.02813 0.02019 0.75838
 C54 C 0.08225 0.00224 0.73383
 C55 C 0.13415 0.04296 0.73061
 C56 C 0.13062 0.10242 0.75280
 C57 C 0.07652 0.12055 0.77871
 C58 C 0.02523 0.07879 0.78061
 H59 H 0.01768 -0.09268 0.80016
 H60 H -0.08021 0.04109 0.71473
 H61 H 0.08190 -0.04233 0.71536
 H62 H -0.01722 0.09120 0.79975
 H63 H -0.17012 -0.13420 0.75086
 H64 H 0.16984 0.13454 0.74904
 C65 C -0.00320 -0.28828 0.14128
 C66 C 0.05953 -0.27478 0.15350
 N67 N 0.10686 -0.30956 0.13504
 C68 C 0.09463 -0.35692 0.10447
 C69 C 0.03193 -0.37009 0.09102
 N70 N -0.01580 -0.33540 0.11011
 N71 N -0.05028 -0.25343 0.16043
 C72 C -0.03748 -0.20509 0.19039
 C73 C 0.02576 -0.18983 0.20129
 N74 N 0.07241 -0.22612 0.18275
 H75 H 0.13394 -0.38328 0.09023
 H76 H -0.07655 -0.17939 0.20549
 C77 C 0.00252 0.28783 0.14112
 C78 C -0.06015 0.27425 0.15359
 N79 N -0.10754 0.30921 0.13540
 C80 C -0.09543 0.35674 0.10478
 C81 C -0.03285 0.36997 0.09103
 N82 N 0.01497 0.33515 0.10988
 N83 N 0.04970 0.25284 0.16003
 C84 C 0.03700 0.20419 0.18997
 C85 C -0.02617 0.18895 0.20127
 N86 N -0.07289 0.22539 0.18292
 H87 H -0.13480 0.38314 0.09075
 H88 H 0.07610 0.17818 0.20475
 C89 C 0.28819 -0.00279 0.64091
 C90 C 0.27459 0.05986 0.65314
 N91 N 0.30935 0.10729 0.63465
 C92 C 0.35672 0.09517 0.60396
 C93 C 0.36999 0.03257 0.59054
 N94 N 0.33537 -0.01521 0.60967
 N95 N 0.25350 -0.04999 0.66019
 C96 C 0.20518 -0.03734 0.69033
 C97 C 0.18982 0.02579 0.70128
 N98 N 0.22599 0.07254 0.68263
 H99 H 0.38309 0.13445 0.58962
 H100 H 0.17940 -0.07641 0.70541
 C101 C -0.28784 0.00298 0.64157
 C102 C -0.27436 -0.05972 0.65401
 N103 N -0.30927 -0.10705 0.63579
 C104 C -0.35661 -0.09487 0.60509
 C105 C -0.36970 -0.03224 0.59137
 N106 N -0.33507 0.01551 0.61036
 N107 N -0.25275 0.05005 0.66045
 C108 C -0.20415 0.03718 0.69035
 C109 C -0.18911 -0.02598 0.70162
 N110 N -0.22559 -0.07258 0.68332
 H111 H -0.38308 -0.13418 0.59105
 H112 H -0.17794 0.07604 0.70515
 C113 C -0.06462 -0.29016 0.85957
 C114 C -0.00990 -0.25951 0.84428
 N115 N 0.04748 -0.28270 0.85713
 C116 C 0.05243 -0.33486 0.88517
 C117 C -0.00271 -0.36474 0.90160
 N118 N -0.05969 -0.34137 0.88780
 N119 N -0.12199 -0.26696 0.84754
 C120 C -0.12743 -0.21388 0.82100
 C121 C -0.07278 -0.18190 0.80579
 N122 N -0.01519 -0.20610 0.81798
 H123 H 0.09864 -0.35168 0.89543
 H124 H -0.17407 -0.19606 0.81349
 C125 C 0.06271 0.29120 0.85646
 C126 C 0.00847 0.25815 0.84354
 N127 N -0.04894 0.27909 0.85835
 C128 C -0.05433 0.33145 0.88593
 C129 C 0.00039 0.36397 0.89960
 N130 N 0.05740 0.34276 0.88414
 N131 N 0.12016 0.27002 0.84272
 C132 C 0.12623 0.21659 0.81688
 C133 C 0.07212 0.18213 0.80403
 N134 N 0.01439 0.20451 0.81778
 H135 H -0.10042 0.34624 0.89809
 H136 H 0.17312 0.20077 0.80806
 C137 C -0.28983 0.06391 0.35964
 C138 C -0.25914 0.00929 0.34459
 N139 N -0.28228 -0.04807 0.35760
 C140 C -0.33441 -0.05307 0.38563
 C141 C -0.36439 0.00198 0.40177
 N142 N -0.34113 0.05894 0.38774
 N143 N -0.26662 0.12126 0.34748
 C144 C -0.21362 0.12682 0.32088
 C145 C -0.18161 0.07225 0.30585
 N146 N -0.20573 0.01470 0.31830
 H147 H -0.35116 -0.09921 0.39612
 H148 H -0.19592 0.17356 0.31326
 C149 C 0.29180 -0.06346 0.35623
 C150 C 0.25879 -0.00920 0.34302
 N151 N 0.27971 0.04813 0.35770
 C152 C 0.33196 0.05347 0.38546
 C153 C 0.36442 -0.00119 0.39945
 N154 N 0.34325 -0.05820 0.38411
 N155 N 0.27046 -0.12087 0.34272
 C156 C 0.21702 -0.12681 0.31676
 C157 C 0.18264 -0.07264 0.30367
 N158 N 0.20514 -0.01498 0.31720
 H159 H 0.34685 0.09952 0.39741
 H160 H 0.20085 -0.17364 0.30824
   
