data_POSCAR
  _audit_creation_date              2014-09-24
  _audit_creation_method            'ToBaCCo'
  _symmetry_space_group_name_H-M    'P1'
  _symmetry_Int_Tables_number       1
  _symmetry_cell_setting            triclinic
  loop_
  _symmetry_equiv_pos_as_xyz
 x,y,z
_cell_length_a 47.5464
_cell_length_b 47.4393
_cell_length_c 47.5303
_cell_angle_alpha 89.978100
_cell_angle_beta 90.006400
_cell_angle_gamma 89.863700
loop_
  _atom_site_label
  _atom_site_type_symbol
  _atom_site_fract_x
  _atom_site_fract_y
  _atom_site_fract_z
C1 C 0.19375 0.15757 0.19318
 C2 C 0.18155 0.14594 0.21743
 C3 C 0.15721 0.15797 0.22952
 C4 C 0.14537 0.18213 0.21681
 C5 C 0.15736 0.19395 0.19256
 C6 C 0.18162 0.18164 0.18070
 C7 C 0.21780 0.14531 0.18115
 C8 C 0.23005 0.15672 0.15662
 C9 C 0.21772 0.18091 0.14445
 C10 C 0.19368 0.19334 0.15626
 C11 C 0.18140 0.21721 0.14384
 C12 C 0.15711 0.22960 0.15544
 C13 C 0.14530 0.21782 0.17990
 H14 H 0.19110 0.12738 0.22675
 H15 H 0.12667 0.19181 0.22562
 H16 H 0.22683 0.12674 0.19095
 H17 H 0.22667 0.19014 0.12561
 H18 H 0.19075 0.22603 0.12501
 H19 H 0.12659 0.22712 0.18909
 C20 C -0.19195 0.84429 0.19535
 C21 C -0.17944 0.85630 0.21924
 C22 C -0.15490 0.84451 0.23116
 C23 C -0.14321 0.82018 0.21869
 C24 C -0.15550 0.80798 0.19480
 C25 C -0.17994 0.82007 0.18306
 C26 C -0.21621 0.85630 0.18348
 C27 C -0.22875 0.84454 0.15928
 C28 C -0.21650 0.82024 0.14726
 C29 C -0.19227 0.80802 0.15894
 C30 C -0.18008 0.78400 0.14671
 C31 C -0.15565 0.77180 0.15824
 C32 C -0.14357 0.78395 0.18237
 H33 H -0.18890 0.87498 0.22840
 H34 H -0.12438 0.81065 0.22740
 H35 H -0.22516 0.87496 0.19317
 H36 H -0.22567 0.81076 0.12865
 H37 H -0.18962 0.77490 0.12811
 H38 H -0.12475 0.77481 0.19150
 C39 C -0.19567 0.15542 -0.19317
 C40 C -0.18328 0.14353 -0.21720
 C41 C -0.15922 0.15568 -0.22940
 C42 C -0.14771 0.18012 -0.21725
 C43 C -0.15987 0.19224 -0.19322
 C44 C -0.18393 0.17985 -0.18111
 C45 C -0.21950 0.14308 -0.18094
 C46 C -0.23193 0.15474 -0.15661
 C47 C -0.22001 0.17928 -0.14484
 C48 C -0.19617 0.19181 -0.15688
 C49 C -0.18428 0.21604 -0.14490
 C50 C -0.16021 0.22853 -0.15676
 C51 C -0.14820 0.21646 -0.18101
 H52 H -0.19238 0.12470 -0.22630
 H53 H -0.12917 0.18972 -0.22638
 H54 H -0.22821 0.12425 -0.19043
 H55 H -0.22914 0.18870 -0.12617
 H56 H -0.19375 0.22507 -0.12621
 H57 H -0.12965 0.22580 -0.19038
 C58 C 0.19438 0.84297 -0.19384
 C59 C 0.18261 0.85558 -0.21782
 C60 C 0.15827 0.84435 -0.23055
 C61 C 0.14602 0.81997 -0.21879
 C62 C 0.15760 0.80716 -0.19482
 C63 C 0.18185 0.81869 -0.18228
 C64 C 0.21841 0.85443 -0.18113
 C65 C 0.23014 0.84200 -0.15692
 C66 C 0.21752 0.81770 -0.14560
 C67 C 0.19349 0.80601 -0.15808
 C68 C 0.18083 0.78193 -0.14660
 C69 C 0.15656 0.77031 -0.15891
 C70 C 0.14515 0.78309 -0.18309
 H71 H 0.19246 0.87428 -0.22641
 H72 H 0.12733 0.81089 -0.22813
 H73 H 0.22786 0.87316 -0.19008
 H74 H 0.22629 0.80789 -0.12695
 H75 H 0.18986 0.77236 -0.12796
 H76 H 0.12645 0.77440 -0.19280
 C77 C 0.15754 1.19319 0.80710
 C78 C 0.14594 1.18098 0.78284
 C79 C 0.15803 1.15667 0.77067
 C80 C 0.18222 1.14488 0.78330
 C81 C 0.19401 1.15689 0.80754
 C82 C 0.18164 1.18112 0.81949
 C83 C 0.14522 1.21721 0.81922
 C84 C 0.15662 1.22949 0.84373
 C85 C 0.18084 1.21722 0.85581
 C86 C 0.19332 1.19320 0.84392
 C87 C 0.21723 1.18098 0.85625
 C88 C 0.22968 1.15672 0.84457
 C89 C 0.21791 1.14488 0.82012
 H90 H 0.12735 1.19048 0.77360
 H91 H 0.19195 1.12621 0.77441
 H92 H 0.12663 1.22620 0.80949
 H93 H 0.19006 1.22620 0.87464
 H94 H 0.22604 1.19035 0.87507
 H95 H 0.22724 1.12619 0.81087
 C96 C 0.84357 0.80820 0.80442
 C97 C 0.85558 0.82077 0.78055
 C98 C 0.84379 0.84534 0.76861
 C99 C 0.81945 0.85700 0.78103
 C100 C 0.80725 0.84464 0.80489
 C101 C 0.81935 0.82018 0.81666
 C102 C 0.85559 0.78392 0.81632
 C103 C 0.84382 0.77131 0.84048
 C104 C 0.81951 0.78351 0.85244
 C105 C 0.80728 0.80777 0.84074
 C106 C 0.78325 0.81991 0.85291
 C107 C 0.77105 0.84438 0.84137
 C108 C 0.78321 0.85654 0.81727
 H109 H 0.87427 0.81135 0.77144
 H110 H 0.80992 0.87586 0.77230
 H111 H 0.87426 0.77500 0.80669
 H112 H 0.81002 0.77428 0.87102
 H113 H 0.77415 0.81031 0.87148
 H114 H 0.77408 0.87539 0.80814
 C115 C 0.15571 0.80468 1.19307
 C116 C 0.14392 0.81708 1.21714
 C117 C 0.15620 0.84107 1.22943
 C118 C 0.18068 0.85247 1.21733
 C119 C 0.19271 0.84028 1.19326
 C120 C 0.18017 0.81630 1.18106
 C121 C 0.14324 0.78092 1.18076
 C122 C 0.15480 0.76847 1.15639
 C123 C 0.17936 0.78029 1.14466
 C124 C 0.19203 0.80404 1.15678
 C125 C 0.21630 0.81584 1.14485
 C126 C 0.22894 0.83981 1.15682
 C127 C 0.21697 0.85184 1.18111
 H128 H 0.12505 0.80807 1.22618
 H129 H 0.19038 0.87095 1.22653
 H130 H 0.12440 0.77228 1.19023
 H131 H 0.18870 0.77115 1.12595
 H132 H 0.22525 0.80635 1.12613
 H133 H 0.22643 0.87032 1.19055
 C134 C 0.84249 1.19411 1.19391
 C135 C 0.85508 1.18236 1.21792
 C136 C 0.84389 1.15799 1.23071
 C137 C 0.81957 1.14568 1.21897
 C138 C 0.80679 1.15724 1.19498
 C139 C 0.81828 1.18152 1.18238
 C140 C 0.85391 1.21818 1.18116
 C141 C 0.84152 1.22988 1.15691
 C142 C 0.81730 1.21719 1.14561
 C143 C 0.80564 1.19313 1.15815
 C144 C 0.78163 1.18040 1.14669
 C145 C 0.77003 1.15610 1.15907
 C146 C 0.78276 1.14473 1.18329
 H147 H 0.87374 1.19226 1.22648
 H148 H 0.81051 1.12695 1.22835
 H149 H 0.87258 1.22770 1.19011
 H150 H 0.80752 1.22593 1.12693
 H151 H 0.77209 1.18940 1.12802
 H152 H 0.77409 1.12602 1.19304
 O153 O 0.46028 1.04925 1.05138
 O154 O 0.42958 1.02190 1.02607
 C155 C 0.43509 1.04153 1.04420
 O156 O 0.53936 1.04744 0.95078
 O157 O 0.57033 1.02180 0.97768
 C158 C 0.56463 1.04005 0.95818
 O159 O 0.46030 1.04981 0.95325
 O160 O 0.42959 1.02219 0.97827
 C161 C 0.43511 1.04200 0.96032
 O162 O 0.53935 1.04690 1.05381
 O163 O 0.57031 1.02169 1.02652
 C164 C 0.56462 1.03968 1.04624
 Zr165 Zr 0.49986 1.03365 1.03780
 O166 O 0.50278 1.07818 1.03766
 O167 O 0.49679 1.03353 1.08223
 Zr168 Zr 0.49989 1.03415 0.96677
 O169 O 0.50284 1.07867 0.96775
 O170 O 0.49682 1.03494 0.92235
 O171 O 0.47466 1.03932 1.00231
 O172 O 0.52432 1.03911 1.00230
 O173 O 0.53993 0.94923 1.05331
 O174 O 0.57060 0.97508 1.02639
 C175 C 0.56512 0.95680 1.04590
 O176 O 0.46079 0.94695 0.95269
 O177 O 0.42982 0.97414 0.97800
 C178 C 0.43552 0.95455 0.95985
 O179 O 0.53977 0.94956 0.95031
 O180 O 0.57045 0.97456 0.97795
 C181 C 0.56496 0.95671 0.95807
 O182 O 0.46080 0.94629 1.05079
 O183 O 0.42983 0.97380 1.02579
 C184 C 0.43553 0.95397 1.04369
 Zr185 Zr 0.50025 0.96224 1.03736
 O186 O 0.50371 0.91774 1.03651
 O187 O 0.49718 0.96156 1.08178
 Zr188 Zr 0.50023 0.96266 0.96637
 O189 O 0.50359 0.91815 0.96679
 O190 O 0.49719 0.96254 0.92194
 Zr191 Zr 0.45820 0.99807 1.00205
 Zr192 Zr 0.54182 0.99834 1.00203
 O193 O 0.52474 0.95745 1.00185
 O194 O 0.47507 0.95690 1.00183
 O195 O 0.52507 0.99800 1.04311
 O196 O 0.47576 0.99837 0.96138
 O197 O 0.47572 0.99785 1.04274
 O198 O 0.52507 0.99850 0.96098
 H199 H 0.53706 1.05561 1.00237
 H200 H 0.46320 0.99844 0.94476
 H201 H 0.53759 0.94098 1.00185
 H202 H 0.46313 0.99771 1.05934
 H203 H 0.51193 1.02270 0.91487
 H204 H 0.51242 0.97467 0.91462
 H205 H 0.48733 0.91074 0.97744
 H206 H 0.48751 0.91043 1.02570
 H207 H 0.51229 0.97374 1.08925
 H208 H 0.51237 1.02178 1.08954
 H209 H 0.48673 1.08553 1.02661
 H210 H 0.48644 1.08587 0.97837
 O211 O 0.04924 0.46011 -0.05101
 O212 O 0.02176 0.42941 -0.02580
 C213 C 0.04146 0.43488 -0.04383
 O214 O 0.04696 0.53960 0.04926
 O215 O 0.02155 0.57060 0.02211
 C216 C 0.03967 0.56492 0.04171
 O217 O 0.04943 0.46024 0.04680
 O218 O 0.02231 0.42938 0.02137
 C219 C 0.04190 0.43497 0.03950
 O220 O 0.04715 0.53929 -0.05362
 O221 O 0.02216 0.57036 -0.02626
 C222 C 0.04010 0.56462 -0.04598
 Zr223 Zr 0.03366 0.49984 -0.03760
 O224 O 0.07809 0.50270 -0.03719
 O225 O 0.03376 0.49666 -0.08203
 Zr226 Zr 0.03366 0.49996 0.03348
 O227 O 0.07808 0.50292 0.03335
 O228 O 0.03367 0.49690 0.07792
 O229 O 0.03906 0.47468 -0.00200
 O230 O 0.03884 0.52435 -0.00212
 O231 O -0.05087 0.53980 -0.05358
 O232 O -0.02569 0.57060 -0.02623
 C233 C -0.04368 0.56506 -0.04595
 O234 O -0.05340 0.46088 0.04714
 O235 O -0.02611 0.42978 0.02209
 C236 C -0.04578 0.43554 0.04009
 O237 O -0.05052 0.54013 0.04933
 O238 O -0.02498 0.57085 0.02214
 C239 C -0.04309 0.56537 0.04177
 O240 O -0.05348 0.46063 -0.05093
 O241 O -0.02614 0.42967 -0.02574
 C242 C -0.04585 0.43533 -0.04372
 Zr243 Zr -0.03757 0.50019 -0.03761
 O244 O -0.08198 0.50354 -0.03730
 O245 O -0.03759 0.49698 -0.08203
 Zr246 Zr -0.03748 0.50034 0.03354
 O247 O -0.08189 0.50374 0.03334
 O248 O -0.03747 0.49736 0.07798
 Zr249 Zr -0.00208 0.45816 -0.00191
 Zr250 Zr -0.00183 0.54197 -0.00222
 O251 O -0.04258 0.52475 -0.00209
 O252 O -0.04313 0.47510 -0.00195
 O253 O -0.00189 0.52515 -0.04325
 O254 O -0.00196 0.47571 0.03875
 O255 O -0.00203 0.47560 -0.04266
 O256 O -0.00183 0.52528 0.03892
 H257 H 0.05539 0.53700 -0.00209
 H258 H -0.00192 0.46303 0.05531
 H259 H -0.05906 0.53758 -0.00204
 H260 H -0.00209 0.46294 -0.05923
 H261 H 0.02222 0.51270 0.08526
 H262 H -0.02579 0.51295 0.08528
 H263 H -0.08928 0.48782 0.02216
 H264 H -0.08932 0.48767 -0.02600
 H265 H -0.02601 0.51261 -0.08942
 H266 H 0.02204 0.51224 -0.08942
 H267 H 0.08535 0.48652 -0.02623
 H268 H 0.08539 0.48712 0.02189
 O269 O 1.05328 -0.04721 0.53966
 O270 O 1.02636 -0.02143 0.57050
 C271 C 1.04587 -0.03972 0.56489
 O272 O 1.05112 0.05309 0.46050
 O273 O 1.02592 0.02580 0.42965
 C274 C 1.04398 0.04543 0.43525
 O275 O 1.05343 0.05071 0.53956
 O276 O 1.02587 0.02573 0.57035
 C277 C 1.04566 0.04363 0.56479
 O278 O 1.05080 -0.04986 0.46053
 O279 O 1.02578 -0.02227 0.42967
 C280 C 1.04371 -0.04211 0.43529
 Zr281 Zr 1.03733 -0.03403 0.50005
 O282 O 1.08174 -0.03460 0.49698
 O283 O 1.03668 -0.07855 0.50325
 Zr284 Zr 1.03755 0.03737 0.50003
 O285 O 1.08198 0.03721 0.49701
 O286 O 1.03728 0.08190 0.50311
 O287 O 1.04298 0.00165 0.52510
 O288 O 1.04260 0.00165 0.47570
 O289 O 0.95276 -0.04929 0.46045
 O290 O 0.97797 -0.02197 0.42962
 C291 C 0.95989 -0.04160 0.43521
 O292 O 0.95050 0.05085 0.53963
 O293 O 0.97742 0.02507 0.57049
 C294 C 0.95787 0.04332 0.56487
 O295 O 0.95302 0.05360 0.46050
 O296 O 0.97811 0.02608 0.42965
 C297 C 0.96012 0.04587 0.43526
 O298 O 0.95038 -0.04699 0.53946
 O299 O 0.97792 -0.02207 0.57032
 C300 C 0.95812 -0.03995 0.56471
 Zr301 Zr 0.96631 -0.03362 0.49998
 O302 O 0.92189 -0.03349 0.49692
 O303 O 0.96658 -0.07815 0.50305
 Zr304 Zr 0.96654 0.03779 0.50004
 O305 O 0.92213 0.03853 0.49693
 O306 O 0.96734 0.08230 0.50325
 Zr307 Zr 1.00191 0.00185 0.54182
 Zr308 Zr 1.00194 0.00190 0.45815
 O309 O 0.96127 0.00213 0.47567
 O310 O 0.96086 0.00208 0.52505
 O311 O 1.00181 -0.03931 0.47483
 O312 O 1.00202 0.04268 0.52449
 O313 O 1.00181 -0.03896 0.52447
 O314 O 1.00206 0.04309 0.47484
 H315 H 1.05921 0.00156 0.46312
 H316 H 1.00196 0.05919 0.53725
 H317 H 0.94466 0.00222 0.46308
 H318 H 1.00186 -0.05550 0.53721
 H319 H 1.02621 0.08927 0.48709
 H320 H 0.97799 0.08957 0.48693
 H321 H 0.91468 0.02620 0.51195
 H322 H 0.91456 -0.02185 0.51255
 H323 H 0.97763 -0.08550 0.48702
 H324 H 1.02582 -0.08582 0.48707
 H325 H 1.08915 -0.02250 0.51219
 H326 H 1.08928 0.02559 0.51268
 N327 N 1.10928 0.14577 0.28781
 C328 C 1.12054 0.12240 0.29974
 N329 N 1.14409 0.11094 0.28843
 N330 N 1.15600 0.12251 0.26585
 C331 C 1.14482 0.14595 0.25365
 N332 N 1.12120 0.15733 0.26522
 C333 C 1.10738 0.10960 0.32371
 C334 C 1.09620 0.09862 0.34366
 C335 C 1.08273 0.08526 0.36714
 N336 N 1.08934 0.09273 0.39387
 N337 N 1.07693 0.08012 0.41563
 C338 C 1.05750 0.05961 0.41137
 N339 N 1.05092 0.05221 0.38457
 N340 N 1.06332 0.06482 0.36283
 N341 N 0.85899 -0.10757 0.28914
 C342 C 0.88270 -0.11885 0.30031
 N343 N 0.89382 -0.14239 0.28858
 N344 N 0.88161 -0.15427 0.26633
 C345 C 0.85782 -0.14308 0.25491
 N346 N 0.84680 -0.11946 0.26688
 C347 C 0.89606 -0.10582 0.32402
 C348 C 0.90739 -0.09475 0.34382
 C349 C 0.92096 -0.08137 0.36722
 N350 N 0.94036 -0.06095 0.36283
 N351 N 0.95284 -0.04835 0.38453
 C352 C 0.94634 -0.05576 0.41136
 N353 N 0.92691 -0.07625 0.41568
 N354 N 0.91442 -0.08885 0.39397
 N355 N 0.88953 0.14229 0.71134
 C356 C 0.87862 0.11857 0.69988
 N357 N 0.85526 0.10706 0.71143
 N358 N 0.84318 0.11891 0.73379
 C359 C 0.85402 0.14270 0.74545
 N360 N 0.87744 0.15414 0.73371
 C361 C 0.89191 0.10554 0.67609
 C362 C 0.90325 0.09450 0.65626
 C363 C 0.91699 0.08127 0.63285
 N364 N 0.90992 0.08827 0.60610
 N365 N 0.92288 0.07610 0.58439
 C366 C 0.94334 0.05654 0.58872
 N367 N 0.95033 0.04957 0.61555
 N368 N 0.93738 0.06173 0.63724
 N369 N 1.11120 -0.14081 0.71103
 C370 C 1.12287 -0.11725 0.69998
 N371 N 1.14639 -0.10653 0.71193
 N372 N 1.15788 -0.11900 0.73429
 C373 C 1.14630 -0.14264 0.74559
 N374 N 1.12270 -0.15326 0.73338
 C375 C 1.11020 -0.10360 0.67619
 C376 C 1.09932 -0.09210 0.65635
 C377 C 1.08604 -0.07841 0.63292
 N378 N 1.06583 -0.05870 0.63729
 N379 N 1.05314 -0.04625 0.61558
 C380 C 1.06025 -0.05311 0.58876
 N381 N 1.08055 -0.07284 0.58445
 N382 N 1.09323 -0.08528 0.60618
 N383 N 0.28822 1.10850 1.14403
 C384 C 0.29968 1.11945 1.12034
 N385 N 0.28808 1.14286 1.10881
 N386 N 0.26568 1.15494 1.12060
 C387 C 0.25396 1.14410 1.14436
 N388 N 0.26581 1.12060 1.15581
 C389 C 0.32353 1.10618 1.10737
 C390 C 0.34342 1.09494 1.09630
 C391 C 0.36690 1.08141 1.08294
 N392 N 0.39360 1.08888 1.08957
 N393 N 0.41538 1.07623 1.07718
 C394 C 0.41116 1.05568 1.05774
 N395 N 0.38439 1.04828 1.05114
 N396 N 0.36263 1.06093 1.06353
 N397 N 0.28974 0.88964 0.85839
 C398 C 0.30080 0.87791 0.88194
 N399 N 0.28886 0.85435 0.89270
 N400 N 0.26652 0.84287 0.88029
 C401 C 0.25527 0.85454 0.85668
 N402 N 0.26740 0.87816 0.84600
 C403 C 0.32455 0.89058 0.89555
 C404 C 0.34435 0.90147 0.90703
 C405 C 0.36771 0.91474 0.92074
 N406 N 0.36325 0.93510 0.94025
 N407 N 0.38489 0.94770 0.95279
 C408 C 0.41173 0.94036 0.94624
 N409 N 0.41613 0.91992 0.92671
 N410 N 0.39447 0.90732 0.91417
 N411 N 0.71251 0.85776 1.11213
 C412 C 0.70100 0.88125 1.12358
 N413 N 0.71276 0.89245 1.14700
 N414 N 0.73536 0.88053 1.15859
 C415 C 0.74713 0.85696 1.14722
 N416 N 0.73511 0.84585 1.12373
 C417 C 0.67699 0.89438 1.11076
 C418 C 0.65700 0.90550 1.09973
 C419 C 0.63345 0.91882 1.08628
 N420 N 0.60677 0.91176 1.09345
 N421 N 0.58494 0.92394 1.08068
 C422 C 0.58908 0.94360 1.06031
 N423 N 0.61583 0.95064 1.05323
 N424 N 0.63764 0.93846 1.06600
 N425 N 0.71074 1.10596 0.85656
 C426 C 0.69906 1.11705 0.88008
 N427 N 0.71022 1.14076 0.89133
 N428 N 0.73243 1.15299 0.87942
 C429 C 0.74437 1.14199 0.85581
 N430 N 0.73295 1.11820 0.84466
 C431 C 0.67541 1.10364 0.89316
 C432 C 0.65568 1.09229 0.90430
 C433 C 0.63236 1.07873 0.91780
 N434 N 0.60558 1.08552 0.91065
 N435 N 0.58395 1.07310 0.92343
 C436 C 0.58840 1.05348 0.94377
 N437 N 0.61525 1.04670 0.95084
 N438 N 0.63687 1.05912 0.93807
 N439 N 0.14323 0.28809 0.10573
 C440 C 0.11967 0.29986 0.11673
 N441 N 0.10843 0.28875 0.14045
 N442 N 0.12037 0.26652 0.15280
 C443 C 0.14399 0.25457 0.14188
 N444 N 0.15516 0.26587 0.11809
 C445 C 0.10661 0.32357 0.10323
 C446 C 0.09550 0.34338 0.09183
 C447 C 0.08207 0.36683 0.07823
 N448 N 0.08936 0.39363 0.08488
 N449 N 0.07666 0.41538 0.07244
 C450 C 0.05624 0.41105 0.05293
 N451 N 0.04903 0.38417 0.04630
 N452 N 0.06173 0.36243 0.05874
 N453 N -0.11243 0.28847 -0.14304
 C454 C -0.12374 0.29985 -0.11945
 N455 N -0.14706 0.28803 -0.10815
 N456 N -0.15872 0.26548 -0.12007
 C457 C -0.14747 0.25390 -0.14371
 N458 N -0.12409 0.26592 -0.15495
 C459 C -0.11083 0.32379 -0.10632
 C460 C -0.09974 0.34372 -0.09521
 C461 C -0.08622 0.36720 -0.08189
 N462 N -0.09362 0.39400 -0.08859
 N463 N -0.08082 0.41576 -0.07637
 C464 C -0.06021 0.41143 -0.05705
 N465 N -0.05289 0.38456 -0.05038
 N466 N -0.06568 0.36281 -0.06260
 N467 N 0.10697 0.71158 -0.14643
 C468 C 0.11779 0.69951 -0.12295
 N469 N 0.14137 0.71047 -0.11132
 N470 N 0.15374 0.73286 -0.12282
 C471 C 0.14299 0.74512 -0.14635
 N472 N 0.11935 0.73396 -0.15792
 C473 C 0.10421 0.67572 -0.11026
 C474 C 0.09274 0.65589 -0.09934
 C475 C 0.07906 0.63251 -0.08602
 N476 N 0.08550 0.60568 -0.09348
 N477 N 0.07300 0.58399 -0.08082
 C478 C 0.05363 0.58844 -0.06027
 N479 N 0.04721 0.61535 -0.05289
 N480 N 0.05971 0.63702 -0.06555
 N481 N -0.10693 0.71259 0.14374
 C482 C -0.11838 0.70104 0.12033
 N483 N -0.14211 0.71253 0.10939
 N484 N -0.15400 0.73491 0.12149
 C485 C -0.14261 0.74664 0.14496
 N486 N -0.11883 0.73497 0.15582
 C487 C -0.10534 0.67719 0.10708
 C488 C -0.09428 0.65728 0.09582
 C489 C -0.08104 0.63374 0.08222
 N490 N -0.08790 0.60699 0.08949
 N491 N -0.07573 0.58515 0.07668
 C492 C -0.05629 0.58936 0.05617
 N493 N -0.04946 0.61620 0.04897
 N494 N -0.06162 0.63802 0.06178
 N495 N 1.11108 0.14348 0.71180
 C496 C 1.12259 0.11997 0.70041
 N497 N 1.14599 0.10875 0.71227
 N498 N 1.15750 0.12068 0.73487
 C499 C 1.14606 0.14427 0.74653
 N500 N 1.12260 0.15540 0.73440
 C501 C 1.10984 0.10680 0.67642
 C502 C 1.09890 0.09561 0.65647
 C503 C 1.08556 0.08216 0.63296
 N504 N 1.09315 0.08869 0.60624
 N505 N 1.08053 0.07634 0.58447
 C506 C 1.05989 0.05704 0.58870
 N507 N 1.05238 0.05053 0.61549
 N508 N 1.06500 0.06288 0.63725
 N509 N 0.85688 -0.10582 0.71118
 C510 C 0.88042 -0.11693 0.69951
 N511 N 0.89170 -0.14065 0.71072
 N512 N 0.87981 -0.15289 0.73296
 C513 C 0.85619 -0.14188 0.74488
 N514 N 0.84500 -0.11807 0.73342
 C515 C 0.89345 -0.10352 0.67582
 C516 C 0.90456 -0.09219 0.65604
 C517 C 0.91801 -0.07866 0.63265
 N518 N 0.93858 -0.05942 0.63706
 N519 N 0.95128 -0.04701 0.61538
 C520 C 0.94384 -0.05341 0.58855
 N521 N 0.92319 -0.07267 0.58420
 N522 N 0.91049 -0.08508 0.60589
 N523 N 1.14306 -0.11018 0.28882
 C524 C 1.11930 -0.12100 0.30023
 N525 N 1.10770 -0.14431 0.28860
 N526 N 1.11949 -0.15641 0.26621
 C527 C 1.14330 -0.14566 0.25461
 N528 N 1.15484 -0.12229 0.26643
 C529 C 1.10633 -0.10768 0.32403
 C530 C 1.09531 -0.09634 0.34388
 C531 C 1.08205 -0.08264 0.36730
 N532 N 1.08859 -0.09013 0.39404
 N533 N 1.07633 -0.07727 0.41576
 C534 C 1.05711 -0.05649 0.41144
 N535 N 1.05059 -0.04906 0.38461
 N536 N 1.06285 -0.06192 0.36291
 N537 N 0.85874 0.11091 0.28921
 C538 C 0.88224 0.12262 0.30022
 N539 N 0.89292 0.14619 0.28821
 N540 N 0.88047 0.15767 0.26584
 C541 C 0.85687 0.14603 0.25458
 N542 N 0.84630 0.12239 0.26684
 C543 C 0.89590 0.10996 0.32401
 C544 C 0.90741 0.09908 0.34384
 C545 C 0.92114 0.08581 0.36726
 N546 N 0.94052 0.06528 0.36288
 N547 N 0.95304 0.05266 0.38459
 C548 C 0.94660 0.06014 0.41141
 N549 N 0.92720 0.08076 0.41572
 N550 N 0.91467 0.09338 0.39400
 N551 N 0.10833 0.28761 -0.14348
 C552 C 0.11928 0.29910 -0.11981
 N553 N 0.14270 0.28754 -0.10835
 N554 N 0.15480 0.26514 -0.12019
 C555 C 0.14396 0.25339 -0.14394
 N556 N 0.12044 0.26520 -0.15531
 C557 C 0.10602 0.32298 -0.10680
 C558 C 0.09480 0.34291 -0.09572
 C559 C 0.08131 0.36646 -0.08239
 N560 N 0.06079 0.36221 -0.06306
 N561 N 0.04815 0.38404 -0.05072
 C562 C 0.05562 0.41087 -0.05728
 N563 N 0.07621 0.41506 -0.07664
 N564 N 0.08885 0.39321 -0.08898
 N565 N -0.11097 0.28963 0.14151
 C566 C -0.12266 0.30067 0.11795
 N567 N -0.14616 0.28867 0.10719
 N568 N -0.15760 0.26629 0.11964
 C569 C -0.14597 0.25506 0.14327
 N570 N -0.12242 0.26725 0.15394
 C571 C -0.11001 0.32446 0.10430
 C572 C -0.09912 0.34428 0.09280
 C573 C -0.08581 0.36766 0.07909
 N574 N -0.09324 0.39450 0.08556
 N575 N -0.08058 0.41619 0.07304
 C576 C -0.06006 0.41173 0.05365
 N577 N -0.05271 0.38481 0.04721
 N578 N -0.06537 0.36315 0.05972
 N579 N -0.10827 0.71280 -0.14709
 C580 C -0.11949 0.70098 -0.12371
 N581 N -0.14299 0.71245 -0.11233
 N582 N -0.15490 0.73507 -0.12397
 C583 C -0.14377 0.74715 -0.14742
 N584 N -0.12019 0.73542 -0.15872
 C585 C -0.10635 0.67696 -0.11083
 C586 C -0.09523 0.65697 -0.09976
 C587 C -0.08190 0.63341 -0.08626
 N588 N -0.06260 0.63768 -0.06572
 N589 N -0.05036 0.61587 -0.05295
 C590 C -0.05701 0.58903 -0.06029
 N591 N -0.07634 0.58481 -0.08090
 N592 N -0.08858 0.60665 -0.09368
 N593 N 0.10579 0.71133 0.14309
 C594 C 0.11679 0.69961 0.11954
 N595 N 0.14050 0.71070 0.10831
 N596 N 0.15283 0.73286 0.12026
 C597 C 0.14192 0.74483 0.14390
 N598 N 0.11812 0.73349 0.15503
 C599 C 0.10331 0.67597 0.10647
 C600 C 0.09193 0.65622 0.09535
 C601 C 0.07835 0.63285 0.08191
 N602 N 0.08500 0.60601 0.08921
 N603 N 0.07257 0.58432 0.07649
 C604 C 0.05308 0.58876 0.05605
 N605 N 0.04646 0.61567 0.04883
 N606 N 0.05888 0.63735 0.06155
 N607 N 0.28895 1.10817 0.85930
 C608 C 0.30004 1.11943 0.88303
 N609 N 0.28822 1.14295 0.89410
 N610 N 0.26596 1.15484 0.88182
 C611 C 0.25469 1.14366 0.85803
 N612 N 0.26670 1.12007 0.84703
 C613 C 0.32376 1.10639 0.89646
 C614 C 0.34358 1.09531 0.90783
 C615 C 0.36701 1.08191 0.92142
 N616 N 0.39373 1.08952 0.91500
 N617 N 0.41547 1.07689 0.92749
 C618 C 0.41121 1.05623 0.94680
 N619 N 0.38442 1.04869 0.95320
 N620 N 0.36269 1.06133 0.94072
 N621 N 0.28840 0.85276 1.10823
 C622 C 0.30035 0.87603 1.11959
 N623 N 0.28906 0.88735 1.14322
 N624 N 0.26650 0.87576 1.15510
 C625 C 0.25435 0.85245 1.14380
 N626 N 0.26583 0.84118 1.12013
 C627 C 0.32428 0.88888 1.10646
 C628 C 0.34418 0.89996 1.09533
 C629 C 0.36761 0.91349 1.08197
 N630 N 0.39436 0.90602 1.08857
 N631 N 0.41606 0.91884 1.07631
 C632 C 0.41172 0.93956 1.05705
 N633 N 0.38489 0.94695 1.05048
 N634 N 0.36321 0.93414 1.06273
 N635 N 0.71142 1.10636 1.14674
 C636 C 0.69936 1.11717 1.12325
 N637 N 0.71030 1.14078 1.11156
 N638 N 0.73264 1.15320 1.12301
 C639 C 0.74489 1.14247 1.14655
 N640 N 0.73377 1.11880 1.15818
 C641 C 0.67561 1.10353 1.11062
 C642 C 0.65581 1.09204 1.09975
 C643 C 0.63245 1.07835 1.08646
 N644 N 0.60569 1.08495 1.09385
 N645 N 0.58402 1.07250 1.08116
 C646 C 0.58842 1.05305 1.06065
 N647 N 0.61525 1.04646 1.05335
 N648 N 0.63690 1.05890 1.06604
 N649 N 0.71179 0.85774 0.89012
 C650 C 0.70030 0.88151 0.87920
 N651 N 0.71183 0.89306 0.85582
 N652 N 0.73421 0.88120 0.84375
 C653 C 0.74589 0.85737 0.85461
 N654 N 0.73417 0.84589 0.87804
 C655 C 0.67648 0.89453 0.89247
 C656 C 0.65661 0.90555 0.90377
 C657 C 0.63313 0.91876 0.91746
 N658 N 0.63742 0.93790 0.93817
 N659 N 0.61566 0.95005 0.95105
 C660 C 0.58888 0.94347 0.94365
 N661 N 0.58466 0.92430 0.92286
 N662 N 0.60643 0.91215 0.90998
   
