data_POSCAR
  _audit_creation_date              2014-09-24
  _audit_creation_method            'ToBaCCo'
  _symmetry_space_group_name_H-M    'P1'
  _symmetry_Int_Tables_number       1
  _symmetry_cell_setting            triclinic
  loop_
  _symmetry_equiv_pos_as_xyz
 x,y,z
_cell_length_a 44.8530
_cell_length_b 47.0682
_cell_length_c 42.0991
_cell_angle_alpha 92.653700
_cell_angle_beta 90.208100
_cell_angle_gamma 93.742100
loop_
  _atom_site_label
  _atom_site_type_symbol
  _atom_site_fract_x
  _atom_site_fract_y
  _atom_site_fract_z
C1 C 0.27578 0.45329 0.98799
 C2 C 0.25244 0.45095 1.01450
 C3 C 0.23653 0.47459 1.01880
 C4 C 0.24521 0.49830 0.99584
 C5 C 0.25806 0.46009 0.95857
 C6 C 0.24179 0.48342 0.96250
 C7 C 0.29479 0.48058 0.99688
 C8 C 0.27906 0.50414 1.00101
 H9 H 0.24930 0.43259 1.02899
 H10 H 0.23233 0.51757 0.99916
 H11 H 0.25709 0.44638 0.93715
 H12 H 0.31880 0.48101 1.00015
 C13 C 0.72933 0.55090 0.00403
 C14 C 0.75253 0.55043 0.03084
 C15 C 0.76810 0.52641 0.02990
 C16 C 0.75920 0.50518 0.00195
 C17 C 0.74714 0.54678 -0.02656
 C18 C 0.76300 0.52303 -0.02774
 C19 C 0.70997 0.52328 0.00666
 C20 C 0.72531 0.49937 0.00550
 H21 H 0.75614 0.56740 0.04896
 H22 H 0.77176 0.48559 0.00108
 H23 H 0.74830 0.56229 -0.04481
 H24 H 0.68590 0.52280 0.00921
 C25 C 0.04650 0.22354 0.49050
 C26 C 0.04511 0.24275 0.46466
 C27 C 0.01901 0.25884 0.46502
 C28 C -0.00122 0.25226 0.49131
 C29 C 0.04344 0.24247 0.52091
 C30 C 0.01855 0.25773 0.52134
 C31 C 0.01734 0.20493 0.48819
 C32 C -0.00766 0.21967 0.48855
 H33 H 0.06298 0.24567 0.44763
 H34 H -0.02181 0.26416 0.49178
 H35 H 0.06047 0.24513 0.53929
 H36 H 0.01662 0.18184 0.48625
 C37 C 0.94967 0.77350 0.50297
 C38 C 0.95533 0.75593 0.47220
 C39 C 0.98058 0.74123 0.47308
 C40 C 0.99830 0.74611 0.50453
 C41 C 0.94988 0.75197 0.52914
 C42 C 0.97531 0.73760 0.53011
 C43 C 0.97811 0.79264 0.50854
 C44 C 1.00353 0.77862 0.50930
 H45 H 0.93943 0.75338 0.45270
 H46 H 1.01914 0.73466 0.50533
 H47 H 0.93120 0.74804 0.54492
 H48 H 0.97808 0.81567 0.51110
 C49 C 0.49646 0.05194 0.22000
 C50 C 0.46817 0.04759 0.23991
 C51 C 0.46765 0.02411 0.25775
 C52 C 0.49569 0.00703 0.25381
 C53 C 0.52220 0.05265 0.24420
 C54 C 0.52197 0.02906 0.26191
 C55 C 0.49864 0.02555 0.20139
 C56 C 0.49806 0.00075 0.21969
 H57 H 0.45054 0.06227 0.24032
 H58 H 0.49536 -0.01205 0.26840
 H59 H 0.53929 0.06996 0.24668
 H60 H 0.50057 0.02476 0.17570
 C61 C 0.49730 -0.05008 0.78464
 C62 C 0.46923 -0.04735 0.76460
 C63 C 0.47067 -0.02450 0.74588
 C64 C 0.50031 -0.00618 0.74904
 C65 C 0.52290 -0.05025 0.76059
 C66 C 0.52464 -0.02721 0.74202
 C67 C 0.50227 -0.02150 0.80325
 C68 C 0.50379 0.00150 0.78479
 H69 H 0.45020 -0.06275 0.76473
 H70 H 0.50161 0.01263 0.73401
 H71 H 0.53866 -0.06671 0.75897
 H72 H 0.50462 -0.01975 0.82890
 C73 C 0.26816 0.01218 0.44387
 H74 H 0.25259 0.02862 0.44667
 C75 C 0.28763 0.01257 0.41818
 H76 H 0.28635 0.02921 0.40141
 C77 C 0.28972 -0.02834 0.46317
 H78 H 0.29069 -0.04388 0.48124
 C79 C 0.30985 -0.02862 0.43788
 H80 H 0.32613 -0.04463 0.43653
 N81 N 0.26950 -0.00805 0.46577
 C82 C 0.22685 0.04853 0.52382
 H83 H 0.24340 0.04780 0.54242
 C84 C 0.20997 0.07240 0.52226
 H85 H 0.21386 0.08990 0.53970
 C86 C 0.20139 0.02654 0.47882
 H87 H 0.19815 0.00847 0.46205
 C88 C 0.18424 0.05001 0.47621
 H89 H 0.16773 0.04970 0.45735
 Zn90 Zn 0.24541 -0.00609 0.50253
 N91 N 0.22257 0.02640 0.50198
 C92 C 0.29428 0.01656 0.53968
 N93 N 0.27143 -0.00394 0.53816
 C94 C 0.26839 -0.02390 0.56046
 C95 C 0.28876 -0.02371 0.58555
 C96 C 0.31532 0.01746 0.56437
 C97 C 0.21891 -0.06142 0.48348
 C98 C 0.19827 -0.08482 0.48609
 C99 C 0.17672 -0.06042 0.53134
 C100 C 0.19768 -0.03762 0.52787
 N101 N 0.21834 -0.03855 0.50441
 H102 H 0.29646 0.03190 0.52134
 H103 H 0.25057 -0.04044 0.55852
 H104 H 0.28601 -0.04007 0.60276
 H105 H 0.33355 0.03373 0.56493
 H106 H 0.23527 -0.06157 0.46471
 H107 H 0.19898 -0.10281 0.46918
 H108 H 0.16054 -0.05906 0.55028
 H109 H 0.19759 -0.01906 0.54401
 C110 C 0.18851 0.07346 0.49800
 C111 C 0.30914 -0.00775 0.41512
 C112 C 0.17677 -0.08449 0.51030
 C113 C 0.31282 -0.00303 0.58761
 C114 C 0.70790 0.02522 0.54115
 H115 H 0.70811 0.04216 0.52462
 C116 C 0.68702 0.02436 0.56573
 H117 H 0.67146 0.04096 0.56812
 C118 C 0.72692 -0.01778 0.55691
 H119 H 0.74170 -0.03475 0.55284
 C120 C 0.70655 -0.01944 0.58179
 H121 H 0.70644 -0.03751 0.59680
 N122 N 0.72718 0.00423 0.53709
 C123 C 0.79836 0.03602 0.47522
 H124 H 0.79769 0.01811 0.45812
 C125 C 0.81917 0.05896 0.47189
 H126 H 0.83451 0.05831 0.45211
 C127 C 0.77899 0.05814 0.52172
 H128 H 0.76336 0.05760 0.54118
 C129 C 0.79957 0.08165 0.51931
 H130 H 0.79956 0.09904 0.53707
 Zn131 Zn 0.75125 0.00371 0.50026
 N132 N 0.77862 0.03609 0.49960
 C133 C 0.72677 0.02515 0.44492
 N134 N 0.72484 0.00340 0.46512
 C135 C 0.70244 -0.01749 0.46236
 C136 C 0.68069 -0.01694 0.43857
 C137 C 0.70557 0.02652 0.42084
 C138 C 0.79411 -0.03099 0.52233
 C139 C 0.81099 -0.05478 0.52347
 C140 C 0.78677 -0.07377 0.47498
 C141 C 0.77004 -0.04969 0.47497
 N142 N 0.77371 -0.02910 0.49870
 H143 H 0.74421 0.04197 0.44794
 H144 H 0.70111 -0.03425 0.47914
 H145 H 0.66280 -0.03355 0.43708
 H146 H 0.70738 0.04429 0.40537
 H147 H 0.79690 -0.01409 0.54062
 H148 H 0.82686 -0.05589 0.54274
 H149 H 0.78340 -0.09004 0.45604
 H150 H 0.75416 -0.04751 0.45602
 C151 C 0.81999 0.08228 0.49404
 C152 C 0.68588 0.00154 0.58616
 C153 C 0.80736 -0.07667 0.49967
 C154 C 0.68191 0.00550 0.41764
 C155 C 0.48720 0.21428 1.01048
 H156 H 0.47250 0.21124 0.99000
 C157 C 0.48403 0.19593 1.03545
 H158 H 0.46674 0.17875 1.03393
 C159 C 0.52799 0.24016 1.03669
 H160 H 0.54540 0.25713 1.03683
 C161 C 0.52574 0.22216 1.06215
 H162 H 0.54135 0.22571 1.08183
 N163 N 0.50867 0.23606 1.01167
 C164 C 0.47357 0.29648 0.94813
 H165 H 0.49128 0.29863 0.93085
 C166 C 0.44872 0.31278 0.94615
 H167 H 0.44746 0.32735 0.92711
 C168 C 0.45441 0.27567 0.99463
 H169 H 0.45701 0.26188 1.01408
 C170 C 0.42921 0.29146 0.99353
 H171 H 0.41263 0.28920 1.01202
 Zn172 Zn 0.51140 0.25898 0.97602
 N173 N 0.47597 0.27840 0.97214
 C174 C 0.49740 0.23036 0.91588
 N175 N 0.51707 0.23391 0.94065
 C176 C 0.54011 0.21681 0.94329
 C177 C 0.54351 0.19439 0.92112
 C178 C 0.50006 0.20816 0.89298
 C179 C 0.54142 0.30645 1.00532
 C180 C 0.56427 0.32754 1.01116
 C181 C 0.59158 0.30753 0.96705
 C182 C 0.56809 0.28675 0.96203
 N183 N 0.54378 0.28649 0.98128
 H184 H 0.47887 0.24383 0.91462
 H185 H 0.55510 0.21986 0.96352
 H186 H 0.56149 0.18050 0.92437
 H187 H 0.48354 0.20491 0.87412
 H188 H 0.52170 0.30585 1.02005
 H189 H 0.56180 0.34317 1.03050
 H190 H 0.61071 0.30748 0.95145
 H191 H 0.56929 0.27096 0.94270
 C192 C 0.42624 0.31058 0.96928
 C193 C 0.50349 0.19971 1.06174
 C194 C 0.58982 0.32831 0.99191
 C195 C 0.52287 0.18935 0.89602
 C196 C 0.46626 0.78278 -0.00963
 H197 H 0.45079 0.78437 0.00993
 C198 C 0.46474 0.80092 -0.03477
 H199 H 0.44779 0.81629 -0.03440
 C200 C 0.50792 0.76153 -0.03287
 H201 H 0.52525 0.74676 -0.03164
 C202 C 0.50725 0.77932 -0.05847
 H203 H 0.52393 0.77765 -0.07687
 N204 N 0.48759 0.76357 -0.00911
 C205 C 0.45443 0.70023 0.05679
 H206 H 0.47286 0.70100 0.07353
 C207 C 0.43062 0.67982 0.05930
 H208 H 0.43087 0.66503 0.07822
 C209 C 0.43259 0.71777 0.01089
 H210 H 0.43383 0.73196 -0.00854
 C211 C 0.40822 0.69790 0.01268
 H212 H 0.39093 0.69723 -0.00540
 Zn213 Zn 0.49010 0.74259 0.02797
 N214 N 0.45517 0.71843 0.03264
 C215 C 0.47668 0.77129 0.08742
 N216 N 0.49527 0.76990 0.06200
 C217 C 0.51766 0.79021 0.05789
 C218 C 0.52155 0.81361 0.07922
 C219 C 0.47995 0.79438 0.10964
 C220 C 0.52330 0.69902 0.00198
 C221 C 0.54766 0.68221 -0.00168
 C222 C 0.57098 0.70750 0.04413
 C223 C 0.54623 0.72397 0.04676
 N224 N 0.52326 0.71977 0.02552
 H225 H 0.45874 0.75509 0.08991
 H226 H 0.53190 0.78864 0.03728
 H227 H 0.53907 0.82990 0.07492
 H228 H 0.46443 0.79578 0.12920
 H229 H 0.50452 0.69587 -0.01429
 H230 H 0.54734 0.66604 -0.02084
 H231 H 0.58915 0.71137 0.06110
 H232 H 0.54549 0.74014 0.06575
 C233 C 0.40733 0.67818 0.03673
 C234 C 0.48564 0.79957 -0.05947
 C235 C 0.57205 0.68648 0.01945
 C236 C 0.50219 0.81624 0.10514
 C237 C 1.04019 0.47076 0.21071
 H238 H 1.02294 0.45368 0.21195
 C239 C 1.06309 0.46857 0.18866
 H240 H 1.06331 0.44962 0.17309
 C241 C 1.06005 0.51650 0.22907
 H242 H 1.05841 0.53531 0.24452
 C243 C 1.08316 0.51543 0.20681
 H244 H 1.09947 0.53334 0.20564
 N245 N 1.03925 0.49423 0.23065
 C246 C 0.98032 0.45649 0.30233
 H247 H 0.96169 0.46997 0.30219
 C248 C 0.97973 0.43325 0.32203
 H249 H 0.96044 0.42895 0.33687
 C250 C 1.02832 0.44613 0.28366
 H251 H 1.04765 0.45156 0.26943
 C252 C 1.02862 0.42275 0.30279
 H253 H 1.04812 0.41034 0.30248
 Zn254 Zn 1.00546 0.49447 0.25753
 N255 N 1.00427 0.46229 0.28339
 C256 C 0.95012 0.47257 0.22697
 N257 N 0.97235 0.49370 0.22939
 C258 C 0.97288 0.51620 0.21026
 C259 C 0.94980 0.51894 0.18869
 C260 C 0.92672 0.47419 0.20507
 C261 C 1.02931 0.53543 0.30441
 C262 C 1.02934 0.56012 0.32437
 C263 C 0.98087 0.56898 0.30328
 C264 C 0.98167 0.54417 0.28402
 N265 N 1.00583 0.52815 0.28444
 H266 H 0.95052 0.45451 0.24188
 H267 H 0.99115 0.53237 0.21226
 H268 H 0.95054 0.53732 0.17409
 H269 H 0.90897 0.45744 0.20351
 H270 H 1.04804 0.52209 0.30477
 H271 H 1.04827 0.56565 0.33998
 H272 H 0.96132 0.58126 0.30235
 H273 H 0.96266 0.53761 0.26904
 C274 C 1.00413 0.41596 0.32236
 C275 C 1.08488 0.49113 0.18634
 C276 C 1.00491 0.57736 0.32380
 C277 C 0.92624 0.49788 0.18597
 C278 C -0.03848 0.48131 0.78735
 H279 H -0.02286 0.46473 0.78714
 C280 C -0.06219 0.48077 0.80886
 H281 H -0.06473 0.46357 0.82504
 C282 C -0.05358 0.52422 0.76696
 H283 H -0.04978 0.54158 0.75130
 C284 C -0.07762 0.52444 0.78788
 H285 H -0.09217 0.54189 0.78758
 N286 N -0.03473 0.50273 0.76682
 C287 C 0.02078 0.46797 0.69142
 H288 H 0.03861 0.48461 0.69164
 C289 C 0.02216 0.44402 0.67086
 H290 H 0.04119 0.44236 0.65528
 C291 C -0.02571 0.45014 0.71148
 H292 H -0.04438 0.45272 0.72726
 C293 C -0.02558 0.42606 0.69067
 H294 H -0.04404 0.41005 0.69089
 Zn295 Zn -0.00116 0.50328 0.73950
 N296 N -0.00246 0.47025 0.71182
 C297 C 0.05244 0.48358 0.76384
 N298 N 0.03356 0.50505 0.76573
 C299 C 0.03809 0.52716 0.78757
 C300 C 0.06257 0.52836 0.80844
 C301 C 0.07729 0.48410 0.78389
 C302 C -0.02507 0.53587 0.69356
 C303 C -0.02720 0.55846 0.67357
 C304 C 0.02100 0.57799 0.69286
 C305 C 0.02194 0.55522 0.71303
 N306 N -0.00111 0.53494 0.71326
 H307 H 0.04805 0.46563 0.74724
 H308 H 0.02245 0.54372 0.78900
 H309 H 0.06572 0.54605 0.82576
 H310 H 0.09182 0.46662 0.78198
 H311 H -0.04278 0.51914 0.69375
 H312 H -0.04670 0.55893 0.65840
 H313 H 0.03939 0.59409 0.69309
 H314 H 0.04112 0.55372 0.72832
 C315 C -0.00114 0.42262 0.67044
 C316 C -0.08216 0.50258 0.80931
 C317 C -0.00402 0.57995 0.67309
 C318 C 0.08258 0.50660 0.80671
 C319 C 0.11526 0.16656 0.48997
 N320 N 0.09760 0.16844 0.46401
 N321 N 0.07690 0.18745 0.46374
 C322 C 0.07304 0.20539 0.48941
 N323 N 0.09113 0.20385 0.51517
 N324 N 0.11189 0.18484 0.51542
 C325 C 0.13580 0.14355 0.49135
 N326 N 0.15340 0.14115 0.51727
 N327 N 0.17047 0.11913 0.51925
 C328 C 0.17042 0.09855 0.49549
 N329 N 0.15294 0.10115 0.46951
 N330 N 0.13597 0.12319 0.46747
 C331 C 0.66942 0.61614 0.00700
 N332 N 0.67059 0.59779 -0.01869
 N333 N 0.69057 0.57811 -0.02005
 C334 C 0.71028 0.57605 0.00415
 N335 N 0.70945 0.59472 0.02969
 N336 N 0.68942 0.61447 0.03105
 C337 C 0.64531 0.63574 0.00958
 N338 N 0.64306 0.65372 0.03548
 N339 N 0.61998 0.67009 0.03849
 C340 C 0.59819 0.66896 0.01583
 N341 N 0.60067 0.65108 -0.01014
 N342 N 0.62374 0.63479 -0.01319
 C343 C 0.88014 -0.17050 0.50302
 N344 N 0.88617 -0.18616 0.47616
 N345 N 0.90713 -0.20502 0.47629
 C346 C 0.92269 -0.20901 0.50332
 N347 N 0.91617 -0.19370 0.53024
 N348 N 0.89531 -0.17487 0.53011
 C349 C 0.85960 -0.14743 0.50244
 N350 N 0.85740 -0.12941 0.52831
 N351 N 0.84057 -0.10719 0.52744
 C352 C 0.82520 -0.10205 0.50068
 N353 N 0.82713 -0.12030 0.47488
 N354 N 0.84411 -0.14250 0.47569
 C355 C 0.33349 0.38663 0.97458
 N356 N 0.33381 0.40830 0.95443
 N357 N 0.31489 0.42880 0.95832
 C358 C 0.29486 0.42841 0.98243
 N359 N 0.29429 0.40651 1.00239
 N360 N 0.31327 0.38600 0.99853
 C361 C 0.35610 0.36547 0.97176
 N362 N 0.35758 0.34510 0.99336
 N363 N 0.37947 0.32727 0.99211
 C364 C 0.40076 0.32912 0.96925
 N365 N 0.39898 0.34932 0.94742
 N366 N 0.37711 0.36715 0.94867
 C367 C 0.91181 0.16996 0.48436
 N368 N 0.91474 0.19350 0.50442
 N369 N 0.93979 0.21054 0.50471
 C370 C 0.96273 0.20446 0.48507
 N371 N 0.95946 0.18125 0.46476
 N372 N 0.93446 0.16446 0.46426
 C373 C 0.88611 0.14900 0.48578
 N374 N 0.88402 0.12648 0.46443
 N375 N 0.86270 0.10573 0.46686
 C376 C 0.84260 0.10645 0.49085
 N377 N 0.84444 0.12922 0.51209
 N378 N 0.86583 0.15010 0.50964
 C379 C 0.32508 0.58208 0.02617
 N380 N 0.29925 0.58145 0.00904
 N381 N 0.28382 0.55675 0.00185
 C382 C 0.29394 0.53186 0.01119
 N383 N 0.31952 0.53264 0.02861
 N384 N 0.33471 0.55724 0.03606
 C385 C 0.34404 0.60847 0.03166
 N386 N 0.36808 0.60878 0.05136
 N387 N 0.38750 0.63139 0.05387
 C388 C 0.38381 0.65456 0.03659
 N389 N 0.35943 0.65443 0.01725
 N390 N 0.33987 0.63184 0.01486
 C391 C 0.08359 -0.17106 0.51751
 N392 N 0.08224 -0.19565 0.49910
 N393 N 0.05721 -0.21269 0.49758
 C394 C 0.03268 -0.20556 0.51422
 N395 N 0.03433 -0.18127 0.53295
 N396 N 0.05931 -0.16446 0.53470
 C397 C 0.10953 -0.15033 0.51714
 N398 N 0.11018 -0.12681 0.53704
 N399 N 0.13188 -0.10633 0.53519
 C400 C 0.15379 -0.10836 0.51322
 N401 N 0.15336 -0.13212 0.49347
 N402 N 0.13162 -0.15272 0.49537
 C403 C 0.67592 0.42119 1.00771
 N404 N 0.66759 0.44433 1.02497
 N405 N 0.68405 0.46883 1.02502
 C406 C 0.70967 0.47115 1.00806
 N407 N 0.71855 0.44783 0.99137
 N408 N 0.70186 0.42325 0.99107
 C409 C 0.65549 0.39554 1.00528
 N410 N 0.65939 0.37418 0.98319
 N411 N 0.63886 0.35246 0.97927
 C412 C 0.61369 0.35133 0.99725
 N413 N 0.61019 0.37253 1.01960
 N414 N 0.63059 0.39421 1.02347
 C415 C 0.49630 0.11999 1.15835
 N416 N 0.47365 0.09942 1.15775
 N417 N 0.47347 0.07843 1.17786
 C418 C 0.49594 0.07718 1.19935
 N419 N 0.51844 0.09798 1.20020
 N420 N 0.51861 0.11902 1.18007
 C421 C 0.49741 0.14179 1.13455
 N422 N 0.52030 0.16210 1.13423
 N423 N 0.52203 0.18081 1.11139
 C424 C 0.50100 0.17984 1.08797
 N425 N 0.47800 0.15962 1.08856
 N426 N 0.47624 0.14097 1.11139
 C427 C -0.01423 0.67193 0.59234
 N428 N 0.00973 0.68366 0.57686
 N429 N 0.00649 0.70463 0.55711
 C430 C -0.02077 0.71478 0.55235
 N431 N -0.04462 0.70311 0.56801
 N432 N -0.04144 0.68204 0.58751
 C433 C -0.01120 0.64828 0.61350
 N434 N -0.03590 0.63300 0.62322
 N435 N -0.03351 0.61133 0.64209
 C436 C -0.00633 0.60419 0.65224
 N437 N 0.01843 0.61964 0.64267
 N438 N 0.01605 0.64120 0.62353
 C439 C 0.48971 0.88213 -0.15319
 N440 N 0.46984 0.90268 -0.15223
 N441 N 0.47219 0.92380 -0.17220
 C442 C 0.49448 0.92521 -0.19391
 N443 N 0.51427 0.90453 -0.19501
 N444 N 0.51193 0.88338 -0.17499
 C445 C 0.48781 0.85972 -0.13007
 N446 N 0.50829 0.83974 -0.12986
 N447 N 0.50729 0.82030 -0.10780
 C448 C 0.48580 0.82009 -0.08511
 N449 N 0.46518 0.83997 -0.08561
 N450 N 0.46617 0.85939 -0.10765
 C451 C 1.00910 0.32299 0.40310
 N452 N 0.98821 0.31757 0.42570
 N453 N 0.99111 0.29658 0.44552
 C454 C 1.01501 0.28022 0.44353
 N455 N 1.03568 0.28561 0.42071
 N456 N 1.03280 0.30653 0.40094
 C457 C 1.00694 0.34671 0.38177
 N458 N 1.02886 0.35220 0.36038
 N459 N 1.02774 0.37402 0.34150
 C460 C 1.00465 0.39131 0.34315
 N461 N 0.98258 0.38571 0.36449
 N462 N 0.98371 0.36385 0.38347
 C463 C 0.50290 0.92113 0.17614
 N464 N 0.49732 0.92379 0.20781
 N465 N 0.49603 0.94956 0.22221
 C466 C 0.49987 0.97350 0.20536
 N467 N 0.50532 0.97059 0.17373
 N468 N 0.50697 0.94499 0.15947
 C469 C 0.50422 0.89325 0.15941
 N470 N 0.51703 0.89170 0.13034
 N471 N 0.51695 0.86703 0.11367
 C472 C 0.50382 0.84290 0.12523
 N473 N 0.49105 0.84436 0.15447
 N474 N 0.49137 0.86910 0.17136
 C475 C 0.00726 0.32482 0.58823
 N476 N -0.01594 0.31442 0.56934
 N477 N -0.01260 0.29272 0.54838
 C478 C 0.01394 0.28047 0.54582
 N479 N 0.03694 0.29070 0.56502
 N480 N 0.03371 0.31250 0.58571
 C481 C 0.00459 0.34979 0.61004
 N482 N 0.02958 0.36449 0.62171
 N483 N 0.02764 0.38759 0.64084
 C484 C 0.00061 0.39679 0.64934
 N485 N -0.02447 0.38193 0.63790
 N486 N -0.02252 0.35895 0.61843
 C487 C 0.51789 0.08409 0.82542
 N488 N 0.50446 0.07977 0.79646
 N489 N 0.50043 0.05352 0.78309
 C490 C 0.50932 0.03072 0.79843
 N491 N 0.52282 0.03516 0.82727
 N492 N 0.52713 0.06133 0.84044
 C493 C 0.52114 0.11246 0.84147
 N494 N 0.53860 0.11664 0.86784
 N495 N 0.53987 0.14145 0.88438
 C496 C 0.52359 0.16307 0.87539
 N497 N 0.50634 0.15899 0.84872
 N498 N 0.50522 0.13416 0.83199
 C499 C 0.99662 0.67560 0.40578
 N500 N 0.97391 0.69279 0.40162
 N501 N 0.96937 0.71416 0.42251
 C502 C 0.98737 0.71923 0.44843
 N503 N 1.01034 0.70224 0.45240
 N504 N 1.01491 0.68084 0.43146
 C505 C 1.00003 0.65086 0.38374
 N506 N 1.02231 0.63306 0.38757
 N507 N 1.02421 0.60991 0.36833
 C508 C 1.00383 0.60360 0.34463
 N509 N 0.98174 0.62159 0.34080
 N510 N 0.97987 0.64472 0.35992
 C511 C 1.17314 0.48263 0.09100
 N512 N 1.18294 0.45676 0.08222
 N513 N 1.20306 0.45422 0.05926
 C514 C 1.21396 0.47742 0.04396
 N515 N 1.20405 0.50329 0.05264
 N516 N 1.18406 0.50588 0.07580
 C517 C 1.15077 0.48513 0.11624
 N518 N 1.14405 0.51100 0.12887
 N519 N 1.12345 0.51299 0.15151
 C520 C 1.10869 0.48920 0.16221
 N521 N 1.11554 0.46338 0.14954
 N522 N 1.13625 0.46138 0.12713
 C523 C 0.59363 -0.01319 0.67665
 N524 N 0.59226 -0.03667 0.69423
 N525 N 0.57022 -0.04117 0.71483
 C526 C 0.54865 -0.02238 0.71865
 N527 N 0.55000 0.00112 0.70103
 N528 N 0.57206 0.00562 0.68036
 C529 C 0.61795 -0.00862 0.65383
 N530 N 0.61931 0.01426 0.63527
 N531 N 0.64113 0.01779 0.61410
 C532 C 0.66243 -0.00138 0.61073
 N533 N 0.66106 -0.02411 0.62953
 N534 N 0.63930 -0.02765 0.65065
 C535 C -0.17483 0.50901 0.90007
 N536 N -0.19399 0.53003 0.89834
 N537 N -0.21412 0.53398 0.92097
 C538 C -0.21596 0.51709 0.94625
 N539 N -0.19701 0.49581 0.94784
 N540 N -0.17680 0.49184 0.92515
 C541 C -0.15157 0.50612 0.87585
 N542 N -0.13147 0.48585 0.87733
 N543 N -0.10965 0.48440 0.85597
 C544 C -0.10704 0.50321 0.83241
 N545 N -0.12733 0.52330 0.83093
 N546 N -0.14913 0.52473 0.85219
 C547 C 0.39791 0.00510 0.32074
 N548 N 0.42234 -0.01052 0.31993
 N549 N 0.44442 -0.00479 0.29959
 C550 C 0.44287 0.01679 0.27943
 N551 N 0.41832 0.03220 0.28016
 N552 N 0.39629 0.02647 0.30040
 C553 C 0.37413 0.00018 0.34409
 N554 N 0.35055 0.01680 0.34487
 N555 N 0.32967 0.01379 0.36702
 C556 C 0.33147 -0.00598 0.38932
 N557 N 0.35494 -0.02288 0.38829
 N558 N 0.37590 -0.01985 0.36609
 C559 C 0.17828 0.50081 0.89397
 N560 N 0.17928 0.51539 0.92264
 N561 N 0.20000 0.51056 0.94425
 C562 C 0.22042 0.49098 0.93795
 N563 N 0.21957 0.47679 0.90912
 N564 N 0.19895 0.48160 0.88759
 C565 C 0.15430 0.50400 0.87074
 N566 N 0.15249 0.48690 0.84389
 N567 N 0.12998 0.48814 0.82344
 C568 C 0.10833 0.50658 0.82892
 N569 N 0.11033 0.52400 0.85565
 N570 N 0.13286 0.52269 0.87624
 C571 C 0.58975 0.01723 0.32776
 N572 N 0.59049 0.04087 0.31048
 N573 N 0.56883 0.04462 0.28973
 C574 C 0.54554 0.02489 0.28543
 N575 N 0.54476 0.00121 0.30274
 N576 N 0.56646 -0.00254 0.32358
 C577 C 0.61380 0.01352 0.35062
 N578 N 0.61310 -0.00935 0.36918
 N579 N 0.63487 -0.01213 0.39025
 C580 C 0.65817 0.00780 0.39349
 N581 N 0.65881 0.03053 0.37473
 N582 N 0.63709 0.03333 0.35373
 C583 C 0.83370 0.51259 0.09755
 N584 N 0.82423 0.53907 0.09397
 N585 N 0.80330 0.54339 0.07256
 C586 C 0.79121 0.52145 0.05364
 N587 N 0.80075 0.49495 0.05712
 N588 N 0.82155 0.49057 0.07876
 C589 C 0.85721 0.50832 0.12090
 N590 N 0.86331 0.48181 0.12945
 N591 N 0.88496 0.47834 0.15048
 C592 C 0.90146 0.50126 0.16347
 N593 N 0.89524 0.52769 0.15486
 N594 N 0.87348 0.53116 0.13412
 C595 C 0.40206 -0.01064 0.68178
 N596 N 0.42783 0.00625 0.68225
 N597 N 0.44957 0.00216 0.70293
 C598 C 0.44634 -0.01898 0.72379
 N599 N 0.42048 -0.03566 0.72338
 N600 N 0.39878 -0.03157 0.70280
 C601 C 0.37846 -0.00738 0.65823
 N602 N 0.35342 -0.02516 0.65779
 N603 N 0.33244 -0.02340 0.63568
 C604 C 0.33561 -0.00378 0.61308
 N605 N 0.36061 0.01423 0.61371
 N606 N 0.38166 0.01246 0.63586
   
