data_POSCAR
  _audit_creation_date              2014-09-24
  _audit_creation_method            'ToBaCCo'
  _symmetry_space_group_name_H-M    'P1'
  _symmetry_Int_Tables_number       1
  _symmetry_cell_setting            triclinic
  loop_
  _symmetry_equiv_pos_as_xyz
 x,y,z
_cell_length_a 46.3964
_cell_length_b 47.1779
_cell_length_c 46.9905
_cell_angle_alpha 90.388700
_cell_angle_beta 90.304200
_cell_angle_gamma 82.752400
loop_
  _atom_site_label
  _atom_site_type_symbol
  _atom_site_fract_x
  _atom_site_fract_y
  _atom_site_fract_z
C1 C 1.23325 0.23030 0.20950
 C2 C 1.24724 0.25183 0.19168
 C3 C 1.26285 0.26920 0.20710
 C4 C 1.26272 0.26359 0.23940
 C5 C 1.25857 0.21428 0.22634
 C6 C 1.27377 0.23158 0.24221
 C7 C 1.21515 0.24830 0.23178
 C8 C 1.23039 0.26578 0.24739
 H9 H 1.24590 0.25230 0.16866
 H10 H 1.27528 0.27766 0.25225
 H11 H 1.26314 0.19120 0.22691
 H12 H 1.19223 0.24707 0.23501
 C13 C 0.73016 -0.26695 0.19390
 C14 C 0.75159 -0.25095 0.17795
 C15 C 0.76883 -0.23681 0.19522
 C16 C 0.76307 -0.24031 0.22734
 C17 C 0.74890 -0.28658 0.21424
 C18 C 0.76608 -0.27290 0.23189
 C19 C 0.71340 -0.24430 0.21303
 C20 C 0.73038 -0.23050 0.23066
 H21 H 0.75228 -0.25018 0.15494
 H22 H 0.77705 -0.22894 0.24156
 H23 H 0.74787 -0.30938 0.21507
 H24 H 0.68991 -0.24023 0.21340
 C25 C 0.72915 0.23119 -0.30573
 C26 C 0.74983 0.24633 -0.32070
 C27 C 0.76669 0.26233 -0.30215
 C28 C 0.75982 0.25939 -0.27177
 C29 C 0.74648 0.21325 -0.28542
 C30 C 0.76345 0.22848 -0.26652
 C31 C 0.71189 0.25302 -0.28897
 C32 C 0.72844 0.26824 -0.26970
 H33 H 0.75137 0.24684 -0.34368
 H34 H 0.77293 0.27144 -0.25726
 H35 H 0.74654 0.19026 -0.28466
 H36 H 0.68835 0.25670 -0.29016
 C37 C 1.23476 -0.27166 -0.29142
 C38 C 1.25277 -0.25413 -0.30998
 C39 C 1.26851 -0.23649 -0.29511
 C40 C 1.26491 -0.23814 -0.26261
 C41 C 1.25659 -0.28745 -0.27060
 C42 C 1.27226 -0.27000 -0.25547
 C43 C 1.21627 -0.24974 -0.27289
 C44 C 1.23190 -0.23227 -0.25766
 H45 H 1.25284 -0.25557 -0.33300
 H46 H 1.27767 -0.22396 -0.25012
 H47 H 1.25823 -0.31020 -0.26673
 H48 H 1.19298 -0.24933 -0.27070
 C49 C 0.23380 0.22675 0.79086
 C50 C 0.25157 0.24303 0.80844
 C51 C 0.26814 0.26122 0.79288
 C52 C 0.26393 0.25961 0.76209
 C53 C 0.21517 0.24880 0.77261
 C54 C 0.23081 0.26598 0.75736
 C55 C 0.25486 0.21050 0.76953
 C56 C 0.27057 0.22765 0.75436
 H57 H 0.25223 0.24147 0.83145
 H58 H 0.27659 0.27348 0.74941
 H59 H 0.19181 0.24950 0.77061
 H60 H 0.25609 0.18774 0.76556
 C61 C 0.72647 0.73248 0.80687
 C62 C 0.74726 0.74755 0.82224
 C63 C 0.76414 0.76349 0.80403
 C64 C 0.75717 0.76058 0.77355
 C65 C 0.70924 0.75436 0.79029
 C66 C 0.72579 0.76955 0.77139
 C67 C 0.74371 0.71451 0.78645
 C68 C 0.76070 0.72968 0.76791
 H69 H 0.74889 0.74801 0.84524
 H70 H 0.77027 0.77259 0.75930
 H71 H 0.68571 0.75817 0.79139
 H72 H 0.74377 0.69152 0.78543
 C73 C 0.72643 0.23103 0.30497
 C74 C 0.74753 0.24745 0.32133
 C75 C 0.76445 0.26190 0.30441
 C76 C 0.75870 0.25833 0.27221
 C77 C 0.70923 0.25342 0.28602
 C78 C 0.72588 0.26759 0.26875
 C79 C 0.74545 0.21170 0.28452
 C80 C 0.76231 0.22573 0.26725
 H81 H 0.74831 0.24815 0.34436
 H82 H 0.77241 0.26998 0.25828
 H83 H 0.68572 0.25718 0.28564
 H84 H 0.74493 0.18882 0.28345
 C85 C 0.22855 0.72618 0.29115
 C86 C 0.24680 0.74389 0.30972
 C87 C 0.26291 0.76089 0.29486
 C88 C 0.25937 0.75852 0.26234
 C89 C 0.21042 0.74788 0.27218
 C90 C 0.22639 0.76474 0.25696
 C91 C 0.25028 0.70963 0.27073
 C92 C 0.26630 0.72644 0.25557
 H93 H 0.24684 0.74294 0.33275
 H94 H 0.27240 0.77221 0.24987
 H95 H 0.18709 0.74865 0.26984
 H96 H 0.25174 0.68677 0.26727
 N97 N 1.02457 0.03383 0.04894
 N98 N 1.04432 0.03948 0.06781
 N99 N 0.96079 0.05279 0.03019
 N100 N 0.94053 0.07361 0.03796
 N101 N 0.96407 0.03271 0.04965
 N102 N 0.94592 0.03923 0.07089
 N103 N 1.02104 0.05375 0.02941
 N104 N 1.03817 0.07352 0.03446
 C105 C 1.05272 0.06421 0.05831
 C106 C 0.93110 0.06453 0.06311
 N107 N 0.96266 0.03300 -0.05153
 N108 N 0.94448 0.04010 -0.07274
 N109 N 1.02024 0.05380 -0.03172
 N110 N 1.03765 0.07328 -0.03647
 N111 N 1.02317 0.03397 -0.05161
 N112 N 1.04277 0.03940 -0.07043
 N113 N 0.96000 0.05300 -0.03172
 N114 N 0.94018 0.07429 -0.03923
 Mn115 Mn 0.99041 0.05353 -0.00096
 C116 C 0.93029 0.06563 -0.06457
 C117 C 1.05169 0.06389 -0.06054
 N118 N 0.97311 -0.02906 0.04935
 N119 N 0.95521 -0.03567 0.06937
 N120 N 1.03586 -0.04782 0.02880
 N121 N 1.05711 -0.06817 0.03508
 N122 N 1.03359 -0.02780 0.04851
 N123 N 1.05343 -0.03389 0.06856
 N124 N 0.97545 -0.04852 0.02910
 N125 N 0.95917 -0.06876 0.03467
 Mn126 Mn 0.99884 0.00244 0.04936
 C127 C 0.94645 -0.06034 0.05967
 C128 C 1.06819 -0.05893 0.05965
 N129 N 1.03220 -0.02762 -0.05214
 N130 N 1.05220 -0.03313 -0.07199
 N131 N 0.97459 -0.04845 -0.03222
 N132 N 0.95815 -0.06867 -0.03780
 N133 N 0.97170 -0.02893 -0.05219
 N134 N 0.95329 -0.03555 -0.07205
 N135 N 1.03503 -0.04762 -0.03265
 N136 N 1.05687 -0.06737 -0.03885
 Mn137 Mn 0.99742 0.00261 -0.05212
 Mn138 Mn 1.00524 -0.04830 -0.00176
 Cl139 Cl 0.99788 0.00257 -0.00137
 C140 C 1.06762 -0.05781 -0.06319
 C141 C 0.94479 -0.06025 -0.06253
 N142 N 1.03270 0.45203 0.53443
 N143 N 1.05439 0.43213 0.54064
 N144 N 0.96968 0.47108 0.55420
 N145 N 0.95170 0.46458 0.57422
 N146 N 0.97225 0.45139 0.53415
 N147 N 0.95600 0.43116 0.53984
 N148 N 1.03019 0.47221 0.55397
 N149 N 1.05028 0.46666 0.57390
 C150 C 1.06541 0.44177 0.56505
 C151 C 0.94309 0.43977 0.56471
 N152 N 0.95787 0.55279 0.53386
 N153 N 0.93811 0.57415 0.54143
 N154 N 1.02129 0.53383 0.55351
 N155 N 1.04133 0.53930 0.57213
 N156 N 1.01812 0.55344 0.53366
 N157 N 1.03580 0.57279 0.53819
 N158 N 0.96076 0.53301 0.55365
 N159 N 0.94279 0.54033 0.57489
 Mn160 Mn 0.99547 0.50255 0.55409
 C161 C 0.92849 0.56577 0.56677
 C162 C 1.05024 0.56359 0.56211
 N163 N 0.97234 0.45069 0.47283
 N164 N 0.95589 0.43049 0.46724
 N165 N 1.03035 0.47102 0.45332
 N166 N 1.05016 0.46481 0.43339
 N167 N 1.03278 0.45121 0.47301
 N168 N 1.05412 0.43089 0.46683
 N169 N 0.96984 0.46997 0.45263
 N170 N 0.95165 0.46326 0.43264
 Mn171 Mn 1.00252 0.45114 0.50361
 C172 C 0.94291 0.43875 0.44229
 C173 C 1.06505 0.43992 0.44233
 N174 N 1.01819 0.55278 0.47257
 N175 N 1.03523 0.57250 0.46744
 N176 N 0.96094 0.53171 0.45239
 N177 N 0.94293 0.53832 0.43095
 N178 N 0.95792 0.55199 0.47190
 N179 N 0.93800 0.57302 0.46394
 N180 N 1.02143 0.53265 0.45300
 N181 N 1.04086 0.53812 0.43401
 Mn182 Mn 0.98791 0.55294 0.50300
 Mn183 Mn 0.99565 0.50134 0.45260
 Cl184 Cl 0.99528 0.50199 0.50333
 C185 C 1.04940 0.56294 0.44349
 C186 C 0.92845 0.56386 0.43864
 N187 N 0.55184 0.01442 0.52905
 N188 N 0.57139 0.03223 0.53205
 N189 N 0.52821 -0.03964 0.55141
 N190 N 0.53493 -0.05579 0.57391
 N191 N 0.54861 -0.04442 0.53201
 N192 N 0.56972 -0.06375 0.54099
 N193 N 0.53155 0.01932 0.54843
 N194 N 0.53680 0.04055 0.56534
 C195 C 0.56168 0.04839 0.55471
 C196 C 0.56057 -0.07106 0.56687
 N197 N 0.44571 -0.02605 0.52983
 N198 N 0.42531 -0.04238 0.53526
 N199 N 0.46908 0.03060 0.54729
 N200 N 0.46415 0.05156 0.56607
 N201 N 0.44890 0.03297 0.52743
 N202 N 0.42957 0.05547 0.53233
 N203 N 0.46550 -0.02838 0.55007
 N204 N 0.45904 -0.04624 0.56987
 Mn205 Mn 0.49855 -0.00451 0.54957
 C206 C 0.43404 -0.05493 0.56021
 C207 C 0.43965 0.06707 0.55625
 N208 N 0.54939 -0.04760 0.47038
 N209 N 0.57076 -0.06756 0.46321
 N210 N 0.53282 0.01435 0.44833
 N211 N 0.53843 0.03420 0.43017
 N212 N 0.55271 0.01111 0.46839
 N213 N 0.57242 0.02845 0.46450
 N214 N 0.52935 -0.04474 0.45033
 N215 N 0.53650 -0.06287 0.42931
 Mn216 Mn 0.55080 -0.01676 0.49997
 C217 C 0.56203 -0.07731 0.43787
 C218 C 0.56323 0.04271 0.44067
 N219 N 0.44979 0.03012 0.46598
 N220 N 0.43133 0.05274 0.45902
 N221 N 0.46677 -0.03346 0.44896
 N222 N 0.46023 -0.05240 0.42993
 N223 N 0.44641 -0.02908 0.46838
 N224 N 0.42554 -0.04505 0.46317
 N225 N 0.47041 0.02538 0.44687
 N226 N 0.46655 0.04446 0.42641
 Mn227 Mn 0.44738 0.00202 0.49791
 Mn228 Mn 0.49984 -0.00963 0.44839
 Cl229 Cl 0.49910 -0.00735 0.49897
 C230 C 0.44234 0.06157 0.43440
 C231 C 0.43461 -0.05964 0.43926
 N232 N 0.55132 0.51501 0.02957
 N233 N 0.57107 0.53241 0.03339
 N234 N 0.52882 0.45989 0.04970
 N235 N 0.53565 0.44256 0.07125
 N236 N 0.54899 0.45608 0.02998
 N237 N 0.57014 0.43624 0.03788
 N238 N 0.53111 0.51921 0.04910
 N239 N 0.53659 0.53975 0.06687
 C240 C 0.56158 0.54774 0.05659
 C241 C 0.56115 0.42762 0.06337
 N242 N 0.44627 0.47235 0.02938
 N243 N 0.42548 0.45660 0.03513
 N244 N 0.46843 0.52916 0.04887
 N245 N 0.46329 0.54950 0.06831
 N246 N 0.44799 0.53167 0.02928
 N247 N 0.42831 0.55367 0.03495
 N248 N 0.46615 0.46985 0.04954
 N249 N 0.45936 0.45234 0.06956
 Mn250 Mn 0.49863 0.49457 0.04958
 C251 C 0.43410 0.44402 0.06009
 C252 C 0.43837 0.56479 0.05912
 N253 N 0.54928 0.45577 -0.03183
 N254 N 0.57083 0.43636 -0.03980
 N255 N 0.53133 0.51849 -0.05096
 N256 N 0.53637 0.53919 -0.06835
 N257 N 0.55138 0.51487 -0.03106
 N258 N 0.57048 0.53304 -0.03415
 N259 N 0.52912 0.45920 -0.05173
 N260 N 0.53636 0.44198 -0.07348
 Mn261 Mn 0.55041 0.48526 -0.00083
 C262 C 0.56212 0.42753 -0.06552
 C263 C 0.56084 0.54804 -0.05744
 N264 N 0.44824 0.53126 -0.03199
 N265 N 0.42927 0.55392 -0.03718
 N266 N 0.46646 0.46918 -0.05212
 N267 N 0.46035 0.45063 -0.07173
 N268 N 0.44653 0.47188 -0.03220
 N269 N 0.42639 0.45514 -0.03765
 N270 N 0.46872 0.52846 -0.05135
 N271 N 0.46431 0.54921 -0.07019
 Mn272 Mn 0.44697 0.50175 -0.00140
 Mn273 Mn 0.49889 0.49386 -0.05182
 Cl274 Cl 0.49870 0.49372 -0.00111
 C275 C 0.43977 0.56504 -0.06088
 C276 C 0.43545 0.44189 -0.06225
 C277 C 1.18215 0.17874 0.16203
 N278 N 1.17890 0.20753 0.15863
 N279 N 1.19517 0.22370 0.17354
 C280 C 1.21550 0.21168 0.19222
 N281 N 1.21872 0.18287 0.19558
 N282 N 1.20233 0.16671 0.18080
 C283 C 1.16384 0.16102 0.14593
 N284 N 1.16397 0.13293 0.15215
 N285 N 1.14693 0.11702 0.13785
 C286 C 1.12929 0.12859 0.11668
 N287 N 1.12928 0.15663 0.11037
 N288 N 1.14618 0.17257 0.12478
 C289 C 1.11009 0.11133 0.10113
 N290 N 1.09496 0.12222 0.07805
 N291 N 1.07700 0.10696 0.06424
 C292 C 1.07339 0.08032 0.07307
 N293 N 1.08855 0.06936 0.09612
 N294 N 1.10666 0.08457 0.10986
 C295 C 1.18320 0.67664 0.66206
 N296 N 1.18207 0.70494 0.65642
 N297 N 1.19850 0.72115 0.67105
 C298 C 1.21682 0.70964 0.69174
 N299 N 1.21795 0.68130 0.69730
 N300 N 1.20143 0.66511 0.68277
 C301 C 1.16462 0.65895 0.64637
 N302 N 1.16302 0.63156 0.65425
 N303 N 1.14560 0.61574 0.64038
 C304 C 1.12928 0.62673 0.61805
 N305 N 1.13103 0.65406 0.61009
 N306 N 1.14834 0.66990 0.62403
 C307 C 1.10953 0.60970 0.60312
 N308 N 1.09502 0.62015 0.57953
 N309 N 1.07642 0.60519 0.56631
 C310 C 1.07157 0.57929 0.57625
 N311 N 1.08612 0.56874 0.59979
 N312 N 1.10484 0.58368 0.61297
 C313 C 0.67661 0.18328 0.64713
 N314 N 0.67263 0.18751 0.67544
 N315 N 0.68962 0.20290 0.69023
 C316 C 0.71119 0.21498 0.67734
 N317 N 0.71525 0.21065 0.64889
 N318 N 0.69829 0.19501 0.63407
 C319 C 0.65796 0.16567 0.63149
 N320 N 0.66423 0.15672 0.60446
 N321 N 0.64779 0.13951 0.59113
 C322 C 0.62445 0.13083 0.60432
 N323 N 0.61805 0.14007 0.63120
 N324 N 0.63454 0.15712 0.64455
 C325 C 0.60721 0.11065 0.59052
 N326 N 0.58308 0.10334 0.60336
 N327 N 0.56821 0.08383 0.59171
 C328 C 0.57706 0.07085 0.56686
 N329 N 0.60107 0.07827 0.55391
 N330 N 0.61588 0.09787 0.56551
 C331 C 0.67727 0.68464 0.14517
 N332 N 0.70642 0.68189 0.14086
 N333 N 0.72310 0.69773 0.15572
 C334 C 0.71116 0.71703 0.17525
 N335 N 0.68197 0.71989 0.17925
 N336 N 0.66535 0.70401 0.16453
 C337 C 0.65907 0.66593 0.13045
 N338 N 0.63098 0.66565 0.13831
 N339 N 0.61472 0.64766 0.12602
 C340 C 0.62597 0.62941 0.10533
 N341 N 0.65398 0.62987 0.09729
 N342 N 0.67028 0.64775 0.10969
 C343 C 0.60856 0.60890 0.09237
 N344 N 0.61921 0.59257 0.07004
 N345 N 0.60394 0.57330 0.05863
 C346 C 0.57756 0.56953 0.06920
 N347 N 0.56679 0.58587 0.09151
 N348 N 0.58204 0.60528 0.10288
 C349 C 0.82554 -0.18441 0.15965
 N350 N 0.81441 -0.20457 0.14380
 N351 N 0.79682 -0.22141 0.15537
 C352 C 0.78973 -0.21895 0.18334
 N353 N 0.80113 -0.19897 0.19939
 N354 N 0.81869 -0.18195 0.18774
 C355 C 0.84405 -0.16541 0.14593
 N356 N 0.85305 -0.14277 0.15994
 N357 N 0.86913 -0.12538 0.14667
 C358 C 0.87675 -0.13005 0.11897
 N359 N 0.86781 -0.15272 0.10512
 N360 N 0.85173 -0.16999 0.11830
 C361 C 0.89446 -0.11127 0.10385
 N362 N 0.90332 -0.11795 0.07688
 N363 N 0.91960 -0.10146 0.06286
 C364 C 0.92753 -0.07754 0.07518
 N365 N 0.91859 -0.07067 0.10213
 N366 N 0.90233 -0.08727 0.11624
 C367 C 0.82151 0.31540 0.66373
 N368 N 0.81693 0.31539 0.69230
 N369 N 0.79956 0.29796 0.70366
 C370 C 0.78603 0.28005 0.68682
 N371 N 0.79086 0.28015 0.65835
 N372 N 0.80826 0.29733 0.64708
 C373 C 0.84011 0.33456 0.65030
 N374 N 0.84634 0.33132 0.62221
 N375 N 0.86252 0.34864 0.60925
 C376 C 0.87301 0.37009 0.62379
 N377 N 0.86681 0.37345 0.65197
 N378 N 0.85066 0.35597 0.66502
 C379 C 0.89089 0.38888 0.60881
 N380 N 0.89945 0.41242 0.62153
 N381 N 0.91575 0.42903 0.60747
 C382 C 0.92408 0.42262 0.58024
 N383 N 0.91549 0.39913 0.56762
 N384 N 0.89913 0.38267 0.58158
 C385 C 0.31943 -0.18219 0.66354
 N386 N 0.30062 -0.19649 0.64872
 N387 N 0.28457 -0.21375 0.66195
 C388 C 0.28656 -0.21733 0.69057
 N389 N 0.30532 -0.20293 0.70548
 N390 N 0.32154 -0.18572 0.69219
 C391 C 0.33696 -0.16322 0.64853
 N392 N 0.35842 -0.15129 0.66209
 N393 N 0.37428 -0.13427 0.64809
 C394 C 0.36913 -0.12849 0.62010
 N395 N 0.34763 -0.14037 0.60662
 N396 N 0.33191 -0.15747 0.62055
 C397 C 0.38630 -0.10959 0.60454
 N398 N 0.37862 -0.10120 0.57767
 N399 N 0.39391 -0.08386 0.56351
 C400 C 0.41757 -0.07444 0.57564
 N401 N 0.42537 -0.08292 0.60245
 N402 N 0.40997 -0.10014 0.61668
 C403 C 0.31265 0.32509 0.16646
 N404 N 0.31689 0.31903 0.19453
 N405 N 0.30069 0.30172 0.20772
 C406 C 0.27976 0.28977 0.19330
 N407 N 0.27548 0.29603 0.16531
 N408 N 0.29153 0.31339 0.15219
 C409 C 0.33089 0.34334 0.15126
 N410 N 0.32488 0.35047 0.12373
 N411 N 0.34157 0.36638 0.10946
 C412 C 0.36505 0.37567 0.12209
 N413 N 0.37111 0.36858 0.14966
 N414 N 0.35432 0.35272 0.16400
 C415 C 0.38341 0.39311 0.10600
 N416 N 0.40823 0.40083 0.11748
 N417 N 0.42462 0.41677 0.10275
 C418 C 0.41676 0.42558 0.07604
 N419 N 0.39199 0.41784 0.06457
 N420 N 0.37568 0.40184 0.07924
 C421 C 0.81258 0.18481 -0.20367
 N422 N 0.79824 0.17090 -0.22344
 N423 N 0.78258 0.18525 -0.24362
 C424 C 0.78065 0.21415 -0.24513
 N425 N 0.79518 0.22821 -0.22539
 N426 N 0.81083 0.21379 -0.20496
 C427 C 0.82960 0.16804 -0.18166
 N428 N 0.84148 0.18058 -0.15908
 N429 N 0.85653 0.16461 -0.13934
 C430 C 0.86024 0.13561 -0.14158
 N431 N 0.84839 0.12323 -0.16416
 N432 N 0.83330 0.13911 -0.18373
 C433 C 0.87740 0.11754 -0.12061
 N434 N 0.88438 0.08920 -0.12594
 N435 N 0.90070 0.07261 -0.10773
 C436 C 0.91043 0.08367 -0.08332
 N437 N 0.90323 0.11197 -0.07775
 N438 N 0.88702 0.12865 -0.09610
 C439 C 0.81520 0.68151 0.29558
 N440 N 0.80407 0.66783 0.27343
 N441 N 0.78889 0.68249 0.25310
 C442 C 0.78433 0.71147 0.25394
 N443 N 0.79571 0.72529 0.27597
 N444 N 0.81087 0.71055 0.29647
 C445 C 0.83123 0.66464 0.31810
 N446 N 0.84050 0.67712 0.34204
 N447 N 0.85471 0.66124 0.36233
 C448 C 0.86013 0.63238 0.35934
 N449 N 0.85085 0.62002 0.33541
 N450 N 0.83662 0.63583 0.31525
 C451 C 0.87650 0.61456 0.38098
 N452 N 0.88443 0.58633 0.37577
 N453 N 0.90035 0.57010 0.39455
 C454 C 0.90876 0.58141 0.41938
 N455 N 0.90059 0.60959 0.42483
 N456 N 0.88473 0.62590 0.40594
 C457 C 0.33464 0.19378 0.30077
 N458 N 0.31723 0.21818 0.30767
 N459 N 0.29868 0.23106 0.28859
 C460 C 0.29667 0.21977 0.26209
 N461 N 0.31424 0.19552 0.25520
 N462 N 0.33302 0.18290 0.27409
 C463 C 0.35348 0.17797 0.32205
 N464 N 0.37505 0.15765 0.31350
 N465 N 0.39066 0.14136 0.33245
 C466 C 0.38507 0.14450 0.36069
 N467 N 0.36360 0.16496 0.36934
 N468 N 0.34814 0.18150 0.35035
 C469 C 0.40099 0.12471 0.38101
 N470 N 0.39107 0.12187 0.40788
 N471 N 0.40445 0.10211 0.42529
 C472 C 0.42830 0.08466 0.41643
 N473 N 0.43838 0.08782 0.38975
 N474 N 0.42493 0.10738 0.37234
 C475 C 0.32409 0.69662 -0.18767
 N476 N 0.29747 0.68851 -0.19241
 N477 N 0.28103 0.69944 -0.21389
 C478 C 0.29040 0.71919 -0.23125
 N479 N 0.31683 0.72779 -0.22627
 N480 N 0.33355 0.71647 -0.20497
 C481 C 0.34260 0.68251 -0.16522
 N482 N 0.37202 0.68037 -0.16675
 N483 N 0.38860 0.66456 -0.14801
 C484 C 0.37630 0.65062 -0.12694
 N485 N 0.34692 0.65332 -0.12511
 N486 N 0.33040 0.66882 -0.14398
 C487 C 0.39403 0.63075 -0.10806
 N488 N 0.38178 0.61979 -0.08510
 N489 N 0.39676 0.59951 -0.06950
 C490 C 0.42446 0.58924 -0.07646
 N491 N 0.43689 0.60039 -0.09922
 N492 N 0.42196 0.62085 -0.11471
 C493 C 1.19277 -0.17814 -0.19418
 N494 N 1.21628 -0.17102 -0.20834
 N495 N 1.22904 -0.18828 -0.22848
 C496 C 1.21836 -0.21295 -0.23546
 N497 N 1.19484 -0.21991 -0.22134
 N498 N 1.18240 -0.20293 -0.20100
 C499 C 1.17814 -0.15948 -0.17216
 N500 N 1.16155 -0.17061 -0.15247
 N501 N 1.14662 -0.15381 -0.13340
 C502 C 1.14741 -0.12517 -0.13350
 N503 N 1.16410 -0.11397 -0.15313
 N504 N 1.17937 -0.13087 -0.17203
 C505 C 1.12891 -0.10679 -0.11382
 N506 N 1.12128 -0.07862 -0.11940
 N507 N 1.10222 -0.06273 -0.10287
 C508 C 1.09038 -0.07440 -0.08006
 N509 N 1.09842 -0.10240 -0.07422
 N510 N 1.11721 -0.11833 -0.09089
 C511 C 1.19052 0.31797 0.31207
 N512 N 1.21356 0.32593 0.29777
 N513 N 1.22667 0.30913 0.27748
 C514 C 1.21691 0.28401 0.27050
 N515 N 1.19389 0.27614 0.28482
 N516 N 1.18107 0.29270 0.30532
 C517 C 1.17523 0.33655 0.33386
 N518 N 1.15802 0.32549 0.35304
 N519 N 1.14276 0.34233 0.37190
 C520 C 1.14384 0.37094 0.37206
 N521 N 1.16111 0.38206 0.35292
 N522 N 1.17668 0.36513 0.33426
 C523 C 1.12525 0.38950 0.39160
 N524 N 1.11854 0.41784 0.38627
 N525 N 1.09980 0.43411 0.40279
 C526 C 1.08737 0.42269 0.42540
 N527 N 1.09445 0.39449 0.43099
 N528 N 1.11292 0.37817 0.41431
 C529 C 0.68825 -0.17806 0.29350
 N530 N 0.67574 -0.18110 0.26775
 N531 N 0.68987 -0.19677 0.24745
 C532 C 0.71718 -0.20994 0.25196
 N533 N 0.73017 -0.20633 0.27750
 N534 N 0.71591 -0.19064 0.29798
 C535 C 0.67074 -0.16321 0.31626
 N536 N 0.68131 -0.16072 0.34308
 N537 N 0.66421 -0.14843 0.36363
 C538 C 0.63595 -0.13850 0.35807
 N539 N 0.62557 -0.14097 0.33129
 N540 N 0.64260 -0.15311 0.31083
 C541 C 0.61663 -0.12466 0.38004
 N542 N 0.58843 -0.11586 0.37345
 N543 N 0.57082 -0.10175 0.39241
 C544 C 0.58069 -0.09601 0.41875
 N545 N 0.60881 -0.10516 0.42560
 N546 N 0.62649 -0.11934 0.40658
 C547 C 0.68516 0.32024 -0.20893
 N548 N 0.67089 0.31011 -0.23124
 N549 N 0.68522 0.29392 -0.25103
 C550 C 0.71450 0.28724 -0.24959
 N551 N 0.72903 0.29789 -0.22753
 N552 N 0.71457 0.31404 -0.20746
 C553 C 0.66812 0.33657 -0.18668
 N554 N 0.68021 0.34391 -0.16172
 N555 N 0.66369 0.35757 -0.14145
 C556 C 0.63457 0.36424 -0.14548
 N557 N 0.62267 0.35698 -0.17046
 N558 N 0.63909 0.34335 -0.19059
 C559 C 0.61584 0.37943 -0.12374
 N560 N 0.58733 0.38748 -0.12966
 N561 N 0.57010 0.40212 -0.11071
 C562 C 0.58066 0.40906 -0.08500
 N563 N 0.60912 0.40077 -0.07885
 N564 N 0.62643 0.38617 -0.09790
 C565 C 1.18235 0.17597 -0.16238
 N566 N 1.20047 0.16403 -0.18296
 N567 N 1.21692 0.17992 -0.19757
 C568 C 1.21582 0.20838 -0.19224
 N569 N 1.19757 0.22031 -0.17171
 N570 N 1.18122 0.20439 -0.15699
 C571 C 1.16394 0.15856 -0.14651
 N572 N 1.14786 0.16992 -0.12422
 N573 N 1.13081 0.15428 -0.11005
 C574 C 1.12912 0.12675 -0.11772
 N575 N 1.14522 0.11536 -0.14001
 N576 N 1.16238 0.13097 -0.15411
 C577 C 1.10972 0.10987 -0.10248
 N578 N 1.10511 0.08358 -0.11206
 N579 N 1.08678 0.06872 -0.09859
 C580 C 1.07257 0.07960 -0.07499
 N581 N 1.07734 0.10576 -0.06532
 N582 N 1.09554 0.12066 -0.07884
 C583 C 1.17692 0.67593 0.33834
 N584 N 1.17571 0.70443 0.34336
 N585 N 1.19204 0.72022 0.32844
 C586 C 1.21033 0.70808 0.30805
 N587 N 1.21150 0.67955 0.30307
 N588 N 1.19508 0.66379 0.31789
 C589 C 1.15875 0.65856 0.35458
 N590 N 1.15758 0.63078 0.34749
 N591 N 1.14081 0.61511 0.36202
 C592 C 1.12472 0.62662 0.38427
 N593 N 1.12600 0.65437 0.39143
 N594 N 1.14266 0.67007 0.37682
 C595 C 1.10585 0.60959 0.40005
 N596 N 1.09169 0.62049 0.42366
 N597 N 1.07403 0.60540 0.43768
 C598 C 1.06979 0.57888 0.42856
 N599 N 1.08398 0.56789 0.40499
 N600 N 1.10177 0.58296 0.39102
 C601 C 0.67515 0.18138 0.35286
 N602 N 0.70425 0.17948 0.35744
 N603 N 0.72039 0.19572 0.34283
 C604 C 0.70795 0.21458 0.32328
 N605 N 0.67879 0.21658 0.31898
 N606 N 0.66270 0.20030 0.33347
 C607 C 0.65759 0.16225 0.36735
 N608 N 0.62964 0.16107 0.35923
 N609 N 0.61399 0.14269 0.37135
 C610 C 0.62575 0.12493 0.39209
 N611 N 0.65362 0.12629 0.40039
 N612 N 0.66931 0.14456 0.38816
 C613 C 0.60897 0.10409 0.40490
 N614 N 0.61994 0.08835 0.42740
 N615 N 0.60513 0.06892 0.43878
 C616 C 0.57892 0.06439 0.42798
 N617 N 0.56786 0.08011 0.40547
 N618 N 0.58264 0.09968 0.39414
 C619 C 0.67396 0.68429 -0.14744
 N620 N 0.69550 0.69616 -0.13388
 N621 N 0.71242 0.71192 -0.14820
 C622 C 0.70846 0.71626 -0.17664
 N623 N 0.68700 0.70410 -0.19003
 N624 N 0.67006 0.68857 -0.17573
 C625 C 0.65547 0.66640 -0.13237
 N626 N 0.63253 0.65715 -0.14606
 N627 N 0.61625 0.63984 -0.13321
 C628 C 0.62238 0.63102 -0.10620
 N629 N 0.64523 0.64039 -0.09239
 N630 N 0.66146 0.65784 -0.10522
 C631 C 0.60542 0.61060 -0.09282
 N632 N 0.61379 0.59868 -0.06743
 N633 N 0.59927 0.57898 -0.05604
 C634 C 0.57586 0.57055 -0.06960
 N635 N 0.56729 0.58263 -0.09486
 N636 N 0.58188 0.60227 -0.10630
 C637 C 0.81974 -0.18383 -0.16115
 N638 N 0.80634 -0.20161 -0.14467
 N639 N 0.78865 -0.21867 -0.15614
 C640 C 0.78368 -0.21890 -0.18464
 N641 N 0.79734 -0.20126 -0.20129
 N642 N 0.81499 -0.18397 -0.18974
 C643 C 0.83874 -0.16481 -0.14762
 N644 N 0.84947 -0.14375 -0.16230
 N645 N 0.86608 -0.12641 -0.14926
 C646 C 0.87260 -0.12960 -0.12111
 N647 N 0.86194 -0.15070 -0.10658
 N648 N 0.84529 -0.16787 -0.11954
 C649 C 0.89105 -0.11094 -0.10621
 N650 N 0.89981 -0.11702 -0.07908
 N651 N 0.91667 -0.10064 -0.06525
 C652 C 0.92529 -0.07738 -0.07790
 N653 N 0.91644 -0.07111 -0.10501
 N654 N 0.89964 -0.08763 -0.11894
 C655 C 0.82094 0.31465 0.34101
 N656 N 0.80978 0.29461 0.35661
 N657 N 0.79221 0.27769 0.34473
 C658 C 0.78518 0.27996 0.31670
 N659 N 0.79658 0.29983 0.30090
 N660 N 0.81413 0.31693 0.31287
 C661 C 0.83950 0.33367 0.35502
 N662 N 0.84859 0.35615 0.34122
 N663 N 0.86478 0.37355 0.35471
 C664 C 0.87243 0.36904 0.38244
 N665 N 0.86340 0.34653 0.39609
 N666 N 0.84720 0.32926 0.38268
 C667 C 0.89031 0.38781 0.39776
 N668 N 0.89932 0.38126 0.42472
 N669 N 0.91580 0.39775 0.43888
 C670 C 0.92376 0.42154 0.42671
 N671 N 0.91466 0.42827 0.39978
 N672 N 0.89821 0.41167 0.38553
 C673 C 0.31550 -0.18547 0.33631
 N674 N 0.31781 -0.18997 0.30776
 N675 N 0.30103 -0.20692 0.29443
 C676 C 0.28147 -0.22008 0.30920
 N677 N 0.27927 -0.21554 0.33772
 N678 N 0.29587 -0.19852 0.35098
 C679 C 0.33374 -0.16682 0.35136
 N680 N 0.32849 -0.15986 0.37910
 N681 N 0.34487 -0.14307 0.39304
 C682 C 0.36726 -0.13274 0.37984
 N683 N 0.37261 -0.13975 0.35210
 N684 N 0.35610 -0.15644 0.33808
 C685 C 0.38515 -0.11411 0.39539
 N686 N 0.40966 -0.10638 0.38366
 N687 N 0.42563 -0.08930 0.39779
 C688 C 0.41761 -0.07924 0.42410
 N689 N 0.39312 -0.08697 0.43582
 N690 N 0.37725 -0.10417 0.42177
 C691 C 0.32008 0.31352 -0.16620
 N692 N 0.31941 0.31224 -0.19509
 N693 N 0.30264 0.29534 -0.20848
 C694 C 0.28606 0.27896 -0.19347
 N695 N 0.28696 0.28024 -0.16459
 N696 N 0.30353 0.29721 -0.15124
 C697 C 0.33798 0.33239 -0.15104
 N698 N 0.33463 0.33674 -0.12260
 N699 N 0.35055 0.35388 -0.10858
 C700 C 0.37061 0.36717 -0.12241
 N701 N 0.37409 0.36275 -0.15086
 N702 N 0.35799 0.34572 -0.16496
 C703 C 0.38788 0.38625 -0.10675
 N704 N 0.41092 0.39632 -0.11911
 N705 N 0.42633 0.41379 -0.10480
 C706 C 0.41915 0.42192 -0.07772
 N707 N 0.39611 0.41188 -0.06539
 N708 N 0.38084 0.39426 -0.07960
 C709 C 1.18826 -0.18131 0.19308
 N710 N 1.21237 -0.17486 0.20700
 N711 N 1.22477 -0.19206 0.22727
 C712 C 1.21316 -0.21599 0.23463
 N713 N 1.18901 -0.22228 0.22075
 N714 N 1.17691 -0.20537 0.20027
 C715 C 1.17408 -0.16267 0.17084
 N716 N 1.15654 -0.17341 0.15143
 N717 N 1.14226 -0.15653 0.13206
 C718 C 1.14467 -0.12818 0.13159
 N719 N 1.16227 -0.11738 0.15097
 N720 N 1.17689 -0.13436 0.17015
 C721 C 1.12700 -0.10953 0.11150
 N722 N 1.12088 -0.08104 0.11663
 N723 N 1.10267 -0.06470 0.09970
 C724 C 1.09020 -0.07620 0.07687
 N725 N 1.09674 -0.10456 0.07146
 N726 N 1.11468 -0.12094 0.08855
 C727 C 1.19105 0.32054 0.69484
 N728 N 1.18052 0.29589 0.70143
 N729 N 1.19318 0.27877 0.72146
 C730 C 1.21710 0.28543 0.73545
 N731 N 1.22793 0.30995 0.72868
 N732 N 1.21496 0.32737 0.70887
 C733 C 1.17619 0.33935 0.67314
 N734 N 1.17768 0.36792 0.67334
 N735 N 1.16225 0.38495 0.65471
 C736 C 1.14513 0.37391 0.63502
 N737 N 1.14406 0.34531 0.63460
 N738 N 1.15914 0.32839 0.65341
 C739 C 1.12657 0.39241 0.61552
 N740 N 1.11458 0.38093 0.59244
 N741 N 1.09582 0.39698 0.57586
 C742 C 1.08810 0.42505 0.58192
 N743 N 1.10023 0.43665 0.60489
 N744 N 1.11926 0.42064 0.62134
 C745 C 0.68257 -0.17750 0.71158
 N746 N 0.66833 -0.18762 0.73361
 N747 N 0.68264 -0.20416 0.75309
 C748 C 0.71188 -0.21118 0.75162
 N749 N 0.72638 -0.20053 0.72984
 N750 N 0.71194 -0.18406 0.71006
 C751 C 0.66560 -0.16084 0.68955
 N752 N 0.67756 -0.15426 0.66449
 N753 N 0.66109 -0.14049 0.64428
 C754 C 0.63214 -0.13291 0.64846
 N755 N 0.62037 -0.13936 0.67355
 N756 N 0.63674 -0.15314 0.69363
 C757 C 0.61353 -0.11783 0.62656
 N758 N 0.58527 -0.10859 0.63241
 N759 N 0.56823 -0.09428 0.61309
 C760 C 0.57874 -0.08891 0.58709
 N761 N 0.60694 -0.09838 0.58106
 N762 N 0.62406 -0.11262 0.60046
 C763 C 0.68382 0.32156 0.20726
 N764 N 0.67072 0.31691 0.23218
 N765 N 0.68469 0.30058 0.25204
 C766 C 0.71241 0.28835 0.24790
 N767 N 0.72590 0.29350 0.22321
 N768 N 0.71180 0.30983 0.20317
 C769 C 0.66677 0.33750 0.18488
 N770 N 0.67780 0.34089 0.15856
 N771 N 0.66118 0.35421 0.13821
 C772 C 0.63297 0.36440 0.14350
 N773 N 0.62211 0.36106 0.16980
 N774 N 0.63867 0.34783 0.19006
 C775 C 0.61420 0.37924 0.12165
 N776 N 0.58623 0.38908 0.12802
 N777 N 0.56912 0.40371 0.10901
 C778 C 0.57930 0.40892 0.08283
 N779 N 0.60720 0.39881 0.07623
 N780 N 0.62437 0.38414 0.09532
 C781 C 0.81307 0.18084 0.20416
 N782 N 0.80186 0.16696 0.22583
 N783 N 0.78611 0.18142 0.24595
 C784 C 0.78102 0.21037 0.24537
 N785 N 0.79246 0.22439 0.22382
 N786 N 0.80819 0.20986 0.20353
 C787 C 0.82984 0.16418 0.18192
 N788 N 0.83923 0.17677 0.15837
 N789 N 0.85415 0.16106 0.13834
 C790 C 0.86018 0.13226 0.14121
 N791 N 0.85078 0.11980 0.16475
 N792 N 0.83583 0.13543 0.18465
 C793 C 0.87733 0.11464 0.11989
 N794 N 0.88586 0.08657 0.12512
 N795 N 0.90242 0.07052 0.10663
 C796 C 0.91088 0.08186 0.08207
 N797 N 0.90211 0.10987 0.07660
 N798 N 0.88562 0.12601 0.09521
 C799 C 0.81018 0.68574 0.70534
 N800 N 0.80843 0.71473 0.70691
 N801 N 0.79265 0.72924 0.72724
 C802 C 0.77797 0.71526 0.74659
 N803 N 0.77988 0.68636 0.74478
 N804 N 0.79567 0.67193 0.72471
 C805 C 0.82739 0.66886 0.68347
 N806 N 0.83930 0.68127 0.66112
 N807 N 0.85449 0.66520 0.64149
 C808 C 0.85835 0.63622 0.64361
 N809 N 0.84647 0.62397 0.66597
 N810 N 0.83122 0.63995 0.68542
 C811 C 0.87562 0.61804 0.62273
 N812 N 0.88278 0.58977 0.62802
 N813 N 0.89913 0.57307 0.60985
 C814 C 0.90870 0.58394 0.58552
 N815 N 0.90133 0.61217 0.58000
 N816 N 0.88510 0.62896 0.59831
 C817 C 0.32175 0.19414 0.68614
 N818 N 0.29623 0.18437 0.69214
 N819 N 0.28004 0.19523 0.71381
 C820 C 0.28856 0.21652 0.73014
 N821 N 0.31388 0.22671 0.72392
 N822 N 0.33036 0.21550 0.70242
 C823 C 0.34004 0.18048 0.66328
 N824 N 0.36931 0.18043 0.66367
 N825 N 0.38595 0.16532 0.64445
 C826 C 0.37385 0.15002 0.62400
 N827 N 0.34456 0.15059 0.62331
 N828 N 0.32799 0.16539 0.64268
 C829 C 0.39198 0.13099 0.60455
 N830 N 0.37980 0.11929 0.58167
 N831 N 0.39537 0.09970 0.56561
 C832 C 0.42360 0.09088 0.57202
 N833 N 0.43591 0.10279 0.59469
 N834 N 0.42040 0.12259 0.61062
 C835 C 0.31899 0.69132 0.18902
 N836 N 0.29328 0.68177 0.19471
 N837 N 0.27665 0.69312 0.21586
 C838 C 0.28486 0.71473 0.23194
 N839 N 0.31038 0.72469 0.22603
 N840 N 0.32731 0.71298 0.20507
 C841 C 0.33761 0.67726 0.16659
 N842 N 0.36690 0.67713 0.16734
 N843 N 0.38376 0.66185 0.14839
 C844 C 0.37186 0.64646 0.12786
 N845 N 0.34257 0.64709 0.12685
 N846 N 0.32579 0.66205 0.14595
 C847 C 0.39015 0.62754 0.10843
 N848 N 0.37813 0.61608 0.08534
 N849 N 0.39384 0.59680 0.06907
 C850 C 0.42209 0.58805 0.07546
 N851 N 0.43425 0.59968 0.09839
 N852 N 0.41858 0.61918 0.11454
   
