data_POSCAR
  _audit_creation_date              2014-09-24
  _audit_creation_method            'ToBaCCo'
  _symmetry_space_group_name_H-M    'P1'
  _symmetry_Int_Tables_number       1
  _symmetry_cell_setting            triclinic
  loop_
  _symmetry_equiv_pos_as_xyz
 x,y,z
_cell_length_a 28.7357
_cell_length_b 28.4358
_cell_length_c 28.8528
_cell_angle_alpha 89.871500
_cell_angle_beta 89.855500
_cell_angle_gamma 89.832600
loop_
  _atom_site_label
  _atom_site_type_symbol
  _atom_site_fract_x
  _atom_site_fract_y
  _atom_site_fract_z
C1 C 0.58865 0.65648 0.62446
 N2 N 0.59047 0.62263 0.65762
 C3 C 0.62519 0.59019 0.65705
 N4 N 0.65810 0.59160 0.62326
 C5 C 0.65629 0.62545 0.59007
 N6 N 0.62155 0.65790 0.59066
 C7 C 0.91311 0.34437 0.12377
 N8 N 0.88023 0.34386 0.09009
 C9 C 0.84627 0.37712 0.08954
 N10 N 0.84518 0.41089 0.12268
 C11 C 0.87806 0.41143 0.15636
 N12 N 0.91202 0.37816 0.15690
 C13 C 0.41318 0.15612 -0.12584
 N14 N 0.38026 0.15697 -0.09204
 C15 C 0.34616 0.12407 -0.09137
 N16 N 0.34498 0.09032 -0.12451
 C17 C 0.37788 0.08944 -0.15831
 N18 N 0.41199 0.12235 -0.15899
 C19 C 0.08907 0.84480 0.37378
 N20 N 0.09033 0.87866 0.34058
 C21 C 0.12444 0.91157 0.34107
 N22 N 0.15730 0.91061 0.37477
 C23 C 0.15605 0.87674 0.40796
 N24 N 0.12193 0.84386 0.40746
 N25 N 0.07449 0.20360 0.10652
 N26 N 0.05593 0.18463 0.14385
 C27 C 0.01810 0.20979 0.15628
 C28 C 0.01303 0.24618 0.12506
 C29 C 0.04916 0.24143 0.09394
 H30 H -0.00418 0.20225 0.18561
 H31 H 0.05636 0.26369 0.06435
 Cu32 Cu 0.08295 0.12875 0.17217
 Cu33 Cu 0.12982 0.17773 0.07683
 Cu34 Cu 0.17853 0.07810 0.12682
 N35 N 0.11056 0.07287 0.19992
 N36 N 0.14799 0.05324 0.18197
 C37 C 0.15970 0.01528 0.20742
 C38 C 0.12791 0.01114 0.24300
 C39 C 0.09718 0.04800 0.23745
 H40 H 0.18898 -0.00766 0.20052
 H41 H 0.06736 0.05589 0.25904
 N42 N 0.20433 0.10846 0.07096
 N43 N 0.18577 0.14641 0.05192
 C44 C 0.21101 0.15846 0.01431
 C45 C 0.24687 0.12659 0.00975
 C46 C 0.24185 0.09537 0.04595
 H47 H 0.20384 0.18803 -0.00821
 H48 H 0.26383 0.06536 0.05331
 H49 H 0.11996 0.10914 0.09854
 H50 H 0.15739 0.14702 0.13570
 N51 N 0.41821 0.79094 0.61261
 N52 N 0.43629 0.80971 0.65005
 C53 C 0.47632 0.78731 0.66033
 C54 C 0.48331 0.75275 0.62757
 C55 C 0.44591 0.75574 0.59785
 H56 H 0.49830 0.79512 0.68969
 H57 H 0.43908 0.73373 0.56812
 Cu58 Cu 0.40496 0.86034 0.68284
 Cu59 Cu 0.35916 0.81243 0.58729
 Cu60 Cu 0.32263 0.92197 0.62615
 N61 N 0.38428 0.92147 0.70443
 N62 N 0.35270 0.94587 0.68174
 C63 C 0.34481 0.98659 0.70421
 C64 C 0.37305 0.98749 0.74275
 C65 C 0.39766 0.94582 0.74207
 H66 H 0.31997 1.01319 0.69373
 H67 H 0.42311 0.93404 0.76712
 N68 N 0.29633 0.89114 0.57098
 N69 N 0.30965 0.84903 0.55682
 C70 C 0.28448 0.83694 0.51940
 C71 C 0.25398 0.87311 0.50988
 C72 C 0.26215 0.90688 0.54300
 H73 H 0.28794 0.80425 0.50059
 H74 H 0.24409 0.94008 0.54671
 H75 H 0.37769 0.87934 0.60539
 H76 H 0.33078 0.85227 0.64123
 N77 N 0.92741 0.70525 0.39144
 N78 N 0.94605 0.68613 0.35425
 C79 C 0.98386 0.71110 0.34172
 C80 C 0.98884 0.74752 0.37272
 C81 C 0.95267 0.74298 0.40383
 H82 H 1.00622 0.70339 0.31250
 H83 H 0.94544 0.76529 0.43331
 Cu84 Cu 0.91923 0.63028 0.32627
 Cu85 Cu 0.87213 0.67958 0.42127
 Cu86 Cu 0.82380 0.57996 0.37187
 N87 N 0.89183 0.57442 0.29885
 N88 N 0.85445 0.55492 0.31689
 C89 C 0.84285 0.51697 0.29164
 C90 C 0.87467 0.51270 0.25609
 C91 C 0.90529 0.54948 0.26145
 H92 H 0.81360 0.49415 0.29863
 H93 H 0.93506 0.55728 0.23979
 N94 N 0.79786 0.61049 0.42752
 N95 N 0.81626 0.64844 0.44634
 C96 C 0.79100 0.66054 0.48391
 C97 C 0.75528 0.62872 0.48867
 C98 C 0.76042 0.59747 0.45263
 H99 H 0.79808 0.69009 0.50631
 H100 H 0.73861 0.56744 0.44548
 H101 H 0.88224 0.61093 0.40001
 H102 H 0.84471 0.64883 0.36258
 N103 N 0.57608 0.29818 -0.10857
 N104 N 0.55743 0.31743 -0.14566
 C105 C 0.51986 0.29226 -0.15821
 C106 C 0.51504 0.25557 -0.12730
 C107 C 0.55106 0.26016 -0.09624
 H108 H 0.49753 0.30004 -0.18736
 H109 H 0.55834 0.23772 -0.06680
 Cu110 Cu 0.58385 0.37375 -0.17350
 Cu111 Cu 0.63104 0.32406 -0.07875
 Cu112 Cu 0.67955 0.42367 -0.12864
 N113 N 0.61183 0.42915 -0.20162
 N114 N 0.64929 0.44851 -0.18387
 C115 C 0.66115 0.48627 -0.20952
 C116 C 0.62944 0.49052 -0.24502
 C117 C 0.59860 0.45396 -0.23922
 H118 H 0.69043 0.50903 -0.20275
 H119 H 0.56876 0.44628 -0.26064
 N120 N 0.70510 0.39334 -0.07270
 N121 N 0.68662 0.35539 -0.05370
 C122 C 0.71165 0.34334 -0.01604
 C123 C 0.74729 0.37521 -0.01139
 C124 C 0.74237 0.40642 -0.04761
 H125 H 0.70451 0.31374 0.00644
 H126 H 0.76425 0.43640 -0.05495
 H127 H 0.62110 0.39281 -0.10004
 H128 H 0.65839 0.35491 -0.13774
 C129 C -0.05293 0.31107 0.12430
 C130 C -0.02282 0.28148 0.12470
 C131 C 0.55181 0.69065 0.62515
 C132 C 0.52066 0.71911 0.62607
 C133 C 1.05496 0.81186 0.37331
 C134 C 1.02475 0.78254 0.37299
 C135 C 0.44916 0.19099 -0.12653
 C136 C 0.47928 0.22040 -0.12696
 C137 C 0.12568 -0.05457 0.30783
 C138 C 0.12673 -0.02455 0.27828
 C139 C 0.62689 0.55629 -0.30978
 C140 C 0.62818 0.52624 -0.28027
 C141 C 0.37651 1.05372 0.80668
 C142 C 0.37508 1.02358 0.77742
 C143 C 0.87687 0.44711 0.19143
 C144 C 0.87586 0.47706 0.22092
 C145 C 0.31130 0.12500 -0.05569
 C146 C 0.28194 0.12575 -0.02579
 C147 C 0.69106 0.62683 0.55432
 C148 C 0.72033 0.62779 0.52433
 C149 C 0.81147 0.37650 0.05398
 C150 C 0.78221 0.37593 0.02413
 C151 C 0.19071 0.87570 0.44366
 C152 C 0.21968 0.87462 0.47379
   
