data_POSCAR
  _audit_creation_date              2014-09-24
  _audit_creation_method            'ToBaCCo'
  _symmetry_space_group_name_H-M    'P1'
  _symmetry_Int_Tables_number       1
  _symmetry_cell_setting            triclinic
  loop_
  _symmetry_equiv_pos_as_xyz
 x,y,z
_cell_length_a 25.5275
_cell_length_b 24.6199
_cell_length_c 25.4027
_cell_angle_alpha 126.293200
_cell_angle_beta 80.999000
_cell_angle_gamma 52.523000
loop_
  _atom_site_label
  _atom_site_type_symbol
  _atom_site_fract_x
  _atom_site_fract_y
  _atom_site_fract_z
O1 O 0.51746 0.57341 0.08509
 O2 O 0.34129 0.62946 0.09858
 O3 O 0.45312 0.52833 0.10785
 O4 O 0.40176 0.67958 0.07980
 O5 O 0.55219 0.46575 -0.10253
 O6 O 0.60359 0.31463 -0.07440
 O7 O 0.49085 0.41638 -0.08361
 O8 O 0.66681 0.36043 -0.09710
 Cu9 Cu 0.41396 0.62374 0.11077
 Cu10 Cu 0.59284 0.36816 -0.10726
 C11 C 0.62095 0.45970 -0.00788
 C12 C 0.38715 0.53020 0.00916
 C13 C 0.53578 0.39577 0.02108
 C14 C 0.46967 0.59836 -0.01573
 O15 O 0.10234 0.47293 0.44724
 O16 O 0.08083 0.31970 0.40304
 O17 O 0.09950 0.36309 0.33595
 O18 O 0.08554 0.42807 0.51495
 O19 O -0.09894 0.63926 0.66149
 O20 O -0.08493 0.57588 0.48306
 O21 O -0.10371 0.53192 0.54993
 O22 O -0.08220 0.68605 0.59634
 Cu23 Cu 0.11042 0.37486 0.41123
 Cu24 Cu -0.11093 0.62970 0.58739
 C25 C 0.01346 0.60526 0.52743
 C26 C -0.01469 0.39953 0.46940
 C27 C 0.00908 0.46073 0.38014
 C28 C -0.00846 0.54221 0.61751
 O29 O 0.40855 0.11206 0.65390
 O30 O 0.42245 0.12134 0.51363
 O31 O 0.34854 0.10931 0.58016
 O32 O 0.47870 0.12916 0.59097
 O33 O 0.64431 -0.10536 0.42922
 O34 O 0.51371 -0.12525 0.41951
 O35 O 0.58774 -0.11331 0.35269
 O36 O 0.57436 -0.12236 0.49313
 Cu37 Cu 0.39772 0.14154 0.60098
 Cu38 Cu 0.59689 -0.14034 0.40729
 C39 C 0.48840 -0.00573 0.59820
 C40 C 0.50843 0.00460 0.40858
 C41 C 0.40783 -0.00988 0.49917
 C42 C 0.58449 0.01424 0.51073
 C43 C 0.50746 -0.02763 0.00738
 C44 C 0.49726 0.02099 -0.00716
 C45 C 0.47932 0.01048 -0.06270
 C46 C 0.51720 0.07209 0.01890
 C47 C 0.52441 -0.01554 0.06390
 C48 C 0.49015 -0.08196 -0.02071
 C49 C 0.56796 -0.12127 -0.17794
 C50 C 0.56223 -0.12734 -0.23466
 C51 C 0.46792 -0.00146 -0.17681
 C52 C 0.37576 0.12926 -0.06038
 C53 C 0.38174 0.13507 -0.00400
 C54 C 0.62365 -0.02301 -0.06571
 C55 C 0.63781 0.02780 -0.05515
 C56 C 0.54532 0.17502 0.04093
 C57 C 0.44123 0.26907 0.13042
 C58 C 0.42691 0.21806 0.11896
 C59 C 0.43456 0.11670 0.17932
 C60 C 0.43933 0.12415 0.23692
 C61 C 0.53391 -0.00090 0.17972
 C62 C 0.62748 -0.13183 0.06321
 C63 C 0.62255 -0.13899 0.00590
 C64 C 0.38320 0.01219 0.06074
 C65 C 0.37014 -0.03928 0.05145
 C66 C 0.46426 -0.18614 -0.04019
 C67 C 0.56988 -0.28046 -0.12682
 C68 C 0.58275 -0.22873 -0.11700
 H69 H 0.64464 -0.21832 -0.22467
 H70 H 0.63446 -0.22984 -0.32421
 H71 H 0.30124 0.22815 -0.01296
 H72 H 0.31264 0.23770 0.08501
 H73 H 0.69378 -0.13592 -0.14317
 H74 H 0.71948 -0.04778 -0.12515
 H75 H 0.34394 0.29299 0.18500
 H76 H 0.35760 0.21288 0.22546
 H77 H 0.36612 0.22683 0.32653
 H78 H 0.70233 -0.23005 0.01632
 H79 H 0.69299 -0.24193 -0.08332
 H80 H 0.31120 0.12577 0.13550
 H81 H 0.28751 0.03623 0.11929
 H82 H 0.64404 -0.39372 -0.19776
 H83 H 0.66609 -0.30292 -0.18045
 H84 H 0.36881 0.38269 0.20596
 C85 C -0.01729 0.50327 0.98263
 C86 C 0.01305 0.50935 1.02235
 C87 C 0.05509 0.53217 1.02163
 C88 C 0.01197 0.48569 1.06378
 C89 C -0.05713 0.47750 0.98148
 C90 C -0.01471 0.52482 0.93962
 C91 C 0.16184 0.42343 0.92152
 C92 C 0.21055 0.43299 0.92039
 C93 C 0.15371 0.55157 1.01987
 C94 C 0.04476 0.66311 1.12052
 C95 C -0.00371 0.65295 1.12135
 C96 C 0.11091 0.35218 0.99558
 C97 C 0.11268 0.33517 1.03949
 C98 C 0.01505 0.45160 1.15209
 C99 C -0.08383 0.58353 1.21855
 C100 C -0.08508 0.60091 1.17533
 C101 C -0.16025 0.58045 1.08101
 C102 C -0.20540 0.56602 1.08074
 C103 C -0.14921 0.44909 0.98073
 C104 C -0.04431 0.34389 0.88051
 C105 C 0.00108 0.35824 0.88100
 C106 C -0.11317 0.65709 1.00624
 C107 C -0.11385 0.67162 0.96051
 C108 C -0.01578 0.55371 0.84744
 C109 C 0.08258 0.42279 0.78234
 C110 C 0.08291 0.40822 0.82769
 H111 H 0.20960 0.32784 0.84443
 H112 H 0.29464 0.34479 0.84146
 H113 H -0.00173 0.75623 1.19874
 H114 H -0.08582 0.73754 1.19994
 H115 H 0.18715 0.26251 0.90935
 H116 H 0.19049 0.23217 0.98614
 H117 H -0.16099 0.70546 1.22975
 H118 H -0.20851 0.67562 1.15921
 H119 H -0.28659 0.64947 1.15929
 H120 H 0.00128 0.25259 0.80180
 H121 H 0.08046 0.27786 0.80292
 H122 H -0.18997 0.74772 1.09266
 H123 H -0.19127 0.77388 1.01286
 H124 H 0.15850 0.32988 0.69487
 H125 H 0.15836 0.30462 0.77458
 H126 H -0.15935 0.67517 1.30564
 C127 C 0.02485 -0.02223 0.50024
 C128 C -0.03474 0.03108 0.49588
 C129 C -0.09300 0.03139 0.49843
 C130 C -0.03661 0.08010 0.47918
 C131 C 0.08164 -0.02036 0.50090
 C132 C 0.03163 -0.07966 0.50920
 C133 C -0.03219 -0.09410 0.40257
 C134 C -0.08605 -0.09589 0.40524
 C135 C -0.20213 0.02877 0.50345
 C136 C -0.26310 0.15524 0.59866
 C137 C -0.20860 0.15603 0.59642
 C138 C 0.06231 -0.01642 0.38084
 C139 C 0.06302 0.03120 0.36814
 C140 C -0.03563 0.17637 0.45373
 C141 C -0.13614 0.27080 0.54878
 C142 C -0.13656 0.22322 0.56166
 C143 C 0.02052 0.10835 0.58333
 C144 C 0.07432 0.10975 0.58375
 C145 C 0.19034 -0.01768 0.50186
 C146 C 0.25082 -0.14609 0.42074
 C147 C 0.19684 -0.14725 0.42052
 C148 C -0.04948 0.01069 0.61359
 C149 C -0.04775 -0.04126 0.62227
 C150 C 0.03583 -0.18459 0.52644
 C151 C 0.11876 -0.27547 0.42207
 C152 C 0.11658 -0.22332 0.41350
 H153 H 0.05718 -0.19094 0.32616
 H154 H -0.03662 -0.19500 0.33038
 H155 H -0.35245 0.25285 0.67566
 H156 H -0.25634 0.25322 0.67155
 H157 H 0.13931 -0.12791 0.31538
 H158 H 0.14145 -0.04489 0.29283
 H159 H -0.21412 0.29936 0.63783
 H160 H -0.06893 0.20776 0.64750
 H161 H 0.02493 0.21073 0.64803
 H162 H 0.34009 -0.24603 0.35677
 H163 H 0.24550 -0.24768 0.35642
 H164 H -0.11549 0.12195 0.68798
 H165 H -0.11268 0.03098 0.70367
 H166 H 0.18234 -0.38528 0.34704
 H167 H 0.17928 -0.29396 0.33231
 H168 H -0.21381 0.38250 0.61509
 N169 N -0.20832 0.33782 0.88981
 C170 C -0.31393 0.44747 0.98804
 N171 N -0.36298 0.55391 1.08322
 N172 N -0.30911 0.55171 1.08042
 C173 C -0.20416 0.44349 0.98244
 N174 N -0.15447 0.33581 0.88706
 N175 N 0.21644 0.65737 1.11049
 C176 C 0.32505 0.54264 1.01244
 N177 N 0.37496 0.43458 0.91725
 N178 N 0.31938 0.43975 0.91991
 C179 C 0.21148 0.55297 1.01776
 N180 N 0.16087 0.66234 1.11307
 N181 N 0.12093 -0.42742 0.45217
 C182 C 0.02074 -0.33927 0.53547
 N183 N -0.07345 -0.19836 0.61981
 N184 N -0.06795 -0.14810 0.61950
 C185 C 0.03178 -0.23702 0.53427
 N186 N 0.12626 -0.37736 0.45130
 N187 N -0.12190 0.42487 0.53661
 C188 C -0.02179 0.33889 0.45668
 N189 N 0.07297 0.19780 0.37162
 N190 N 0.06803 0.14499 0.36786
 C191 C -0.03179 0.23124 0.44919
 N192 N -0.12675 0.37201 0.53292
 N193 N 0.56635 -0.12995 -0.40341
 C194 C 0.48151 -0.00612 -0.34658
 N195 N 0.39037 0.11820 -0.23427
 N196 N 0.38476 0.11914 -0.18070
 C197 C 0.46988 -0.00428 -0.23711
 N198 N 0.56074 -0.12896 -0.34970
 N199 N 0.60886 -0.11930 0.23826
 C200 C 0.51660 0.00503 0.35040
 N201 N 0.43177 0.12866 0.40707
 N202 N 0.43857 0.12739 0.35312
 C203 C 0.53069 0.00260 0.24055
 N204 N 0.61572 -0.12057 0.18443
 N205 N 0.54403 -0.43168 -0.12437
 C206 C 0.45806 -0.34316 -0.02566
 N207 N 0.36935 -0.20136 0.06633
 N208 N 0.36808 -0.15044 0.06029
 C209 C 0.45579 -0.23932 -0.03778
 N210 N 0.54303 -0.38081 -0.13026
 N211 N 0.46231 0.42426 0.12870
 C212 C 0.54817 0.33668 0.03058
 N213 N 0.63786 0.19458 -0.06177
 N214 N 0.64018 0.14238 -0.05680
 C215 C 0.55266 0.23011 0.04053
 N216 N 0.46443 0.37202 0.13352
 N217 N -0.24798 -0.10279 0.42160
 C218 C -0.36107 0.01899 0.51082
 N219 N -0.42243 0.14471 0.59834
 N220 N -0.37205 0.14803 0.59632
 C221 C -0.25860 0.02593 0.50655
 N222 N -0.19768 -0.09951 0.41939
 N223 N 0.23949 0.10998 0.58235
 C224 C 0.35242 -0.01314 0.49873
 N225 N 0.41244 -0.13831 0.41586
 N226 N 0.36103 -0.13988 0.41690
 C227 C 0.24777 -0.01648 0.50075
 N228 N 0.18817 0.10842 0.58334
 N229 N 0.11140 0.33517 1.20839
 C230 C 0.01262 0.44572 1.31391
 N231 N -0.08419 0.55220 1.36248
 N232 N -0.08259 0.55010 1.30869
 C233 C 0.01571 0.44182 1.20427
 N234 N 0.11294 0.33311 1.15444
 N235 N -0.11082 0.66825 0.78954
 C236 C -0.01193 0.55678 0.68358
 N237 N 0.08476 0.44953 0.63475
 N238 N 0.08287 0.45204 0.68883
 C239 C -0.01564 0.56156 0.79388
 N240 N -0.11266 0.67077 0.84379
   
