data_POSCAR
  _audit_creation_date              2014-09-24
  _audit_creation_method            'ToBaCCo'
  _symmetry_space_group_name_H-M    'P1'
  _symmetry_Int_Tables_number       1
  _symmetry_cell_setting            triclinic
  loop_
  _symmetry_equiv_pos_as_xyz
 x,y,z
_cell_length_a 65.0303
_cell_length_b 64.7535
_cell_length_c 26.7674
_cell_angle_alpha 90.223000
_cell_angle_beta 89.777300
_cell_angle_gamma 119.908900
loop_
  _atom_site_label
  _atom_site_type_symbol
  _atom_site_fract_x
  _atom_site_fract_y
  _atom_site_fract_z
C1 C 0.19935 0.51173 0.50943
 C2 C 0.21245 0.51952 0.46455
 C3 C 0.23578 0.52328 0.46426
 C4 C 0.24574 0.51906 0.50714
 C5 C 0.23206 0.51158 0.55129
 C6 C 0.20899 0.50818 0.55329
 C7 C 0.27007 0.52176 0.50582
 C8 C 0.28325 0.52574 0.55025
 C9 C 0.30489 0.52592 0.55012
 C10 C 0.31423 0.52337 0.50490
 C11 C 0.30188 0.51999 0.46014
 C12 C 0.27984 0.51903 0.46069
 H13 H 0.18138 0.50845 0.51053
 H14 H 0.24660 0.53051 0.43122
 H15 H 0.23868 0.50690 0.58373
 H16 H 0.27688 0.52862 0.58548
 H17 H 0.33086 0.52329 0.50470
 H18 H 0.27003 0.51502 0.42610
 C19 C 0.49591 -0.30706 0.49711
 C20 C 0.49583 -0.29597 0.45222
 C21 C 0.49046 -0.27747 0.45416
 C22 C 0.48456 -0.27047 0.49968
 C23 C 0.48318 -0.28332 0.54340
 C24 C 0.49027 -0.30063 0.54320
 C25 C 0.48251 -0.24828 0.50240
 C26 C 0.48677 -0.23546 0.54784
 C27 C 0.48804 -0.21322 0.54938
 C28 C 0.48583 -0.20314 0.50517
 C29 C 0.48185 -0.21519 0.45968
 C30 C 0.47896 -0.23814 0.45876
 H31 H 0.49874 -0.32216 0.49582
 H32 H 0.49273 -0.26751 0.42041
 H33 H 0.47813 -0.27882 0.57837
 H34 H 0.49058 -0.24169 0.58201
 H35 H 0.48774 -0.18553 0.50593
 H36 H 0.47521 -0.24723 0.42320
 C37 C 1.31653 0.78979 0.49534
 C38 C 1.30520 0.78073 0.44936
 C39 C 1.28210 0.76092 0.44992
 C40 C 1.26959 0.75124 0.49502
 C41 C 1.28127 0.76160 0.54043
 C42 C 1.30490 0.78033 0.54082
 C43 C 1.24455 0.73052 0.49420
 C44 C 1.23440 0.71554 0.53625
 C45 C 1.21095 0.69597 0.53539
 C46 C 1.19817 0.69110 0.49026
 C47 C 1.20807 0.70517 0.44788
 C48 C 1.23069 0.72518 0.45056
 H49 H 1.33399 0.80548 0.49626
 H50 H 1.27444 0.75253 0.41467
 H51 H 1.27226 0.75527 0.57578
 H52 H 1.24514 0.71829 0.56890
 H53 H 1.18012 0.67657 0.48749
 H54 H 1.23706 0.73647 0.41800
 C55 C 0.79991 0.49451 0.50335
 C56 C 0.78803 0.49004 0.45771
 C57 C 0.76426 0.48452 0.45706
 C58 C 0.75268 0.48533 0.50133
 C59 C 0.76532 0.49015 0.54686
 C60 C 0.78858 0.49414 0.54807
 C61 C 0.72810 0.48223 0.49974
 C62 C 0.71420 0.47721 0.54358
 C63 C 0.69191 0.47597 0.54338
 C64 C 0.68286 0.47830 0.49740
 C65 C 0.69607 0.48296 0.45337
 C66 C 0.71862 0.48525 0.45474
 H67 H 0.81803 0.49797 0.50409
 H68 H 0.75532 0.48024 0.42146
 H69 H 0.75778 0.49166 0.58173
 H70 H 0.72018 0.47341 0.57806
 H71 H 0.66604 0.47791 0.49568
 H72 H 0.72882 0.49034 0.42056
 C73 C 0.49767 0.30261 0.50752
 C74 C 0.50357 0.29622 0.46200
 C75 C 0.51040 0.27887 0.46121
 C76 C 0.50963 0.26644 0.50498
 C77 C 0.50386 0.27341 0.55066
 C78 C 0.49807 0.29171 0.55263
 C79 C 0.51299 0.24514 0.50217
 C80 C 0.52028 0.23734 0.54427
 C81 C 0.52150 0.21613 0.54301
 C82 C 0.51639 0.20353 0.49738
 C83 C 0.50961 0.21120 0.45505
 C84 C 0.50762 0.23167 0.45775
 H85 H 0.49382 0.31707 0.50749
 H86 H 0.51551 0.27465 0.42582
 H87 H 0.50221 0.26352 0.58431
 H88 H 0.52565 0.24815 0.57769
 H89 H 0.51636 0.18685 0.49464
 H90 H 0.50086 0.23626 0.42535
 C91 C 0.68691 0.20198 0.51428
 C92 C 0.69396 0.21334 0.46797
 C93 C 0.71361 0.23645 0.46535
 C94 C 0.72776 0.24757 0.50797
 C95 C 0.72014 0.23546 0.55425
 C96 C 0.69962 0.21304 0.55759
 C97 C 0.75126 0.27039 0.50340
 C98 C 0.76317 0.28415 0.54612
 C99 C 0.78695 0.30289 0.54355
 C100 C 0.79767 0.30956 0.49618
 C101 C 0.78585 0.29731 0.45305
 C102 C 0.76304 0.27757 0.45675
 H103 H 0.67144 0.18432 0.51657
 H104 H 0.71811 0.24501 0.42930
 H105 H 0.73044 0.24251 0.58788
 H106 H 0.75456 0.27941 0.58202
 H107 H 0.81522 0.32496 0.49209
 H108 H 0.75531 0.26754 0.42300
 O109 O 0.96757 0.51737 -0.09521
 O110 O 0.94078 0.48691 -0.04559
 C111 C 0.94606 0.50199 -0.08198
 O112 O 1.03325 0.47690 -0.08063
 O113 O 1.05981 0.51074 -0.03873
 C114 C 1.05471 0.49315 -0.06914
 O115 O 0.96718 0.44615 -0.08660
 O116 O 0.94074 0.45252 -0.04171
 C117 C 0.94576 0.44119 -0.07531
 O118 O 1.03351 0.55181 -0.09194
 O119 O 1.05992 0.54686 -0.04415
 C120 C 1.05494 0.55738 -0.07945
 Zr121 Zr 1.00042 0.52497 -0.06462
 O122 O 1.00032 0.52606 -0.14363
 O123 O 1.00005 0.55737 -0.06033
 Zr124 Zr 1.00021 0.47279 -0.05851
 O125 O 1.00264 0.47212 -0.13733
 O126 O 0.99733 0.43880 -0.05377
 O127 O 0.97923 0.48817 -0.07156
 O128 O 1.02098 0.50890 -0.07099
 O129 O 1.03330 0.55655 0.08205
 O130 O 1.05985 0.54906 0.04047
 C131 C 1.05475 0.56162 0.07074
 O132 O 0.96716 0.45068 0.09767
 O133 O 0.94059 0.45422 0.04740
 C134 C 0.94570 0.44451 0.08416
 O135 O 1.03328 0.48220 0.09449
 O136 O 1.05983 0.51332 0.04609
 C137 C 1.05476 0.49797 0.08175
 O138 O 0.96723 0.52162 0.08787
 O139 O 0.94077 0.48867 0.04353
 C140 C 0.94581 0.50515 0.07680
 Zr141 Zr 1.00024 0.52768 0.06017
 O142 O 1.00261 0.53089 0.13899
 O143 O 0.99790 0.55907 0.05514
 Zr144 Zr 1.00014 0.47549 0.06642
 O145 O 1.00078 0.47436 0.14526
 O146 O 0.99779 0.44166 0.06385
 Zr147 Zr 0.96455 0.48244 0.00092
 Zr148 Zr 1.03590 0.51798 0.00085
 O149 O 1.02076 0.51213 0.07273
 O150 O 0.97910 0.49129 0.07344
 O151 O 1.02176 0.54100 -0.00284
 O152 O 0.97921 0.45995 0.00444
 O153 O 0.97937 0.51963 -0.00275
 O154 O 1.02159 0.48074 0.00454
 H155 H 1.03168 0.51333 -0.10029
 H156 H 0.96827 0.44250 0.00583
 H157 H 1.03125 0.51834 0.10228
 H158 H 0.96860 0.52632 -0.00416
 H159 H 1.01042 0.44042 -0.03239
 H160 H 1.01359 0.44408 0.05459
 H161 H 1.00350 0.48992 0.15752
 H162 H 0.98962 0.51593 0.15314
 H163 H 1.01031 0.56990 0.03147
 H164 H 0.99961 0.56212 -0.09527
 H165 H 1.00728 0.51649 -0.15600
 H166 H 0.99057 0.47555 -0.15120
 O167 O 0.44845 0.48372 0.09623
 O168 O 0.45490 0.51562 0.04795
 C169 C 0.44400 0.50043 0.08366
 O170 O 0.55297 0.51689 0.08458
 O171 O 0.54382 0.48270 0.04144
 C172 C 0.55680 0.49966 0.07262
 O173 O 0.52202 0.55220 0.09032
 O174 O 0.49059 0.54870 0.04509
 C175 C 0.50697 0.55901 0.07871
 O176 O 0.47559 0.44490 0.09114
 O177 O 0.50679 0.44838 0.04444
 C178 C 0.49054 0.43804 0.07839
 Zr179 Zr 0.47215 0.47387 0.06538
 O180 O 0.47014 0.47143 0.14418
 O181 O 0.43828 0.44318 0.05904
 Zr182 Zr 0.52593 0.52381 0.06227
 O183 O 0.52778 0.52320 0.14117
 O184 O 0.55838 0.55651 0.06012
 O185 O 0.48987 0.51079 0.07424
 O186 O 0.50828 0.48742 0.07305
 O187 O 0.47280 0.44258 -0.08279
 O188 O 0.50535 0.44711 -0.04018
 C189 C 0.48794 0.43583 -0.07133
 O190 O 0.51960 0.55009 -0.09194
 O191 O 0.48950 0.54778 -0.04299
 C192 C 0.50489 0.55721 -0.07889
 O193 O 0.55063 0.51445 -0.08917
 O194 O 0.54220 0.48130 -0.04320
 C195 C 0.55422 0.49710 -0.07700
 O196 O 0.44588 0.48184 -0.08806
 O197 O 0.45418 0.51492 -0.04159
 C198 C 0.44247 0.49937 -0.07615
 Zr199 Zr 0.47066 0.47271 -0.05964
 O200 O 0.47048 0.46996 -0.13849
 O201 O 0.43593 0.44296 -0.05588
 Zr202 Zr 0.52455 0.52252 -0.06318
 O203 O 0.52518 0.52074 -0.14212
 O204 O 0.55707 0.55518 -0.06363
 Zr205 Zr 0.48267 0.51829 0.00185
 Zr206 Zr 0.51401 0.47832 0.00091
 O207 O 0.50649 0.48590 -0.07097
 O208 O 0.48823 0.50943 -0.07101
 O209 O 0.47671 0.45746 0.00293
 O210 O 0.51997 0.53844 -0.00045
 O211 O 0.45832 0.48150 0.00350
 O212 O 0.53883 0.51510 -0.00098
 H213 H 0.51350 0.48191 0.10230
 H214 H 0.52777 0.55606 -0.00113
 H215 H 0.51066 0.47956 -0.10069
 H216 H 0.44114 0.47613 0.00433
 H217 H 0.56941 0.55422 0.03838
 H218 H 0.56907 0.55246 -0.04698
 H219 H 0.51024 0.51935 -0.15460
 H220 H 0.47436 0.48565 -0.15223
 H221 H 0.43647 0.43112 -0.03347
 H222 H 0.43258 0.43819 0.09367
 H223 H 0.48609 0.48272 0.15709
 H224 H 0.51332 0.52263 0.15473
 O225 O 0.51475 -0.03241 0.09885
 O226 O 0.48575 -0.05925 0.04676
 C227 C 0.49993 -0.05401 0.08462
 O228 O 0.47220 0.03135 0.08144
 O229 O 0.50618 0.05888 0.04169
 C230 C 0.48835 0.05314 0.07153
 O231 O 0.44296 -0.03515 0.08498
 O232 O 0.45125 -0.06036 0.04008
 C233 C 0.43912 -0.05628 0.07327
 O234 O 0.54806 0.03406 0.09656
 O235 O 0.54221 0.06022 0.04951
 C236 C 0.55304 0.05545 0.08435
 Zr237 Zr 0.52173 0.00064 0.06911
 O238 O 0.52069 0.00243 0.14800
 O239 O 0.55424 0.00068 0.07056
 Zr240 Zr 0.46891 -0.00135 0.05756
 O241 O 0.46499 0.00045 0.13567
 O242 O 0.43493 -0.00528 0.04612
 O243 O 0.48506 -0.02155 0.07264
 O244 O 0.50458 0.02016 0.07347
 O245 O 0.55549 0.03546 -0.07554
 O246 O 0.54588 0.06088 -0.03535
 C247 C 0.55938 0.05666 -0.06452
 O248 O 0.45266 -0.03332 -0.10251
 O249 O 0.45477 -0.05977 -0.04887
 C250 C 0.44679 -0.05478 -0.08866
 O251 O 0.48074 0.03297 -0.09487
 O252 O 0.51011 0.05970 -0.04330
 C253 C 0.49575 0.05456 -0.08077
 O254 O 0.52249 -0.03093 -0.08375
 O255 O 0.48931 -0.05842 -0.04180
 C256 C 0.50629 -0.05269 -0.07391
 Zr257 Zr 0.52713 0.00164 -0.05538
 O258 O 0.53222 0.00472 -0.13376
 O259 O 0.55884 0.00043 -0.04625
 Zr260 Zr 0.47433 -0.00026 -0.06680
 O261 O 0.47441 0.00175 -0.14556
 O262 O 0.43993 -0.00433 -0.06662
 Zr263 Zr 0.48135 -0.03557 -0.00013
 Zr264 Zr 0.51476 0.03588 0.00235
 O265 O 0.51082 0.02133 -0.06982
 O266 O 0.49137 -0.02025 -0.07183
 O267 O 0.53848 0.02276 0.00853
 O268 O 0.45798 -0.02209 -0.00628
 O269 O 0.51837 -0.01974 0.00696
 O270 O 0.47767 0.02065 -0.00482
 H271 H 0.50832 0.03040 0.10351
 H272 H 0.44081 -0.03374 -0.00943
 H273 H 0.51724 0.03200 -0.09913
 H274 H 0.52546 -0.03017 0.00906
 H275 H 0.43720 0.00938 0.02969
 H276 H 0.44161 0.01141 -0.05904
 H277 H 0.48939 0.00290 -0.15705
 H278 H 0.51751 -0.00792 -0.14937
 H279 H 0.56869 0.01282 -0.02150
 H280 H 0.55812 0.00061 0.10631
 H281 H 0.50488 -0.01029 0.15900
 H282 H 0.47086 -0.00942 0.15139
 C283 C 1.17569 0.52267 0.33620
 C284 C 1.17051 0.52801 0.38370
 C285 C 1.18349 0.52836 0.42522
 C286 C 1.20188 0.52282 0.42100
 C287 C 1.20826 0.51937 0.37233
 C288 C 1.19526 0.51926 0.33045
 C289 C 1.15925 0.51877 0.29455
 N290 N 1.16656 0.52259 0.24607
 N291 N 1.15112 0.51855 0.20934
 C292 C 1.12780 0.51019 0.21979
 N293 N 1.12062 0.50632 0.26816
 N294 N 1.13601 0.51059 0.30471
 C295 C 1.11016 0.50534 0.18020
 C296 C 1.08651 0.48759 0.18806
 C297 C 1.06887 0.48447 0.15452
 C298 C 1.07433 0.49925 0.11245
 C299 C 1.09822 0.51635 0.10321
 C300 C 1.11605 0.51924 0.13669
 H301 H 1.15602 0.53153 0.38903
 H302 H 1.17893 0.53312 0.46066
 H303 H 1.22207 0.51492 0.36646
 H304 H 1.19966 0.51516 0.29406
 H305 H 1.08152 0.47642 0.22097
 H306 H 1.05076 0.47100 0.16285
 H307 H 1.10303 0.52800 0.07112
 H308 H 1.13418 0.53308 0.12986
 C309 C 0.50848 0.67665 0.31827
 C310 C 0.49345 0.68642 0.31792
 C311 C 0.49020 0.69670 0.36131
 C312 C 0.50128 0.69661 0.40654
 C313 C 0.51718 0.68775 0.40562
 C314 C 0.52083 0.67813 0.36219
 C315 C 0.51035 0.66351 0.27473
 N316 N 0.52856 0.65898 0.27175
 N317 N 0.52912 0.64492 0.23609
 C318 C 0.51145 0.63465 0.20189
 N319 N 0.49343 0.63956 0.20413
 N320 N 0.49290 0.65374 0.23982
 C321 C 0.51112 0.61699 0.16593
 C322 C 0.49172 0.60391 0.13393
 C323 C 0.49060 0.58551 0.10417
 C324 C 0.50878 0.57977 0.10616
 C325 C 0.52855 0.59351 0.13667
 C326 C 0.52974 0.61188 0.16600
 H327 H 0.48381 0.68567 0.28442
 H328 H 0.47771 0.70313 0.36001
 H329 H 0.52716 0.68842 0.43848
 H330 H 0.53277 0.67102 0.36369
 H331 H 0.47710 0.60742 0.13286
 H332 H 0.47520 0.57536 0.08078
 H333 H 0.54304 0.58980 0.13871
 H334 H 0.54505 0.62165 0.18982
 C335 C 0.33907 -0.18114 0.31716
 C336 C 0.31427 -0.19331 0.32113
 C337 C 0.30303 -0.20695 0.36350
 C338 C 0.31641 -0.20797 0.40393
 C339 C 0.34134 -0.19613 0.39880
 C340 C 0.35244 -0.18319 0.35574
 C341 C 0.35113 -0.16527 0.27443
 N342 N 0.37218 -0.16214 0.25742
 N343 N 0.38391 -0.14658 0.22118
 C344 C 0.37521 -0.13330 0.20096
 N345 N 0.35409 -0.13648 0.21782
 N346 N 0.34221 -0.15228 0.25366
 C347 C 0.38931 -0.11470 0.16384
 C348 C 0.38862 -0.09337 0.16265
 C349 C 0.40427 -0.07455 0.13198
 C350 C 0.42050 -0.07694 0.10110
 C351 C 0.42006 -0.09888 0.10011
 C352 C 0.40489 -0.11742 0.13170
 H353 H 0.30358 -0.19202 0.29172
 H354 H 0.28391 -0.21526 0.36571
 H355 H 0.35242 -0.19709 0.42772
 H356 H 0.37163 -0.17404 0.35344
 H357 H 0.37678 -0.09082 0.18717
 H358 H 0.40404 -0.05795 0.13336
 H359 H 0.43205 -0.10145 0.07627
 H360 H 0.40561 -0.13377 0.13154
 C361 C 0.82800 0.49700 0.32411
 C362 C 0.80543 0.47683 0.33096
 C363 C 0.79204 0.47465 0.37382
 C364 C 0.80116 0.49246 0.41075
 C365 C 0.82342 0.51279 0.40335
 C366 C 0.83663 0.51509 0.36052
 C367 C 0.84313 0.49901 0.28072
 N368 N 0.86385 0.51954 0.27274
 N369 N 0.87847 0.52110 0.23622
 C370 C 0.87307 0.50220 0.20596
 N371 N 0.85214 0.48173 0.21332
 N372 N 0.83745 0.48017 0.24994
 C373 C 0.89056 0.50359 0.16843
 C374 C 0.88575 0.48409 0.13747
 C375 C 0.90336 0.48489 0.10587
 C376 C 0.92617 0.50509 0.10506
 C377 C 0.93059 0.52491 0.13443
 C378 C 0.91301 0.52420 0.16552
 H379 H 0.79825 0.46262 0.30354
 H380 H 0.77489 0.45882 0.37879
 H381 H 0.83068 0.52692 0.43098
 H382 H 0.85389 0.53089 0.35657
 H383 H 0.86860 0.46798 0.13856
 H384 H 0.89936 0.46939 0.08344
 H385 H 0.94787 0.54087 0.13431
 H386 H 0.91736 0.53965 0.18847
 C387 C 0.49663 0.32871 0.32790
 C388 C 0.51707 0.32688 0.33566
 C389 C 0.51930 0.31596 0.37880
 C390 C 0.50125 0.30694 0.41507
 C391 C 0.48070 0.30834 0.40677
 C392 C 0.47837 0.31901 0.36370
 C393 C 0.49455 0.34151 0.28414
 N394 N 0.47426 0.34217 0.27644
 N395 N 0.47271 0.35495 0.23941
 C396 C 0.49135 0.36764 0.20832
 N397 N 0.51155 0.36668 0.21541
 N398 N 0.51311 0.35386 0.25254
 C399 C 0.49014 0.38357 0.17027
 C400 C 0.50933 0.39704 0.13794
 C401 C 0.50901 0.41399 0.10612
 C402 C 0.48963 0.41795 0.10640
 C403 C 0.47004 0.40371 0.13703
 C404 C 0.47025 0.38667 0.16839
 H405 H 0.53145 0.33414 0.30878
 H406 H 0.53534 0.31510 0.38443
 H407 H 0.46636 0.30116 0.43378
 H408 H 0.46237 0.32001 0.35902
 H409 H 0.52488 0.39500 0.13820
 H410 H 0.52435 0.42462 0.08280
 H411 H 0.45472 0.40613 0.13779
 H412 H 0.45509 0.37653 0.19249
 C413 C 0.65909 0.17295 0.33605
 C414 C 0.66771 0.16376 0.37273
 C415 C 0.67898 0.17701 0.41521
 C416 C 0.68213 0.19990 0.42204
 C417 C 0.67407 0.20948 0.38505
 C418 C 0.66244 0.19602 0.34253
 C419 C 0.64617 0.15799 0.29238
 N420 N 0.63295 0.16364 0.26216
 N421 N 0.62018 0.14910 0.22506
 C422 C 0.62020 0.12839 0.21660
 N423 N 0.63373 0.12303 0.24634
 N424 N 0.64641 0.13748 0.28335
 C425 C 0.60466 0.11103 0.17829
 C426 C 0.60419 0.08919 0.17297
 C427 C 0.58795 0.07157 0.14115
 C428 C 0.57184 0.07534 0.11341
 C429 C 0.57300 0.09757 0.11663
 C430 C 0.58920 0.11524 0.14898
 H431 H 0.66547 0.14609 0.36912
 H432 H 0.68537 0.16937 0.44283
 H433 H 0.67637 0.22714 0.38954
 H434 H 0.65605 0.20362 0.31487
 H435 H 0.61592 0.08533 0.19453
 H436 H 0.58772 0.05475 0.13907
 H437 H 0.56078 0.10097 0.09568
 H438 H 0.58916 0.13189 0.15202
 C439 C 0.52708 0.18054 -0.32929
 C440 C 0.53547 0.17796 -0.37585
 C441 C 0.53521 0.19091 -0.41701
 C442 C 0.52609 0.20662 -0.41331
 C443 C 0.51980 0.21079 -0.36516
 C444 C 0.52025 0.19784 -0.32372
 C445 C 0.52325 0.16344 -0.28894
 N446 N 0.52194 0.16855 -0.24008
 N447 N 0.51707 0.15222 -0.20474
 C448 C 0.51294 0.13009 -0.21714
 N449 N 0.51434 0.12511 -0.26587
 N450 N 0.51945 0.14144 -0.30095
 C451 C 0.50659 0.11135 -0.17926
 C452 C 0.49160 0.08747 -0.19273
 C453 C 0.48706 0.06919 -0.15948
 C454 C 0.49777 0.07430 -0.11211
 C455 C 0.51210 0.09829 -0.09778
 C456 C 0.51628 0.11670 -0.13098
 H457 H 0.54161 0.16532 -0.38090
 H458 H 0.54204 0.18827 -0.45190
 H459 H 0.51255 0.22246 -0.35963
 H460 H 0.51377 0.20026 -0.28809
 H461 H 0.48367 0.08287 -0.22954
 H462 H 0.47595 0.05098 -0.17191
 H463 H 0.52061 0.10281 -0.06154
 H464 H 0.52792 0.13502 -0.11979
 C465 C 0.65497 0.47475 -0.32449
 C466 C 0.67976 0.48545 -0.32436
 C467 C 0.69186 0.48464 -0.36698
 C468 C 0.67949 0.47390 -0.41155
 C469 C 0.65448 0.46255 -0.41061
 C470 C 0.64242 0.46271 -0.36749
 C471 C 0.64223 0.47729 -0.28128
 N472 N 0.61971 0.46004 -0.27059
 N473 N 0.60755 0.46307 -0.23394
 C474 C 0.61731 0.48358 -0.20695
 N475 N 0.63989 0.50080 -0.21746
 N476 N 0.65216 0.49765 -0.25375
 C477 C 0.60298 0.48755 -0.16930
 C478 C 0.60650 0.51052 -0.16078
 C479 C 0.59103 0.51382 -0.12966
 C480 C 0.57217 0.49429 -0.10556
 C481 C 0.56945 0.47152 -0.11212
 C482 C 0.58452 0.46814 -0.14416
 H483 H 0.68982 0.49479 -0.29149
 H484 H 0.71105 0.49403 -0.36574
 H485 H 0.64404 0.45321 -0.44305
 H486 H 0.62325 0.45419 -0.36846
 H487 H 0.62056 0.52578 -0.17990
 H488 H 0.59354 0.53157 -0.12514
 H489 H 0.55502 0.45614 -0.09421
 H490 H 0.58150 0.45027 -0.14990
 C491 C 0.82816 0.33605 -0.32645
 C492 C 0.80361 0.32746 -0.32597
 C493 C 0.78981 0.31631 -0.36837
 C494 C 0.80037 0.31406 -0.41281
 C495 C 0.82508 0.32280 -0.41247
 C496 C 0.83862 0.33343 -0.37009
 C497 C 0.84329 0.34809 -0.28256
 N498 N 0.86525 0.35060 -0.27962
 N499 N 0.87981 0.36279 -0.24244
 C500 C 0.87313 0.37309 -0.20648
 N501 N 0.85098 0.37029 -0.20885
 N502 N 0.83631 0.35797 -0.24610
 C503 C 0.89049 0.38844 -0.16808
 C504 C 0.88543 0.40213 -0.13461
 C505 C 0.90306 0.41861 -0.10266
 C506 C 0.92610 0.42179 -0.10385
 C507 C 0.93071 0.40723 -0.13554
 C508 C 0.91316 0.39076 -0.16709
 H509 H 0.79506 0.32928 -0.29279
 H510 H 0.77106 0.31043 -0.36660
 H511 H 0.83412 0.32059 -0.44430
 H512 H 0.85749 0.33976 -0.37180
 H513 H 0.86811 0.40070 -0.13422
 H514 H 0.89889 0.42942 -0.07836
 H515 H 0.94815 0.40895 -0.13702
 H516 H 0.91767 0.38036 -0.19187
 C517 C 0.50044 -0.17138 -0.31753
 C518 C 0.51543 -0.16193 -0.35930
 C519 C 0.51177 -0.17581 -0.40189
 C520 C 0.49323 -0.19952 -0.40351
 C521 C 0.47890 -0.20943 -0.36111
 C522 C 0.48235 -0.19542 -0.31855
 C523 C 0.50292 -0.15569 -0.27479
 N524 N 0.48542 -0.16242 -0.24010
 N525 N 0.48688 -0.14738 -0.20427
 C526 C 0.50593 -0.12501 -0.20160
 N527 N 0.52358 -0.11849 -0.23575
 N528 N 0.52210 -0.13347 -0.27157
 C529 C 0.50683 -0.10742 -0.16473
 C530 C 0.52672 -0.08439 -0.16290
 C531 C 0.52680 -0.06691 -0.13215
 C532 C 0.50702 -0.07200 -0.10225
 C533 C 0.48748 -0.09529 -0.10243
 C534 C 0.48738 -0.11282 -0.13338
 H535 H 0.52955 -0.14353 -0.35986
 H536 H 0.52317 -0.16788 -0.43406
 H537 H 0.46447 -0.22770 -0.36169
 H538 H 0.47057 -0.20325 -0.28691
 H539 H 0.54208 -0.07960 -0.18624
 H540 H 0.54222 -0.04921 -0.13269
 H541 H 0.47192 -0.09979 -0.07995
 H542 H 0.47177 -0.13038 -0.13383
 C543 C 0.34071 0.52333 -0.31771
 C544 C 0.35293 0.54110 -0.35373
 C545 C 0.34114 0.54250 -0.39606
 C546 C 0.31682 0.52652 -0.40249
 C547 C 0.30436 0.50950 -0.36537
 C548 C 0.31624 0.50776 -0.32360
 C549 C 0.35372 0.52006 -0.27609
 N550 N 0.34556 0.49825 -0.25523
 N551 N 0.35807 0.49482 -0.22026
 C552 C 0.37914 0.51313 -0.20437
 N553 N 0.38712 0.53503 -0.22467
 N554 N 0.37472 0.53841 -0.26000
 C555 C 0.39380 0.50905 -0.16798
 C556 C 0.41074 0.52790 -0.13880
 C557 C 0.42578 0.52441 -0.10714
 C558 C 0.42463 0.50218 -0.10497
 C559 C 0.40729 0.48317 -0.13324
 C560 C 0.39186 0.48651 -0.16402
 H561 H 0.37181 0.55327 -0.35030
 H562 H 0.35108 0.55573 -0.42433
 H563 H 0.28564 0.49684 -0.36985
 H564 H 0.30636 0.49395 -0.29633
 H565 H 0.41252 0.54542 -0.14083
 H566 H 0.43883 0.53935 -0.08562
 H567 H 0.40587 0.46578 -0.13217
 H568 H 0.37901 0.47165 -0.18617
 C569 C 1.17413 0.65487 -0.33689
 C570 C 1.16833 0.64502 -0.38492
 C571 C 1.18122 0.65800 -0.42638
 C572 C 1.20016 0.68166 -0.42153
 C573 C 1.20696 0.69084 -0.37250
 C574 C 1.19408 0.67757 -0.33075
 C575 C 1.15806 0.64200 -0.29479
 N576 N 1.16590 0.64478 -0.24684
 N577 N 1.15081 0.63316 -0.20957
 C578 C 1.12731 0.61866 -0.21890
 N579 N 1.11959 0.61603 -0.26675
 N580 N 1.13463 0.62736 -0.30386
 C581 C 1.11002 0.60577 -0.17864
 C582 C 1.08653 0.60072 -0.18434
 C583 C 1.06908 0.58613 -0.15039
 C584 C 1.07453 0.57586 -0.11005
 C585 C 1.09831 0.58184 -0.10281
 C586 C 1.11598 0.59685 -0.13672
 H587 H 1.15347 0.62723 -0.39064
 H588 H 1.17618 0.64910 -0.46220
 H589 H 1.22110 0.70888 -0.36600
 H590 H 1.19894 0.68558 -0.29398
 H591 H 1.08150 0.60762 -0.21595
 H592 H 1.05106 0.58218 -0.15710
 H593 H 1.10312 0.57425 -0.07211
 H594 H 1.13400 0.60050 -0.13156
 C595 C 0.82835 0.50175 -0.31863
 C596 C 0.80479 0.48302 -0.32303
 C597 C 0.79134 0.48120 -0.36530
 C598 C 0.80134 0.49789 -0.40411
 C599 C 0.82449 0.51709 -0.39884
 C600 C 0.83779 0.51910 -0.35645
 C601 C 0.84368 0.50259 -0.27687
 N602 N 0.86550 0.52198 -0.27071
 N603 N 0.88027 0.52221 -0.23623
 C604 C 0.87397 0.50306 -0.20633
 N605 N 0.85196 0.48376 -0.21182
 N606 N 0.83711 0.48353 -0.24639
 C607 C 0.89150 0.50299 -0.17107
 C608 C 0.88591 0.48330 -0.14017
 C609 C 0.90337 0.48303 -0.10994
 C610 C 0.92675 0.50230 -0.11059
 C611 C 0.93203 0.52216 -0.14041
 C612 C 0.91468 0.52253 -0.17002
 H613 H 0.79695 0.46945 -0.29446
 H614 H 0.77353 0.46618 -0.36875
 H615 H 0.83249 0.53025 -0.42817
 H616 H 0.85582 0.53382 -0.35433
 H617 H 0.86819 0.46798 -0.13996
 H618 H 0.89874 0.46755 -0.08709
 H619 H 0.94975 0.53749 -0.14134
 H620 H 0.91969 0.53807 -0.19297
 C621 C 0.48568 0.31885 -0.31265
 C622 C 0.50073 0.30910 -0.31282
 C623 C 0.50393 0.29899 -0.35649
 C624 C 0.49276 0.29915 -0.40155
 C625 C 0.47693 0.30809 -0.40020
 C626 C 0.47332 0.31758 -0.35646
 C627 C 0.48372 0.33166 -0.26854
 N628 N 0.46558 0.33628 -0.26520
 N629 N 0.46490 0.34992 -0.22873
 C630 C 0.48238 0.35968 -0.19400
 N631 N 0.50034 0.35468 -0.19666
 N632 N 0.50098 0.34091 -0.23315
 C633 C 0.48267 0.37701 -0.15713
 C634 C 0.50219 0.39003 -0.12539
 C635 C 0.50351 0.40850 -0.09554
 C636 C 0.48544 0.41440 -0.09721
 C637 C 0.46539 0.40050 -0.12692
 C638 C 0.46400 0.38204 -0.15634
 H639 H 0.51040 0.30973 -0.27947
 H640 H 0.51644 0.29257 -0.35546
 H641 H 0.46688 0.30751 -0.43284
 H642 H 0.46137 0.32467 -0.35757
 H643 H 0.51683 0.38654 -0.12484
 H644 H 0.51906 0.41867 -0.07259
 H645 H 0.45095 0.40427 -0.12862
 H646 H 0.44855 0.37225 -0.17981
 C647 C 0.67163 0.17439 -0.30564
 C648 C 0.67687 0.19819 -0.30948
 C649 C 0.68702 0.21120 -0.35320
 C650 C 0.69169 0.20048 -0.39404
 C651 C 0.68714 0.17700 -0.38968
 C652 C 0.67741 0.16415 -0.34583
 C653 C 0.65886 0.15967 -0.26163
 N654 N 0.65773 0.13842 -0.25407
 N655 N 0.64458 0.12408 -0.21731
 C656 C 0.63189 0.13029 -0.18654
 N657 N 0.63330 0.15175 -0.19355
 N658 N 0.64656 0.16617 -0.23027
 C659 C 0.61539 0.11303 -0.14922
 C660 C 0.59873 0.11705 -0.12372
 C661 C 0.58115 0.09918 -0.09387
 C662 C 0.57990 0.07696 -0.08910
 C663 C 0.59739 0.07352 -0.11228
 C664 C 0.61491 0.09132 -0.14186
 H665 H 0.67273 0.20661 -0.27908
 H666 H 0.69035 0.22930 -0.35592
 H667 H 0.69075 0.16845 -0.42067
 H668 H 0.67360 0.14587 -0.34421
 H669 H 0.59863 0.13360 -0.12845
 H670 H 0.56790 0.10236 -0.07654
 H671 H 0.59711 0.05672 -0.10891
 H672 H 0.62760 0.08767 -0.16038
 C673 C 1.16894 0.49357 -0.31265
 C674 C 1.19380 0.50693 -0.31133
 C675 C 1.20713 0.51065 -0.35501
 C676 C 1.19582 0.50181 -0.40148
 C677 C 1.17087 0.48759 -0.40183
 C678 C 1.15770 0.48336 -0.35805
 C679 C 1.15447 0.49134 -0.26809
 N680 N 1.13173 0.47323 -0.26488
 N681 N 1.11773 0.47239 -0.22767
 C682 C 1.12577 0.48970 -0.19218
 N683 N 1.14867 0.50768 -0.19488
 N684 N 1.16277 0.50843 -0.23202
 C685 C 1.10911 0.48983 -0.15441
 C686 C 1.11455 0.51054 -0.12701
 C687 C 1.09724 0.51141 -0.09713
 C688 C 1.07423 0.49160 -0.09420
 C689 C 1.06934 0.47052 -0.11921
 C690 C 1.08654 0.46965 -0.14889
 H691 H 1.20292 0.51489 -0.27669
 H692 H 1.22620 0.52190 -0.35265
 H693 H 1.16132 0.47931 -0.43587
 H694 H 1.13855 0.47276 -0.36021
 H695 H 1.13180 0.52639 -0.13044
 H696 H 1.10155 0.52791 -0.07826
 H697 H 1.05191 0.45480 -0.11719
 H698 H 1.08182 0.45331 -0.16888
 C699 C 0.49844 0.66792 -0.32438
 C700 C 0.51320 0.67222 -0.36595
 C701 C 0.51040 0.68251 -0.40892
 C702 C 0.49284 0.68919 -0.41200
 C703 C 0.47856 0.68568 -0.36938
 C704 C 0.48113 0.67484 -0.32634
 C705 C 0.50095 0.65544 -0.28061
 N706 N 0.48346 0.64484 -0.24584
 N707 N 0.48513 0.63171 -0.20945
 C708 C 0.50437 0.62872 -0.20642
 N709 N 0.52201 0.63983 -0.24048
 N710 N 0.52034 0.65286 -0.27670
 C711 C 0.50549 0.61219 -0.16985
 C712 C 0.52347 0.60625 -0.17424
 C713 C 0.52352 0.58890 -0.14378
 C714 C 0.50573 0.57713 -0.10764
 C715 C 0.48841 0.58389 -0.10132
 C716 C 0.48815 0.60111 -0.13246
 H717 H 0.52685 0.66729 -0.36579
 H718 H 0.52275 0.68590 -0.43923
 H719 H 0.46458 0.69011 -0.36978
 H720 H 0.46947 0.67174 -0.29480
 H721 H 0.53720 0.61445 -0.20239
 H722 H 0.53733 0.58441 -0.14937
 H723 H 0.47475 0.57552 -0.07314
 H724 H 0.47417 0.60544 -0.12783
 C725 C 0.34436 -0.18240 -0.32845
 C726 C 0.31985 -0.19080 -0.33056
 C727 C 0.30659 -0.20389 -0.37203
 C728 C 0.31764 -0.20897 -0.41171
 C729 C 0.34179 -0.20198 -0.40760
 C730 C 0.35502 -0.18869 -0.36671
 C731 C 0.35936 -0.16530 -0.28957
 N732 N 0.38228 -0.14911 -0.30014
 N733 N 0.39570 -0.13249 -0.26703
 C734 C 0.38683 -0.13149 -0.22172
 N735 N 0.36399 -0.14788 -0.21063
 N736 N 0.35044 -0.16439 -0.24410
 C737 C 0.40158 -0.11207 -0.18674
 C738 C 0.40002 -0.11576 -0.13485
 C739 C 0.41483 -0.09719 -0.10254
 C740 C 0.43080 -0.07453 -0.12170
 C741 C 0.43195 -0.07084 -0.17348
 C742 C 0.41771 -0.08948 -0.20568
 H743 H 0.31121 -0.18612 -0.30158
 H744 H 0.28805 -0.20893 -0.37420
 H745 H 0.35066 -0.20615 -0.43695
 H746 H 0.37381 -0.18278 -0.36569
 H747 H 0.38775 -0.13308 -0.11948
 H748 H 0.41368 -0.10043 -0.06268
 H749 H 0.44426 -0.05360 -0.18921
 H750 H 0.41915 -0.08616 -0.24553
 C751 C 0.48914 -0.17484 0.32711
 C752 C 0.50712 -0.16651 0.36336
 C753 C 0.50462 -0.17992 0.40572
 C754 C 0.48419 -0.20212 0.41292
 C755 C 0.46650 -0.21108 0.37610
 C756 C 0.46886 -0.19742 0.33358
 C757 C 0.49148 -0.15920 0.28459
 N758 N 0.47315 -0.16467 0.25289
 N759 N 0.47504 -0.14937 0.21743
 C760 C 0.49530 -0.12801 0.21236
 N761 N 0.51368 -0.12285 0.24343
 N762 N 0.51181 -0.13808 0.27868
 C763 C 0.49705 -0.10982 0.17653
 C764 C 0.51572 -0.08621 0.18109
 C765 C 0.51678 -0.06836 0.15054
 C766 C 0.49936 -0.07361 0.11411
 C767 C 0.48121 -0.09739 0.10791
 C768 C 0.47991 -0.11531 0.13922
 H769 H 0.52302 -0.14929 0.35975
 H770 H 0.51867 -0.17285 0.43329
 H771 H 0.45064 -0.22825 0.38093
 H772 H 0.45474 -0.20437 0.30625
 H773 H 0.52927 -0.08128 0.20932
 H774 H 0.53119 -0.05032 0.15606
 H775 H 0.46778 -0.10208 0.07956
 H776 H 0.46542 -0.13337 0.13450
 C777 C 0.33402 0.51048 0.32819
 C778 C 0.32760 0.52826 0.32968
 C779 C 0.31625 0.53084 0.37189
 C780 C 0.31159 0.51599 0.41347
 C781 C 0.31749 0.49794 0.41154
 C782 C 0.32841 0.49508 0.36925
 C783 C 0.34743 0.50839 0.28547
 N784 N 0.34916 0.48849 0.28000
 N785 N 0.36257 0.48700 0.24415
 C786 C 0.37494 0.50537 0.21217
 N787 N 0.37299 0.52523 0.21710
 N788 N 0.35946 0.52670 0.25299
 C789 C 0.39124 0.50397 0.17512
 C790 C 0.40667 0.52365 0.14553
 C791 C 0.42346 0.52247 0.11426
 C792 C 0.42516 0.50168 0.11245
 C793 C 0.40909 0.48182 0.14054
 C794 C 0.39236 0.48292 0.17127
 H795 H 0.33159 0.54030 0.29853
 H796 H 0.31183 0.54490 0.37281
 H797 H 0.31391 0.48621 0.44316
 H798 H 0.33310 0.48121 0.36944
 H799 H 0.40621 0.54012 0.14750
 H800 H 0.43553 0.53801 0.09282
 H801 H 0.40961 0.46536 0.13944
 H802 H 0.38065 0.46731 0.19295
 C803 C 1.16888 0.67772 0.31177
 C804 C 1.15826 0.68194 0.35350
 C805 C 1.17122 0.69176 0.39722
 C806 C 1.19515 0.69791 0.39981
 C807 C 1.20615 0.69492 0.35733
 C808 C 1.19310 0.68476 0.31381
 C809 C 1.15431 0.66447 0.26805
 N810 N 1.16197 0.65367 0.23523
 N811 N 1.14790 0.63987 0.19867
 C812 C 1.12563 0.63641 0.19330
 N813 N 1.11820 0.64761 0.22555
 N814 N 1.13220 0.66128 0.26218
 C815 C 1.10896 0.61931 0.15603
 C816 C 1.08664 0.61732 0.14921
 C817 C 1.06953 0.59923 0.11955
 C818 C 1.07425 0.58264 0.09582
 C819 C 1.09702 0.58538 0.10012
 C820 C 1.11423 0.60357 0.13002
 H821 H 1.13964 0.67674 0.35319
 H822 H 1.16242 0.69403 0.42947
 H823 H 1.22456 0.69940 0.35861
 H824 H 1.20182 0.68187 0.28222
 H825 H 1.08205 0.62929 0.16810
 H826 H 1.05228 0.59784 0.11647
 H827 H 1.10118 0.57286 0.08229
 H828 H 1.13129 0.60465 0.13439
 C829 C 0.49501 0.16905 0.32161
 C830 C 0.48290 0.15871 0.36639
 C831 C 0.48732 0.17254 0.40940
 C832 C 0.50368 0.19704 0.40842
 C833 C 0.51511 0.20765 0.36335
 C834 C 0.51098 0.19373 0.32037
 C835 C 0.49183 0.15380 0.27759
 N836 N 0.50796 0.16161 0.23977
 N837 N 0.50605 0.14710 0.20234
 C838 C 0.48784 0.12422 0.20107
 N839 N 0.47151 0.11661 0.23843
 N840 N 0.47348 0.13105 0.27588
 C841 C 0.48672 0.10723 0.16237
 C842 C 0.46706 0.08407 0.16041
 C843 C 0.46714 0.06689 0.12893
 C844 C 0.48688 0.07241 0.09853
 C845 C 0.50598 0.09595 0.09815
 C846 C 0.50590 0.11320 0.12979
 H847 H 0.47051 0.13977 0.36871
 H848 H 0.47816 0.16405 0.44371
 H849 H 0.52782 0.22654 0.36188
 H850 H 0.52049 0.20223 0.28640
 H851 H 0.45185 0.07890 0.18450
 H852 H 0.45200 0.04902 0.12984
 H853 H 0.52143 0.10083 0.07503
 H854 H 0.52130 0.13090 0.13018
 C855 C 0.66560 0.49220 0.31907
 C856 C 0.66939 0.50683 0.36098
 C857 C 0.67959 0.50399 0.40426
 C858 C 0.68661 0.48676 0.40631
 C859 C 0.68365 0.47265 0.36404
 C860 C 0.67299 0.47517 0.32087
 C861 C 0.65309 0.49424 0.27490
 N862 N 0.64188 0.47592 0.24198
 N863 N 0.62906 0.47725 0.20463
 C864 C 0.62708 0.49702 0.19853
 N865 N 0.63867 0.51544 0.23094
 N866 N 0.65134 0.51407 0.26833
 C867 C 0.61123 0.49806 0.16015
 C868 C 0.61110 0.51945 0.15261
 C869 C 0.59412 0.52006 0.12212
 C870 C 0.57679 0.49933 0.09815
 C871 C 0.57777 0.47822 0.10291
 C872 C 0.59483 0.47758 0.13377
 H873 H 0.66385 0.52007 0.36091
 H874 H 0.68187 0.51515 0.43641
 H875 H 0.68895 0.45923 0.36501
 H876 H 0.67040 0.46373 0.28910
 H877 H 0.62366 0.53566 0.17163
 H878 H 0.59412 0.53673 0.11860
 H879 H 0.56470 0.46199 0.08475
 H880 H 0.59452 0.46083 0.13859
 C881 C 0.82518 0.32709 0.31800
 C882 C 0.83403 0.31846 0.35548
 C883 C 0.82071 0.30778 0.39831
 C884 C 0.79811 0.30515 0.40436
 C885 C 0.78855 0.31238 0.36583
 C886 C 0.80204 0.32343 0.32306
 C887 C 0.84087 0.34137 0.27628
 N888 N 0.83495 0.35433 0.24577
 N889 N 0.85025 0.36897 0.21166
 C890 C 0.87210 0.37124 0.20672
 N891 N 0.87775 0.35790 0.23655
 N892 N 0.86251 0.34333 0.27054
 C893 C 0.89017 0.38898 0.17230
 C894 C 0.91353 0.39315 0.17377
 C895 C 0.93126 0.41094 0.14469
 C896 C 0.92618 0.42501 0.11286
 C897 C 0.90268 0.42042 0.10990
 C898 C 0.88485 0.40266 0.13963
 H899 H 0.85171 0.32086 0.35288
 H900 H 0.82836 0.30222 0.42758
 H901 H 0.77115 0.31058 0.36997
 H902 H 0.79466 0.32974 0.29477
 H903 H 0.91836 0.38299 0.19827
 H904 H 0.94908 0.41373 0.14751
 H905 H 0.89816 0.43081 0.08542
 H906 H 0.86701 0.39985 0.13747
   
