data_POSCAR
  _audit_creation_date              2014-09-24
  _audit_creation_method            'ToBaCCo'
  _symmetry_space_group_name_H-M    'P1'
  _symmetry_Int_Tables_number       1
  _symmetry_cell_setting            triclinic
  loop_
  _symmetry_equiv_pos_as_xyz
 x,y,z
_cell_length_a 45.1660
_cell_length_b 44.5912
_cell_length_c 46.7634
_cell_angle_alpha 89.369400
_cell_angle_beta 89.892300
_cell_angle_gamma 89.821100
loop_
  _atom_site_label
  _atom_site_type_symbol
  _atom_site_fract_x
  _atom_site_fract_y
  _atom_site_fract_z
O1 O 0.33159 0.35675 0.03083
 O2 O 0.36837 0.30687 -0.01958
 O3 O 0.33287 0.35176 -0.02455
 O4 O 0.36783 0.31281 0.03533
 O5 O 0.33099 0.28038 0.03763
 O6 O 0.29364 0.32270 -0.02079
 O7 O 0.33040 0.27582 -0.01784
 O8 O 0.29386 0.32548 0.03435
 Cu9 Cu 0.35389 0.33514 0.00513
 Cu10 Cu 0.30835 0.29783 0.00839
 C11 C 0.30668 0.34959 0.04145
 C12 C 0.35594 0.28278 -0.02719
 C13 C 0.30701 0.34472 -0.03253
 C14 C 0.35573 0.28997 0.04663
 O15 O 0.68011 0.64766 0.03728
 O16 O 0.62587 0.67405 -0.01528
 O17 O 0.67171 0.63309 -0.01620
 O18 O 0.64142 0.68715 0.03435
 O19 O 0.67165 0.72146 0.01661
 O20 O 0.69795 0.66807 -0.03798
 O21 O 0.65752 0.70696 -0.03335
 O22 O 0.71382 0.67648 0.01666
 Cu23 Cu 0.65190 0.65636 0.01045
 Cu24 Cu 0.68935 0.69617 -0.01023
 C25 C 0.70654 0.65684 0.03536
 C26 C 0.63166 0.69591 -0.03200
 C27 C 0.69014 0.64085 -0.03547
 C28 C 0.65103 0.71386 0.03380
 O29 O 0.64159 0.32412 1.02236
 O30 O 0.67812 0.36455 0.96297
 O31 O 0.63962 0.32257 0.96672
 O32 O 0.67740 0.36918 1.01845
 O33 O 0.71549 0.33822 1.01940
 O34 O 0.67582 0.28917 0.96816
 O35 O 0.71507 0.33203 0.96433
 O36 O 0.67865 0.29172 1.02390
 Cu37 Cu 0.65553 0.34826 0.99262
 Cu38 Cu 0.69994 0.30945 0.99434
 C39 C 0.65375 0.30083 1.03304
 C40 C 0.70280 0.35511 0.95343
 C41 C 0.65103 0.29821 0.95835
 C42 C 0.70309 0.36248 1.02738
 O43 O 0.36161 0.67228 1.03297
 O44 O 0.31364 0.63106 0.98435
 O45 O 0.35737 0.66694 0.97777
 O46 O 0.31775 0.63619 1.03952
 O47 O 0.28498 0.67284 1.03696
 O48 O 0.32720 0.70596 0.97645
 O49 O 0.28249 0.66930 0.98204
 O50 O 0.33052 0.71055 1.03245
 Cu51 Cu 0.34071 0.64791 1.00889
 Cu52 Cu 0.30331 0.69377 1.00703
 C53 C 0.35438 0.69830 1.04121
 C54 C 0.29007 0.64298 0.97471
 C55 C 0.34910 0.69149 0.96638
 C56 C 0.29410 0.64848 1.04835
 O57 O -0.03996 0.35584 0.31114
 O58 O 0.01065 0.31421 0.35851
 O59 O 0.01660 0.35436 0.31956
 O60 O -0.04675 0.31713 0.35250
 O61 O -0.04230 0.27923 0.32295
 O62 O 0.01943 0.31923 0.28667
 O63 O 0.01463 0.27817 0.32667
 O64 O -0.03772 0.31920 0.27985
 Cu65 Cu -0.01545 0.33891 0.33858
 Cu66 Cu -0.01153 0.29531 0.30070
 C67 C -0.04697 0.34496 0.28712
 C68 C 0.02163 0.28938 0.35056
 C69 C 0.02878 0.34345 0.29756
 C70 C -0.05473 0.29134 0.34442
 O71 O -0.00872 0.62624 0.68578
 O72 O 0.04052 0.66482 0.63534
 O73 O 0.04708 0.63338 0.68193
 O74 O -0.01677 0.65738 0.63923
 O75 O -0.01836 0.70023 0.66222
 O76 O 0.04177 0.67300 0.70940
 O77 O 0.03883 0.70563 0.66154
 O78 O -0.01524 0.66822 0.70978
 Cu79 Cu 0.01588 0.64151 0.65780
 Cu80 Cu 0.01148 0.69107 0.68821
 C81 C -0.02009 0.64041 0.70646
 C82 C 0.04835 0.69167 0.63979
 C83 C 0.05428 0.64814 0.70387
 C84 C -0.02814 0.68317 0.64280
 O85 O 0.97505 0.67397 0.36267
 O86 O 1.03085 0.63374 0.32073
 O87 O 1.03247 0.66938 0.36377
 O88 O 0.97351 0.63596 0.32163
 O89 O 0.97643 0.67283 0.28981
 O90 O 1.03351 0.70888 0.33505
 O91 O 1.03390 0.67214 0.29068
 O92 O 0.97633 0.71174 0.33176
 Cu93 Cu 1.00281 0.64952 0.34523
 Cu94 Cu 1.00537 0.69525 0.30872
 C95 C 0.96611 0.69969 0.35442
 C96 C 1.04173 0.64591 0.29841
 C97 C 1.04269 0.69506 0.35735
 C98 C 0.96517 0.64819 0.29842
 O99 O 0.96762 0.32161 0.63929
 O100 O 1.02383 0.36425 0.67743
 O101 O 1.02536 0.32314 0.63979
 O102 O 0.96633 0.36233 0.67867
 O103 O 0.96790 0.32778 0.71277
 O104 O 1.02552 0.28692 0.67226
 O105 O 1.02570 0.32934 0.71127
 O106 O 0.96841 0.28629 0.67275
 Cu107 Cu 0.99548 0.34628 0.65546
 Cu108 Cu 0.99693 0.30412 0.69577
 C109 C 0.95868 0.29657 0.64908
 C110 C 1.03460 0.35411 0.70062
 C111 C 1.03539 0.29819 0.64904
 C112 C 0.95734 0.35211 0.70261
 O113 O 0.36624 0.03587 0.31793
 O114 O 0.32250 -0.02137 0.35578
 O115 O 0.36067 -0.02156 0.31395
 O116 O 0.32902 0.03641 0.35987
 O117 O 0.29193 0.04305 0.32974
 O118 O 0.32476 -0.01459 0.28259
 O119 O 0.28578 -0.01473 0.32527
 O120 O 0.32997 0.04270 0.28689
 Cu121 Cu 0.34812 0.00654 0.34000
 Cu122 Cu 0.30431 0.01466 0.30309
 C123 C 0.35586 0.04872 0.29574
 C124 C 0.29653 -0.02754 0.34735
 C125 C 0.34883 -0.02731 0.29005
 C126 C 0.30515 0.04960 0.35283
 O127 O 0.67359 -0.02921 0.63492
 O128 O 0.64079 0.02549 0.68323
 O129 O 0.68112 0.02789 0.64356
 O130 O 0.63435 -0.03104 0.67415
 O131 O 0.66832 -0.04098 0.70693
 O132 O 0.71627 0.01757 0.67493
 O133 O 0.67502 0.01555 0.71564
 O134 O 0.70845 -0.03966 0.66662
 Cu135 Cu 0.65416 -0.00041 0.65570
 Cu136 Cu 0.69571 -0.01267 0.69424
 C137 C 0.69619 -0.04419 0.64261
 C138 C 0.65155 0.02921 0.70797
 C139 C 0.70678 0.03253 0.65354
 C140 C 0.64319 -0.04594 0.69577
 O141 O 0.31393 1.03424 0.63814
 O142 O 0.35290 0.97592 0.67993
 O143 O 0.31311 0.97610 0.64009
 O144 O 0.35582 1.03396 0.67586
 O145 O 0.32249 1.03634 0.71037
 O146 O 0.27795 0.97911 0.67281
 O147 O 0.31857 0.97841 0.71349
 O148 O 0.27972 1.03715 0.67179
 Cu149 Cu 0.33733 1.00477 0.65520
 Cu150 Cu 0.29623 1.00803 0.69553
 C151 C 0.28997 1.04539 0.64765
 C152 C 0.34259 0.96744 0.70400
 C153 C 0.28811 0.96807 0.64979
 C154 C 0.34693 1.04471 0.69934
 O155 O 0.68353 1.02170 0.37101
 O156 O 0.64131 0.96636 0.33140
 O157 O 0.68416 0.96342 0.36817
 O158 O 0.64261 1.02452 0.33387
 O159 O 0.67590 1.02727 0.29929
 O160 O 0.71714 0.96457 0.33328
 O161 O 0.67328 0.96893 0.29571
 O162 O 0.71815 1.02249 0.33771
 Cu163 Cu 0.65963 0.99358 0.35454
 Cu164 Cu 0.69944 0.99584 0.31289
 C165 C 0.70797 1.03168 0.36149
 C166 C 0.64953 0.95860 0.30663
 C167 C 0.70789 0.95377 0.35689
 C168 C 0.65233 1.03671 0.31109
 C169 C 0.86483 0.76077 0.47889
 C170 C 0.87757 0.75224 0.50494
 C171 C 0.86848 0.76459 0.53089
 C172 C 0.84573 0.78653 0.53079
 C173 C 0.83325 0.79627 0.50437
 C174 C 0.84257 0.78310 0.47833
 C175 C 0.82886 0.79203 0.45264
 C176 C 0.80699 0.81412 0.45232
 C177 C 0.79806 0.82813 0.47768
 C178 C 0.81106 0.81891 0.50402
 C179 C 0.83445 0.79830 0.55636
 C180 C 0.81292 0.82064 0.55601
 C181 C 0.80154 0.83189 0.53009
 C182 C 0.78007 0.85503 0.52952
 C183 C 0.76766 0.86388 0.50339
 C184 C 0.77587 0.85056 0.47766
 H185 H 0.83472 0.78183 0.43251
 H186 H 0.79703 0.81998 0.43199
 H187 H 0.84184 0.79011 0.57700
 H188 H 0.80495 0.82863 0.57639
 H189 H 0.89539 0.73585 0.50490
 H190 H 0.75127 0.88173 0.50302
 C191 C 0.21844 0.14299 0.47003
 C192 C 0.23162 0.13347 0.49560
 C193 C 0.22381 0.14567 0.52200
 C194 C 0.20148 0.16800 0.52315
 C195 C 0.18749 0.17772 0.49745
 C196 C 0.19631 0.16552 0.47075
 C197 C 0.18352 0.17692 0.44549
 C198 C 0.16179 0.19907 0.44635
 C199 C 0.15194 0.21069 0.47250
 C200 C 0.16517 0.20026 0.49834
 C201 C 0.19347 0.18160 0.54905
 C202 C 0.17154 0.20364 0.54994
 C203 C 0.15677 0.21299 0.52496
 C204 C 0.13456 0.23549 0.52554
 C205 C 0.12130 0.24469 0.49990
 C206 C 0.12993 0.23325 0.47351
 H207 H 0.19052 0.16920 0.42470
 H208 H 0.15303 0.20720 0.42619
 H209 H 0.20436 0.17563 0.56889
 H210 H 0.16659 0.21357 0.57040
 H211 H 0.24830 0.11592 0.49497
 H212 H 0.10397 0.26160 0.50041
 C213 C 0.12971 0.79200 0.46860
 C214 C 0.11716 0.78253 0.49457
 C215 C 0.12806 0.79197 0.52090
 C216 C 0.15208 0.81221 0.52158
 C217 C 0.16481 0.82261 0.49550
 C218 C 0.15385 0.81223 0.46890
 C219 C 0.16810 0.82140 0.44353
 C220 C 0.19194 0.84111 0.44408
 C221 C 0.20266 0.85228 0.47004
 C222 C 0.18928 0.84259 0.49607
 C223 C 0.16443 0.82136 0.54761
 C224 C 0.18836 0.84087 0.54816
 C225 C 0.20088 0.85209 0.52271
 C226 C 0.22544 0.87167 0.52311
 C227 C 0.23795 0.88137 0.49727
 C228 C 0.22718 0.87197 0.47084
 H229 H 0.16133 0.81307 0.42294
 H230 H 0.20222 0.84708 0.42391
 H231 H 0.15603 0.81318 0.56790
 H232 H 0.19721 0.84668 0.56884
 H233 H 0.09863 0.76709 0.49432
 H234 H 0.25657 0.89668 0.49775
 C235 C 0.77416 0.13663 0.53441
 C236 C 0.76284 0.12429 0.50947
 C237 C 0.77065 0.13519 0.48233
 C238 C 0.79141 0.15886 0.48002
 C239 C 0.80424 0.17071 0.50525
 C240 C 0.79537 0.15969 0.53256
 C241 C 0.80712 0.17266 0.55726
 C242 C 0.82752 0.19589 0.55530
 C243 C 0.83712 0.20688 0.52857
 C244 C 0.82506 0.19446 0.50324
 C245 C 0.79868 0.17191 0.45346
 C246 C 0.81895 0.19529 0.45149
 C247 C 0.83289 0.20650 0.47599
 C248 C 0.85351 0.23029 0.47421
 C249 C 0.86575 0.24155 0.49937
 C250 C 0.85763 0.23070 0.52640
 H251 H 0.80046 0.16508 0.57837
 H252 H 0.83534 0.20538 0.57506
 H253 H 0.78835 0.16460 0.43391
 H254 H 0.82317 0.20478 0.43051
 H255 H 0.74677 0.10632 0.51133
 H256 H 0.88183 0.25954 0.49791
 C257 C 0.46565 0.86385 0.77466
 C258 C 0.49340 0.87521 0.76706
 C259 C 0.51936 0.86551 0.78052
 C260 C 0.51778 0.84344 0.80239
 C261 C 0.48979 0.83168 0.81057
 C262 C 0.46356 0.84208 0.79683
 C263 C 0.43618 0.82988 0.80514
 C264 C 0.43442 0.80849 0.82700
 C265 C 0.46004 0.79801 0.84095
 C266 C 0.48809 0.80916 0.83224
 C267 C 0.54341 0.83248 0.81596
 C268 C 0.54171 0.81060 0.83728
 C269 C 0.51442 0.79797 0.84526
 C270 C 0.51256 0.77484 0.86623
 C271 C 0.48464 0.76453 0.87467
 C272 C 0.45849 0.77616 0.86299
 H273 H 0.41582 0.83667 0.79475
 H274 H 0.41279 0.79975 0.83249
 H275 H 0.56517 0.84057 0.81016
 H276 H 0.56215 0.80389 0.84751
 H277 H 0.49481 0.89227 0.75038
 H278 H 0.48317 0.74731 0.89118
 C279 C 0.54258 0.14157 0.22569
 C280 C 0.51624 0.13128 0.23806
 C281 C 0.48878 0.14381 0.23113
 C282 C 0.48732 0.16708 0.21038
 C283 C 0.51384 0.17764 0.19728
 C284 C 0.54163 0.16512 0.20521
 C285 C 0.56764 0.17716 0.19321
 C286 C 0.56644 0.20071 0.17338
 C287 C 0.53918 0.21289 0.16457
 C288 C 0.51260 0.20132 0.17675
 C289 C 0.46027 0.18074 0.20308
 C290 C 0.45900 0.20346 0.18253
 C291 C 0.48479 0.21381 0.16888
 C292 C 0.48363 0.23704 0.14819
 C293 C 0.50990 0.24822 0.13653
 C294 C 0.53760 0.23693 0.14456
 H295 H 0.58923 0.16878 0.19938
 H296 H 0.58715 0.20942 0.16519
 H297 H 0.43976 0.17424 0.21332
 H298 H 0.43757 0.21325 0.17788
 H299 H 0.51715 0.11305 0.25361
 H300 H 0.50874 0.26600 0.12053
 C301 C 0.48074 0.20127 0.88378
 C302 C 0.50875 0.20853 0.89423
 C303 C 0.53451 0.19602 0.88284
 C304 C 0.53244 0.17541 0.86025
 C305 C 0.50411 0.16695 0.85002
 C306 C 0.47811 0.17978 0.86195
 C307 C 0.45037 0.17180 0.85088
 C308 C 0.44808 0.15129 0.82881
 C309 C 0.47347 0.13842 0.81654
 C310 C 0.50181 0.14673 0.82688
 C311 C 0.55789 0.16408 0.84685
 C312 C 0.55565 0.14504 0.82359
 C313 C 0.52787 0.13587 0.81339
 C314 C 0.52531 0.11706 0.78937
 C315 C 0.49724 0.10833 0.78010
 C316 C 0.47137 0.11846 0.79336
 H317 H 0.43010 0.18152 0.85897
 H318 H 0.42616 0.14628 0.82094
 H319 H 0.57982 0.17043 0.85383
 H320 H 0.57602 0.13784 0.81358
 H321 H 0.51060 0.22512 0.91094
 H322 H 0.49552 0.09342 0.76199
 C323 C 0.52870 0.88478 0.20745
 C324 C 0.50198 0.89366 0.21995
 C325 C 0.47468 0.88290 0.21047
 C326 C 0.47382 0.86317 0.18697
 C327 C 0.50078 0.85368 0.17415
 C328 C 0.52833 0.86424 0.18465
 C329 C 0.55475 0.85306 0.17287
 C330 C 0.55425 0.83184 0.15131
 C331 C 0.52732 0.82128 0.14042
 C332 C 0.50029 0.83256 0.15161
 C333 C 0.44694 0.85173 0.17670
 C334 C 0.44642 0.83162 0.15410
 C335 C 0.47280 0.82172 0.14124
 C336 C 0.47261 0.80019 0.11919
 C337 C 0.49953 0.78912 0.10875
 C338 C 0.52669 0.79885 0.11937
 H339 H 0.57614 0.86006 0.18069
 H340 H 0.57525 0.82364 0.14335
 H341 H 0.42600 0.85794 0.18623
 H342 H 0.42511 0.82331 0.14733
 H343 H 0.50248 0.90903 0.23778
 H344 H 0.49937 0.77189 0.09254
 C345 C 0.86431 0.53269 0.77884
 C346 C 0.87221 0.50643 0.76461
 C347 C 0.85710 0.47949 0.76903
 C348 C 0.83270 0.47867 0.78803
 C349 C 0.82417 0.50520 0.80257
 C350 C 0.84044 0.53211 0.79845
 C351 C 0.83302 0.55735 0.81467
 C352 C 0.80907 0.55681 0.83346
 C353 C 0.79094 0.53132 0.83608
 C354 C 0.79930 0.50485 0.82125
 C355 C 0.81636 0.45229 0.79254
 C356 C 0.79219 0.45182 0.81109
 C357 C 0.78334 0.47778 0.82562
 C358 C 0.75866 0.47752 0.84418
 C359 C 0.74922 0.50428 0.85648
 C360 C 0.76526 0.53102 0.85370
 H361 H 0.84598 0.57770 0.81330
 H362 H 0.80526 0.57659 0.84605
 H363 H 0.82198 0.43179 0.78156
 H364 H 0.78012 0.43102 0.81358
 H365 H 0.89052 0.50700 0.74955
 H366 H 0.72967 0.50379 0.86997
 C367 C 0.21340 0.46813 0.12929
 C368 C 0.22684 0.49554 0.12294
 C369 C 0.21992 0.52165 0.13783
 C370 C 0.19783 0.52074 0.15928
 C371 C 0.18327 0.49319 0.16549
 C372 C 0.19132 0.46671 0.15068
 C373 C 0.17793 0.43940 0.15842
 C374 C 0.15636 0.43815 0.17961
 C375 C 0.14751 0.46411 0.19408
 C376 C 0.16140 0.49185 0.18731
 C377 C 0.19070 0.54618 0.17538
 C378 C 0.16923 0.54486 0.19676
 C379 C 0.15405 0.51805 0.20285
 C380 C 0.13246 0.51635 0.22475
 C381 C 0.11873 0.48894 0.23077
 C382 C 0.12592 0.46290 0.21593
 H383 H 0.18421 0.41856 0.14845
 H384 H 0.14706 0.41644 0.18485
 H385 H 0.20194 0.56728 0.17188
 H386 H 0.16499 0.56502 0.20876
 H387 H 0.24363 0.49643 0.10631
 H388 H 0.10191 0.48785 0.24736
 C389 C 0.80688 0.47907 0.10338
 C390 C 0.80104 0.50629 0.08919
 C391 C 0.81183 0.53352 0.09929
 C392 C 0.83031 0.53372 0.12361
 C393 C 0.83679 0.50639 0.13816
 C394 C 0.82464 0.47900 0.12834
 C395 C 0.82956 0.45263 0.14441
 C396 C 0.84668 0.45291 0.16914
 C397 C 0.85984 0.47951 0.17867
 C398 C 0.85463 0.50662 0.16317
 C399 C 0.84216 0.56061 0.13388
 C400 C 0.85988 0.56081 0.15816
 C401 C 0.86651 0.53410 0.17307
 C402 C 0.88397 0.53420 0.19812
 C403 C 0.88902 0.50729 0.21296
 C404 C 0.87719 0.48007 0.20385
 H405 H 0.81976 0.43154 0.13837
 H406 H 0.84915 0.43204 0.18089
 H407 H 0.83783 0.58182 0.12317
 H408 H 0.86799 0.58225 0.16534
 H409 H 0.78675 0.50644 0.07056
 H410 H 0.90265 0.50753 0.23205
 C411 C 0.20998 0.46195 0.88452
 C412 C 0.22232 0.48855 0.89452
 C413 C 0.21575 0.51638 0.88207
 C414 C 0.19534 0.51804 0.85923
 C415 C 0.18165 0.49137 0.84948
 C416 C 0.18907 0.46318 0.86209
 C417 C 0.17639 0.43700 0.85110
 C418 C 0.15615 0.43840 0.82876
 C419 C 0.14817 0.46599 0.81617
 C420 C 0.16156 0.49271 0.82617
 C421 C 0.18921 0.54534 0.84514
 C422 C 0.16996 0.54655 0.82194
 C423 C 0.15577 0.52058 0.81223
 C424 C 0.13673 0.52143 0.78828
 C425 C 0.12288 0.49512 0.77946
 C426 C 0.12812 0.46751 0.79299
 H427 H 0.18218 0.41505 0.85942
 H428 H 0.14743 0.41746 0.82100
 H429 H 0.19969 0.56597 0.85160
 H430 H 0.16652 0.56806 0.81155
 H431 H 0.23830 0.48745 0.91181
 H432 H 0.10773 0.49617 0.76148
 C433 C 0.31066 0.38656 0.08050
 C434 C 0.29274 0.36985 0.06213
 C435 C 0.26188 0.37391 0.06262
 C436 C 0.24916 0.39560 0.08045
 C437 C 0.26752 0.41244 0.09871
 C438 C 0.29813 0.40742 0.09892
 C439 C 0.25517 0.43486 0.11569
 C440 C 0.22484 0.44150 0.11410
 C441 C 0.20663 0.42475 0.09600
 C442 C 0.21864 0.40162 0.07959
 H443 H 0.24802 0.36126 0.04822
 H444 H 0.31245 0.42020 0.11276
 H445 H 0.26930 0.44802 0.12943
 H446 H 0.20426 0.38912 0.06557
 H447 H 0.33447 0.38357 0.08049
 H448 H 0.18328 0.43001 0.09418
 C449 C 0.72237 0.63614 0.08246
 C450 C 0.72898 0.64241 0.05369
 C451 C 0.75416 0.62946 0.04113
 C452 C 0.77116 0.60834 0.05651
 C453 C 0.76369 0.60138 0.08522
 C454 C 0.73993 0.61621 0.09830
 C455 C 0.77875 0.57825 0.09973
 C456 C 0.80044 0.56134 0.08562
 C457 C 0.80830 0.56879 0.05741
 C458 C 0.79406 0.59244 0.04306
 H459 H 0.75885 0.63367 0.01869
 H460 H 0.73388 0.61110 0.12024
 H461 H 0.77236 0.57210 0.12138
 H462 H 0.79998 0.59733 0.02104
 H463 H 0.70283 0.64571 0.09231
 H464 H 0.82484 0.55570 0.04626
 C465 C 0.74866 0.37111 0.92757
 C466 C 0.71765 0.37162 0.92994
 C467 C 0.70106 0.38928 0.91069
 C468 C 0.71535 0.40753 0.89031
 C469 C 0.74664 0.40827 0.88929
 C470 C 0.76306 0.38940 0.90749
 C471 C 0.76093 0.42923 0.87144
 C472 C 0.74431 0.44968 0.85493
 C473 C 0.71331 0.44726 0.85452
 C474 C 0.69892 0.42627 0.87200
 H475 H 0.67710 0.38947 0.91211
 H476 H 0.78704 0.38953 0.90688
 H477 H 0.78482 0.43134 0.87223
 H478 H 0.67494 0.42580 0.87230
 H479 H 0.76186 0.35754 0.94210
 H480 H 0.70018 0.46300 0.84207
 C481 C 0.24051 0.62843 0.95519
 C482 C 0.27148 0.62552 0.95507
 C483 C 0.28482 0.60414 0.93738
 C484 C 0.26751 0.58482 0.92102
 C485 C 0.23626 0.58667 0.92239
 C486 C 0.22299 0.60902 0.93907
 C487 C 0.21901 0.56534 0.90807
 C488 C 0.23281 0.54239 0.89250
 C489 C 0.26379 0.54178 0.89015
 C490 C 0.28101 0.56284 0.90423
 H491 H 0.30875 0.60203 0.93691
 H492 H 0.19910 0.61094 0.94027
 H493 H 0.19510 0.56564 0.91013
 H494 H 0.30492 0.56127 0.90282
 H495 H 0.22982 0.64483 0.96869
 H496 H 0.27468 0.52414 0.87831
 C497 C 0.04269 0.24213 0.37166
 C498 C 0.04267 0.27357 0.36949
 C499 C 0.06226 0.29013 0.38631
 C500 C 0.08113 0.27559 0.40577
 C501 C 0.08007 0.24401 0.40893
 C502 C 0.06107 0.22745 0.39145
 C503 C 0.09729 0.22977 0.43015
 C504 C 0.11573 0.24678 0.44785
 C505 C 0.11761 0.27794 0.44352
 C506 C 0.10045 0.29224 0.42270
 H507 H 0.06260 0.31439 0.38439
 H508 H 0.06008 0.20324 0.39340
 H509 H 0.09549 0.20577 0.43368
 H510 H 0.10169 0.31641 0.42039
 H511 H 0.02774 0.22902 0.35877
 H512 H 0.13163 0.29135 0.45710
 C513 C 0.08475 0.68928 0.59972
 C514 C 0.06799 0.70669 0.61875
 C515 C 0.06855 0.73815 0.61602
 C516 C 0.08461 0.75193 0.59368
 C517 C 0.10085 0.73403 0.57437
 C518 C 0.10118 0.70281 0.57788
 C519 C 0.11580 0.74752 0.55134
 C520 C 0.11453 0.77867 0.54703
 C521 C 0.09861 0.79644 0.56636
 C522 C 0.08394 0.78319 0.58967
 H523 H 0.05552 0.75178 0.63042
 H524 H 0.11356 0.68880 0.56329
 H525 H 0.12789 0.73376 0.53628
 H526 H 0.07153 0.79730 0.60415
 H527 H 0.08481 0.66504 0.60146
 H528 H 0.09715 0.82048 0.56308
 C529 C 0.94329 0.74742 0.37161
 C530 C 0.94433 0.71592 0.37204
 C531 C 0.92594 0.69997 0.39102
 C532 C 0.90787 0.71524 0.41044
 C533 C 0.90816 0.74695 0.41099
 C534 C 0.92542 0.76284 0.39103
 C535 C 0.89234 0.76208 0.43234
 C536 C 0.87629 0.74580 0.45301
 C537 C 0.87497 0.71442 0.45138
 C538 C 0.89055 0.69924 0.43021
 H539 H 0.92636 0.67565 0.39126
 H540 H 0.92579 0.78713 0.39100
 H541 H 0.89373 0.78628 0.43384
 H542 H 0.88995 0.67495 0.42997
 H543 H 0.95728 0.76015 0.35711
 H544 H 0.86283 0.70162 0.46732
 C545 C 0.93902 0.24762 0.63172
 C546 C 0.93763 0.27909 0.63192
 C547 C 0.91799 0.29405 0.61338
 C548 C 0.90095 0.27796 0.59384
 C549 C 0.90369 0.24639 0.59256
 C550 C 0.92230 0.23138 0.61205
 C551 C 0.88862 0.23063 0.57118
 C552 C 0.87049 0.24608 0.55149
 C553 C 0.86697 0.27726 0.55386
 C554 C 0.88208 0.29308 0.57479
 H555 H 0.91663 0.31833 0.61359
 H556 H 0.92454 0.20719 0.61156
 H557 H 0.89172 0.20662 0.56920
 H558 H 0.87960 0.31724 0.57562
 H559 H 0.95412 0.23569 0.64579
 H560 H 0.85313 0.28950 0.53882
 C561 C 0.37278 0.07205 0.24967
 C562 C 0.37485 0.06982 0.27959
 C563 C 0.39713 0.08564 0.29381
 C564 C 0.41800 0.10243 0.27830
 C565 C 0.41683 0.10322 0.24807
 C566 C 0.39373 0.08848 0.23400
 C567 C 0.43934 0.11781 0.23252
 C568 C 0.46262 0.13204 0.24691
 C569 C 0.46276 0.13219 0.27694
 C570 C 0.44070 0.11749 0.29252
 H571 H 0.39871 0.08420 0.31692
 H572 H 0.39233 0.08900 0.21087
 H573 H 0.43937 0.11723 0.20935
 H574 H 0.44181 0.11726 0.31566
 H575 H 0.35582 0.05991 0.23831
 H576 H 0.48059 0.14296 0.28835
 C577 C 0.63607 0.04202 0.75776
 C578 C 0.63518 0.04821 0.72825
 C579 C 0.61526 0.06989 0.71775
 C580 C 0.59504 0.08375 0.73611
 C581 C 0.59476 0.07604 0.76554
 C582 C 0.61594 0.05580 0.77628
 C583 C 0.57256 0.08776 0.78334
 C584 C 0.55100 0.10731 0.77202
 C585 C 0.55227 0.11571 0.74304
 C586 C 0.57412 0.10407 0.72522
 H587 H 0.61456 0.07494 0.69502
 H588 H 0.61623 0.04978 0.79879
 H589 H 0.57140 0.08099 0.80565
 H590 H 0.57412 0.11029 0.70275
 H591 H 0.65116 0.02525 0.76627
 H592 H 0.53574 0.13072 0.73405
 C593 C 0.35744 0.94580 0.75148
 C594 C 0.35948 0.94553 0.72149
 C595 C 0.37955 0.92583 0.70840
 C596 C 0.39837 0.90765 0.72503
 C597 C 0.39733 0.90928 0.75521
 C598 C 0.37631 0.92794 0.76822
 C599 C 0.41818 0.89329 0.77173
 C600 C 0.43988 0.87564 0.75835
 C601 C 0.43969 0.87302 0.72844
 C602 C 0.41910 0.88883 0.71191
 H603 H 0.38109 0.92527 0.68527
 H604 H 0.37503 0.92936 0.79131
 H605 H 0.41855 0.89574 0.79477
 H606 H 0.42008 0.88716 0.68883
 H607 H 0.34214 0.96084 0.76203
 H608 H 0.45640 0.85965 0.71782
 C609 C 0.61264 0.91741 0.30574
 C610 C 0.63033 0.93803 0.29059
 C611 C 0.62685 0.94109 0.26081
 C612 C 0.60447 0.92512 0.24669
 C613 C 0.58619 0.90519 0.26246
 C614 C 0.59098 0.90092 0.29178
 C615 C 0.56250 0.89091 0.24899
 C616 C 0.55637 0.89661 0.22005
 C617 C 0.57494 0.91584 0.20426
 C618 C 0.59900 0.92980 0.21742
 H619 H 0.64019 0.95721 0.24904
 H620 H 0.57723 0.88567 0.30413
 H621 H 0.54804 0.87623 0.26124
 H622 H 0.61267 0.94502 0.20497
 H623 H 0.61507 0.91464 0.32867
 H624 H 0.57027 0.92067 0.18197
 C625 C 0.36988 0.23134 0.95642
 C626 C 0.37232 0.26263 0.95365
 C627 C 0.39322 0.27484 0.93464
 C628 C 0.41278 0.25622 0.91985
 C629 C 0.41150 0.22477 0.92398
 C630 C 0.38943 0.21251 0.94174
 C631 C 0.43304 0.20641 0.91122
 C632 C 0.45549 0.21929 0.89430
 C633 C 0.45569 0.25039 0.88940
 C634 C 0.43450 0.26872 0.90203
 H635 H 0.39501 0.29899 0.93222
 H636 H 0.38795 0.18847 0.94502
 H637 H 0.43305 0.18241 0.91519
 H638 H 0.43564 0.29276 0.89854
 H639 H 0.35393 0.22154 0.97107
 H640 H 0.47291 0.26055 0.87640
 C641 C 0.58319 0.72148 0.96778
 C642 C 0.60741 0.71048 0.95225
 C643 C 0.60877 0.71510 0.92253
 C644 C 0.58562 0.73030 0.90835
 C645 C 0.56177 0.74211 0.92438
 C646 C 0.56075 0.73755 0.95404
 C647 C 0.53903 0.75789 0.91049
 C648 C 0.53878 0.76092 0.88055
 C649 C 0.56198 0.74814 0.86465
 C650 C 0.58556 0.73358 0.87846
 H651 H 0.62748 0.70652 0.91056
 H652 H 0.54252 0.74626 0.96659
 H653 H 0.52105 0.76728 0.92296
 H654 H 0.60336 0.72426 0.86575
 H655 H 0.58211 0.71835 0.99078
 H656 H 0.56172 0.74921 0.84150
 C657 C 0.39394 0.69695 0.07812
 C658 C 0.37449 0.71398 0.06098
 C659 C 0.37609 0.74550 0.06157
 C660 C 0.39807 0.75968 0.07791
 C661 C 0.41795 0.74208 0.09440
 C662 C 0.41528 0.71084 0.09483
 C663 C 0.44105 0.75584 0.10922
 C664 C 0.44513 0.78698 0.10741
 C665 C 0.42497 0.80452 0.09161
 C666 C 0.40142 0.79100 0.07717
 H667 H 0.36131 0.75883 0.04830
 H668 H 0.43029 0.69706 0.10742
 H669 H 0.45672 0.74223 0.12125
 H670 H 0.38649 0.80491 0.06463
 H671 H 0.39295 0.67267 0.07826
 H672 H 0.42804 0.82854 0.08972
 C673 C 0.63799 0.25236 0.05556
 C674 C 0.63818 0.28385 0.05572
 C675 C 0.62157 0.29909 0.07639
 C676 C 0.60392 0.28314 0.09600
 C677 C 0.60235 0.25150 0.09460
 C678 C 0.62001 0.23629 0.07470
 C679 C 0.58212 0.23586 0.11213
 C680 C 0.56376 0.25156 0.13115
 C681 C 0.56697 0.28276 0.13360
 C682 C 0.58682 0.29843 0.11617
 H683 H 0.62190 0.32341 0.07677
 H684 H 0.61931 0.21205 0.07341
 H685 H 0.57944 0.21186 0.10984
 H686 H 0.58796 0.32263 0.11773
 H687 H 0.65067 0.24024 0.03973
 H688 H 0.55288 0.29521 0.14804
 C689 C 0.24235 0.06888 0.63162
 C690 C 0.27337 0.06717 0.62978
 C691 C 0.28822 0.08461 0.60912
 C692 C 0.27226 0.10252 0.58967
 C693 C 0.24094 0.10282 0.59063
 C694 C 0.22624 0.08642 0.61209
 C695 C 0.22495 0.11846 0.56940
 C696 C 0.23995 0.13400 0.54747
 C697 C 0.27105 0.13477 0.54764
 C698 C 0.28707 0.11918 0.56853
 H699 H 0.31218 0.08363 0.60772
 H700 H 0.20229 0.08652 0.61331
 H701 H 0.20097 0.11741 0.56912
 H702 H 0.31104 0.11938 0.56760
 H703 H 0.23045 0.05558 0.64736
 H704 H 0.28294 0.14653 0.53082
 C705 C 0.75389 0.05803 0.37364
 C706 C 0.72346 0.05267 0.37783
 C707 C 0.70857 0.06810 0.39969
 C708 C 0.72377 0.08747 0.41775
 C709 C 0.75474 0.09080 0.41499
 C710 C 0.76952 0.07644 0.39247
 C711 C 0.77029 0.10764 0.43533
 C712 C 0.75490 0.12191 0.45763
 C713 C 0.72386 0.12017 0.45863
 C714 C 0.70846 0.10287 0.43910
 H715 H 0.68494 0.06510 0.40276
 H716 H 0.79319 0.07908 0.38968
 H717 H 0.79425 0.10867 0.43452
 H718 H 0.68464 0.10093 0.44115
 H719 H 0.76596 0.04675 0.35683
 H720 H 0.71160 0.13117 0.47549
 C721 C 0.68797 0.91679 0.60615
 C722 C 0.70780 0.93286 0.62320
 C723 C 0.73838 0.92787 0.62042
 C724 C 0.74909 0.90802 0.59965
 C725 C 0.72886 0.89219 0.58242
 C726 C 0.69838 0.89633 0.58618
 C727 C 0.73936 0.87343 0.56085
 C728 C 0.76983 0.87101 0.55542
 C729 C 0.78987 0.88663 0.57266
 C730 C 0.77961 0.90464 0.59492
 H731 H 0.75375 0.94046 0.63337
 H732 H 0.68261 0.88440 0.57312
 H733 H 0.72381 0.86164 0.54740
 H734 H 0.79545 0.91675 0.60773
 H735 H 0.66430 0.92022 0.60820
 H736 H 0.81342 0.88551 0.56837
 C737 C 0.24742 0.95366 0.36477
 C738 C 0.27845 0.95121 0.36441
 C739 C 0.29233 0.93027 0.38264
 C740 C 0.27566 0.91316 0.40214
 C741 C 0.24459 0.91700 0.40356
 C742 C 0.23062 0.93677 0.38428
 C743 C 0.22832 0.90207 0.42505
 C744 C 0.24281 0.88330 0.44495
 C745 C 0.27345 0.87854 0.44238
 C746 C 0.28974 0.89328 0.42115
 H747 H 0.31625 0.92803 0.38235
 H748 H 0.20683 0.93988 0.38489
 H749 H 0.20475 0.90612 0.42719
 H750 H 0.31350 0.88993 0.42024
 H751 H 0.23626 0.96969 0.35094
 H752 H 0.28494 0.86422 0.45762
 C753 C 0.07805 0.38787 0.69810
 C754 C 0.05756 0.37187 0.71491
 C755 C 0.05760 0.37531 0.74474
 C756 C 0.07683 0.39604 0.75745
 C757 C 0.09692 0.41246 0.74015
 C758 C 0.09782 0.40769 0.71063
 C759 C 0.11484 0.43443 0.75237
 C760 C 0.11246 0.44098 0.78156
 C761 C 0.09281 0.42435 0.79878
 C762 C 0.07539 0.40177 0.78688
 H763 H 0.04157 0.36327 0.75774
 H764 H 0.11308 0.42010 0.69709
 H765 H 0.12981 0.44740 0.73898
 H766 H 0.06004 0.38957 0.80048
 H767 H 0.07838 0.38537 0.67508
 H768 H 0.09037 0.42946 0.82125
 C769 C 0.06365 0.63277 0.25104
 C770 C 0.06264 0.62856 0.28084
 C771 C 0.07947 0.60549 0.29350
 C772 C 0.09574 0.58566 0.27652
 C773 C 0.09517 0.58885 0.24639
 C774 C 0.07970 0.61297 0.23391
 C775 C 0.10883 0.56706 0.22934
 C776 C 0.12313 0.54233 0.24213
 C777 C 0.12489 0.54029 0.27206
 C778 C 0.11135 0.56180 0.28914
 H779 H 0.07902 0.60230 0.31652
 H780 H 0.07919 0.61590 0.21088
 H781 H 0.10708 0.56846 0.20624
 H782 H 0.11217 0.55916 0.31219
 H783 H 0.05077 0.65041 0.24088
 H784 H 0.13577 0.52129 0.28220
 C785 C 0.93954 0.36094 0.23737
 C786 C 0.93537 0.36348 0.26704
 C787 C 0.91693 0.38630 0.27751
 C788 C 0.90420 0.40742 0.25878
 C789 C 0.91002 0.40586 0.22910
 C790 C 0.92708 0.38205 0.21855
 C791 C 0.89984 0.42886 0.21076
 C792 C 0.88364 0.45312 0.22178
 C793 C 0.87674 0.45356 0.25107
 C794 C 0.88691 0.43093 0.26942
 H795 H 0.91344 0.38830 0.30036
 H796 H 0.93160 0.38034 0.19586
 H797 H 0.90561 0.42864 0.18825
 H798 H 0.88208 0.43236 0.29207
 H799 H 0.95377 0.34359 0.22886
 H800 H 0.86434 0.47213 0.25990
 C801 C 0.97640 0.60031 0.74289
 C802 C 0.96237 0.62336 0.72739
 C803 C 0.93156 0.62697 0.72927
 C804 C 0.91461 0.60619 0.74512
 C805 C 0.92894 0.58235 0.75985
 C806 C 0.95987 0.58018 0.75933
 C807 C 0.91211 0.55987 0.77319
 C808 C 0.88112 0.56021 0.77127
 C809 C 0.86693 0.58456 0.75772
 C810 C 0.88355 0.60759 0.74502
 H811 H 0.92075 0.64455 0.71691
 H812 H 0.97117 0.56206 0.77048
 H813 H 0.92310 0.54095 0.78342
 H814 H 0.87215 0.62562 0.73385
 H815 H 1.00018 0.59732 0.74146
 H816 H 0.84305 0.58494 0.75571
 C817 C 0.70364 0.58886 0.95705
 C818 C 0.70279 0.61880 0.94714
 C819 C 0.71589 0.62595 0.92050
 C820 C 0.72893 0.60328 0.90388
 C821 C 0.73131 0.57391 0.91520
 C822 C 0.71862 0.56693 0.94173
 C823 C 0.74546 0.55157 0.89947
 C824 C 0.75470 0.55695 0.87111
 C825 C 0.75060 0.58583 0.85928
 C826 C 0.73891 0.60908 0.87589
 H827 H 0.71489 0.64874 0.91223
 H828 H 0.71979 0.54432 0.95043
 H829 H 0.74820 0.52945 0.90898
 H830 H 0.73655 0.63126 0.86646
 H831 H 0.69402 0.58256 0.97748
 H832 H 0.75607 0.59036 0.83711
 C833 C 0.31031 0.38236 0.92969
 C834 C 0.29317 0.36246 0.94644
 C835 C 0.26208 0.36302 0.94357
 C836 C 0.24840 0.38523 0.92649
 C837 C 0.26608 0.40542 0.91045
 C838 C 0.29691 0.40314 0.91145
 C839 C 0.25282 0.42884 0.89503
 C840 C 0.22217 0.43358 0.89651
 C841 C 0.20450 0.41335 0.91214
 C842 C 0.21748 0.38894 0.92657
 H843 H 0.24849 0.34808 0.95645
 H844 H 0.31072 0.41846 0.89923
 H845 H 0.26652 0.44461 0.88318
 H846 H 0.20353 0.37389 0.93891
 H847 H 0.33426 0.38221 0.93095
 H848 H 0.18085 0.41698 0.91385
 C849 C 0.24721 0.64000 0.07356
 C850 C 0.27757 0.63387 0.06976
 C851 C 0.29058 0.61044 0.08580
 C852 C 0.27326 0.59169 0.10313
 C853 C 0.24226 0.59590 0.10430
 C854 C 0.22960 0.62083 0.09033
 C855 C 0.22450 0.57411 0.11789
 C856 C 0.23767 0.54861 0.13053
 C857 C 0.26867 0.54632 0.13152
 C858 C 0.28634 0.56759 0.11784
 H859 H 0.31412 0.60593 0.08396
 H860 H 0.20594 0.62479 0.09140
 H861 H 0.20058 0.57589 0.11693
 H862 H 0.31013 0.56436 0.11753
 H863 H 0.23657 0.65814 0.06185
 H864 H 0.27913 0.52687 0.14130
 C865 C 0.70178 0.40737 0.05652
 C866 C 0.71765 0.38281 0.04535
 C867 C 0.74829 0.38057 0.05102
 C868 C 0.76295 0.40356 0.06582
 C869 C 0.74657 0.42823 0.07620
 C870 C 0.71599 0.42955 0.07200
 C871 C 0.76109 0.45188 0.08968
 C872 C 0.79200 0.45185 0.09236
 C873 C 0.80829 0.42723 0.08227
 C874 C 0.79384 0.40307 0.06941
 H875 H 0.76101 0.36199 0.04257
 H876 H 0.70313 0.44828 0.07991
 H877 H 0.74845 0.47094 0.09727
 H878 H 0.80689 0.38449 0.06149
 H879 H 0.67818 0.40977 0.05304
 H880 H 0.83221 0.42704 0.08382
 C881 C 0.93504 0.67266 0.60619
 C882 C 0.94910 0.69302 0.62453
 C883 C 0.94117 0.72362 0.62288
 C884 C 0.92121 0.73388 0.60192
 C885 C 0.90746 0.71312 0.58365
 C886 C 0.91403 0.68253 0.58638
 C887 C 0.88849 0.72336 0.56198
 C888 C 0.88424 0.75423 0.55715
 C889 C 0.89818 0.77477 0.57526
 C890 C 0.91594 0.76467 0.59790
 H891 H 0.95191 0.73976 0.63657
 H892 H 0.90374 0.66635 0.57246
 H893 H 0.87812 0.70736 0.54788
 H894 H 0.92660 0.78097 0.61143
 H895 H 0.94032 0.64895 0.60702
 H896 H 0.89598 0.79867 0.57141
 C897 C 0.92139 0.24446 0.35949
 C898 C 0.92391 0.27590 0.36068
 C899 C 0.90700 0.29149 0.38106
 C900 C 0.89012 0.27602 0.40148
 C901 C 0.89024 0.24434 0.40205
 C902 C 0.90507 0.22878 0.38032
 C903 C 0.87680 0.22899 0.42508
 C904 C 0.86266 0.24511 0.44698
 C905 C 0.86073 0.27650 0.44476
 C906 C 0.87447 0.29184 0.42234
 H907 H 0.90785 0.31578 0.38183
 H908 H 0.90497 0.20449 0.38007
 H909 H 0.87862 0.20479 0.42675
 H910 H 0.87381 0.31614 0.42193
 H911 H 0.93382 0.23176 0.34389
 H912 H 0.84976 0.28926 0.46130
 C913 C 0.06179 0.25192 0.63674
 C914 C 0.05686 0.28293 0.63291
 C915 C 0.07275 0.29826 0.61138
 C916 C 0.09190 0.28281 0.59307
 C917 C 0.09451 0.25128 0.59532
 C918 C 0.07996 0.23615 0.61773
 C919 C 0.11047 0.23550 0.57434
 C920 C 0.12440 0.25114 0.55176
 C921 C 0.12385 0.28267 0.55150
 C922 C 0.10752 0.29835 0.57176
 H923 H 0.07004 0.32230 0.60859
 H924 H 0.08206 0.21204 0.62014
 H925 H 0.11057 0.21119 0.57462
 H926 H 0.10621 0.32258 0.57008
 H927 H 0.05019 0.23946 0.65330
 H928 H 0.13456 0.29512 0.53438
 C929 C 0.07683 0.69049 0.39736
 C930 C 0.06338 0.70817 0.37580
 C931 C 0.06945 0.73921 0.37473
 C932 C 0.08665 0.75252 0.39623
 C933 C 0.09944 0.73434 0.41789
 C934 C 0.09503 0.70335 0.41782
 C935 C 0.11522 0.74751 0.44019
 C936 C 0.11741 0.77880 0.44208
 C937 C 0.10482 0.79687 0.42046
 C938 C 0.09003 0.78380 0.39741
 H939 H 0.05918 0.75329 0.35848
 H940 H 0.10471 0.68913 0.43429
 H941 H 0.12464 0.73347 0.45696
 H942 H 0.08019 0.79820 0.38120
 H943 H 0.07310 0.66652 0.39869
 H944 H 0.10574 0.82107 0.42185
 C945 C 0.60639 0.91346 0.68996
 C946 C 0.62336 0.93135 0.70815
 C947 C 0.61885 0.92969 0.73783
 C948 C 0.59615 0.91165 0.74913
 C949 C 0.57880 0.89411 0.73053
 C950 C 0.58458 0.89460 0.70110
 C951 C 0.55496 0.87758 0.74144
 C952 C 0.54750 0.87906 0.77051
 C953 C 0.56492 0.89625 0.78896
 C954 C 0.58938 0.91206 0.77842
 H955 H 0.63163 0.94389 0.75184
 H956 H 0.57145 0.88134 0.68659
 H957 H 0.54128 0.86462 0.72712
 H958 H 0.60226 0.92555 0.79295
 H959 H 0.60968 0.91455 0.66702
 H960 H 0.55907 0.89807 0.81134
 C961 C 0.36300 0.95718 0.24057
 C962 C 0.36461 0.95248 0.27029
 C963 C 0.38471 0.93120 0.28124
 C964 C 0.40441 0.91630 0.26301
 C965 C 0.40407 0.92264 0.23330
 C966 C 0.38265 0.94244 0.22220
 C967 C 0.42608 0.91029 0.21557
 C968 C 0.44818 0.89162 0.22732
 C969 C 0.44724 0.88426 0.25658
 C970 C 0.42554 0.89642 0.27427
 H971 H 0.38598 0.92730 0.30414
 H972 H 0.38187 0.94743 0.19949
 H973 H 0.42693 0.91629 0.19306
 H974 H 0.42599 0.89118 0.29695
 H975 H 0.34778 0.97360 0.23168
 H976 H 0.46416 0.86996 0.26593
 C977 C 0.61973 0.08109 0.31684
 C978 C 0.63563 0.06207 0.29861
 C979 C 0.63362 0.06626 0.26883
 C980 C 0.61415 0.08794 0.25740
 C981 C 0.59761 0.10631 0.27608
 C982 C 0.60117 0.10327 0.30569
 C983 C 0.57631 0.12606 0.26502
 C984 C 0.57026 0.12690 0.23562
 C985 C 0.58742 0.10950 0.21698
 C986 C 0.60955 0.09044 0.22777
 H987 H 0.64572 0.05149 0.25468
 H988 H 0.58866 0.11721 0.32025
 H989 H 0.56285 0.13927 0.27945
 H990 H 0.62194 0.07654 0.21311
 H991 H 0.62127 0.07840 0.33985
 H992 H 0.58269 0.10957 0.19428
 C993 C 0.38441 0.08532 0.69778
 C994 C 0.36628 0.06611 0.71407
 C995 C 0.36990 0.06459 0.74390
 C996 C 0.39297 0.08044 0.75702
 C997 C 0.41176 0.09886 0.74018
 C998 C 0.40671 0.10185 0.71076
 C999 C 0.43626 0.11269 0.75270
 C1000 C 0.44275 0.10786 0.78171
 C1001 C 0.42363 0.09022 0.79854
 C1002 C 0.39873 0.07685 0.78636
 H1003 H 0.35625 0.04945 0.75651
 H1004 H 0.42086 0.11592 0.69758
 H1005 H 0.45113 0.12613 0.73964
 H1006 H 0.38467 0.06276 0.79960
 H1007 H 0.38190 0.08680 0.67477
 H1008 H 0.42856 0.08601 0.82089
 C1009 C 0.63423 0.76650 0.04328
 C1010 C 0.63592 0.73624 0.05186
 C1011 C 0.61890 0.72633 0.07527
 C1012 C 0.59858 0.74556 0.08841
 C1013 C 0.59554 0.77550 0.07849
 C1014 C 0.61420 0.78602 0.05654
 C1015 C 0.57291 0.79373 0.08970
 C1016 C 0.55340 0.78209 0.11044
 C1017 C 0.55748 0.75281 0.12095
 C1018 C 0.57999 0.73472 0.11016
 H1019 H 0.62016 0.70306 0.08218
 H1020 H 0.61235 0.80892 0.04875
 H1021 H 0.56960 0.81632 0.08149
 H1022 H 0.58212 0.71187 0.11804
 H1023 H 0.64701 0.77459 0.02517
 H1024 H 0.54252 0.74365 0.13692
 C1025 C 0.37318 0.24309 0.07116
 C1026 C 0.37160 0.27450 0.06992
 C1027 C 0.38883 0.29152 0.08863
 C1028 C 0.40932 0.27755 0.10677
 C1029 C 0.41249 0.24599 0.10646
 C1030 C 0.39358 0.22888 0.08934
 C1031 C 0.43568 0.23241 0.12185
 C1032 C 0.45562 0.25010 0.13730
 C1033 C 0.45111 0.28119 0.13883
 C1034 C 0.42804 0.29482 0.12378
 H1035 H 0.38743 0.31581 0.08786
 H1036 H 0.39553 0.20466 0.08900
 H1037 H 0.43936 0.20843 0.12041
 H1038 H 0.42572 0.31900 0.12437
 H1039 H 0.36005 0.22968 0.05680
 H1040 H 0.46636 0.29505 0.15067
 C1041 C 0.61913 0.29659 0.91555
 C1042 C 0.63460 0.28089 0.93703
 C1043 C 0.63091 0.24972 0.93994
 C1044 C 0.60993 0.23485 0.92300
 C1045 C 0.59349 0.25132 0.90237
 C1046 C 0.59900 0.28189 0.89814
 C1047 C 0.57042 0.23751 0.88762
 C1048 C 0.56295 0.20765 0.89363
 C1049 C 0.58005 0.19087 0.91308
 C1050 C 0.60361 0.20433 0.92753
 H1051 H 0.64260 0.23760 0.95671
 H1052 H 0.58668 0.29475 0.88234
 H1053 H 0.55696 0.25047 0.87276
 H1054 H 0.61591 0.19130 0.94320
 H1055 H 0.62188 0.32059 0.91291
 H1056 H 0.57428 0.16783 0.91802
 C1057 C 0.38213 0.68292 0.92467
 C1058 C 0.36565 0.70301 0.94136
 C1059 C 0.36688 0.73389 0.93510
 C1060 C 0.38622 0.74470 0.91379
 C1061 C 0.40357 0.72425 0.89797
 C1062 C 0.40069 0.69341 0.90297
 C1063 C 0.42504 0.73494 0.87884
 C1064 C 0.43037 0.76581 0.87614
 C1065 C 0.41216 0.78610 0.89080
 C1066 C 0.38995 0.77563 0.90923
 H1067 H 0.35429 0.74953 0.94793
 H1068 H 0.41375 0.67745 0.89096
 H1069 H 0.43925 0.71924 0.86771
 H1070 H 0.37688 0.79166 0.92113
 H1071 H 0.38116 0.65899 0.92883
 H1072 H 0.41630 0.80998 0.88929
 C1073 C 0.75630 0.93042 0.37076
 C1074 C 0.72524 0.93067 0.37235
 C1075 C 0.71089 0.91085 0.39129
 C1076 C 0.72732 0.89241 0.40985
 C1077 C 0.75861 0.89375 0.40955
 C1078 C 0.77290 0.91217 0.38932
 C1079 C 0.77488 0.87801 0.43052
 C1080 C 0.76011 0.86111 0.45165
 C1081 C 0.72916 0.85851 0.45061
 C1082 C 0.71288 0.87394 0.42984
 H1083 H 0.68691 0.91071 0.39242
 H1084 H 0.79684 0.91333 0.38859
 H1085 H 0.79874 0.88036 0.43151
 H1086 H 0.68894 0.87250 0.43022
 H1087 H 0.76778 0.94556 0.35629
 H1088 H 0.71750 0.84567 0.46687
 C1089 C 0.23968 0.94963 0.63102
 C1090 C 0.27058 0.94675 0.63294
 C1091 C 0.28529 0.92604 0.61549
 C1092 C 0.26971 0.90986 0.59494
 C1093 C 0.23888 0.91431 0.59174
 C1094 C 0.22392 0.93358 0.61048
 C1095 C 0.22394 0.90056 0.56904
 C1096 C 0.23952 0.88231 0.54979
 C1097 C 0.26983 0.87691 0.55412
 C1098 C 0.28481 0.89052 0.57652
 H1099 H 0.30913 0.92357 0.61702
 H1100 H 0.20026 0.93711 0.60851
 H1101 H 0.20061 0.90506 0.56556
 H1102 H 0.30840 0.88675 0.57881
 H1103 H 0.22797 0.96560 0.64421
 H1104 H 0.28212 0.86293 0.53945
 C1105 C 0.31198 0.08936 0.38909
 C1106 C 0.29274 0.07229 0.37228
 C1107 C 0.26197 0.07534 0.37601
 C1108 C 0.25064 0.09408 0.39748
 C1109 C 0.27033 0.11074 0.41456
 C1110 C 0.30089 0.10870 0.40979
 C1111 C 0.25930 0.12814 0.43699
 C1112 C 0.22890 0.12852 0.44330
 C1113 C 0.20938 0.11217 0.42611
 C1114 C 0.22012 0.09542 0.40312
 H1115 H 0.24702 0.06195 0.36335
 H1116 H 0.31626 0.12130 0.42270
 H1117 H 0.27449 0.14045 0.45041
 H1118 H 0.20468 0.08265 0.39043
 H1119 H 0.33575 0.08742 0.38646
 H1120 H 0.18594 0.11170 0.43101
 C1121 C 0.75641 0.04977 0.63625
 C1122 C 0.72581 0.05470 0.63890
 C1123 C 0.71268 0.07886 0.62416
 C1124 C 0.72935 0.09647 0.60516
 C1125 C 0.75974 0.09004 0.60092
 C1126 C 0.77328 0.06731 0.61732
 C1127 C 0.77540 0.10513 0.57911
 C1128 C 0.76080 0.12623 0.56160
 C1129 C 0.73120 0.13376 0.56723
 C1130 C 0.71561 0.11911 0.58895
 H1131 H 0.68910 0.08293 0.62633
 H1132 H 0.79657 0.06219 0.61455
 H1133 H 0.79818 0.09914 0.57452
 H1134 H 0.69240 0.12442 0.59208
 H1135 H 0.76691 0.03120 0.64744
 H1136 H 0.71974 0.14989 0.55371
 C1137 C 0.91929 0.61809 0.29550
 C1138 C 0.94276 0.63256 0.28137
 C1139 C 0.94698 0.62815 0.25193
 C1140 C 0.92920 0.60755 0.23725
 C1141 C 0.90627 0.59231 0.25203
 C1142 C 0.90091 0.59846 0.28087
 C1143 C 0.89023 0.56985 0.23827
 C1144 C 0.89724 0.56172 0.21017
 C1145 C 0.91943 0.57744 0.19527
 C1146 C 0.93508 0.60045 0.20860
 H1147 H 0.96542 0.63890 0.24108
 H1148 H 0.88343 0.58699 0.29248
 H1149 H 0.87330 0.55752 0.24988
 H1150 H 0.95261 0.61176 0.19694
 H1151 H 0.91580 0.62124 0.31820
 H1152 H 0.92535 0.57113 0.17370
 C1153 C 0.93291 0.36613 0.74885
 C1154 C 0.93517 0.36948 0.71900
 C1155 C 0.91771 0.39129 0.70506
 C1156 C 0.89948 0.41062 0.72079
 C1157 C 0.89855 0.40817 0.75096
 C1158 C 0.91482 0.38537 0.76472
 C1159 C 0.88261 0.42948 0.76683
 C1160 C 0.86785 0.45320 0.75280
 C1161 C 0.86772 0.45447 0.72279
 C1162 C 0.88326 0.43329 0.70690
 H1163 H 0.91903 0.39390 0.68201
 H1164 H 0.91427 0.38301 0.78780
 H1165 H 0.88310 0.42870 0.79001
 H1166 H 0.88361 0.43540 0.68379
 H1167 H 0.94611 0.34946 0.76007
 H1168 H 0.85663 0.47277 0.71171
 C1169 C 0.07119 0.63762 0.75372
 C1170 C 0.07543 0.63441 0.72414
 C1171 C 0.09608 0.61335 0.71423
 C1172 C 0.11016 0.59364 0.73338
 C1173 C 0.10386 0.59523 0.76298
 C1174 C 0.08531 0.61813 0.77304
 C1175 C 0.11452 0.57271 0.78157
 C1176 C 0.13123 0.54874 0.77076
 C1177 C 0.13897 0.54854 0.74168
 C1178 C 0.12863 0.57087 0.72313
 H1179 H 0.09953 0.61086 0.69141
 H1180 H 0.08042 0.61989 0.79565
 H1181 H 0.10827 0.57270 0.80397
 H1182 H 0.13383 0.56945 0.70055
 H1183 H 0.05522 0.65361 0.76179
 H1184 H 0.15182 0.53015 0.73309
 C1185 C 0.07468 0.37293 0.30281
 C1186 C 0.05363 0.35998 0.28474
 C1187 C 0.05416 0.36658 0.25531
 C1188 C 0.07422 0.38789 0.24442
 C1189 C 0.09464 0.40161 0.26307
 C1190 C 0.09532 0.39327 0.29200
 C1191 C 0.11285 0.42474 0.25293
 C1192 C 0.11047 0.43500 0.22459
 C1193 C 0.09082 0.42081 0.20589
 C1194 C 0.07304 0.39716 0.21565
 H1195 H 0.03759 0.35694 0.24144
 H1196 H 0.11085 0.40354 0.30654
 H1197 H 0.12785 0.43589 0.26742
 H1198 H 0.05749 0.38702 0.20105
 H1199 H 0.07448 0.36801 0.32555
 H1200 H 0.08855 0.42876 0.18403
   
