data_POSCAR
  _audit_creation_date              2014-09-24
  _audit_creation_method            'ToBaCCo'
  _symmetry_space_group_name_H-M    'P1'
  _symmetry_Int_Tables_number       1
  _symmetry_cell_setting            triclinic
  loop_
  _symmetry_equiv_pos_as_xyz
 x,y,z
_cell_length_a 59.7899
_cell_length_b 60.1944
_cell_length_c 34.0017
_cell_angle_alpha 90.055900
_cell_angle_beta 89.363500
_cell_angle_gamma 120.305000
loop_
  _atom_site_label
  _atom_site_type_symbol
  _atom_site_fract_x
  _atom_site_fract_y
  _atom_site_fract_z
O1 O -0.01423 0.52501 -0.03488
 O2 O 0.03270 0.50574 -0.00684
 O3 O -0.01319 0.48242 -0.03746
 O4 O 0.03143 0.54809 -0.00166
 O5 O 0.01311 0.53669 0.05722
 O6 O -0.03151 0.47156 0.02149
 O7 O 0.01440 0.49431 0.05210
 O8 O -0.03254 0.51411 0.02406
 Cu9 Cu 0.01098 0.51653 -0.02613
 Cu10 Cu -0.01096 0.50315 0.04465
 C11 C -0.03164 0.52247 -0.01056
 C12 C 0.03159 0.49676 0.02729
 C13 C -0.03003 0.46581 -0.01397
 C14 C 0.03016 0.55337 0.03419
 O15 O 0.52793 0.50671 -0.01225
 O16 O 0.46040 0.48497 0.01587
 O17 O 0.48394 0.46346 -0.01835
 O18 O 0.50384 0.52835 0.01947
 O19 O 0.49841 0.53994 -0.03966
 O20 O 0.47642 0.47482 -0.07622
 O21 O 0.45407 0.49751 -0.04188
 O22 O 0.52104 0.51685 -0.07154
 Cu23 Cu 0.49470 0.49468 0.00703
 Cu24 Cu 0.48683 0.50840 -0.06321
 C25 C 0.53591 0.51520 -0.04676
 C26 C 0.44587 0.48795 -0.00786
 C27 C 0.47666 0.45810 -0.05385
 C28 C 0.50447 0.54518 -0.00384
 O29 O 0.47233 0.97786 0.01916
 O30 O 0.53199 1.01207 -0.04029
 O31 O 0.51237 0.97248 0.00750
 O32 O 0.49279 1.01836 -0.02647
 O33 O 0.51155 1.04268 0.02524
 O34 O 0.53371 0.99861 0.05638
 O35 O 0.55173 1.03825 0.00928
 O36 O 0.49269 1.00185 0.07046
 Cu37 Cu 0.50036 0.99265 -0.01507
 Cu38 Cu 0.52441 1.02289 0.04540
 C39 C 0.47243 0.98367 0.05507
 C40 C 0.55185 1.03126 -0.02598
 C41 C 0.52646 0.97784 0.03778
 C42 C 0.49889 1.03839 -0.00629
 O43 O 1.02629 0.53919 0.47785
 O44 O 0.98153 0.47517 0.52083
 O45 O 1.02292 0.49445 0.47578
 O46 O 0.98634 0.52052 0.52532
 O47 O 0.96113 0.51112 0.47361
 O48 O 0.99749 0.48412 0.42425
 O49 O 0.95629 0.46592 0.46918
 O50 O 1.00109 0.52920 0.42604
 Cu51 Cu 1.00681 0.50827 0.50511
 Cu52 Cu 0.97653 0.49665 0.44302
 C53 C 1.02123 0.54499 0.44447
 C54 C 0.96110 0.45980 0.50236
 C55 C 1.01660 0.48490 0.44161
 C56 C 0.96748 0.52020 0.50811
 O57 O 0.50244 0.52498 0.46445
 O58 O 0.48854 0.46100 0.49778
 O59 O 0.46120 0.47950 0.46713
 O60 O 0.52946 0.50637 0.49451
 O61 O 0.52036 0.51445 0.55411
 O62 O 0.45206 0.48733 0.52684
 O63 O 0.47938 0.46908 0.55733
 O64 O 0.49298 0.53292 0.52389
 Cu65 Cu 0.49624 0.49211 0.47494
 Cu66 Cu 0.48528 0.50178 0.54651
 C67 C 0.49994 0.53978 0.48847
 C68 C 0.48195 0.45430 0.53336
 C69 C 0.44506 0.47904 0.49221
 C70 C 0.53646 0.51472 0.52911
 O71 O 0.54641 0.04309 0.48876
 O72 O 0.47975 -0.00488 0.46142
 O73 O 0.50069 0.03666 0.50404
 O74 O 0.52526 0.00149 0.44610
 O75 O 0.52152 -0.02183 0.49848
 O76 O 0.49744 0.01360 0.55655
 O77 O 0.47617 -0.02792 0.51412
 O78 O 0.54311 0.01985 0.54106
 Cu79 Cu 0.51340 0.02146 0.46986
 Cu80 Cu 0.50928 -0.00635 0.53285
 C81 C 0.55611 0.03966 0.51955
 C82 C 0.46665 -0.02463 0.48299
 C83 C 0.49489 0.03111 0.54016
 C84 C 0.52726 -0.01641 0.46230
 C85 C 0.21705 0.43588 0.26756
 C86 C 0.21553 0.43397 0.22767
 C87 C 0.19430 0.43458 0.20638
 C88 C 0.23648 0.43427 0.20354
 C89 C 0.23752 0.43431 0.28963
 C90 C 0.19969 0.44221 0.29019
 C91 C 0.16844 0.41621 0.21471
 C92 C 0.14811 0.41780 0.19810
 C93 C 0.15270 0.43900 0.17025
 C94 C 0.18105 0.45704 0.16134
 C95 C 0.20035 0.45432 0.17924
 C96 C 0.23112 0.41372 0.17844
 C97 C 0.25091 0.41417 0.15546
 C98 C 0.27612 0.43551 0.15641
 C99 C 0.28139 0.45614 0.18150
 C100 C 0.26172 0.45550 0.20484
 C101 C 0.25341 0.45407 0.31551
 C102 C 0.27355 0.45346 0.33494
 C103 C 0.27799 0.43283 0.32926
 C104 C 0.26185 0.41291 0.30373
 C105 C 0.24167 0.41352 0.28433
 C106 C 0.20331 0.46699 0.28738
 C107 C 0.18711 0.47367 0.30727
 C108 C 0.16463 0.45468 0.33184
 C109 C 0.16225 0.42849 0.33335
 C110 C 0.17966 0.42338 0.31342
 H111 H 0.16395 0.40067 0.23514
 H112 H 0.12841 0.40355 0.20617
 H113 H 0.18677 0.47303 0.14135
 H114 H 0.22041 0.46839 0.17277
 H115 H 0.21170 0.39724 0.17701
 H116 H 0.24647 0.39800 0.13655
 H117 H 0.26613 0.47162 0.22386
 H118 H 0.25074 0.47041 0.31980
 H119 H 0.28600 0.46961 0.35333
 H120 H 0.26493 0.39687 0.29867
 H121 H 0.22945 0.39790 0.26485
 H122 H 0.21901 0.48140 0.26939
 H123 H 0.19065 0.49310 0.30434
 H124 H 0.14674 0.41331 0.35057
 H125 H 0.17715 0.40429 0.31536
 H126 H 0.30077 0.47258 0.18361
 C127 C 0.54250 0.76924 0.26867
 C128 C 0.54118 0.76862 0.22867
 C129 C 0.54246 0.74820 0.20591
 C130 C 0.53682 0.78711 0.20593
 C131 C 0.54285 0.79026 0.29225
 C132 C 0.54219 0.74789 0.29090
 C133 C 0.56371 0.74446 0.20928
 C134 C 0.56390 0.72411 0.18974
 C135 C 0.54305 0.70737 0.16603
 C136 C 0.52196 0.71147 0.16220
 C137 C 0.52181 0.73182 0.18174
 C138 C 0.55360 0.80107 0.17472
 C139 C 0.54940 0.81816 0.15259
 C140 C 0.52817 0.82145 0.16121
 C141 C 0.51106 0.80696 0.19186
 C142 C 0.51533 0.78996 0.21406
 C143 C 0.52543 0.78386 0.32386
 C144 C 0.52478 0.80266 0.34684
 C145 C 0.54246 0.83069 0.33925
 C146 C 0.56092 0.83599 0.30508
 C147 C 0.56062 0.81612 0.28354
 C148 C 0.52058 0.72297 0.28928
 C149 C 0.52035 0.70281 0.30988
 C150 C 0.54177 0.70726 0.33250
 C151 C 0.56340 0.73221 0.33395
 C152 C 0.56347 0.75246 0.31372
 H153 H 0.57996 0.75708 0.22751
 H154 H 0.58031 0.72134 0.19333
 H155 H 0.50515 0.69862 0.14525
 H156 H 0.50517 0.73430 0.17902
 H157 H 0.57001 0.79877 0.16756
 H158 H 0.56251 0.82834 0.12838
 H159 H 0.50178 0.77887 0.23740
 H160 H 0.51178 0.76386 0.33065
 H161 H 0.51083 0.79674 0.37079
 H162 H 0.57483 0.85569 0.29713
 H163 H 0.57449 0.82101 0.25966
 H164 H 0.50395 0.71918 0.27189
 H165 H 0.50365 0.68369 0.30737
 H166 H 0.58016 0.73603 0.35099
 H167 H 0.58027 0.77161 0.31527
 H168 H 0.49438 0.80889 0.19874
 C169 C 0.23554 0.78215 0.27433
 C170 C 0.23214 0.78211 0.23473
 C171 C 0.25107 0.80386 0.20987
 C172 C 0.21046 0.76014 0.21413
 C173 C 0.21614 0.76159 0.30067
 C174 C 0.25955 0.80258 0.29287
 C175 C 0.25423 0.82847 0.21413
 C176 C 0.27373 0.84934 0.19306
 C177 C 0.29068 0.84594 0.16831
 C178 C 0.28695 0.82113 0.16316
 C179 C 0.26708 0.80019 0.18348
 C180 C 0.19509 0.76457 0.18804
 C181 C 0.17476 0.74409 0.16828
 C182 C 0.16937 0.71878 0.17428
 C183 C 0.18525 0.71443 0.19962
 C184 C 0.20566 0.73495 0.21921
 C185 C 0.22414 0.74914 0.32709
 C186 C 0.20608 0.72918 0.35108
 C187 C 0.17964 0.72115 0.34905
 C188 C 0.17172 0.73427 0.32364
 C189 C 0.18985 0.75438 0.29979
 C190 C 0.28385 0.80642 0.28123
 C191 C 0.30645 0.82630 0.29747
 C192 C 0.30521 0.84233 0.32634
 C193 C 0.28079 0.83810 0.33865
 C194 C 0.25815 0.81828 0.32213
 H195 H 0.24189 0.83153 0.23428
 H196 H 0.27618 0.86829 0.19714
 H197 H 0.29945 0.81796 0.14354
 H198 H 0.26480 0.78128 0.17982
 H199 H 0.19869 0.78390 0.18327
 H200 H 0.16305 0.74799 0.14853
 H201 H 0.21784 0.73119 0.23814
 H202 H 0.24435 0.75453 0.32856
 H203 H 0.21272 0.71959 0.37071
 H204 H 0.15167 0.72934 0.32237
 H205 H 0.18337 0.76426 0.28051
 H206 H 0.28529 0.79414 0.25930
 H207 H 0.32500 0.82914 0.28750
 H208 H 0.27908 0.85041 0.36019
 H209 H 0.23954 0.81553 0.33150
 H210 H 0.18235 0.69534 0.20381
 C211 C 0.76516 0.53390 0.76369
 C212 C 0.76245 0.53356 0.72388
 C213 C 0.78181 0.53371 0.69598
 C214 C 0.73901 0.53186 0.70639
 C215 C 0.74517 0.53373 0.79010
 C216 C 0.78670 0.53256 0.78261
 C217 C 0.80814 0.55261 0.69771
 C218 C 0.82608 0.55204 0.67153
 C219 C 0.81788 0.53263 0.64282
 C220 C 0.79145 0.51405 0.64094
 C221 C 0.77361 0.51465 0.66705
 C222 C 0.74114 0.55228 0.68372
 C223 C 0.71894 0.55144 0.66914
 C224 C 0.69426 0.52992 0.67668
 C225 C 0.69234 0.50934 0.69883
 C226 C 0.71452 0.51019 0.71326
 C227 C 0.72872 0.51146 0.81179
 C228 C 0.70684 0.50912 0.83095
 C229 C 0.70145 0.52925 0.82953
 C230 C 0.71881 0.55217 0.80964
 C231 C 0.74051 0.55436 0.79001
 C232 C 0.79183 0.51281 0.77341
 C233 C 0.81227 0.51189 0.79130
 C234 C 0.82764 0.53034 0.81930
 C235 C 0.82226 0.54995 0.82884
 C236 C 0.80186 0.55091 0.81080
 H237 H 0.81482 0.56772 0.71948
 H238 H 0.84621 0.56661 0.67450
 H239 H 0.78454 0.49887 0.61925
 H240 H 0.75338 0.49990 0.66510
 H241 H 0.75993 0.56917 0.67827
 H242 H 0.72122 0.56794 0.65301
 H243 H 0.71258 0.49410 0.73028
 H244 H 0.73197 0.49531 0.81190
 H245 H 0.69368 0.49126 0.84595
 H246 H 0.71494 0.56785 0.80735
 H247 H 0.75300 0.57162 0.77320
 H248 H 0.78001 0.49812 0.75236
 H249 H 0.81601 0.49661 0.78339
 H250 H 0.83404 0.56490 0.84949
 H251 H 0.79816 0.56626 0.81835
 H252 H 0.67360 0.49257 0.70509
 C253 C 0.46066 0.22843 0.78387
 C254 C 0.45775 0.22969 0.74437
 C255 C 0.45611 0.25132 0.72671
 C256 C 0.45774 0.21058 0.71660
 C257 C 0.46492 0.20837 0.80166
 C258 C 0.46044 0.24761 0.81109
 C259 C 0.43360 0.24655 0.70717
 C260 C 0.43199 0.26682 0.69014
 C261 C 0.45313 0.29204 0.69146
 C262 C 0.47570 0.29678 0.71110
 C263 C 0.47715 0.27656 0.72860
 C264 C 0.44063 0.18417 0.72208
 C265 C 0.44179 0.16601 0.69801
 C266 C 0.46119 0.17385 0.66449
 C267 C 0.47750 0.20233 0.65965
 C268 C 0.47545 0.21934 0.68510
 C269 C 0.48561 0.20520 0.78926
 C270 C 0.48867 0.18550 0.80510
 C271 C 0.47146 0.16896 0.83416
 C272 C 0.45101 0.17248 0.84703
 C273 C 0.44791 0.19214 0.83107
 C274 C 0.48211 0.26280 0.83430
 C275 C 0.48277 0.28192 0.85839
 C276 C 0.46175 0.28619 0.85986
 C277 C 0.43952 0.27011 0.83784
 C278 C 0.43894 0.25105 0.81362
 H279 H 0.41721 0.22715 0.70544
 H280 H 0.41437 0.26276 0.67538
 H281 H 0.49210 0.31611 0.71341
 H282 H 0.49471 0.28052 0.74346
 H283 H 0.42650 0.17751 0.74587
 H284 H 0.42864 0.14579 0.70389
 H285 H 0.48847 0.23978 0.68073
 H286 H 0.49919 0.21781 0.76702
 H287 H 0.50455 0.18318 0.79464
 H288 H 0.43694 0.15976 0.86859
 H289 H 0.43182 0.19429 0.84096
 H290 H 0.49881 0.26027 0.83297
 H291 H 0.50001 0.29379 0.87532
 H292 H 0.42249 0.27200 0.83920
 H293 H 0.42178 0.23905 0.79661
 H294 H 0.49188 0.21002 0.63621
 C295 C 0.79122 0.22527 0.76992
 C296 C 0.79074 0.22436 0.72983
 C297 C 0.77022 0.20196 0.70825
 C298 C 0.80978 0.24669 0.70591
 C299 C 0.81243 0.24738 0.79110
 C300 C 0.76961 0.20550 0.79442
 C301 C 0.76447 0.17678 0.71673
 C302 C 0.74375 0.15579 0.69841
 C303 C 0.72868 0.15957 0.67078
 C304 C 0.73495 0.18488 0.66155
 C305 C 0.75560 0.20583 0.67995
 C306 C 0.82681 0.24420 0.68006
 C307 C 0.84575 0.26563 0.65924
 C308 C 0.84756 0.28970 0.66329
 C309 C 0.83014 0.29200 0.68876
 C310 C 0.81135 0.27065 0.70970
 C311 C 0.80620 0.26139 0.81737
 C312 C 0.82534 0.28334 0.83573
 C313 C 0.85375 0.29327 0.82838
 C314 C 0.85856 0.27648 0.80113
 C315 C 0.83836 0.25460 0.78401
 C316 C 0.74410 0.20004 0.78883
 C317 C 0.72395 0.18198 0.81269
 C318 C 0.72896 0.16909 0.84279
 C319 C 0.75459 0.17507 0.84890
 C320 C 0.77474 0.19311 0.82494
 H321 H 0.77572 0.17336 0.73810
 H322 H 0.73929 0.13651 0.70615
 H323 H 0.72343 0.18865 0.64129
 H324 H 0.75960 0.22508 0.67313
 H325 H 0.82582 0.22583 0.67681
 H326 H 0.85903 0.26342 0.63995
 H327 H 0.79825 0.27286 0.72942
 H328 H 0.78611 0.25565 0.82288
 H329 H 0.81944 0.29381 0.85501
 H330 H 0.87833 0.28169 0.79411
 H331 H 0.84302 0.24334 0.76427
 H332 H 0.73987 0.21006 0.76632
 H333 H 0.70466 0.17872 0.80803
 H334 H 0.75902 0.16569 0.87222
 H335 H 0.79436 0.19738 0.83012
 H336 H 0.83136 0.31036 0.69341
 C337 C 0.05096 0.48970 0.03781
 C338 C 0.05097 0.47912 0.07426
 C339 C 0.07167 0.47394 0.08609
 C340 C 0.06632 0.45526 0.11505
 C341 C 0.08567 0.45040 0.12754
 C342 C 0.11089 0.46444 0.11154
 C343 C 0.11626 0.48322 0.08279
 C344 C 0.09691 0.48798 0.07019
 C345 C 0.13214 0.46065 0.12504
 C346 C 0.12823 0.44189 0.15242
 H347 H 0.03499 0.47396 0.09460
 H348 H 0.04710 0.44437 0.12801
 H349 H 0.08093 0.43591 0.15000
 H350 H 0.13559 0.49448 0.07033
 H351 H 0.10205 0.50313 0.04878
 H352 H 0.15151 0.47339 0.11365
 H353 H 0.06566 0.49307 0.01597
 H354 H 0.14113 0.44110 0.16075
 C355 C 0.51169 0.57100 0.01031
 C356 C 0.51602 0.57772 0.04994
 C357 C 0.52015 0.60253 0.06549
 C358 C 0.53073 0.61040 0.10305
 C359 C 0.53384 0.63310 0.11949
 C360 C 0.52639 0.64844 0.09856
 C361 C 0.51565 0.64046 0.06114
 C362 C 0.51252 0.61780 0.04475
 C363 C 0.52799 0.67191 0.11540
 C364 C 0.54334 0.68522 0.14749
 H365 H 0.51624 0.56413 0.07061
 H366 H 0.53636 0.59880 0.11993
 H367 H 0.54142 0.63805 0.14891
 H368 H 0.50934 0.65167 0.04465
 H369 H 0.50343 0.61209 0.01637
 H370 H 0.51706 0.67935 0.10098
 H371 H 0.51283 0.58471 -0.01130
 H372 H 0.55674 0.67982 0.15897
 C373 C 0.44916 0.96859 0.07964
 C374 C 0.42520 0.95184 0.06308
 C375 C 0.40265 0.93286 0.08651
 C376 C 0.37757 0.92469 0.07313
 C377 C 0.35593 0.90522 0.09302
 C378 C 0.35912 0.89324 0.12621
 C379 C 0.38420 0.90136 0.13950
 C380 C 0.40579 0.92116 0.12010
 C381 C 0.33688 0.87116 0.14582
 C382 C 0.31231 0.86839 0.14842
 H383 H 0.42289 0.95245 0.03160
 H384 H 0.37474 0.93318 0.04695
 H385 H 0.33684 0.89893 0.08156
 H386 H 0.38710 0.89217 0.16474
 H387 H 0.42491 0.92653 0.13049
 H388 H 0.34030 0.85721 0.16059
 H389 H 0.45109 0.97017 0.11130
 H390 H 0.30945 0.88391 0.13878
 C391 C 0.95281 0.53014 0.52928
 C392 C 0.93035 0.52838 0.51429
 C393 C 0.91354 0.53515 0.53753
 C394 C 0.88725 0.52358 0.52803
 C395 C 0.87039 0.52816 0.55079
 C396 C 0.87956 0.54450 0.58361
 C397 C 0.90611 0.55715 0.59182
 C398 C 0.92297 0.55253 0.56911
 C399 C 0.86209 0.54871 0.60983
 C400 C 0.83590 0.53028 0.61506
 H401 H 0.92359 0.51955 0.48581
 H402 H 0.87960 0.51053 0.50338
 H403 H 0.85027 0.51892 0.54242
 H404 H 0.91376 0.57026 0.61641
 H405 H 0.94329 0.56264 0.57642
 H406 H 0.87069 0.56614 0.62698
 H407 H 0.95908 0.53741 0.55863
 H408 H 0.82803 0.51259 0.59851
 C409 C 0.47823 0.42947 0.54695
 C410 C 0.46960 0.42027 0.58502
 C411 C 0.46950 0.39745 0.60135
 C412 C 0.45211 0.38346 0.63196
 C413 C 0.45245 0.36258 0.64934
 C414 C 0.47051 0.35557 0.63670
 C415 C 0.48814 0.36980 0.60650
 C416 C 0.48757 0.39044 0.58877
 C417 C 0.47228 0.33442 0.65565
 C418 C 0.45101 0.31306 0.67285
 H419 H 0.46261 0.43014 0.60368
 H420 H 0.43833 0.38879 0.64259
 H421 H 0.43908 0.35247 0.67335
 H422 H 0.50247 0.36498 0.59669
 H423 H 0.50182 0.40132 0.56613
 H424 H 0.49064 0.33496 0.65381
 H425 H 0.48313 0.41860 0.52679
 H426 H 0.43190 0.31070 0.67006
 C427 C 0.58268 0.05922 0.53018
 C428 C 0.59456 0.05707 0.56395
 C429 C 0.62056 0.07727 0.57708
 C430 C 0.62724 0.07733 0.61654
 C431 C 0.65114 0.09654 0.63061
 C432 C 0.66907 0.11602 0.60525
 C433 C 0.66259 0.11570 0.56564
 C434 C 0.63871 0.09647 0.55156
 C435 C 0.69387 0.13769 0.61944
 C436 C 0.70571 0.13684 0.65418
 H437 H 0.58370 0.04047 0.58294
 H438 H 0.61365 0.06277 0.63682
 H439 H 0.65507 0.09643 0.66155
 H440 H 0.67606 0.13046 0.54549
 H441 H 0.63474 0.09676 0.52069
 H442 H 0.70334 0.15481 0.60123
 H443 H 0.59247 0.07609 0.51157
 H444 H 0.69819 0.11873 0.66973
 C445 C 0.49220 0.05632 0.98132
 C446 C 0.48024 0.05444 0.94539
 C447 C 0.47557 0.07484 0.93057
 C448 C 0.47511 0.07822 0.88983
 C449 C 0.47171 0.09792 0.87478
 C450 C 0.46851 0.11453 0.90032
 C451 C 0.46793 0.11049 0.94104
 C452 C 0.47151 0.09092 0.95609
 C453 C 0.46504 0.13571 0.88555
 C454 C 0.47486 0.14778 0.84924
 H455 H 0.47623 0.03863 0.92587
 H456 H 0.47776 0.06581 0.86957
 H457 H 0.47131 0.09984 0.84320
 H458 H 0.46498 0.12270 0.96130
 H459 H 0.47081 0.08829 0.98764
 H460 H 0.45601 0.14310 0.90521
 H461 H 0.49791 0.07302 0.99963
 H462 H 0.48673 0.14249 0.83188
 C463 C 0.56272 0.52303 0.94223
 C464 C 0.57052 0.52466 0.90307
 C465 C 0.59677 0.53019 0.89188
 C466 C 0.59986 0.51764 0.85932
 C467 C 0.62438 0.52198 0.84864
 C468 C 0.64633 0.53943 0.86988
 C469 C 0.64339 0.55271 0.90155
 C470 C 0.61876 0.54791 0.91283
 C471 C 0.67239 0.54449 0.85849
 C472 C 0.67643 0.52480 0.84549
 H473 H 0.55627 0.51924 0.88013
 H474 H 0.58320 0.50414 0.84252
 H475 H 0.62621 0.51200 0.82342
 H476 H 0.66013 0.56652 0.91791
 H477 H 0.61695 0.55829 0.93752
 H478 H 0.68874 0.56374 0.86207
 H479 H 0.57608 0.52566 0.96546
 H480 H 0.66052 0.50511 0.84733
 C481 C 0.95248 0.44105 0.97330
 C482 C 0.95252 0.43266 0.93500
 C483 C 0.93241 0.40704 0.92099
 C484 C 0.93825 0.39546 0.88979
 C485 C 0.91941 0.37152 0.87540
 C486 C 0.89423 0.35889 0.89172
 C487 C 0.88836 0.37059 0.92265
 C488 C 0.90719 0.39441 0.93715
 C489 C 0.87347 0.33406 0.87646
 C490 C 0.87792 0.32042 0.84749
 H491 H 0.96803 0.44497 0.91478
 H492 H 0.95746 0.40495 0.87659
 H493 H 0.92450 0.36310 0.85128
 H494 H 0.86903 0.36139 0.93542
 H495 H 0.90169 0.40311 0.96031
 H496 H 0.85404 0.32649 0.88820
 H497 H 0.93826 0.42792 0.99442
 H498 H 0.86533 0.30680 0.83828
 C499 C 0.53540 0.96960 0.43960
 C500 C 0.53653 0.94860 0.45477
 C501 C 0.54197 0.93145 0.43033
 C502 C 0.53261 0.90612 0.44329
 C503 C 0.53639 0.88893 0.42059
 C504 C 0.54994 0.89683 0.38448
 C505 C 0.56002 0.92239 0.37206
 C506 C 0.55608 0.93958 0.39471
 C507 C 0.55347 0.87875 0.35926
 C508 C 0.54052 0.85254 0.36738
 H509 H 0.53101 0.94309 0.48525
 H510 H 0.52188 0.89944 0.47079
 H511 H 0.52857 0.86943 0.43131
 H512 H 0.57076 0.92902 0.34458
 H513 H 0.56429 0.95918 0.38433
 H514 H 0.56556 0.88602 0.33306
 H515 H 0.53960 0.97457 0.40876
 H516 H 0.54274 0.84276 0.35182
 C517 C 0.41800 0.46953 0.48122
 C518 C 0.40957 0.46283 0.44258
 C519 C 0.38371 0.45695 0.42866
 C520 C 0.37612 0.44689 0.39071
 C521 C 0.35276 0.44273 0.37517
 C522 C 0.33637 0.44850 0.39743
 C523 C 0.34385 0.45836 0.43546
 C524 C 0.36722 0.46257 0.45097
 C525 C 0.31240 0.44628 0.38127
 C526 C 0.30005 0.43224 0.34765
 H527 H 0.42292 0.46258 0.42100
 H528 H 0.38857 0.44269 0.37267
 H529 H 0.34818 0.43580 0.34534
 H530 H 0.33177 0.46328 0.45306
 H531 H 0.37243 0.47096 0.47988
 H532 H 0.30402 0.45600 0.39706
 H533 H 0.40497 0.46890 0.50402
 H534 H 0.30627 0.41984 0.33455
 C535 C 0.03869 0.57016 0.42626
 C536 C 0.06210 0.58816 0.44309
 C537 C 0.08044 0.61295 0.42379
 C538 C 0.10681 0.62493 0.43293
 C539 C 0.12485 0.64784 0.41422
 C540 C 0.11676 0.65951 0.38626
 C541 C 0.09027 0.64777 0.37784
 C542 C 0.07227 0.62485 0.39649
 C543 C 0.13513 0.68311 0.36404
 C544 C 0.16111 0.69917 0.37389
 H545 H 0.06800 0.58318 0.47014
 H546 H 0.11358 0.61619 0.45396
 H547 H 0.14503 0.65577 0.42124
 H548 H 0.08344 0.65634 0.35661
 H549 H 0.05201 0.61669 0.38957
 H550 H 0.12779 0.68754 0.33807
 H551 H 0.03326 0.57400 0.39793
 H552 H 0.16883 0.69489 0.39949
 C553 C 0.94842 0.52845 0.97716
 C554 C 0.94675 0.53459 0.93809
 C555 C 0.92499 0.53683 0.92218
 C556 C 0.92133 0.53505 0.88134
 C557 C 0.90070 0.53627 0.86483
 C558 C 0.88319 0.53934 0.88890
 C559 C 0.88730 0.54200 0.92963
 C560 C 0.90793 0.54068 0.94621
 C561 C 0.86101 0.54056 0.87235
 C562 C 0.84954 0.52901 0.83673
 H563 H 0.96118 0.53586 0.91720
 H564 H 0.93440 0.53247 0.86208
 H565 H 0.89879 0.53514 0.83319
 H566 H 0.87436 0.54486 0.94873
 H567 H 0.91048 0.54293 0.97766
 H568 H 0.85257 0.54948 0.89003
 H569 H 0.93379 0.52586 0.99859
 H570 H 0.85598 0.51734 0.82170
 C571 C 0.46901 0.43387 0.93073
 C572 C 0.46920 0.41419 0.95226
 C573 C 0.46259 0.38908 0.93465
 C574 C 0.47248 0.37458 0.95151
 C575 C 0.46777 0.35146 0.93445
 C576 C 0.45300 0.34238 0.90001
 C577 C 0.44210 0.35628 0.88434
 C578 C 0.44676 0.37932 0.90142
 C579 C 0.44858 0.31879 0.87936
 C580 C 0.46402 0.30766 0.88430
 H581 H 0.47614 0.41788 0.98222
 H582 H 0.48428 0.38139 0.97758
 H583 H 0.47571 0.34090 0.94847
 H584 H 0.43020 0.34949 0.85834
 H585 H 0.43779 0.38927 0.88849
 H586 H 0.43403 0.31147 0.85676
 H587 H 0.46356 0.43083 0.90011
 H588 H 0.48007 0.31642 0.90439
 C589 C 0.57483 0.04568 0.94861
 C590 C 0.59670 0.06827 0.96081
 C591 C 0.61873 0.08486 0.93421
 C592 C 0.64252 0.10283 0.95063
 C593 C 0.66344 0.11957 0.92656
 C594 C 0.66093 0.11867 0.88540
 C595 C 0.63705 0.10090 0.86904
 C596 C 0.61617 0.08417 0.89306
 C597 C 0.68212 0.13672 0.85874
 C598 C 0.70819 0.15025 0.86925
 H599 H 0.59772 0.07417 0.99117
 H600 H 0.64487 0.10407 0.98225
 H601 H 0.68122 0.13354 0.94046
 H602 H 0.63445 0.10010 0.83748
 H603 H 0.59795 0.07132 0.87918
 H604 H 0.67693 0.13856 0.82902
 H605 H 0.57398 0.03851 0.91917
 H606 H 0.71392 0.14611 0.89710
 C607 C 0.03080 0.47535 0.42264
 C608 C 0.05343 0.47795 0.43871
 C609 C 0.06976 0.46944 0.41840
 C610 C 0.09656 0.48316 0.42455
 C611 C 0.11268 0.47570 0.40604
 C612 C 0.10218 0.45397 0.38161
 C613 C 0.07528 0.43984 0.37618
 C614 C 0.05917 0.44762 0.39414
 C615 C 0.11891 0.44572 0.36187
 C616 C 0.14502 0.46295 0.35491
 H617 H 0.06068 0.48846 0.46592
 H618 H 0.10510 0.49989 0.44342
 H619 H 0.13332 0.48679 0.41124
 H620 H 0.06675 0.42292 0.35773
 H621 H 0.03848 0.43629 0.38964
 H622 H 0.11032 0.42627 0.35068
 H623 H 0.02460 0.46672 0.39392
 H624 H 0.15425 0.45771 0.34382
 C625 C 0.50442 0.56495 0.47518
 C626 C 0.51501 0.57502 0.43821
 C627 C 0.51705 0.59886 0.42245
 C628 C 0.53627 0.61333 0.39421
 C629 C 0.53786 0.63525 0.37729
 C630 C 0.51994 0.64288 0.38798
 C631 C 0.50055 0.62825 0.41587
 C632 C 0.49918 0.60654 0.43318
 C633 C 0.51998 0.66493 0.36882
 C634 C 0.54235 0.68608 0.35352
 H635 H 0.52247 0.56525 0.42025
 H636 H 0.54999 0.60754 0.38504
 H637 H 0.55259 0.64568 0.35502
 H638 H 0.48630 0.63354 0.42411
 H639 H 0.48362 0.59538 0.45394
 H640 H 0.50189 0.66498 0.36827
 H641 H 0.49909 0.57567 0.49496
 H642 H 0.56102 0.68786 0.35876
 C643 C 0.44024 0.95574 0.47183
 C644 C 0.42975 0.95674 0.43585
 C645 C 0.40428 0.93615 0.42189
 C646 C 0.39978 0.93349 0.38129
 C647 C 0.37629 0.91389 0.36672
 C648 C 0.35671 0.89659 0.39259
 C649 C 0.36080 0.89985 0.43325
 C650 C 0.38439 0.91936 0.44784
 C651 C 0.33180 0.87537 0.37802
 C652 C 0.32974 0.86373 0.34164
 H653 H 0.44155 0.97239 0.41570
 H654 H 0.41461 0.94645 0.36071
 H655 H 0.37347 0.91256 0.33524
 H656 H 0.34582 0.88705 0.45377
 H657 H 0.38680 0.92135 0.47936
 H658 H 0.31519 0.86755 0.39773
 H659 H 0.42959 0.93949 0.49144
 H660 H 0.34717 0.86953 0.32437
 C661 C 0.53437 0.95991 0.05240
 C662 C 0.52250 0.93433 0.04033
 C663 C 0.52816 0.91548 0.05880
 C664 C 0.50857 0.88955 0.06112
 C665 C 0.51290 0.87153 0.08024
 C666 C 0.53709 0.87912 0.09707
 C667 C 0.55703 0.90482 0.09316
 C668 C 0.55263 0.92288 0.07439
 C669 C 0.54226 0.86076 0.11831
 C670 C 0.52293 0.83919 0.13827
 H671 H 0.50680 0.92734 0.01953
 H672 H 0.48969 0.88332 0.04878
 H673 H 0.49737 0.85169 0.08149
 H674 H 0.57598 0.91104 0.10524
 H675 H 0.56843 0.94255 0.07195
 H676 H 0.56226 0.86567 0.12106
 H677 H 0.54838 0.96654 0.07581
 H678 H 0.50348 0.83616 0.13961
 C679 C 0.41949 0.48109 0.00446
 C680 C 0.40852 0.46800 0.03967
 C681 C 0.38395 0.46440 0.05638
 C682 C 0.36978 0.44415 0.08304
 C683 C 0.34759 0.44141 0.10181
 C684 C 0.33936 0.45915 0.09458
 C685 C 0.35353 0.47941 0.06794
 C686 C 0.37553 0.48196 0.04879
 C687 C 0.31737 0.45820 0.11645
 C688 C 0.29678 0.43556 0.13207
 H689 H 0.41846 0.46016 0.05600
 H690 H 0.37613 0.43062 0.08980
 H691 H 0.33755 0.42599 0.12301
 H692 H 0.34777 0.49352 0.06233
 H693 H 0.38640 0.49825 0.02933
 H694 H 0.31704 0.47596 0.11935
 H695 H 0.40882 0.48700 -0.01414
 H696 H 0.29502 0.41723 0.12476
 C697 C 0.04930 0.57886 0.04935
 C698 C 0.05059 0.58439 0.08948
 C699 C 0.07186 0.60775 0.10789
 C700 C 0.08871 0.63012 0.08634
 C701 C 0.10901 0.65133 0.10508
 C702 C 0.11274 0.65066 0.14578
 C703 C 0.09576 0.62843 0.16719
 C704 C 0.07546 0.60732 0.14854
 C705 C 0.13452 0.67219 0.16668
 C706 C 0.14763 0.69756 0.15288
 H707 H 0.03634 0.56979 0.10907
 H708 H 0.08636 0.63145 0.05512
 H709 H 0.12198 0.66791 0.08738
 H710 H 0.09823 0.62736 0.19852
 H711 H 0.06276 0.59039 0.16590
 H712 H 0.13943 0.66801 0.19520
 H713 H 0.06375 0.59242 0.02899
 H714 H 0.14075 0.70250 0.12688
 C715 C 0.48518 0.04503 0.56378
 C716 C 0.48314 0.06541 0.54837
 C717 C 0.47486 0.08073 0.57206
 C718 C 0.48267 0.10590 0.55989
 C719 C 0.47599 0.12130 0.58206
 C720 C 0.46106 0.11168 0.61676
 C721 C 0.45254 0.08623 0.62825
 C722 C 0.45934 0.07086 0.60617
 C723 C 0.45468 0.12788 0.64183
 C724 C 0.46560 0.15407 0.63486
 H725 H 0.48946 0.07148 0.51830
 H726 H 0.49440 0.11386 0.53351
 H727 H 0.48270 0.14077 0.57212
 H728 H 0.44081 0.07829 0.65464
 H729 H 0.45221 0.05128 0.61579
 H730 H 0.44236 0.11932 0.66754
 H731 H 0.48054 0.03961 0.59440
 H732 H 0.46225 0.16283 0.65094
 C733 C 0.56344 0.52403 0.54026
 C734 C 0.57158 0.52999 0.57911
 C735 C 0.59716 0.53498 0.59259
 C736 C 0.59987 0.53034 0.63218
 C737 C 0.62319 0.53330 0.64570
 C738 C 0.64438 0.54107 0.61978
 C739 C 0.64210 0.54694 0.58064
 C740 C 0.61871 0.54386 0.56706
 C741 C 0.66902 0.54341 0.63277
 C742 C 0.67008 0.52853 0.66340
 H743 H 0.55769 0.52841 0.60131
 H744 H 0.58371 0.52393 0.65261
 H745 H 0.62455 0.52961 0.67646
 H746 H 0.65833 0.55347 0.56032
 H747 H 0.61769 0.54854 0.53668
 H748 H 0.68632 0.55565 0.61563
 H749 H 0.57638 0.52391 0.51788
 H750 H 0.65215 0.51407 0.67709
 C751 C 0.94208 0.43477 0.51940
 C752 C 0.94598 0.42553 0.55471
 C753 C 0.92544 0.40157 0.57342
 C754 C 0.93229 0.38690 0.59706
 C755 C 0.91315 0.36438 0.61549
 C756 C 0.88678 0.35636 0.61094
 C757 C 0.88000 0.37138 0.58805
 C758 C 0.89908 0.39368 0.56931
 C759 C 0.86596 0.33332 0.63118
 C760 C 0.86832 0.31221 0.64188
 H761 H 0.96473 0.43580 0.56859
 H762 H 0.95249 0.39284 0.60118
 H763 H 0.91908 0.35368 0.63395
 H764 H 0.85985 0.36585 0.58467
 H765 H 0.89313 0.40500 0.55243
 H766 H 0.84759 0.33244 0.63585
 H767 H 0.92421 0.42338 0.50362
 H768 H 0.88533 0.31150 0.63262
   
