data_POSCAR
  _audit_creation_date              2014-09-24
  _audit_creation_method            'ToBaCCo'
  _symmetry_space_group_name_H-M    'P1'
  _symmetry_Int_Tables_number       1
  _symmetry_cell_setting            triclinic
  loop_
  _symmetry_equiv_pos_as_xyz
 x,y,z
_cell_length_a 35.4781
_cell_length_b 18.9833
_cell_length_c 13.8369
_cell_angle_alpha 90.153800
_cell_angle_beta 89.853600
_cell_angle_gamma 90.074400
loop_
  _atom_site_label
  _atom_site_type_symbol
  _atom_site_fract_x
  _atom_site_fract_y
  _atom_site_fract_z
O1 O 0.72865 0.32762 0.59118
 O2 O 0.79649 0.26887 0.40535
 O3 O 0.73032 0.33122 0.40521
 O4 O 0.79669 0.27300 0.59140
 O5 O 0.77081 0.16714 0.59025
 O6 O 0.70359 0.22615 0.40424
 O7 O 0.76959 0.16399 0.40513
 O8 O 0.70277 0.22177 0.59136
 Cu9 Cu 0.76563 0.31074 0.49825
 Cu10 Cu 0.73395 0.18433 0.49766
 C11 C 0.70363 0.28492 0.62142
 C12 C 0.79540 0.20525 0.37619
 C13 C 0.70488 0.28963 0.37518
 C14 C 0.79594 0.20965 0.62033
 O15 O 0.29566 0.77074 0.40997
 O16 O 0.22782 0.82944 0.59614
 O17 O 0.29584 0.77445 0.59603
 O18 O 0.22960 0.83316 0.41004
 O19 O 0.20285 0.72811 0.40852
 O20 O 0.26987 0.66866 0.59432
 O21 O 0.20186 0.72374 0.59578
 O22 O 0.26869 0.66584 0.40930
 Cu23 Cu 0.26483 0.81252 0.50313
 Cu24 Cu 0.23304 0.68617 0.50198
 C25 C 0.29442 0.70726 0.38045
 C26 C 0.20270 0.78685 0.62632
 C27 C 0.29506 0.71099 0.62445
 C28 C 0.20425 0.79158 0.37957
 O29 O 0.20235 0.27156 -0.40567
 O30 O 0.26964 0.33129 -0.59185
 O31 O 0.20144 0.27669 -0.59294
 O32 O 0.26826 0.33398 -0.40679
 O33 O 0.29504 0.22906 -0.40817
 O34 O 0.22718 0.17094 -0.59402
 O35 O 0.29537 0.22542 -0.59422
 O36 O 0.22889 0.16654 -0.40795
 Cu37 Cu 0.23267 0.31378 -0.49922
 Cu38 Cu 0.26419 0.18743 -0.50120
 C39 C 0.20350 0.20794 -0.37703
 C40 C 0.29475 0.28893 -0.62242
 C41 C 0.20218 0.21368 -0.62384
 C42 C 0.29391 0.29250 -0.37841
 O43 O -0.20351 0.73035 -0.40987
 O44 O -0.27096 0.67215 -0.59615
 O45 O -0.20286 0.72711 -0.59600
 O46 O -0.26969 0.66820 -0.41026
 O47 O -0.29628 0.77328 -0.40868
 O48 O -0.22862 0.83287 -0.59432
 O49 O -0.29674 0.77796 -0.59580
 O50 O -0.23027 0.83531 -0.40908
 Cu51 Cu -0.23416 0.68889 -0.50320
 Cu52 Cu -0.26570 0.81530 -0.50193
 C53 C -0.20473 0.79376 -0.38018
 C54 C -0.29592 0.71484 -0.62604
 C55 C -0.20339 0.79058 -0.62466
 C56 C -0.29508 0.70975 -0.37984
 O57 O -0.05326 0.88127 0.17907
 O58 O -0.09461 0.94293 0.08420
 C59 C -0.08712 0.89912 0.15319
 O60 O 0.05328 1.12730 0.17181
 O61 O 0.09481 1.06176 0.08159
 C62 C 0.08720 1.10845 0.14725
 O63 O -0.05215 1.12078 0.18090
 O64 O -0.09388 1.05990 0.08570
 C65 C -0.08608 1.10282 0.15602
 O66 O 0.05254 0.87573 0.17285
 O67 O 0.09454 0.94059 0.08306
 C68 C 0.08654 0.89474 0.14957
 Zr69 Zr -0.00011 0.91231 0.12264
 O70 O 0.00329 0.90876 0.27527
 O71 O -0.00408 0.80104 0.11710
 Zr72 Zr 0.00027 1.09102 0.12085
 O73 O 0.00356 1.10109 0.27277
 O74 O -0.00374 1.20199 0.10875
 O75 O -0.03328 1.00174 0.14109
 O76 O 0.03247 1.00176 0.13999
 O77 O 0.05352 0.87419 -0.17075
 O78 O 0.09477 0.93992 -0.08042
 C79 C 0.08734 0.89312 -0.14601
 O80 O -0.05280 1.11997 -0.17859
 O81 O -0.09439 1.05824 -0.08368
 C82 C -0.08673 1.10195 -0.15281
 O83 O 0.05298 1.12620 -0.17181
 O84 O 0.09476 1.06169 -0.08171
 C85 C 0.08692 1.10733 -0.14847
 O86 O -0.05166 0.88036 -0.17976
 O87 O -0.09365 0.94133 -0.08515
 C88 C -0.08565 0.89829 -0.15525
 Zr89 Zr 0.00059 0.91075 -0.11991
 O90 O 0.00440 0.90165 -0.27195
 O91 O -0.00347 0.79973 -0.10839
 Zr92 Zr 0.00020 1.08949 -0.12162
 O93 O 0.00401 1.09349 -0.27419
 O94 O -0.00382 1.20072 -0.11565
 Zr95 Zr -0.05602 1.00072 0.00036
 Zr96 Zr 0.05654 1.00106 0.00062
 O97 O 0.03285 1.00019 -0.13884
 O98 O -0.03291 0.99984 -0.14025
 O99 O 0.03430 0.89794 0.00170
 O100 O -0.03295 1.10289 -0.00026
 O101 O -0.03292 0.89870 0.00110
 O102 O 0.03430 1.10407 -0.00056
 H103 H 0.04874 1.00212 0.19807
 H104 H -0.05048 1.14352 -0.00022
 H105 H 0.04928 0.99982 -0.19683
 H106 H -0.05040 0.85793 0.00099
 H107 H 0.02095 1.21976 0.08596
 H108 H 0.01948 1.21870 -0.08507
 H109 H -0.01476 1.05998 -0.30034
 H110 H -0.00927 0.94224 -0.29933
 H111 H 0.02096 0.78209 -0.08409
 H112 H 0.01921 0.78315 0.08620
 H113 H -0.01596 0.94140 0.30123
 H114 H -0.00872 1.05892 0.30032
 O115 O 0.44660 0.38013 0.17834
 O116 O 0.40519 0.44202 0.08391
 C117 C 0.41272 0.39813 0.15272
 O118 O 0.55314 0.62642 0.17024
 O119 O 0.59443 0.56084 0.07951
 C120 C 0.58697 0.60761 0.14510
 O121 O 0.44788 0.62000 0.18026
 O122 O 0.40595 0.55900 0.08582
 C123 C 0.41389 0.60205 0.15590
 O124 O 0.55247 0.37433 0.17116
 O125 O 0.59433 0.43918 0.08098
 C126 C 0.58645 0.39327 0.14750
 Zr127 Zr 0.49972 0.41101 0.12143
 O128 O 0.50335 0.40714 0.27399
 O129 O 0.49567 0.29977 0.11553
 Zr130 Zr 0.50018 0.58968 0.12005
 O131 O 0.50389 0.59835 0.27211
 O132 O 0.49617 0.70072 0.10923
 O133 O 0.46659 0.50050 0.14041
 O134 O 0.53240 0.50036 0.13859
 O135 O 0.55284 0.37310 -0.17235
 O136 O 0.59428 0.43862 -0.08226
 C137 C 0.58672 0.39189 -0.14778
 O138 O 0.44670 0.61943 -0.17850
 O139 O 0.40523 0.55755 -0.08344
 C140 C 0.41281 0.60146 -0.15234
 O141 O 0.55255 0.62511 -0.17316
 O142 O 0.59438 0.56025 -0.08370
 C143 C 0.58651 0.60616 -0.15010
 O144 O 0.44760 0.37953 -0.18052
 O145 O 0.40581 0.44053 -0.08537
 C146 C 0.41365 0.39748 -0.15559
 Zr147 Zr 0.49997 0.40978 -0.12115
 O148 O 0.50355 0.40098 -0.27326
 O149 O 0.49581 0.29875 -0.11010
 Zr150 Zr 0.49978 0.58846 -0.12252
 O151 O 0.50333 0.59231 -0.27515
 O152 O 0.49591 0.69971 -0.11656
 Zr153 Zr 0.44365 0.49975 -0.00009
 Zr154 Zr 0.55623 0.49973 -0.00103
 O155 O 0.53231 0.49910 -0.14025
 O156 O 0.46651 0.49899 -0.14096
 O157 O 0.53388 0.39669 0.00006
 O158 O 0.46683 0.60182 -0.00075
 O159 O 0.46668 0.39767 0.00021
 O160 O 0.53403 0.60277 -0.00174
 H161 H 0.54880 0.50073 0.19643
 H162 H 0.44939 0.64257 -0.00041
 H163 H 0.54867 0.49873 -0.19838
 H164 H 0.44916 0.35694 0.00017
 H165 H 0.52052 0.71846 0.08412
 H166 H 0.51926 0.71760 -0.08614
 H167 H 0.48420 0.55941 -0.30107
 H168 H 0.48983 0.44161 -0.30036
 H169 H 0.52020 0.28101 -0.08567
 H170 H 0.51897 0.28187 0.08469
 H171 H 0.48433 0.44011 0.30024
 H172 H 0.48992 0.55794 0.29943
 C173 C 0.32577 0.31625 0.31367
 C174 C 0.35039 0.37036 0.36698
 C175 C 0.37892 0.39697 0.31264
 C176 C 0.38037 0.36762 0.20928
 C177 C 0.38223 0.28730 0.22140
 C178 C 0.35374 0.26031 0.27620
 C179 C 0.31219 0.35440 0.22253
 C180 C 0.34073 0.38128 0.16765
 H181 H 0.34562 0.38672 0.44128
 H182 H 0.39848 0.43610 0.34042
 H183 H 0.40383 0.25440 0.18882
 H184 H 0.35115 0.20426 0.29003
 H185 H 0.28276 0.35913 0.20229
 H186 H 0.33545 0.40883 0.10040
 C187 C -0.17393 0.81655 0.31459
 C188 C -0.14939 0.87105 0.36764
 C189 C -0.12097 0.89787 0.31307
 C190 C -0.11947 0.86843 0.20979
 C191 C -0.11737 0.78816 0.22207
 C192 C -0.14574 0.76086 0.27697
 C193 C -0.18762 0.85448 0.22319
 C194 C -0.15916 0.88160 0.16821
 H195 H -0.15410 0.88761 0.44191
 H196 H -0.10153 0.93727 0.34067
 H197 H -0.09571 0.75546 0.18936
 H198 H -0.14806 0.70472 0.29053
 H199 H -0.21705 0.85886 0.20272
 H200 H -0.16450 0.90895 0.10084
 C201 C 0.67341 0.68826 0.30851
 C202 C 0.64673 0.74499 0.26797
 C203 C 0.61845 0.71856 0.21202
 C204 C 0.61923 0.63799 0.20193
 C205 C 0.65907 0.62141 0.16314
 C206 C 0.68739 0.64782 0.21907
 C207 C 0.64743 0.63641 0.36155
 C208 C 0.61916 0.61032 0.30607
 H209 H 0.65006 0.80110 0.28059
 H210 H 0.59773 0.75198 0.17726
 H211 H 0.66463 0.59240 0.09693
 H212 H 0.71694 0.64122 0.20072
 H213 H 0.65102 0.62131 0.43663
 H214 H 0.59871 0.57276 0.33368
 C215 C 0.17317 1.18870 0.31338
 C216 C 0.14657 1.24554 0.27219
 C217 C 0.11850 1.21918 0.21547
 C218 C 0.11932 1.13866 0.20505
 C219 C 0.15929 1.12218 0.16718
 C220 C 0.18743 1.14845 0.22388
 C221 C 0.14692 1.13668 0.36546
 C222 C 0.11887 1.11077 0.30908
 H223 H 0.14978 1.30170 0.28472
 H224 H 0.09795 1.25267 0.18021
 H225 H 0.16508 1.09338 0.10092
 H226 H 0.21703 1.14189 0.20593
 H227 H 0.15018 1.12119 0.44051
 H228 H 0.09832 1.07311 0.33598
 C229 C 0.67299 0.31147 -0.31272
 C230 C 0.68705 0.35184 -0.22343
 C231 C 0.65878 0.37818 -0.16702
 C232 C 0.61891 0.36159 -0.20521
 C233 C 0.61883 0.38936 -0.30931
 C234 C 0.64705 0.36334 -0.36528
 C235 C 0.64626 0.25469 -0.27185
 C236 C 0.61803 0.28104 -0.21541
 H237 H 0.71662 0.35846 -0.20554
 H238 H 0.66441 0.40713 -0.10085
 H239 H 0.59841 0.42691 -0.33654
 H240 H 0.65063 0.37850 -0.44039
 H241 H 0.64951 0.19859 -0.28462
 H242 H 0.59729 0.24757 -0.18039
 C243 C 0.17361 0.81214 -0.31111
 C244 C 0.14750 0.86377 -0.36380
 C245 C 0.11937 0.88999 -0.30772
 C246 C 0.11959 0.86273 -0.20338
 C247 C 0.11874 0.78214 -0.21285
 C248 C 0.14690 0.75550 -0.26926
 C249 C 0.18773 0.85298 -0.22208
 C250 C 0.15949 0.87954 -0.16568
 H251 H 0.15090 0.87874 -0.43906
 H252 H 0.09890 0.92742 -0.33506
 H253 H 0.09810 0.74882 -0.17718
 H254 H 0.15010 0.69927 -0.28110
 H255 H 0.21730 0.85973 -0.20421
 H256 H 0.16516 0.90878 -0.09977
 C257 C 0.32601 0.68362 -0.31200
 C258 C 0.31235 0.64544 -0.22072
 C259 C 0.34083 0.61845 -0.16624
 C260 C 0.38050 0.63206 -0.20838
 C261 C 0.37900 0.60277 -0.31174
 C262 C 0.35052 0.62948 -0.36568
 C263 C 0.35409 0.73947 -0.27484
 C264 C 0.38252 0.71238 -0.22043
 H265 H 0.28292 0.64077 -0.20010
 H266 H 0.33551 0.59086 -0.09896
 H267 H 0.39847 0.56361 -0.33981
 H268 H 0.34573 0.61316 -0.43994
 H269 H 0.35160 0.79553 -0.28857
 H270 H 0.40418 0.74522 -0.18809
 C271 C -0.17322 1.18271 -0.31524
 C272 C -0.14515 1.23884 -0.27885
 C273 C -0.11684 1.21226 -0.22353
 C274 C -0.11895 1.13208 -0.20984
 C275 C -0.15871 1.11908 -0.16793
 C276 C -0.18707 1.14555 -0.22333
 C277 C -0.14867 1.12791 -0.36750
 C278 C -0.12031 1.10171 -0.31265
 H279 H -0.14753 1.29475 -0.29378
 H280 H -0.09520 1.24538 -0.19161
 H281 H -0.16418 1.09225 -0.10014
 H282 H -0.21655 1.14119 -0.20298
 H283 H -0.15337 1.11073 -0.44142
 H284 H -0.10083 1.06215 -0.33968
 C285 C 0.67405 0.68216 -0.31539
 C286 C 0.67476 0.60187 -0.29956
 C287 C 0.64576 0.57755 -0.24461
 C288 C 0.61858 0.63523 -0.20960
 C289 C 0.64379 0.68911 -0.15744
 C290 C 0.67281 0.71393 -0.21303
 C291 C 0.63493 0.69673 -0.35791
 C292 C 0.60600 0.67255 -0.30291
 H293 H 0.69612 0.56684 -0.32879
 H294 H 0.64261 0.52223 -0.22716
 H295 H 0.63926 0.70609 -0.08334
 H296 H 0.69314 0.75204 -0.18641
 H297 H 0.63034 0.72333 -0.42627
 H298 H 0.57688 0.67883 -0.32512
 C299 C 0.17431 1.18186 -0.31556
 C300 C 0.17314 1.21461 -0.21368
 C301 C 0.14418 1.19031 -0.15748
 C302 C 0.11895 1.13590 -0.20849
 C303 C 0.10625 1.17223 -0.30241
 C304 C 0.13508 1.19587 -0.35811
 C305 C 0.17503 1.10158 -0.29812
 C306 C 0.14608 1.07789 -0.24254
 H307 H 0.19348 1.25297 -0.18769
 H308 H 0.13972 1.20796 -0.08365
 H309 H 0.07711 1.17819 -0.32459
 H310 H 0.13030 1.22170 -0.42697
 H311 H 0.19628 1.06602 -0.32669
 H312 H 0.14293 1.02275 -0.22406
 C313 C 0.32522 0.32033 -0.31587
 C314 C 0.32287 0.39980 -0.29378
 C315 C 0.35222 0.42463 -0.24077
 C316 C 0.38137 0.36834 -0.21395
 C317 C 0.35844 0.31048 -0.16290
 C318 C 0.32904 0.28516 -0.21644
 C319 C 0.36385 0.31067 -0.36434
 C320 C 0.39316 0.33558 -0.31139
 H321 H 0.30001 0.43380 -0.31663
 H322 H 0.35410 0.47915 -0.21835
 H323 H 0.36472 0.29129 -0.09087
 H324 H 0.31015 0.24443 -0.19020
 H325 H 0.36782 0.28662 -0.43493
 H326 H 0.42198 0.33278 -0.33756
 C327 C -0.17363 0.82147 -0.31704
 C328 C -0.17626 0.90073 -0.29388
 C329 C -0.14707 0.92545 -0.24029
 C330 C -0.11777 0.86926 -0.21411
 C331 C -0.14056 0.81079 -0.16400
 C332 C -0.16983 0.78559 -0.21809
 C333 C -0.13493 0.81254 -0.36538
 C334 C -0.10577 0.83737 -0.31190
 H335 H -0.19926 0.93461 -0.31621
 H336 H -0.14546 0.97974 -0.21679
 H337 H -0.13429 0.79114 -0.09220
 H338 H -0.18863 0.74447 -0.19255
 H339 H -0.13081 0.78896 -0.43622
 H340 H -0.07690 0.83504 -0.33788
 C341 C 0.32566 0.67933 0.31750
 C342 C 0.32952 0.71448 0.21800
 C343 C 0.35885 0.68912 0.16403
 C344 C 0.38169 0.63122 0.21476
 C345 C 0.39357 0.66398 0.31201
 C346 C 0.36432 0.68894 0.36539
 C347 C 0.32316 0.59986 0.29548
 C348 C 0.35244 0.57498 0.24203
 H349 H 0.31069 0.75523 0.19203
 H350 H 0.36515 0.70828 0.09191
 H351 H 0.42241 0.66673 0.33774
 H352 H 0.36835 0.71299 0.43593
 H353 H 0.30024 0.56591 0.31868
 H354 H 0.35421 0.52047 0.21957
 C355 C -0.17481 1.17879 0.31697
 C356 C -0.13622 1.18811 0.36572
 C357 C -0.10683 1.16361 0.31250
 C358 C -0.11842 1.13156 0.21464
 C359 C -0.14767 1.07502 0.24057
 C360 C -0.17714 1.09933 0.29373
 C361 C -0.17068 1.21463 0.21791
 C362 C -0.14115 1.18972 0.16423
 H363 H -0.13231 1.21160 0.43668
 H364 H -0.07806 1.16621 0.33878
 H365 H -0.14576 1.02069 0.21741
 H366 H -0.20004 1.06490 0.31579
 H367 H -0.18946 1.25546 0.19188
 H368 H -0.13467 1.20937 0.09246
 C369 C 0.67402 0.31719 0.31117
 C370 C 0.67483 0.39749 0.29534
 C371 C 0.64582 0.42182 0.24094
 C372 C 0.61853 0.36415 0.20641
 C373 C 0.64362 0.31027 0.15378
 C374 C 0.67265 0.28544 0.20884
 C375 C 0.63490 0.30263 0.35440
 C376 C 0.60597 0.32682 0.29993
 H377 H 0.69626 0.43252 0.32418
 H378 H 0.64273 0.47715 0.22359
 H379 H 0.63901 0.29330 0.07975
 H380 H 0.69291 0.24732 0.18184
 H381 H 0.63032 0.27602 0.42283
 H382 H 0.57686 0.32055 0.32266
 C383 C 0.17361 0.81908 0.31497
 C384 C 0.17454 0.89931 0.29872
 C385 C 0.14569 0.92353 0.24368
 C386 C 0.11846 0.86580 0.20905
 C387 C 0.14364 0.81172 0.15712
 C388 C 0.17251 0.78701 0.21280
 C389 C 0.13440 0.80470 0.35764
 C390 C 0.10563 0.82878 0.30257
 H391 H 0.19592 0.93437 0.32769
 H392 H 0.14270 0.97878 0.22586
 H393 H 0.13921 0.79454 0.08310
 H394 H 0.19281 0.74878 0.18636
 H395 H 0.12963 0.77828 0.42613
 H396 H 0.07646 0.82261 0.32488
   
