data_POSCAR
  _audit_creation_date              2014-09-24
  _audit_creation_method            'ToBaCCo'
  _symmetry_space_group_name_H-M    'P1'
  _symmetry_Int_Tables_number       1
  _symmetry_cell_setting            triclinic
  loop_
  _symmetry_equiv_pos_as_xyz
 x,y,z
_cell_length_a 46.5091
_cell_length_b 44.4672
_cell_length_c 43.8199
_cell_angle_alpha 90.150300
_cell_angle_beta 90.059200
_cell_angle_gamma 89.730500
loop_
  _atom_site_label
  _atom_site_type_symbol
  _atom_site_fract_x
  _atom_site_fract_y
  _atom_site_fract_z
C1 C 0.29563 0.29167 0.23880
 H2 H 0.29795 0.29025 0.26333
 C3 C 0.31372 0.31038 0.22205
 H4 H 0.32993 0.32349 0.23375
 C5 C 0.27169 0.27628 0.19364
 H6 H 0.25573 0.26258 0.18250
 C7 C 0.28893 0.29516 0.17610
 H8 H 0.28594 0.29596 0.15159
 N9 N 0.27497 0.27527 0.22449
 C10 C 0.20702 0.26153 0.29146
 H11 H 0.20647 0.23724 0.29260
 C12 C 0.18812 0.27864 0.30922
 H13 H 0.17350 0.26722 0.32444
 C14 C 0.22723 0.30567 0.27047
 H15 H 0.24223 0.31613 0.25503
 C16 C 0.20848 0.32364 0.28753
 H17 H 0.20925 0.34781 0.28478
 Zn18 Zn 0.25141 0.25078 0.24940
 N19 N 0.22642 0.27522 0.27299
 C20 C 0.27291 0.22762 0.30568
 N21 N 0.27608 0.22783 0.27484
 C22 C 0.29764 0.21214 0.26108
 C23 C 0.31689 0.19508 0.27843
 C24 C 0.29139 0.21050 0.32387
 C25 C 0.20861 0.23764 0.20628
 C26 C 0.19091 0.21958 0.18825
 C27 C 0.21266 0.17571 0.21123
 C28 C 0.23032 0.19463 0.22840
 N29 N 0.22822 0.22499 0.22541
 H30 H 0.25603 0.24062 0.31634
 H31 H 0.29996 0.21307 0.23654
 H32 H 0.33418 0.18327 0.26695
 H33 H 0.28785 0.21005 0.34827
 H34 H 0.20693 0.26187 0.20483
 H35 H 0.17622 0.23029 0.17245
 H36 H 0.21435 0.15166 0.21454
 H37 H 0.24543 0.18500 0.24441
 C38 C 0.18870 0.31021 0.30747
 C39 C 0.31019 0.31248 0.19035
 C40 C 0.19271 0.18808 0.19057
 C41 C 0.31383 0.19390 0.31034
 C42 C 0.79536 0.79705 0.23803
 H43 H 0.79651 0.79819 0.26267
 C44 C 0.81336 0.81505 0.22044
 H45 H 0.82707 0.83062 0.23249
 C46 C 0.77468 0.77593 0.19366
 H47 H 0.75984 0.76031 0.18329
 C48 C 0.79246 0.79330 0.17511
 H49 H 0.79107 0.78963 0.15078
 N50 N 0.77635 0.77812 0.22452
 C51 C 0.70601 0.76382 0.28892
 H52 H 0.70279 0.73993 0.28615
 C53 C 0.68693 0.78044 0.30696
 H54 H 0.66942 0.76900 0.31824
 C55 C 0.73127 0.80800 0.27573
 H56 H 0.74813 0.81892 0.26314
 C57 C 0.71274 0.82546 0.29356
 H58 H 0.71616 0.84949 0.29498
 Zn59 Zn 0.75273 0.75350 0.24940
 N60 N 0.72798 0.77763 0.27409
 C61 C 0.76426 0.71113 0.29615
 N62 N 0.77646 0.72854 0.27426
 C63 C 0.80534 0.72769 0.26924
 C64 C 0.82312 0.70931 0.28694
 C65 C 0.78126 0.69248 0.31443
 C66 C 0.70545 0.74131 0.21176
 C67 C 0.68719 0.72377 0.19384
 C68 C 0.71911 0.68140 0.20154
 C69 C 0.73661 0.69968 0.21961
 N70 N 0.72947 0.72900 0.22438
 H71 H 0.74128 0.71141 0.29936
 H72 H 0.81470 0.74096 0.25126
 H73 H 0.84607 0.70929 0.28281
 H74 H 0.77106 0.67862 0.33154
 H75 H 0.70039 0.76475 0.21584
 H76 H 0.66812 0.73388 0.18396
 H77 H 0.72491 0.65801 0.19817
 H78 H 0.75589 0.69045 0.22982
 C79 C 0.69024 0.81170 0.30957
 C80 C 0.81242 0.81351 0.18821
 C81 C 0.69393 0.69339 0.18860
 C82 C 0.81113 0.69146 0.30997
 C83 C 0.79238 0.29186 0.74147
 H84 H 0.79315 0.29349 0.76609
 C85 C 0.81093 0.30913 0.72373
 H86 H 0.82573 0.32435 0.73489
 C87 C 0.77193 0.27011 0.69710
 H88 H 0.75715 0.25442 0.68679
 C89 C 0.79004 0.28700 0.67849
 H90 H 0.78891 0.28415 0.65397
 N91 N 0.77314 0.27310 0.72798
 C92 C 0.70731 0.26277 0.79807
 H93 H 0.70711 0.23857 0.80054
 C94 C 0.68950 0.28060 0.81636
 H95 H 0.67565 0.27010 0.83304
 C96 C 0.72525 0.30596 0.77299
 H97 H 0.73898 0.31573 0.75585
 C98 C 0.70728 0.32458 0.79031
 H99 H 0.70759 0.34866 0.78672
 Zn100 Zn 0.74916 0.25012 0.75378
 N101 N 0.72525 0.27568 0.77746
 C102 C 0.77223 0.22797 0.80987
 N103 N 0.77358 0.22658 0.77898
 C104 C 0.79324 0.20878 0.76485
 C105 C 0.81208 0.19086 0.78178
 C106 C 0.79034 0.21017 0.82780
 C107 C 0.70569 0.23874 0.71131
 C108 C 0.68708 0.22158 0.69342
 C109 C 0.70719 0.17666 0.71601
 C110 C 0.72559 0.19469 0.73331
 N111 N 0.72475 0.22512 0.73040
 H112 H 0.75695 0.24274 0.82088
 H113 H 0.79441 0.20870 0.74018
 H114 H 0.82790 0.17844 0.76886
 H115 H 0.78670 0.21130 0.85207
 H116 H 0.70522 0.26301 0.70977
 H117 H 0.67267 0.23292 0.67776
 H118 H 0.70797 0.15251 0.71895
 H119 H 0.74033 0.18432 0.74921
 C120 C 0.68945 0.31188 0.81255
 C121 C 0.80982 0.30691 0.69177
 C122 C 0.68769 0.19006 0.69555
 C123 C 0.81102 0.19073 0.81419
 C124 C 0.29718 0.78588 0.73390
 H125 H 0.30090 0.78316 0.75808
 C126 C 0.31589 0.80356 0.71676
 H127 H 0.33342 0.81500 0.72809
 C128 C 0.27046 0.77357 0.68961
 H129 H 0.25323 0.76140 0.67883
 C130 C 0.28849 0.79123 0.67165
 H131 H 0.28475 0.79249 0.64729
 N132 N 0.27471 0.77164 0.72029
 C133 C 0.19806 0.76720 0.77187
 H134 H 0.18897 0.74835 0.75971
 C135 C 0.18017 0.78532 0.78977
 H136 H 0.15747 0.78016 0.79105
 C137 C 0.23870 0.79582 0.78627
 H138 H 0.26153 0.79975 0.78508
 C139 C 0.22157 0.81454 0.80443
 H140 H 0.23147 0.83301 0.81660
 Zn141 Zn 0.25044 0.74777 0.74538
 N142 N 0.22674 0.77287 0.77013
 C143 C 0.26680 0.71933 0.80035
 N144 N 0.27407 0.72386 0.77069
 C145 C 0.29819 0.71134 0.75851
 C146 C 0.31634 0.69366 0.77650
 C147 C 0.28418 0.70152 0.81908
 C148 C 0.20725 0.73500 0.70188
 C149 C 0.18911 0.71691 0.68440
 C150 C 0.21081 0.67310 0.70754
 C151 C 0.22879 0.69204 0.72431
 N152 N 0.22677 0.72240 0.72119
 H153 H 0.24733 0.72929 0.80940
 H154 H 0.30341 0.71530 0.73481
 H155 H 0.33578 0.68452 0.76647
 H156 H 0.27767 0.69771 0.84246
 H157 H 0.20566 0.75922 0.70021
 H158 H 0.17419 0.72752 0.66876
 H159 H 0.21238 0.64905 0.71099
 H160 H 0.24408 0.68242 0.74014
 C161 C 0.19184 0.80949 0.80624
 C162 C 0.31148 0.80659 0.68523
 C163 C 0.19060 0.68545 0.68718
 C164 C 0.30944 0.68846 0.80726
 Si165 Si 0.00309 -0.00026 -0.00159
 Si166 Si -0.00304 0.49667 0.50026
 Si167 Si 0.50088 0.00130 0.50159
 Si168 Si 0.49983 0.50386 0.00282
 C169 C 0.13716 -0.13381 -0.13849
 C170 C 0.16477 -0.14194 -0.12829
 C171 C 0.18254 -0.16026 -0.14621
 C172 C 0.17310 -0.17082 -0.17477
 C173 C 0.14554 -0.16251 -0.18503
 C174 C 0.12777 -0.14426 -0.16709
 C175 C 0.11811 -0.11470 -0.11930
 C176 C 0.08868 -0.12124 -0.11672
 C177 C 0.07076 -0.10341 -0.09851
 C178 C 0.08183 -0.07856 -0.08256
 C179 C 0.11123 -0.07193 -0.08524
 C180 C 0.12920 -0.08985 -0.10336
 C181 C 0.06277 -0.05975 -0.06309
 C182 C 0.06522 -0.02824 -0.06303
 C183 C 0.04720 -0.01062 -0.04471
 C184 C 0.02641 -0.02415 -0.02622
 C185 C 0.02405 -0.05555 -0.02596
 C186 C 0.04200 -0.07320 -0.04433
 H187 H 0.17244 -0.13459 -0.10617
 H188 H 0.20346 -0.16662 -0.13743
 H189 H 0.13783 -0.16982 -0.20715
 H190 H 0.10679 -0.13798 -0.17578
 H191 H 0.07957 -0.14041 -0.12848
 H192 H 0.04814 -0.10890 -0.09714
 H193 H 0.12044 -0.05310 -0.07300
 H194 H 0.15173 -0.08408 -0.10513
 H195 H 0.08084 -0.01721 -0.07743
 H196 H 0.04942 0.01362 -0.04503
 H197 H 0.00851 -0.06657 -0.01153
 H198 H 0.03992 -0.09743 -0.04350
 C199 C 0.13139 0.36456 0.36226
 C200 C 0.15932 0.37449 0.35576
 C201 C 0.17791 0.35682 0.33815
 C202 C 0.16887 0.32898 0.32629
 C203 C 0.14077 0.31922 0.33268
 C204 C 0.12231 0.33674 0.35063
 C205 C 0.11186 0.38316 0.38126
 C206 C 0.09632 0.37015 0.40525
 C207 C 0.07831 0.38780 0.42355
 C208 C 0.07514 0.41881 0.41803
 C209 C 0.09051 0.43167 0.39372
 C210 C 0.10880 0.41408 0.37568
 C211 C 0.05609 0.43766 0.43764
 C212 C 0.06359 0.46746 0.44494
 C213 C 0.04575 0.48509 0.46343
 C214 C 0.02035 0.47315 0.47538
 C215 C 0.01264 0.44358 0.46816
 C216 C 0.03027 0.42601 0.44937
 H217 H 0.16694 0.39570 0.36480
 H218 H 0.19954 0.36481 0.33425
 H219 H 0.13284 0.29822 0.32349
 H220 H 0.10075 0.32876 0.35505
 H221 H 0.09858 0.34641 0.41022
 H222 H 0.06727 0.37721 0.44238
 H223 H 0.08818 0.45531 0.38838
 H224 H 0.12029 0.42455 0.35707
 H225 H 0.08346 0.47708 0.43674
 H226 H 0.05193 0.50799 0.46860
 H227 H -0.00712 0.43407 0.47680
 H228 H 0.02347 0.40342 0.44373
 C229 C 0.63308 -0.13493 0.36538
 C230 C 0.64262 -0.12418 0.33704
 C231 C 0.66095 -0.14157 0.31886
 C232 C 0.67024 -0.17010 0.32863
 C233 C 0.66048 -0.18096 0.35687
 C234 C 0.64207 -0.16359 0.37503
 C235 C 0.61415 -0.11611 0.38498
 C236 C 0.59088 -0.12888 0.40067
 C237 C 0.57316 -0.11105 0.41916
 C238 C 0.57845 -0.08012 0.42248
 C239 C 0.60172 -0.06738 0.40679
 C240 C 0.61935 -0.08516 0.38823
 C241 C 0.55983 -0.06111 0.44221
 C242 C 0.57199 -0.03909 0.46126
 C243 C 0.55450 -0.02061 0.47927
 C244 C 0.52454 -0.02360 0.47832
 C245 C 0.51232 -0.04597 0.45990
 C246 C 0.52979 -0.06455 0.44193
 H247 H 0.63566 -0.10241 0.32877
 H248 H 0.66762 -0.13278 0.29698
 H249 H 0.66755 -0.20266 0.36524
 H250 H 0.63538 -0.17230 0.39694
 H251 H 0.58621 -0.15261 0.39840
 H252 H 0.55553 -0.12153 0.43117
 H253 H 0.60615 -0.04356 0.40864
 H254 H 0.63728 -0.07473 0.37668
 H255 H 0.59508 -0.03632 0.46244
 H256 H 0.56457 -0.00404 0.49378
 H257 H 0.48921 -0.04884 0.45918
 H258 H 0.51978 -0.08120 0.42737
 C259 C 0.63543 0.36802 -0.13134
 C260 C 0.63397 0.36969 -0.16341
 C261 C 0.65175 0.35170 -0.18163
 C262 C 0.67091 0.33118 -0.16823
 C263 C 0.67231 0.32917 -0.13635
 C264 C 0.65501 0.34761 -0.11808
 C265 C 0.61660 0.38735 -0.11184
 C266 C 0.60644 0.37692 -0.08356
 C267 C 0.58892 0.39506 -0.06523
 C268 C 0.58051 0.42394 -0.07489
 C269 C 0.59050 0.43429 -0.10326
 C270 C 0.60851 0.41639 -0.12132
 C271 C 0.56125 0.44303 -0.05564
 C272 C 0.56387 0.47457 -0.05557
 C273 C 0.54535 0.49243 -0.03808
 C274 C 0.52410 0.47921 -0.01999
 C275 C 0.52184 0.44783 -0.01925
 C276 C 0.53994 0.42993 -0.03720
 H277 H 0.61879 0.38457 -0.17455
 H278 H 0.65018 0.35337 -0.20624
 H279 H 0.68720 0.31367 -0.12559
 H280 H 0.65732 0.34609 -0.09356
 H281 H 0.61173 0.35455 -0.07561
 H282 H 0.58215 0.38640 -0.04334
 H283 H 0.58419 0.45616 -0.11181
 H284 H 0.61623 0.42551 -0.14264
 H285 H 0.58041 0.48555 -0.06878
 H286 H 0.54767 0.51665 -0.03862
 H287 H 0.50611 0.43693 -0.00502
 H288 H 0.53690 0.40583 -0.03687
 C289 C -0.13396 0.13523 -0.13271
 C290 C -0.14941 0.15889 -0.11925
 C291 C -0.16733 0.17739 -0.13670
 C292 C -0.17099 0.17279 -0.16858
 C293 C -0.15518 0.14858 -0.18170
 C294 C -0.13700 0.13042 -0.16416
 C295 C -0.11475 0.11566 -0.11403
 C296 C -0.11202 0.08476 -0.12056
 C297 C -0.09382 0.06647 -0.10317
 C298 C -0.07828 0.07856 -0.07860
 C299 C -0.08111 0.10929 -0.07183
 C300 C -0.09898 0.12768 -0.08948
 C301 C -0.05898 0.05923 -0.06018
 C302 C -0.05999 0.06026 -0.02816
 C303 C -0.04158 0.04218 -0.01081
 C304 C -0.02139 0.02342 -0.02516
 C305 C -0.02064 0.02199 -0.05712
 C306 C -0.03934 0.03971 -0.07450
 H307 H -0.14781 0.16318 -0.09498
 H308 H -0.17717 0.19588 -0.12459
 H309 H -0.15724 0.14218 -0.20534
 H310 H -0.12522 0.11253 -0.17545
 H311 H -0.12424 0.07456 -0.13886
 H312 H -0.09222 0.04275 -0.10861
 H313 H -0.06905 0.11919 -0.05322
 H314 H -0.10005 0.15144 -0.08412
 H315 H -0.07525 0.07479 -0.01660
 H316 H -0.04296 0.04301 0.01385
 H317 H -0.00574 0.00720 -0.06878
 H318 H -0.03818 0.03851 -0.09916
 C319 C -0.13499 0.63441 0.36546
 C320 C -0.13008 0.63694 0.33393
 C321 C -0.14755 0.65543 0.31595
 C322 C -0.17037 0.67174 0.32907
 C323 C -0.17534 0.66913 0.36058
 C324 C -0.15782 0.65071 0.37858
 C325 C -0.11633 0.61488 0.38458
 C326 C -0.10724 0.62450 0.41358
 C327 C -0.08958 0.60618 0.43152
 C328 C -0.08064 0.57779 0.42089
 C329 C -0.08978 0.56815 0.39189
 C330 C -0.10741 0.58650 0.37394
 C331 C -0.06185 0.55831 0.43995
 C332 C -0.03935 0.54160 0.42665
 C333 C -0.02172 0.52325 0.44459
 C334 C -0.02616 0.52136 0.47615
 C335 C -0.04862 0.53787 0.48950
 C336 C -0.06629 0.55621 0.47161
 H337 H -0.11249 0.62489 0.32321
 H338 H -0.14336 0.65672 0.29168
 H339 H -0.19259 0.68164 0.37140
 H340 H -0.16232 0.64899 0.40275
 H341 H -0.11340 0.64645 0.42220
 H342 H -0.08253 0.61444 0.45355
 H343 H -0.08365 0.54620 0.38326
 H344 H -0.11442 0.57827 0.35189
 H345 H -0.03516 0.54301 0.40240
 H346 H -0.00459 0.51071 0.43369
 H347 H -0.05265 0.53637 0.51379
 H348 H -0.08371 0.56839 0.48248
 C349 C 0.37098 0.14009 0.36574
 C350 C 0.36369 0.13080 0.33612
 C351 C 0.34512 0.14817 0.31820
 C352 C 0.33380 0.17548 0.32934
 C353 C 0.34155 0.18489 0.35892
 C354 C 0.35973 0.16726 0.37700
 C355 C 0.39002 0.12129 0.38499
 C356 C 0.38212 0.11424 0.41501
 C357 C 0.39975 0.09593 0.43301
 C358 C 0.42594 0.08465 0.42154
 C359 C 0.43394 0.09215 0.39154
 C360 C 0.41606 0.11005 0.37339
 C361 C 0.44460 0.06489 0.44065
 C362 C 0.46054 0.04128 0.42733
 C363 C 0.47774 0.02250 0.44529
 C364 C 0.47894 0.02656 0.47697
 C365 C 0.46331 0.05011 0.49039
 C366 C 0.44645 0.06921 0.47243
 H367 H 0.37186 0.10974 0.32709
 H368 H 0.33925 0.13985 0.29582
 H369 H 0.33383 0.20606 0.36808
 H370 H 0.36534 0.17503 0.39967
 H371 H 0.36196 0.12238 0.42432
 H372 H 0.39254 0.09018 0.45572
 H373 H 0.45418 0.08445 0.38210
 H374 H 0.42274 0.11549 0.35039
 H375 H 0.45937 0.03690 0.40306
 H376 H 0.48975 0.00468 0.43429
 H377 H 0.46418 0.05374 0.51483
 H378 H 0.43503 0.08749 0.48348
 C379 C 0.36508 0.63410 -0.13602
 C380 C 0.35043 0.65910 -0.12379
 C381 C 0.33248 0.67671 -0.14215
 C382 C 0.32847 0.66963 -0.17315
 C383 C 0.34294 0.64448 -0.18531
 C384 C 0.36112 0.62704 -0.16704
 C385 C 0.38446 0.61553 -0.11654
 C386 C 0.38629 0.58418 -0.12066
 C387 C 0.40458 0.56680 -0.10244
 C388 C 0.42119 0.58032 -0.07947
 C389 C 0.41936 0.61156 -0.07522
 C390 C 0.40134 0.62900 -0.09366
 C391 C 0.44027 0.56187 -0.05986
 C392 C 0.44039 0.56607 -0.02807
 C393 C 0.45823 0.54855 -0.00954
 C394 C 0.47663 0.52701 -0.02249
 C395 C 0.47650 0.52262 -0.05418
 C396 C 0.45838 0.53986 -0.07273
 H397 H 0.35261 0.66497 -0.09992
 H398 H 0.32201 0.69612 -0.13206
 H399 H 0.34007 0.63805 -0.20896
 H400 H 0.37232 0.60821 -0.17736
 H401 H 0.37325 0.57295 -0.13764
 H402 H 0.40535 0.54269 -0.10591
 H403 H 0.43223 0.62257 -0.05791
 H404 H 0.40095 0.65312 -0.09022
 H405 H 0.42636 0.58260 -0.01756
 H406 H 0.45777 0.55192 0.01495
 H407 H 0.49016 0.50578 -0.06465
 H408 H 0.45873 0.53625 -0.09718
 C409 C -0.13214 -0.13283 0.13292
 C410 C -0.12533 -0.13873 0.16353
 C411 C -0.14333 -0.15636 0.18157
 C412 C -0.16911 -0.16858 0.16975
 C413 C -0.17576 -0.16232 0.13888
 C414 C -0.15755 -0.14490 0.12084
 C415 C -0.11282 -0.11414 0.11373
 C416 C -0.12424 -0.09421 0.09191
 C417 C -0.10608 -0.07670 0.07389
 C418 C -0.07613 -0.07844 0.07752
 C419 C -0.06465 -0.09819 0.09935
 C420 C -0.08277 -0.11597 0.11713
 C421 C -0.05690 -0.05968 0.05861
 C422 C -0.03402 -0.04391 0.07206
 C423 C -0.01602 -0.02601 0.05425
 C424 C -0.02036 -0.02399 0.02267
 C425 C -0.04311 -0.03974 0.00916
 C426 C -0.06133 -0.05734 0.02699
 H427 H -0.10604 -0.12958 0.17374
 H428 H -0.13608 -0.16101 0.20450
 H429 H -0.19552 -0.16984 0.12844
 H430 H -0.16340 -0.14104 0.09725
 H431 H -0.14725 -0.09177 0.08905
 H432 H -0.11548 -0.06136 0.05747
 H433 H -0.04160 -0.10023 0.10231
 H434 H -0.07317 -0.13146 0.13325
 H435 H -0.03035 -0.04507 0.09644
 H436 H 0.00119 -0.01385 0.06526
 H437 H -0.04681 -0.03837 -0.01521
 H438 H -0.07868 -0.06944 0.01603
 C439 C -0.13408 0.36009 0.63544
 C440 C -0.16300 0.35580 0.62721
 C441 C -0.18115 0.33853 0.64545
 C442 C -0.17083 0.32519 0.67239
 C443 C -0.14193 0.32948 0.68064
 C444 C -0.12375 0.34671 0.66236
 C445 C -0.11486 0.37859 0.61608
 C446 C -0.09494 0.39835 0.62943
 C447 C -0.07717 0.41609 0.61122
 C448 C -0.07895 0.41451 0.57924
 C449 C -0.09872 0.39461 0.56588
 C450 C -0.11645 0.37684 0.58409
 C451 C -0.06052 0.43385 0.55990
 C452 C -0.07190 0.44800 0.53388
 C453 C -0.05473 0.46665 0.51599
 C454 C -0.02591 0.47161 0.52387
 C455 C -0.01430 0.45709 0.54943
 C456 C -0.03148 0.43849 0.56741
 H457 H -0.17175 0.36622 0.60689
 H458 H -0.20343 0.33603 0.63874
 H459 H -0.13324 0.31912 0.70102
 H460 H -0.10148 0.34921 0.66909
 H461 H -0.09349 0.40056 0.65400
 H462 H -0.06245 0.43152 0.62217
 H463 H -0.10026 0.39255 0.54130
 H464 H -0.13121 0.36146 0.57310
 H465 H -0.09423 0.44500 0.52759
 H466 H -0.06403 0.47704 0.49598
 H467 H 0.00800 0.46014 0.55564
 H468 H -0.02197 0.42749 0.58701
 C469 C 0.36730 -0.13775 0.63132
 C470 C 0.33737 -0.13677 0.62702
 C471 C 0.31930 -0.15498 0.64439
 C472 C 0.33075 -0.17436 0.66660
 C473 C 0.36069 -0.17533 0.67094
 C474 C 0.37879 -0.15730 0.65337
 C475 C 0.38642 -0.11830 0.61295
 C476 C 0.41194 -0.12984 0.60031
 C477 C 0.42977 -0.11152 0.58274
 C478 C 0.42257 -0.08119 0.57761
 C479 C 0.39712 -0.06965 0.59051
 C480 C 0.37920 -0.08802 0.60787
 C481 C 0.44144 -0.06163 0.55890
 C482 C 0.42945 -0.04007 0.53913
 C483 C 0.44711 -0.02125 0.52197
 C484 C 0.47708 -0.02362 0.52425
 C485 C 0.48919 -0.04550 0.54333
 C486 C 0.47156 -0.06422 0.56068
 H487 H 0.32795 -0.12210 0.60999
 H488 H 0.29629 -0.15360 0.64073
 H489 H 0.37011 -0.19026 0.68772
 H490 H 0.40176 -0.15834 0.65732
 H491 H 0.41783 -0.15320 0.60356
 H492 H 0.44896 -0.12127 0.57276
 H493 H 0.39120 -0.04627 0.58754
 H494 H 0.35988 -0.07842 0.61774
 H495 H 0.40637 -0.03793 0.53665
 H496 H 0.43720 -0.00499 0.50693
 H497 H 0.51232 -0.04787 0.54508
 H498 H 0.48154 -0.08037 0.57585
 C499 C 0.36361 0.37120 0.13716
 C500 C 0.37594 0.35022 0.15740
 C501 C 0.35858 0.33140 0.17494
 C502 C 0.32856 0.33271 0.17219
 C503 C 0.31613 0.35340 0.15194
 C504 C 0.33343 0.37265 0.13484
 C505 C 0.38212 0.39129 0.11843
 C506 C 0.37370 0.39990 0.08886
 C507 C 0.39113 0.41855 0.07122
 C508 C 0.41775 0.42868 0.08242
 C509 C 0.42618 0.42005 0.11198
 C510 C 0.40850 0.40186 0.12983
 C511 C 0.43686 0.44768 0.06321
 C512 C 0.45455 0.46972 0.07657
 C513 C 0.47336 0.48660 0.05868
 C514 C 0.47474 0.48195 0.02709
 C515 C 0.45628 0.46106 0.01346
 C516 C 0.43788 0.44373 0.03133
 H517 H 0.39903 0.34791 0.15940
 H518 H 0.36860 0.31537 0.19023
 H519 H 0.29298 0.35500 0.14973
 H520 H 0.32307 0.38890 0.12008
 H521 H 0.35379 0.39192 0.07903
 H522 H 0.38360 0.42508 0.04882
 H523 H 0.44667 0.42696 0.12130
 H524 H 0.41556 0.39621 0.15266
 H525 H 0.45375 0.47416 0.10085
 H526 H 0.48655 0.50342 0.06965
 H527 H 0.45654 0.45768 -0.01103
 H528 H 0.42489 0.42685 0.02014
 C529 C 0.13802 0.13098 0.13557
 C530 C 0.16589 0.12158 0.14380
 C531 C 0.18363 0.14009 0.16140
 C532 C 0.17384 0.16833 0.17173
 C533 C 0.14585 0.17756 0.16378
 C534 C 0.12832 0.15930 0.14573
 C535 C 0.11920 0.11149 0.11640
 C536 C 0.08917 0.11166 0.12051
 C537 C 0.07143 0.09415 0.10192
 C538 C 0.08331 0.07560 0.07924
 C539 C 0.11324 0.07481 0.07541
 C540 C 0.13099 0.09278 0.09358
 C541 C 0.06440 0.05749 0.05935
 C542 C 0.06903 0.02646 0.05583
 C543 C 0.05055 0.00936 0.03761
 C544 C 0.02749 0.02310 0.02232
 C545 C 0.02337 0.05424 0.02516
 C546 C 0.04145 0.07123 0.04385
 H547 H 0.17403 0.09977 0.13687
 H548 H 0.20516 0.13232 0.16660
 H549 H 0.13727 0.19886 0.17167
 H550 H 0.10723 0.16763 0.13949
 H551 H 0.07929 0.12513 0.13826
 H552 H 0.04839 0.09481 0.10548
 H553 H 0.12280 0.06082 0.05783
 H554 H 0.15389 0.09241 0.08928
 H555 H 0.08661 0.01542 0.06762
 H556 H 0.05421 -0.01463 0.03552
 H557 H 0.00621 0.06560 0.01317
 H558 H 0.03774 0.09522 0.04595
 C559 C 0.13374 0.62827 0.63508
 C560 C 0.12434 0.65646 0.64585
 C561 C 0.14266 0.67484 0.66285
 C562 C 0.17103 0.66572 0.66924
 C563 C 0.18047 0.63757 0.65838
 C564 C 0.16203 0.61902 0.64168
 C565 C 0.11417 0.60873 0.61692
 C566 C 0.12490 0.59095 0.59282
 C567 C 0.10647 0.57289 0.57556
 C568 C 0.07687 0.57251 0.58173
 C569 C 0.06607 0.59016 0.60574
 C570 C 0.08453 0.60790 0.62329
 C571 C 0.05724 0.55411 0.56281
 C572 C 0.03182 0.56670 0.55104
 C573 C 0.01367 0.54965 0.53245
 C574 C 0.02039 0.51958 0.52574
 C575 C 0.04560 0.50686 0.53778
 C576 C 0.06399 0.52402 0.55600
 H577 H 0.10287 0.66457 0.64086
 H578 H 0.13443 0.69612 0.67123
 H579 H 0.20226 0.62992 0.66248
 H580 H 0.16992 0.59730 0.63416
 H581 H 0.14746 0.59141 0.58685
 H582 H 0.11525 0.55973 0.55691
 H583 H 0.04335 0.58995 0.61114
 H584 H 0.07556 0.62076 0.64203
 H585 H 0.02631 0.58995 0.55572
 H586 H -0.00543 0.56018 0.52333
 H587 H 0.05130 0.48373 0.53279
 H588 H 0.08340 0.51376 0.56494
 C589 C 0.63141 0.13588 0.63988
 C590 C 0.65948 0.12609 0.64645
 C591 C 0.67772 0.14365 0.66445
 C592 C 0.66821 0.17130 0.67651
 C593 C 0.64001 0.18096 0.67004
 C594 C 0.62186 0.16351 0.65182
 C595 C 0.61216 0.11732 0.62061
 C596 C 0.59561 0.13061 0.59738
 C597 C 0.57775 0.11301 0.57896
 C598 C 0.57587 0.08184 0.58364
 C599 C 0.59225 0.06860 0.60702
 C600 C 0.61031 0.08614 0.62522
 C601 C 0.55707 0.06307 0.56407
 C602 C 0.53957 0.04085 0.57707
 C603 C 0.52238 0.02263 0.55860
 C604 C 0.52274 0.02600 0.52681
 C605 C 0.53973 0.04853 0.51380
 C606 C 0.55675 0.06695 0.53225
 H607 H 0.66751 0.10507 0.63720
 H608 H 0.69945 0.13577 0.66848
 H609 H 0.63178 0.20185 0.67939
 H610 H 0.60018 0.17139 0.64744
 H611 H 0.59680 0.15456 0.59319
 H612 H 0.56520 0.12380 0.56124
 H613 H 0.59139 0.04459 0.61093
 H614 H 0.62266 0.07537 0.64312
 H615 H 0.53903 0.03774 0.60156
 H616 H 0.50899 0.00594 0.56933
 H617 H 0.54007 0.05164 0.48929
 H618 H 0.57013 0.08381 0.52162
 C619 C 0.63776 0.63788 0.13444
 C620 C 0.66771 0.63690 0.13001
 C621 C 0.68596 0.65478 0.14770
 C622 C 0.67466 0.67427 0.16996
 C623 C 0.64478 0.67536 0.17438
 C624 C 0.62654 0.65727 0.15694
 C625 C 0.61828 0.61886 0.11566
 C626 C 0.59127 0.62981 0.10628
 C627 C 0.57288 0.61191 0.08884
 C628 C 0.58110 0.58268 0.08004
 C629 C 0.60816 0.57177 0.08928
 C630 C 0.62646 0.58958 0.10696
 C631 C 0.56151 0.56372 0.06132
 C632 C 0.55981 0.53250 0.06619
 C633 C 0.54137 0.51479 0.04858
 C634 C 0.52389 0.52798 0.02623
 C635 C 0.52572 0.55897 0.02098
 C636 C 0.54436 0.57668 0.03833
 H637 H 0.67707 0.62266 0.11255
 H638 H 0.70891 0.65378 0.14360
 H639 H 0.63554 0.68987 0.19171
 H640 H 0.60367 0.65818 0.16142
 H641 H 0.58440 0.65238 0.11217
 H642 H 0.55206 0.62092 0.08250
 H643 H 0.61537 0.54953 0.08260
 H644 H 0.64693 0.58025 0.11408
 H645 H 0.57245 0.52177 0.08386
 H646 H 0.54054 0.49079 0.05262
 H647 H 0.51315 0.56956 0.00320
 H648 H 0.54564 0.60047 0.03340
   
