data_POSCAR
  _audit_creation_date              2014-09-24
  _audit_creation_method            'ToBaCCo'
  _symmetry_space_group_name_H-M    'P1'
  _symmetry_Int_Tables_number       1
  _symmetry_cell_setting            triclinic
  loop_
  _symmetry_equiv_pos_as_xyz
 x,y,z
_cell_length_a 33.2245
_cell_length_b 25.9229
_cell_length_c 13.9749
_cell_angle_alpha 90.317900
_cell_angle_beta 91.280000
_cell_angle_gamma 122.774800
loop_
  _atom_site_label
  _atom_site_type_symbol
  _atom_site_fract_x
  _atom_site_fract_y
  _atom_site_fract_z
C1 C 0.53505 0.99077 0.46616
 C2 C 0.52539 0.97738 0.56031
 C3 C 0.48448 0.91665 0.59012
 C4 C 0.54926 1.02570 0.63678
 C5 C 0.56446 1.05512 0.43386
 C6 C 0.51034 0.94243 0.38987
 C7 C 0.43832 0.89466 0.55223
 C8 C 0.39864 0.84277 0.58942
 C9 C 0.40416 0.81268 0.66642
 C10 C 0.45001 0.83355 0.70429
 C11 C 0.49009 0.88546 0.66616
 C12 C 0.52103 1.03291 0.70204
 C13 C 0.54231 1.07901 0.77241
 C14 C 0.59203 1.11884 0.77901
 C15 C 0.62076 1.11136 0.71538
 C16 C 0.59942 1.06473 0.64488
 C17 C 0.60461 1.07400 0.37831
 C18 C 0.62835 1.13173 0.33640
 C19 C 0.61157 1.17086 0.34797
 C20 C 0.57248 1.15276 0.40614
 C21 C 0.54919 1.09545 0.44925
 C22 C 0.51311 0.89027 0.38975
 C23 C 0.48639 0.84277 0.32227
 C24 C 0.45597 0.84624 0.25523
 C25 C 0.45412 0.89910 0.25369
 C26 C 0.48150 0.94706 0.31982
 H27 H 0.43268 0.91934 0.49688
 H28 H 0.36324 0.82758 0.56070
 H29 H 0.45465 0.81105 0.76473
 H30 H 0.52527 0.90258 0.69789
 H31 H 0.48232 1.00367 0.69723
 H32 H 0.51991 1.08468 0.82083
 H33 H 0.62189 1.05944 0.59616
 H34 H 0.61653 1.04320 0.36489
 H35 H 0.65798 1.14418 0.29046
 H36 H 0.55865 1.18191 0.41436
 H37 H 0.51771 1.08121 0.49049
 H38 H 0.53532 0.88598 0.44286
 H39 H 0.48831 0.80239 0.32389
 H40 H 0.43125 0.90309 0.20198
 H41 H 0.47872 0.98679 0.31873
 H42 H 0.65937 1.14185 0.71934
 C43 C -0.00222 0.52658 0.43766
 C44 C -0.00927 0.51327 0.53176
 C45 C 0.03079 0.52638 0.59727
 C46 C -0.05553 0.49025 0.57807
 C47 C -0.03978 0.52332 0.37354
 C48 C 0.04435 0.54629 0.39521
 C49 C 0.04695 0.48642 0.60358
 C50 C 0.08252 0.49779 0.67182
 C51 C 0.10204 0.54930 0.73377
 C52 C 0.08619 0.58929 0.72605
 C53 C 0.05064 0.57781 0.65868
 C54 C -0.07635 0.43491 0.62707
 C55 C -0.11542 0.41648 0.68453
 C56 C -0.13444 0.45282 0.69408
 C57 C -0.11520 0.50708 0.64191
 C58 C -0.07566 0.52588 0.58437
 C59 C -0.02963 0.57595 0.32444
 C60 C -0.06508 0.57560 0.26868
 C61 C -0.11111 0.52266 0.26074
 C62 C -0.12138 0.46922 0.30705
 C63 C -0.08572 0.46942 0.36290
 C64 C 0.08242 0.60810 0.39794
 C65 C 0.12507 0.62611 0.35201
 C66 C 0.13046 0.58247 0.30468
 C67 C 0.09283 0.52022 0.30561
 C68 C 0.05008 0.50246 0.34998
 H69 H 0.03148 0.44620 0.55699
 H70 H 0.09456 0.46652 0.67645
 H71 H 0.10121 0.62921 0.77321
 H72 H 0.03823 0.60876 0.65482
 H73 H -0.06114 0.40708 0.62365
 H74 H -0.12977 0.37487 0.72503
 H75 H -0.05948 0.56932 0.54842
 H76 H 0.00536 0.61801 0.33144
 H77 H -0.05687 0.61713 0.23311
 H78 H -0.15693 0.42793 0.30104
 H79 H -0.09409 0.42800 0.39893
 H80 H 0.07860 0.64239 0.43346
 H81 H 0.15348 0.67422 0.35136
 H82 H 0.09570 0.48552 0.26890
 H83 H 0.02108 0.45456 0.34784
 H84 H -0.12910 0.53618 0.64935
 C85 C 0.50302 0.51166 0.46282
 C86 C 0.49774 0.50751 0.55944
 C87 C 0.45925 0.51189 0.60318
 C88 C 0.52331 0.48699 0.62187
 C89 C 0.53009 0.49036 0.41129
 C90 C 0.47575 0.52906 0.40068
 C91 C 0.46946 0.55397 0.67827
 C92 C 0.43210 0.55390 0.72349
 C93 C 0.38447 0.51173 0.69359
 C94 C 0.37442 0.47019 0.61860
 C95 C 0.41136 0.46974 0.57449
 C96 C 0.57266 0.51148 0.61386
 C97 C 0.59417 0.48481 0.66228
 C98 C 0.56685 0.43454 0.72105
 C99 C 0.51870 0.41301 0.73466
 C100 C 0.49707 0.43899 0.68568
 C101 C 0.51562 0.42846 0.41344
 C102 C 0.53663 0.40663 0.35356
 C103 C 0.57232 0.44625 0.29108
 C104 C 0.58765 0.50857 0.29072
 C105 C 0.56637 0.53025 0.34985
 C106 C 0.43824 0.48428 0.34120
 C107 C 0.41254 0.49983 0.28101
 C108 C 0.42511 0.56087 0.27705
 C109 C 0.46313 0.60590 0.33514
 C110 C 0.48792 0.58994 0.39795
 H111 H 0.50613 0.58592 0.70273
 H112 H 0.44019 0.58539 0.78293
 H113 H 0.33767 0.43637 0.59669
 H114 H 0.40247 0.43509 0.51990
 H115 H 0.59399 0.54938 0.56690
 H116 H 0.63141 0.50160 0.65066
 H117 H 0.45911 0.41915 0.69370
 H118 H 0.48688 0.39670 0.45879
 H119 H 0.52439 0.35851 0.35428
 H120 H 0.61502 0.54009 0.24282
 H121 H 0.57740 0.57789 0.34623
 H122 H 0.42871 0.43717 0.34204
 H123 H 0.38382 0.46462 0.23549
 H124 H 0.47340 0.65324 0.33188
 H125 H 0.51711 0.62505 0.44282
 H126 H 0.49713 0.37371 0.77915
 O127 O 0.34156 0.58863 -0.14094
 O128 O 0.35690 0.69893 -0.13429
 C129 C 0.32408 0.70511 -0.16969
 O130 O 0.28556 0.68812 -0.12816
 O131 O 0.20645 0.59953 -0.06238
 C132 C 0.19159 0.54914 -0.10692
 O133 O 0.20879 0.51657 -0.09159
 O134 O 0.28088 0.50365 -0.07971
 C135 C 0.31222 0.53103 -0.14205
 O136 O 0.36322 0.59623 0.04919
 O137 O 0.37739 0.70475 0.05684
 C138 C 0.36194 0.73791 0.08128
 O139 O 0.32197 0.72810 0.05150
 O140 O 0.24242 0.63442 0.11747
 C141 C 0.21468 0.57903 0.14110
 O142 O 0.21380 0.53494 0.09913
 O143 O 0.29092 0.52950 0.10808
 C144 C 0.33628 0.55674 0.11024
 Cr145 Cr 0.35720 0.64583 -0.04110
 Cr146 Cr 0.26542 0.66089 -0.00545
 Cr147 Cr 0.25027 0.52455 0.00872
 O148 O 0.29126 0.61066 -0.01175
 O149 O 0.61363 0.32915 -0.09161
 O150 O 0.63939 0.25826 -0.02551
 C151 C 0.67113 0.25840 -0.07528
 O152 O 0.71517 0.30087 -0.06936
 O153 O 0.78316 0.41681 -0.07569
 C154 C 0.77648 0.44394 -0.14344
 O155 O 0.74516 0.45739 -0.14116
 O156 O 0.65802 0.43019 -0.11308
 C157 C 0.62384 0.37632 -0.13769
 O158 O 0.61995 0.37554 0.08690
 O159 O 0.64850 0.30633 0.15183
 C160 C 0.67786 0.29085 0.17095
 O161 O 0.71460 0.30834 0.12190
 O162 O 0.77894 0.42844 0.11327
 C163 C 0.79013 0.48359 0.10505
 O164 O 0.77118 0.50023 0.04229
 O165 O 0.68405 0.47026 0.07041
 C166 C 0.64434 0.43272 0.10726
 Cr167 Cr 0.63277 0.31986 0.02964
 Cr168 Cr 0.74619 0.36443 0.02246
 Cr169 Cr 0.71402 0.46149 -0.03382
 O170 O 0.69754 0.38214 0.00672
 N171 N 0.36736 0.77037 -0.29522
 N172 N 0.32896 0.73062 -0.26202
 N173 N 0.13844 0.56332 -0.19550
 N174 N 0.15396 0.52897 -0.17734
 N175 N 0.34871 0.50552 -0.25896
 N176 N 0.31263 0.49370 -0.21677
 N177 N 0.61156 0.16825 -0.15239
 N178 N 0.65603 0.20883 -0.14183
 N179 N 0.83075 0.43657 -0.23443
 N180 N 0.80686 0.46130 -0.22363
 N181 N 0.58352 0.40190 -0.24805
 N182 N 0.59570 0.36682 -0.22235
 N183 N 0.85559 0.52469 0.21278
 N184 N 0.82602 0.53037 0.16762
 N185 N 0.62839 0.22363 0.28958
 N186 N 0.66651 0.24617 0.24248
 N187 N 0.59107 0.42191 0.22613
 N188 N 0.62628 0.45668 0.17388
 N189 N 0.17155 0.60231 0.24738
 N190 N 0.17911 0.56343 0.21047
 N191 N 0.42675 0.79527 0.19090
 N192 N 0.39065 0.78891 0.14530
 N193 N 0.40143 0.57816 0.21033
 N194 N 0.35808 0.54075 0.18310
   
