data_POSCAR
  _audit_creation_date              2014-09-24
  _audit_creation_method            'ToBaCCo'
  _symmetry_space_group_name_H-M    'P1'
  _symmetry_Int_Tables_number       1
  _symmetry_cell_setting            triclinic
  loop_
  _symmetry_equiv_pos_as_xyz
 x,y,z
_cell_length_a 23.9042
_cell_length_b 21.2576
_cell_length_c 11.5805
_cell_angle_alpha 88.641700
_cell_angle_beta 89.263900
_cell_angle_gamma 113.214100
loop_
  _atom_site_label
  _atom_site_type_symbol
  _atom_site_fract_x
  _atom_site_fract_y
  _atom_site_fract_z
C1 C 0.50945 1.14893 0.39588
 C2 C 0.53513 1.17369 0.50194
 C3 C 0.51454 1.13380 0.60363
 C4 C 0.46504 1.06925 0.60019
 C5 C 0.44068 1.04301 0.49241
 C6 C 0.46390 1.08250 0.38967
 C7 C 0.44081 1.05488 0.28276
 C8 C 0.39637 0.98884 0.27705
 C9 C 0.37226 0.94910 0.37820
 C10 C 0.39383 0.97668 0.48693
 C11 C 0.44063 1.02919 0.70150
 C12 C 0.39278 0.96483 0.69652
 C13 C 0.36925 0.93754 0.58974
 C14 C 0.32203 0.87196 0.58191
 C15 C 0.30242 0.84473 0.47441
 C16 C 0.32785 0.88193 0.37254
 H17 H 0.45793 1.08373 0.20249
 H18 H 0.38058 0.96935 0.19272
 H19 H 0.45800 1.04790 0.78541
 H20 H 0.37507 0.93594 0.77656
 H21 H 0.57229 1.22364 0.50490
 H22 H 0.26744 0.79341 0.47049
 C23 C -0.11192 0.37876 0.43098
 C24 C -0.14257 0.34609 0.53424
 C25 C -0.11056 0.34943 0.63672
 C26 C -0.04650 0.38602 0.63629
 C27 C -0.01538 0.41753 0.53195
 C28 C -0.04834 0.41448 0.43003
 C29 C -0.01672 0.44505 0.32685
 C30 C 0.04638 0.47526 0.32246
 C31 C 0.08006 0.47703 0.42155
 C32 C 0.04914 0.44999 0.52799
 C33 C -0.01243 0.39063 0.73649
 C34 C 0.05111 0.42419 0.73314
 C35 C 0.08279 0.45325 0.62907
 C36 C 0.14724 0.48409 0.62185
 C37 C 0.17700 0.50753 0.51500
 C38 C 0.14398 0.50336 0.41481
 H39 H -0.04040 0.44434 0.24749
 H40 H 0.06857 0.49649 0.24008
 H41 H -0.03475 0.36788 0.81805
 H42 H 0.07542 0.42609 0.81213
 H43 H -0.19139 0.31715 0.53471
 H44 H 0.22634 0.52873 0.50989
 C45 C 0.60991 0.47427 0.36393
 C46 C 0.64430 0.46779 0.45702
 C47 C 0.63982 0.49388 0.56499
 C48 C 0.60017 0.52853 0.58030
 C49 C 0.56575 0.53562 0.48550
 C50 C 0.56965 0.50667 0.37830
 C51 C 0.53611 0.51441 0.28472
 C52 C 0.50233 0.55410 0.29358
 C53 C 0.50046 0.58666 0.39680
 C54 C 0.53014 0.57520 0.49505
 C55 C 0.59522 0.55822 0.68539
 C56 C 0.55865 0.59590 0.69554
 C57 C 0.52673 0.60616 0.60029
 C58 C 0.49301 0.64819 0.60503
 C59 C 0.46755 0.66265 0.50472
 C60 C 0.47198 0.63304 0.40074
 H61 H 0.53740 0.49178 0.20243
 H62 H 0.47883 0.56031 0.21760
 H63 H 0.62021 0.55309 0.75989
 H64 H 0.55674 0.61850 0.77755
 H65 H 0.67629 0.44378 0.44409
 H66 H 0.44468 0.69768 0.50756
 O67 O 0.43174 0.74950 -0.09236
 O68 O 0.33638 0.77817 -0.15309
 C69 C 0.27962 0.76395 -0.16533
 O70 O 0.23795 0.71936 -0.10233
 O71 O 0.22394 0.59021 -0.13259
 C72 C 0.24333 0.54230 -0.13790
 O73 O 0.28694 0.54077 -0.07739
 O74 O 0.39587 0.63840 -0.13369
 C75 C 0.43518 0.69977 -0.14715
 O76 O 0.39965 0.75457 0.13345
 O77 O 0.31249 0.79103 0.06578
 C78 C 0.27419 0.75742 0.14362
 O79 O 0.23801 0.69599 0.13009
 O80 O 0.21885 0.56901 0.09592
 C81 C 0.25365 0.55977 0.17009
 O82 O 0.30927 0.57349 0.14755
 O83 O 0.41694 0.66333 0.08860
 C84 C 0.41756 0.70756 0.16056
 Cr85 Cr 0.36919 0.76566 -0.01201
 Cr86 Cr 0.23204 0.64490 -0.00320
 Cr87 Cr 0.35089 0.60530 0.00534
 O88 O 0.31720 0.67160 -0.00926
 O89 O 0.66194 0.38975 -0.19420
 O90 O 0.59511 0.25956 -0.14836
 C91 C 0.60987 0.20767 -0.14898
 O92 O 0.64728 0.19932 -0.08066
 O93 O 0.76243 0.25519 -0.03208
 C94 C 0.79655 0.29944 -0.10799
 O95 O 0.80046 0.36098 -0.11591
 O96 O 0.75165 0.45382 -0.12723
 C97 C 0.71007 0.44312 -0.19965
 O98 O 0.64564 0.42161 0.03085
 O99 O 0.57653 0.29580 0.06729
 C100 C 0.57528 0.24940 0.13719
 O101 O 0.61318 0.22105 0.13303
 O102 O 0.72450 0.27723 0.18570
 C103 C 0.77504 0.32523 0.19832
 O104 O 0.80144 0.36737 0.11603
 O105 O 0.73946 0.44456 0.10043
 C106 C 0.68684 0.44569 0.10746
 Cr107 Cr 0.62261 0.34135 -0.05995
 Cr108 Cr 0.68743 0.24137 0.04886
 Cr109 Cr 0.77043 0.40392 -0.00757
 O110 O 0.69275 0.32798 -0.00849
 N111 N 0.29238 0.83657 -0.32718
 N112 N 0.26002 0.80144 -0.24718
 N113 N 0.18073 0.48564 -0.28900
 N114 N 0.21423 0.48523 -0.20950
 N115 N 0.48996 0.68032 -0.30179
 N116 N 0.48822 0.71466 -0.21888
 N117 N 0.54970 0.14835 -0.30675
 N118 N 0.58400 0.15278 -0.22631
 N119 N 0.85998 0.31382 -0.27101
 N120 N 0.83256 0.27846 -0.18581
 N121 N 0.67872 0.49317 -0.35622
 N122 N 0.71838 0.49482 -0.28760
 N123 N 0.85667 0.37380 0.32417
 N124 N 0.80350 0.32942 0.30756
 N125 N 0.52188 0.19075 0.30595
 N126 N 0.52790 0.23027 0.22321
 N127 N 0.61968 0.45262 0.25223
 N128 N 0.67352 0.47182 0.21131
 N129 N 0.17417 0.52589 0.30490
 N130 N 0.22885 0.53401 0.28238
 N131 N 0.31509 0.84923 0.26386
 N132 N 0.27538 0.78891 0.25114
 N133 N 0.44939 0.64946 0.29572
 N134 N 0.43931 0.70286 0.27334
   
