data_POSCAR
  _audit_creation_date              2014-09-24
  _audit_creation_method            'ToBaCCo'
  _symmetry_space_group_name_H-M    'P1'
  _symmetry_Int_Tables_number       1
  _symmetry_cell_setting            triclinic
  loop_
  _symmetry_equiv_pos_as_xyz
 x,y,z
_cell_length_a 20.0314
_cell_length_b 20.1603
_cell_length_c 47.7698
_cell_angle_alpha 92.353800
_cell_angle_beta 84.145500
_cell_angle_gamma 119.933600
loop_
  _atom_site_label
  _atom_site_type_symbol
  _atom_site_fract_x
  _atom_site_fract_y
  _atom_site_fract_z
C1 C -0.04152 0.01788 0.55313
 H2 H -0.01884 -0.01703 0.55968
 C3 C -0.03430 0.07896 0.56984
 H4 H -0.00860 0.08883 0.58956
 C5 C -0.09541 0.05249 0.51837
 H6 H -0.11502 0.04433 0.49758
 C7 C -0.09033 0.11384 0.53471
 H8 H -0.10781 0.15177 0.52669
 N9 N -0.07064 0.00634 0.52774
 C10 C 0.03181 -0.13096 0.51795
 H11 H 0.07627 -0.09654 0.50163
 C12 C 0.03980 -0.18356 0.53349
 H13 H 0.09089 -0.18898 0.52889
 C14 C -0.09064 -0.16862 0.54270
 H15 H -0.14158 -0.16257 0.54598
 C16 C -0.08464 -0.22089 0.55891
 H17 H -0.13068 -0.25346 0.57509
 Zn18 Zn -0.05246 -0.05890 0.50253
 N19 N -0.03257 -0.12428 0.52300
 C20 C 0.10192 0.05405 0.48714
 N21 N 0.03190 0.00773 0.47732
 C22 C 0.01706 0.01858 0.45125
 C23 C 0.07320 0.07906 0.43416
 C24 C 0.16027 0.11470 0.47053
 C25 C -0.20692 -0.13051 0.48404
 C26 C -0.26450 -0.18377 0.46776
 C27 C -0.17520 -0.22454 0.44799
 C28 C -0.11998 -0.17072 0.46448
 N29 N -0.13620 -0.12483 0.48189
 H30 H 0.11122 0.04599 0.50836
 H31 H -0.03982 -0.01696 0.44424
 H32 H 0.05985 0.08804 0.41373
 H33 H 0.21509 0.15243 0.47884
 H34 H -0.21921 -0.09469 0.49863
 H35 H -0.32052 -0.18778 0.47119
 H36 H -0.15618 -0.25562 0.43351
 H37 H -0.06295 -0.16467 0.46319
 C38 C -0.01886 -0.22925 0.55444
 C39 C -0.05724 0.12872 0.56038
 C40 C -0.24999 -0.23298 0.44910
 C41 C 0.14531 0.12874 0.44397
 C42 C 1.09963 0.06490 0.12970
 H43 H 1.09773 0.11710 0.13326
 C44 C 1.16036 0.06685 0.11212
 H45 H 1.20148 0.11974 0.10115
 C46 C 1.05081 -0.06542 0.14105
 H47 H 1.00975 -0.11604 0.15314
 C48 C 1.11166 -0.06579 0.12382
 H49 H 1.11591 -0.11730 0.12268
 N50 N 1.04563 -0.00058 0.14349
 C51 C 0.83004 -0.01486 0.15457
 H52 H 0.80748 -0.05681 0.17133
 C53 C 0.77836 -0.01234 0.13777
 H54 H 0.71703 -0.05222 0.14196
 C55 C 0.93604 0.08811 0.12894
 H56 H 0.99728 0.12719 0.12532
 C57 C 0.88618 0.09279 0.11164
 H58 H 0.91024 0.13482 0.09473
 Zn59 Zn 0.97395 0.01217 0.16920
 N60 N 0.90775 0.03296 0.14934
 C61 C 1.04352 0.16295 0.19437
 N62 N 1.03763 0.09279 0.19226
 C63 C 1.08351 0.07562 0.20585
 C64 C 1.13814 0.12966 0.22244
 C65 C 1.09837 0.21951 0.21073
 C66 C 0.86753 -0.14591 0.18141
 C67 C 0.80918 -0.20626 0.19818
 C68 C 0.83822 -0.12035 0.23759
 C69 C 0.89625 -0.06204 0.22023
 N70 N 0.90938 -0.07525 0.19260
 H71 H 1.00700 0.17545 0.18300
 H72 H 1.07767 0.01938 0.20362
 H73 H 1.17276 0.11365 0.23342
 H74 H 1.10369 0.27566 0.21185
 H75 H 0.87629 -0.15436 0.15913
 H76 H 0.77470 -0.26150 0.18880
 H77 H 0.82775 -0.10823 0.25939
 H78 H 0.92795 -0.00511 0.22858
 C79 C 0.80638 0.04053 0.11546
 C80 C 1.16788 0.00134 0.10920
 C81 C 0.79289 -0.19312 0.22649
 C82 C 1.14710 0.20318 0.22482
 C83 C 0.12711 0.98712 0.86724
 H84 H 0.07051 0.93682 0.86670
 C85 C 0.17989 0.98728 0.88403
 H86 H 0.16259 0.93723 0.89685
 C87 C 0.21659 1.11375 0.85135
 H88 H 0.23039 1.16226 0.83824
 C89 C 0.27183 1.11622 0.86782
 H90 H 0.32836 1.16709 0.86724
 N91 N 0.14594 1.04960 0.85144
 C92 C -0.08885 0.99774 0.84200
 H93 H -0.09464 0.98463 0.81990
 C94 C -0.14980 0.99805 0.85907
 H95 H -0.20201 0.98407 0.84958
 C96 C -0.01042 1.03975 0.87993
 H97 H 0.04467 1.05828 0.88791
 C98 C -0.06855 1.04324 0.89743
 H99 H -0.05766 1.06046 0.91900
 Zn100 Zn 0.06797 1.03478 0.82883
 N101 N -0.02098 1.01790 0.85269
 C102 C -0.01623 0.88721 0.80251
 N103 N 0.05324 0.95070 0.80572
 C104 C 0.12015 0.95660 0.79327
 C105 C 0.11921 0.89775 0.77669
 C106 C -0.02003 0.82731 0.78554
 C107 C 0.08724 1.17884 0.81897
 C108 C 0.08636 1.23456 0.80280
 C109 C 0.10746 1.17380 0.76084
 C110 C 0.10616 1.11825 0.77777
 N111 N 0.09480 1.12097 0.80626
 H112 H -0.06869 0.88264 0.81303
 H113 H 0.17479 1.00714 0.79658
 H114 H 0.17373 0.90354 0.76775
 H115 H -0.07612 0.77828 0.78266
 H116 H 0.07686 1.17892 0.84163
 H117 H 0.07680 1.27836 0.81311
 H118 H 0.11354 1.16926 0.73816
 H119 H 0.11012 1.07093 0.76800
 C120 C -0.13970 1.02308 0.88717
 C121 C 0.25375 1.05203 0.88433
 C122 C 0.09490 1.23129 0.77336
 C123 C 0.04846 0.83196 0.77238
 O124 O 0.55632 -0.02715 0.02479
 O125 O 0.44241 -0.02154 -0.03051
 O126 O 0.56781 -0.02943 -0.03013
 O127 O 0.41943 -0.04037 0.02386
 O128 O 0.47931 0.08563 0.02623
 O129 O 0.63125 0.09673 -0.02765
 O130 O 0.50435 0.10450 -0.02822
 O131 O 0.61549 0.09883 0.02681
 Cu132 Cu 0.49047 -0.04206 -0.00315
 Cu133 Cu 0.56349 0.10882 -0.00054
 C134 C 0.60605 0.03560 0.03511
 C135 C 0.45402 0.04305 -0.03867
 C136 C 0.62494 0.03484 -0.03803
 C137 C 0.42286 0.02017 0.03403
 O138 O -0.02109 0.40746 0.69693
 O139 O -0.04870 0.51909 0.64402
 O140 O -0.05903 0.38490 0.64517
 O141 O -0.03207 0.53113 0.69770
 O142 O 0.09321 0.59510 0.68449
 O143 O 0.06665 0.44388 0.63276
 O144 O 0.07684 0.57829 0.63133
 O145 O 0.10436 0.47036 0.68409
 Cu146 Cu -0.05256 0.45452 0.67220
 Cu147 Cu 0.09761 0.52777 0.65698
 C148 C 0.04705 0.41996 0.69929
 C149 C 0.01022 0.56859 0.62882
 C150 C -0.00138 0.38841 0.63020
 C151 C 0.03429 0.58882 0.69976
 O152 O 0.42083 0.39528 0.30652
 O153 O 0.54799 0.51164 0.36106
 O154 O 0.42360 0.37766 0.36010
 O155 O 0.55626 0.51766 0.30647
 O156 O 0.49490 0.58318 0.31346
 O157 O 0.35634 0.43749 0.36631
 O158 O 0.48156 0.57209 0.36809
 O159 O 0.35839 0.45983 0.31300
 Cu160 Cu 0.49337 0.44435 0.33292
 Cu161 Cu 0.41652 0.51937 0.34089
 C162 C 0.36749 0.40781 0.30055
 C163 C 0.53643 0.56228 0.37383
 C164 C 0.36679 0.38236 0.37211
 C165 C 0.54954 0.57482 0.30094
 C166 C 0.03199 0.24694 0.58528
 C167 C -0.04205 0.19815 0.57660
 C168 C -0.10138 0.21503 0.58418
 C169 C -0.08767 0.27796 0.60116
 C170 C -0.01395 0.32594 0.61035
 C171 C 0.04612 0.31066 0.60180
 H172 H 0.07883 0.23535 0.57941
 H173 H -0.15885 0.17817 0.57770
 H174 H -0.13498 0.28861 0.60737
 H175 H 0.10333 0.34646 0.60865
 C176 C 0.71643 0.67174 0.24452
 C177 C 0.72749 0.74610 0.24426
 C178 C 0.67661 0.76264 0.26158
 C179 C 0.61689 0.70632 0.27933
 C180 C 0.60752 0.63263 0.28032
 C181 C 0.65737 0.61571 0.26250
 H182 H 0.75491 0.65759 0.23144
 H183 H 0.68328 0.81935 0.26146
 H184 H 0.57949 0.72104 0.29283
 H185 H 0.65142 0.55931 0.26271
 C186 C 0.35865 0.11762 -0.08303
 C187 C 0.31025 0.05191 -0.09779
 C188 C 0.31323 -0.01550 -0.09417
 C189 C 0.36084 -0.01812 -0.07534
 C190 C 0.40740 0.04691 -0.05998
 C191 C 0.40691 0.11522 -0.06440
 H192 H 0.35728 0.17020 -0.08509
 H193 H 0.27811 -0.06669 -0.10572
 H194 H 0.36065 -0.07129 -0.07264
 H195 H 0.44211 0.16632 -0.05282
 C196 C -0.07667 0.64706 0.58196
 C197 C -0.01116 0.71614 0.57210
 C198 C 0.06141 0.73408 0.58023
 C199 C 0.06817 0.68508 0.59808
 C200 C 0.00245 0.61734 0.60857
 C201 C -0.07001 0.59853 0.60020
 H202 H -0.13330 0.63041 0.57567
 H203 H 0.11290 0.78718 0.57351
 H204 H 0.12484 0.70147 0.60431
 H205 H -0.12153 0.54638 0.60776
 C206 C 0.19122 0.31121 0.25937
 C207 C 0.20657 0.26111 0.24228
 C208 C 0.27783 0.26356 0.24321
 C209 C 0.33072 0.31212 0.26175
 C210 C 0.31418 0.36027 0.27949
 C211 C 0.24458 0.36046 0.27771
 H212 H 0.13676 0.31038 0.25937
 H213 H 0.29244 0.22715 0.22981
 H214 H 0.38424 0.31139 0.26237
 H215 H 0.23015 0.39694 0.29116
 C216 C 0.72268 -0.02081 -0.09872
 C217 C 0.80175 0.02906 -0.09548
 C218 C 0.82090 0.08461 -0.07410
 C219 C 0.76332 0.08892 -0.05634
 C220 C 0.68522 0.03659 -0.05889
 C221 C 0.66531 -0.01794 -0.08030
 H222 H 0.70451 -0.06539 -0.11434
 H223 H 0.88047 0.12648 -0.07138
 H224 H 0.77995 0.13152 -0.03995
 H225 H 0.60515 -0.05906 -0.08258
 C226 C 0.30747 0.07172 0.08937
 C227 C 0.23470 0.00430 0.09126
 C228 C 0.22594 -0.05897 0.07514
 C229 C 0.28773 -0.05426 0.05710
 C230 C 0.35944 0.01405 0.05454
 C231 C 0.36886 0.07676 0.07104
 H232 H 0.31715 0.12097 0.10203
 H233 H 0.17072 -0.11145 0.07580
 H234 H 0.27861 -0.10355 0.04454
 H235 H 0.42367 0.12982 0.06975
 C236 C 0.70204 0.65274 0.42004
 C237 C 0.69545 0.71472 0.43252
 C238 C 0.63079 0.72075 0.42648
 C239 C 0.57867 0.67042 0.40800
 C240 C 0.58837 0.61173 0.39499
 C241 C 0.64979 0.60270 0.40161
 H242 H 0.74578 0.63979 0.42493
 H243 H 0.62177 0.76695 0.43428
 H244 H 0.53172 0.67901 0.40331
 H245 H 0.65797 0.55696 0.39240
 C246 C 0.01873 0.29121 0.76038
 C247 C 0.08509 0.28374 0.75565
 C248 C 0.13952 0.32295 0.73289
 C249 C 0.12770 0.36853 0.71504
 C250 C 0.06038 0.37455 0.71926
 C251 C 0.00606 0.33564 0.74216
 H252 H -0.02443 0.26075 0.77768
 H253 H 0.19102 0.31794 0.72886
 H254 H 0.17045 0.39761 0.69749
 H255 H -0.04616 0.33943 0.74593
 C256 C 0.69436 -0.03095 0.08621
 C257 C 0.75300 0.03911 0.09572
 C258 C 0.76135 0.10755 0.08570
 C259 C 0.71274 0.10607 0.06640
 C260 C 0.65481 0.03608 0.05654
 C261 C 0.64585 -0.03246 0.06679
 H262 H 0.68714 -0.08468 0.09329
 H263 H 0.80537 0.16232 0.09286
 H264 H 0.72120 0.16002 0.05899
 H265 H 0.60198 -0.08723 0.05956
 C266 C 0.18143 0.24451 0.41496
 C267 C 0.20324 0.19641 0.42692
 C268 C 0.28017 0.21264 0.42208
 C269 C 0.33370 0.27421 0.40473
 C270 C 0.31163 0.32156 0.39231
 C271 C 0.23532 0.30694 0.39799
 H272 H 0.12253 0.23357 0.41868
 H273 H 0.29827 0.17633 0.43105
 H274 H 0.39226 0.28429 0.40077
 H275 H 0.21668 0.34227 0.38861
 C276 C 0.10181 0.78500 0.73102
 C277 C 0.04664 0.76897 0.75433
 C278 C -0.01020 0.69225 0.76016
 C279 C -0.01308 0.63362 0.74275
 C280 C 0.04170 0.65004 0.71944
 C281 C 0.09984 0.72611 0.71397
 H282 H 0.14556 0.84329 0.72542
 H283 H -0.05251 0.67720 0.77823
 H284 H -0.05838 0.57527 0.74750
 H285 H 0.14204 0.74042 0.69587
   
