data_POSCAR
  _audit_creation_date              2014-09-24
  _audit_creation_method            'ToBaCCo'
  _symmetry_space_group_name_H-M    'P1'
  _symmetry_Int_Tables_number       1
  _symmetry_cell_setting            triclinic
  loop_
  _symmetry_equiv_pos_as_xyz
 x,y,z
_cell_length_a 19.9787
_cell_length_b 20.9708
_cell_length_c 49.8628
_cell_angle_alpha 93.418000
_cell_angle_beta 86.260300
_cell_angle_gamma 119.497100
loop_
  _atom_site_label
  _atom_site_type_symbol
  _atom_site_fract_x
  _atom_site_fract_y
  _atom_site_fract_z
C1 C -0.00093 0.02698 0.55156
 H2 H 0.01030 -0.01356 0.55936
 C3 C 0.00548 0.08484 0.56845
 H4 H 0.01951 0.08723 0.58924
 C5 C -0.02583 0.07761 0.51469
 H6 H -0.03477 0.07581 0.49343
 C7 C -0.01973 0.13685 0.53098
 H8 H -0.02532 0.18013 0.52239
 N9 N -0.01503 0.02491 0.52509
 C10 C 0.08171 -0.11094 0.52059
 H11 H 0.13034 -0.07570 0.50773
 C12 C 0.08541 -0.16271 0.53610
 H13 H 0.13737 -0.16696 0.53530
 C14 C -0.04587 -0.14929 0.53734
 H15 H -0.09690 -0.14363 0.53765
 C16 C -0.04419 -0.20042 0.55335
 H17 H -0.09368 -0.23310 0.56641
 Zn18 Zn 0.00076 -0.04099 0.50148
 N19 N 0.01662 -0.10525 0.52168
 C20 C 0.15114 0.07295 0.48939
 N21 N 0.08565 0.01881 0.47843
 C22 C 0.07402 0.01633 0.45170
 C23 C 0.12767 0.07107 0.43513
 C24 C 0.20636 0.12946 0.47344
 C25 C -0.15054 -0.09859 0.48037
 C26 C -0.20812 -0.14432 0.46270
 C27 C -0.12965 -0.19792 0.44672
 C28 C -0.07472 -0.15240 0.46489
 N29 N -0.08450 -0.10211 0.48048
 H30 H 0.15797 0.07494 0.51082
 H31 H 0.02084 -0.02507 0.44337
 H32 H 0.11600 0.07011 0.41415
 H33 H 0.25640 0.17443 0.48250
 H34 H -0.15851 -0.06031 0.49385
 H35 H -0.26149 -0.14255 0.46389
 H36 H -0.11587 -0.23281 0.43335
 H37 H -0.02202 -0.15477 0.46577
 C38 C 0.02142 -0.20861 0.55255
 C39 C -0.00149 0.14162 0.55796
 C40 C -0.19697 -0.19282 0.44433
 C41 C 0.19349 0.12933 0.44613
 C42 C 1.11012 0.01003 0.15458
 H43 H 1.13044 0.04430 0.17249
 C44 C 1.16377 0.00774 0.13582
 H45 H 1.22458 0.03969 0.13961
 C46 C 1.00750 -0.06908 0.12682
 H47 H 0.94669 -0.09665 0.12306
 C48 C 1.05957 -0.07255 0.10736
 H49 H 1.03863 -0.10318 0.08865
 N50 N 1.03367 -0.02693 0.14964
 C51 C 0.83012 -0.02089 0.15307
 H52 H 0.80193 -0.06142 0.16826
 C53 C 0.78522 -0.01221 0.13495
 H54 H 0.72312 -0.04548 0.13656
 C55 C 0.94459 0.06818 0.13121
 H56 H 1.00679 0.09742 0.12937
 C57 C 0.90162 0.07833 0.11249
 H58 H 0.93092 0.11577 0.09630
 Zn59 Zn 0.96620 -0.00661 0.17255
 N60 N 0.90838 0.01843 0.15081
 C61 C 1.04879 0.14158 0.19420
 N62 N 1.02661 0.06967 0.19720
 C63 C 1.05055 0.04775 0.21797
 C64 C 1.09908 0.09873 0.23669
 C65 C 1.09823 0.19484 0.21249
 C66 C 0.88005 -0.15765 0.18811
 C67 C 0.82475 -0.21383 0.20419
 C68 C 0.80615 -0.12321 0.23083
 C69 C 0.86081 -0.06933 0.21426
 N70 N 0.89620 -0.08716 0.19332
 H71 H 1.02953 0.15775 0.17742
 H72 H 1.03291 -0.00963 0.21966
 H73 H 1.11797 0.08039 0.25302
 H74 H 1.11696 0.25217 0.20982
 H75 H 0.90927 -0.17035 0.17139
 H76 H 0.81170 -0.26993 0.19994
 H77 H 0.77936 -0.10775 0.24763
 H78 H 0.87496 -0.01280 0.21796
 C79 C 0.82091 0.03709 0.11416
 C80 C 1.13884 -0.03265 0.11167
 C81 C 0.78637 -0.19663 0.22558
 C82 C 1.12356 0.17314 0.23404
 C83 C 0.09516 0.97952 0.86417
 H84 H 0.03756 0.93301 0.86403
 C85 C 0.14556 0.98493 0.88319
 H86 H 0.12667 0.94231 0.89770
 C87 C 0.18818 1.09318 0.84602
 H88 H 0.20376 1.13533 0.83163
 C89 C 0.24140 1.10021 0.86459
 H90 H 0.29840 1.14776 0.86440
 N91 N 0.11615 1.03402 0.84664
 C92 C -0.12131 0.97857 0.84504
 H93 H -0.14003 0.94866 0.82611
 C94 C -0.17462 0.98479 0.86318
 H95 H -0.23444 0.95861 0.85804
 C96 C -0.01998 1.05294 0.87392
 H97 H 0.04062 1.08106 0.87787
 C98 C -0.07060 1.06128 0.89229
 H99 H -0.04835 1.09257 0.91079
 Zn100 Zn 0.03311 1.01824 0.82618
 N101 N -0.04563 1.01214 0.85084
 C102 C -0.05428 0.86480 0.80943
 N103 N 0.00854 0.93174 0.80533
 C104 C 0.06364 0.94103 0.78606
 C105 C 0.05478 0.88312 0.76880
 C106 C -0.06437 0.80435 0.79296
 C107 C 0.08481 1.16583 0.81315
 C108 C 0.08991 1.22082 0.79712
 C109 C 0.03279 1.13002 0.76130
 C110 C 0.02864 1.07706 0.77790
 N111 N 0.05482 1.09556 0.80326
 H112 H -0.09569 0.85792 0.82564
 H113 H 0.11416 0.99436 0.78382
 H114 H 0.09827 0.89234 0.75304
 H115 H -0.11396 0.75100 0.79645
 H116 H 0.10246 1.17867 0.83372
 H117 H 0.11265 1.27640 0.80517
 H118 H 0.01072 1.11427 0.74128
 H119 H 0.00122 1.02056 0.77082
 C120 C -0.14899 1.02889 0.88684
 C121 C 0.21893 1.04657 0.88399
 C122 C 0.06318 1.20255 0.77093
 C123 C -0.01023 0.81392 0.77188
 C124 C 0.37727 0.03607 -0.02517
 C125 C 0.33197 0.02223 -0.00135
 C126 C 0.35701 0.01243 0.02281
 C127 C 0.43020 0.01759 0.02349
 C128 C 0.47547 0.02878 -0.00072
 C129 C 0.44878 0.03758 -0.02518
 C130 C 0.49473 0.04868 -0.04890
 C131 C 0.56405 0.04822 -0.04883
 C132 C 0.59142 0.03944 -0.02486
 C133 C 0.54790 0.03171 -0.00046
 C134 C 0.45948 0.01234 0.04766
 C135 C 0.53202 0.01806 0.04805
 C136 C 0.57695 0.02740 0.02418
 C137 C 0.65039 0.03276 0.02419
 C138 C 0.69098 0.03707 -0.00016
 C139 C 0.66199 0.03947 -0.02459
 H140 H 0.47744 0.05742 -0.06783
 H141 H 0.59670 0.05609 -0.06772
 H142 H 0.42677 0.00448 0.06654
 H143 H 0.55230 0.01425 0.06718
 H144 H 0.27620 0.01918 -0.00162
 H145 H 0.74647 0.03946 -0.00009
 C146 C 0.03759 0.35953 0.63990
 C147 C 0.04248 0.33365 0.66445
 C148 C 0.03972 0.36900 0.68879
 C149 C 0.02823 0.43030 0.68888
 C150 C 0.02635 0.45898 0.66405
 C151 C 0.03270 0.42434 0.63944
 C152 C 0.03533 0.45595 0.61509
 C153 C 0.03117 0.52023 0.61487
 C154 C 0.02088 0.55344 0.63895
 C155 C 0.01827 0.52247 0.66381
 C156 C 0.01871 0.46361 0.71300
 C157 C 0.00681 0.52372 0.71276
 C158 C 0.00766 0.55480 0.68841
 C159 C -0.00230 0.61702 0.68787
 C160 C 0.00212 0.64771 0.66320
 C161 C 0.01337 0.61703 0.63887
 H162 H 0.04212 0.43193 0.59599
 H163 H 0.03511 0.54312 0.59557
 H164 H 0.01909 0.44265 0.73228
 H165 H -0.00245 0.54589 0.73189
 H166 H 0.04835 0.28490 0.66462
 H167 H -0.00372 0.69645 0.66294
 C168 C 0.32839 0.34854 0.31753
 C169 C 0.30425 0.31252 0.34187
 C170 C 0.34473 0.34393 0.36525
 C171 C 0.40935 0.41505 0.36471
 C172 C 0.43662 0.45070 0.33986
 C173 C 0.39696 0.41660 0.31604
 C174 C 0.42656 0.45157 0.29147
 C175 C 0.49461 0.51834 0.29024
 C176 C 0.53334 0.55429 0.31372
 C177 C 0.50348 0.52071 0.33884
 C178 C 0.44693 0.45148 0.38829
 C179 C 0.51026 0.52188 0.38749
 C180 C 0.54020 0.55701 0.36293
 C181 C 0.60549 0.62777 0.36170
 C182 C 0.63585 0.65875 0.33668
 C183 C 0.60121 0.62307 0.31280
 H184 H 0.39799 0.42705 0.27289
 H185 H 0.51589 0.54216 0.27074
 H186 H 0.42674 0.42624 0.40762
 H187 H 0.53594 0.54818 0.40630
 H188 H 0.25306 0.25897 0.34261
 H189 H 0.68741 0.71203 0.33579
 C190 C 0.08894 0.25352 0.58531
 C191 C 0.01486 0.20717 0.57516
 C192 C -0.04641 0.21891 0.58374
 C193 C -0.03665 0.27206 0.60361
 C194 C 0.03463 0.31487 0.61534
 C195 C 0.09876 0.30756 0.60568
 C196 C 0.15347 0.24697 0.57575
 C197 C 0.22564 0.29208 0.58629
 C198 C 0.23500 0.34452 0.60638
 C199 C 0.17235 0.35252 0.61602
 H200 H 0.14889 0.20759 0.55991
 H201 H 0.27460 0.28646 0.57876
 H202 H 0.29117 0.37945 0.61444
 H203 H 0.18212 0.39452 0.63141
 H204 H -0.10316 0.18401 0.57606
 H205 H -0.08608 0.27725 0.61092
 C206 C 0.65603 0.73989 0.25054
 C207 C 0.72940 0.74658 0.24385
 C208 C 0.75348 0.70565 0.25764
 C209 C 0.70897 0.66292 0.27902
 C210 C 0.63928 0.66008 0.28736
 C211 C 0.61151 0.69779 0.27291
 C212 C 0.62620 0.77469 0.23560
 C213 C 0.55578 0.77058 0.24320
 C214 C 0.51382 0.73187 0.26572
 C215 C 0.54122 0.69579 0.28052
 H216 H 0.65665 0.80471 0.21783
 H217 H 0.53377 0.79776 0.23161
 H218 H 0.45951 0.72939 0.27164
 H219 H 0.50671 0.66610 0.29782
 H220 H 0.80928 0.71011 0.25283
 H221 H 0.73077 0.63439 0.29001
 C222 C 0.29458 0.11045 -0.07427
 C223 C 0.26974 0.05340 -0.09436
 C224 C 0.28557 -0.00417 -0.09209
 C225 C 0.32247 -0.00770 -0.07001
 C226 C 0.34659 0.04720 -0.04976
 C227 C 0.33485 0.10800 -0.05211
 C228 C 0.27788 0.16841 -0.07502
 C229 C 0.30363 0.22431 -0.05525
 C230 C 0.34573 0.22340 -0.03427
 C231 C 0.36113 0.16581 -0.03258
 H232 H 0.24447 0.17116 -0.09063
 H233 H 0.29082 0.26861 -0.05622
 H234 H 0.36594 0.26720 -0.01908
 H235 H 0.39379 0.16703 -0.01588
 H236 H 0.26632 -0.04848 -0.10711
 H237 H 0.33062 -0.05469 -0.06833
 C238 C -0.03739 0.66569 0.57299
 C239 C 0.02387 0.73892 0.57070
 C240 C 0.08340 0.76617 0.58878
 C241 C 0.08043 0.72431 0.60992
 C242 C 0.01746 0.65428 0.61390
 C243 C -0.04209 0.62406 0.59530
 C244 C -0.09447 0.63309 0.55366
 C245 C -0.15683 0.56286 0.55703
 C246 C -0.16355 0.52384 0.57960
 C247 C -0.10696 0.55395 0.59864
 H248 H -0.09103 0.66130 0.53571
 H249 H -0.20037 0.53876 0.54211
 H250 H -0.21257 0.46970 0.58227
 H251 H -0.11437 0.52168 0.61585
 H252 H 0.13057 0.82185 0.58742
 H253 H 0.12619 0.74802 0.62406
 C254 C 0.15653 0.26883 0.27212
 C255 C 0.17745 0.22699 0.25360
 C256 C 0.24918 0.23084 0.25526
 C257 C 0.29895 0.27307 0.27537
 C258 C 0.27876 0.31322 0.29430
 C259 C 0.20809 0.31289 0.29247
 C260 C 0.08450 0.26592 0.27157
 C261 C 0.06490 0.30725 0.29005
 C262 C 0.11608 0.35161 0.30951
 C263 C 0.18696 0.35440 0.31085
 H264 H 0.04252 0.23161 0.25706
 H265 H 0.00962 0.30474 0.28930
 H266 H 0.10056 0.38365 0.32376
 H267 H 0.22499 0.38932 0.32635
 H268 H 0.26568 0.19882 0.24133
 H269 H 0.35263 0.27263 0.27672
 C270 C 0.81918 0.10599 -0.08055
 C271 C 0.79961 0.03782 -0.09445
 C272 C 0.72953 -0.02438 -0.08734
 C273 C 0.68476 -0.02214 -0.06511
 C274 C 0.70771 0.04238 -0.04954
 C275 C 0.77381 0.10763 -0.05757
 C276 C 0.88031 0.17326 -0.08983
 C277 C 0.89956 0.23904 -0.07569
 C278 C 0.85754 0.23969 -0.05242
 C279 C 0.79477 0.17483 -0.04348
 H280 H 0.91262 0.17596 -0.10840
 H281 H 0.94693 0.28986 -0.08298
 H282 H 0.87266 0.29093 -0.04155
 H283 H 0.76208 0.17803 -0.02576
 H284 H 0.71205 -0.07690 -0.09759
 H285 H 0.63323 -0.07202 -0.05931
 C286 C 0.20296 -0.08545 0.07842
 C287 C 0.19628 -0.02521 0.08990
 C288 C 0.24491 0.04511 0.08018
 C289 C 0.29795 0.05630 0.05899
 C290 C 0.30450 -0.00237 0.04691
 C291 C 0.25725 -0.07394 0.05661
 C292 C 0.15759 -0.15668 0.08827
 C293 C 0.16423 -0.21547 0.07650
 C294 C 0.21610 -0.20447 0.05487
 C295 C 0.26231 -0.13446 0.04494
 H296 H 0.11714 -0.16748 0.10519
 H297 H 0.12896 -0.26987 0.08423
 H298 H 0.22078 -0.25039 0.04580
 H299 H 0.30211 -0.12815 0.02818
 H300 H 0.24052 0.09172 0.08872
 H301 H 0.33336 0.11112 0.05158
 C302 C 0.70803 0.79004 0.41101
 C303 C 0.75118 0.76551 0.42522
 C304 C 0.73982 0.69428 0.41865
 C305 C 0.68961 0.64924 0.39918
 C306 C 0.64606 0.67162 0.38582
 C307 C 0.65251 0.74099 0.39240
 C308 C 0.72427 0.86406 0.41209
 C309 C 0.67976 0.88566 0.39881
 C310 C 0.62004 0.83520 0.38321
 C311 C 0.60708 0.76377 0.37964
 H312 H 0.77321 0.90707 0.42216
 H313 H 0.69238 0.94219 0.40037
 H314 H 0.58540 0.85216 0.37305
 H315 H 0.56191 0.72676 0.36651
 H316 H 0.76842 0.67131 0.42914
 H317 H 0.68566 0.59653 0.39414
 C318 C 0.13037 0.31079 0.74032
 C319 C 0.06272 0.25713 0.75361
 C320 C -0.00896 0.24855 0.74769
 C321 C -0.01500 0.28927 0.72788
 C322 C 0.05052 0.33979 0.71349
 C323 C 0.12414 0.35264 0.72013
 C324 C 0.20377 0.32175 0.74582
 C325 C 0.26957 0.37373 0.73208
 C326 C 0.26352 0.41518 0.71255
 C327 C 0.19158 0.40479 0.70649
 H328 H 0.21101 0.29038 0.76070
 H329 H 0.32555 0.38178 0.73657
 H330 H 0.31480 0.45539 0.70195
 H331 H 0.18921 0.43796 0.69115
 H332 H -0.06110 0.20733 0.75761
 H333 H -0.07157 0.27853 0.72274
 C334 C 0.77300 0.10365 0.08635
 C335 C 0.77391 0.03908 0.09272
 C336 C 0.73019 -0.02606 0.07786
 C337 C 0.68829 -0.02761 0.05638
 C338 C 0.68836 0.03581 0.04917
 C339 C 0.73028 0.10208 0.06424
 C340 C 0.81296 0.16959 0.10156
 C341 C 0.81247 0.23290 0.09472
 C342 C 0.77215 0.23173 0.07278
 C343 C 0.73132 0.16706 0.05762
 H344 H 0.84433 0.17271 0.11891
 H345 H 0.84352 0.28315 0.10653
 H346 H 0.77220 0.28111 0.06756
 H347 H 0.70038 0.16834 0.04082
 H348 H 0.73022 -0.07589 0.08248
 H349 H 0.65697 -0.07836 0.04482
 C350 C 0.31499 0.20568 0.41778
 C351 C 0.24293 0.19287 0.42928
 C352 C 0.21159 0.23582 0.42192
 C353 C 0.24818 0.28811 0.40237
 C354 C 0.31732 0.29913 0.38961
 C355 C 0.35254 0.25928 0.39770
 C356 C 0.34905 0.16441 0.42497
 C357 C 0.41898 0.17620 0.41285
 C358 C 0.45566 0.22848 0.39323
 C359 C 0.42277 0.26947 0.38554
 H360 H 0.32202 0.12286 0.43995
 H361 H 0.44466 0.14435 0.41862
 H362 H 0.50971 0.23706 0.38381
 H363 H 0.45281 0.30905 0.37006
 H364 H 0.15629 0.22625 0.43051
 H365 H 0.22046 0.31779 0.39617
 C366 C -0.08220 0.71406 0.73624
 C367 C -0.01864 0.75290 0.75308
 C368 C 0.04343 0.73902 0.75005
 C369 C 0.04587 0.69151 0.72983
 C370 C -0.01484 0.65426 0.71246
 C371 C -0.08101 0.66283 0.71632
 C372 C -0.14539 0.72704 0.73777
 C373 C -0.20761 0.68749 0.72129
 C374 C -0.20794 0.63502 0.70279
 C375 C -0.14525 0.62283 0.70017
 H376 H -0.14745 0.76804 0.75140
 H377 H -0.25586 0.69768 0.72288
 H378 H -0.25665 0.60419 0.69018
 H379 H -0.14751 0.58183 0.68544
 H380 H 0.09246 0.76819 0.76267
 H381 H 0.09716 0.68620 0.72695
   
