data_POSCAR
  _audit_creation_date              2014-09-24
  _audit_creation_method            'ToBaCCo'
  _symmetry_space_group_name_H-M    'P1'
  _symmetry_Int_Tables_number       1
  _symmetry_cell_setting            triclinic
  loop_
  _symmetry_equiv_pos_as_xyz
 x,y,z
_cell_length_a 47.4215
_cell_length_b 47.5451
_cell_length_c 48.0222
_cell_angle_alpha 90.450500
_cell_angle_beta 89.160900
_cell_angle_gamma 89.524800
loop_
  _atom_site_label
  _atom_site_type_symbol
  _atom_site_fract_x
  _atom_site_fract_y
  _atom_site_fract_z
N1 N 0.59233 0.66247 0.62044
 N2 N 0.58643 0.65417 0.64589
 C3 C 0.56896 0.67302 0.65825
 C4 C 0.56339 0.69430 0.63951
 C5 C 0.57854 0.68679 0.61562
 H6 H 0.56059 0.67102 0.67920
 H7 H 0.57972 0.69819 0.59625
 Cu8 Cu 0.60122 0.61910 0.66051
 Cu9 Cu 0.61726 0.64055 0.59575
 Cu10 Cu 0.66300 0.59796 0.63246
 N11 N 0.62398 0.59015 0.67787
 N12 N 0.64874 0.58298 0.66737
 C13 C 0.66114 0.56431 0.68421
 C14 C 0.64300 0.55901 0.70651
 C15 C 0.61947 0.57585 0.70160
 H16 H 0.68159 0.55494 0.67995
 H17 H 0.60083 0.57829 0.71465
 N18 N 0.66850 0.60692 0.59282
 N19 N 0.65133 0.62331 0.57872
 C20 C 0.66051 0.62448 0.55204
 C21 C 0.68420 0.60743 0.54925
 C22 C 0.68861 0.59665 0.57544
 H23 H 0.65021 0.63603 0.53570
 H24 H 0.70509 0.58211 0.58133
 H25 H 0.62309 0.60233 0.61707
 H26 H 0.63952 0.63529 0.63041
 N27 N 0.91978 0.33283 0.09597
 N28 N 0.92959 0.33995 0.12042
 C29 C 0.95291 0.32457 0.12546
 C30 C 0.95830 0.30704 0.10261
 C31 C 0.93670 0.31311 0.08430
 H32 H 0.96538 0.32671 0.14400
 H33 H 0.93295 0.30358 0.06420
 Cu34 Cu 0.91200 0.37008 0.14219
 Cu35 Cu 0.88558 0.34934 0.08119
 Cu36 Cu 0.84754 0.39380 0.12559
 N37 N 0.89747 0.40590 0.15622
 N38 N 0.87207 0.41506 0.15020
 C39 C 0.86720 0.43964 0.16364
 C40 C 0.89103 0.44639 0.17866
 C41 C 0.90976 0.42441 0.17339
 H42 H 0.84785 0.45172 0.16238
 H43 H 0.93060 0.42168 0.18185
 N44 N 0.83126 0.37684 0.09194
 N45 N 0.84590 0.35983 0.07525
 C46 C 0.82887 0.34987 0.05541
 C47 C 0.80233 0.36145 0.05952
 C48 C 0.80458 0.37869 0.08273
 H49 H 0.83518 0.33486 0.03942
 H50 H 0.78781 0.39074 0.09276
 H51 H 0.88330 0.38701 0.10396
 H52 H 0.86850 0.35473 0.12040
 N53 N 0.40585 0.16616 -0.11917
 N54 N 0.41387 0.15626 -0.14370
 C55 C 0.43154 0.17458 -0.15583
 C56 C 0.43500 0.19722 -0.13794
 C57 C 0.41843 0.19109 -0.11478
 H58 H 0.44135 0.17146 -0.17609
 H59 H 0.41545 0.20395 -0.09628
 Cu60 Cu 0.40086 0.12045 -0.15801
 Cu61 Cu 0.37946 0.14596 -0.09515
 Cu62 Cu 0.34816 0.08766 -0.12458
 N63 N 0.37919 0.09126 -0.17611
 N64 N 0.35795 0.07919 -0.16319
 C65 C 0.34592 0.06068 -0.18056
 C66 C 0.36054 0.06097 -0.20568
 C67 C 0.38165 0.08055 -0.20210
 H68 H 0.32815 0.04760 -0.17517
 H69 H 0.39727 0.08689 -0.21740
 N70 N 0.34105 0.09955 -0.08583
 N71 N 0.35225 0.12224 -0.07466
 C72 C 0.34242 0.12515 -0.04827
 C73 C 0.32455 0.10296 -0.04258
 C74 C 0.32424 0.08721 -0.06685
 H75 H 0.34803 0.14194 -0.03413
 H76 H 0.31210 0.06844 -0.07055
 H77 H 0.38554 0.10627 -0.11161
 H78 H 0.35937 0.12966 -0.12920
 N79 N 0.07847 0.83451 0.40194
 N80 N 0.06890 0.84112 0.37732
 C81 C 0.04565 0.82595 0.37222
 C82 C 0.04007 0.80911 0.39520
 C83 C 0.06148 0.81534 0.41365
 H84 H 0.03336 0.82776 0.35353
 H85 H 0.06508 0.80630 0.43387
 Cu86 Cu 0.08671 0.87043 0.35545
 Cu87 Cu 0.11247 0.85087 0.41693
 Cu88 Cu 0.15101 0.89350 0.37255
 N89 N 0.10137 0.90573 0.34138
 N90 N 0.12666 0.91466 0.34767
 C91 C 0.13159 0.93897 0.33428
 C92 C 0.10791 0.94578 0.31900
 C93 C 0.08920 0.92411 0.32406
 H94 H 0.15087 0.95083 0.33578
 H95 H 0.06845 0.92152 0.31543
 N96 N 0.16696 0.87702 0.40645
 N97 N 0.15210 0.86075 0.42316
 C98 C 0.16892 0.85087 0.44320
 C99 C 0.19556 0.86173 0.43919
 C100 C 0.19359 0.87847 0.41583
 H101 H 0.16239 0.83636 0.45923
 H102 H 0.21051 0.88987 0.40579
 H103 H 0.11501 0.88787 0.39382
 H104 H 0.12996 0.85492 0.37785
 C105 C 0.11915 0.13624 0.15732
 C106 C 0.10160 0.15850 0.14910
 C107 C 0.10783 0.17373 0.12485
 C108 C 0.13262 0.16744 0.10957
 C109 C 0.15053 0.14548 0.11771
 C110 C 0.14365 0.12960 0.14151
 C111 C 0.11170 0.11954 0.18015
 C112 C 0.12784 0.09564 0.18696
 C113 C 0.15267 0.08963 0.17153
 C114 C 0.16065 0.10642 0.14887
 C115 C 0.18455 0.09948 0.13257
 C116 C 0.19138 0.11502 0.10860
 C117 C 0.17438 0.13820 0.10154
 H118 H 0.08225 0.16293 0.16068
 H119 H 0.13756 0.17923 0.09091
 H120 H 0.09279 0.12470 0.19214
 H121 H 0.16506 0.07106 0.17620
 H122 H 0.19753 0.08162 0.13824
 H123 H 0.17893 0.14983 0.08271
 C124 C 0.40399 0.89085 0.63009
 C125 C 0.42620 0.87277 0.63722
 C126 C 0.43155 0.84785 0.62197
 C127 C 0.41506 0.84183 0.59856
 C128 C 0.39295 0.85987 0.59098
 C129 C 0.38729 0.88441 0.60687
 C130 C 0.39721 0.91436 0.64679
 C131 C 0.37363 0.93130 0.64088
 C132 C 0.35768 0.92532 0.61714
 C133 C 0.36420 0.90190 0.60024
 C134 C 0.34696 0.89476 0.57783
 C135 C 0.35208 0.87002 0.56228
 C136 C 0.37541 0.85294 0.56871
 H137 H 0.43894 0.87780 0.65512
 H138 H 0.41855 0.82242 0.58699
 H139 H 0.40933 0.91849 0.66532
 H140 H 0.33961 0.93842 0.61231
 H141 H 0.32862 0.90767 0.57347
 H142 H 0.37948 0.83384 0.55679
 C143 C 0.88038 0.63830 0.34187
 C144 C 0.89746 0.66100 0.34949
 C145 C 0.89135 0.67673 0.37378
 C146 C 0.86700 0.67062 0.38954
 C147 C 0.84968 0.64811 0.38212
 C148 C 0.85656 0.63163 0.35839
 C149 C 0.88774 0.62117 0.31895
 C150 C 0.87218 0.59688 0.31275
 C151 C 0.84819 0.59064 0.32910
 C152 C 0.84032 0.60779 0.35187
 C153 C 0.81741 0.60060 0.36916
 C154 C 0.81064 0.61679 0.39300
 C155 C 0.82659 0.64080 0.39904
 H156 H 0.91644 0.66534 0.33748
 H157 H 0.86208 0.68283 0.40817
 H158 H 0.90608 0.62639 0.30635
 H159 H 0.83638 0.57169 0.32496
 H160 H 0.80523 0.58201 0.36446
 H161 H 0.82198 0.65294 0.41779
 C162 C 0.59358 0.39189 -0.13085
 C163 C 0.57087 0.37451 -0.13752
 C164 C 0.56511 0.35025 -0.12189
 C165 C 0.58157 0.34436 -0.09845
 C166 C 0.60416 0.36175 -0.09130
 C167 C 0.61033 0.38550 -0.10766
 C168 C 0.60087 0.41451 -0.14805
 C169 C 0.62508 0.43042 -0.14275
 C170 C 0.64110 0.42455 -0.11906
 C171 C 0.63398 0.40214 -0.10158
 C172 C 0.65119 0.39506 -0.07917
 C173 C 0.64550 0.37114 -0.06308
 C174 C 0.62169 0.35482 -0.06904
 H175 H 0.55816 0.37945 -0.15544
 H176 H 0.57775 0.32545 -0.08657
 H177 H 0.58870 0.41862 -0.16654
 H178 H 0.65971 0.43688 -0.11480
 H179 H 0.66992 0.40729 -0.07518
 H180 H 0.61724 0.33631 -0.05675
 C181 C 0.01981 0.26030 0.11656
 C182 C 0.02384 0.24816 0.09075
 C183 C 0.00711 0.25457 0.06815
 C184 C -0.01475 0.27427 0.07231
 C185 C -0.01942 0.28750 0.09874
 C186 C -0.00147 0.28034 0.12109
 O187 O 0.03723 0.25028 0.13556
 C188 C 0.05262 0.23145 0.12136
 C189 C 0.04537 0.22951 0.09380
 C190 C 0.05838 0.21077 0.07523
 C191 C 0.07956 0.19311 0.08556
 C192 C 0.08712 0.19429 0.11405
 C193 C 0.07349 0.21394 0.13215
 H194 H 0.01056 0.24452 0.04808
 H195 H -0.02766 0.27924 0.05463
 H196 H -0.00431 0.28931 0.14172
 H197 H 0.05217 0.20950 0.05366
 H198 H 0.08943 0.17788 0.07157
 H199 H 0.07873 0.21527 0.15398
 C200 C 0.51616 0.75730 0.62646
 C201 C 0.50835 0.76446 0.65329
 C202 C 0.51809 0.75009 0.67636
 C203 C 0.53652 0.72727 0.67160
 C204 C 0.54480 0.71919 0.64409
 C205 C 0.53456 0.73473 0.62123
 O206 O 0.50378 0.77315 0.60746
 C207 C 0.48777 0.79064 0.62266
 C208 C 0.48984 0.78620 0.65081
 C209 C 0.47421 0.80146 0.67049
 C210 C 0.45550 0.82204 0.66077
 C211 C 0.45279 0.82710 0.63178
 C212 C 0.46944 0.81116 0.61252
 H213 H 0.51155 0.75606 0.69728
 H214 H 0.54427 0.71598 0.68943
 H215 H 0.54007 0.72905 0.59997
 H216 H 0.47593 0.79730 0.69253
 H217 H 0.44252 0.83341 0.67587
 H218 H 0.46800 0.81439 0.59029
 C219 C 0.97880 0.76276 0.38136
 C220 C 0.97474 0.75132 0.40726
 C221 C 0.99131 0.75812 0.42987
 C222 C 1.01306 0.77748 0.42565
 C223 C 1.01782 0.78996 0.39912
 C224 C 1.00001 0.78246 0.37673
 O225 O 0.96150 0.75242 0.36238
 C226 C 0.94618 0.73411 0.37671
 C227 C 0.95336 0.73280 0.40431
 C228 C 0.94049 0.71465 0.42302
 C229 C 0.91950 0.69690 0.41282
 C230 C 0.91193 0.69743 0.38432
 C231 C 0.92544 0.71650 0.36605
 H232 H 0.98782 0.74862 0.45003
 H233 H 1.02583 0.78275 0.44336
 H234 H 1.00291 0.79088 0.35605
 H235 H 0.94669 0.71386 0.44460
 H236 H 0.90980 0.68208 0.42696
 H237 H 0.92022 0.71733 0.34420
 C238 C 0.48054 0.26097 -0.12549
 C239 C 0.48845 0.26725 -0.15238
 C240 C 0.47920 0.25209 -0.17529
 C241 C 0.46123 0.22934 -0.17029
 C242 C 0.45287 0.22217 -0.14273
 C243 C 0.46250 0.23853 -0.12004
 O244 O 0.49266 0.27732 -0.10666
 C245 C 0.50859 0.29424 -0.12202
 C246 C 0.50670 0.28896 -0.15011
 C247 C 0.52242 0.30338 -0.16993
 C248 C 0.54106 0.32394 -0.16041
 C249 C 0.54365 0.32982 -0.13148
 C250 C 0.52686 0.31477 -0.11207
 H251 H 0.48586 0.25735 -0.19625
 H252 H 0.45391 0.21736 -0.18797
 H253 H 0.45692 0.23344 -0.09875
 H254 H 0.52086 0.29853 -0.19191
 H255 H 0.55415 0.33459 -0.17560
 H256 H 0.52825 0.31861 -0.08989
 C257 C 0.12170 0.00827 0.27245
 C258 C 0.09474 0.01456 0.26427
 C259 C 0.07131 -0.00016 0.27363
 C260 C 0.07586 -0.02244 0.29203
 C261 C 0.10352 -0.02969 0.30063
 C262 C 0.12673 -0.01378 0.29083
 O263 O 0.14110 0.02423 0.26030
 C264 C 0.12601 0.04088 0.24404
 C265 C 0.09754 0.03581 0.24575
 C266 C 0.07797 0.04995 0.22967
 C267 C 0.08815 0.07000 0.21086
 C268 C 0.11748 0.07572 0.20851
 C269 C 0.13660 0.06097 0.22567
 H270 H 0.05029 0.00513 0.26678
 H271 H 0.05774 -0.03401 0.29944
 H272 H 0.14813 -0.01885 0.29659
 H273 H 0.05570 0.04524 0.23107
 H274 H 0.07316 0.08034 0.19750
 H275 H 0.15907 0.06468 0.22453
 C276 C 0.63061 0.51475 -0.23092
 C277 C 0.65710 0.50349 -0.22760
 C278 C 0.67967 0.50977 -0.24512
 C279 C 0.67477 0.52838 -0.26706
 C280 C 0.64761 0.54066 -0.27105
 C281 C 0.62532 0.53375 -0.25228
 O282 O 0.61175 0.50484 -0.21285
 C283 C 0.62675 0.48698 -0.19778
 C284 C 0.65466 0.48556 -0.20586
 C285 C 0.67404 0.46773 -0.19344
 C286 C 0.66418 0.45039 -0.17199
 C287 C 0.63534 0.45098 -0.16354
 C288 C 0.61643 0.46978 -0.17657
 H289 H 0.70028 0.50039 -0.24222
 H290 H 0.69243 0.53324 -0.28060
 H291 H 0.60418 0.54201 -0.25459
 H292 H 0.69586 0.46683 -0.20035
 H293 H 0.67881 0.43576 -0.16264
 H294 H 0.59430 0.47063 -0.17070
 C295 C 0.37110 1.01710 0.72907
 C296 C 0.34390 1.00857 0.72450
 C297 C 0.32129 1.01687 0.74147
 C298 C 0.32697 1.03452 0.76422
 C299 C 0.35485 1.04363 0.76941
 C300 C 0.37716 1.03504 0.75130
 O301 O 0.38975 1.00537 0.71154
 C302 C 0.37396 0.98909 0.69558
 C303 C 0.34574 0.99044 0.70256
 C304 C 0.32560 0.97422 0.68937
 C305 C 0.33494 0.95557 0.66836
 C306 C 0.36403 0.95334 0.66103
 C307 C 0.38373 0.97069 0.67473
 H308 H 0.30012 1.00958 0.73767
 H309 H 0.30967 1.04100 0.77782
 H310 H 0.39872 1.04117 0.75505
 H311 H 0.30356 0.97538 0.69550
 H312 H 0.31963 0.94208 0.65860
 H313 H 0.40605 0.96943 0.66978
 C314 C 0.87744 0.50907 0.22623
 C315 C 0.90455 0.51557 0.23357
 C316 C 0.92798 0.50093 0.22328
 C317 C 0.92329 0.47850 0.20481
 C318 C 0.89551 0.47108 0.19706
 C319 C 0.87228 0.48691 0.20778
 O320 O 0.85811 0.52495 0.23923
 C321 C 0.87337 0.54177 0.25516
 C322 C 0.90189 0.53688 0.25243
 C323 C 0.92169 0.55126 0.26797
 C324 C 0.91169 0.57137 0.28731
 C325 C 0.88231 0.57686 0.29073
 C326 C 0.86295 0.56186 0.27410
 H327 H 0.94911 0.50636 0.22948
 H328 H 0.94140 0.46696 0.19668
 H329 H 0.85080 0.48167 0.20267
 H330 H 0.94402 0.54672 0.26575
 H331 H 0.92687 0.58196 0.30024
 H332 H 0.84043 0.56541 0.27607
 C333 C 0.28044 0.11362 0.02282
 C334 C 0.27349 0.08624 0.02869
 C335 C 0.28342 0.06353 0.01291
 C336 C 0.30092 0.06928 -0.01010
 C337 C 0.30821 0.09735 -0.01682
 C338 C 0.29820 0.11980 0.00025
 O339 O 0.26714 0.13221 0.03921
 C340 C 0.25142 0.11620 0.05571
 C341 C 0.25462 0.08793 0.05020
 C342 C 0.23896 0.06752 0.06385
 C343 C 0.21889 0.07662 0.08377
 C344 C 0.21477 0.10573 0.08963
 C345 C 0.23171 0.12572 0.07556
 H346 H 0.27733 0.04220 0.01771
 H347 H 0.30852 0.05187 -0.02286
 H348 H 0.30286 0.14146 -0.00470
 H349 H 0.24151 0.04541 0.05878
 H350 H 0.20577 0.06101 0.09374
 H351 H 0.22912 0.14807 0.07939
 C352 C 0.72497 0.61549 0.48180
 C353 C 0.73524 0.58853 0.47812
 C354 C 0.72904 0.56686 0.49642
 C355 C 0.71176 0.57328 0.51959
 C356 C 0.70081 0.60087 0.52380
 C357 C 0.70716 0.62217 0.50437
 O358 O 0.73526 0.63344 0.46330
 C359 C 0.75236 0.61748 0.44761
 C360 C 0.75292 0.58979 0.45568
 C361 C 0.77041 0.56971 0.44301
 C362 C 0.78842 0.57861 0.42145
 C363 C 0.78885 0.60722 0.41319
 C364 C 0.77016 0.62680 0.42627
 H365 H 0.73779 0.54595 0.49338
 H366 H 0.70702 0.55682 0.53436
 H367 H 0.69962 0.64354 0.50747
 H368 H 0.77075 0.54812 0.45000
 H369 H 0.80293 0.56347 0.41206
 H370 H 0.77014 0.64880 0.42061
 C371 C 0.73482 0.37001 0.01971
 C372 C 0.73143 0.34301 0.00986
 C373 C 0.74993 0.32118 0.01600
 C374 C 0.77303 0.32748 0.03279
 C375 C 0.77697 0.35512 0.04330
 C376 C 0.75732 0.37660 0.03700
 O377 O 0.71609 0.38805 0.00966
 C378 C 0.70056 0.37207 -0.00685
 C379 C 0.70895 0.34431 -0.00727
 C380 C 0.69647 0.32416 -0.02410
 C381 C 0.67472 0.33305 -0.04153
 C382 C 0.66606 0.36171 -0.04204
 C383 C 0.67901 0.38139 -0.02409
 H384 H 0.74709 0.30021 0.00761
 H385 H 0.78792 0.31086 0.03750
 H386 H 0.76019 0.39799 0.04425
 H387 H 0.70371 0.30251 -0.02433
 H388 H 0.66547 0.31782 -0.05549
 H389 H 0.67304 0.40342 -0.02412
 C390 C 0.26303 0.86936 0.47916
 C391 C 0.26597 0.84255 0.48939
 C392 C 0.24717 0.82113 0.48344
 C393 C 0.22426 0.82765 0.46646
 C394 C 0.22077 0.85510 0.45558
 C395 C 0.24071 0.87615 0.46169
 O396 O 0.28200 0.88709 0.48904
 C397 C 0.29721 0.87111 0.50584
 C398 C 0.28837 0.84365 0.50661
 C399 C 0.30043 0.82361 0.52377
 C400 C 0.32224 0.83230 0.54118
 C401 C 0.33139 0.86068 0.54132
 C402 C 0.31885 0.88023 0.52303
 H403 H 0.24967 0.80033 0.49211
 H404 H 0.20916 0.81136 0.46188
 H405 H 0.23819 0.89741 0.45414
 H406 H 0.29283 0.80221 0.52427
 H407 H 0.33115 0.81719 0.55540
 H408 H 0.32519 0.90205 0.52277
   
