data_POSCAR
  _audit_creation_date              2014-09-24
  _audit_creation_method            'ToBaCCo'
  _symmetry_space_group_name_H-M    'P1'
  _symmetry_Int_Tables_number       1
  _symmetry_cell_setting            triclinic
  loop_
  _symmetry_equiv_pos_as_xyz
 x,y,z
_cell_length_a 48.8207
_cell_length_b 48.8241
_cell_length_c 40.6742
_cell_angle_alpha 89.955500
_cell_angle_beta 89.965600
_cell_angle_gamma 88.381900
loop_
  _atom_site_label
  _atom_site_type_symbol
  _atom_site_fract_x
  _atom_site_fract_y
  _atom_site_fract_z
O1 O -0.00075 0.32430 -0.04236
 O2 O -0.05239 0.32451 0.02413
 O3 O 0.00109 0.32873 0.02167
 O4 O -0.05413 0.32043 -0.03933
 O5 O -0.04914 0.27540 -0.03496
 O6 O 0.00577 0.28366 0.02560
 O7 O -0.04727 0.27948 0.02810
 O8 O 0.00383 0.27925 -0.03797
 Cu9 Cu -0.02692 0.32909 -0.00938
 Cu10 Cu -0.02111 0.27495 -0.00436
 C11 C 0.01025 0.30164 -0.05131
 C12 C -0.05886 0.30185 0.03688
 C13 C 0.01281 0.30750 0.03382
 C14 C -0.06119 0.29644 -0.04702
 O15 O 0.54679 0.79755 0.45814
 O16 O 0.49501 0.80589 0.52404
 O17 O 0.54856 0.80191 0.52188
 O18 O 0.49332 0.80242 0.45997
 O19 O 0.49104 0.75739 0.46421
 O20 O 0.54611 0.75687 0.52585
 O21 O 0.49286 0.76083 0.52794
 O22 O 0.54420 0.75254 0.46243
 Cu23 Cu 0.52111 0.80651 0.49059
 Cu24 Cu 0.51827 0.75240 0.49554
 C25 C 0.55434 0.77355 0.44937
 C26 C 0.48518 0.78465 0.53705
 C27 C 0.55678 0.77922 0.53411
 C28 C 0.48285 0.77996 0.45169
 O29 O 1.00013 0.67691 -0.04361
 O30 O 1.05192 0.67638 0.02264
 O31 O 0.99843 0.67224 0.02042
 O32 O 1.05353 0.68077 -0.04081
 O33 O 1.04856 0.72578 -0.03624
 O34 O 0.99380 0.71728 0.02456
 O35 O 1.04684 0.72141 0.02683
 O36 O 0.99557 0.72193 -0.03901
 Cu37 Cu 1.02638 0.67198 -0.01077
 Cu38 Cu 1.02060 0.72610 -0.00551
 C39 C 0.98910 0.69961 -0.05241
 C40 C 1.05842 0.69899 0.03546
 C41 C 0.98677 0.69342 0.03272
 C42 C 1.06059 0.70479 -0.04843
 O43 O 0.50504 0.19338 0.52344
 O44 O 0.45344 0.20170 0.45740
 O45 O 0.50691 0.19700 0.45939
 O46 O 0.45150 0.19718 0.52114
 O47 O 0.45379 0.24223 0.52518
 O48 O 0.50904 0.24204 0.46370
 O49 O 0.45587 0.24672 0.46177
 O50 O 0.50704 0.23844 0.52742
 Cu51 Cu 0.47904 0.19275 0.48991
 Cu52 Cu 0.48170 0.24687 0.49496
 C53 C 0.51476 0.21462 0.53651
 C54 C 0.44585 0.22571 0.44864
 C55 C 0.51734 0.21952 0.45118
 C56 C 0.44318 0.21981 0.53339
 O57 O 0.69415 0.00386 -0.02255
 O58 O 0.70232 -0.04789 0.04344
 O59 O 0.69780 0.00561 0.04149
 O60 O 0.69768 -0.04968 -0.02027
 O61 O 0.74274 -0.04758 -0.02445
 O62 O 0.74285 0.00756 0.03704
 O63 O 0.74734 -0.04563 0.03894
 O64 O 0.73922 0.00567 -0.02666
 Cu65 Cu 0.69342 -0.02218 0.01097
 Cu66 Cu 0.74755 -0.01975 0.00577
 C67 C 0.71542 0.01351 -0.03569
 C68 C 0.72631 -0.05561 0.05212
 C69 C 0.72037 0.01594 0.04962
 C70 C 0.72026 -0.05807 -0.03260
 O71 O 0.17523 0.55233 0.47603
 O72 O 0.17598 0.50068 0.54250
 O73 O 0.17940 0.55411 0.53950
 O74 O 0.17161 0.49880 0.47846
 O75 O 0.21670 0.49456 0.47451
 O76 O 0.22446 0.54954 0.53511
 O77 O 0.22106 0.49652 0.53809
 O78 O 0.22031 0.54765 0.47204
 Cu79 Cu 0.17096 0.52682 0.50954
 Cu80 Cu 0.22514 0.52153 0.50450
 C81 C 0.19782 0.55901 0.46327
 C82 C 0.19874 0.48988 0.55143
 C83 C 0.20331 0.56140 0.54718
 C84 C 0.19293 0.48730 0.46629
 O85 O 0.29722 1.04832 0.04198
 O86 O 0.30514 0.99650 -0.02389
 O87 O 0.30151 1.05004 -0.02178
 O88 O 0.30187 0.99483 0.04020
 O89 O 0.25680 0.99278 0.03620
 O90 O 0.25644 1.04784 -0.02552
 O91 O 0.26004 0.99459 -0.02755
 O92 O 0.25219 1.04596 0.03792
 Cu93 Cu 0.30601 1.02259 0.00953
 Cu94 Cu 0.25186 1.02004 0.00486
 C95 C 0.27327 1.05600 0.05087
 C96 C 0.28381 0.98678 -0.03678
 C97 C 0.27884 1.05838 -0.03393
 C98 C 0.27937 0.98446 0.04860
 O99 O 0.82480 0.49896 0.54306
 O100 O 0.82553 0.44748 0.47650
 O101 O 0.82928 0.50099 0.47902
 O102 O 0.82121 0.44555 0.53994
 O103 O 0.77617 0.45027 0.53550
 O104 O 0.78421 0.50537 0.47502
 O105 O 0.78047 0.45230 0.47245
 O106 O 0.77975 0.50326 0.53860
 Cu107 Cu 0.82980 0.47290 0.51005
 Cu108 Cu 0.77564 0.47836 0.50495
 C109 C 0.80206 0.50980 0.55198
 C110 C 0.80294 0.44090 0.46369
 C111 C 0.80800 0.51258 0.46684
 C112 C 0.79726 0.43832 0.54758
 C113 C 0.19585 0.24518 0.17821
 C114 C 0.21669 0.23116 0.19522
 C115 C 0.22773 0.24256 0.22367
 C116 C 0.21906 0.26894 0.23461
 C117 C 0.19822 0.28299 0.21655
 C118 C 0.18634 0.27085 0.18900
 C119 C 0.23177 0.28159 0.26445
 C120 C 0.21775 0.30239 0.28263
 C121 C 0.22997 0.31424 0.31017
 C122 C 0.25569 0.30472 0.32081
 C123 C 0.26966 0.28392 0.30368
 C124 C 0.25818 0.27293 0.27526
 H125 H 0.18699 0.23607 0.15648
 H126 H 0.24295 0.23052 0.23703
 H127 H 0.19118 0.30339 0.22339
 H128 H 0.19733 0.30943 0.27589
 H129 H 0.26486 0.31352 0.34253
 H130 H 0.27019 0.25774 0.26181
 C131 C 0.80438 0.75511 0.17878
 C132 C 0.78359 0.76906 0.19595
 C133 C 0.77263 0.75756 0.22442
 C134 C 0.78136 0.73115 0.23524
 C135 C 0.80216 0.71717 0.21704
 C136 C 0.81395 0.72941 0.18944
 C137 C 0.76874 0.71840 0.26511
 C138 C 0.78285 0.69762 0.28323
 C139 C 0.77071 0.68570 0.31081
 C140 C 0.74498 0.69511 0.32155
 C141 C 0.73091 0.71588 0.30446
 C142 C 0.74231 0.72696 0.27600
 H143 H 0.81316 0.76429 0.15702
 H144 H 0.75744 0.76953 0.23790
 H145 H 0.80924 0.69676 0.22380
 H146 H 0.80329 0.69066 0.27641
 H147 H 0.73588 0.68624 0.34330
 H148 H 0.73024 0.74212 0.26259
 C149 C 0.76804 0.21343 0.17446
 C150 C 0.77560 0.23909 0.18583
 C151 C 0.76424 0.24964 0.21488
 C152 C 0.74603 0.23411 0.23380
 C153 C 0.73880 0.20806 0.22210
 C154 C 0.74949 0.19801 0.19233
 C155 C 0.73513 0.24498 0.26572
 C156 C 0.70909 0.23770 0.27750
 C157 C 0.69907 0.24832 0.30732
 C158 C 0.71450 0.26685 0.32515
 C159 C 0.74013 0.27445 0.31370
 C160 C 0.75066 0.26317 0.28461
 H161 H 0.77679 0.20534 0.15182
 H162 H 0.76981 0.26996 0.22254
 H163 H 0.72528 0.19532 0.23616
 H164 H 0.69635 0.22419 0.26347
 H165 H 0.70643 0.27554 0.34784
 H166 H 0.77098 0.26876 0.27690
 C167 C 0.23281 0.78706 0.17414
 C168 C 0.22524 0.76139 0.18549
 C169 C 0.23656 0.75079 0.21454
 C170 C 0.25475 0.76629 0.23348
 C171 C 0.26200 0.79236 0.22179
 C172 C 0.25134 0.80245 0.19202
 C173 C 0.26560 0.75537 0.26541
 C174 C 0.29161 0.76263 0.27723
 C175 C 0.30158 0.75196 0.30707
 C176 C 0.28612 0.73339 0.32486
 C177 C 0.26051 0.72581 0.31337
 C178 C 0.25003 0.73714 0.28427
 H179 H 0.22409 0.79519 0.15150
 H180 H 0.23098 0.73045 0.22218
 H181 H 0.27550 0.80508 0.23586
 H182 H 0.30437 0.77617 0.26324
 H183 H 0.29414 0.72466 0.34755
 H184 H 0.22973 0.73156 0.27654
 C185 C 0.70419 0.25691 0.67483
 C186 C 0.68926 0.23752 0.69196
 C187 C 0.69924 0.22679 0.72178
 C188 C 0.72494 0.23466 0.73415
 C189 C 0.74006 0.25363 0.71572
 C190 C 0.72940 0.26518 0.68682
 C191 C 0.73589 0.22364 0.76616
 C192 C 0.75478 0.23875 0.78464
 C193 C 0.76624 0.22807 0.81358
 C194 C 0.75795 0.20286 0.82556
 C195 C 0.73863 0.18792 0.80838
 C196 C 0.72799 0.19793 0.77851
 H197 H 0.69609 0.26573 0.65223
 H198 H 0.68670 0.21272 0.73525
 H199 H 0.76017 0.25968 0.72354
 H200 H 0.76084 0.25887 0.77685
 H201 H 0.76670 0.19475 0.84819
 H202 H 0.71397 0.18539 0.76501
 C203 C 0.29535 0.74273 0.67501
 C204 C 0.31018 0.76219 0.69210
 C205 C 0.29999 0.77306 0.72175
 C206 C 0.27420 0.76525 0.73398
 C207 C 0.25921 0.74621 0.71557
 C208 C 0.27007 0.73452 0.68685
 C209 C 0.26302 0.77644 0.76580
 C210 C 0.24392 0.76148 0.78421
 C211 C 0.23228 0.77230 0.81297
 C212 C 0.24059 0.79752 0.82485
 C213 C 0.26010 0.81232 0.80777
 C214 C 0.27093 0.80217 0.77807
 H215 H 0.30360 0.73382 0.65254
 H216 H 0.31245 0.78718 0.73521
 H217 H 0.23904 0.74020 0.72325
 H218 H 0.23785 0.74134 0.77651
 H219 H 0.23171 0.80573 0.84737
 H220 H 0.28511 0.81460 0.76462
 C221 C 0.26317 0.29670 0.67883
 C222 C 0.24285 0.31112 0.69631
 C223 C 0.23154 0.29968 0.72460
 C224 C 0.23958 0.27300 0.73500
 C225 C 0.25985 0.25854 0.71656
 C226 C 0.27191 0.27061 0.68907
 C227 C 0.22687 0.26043 0.76476
 C228 C 0.24118 0.24010 0.78329
 C229 C 0.22900 0.22820 0.81080
 C230 C 0.20296 0.23714 0.82099
 C231 C 0.18869 0.25752 0.80343
 C232 C 0.20023 0.26868 0.77511
 H233 H 0.27220 0.30581 0.65719
 H234 H 0.21664 0.31184 0.73835
 H235 H 0.26628 0.23787 0.72313
 H236 H 0.26181 0.23352 0.77677
 H237 H 0.19378 0.22822 0.84266
 H238 H 0.18818 0.28363 0.76130
 C239 C 0.73707 0.70245 0.67949
 C240 C 0.75748 0.68816 0.69695
 C241 C 0.76873 0.69967 0.72520
 C242 C 0.76052 0.72629 0.73558
 C243 C 0.74016 0.74063 0.71715
 C244 C 0.72817 0.72849 0.68970
 C245 C 0.77315 0.73893 0.76531
 C246 C 0.75868 0.75911 0.78385
 C247 C 0.77076 0.77109 0.81133
 C248 C 0.79687 0.76236 0.82147
 C249 C 0.81131 0.74212 0.80390
 C250 C 0.79985 0.73088 0.77560
 H251 H 0.72808 0.69329 0.65788
 H252 H 0.78371 0.68760 0.73894
 H253 H 0.73360 0.76126 0.72370
 H254 H 0.73799 0.76553 0.77737
 H255 H 0.80599 0.77135 0.84311
 H256 H 0.81201 0.71604 0.76177
 C257 C 0.25967 0.11608 0.11599
 N258 N 0.27505 0.13878 0.11586
 N259 N 0.26780 0.16044 0.13414
 C260 C 0.24496 0.16007 0.15313
 N261 N 0.22965 0.13732 0.15338
 N262 N 0.23690 0.11566 0.13510
 C263 C 0.26580 0.09392 0.09374
 C264 C 0.26988 0.07583 0.07402
 C265 C 0.23559 0.18443 0.16993
 C266 C 0.22719 0.20544 0.18242
 C267 C 0.79513 0.57081 0.61965
 N268 N 0.81071 0.59329 0.61741
 N269 N 0.80486 0.61537 0.63562
 C270 C 0.78326 0.61564 0.65661
 N271 N 0.76778 0.59310 0.65900
 N272 N 0.77363 0.57102 0.64080
 C273 C 0.79918 0.54850 0.59711
 C274 C 0.80126 0.53044 0.57702
 C275 C 0.77494 0.64053 0.67293
 C276 C 0.76726 0.66198 0.68488
 C277 C 0.74018 0.88430 0.11723
 N278 N 0.72478 0.86161 0.11726
 N279 N 0.73212 0.83991 0.13546
 C280 C 0.75508 0.84023 0.15421
 N281 N 0.77041 0.86297 0.15430
 N282 N 0.76307 0.88466 0.13609
 C283 C 0.73395 0.90647 0.09501
 C284 C 0.72978 0.92457 0.07529
 C285 C 0.76455 0.81584 0.17089
 C286 C 0.77302 0.79481 0.18327
 C287 C 0.20566 0.42869 0.61898
 N288 N 0.18996 0.40628 0.61682
 N289 N 0.19575 0.38416 0.63501
 C290 C 0.21741 0.38376 0.65590
 N291 N 0.23300 0.40622 0.65820
 N292 N 0.22721 0.42835 0.64002
 C293 C 0.20163 0.45106 0.59648
 C294 C 0.19955 0.46917 0.57642
 C295 C 0.22562 0.35883 0.67223
 C296 C 0.23321 0.33735 0.68420
 C297 C 0.87899 0.29343 0.09927
 N298 N 0.88323 0.28309 0.12985
 N299 N 0.86219 0.27492 0.14791
 C300 C 0.83629 0.27677 0.13591
 N301 N 0.83203 0.28726 0.10541
 N302 N 0.85307 0.29544 0.08736
 C303 C 0.90179 0.29855 0.07813
 C304 C 0.92060 0.30102 0.05928
 C305 C 0.81420 0.26501 0.15378
 C306 C 0.79621 0.25382 0.16845
 C307 C 0.42485 0.78768 0.60625
 N308 N 0.40159 0.80300 0.60141
 N309 N 0.38010 0.80027 0.62125
 C310 C 0.38119 0.78217 0.64657
 N311 N 0.40450 0.76696 0.65152
 N312 N 0.42600 0.76970 0.63169
 C313 C 0.44673 0.78818 0.58266
 C314 C 0.46456 0.78730 0.56212
 C315 C 0.35687 0.77655 0.66495
 C316 C 0.33586 0.77063 0.67851
 C317 C 0.12183 0.70738 0.09888
 N318 N 0.14773 0.70559 0.08682
 N319 N 0.16878 0.71370 0.10486
 C320 C 0.16455 0.72389 0.13550
 N321 N 0.13868 0.72552 0.14765
 N322 N 0.11763 0.71742 0.12960
 C323 C 0.09901 0.70226 0.07782
 C324 C 0.08015 0.69977 0.05908
 C325 C 0.18665 0.73557 0.15340
 C326 C 0.20463 0.74670 0.16810
 C327 C 0.57492 0.21170 0.60583
 N328 N 0.59823 0.19646 0.60106
 N329 N 0.61967 0.19927 0.62093
 C330 C 0.61846 0.21736 0.64622
 N331 N 0.59508 0.23248 0.65111
 N332 N 0.57364 0.22967 0.63124
 C333 C 0.55310 0.21114 0.58220
 C334 C 0.53532 0.21199 0.56162
 C335 C 0.64271 0.22306 0.66465
 C336 C 0.66365 0.22904 0.67827
 C337 C 0.71268 0.07368 0.89488
 N338 N 0.69745 0.09701 0.89958
 N339 N 0.70028 0.11842 0.87962
 C340 C 0.71838 0.11716 0.85431
 N341 N 0.73350 0.09377 0.84951
 N342 N 0.73067 0.07236 0.86945
 C343 C 0.71206 0.05188 0.91858
 C344 C 0.71286 0.03409 0.93919
 C345 C 0.72411 0.14138 0.83578
 C346 C 0.73010 0.16231 0.82210
 C347 C 0.20606 0.62237 0.39968
 N348 N 0.20414 0.64826 0.41169
 N349 N 0.21232 0.66932 0.39368
 C350 C 0.22272 0.66511 0.36313
 N351 N 0.22448 0.63924 0.35103
 N352 N 0.21631 0.61818 0.36905
 C353 C 0.20096 0.59954 0.42077
 C354 C 0.19850 0.58069 0.43957
 C355 C 0.23451 0.68721 0.34531
 C356 C 0.24574 0.70520 0.33069
 C357 C 0.28629 0.92654 0.89397
 N358 N 0.30149 0.90318 0.89869
 N359 N 0.29860 0.88177 0.87880
 C360 C 0.28047 0.88305 0.85354
 N361 N 0.26539 0.90647 0.84871
 N362 N 0.26828 0.92788 0.86860
 C363 C 0.28699 0.94836 0.91760
 C364 C 0.28627 0.96617 0.93815
 C365 C 0.27470 0.85883 0.83507
 C366 C 0.26867 0.83791 0.82143
 C367 C 0.79463 0.37768 0.40006
 N368 N 0.79654 0.35177 0.41204
 N369 N 0.78833 0.33075 0.39403
 C370 C 0.77791 0.33503 0.36351
 N371 N 0.77617 0.36092 0.35144
 N372 N 0.78437 0.38194 0.36946
 C373 C 0.79977 0.40046 0.42116
 C374 C 0.80224 0.41927 0.43997
 C375 C 0.76611 0.31297 0.34569
 C376 C 0.75488 0.29502 0.33105
 C377 C 0.07135 0.29509 0.88097
 N378 N 0.07147 0.27383 0.85953
 N379 N 0.09356 0.26804 0.84127
 C380 C 0.11619 0.28335 0.84389
 N381 N 0.11601 0.30473 0.86518
 N382 N 0.09393 0.31051 0.88345
 C383 C 0.04902 0.29904 0.90355
 C384 C 0.03094 0.30101 0.92365
 C385 C 0.14107 0.27505 0.82750
 C386 C 0.16251 0.26735 0.81551
 C387 C 0.61559 0.75913 0.38312
 N388 N 0.63812 0.77475 0.38269
 N389 N 0.65983 0.76736 0.36453
 C390 C 0.65968 0.74414 0.34624
 N391 N 0.63709 0.72859 0.34656
 N392 N 0.61538 0.73598 0.36471
 C393 C 0.59339 0.76548 0.40524
 C394 C 0.57527 0.76978 0.42488
 C395 C 0.68409 0.73471 0.32959
 C396 C 0.70514 0.72631 0.31720
 C397 C 0.92900 0.70582 0.88135
 N398 N 0.92860 0.72719 0.86001
 N399 N 0.90648 0.73273 0.84175
 C400 C 0.88408 0.71706 0.84426
 N401 N 0.88454 0.69559 0.86545
 N402 N 0.90667 0.69005 0.88372
 C403 C 0.95136 0.70209 0.90392
 C404 C 0.96945 0.70025 0.92400
 C405 C 0.85911 0.72508 0.82788
 C406 C 0.83759 0.73254 0.81592
 C407 C 0.38479 0.24019 0.38223
 N408 N 0.36218 0.22469 0.38190
 N409 N 0.34051 0.23215 0.36372
 C410 C 0.34079 0.25532 0.34532
 N411 N 0.36346 0.27075 0.34554
 N412 N 0.38513 0.26329 0.36370
 C413 C 0.40692 0.23379 0.40440
 C414 C 0.42499 0.22947 0.42410
 C415 C 0.31642 0.26487 0.32869
 C416 C 0.29540 0.27337 0.31635
 C417 C 0.72561 0.87790 0.90353
 N418 N 0.72351 0.85196 0.91504
 N419 N 0.72940 0.83060 0.89566
 C420 C 0.73752 0.83453 0.86415
 N421 N 0.73947 0.86046 0.85259
 N422 N 0.73358 0.88182 0.87197
 C423 C 0.72224 0.90077 0.92541
 C424 C 0.72071 0.91974 0.94431
 C425 C 0.74719 0.81176 0.84470
 C426 C 0.75701 0.79295 0.82907
 C427 C 0.19108 0.42330 0.40223
 N428 N 0.19863 0.42672 0.37043
 N429 N 0.20286 0.40508 0.35093
 C430 C 0.19963 0.37934 0.36260
 N431 N 0.19192 0.37593 0.39435
 N432 N 0.18769 0.39757 0.41385
 C433 C 0.18992 0.44628 0.42427
 C434 C 0.19049 0.46524 0.44323
 C435 C 0.20796 0.35606 0.34308
 C436 C 0.21690 0.33676 0.32754
 C437 C 0.27346 0.12113 0.90318
 N438 N 0.27597 0.14706 0.91450
 N439 N 0.27019 0.16843 0.89505
 C440 C 0.26177 0.16452 0.86368
 N441 N 0.25940 0.13858 0.85231
 N442 N 0.26518 0.11721 0.87176
 C443 C 0.27676 0.09829 0.92516
 C444 C 0.27828 0.07935 0.94416
 C445 C 0.25225 0.18734 0.84418
 C446 C 0.24258 0.20622 0.82854
 C447 C 0.80999 0.57665 0.40280
 N448 N 0.80255 0.57325 0.37098
 N449 N 0.79827 0.59490 0.35148
 C450 C 0.80134 0.62065 0.36317
 N451 N 0.80896 0.62404 0.39494
 N452 N 0.81324 0.60239 0.41444
 C453 C 0.81115 0.55365 0.42484
 C454 C 0.81054 0.53466 0.44380
 C455 C 0.79292 0.64392 0.34366
 C456 C 0.78389 0.66321 0.32814
 C457 C 0.12502 0.71915 0.89423
 N458 N 0.12183 0.73044 0.86396
 N459 N 0.14351 0.73887 0.84722
 C460 C 0.16903 0.73631 0.86025
 N461 N 0.17223 0.72492 0.89047
 N462 N 0.15055 0.71648 0.90720
 C463 C 0.10153 0.71262 0.91363
 C464 C 0.08205 0.70834 0.93093
 C465 C 0.19195 0.74764 0.84346
 C466 C 0.21070 0.75829 0.82956
 C467 C 0.58108 0.22257 0.38679
 N468 N 0.60330 0.20551 0.39034
 N469 N 0.62560 0.20892 0.37204
 C470 C 0.62636 0.22944 0.34959
 N471 N 0.60409 0.24641 0.34594
 N472 N 0.58179 0.24301 0.36423
 C473 C 0.55811 0.22055 0.40860
 C474 C 0.53927 0.21966 0.42770
 C475 C 0.65139 0.23502 0.33269
 C476 C 0.67290 0.24060 0.32013
 C477 C 0.87308 0.28177 0.89481
 N478 N 0.84763 0.28371 0.90816
 N479 N 0.82599 0.27517 0.89148
 C480 C 0.82915 0.26442 0.86094
 N481 N 0.85458 0.26260 0.84753
 N482 N 0.87622 0.27113 0.86422
 C483 C 0.89658 0.28840 0.91408
 C484 C 0.91610 0.29274 0.93124
 C485 C 0.80632 0.25296 0.84416
 C486 C 0.78768 0.24221 0.83023
 C487 C 0.41933 0.77728 0.38702
 N488 N 0.39713 0.79436 0.39054
 N489 N 0.37489 0.79108 0.37212
 C490 C 0.37419 0.77066 0.34957
 N491 N 0.39644 0.75366 0.34595
 N492 N 0.41868 0.75694 0.36437
 C493 C 0.44222 0.77917 0.40894
 C494 C 0.46099 0.77995 0.42813
 C495 C 0.34920 0.76518 0.33257
 C496 C 0.32772 0.75965 0.31993
 C497 C 0.27663 0.92073 0.11302
 N498 N 0.29386 0.89865 0.10951
 N499 N 0.29056 0.87629 0.12775
 C500 C 0.26998 0.87536 0.15010
 N501 N 0.25283 0.89749 0.15371
 N502 N 0.25612 0.91985 0.13547
 C503 C 0.27852 0.94373 0.09123
 C504 C 0.27932 0.96256 0.07212
 C505 C 0.26450 0.85025 0.16688
 C506 C 0.25899 0.82868 0.17933
 C507 C 0.78281 0.37238 0.60569
 N508 N 0.78482 0.34696 0.59230
 N509 N 0.77636 0.32526 0.60897
 C510 C 0.76561 0.32832 0.63954
 N511 N 0.76371 0.35373 0.65298
 N512 N 0.77216 0.37543 0.63631
 C513 C 0.78936 0.39596 0.58643
 C514 C 0.79364 0.41553 0.56929
 C515 C 0.75422 0.30542 0.65632
 C516 C 0.74351 0.28670 0.67022
 C517 C 0.72367 0.07977 0.11371
 N518 N 0.74432 0.08063 0.13594
 N519 N 0.74777 0.10300 0.15406
 C520 C 0.73065 0.12517 0.15055
 N521 N 0.70992 0.12425 0.12842
 N522 N 0.70647 0.10188 0.11030
 C523 C 0.72158 0.05675 0.09205
 C524 C 0.72062 0.03788 0.07304
 C525 C 0.73624 0.15027 0.16723
 C526 C 0.74182 0.17181 0.17964
 C527 C 0.21736 0.62721 0.60552
 N528 N 0.21501 0.65269 0.59231
 N529 N 0.22331 0.67439 0.60906
 C530 C 0.23423 0.67127 0.63953
 N531 N 0.23647 0.64580 0.65279
 N532 N 0.22818 0.62410 0.63604
 C533 C 0.21097 0.60367 0.58617
 C534 C 0.20681 0.58413 0.56896
 C535 C 0.24546 0.69420 0.65635
 C536 C 0.25606 0.71295 0.67027
 C537 C 0.92295 0.69086 0.09705
 N538 N 0.92640 0.69834 0.12886
 N539 N 0.90477 0.70245 0.14844
 C540 C 0.87902 0.69918 0.13685
 N541 N 0.87559 0.69154 0.10510
 N542 N 0.89722 0.68742 0.08552
 C543 C 0.94589 0.68991 0.07492
 C544 C 0.96480 0.69069 0.05587
 C545 C 0.85576 0.70746 0.15644
 C546 C 0.83646 0.71637 0.17203
 C547 C 0.37901 0.22545 0.59718
 N548 N 0.35309 0.22324 0.58568
 N549 N 0.33169 0.22916 0.60502
 C550 C 0.33555 0.23742 0.63646
 N551 N 0.36147 0.23949 0.64801
 N552 N 0.38287 0.23358 0.62867
 C553 C 0.40193 0.22201 0.57533
 C554 C 0.42094 0.22038 0.55646
 C555 C 0.31272 0.24709 0.65586
 C556 C 0.29386 0.25689 0.67143
 C557 C 0.07690 0.30980 0.09766
 N558 N 0.10258 0.31328 0.08591
 N559 N 0.12431 0.30908 0.10529
 C560 C 0.12103 0.30130 0.13703
 N561 N 0.09535 0.29799 0.14884
 N562 N 0.07362 0.30220 0.12947
 C563 C 0.05386 0.31085 0.07573
 C564 C 0.03486 0.31014 0.05683
 C565 C 0.14440 0.29293 0.15638
 C566 C 0.16376 0.28395 0.17178
 C567 C 0.62088 0.77333 0.59792
 N568 N 0.64679 0.77587 0.58650
 N569 N 0.66820 0.76997 0.60581
 C570 C 0.66435 0.76139 0.63715
 N571 N 0.63844 0.75899 0.64863
 N572 N 0.61702 0.76489 0.62932
 C573 C 0.59797 0.77683 0.57609
 C574 C 0.57898 0.77853 0.55720
 C575 C 0.68723 0.75181 0.65652
 C576 C 0.70614 0.74210 0.67207
   
