data_POSCAR
  _audit_creation_date              2014-09-24
  _audit_creation_method            'ToBaCCo'
  _symmetry_space_group_name_H-M    'P1'
  _symmetry_Int_Tables_number       1
  _symmetry_cell_setting            triclinic
  loop_
  _symmetry_equiv_pos_as_xyz
 x,y,z
_cell_length_a 39.0685
_cell_length_b 39.1231
_cell_length_c 39.1228
_cell_angle_alpha 89.951700
_cell_angle_beta 90.067500
_cell_angle_gamma 90.029100
loop_
  _atom_site_label
  _atom_site_type_symbol
  _atom_site_fract_x
  _atom_site_fract_y
  _atom_site_fract_z
N1 N 0.30338 0.23588 0.20825
 N2 N 0.28878 0.26273 0.19421
 C3 C 0.30703 0.27224 0.16657
 C4 C 0.33450 0.25025 0.16332
 C5 C 0.33145 0.22752 0.19018
 H6 H 0.30101 0.29365 0.15013
 H7 H 0.34836 0.20643 0.19603
 Cu8 Cu 0.24766 0.28287 0.21373
 Cu9 Cu 0.28484 0.21362 0.24874
 Cu10 Cu 0.21218 0.24950 0.28464
 N11 N 0.20746 0.30330 0.23479
 N12 N 0.19344 0.28984 0.26223
 C13 C 0.16596 0.30852 0.27120
 C14 C 0.16273 0.33520 0.24827
 C15 C 0.18947 0.33121 0.22554
 H16 H 0.14966 0.30329 0.29290
 H17 H 0.19522 0.34739 0.20387
 N18 N 0.23488 0.20867 0.30359
 N19 N 0.26233 0.19478 0.28968
 C20 C 0.27148 0.16717 0.30817
 C21 C 0.24884 0.16371 0.33502
 C22 C 0.22601 0.19040 0.33142
 H23 H 0.29312 0.15086 0.30273
 H24 H 0.20449 0.19593 0.34786
 H25 H 0.23461 0.22861 0.24166
 H26 H 0.26204 0.25696 0.26860
 N27 N 0.69458 -0.23725 0.20961
 N28 N 0.70948 -0.26375 0.19529
 C29 C 0.69145 -0.27302 0.16740
 C30 C 0.66373 -0.25124 0.16427
 C31 C 0.66645 -0.22890 0.19152
 H32 H 0.69786 -0.29404 0.15065
 H33 H 0.64944 -0.20795 0.19752
 Cu34 Cu 0.75087 -0.28363 0.21468
 Cu35 Cu 0.71317 -0.21502 0.25013
 Cu36 Cu 0.78671 -0.25015 0.28531
 N37 N 0.79151 -0.30375 0.23535
 N38 N 0.80577 -0.29010 0.26258
 C39 C 0.83362 -0.30843 0.27125
 C40 C 0.83681 -0.33516 0.24838
 C41 C 0.80964 -0.33149 0.22596
 H42 H 0.85012 -0.30295 0.29279
 H43 H 0.80370 -0.34775 0.20440
 N44 N 0.76364 -0.20977 0.30465
 N45 N 0.73584 -0.19617 0.29106
 C46 C 0.72665 -0.16868 0.30964
 C47 C 0.74963 -0.16499 0.33622
 C48 C 0.77269 -0.19143 0.33237
 H49 H 0.70484 -0.15250 0.30435
 H50 H 0.79457 -0.19667 0.34848
 H51 H 0.76350 -0.22931 0.24261
 H52 H 0.73675 -0.25810 0.26972
 N53 N 0.69575 0.23738 0.79036
 N54 N 0.70990 0.26469 0.80396
 C55 C 0.69176 0.27402 0.83171
 C56 C 0.66480 0.25146 0.83548
 C57 C 0.66805 0.22856 0.80882
 H58 H 0.69751 0.29567 0.84790
 H59 H 0.65156 0.20703 0.80338
 Cu60 Cu 0.75041 0.28544 0.78376
 Cu61 Cu 0.71451 0.21503 0.75004
 Cu62 Cu 0.78707 0.25129 0.71402
 N63 N 0.79093 0.30578 0.76316
 N64 N 0.80547 0.29194 0.73622
 C65 C 0.83326 0.31038 0.72761
 C66 C 0.83615 0.33735 0.75027
 C67 C 0.80884 0.33372 0.77246
 H68 H 0.85004 0.30471 0.70639
 H69 H 0.80275 0.35006 0.79389
 N70 N 0.76464 0.21017 0.69529
 N71 N 0.73724 0.19617 0.70923
 C72 C 0.72835 0.16834 0.69099
 C73 C 0.75112 0.16483 0.66425
 C74 C 0.77374 0.19174 0.66767
 H75 H 0.70685 0.15185 0.69654
 H76 H 0.79532 0.19728 0.65129
 H77 H 0.76449 0.23086 0.75719
 H78 H 0.73695 0.25819 0.72934
 N79 N 0.30551 -0.23849 0.79013
 N80 N 0.29167 -0.26613 0.80337
 C81 C 0.30994 -0.27565 0.83103
 C82 C 0.33669 -0.25288 0.83508
 C83 C 0.33316 -0.22966 0.80870
 H84 H 0.30435 -0.29750 0.84703
 H85 H 0.34936 -0.20781 0.80362
 Cu86 Cu 0.25123 -0.28704 0.78304
 Cu87 Cu 0.28634 -0.21559 0.75028
 Cu88 Cu 0.21314 -0.25095 0.71477
 N89 N 0.20977 -0.30623 0.76309
 N90 N 0.19474 -0.29169 0.73673
 C91 C 0.16647 -0.30958 0.72846
 C92 C 0.16375 -0.33691 0.75074
 C93 C 0.19166 -0.33406 0.77236
 H94 H 0.14927 -0.30330 0.70771
 H95 H 0.19807 -0.35088 0.79337
 N96 N 0.23556 -0.20982 0.69616
 N97 N 0.26321 -0.19612 0.70994
 C98 C 0.27214 -0.16826 0.69173
 C99 C 0.24915 -0.16443 0.66519
 C100 C 0.22633 -0.19117 0.66868
 H101 H 0.29392 -0.15206 0.69710
 H102 H 0.20463 -0.19652 0.65236
 H103 H 0.23656 -0.23179 0.75814
 H104 H 0.26355 -0.25829 0.72904
 N105 N 0.69481 -0.23829 0.78989
 N106 N 0.70933 -0.26524 0.80380
 C107 C 0.69125 -0.27467 0.83156
 C108 C 0.66397 -0.25250 0.83502
 C109 C 0.66693 -0.22976 0.80817
 H110 H 0.69736 -0.29600 0.84806
 H111 H 0.65022 -0.20844 0.80258
 Cu112 Cu 0.75041 -0.28527 0.78422
 Cu113 Cu 0.71345 -0.21581 0.74958
 Cu114 Cu 0.78645 -0.25138 0.71397
 N115 N 0.79082 -0.30550 0.76349
 N116 N 0.80512 -0.29174 0.73635
 C117 C 0.83294 -0.31006 0.72770
 C118 C 0.83609 -0.33685 0.75055
 C119 C 0.80891 -0.33328 0.77289
 H120 H 0.84956 -0.30442 0.70633
 H121 H 0.80302 -0.34953 0.79446
 N122 N 0.76373 -0.21059 0.69505
 N123 N 0.73616 -0.19682 0.70883
 C124 C 0.72717 -0.16906 0.69051
 C125 C 0.75005 -0.16539 0.66391
 C126 C 0.77285 -0.19210 0.66746
 H127 H 0.70554 -0.15272 0.69596
 H128 H 0.79458 -0.19742 0.65123
 H129 H 0.73645 -0.25891 0.72950
 H130 H 0.76364 -0.23079 0.75690
 N131 N 0.30419 0.23668 0.79064
 N132 N 0.29042 0.26434 0.80382
 C133 C 0.30862 0.27379 0.83151
 C134 C 0.33524 0.25093 0.83565
 C135 C 0.33173 0.22773 0.80930
 H136 H 0.30319 0.29575 0.84737
 H137 H 0.34796 0.20595 0.80419
 Cu138 Cu 0.25045 0.28559 0.78315
 Cu139 Cu 0.28531 0.21415 0.75051
 Cu140 Cu 0.21301 0.25048 0.71412
 N141 N 0.20956 0.30532 0.76278
 N142 N 0.19487 0.29128 0.73598
 C143 C 0.16700 0.30960 0.72740
 C144 C 0.16420 0.33658 0.74995
 C145 C 0.19158 0.33317 0.77206
 H146 H 0.15005 0.30380 0.70631
 H147 H 0.19771 0.34966 0.79337
 N148 N 0.23518 0.20920 0.69575
 N149 N 0.26248 0.19515 0.70986
 C150 C 0.27132 0.16727 0.69173
 C151 C 0.24860 0.16379 0.66492
 C152 C 0.22606 0.19074 0.66815
 H153 H 0.29282 0.15080 0.69735
 H154 H 0.20462 0.19638 0.65157
 H155 H 0.26327 0.25721 0.72917
 H156 H 0.23557 0.23073 0.75769
 N157 N 0.30594 -0.23672 0.21017
 N158 N 0.29183 -0.26409 0.19669
 C159 C 0.31005 -0.27361 0.16908
 C160 C 0.33703 -0.25110 0.16530
 C161 C 0.33372 -0.22803 0.19178
 H162 H 0.30428 -0.29529 0.15293
 H163 H 0.35016 -0.20642 0.19709
 Cu164 Cu 0.25122 -0.28475 0.21666
 Cu165 Cu 0.28703 -0.21407 0.25018
 Cu166 Cu 0.21362 -0.24930 0.28531
 N167 N 0.20967 -0.30380 0.23632
 N168 N 0.19493 -0.28959 0.26295
 C169 C 0.16673 -0.30755 0.27121
 C170 C 0.16376 -0.33448 0.24862
 C171 C 0.19138 -0.33142 0.22682
 H172 H 0.14978 -0.30166 0.29223
 H173 H 0.19757 -0.34808 0.20568
 N174 N 0.23635 -0.20858 0.30426
 N175 N 0.26408 -0.19490 0.29064
 C176 C 0.27317 -0.16728 0.30908
 C177 C 0.25018 -0.16360 0.33558
 C178 C 0.22722 -0.19016 0.33185
 H179 H 0.29501 -0.15112 0.30387
 H180 H 0.20546 -0.19551 0.34804
 H181 H 0.26396 -0.25684 0.27094
 H182 H 0.23712 -0.22972 0.24217
 N183 N 0.69523 0.23620 0.20947
 N184 N 0.70934 0.26355 0.19592
 C185 C 0.69135 0.27279 0.16801
 C186 C 0.66451 0.25013 0.16411
 C187 C 0.66768 0.22726 0.19083
 H188 H 0.69706 0.29449 0.15185
 H189 H 0.65119 0.20571 0.19622
 Cu190 Cu 0.74944 0.28471 0.21640
 Cu191 Cu 0.71373 0.21410 0.25007
 Cu192 Cu 0.78624 0.25039 0.28616
 N193 N 0.79037 0.30448 0.23664
 N194 N 0.80484 0.29072 0.26371
 C195 C 0.83270 0.30909 0.27225
 C196 C 0.83571 0.33583 0.24938
 C197 C 0.80848 0.33221 0.22714
 H198 H 0.84941 0.30359 0.29361
 H199 H 0.80245 0.34856 0.20566
 N200 N 0.76363 0.20957 0.30511
 N201 N 0.73624 0.19553 0.29115
 C202 C 0.72724 0.16786 0.30959
 C203 C 0.74995 0.16451 0.33644
 C204 C 0.77264 0.19132 0.33291
 H205 H 0.70574 0.15135 0.30405
 H206 H 0.79422 0.19690 0.34932
 H207 H 0.73609 0.25727 0.27078
 H208 H 0.76365 0.23011 0.24286
 C209 C 0.26418 0.10507 0.51790
 C210 C 0.26429 0.10514 0.48286
 C211 C 0.25470 0.07259 0.47266
 N212 N 0.24863 0.05269 0.50027
 C213 C 0.25450 0.07249 0.52797
 C214 C 0.25012 0.06225 0.43838
 C215 C 0.24495 0.02784 0.42864
 C216 C 0.23312 0.01748 0.39686
 C217 C 0.23326 -0.01764 0.39693
 C218 C 0.24517 -0.02783 0.42875
 N219 N 0.25232 0.00005 0.44792
 C220 C 0.25064 -0.06217 0.43860
 C221 C 0.25528 -0.07258 0.47287
 C222 C 0.26500 -0.10511 0.48303
 C223 C 0.26481 -0.10519 0.51807
 C224 C 0.25498 -0.07269 0.52817
 N225 N 0.24908 -0.05282 0.50050
 C226 C 0.25005 -0.06239 0.56240
 C227 C 0.24457 -0.02802 0.57210
 C228 C 0.23246 -0.01777 0.60378
 C229 C 0.23230 0.01735 0.60371
 C230 C 0.24434 0.02766 0.57198
 N231 N 0.25184 -0.00016 0.55289
 C232 C 0.24962 0.06205 0.56219
 H233 H 0.27060 0.12657 0.53407
 H234 H 0.27083 0.12668 0.46677
 H235 H 0.26468 -0.00009 0.52965
 H236 H 0.22516 0.03353 0.37576
 H237 H 0.22544 -0.03381 0.37588
 H238 H 0.27163 -0.12658 0.46692
 H239 H 0.27128 -0.12671 0.53423
 H240 H 0.22422 0.03345 0.62468
 H241 H 0.26501 0.00010 0.47127
 H242 H 0.22451 -0.03390 0.62481
 C243 C 0.76589 -0.01789 0.60547
 C244 C 0.76606 0.01715 0.60552
 C245 C 0.75632 0.02740 0.57301
 N246 N 0.75013 -0.00019 0.55314
 C247 C 0.75606 -0.02792 0.57292
 C248 C 0.75171 0.06169 0.56269
 C249 C 0.74625 0.07148 0.52831
 C250 C 0.73431 0.10326 0.51805
 C251 C 0.73408 0.10322 0.48292
 C252 C 0.74590 0.07143 0.47263
 N253 N 0.75334 0.05225 0.50046
 C254 C 0.75104 0.06164 0.43823
 C255 C 0.75568 0.02740 0.42782
 C256 C 0.76523 0.01731 0.39523
 C257 C 0.76512 -0.01773 0.39517
 C258 C 0.75552 -0.02791 0.42772
 N259 N 0.74967 -0.00028 0.44762
 C260 C 0.75075 -0.06217 0.43807
 C261 C 0.74551 -0.07193 0.47247
 C262 C 0.73352 -0.10367 0.48280
 C263 C 0.73359 -0.10364 0.51792
 C264 C 0.74563 -0.07189 0.52815
 N265 N 0.75292 -0.05273 0.50028
 C266 C 0.75113 -0.06213 0.56252
 H267 H 0.77238 -0.03410 0.62694
 H268 H 0.77271 0.03320 0.62704
 H269 H 0.76572 -0.02945 0.50026
 H270 H 0.72650 0.12432 0.53416
 H271 H 0.72609 0.12427 0.46682
 H272 H 0.77171 0.03347 0.37373
 H273 H 0.77150 -0.03383 0.37363
 H274 H 0.72565 -0.12467 0.53407
 H275 H 0.76602 0.02892 0.50040
 H276 H 0.72550 -0.12470 0.46672
 C277 C 0.51754 0.26690 0.10488
 C278 C 0.48245 0.26700 0.10489
 C279 C 0.47223 0.25744 0.07234
 N280 N 0.49987 0.25144 0.05247
 C281 C 0.52761 0.25728 0.07231
 C282 C 0.43791 0.25276 0.06197
 C283 C 0.42815 0.24752 0.02756
 C284 C 0.39640 0.23548 0.01719
 C285 C 0.39647 0.23552 -0.01793
 C286 C 0.42826 0.24758 -0.02811
 N287 N 0.44740 0.25492 -0.00022
 C288 C 0.43810 0.25296 -0.06245
 C289 C 0.47237 0.25783 -0.07280
 C290 C 0.48247 0.26754 -0.10535
 C291 C 0.51756 0.26757 -0.10537
 C292 C 0.52776 0.25786 -0.07283
 N293 N 0.50009 0.25185 -0.05298
 C294 C 0.56206 0.25305 -0.06249
 C295 C 0.57183 0.24761 -0.02811
 C296 C 0.60357 0.23551 -0.01781
 C297 C 0.60350 0.23528 0.01731
 C298 C 0.57172 0.24725 0.02757
 N299 N 0.55259 0.25480 -0.00028
 C300 C 0.56188 0.25239 0.06195
 H301 H 0.53375 0.27327 0.12640
 H302 H 0.46635 0.27347 0.12642
 H303 H 0.52928 0.26758 -0.00025
 H304 H 0.37534 0.22742 0.03323
 H305 H 0.37546 0.22752 -0.03411
 H306 H 0.46627 0.27400 -0.12686
 H307 H 0.53367 0.27407 -0.12690
 H308 H 0.62451 0.22716 0.03344
 H309 H 0.47072 0.26771 -0.00018
 H310 H 0.62463 0.22760 -0.03391
 C311 C 0.60606 0.76176 -0.01719
 C312 C 0.60616 0.76194 0.01786
 C313 C 0.57360 0.75236 0.02811
 N314 N 0.55365 0.74618 0.00052
 C315 C 0.57343 0.75202 -0.02721
 C316 C 0.56325 0.74799 0.06241
 C317 C 0.52882 0.74276 0.07221
 C318 C 0.51854 0.73124 0.10413
 C319 C 0.48337 0.73120 0.10408
 C320 C 0.47306 0.74272 0.07215
 N321 N 0.50093 0.74978 0.05289
 C322 C 0.43862 0.74799 0.06230
 C323 C 0.42813 0.75238 0.02802
 C324 C 0.39552 0.76199 0.01784
 C325 C 0.39542 0.76170 -0.01720
 C326 C 0.42796 0.75193 -0.02729
 N327 N 0.44790 0.74614 0.00039
 C328 C 0.43831 0.74706 -0.06151
 C329 C 0.47273 0.74163 -0.07120
 C330 C 0.48300 0.72958 -0.10289
 C331 C 0.51817 0.72957 -0.10286
 C332 C 0.52848 0.74164 -0.07114
 N333 N 0.50062 0.74899 -0.05200
 C334 C 0.56292 0.74717 -0.06143
 H335 H 0.62756 0.76819 -0.03338
 H336 H 0.62775 0.76854 0.03392
 H337 H 0.50066 0.76185 -0.02879
 H338 H 0.53469 0.72362 0.12530
 H339 H 0.46724 0.72355 0.12523
 H340 H 0.37403 0.76866 0.03394
 H341 H 0.37385 0.76810 -0.03336
 H342 H 0.53430 0.72160 -0.12386
 H343 H 0.50089 0.76223 0.02943
 H344 H 0.46685 0.72160 -0.12392
 C345 C 0.10467 0.51839 0.26255
 C346 C 0.10466 0.48334 0.26258
 C347 C 0.07210 0.47321 0.25280
 N348 N 0.05226 0.50087 0.24668
 C349 C 0.07211 0.52853 0.25272
 C350 C 0.06166 0.43896 0.24820
 C351 C 0.02720 0.42928 0.24284
 C352 C 0.01681 0.39752 0.23100
 C353 C -0.01836 0.39760 0.23102
 C354 C -0.02855 0.42941 0.24287
 N355 N -0.00062 0.44856 0.25007
 C356 C -0.06294 0.43921 0.24831
 C357 C -0.07336 0.47347 0.25282
 C358 C -0.10597 0.48364 0.26235
 C359 C -0.10598 0.51868 0.26219
 C360 C -0.07335 0.52878 0.25264
 N361 N -0.05348 0.50111 0.24679
 C362 C -0.06289 0.56302 0.24801
 C363 C -0.02845 0.57275 0.24270
 C364 C -0.01813 0.60458 0.23097
 C365 C 0.01705 0.60449 0.23089
 C366 C 0.02730 0.57263 0.24262
 N367 N -0.00060 0.55345 0.24983
 C368 C 0.06172 0.56279 0.24798
 H369 H 0.12619 0.53451 0.26917
 H370 H 0.12617 0.46721 0.26921
 H371 H -0.00061 0.53008 0.26245
 H372 H 0.03288 0.37642 0.22314
 H373 H -0.03456 0.37656 0.22319
 H374 H -0.12754 0.46753 0.26885
 H375 H -0.12753 0.53485 0.26852
 H376 H 0.03321 0.62557 0.22308
 H377 H -0.00056 0.47187 0.26278
 H378 H -0.03425 0.62573 0.22327
 C379 C -0.01792 0.60591 0.76656
 C380 C 0.01717 0.60596 0.76658
 C381 C 0.02734 0.57331 0.75738
 N382 N -0.00034 0.55335 0.75167
 C383 C -0.02805 0.57321 0.75738
 C384 C 0.06165 0.56294 0.75279
 C385 C 0.07142 0.52855 0.74754
 C386 C 0.10320 0.51829 0.73558
 C387 C 0.10312 0.48317 0.73539
 C388 C 0.07130 0.47286 0.74727
 N389 N 0.05215 0.50069 0.75472
 C390 C 0.06143 0.43845 0.75236
 C391 C 0.02714 0.42802 0.75710
 C392 C 0.01703 0.39535 0.76644
 C393 C -0.01806 0.39529 0.76645
 C394 C -0.02824 0.42794 0.75718
 N395 N -0.00058 0.44789 0.75138
 C396 C -0.06257 0.43830 0.75264
 C397 C -0.07244 0.47271 0.74770
 C398 C -0.10439 0.48304 0.73620
 C399 C -0.10432 0.51817 0.73622
 C400 C -0.07232 0.52839 0.74774
 N401 N -0.05308 0.50052 0.75482
 C402 C -0.06236 0.56277 0.75280
 H403 H -0.03410 0.62750 0.77267
 H404 H 0.03331 0.62760 0.77272
 H405 H -0.02956 0.50050 0.76722
 H406 H 0.12428 0.53441 0.72770
 H407 H 0.12413 0.46708 0.72734
 H408 H 0.03320 0.37377 0.77268
 H409 H -0.03419 0.37368 0.77268
 H410 H -0.12547 0.53432 0.72856
 H411 H 0.02881 0.50063 0.76741
 H412 H -0.12559 0.46697 0.72851
 N413 N 0.35931 0.27302 0.11031
 C414 C 0.36131 0.25092 0.13702
 N415 N 0.38852 0.22944 0.13903
 N416 N 0.41289 0.23008 0.11525
 C417 C 0.41090 0.25217 0.08853
 N418 N 0.38362 0.27358 0.08645
 N419 N 0.64017 0.72574 0.11274
 C420 C 0.63859 0.74844 0.13895
 N421 N 0.61211 0.77092 0.13995
 N422 N 0.58813 0.77068 0.11571
 C423 C 0.58984 0.74810 0.08944
 N424 N 0.61628 0.72562 0.08839
 N425 N 0.64023 0.27392 -0.11131
 C426 C 0.63825 0.25178 -0.13795
 N427 N 0.61127 0.22997 -0.13968
 N428 N 0.58706 0.23039 -0.11573
 C429 C 0.58902 0.25254 -0.08910
 N430 N 0.61610 0.27424 -0.08727
 N431 N 0.38988 0.76903 -0.13962
 C432 C 0.36312 0.74694 -0.13815
 N433 N 0.36113 0.72479 -0.11149
 N434 N 0.38498 0.72484 -0.08710
 C435 C 0.41175 0.74695 -0.08859
 N436 N 0.41382 0.76898 -0.11533
 N437 N 0.10972 0.36070 0.27022
 C438 C 0.13650 0.36213 0.24820
 N439 N 0.13866 0.38885 0.22614
 N440 N 0.11495 0.41331 0.22618
 C441 C 0.08815 0.41187 0.24820
 N442 N 0.08592 0.38507 0.27017
 N443 N 0.13971 0.61189 0.77401
 C444 C 0.13831 0.63810 0.75126
 N445 N 0.11164 0.63950 0.72899
 N446 N 0.08725 0.61570 0.72954
 C447 C 0.08868 0.58951 0.75229
 N448 N 0.11540 0.58798 0.77446
 N449 N -0.13926 0.61371 0.22497
 C450 C -0.13809 0.63953 0.24814
 N451 N -0.11203 0.64016 0.27116
 N452 N -0.08807 0.61595 0.27100
 C453 C -0.08939 0.59007 0.24796
 N454 N -0.11541 0.58937 0.22494
 N455 N -0.13994 0.38840 0.77398
 C456 C -0.13869 0.36263 0.75076
 N457 N -0.11240 0.36190 0.72808
 N458 N -0.08821 0.38591 0.72870
 C459 C -0.08949 0.41164 0.75193
 N460 N -0.11585 0.41252 0.77449
 N461 N 0.27132 0.11072 0.36015
 C462 C 0.24911 0.13735 0.36180
 N463 N 0.22721 0.13925 0.38865
 N464 N 0.22757 0.11545 0.41302
 C465 C 0.24978 0.08881 0.41136
 N466 N 0.27159 0.08683 0.38444
 N467 N 0.77329 0.13984 0.61111
 C468 C 0.75125 0.13811 0.63786
 N469 N 0.72932 0.11125 0.63985
 N470 N 0.72951 0.08694 0.61602
 C471 C 0.75155 0.08867 0.58927
 N472 N 0.77338 0.11561 0.58720
 N473 N 0.27136 -0.11114 0.64046
 C474 C 0.24920 -0.13782 0.63865
 N475 N 0.22722 -0.13960 0.61181
 N476 N 0.22748 -0.11565 0.58758
 C477 C 0.24966 -0.08898 0.58938
 N478 N 0.27153 -0.08710 0.61631
 N479 N 0.77206 -0.14011 0.38934
 C480 C 0.74976 -0.13842 0.36276
 N481 N 0.72768 -0.11169 0.36103
 N482 N 0.72799 -0.08745 0.38493
 C483 C 0.75032 -0.08914 0.41151
 N484 N 0.77228 -0.11596 0.41333
 N485 N 0.61074 0.76910 -0.13976
 C486 C 0.63768 0.74726 -0.13820
 N487 N 0.64000 0.72532 -0.11140
 N488 N 0.61628 0.72529 -0.08696
 C489 C 0.58934 0.74716 -0.08852
 N490 N 0.58694 0.76899 -0.11540
 N491 N 0.36010 0.27387 -0.11149
 C492 C 0.36182 0.25137 -0.13782
 N493 N 0.38861 0.22934 -0.13931
 N494 N 0.41289 0.22988 -0.11539
 C495 C 0.41116 0.25239 -0.08906
 N496 N 0.38429 0.27431 -0.08747
 N497 N 0.39024 0.77063 0.14003
 C498 C 0.36347 0.74854 0.13867
 N499 N 0.36149 0.72617 0.11224
 N500 N 0.38536 0.72598 0.08796
 C501 C 0.41212 0.74810 0.08931
 N502 N 0.41418 0.77037 0.11583
 N503 N 0.63998 0.27292 0.11101
 C504 C 0.63803 0.25054 0.13747
 N505 N 0.61109 0.22867 0.13901
 N506 N 0.58688 0.22926 0.11502
 C507 C 0.58882 0.25167 0.08857
 N508 N 0.61585 0.27342 0.08694
 N509 N -0.11254 0.63881 0.72818
 C510 C -0.13866 0.63805 0.75106
 N511 N -0.13963 0.61242 0.77448
 N512 N -0.11543 0.58844 0.77498
 C513 C -0.08927 0.58935 0.75220
 N514 N -0.08825 0.61495 0.72879
 N515 N -0.11101 0.36117 0.27089
 C516 C -0.13793 0.36257 0.24898
 N517 N -0.14015 0.38915 0.22677
 N518 N -0.11635 0.41354 0.22656
 C519 C -0.08944 0.41216 0.24850
 N520 N -0.08714 0.38549 0.27061
 N521 N 0.13969 0.38962 0.77272
 C522 C 0.13764 0.36310 0.75047
 N523 N 0.11057 0.36143 0.72875
 N524 N 0.08634 0.38536 0.72936
 C525 C 0.08837 0.41187 0.75164
 N526 N 0.11553 0.41362 0.77326
 N527 N 0.11014 0.64079 0.26993
 C528 C 0.13715 0.63902 0.24821
 N529 N 0.13926 0.61224 0.22628
 N530 N 0.11529 0.58801 0.22617
 C531 C 0.08830 0.58977 0.24794
 N532 N 0.08611 0.61664 0.26975
 N533 N 0.77251 -0.14025 0.61099
 C534 C 0.75025 -0.13865 0.63756
 N535 N 0.72824 -0.11189 0.63941
 N536 N 0.72855 -0.08752 0.61561
 C537 C 0.75081 -0.08913 0.58904
 N538 N 0.77273 -0.11597 0.58710
 N539 N 0.27256 -0.11067 0.36076
 C540 C 0.25024 -0.13723 0.36224
 N541 N 0.22801 -0.13906 0.38882
 N542 N 0.22817 -0.11525 0.41313
 C543 C 0.25050 -0.08869 0.41165
 N544 N 0.27263 -0.08677 0.38499
 N545 N 0.77236 0.13966 0.38955
 C546 C 0.75009 0.13793 0.36295
 N547 N 0.72805 0.11116 0.36118
 N548 N 0.72835 0.08691 0.38509
 C549 C 0.75064 0.08862 0.41168
 N550 N 0.77258 0.11548 0.41354
 N551 N 0.27082 0.11061 0.64025
 C552 C 0.24867 0.13727 0.63840
 N553 N 0.22673 0.13912 0.61153
 N554 N 0.22702 0.11522 0.58730
 C555 C 0.24919 0.08857 0.58914
 N556 N 0.27102 0.08663 0.61610
   
