data_POSCAR
  _audit_creation_date              2014-09-24
  _audit_creation_method            'ToBaCCo'
  _symmetry_space_group_name_H-M    'P1'
  _symmetry_Int_Tables_number       1
  _symmetry_cell_setting            triclinic
  loop_
  _symmetry_equiv_pos_as_xyz
 x,y,z
_cell_length_a 17.9130
_cell_length_b 17.9518
_cell_length_c 35.8994
_cell_angle_alpha 91.929100
_cell_angle_beta 88.634400
_cell_angle_gamma 120.561800
loop_
  _atom_site_label
  _atom_site_type_symbol
  _atom_site_fract_x
  _atom_site_fract_y
  _atom_site_fract_z
C1 C 0.01197 0.08038 0.56732
 H2 H 0.03191 0.04080 0.58108
 C3 C 0.01237 0.14892 0.58705
 H4 H 0.02974 0.15955 0.61624
 C5 C -0.02919 0.11858 0.51210
 H6 H -0.04178 0.10835 0.48249
 C7 C -0.03015 0.18755 0.53083
 H8 H -0.04462 0.22959 0.51552
 N9 N -0.00808 0.06688 0.53046
 C10 C 0.09837 -0.09706 0.52801
 H11 H 0.14857 -0.06099 0.50768
 C12 C 0.09963 -0.16248 0.54767
 H13 H 0.15155 -0.17570 0.54232
 C14 C -0.03458 -0.12917 0.55702
 H15 H -0.08803 -0.11740 0.55963
 C16 C -0.03522 -0.19386 0.57758
 H17 H -0.08827 -0.22953 0.59686
 Zn18 Zn 0.01293 -0.01077 0.50170
 N19 N 0.03125 -0.08255 0.53277
 C20 C 0.18654 0.11446 0.48876
 N21 N 0.10997 0.06018 0.47164
 C22 C 0.09770 0.06880 0.43515
 C23 C 0.16293 0.13642 0.41480
 C24 C 0.25393 0.18243 0.46930
 C25 C -0.16053 -0.09400 0.47289
 C26 C -0.23027 -0.16018 0.45295
 C27 C -0.13641 -0.21236 0.43087
 C28 C -0.06898 -0.14519 0.45104
 N29 N -0.08200 -0.08814 0.47168
 H30 H 0.19346 0.10788 0.51813
 H31 H 0.03540 0.02676 0.42244
 H32 H 0.15115 0.14428 0.38615
 H33 H 0.31318 0.22729 0.48374
 H34 H -0.16981 -0.04843 0.48988
 H35 H -0.29002 -0.15920 0.45402
 H36 H -0.12187 -0.25794 0.41715
 H37 H -0.00617 -0.14014 0.45134
 C38 C 0.03123 -0.21304 0.57240
 C39 C -0.00750 0.20436 0.56863
 C40 C -0.22044 -0.22285 0.43154
 C41 C 0.24137 0.19551 0.43218
 C42 C 1.10624 0.04499 0.10945
 H43 H 1.09372 0.09759 0.10716
 C44 C 1.17333 0.04576 0.08881
 H45 H 1.21006 0.09793 0.06979
 C46 C 1.07369 -0.08560 0.13783
 H47 H 1.03643 -0.13478 0.15799
 C48 C 1.14160 -0.08660 0.11808
 H49 H 1.15557 -0.13737 0.12315
 N50 N 1.05824 -0.01971 0.13342
 C51 C 0.86119 0.04993 0.15426
 H52 H 0.87078 0.06651 0.18370
 C53 C 0.79423 0.05107 0.13560
 H54 H 0.75298 0.06950 0.15084
 C55 C 0.89879 -0.00144 0.09947
 H56 H 0.93702 -0.02563 0.08592
 C57 C 0.83266 -0.00133 0.07978
 H58 H 0.82296 -0.02234 0.05077
 Zn59 Zn 0.98390 0.00021 0.16471
 N60 N 0.91133 0.02330 0.13610
 C61 C 1.08150 0.17710 0.18969
 N62 N 1.05969 0.09410 0.19578
 C63 C 1.10210 0.07526 0.22127
 C64 C 1.16842 0.14081 0.24242
 C65 C 1.14971 0.24535 0.20952
 C66 C 0.85634 -0.17276 0.17583
 C67 C 0.78857 -0.24100 0.19499
 C68 C 0.82914 -0.14960 0.25057
 C69 C 0.89565 -0.08311 0.23033
 N70 N 0.90805 -0.09568 0.19365
 H71 H 1.04899 0.19059 0.16821
 H72 H 1.08523 0.00883 0.22469
 H73 H 1.19924 0.12313 0.26310
 H74 H 1.16868 0.31106 0.20295
 H75 H 0.86562 -0.17997 0.14633
 H76 H 0.74634 -0.30091 0.18000
 H77 H 0.82038 -0.13804 0.27970
 H78 H 0.93459 -0.02029 0.24362
 C79 C 0.77816 0.02338 0.09805
 C80 C 1.19362 -0.01920 0.09368
 C81 C 0.77346 -0.22936 0.23277
 C82 C 1.19509 0.22769 0.23608
 C83 C 0.07545 0.96560 0.88955
 H84 H 0.00875 0.91464 0.89314
 C85 C 0.14039 0.96535 0.90997
 H86 H 0.12246 0.91532 0.93011
 C87 C 0.17883 1.09120 0.85806
 H88 H 0.19332 1.13804 0.83678
 C89 C 0.24635 1.09273 0.87762
 H90 H 0.31262 1.14159 0.87132
 N91 N 0.09550 1.02752 0.86411
 C92 C -0.17323 0.95002 0.84577
 H93 H -0.18098 0.92607 0.81723
 C94 C -0.24272 0.94920 0.86470
 H95 H -0.30293 0.92420 0.84982
 C96 C -0.08138 1.02031 0.89728
 H97 H -0.01752 1.05066 0.90939
 C98 C -0.14847 1.02203 0.91704
 H99 H -0.13520 1.04959 0.94504
 Zn100 Zn 0.00312 1.00676 0.83309
 N101 N -0.09459 0.98520 0.86225
 C102 C -0.08032 0.82930 0.80789
 N103 N -0.01491 0.91179 0.80236
 C104 C 0.05040 0.92931 0.77771
 C105 C 0.05206 0.86275 0.75739
 C106 C -0.08061 0.76024 0.78840
 C107 C 0.05450 1.17983 0.82183
 C108 C 0.05673 1.24785 0.80306
 C109 C 0.00485 1.15552 0.74784
 C110 C 0.00379 1.08940 0.76763
 N111 N 0.02773 1.10239 0.80403
 H112 H -0.12977 0.81663 0.82868
 H113 H 0.10276 0.99533 0.77460
 H114 H 0.10468 0.87875 0.73781
 H115 H -0.13120 0.69475 0.79424
 H116 H 0.07036 1.18742 0.85113
 H117 H 0.07526 1.30804 0.81805
 H118 H -0.01569 1.14358 0.71905
 H119 H -0.02053 1.02640 0.75440
 C120 C -0.23086 0.98769 0.90072
 C121 C 0.22752 1.02802 0.90347
 C122 C 0.02982 1.23542 0.76578
 C123 C -0.01280 0.77653 0.76321
 C124 C 0.49292 0.00426 0.01760
 C125 C 0.49646 0.00643 -0.02024
 C126 C 0.42925 0.01168 -0.04116
 C127 C 0.56724 0.00513 -0.04209
 C128 C 0.56219 0.00577 0.03992
 C129 C 0.41765 -0.00162 0.03810
 C130 C 0.35356 -0.06367 -0.05246
 C131 C 0.28872 -0.05816 -0.07078
 C132 C 0.29780 0.02292 -0.07763
 C133 C 0.37422 0.09836 -0.06625
 C134 C 0.43946 0.09268 -0.04823
 C135 C 0.54750 -0.06066 -0.06892
 C136 C 0.61352 -0.06611 -0.08799
 C137 C 0.70166 -0.00600 -0.08055
 C138 C 0.72054 0.06138 -0.05408
 C139 C 0.65427 0.06736 -0.03554
 C140 C 0.61142 0.07590 0.06441
 C141 C 0.68121 0.08145 0.08348
 C142 C 0.70294 0.01680 0.07845
 C143 C 0.65198 -0.05462 0.05463
 C144 C 0.58199 -0.06026 0.03567
 C145 C 0.41847 0.07336 0.05069
 C146 C 0.34619 0.06739 0.06910
 C147 C 0.27096 -0.01375 0.07466
 C148 C 0.27069 -0.08883 0.06188
 C149 C 0.34362 -0.08273 0.04387
 H150 H 0.34446 -0.12667 -0.04683
 H151 H 0.23166 -0.11760 -0.07979
 H152 H 0.38294 0.16168 -0.07062
 H153 H 0.49738 0.15140 -0.03921
 H154 H 0.48080 -0.10972 -0.07437
 H155 H 0.59452 -0.12047 -0.10715
 H156 H 0.67100 0.12026 -0.01573
 H157 H 0.59764 0.12783 0.06793
 H158 H 0.71951 0.13741 0.10144
 H159 H 0.66599 -0.10638 0.05079
 H160 H 0.54412 -0.11533 0.01719
 H161 H 0.47482 0.13649 0.04605
 H162 H 0.34965 0.12653 0.07921
 H163 H 0.21371 -0.15214 0.06521
 H164 H 0.34201 -0.14115 0.03389
 H165 H 0.78645 0.11200 -0.04841
 C166 C 0.01113 0.50067 0.68657
 C167 C 0.01152 0.49850 0.64870
 C168 C 0.00972 0.42619 0.62666
 C169 C 0.01641 0.57068 0.62798
 C170 C 0.00520 0.56981 0.70752
 C171 C 0.01308 0.43307 0.70842
 C172 C 0.07502 0.40577 0.63058
 C173 C 0.06927 0.33356 0.61183
 C174 C -0.00120 0.28126 0.58834
 C175 C -0.06503 0.30343 0.58357
 C176 C -0.05965 0.37515 0.60260
 C177 C 0.09709 0.64508 0.62171
 C178 C 0.10225 0.71548 0.60373
 C179 C 0.02664 0.71235 0.59150
 C180 C -0.05406 0.63687 0.59764
 C181 C -0.05912 0.56712 0.61603
 C182 C -0.07601 0.56190 0.71392
 C183 C -0.08221 0.62875 0.73204
 C184 C -0.00712 0.70456 0.74422
 C185 C 0.07412 0.71140 0.73802
 C186 C 0.08020 0.64493 0.71958
 C187 C -0.05333 0.34625 0.70503
 C188 C -0.04778 0.28211 0.72361
 C189 C 0.02387 0.30376 0.74626
 C190 C 0.08904 0.39107 0.75039
 C191 C 0.08365 0.45511 0.73164
 H192 H 0.12976 0.44506 0.64859
 H193 H 0.12030 0.31896 0.61546
 H194 H -0.12019 0.26408 0.56579
 H195 H -0.11106 0.38920 0.59925
 H196 H 0.15591 0.64900 0.63129
 H197 H 0.16525 0.77281 0.60002
 H198 H -0.12204 0.51074 0.62123
 H199 H -0.13443 0.50444 0.70432
 H200 H -0.14557 0.62174 0.73588
 H201 H 0.13322 0.76801 0.74759
 H202 H 0.14346 0.65251 0.71437
 H203 H -0.10880 0.32813 0.68757
 H204 H -0.09990 0.21560 0.72050
 H205 H 0.14517 0.40962 0.76746
 H206 H 0.13589 0.52156 0.73448
 H207 H -0.11357 0.63124 0.58803
 C208 C 0.49598 0.49767 0.35337
 C209 C 0.48973 0.50044 0.31576
 C210 C 0.55903 0.56988 0.29331
 C211 C 0.41546 0.43123 0.29488
 C212 C 0.43059 0.42258 0.37490
 C213 C 0.57002 0.56793 0.37445
 C214 C 0.58144 0.65645 0.29884
 C215 C 0.65069 0.72160 0.27900
 C216 C 0.69861 0.70123 0.25323
 C217 C 0.67444 0.61410 0.24721
 C218 C 0.60509 0.54908 0.26696
 C219 C 0.34936 0.44474 0.28310
 C220 C 0.27739 0.37868 0.26438
 C221 C 0.27154 0.29865 0.25611
 C222 C 0.33995 0.28694 0.26712
 C223 C 0.41057 0.35218 0.28673
 C224 C 0.45663 0.37402 0.39503
 C225 C 0.39537 0.30032 0.41379
 C226 C 0.30693 0.27371 0.41255
 C227 C 0.28127 0.32364 0.39313
 C228 C 0.34264 0.39794 0.37486
 C229 C 0.65535 0.58997 0.36615
 C230 C 0.72470 0.65958 0.38463
 C231 C 0.71130 0.70906 0.41295
 C232 C 0.62376 0.68376 0.42143
 C233 C 0.55477 0.61442 0.40256
 H234 H 0.54591 0.67348 0.31880
 H235 H 0.66642 0.78789 0.28369
 H236 H 0.71041 0.59631 0.22787
 H237 H 0.58892 0.48258 0.26245
 H238 H 0.35260 0.50580 0.28929
 H239 H 0.22593 0.39010 0.25696
 H240 H 0.46179 0.34137 0.29534
 H241 H 0.52429 0.39229 0.39558
 H242 H 0.41683 0.26317 0.42869
 H243 H 0.21373 0.30577 0.39254
 H244 H 0.32145 0.43598 0.36055
 H245 H 0.66851 0.55428 0.34465
 H246 H 0.78836 0.67560 0.37476
 H247 H 0.60627 0.71404 0.44369
 H248 H 0.48895 0.59741 0.40974
 H249 H 0.33979 0.22770 0.26032
   
