data_POSCAR
  _audit_creation_date              2014-09-24
  _audit_creation_method            'ToBaCCo'
  _symmetry_space_group_name_H-M    'P1'
  _symmetry_Int_Tables_number       1
  _symmetry_cell_setting            triclinic
  loop_
  _symmetry_equiv_pos_as_xyz
 x,y,z
_cell_length_a 15.6498
_cell_length_b 15.6498
_cell_length_c 15.6498
_cell_angle_alpha 90.000000
_cell_angle_beta 90.000000
_cell_angle_gamma 90.000000
loop_
  _atom_site_label
  _atom_site_type_symbol
  _atom_site_fract_x
  _atom_site_fract_y
  _atom_site_fract_z
Si1 Si 0.00002 0.50004 0.24981
 Si2 Si 0.00002 0.50004 0.74981
 Si3 Si 0.25002 0.00004 0.49981
 Si4 Si 0.75002 0.00004 0.49981
 Si5 Si 0.50002 0.25004 0.99981
 Si6 Si 0.50002 0.75004 0.99981
 B7 B 1.00002 1.08722 0.05354
 B8 B 1.05375 1.00004 0.08699
 B9 B 0.94630 1.00004 0.08699
 B10 B 0.91285 1.05377 -0.00019
 B11 B 1.00002 1.08722 -0.05392
 B12 B 1.08720 1.05377 -0.00019
 B13 B 1.00002 0.91286 -0.05392
 B14 B 0.94630 1.00004 -0.08737
 B15 B 1.05375 1.00004 -0.08737
 B16 B 1.08720 0.94631 -0.00019
 B17 B 1.00002 0.91286 0.05354
 B18 B 0.91285 0.94631 -0.00019
 B19 B 0.58720 0.50004 0.44608
 B20 B 0.58720 0.50004 0.55354
 B21 B 0.55375 0.58722 0.49981
 B22 B 0.50002 0.55377 0.41263
 B23 B 0.50002 0.44631 0.41263
 B24 B 0.55375 0.41286 0.49981
 B25 B 0.41285 0.50004 0.55354
 B26 B 0.41285 0.50004 0.44608
 B27 B 0.44630 0.41286 0.49981
 B28 B 0.50002 0.44631 0.58699
 B29 B 0.50002 0.55377 0.58699
 B30 B 0.44630 0.58722 0.49981
 C31 C 1.00002 1.40071 0.19028
 C32 C 1.00002 1.33003 0.15981
 C33 C 1.00002 1.24568 0.12804
 C34 C 1.00002 1.17429 0.09928
 C35 C 1.00002 0.59937 0.19028
 C36 C 1.00002 0.67005 0.15981
 C37 C 1.00002 0.75440 0.12804
 C38 C 1.00002 0.82578 0.09928
 C39 C 1.00002 1.40071 -0.19066
 C40 C 1.00002 1.33003 -0.16019
 C41 C 1.00002 1.24568 -0.12842
 C42 C 1.00002 1.17429 -0.09966
 C43 C 1.00002 0.59937 -0.19066
 C44 C 1.00002 0.67005 -0.16019
 C45 C 1.00002 0.75440 -0.12842
 C46 C 1.00002 0.82578 -0.09966
 C47 C 1.19049 1.00004 0.40048
 C48 C 1.16002 1.00004 0.32980
 C49 C 1.12825 1.00004 0.24545
 C50 C 1.09950 1.00004 0.17406
 C51 C 1.19049 1.00004 -0.40086
 C52 C 1.16002 1.00004 -0.33018
 C53 C 1.12825 1.00004 -0.24583
 C54 C 1.09950 1.00004 -0.17444
 C55 C 0.80956 1.00004 0.40048
 C56 C 0.84002 1.00004 0.32980
 C57 C 0.87179 1.00004 0.24545
 C58 C 0.90055 1.00004 0.17406
 C59 C 0.80956 1.00004 -0.40086
 C60 C 0.84002 1.00004 -0.33018
 C61 C 0.87179 1.00004 -0.24583
 C62 C 0.90055 1.00004 -0.17444
 C63 C 1.40069 1.19051 -0.00019
 C64 C 1.33001 1.16004 -0.00019
 C65 C 1.24566 1.12827 -0.00019
 C66 C 1.17428 1.09951 -0.00019
 C67 C 0.59935 1.19051 -0.00019
 C68 C 0.67004 1.16004 -0.00019
 C69 C 0.75439 1.12827 -0.00019
 C70 C 0.82577 1.09951 -0.00019
 C71 C 1.40069 0.80957 -0.00019
 C72 C 1.33001 0.84004 -0.00019
 C73 C 1.24566 0.87181 -0.00019
 C74 C 1.17428 0.90056 -0.00019
 C75 C 0.59935 0.80957 -0.00019
 C76 C 0.67004 0.84004 -0.00019
 C77 C 0.75439 0.87181 -0.00019
 C78 C 0.82577 0.90056 -0.00019
 C79 C 0.90069 0.50004 0.30934
 C80 C 0.83001 0.50004 0.33981
 C81 C 0.74566 0.50004 0.37158
 C82 C 0.67428 0.50004 0.40034
 C83 C 0.09935 0.50004 0.30934
 C84 C 0.17004 0.50004 0.33981
 C85 C 0.25439 0.50004 0.37158
 C86 C 0.32577 0.50004 0.40034
 C87 C 0.90069 0.50004 0.69028
 C88 C 0.83001 0.50004 0.65981
 C89 C 0.74566 0.50004 0.62804
 C90 C 0.67428 0.50004 0.59928
 C91 C 0.09935 0.50004 0.69028
 C92 C 0.17004 0.50004 0.65981
 C93 C 0.25439 0.50004 0.62804
 C94 C 0.32577 0.50004 0.59928
 C95 C 0.50002 0.69051 0.09914
 C96 C 0.50002 0.66004 0.16982
 C97 C 0.50002 0.62827 0.25417
 C98 C 0.50002 0.59951 0.32556
 C99 C 0.50002 0.69051 0.90048
 C100 C 0.50002 0.66004 0.82980
 C101 C 0.50002 0.62827 0.74545
 C102 C 0.50002 0.59951 0.67406
 C103 C 0.50002 0.30957 0.09914
 C104 C 0.50002 0.34004 0.16982
 C105 C 0.50002 0.37181 0.25417
 C106 C 0.50002 0.40056 0.32556
 C107 C 0.50002 0.30957 0.90048
 C108 C 0.50002 0.34004 0.82980
 C109 C 0.50002 0.37181 0.74545
 C110 C 0.50002 0.40056 0.67406
 C111 C 0.69049 0.90071 0.49981
 C112 C 0.66002 0.83003 0.49981
 C113 C 0.62825 0.74568 0.49981
 C114 C 0.59950 0.67429 0.49981
 C115 C 0.69049 0.09937 0.49981
 C116 C 0.66002 0.17005 0.49981
 C117 C 0.62825 0.25440 0.49981
 C118 C 0.59950 0.32578 0.49981
 C119 C 0.30956 0.90071 0.49981
 C120 C 0.34002 0.83003 0.49981
 C121 C 0.37179 0.74568 0.49981
 C122 C 0.40055 0.67429 0.49981
 C123 C 0.30956 0.09937 0.49981
 C124 C 0.34002 0.17005 0.49981
 C125 C 0.37179 0.25440 0.49981
 C126 C 0.40055 0.32578 0.49981
   
