data_POSCAR
  _audit_creation_date              2014-09-24
  _audit_creation_method            'ToBaCCo'
  _symmetry_space_group_name_H-M    'P1'
  _symmetry_Int_Tables_number       1
  _symmetry_cell_setting            triclinic
  loop_
  _symmetry_equiv_pos_as_xyz
 x,y,z
_cell_length_a 42.6101
_cell_length_b 42.2930
_cell_length_c 40.3749
_cell_angle_alpha 90.004800
_cell_angle_beta 89.821400
_cell_angle_gamma 88.011100
loop_
  _atom_site_label
  _atom_site_type_symbol
  _atom_site_fract_x
  _atom_site_fract_y
  _atom_site_fract_z
O1 O 0.00852 0.33134 0.02890
 O2 O 0.07131 0.32461 -0.03364
 O3 O 0.01043 0.32863 -0.03630
 O4 O 0.06992 0.32533 0.03023
 O5 O 0.06701 0.27338 0.03171
 O6 O 0.00752 0.27660 -0.03396
 O7 O 0.06864 0.27268 -0.03219
 O8 O 0.00581 0.27939 0.03065
 Cu9 Cu 0.04000 0.33274 -0.00272
 Cu10 Cu 0.03680 0.27035 -0.00076
 C11 C -0.00347 0.30664 0.04066
 C12 C 0.08110 0.29744 -0.04337
 C13 C -0.00075 0.30299 -0.04666
 C14 C 0.07916 0.29862 0.04177
 O15 O 0.42338 0.83364 0.53224
 O16 O 0.48442 0.83998 0.46755
 O17 O 0.42349 0.83453 0.46813
 O18 O 0.48392 0.84048 0.53247
 O19 O 0.49108 0.78857 0.53208
 O20 O 0.43050 0.78260 0.46802
 O21 O 0.49122 0.78805 0.46767
 O22 O 0.43076 0.78175 0.53188
 Cu23 Cu 0.45326 0.84241 0.50007
 Cu24 Cu 0.46172 0.78007 0.49984
 C25 C 0.41645 0.80643 0.54284
 C26 C 0.49824 0.81497 0.45655
 C27 C 0.41625 0.80749 0.45750
 C28 C 0.49773 0.81554 0.54342
 O29 O 0.93514 0.68423 -0.03713
 O30 O 0.99556 0.67867 0.02717
 O31 O 0.93388 0.68102 0.02700
 O32 O 0.99642 0.68957 -0.03707
 O33 O 0.98811 0.74122 -0.03425
 O34 O 0.93158 0.73300 0.03196
 O35 O 0.99450 0.73061 0.03151
 O36 O 0.93045 0.73585 -0.02989
 Cu37 Cu 0.96585 0.67814 -0.00548
 Cu38 Cu 0.96209 0.73996 0.00144
 C39 C 0.92182 0.71072 -0.04411
 C40 C 1.00545 0.70357 0.04038
 C41 C 0.92178 0.70612 0.04001
 C42 C 1.00175 0.71736 -0.04758
 O43 O 0.51734 0.15637 0.46592
 O44 O 0.57749 0.16304 0.53112
 O45 O 0.51673 0.15593 0.53086
 O46 O 0.57817 0.16264 0.46691
 O47 O 0.57060 0.21450 0.46711
 O48 O 0.50939 0.20780 0.53071
 O49 O 0.56984 0.21489 0.53102
 O50 O 0.51002 0.20824 0.46631
 Cu51 Cu 0.54804 0.15425 0.49871
 Cu52 Cu 0.53911 0.21650 0.49877
 C53 C 0.50340 0.18129 0.45497
 C54 C 0.58426 0.19024 0.54184
 C55 C 0.50256 0.18077 0.54174
 C56 C 0.58520 0.18984 0.45645
 O57 O 0.65637 0.01431 0.03546
 O58 O 0.66439 0.07599 -0.02844
 O59 O 0.65595 0.01513 -0.02951
 O60 O 0.66383 0.07550 0.03553
 O61 O 0.71519 0.06690 0.03509
 O62 O 0.70729 0.00654 -0.02941
 O63 O 0.71566 0.06703 -0.02868
 O64 O 0.70774 0.00588 0.03505
 Cu65 Cu 0.65493 0.04589 0.00332
 Cu66 Cu 0.71656 0.03557 0.00307
 C67 C 0.68078 -0.00047 0.04618
 C68 C 0.69154 0.08240 -0.03918
 C69 C 0.68034 0.00061 -0.04071
 C70 C 0.69098 0.08202 0.04587
 O71 O 0.17440 0.43240 0.53214
 O72 O 0.16741 0.49345 0.46736
 O73 O 0.17489 0.43191 0.46817
 O74 O 0.16766 0.49383 0.53229
 O75 O 0.21908 0.49823 0.53190
 O76 O 0.22631 0.43648 0.46787
 O77 O 0.21881 0.49803 0.46728
 O78 O 0.22585 0.43672 0.53181
 Cu79 Cu 0.16592 0.46267 0.49996
 Cu80 Cu 0.22766 0.46796 0.49968
 C81 C 0.20140 0.42375 0.54269
 C82 C 0.19185 0.50616 0.45618
 C83 C 0.20192 0.42322 0.45746
 C84 C 0.19218 0.50649 0.54323
 O85 O 0.34090 0.92338 -0.03260
 O86 O 0.34770 0.98626 0.03017
 O87 O 0.34025 0.92516 0.03139
 O88 O 0.34758 0.98479 -0.03490
 O89 O 0.29620 0.99269 -0.03455
 O90 O 0.28884 0.93338 0.03076
 O91 O 0.29626 0.99400 0.02972
 O92 O 0.28957 0.93175 -0.03301
 Cu93 Cu 0.34934 0.95430 -0.00152
 Cu94 Cu 0.28765 0.96386 -0.00185
 C95 C 0.31391 0.91633 -0.04308
 C96 C 0.32306 1.00075 0.04082
 C97 C 0.31306 0.91877 0.04198
 C98 C 0.32302 0.99905 -0.04604
 O99 O 0.83640 0.50597 0.47069
 O100 O 0.82875 0.56883 0.53362
 O101 O 0.83537 0.50714 0.53552
 O102 O 0.82837 0.56739 0.46945
 O103 O 0.77699 0.56260 0.46964
 O104 O 0.78396 0.50269 0.53517
 O105 O 0.77734 0.56427 0.53363
 O106 O 0.78499 0.50138 0.47085
 Cu107 Cu 0.83741 0.53766 0.50236
 Cu108 Cu 0.77570 0.53220 0.50238
 C109 C 0.81200 0.49298 0.45992
 C110 C 0.80168 0.57765 0.54402
 C111 C 0.81077 0.49454 0.54655
 C112 C 0.80133 0.57551 0.45851
 C113 C 0.26274 0.19920 0.16622
 C114 C 0.28392 0.17939 0.18370
 C115 C 0.29231 0.18764 0.21613
 C116 C 0.28081 0.21608 0.23078
 C117 C 0.26010 0.23587 0.21217
 C118 C 0.25021 0.22711 0.18042
 C119 C 0.28993 0.22480 0.26546
 C120 C 0.27008 0.24471 0.28499
 C121 C 0.27882 0.25394 0.31696
 C122 C 0.30698 0.24167 0.33036
 C123 C 0.32692 0.22126 0.31193
 C124 C 0.31857 0.21345 0.27935
 H125 H 0.25640 0.19321 0.14109
 H126 H 0.30725 0.17130 0.23000
 H127 H 0.25115 0.25806 0.22226
 H128 H 0.24777 0.25345 0.27550
 H129 H 0.31301 0.24750 0.35563
 H130 H 0.33491 0.19903 0.26482
 C131 C 0.73403 0.79539 0.16365
 C132 C 0.71379 0.81535 0.18222
 C133 C 0.70565 0.80640 0.21454
 C134 C 0.71651 0.77722 0.22800
 C135 C 0.73610 0.75722 0.20827
 C136 C 0.74586 0.76670 0.17671
 C137 C 0.70836 0.76824 0.26282
 C138 C 0.72868 0.74815 0.28146
 C139 C 0.72100 0.73916 0.31387
 C140 C 0.69339 0.75172 0.32845
 C141 C 0.67309 0.77234 0.31083
 C142 C 0.68036 0.77992 0.27789
 H143 H 0.74058 0.80206 0.13873
 H144 H 0.69161 0.82284 0.22938
 H145 H 0.74461 0.73453 0.21753
 H146 H 0.75058 0.73920 0.27094
 H147 H 0.68810 0.74605 0.35398
 H148 H 0.66375 0.79455 0.26403
 C149 C 0.79947 0.25800 0.16627
 C150 C 0.81999 0.27649 0.18447
 C151 C 0.81269 0.28400 0.21760
 C152 C 0.78466 0.27398 0.23236
 C153 C 0.76407 0.25627 0.21308
 C154 C 0.77168 0.24747 0.18050
 C155 C 0.77695 0.28140 0.26777
 C156 C 0.75854 0.26090 0.28663
 C157 C 0.74962 0.26838 0.31923
 C158 C 0.76069 0.29587 0.33385
 C159 C 0.77979 0.31625 0.31605
 C160 C 0.78739 0.30916 0.28292
 H161 H 0.80480 0.25230 0.14067
 H162 H 0.82935 0.29698 0.23195
 H163 H 0.74214 0.24874 0.22344
 H164 H 0.75058 0.23917 0.27596
 H165 H 0.75491 0.30104 0.35946
 H166 H 0.80079 0.32581 0.26885
 C167 C 0.20054 0.75017 0.16842
 C168 C 0.17976 0.73156 0.18627
 C169 C 0.18719 0.72276 0.21896
 C170 C 0.21560 0.73152 0.23352
 C171 C 0.23643 0.74948 0.21468
 C172 C 0.22875 0.75954 0.18253
 C173 C 0.22348 0.72237 0.26836
 C174 C 0.24178 0.74211 0.28800
 C175 C 0.25096 0.73315 0.32004
 C176 C 0.24035 0.70482 0.33328
 C177 C 0.22142 0.68502 0.31464
 C178 C 0.21338 0.69376 0.28206
 H179 H 0.19518 0.75666 0.14305
 H180 H 0.17045 0.70960 0.23313
 H181 H 0.25865 0.75607 0.22501
 H182 H 0.24945 0.76439 0.27829
 H183 H 0.24640 0.69848 0.35852
 H184 H 0.19996 0.67778 0.26723
 C185 C 0.75582 0.29683 0.66966
 C186 C 0.74504 0.26875 0.68343
 C187 C 0.75459 0.26008 0.71551
 C188 C 0.77366 0.27971 0.73451
 C189 C 0.78366 0.30808 0.72030
 C190 C 0.77539 0.31650 0.68773
 C191 C 0.78318 0.27039 0.76890
 C192 C 0.81248 0.27871 0.78182
 C193 C 0.82209 0.26894 0.81366
 C194 C 0.80209 0.25008 0.83240
 C195 C 0.77272 0.24167 0.82018
 C196 C 0.76328 0.25240 0.78876
 H197 H 0.74971 0.30288 0.64437
 H198 H 0.74696 0.23795 0.72561
 H199 H 0.79754 0.32404 0.73465
 H200 H 0.82801 0.29262 0.76699
 H201 H 0.80947 0.24162 0.85654
 H202 H 0.74048 0.24617 0.77963
 C203 C 0.24675 0.69960 0.67305
 C204 C 0.25832 0.72695 0.68755
 C205 C 0.24962 0.73466 0.72016
 C206 C 0.23020 0.71496 0.73869
 C207 C 0.21896 0.68751 0.72369
 C208 C 0.22702 0.67976 0.69080
 C209 C 0.22131 0.72355 0.77335
 C210 C 0.19069 0.71875 0.78513
 C211 C 0.18162 0.72918 0.81677
 C212 C 0.20301 0.74470 0.83673
 C213 C 0.23337 0.75055 0.82524
 C214 C 0.24263 0.73901 0.79395
 H215 H 0.25243 0.69426 0.64744
 H216 H 0.25806 0.75614 0.73104
 H217 H 0.20436 0.67187 0.73773
 H218 H 0.17337 0.70847 0.76918
 H219 H 0.19535 0.75354 0.86073
 H220 H 0.26607 0.74334 0.78506
 C221 C 0.30534 0.24077 0.66714
 C222 C 0.27751 0.25321 0.68132
 C223 C 0.26893 0.24339 0.71322
 C224 C 0.28871 0.22280 0.73196
 C225 C 0.31707 0.21144 0.71734
 C226 C 0.32512 0.21969 0.68479
 C227 C 0.27989 0.21341 0.76656
 C228 C 0.29138 0.18461 0.78035
 C229 C 0.28344 0.17586 0.81276
 C230 C 0.26264 0.19538 0.83115
 C231 C 0.25015 0.22368 0.81786
 C232 C 0.25960 0.23296 0.78605
 H233 H 0.31127 0.24701 0.64192
 H234 H 0.24684 0.25221 0.72334
 H235 H 0.33347 0.19664 0.73127
 H236 H 0.30599 0.16838 0.76586
 H237 H 0.25664 0.18884 0.85628
 H238 H 0.25069 0.25538 0.77658
 C239 C 0.69458 0.75927 0.66846
 C240 C 0.72312 0.74803 0.68186
 C241 C 0.73179 0.75807 0.71357
 C242 C 0.71139 0.77758 0.73293
 C243 C 0.68239 0.78778 0.71916
 C244 C 0.67418 0.77933 0.68677
 C245 C 0.72015 0.78690 0.76742
 C246 C 0.70823 0.81541 0.78156
 C247 C 0.71623 0.82401 0.81396
 C248 C 0.73701 0.80434 0.83206
 C249 C 0.75021 0.77656 0.81822
 C250 C 0.74092 0.76753 0.78637
 H251 H 0.68858 0.75291 0.64333
 H252 H 0.75440 0.75021 0.72308
 H253 H 0.66570 0.80181 0.73370
 H254 H 0.69332 0.83149 0.76729
 H255 H 0.74270 0.81057 0.85731
 H256 H 0.75034 0.74550 0.77635
 C257 C 0.30096 0.06781 0.09901
 C258 C 0.32951 0.07363 0.11314
 C259 C 0.35685 0.05638 0.10490
 C260 C 0.35461 0.03225 0.08112
 C261 C 0.32534 0.02584 0.06620
 C262 C 0.29817 0.04395 0.07555
 O263 O 0.27800 0.08740 0.10932
 C264 C 0.29233 0.10606 0.13041
 C265 C 0.32384 0.09865 0.13379
 C266 C 0.34333 0.11585 0.15410
 C267 C 0.32984 0.14192 0.17124
 C268 C 0.29744 0.15033 0.16769
 C269 C 0.27847 0.13171 0.14722
 H270 H 0.37913 0.06150 0.11613
 H271 H 0.37566 0.01871 0.07428
 H272 H 0.27551 0.03996 0.06456
 H273 H 0.36812 0.10977 0.15624
 H274 H 0.34482 0.15611 0.18642
 H275 H 0.25366 0.13725 0.14407
 C276 C 0.76552 0.64097 0.59945
 C277 C 0.79175 0.65645 0.60938
 C278 C 0.82194 0.64686 0.59961
 C279 C 0.82514 0.62043 0.57858
 C280 C 0.79833 0.60426 0.56774
 C281 C 0.76813 0.61472 0.57866
 O282 O 0.73895 0.65399 0.61102
 C283 C 0.74855 0.67829 0.62858
 C284 C 0.78063 0.68094 0.62844
 C285 C 0.79547 0.70510 0.64501
 C286 C 0.77645 0.72727 0.66250
 C287 C 0.74327 0.72494 0.66303
 C288 C 0.72930 0.69996 0.64574
 H289 H 0.84228 0.65942 0.60763
 H290 H 0.84844 0.61290 0.57041
 H291 H 0.74715 0.60314 0.57080
 H292 H 0.82074 0.70687 0.64441
 H293 H 0.78753 0.74644 0.67522
 H294 H 0.70414 0.69719 0.64593
 C295 C 0.70097 0.93070 0.10267
 C296 C 0.67232 0.92572 0.11719
 C297 C 0.64562 0.94433 0.11001
 C298 C 0.64859 0.96891 0.08686
 C299 C 0.67793 0.97440 0.07146
 C300 C 0.70448 0.95501 0.07983
 O301 O 0.72316 0.90975 0.11175
 C302 C 0.70824 0.89105 0.13241
 C303 C 0.67710 0.89977 0.13675
 C304 C 0.65702 0.88270 0.15665
 C305 C 0.66947 0.85536 0.17232
 C306 C 0.70144 0.84558 0.16773
 C307 C 0.72107 0.86413 0.14778
 H308 H 0.62323 0.93984 0.12150
 H309 H 0.62800 0.98347 0.08078
 H310 H 0.72716 0.95825 0.06839
 H311 H 0.63252 0.88983 0.15953
 H312 H 0.65400 0.84129 0.18715
 H313 H 0.74559 0.85757 0.14389
 C314 C 0.23700 0.36066 0.59853
 C315 C 0.21049 0.34657 0.61004
 C316 C 0.18035 0.35714 0.60137
 C317 C 0.17746 0.38308 0.57970
 C318 C 0.20453 0.39780 0.56716
 C319 C 0.23470 0.38642 0.57706
 O320 O 0.26344 0.34676 0.60924
 C321 C 0.25343 0.32329 0.62785
 C322 C 0.22125 0.32206 0.62918
 C323 C 0.20593 0.29887 0.64678
 C324 C 0.22454 0.27614 0.66380
 C325 C 0.25785 0.27700 0.66295
 C326 C 0.27233 0.30109 0.64462
 H327 H 0.15980 0.34566 0.61070
 H328 H 0.15417 0.39137 0.57239
 H329 H 0.25586 0.39685 0.56781
 H330 H 0.18056 0.29818 0.64720
 H331 H 0.21300 0.25765 0.67718
 H332 H 0.29761 0.30273 0.64364
 C333 C 0.93017 0.28722 0.09879
 C334 C 0.92423 0.31618 0.11347
 C335 C 0.94106 0.34277 0.10562
 C336 C 0.96490 0.33937 0.08164
 C337 C 0.97156 0.30970 0.06616
 C338 C 0.95393 0.28324 0.07514
 O339 O 0.91088 0.26521 0.10891
 C340 C 0.89235 0.28058 0.13043
 C341 C 0.89956 0.31181 0.13426
 C342 C 0.88265 0.33231 0.15519
 C343 C 0.85704 0.32022 0.17251
 C344 C 0.84873 0.28822 0.16843
 C345 C 0.86703 0.26811 0.14733
 H346 H 0.93585 0.36538 0.11731
 H347 H 0.97816 0.35987 0.07517
 H348 H 0.95818 0.26032 0.06370
 H349 H 0.88864 0.35686 0.15768
 H350 H 0.84309 0.33599 0.18826
 H351 H 0.86145 0.24356 0.14380
 C352 C 0.35801 0.76990 0.60034
 C353 C 0.34218 0.79636 0.61244
 C354 C 0.34984 0.82689 0.60330
 C355 C 0.37465 0.83017 0.58062
 C356 C 0.39119 0.80313 0.56769
 C357 C 0.38267 0.77260 0.57798
 O358 O 0.34695 0.74304 0.61161
 C359 C 0.32356 0.75267 0.63127
 C360 C 0.31959 0.78506 0.63273
 C361 C 0.29611 0.80001 0.65167
 C362 C 0.27602 0.78076 0.66982
 C363 C 0.27967 0.74725 0.66859
 C364 C 0.30392 0.73318 0.64900
 H365 H 0.33704 0.84740 0.61305
 H366 H 0.38075 0.85372 0.57297
 H367 H 0.39456 0.75141 0.56854
 H368 H 0.29325 0.82553 0.65232
 H369 H 0.25736 0.79192 0.68439
 H370 H 0.30760 0.70774 0.64776
 C371 C 0.07030 0.72298 0.09996
 C372 C 0.07572 0.69395 0.11463
 C373 C 0.05903 0.66746 0.10636
 C374 C 0.03587 0.67100 0.08192
 C375 C 0.02972 0.70072 0.06639
 C376 C 0.04713 0.72715 0.07582
 O377 O 0.08965 0.74475 0.11043
 C378 C 0.10764 0.72911 0.13214
 C379 C 0.10000 0.69798 0.13574
 C380 C 0.11640 0.67710 0.15655
 C381 C 0.14205 0.68867 0.17398
 C382 C 0.15086 0.72055 0.17018
 C383 C 0.13299 0.74110 0.14924
 H384 H 0.06392 0.64478 0.11802
 H385 H 0.02269 0.65055 0.07515
 H386 H 0.04327 0.75004 0.06425
 H387 H 0.11007 0.65263 0.15877
 H388 H 0.15568 0.67252 0.18952
 H389 H 0.13898 0.76557 0.14587
 C390 C 0.64340 0.22656 0.59854
 C391 C 0.65964 0.20004 0.60976
 C392 C 0.65186 0.16958 0.60058
 C393 C 0.62655 0.16641 0.57867
 C394 C 0.60965 0.19350 0.56646
 C395 C 0.61820 0.22397 0.57692
 O396 O 0.65469 0.25335 0.60975
 C397 C 0.67866 0.24358 0.62844
 C398 C 0.68276 0.21119 0.62933
 C399 C 0.70684 0.19610 0.64715
 C400 C 0.72738 0.21516 0.66481
 C401 C 0.72354 0.24868 0.66436
 C402 C 0.69871 0.26293 0.64578
 H403 H 0.66500 0.14902 0.60964
 H404 H 0.62042 0.14290 0.57095
 H405 H 0.60604 0.24519 0.56802
 H406 H 0.70983 0.17058 0.64729
 H407 H 0.74649 0.20384 0.67846
 H408 H 0.69489 0.28837 0.64508
 C409 C 0.72856 0.13990 0.90490
 C410 C 0.70270 0.15781 0.89509
 C411 C 0.67240 0.15132 0.90531
 C412 C 0.66868 0.12559 0.92685
 C413 C 0.69512 0.10697 0.93784
 C414 C 0.72547 0.11431 0.92619
 O415 O 0.75533 0.15008 0.89272
 C416 C 0.74622 0.17505 0.87490
 C417 C 0.71427 0.18089 0.87550
 C418 C 0.69991 0.20629 0.85890
 C419 C 0.71928 0.22637 0.84088
 C420 C 0.75236 0.22072 0.83975
 C421 C 0.76583 0.19455 0.85711
 H422 H 0.65235 0.16569 0.89724
 H423 H 0.64521 0.12057 0.93526
 H424 H 0.74631 0.10086 0.93380
 H425 H 0.67474 0.21062 0.85995
 H426 H 0.70853 0.24649 0.82816
 H427 H 0.79086 0.18923 0.85651
 C428 C 0.21119 0.57244 0.39764
 C429 C 0.18250 0.57832 0.38292
 C430 C 0.15615 0.56124 0.39067
 C431 C 0.15949 0.53726 0.41461
 C432 C 0.18886 0.53081 0.43024
 C433 C 0.21510 0.54862 0.42129
 O434 O 0.23297 0.59208 0.38782
 C435 C 0.21772 0.61080 0.36647
 C436 C 0.18680 0.60337 0.36245
 C437 C 0.16639 0.62067 0.34194
 C438 C 0.17824 0.64695 0.32533
 C439 C 0.20992 0.65549 0.32965
 C440 C 0.22997 0.63667 0.35018
 H441 H 0.13373 0.56642 0.37899
 H442 H 0.13916 0.52386 0.42107
 H443 H 0.23777 0.54457 0.43287
 H444 H 0.14207 0.61455 0.33936
 H445 H 0.16247 0.66125 0.31005
 H446 H 0.25429 0.64235 0.35390
 C447 C 0.27762 0.85613 0.90401
 C448 C 0.30354 0.83766 0.89533
 C449 C 0.33377 0.84484 0.90507
 C450 C 0.33729 0.87180 0.92496
 C451 C 0.31070 0.89087 0.93495
 C452 C 0.28050 0.88286 0.92371
 O453 O 0.25094 0.84527 0.89259
 C454 C 0.26013 0.81927 0.87646
 C455 C 0.29205 0.81338 0.87735
 C456 C 0.30635 0.78695 0.86233
 C457 C 0.28694 0.76594 0.84561
 C458 C 0.25391 0.77172 0.84421
 C459 C 0.24055 0.79893 0.85995
 H460 H 0.35389 0.83003 0.89794
 H461 H 0.36067 0.87733 0.93307
 H462 H 0.25955 0.89656 0.93061
 H463 H 0.33150 0.78260 0.86349
 H464 H 0.29761 0.74515 0.83396
 H465 H 0.21560 0.80459 0.85891
 C466 C 0.79224 0.42625 0.40233
 C467 C 0.82086 0.42006 0.38741
 C468 C 0.84743 0.43682 0.39496
 C469 C 0.84435 0.46088 0.41887
 C470 C 0.81500 0.46778 0.43456
 C471 C 0.78860 0.45014 0.42593
 O472 O 0.77013 0.40709 0.39240
 C473 C 0.78510 0.38839 0.37074
 C474 C 0.81616 0.39535 0.36665
 C475 C 0.83623 0.37824 0.34552
 C476 C 0.82384 0.35272 0.32818
 C477 C 0.79198 0.34472 0.33244
 C478 C 0.77234 0.36318 0.35383
 H479 H 0.86977 0.43141 0.38306
 H480 H 0.86482 0.47411 0.42511
 H481 H 0.76593 0.45455 0.43753
 H482 H 0.86066 0.38402 0.34286
 H483 H 0.83929 0.33864 0.31223
 H484 H 0.74791 0.35785 0.35753
 C485 C 0.14358 0.26267 0.90220
 C486 C 0.15766 0.28959 0.89149
 C487 C 0.14698 0.31977 0.90069
 C488 C 0.12093 0.32227 0.92206
 C489 C 0.10613 0.29476 0.93395
 C490 C 0.11769 0.26454 0.92339
 O491 O 0.15745 0.23627 0.89083
 C492 C 0.18086 0.24674 0.87259
 C493 C 0.18209 0.27917 0.87214
 C494 C 0.20504 0.29500 0.85481
 C495 C 0.22753 0.27664 0.83711
 C496 C 0.22668 0.24308 0.83705
 C497 C 0.20288 0.22808 0.85521
 H498 H 0.15841 0.34065 0.89193
 H499 H 0.11263 0.34569 0.92958
 H500 H 0.10722 0.24295 0.93173
 H501 H 0.20566 0.32056 0.85501
 H502 H 0.24579 0.28856 0.82385
 H503 H 0.20126 0.20259 0.85548
 C504 C 0.56391 0.79168 0.39757
 C505 C 0.56995 0.82030 0.38314
 C506 C 0.55333 0.84811 0.39147
 C507 C 0.52957 0.84627 0.41562
 C508 C 0.52290 0.81693 0.43078
 C509 C 0.54039 0.78929 0.42135
 O510 O 0.58286 0.76822 0.38712
 C511 C 0.60135 0.78226 0.36560
 C512 C 0.59444 0.81409 0.36207
 C513 C 0.61146 0.83332 0.34116
 C514 C 0.63682 0.81920 0.32357
 C515 C 0.64473 0.78647 0.32732
 C516 C 0.62634 0.76780 0.34841
 H517 H 0.55863 0.87045 0.38003
 H518 H 0.51649 0.86768 0.42254
 H519 H 0.53619 0.76654 0.43251
 H520 H 0.60576 0.85836 0.33888
 H521 H 0.65086 0.83393 0.30785
 H522 H 0.63159 0.74277 0.35173
 C523 C 0.85776 0.74234 0.90217
 C524 C 0.84638 0.71475 0.88969
 C525 C 0.85960 0.68516 0.89739
 C526 C 0.88538 0.68399 0.91902
 C527 C 0.89718 0.71219 0.93288
 C528 C 0.88308 0.74178 0.92387
 O529 O 0.84197 0.76801 0.89187
 C530 C 0.82004 0.75639 0.87260
 C531 C 0.82156 0.72395 0.87043
 C532 C 0.80032 0.70707 0.85192
 C533 C 0.77661 0.72439 0.83497
 C534 C 0.77475 0.75798 0.83664
 C535 C 0.79703 0.77400 0.85578
 H536 H 0.85030 0.66374 0.88725
 H537 H 0.89570 0.66103 0.92535
 H538 H 0.89135 0.76387 0.93357
 H539 H 0.80177 0.68149 0.85077
 H540 H 0.75956 0.71159 0.82095
 H541 H 0.79679 0.79957 0.85732
 C542 C 0.43774 0.20389 0.39606
 C543 C 0.43225 0.17525 0.38143
 C544 C 0.44935 0.14768 0.38950
 C545 C 0.47297 0.14978 0.41362
 C546 C 0.47902 0.17914 0.42905
 C547 C 0.46110 0.20654 0.41985
 O548 O 0.41828 0.22704 0.38598
 C549 C 0.40002 0.21277 0.36451
 C550 C 0.40757 0.18109 0.36066
 C551 C 0.39067 0.16159 0.34001
 C552 C 0.36472 0.17522 0.32311
 C553 C 0.35612 0.20775 0.32725
 C554 C 0.37449 0.22676 0.34795
 H555 H 0.44448 0.12531 0.37792
 H556 H 0.48639 0.12855 0.42034
 H557 H 0.46479 0.22927 0.43127
 H558 H 0.39683 0.13666 0.33754
 H559 H 0.35072 0.16020 0.30776
 H560 H 0.36873 0.25165 0.35161
 C561 C 0.70123 0.93543 0.89854
 C562 C 0.67237 0.92988 0.88495
 C563 C 0.64521 0.94685 0.89431
 C564 C 0.64797 0.97040 0.91865
 C565 C 0.67755 0.97642 0.93308
 C566 C 0.70452 0.95867 0.92256
 O567 O 0.72395 0.91604 0.88738
 C568 C 0.70917 0.89776 0.86631
 C569 C 0.67760 0.90520 0.86373
 C570 C 0.65765 0.88811 0.84380
 C571 C 0.67074 0.86200 0.82637
 C572 C 0.70314 0.85348 0.82936
 C573 C 0.72261 0.87217 0.84917
 H574 H 0.62267 0.94194 0.88352
 H575 H 0.62706 0.98373 0.92635
 H576 H 0.72742 0.96240 0.93312
 H577 H 0.63282 0.89419 0.84230
 H578 H 0.65546 0.84775 0.81160
 H579 H 0.74744 0.86648 0.85188
 C580 C 0.23771 0.36014 0.40140
 C581 C 0.21130 0.34541 0.39074
 C582 C 0.18115 0.35542 0.40022
 C583 C 0.17817 0.38150 0.42173
 C584 C 0.20513 0.39693 0.43332
 C585 C 0.23531 0.38603 0.42271
 O586 O 0.26419 0.34678 0.38993
 C587 C 0.25431 0.32305 0.37169
 C588 C 0.22217 0.32110 0.37131
 C589 C 0.20700 0.29766 0.35399
 C590 C 0.22575 0.27546 0.33623
 C591 C 0.25901 0.27707 0.33615
 C592 C 0.27332 0.30133 0.35426
 H593 H 0.16068 0.34344 0.39159
 H594 H 0.15489 0.38936 0.42965
 H595 H 0.25642 0.39699 0.43118
 H596 H 0.18167 0.29644 0.35421
 H597 H 0.21438 0.25686 0.32291
 H598 H 0.29856 0.30355 0.35446
 C599 C 0.30071 0.06299 0.89491
 C600 C 0.32955 0.07000 0.88205
 C601 C 0.35713 0.05397 0.89157
 C602 C 0.35486 0.02986 0.91540
 C603 C 0.32527 0.02224 0.92920
 C604 C 0.29784 0.03907 0.91825
 O605 O 0.27753 0.08187 0.88396
 C606 C 0.29200 0.10131 0.86372
 C607 C 0.32383 0.09504 0.86146
 C608 C 0.34350 0.11330 0.84232
 C609 C 0.32983 0.13926 0.82523
 C610 C 0.29714 0.14659 0.82792
 C611 C 0.27801 0.12693 0.84712
 H612 H 0.37965 0.06014 0.88144
 H613 H 0.37623 0.01746 0.92325
 H614 H 0.27482 0.03436 0.92814
 H615 H 0.36853 0.10812 0.84108
 H616 H 0.34485 0.15427 0.81091
 H617 H 0.25301 0.13185 0.84966
 C618 C 0.76464 0.63564 0.40009
 C619 C 0.79077 0.65002 0.38803
 C620 C 0.82113 0.64061 0.39727
 C621 C 0.82458 0.61560 0.42010
 C622 C 0.79786 0.60065 0.43314
 C623 C 0.76751 0.61080 0.42260
 O624 O 0.73789 0.64836 0.38882
 C625 C 0.74726 0.67136 0.36924
 C626 C 0.77938 0.67346 0.36780
 C627 C 0.79400 0.69638 0.34910
 C628 C 0.77471 0.71796 0.33125
 C629 C 0.74146 0.71627 0.33248
 C630 C 0.72774 0.69241 0.35174
 H631 H 0.84139 0.65227 0.38752
 H632 H 0.84800 0.60820 0.42787
 H633 H 0.74658 0.60012 0.43208
 H634 H 0.81931 0.69777 0.34848
 H635 H 0.78566 0.73623 0.31696
 H636 H 0.70254 0.69013 0.35295
 C637 C 0.06722 0.70756 0.89154
 C638 C 0.06434 0.73627 0.87563
 C639 C 0.04137 0.75902 0.88357
 C640 C 0.02058 0.75214 0.90918
 C641 C 0.02239 0.72248 0.92594
 C642 C 0.04577 0.69952 0.91629
 O643 O 0.09311 0.69109 0.88281
 C644 C 0.10667 0.70985 0.86094
 C645 C 0.08967 0.73759 0.85542
 C646 C 0.10028 0.76175 0.83540
 C647 C 0.13001 0.75748 0.82092
 C648 C 0.14848 0.72965 0.82702
 C649 C 0.13655 0.70521 0.84688
 H650 H 0.04019 0.78178 0.87129
 H651 H 0.00291 0.77009 0.91580
 H652 H 0.04854 0.67710 0.92910
 H653 H 0.08669 0.78360 0.83206
 H654 H 0.13938 0.77646 0.80629
 H655 H 0.15079 0.68426 0.85270
 C656 C 0.64626 0.22613 0.40194
 C657 C 0.66215 0.19957 0.39017
 C658 C 0.65355 0.16909 0.39834
 C659 C 0.62772 0.16595 0.41972
 C660 C 0.61115 0.19309 0.43239
 C661 C 0.62056 0.22358 0.42299
 O662 O 0.65831 0.25291 0.39170
 C663 C 0.68239 0.24310 0.37307
 C664 C 0.68583 0.21069 0.37123
 C665 C 0.70975 0.19555 0.35308
 C666 C 0.73089 0.21463 0.33612
 C667 C 0.72777 0.24816 0.33767
 C668 C 0.70305 0.26242 0.35651
 H669 H 0.66643 0.14850 0.38887
 H670 H 0.62091 0.14242 0.42664
 H671 H 0.60862 0.24482 0.43225
 H672 H 0.71209 0.17001 0.35207
 H673 H 0.74984 0.20330 0.32210
 H674 H 0.69970 0.28789 0.35790
 C675 C 0.92486 0.29750 0.90425
 C676 C 0.93678 0.29719 0.87252
 C677 C 0.96856 0.30043 0.86573
 C678 C 0.98888 0.30373 0.89277
 C679 C 0.97714 0.30343 0.92561
 C680 C 0.94470 0.30045 0.93148
 O681 O 0.89419 0.29309 0.90542
 C682 C 0.88661 0.28967 0.87376
 C683 C 0.91179 0.29182 0.85264
 C684 C 0.90934 0.28713 0.81866
 C685 C 0.87977 0.27985 0.80597
 C686 C 0.85320 0.27773 0.82719
 C687 C 0.85691 0.28314 0.86164
 H688 H 0.97748 0.29983 0.84060
 H689 H 1.01383 0.30549 0.88829
 H690 H 0.93538 0.29956 0.95644
 H691 H 0.92964 0.28828 0.80257
 H692 H 0.87792 0.27507 0.77973
 H693 H 0.83734 0.28212 0.87870
 C694 C 0.35517 0.77270 0.40233
 C695 C 0.33899 0.79959 0.39196
 C696 C 0.34756 0.82980 0.40108
 C697 C 0.37359 0.83231 0.42209
 C698 C 0.39038 0.80482 0.43348
 C699 C 0.38108 0.77463 0.42304
 O700 O 0.34307 0.74625 0.39132
 C701 C 0.31866 0.75663 0.37365
 C702 C 0.31506 0.78906 0.37319
 C703 C 0.29071 0.80477 0.35636
 C704 C 0.26938 0.78624 0.33916
 C705 C 0.27276 0.75270 0.33915
 C706 C 0.29782 0.73784 0.35681
 H707 H 0.33447 0.85066 0.39267
 H708 H 0.38031 0.85562 0.42984
 H709 H 0.39320 0.75314 0.43131
 H710 H 0.28821 0.83032 0.35649
 H711 H 0.25014 0.79800 0.32609
 H712 H 0.30134 0.71236 0.35701
 C713 C 0.27511 0.86078 0.09897
 C714 C 0.30082 0.84334 0.11004
 C715 C 0.33137 0.84998 0.10068
 C716 C 0.33546 0.87542 0.07880
 C717 C 0.30915 0.89350 0.06682
 C718 C 0.27861 0.88607 0.07745
 O719 O 0.24805 0.85038 0.11006
 C720 C 0.25678 0.82576 0.12854
 C721 C 0.28879 0.82036 0.12947
 C722 C 0.30275 0.79542 0.14716
 C723 C 0.28288 0.77535 0.16460
 C724 C 0.24975 0.78050 0.16391
 C725 C 0.23670 0.80620 0.14556
 H726 H 0.35129 0.83585 0.10952
 H727 H 0.35899 0.88065 0.07081
 H728 H 0.25796 0.89913 0.06872
 H729 H 0.32798 0.79147 0.14746
 H730 H 0.29327 0.75562 0.17824
 H731 H 0.21160 0.81109 0.14479
 C732 C 0.78951 0.42846 0.60440
 C733 C 0.81788 0.42187 0.61946
 C734 C 0.84472 0.43844 0.61224
 C735 C 0.84221 0.46264 0.58841
 C736 C 0.81315 0.46982 0.57247
 C737 C 0.78643 0.45250 0.58093
 O738 O 0.76714 0.40927 0.61372
 C739 C 0.78169 0.39008 0.63512
 C740 C 0.81274 0.39679 0.63964
 C741 C 0.83248 0.37897 0.66034
 C742 C 0.81977 0.35303 0.67675
 C743 C 0.78787 0.34532 0.67212
 C744 C 0.76858 0.36449 0.65118
 H745 H 0.86688 0.43268 0.62421
 H746 H 0.86291 0.47559 0.58228
 H747 H 0.76396 0.45707 0.56908
 H748 H 0.85692 0.38450 0.66332
 H749 H 0.83503 0.33839 0.69225
 H750 H 0.74415 0.35944 0.64716
 C751 C 0.72809 0.14336 0.09939
 C752 C 0.70198 0.15996 0.11094
 C753 C 0.67157 0.15164 0.10316
 C754 C 0.66801 0.12539 0.08230
 C755 C 0.69468 0.10811 0.06977
 C756 C 0.72512 0.11723 0.07883
 O757 O 0.75489 0.15525 0.10920
 C758 C 0.74555 0.17998 0.12732
 C759 C 0.71342 0.18398 0.12924
 C760 C 0.69878 0.20866 0.14685
 C761 C 0.71808 0.22985 0.16334
 C762 C 0.75132 0.22602 0.16186
 C763 C 0.76509 0.20071 0.14338
 H764 H 0.65133 0.16506 0.11248
 H765 H 0.64454 0.11884 0.07557
 H766 H 0.74601 0.10483 0.06959
 H767 H 0.67346 0.21149 0.14789
 H768 H 0.70715 0.24928 0.17708
 H769 H 0.79031 0.19684 0.14206
 C770 C 0.21287 0.57123 0.60295
 C771 C 0.18424 0.57775 0.61772
 C772 C 0.15734 0.56183 0.60938
 C773 C 0.16012 0.53829 0.58484
 C774 C 0.18947 0.53110 0.56927
 C775 C 0.21619 0.54788 0.57872
 O776 O 0.23533 0.58960 0.61358
 C777 C 0.22060 0.60817 0.63554
 C778 C 0.18933 0.60190 0.63914
 C779 C 0.16945 0.61920 0.66034
 C780 C 0.18227 0.64422 0.67815
 C781 C 0.21437 0.65151 0.67435
 C782 C 0.23380 0.63278 0.65301
 H783 H 0.13499 0.56748 0.62113
 H784 H 0.13939 0.52574 0.57798
 H785 H 0.23889 0.54325 0.56727
 H786 H 0.14485 0.61402 0.66261
 H787 H 0.16696 0.65857 0.69399
 H788 H 0.25841 0.63754 0.64963
 C789 C 0.85700 0.73330 0.09781
 C790 C 0.84233 0.70553 0.10438
 C791 C 0.85340 0.67651 0.09176
 C792 C 0.88027 0.67637 0.07122
 C793 C 0.89534 0.70498 0.06383
 C794 C 0.88356 0.73365 0.07790
 O795 O 0.84272 0.75853 0.11109
 C796 C 0.81835 0.74663 0.12643
 C797 C 0.81685 0.71431 0.12331
 C798 C 0.79260 0.69745 0.13733
 C799 C 0.76917 0.71465 0.15517
 C800 C 0.77028 0.74807 0.15821
 C801 C 0.79543 0.76403 0.14371
 H802 H 0.84150 0.65488 0.09704
 H803 H 0.88888 0.65421 0.06057
 H804 H 0.89421 0.75603 0.07283
 H805 H 0.79164 0.67205 0.13451
 H806 H 0.75001 0.70209 0.16612
 H807 H 0.79725 0.78942 0.14595
 C808 C 0.43634 0.20284 0.60057
 C809 C 0.42986 0.17382 0.61383
 C810 C 0.44645 0.14619 0.60487
 C811 C 0.47059 0.14862 0.58126
 C812 C 0.47768 0.17836 0.56722
 C813 C 0.46027 0.20582 0.57733
 O814 O 0.41724 0.22604 0.61139
 C815 C 0.39824 0.21139 0.63193
 C816 C 0.40496 0.17944 0.63447
 C817 C 0.38738 0.15959 0.65414
 C818 C 0.36162 0.17319 0.67152
 C819 C 0.35390 0.20603 0.66875
 C820 C 0.37286 0.22535 0.64891
 H821 H 0.44075 0.12354 0.61535
 H822 H 0.48357 0.12732 0.57381
 H823 H 0.46479 0.22886 0.56702
 H824 H 0.39295 0.13447 0.65563
 H825 H 0.34715 0.15800 0.68627
 H826 H 0.36772 0.25048 0.64635
 C827 C 0.14215 0.26523 0.09867
 C828 C 0.15614 0.29237 0.10887
 C829 C 0.14546 0.32236 0.09896
 C830 C 0.11953 0.32438 0.07747
 C831 C 0.10493 0.29662 0.06632
 C832 C 0.11643 0.26667 0.07746
 O833 O 0.15618 0.23902 0.11018
 C834 C 0.17961 0.24978 0.12800
 C835 C 0.18072 0.28224 0.12809
 C836 C 0.20387 0.29825 0.14484
 C837 C 0.22670 0.28005 0.16216
 C838 C 0.22607 0.24647 0.16230
 C839 C 0.20197 0.23132 0.14496
 H840 H 0.15690 0.34343 0.10712
 H841 H 0.11120 0.34749 0.06912
 H842 H 0.10616 0.24495 0.06929
 H843 H 0.20446 0.32381 0.14442
 H844 H 0.24511 0.29207 0.17498
 H845 H 0.20048 0.20581 0.14484
 C846 C 0.56325 0.79381 0.60269
 C847 C 0.56796 0.82252 0.61753
 C848 C 0.55039 0.84977 0.60951
 C849 C 0.52711 0.84728 0.58516
 C850 C 0.52185 0.81786 0.56948
 C851 C 0.54018 0.79075 0.57867
 O852 O 0.58321 0.77109 0.61276
 C853 C 0.60098 0.78576 0.63438
 C854 C 0.59263 0.81724 0.63833
 C855 C 0.60895 0.83720 0.65897
 C856 C 0.63524 0.82427 0.67575
 C857 C 0.64468 0.79196 0.67153
 C858 C 0.62682 0.77242 0.65090
 H859 H 0.55467 0.87219 0.62129
 H860 H 0.51333 0.86829 0.57847
 H861 H 0.53706 0.76801 0.56703
 H862 H 0.60214 0.86197 0.66149
 H863 H 0.64886 0.83968 0.69105
 H864 H 0.63321 0.74767 0.64722
   
