data_POSCAR
  _audit_creation_date              2014-09-24
  _audit_creation_method            'ToBaCCo'
  _symmetry_space_group_name_H-M    'P1'
  _symmetry_Int_Tables_number       1
  _symmetry_cell_setting            triclinic
  loop_
  _symmetry_equiv_pos_as_xyz
 x,y,z
_cell_length_a 47.9317
_cell_length_b 46.7951
_cell_length_c 40.9362
_cell_angle_alpha 90.008400
_cell_angle_beta 89.933900
_cell_angle_gamma 90.076300
loop_
  _atom_site_label
  _atom_site_type_symbol
  _atom_site_fract_x
  _atom_site_fract_y
  _atom_site_fract_z
C1 C 1.21102 0.25400 0.30357
 H2 H 1.21203 0.23092 0.30278
 C3 C 1.19237 0.26747 0.32477
 H4 H 1.17903 0.25477 0.34048
 C5 C 1.22635 0.29880 0.28312
 H6 H 1.23949 0.31092 0.26676
 C7 C 1.20801 0.31312 0.30397
 H8 H 1.20696 0.33624 0.30347
 N9 N 1.22690 0.26972 0.28262
 C10 C 1.23393 0.21441 0.19759
 H11 H 1.25629 0.21219 0.19501
 C12 C 1.21603 0.20045 0.17583
 H13 H 1.22456 0.18722 0.15655
 C14 C 1.19532 0.23443 0.22570
 H15 H 1.18721 0.24809 0.24467
 C16 C 1.17676 0.22093 0.20451
 H17 H 1.15450 0.22386 0.20768
 Zn18 Zn 1.24810 0.24934 0.25137
 N19 N 1.22333 0.23058 0.22231
 C20 C 1.26710 0.19395 0.26958
 N21 N 1.27028 0.22255 0.27451
 C22 C 1.28791 0.23274 0.29782
 C23 C 1.30349 0.21391 0.31701
 C24 C 1.28227 0.17436 0.28822
 C25 C 1.25640 0.29325 0.20629
 C26 C 1.27114 0.31248 0.18668
 C27 C 1.31418 0.29277 0.20746
 C28 C 1.29862 0.27388 0.22672
 N29 N 1.27023 0.27469 0.22608
 H30 H 1.25244 0.18619 0.25165
 H31 H 1.28961 0.25554 0.30172
 H32 H 1.31741 0.22235 0.33553
 H33 H 1.27944 0.15165 0.28410
 H34 H 1.23383 0.29314 0.20586
 H35 H 1.25993 0.32728 0.17118
 H36 H 1.33676 0.29212 0.20820
 H37 H 1.30924 0.25859 0.24204
 C38 C 1.18718 0.20366 0.17952
 C39 C 1.19050 0.29727 0.32449
 C40 C 1.30030 0.31231 0.18735
 C41 C 1.30060 0.18441 0.31223
 C42 C 0.71226 -0.23238 0.29629
 H43 H 0.71008 -0.25508 0.30062
 C44 C 0.69681 -0.21295 0.31487
 H45 H 0.68249 -0.22069 0.33336
 C46 C 0.73426 -0.19443 0.26774
 H47 H 0.74937 -0.18722 0.24999
 C48 C 0.71923 -0.17429 0.28577
 H49 H 0.72253 -0.15169 0.28147
 N50 N 0.73044 -0.22289 0.27314
 C51 C 0.74474 -0.29514 0.20718
 H52 H 0.76731 -0.29521 0.20720
 C53 C 0.73016 -0.31482 0.18804
 H54 H 0.74150 -0.33014 0.17330
 C55 C 0.70235 -0.27495 0.22618
 H56 H 0.69161 -0.25920 0.24079
 C57 C 0.68695 -0.29428 0.20735
 H58 H 0.66436 -0.29349 0.20770
 Zn59 Zn 0.75265 -0.25043 0.25124
 N60 N 0.73073 -0.27598 0.22608
 C61 C 0.77266 -0.29954 0.28495
 N62 N 0.77282 -0.27049 0.28355
 C63 C 0.78857 -0.25464 0.30447
 C64 C 0.80642 -0.26803 0.32659
 C65 C 0.79018 -0.31379 0.30675
 C66 C 0.76835 -0.21660 0.19721
 C67 C 0.78685 -0.20291 0.17590
 C68 C 0.82530 -0.22331 0.20605
 C69 C 0.80615 -0.23654 0.22677
 N70 N 0.77826 -0.23254 0.22247
 H71 H 0.75961 -0.31174 0.26860
 H72 H 0.78810 -0.23157 0.30295
 H73 H 0.81972 -0.25529 0.34226
 H74 H 0.79072 -0.33693 0.30696
 H75 H 0.74608 -0.21424 0.19394
 H76 H 0.77888 -0.18975 0.15627
 H77 H 0.84746 -0.22624 0.21002
 H78 H 0.81371 -0.25004 0.24619
 C79 C 0.70100 -0.31448 0.18824
 C80 C 0.70042 -0.18364 0.30963
 C81 C 0.81558 -0.20619 0.18057
 C82 C 0.80758 -0.29786 0.32727
 C83 C 0.71311 0.26819 -0.20458
 H84 H 0.71106 0.24549 -0.20021
 C85 C 0.69752 0.28755 -0.18605
 H86 H 0.68324 0.27974 -0.16755
 C87 C 0.73482 0.30624 -0.23326
 H88 H 0.74984 0.31352 -0.25107
 C89 C 0.71964 0.32631 -0.21526
 H90 H 0.72275 0.34892 -0.21966
 N91 N 0.73120 0.27776 -0.22780
 C92 C 0.74501 0.20551 -0.29407
 H93 H 0.76758 0.20533 -0.29428
 C94 C 0.73020 0.18586 -0.31303
 H95 H 0.74136 0.17046 -0.32785
 C96 C 0.70285 0.22590 -0.27468
 H97 H 0.69227 0.24170 -0.25998
 C98 C 0.68722 0.20660 -0.29331
 H99 H 0.66465 0.20749 -0.29271
 Zn100 Zn 0.75337 0.25027 -0.24998
 N101 N 0.73123 0.22476 -0.27505
 C102 C 0.77358 0.20102 -0.21654
 N103 N 0.77372 0.23009 -0.21784
 C104 C 0.78954 0.24587 -0.19692
 C105 C 0.80742 0.23241 -0.17488
 C106 C 0.79115 0.18672 -0.19483
 C107 C 0.76887 0.28434 -0.30399
 C108 C 0.78727 0.29824 -0.32527
 C109 C 0.82587 0.27774 -0.29541
 C110 C 0.80678 0.26433 -0.27474
 N111 N 0.77887 0.26829 -0.27888
 H112 H 0.76048 0.18886 -0.23287
 H113 H 0.78905 0.26895 -0.19833
 H114 H 0.82074 0.24511 -0.15918
 H115 H 0.79167 0.16357 -0.19468
 H116 H 0.74658 0.28667 -0.30715
 H117 H 0.77907 0.31145 -0.34477
 H118 H 0.84804 0.27472 -0.29144
 H119 H 0.81442 0.25074 -0.25544
 C120 C 0.70104 0.18630 -0.31252
 C121 C 0.70088 0.31688 -0.19139
 C122 C 0.81607 0.29507 -0.32073
 C123 C 0.80859 0.20258 -0.17428
 C124 C 1.21047 -0.24573 -0.19814
 H125 H 1.21157 -0.26881 -0.19913
 C126 C 1.19181 -0.23247 -0.17682
 H127 H 1.17851 -0.24531 -0.16122
 C128 C 1.22567 -0.20075 -0.21822
 H129 H 1.23877 -0.18848 -0.23449
 C130 C 1.20729 -0.18663 -0.19724
 H131 H 1.20617 -0.16351 -0.19755
 N132 N 1.22629 -0.22981 -0.21896
 C133 C 1.23375 -0.28477 -0.30410
 H134 H 1.25612 -0.28690 -0.30658
 C135 C 1.21598 -0.29874 -0.32597
 H136 H 1.22461 -0.31191 -0.34525
 C137 C 1.19496 -0.26497 -0.27610
 H138 H 1.18674 -0.25138 -0.25712
 C139 C 1.17653 -0.27848 -0.29741
 H140 H 1.15425 -0.27566 -0.29433
 Zn141 Zn 1.24758 -0.24995 -0.25023
 N142 N 1.22299 -0.26872 -0.27938
 C143 C 1.26654 -0.30527 -0.23194
 N144 N 1.26976 -0.27666 -0.22711
 C145 C 1.28726 -0.26642 -0.20370
 C146 C 1.30260 -0.28521 -0.18423
 C147 C 1.28149 -0.32480 -0.21301
 C148 C 1.25561 -0.20596 -0.29507
 C149 C 1.27022 -0.18666 -0.31469
 C150 C 1.31340 -0.20618 -0.29405
 C151 C 1.29796 -0.22515 -0.27476
 N152 N 1.26957 -0.22447 -0.27536
 H153 H 1.25195 -0.31307 -0.24994
 H154 H 1.28895 -0.24361 -0.19986
 H155 H 1.31638 -0.27688 -0.16555
 H156 H 1.27868 -0.34752 -0.21686
 H157 H 1.23304 -0.20619 -0.29545
 H158 H 1.25892 -0.17190 -0.33016
 H159 H 1.33599 -0.20674 -0.29338
 H160 H 1.30867 -0.24042 -0.25949
 C161 C 1.18711 -0.29565 -0.32239
 C162 C 1.18985 -0.20268 -0.17686
 C163 C 1.29938 -0.18672 -0.31411
 C164 C 1.29960 -0.31467 -0.18887
 C165 C 0.25494 0.20550 0.70594
 H166 H 0.23237 0.20537 0.70607
 C167 C 0.26948 0.18625 0.68619
 H168 H 0.25810 0.17119 0.67113
 C169 C 0.29737 0.22543 0.72520
 H170 H 0.30814 0.24093 0.74015
 C171 C 0.31273 0.20653 0.70578
 H172 H 0.33532 0.20737 0.70603
 N173 N 0.26898 0.22433 0.72523
 C174 C 0.21133 0.24448 0.80431
 H175 H 0.21195 0.26757 0.80327
 C176 C 0.19355 0.23083 0.82638
 H177 H 0.18046 0.24345 0.84245
 C178 C 0.22689 0.19983 0.78376
 H179 H 0.23981 0.18785 0.76706
 C180 C 0.20941 0.18531 0.80547
 H181 H 0.20883 0.16215 0.80520
 Zn182 Zn 0.24714 0.24946 0.75101
 N183 N 0.22689 0.22890 0.78295
 C184 C 0.19370 0.26375 0.72691
 N185 N 0.22161 0.26787 0.72269
 C186 C 0.23157 0.28416 0.69771
 C187 C 0.21312 0.29802 0.67656
 C188 C 0.17461 0.27714 0.70635
 C189 C 0.28753 0.26654 0.79646
 C190 C 0.30302 0.28555 0.81555
 C191 C 0.28093 0.32484 0.78740
 C192 C 0.26585 0.30510 0.76882
 N193 N 0.26947 0.27654 0.77352
 H194 H 0.18610 0.24999 0.74611
 H195 H 0.25385 0.28661 0.69448
 H196 H 0.22115 0.31138 0.65709
 H197 H 0.15244 0.27404 0.71020
 H198 H 0.28956 0.24376 0.80022
 H199 H 0.31723 0.27741 0.83387
 H200 H 0.27778 0.34753 0.78366
 H201 H 0.25084 0.31270 0.75121
 C202 C 0.19221 0.20097 0.82652
 C203 C 0.29864 0.18669 0.68621
 C204 C 0.29960 0.31497 0.81106
 C205 C 0.18438 0.29458 0.68114
 C206 C 0.76561 0.71640 0.69485
 H207 H 0.74323 0.71431 0.69230
 C208 C 0.78340 0.70252 0.67289
 H209 H 0.77477 0.68951 0.65348
 C210 C 0.80438 0.73582 0.72319
 H211 H 0.81259 0.74918 0.74239
 C212 C 0.82283 0.72241 0.70181
 H213 H 0.84512 0.72509 0.70503
 N214 N 0.77634 0.73217 0.71982
 C215 C 0.71191 0.73258 0.79574
 H216 H 0.71019 0.75528 0.80030
 C217 C 0.69640 0.71327 0.81447
 H218 H 0.68250 0.72119 0.83331
 C219 C 0.73275 0.69450 0.76635
 H220 H 0.74742 0.68717 0.74817
 C221 C 0.71764 0.67446 0.78451
 H222 H 0.72049 0.65185 0.77983
 Zn223 Zn 0.75168 0.75033 0.74955
 N224 N 0.72953 0.72298 0.77207
 C225 C 0.70115 0.77566 0.72623
 N226 N 0.72954 0.77626 0.72519
 C227 C 0.74339 0.79529 0.70591
 C228 C 0.72868 0.81525 0.68735
 C229 C 0.68562 0.79529 0.70801
 C230 C 0.78906 0.75411 0.80160
 C231 C 0.80758 0.76732 0.82317
 C232 C 0.79137 0.81323 0.80396
 C233 C 0.77317 0.79917 0.78271
 N234 N 0.77296 0.77011 0.78125
 H235 H 0.69050 0.76004 0.74114
 H236 H 0.76595 0.79504 0.70517
 H237 H 0.73991 0.83047 0.67232
 H238 H 0.66304 0.79484 0.70913
 H239 H 0.78829 0.73104 0.80009
 H240 H 0.82108 0.75445 0.83841
 H241 H 0.79212 0.83637 0.80423
 H242 H 0.75984 0.81151 0.76686
 C243 C 0.69934 0.68391 0.80886
 C244 C 0.81228 0.70542 0.67663
 C245 C 0.80908 0.79715 0.82390
 C246 C 0.69953 0.81536 0.68853
 C247 C 0.76679 0.21677 0.19410
 H248 H 0.74443 0.21461 0.19150
 C249 C 0.78466 0.20301 0.17216
 H250 H 0.77611 0.19000 0.15269
 C251 C 0.80544 0.23628 0.22260
 H252 H 0.81357 0.24963 0.24185
 C253 C 0.82398 0.22298 0.20123
 H254 H 0.84625 0.22573 0.20451
 N255 N 0.77743 0.23251 0.21915
 C256 C 0.71287 0.23274 0.29473
 H257 H 0.71108 0.25545 0.29925
 C258 C 0.69746 0.21341 0.31352
 H259 H 0.68356 0.22122 0.33238
 C260 C 0.73385 0.19468 0.26541
 H261 H 0.74855 0.18738 0.24726
 C262 C 0.71884 0.17463 0.28365
 H263 H 0.72173 0.15202 0.27912
 Zn264 Zn 0.75268 0.25054 0.24877
 N265 N 0.73052 0.22316 0.27109
 C266 C 0.70226 0.27569 0.22508
 N267 N 0.73065 0.27645 0.22437
 C268 C 0.74458 0.29551 0.20522
 C269 C 0.72994 0.31530 0.18636
 C270 C 0.68680 0.29514 0.20656
 C271 C 0.78979 0.25407 0.30095
 C272 C 0.80830 0.26714 0.32260
 C273 C 0.79228 0.31317 0.30352
 C274 C 0.77408 0.29924 0.28219
 N275 N 0.77380 0.27019 0.28062
 H276 H 0.69157 0.26002 0.23989
 H277 H 0.76715 0.29535 0.20474
 H278 H 0.74123 0.33048 0.17135
 H279 H 0.66421 0.29452 0.20732
 H280 H 0.78895 0.23100 0.29933
 H281 H 0.82175 0.25417 0.33781
 H282 H 0.79314 0.33631 0.30387
 H283 H 0.76083 0.31167 0.26633
 C284 C 0.70056 0.18408 0.30799
 C285 C 0.81351 0.20602 0.17599
 C286 C 0.80991 0.29695 0.32341
 C287 C 0.70079 0.31518 0.18712
 C288 C 0.25609 0.70692 0.20647
 H289 H 0.23352 0.70675 0.20653
 C290 C 0.27071 0.68761 0.18686
 H291 H 0.25939 0.67248 0.17184
 C292 C 0.29845 0.72693 0.22583
 H293 H 0.30917 0.74246 0.24078
 C294 C 0.31388 0.70798 0.20654
 H295 H 0.33647 0.70882 0.20691
 N296 N 0.27006 0.72580 0.22578
 C297 C 0.21237 0.74558 0.30508
 H298 H 0.21296 0.76868 0.30418
 C299 C 0.19460 0.73180 0.32707
 H300 H 0.18148 0.74426 0.34323
 C301 C 0.22793 0.70105 0.28424
 H302 H 0.24084 0.68914 0.26745
 C303 C 0.21046 0.68641 0.30587
 H304 H 0.20983 0.66327 0.30550
 Zn305 Zn 0.24816 0.75086 0.25170
 N306 N 0.22795 0.73013 0.28361
 C307 C 0.19462 0.76507 0.22780
 N308 N 0.22250 0.76931 0.22349
 C309 C 0.23232 0.78577 0.19857
 C310 C 0.21374 0.79965 0.17758
 C311 C 0.17540 0.77848 0.20740
 C312 C 0.28863 0.76791 0.29714
 C313 C 0.30427 0.78687 0.31615
 C314 C 0.28217 0.82624 0.28806
 C315 C 0.26695 0.80652 0.26959
 N316 N 0.27052 0.77794 0.27429
 H317 H 0.18712 0.75119 0.24694
 H318 H 0.25458 0.78832 0.19525
 H319 H 0.22166 0.81312 0.15814
 H320 H 0.15326 0.77525 0.21131
 H321 H 0.29062 0.74512 0.30089
 H322 H 0.31853 0.77855 0.33434
 H323 H 0.27900 0.84893 0.28418
 H324 H 0.25191 0.81414 0.25204
 C325 C 0.19329 0.70196 0.32702
 C326 C 0.29987 0.68804 0.18703
 C327 C 0.30096 0.81635 0.31165
 C328 C 0.18502 0.79608 0.18224
 O329 O 1.04913 -0.04020 0.05838
 O330 O 1.02374 -0.07204 0.02765
 C331 C 1.04211 -0.06587 0.04978
 O332 O 0.94904 0.03954 0.05576
 O333 O 0.97552 0.07123 0.02613
 C334 C 0.95592 0.06514 0.04681
 O335 O 0.95172 -0.04002 0.05934
 O336 O 0.97637 -0.07190 0.02795
 C337 C 0.95831 -0.06570 0.05041
 O338 O 1.05180 0.03945 0.05529
 O339 O 1.02467 0.07127 0.02673
 C340 C 1.04456 0.06511 0.04699
 Zr341 Zr 1.03590 -0.00040 0.03965
 O342 O 1.03937 -0.00082 0.09121
 O343 O 1.07975 -0.00111 0.03440
 Zr344 Zr 0.96566 -0.00023 0.04106
 O345 O 0.96793 0.00269 0.09260
 O346 O 0.92165 -0.00311 0.04374
 O347 O 1.00074 -0.02588 0.04688
 O348 O 1.00083 0.02479 0.04629
 O349 O 1.05191 0.03889 -0.05733
 O350 O 1.02541 0.07091 -0.02821
 C351 C 1.04510 0.06460 -0.04870
 O352 O 0.95025 -0.04034 -0.05891
 O353 O 0.97593 -0.07209 -0.02848
 C354 C 0.95725 -0.06599 -0.05024
 O355 O 0.94829 0.03948 -0.05622
 O356 O 0.97611 0.07131 -0.02851
 C357 C 0.95586 0.06515 -0.04826
 O358 O 1.04852 -0.04071 -0.06046
 O359 O 1.02322 -0.07229 -0.02921
 C360 C 1.04148 -0.06631 -0.05156
 Zr361 Zr 1.03479 -0.00069 -0.04263
 O362 O 1.03256 0.00247 -0.09417
 O363 O 1.07881 -0.00354 -0.04485
 Zr364 Zr 0.96470 -0.00041 -0.04152
 O365 O 0.96578 0.00271 -0.09312
 O366 O 0.92064 -0.00342 -0.04244
 Zr367 Zr 1.00004 -0.04325 -0.00065
 Zr368 Zr 1.00033 0.04248 -0.00093
 O369 O 0.99983 0.02456 -0.04809
 O370 O 0.99956 -0.02630 -0.04840
 O371 O 1.04085 0.02498 -0.00159
 O372 O 0.95988 -0.02504 -0.00005
 O373 O 1.04038 -0.02551 -0.00140
 O374 O 0.95969 0.02509 -0.00024
 H375 H 1.00071 0.03806 0.06514
 H376 H 0.94317 -0.03752 0.00029
 H377 H 0.99986 0.03764 -0.06713
 H378 H 1.05687 -0.03827 -0.00152
 H379 H 0.91401 0.01008 0.02718
 H380 H 0.91323 0.01145 -0.02763
 H381 H 0.97498 -0.01468 -0.10160
 H382 H 1.02330 -0.01502 -0.10238
 H383 H 1.08623 0.00796 -0.02653
 H384 H 1.08747 -0.00183 0.05683
 H385 H 1.02383 0.01055 0.10025
 H386 H 0.97961 -0.01337 0.10032
 O387 O 0.95097 0.45923 0.44044
 O388 O 0.97584 0.42756 0.47187
 C389 C 0.95770 0.43361 0.44948
 O390 O 1.05171 0.53880 0.44387
 O391 O 1.02497 0.57076 0.47271
 C392 C 1.04484 0.56449 0.45246
 O393 O 1.04840 0.45924 0.44058
 O394 O 1.02319 0.42753 0.47177
 C395 C 1.04152 0.43360 0.44952
 O396 O 0.94836 0.53896 0.44334
 O397 O 0.97508 0.57082 0.47242
 C398 C 0.95537 0.56462 0.45197
 Zr399 Zr 0.96469 0.49917 0.45851
 O400 O 0.96453 0.49763 0.40673
 O401 O 0.92064 0.49845 0.46093
 Zr402 Zr 1.03470 0.49916 0.45861
 O403 O 1.03305 0.50194 0.40702
 O404 O 1.07872 0.49587 0.45694
 O405 O 0.99968 0.47347 0.45237
 O406 O 0.99981 0.52441 0.45255
 O407 O 0.94736 0.53910 0.55504
 O408 O 0.97473 0.57091 0.52660
 C409 C 0.95463 0.56475 0.54664
 O410 O 1.04860 0.45944 0.55905
 O411 O 1.02326 0.42764 0.52823
 C412 C 1.04166 0.43378 0.55032
 O413 O 1.05141 0.53906 0.55571
 O414 O 1.02460 0.57090 0.52683
 C415 C 1.04440 0.56471 0.54714
 O416 O 0.95005 0.45956 0.55875
 O417 O 0.97562 0.42771 0.52826
 C418 C 0.95704 0.43388 0.55019
 Zr419 Zr 0.96447 0.49938 0.54100
 O420 O 0.96612 0.50278 0.59257
 O421 O 0.92041 0.49703 0.54239
 Zr422 Zr 1.03443 0.49932 0.54137
 O423 O 1.03191 0.50275 0.59289
 O424 O 1.07840 0.49625 0.54411
 Zr425 Zr 0.99957 0.45645 0.50002
 Zr426 Zr 0.99979 0.54220 0.49972
 O427 O 0.99948 0.52460 0.54702
 O428 O 0.99938 0.47357 0.54768
 O429 O 0.95924 0.52470 0.49962
 O430 O 1.03980 0.47456 0.50004
 O431 O 0.95938 0.47444 0.49978
 O432 O 1.04026 0.52454 0.49993
 H433 H 1.00012 0.53775 0.43378
 H434 H 1.05643 0.46201 0.50001
 H435 H 0.99939 0.53786 0.56589
 H436 H 0.94272 0.46188 0.49972
 H437 H 1.08635 0.50999 0.47253
 H438 H 1.08617 0.50914 0.52727
 H439 H 1.02359 0.48484 0.60131
 H440 H 0.97501 0.48521 0.60105
 H441 H 0.91351 0.50689 0.52261
 H442 H 0.91393 0.49786 0.43804
 H443 H 0.97321 0.51531 0.39823
 H444 H 1.01999 0.48699 0.39932
 O445 O 0.53816 0.05088 0.55888
 O446 O 0.56958 0.02569 0.52773
 C447 C 0.56333 0.04409 0.55029
 O448 O 0.46071 -0.05156 0.55593
 O449 O 0.42969 -0.02495 0.52593
 C450 C 0.43568 -0.04468 0.54704
 O451 O 0.53824 -0.04855 0.55972
 O452 O 0.56961 -0.02348 0.52830
 C453 C 0.56339 -0.04169 0.55109
 O454 O 0.46051 0.05306 0.55556
 O455 O 0.42956 0.02544 0.52649
 C456 C 0.43548 0.04555 0.54720
 Zr457 Zr 0.49948 0.03714 0.53970
 O458 O 0.49971 0.04070 0.59128
 O459 O 0.50007 0.08206 0.53445
 Zr460 Zr 0.49954 -0.03473 0.54080
 O461 O 0.49653 -0.03301 0.59237
 O462 O 0.50265 -0.07984 0.54225
 O463 O 0.52449 0.00131 0.54688
 O464 O 0.47498 0.00112 0.54604
 O465 O 0.46143 0.05308 0.44197
 O466 O 0.43005 0.02599 0.47111
 C467 C 0.43628 0.04588 0.45024
 O468 O 0.53912 -0.04982 0.44058
 O469 O 0.57003 -0.02407 0.47183
 C470 C 0.56414 -0.04272 0.44941
 O471 O 0.46136 -0.05232 0.44269
 O472 O 0.42996 -0.02451 0.47078
 C473 C 0.43619 -0.04480 0.45045
 O474 O 0.53911 0.05040 0.43949
 O475 O 0.57003 0.02511 0.47111
 C476 C 0.56413 0.04345 0.44838
 Zr477 Zr 0.50010 0.03623 0.45748
 O478 O 0.49731 0.03454 0.40587
 O479 O 0.50266 0.08137 0.45624
 Zr480 Zr 0.50010 -0.03556 0.45831
 O481 O 0.49735 -0.03499 0.40667
 O482 O 0.50315 -0.08069 0.45819
 Zr483 Zr 0.54175 0.00080 0.49946
 Zr484 Zr 0.45782 0.00058 0.49877
 O485 O 0.47564 0.00027 0.45175
 O486 O 0.52528 0.00032 0.45168
 O487 O 0.47478 0.04219 0.49838
 O488 O 0.52405 -0.04041 0.49983
 O489 O 0.52418 0.04199 0.49880
 O490 O 0.47493 -0.04093 0.49940
 H491 H 0.46206 0.00092 0.56493
 H492 H 0.53636 -0.05740 0.50018
 H493 H 0.46313 0.00021 0.43250
 H494 H 0.53658 0.05895 0.49876
 H495 H 0.48828 -0.08764 0.52742
 H496 H 0.48802 -0.08819 0.47222
 H497 H 0.51384 -0.02462 0.39824
 H498 H 0.51402 0.02443 0.39767
 H499 H 0.49012 0.08871 0.47352
 H500 H 0.50053 0.08999 0.55689
 H501 H 0.48858 0.02475 0.60027
 H502 H 0.51154 -0.02020 0.60025
 O503 O 0.53921 0.55032 0.05918
 O504 O 0.57022 0.52536 0.02724
 C505 C 0.56426 0.54359 0.05009
 O506 O 0.46176 0.44787 0.05674
 O507 O 0.43034 0.47474 0.02764
 C508 C 0.43660 0.45482 0.04841
 O509 O 0.53932 0.45093 0.05904
 O510 O 0.57027 0.47624 0.02730
 C511 C 0.56434 0.45783 0.04997
 O512 O 0.46153 0.55271 0.05713
 O513 O 0.43021 0.52574 0.02781
 C514 C 0.43639 0.54556 0.04880
 Zr515 Zr 0.50028 0.53674 0.04059
 O516 O 0.50123 0.53979 0.09220
 O517 O 0.50085 0.58170 0.03583
 Zr518 Zr 0.50036 0.46488 0.04102
 O519 O 0.49805 0.46636 0.09265
 O520 O 0.50350 0.41976 0.04212
 O521 O 0.52539 0.50088 0.04695
 O522 O 0.47583 0.50068 0.04706
 O523 O 0.46090 0.55323 -0.05630
 O524 O 0.42992 0.52582 -0.02691
 C525 C 0.43587 0.54586 -0.04771
 O526 O 0.53868 0.45044 -0.06000
 O527 O 0.56997 0.47607 -0.02915
 C528 C 0.56382 0.45749 -0.05156
 O529 O 0.46095 0.44793 -0.05651
 O530 O 0.42991 0.47549 -0.02755
 C531 C 0.43590 0.45535 -0.04819
 O532 O 0.53856 0.55079 -0.06023
 O533 O 0.56991 0.52525 -0.02946
 C534 C 0.56371 0.54378 -0.05188
 Zr535 Zr 0.49981 0.53642 -0.04165
 O536 O 0.49637 0.53516 -0.09321
 O537 O 0.50228 0.58157 -0.04241
 Zr538 Zr 0.49987 0.46469 -0.04158
 O539 O 0.49643 0.46597 -0.09314
 O540 O 0.50291 0.41957 -0.04258
 Zr541 Zr 0.54203 0.50071 -0.00078
 Zr542 Zr 0.45812 0.50041 0.00012
 O543 O 0.47529 0.50050 -0.04725
 O544 O 0.52497 0.50060 -0.04827
 O545 O 0.47505 0.54202 -0.00024
 O546 O 0.52431 0.45951 -0.00048
 O547 O 0.52444 0.54189 -0.00072
 O548 O 0.47527 0.45893 -0.00002
 H549 H 0.46304 0.50043 0.06608
 H550 H 0.53661 0.44251 -0.00052
 H551 H 0.46253 0.50054 -0.06628
 H552 H 0.53683 0.55886 -0.00082
 H553 H 0.48901 0.41205 0.02737
 H554 H 0.48840 0.41193 -0.02777
 H555 H 0.51313 0.47589 -0.10176
 H556 H 0.51290 0.52500 -0.10180
 H557 H 0.48989 0.58874 -0.02489
 H558 H 0.50164 0.58944 0.05834
 H559 H 0.48963 0.52421 0.10122
 H560 H 0.51311 0.47920 0.10032
 C561 C 1.16808 0.18876 0.15850
 C562 C 1.15147 0.17605 0.14186
 C563 C 1.13125 0.16036 0.12313
 C564 C 1.10448 0.15581 0.13591
 C565 C 1.08538 0.13872 0.11903
 C566 C 1.09297 0.12618 0.08926
 C567 C 1.11952 0.13129 0.07610
 C568 C 1.13863 0.14837 0.09300
 C569 C 1.07458 0.10608 0.07371
 C570 C 1.06016 0.08804 0.06124
 H571 H 1.09861 0.16490 0.15927
 H572 H 1.06501 0.13468 0.12958
 H573 H 1.12569 0.12146 0.05324
 H574 H 1.15932 0.15166 0.08298
 C575 C 1.16813 0.68935 0.65656
 C576 C 1.15158 0.67653 0.64000
 C577 C 1.13136 0.66068 0.62148
 C578 C 1.10467 0.65610 0.63448
 C579 C 1.08559 0.63880 0.61789
 C580 C 1.09312 0.62609 0.58821
 C581 C 1.11957 0.63123 0.57480
 C582 C 1.13867 0.64853 0.59142
 C583 C 1.07476 0.60578 0.57304
 C584 C 1.06027 0.58763 0.56094
 H585 H 1.09888 0.66531 0.65781
 H586 H 1.06529 0.63474 0.62861
 H587 H 1.12567 0.62127 0.55200
 H588 H 1.15930 0.65185 0.58124
 C589 C 0.68538 0.16597 0.66839
 C590 C 0.67219 0.14895 0.65248
 C591 C 0.65614 0.12879 0.63360
 C592 C 0.64711 0.10311 0.64776
 C593 C 0.63030 0.08424 0.62996
 C594 C 0.62247 0.09092 0.59788
 C595 C 0.63190 0.11636 0.58354
 C596 C 0.64871 0.13523 0.60134
 C597 C 0.60298 0.07295 0.58062
 C598 C 0.58555 0.05901 0.56651
 H599 H 0.65267 0.09793 0.67271
 H600 H 0.62292 0.06477 0.64142
 H601 H 0.62578 0.12190 0.55887
 H602 H 0.65549 0.15504 0.59015
 C603 C 0.68560 0.66520 0.16891
 C604 C 0.67267 0.64817 0.15276
 C605 C 0.65691 0.62801 0.13358
 C606 C 0.64874 0.60179 0.14714
 C607 C 0.63211 0.58292 0.12912
 C608 C 0.62363 0.59014 0.09743
 C609 C 0.63225 0.61612 0.08366
 C610 C 0.64887 0.63499 0.10167
 C611 C 0.60416 0.57222 0.08014
 C612 C 0.58665 0.55836 0.06610
 H613 H 0.65478 0.59620 0.17182
 H614 H 0.62535 0.56303 0.14015
 H615 H 0.62559 0.62207 0.05931
 H616 H 0.65499 0.65522 0.09096
 C617 C 0.83521 -0.19128 0.16020
 C618 C 0.85205 -0.17837 0.14406
 C619 C 0.87228 -0.16224 0.12580
 C620 C 0.89940 -0.15888 0.13800
 C621 C 0.91844 -0.14121 0.12176
 C622 C 0.91045 -0.12697 0.09319
 C623 C 0.88351 -0.13081 0.08063
 C624 C 0.86447 -0.14845 0.09688
 C625 C 0.92892 -0.10669 0.07806
 C626 C 0.94319 -0.08859 0.06546
 H627 H 0.90560 -0.16938 0.16044
 H628 H 0.93910 -0.13810 0.13189
 H629 H 0.87700 -0.11960 0.05878
 H630 H 0.84352 -0.15082 0.08732
 C631 C 0.83382 0.30882 0.66079
 C632 C 0.85056 0.32178 0.64452
 C633 C 0.87076 0.33783 0.62609
 C634 C 0.89806 0.34081 0.63787
 C635 C 0.91717 0.35822 0.62135
 C636 C 0.90904 0.37265 0.59295
 C637 C 0.88193 0.36915 0.58078
 C638 C 0.86283 0.35178 0.59731
 C639 C 0.92756 0.39285 0.57771
 C640 C 0.94186 0.41094 0.56511
 H641 H 0.90436 0.33021 0.66020
 H642 H 0.93800 0.36096 0.63112
 H643 H 0.87536 0.38042 0.55899
 H644 H 0.84174 0.34974 0.58808
 C645 C 0.31479 -0.16692 0.66586
 C646 C 0.32772 -0.15033 0.64911
 C647 C 0.34345 -0.13065 0.62926
 C648 C 0.34617 -0.10201 0.63877
 C649 C 0.36273 -0.08329 0.62041
 C650 C 0.37658 -0.09312 0.59243
 C651 C 0.37342 -0.12163 0.58259
 C652 C 0.35688 -0.14034 0.60094
 C653 C 0.39590 -0.07481 0.57541
 C654 C 0.41332 -0.06041 0.56193
 H655 H 0.33593 -0.09430 0.66066
 H656 H 0.36524 -0.06137 0.62843
 H657 H 0.38426 -0.12955 0.56119
 H658 H 0.35499 -0.16245 0.59340
 C659 C 0.31587 0.33208 0.16739
 C660 C 0.32892 0.34866 0.15072
 C661 C 0.34480 0.36833 0.13097
 C662 C 0.35880 0.35853 0.10308
 C663 C 0.37536 0.37728 0.08478
 C664 C 0.37799 0.40595 0.09423
 C665 C 0.36360 0.41587 0.12181
 C666 C 0.34702 0.39712 0.14011
 C667 C 0.39717 0.42441 0.07716
 C668 C 0.41444 0.43894 0.06355
 H669 H 0.35730 0.33632 0.09581
 H670 H 0.38659 0.36928 0.06369
 H671 H 0.36567 0.43792 0.12953
 H672 H 0.33634 0.40493 0.16166
 C673 C 0.82885 0.18827 -0.15429
 C674 C 0.84628 0.17590 -0.13854
 C675 C 0.86732 0.16045 -0.12087
 C676 C 0.89287 0.15427 -0.13596
 C677 C 0.91252 0.13723 -0.12000
 C678 C 0.90673 0.12636 -0.08885
 C679 C 0.88147 0.13313 -0.07341
 C680 C 0.86179 0.15016 -0.08939
 C681 C 0.92543 0.10619 -0.07403
 C682 C 0.94006 0.08810 -0.06207
 H683 H 0.89729 0.16203 -0.16036
 H684 H 0.93186 0.13190 -0.13228
 H685 H 0.87667 0.12459 -0.04945
 H686 H 0.84206 0.15472 -0.07757
 C687 C 0.82789 0.68788 0.34723
 C688 C 0.84539 0.67554 0.36287
 C689 C 0.86651 0.66009 0.38037
 C690 C 0.89210 0.65423 0.36520
 C691 C 0.91183 0.63713 0.38093
 C692 C 0.90606 0.62588 0.41190
 C693 C 0.88076 0.63234 0.42743
 C694 C 0.86101 0.64943 0.41168
 C695 C 0.92482 0.60565 0.42645
 C696 C 0.93949 0.58753 0.43823
 H697 H 0.89648 0.66226 0.34090
 H698 H 0.93121 0.63204 0.36859
 H699 H 0.87600 0.62352 0.45127
 H700 H 0.84124 0.65372 0.42354
 C701 C 0.31469 0.16640 0.33027
 C702 C 0.32775 0.14984 0.34690
 C703 C 0.34367 0.13026 0.36662
 C704 C 0.35005 0.10293 0.35475
 C705 C 0.36679 0.08449 0.37316
 C706 C 0.37718 0.09325 0.40355
 C707 C 0.37037 0.12038 0.41567
 C708 C 0.35364 0.13882 0.39727
 C709 C 0.39663 0.07546 0.42101
 C710 C 0.41405 0.06138 0.43487
 H711 H 0.34252 0.09610 0.33106
 H712 H 0.37212 0.06368 0.36339
 H713 H 0.37849 0.12750 0.43898
 H714 H 0.34891 0.15991 0.40666
 C715 C 0.31473 0.66556 -0.16860
 C716 C 0.32750 0.64907 -0.15163
 C717 C 0.34312 0.62957 -0.13153
 C718 C 0.34914 0.60200 -0.14288
 C719 C 0.36575 0.58366 -0.12420
 C720 C 0.37636 0.59279 -0.09407
 C721 C 0.36986 0.62015 -0.08242
 C722 C 0.35326 0.63848 -0.10109
 C723 C 0.39588 0.57517 -0.07654
 C724 C 0.41343 0.56123 -0.06277
 H725 H 0.34147 0.59490 -0.16641
 H726 H 0.37087 0.56267 -0.13361
 H727 H 0.37818 0.62754 -0.05931
 H728 H 0.34880 0.65978 -0.09211
 C729 C 1.16882 -0.18867 -0.15766
 C730 C 1.15081 -0.17655 -0.14253
 C731 C 1.12921 -0.16139 -0.12545
 C732 C 1.13272 -0.15396 -0.09258
 C733 C 1.11272 -0.13712 -0.07687
 C734 C 1.08915 -0.12772 -0.09396
 C735 C 1.08529 -0.13575 -0.12659
 C736 C 1.10527 -0.15261 -0.14230
 C737 C 1.07056 -0.10752 -0.07900
 C738 C 1.05635 -0.08936 -0.06651
 H739 H 1.15121 -0.16053 -0.07939
 H740 H 1.11605 -0.13072 -0.05173
 H741 H 1.06730 -0.12830 -0.14013
 H742 H 1.10244 -0.15815 -0.16778
 C743 C 1.16950 0.31148 0.34359
 C744 C 1.15152 0.32370 0.35867
 C745 C 1.12993 0.33893 0.37573
 C746 C 1.13361 0.34674 0.40847
 C747 C 1.11354 0.36350 0.42419
 C748 C 1.08972 0.37248 0.40724
 C749 C 1.08572 0.36408 0.37474
 C750 C 1.10577 0.34731 0.35903
 C751 C 1.07097 0.39255 0.42220
 C752 C 1.05660 0.41062 0.43465
 H753 H 1.15226 0.34048 0.42155
 H754 H 1.11698 0.37014 0.44923
 H755 H 1.06753 0.37116 0.36131
 H756 H 1.10279 0.34147 0.33366
 C757 C 0.68525 -0.16323 0.32908
 C758 C 0.67246 -0.14627 0.34547
 C759 C 0.65683 -0.12633 0.36505
 C760 C 0.64820 -0.13400 0.39657
 C761 C 0.63162 -0.11536 0.41492
 C762 C 0.62363 -0.08893 0.40188
 C763 C 0.63272 -0.08101 0.37061
 C764 C 0.64931 -0.09966 0.35225
 C765 C 0.60414 -0.07121 0.41939
 C766 C 0.58660 -0.05746 0.43350
 H767 H 0.65382 -0.15460 0.40669
 H768 H 0.62449 -0.12185 0.43893
 H769 H 0.62644 -0.06075 0.36014
 H770 H 0.65580 -0.09353 0.32788
 C771 C 0.68544 0.33722 -0.17209
 C772 C 0.67242 0.35411 -0.15584
 C773 C 0.65652 0.37396 -0.13639
 C774 C 0.64797 0.36635 -0.10482
 C775 C 0.63125 0.38492 -0.08654
 C776 C 0.62301 0.41124 -0.09970
 C777 C 0.63198 0.41909 -0.13104
 C778 C 0.64872 0.40051 -0.14933
 C779 C 0.60354 0.42897 -0.08211
 C780 C 0.58610 0.44273 -0.06783
 H781 H 0.65379 0.34587 -0.09457
 H782 H 0.62423 0.37849 -0.06246
 H783 H 0.62554 0.43925 -0.14160
 H784 H 0.65515 0.40660 -0.17374
 C785 C 1.17310 0.18728 -0.15452
 C786 C 1.15572 0.17487 -0.13864
 C787 C 1.13471 0.15945 -0.12080
 C788 C 1.14106 0.14715 -0.09054
 C789 C 1.12127 0.13020 -0.07455
 C790 C 1.09509 0.12549 -0.08879
 C791 C 1.08850 0.13837 -0.11867
 C792 C 1.10828 0.15534 -0.13464
 C793 C 1.07610 0.10541 -0.07419
 C794 C 1.06123 0.08740 -0.06240
 H795 H 1.16149 0.15007 -0.07973
 H796 H 1.12665 0.12013 -0.05157
 H797 H 1.06841 0.13466 -0.13001
 H798 H 1.10323 0.16464 -0.15813
 C799 C 1.17313 0.68737 0.34703
 C800 C 1.15577 0.67485 0.36283
 C801 C 1.13478 0.65931 0.38061
 C802 C 1.14120 0.64672 0.41070
 C803 C 1.12140 0.62973 0.42664
 C804 C 1.09511 0.62529 0.41254
 C805 C 1.08847 0.63842 0.38282
 C806 C 1.10826 0.65543 0.36690
 C807 C 1.07603 0.60527 0.42712
 C808 C 1.06107 0.58730 0.43888
 H809 H 1.16168 0.64948 0.42143
 H810 H 1.12683 0.61944 0.44947
 H811 H 1.06831 0.63491 0.37156
 H812 H 1.10314 0.66497 0.34355
 C813 C 0.68538 0.16376 0.32760
 C814 C 0.67257 0.14690 0.34412
 C815 C 0.65688 0.12710 0.36388
 C816 C 0.65139 0.09941 0.35246
 C817 C 0.63475 0.08080 0.37088
 C818 C 0.62360 0.08978 0.40083
 C819 C 0.62956 0.11727 0.41252
 C820 C 0.64617 0.13586 0.39412
 C821 C 0.60412 0.07193 0.41823
 C822 C 0.58658 0.05814 0.43234
 H823 H 0.65951 0.09243 0.32908
 H824 H 0.63006 0.05971 0.36144
 H825 H 0.62083 0.12455 0.43548
 H826 H 0.65021 0.15723 0.40315
 C827 C 0.68478 0.66468 -0.17274
 C828 C 0.67183 0.64776 -0.15641
 C829 C 0.65603 0.62783 -0.13690
 C830 C 0.64719 0.63554 -0.10548
 C831 C 0.63058 0.61686 -0.08716
 C832 C 0.62273 0.59032 -0.10013
 C833 C 0.63199 0.58237 -0.13132
 C834 C 0.64862 0.60107 -0.14965
 C835 C 0.60335 0.57245 -0.08254
 C836 C 0.58596 0.55860 -0.06823
 H837 H 0.65271 0.65620 -0.09539
 H838 H 0.62334 0.62337 -0.06321
 H839 H 0.62585 0.56203 -0.14174
 H840 H 0.65527 0.59488 -0.17394
 C841 C 0.82985 -0.18876 -0.15655
 C842 C 0.84762 -0.17653 -0.14112
 C843 C 0.86893 -0.16118 -0.12369
 C844 C 0.89431 -0.15485 -0.13914
 C845 C 0.91418 -0.13789 -0.12333
 C846 C 0.90874 -0.12724 -0.09199
 C847 C 0.88366 -0.13418 -0.07622
 C848 C 0.86379 -0.15112 -0.09204
 C849 C 0.92753 -0.10709 -0.07717
 C850 C 0.94197 -0.08897 -0.06487
 H851 H 0.89843 -0.16242 -0.16369
 H852 H 0.93339 -0.13243 -0.13585
 H853 H 0.87915 -0.12582 -0.05210
 H854 H 0.84419 -0.15575 -0.07994
 C855 C 0.83078 0.31088 0.34292
 C856 C 0.84864 0.32300 0.35829
 C857 C 0.87005 0.33823 0.37561
 C858 C 0.86564 0.34685 0.40796
 C859 C 0.88550 0.36380 0.42377
 C860 C 0.90982 0.37216 0.40730
 C861 C 0.91456 0.36293 0.37524
 C862 C 0.89471 0.34596 0.35943
 C863 C 0.92841 0.39241 0.42221
 C864 C 0.94267 0.41060 0.43462
 H865 H 0.84658 0.34111 0.42061
 H866 H 0.88152 0.37109 0.44847
 H867 H 0.93316 0.36952 0.36218
 H868 H 0.89824 0.33951 0.33434
 C869 C 0.31500 -0.16554 0.32967
 C870 C 0.32802 -0.14896 0.34636
 C871 C 0.34391 -0.12943 0.36627
 C872 C 0.34873 -0.10138 0.35562
 C873 C 0.36539 -0.08292 0.37418
 C874 C 0.37727 -0.09240 0.40351
 C875 C 0.37202 -0.12028 0.41443
 C876 C 0.35538 -0.13873 0.39588
 C877 C 0.39661 -0.07446 0.42102
 C878 C 0.41398 -0.06031 0.43497
 H879 H 0.34003 -0.09396 0.33273
 H880 H 0.36950 -0.06151 0.36533
 H881 H 0.38129 -0.12796 0.43690
 H882 H 0.35186 -0.16038 0.40433
 C883 C 0.31481 0.33493 -0.16893
 C884 C 0.32765 0.35152 -0.15209
 C885 C 0.34335 0.37105 -0.13204
 C886 C 0.34811 0.39914 -0.14259
 C887 C 0.36472 0.41757 -0.12395
 C888 C 0.37659 0.40803 -0.09465
 C889 C 0.37137 0.38012 -0.08380
 C890 C 0.35478 0.36170 -0.10243
 C891 C 0.39602 0.42588 -0.07721
 C892 C 0.41351 0.43995 -0.06340
 H893 H 0.33944 0.40658 -0.16548
 H894 H 0.36883 0.43901 -0.13275
 H895 H 0.38066 0.37241 -0.06136
 H896 H 0.35131 0.34001 -0.09406
 C897 C 1.16526 -0.18908 0.16203
 C898 C 1.14822 -0.17643 0.14597
 C899 C 1.12766 -0.16081 0.12771
 C900 C 1.10231 -0.15335 0.14250
 C901 C 1.08307 -0.13641 0.12571
 C902 C 1.08909 -0.12692 0.09403
 C903 C 1.11415 -0.13495 0.07895
 C904 C 1.13340 -0.15188 0.09576
 C905 C 1.07091 -0.10684 0.07817
 C906 C 1.05690 -0.08880 0.06513
 H907 H 1.09771 -0.16007 0.16726
 H908 H 1.06388 -0.13010 0.13770
 H909 H 1.11913 -0.12749 0.05457
 H910 H 1.15298 -0.15743 0.08415
 C911 C 1.16477 0.30946 0.66081
 C912 C 1.14787 0.32222 0.64469
 C913 C 1.12745 0.33801 0.62646
 C914 C 1.13424 0.34929 0.59577
 C915 C 1.11507 0.36649 0.57924
 C916 C 1.08906 0.37246 0.59333
 C917 C 1.08203 0.36065 0.62367
 C918 C 1.10119 0.34342 0.64019
 C919 C 1.07077 0.39270 0.57795
 C920 C 1.05664 0.41083 0.56529
 H921 H 1.15453 0.34533 0.58501
 H922 H 1.12080 0.37575 0.55591
 H923 H 1.06208 0.36535 0.63491
 H924 H 1.09580 0.33489 0.66398
 C925 C 0.68401 -0.16398 0.66982
 C926 C 0.67101 -0.14665 0.65421
 C927 C 0.65522 -0.12609 0.63567
 C928 C 0.64064 -0.10430 0.65178
 C929 C 0.62413 -0.08522 0.63397
 C930 C 0.62216 -0.08778 0.59993
 C931 C 0.63715 -0.10925 0.58376
 C932 C 0.65366 -0.12833 0.60158
 C933 C 0.60292 -0.07005 0.58206
 C934 C 0.58560 -0.05632 0.56758
 H935 H 0.64163 -0.10238 0.67813
 H936 H 0.61242 -0.06890 0.64679
 H937 H 0.63557 -0.11164 0.55750
 H938 H 0.66479 -0.14513 0.58885
 C939 C 0.68533 0.33542 0.16781
 C940 C 0.67232 0.35227 0.15157
 C941 C 0.65642 0.37207 0.13215
 C942 C 0.64055 0.36200 0.10584
 C943 C 0.62399 0.38087 0.08787
 C944 C 0.62321 0.40994 0.09606
 C945 C 0.63944 0.42014 0.12203
 C946 C 0.65605 0.40124 0.14003
 C947 C 0.60408 0.42856 0.07930
 C948 C 0.58672 0.44283 0.06563
 H949 H 0.64061 0.33950 0.09958
 H950 H 0.61133 0.37269 0.06804
 H951 H 0.63882 0.44252 0.12877
 H952 H 0.66821 0.40925 0.16036
 C953 C 0.83257 0.19099 0.15505
 C954 C 0.84911 0.17805 0.13859
 C955 C 0.86925 0.16198 0.12021
 C956 C 0.86169 0.14907 0.09065
 C957 C 0.88069 0.13151 0.07426
 C958 C 0.90729 0.12683 0.08738
 C959 C 0.91505 0.14028 0.11655
 C960 C 0.89607 0.15784 0.13292
 C961 C 0.92562 0.10636 0.07245
 C962 C 0.94010 0.08813 0.06052
 H963 H 0.84095 0.15202 0.08072
 H964 H 0.87440 0.12099 0.05186
 H965 H 0.93547 0.13658 0.12706
 H966 H 0.90205 0.16761 0.15587
 C967 C 0.83126 0.69030 0.65564
 C968 C 0.84776 0.67733 0.63912
 C969 C 0.86787 0.66126 0.62062
 C970 C 0.86027 0.64847 0.59100
 C971 C 0.87927 0.63101 0.57445
 C972 C 0.90590 0.62630 0.58747
 C973 C 0.91370 0.63962 0.61670
 C974 C 0.89472 0.65709 0.63323
 C975 C 0.92424 0.60591 0.57235
 C976 C 0.93874 0.58772 0.56032
 H977 H 0.83952 0.65145 0.58113
 H978 H 0.87295 0.62059 0.55200
 H979 H 0.93414 0.63592 0.62712
 H980 H 0.90075 0.66678 0.65621
 C981 C 0.31400 0.16679 0.66628
 C982 C 0.32692 0.15007 0.64970
 C983 C 0.34268 0.13022 0.63014
 C984 C 0.35193 0.13812 0.59893
 C985 C 0.36858 0.11945 0.58068
 C986 C 0.37601 0.09276 0.59350
 C987 C 0.36631 0.08463 0.62445
 C988 C 0.34966 0.10330 0.64271
 C989 C 0.39550 0.07489 0.57620
 C990 C 0.41303 0.06084 0.56245
 H991 H 0.34673 0.15890 0.58899
 H992 H 0.37618 0.12609 0.55692
 H993 H 0.37215 0.06418 0.63476
 H994 H 0.34269 0.09698 0.66684
 C995 C 0.31532 0.66794 0.16741
 C996 C 0.32833 0.65103 0.15116
 C997 C 0.34416 0.63088 0.13203
 C998 C 0.35455 0.60597 0.14662
 C999 C 0.37115 0.58711 0.12857
 C1000 C 0.37742 0.59301 0.09580
 C1001 C 0.36662 0.61765 0.08104
 C1002 C 0.35001 0.63652 0.09910
 C1003 C 0.39677 0.57510 0.07826
 C1004 C 0.41414 0.56098 0.06430
 H1005 H 0.35023 0.60141 0.17207
 H1006 H 0.37959 0.56829 0.14034
 H1007 H 0.37154 0.62259 0.05583
 H1008 H 0.34216 0.65573 0.08757
   
