data_POSCAR
  _audit_creation_date              2014-09-24
  _audit_creation_method            'ToBaCCo'
  _symmetry_space_group_name_H-M    'P1'
  _symmetry_Int_Tables_number       1
  _symmetry_cell_setting            triclinic
  loop_
  _symmetry_equiv_pos_as_xyz
 x,y,z
_cell_length_a 38.3832
_cell_length_b 37.6960
_cell_length_c 41.2878
_cell_angle_alpha 90.039000
_cell_angle_beta 89.957500
_cell_angle_gamma 119.391200
loop_
  _atom_site_label
  _atom_site_type_symbol
  _atom_site_fract_x
  _atom_site_fract_y
  _atom_site_fract_z
C1 C -0.00004 0.50005 1.33780
 C2 C 0.03587 0.51379 1.32096
 C3 C 0.03585 0.51281 1.28702
 C4 C 0.00013 0.50027 1.26926
 C5 C -0.03568 0.48763 1.28696
 C6 C -0.03586 0.48643 1.32090
 C7 C 0.00020 0.50037 1.23273
 C8 C -0.03547 0.47701 1.21494
 C9 C -0.03547 0.47809 1.18103
 C10 C 0.00033 0.50056 1.16422
 C11 C 0.03608 0.52293 1.18111
 C12 C 0.03595 0.52383 1.21503
 H13 H -0.00010 0.49996 1.36411
 H14 H 0.06391 0.52170 1.27492
 H15 H -0.06369 0.47883 1.27482
 H16 H -0.06353 0.45759 1.22692
 H17 H 0.00038 0.50063 1.13794
 H18 H 0.06396 0.54317 1.22708
 C19 C 0.49975 0.49993 1.33133
 C20 C 0.47655 0.51294 1.31452
 C21 C 0.47569 0.51200 1.28058
 C22 C 0.49993 0.50015 1.26282
 C23 C 0.52407 0.48818 1.28054
 C24 C 0.52304 0.48702 1.31447
 C25 C 0.50002 0.50025 1.22629
 C26 C 0.51385 0.47746 1.20850
 C27 C 0.51499 0.47856 1.17459
 C28 C 0.50020 0.50045 1.15774
 C29 C 0.48532 0.52225 1.17466
 C30 C 0.48627 0.52314 1.20858
 H31 H 0.49968 0.49984 1.35764
 H32 H 0.45582 0.52037 1.26850
 H33 H 0.54401 0.47990 1.26843
 H34 H 0.52369 0.45848 1.22051
 H35 H 0.50027 0.50053 1.13147
 H36 H 0.47636 0.54204 1.22066
 C37 C 0.50024 1.00057 1.34398
 C38 C 0.48549 0.96394 1.32704
 C39 C 0.48656 0.96400 1.29316
 C40 C 0.50027 1.00060 1.27548
 C41 C 0.51395 1.03721 1.29318
 C42 C 0.51502 1.03727 1.32710
 C43 C 0.50028 1.00059 1.23904
 C44 C 0.52495 1.03651 1.22134
 C45 C 0.52401 1.03657 1.18745
 C46 C 0.50031 1.00057 1.17062
 C47 C 0.47659 0.96457 1.18745
 C48 C 0.47563 0.96465 1.22133
 H49 H 0.50017 1.00044 1.37027
 H50 H 0.47675 0.93523 1.28105
 H51 H 0.52372 1.06594 1.28100
 H52 H 0.54520 1.06464 1.23338
 H53 H 0.50032 1.00056 1.14434
 H54 H 0.45538 0.93653 1.23338
 C55 C 1.00047 0.50012 0.66235
 C56 C 0.96460 0.48562 0.67926
 C57 C 0.96466 0.48674 0.71315
 C58 C 1.00055 0.50020 0.73092
 C59 C 1.03643 0.51364 0.71310
 C60 C 1.03644 0.51469 0.67916
 C61 C 1.00055 0.50023 0.76751
 C62 C 1.03644 0.52263 0.78530
 C63 C 1.03644 0.52160 0.81920
 C64 C 1.00053 0.50028 0.83607
 C65 C 0.96464 0.47894 0.81922
 C66 C 0.96466 0.47786 0.78532
 H67 H 1.00032 0.50003 0.63605
 H68 H 0.93638 0.47714 0.72505
 H69 H 1.06468 0.52322 0.72503
 H70 H 1.06474 0.54126 0.77343
 H71 H 1.00052 0.50031 0.86235
 H72 H 0.93637 0.45921 0.77347
 C73 C 0.49959 0.49951 0.66974
 C74 C 0.52398 0.48803 0.68652
 C75 C 0.52494 0.48907 0.72041
 C76 C 0.49982 0.49973 0.73811
 C77 C 0.47459 0.51027 0.72052
 C78 C 0.47532 0.51110 0.68662
 C79 C 0.49996 0.49985 0.77450
 C80 C 0.48714 0.52353 0.79215
 C81 C 0.48630 0.52276 0.82606
 C82 C 0.50021 0.50010 0.84294
 C83 C 0.51400 0.47732 0.82603
 C84 C 0.51292 0.47631 0.79213
 H85 H 0.49950 0.49944 0.64345
 H86 H 0.54555 0.48174 0.73253
 H87 H 0.45407 0.51769 0.73273
 H88 H 0.47789 0.54290 0.77995
 H89 H 0.50031 0.50019 0.86921
 H90 H 0.52207 0.45685 0.77991
 C91 C 0.49907 -0.00143 0.65641
 C92 C 0.51328 0.03521 0.67330
 C93 C 0.51242 0.03517 0.70722
 C94 C 0.49934 -0.00133 0.72492
 C95 C 0.48610 -0.03791 0.70726
 C96 C 0.48496 -0.03808 0.67331
 C97 C 0.49953 -0.00122 0.76140
 C98 C 0.47471 -0.03703 0.77920
 C99 C 0.47575 -0.03701 0.81315
 C100 C 0.49989 -0.00093 0.82985
 C101 C 0.52383 0.03495 0.81291
 C102 C 0.52451 0.03471 0.77900
 H103 H 0.49902 -0.00135 0.63012
 H104 H 0.52186 0.06386 0.71938
 H105 H 0.47682 -0.06651 0.71953
 H106 H 0.45427 -0.06506 0.76707
 H107 H 0.50010 -0.00069 0.85615
 H108 H 0.54483 0.06269 0.76679
 O109 O 0.38993 0.67662 0.96259
 O110 O 0.38874 0.74456 0.97233
 C111 C 0.36294 0.74927 0.95651
 O112 O 0.32586 0.72983 0.96246
 O113 O 0.25981 0.66196 0.97296
 C114 C 0.25499 0.63083 0.95741
 O115 O 0.27444 0.61244 0.96316
 O116 O 0.34207 0.61291 0.97298
 C117 C 0.37262 0.63867 0.95739
 O118 O 0.39244 0.66608 1.02681
 O119 O 0.38778 0.73202 1.03682
 C120 C 0.36770 0.74970 1.04271
 O121 O 0.33690 0.74338 1.02681
 O122 O 0.27255 0.67387 1.03715
 C123 C 0.25517 0.63610 1.04305
 O124 O 0.26213 0.61104 1.02765
 O125 O 0.33128 0.61466 1.03734
 C126 C 0.36857 0.63440 1.04252
 Cr127 Cr 0.38747 0.70368 0.99966
 Cr128 Cr 0.30000 0.70117 0.99984
 Cr129 Cr 0.30350 0.61504 1.00026
 O130 O 0.33031 0.67326 0.99991
 O131 O 0.61085 0.32412 0.96250
 O132 O 0.61206 0.25622 0.97236
 C133 C 0.63788 0.25147 0.95656
 O134 O 0.67496 0.27096 0.96247
 O135 O 0.74098 0.33888 0.97290
 C136 C 0.74581 0.36997 0.95730
 O137 O 0.72634 0.38836 0.96301
 O138 O 0.65868 0.38788 0.97282
 C139 C 0.62814 0.36206 0.95726
 O140 O 0.60830 0.33486 1.02671
 O141 O 0.61299 0.26897 1.03682
 C142 C 0.63307 0.25131 1.04273
 O143 O 0.66389 0.25761 1.02684
 O144 O 0.72821 0.32716 1.03710
 C145 C 0.74559 0.36495 1.04294
 O146 O 0.73861 0.38996 1.02751
 O147 O 0.66944 0.38632 1.03719
 C148 C 0.63214 0.36659 1.04237
 Cr149 Cr 0.61330 0.29718 0.99961
 Cr150 Cr 0.70079 0.29973 0.99982
 Cr151 Cr 0.69725 0.38585 1.00012
 O152 O 0.67046 0.32763 0.99983
 O153 O 0.67469 0.40353 0.53643
 O154 O 0.74065 0.40154 0.52585
 C155 C 0.74545 0.37540 0.54167
 O156 O 0.72590 0.33749 0.53623
 O157 O 0.65834 0.27013 0.52656
 C158 C 0.62776 0.26529 0.54215
 O159 O 0.61052 0.28601 0.53699
 O160 O 0.61172 0.35512 0.52711
 C161 C 0.63768 0.38585 0.54264
 O162 O 0.66321 0.40542 0.47212
 O163 O 0.72748 0.40003 0.46168
 C164 C 0.74508 0.37977 0.45609
 O165 O 0.73821 0.34796 0.47173
 O166 O 0.66901 0.28239 0.46221
 C167 C 0.63171 0.26488 0.45708
 O168 O 0.60784 0.27275 0.47276
 O169 O 0.61216 0.34317 0.46263
 C170 C 0.63211 0.38086 0.45655
 Cr171 Cr 0.70029 0.40032 0.49904
 Cr172 Cr 0.69684 0.31075 0.49919
 Cr173 Cr 0.61281 0.31537 0.49984
 O174 O 0.66997 0.34212 0.49937
 O175 O 0.32442 0.59561 0.53700
 O176 O 0.25848 0.59765 0.52651
 C177 C 0.25367 0.62376 0.54239
 O178 O 0.27322 0.66168 0.53701
 O179 O 0.34081 0.72905 0.52744
 C180 C 0.37136 0.73385 0.54302
 O181 O 0.38861 0.71314 0.53779
 O182 O 0.38740 0.64404 0.52775
 C183 C 0.36142 0.61327 0.54322
 O184 O 0.33599 0.59385 0.47268
 O185 O 0.27175 0.59929 0.46232
 C186 C 0.25418 0.61958 0.45678
 O187 O 0.26103 0.65136 0.47249
 O188 O 0.33024 0.71693 0.46307
 C189 C 0.36755 0.73442 0.45794
 O190 O 0.39139 0.72653 0.47358
 O191 O 0.38707 0.65612 0.46330
 C192 C 0.36711 0.61845 0.45714
 Cr193 Cr 0.29888 0.59890 0.49965
 Cr194 Cr 0.30235 0.68850 0.50001
 Cr195 Cr 0.38636 0.68385 0.50057
 O196 O 0.32921 0.65711 0.50009
 C197 C 0.45597 0.52764 0.33162
 C198 C 0.43940 0.54124 0.34817
 C199 C 0.42182 0.55764 0.36909
 C200 C 0.40807 0.57182 0.38805
 C201 C 0.39314 0.58839 0.41132
 C202 C 0.38105 0.60233 0.43192
 C203 C 0.46801 0.92608 0.34459
 C204 C 0.45257 0.89478 0.35980
 C205 C 0.43393 0.85876 0.37838
 C206 C 0.41793 0.82871 0.39505
 C207 C 0.39947 0.79453 0.41566
 C208 C 0.38435 0.76639 0.43433
 C209 C 0.07081 0.52911 0.33785
 C210 C 0.10108 0.54325 0.35371
 C211 C 0.13560 0.56020 0.37339
 C212 C 0.16423 0.57466 0.39112
 C213 C 0.19673 0.59122 0.41294
 C214 C 0.22353 0.60470 0.43247
 C215 C 0.54354 0.47223 0.33151
 C216 C 0.56005 0.45853 0.34799
 C217 C 0.57756 0.44201 0.36882
 C218 C 0.59126 0.42774 0.38770
 C219 C 0.60614 0.41106 0.41088
 C220 C 0.61820 0.39705 0.43141
 C221 C 0.53155 0.07309 0.34375
 C222 C 0.54692 0.10443 0.35895
 C223 C 0.56549 0.14049 0.37751
 C224 C 0.58145 0.17056 0.39417
 C225 C 0.59986 0.20477 0.41478
 C226 C 0.61495 0.23292 0.43345
 C227 C 0.92910 0.47099 0.33770
 C228 C 0.89875 0.45673 0.35347
 C229 C 0.86411 0.43964 0.37304
 C230 C 0.83537 0.42506 0.39067
 C231 C 0.80274 0.40836 0.41239
 C232 C 0.77584 0.39477 0.43185
 C233 C 0.53247 0.45818 1.15689
 C234 C 0.54783 0.44231 1.14147
 C235 C 0.56629 0.42487 1.12260
 C236 C 0.58212 0.41076 1.10571
 C237 C 0.60039 0.39492 1.08488
 C238 C 0.61540 0.38182 1.06608
 C239 C 0.92768 0.45718 1.16312
 C240 C 0.89760 0.44109 1.14706
 C241 C 0.86332 0.42359 1.12711
 C242 C 0.83492 0.40951 1.10915
 C243 C 0.80269 0.39372 1.08707
 C244 C 0.77609 0.38055 1.06737
 C245 C 0.54607 0.07367 1.16940
 C246 C 0.56264 0.10362 1.15272
 C247 C 0.58005 0.13729 1.13160
 C248 C 0.59352 0.16490 1.11245
 C249 C 0.60799 0.19598 1.08893
 C250 C 0.61964 0.22164 1.06813
 C251 C 0.46792 0.54272 1.15702
 C252 C 0.45263 0.55864 1.14163
 C253 C 0.43424 0.57613 1.12278
 C254 C 0.41847 0.59028 1.10589
 C255 C 0.40026 0.60612 1.08505
 C256 C 0.38529 0.61921 1.06625
 C257 C 0.07298 0.54392 1.16326
 C258 C 0.10311 0.56005 1.14724
 C259 C 0.13741 0.57758 1.12729
 C260 C 0.16583 0.59167 1.10932
 C261 C 0.19807 0.60744 1.08723
 C262 C 0.22467 0.62058 1.06751
 C263 C 0.45456 0.92746 1.16939
 C264 C 0.43800 0.89751 1.15269
 C265 C 0.42062 0.86383 1.13157
 C266 C 0.40718 0.83621 1.11240
 C267 C 0.39273 0.80511 1.08888
 C268 C 0.38111 0.77942 1.06808
 C269 C 0.54681 0.47386 0.66844
 C270 C 0.56414 0.46121 0.65183
 C271 C 0.58249 0.44573 0.63087
 C272 C 0.59673 0.43213 0.61188
 C273 C 0.61198 0.41598 0.58857
 C274 C 0.62408 0.40215 0.56792
 C275 C 0.52988 0.07305 0.65564
 C276 C 0.54455 0.10433 0.64031
 C277 C 0.56231 0.14038 0.62161
 C278 C 0.57768 0.17049 0.60489
 C279 C 0.59564 0.20482 0.58428
 C280 C 0.61064 0.23311 0.56568
 C281 C 0.92762 0.46847 0.66148
 C282 C 0.89742 0.45351 0.64557
 C283 C 0.86305 0.43574 0.62578
 C284 C 0.83459 0.42073 0.60791
 C285 C 0.80235 0.40373 0.58589
 C286 C 0.77580 0.39011 0.56618
 C287 C 0.45240 0.52521 0.66864
 C288 C 0.43502 0.53783 0.65210
 C289 C 0.41661 0.55330 0.63122
 C290 C 0.40234 0.56689 0.61229
 C291 C 0.38708 0.58306 0.58905
 C292 C 0.37499 0.59691 0.56845
 C293 C 0.46916 0.92607 0.65662
 C294 C 0.45449 0.89475 0.64132
 C295 C 0.43673 0.85867 0.62262
 C296 C 0.42138 0.82856 0.60589
 C297 C 0.40343 0.79425 0.58524
 C298 C 0.38845 0.76598 0.56660
 C299 C 0.07141 0.53089 0.66226
 C300 C 0.10164 0.54577 0.64635
 C301 C 0.13604 0.56347 0.62656
 C302 C 0.16451 0.57844 0.60868
 C303 C 0.19674 0.59539 0.58664
 C304 C 0.22330 0.60901 0.56691
 C305 C 0.46995 0.54420 0.84368
 C306 C 0.45543 0.56096 0.85898
 C307 C 0.43779 0.57933 0.87768
 C308 C 0.42249 0.59409 0.89444
 C309 C 0.40460 0.61041 0.91512
 C310 C 0.38966 0.62365 0.93380
 C311 C 0.07338 0.54141 0.83705
 C312 C 0.10352 0.55665 0.85303
 C313 C 0.13781 0.57326 0.87291
 C314 C 0.16619 0.58673 0.89087
 C315 C 0.19831 0.60204 0.91300
 C316 C 0.22476 0.61505 0.93280
 C317 C 0.45438 0.92796 0.83035
 C318 C 0.43711 0.89799 0.84701
 C319 C 0.41877 0.86421 0.86807
 C320 C 0.40447 0.83644 0.88713
 C321 C 0.38906 0.80509 0.91052
 C322 C 0.37678 0.77919 0.93120
 C323 C 0.53047 0.45598 0.84361
 C324 C 0.54507 0.43932 0.85889
 C325 C 0.56279 0.42105 0.87756
 C326 C 0.57815 0.40638 0.89430
 C327 C 0.59610 0.39015 0.91498
 C328 C 0.61108 0.37699 0.93366
 C329 C 0.92768 0.45917 0.83707
 C330 C 0.89751 0.44397 0.85304
 C331 C 0.86318 0.42740 0.87290
 C332 C 0.83476 0.41395 0.89083
 C333 C 0.80258 0.39869 0.91293
 C334 C 0.77608 0.38570 0.93271
 C335 C 0.54653 0.07211 0.83090
 C336 C 0.56375 0.10214 0.84750
 C337 C 0.58207 0.13602 0.86847
 C338 C 0.59636 0.16390 0.88745
 C339 C 0.61176 0.19539 0.91073
 C340 C 0.62404 0.22142 0.93133
   
