data_POSCAR
  _audit_creation_date              2014-09-24
  _audit_creation_method            'ToBaCCo'
  _symmetry_space_group_name_H-M    'P1'
  _symmetry_Int_Tables_number       1
  _symmetry_cell_setting            triclinic
  loop_
  _symmetry_equiv_pos_as_xyz
 x,y,z
_cell_length_a 37.8973
_cell_length_b 39.5748
_cell_length_c 45.1116
_cell_angle_alpha 90.541000
_cell_angle_beta 89.519000
_cell_angle_gamma 122.965000
loop_
  _atom_site_label
  _atom_site_type_symbol
  _atom_site_fract_x
  _atom_site_fract_y
  _atom_site_fract_z
O1 O 0.03645 0.49312 1.29902
 O2 O -0.04671 0.45250 1.24271
 O3 O -0.04583 0.45301 1.30025
 O4 O 0.03444 0.49169 1.24124
 O5 O 0.03150 0.43440 1.24102
 O6 O -0.04895 0.39563 1.29994
 O7 O -0.04994 0.39509 1.24233
 O8 O 0.03324 0.43571 1.29886
 Cu9 Cu -0.00501 0.47840 1.27100
 Cu10 Cu -0.00877 0.40948 1.27065
 C11 C 0.04918 0.47141 1.30842
 C12 C -0.06229 0.41701 1.23271
 C13 C -0.06146 0.41751 1.30986
 C14 C 0.04620 0.46942 1.23080
 O15 O 0.44110 0.48071 1.26650
 O16 O 0.50037 0.46607 1.20826
 O17 O 0.49809 0.46366 1.26579
 O18 O 0.44273 0.48313 1.20877
 O19 O 0.49228 0.54801 1.21060
 O20 O 0.54814 0.52840 1.26744
 O21 O 0.54992 0.53096 1.20968
 O22 O 0.49112 0.54542 1.26802
 Cu23 Cu 0.46557 0.46686 1.23702
 Cu24 Cu 0.52539 0.54473 1.23898
 C25 C 0.45631 0.51566 1.27741
 C26 C 0.53532 0.49593 1.19921
 C27 C 0.53232 0.49265 1.27651
 C28 C 0.45783 0.51893 1.20020
 O29 O 0.53329 0.96479 1.27490
 O30 O 0.58438 1.04444 1.21833
 O31 O 0.57761 1.04300 1.27606
 O32 O 0.54099 0.96595 1.21728
 O33 O 0.48283 0.96559 1.21262
 O34 O 0.51930 1.04244 1.27200
 O35 O 0.52616 1.04406 1.21419
 O36 O 0.47501 0.96420 1.27035
 Cu37 Cu 0.56489 1.00461 1.24701
 Cu38 Cu 0.49500 1.00402 1.24183
 C39 C 0.49543 0.95113 1.28244
 C40 C 0.56394 1.05773 1.20658
 C41 C 0.55460 1.05558 1.28433
 C42 C 0.50585 0.95275 1.20485
 O43 O 0.95391 0.49654 0.69832
 O44 O 1.03505 0.55227 0.75551
 O45 O 1.03646 0.53664 0.69926
 O46 O 0.95415 0.51409 0.75421
 O47 O 0.95082 0.45851 0.76645
 O48 O 1.03265 0.48077 0.71106
 O49 O 1.03126 0.49632 0.76726
 O50 O 0.95008 0.44070 0.71039
 Cu51 Cu 0.99532 0.53043 0.72534
 Cu52 Cu 0.99078 0.46335 0.73969
 C53 C 0.93779 0.45897 0.69489
 C54 C 1.04617 0.53349 0.77161
 C55 C 1.04895 0.51284 0.69596
 C56 C 0.93932 0.48302 0.77026
 O57 O 0.50663 0.48137 0.72870
 O58 O 0.47554 0.52324 0.78953
 O59 O 0.48346 0.53171 0.73241
 O60 O 0.49669 0.47003 0.78604
 O61 O 0.56320 0.51912 0.79201
 O62 O 0.54984 0.58122 0.73839
 O63 O 0.54208 0.57217 0.79577
 O64 O 0.57303 0.53065 0.73509
 Cu65 Cu 0.48390 0.49653 0.75879
 Cu66 Cu 0.56365 0.55569 0.76613
 C67 C 0.54518 0.49938 0.72128
 C68 C 0.50356 0.55526 0.80268
 C69 C 0.51438 0.56673 0.72600
 C70 C 0.53229 0.48379 0.79788
 O71 O 0.54934 0.04802 0.72533
 O72 O 0.51358 -0.03048 0.78111
 O73 O 0.50984 -0.03021 0.72343
 O74 O 0.54494 0.04656 0.78293
 O75 O 0.48217 0.03780 0.78265
 O76 O 0.44731 -0.03849 0.72455
 O77 O 0.45077 -0.03935 0.78207
 O78 O 0.48674 0.03960 0.72491
 Cu79 Cu 0.53565 0.00930 0.75315
 Cu80 Cu 0.46053 -0.00092 0.75360
 C81 C 0.52447 0.05720 0.71548
 C82 C 0.47646 -0.04820 0.79123
 C83 C 0.47227 -0.04741 0.71394
 C84 C 0.51911 0.05510 0.79282
 O85 O 0.36625 0.66472 0.96266
 O86 O 0.36139 0.72826 0.96666
 C87 C 0.33110 0.72683 0.95346
 O88 O 0.29334 0.70494 0.96199
 O89 O 0.22889 0.63575 0.97781
 C90 C 0.22549 0.60482 0.96590
 O91 O 0.24731 0.59099 0.97358
 O92 O 0.32141 0.60277 0.97990
 C93 C 0.34940 0.62689 0.96163
 O94 O 0.37853 0.66729 1.02171
 O95 O 0.36965 0.72817 1.02602
 C96 C 0.34673 0.74173 1.03184
 O97 O 0.31162 0.72880 1.01929
 O98 O 0.24837 0.65868 1.03542
 C99 C 0.23439 0.62370 1.04509
 O100 O 0.24182 0.59931 1.03259
 O101 O 0.31768 0.61498 1.03842
 C102 C 0.35723 0.63894 1.04003
 Cr103 Cr 0.36663 0.69576 0.99444
 Cr104 Cr 0.27190 0.68118 0.99869
 Cr105 Cr 0.28294 0.60419 1.00589
 O106 O 0.30712 0.66040 0.99964
 O107 O 0.63408 0.34531 0.95938
 O108 O 0.63056 0.27846 0.96958
 C109 C 0.66045 0.27570 0.95963
 O110 O 0.69710 0.29503 0.97045
 O111 O 0.76392 0.36255 0.98750
 C112 C 0.77100 0.39165 0.97118
 O113 O 0.75142 0.40922 0.97399
 O114 O 0.68177 0.40726 0.97530
 C115 C 0.65442 0.38327 0.95673
 O116 O 0.61713 0.34987 1.01708
 O117 O 0.61604 0.28457 1.02756
 C118 C 0.63458 0.26811 1.03693
 O119 O 0.67002 0.27669 1.02703
 O120 O 0.73490 0.34542 1.04390
 C121 C 0.75335 0.38241 1.05038
 O122 O 0.75200 0.40755 1.03397
 O123 O 0.67903 0.40026 1.03459
 C124 C 0.63907 0.37901 1.03493
 Cr125 Cr 0.62667 0.31569 0.99368
 Cr126 Cr 0.71535 0.32092 1.00702
 Cr127 Cr 0.71505 0.40398 1.00441
 O128 O 0.68555 0.34674 1.00171
 O129 O 0.60451 0.37814 0.52212
 O130 O 0.67336 0.38124 0.53413
 C131 C 0.69292 0.36461 0.54047
 O132 O 0.68833 0.33457 0.52616
 O133 O 0.61653 0.26561 0.53205
 C134 C 0.57697 0.24501 0.53550
 O135 O 0.55228 0.24869 0.51907
 O136 O 0.55303 0.31392 0.52947
 C137 C 0.57219 0.35096 0.53612
 O138 O 0.62191 0.37944 0.46351
 O139 O 0.69232 0.38585 0.47593
 C140 C 0.70043 0.36268 0.46212
 O141 O 0.68093 0.32515 0.46679
 O142 O 0.61089 0.25480 0.47226
 C143 C 0.58069 0.24872 0.45586
 O144 O 0.56002 0.26482 0.46072
 O145 O 0.55609 0.32773 0.47077
 C146 C 0.58337 0.35882 0.45661
 Cr147 Cr 0.64686 0.37899 0.49886
 Cr148 Cr 0.64794 0.29592 0.49928
 Cr149 Cr 0.55765 0.29002 0.49510
 O150 O 0.61760 0.32168 0.49771
 O151 O 0.36643 0.61726 0.52829
 O152 O 0.30421 0.62774 0.53407
 C153 C 0.29049 0.65049 0.53748
 O154 O 0.30306 0.68175 0.52196
 O155 O 0.37912 0.74350 0.53137
 C156 C 0.41736 0.75848 0.53781
 O157 O 0.44030 0.74895 0.52441
 O158 O 0.42385 0.67778 0.53792
 C159 C 0.39852 0.64086 0.54396
 O160 O 0.35903 0.61773 0.46859
 O161 O 0.29479 0.62450 0.47489
 C162 C 0.29498 0.65076 0.45878
 O163 O 0.31952 0.68827 0.46318
 O164 O 0.39458 0.75186 0.47226
 C165 C 0.42440 0.75224 0.45870
 O166 O 0.43847 0.73104 0.46650
 O167 O 0.42631 0.66142 0.48012
 C168 C 0.39794 0.63289 0.46442
 Cr169 Cr 0.33263 0.62394 0.50143
 Cr170 Cr 0.34991 0.71512 0.49733
 Cr171 Cr 0.42997 0.70391 0.50217
 O172 O 0.37075 0.68101 0.50036
 C173 C 0.43474 0.52105 0.30023
 C174 C 0.45054 0.55878 0.31334
 C175 C 0.43211 0.56615 0.33973
 C176 C 0.45676 0.60309 0.35460
 C177 C 0.44175 0.61156 0.38001
 C178 C 0.40158 0.58312 0.39129
 C179 C 0.37621 0.54667 0.37594
 C180 C 0.39132 0.53809 0.35042
 C181 C 0.38523 0.59169 0.41826
 C182 C 0.41202 0.61779 0.44032
 H183 H 0.47977 0.58435 0.30491
 H184 H 0.48799 0.62553 0.34661
 H185 H 0.46154 0.64074 0.39043
 H186 H 0.34481 0.52467 0.38387
 H187 H 0.37079 0.50973 0.33920
 H188 H 0.35156 0.57744 0.42067
 H189 H 0.40600 0.49480 0.30833
 H190 H 0.44537 0.62984 0.43898
 C191 C 0.47573 0.92197 0.30447
 C192 C 0.49608 0.90658 0.31965
 C193 C 0.47724 0.87789 0.34479
 C194 C 0.50331 0.87027 0.36148
 C195 C 0.48745 0.84440 0.38585
 C196 C 0.44489 0.82534 0.39401
 C197 C 0.41874 0.83269 0.37727
 C198 C 0.43450 0.85835 0.35282
 C199 C 0.42689 0.79885 0.42024
 C200 C 0.44413 0.77892 0.43295
 H201 H 0.52832 0.91741 0.31369
 H202 H 0.53634 0.88487 0.35591
 H203 H 0.50888 0.84027 0.39856
 H204 H 0.38581 0.81835 0.38306
 H205 H 0.41279 0.86238 0.34048
 H206 H 0.39760 0.79340 0.42916
 H207 H 0.44389 0.91236 0.31025
 H208 H 0.47157 0.78134 0.42317
 C209 C 0.08279 0.48740 0.33064
 C210 C 0.10383 0.52729 0.34053
 C211 C 0.13792 0.54448 0.36281
 C212 C 0.16594 0.58643 0.36439
 C213 C 0.19826 0.60390 0.38533
 C214 C 0.20295 0.57961 0.40542
 C215 C 0.17470 0.53766 0.40390
 C216 C 0.14247 0.52023 0.38297
 C217 C 0.23610 0.59616 0.42847
 C218 C 0.26463 0.63713 0.43429
 H219 H 0.09608 0.54733 0.33070
 H220 H 0.16295 0.60579 0.34922
 H221 H 0.21917 0.63628 0.38546
 H222 H 0.17729 0.51818 0.41920
 H223 H 0.12083 0.48790 0.38315
 H224 H 0.23746 0.57456 0.44219
 H225 H 0.09180 0.46742 0.33853
 H226 H 0.26459 0.65994 0.42138
 C227 C 0.55371 0.48508 0.30009
 C228 C 0.53723 0.44629 0.31092
 C229 C 0.55410 0.43627 0.33654
 C230 C 0.53121 0.39641 0.34670
 C231 C 0.54458 0.38530 0.37133
 C232 C 0.58121 0.41400 0.38658
 C233 C 0.60491 0.45360 0.37597
 C234 C 0.59151 0.46478 0.35126
 C235 C 0.59585 0.40331 0.41308
 C236 C 0.56868 0.37083 0.43122
 H237 H 0.50895 0.42165 0.30068
 H238 H 0.50262 0.37366 0.33560
 H239 H 0.52631 0.35409 0.37803
 H240 H 0.63362 0.47611 0.38706
 H241 H 0.61066 0.49567 0.34405
 H242 H 0.62878 0.42233 0.41898
 H243 H 0.58175 0.51078 0.30947
 H244 H 0.53527 0.35318 0.42677
 C245 C 0.56856 0.08366 0.30746
 C246 C 0.54464 0.09802 0.31893
 C247 C 0.55743 0.12577 0.34482
 C248 C 0.52665 0.12919 0.35943
 C249 C 0.53694 0.15459 0.38406
 C250 C 0.57856 0.17763 0.39448
 C251 C 0.60938 0.17424 0.37992
 C252 C 0.59911 0.14888 0.35523
 C253 C 0.59072 0.20474 0.42065
 C254 C 0.56799 0.22119 0.43023
 H255 H 0.51392 0.08679 0.30951
 H256 H 0.49429 0.11171 0.35200
 H257 H 0.51198 0.15540 0.39510
 H258 H 0.64168 0.19166 0.38747
 H259 H 0.62413 0.14808 0.34432
 H260 H 0.61973 0.21361 0.43188
 H261 H 0.59851 0.09314 0.31733
 H262 H 0.54076 0.21518 0.41791
 C263 C 0.90498 0.40081 0.33238
 C264 C 0.88861 0.42257 0.34357
 C265 C 0.85290 0.40572 0.36472
 C266 C 0.84739 0.43227 0.38188
 C267 C 0.81375 0.41764 0.40180
 C268 C 0.78439 0.37591 0.40463
 C269 C 0.78984 0.34940 0.38733
 C270 C 0.82354 0.36404 0.36749
 C271 C 0.74848 0.35866 0.42571
 C272 C 0.73479 0.38094 0.44016
 H273 H 0.90311 0.45369 0.33698
 H274 H 0.86949 0.46451 0.38010
 H275 H 0.81151 0.43926 0.41507
 H276 H 0.76772 0.31715 0.38899
 H277 H 0.82587 0.34256 0.35405
 H278 H 0.73176 0.32659 0.42989
 H279 H 0.89285 0.37054 0.33996
 H280 H 0.74960 0.41268 0.43578
 C281 C 0.55971 0.49031 1.17648
 C282 C 0.54714 0.45216 1.16578
 C283 C 0.57084 0.44447 1.14338
 C284 C 0.55078 0.40627 1.13003
 C285 C 0.57165 0.39730 1.10888
 C286 C 0.61322 0.42658 1.10048
 C287 C 0.63371 0.46447 1.11436
 C288 C 0.61283 0.47344 1.13557
 C289 C 0.63635 0.41826 1.07805
 C290 C 0.61615 0.38805 1.05661
 H291 H 0.51780 0.42641 1.17386
 H292 H 0.51874 0.38315 1.13599
 H293 H 0.55522 0.36719 1.09965
 H294 H 0.66597 0.48730 1.10867
 H295 H 0.63007 0.50285 1.14592
 H296 H 0.67038 0.43742 1.07782
 H297 H 0.58802 0.51694 1.16833
 H298 H 0.58219 0.37024 1.05530
 C299 C 0.90715 0.40178 1.21068
 C300 C 0.89355 0.42488 1.19801
 C301 C 0.86421 0.41090 1.17269
 C302 C 0.86557 0.43973 1.15406
 C303 C 0.83948 0.42797 1.12930
 C304 C 0.81084 0.38686 1.12289
 C305 C 0.80892 0.35804 1.14195
 C306 C 0.83518 0.36984 1.16665
 C307 C 0.78358 0.37264 1.09629
 C308 C 0.77846 0.39763 1.07762
 H309 H 0.90743 0.45575 1.20538
 H310 H 0.88760 0.47156 1.15831
 H311 H 0.84277 0.45138 1.11516
 H312 H 0.78706 0.32619 1.13767
 H313 H 0.83232 0.34672 1.18099
 H314 H 0.76684 0.34078 1.09104
 H315 H 0.89524 0.37166 1.20247
 H316 H 0.79323 0.42927 1.08259
 C317 C 0.58458 0.08909 1.18372
 C318 C 0.56344 0.10392 1.16901
 C319 C 0.58226 0.13430 1.14499
 C320 C 0.55546 0.13930 1.12689
 C321 C 0.57164 0.16738 1.10388
 C322 C 0.61525 0.19146 1.09865
 C323 C 0.64206 0.18657 1.11679
 C324 C 0.62589 0.15856 1.13982
 C325 C 0.63399 0.22120 1.07427
 C326 C 0.61370 0.23742 1.06026
 H327 H 0.53072 0.09145 1.17456
 H328 H 0.52173 0.12103 1.13033
 H329 H 0.54977 0.16946 1.09003
 H330 H 0.67578 0.20478 1.11329
 H331 H 0.64789 0.15660 1.15360
 H332 H 0.66616 0.23221 1.06797
 H333 H 0.61660 0.09936 1.17785
 H334 H 0.58264 0.22908 1.06733
 C335 C 0.43454 0.52633 1.17811
 C336 C 0.44715 0.56521 1.16966
 C337 C 0.42406 0.57415 1.14808
 C338 C 0.44461 0.61277 1.13568
 C339 C 0.42426 0.62256 1.11508
 C340 C 0.38273 0.59373 1.10637
 C341 C 0.36174 0.55553 1.11946
 C342 C 0.38207 0.54575 1.14009
 C343 C 0.36014 0.60221 1.08402
 C344 C 0.38029 0.63352 1.06357
 H345 H 0.47600 0.59044 1.17882
 H346 H 0.47667 0.63546 1.14185
 H347 H 0.44116 0.65283 1.10642
 H348 H 0.32952 0.53298 1.11353
 H349 H 0.36442 0.51612 1.14984
 H350 H 0.32637 0.58140 1.08245
 H351 H 0.40687 0.50033 1.16859
 H352 H 0.41413 0.65367 1.06363
 C353 C 0.07661 0.48366 1.20617
 C354 C 0.09063 0.52007 1.19193
 C355 C 0.11775 0.53383 1.16513
 C356 C 0.11882 0.56327 1.14735
 C357 C 0.14333 0.57678 1.12159
 C358 C 0.16787 0.56143 1.11325
 C359 C 0.16693 0.53208 1.13108
 C360 C 0.14239 0.51855 1.15686
 C361 C 0.19394 0.57456 1.08595
 C362 C 0.20793 0.61108 1.07189
 H363 H 0.07894 0.53825 1.19963
 H364 H 0.10006 0.57546 1.15315
 H365 H 0.14218 0.59858 1.10810
 H366 H 0.18556 0.51980 1.12517
 H367 H 0.14334 0.49658 1.17027
 H368 H 0.20400 0.55546 1.07732
 H369 H 0.08578 0.46369 1.19812
 H370 H 0.20086 0.63201 1.08127
 C371 C 0.49245 0.92243 1.18106
 C372 C 0.45517 0.90745 1.16525
 C373 C 0.44128 0.87748 1.14077
 C374 C 0.39901 0.85635 1.13192
 C375 C 0.38450 0.82784 1.10898
 C376 C 0.41222 0.82013 1.09406
 C377 C 0.45452 0.84139 1.10281
 C378 C 0.46903 0.86993 1.12571
 C379 C 0.39817 0.78941 1.07014
 C380 C 0.36088 0.77396 1.05423
 H381 H 0.43455 0.91734 1.17163
 H382 H 0.37694 0.86155 1.14308
 H383 H 0.35145 0.81148 1.10354
 H384 H 0.47657 0.83611 1.09172
 H385 H 0.50208 0.88621 1.13112
 H386 H 0.41853 0.77894 1.06452
 H387 H 0.51273 0.91171 1.17623
 H388 H 0.34102 0.78536 1.05823
 C389 C 0.55840 0.48480 0.69614
 C390 C 0.52966 0.45390 0.67731
 C391 C 0.54215 0.44102 0.65036
 C392 C 0.51304 0.40356 0.63742
 C393 C 0.52341 0.39045 0.61184
 C394 C 0.56333 0.41470 0.59859
 C395 C 0.59202 0.45256 0.61113
 C396 C 0.58165 0.46567 0.63665
 C397 C 0.57634 0.40216 0.57172
 C398 C 0.55574 0.36255 0.56121
 H399 H 0.49646 0.43816 0.68266
 H400 H 0.48212 0.38429 0.64718
 H401 H 0.49978 0.36161 0.60251
 H402 H 0.62275 0.47214 0.60117
 H403 H 0.60452 0.49538 0.64510
 H404 H 0.60496 0.42492 0.56062
 H405 H 0.59182 0.49977 0.69220
 H406 H 0.52819 0.33869 0.57248
 C407 C 0.54055 0.08867 0.69287
 C408 C 0.51498 0.09746 0.67725
 C409 C 0.53184 0.12733 0.65303
 C410 C 0.50569 0.12205 0.62926
 C411 C 0.52137 0.14870 0.60537
 C412 C 0.56350 0.18170 0.60511
 C413 C 0.58936 0.18730 0.62919
 C414 C 0.57372 0.16060 0.65299
 C415 C 0.58190 0.21043 0.58014
 C416 C 0.55789 0.21505 0.55930
 H417 H 0.48134 0.07970 0.68117
 H418 H 0.47334 0.09662 0.62881
 H419 H 0.50054 0.14261 0.58702
 H420 H 0.62182 0.21254 0.62965
 H421 H 0.59446 0.16632 0.67138
 H422 H 0.61587 0.23003 0.57888
 H423 H 0.57358 0.10381 0.68723
 H424 H 0.52397 0.19766 0.56101
 C425 C 0.90420 0.43582 0.67298
 C426 C 0.88771 0.45352 0.65614
 C427 C 0.85258 0.43137 0.63473
 C428 C 0.83342 0.45071 0.62391
 C429 C 0.80043 0.43148 0.60359
 C430 C 0.78559 0.39213 0.59361
 C431 C 0.80517 0.37298 0.60404
 C432 C 0.83825 0.39226 0.62439
 C433 C 0.75143 0.37108 0.57137
 C434 C 0.72320 0.38234 0.56505
 H435 H 0.90028 0.48525 0.65958
 H436 H 0.84413 0.48101 0.63113
 H437 H 0.78748 0.44808 0.59539
 H438 H 0.79489 0.34297 0.59636
 H439 H 0.85267 0.37650 0.63142
 H440 H 0.74856 0.34581 0.55943
 H441 H 0.89149 0.40395 0.67113
 H442 H 0.72399 0.40607 0.57771
 C443 C 0.50949 0.59069 0.70359
 C444 C 0.47136 0.57544 0.68886
 C445 C 0.46460 0.59571 0.66412
 C446 C 0.42331 0.57919 0.65417
 C447 C 0.41515 0.59560 0.62996
 C448 C 0.44829 0.62885 0.61487
 C449 C 0.48950 0.64612 0.62522
 C450 C 0.49772 0.62963 0.64946
 C451 C 0.44083 0.64623 0.58856
 C452 C 0.40614 0.62371 0.57004
 H453 H 0.44466 0.54638 0.69563
 H454 H 0.39715 0.55326 0.66512
 H455 H 0.38280 0.58229 0.62335
 H456 H 0.51554 0.67194 0.61410
 H457 H 0.53007 0.64315 0.65605
 H458 H 0.46441 0.67713 0.58279
 H459 H 0.53659 0.62018 0.69847
 H460 H 0.38389 0.59204 0.57431
 C461 C 0.45730 0.92356 0.69165
 C462 C 0.48177 0.91183 0.67735
 C463 C 0.46452 0.88162 0.65312
 C464 C 0.49133 0.88413 0.63044
 C465 C 0.47538 0.85715 0.60653
 C466 C 0.43226 0.82669 0.60518
 C467 C 0.40567 0.82378 0.62817
 C468 C 0.42160 0.85069 0.65203
 C469 C 0.41369 0.79799 0.58007
 C470 C 0.43693 0.78859 0.56167
 H471 H 0.51494 0.92706 0.68249
 H472 H 0.52449 0.90768 0.63082
 H473 H 0.49678 0.86100 0.58892
 H474 H 0.37243 0.80044 0.62777
 H475 H 0.40021 0.84693 0.66964
 H476 H 0.37996 0.78200 0.57697
 H477 H 0.42507 0.91044 0.68471
 H478 H 0.47009 0.80198 0.56564
 C479 C 0.08100 0.52172 0.67580
 C480 C 0.10056 0.55655 0.65847
 C481 C 0.13556 0.56781 0.63746
 C482 C 0.14451 0.59641 0.61557
 C483 C 0.17765 0.60866 0.59558
 C484 C 0.20314 0.59296 0.59730
 C485 C 0.19409 0.56420 0.61910
 C486 C 0.16086 0.55188 0.63911
 C487 C 0.23841 0.60493 0.57634
 C488 C 0.25769 0.64038 0.55983
 H489 H 0.08903 0.57630 0.65975
 H490 H 0.12551 0.60911 0.61374
 H491 H 0.18251 0.62987 0.57859
 H492 H 0.21313 0.55153 0.62088
 H493 H 0.15577 0.53052 0.65605
 H494 H 0.25001 0.58532 0.57416
 H495 H 0.09051 0.50051 0.67371
 H496 H 0.24828 0.66153 0.56286
 C497 C 0.49186 0.57384 0.82592
 C498 C 0.45000 0.55967 0.83265
 C499 C 0.43686 0.57892 0.85468
 C500 C 0.39526 0.55687 0.86517
 C501 C 0.38129 0.57371 0.88578
 C502 C 0.40874 0.61320 0.89645
 C503 C 0.44998 0.63572 0.88533
 C504 C 0.46401 0.61884 0.86471
 C505 C 0.39520 0.63181 0.91872
 C506 C 0.36246 0.60904 0.93876
 H507 H 0.42547 0.53265 0.82154
 H508 H 0.37343 0.52637 0.85740
 H509 H 0.34879 0.55583 0.89288
 H510 H 0.47155 0.66643 0.89278
 H511 H 0.49586 0.63749 0.85648
 H512 H 0.41303 0.66436 0.92050
 H513 H 0.51714 0.59971 0.83747
 H514 H 0.34647 0.57657 0.93866
 C515 C 0.07561 0.55503 0.79618
 C516 C 0.08375 0.53453 0.81733
 C517 C 0.10832 0.55289 0.84488
 C518 C 0.10829 0.52727 0.86624
 C519 C 0.13055 0.54273 0.89270
 C520 C 0.15371 0.58440 0.89834
 C521 C 0.15340 0.61004 0.87723
 C522 C 0.13122 0.59460 0.85068
 C523 C 0.17861 0.60211 0.92576
 C524 C 0.19516 0.58381 0.94175
 H525 H 0.06937 0.50242 0.81430
 H526 H 0.09069 0.49501 0.86254
 H527 H 0.12901 0.52185 0.90876
 H528 H 0.17096 0.64227 0.88107
 H529 H 0.13264 0.61566 0.83492
 H530 H 0.18762 0.63232 0.93194
 H531 H 0.08818 0.58680 0.79857
 H532 H 0.18962 0.55521 0.93440
 C533 C 0.46423 0.92112 0.81405
 C534 C 0.42374 0.89796 0.82577
 C535 C 0.41278 0.86793 0.84929
 C536 C 0.37147 0.83426 0.85135
 C537 C 0.36042 0.80522 0.87319
 C538 C 0.39049 0.80978 0.89379
 C539 C 0.43173 0.84361 0.89174
 C540 C 0.44276 0.87251 0.86990
 C541 C 0.38044 0.78039 0.91771
 C542 C 0.33966 0.75246 0.92752
 H543 H 0.39901 0.90057 0.81654
 H544 H 0.34784 0.83010 0.83573
 H545 H 0.32852 0.77920 0.87345
 H546 H 0.45545 0.84801 0.90738
 H547 H 0.47462 0.89870 0.86961
 H548 H 0.40651 0.78262 0.92939
 H549 H 0.48823 0.91624 0.82140
 H550 H 0.31303 0.75072 0.91729
 C551 C 0.53735 0.45797 0.81840
 C552 C 0.57652 0.46965 0.82998
 C553 C 0.58405 0.44483 0.85025
 C554 C 0.62581 0.45755 0.85629
 C555 C 0.63492 0.43645 0.87613
 C556 C 0.60233 0.40217 0.89070
 C557 C 0.56053 0.38857 0.88403
 C558 C 0.55136 0.40978 0.86419
 C559 C 0.61123 0.38099 0.91345
 C560 C 0.64657 0.40166 0.93158
 H561 H 0.60363 0.49851 0.82330
 H562 H 0.65164 0.48415 0.84572
 H563 H 0.66753 0.44710 0.87998
 H564 H 0.53488 0.36215 0.89489
 H565 H 0.51872 0.39895 0.86054
 H566 H 0.58763 0.34966 0.91802
 H567 H 0.50973 0.42877 0.82339
 H568 H 0.66803 0.43384 0.92892
 C569 C 0.90965 0.47648 0.79416
 C570 C 0.89897 0.44779 0.81613
 C571 C 0.87449 0.44335 0.84331
 C572 C 0.86279 0.41068 0.86199
 C573 C 0.84083 0.40555 0.88832
 C574 C 0.83035 0.43335 0.89679
 C575 C 0.84162 0.46583 0.87803
 C576 C 0.86370 0.47103 0.85166
 C577 C 0.80567 0.42800 0.92399
 C578 C 0.80297 0.40443 0.94780
 H579 H 0.91031 0.42798 0.81375
 H580 H 0.87050 0.38881 0.85612
 H581 H 0.83144 0.37927 0.90152
 H582 H 0.83355 0.48743 0.88390
 H583 H 0.87243 0.49697 0.83831
 H584 H 0.78791 0.44212 0.92484
 H585 H 0.89856 0.49647 0.79522
 H586 H 0.82204 0.39174 0.94808
 C587 C 0.53099 0.08499 0.81650
 C588 C 0.57079 0.10642 0.82928
 C589 C 0.58145 0.13586 0.85352
 C590 C 0.62326 0.16812 0.85706
 C591 C 0.63399 0.19689 0.87937
 C592 C 0.60300 0.19346 0.89888
 C593 C 0.56131 0.16095 0.89549
 C594 C 0.55063 0.13225 0.87325
 C595 C 0.61256 0.22317 0.92271
 C596 C 0.65253 0.24826 0.93475
 H597 H 0.59529 0.10295 0.82036
 H598 H 0.64754 0.17149 0.84216
 H599 H 0.66632 0.22201 0.88079
 H600 H 0.53692 0.15749 0.91032
 H601 H 0.51830 0.10705 0.87191
 H602 H 0.58652 0.22364 0.93232
 H603 H 0.50731 0.09061 0.82369
 H604 H 0.67861 0.24669 0.92681
   
