data_POSCAR
  _audit_creation_date              2014-09-24
  _audit_creation_method            'ToBaCCo'
  _symmetry_space_group_name_H-M    'P1'
  _symmetry_Int_Tables_number       1
  _symmetry_cell_setting            triclinic
  loop_
  _symmetry_equiv_pos_as_xyz
 x,y,z
_cell_length_a 51.8010
_cell_length_b 51.7989
_cell_length_c 51.8364
_cell_angle_alpha 91.643300
_cell_angle_beta 92.049400
_cell_angle_gamma 93.076500
loop_
  _atom_site_label
  _atom_site_type_symbol
  _atom_site_fract_x
  _atom_site_fract_y
  _atom_site_fract_z
C1 C 0.27601 0.47686 1.00218
 C2 C 0.26419 0.50050 1.00015
 C3 C 0.27943 0.52343 0.99753
 C4 C 0.30643 0.52275 0.99715
 C5 C 0.31814 0.49907 0.99899
 C6 C 0.30296 0.47613 1.00140
 C7 C 0.23589 0.50125 1.00075
 C8 C 0.22346 0.49914 1.02426
 C9 C 0.19649 0.50005 1.02485
 C10 C 0.18194 0.50268 1.00184
 C11 C 0.19429 0.50459 0.97833
 C12 C 0.22127 0.50408 0.97780
 H13 H 0.26424 0.45912 1.00409
 H14 H 0.27025 0.54169 0.99609
 H15 H 0.23481 0.49704 1.04200
 H16 H 0.23086 0.50557 0.95961
 H17 H 0.33903 0.49845 0.99857
 H18 H 0.16104 0.50320 1.00219
 C19 C 0.72122 0.47766 0.00252
 C20 C 0.73650 0.50055 -0.00015
 C21 C 0.72471 0.52419 -0.00236
 C22 C 0.69775 0.52494 -0.00171
 C23 C 0.68256 0.50202 0.00076
 C24 C 0.69425 0.47837 0.00278
 C25 C 0.76481 0.49976 -0.00061
 C26 C 0.77735 0.50170 -0.02408
 C27 C 0.80433 0.50076 -0.02452
 C28 C 0.81876 0.49826 -0.00142
 C29 C 0.80630 0.49650 0.02204
 C30 C 0.77932 0.49705 0.02243
 H31 H 0.73031 0.45937 0.00410
 H32 H 0.73651 0.54190 -0.00432
 H33 H 0.76608 0.50369 -0.04188
 H34 H 0.76964 0.49568 0.04058
 H35 H 0.66167 0.50259 0.00110
 H36 H 0.83967 0.49771 -0.00166
 C37 C 0.02362 0.22449 0.49733
 C38 C 0.00009 0.23637 0.49988
 C39 C -0.02279 0.22116 0.50282
 C40 C -0.02218 0.19417 0.50300
 C41 C 0.00137 0.18239 0.50067
 C42 C 0.02428 0.19752 0.49795
 C43 C -0.00059 0.26470 0.49950
 C44 C 0.00182 0.27751 0.47615
 C45 C 0.00093 0.30450 0.47577
 C46 C -0.00193 0.31869 0.49882
 C47 C -0.00412 0.30596 0.52218
 C48 C -0.00367 0.27897 0.52249
 H49 H 0.04134 0.23622 0.49519
 H50 H -0.04100 0.23031 0.50465
 H51 H 0.00408 0.26643 0.45837
 H52 H -0.00538 0.26909 0.54056
 H53 H 0.00186 0.16150 0.50096
 H54 H -0.00243 0.33960 0.49864
 C55 C 1.02296 0.77935 0.49689
 C56 C 1.00020 0.76402 0.50006
 C57 C 0.97662 0.77577 0.50273
 C58 C 0.97576 0.80271 0.50200
 C59 C 0.99855 0.81797 0.49906
 C60 C 1.02218 0.80635 0.49662
 C61 C 1.00107 0.73571 0.50058
 C62 C 0.99853 0.72298 0.52396
 C63 C 0.99954 0.69601 0.52448
 C64 C 1.00265 0.68175 0.50152
 C65 C 1.00498 0.69439 0.47812
 C66 C 1.00442 0.72137 0.47769
 H67 H 1.04120 0.77024 0.49499
 H68 H 0.95900 0.76393 0.50506
 H69 H 0.99606 0.73411 0.54167
 H70 H 1.00622 0.73118 0.45959
 H71 H 0.99784 0.83886 0.49869
 H72 H 1.00322 0.66084 0.50180
 C73 C 0.49685 0.02283 0.22311
 C74 C 0.50041 -0.00036 0.23580
 C75 C 0.50454 -0.02301 0.22138
 C76 C 0.50481 -0.02253 0.19439
 C77 C 0.50151 0.00070 0.18182
 C78 C 0.49767 0.02340 0.19615
 C79 C 0.49980 -0.00092 0.26414
 C80 C 0.47658 0.00267 0.27660
 C81 C 0.47596 0.00187 0.30356
 C82 C 0.49865 -0.00197 0.31812
 C83 C 0.52191 -0.00529 0.30579
 C84 C 0.52243 -0.00504 0.27880
 H85 H 0.49382 0.04040 0.23422
 H86 H 0.50710 -0.04099 0.23113
 H87 H 0.45904 0.00569 0.26531
 H88 H 0.54043 -0.00762 0.26923
 H89 H 0.50190 0.00109 0.16093
 H90 H 0.49822 -0.00234 0.33901
 C91 C 0.49509 0.02218 0.77876
 C92 C 0.49902 -0.00060 0.76447
 C93 C 0.50244 -0.02374 0.77729
 C94 C 0.50168 -0.02414 0.80428
 C95 C 0.49803 -0.00127 0.81847
 C96 C 0.49487 0.02190 0.80575
 C97 C 0.49952 -0.00022 0.73612
 C98 C 0.52273 -0.00370 0.72361
 C99 C 0.52324 -0.00304 0.69664
 C100 C 0.50047 0.00055 0.68212
 C101 C 0.47723 0.00376 0.69451
 C102 C 0.47680 0.00364 0.72150
 H103 H 0.49263 0.04012 0.76889
 H104 H 0.50531 -0.04138 0.76622
 H105 H 0.54035 -0.00651 0.73487
 H106 H 0.45881 0.00615 0.73112
 H107 H 0.49766 -0.00145 0.83939
 H108 H 0.50083 0.00084 0.66122
 C109 C 0.28907 0.03310 0.46094
 H110 H 0.29026 0.04812 0.47595
 C111 C 0.30705 0.03341 0.44153
 H112 H 0.32212 0.04874 0.44183
 C113 C 0.26895 -0.00607 0.44355
 H114 H 0.25449 -0.02176 0.44479
 C115 C 0.28657 -0.00653 0.42377
 H116 H 0.28510 -0.02237 0.40962
 N117 N 0.27062 0.01348 0.46171
 C118 C 0.21227 0.04262 0.51181
 H119 H 0.21230 0.02797 0.52627
 C120 C 0.19452 0.06190 0.51283
 H121 H 0.18085 0.06187 0.52815
 C122 C 0.22910 0.05930 0.47338
 H123 H 0.24223 0.05784 0.45773
 C124 C 0.21160 0.07892 0.47361
 H125 H 0.21177 0.09274 0.45834
 Zn126 Zn 0.24983 0.01277 0.49094
 N127 N 0.22904 0.04161 0.49228
 C128 C 0.27371 0.03178 0.53878
 N129 N 0.27276 0.01268 0.52015
 C130 C 0.28958 -0.00656 0.52076
 C131 C 0.30817 -0.00729 0.54082
 C132 C 0.29209 0.03184 0.55921
 C133 C 0.20842 -0.01894 0.47046
 C134 C 0.18952 -0.03923 0.46967
 C135 C 0.20908 -0.05524 0.50865
 C136 C 0.22761 -0.03463 0.50870
 N137 N 0.22694 -0.01699 0.48978
 H138 H 0.26054 0.04722 0.53765
 H139 H 0.28873 -0.02119 0.50539
 H140 H 0.32168 -0.02253 0.54065
 H141 H 0.29257 0.04714 0.57392
 H142 H 0.20803 -0.00434 0.45597
 H143 H 0.17455 -0.04002 0.45450
 H144 H 0.20990 -0.06906 0.52389
 H145 H 0.24211 -0.03247 0.52421
 C146 C 0.19382 0.08023 0.49341
 C147 C 0.30619 0.01320 0.42281
 C148 C 0.18953 -0.05759 0.48909
 C149 C 0.30968 0.01214 0.56035
 C150 C 0.71156 0.00702 0.53847
 H151 H 0.71203 0.02138 0.52371
 C152 C 0.69354 0.00820 0.55777
 H153 H 0.68013 0.02352 0.55765
 C154 C 0.72757 -0.03124 0.55546
 H155 H 0.74050 -0.04687 0.55413
 C156 C 0.70977 -0.03086 0.57510
 H157 H 0.70952 -0.04601 0.58906
 N158 N 0.72808 -0.01246 0.53764
 C159 C 0.79009 0.01642 0.48983
 H160 H 0.78949 0.00100 0.47526
 C161 C 0.80886 0.03670 0.48919
 H162 H 0.82277 0.03665 0.47409
 C163 C 0.77337 0.03435 0.52793
 H164 H 0.75980 0.03311 0.54324
 C165 C 0.79190 0.05500 0.52807
 H166 H 0.79207 0.06977 0.54329
 Zn167 Zn 0.74951 -0.01377 0.50894
 N168 N 0.77276 0.01565 0.50891
 C169 C 0.72848 0.00383 0.46156
 N170 N 0.72725 -0.01514 0.47915
 C171 C 0.70847 -0.03454 0.47722
 C172 C 0.68980 -0.03530 0.45707
 C173 C 0.71020 0.00382 0.44109
 C174 C 0.78794 -0.04342 0.52960
 C175 C 0.80573 -0.06270 0.53012
 C176 C 0.78604 -0.08081 0.49020
 C177 C 0.76859 -0.06115 0.49044
 N178 N 0.76997 -0.04288 0.50989
 H179 H 0.74318 0.01940 0.46371
 H180 H 0.70764 -0.04908 0.49178
 H181 H 0.67457 -0.05048 0.45635
 H182 H 0.71142 0.01915 0.42735
 H183 H 0.78892 -0.02833 0.54453
 H184 H 0.82044 -0.06222 0.54553
 H185 H 0.78483 -0.09505 0.47444
 H186 H 0.75450 -0.06009 0.47469
 C187 C 0.81002 0.05630 0.50854
 C188 C 0.69232 -0.01104 0.57629
 C189 C 0.80518 -0.08154 0.51004
 C190 C 0.69032 -0.01575 0.43884
 C191 C 0.46641 0.21031 1.03719
 H192 H 0.45133 0.20920 1.02215
 C193 C 0.46612 0.19228 1.05667
 H194 H 0.45075 0.17726 1.05640
 C195 C 0.50570 0.23027 1.05461
 H196 H 0.52142 0.24469 1.05336
 C197 C 0.50618 0.21261 1.07447
 H198 H 0.52207 0.21400 1.08867
 N199 N 0.48606 0.22871 1.03641
 C200 C 0.45674 0.28731 0.98611
 H201 H 0.47129 0.28732 0.97164
 C202 C 0.43751 0.30513 0.98508
 H203 H 0.43747 0.31889 0.96975
 C204 C 0.44030 0.27033 1.02458
 H205 H 0.44184 0.25714 1.04026
 C206 C 0.42074 0.28790 1.02434
 H207 H 0.40705 0.28769 1.03963
 Zn208 Zn 0.48669 0.24962 1.00713
 N209 N 0.45785 0.27045 1.00568
 C210 C 0.46743 0.22590 0.95932
 N211 N 0.48663 0.22680 0.97800
 C212 C 0.50586 0.20997 0.97750
 C213 C 0.50647 0.19141 0.95755
 C214 C 0.46725 0.20754 0.93900
 C215 C 0.51853 0.29088 1.02762
 C216 C 0.53887 0.30972 1.02847
 C217 C 0.55470 0.29036 0.98956
 C218 C 0.53405 0.27187 0.98945
 N219 N 0.51647 0.27247 1.00831
 H220 H 0.45201 0.23908 0.96037
 H221 H 0.52056 0.21079 0.99291
 H222 H 0.52170 0.17789 0.95782
 H223 H 0.45188 0.20709 0.92426
 H224 H 0.50398 0.29121 1.04207
 H225 H 0.53974 0.32460 1.04362
 H226 H 0.56847 0.28960 0.97436
 H227 H 0.53180 0.25746 0.97395
 C228 C 0.41935 0.30581 1.00454
 C229 C 0.48639 0.19305 1.07547
 C230 C 0.55716 0.30978 1.00911
 C231 C 0.48694 0.18994 0.93799
 C232 C 0.49212 0.78850 -0.03711
 H233 H 0.47782 0.78792 -0.02240
 C234 C 0.49084 0.80661 -0.05645
 H235 H 0.47550 0.82001 -0.05639
 C236 C 0.53034 0.77263 -0.05398
 H237 H 0.54599 0.75971 -0.05261
 C238 C 0.52985 0.79053 -0.07365
 H239 H 0.54493 0.79087 -0.08759
 N240 N 0.51163 0.77199 -0.03621
 C241 C 0.48306 0.70961 0.01157
 H242 H 0.49854 0.71016 0.02619
 C243 C 0.46283 0.69079 0.01214
 H244 H 0.46296 0.67678 0.02725
 C245 C 0.46495 0.72654 -0.02659
 H246 H 0.46611 0.74022 -0.04190
 C247 C 0.44434 0.70797 -0.02679
 H248 H 0.42952 0.70786 -0.04206
 Zn249 Zn 0.51311 0.75038 -0.00749
 N250 N 0.48372 0.72707 -0.00751
 C251 C 0.49566 0.77110 0.03982
 N252 N 0.51456 0.77246 0.02228
 C253 C 0.53396 0.79125 0.02425
 C254 C 0.53475 0.80982 0.04435
 C255 C 0.49572 0.78928 0.06025
 C256 C 0.54276 0.71220 -0.02810
 C257 C 0.56214 0.69452 -0.02864
 C258 C 0.58040 0.71396 0.01133
 C259 C 0.56064 0.73130 0.01110
 N260 N 0.54226 0.73000 -0.00837
 H261 H 0.48011 0.75639 0.03764
 H262 H 0.54844 0.79218 0.00973
 H263 H 0.54992 0.82507 0.04509
 H264 H 0.48044 0.78797 0.07394
 H265 H 0.52759 0.71128 -0.04304
 H266 H 0.56164 0.67995 -0.04408
 H267 H 0.59474 0.71511 0.02709
 H268 H 0.55961 0.74526 0.02687
 C269 C 0.44315 0.68971 -0.00727
 C270 C 0.51000 0.80796 -0.07493
 C271 C 0.58111 0.69501 -0.00855
 C272 C 0.51527 0.80918 0.06252
 C273 C 1.03920 0.47285 0.21141
 H274 H 1.02390 0.45776 0.21065
 C275 C 1.05865 0.47252 0.19348
 H276 H 1.05808 0.45710 0.17890
 C277 C 1.05737 0.51218 0.23038
 H278 H 1.05643 0.52791 0.24440
 C279 C 1.07719 0.51263 0.21279
 H280 H 1.09168 0.52852 0.21380
 N281 N 1.03883 0.49253 0.22929
 C282 C 0.98853 0.46279 0.28844
 H283 H 0.97426 0.47730 0.28820
 C284 C 0.98726 0.44336 0.30651
 H285 H 0.97195 0.44314 0.32020
 C286 C 1.02669 0.44658 0.27180
 H287 H 1.04234 0.44826 0.25861
 C288 C 1.02620 0.42682 0.28961
 H289 H 1.04127 0.41313 0.28961
 Zn290 Zn 1.00968 0.49298 0.25016
 N291 N 1.00803 0.46408 0.27160
 C292 C 0.96147 0.47342 0.22696
 N293 N 0.98034 0.49276 0.22737
 C294 C 0.97986 0.51197 0.21007
 C295 C 0.95975 0.51238 0.19149
 C296 C 0.94098 0.47305 0.20863
 C297 C 1.03078 0.52479 0.29074
 C298 C 1.03180 0.54490 0.30932
 C299 C 0.99286 0.56049 0.28965
 C300 C 0.99258 0.54007 0.27143
 N301 N 1.01134 0.52269 0.27235
 H302 H 0.96249 0.45802 0.24051
 H303 H 0.99541 0.52680 0.21050
 H304 H 0.96005 0.52757 0.17758
 H305 H 0.92610 0.45754 0.20859
 H306 H 1.04515 0.51040 0.29133
 H307 H 1.04701 0.54575 0.32425
 H308 H 0.97769 0.57406 0.28868
 H309 H 0.97698 0.53778 0.25703
 C310 C 1.00641 0.42519 0.30744
 C311 C 1.07781 0.49277 0.19380
 C312 C 1.01248 0.56292 0.30913
 C313 C 0.94001 0.49267 0.19051
 C314 C -0.03898 0.48658 0.78814
 H315 H -0.02451 0.47228 0.78807
 C316 C -0.05835 0.48539 0.80614
 H317 H -0.05857 0.47011 0.81996
 C318 C -0.05511 0.52479 0.77115
 H319 H -0.05341 0.54043 0.75787
 C320 C -0.07481 0.52438 0.78889
 H321 H -0.08845 0.53950 0.78873
 N322 N -0.03766 0.50608 0.77116
 C323 C 0.01029 0.47802 0.71017
 H324 H 0.02512 0.49356 0.71067
 C325 C 0.01074 0.45796 0.69169
 H326 H 0.02597 0.45832 0.67791
 C327 C -0.02830 0.45957 0.72680
 H328 H -0.04373 0.46055 0.74021
 C329 C -0.02864 0.43914 0.70854
 H330 H -0.04415 0.42427 0.70841
 Zn331 Zn -0.00876 0.50773 0.74993
 N332 N -0.00896 0.47844 0.72729
 C333 C 0.03835 0.49061 0.77164
 N334 N 0.02096 0.50935 0.77233
 C335 C 0.02306 0.52878 0.79061
 C336 C 0.04322 0.52983 0.80927
 C337 C 0.05883 0.49092 0.78995
 C338 C -0.02884 0.53734 0.71086
 C339 C -0.02914 0.55684 0.69284
 C340 C 0.01097 0.57531 0.71239
 C341 C 0.01049 0.55544 0.73006
 N342 N -0.00918 0.53691 0.72889
 H343 H 0.03606 0.47501 0.75733
 H344 H 0.00865 0.54313 0.79103
 H345 H 0.04410 0.54505 0.82409
 H346 H 0.07242 0.47578 0.78914
 H347 H -0.04396 0.52206 0.71005
 H348 H -0.04455 0.55632 0.67814
 H349 H 0.02687 0.58978 0.71347
 H350 H 0.02620 0.55446 0.74420
 C351 C -0.00898 0.43823 0.69060
 C352 C -0.07644 0.50462 0.80688
 C353 C -0.00887 0.57599 0.69324
 C354 C 0.06129 0.51056 0.80928
 C355 C 0.14023 0.12192 0.46997
 C356 C 0.13274 0.13318 0.49320
 C357 C 0.14608 0.12821 0.51632
 C358 C 0.16645 0.11156 0.51632
 C359 C 0.04844 0.18519 0.49621
 C360 C 0.16061 0.10528 0.46992
 C361 C 0.11041 0.14856 0.49356
 C362 C 0.09126 0.16076 0.49411
 C363 C 0.06835 0.17427 0.49508
 C364 C 0.17372 0.09962 0.49316
 H365 H 0.12992 0.12550 0.45199
 H366 H 0.14043 0.13680 0.53442
 H367 H 0.17636 0.10783 0.53447
 H368 H 0.16549 0.09613 0.45183
 C369 C 0.62334 0.64291 0.01651
 C370 C 0.63378 0.63370 -0.00629
 C371 C 0.62807 0.64539 -0.02967
 C372 C 0.61153 0.66585 -0.03035
 C373 C 0.68552 0.54918 -0.00327
 C374 C 0.60681 0.66336 0.01588
 C375 C 0.64910 0.61133 -0.00583
 C376 C 0.66124 0.59212 -0.00525
 C377 C 0.67467 0.56915 -0.00431
 C378 C 0.60043 0.67484 -0.00761
 H379 H 0.62749 0.63389 0.03469
 H380 H 0.63602 0.63839 -0.04744
 H381 H 0.60722 0.67447 -0.04868
 H382 H 0.59830 0.66954 0.03365
 C383 C 0.85729 -0.12327 0.48481
 C384 C 0.86682 -0.13379 0.50758
 C385 C 0.85536 -0.12829 0.53100
 C386 C 0.83479 -0.11188 0.53175
 C387 C 0.95152 -0.18513 0.50389
 C388 C 0.83675 -0.10688 0.48550
 C389 C 0.88927 -0.14899 0.50702
 C390 C 0.90852 -0.16103 0.50630
 C391 C 0.93153 -0.17436 0.50516
 C392 C 0.82547 -0.10071 0.50904
 H393 H 0.86614 -0.12726 0.46659
 H394 H 0.86260 -0.13631 0.54875
 H395 H 0.82634 -0.10774 0.55012
 H396 H 0.83032 -0.09830 0.46775
 C397 C 0.37151 0.35408 0.98180
 C398 C 0.36681 0.36725 1.00497
 C399 C 0.37821 0.35948 1.02815
 C400 C 0.39471 0.33898 1.02812
 C401 C 0.31520 0.45188 1.00275
 C402 C 0.38802 0.33359 0.98172
 C403 C 0.35155 0.38967 1.00472
 C404 C 0.33945 0.40890 1.00432
 C405 C 0.32605 0.43189 1.00361
 C406 C 0.40010 0.32604 1.00485
 H407 H 0.36281 0.35995 0.96373
 H408 H 0.37485 0.36965 1.04617
 H409 H 0.40398 0.33389 1.04619
 H410 H 0.39154 0.32382 0.96354
 C411 C 0.85846 0.10733 0.48546
 C412 C 0.87161 0.11531 0.50860
 C413 C 0.86399 0.10476 0.53188
 C414 C 0.84358 0.08597 0.53197
 C415 C 0.95430 0.17839 0.50506
 C416 C 0.83807 0.08853 0.48549
 C417 C 0.89365 0.13342 0.50824
 C418 C 0.91247 0.14809 0.50759
 C419 C 0.93487 0.16469 0.50642
 C420 C 0.83057 0.07743 0.50872
 H421 H 0.86419 0.11536 0.46733
 H422 H 0.87414 0.11070 0.54989
 H423 H 0.83849 0.07756 0.55011
 H424 H 0.82822 0.08260 0.46733
 C425 C 0.39478 0.63576 -0.03082
 C426 C 0.38432 0.62792 -0.00759
 C427 C 0.39234 0.64092 0.01560
 C428 C 0.41108 0.66137 0.01564
 C429 C 0.32139 0.54504 -0.00456
 C430 C 0.41351 0.65623 -0.03082
 C431 C 0.36626 0.60583 -0.00732
 C432 C 0.35163 0.58697 -0.00678
 C433 C 0.33507 0.56451 -0.00576
 C434 C 0.42209 0.66908 -0.00753
 H435 H 0.38881 0.62573 -0.04886
 H436 H 0.38438 0.63501 0.03369
 H437 H 0.41704 0.67109 0.03383
 H438 H 0.42184 0.66149 -0.04892
 C439 C 0.13809 -0.10936 0.46703
 C440 C 0.12707 -0.11561 0.49047
 C441 C 0.13697 -0.10352 0.51348
 C442 C 0.15758 -0.08501 0.51308
 C443 C 0.04436 -0.17861 0.49450
 C444 C 0.15872 -0.09082 0.46657
 C445 C 0.10498 -0.13364 0.49091
 C446 C 0.08615 -0.14828 0.49167
 C447 C 0.06375 -0.16488 0.49299
 C448 C 0.16857 -0.07829 0.48959
 H449 H 0.13057 -0.11859 0.44909
 H450 H 0.12849 -0.10810 0.53172
 H451 H 0.16443 -0.07544 0.53107
 H452 H 0.16695 -0.08627 0.44823
 C453 C 0.60913 0.36093 1.03138
 C454 C 0.61535 0.37211 1.00798
 C455 C 0.60319 0.36239 0.98491
 C456 C 0.58463 0.34182 0.98523
 C457 C 0.67840 0.45487 1.00467
 C458 C 0.59055 0.34034 1.03176
 C459 C 0.63341 0.39419 1.00763
 C460 C 0.64806 0.41303 1.00702
 C461 C 0.66467 0.43544 1.00592
 C462 C 0.57793 0.33068 1.00869
 H463 H 0.61842 0.36831 1.04936
 H464 H 0.60775 0.37100 0.96670
 H465 H 0.57500 0.33512 0.96720
 H466 H 0.58602 0.33200 1.05008
 C467 C 0.51227 0.14133 1.11818
 C468 C 0.48962 0.13126 1.12892
 C469 C 0.46602 0.14215 1.12314
 C470 C 0.46502 0.16271 1.10628
 C471 C 0.49504 0.04731 1.18306
 C472 C 0.51132 0.16187 1.10133
 C473 C 0.49050 0.10894 1.14477
 C474 C 0.49157 0.08984 1.15743
 C475 C 0.49324 0.06706 1.17155
 C476 C 0.48762 0.17261 1.09494
 H477 H 0.53062 0.13294 1.12239
 H478 H 0.44836 0.13448 1.13133
 H479 H 0.44654 0.17074 1.10196
 H480 H 0.52900 0.16874 1.09264
 C481 C 0.01670 0.61925 0.64101
 C482 C -0.00603 0.62961 0.63150
 C483 C -0.02953 0.62343 0.64297
 C484 C -0.03040 0.60654 0.66352
 C485 C -0.00217 0.68358 0.54721
 C486 C 0.01588 0.60237 0.66155
 C487 C -0.00536 0.64542 0.60913
 C488 C -0.00459 0.65803 0.58996
 C489 C -0.00343 0.67211 0.56708
 C490 C -0.00774 0.59555 0.67285
 H491 H 0.03497 0.62377 0.63217
 H492 H -0.04724 0.63133 0.63574
 H493 H -0.04882 0.60190 0.67200
 H494 H 0.03359 0.59396 0.66799
 C495 C 0.48601 0.85556 -0.12340
 C496 C 0.50901 0.86943 -0.12884
 C497 C 0.53250 0.86241 -0.11764
 C498 C 0.53293 0.84193 -0.10065
 C499 C 0.50403 0.95329 -0.18319
 C500 C 0.48640 0.83511 -0.10641
 C501 C 0.50826 0.89173 -0.14474
 C502 C 0.50729 0.91081 -0.15744
 C503 C 0.50573 0.93356 -0.17163
 C504 C 0.50983 0.82827 -0.09457
 H505 H 0.46772 0.86085 -0.13195
 H506 H 0.55039 0.87312 -0.12158
 H507 H 0.55122 0.83737 -0.09159
 H508 H 0.46834 0.82477 -0.10235
 C509 C 0.98278 0.37635 0.35570
 C510 C 1.00588 0.37132 0.36898
 C511 C 1.02929 0.38292 0.36134
 C512 C 1.02956 0.39989 0.34085
 C513 C 1.00253 0.31702 0.45307
 C514 C 0.98300 0.39334 0.33522
 C515 C 1.00535 0.35543 0.39130
 C516 C 1.00470 0.34275 0.41043
 C517 C 1.00367 0.32857 0.43325
 C518 C 1.00636 0.40556 0.32777
 H519 H 0.96453 0.36750 0.36146
 H520 H 1.04727 0.37929 0.37159
 H521 H 1.04781 0.40926 0.33583
 H522 H 0.96487 0.39707 0.32534
 C523 C 0.49035 0.86090 0.10702
 C524 C 0.51331 0.87137 0.11906
 C525 C 0.53689 0.86094 0.11333
 C526 C 0.53754 0.84036 0.09532
 C527 C 0.50779 0.95406 0.17940
 C528 C 0.49095 0.84035 0.08904
 C529 C 0.51264 0.89346 0.13645
 C530 C 0.51159 0.91230 0.15050
 C531 C 0.50980 0.93469 0.16636
 C532 C 0.51458 0.82997 0.08280
 H533 H 0.47201 0.86892 0.11119
 H534 H 0.55479 0.86892 0.12253
 H535 H 0.55600 0.83262 0.09114
 H536 H 0.47299 0.83310 0.07945
 C537 C -0.03286 0.39089 0.63661
 C538 C -0.00969 0.38072 0.62912
 C539 C 0.01352 0.38845 0.64247
 C540 C 0.01368 0.40668 0.66288
 C541 C -0.00627 0.32079 0.54584
 C542 C -0.03276 0.40912 0.65706
 C543 C -0.00944 0.36338 0.60693
 C544 C -0.00884 0.34943 0.58798
 C545 C -0.00767 0.33371 0.56541
 C546 C -0.00942 0.41748 0.67020
 H547 H -0.05092 0.38515 0.62631
 H548 H 0.03157 0.38070 0.63683
 H549 H 0.03189 0.41247 0.67284
 H550 H -0.05080 0.41730 0.66202
 C551 C 0.46370 0.13543 0.89090
 C552 C 0.48702 0.12847 0.88053
 C553 C 0.51011 0.14233 0.88808
 C554 C 0.51000 0.16273 0.90630
 C555 C 0.49204 0.04543 0.82058
 C556 C 0.46354 0.15586 0.90911
 C557 C 0.48756 0.10632 0.86319
 C558 C 0.48849 0.08741 0.84923
 C559 C 0.49015 0.06491 0.83350
 C560 C 0.48676 0.16952 0.91727
 H561 H 0.44574 0.12472 0.88529
 H562 H 0.52827 0.13711 0.88019
 H563 H 0.52813 0.17309 0.91194
 H564 H 0.44539 0.16042 0.91743
 C565 C 1.03480 0.61392 0.36044
 C566 C 1.01134 0.61943 0.37142
 C567 C 0.98823 0.60720 0.36145
 C568 C 0.98856 0.58924 0.34085
 C569 C 1.00734 0.67948 0.45455
 C570 C 1.03518 0.59594 0.33981
 C571 C 1.01097 0.63675 0.39360
 C572 C 1.01023 0.65073 0.41253
 C573 C 1.00889 0.66650 0.43504
 C574 C 1.01207 0.58322 0.32993
 H575 H 1.05281 0.62327 0.36802
 H576 H 0.96998 0.61120 0.36991
 H577 H 0.97049 0.57950 0.33399
 H578 H 1.05354 0.59193 0.33164
 C579 C 1.12083 0.51818 0.14143
 C580 C 1.13113 0.49543 0.13215
 C581 C 1.12504 0.47198 0.14386
 C582 C 1.10826 0.47118 0.16441
 C583 C 1.18432 0.49863 0.04768
 C584 C 1.10407 0.51743 0.16196
 C585 C 1.14677 0.49600 0.10975
 C586 C 1.15921 0.49664 0.09055
 C587 C 1.17306 0.49760 0.06761
 C588 C 1.09732 0.49386 0.17348
 H589 H 1.12529 0.53642 0.13240
 H590 H 1.13288 0.45424 0.13682
 H591 H 1.10367 0.45279 0.17306
 H592 H 1.09569 0.53516 0.16821
 C593 C 0.63804 -0.03378 0.61887
 C594 C 0.63104 -0.01035 0.62999
 C595 C 0.64489 0.01268 0.62458
 C596 C 0.66530 0.01238 0.60766
 C597 C 0.54716 -0.00555 0.68371
 C598 C 0.65847 -0.03413 0.60196
 C599 C 0.60875 -0.00967 0.64575
 C600 C 0.58967 -0.00874 0.65832
 C601 C 0.56691 -0.00723 0.67233
 C602 C 0.67209 -0.01098 0.59589
 H603 H 0.62733 -0.05169 0.62280
 H604 H 0.63962 0.03093 0.63306
 H605 H 0.67562 0.03046 0.60361
 H606 H 0.66300 -0.05237 0.59295
 C607 C -0.11826 0.52783 0.86055
 C608 C -0.12988 0.50449 0.86842
 C609 C -0.12504 0.48133 0.85535
 C610 C -0.10821 0.48142 0.83486
 C611 C -0.18340 0.50200 0.95270
 C612 C -0.10143 0.52797 0.84005
 C613 C -0.14558 0.50412 0.89077
 C614 C -0.15809 0.50364 0.90993
 C615 C -0.17204 0.50287 0.93282
 C616 C -0.09594 0.50471 0.82720
 H617 H -0.12174 0.54585 0.87064
 H618 H -0.13392 0.46314 0.86129
 H619 H -0.10461 0.46325 0.82515
 H620 H -0.09203 0.54616 0.83487
 C621 C 0.35783 -0.01271 0.38055
 C622 C 0.36798 0.00996 0.36980
 C623 C 0.35716 0.03357 0.37541
 C624 C 0.33658 0.03458 0.39211
 C625 C 0.45203 0.00451 0.31642
 C626 C 0.33728 -0.01174 0.39724
 C627 C 0.39032 0.00907 0.35414
 C628 C 0.40945 0.00799 0.34166
 C629 C 0.43225 0.00632 0.32774
 C630 C 0.32661 0.01197 0.40346
 H631 H 0.36617 -0.03106 0.37648
 H632 H 0.36488 0.05124 0.36721
 H633 H 0.32861 0.05307 0.39629
 H634 H 0.33035 -0.02943 0.40595
 C635 C 0.10602 0.48657 0.86187
 C636 C 0.11826 0.50973 0.87161
 C637 C 0.11260 0.53313 0.86039
 C638 C 0.09446 0.53340 0.83976
 C639 C 0.17910 0.50656 0.95474
 C640 C 0.08789 0.48679 0.84127
 C641 C 0.13577 0.50948 0.89378
 C642 C 0.14992 0.50892 0.91271
 C643 C 0.16591 0.50784 0.93523
 C644 C 0.08172 0.51024 0.83011
 H645 H 0.11013 0.46836 0.87051
 H646 H 0.12196 0.55118 0.86778
 H647 H 0.09034 0.55172 0.83141
 H648 H 0.07815 0.46869 0.83458
 C649 C 0.63842 0.00918 0.39401
 C650 C 0.62799 -0.01376 0.38199
 C651 C 0.63847 -0.03733 0.38788
 C652 C 0.65909 -0.03799 0.40600
 C653 C 0.54529 -0.00826 0.32100
 C654 C 0.65901 0.00857 0.41210
 C655 C 0.60588 -0.01308 0.36445
 C656 C 0.58704 -0.01203 0.35026
 C657 C 0.56466 -0.01025 0.33422
 C658 C 0.66946 -0.01505 0.41847
 H659 H 0.63035 0.02751 0.38972
 H660 H 0.63053 -0.05522 0.37870
 H661 H 0.66688 -0.05644 0.41028
 H662 H 0.66624 0.02652 0.42165
 C663 C 0.88997 0.51504 0.14204
 C664 C 0.88214 0.49179 0.12893
 C665 C 0.89237 0.46865 0.13666
 C666 C 0.91073 0.46881 0.15712
 C667 C 0.82138 0.49464 0.04571
 C668 C 0.90834 0.51525 0.16247
 C669 C 0.86460 0.49195 0.10676
 C670 C 0.85046 0.49244 0.08783
 C671 C 0.83451 0.49343 0.06527
 C672 C 0.91917 0.49218 0.17004
 H673 H 0.88219 0.53307 0.13622
 H674 H 0.88655 0.45056 0.12654
 H675 H 0.91893 0.45079 0.16227
 H676 H 0.91420 0.53349 0.17226
 C677 C 0.35723 -0.01132 0.61067
 C678 C 0.37106 0.01173 0.61833
 C679 C 0.36413 0.03510 0.60786
 C680 C 0.34374 0.03536 0.58945
 C681 C 0.45378 0.00657 0.67935
 C682 C 0.33688 -0.01112 0.59226
 C683 C 0.39313 0.01111 0.63593
 C684 C 0.41197 0.01014 0.65013
 C685 C 0.43438 0.00846 0.66616
 C686 C 0.33010 0.01219 0.58120
 H687 H 0.36243 -0.02953 0.61864
 H688 H 0.37481 0.05304 0.61355
 H689 H 0.33920 0.05356 0.58108
 H690 H 0.32652 -0.02921 0.58655
   
