data_POSCAR
  _audit_creation_date              2014-09-24
  _audit_creation_method            'ToBaCCo'
  _symmetry_space_group_name_H-M    'P1'
  _symmetry_Int_Tables_number       1
  _symmetry_cell_setting            triclinic
  loop_
  _symmetry_equiv_pos_as_xyz
 x,y,z
_cell_length_a 65.8750
_cell_length_b 36.6432
_cell_length_c 20.2255
_cell_angle_alpha 90.012700
_cell_angle_beta 89.990600
_cell_angle_gamma 90.024200
loop_
  _atom_site_label
  _atom_site_type_symbol
  _atom_site_fract_x
  _atom_site_fract_y
  _atom_site_fract_z
C1 C 0.73380 0.26480 0.53641
 C2 C 0.73391 0.26479 0.46665
 C3 C 0.75061 0.25059 0.43238
 C4 C 0.76724 0.23628 0.46692
 C5 C 0.76712 0.23616 0.53684
 C6 C 0.75040 0.25045 0.57107
 H7 H 0.75031 0.25040 0.62477
 H8 H 0.75062 0.25069 0.37871
 C9 C 0.23347 0.76350 0.53688
 C10 C 0.23341 0.76361 0.46722
 C11 C 0.25002 0.74936 0.43255
 C12 C 0.26667 0.73495 0.46676
 C13 C 0.26672 0.73473 0.53656
 C14 C 0.25010 0.74905 0.57120
 H15 H 0.25007 0.74900 0.62486
 H16 H 0.24998 0.74948 0.37892
 C17 C 0.26648 0.26276 -0.53496
 C18 C 0.26643 0.26262 -0.46531
 C19 C 0.24972 0.24851 -0.43096
 C20 C 0.23300 0.23444 -0.46549
 C21 C 0.23308 0.23449 -0.53543
 C22 C 0.24983 0.24868 -0.56963
 H23 H 0.24994 0.24880 -0.62329
 H24 H 0.24975 0.24852 -0.37730
 C25 C -0.23422 0.76487 -0.53514
 C26 C -0.23403 0.76411 -0.46551
 C27 C -0.25057 0.74942 -0.43110
 C28 C -0.26733 0.73546 -0.46555
 C29 C -0.26752 0.73622 -0.53546
 C30 C -0.25093 0.75094 -0.56973
 H31 H -0.25099 0.75160 -0.62338
 H32 H -0.25037 0.74889 -0.37745
 N33 N 0.02117 1.06522 -0.07115
 N34 N 0.03656 1.08781 -0.07995
 N35 N -0.02160 1.03975 -0.11648
 N36 N -0.03697 1.04434 -0.15749
 N37 N -0.02156 1.06522 -0.07078
 N38 N -0.03692 1.08788 -0.07939
 N39 N 0.02112 1.03974 -0.11685
 N40 N 0.03646 1.04427 -0.15804
 C41 C 0.04588 1.07432 -0.13427
 C42 C -0.04631 1.07442 -0.13358
 N43 N -0.02161 0.93586 -0.06988
 N44 N -0.03695 0.91312 -0.07825
 N45 N 0.02108 0.96114 -0.11629
 N46 N 0.03640 0.95637 -0.15747
 N47 N 0.02112 0.93588 -0.07021
 N48 N 0.03647 0.91321 -0.07872
 N49 N -0.02164 0.96113 -0.11594
 N50 N -0.03700 0.95630 -0.15696
 Mn51 Mn -0.00026 1.00044 -0.11717
 C52 C -0.04634 0.92630 -0.13268
 C53 C 0.04578 0.92642 -0.13327
 N54 N -0.02149 1.06555 0.07166
 N55 N -0.03686 1.08821 0.08022
 N56 N 0.02126 1.04029 0.11737
 N57 N 0.03663 1.04505 0.15832
 N58 N 0.02124 1.06555 0.07131
 N59 N 0.03661 1.08824 0.07961
 N60 N -0.02145 1.04027 0.11770
 N61 N -0.03678 1.04502 0.15890
 Mn62 Mn -0.00016 1.06583 0.00025
 C63 C -0.04617 1.07497 0.13476
 C64 C 0.04599 1.07501 0.13401
 N65 N 0.02125 0.93621 0.07225
 N66 N 0.03660 0.91354 0.08097
 N67 N -0.02144 0.96167 0.11826
 N68 N -0.03680 0.95715 0.15939
 N69 N -0.02148 0.93620 0.07256
 N70 N -0.03687 0.91361 0.08129
 N71 N 0.02127 0.96169 0.11794
 N72 N 0.03662 0.95708 0.15905
 Mn73 Mn -0.00018 0.93560 0.00118
 Mn74 Mn -0.00009 1.00098 0.11859
 Cl75 Cl -0.00017 1.00071 0.00071
 C76 C 0.04598 0.92700 0.13522
 C77 C -0.04620 0.92711 0.13557
 N78 N 0.52150 0.53912 0.11544
 N79 N 0.53685 0.54401 0.15647
 N80 N 0.47868 0.56401 0.06968
 N81 N 0.46325 0.58652 0.07826
 N82 N 0.47878 0.53869 0.11565
 N83 N 0.46344 0.54325 0.15682
 N84 N 0.52141 0.56443 0.06947
 N85 N 0.53670 0.58728 0.07792
 C86 C 0.54612 0.57411 0.13230
 C87 C 0.45397 0.57313 0.13272
 N88 N 0.47866 0.53843 -0.11858
 N89 N 0.46330 0.54296 -0.15969
 N90 N 0.52132 0.56426 -0.07296
 N91 N 0.53664 0.58703 -0.08159
 N92 N 0.52137 0.53884 -0.11875
 N93 N 0.53672 0.54357 -0.15985
 N94 N 0.47860 0.56385 -0.07277
 N95 N 0.46319 0.58639 -0.08142
 Mn96 Mn 0.50000 0.56458 -0.00164
 C97 C 0.45386 0.57293 -0.13574
 C98 C 0.54602 0.57368 -0.13591
 N99 N 0.47897 0.46010 0.11594
 N100 N 0.46366 0.45531 0.15719
 N101 N 0.52174 0.43508 0.06992
 N102 N 0.53717 0.41258 0.07850
 N103 N 0.52168 0.46051 0.11570
 N104 N 0.53706 0.45605 0.15674
 N105 N 0.47901 0.43467 0.07015
 N106 N 0.46372 0.41186 0.07893
 Mn107 Mn 0.50023 0.49961 0.11646
 C108 C 0.45436 0.42517 0.13334
 C109 C 0.54650 0.42610 0.13277
 N110 N 0.52161 0.46023 -0.11849
 N111 N 0.53695 0.45563 -0.15968
 N112 N 0.47897 0.43452 -0.07232
 N113 N 0.46365 0.41174 -0.08069
 N114 N 0.47890 0.45983 -0.11829
 N115 N 0.46353 0.45501 -0.15924
 N116 N 0.52170 0.43491 -0.07253
 N117 N 0.53711 0.41236 -0.08113
 Mn118 Mn 0.50014 0.49933 -0.11930
 Mn119 Mn 0.50036 0.43435 -0.00120
 Cl120 Cl 0.50018 0.49947 -0.00142
 C121 C 0.54641 0.42571 -0.13561
 C122 C 0.45424 0.42497 -0.13503
 C123 C 0.28354 0.27740 0.42883
 C124 C 0.29809 0.28998 0.40069
 C125 C 0.31571 0.30532 0.36910
 C126 C 0.32099 0.29489 0.30481
 C127 C 0.33828 0.30958 0.27472
 C128 C 0.35054 0.33486 0.30869
 C129 C 0.34506 0.34520 0.37329
 C130 C 0.32776 0.33053 0.40320
 C131 C 0.36898 0.35038 0.27702
 C132 C 0.38691 0.35538 0.31381
 C133 C 0.40421 0.37024 0.28418
 C134 C 0.40386 0.38031 0.21746
 C135 C 0.38614 0.37535 0.18036
 C136 C 0.36881 0.36047 0.20988
 C137 C 0.42165 0.39596 0.18731
 C138 C 0.43657 0.40921 0.16247
 H139 H 0.31181 0.27528 0.27807
 H140 H 0.34224 0.30073 0.22529
 H141 H 0.35400 0.36496 0.40042
 H142 H 0.32377 0.33888 0.45294
 H143 H 0.38762 0.34743 0.36531
 H144 H 0.41786 0.37387 0.31333
 H145 H 0.38568 0.38316 0.12872
 H146 H 0.35519 0.35739 0.18046
 C147 C -0.21732 0.77993 0.42856
 C148 C -0.20288 0.79279 0.40038
 C149 C -0.18535 0.80839 0.36884
 C150 C -0.17379 0.83458 0.40224
 C151 C -0.15648 0.84933 0.37257
 C152 C -0.15051 0.83806 0.30896
 C153 C -0.16231 0.81183 0.27563
 C154 C -0.17961 0.79707 0.30547
 C155 C -0.13201 0.85350 0.27773
 C156 C -0.13185 0.86254 0.21012
 C157 C -0.11443 0.87727 0.18095
 C158 C -0.09697 0.88309 0.21891
 C159 C -0.09696 0.87409 0.28613
 C160 C -0.11435 0.85940 0.31540
 C161 C -0.07909 0.89848 0.18909
 C162 C -0.06408 0.91148 0.16448
 H163 H -0.17814 0.84358 0.45127
 H164 H -0.14788 0.86981 0.39912
 H165 H -0.15796 0.80228 0.22697
 H166 H -0.18842 0.77667 0.27934
 H167 H -0.14528 0.85874 0.18003
 H168 H -0.11461 0.88425 0.12890
 H169 H -0.08350 0.87841 0.31591
 H170 H -0.11391 0.85225 0.36732
 C171 C 0.71632 0.72281 0.42960
 C172 C 0.70177 0.71074 0.40076
 C173 C 0.68410 0.69610 0.36839
 C174 C 0.66532 0.69675 0.40069
 C175 C 0.64815 0.68198 0.37016
 C176 C 0.64953 0.66633 0.30677
 C177 C 0.66849 0.66588 0.27464
 C178 C 0.68566 0.68068 0.30530
 C179 C 0.63130 0.65035 0.27461
 C180 C 0.63269 0.61741 0.23907
 C181 C 0.61545 0.60214 0.20962
 C182 C 0.59663 0.61957 0.21518
 C183 C 0.59511 0.65242 0.25014
 C184 C 0.61232 0.66772 0.27967
 C185 C 0.57885 0.60361 0.18557
 C186 C 0.56392 0.59018 0.16110
 H187 H 0.66397 0.70849 0.44967
 H188 H 0.63386 0.68228 0.39660
 H189 H 0.67000 0.65442 0.22553
 H190 H 0.70013 0.68005 0.27986
 H191 H 0.64702 0.60313 0.23501
 H192 H 0.61679 0.57663 0.18287
 H193 H 0.58063 0.66619 0.25462
 H194 H 0.61080 0.69333 0.30592
 C195 C 0.21704 1.22078 0.42957
 C196 C 0.20259 1.20835 0.40083
 C197 C 0.18502 1.19313 0.36889
 C198 C 0.17962 1.20420 0.30507
 C199 C 0.16230 1.18974 0.27485
 C200 C 0.15014 1.16409 0.30826
 C201 C 0.15576 1.15308 0.37234
 C202 C 0.17309 1.16751 0.40237
 C203 C 0.13164 1.14892 0.27663
 C204 C 0.11380 1.14370 0.31374
 C205 C 0.09643 1.12908 0.28419
 C206 C 0.09664 1.11950 0.21724
 C207 C 0.11427 1.12470 0.17979
 C208 C 0.13167 1.13935 0.20924
 C209 C 0.07881 1.10401 0.18727
 C210 C 0.06384 1.09087 0.16270
 H211 H 0.18872 1.22415 0.27887
 H212 H 0.15823 1.19907 0.22582
 H213 H 0.14689 1.13301 0.39897
 H214 H 0.17717 1.15870 0.45175
 H215 H 0.11321 1.15127 0.36546
 H216 H 0.08285 1.12524 0.31358
 H217 H 0.11461 1.11726 0.12795
 H218 H 0.14523 1.14263 0.17958
 C219 C 0.71768 0.27872 -0.42930
 C220 C 0.70316 0.29134 -0.40108
 C221 C 0.68555 0.30674 -0.36959
 C222 C 0.67369 0.33230 -0.40349
 C223 C 0.65636 0.34697 -0.37379
 C224 C 0.65065 0.33627 -0.30960
 C225 C 0.66272 0.31066 -0.27579
 C226 C 0.68005 0.29597 -0.30568
 C227 C 0.63215 0.35172 -0.27823
 C228 C 0.63212 0.36134 -0.21084
 C229 C 0.61473 0.37613 -0.18158
 C230 C 0.59714 0.38145 -0.21918
 C231 C 0.59699 0.37186 -0.28615
 C232 C 0.61436 0.35711 -0.31552
 C233 C 0.57927 0.39693 -0.18926
 C234 C 0.56428 0.41000 -0.16458
 H235 H 0.67785 0.34090 -0.45294
 H236 H 0.64757 0.36699 -0.40077
 H237 H 0.65859 0.30154 -0.22669
 H238 H 0.68907 0.27609 -0.27910
 H239 H 0.64564 0.35796 -0.18102
 H240 H 0.61503 0.38355 -0.12974
 H241 H 0.58345 0.37578 -0.31569
 H242 H 0.61380 0.34952 -0.36723
 C243 C 0.21655 0.77827 -0.42656
 C244 C 0.20209 0.79099 -0.39829
 C245 C 0.18455 0.80652 -0.36676
 C246 C 0.17892 0.79549 -0.30312
 C247 C 0.16164 0.81028 -0.27324
 C248 C 0.14974 0.83625 -0.30681
 C249 C 0.15559 0.84721 -0.37071
 C250 C 0.17288 0.83244 -0.40041
 C251 C 0.13129 0.85179 -0.27549
 C252 C 0.11356 0.85748 -0.31293
 C253 C 0.09623 0.87236 -0.28362
 C254 C 0.09636 0.88175 -0.21657
 C255 C 0.11388 0.87612 -0.17882
 C256 C 0.13124 0.86121 -0.20803
 C257 C 0.07855 0.89737 -0.18674
 C258 C 0.06360 0.91057 -0.16215
 H259 H 0.18781 0.77532 -0.27678
 H260 H 0.15739 0.80097 -0.22435
 H261 H 0.14692 0.86751 -0.39745
 H262 H 0.17714 0.84123 -0.44964
 H263 H 0.11303 0.85004 -0.36472
 H264 H 0.08273 0.87652 -0.31324
 H265 H 0.11416 0.88341 -0.12690
 H266 H 0.14472 0.85758 -0.17812
 C267 C 0.28279 0.72065 -0.42916
 C268 C 0.29727 0.70790 -0.40096
 C269 C 0.31485 0.69236 -0.36948
 C270 C 0.32033 0.70299 -0.30548
 C271 C 0.33763 0.68820 -0.27564
 C272 C 0.34969 0.66261 -0.30958
 C273 C 0.34399 0.65205 -0.37387
 C274 C 0.32669 0.66682 -0.40352
 C275 C 0.36817 0.64706 -0.27826
 C276 C 0.38597 0.64172 -0.31554
 C277 C 0.40332 0.62689 -0.28621
 C278 C 0.40314 0.61720 -0.21930
 C279 C 0.38554 0.62247 -0.18173
 C280 C 0.36817 0.63732 -0.21095
 C281 C 0.42100 0.60169 -0.18940
 C282 C 0.43599 0.58861 -0.16473
 H283 H 0.31132 0.72286 -0.27880
 H284 H 0.34175 0.69721 -0.22645
 H285 H 0.35278 0.63206 -0.40095
 H286 H 0.32255 0.65833 -0.45304
 H287 H 0.38655 0.64940 -0.36719
 H288 H 0.41688 0.62303 -0.31572
 H289 H 0.38522 0.61495 -0.12993
 H290 H 0.35464 0.64067 -0.18114
 C291 C -0.21692 1.22216 -0.42819
 C292 C -0.20253 1.20944 -0.39955
 C293 C -0.18504 1.19389 -0.36776
 C294 C -0.17954 1.20482 -0.30396
 C295 C -0.16227 1.19005 -0.27391
 C296 C -0.15029 1.16421 -0.30749
 C297 C -0.15602 1.15333 -0.37154
 C298 C -0.17329 1.16808 -0.40140
 C299 C -0.13184 1.14873 -0.27605
 C300 C -0.11406 1.14325 -0.31333
 C301 C -0.09673 1.12843 -0.28393
 C302 C -0.09692 1.11890 -0.21696
 C303 C -0.11450 1.12433 -0.17936
 C304 C -0.13185 1.13918 -0.20866
 C305 C -0.07911 1.10334 -0.18706
 C306 C -0.06415 1.09019 -0.16245
 H307 H -0.18849 1.22491 -0.27763
 H308 H -0.15811 1.19929 -0.22490
 H309 H -0.14728 1.13313 -0.39830
 H310 H -0.17746 1.15937 -0.45078
 H311 H -0.11348 1.15080 -0.36506
 H312 H -0.08318 1.12443 -0.31343
 H313 H -0.11482 1.11694 -0.12751
 H314 H -0.14538 1.14266 -0.17888
 C315 C 0.71670 0.72128 -0.43079
 C316 C 0.70230 0.70852 -0.40226
 C317 C 0.68478 0.69302 -0.37054
 C318 C 0.67209 0.66944 -0.40597
 C319 C 0.65481 0.65477 -0.37605
 C320 C 0.64999 0.66349 -0.31014
 C321 C 0.66289 0.68709 -0.27480
 C322 C 0.68017 0.70180 -0.30491
 C323 C 0.63153 0.64808 -0.27857
 C324 C 0.63204 0.63582 -0.21266
 C325 C 0.61468 0.62101 -0.18328
 C326 C 0.59661 0.61831 -0.21932
 C327 C 0.59593 0.63056 -0.28479
 C328 C 0.61326 0.64535 -0.31427
 C329 C 0.57879 0.60273 -0.18941
 C330 C 0.56384 0.58955 -0.16478
 H331 H 0.67557 0.66239 -0.45677
 H332 H 0.64534 0.63630 -0.40425
 H333 H 0.65945 0.69465 -0.22428
 H334 H 0.68985 0.72016 -0.27716
 H335 H 0.64594 0.63716 -0.18418
 H336 H 0.61538 0.61149 -0.13261
 H337 H 0.58200 0.62867 -0.31306
 H338 H 0.61231 0.65501 -0.36477
 C339 C 0.21682 1.22093 -0.43081
 C340 C 0.20223 1.20881 -0.40229
 C341 C 0.18447 1.19414 -0.37044
 C342 C 0.18565 1.18028 -0.30609
 C343 C 0.16839 1.16552 -0.27588
 C344 C 0.14974 1.16437 -0.30980
 C345 C 0.14873 1.17849 -0.37442
 C346 C 0.16598 1.19327 -0.40445
 C347 C 0.13142 1.14838 -0.27813
 C348 C 0.11799 1.12646 -0.31492
 C349 C 0.10071 1.11154 -0.28526
 C350 C 0.09659 1.11830 -0.21850
 C351 C 0.10986 1.14000 -0.18141
 C352 C 0.12718 1.15494 -0.21096
 C353 C 0.07874 1.10296 -0.18824
 C354 C 0.06375 1.08997 -0.16337
 H355 H 0.19991 1.18068 -0.27943
 H356 H 0.16971 1.15446 -0.22643
 H357 H 0.13456 1.17847 -0.40151
 H358 H 0.16490 1.20402 -0.45423
 H359 H 0.12098 1.12047 -0.36644
 H360 H 0.09058 1.09467 -0.31439
 H361 H 0.10680 1.14548 -0.12972
 H362 H 0.13708 1.17205 -0.18154
 C363 C 0.28349 0.27687 -0.42876
 C364 C 0.29810 0.28901 -0.40043
 C365 C 0.31585 0.30372 -0.36880
 C366 C 0.31467 0.31781 -0.30461
 C367 C 0.33193 0.33268 -0.27464
 C368 C 0.35056 0.33370 -0.30865
 C369 C 0.35157 0.31933 -0.37309
 C370 C 0.33433 0.30443 -0.40289
 C371 C 0.36885 0.34985 -0.27730
 C372 C 0.38219 0.37179 -0.31438
 C373 C 0.39945 0.38691 -0.28500
 C374 C 0.40363 0.38031 -0.21825
 C375 C 0.39045 0.35858 -0.18086
 C376 C 0.37316 0.34345 -0.21014
 C377 C 0.42144 0.39587 -0.18830
 C378 C 0.43641 0.40905 -0.16372
 H379 H 0.30041 0.31752 -0.27793
 H380 H 0.33061 0.34393 -0.22532
 H381 H 0.36575 0.31926 -0.40021
 H382 H 0.33540 0.29350 -0.45255
 H383 H 0.37914 0.37764 -0.36591
 H384 H 0.40952 0.40379 -0.31432
 H385 H 0.39358 0.35325 -0.12917
 H386 H 0.36332 0.32633 -0.18053
 C387 C -0.21691 0.77832 -0.42904
 C388 C -0.20230 0.79045 -0.40063
 C389 C -0.18459 0.80516 -0.36864
 C390 C -0.16635 0.80804 -0.40374
 C391 C -0.14913 0.82274 -0.37337
 C392 C -0.14992 0.83475 -0.30732
 C393 C -0.16833 0.83167 -0.27240
 C394 C -0.18554 0.81697 -0.30292
 C395 C -0.13163 0.85057 -0.27520
 C396 C -0.13331 0.88120 -0.23354
 C397 C -0.11605 0.89634 -0.20404
 C398 C -0.09690 0.88108 -0.21567
 C399 C -0.09509 0.85053 -0.25677
 C400 C -0.11232 0.83536 -0.28635
 C401 C -0.07910 0.89695 -0.18599
 C402 C -0.06416 0.91031 -0.16148
 H403 H -0.16546 0.79908 -0.45472
 H404 H -0.13528 0.82520 -0.40188
 H405 H -0.16936 0.84026 -0.22129
 H406 H -0.19958 0.81482 -0.27528
 H407 H -0.14791 0.89383 -0.22465
 H408 H -0.11762 0.92007 -0.17249
 H409 H -0.08035 0.83844 -0.26600
 H410 H -0.11056 0.81151 -0.31743
 C411 C 0.28365 0.72057 0.42981
 C412 C 0.29817 0.70835 0.40119
 C413 C 0.31584 0.69356 0.36924
 C414 C 0.31459 0.67984 0.30481
 C415 C 0.33178 0.66495 0.27448
 C416 C 0.35042 0.66356 0.30838
 C417 C 0.35151 0.67755 0.37308
 C418 C 0.33433 0.69245 0.40322
 C419 C 0.36865 0.64744 0.27661
 C420 C 0.38194 0.62517 0.31319
 C421 C 0.39916 0.61016 0.28346
 C422 C 0.40335 0.61718 0.21685
 C423 C 0.39022 0.63922 0.17995
 C424 C 0.37296 0.65425 0.20959
 C425 C 0.42116 0.60180 0.18658
 C426 C 0.43612 0.58879 0.16173
 H427 H 0.30032 0.68044 0.27820
 H428 H 0.33041 0.65400 0.22496
 H429 H 0.36569 0.67732 0.40011
 H430 H 0.33546 0.70311 0.45307
 H431 H 0.37888 0.61901 0.36460
 H432 H 0.40920 0.59303 0.31240
 H433 H 0.39336 0.64488 0.12838
 H434 H 0.36316 0.67163 0.18037
 C435 C -0.21661 1.22268 0.43222
 C436 C -0.20205 1.21048 0.40365
 C437 C -0.18435 1.19571 0.37169
 C438 C -0.18553 1.18225 0.30705
 C439 C -0.16833 1.16740 0.27671
 C440 C -0.14971 1.16576 0.31077
 C441 C -0.14869 1.17948 0.37569
 C442 C -0.16589 1.19435 0.40585
 C443 C -0.13146 1.14967 0.27896
 C444 C -0.11819 1.12731 0.31543
 C445 C -0.10096 1.11229 0.28564
 C446 C -0.09674 1.11938 0.21907
 C447 C -0.10985 1.14152 0.18229
 C448 C -0.12711 1.15657 0.21197
 C449 C -0.07894 1.10392 0.18869
 C450 C -0.06400 1.09081 0.16379
 H451 H -0.19977 1.18304 0.28027
 H452 H -0.16967 1.15666 0.22702
 H453 H -0.13454 1.17907 0.40290
 H454 H -0.16479 1.20479 0.45586
 H455 H -0.12126 1.12106 0.36679
 H456 H -0.09095 1.09508 0.31452
 H457 H -0.10670 1.14726 0.13074
 H458 H -0.13689 1.17401 0.18280
 C459 C 0.71694 0.27918 0.42973
 C460 C 0.70241 0.29139 0.40113
 C461 C 0.68474 0.30615 0.36919
 C462 C 0.68601 0.32003 0.30488
 C463 C 0.66881 0.33487 0.27455
 C464 C 0.65014 0.33607 0.30833
 C465 C 0.64904 0.32193 0.37291
 C466 C 0.66622 0.30707 0.40306
 C467 C 0.63190 0.35212 0.27656
 C468 C 0.61854 0.37422 0.31323
 C469 C 0.60130 0.38917 0.28350
 C470 C 0.59717 0.38225 0.21681
 C471 C 0.61038 0.36039 0.17983
 C472 C 0.62765 0.34543 0.20946
 C473 C 0.57935 0.39755 0.18655
 C474 C 0.56437 0.41050 0.16172
 H475 H 0.70029 0.31957 0.27836
 H476 H 0.67020 0.34594 0.22512
 H477 H 0.63483 0.32200 0.39985
 H478 H 0.66507 0.29629 0.45281
 H479 H 0.62155 0.38029 0.36470
 H480 H 0.59120 0.40615 0.31250
 H481 H 0.60729 0.35481 0.12819
 H482 H 0.63752 0.32818 0.18017
 C483 C 0.21636 0.77824 0.43100
 C484 C 0.20179 0.79066 0.40284
 C485 C 0.18410 0.80567 0.37120
 C486 C 0.16569 0.80720 0.40560
 C487 C 0.14850 0.82223 0.37566
 C488 C 0.14949 0.83592 0.31073
 C489 C 0.16807 0.83412 0.27644
 C490 C 0.18526 0.81912 0.30657
 C491 C 0.13124 0.85211 0.27907
 C492 C 0.12683 0.84520 0.21214
 C493 C 0.10958 0.86033 0.18258
 C494 C 0.09654 0.88258 0.21945
 C495 C 0.10082 0.88969 0.28598
 C496 C 0.11804 0.87457 0.31564
 C497 C 0.07874 0.89809 0.18919
 C498 C 0.06380 0.91120 0.16431
 H499 H 0.16462 0.79676 0.45561
 H500 H 0.13438 0.82276 0.40304
 H501 H 0.16938 0.84484 0.22674
 H502 H 0.19946 0.81819 0.27959
 H503 H 0.13655 0.82767 0.18290
 H504 H 0.10639 0.85458 0.13108
 H505 H 0.09086 0.90697 0.31493
 H506 H 0.12116 0.88083 0.36697
   
