data_POSCAR
  _audit_creation_date              2014-09-24
  _audit_creation_method            'ToBaCCo'
  _symmetry_space_group_name_H-M    'P1'
  _symmetry_Int_Tables_number       1
  _symmetry_cell_setting            triclinic
  loop_
  _symmetry_equiv_pos_as_xyz
 x,y,z
_cell_length_a 28.3197
_cell_length_b 28.3197
_cell_length_c 28.3197
_cell_angle_alpha 88.184800
_cell_angle_beta 88.184800
_cell_angle_gamma 88.184800
loop_
  _atom_site_label
  _atom_site_type_symbol
  _atom_site_fract_x
  _atom_site_fract_y
  _atom_site_fract_z
C1 C 0.76120 0.61179 0.99967
 C2 C 0.74949 0.37282 0.50935
 C3 C 0.24949 -0.12718 0.00936
 C4 C 0.26120 0.11179 0.49967
 C5 C 0.11179 0.49967 0.26120
 C6 C -0.12718 0.00935 0.24949
 C7 C 0.37282 0.50935 0.74949
 C8 C 0.61179 0.99967 0.76120
 C9 C 0.00935 0.24950 -0.12718
 C10 C 0.49967 0.26120 0.11179
 C11 C 0.99967 0.76120 0.61179
 C12 C 0.50936 0.74949 0.37282
 C13 C 0.45591 -0.04691 0.29404
 H14 H 0.45928 -0.01311 0.31016
 C15 C 0.47793 -0.08747 0.31390
 H16 H 0.49870 -0.08476 0.34511
 C17 C 0.42135 -0.09276 0.23640
 H18 H 0.39773 -0.09530 0.20750
 C19 C 0.44275 -0.13402 0.25507
 H20 H 0.43586 -0.16776 0.24008
 N21 N 0.42743 -0.05039 0.25657
 C22 C 0.39039 0.08842 0.19405
 H23 H 0.35286 0.08257 0.19340
 C24 C 0.40806 0.13080 0.17611
 H25 H 0.38420 0.15742 0.16096
 C26 C 0.46716 0.06079 0.21500
 H27 H 0.48976 0.03339 0.23051
 C28 C 0.48646 0.10303 0.19719
 H29 H 0.52415 0.10804 0.19844
 Zn30 Zn 0.38735 0.00185 0.23893
 N31 N 0.41975 0.05467 0.21343
 C32 C 0.36045 0.06563 0.30897
 N33 N 0.35330 0.02120 0.29420
 C34 C 0.32662 -0.00954 0.32074
 C35 C 0.30566 0.00442 0.36384
 C36 C 0.34027 0.08085 0.35141
 C37 C 0.37066 -0.02217 0.14819
 C38 C 0.34707 -0.03915 0.11019
 C39 C 0.27620 -0.04380 0.15982
 C40 C 0.30121 -0.02631 0.19712
 N41 N 0.34789 -0.01697 0.19080
 H42 H 0.38296 0.08921 0.28870
 H43 H 0.32250 -0.04510 0.30896
 H44 H 0.28471 -0.02014 0.38503
 H45 H 0.34661 0.11623 0.36277
 H46 H 0.40776 -0.01444 0.14425
 H47 H 0.36608 -0.04472 0.07692
 H48 H 0.23957 -0.05301 0.16533
 H49 H 0.28379 -0.02160 0.23121
 C50 C 0.45638 0.13841 0.17793
 C51 C 0.47038 -0.13156 0.29483
 C52 C 0.29969 -0.05077 0.11618
 C53 C 0.31292 0.05006 0.37926
 C54 C 0.06215 1.04411 0.80689
 H55 H 0.05527 1.01033 0.82425
 C56 C 0.04202 1.08568 0.82530
 H57 H 0.01915 1.08386 0.85666
 C58 C 0.10290 1.08841 0.74690
 H59 H 0.12804 1.08975 0.71747
 C60 C 0.08355 1.13066 0.76411
 H61 H 0.09336 1.16404 0.74743
 N62 N 0.09252 1.04625 0.76874
 C63 C 0.11812 0.90500 0.71384
 H64 H 0.15622 0.90570 0.71518
 C65 C 0.09703 0.86690 0.69417
 H66 H 0.11893 0.83821 0.68019
 C67 C 0.04331 0.94268 0.72878
 H68 H 0.02287 0.97281 0.74157
 C69 C 0.02061 0.90504 0.70892
 H70 H -0.01749 0.90610 0.70637
 Zn71 Zn 0.12819 0.99134 0.75115
 N72 N 0.09132 0.94187 0.73060
 C73 C 0.15088 0.92636 0.82393
 N74 N 0.16223 0.96924 0.80449
 C75 C 0.19349 0.99704 0.82531
 C76 C 0.21503 0.98150 0.86718
 C77 C 0.17149 0.90961 0.86534
 C78 C 0.14256 1.01491 0.65824
 C79 C 0.16531 1.02956 0.61641
 C80 C 0.23927 1.02694 0.65698
 C81 C 0.21499 1.01176 0.69835
 N82 N 0.16728 1.00720 0.69828
 H83 H 0.12468 0.90545 0.80828
 H84 H 0.20091 1.03158 0.80997
 H85 H 0.23956 1.00378 0.88390
 H86 H 0.16174 0.87557 0.88059
 H87 H 0.10467 1.01094 0.65929
 H88 H 0.14487 1.03724 0.58521
 H89 H 0.27690 1.03259 0.65741
 H90 H 0.23393 1.00502 0.73053
 C91 C 0.04796 0.86699 0.69126
 C92 C 0.05353 1.12939 0.80416
 C93 C 0.21387 1.03638 0.61587
 C94 C 0.20361 0.93737 0.88734
 C95 C 0.56215 0.54410 0.30689
 H96 H 0.55528 0.51033 0.32425
 C97 C 0.54202 0.58567 0.32530
 H98 H 0.51915 0.58385 0.35666
 C99 C 0.60290 0.58840 0.24689
 H100 H 0.62803 0.58974 0.21746
 C101 C 0.58355 0.63065 0.26410
 H102 H 0.59336 0.66403 0.24743
 N103 N 0.59252 0.54624 0.26873
 C104 C 0.61812 0.40499 0.21383
 H105 H 0.65622 0.40569 0.21517
 C106 C 0.59703 0.36690 0.19416
 H107 H 0.61893 0.33820 0.18019
 C108 C 0.54331 0.44268 0.22878
 H109 H 0.52287 0.47280 0.24158
 C110 C 0.52061 0.40503 0.20892
 H111 H 0.48251 0.40609 0.20638
 Zn112 Zn 0.62819 0.49134 0.25115
 N113 N 0.59132 0.44186 0.23060
 C114 C 0.65089 0.42635 0.32392
 N115 N 0.66224 0.46924 0.30448
 C116 C 0.69349 0.49703 0.32531
 C117 C 0.71503 0.48149 0.36718
 C118 C 0.67150 0.40960 0.36534
 C119 C 0.64256 0.51490 0.15823
 C120 C 0.66531 0.52956 0.11640
 C121 C 0.73927 0.52694 0.15698
 C122 C 0.71499 0.51176 0.19835
 N123 N 0.66728 0.50719 0.19828
 H124 H 0.62469 0.40544 0.30827
 H125 H 0.70091 0.53158 0.30997
 H126 H 0.73956 0.50378 0.38390
 H127 H 0.66175 0.37556 0.38058
 H128 H 0.60467 0.51093 0.15929
 H129 H 0.64487 0.53724 0.08521
 H130 H 0.77690 0.53259 0.15740
 H131 H 0.73393 0.50502 0.23052
 C132 C 0.54796 0.36698 0.19126
 C133 C 0.55354 0.62939 0.30416
 C134 C 0.71387 0.53637 0.11586
 C135 C 0.70362 0.43736 0.38733
 C136 C 0.95591 0.45310 0.79403
 H137 H 0.95927 0.48690 0.81016
 C138 C 0.97793 0.41254 0.81390
 H139 H 0.99870 0.41525 0.84512
 C140 C 0.92135 0.40725 0.73640
 H141 H 0.89773 0.40471 0.70750
 C142 C 0.94275 0.36598 0.75507
 H143 H 0.93586 0.33225 0.74008
 N144 N 0.92743 0.44962 0.75656
 C145 C 0.89039 0.58842 0.69404
 H146 H 0.85286 0.58258 0.69339
 C147 C 0.90806 0.63080 0.67610
 H148 H 0.88420 0.65743 0.66096
 C149 C 0.96716 0.56080 0.71500
 H150 H 0.98975 0.53340 0.73051
 C151 C 0.98645 0.60304 0.69719
 H152 H 1.02414 0.60805 0.69845
 Zn153 Zn 0.88735 0.50185 0.73893
 N154 N 0.91975 0.55468 0.71342
 C155 C 0.86045 0.56564 0.80896
 N156 N 0.85330 0.52120 0.79420
 C157 C 0.82662 0.49047 0.82073
 C158 C 0.80566 0.50442 0.86384
 C159 C 0.84027 0.58086 0.85140
 C160 C 0.87066 0.47784 0.64818
 C161 C 0.84707 0.46085 0.61018
 C162 C 0.77621 0.45620 0.65982
 C163 C 0.80121 0.47369 0.69711
 N164 N 0.84789 0.48304 0.69080
 H165 H 0.88295 0.58922 0.78869
 H166 H 0.82250 0.45491 0.80896
 H167 H 0.78471 0.47987 0.88503
 H168 H 0.84659 0.61624 0.86277
 H169 H 0.90776 0.48557 0.64424
 H170 H 0.86608 0.45529 0.57691
 H171 H 0.73957 0.44699 0.66532
 H172 H 0.78379 0.47840 0.73121
 C173 C 0.95638 0.63842 0.67793
 C174 C 0.97038 0.36844 0.79483
 C175 C 0.79969 0.44923 0.61618
 C176 C 0.81291 0.55006 0.87925
 C177 C 0.29404 0.45591 -0.04690
 H178 H 0.31017 0.45927 -0.01310
 C179 C 0.31390 0.47793 -0.08747
 H180 H 0.34512 0.49870 -0.08476
 C181 C 0.23640 0.42135 -0.09276
 H182 H 0.20750 0.39773 -0.09529
 C183 C 0.25507 0.44275 -0.13402
 H184 H 0.24008 0.43586 -0.16776
 N185 N 0.25656 0.42743 -0.05038
 C186 C 0.19405 0.39039 0.08842
 H187 H 0.19339 0.35286 0.08258
 C188 C 0.17610 0.40806 0.13080
 H189 H 0.16096 0.38420 0.15743
 C190 C 0.21500 0.46716 0.06080
 H191 H 0.23051 0.48975 0.03340
 C192 C 0.19719 0.48646 0.10304
 H193 H 0.19845 0.52415 0.10805
 Zn194 Zn 0.23893 0.38735 0.00185
 N195 N 0.21342 0.41975 0.05467
 C196 C 0.30897 0.36045 0.06564
 N197 N 0.29420 0.35330 0.02120
 C198 C 0.32074 0.32662 -0.00953
 C199 C 0.36384 0.30566 0.00442
 C200 C 0.35141 0.34027 0.08086
 C201 C 0.14818 0.37066 -0.02217
 C202 C 0.11018 0.34707 -0.03915
 C203 C 0.15982 0.27621 -0.04380
 C204 C 0.19711 0.30121 -0.02631
 N205 N 0.19080 0.34789 -0.01696
 H206 H 0.28869 0.38296 0.08922
 H207 H 0.30896 0.32250 -0.04509
 H208 H 0.38503 0.28470 -0.02013
 H209 H 0.36277 0.34660 0.11624
 H210 H 0.14425 0.40776 -0.01443
 H211 H 0.07691 0.36608 -0.04471
 H212 H 0.16532 0.23957 -0.05301
 H213 H 0.23121 0.28379 -0.02160
 C214 C 0.17793 0.45638 0.13842
 C215 C 0.29483 0.47038 -0.13156
 C216 C 0.11618 0.29969 -0.05077
 C217 C 0.37925 0.31291 0.05006
 C218 C 0.80689 0.06215 1.04410
 H219 H 0.82425 0.05528 1.01033
 C220 C 0.82530 0.04202 1.08567
 H221 H 0.85666 0.01915 1.08385
 C222 C 0.74689 0.10290 1.08840
 H223 H 0.71746 0.12803 1.08974
 C224 C 0.76411 0.08355 1.13065
 H225 H 0.74743 0.09336 1.16403
 N226 N 0.76873 0.09252 1.04624
 C227 C 0.71383 0.11812 0.90499
 H228 H 0.71517 0.15622 0.90570
 C229 C 0.69416 0.09703 0.86690
 H230 H 0.68019 0.11893 0.83820
 C231 C 0.72878 0.04331 0.94268
 H232 H 0.74158 0.02287 0.97280
 C233 C 0.70892 0.02061 0.90503
 H234 H 0.70638 -0.01749 0.90609
 Zn235 Zn 0.75115 0.12819 0.99134
 N236 N 0.73060 0.09132 0.94186
 C237 C 0.82392 0.15088 0.92635
 N238 N 0.80448 0.16223 0.96924
 C239 C 0.82531 0.19349 0.99703
 C240 C 0.86718 0.21503 0.98149
 C241 C 0.86534 0.17150 0.90960
 C242 C 0.65824 0.14256 1.01490
 C243 C 0.61640 0.16531 1.02956
 C244 C 0.65698 0.23926 1.02694
 C245 C 0.69835 0.21499 1.01176
 N246 N 0.69828 0.16728 1.00719
 H247 H 0.80827 0.12468 0.90544
 H248 H 0.80997 0.20091 1.03158
 H249 H 0.88390 0.23956 1.00378
 H250 H 0.88058 0.16175 0.87556
 H251 H 0.65929 0.10467 1.01093
 H252 H 0.58521 0.14487 1.03724
 H253 H 0.65740 0.27689 1.03259
 H254 H 0.73052 0.23393 1.00502
 C255 C 0.69126 0.04796 0.86698
 C256 C 0.80416 0.05354 1.12939
 C257 C 0.61587 0.21387 1.03637
 C258 C 0.88733 0.20362 0.93736
 C259 C 0.30689 0.56215 0.54411
 H260 H 0.32425 0.55527 0.51033
 C261 C 0.32530 0.54202 0.58568
 H262 H 0.35666 0.51915 0.58385
 C263 C 0.24689 0.60290 0.58840
 H264 H 0.21746 0.62804 0.58974
 C265 C 0.26411 0.58355 0.63066
 H266 H 0.24743 0.59336 0.66404
 N267 N 0.26873 0.59252 0.54625
 C268 C 0.21383 0.61812 0.40499
 H269 H 0.21517 0.65622 0.40570
 C270 C 0.19416 0.59703 0.36690
 H271 H 0.18019 0.61893 0.33821
 C272 C 0.22878 0.54331 0.44268
 H273 H 0.24157 0.52287 0.47281
 C274 C 0.20892 0.52061 0.40504
 H275 H 0.20637 0.48251 0.40610
 Zn276 Zn 0.25115 0.62819 0.49134
 N277 N 0.23060 0.59132 0.44187
 C278 C 0.32392 0.65088 0.42636
 N279 N 0.30449 0.66223 0.46924
 C280 C 0.32531 0.69349 0.49704
 C281 C 0.36718 0.71502 0.48149
 C282 C 0.36534 0.67150 0.40961
 C283 C 0.15824 0.64256 0.51491
 C284 C 0.11641 0.66531 0.52956
 C285 C 0.15698 0.73927 0.52694
 C286 C 0.19835 0.71499 0.51176
 N287 N 0.19828 0.66728 0.50719
 H288 H 0.30828 0.62468 0.40545
 H289 H 0.30997 0.70091 0.53158
 H290 H 0.38390 0.73956 0.50378
 H291 H 0.38058 0.66174 0.37556
 H292 H 0.15929 0.60467 0.51094
 H293 H 0.08521 0.64488 0.53724
 H294 H 0.15741 0.77690 0.53259
 H295 H 0.23053 0.73393 0.50502
 C296 C 0.19126 0.54796 0.36698
 C297 C 0.30416 0.55354 0.62939
 C298 C 0.11587 0.71388 0.53637
 C299 C 0.38734 0.70361 0.43736
 C300 C 0.79403 0.95591 0.45309
 H301 H 0.81016 0.95928 0.48689
 C302 C 0.81389 0.97793 0.41253
 H303 H 0.84511 0.99870 0.41524
 C304 C 0.73640 0.92135 0.40724
 H305 H 0.70750 0.89773 0.40470
 C306 C 0.75507 0.94275 0.36598
 H307 H 0.74008 0.93586 0.33224
 N308 N 0.75656 0.92743 0.44961
 C309 C 0.69405 0.89039 0.58842
 H310 H 0.69340 0.85286 0.58257
 C311 C 0.67610 0.90806 0.63080
 H312 H 0.66096 0.88420 0.65742
 C313 C 0.71500 0.96716 0.56080
 H314 H 0.73051 0.98976 0.53340
 C315 C 0.69719 0.98646 0.60303
 H316 H 0.69844 1.02415 0.60804
 Zn317 Zn 0.73893 0.88735 0.50185
 N318 N 0.71342 0.91975 0.55467
 C319 C 0.80897 0.86045 0.56563
 N320 N 0.79420 0.85330 0.52120
 C321 C 0.82074 0.82662 0.49046
 C322 C 0.86384 0.80566 0.50442
 C323 C 0.85141 0.84027 0.58085
 C324 C 0.64818 0.87066 0.47783
 C325 C 0.61019 0.84707 0.46085
 C326 C 0.65982 0.77620 0.45620
 C327 C 0.69711 0.80121 0.47369
 N328 N 0.69080 0.84789 0.48303
 H329 H 0.78870 0.88296 0.58921
 H330 H 0.80896 0.82250 0.45490
 H331 H 0.88503 0.78471 0.47987
 H332 H 0.86277 0.84661 0.61623
 H333 H 0.64425 0.90776 0.48557
 H334 H 0.57691 0.86608 0.45528
 H335 H 0.66533 0.73957 0.44699
 H336 H 0.73121 0.78379 0.47840
 C337 C 0.67793 0.95638 0.63841
 C338 C 0.79482 0.97038 0.36844
 C339 C 0.61618 0.79969 0.44923
 C340 C 0.87926 0.81292 0.55006
 C341 C -0.04690 0.29403 0.45591
 H342 H -0.01310 0.31016 0.45928
 C343 C -0.08747 0.31389 0.47793
 H344 H -0.08476 0.34511 0.49870
 C345 C -0.09276 0.23640 0.42135
 H346 H -0.09529 0.20750 0.39773
 C347 C -0.13402 0.25507 0.44275
 H348 H -0.16776 0.24008 0.43586
 N349 N -0.05038 0.25656 0.42743
 C350 C 0.08842 0.19404 0.39039
 H351 H 0.08258 0.19339 0.35286
 C352 C 0.13080 0.17610 0.40806
 H353 H 0.15743 0.16096 0.38420
 C354 C 0.06080 0.21500 0.46716
 H355 H 0.03340 0.23051 0.48975
 C356 C 0.10303 0.19719 0.48646
 H357 H 0.10805 0.19844 0.52415
 Zn358 Zn 0.00185 0.23893 0.38735
 N359 N 0.05467 0.21342 0.41975
 C360 C 0.06564 0.30897 0.36045
 N361 N 0.02120 0.29420 0.35330
 C362 C -0.00953 0.32074 0.32662
 C363 C 0.00442 0.36384 0.30566
 C364 C 0.08086 0.35141 0.34027
 C365 C -0.02217 0.14818 0.37066
 C366 C -0.03915 0.11018 0.34707
 C367 C -0.04380 0.15982 0.27620
 C368 C -0.02631 0.19711 0.30121
 N369 N -0.01696 0.19080 0.34789
 H370 H 0.08922 0.28869 0.38296
 H371 H -0.04509 0.30896 0.32250
 H372 H -0.02013 0.38503 0.28471
 H373 H 0.11624 0.36277 0.34660
 H374 H -0.01443 0.14424 0.40776
 H375 H -0.04471 0.07691 0.36608
 H376 H -0.05301 0.16533 0.23957
 H377 H -0.02160 0.23121 0.28379
 C378 C 0.13842 0.17792 0.45638
 C379 C -0.13156 0.29482 0.47038
 C380 C -0.05077 0.11618 0.29969
 C381 C 0.05006 0.37925 0.31292
 C382 C 1.04410 0.80689 0.06215
 H383 H 1.01033 0.82425 0.05528
 C384 C 1.08567 0.82530 0.04202
 H385 H 1.08385 0.85666 0.01915
 C386 C 1.08840 0.74689 0.10290
 H387 H 1.08974 0.71746 0.12803
 C388 C 1.13065 0.76410 0.08355
 H389 H 1.16404 0.74743 0.09336
 N390 N 1.04624 0.76873 0.09252
 C391 C 0.90499 0.71383 0.11812
 H392 H 0.90570 0.71517 0.15622
 C393 C 0.86690 0.69416 0.09703
 H394 H 0.83820 0.68019 0.11893
 C395 C 0.94268 0.72878 0.04331
 H396 H 0.97280 0.74157 0.02287
 C397 C 0.90503 0.70892 0.02061
 H398 H 0.90610 0.70637 -0.01749
 Zn399 Zn 0.99134 0.75115 0.12819
 N400 N 0.94186 0.73060 0.09132
 C401 C 0.92635 0.82392 0.15088
 N402 N 0.96924 0.80448 0.16223
 C403 C 0.99703 0.82531 0.19349
 C404 C 0.98149 0.86718 0.21503
 C405 C 0.90960 0.86534 0.17150
 C406 C 1.01490 0.65823 0.14256
 C407 C 1.02956 0.61640 0.16531
 C408 C 1.02694 0.65698 0.23927
 C409 C 1.01176 0.69835 0.21499
 N410 N 1.00719 0.69828 0.16728
 H411 H 0.90544 0.80827 0.12468
 H412 H 1.03158 0.80997 0.20091
 H413 H 1.00378 0.88390 0.23956
 H414 H 0.87556 0.88058 0.16175
 H415 H 1.01093 0.65929 0.10468
 H416 H 1.03724 0.58521 0.14487
 H417 H 1.03259 0.65740 0.27690
 H418 H 1.00502 0.73052 0.23393
 C419 C 0.86698 0.69126 0.04796
 C420 C 1.12939 0.80416 0.05354
 C421 C 1.03637 0.61587 0.21388
 C422 C 0.93736 0.88733 0.20362
 C423 C 0.54411 0.30689 0.56215
 H424 H 0.51033 0.32425 0.55527
 C425 C 0.58568 0.32530 0.54202
 H426 H 0.58385 0.35666 0.51915
 C427 C 0.58840 0.24689 0.60290
 H428 H 0.58974 0.21746 0.62803
 C429 C 0.63066 0.26411 0.58355
 H430 H 0.66404 0.24743 0.59336
 N431 N 0.54624 0.26873 0.59252
 C432 C 0.40499 0.21384 0.61812
 H433 H 0.40570 0.21517 0.65622
 C434 C 0.36690 0.19416 0.59703
 H435 H 0.33821 0.18019 0.61893
 C436 C 0.44268 0.22878 0.54331
 H437 H 0.47281 0.24157 0.52287
 C438 C 0.40504 0.20892 0.52061
 H439 H 0.40610 0.20637 0.48251
 Zn440 Zn 0.49134 0.25115 0.62819
 N441 N 0.44187 0.23060 0.59132
 C442 C 0.42636 0.32393 0.65088
 N443 N 0.46924 0.30449 0.66223
 C444 C 0.49704 0.32531 0.69349
 C445 C 0.48149 0.36718 0.71503
 C446 C 0.40961 0.36534 0.67150
 C447 C 0.51491 0.15824 0.64256
 C448 C 0.52956 0.11641 0.66531
 C449 C 0.52694 0.15698 0.73926
 C450 C 0.51176 0.19835 0.71499
 N451 N 0.50719 0.19828 0.66728
 H452 H 0.40545 0.30828 0.62468
 H453 H 0.53158 0.30997 0.70091
 H454 H 0.50378 0.38390 0.73956
 H455 H 0.37556 0.38058 0.66174
 H456 H 0.51094 0.15929 0.60467
 H457 H 0.53724 0.08521 0.64487
 H458 H 0.53259 0.15740 0.77690
 H459 H 0.50502 0.23052 0.73393
 C460 C 0.36698 0.19126 0.54796
 C461 C 0.62939 0.30416 0.55354
 C462 C 0.53637 0.11587 0.71387
 C463 C 0.43736 0.38734 0.70362
 C464 C 0.45309 0.79404 0.95591
 H465 H 0.48690 0.81017 0.95928
 C466 C 0.41253 0.81390 0.97793
 H467 H 0.41524 0.84512 0.99870
 C468 C 0.40724 0.73640 0.92135
 H469 H 0.40470 0.70750 0.89773
 C470 C 0.36598 0.75507 0.94275
 H471 H 0.33224 0.74008 0.93586
 N472 N 0.44961 0.75657 0.92743
 C473 C 0.58842 0.69405 0.89039
 H474 H 0.58258 0.69340 0.85286
 C475 C 0.63080 0.67611 0.90806
 H476 H 0.65742 0.66096 0.88420
 C477 C 0.56080 0.71500 0.96716
 H478 H 0.53340 0.73051 0.98976
 C479 C 0.60303 0.69719 0.98646
 H480 H 0.60804 0.69844 1.02415
 Zn481 Zn 0.50185 0.73893 0.88735
 N482 N 0.55467 0.71343 0.91975
 C483 C 0.56563 0.80897 0.86045
 N484 N 0.52120 0.79420 0.85330
 C485 C 0.49047 0.82074 0.82662
 C486 C 0.50442 0.86384 0.80566
 C487 C 0.58086 0.85141 0.84027
 C488 C 0.47783 0.64819 0.87066
 C489 C 0.46085 0.61019 0.84707
 C490 C 0.45620 0.65982 0.77621
 C491 C 0.47369 0.69711 0.80121
 N492 N 0.48303 0.69080 0.84789
 H493 H 0.58921 0.78870 0.88296
 H494 H 0.45490 0.80896 0.82250
 H495 H 0.47987 0.88503 0.78470
 H496 H 0.61623 0.86277 0.84660
 H497 H 0.48557 0.64425 0.90776
 H498 H 0.45528 0.57691 0.86608
 H499 H 0.44699 0.66533 0.73957
 H500 H 0.47840 0.73121 0.78379
 C501 C 0.63841 0.67793 0.95638
 C502 C 0.36844 0.79483 0.97038
 C503 C 0.44923 0.61618 0.79969
 C504 C 0.55006 0.87926 0.81291
 C505 C 0.49722 -0.20967 0.34181
 C506 C 0.48604 -0.17442 0.31920
 C507 C 0.99722 0.29034 0.84181
 C508 C 0.98604 0.32559 0.81920
 C509 C 0.02518 1.20836 0.84558
 C510 C 0.03776 1.17278 0.82571
 C511 C 0.52519 0.70835 0.34558
 C512 C 0.53776 0.67278 0.32571
 C513 C 0.51344 0.29823 0.14315
 C514 C 0.52731 0.32959 0.16646
 C515 C 0.01344 0.79823 0.64315
 C516 C 0.02731 0.82960 0.66646
 C517 C 0.98648 0.71835 0.63879
 C518 C 0.97417 0.68194 0.65797
 C519 C 0.48648 0.21835 0.13879
 C520 C 0.47417 0.18194 0.15797
 C521 C 0.34181 0.49722 -0.20966
 C522 C 0.31921 0.48604 -0.17441
 C523 C 0.84181 0.99722 0.29033
 C524 C 0.81920 0.98604 0.32559
 C525 C 0.84558 0.02519 1.20836
 C526 C 0.82571 0.03776 1.17278
 C527 C 0.34558 0.52519 0.70836
 C528 C 0.32571 0.53776 0.67278
 C529 C 0.14315 0.51344 0.29823
 C530 C 0.16646 0.52731 0.32960
 C531 C 0.64315 0.01344 0.79823
 C532 C 0.66646 0.02731 0.82959
 C533 C 0.63879 0.98648 0.71835
 C534 C 0.65797 0.97417 0.68194
 C535 C 0.13879 0.48648 0.21835
 C536 C 0.15797 0.47417 0.18194
 C537 C -0.20966 0.34181 0.49722
 C538 C -0.17441 0.31920 0.48604
 C539 C 0.29033 0.84181 0.99722
 C540 C 0.32559 0.81921 0.98604
 C541 C 1.20836 0.84558 0.02519
 C542 C 1.17278 0.82571 0.03776
 C543 C 0.70836 0.34557 0.52518
 C544 C 0.67278 0.32571 0.53776
 C545 C 0.29823 0.14315 0.51344
 C546 C 0.32960 0.16646 0.52731
 C547 C 0.79823 0.64315 0.01344
 C548 C 0.82959 0.66646 0.02731
 C549 C 0.71835 0.63879 0.98648
 C550 C 0.68194 0.65797 0.97417
 C551 C 0.21835 0.13879 0.48648
 C552 C 0.18194 0.15797 0.47417
 C553 C 0.58070 0.04008 0.74889
 C554 C 0.55863 0.07461 0.73518
 C555 C 1.08069 0.54008 0.24889
 C556 C 1.05863 0.57461 0.23519
 C557 C 0.90073 0.96708 0.23639
 C558 C 0.91974 0.93100 0.22301
 C559 C 0.40073 0.46708 0.73639
 C560 C 0.41974 0.43100 0.72301
 C561 C 0.40323 0.54717 0.76312
 C562 C 0.42559 0.57883 0.77777
 C563 C -0.09677 0.04717 0.26312
 C564 C -0.07441 0.07883 0.27776
 C565 C 0.08486 0.45894 0.27834
 C566 C 0.06660 0.42337 0.29327
 C567 C 0.58486 0.95894 0.77834
 C568 C 0.56660 0.92337 0.79327
 C569 C 0.74889 0.58069 0.04008
 C570 C 0.73519 0.55863 0.07461
 C571 C 0.24889 1.08070 0.54008
 C572 C 0.23519 1.05863 0.57461
 C573 C 0.23638 0.90073 0.96708
 C574 C 0.22301 0.91974 0.93101
 C575 C 0.73639 0.40073 0.46708
 C576 C 0.72301 0.41974 0.43100
 C577 C 0.76312 0.40323 0.54717
 C578 C 0.77777 0.42559 0.57883
 C579 C 0.26312 -0.09677 0.04717
 C580 C 0.27776 -0.07441 0.07883
 C581 C 0.27834 0.08486 0.45894
 C582 C 0.29327 0.06660 0.42337
 C583 C 0.77834 0.58486 0.95894
 C584 C 0.79327 0.56661 0.92336
 C585 C 0.04008 0.74889 0.58070
 C586 C 0.07461 0.73519 0.55863
 C587 C 0.54008 0.24888 1.08070
 C588 C 0.57461 0.23518 1.05863
 C589 C 0.96708 0.23639 0.90073
 C590 C 0.93100 0.22302 0.91974
 C591 C 0.46708 0.73638 0.40073
 C592 C 0.43100 0.72301 0.41974
 C593 C 0.54717 0.76312 0.40323
 C594 C 0.57883 0.77776 0.42559
 C595 C 0.04717 0.26312 -0.09677
 C596 C 0.07883 0.27777 -0.07441
 C597 C 0.45894 0.27834 0.08486
 C598 C 0.42337 0.29327 0.06660
 C599 C 0.95894 0.77834 0.58486
 C600 C 0.92337 0.79328 0.56660
   
