data_POSCAR
  _audit_creation_date              2014-09-24
  _audit_creation_method            'ToBaCCo'
  _symmetry_space_group_name_H-M    'P1'
  _symmetry_Int_Tables_number       1
  _symmetry_cell_setting            triclinic
  loop_
  _symmetry_equiv_pos_as_xyz
 x,y,z
_cell_length_a 50.2820
_cell_length_b 50.2909
_cell_length_c 40.4766
_cell_angle_alpha 89.956200
_cell_angle_beta 89.939000
_cell_angle_gamma 89.964400
loop_
  _atom_site_label
  _atom_site_type_symbol
  _atom_site_fract_x
  _atom_site_fract_y
  _atom_site_fract_z
O1 O -0.02671 0.30360 0.03302
 O2 O 0.02477 0.30442 -0.03225
 O3 O -0.02735 0.30453 -0.03130
 O4 O 0.02525 0.30386 0.03225
 O5 O 0.02520 0.25989 0.03133
 O6 O -0.02713 0.26055 -0.03190
 O7 O 0.02465 0.26046 -0.03280
 O8 O -0.02644 0.25963 0.03206
 Cu9 Cu -0.00099 0.30857 0.00046
 Cu10 Cu -0.00089 0.25573 -0.00045
 C11 C -0.03531 0.28138 0.04342
 C12 C 0.03347 0.28248 -0.04340
 C13 C -0.03627 0.28259 -0.04207
 C14 C 0.03408 0.28170 0.04249
 O15 O 0.47735 0.80498 0.52959
 O16 O 0.52928 0.80246 0.46507
 O17 O 0.47726 0.80402 0.46528
 O18 O 0.52941 0.80332 0.52953
 O19 O 0.52792 0.75938 0.53033
 O20 O 0.47608 0.76007 0.46643
 O21 O 0.52780 0.75852 0.46622
 O22 O 0.47616 0.76102 0.53041
 Cu23 Cu 0.50349 0.80815 0.49728
 Cu24 Cu 0.50189 0.75534 0.49846
 C25 C 0.46785 0.78336 0.54066
 C26 C 0.53733 0.78000 0.45486
 C27 C 0.46776 0.78210 0.45521
 C28 C 0.53753 0.78114 0.54064
 O29 O 0.97683 0.69616 -0.03569
 O30 O 1.02910 0.69673 0.02839
 O31 O 0.97706 0.69637 0.02864
 O32 O 1.02906 0.69648 -0.03586
 O33 O 1.02857 0.74045 -0.03603
 O34 O 0.97688 0.74034 0.02815
 O35 O 1.02862 0.74070 0.02790
 O36 O 0.97666 0.74012 -0.03586
 Cu37 Cu 1.00303 0.69197 -0.00366
 Cu38 Cu 1.00264 0.74481 -0.00404
 C39 C 0.96772 0.71811 -0.04629
 C40 C 1.03779 0.71890 0.03877
 C41 C 0.96812 0.71841 0.03913
 C42 C 1.03782 0.71856 -0.04649
 O43 O 0.47224 0.19640 0.46879
 O44 O 0.52447 0.19518 0.53283
 O45 O 0.47234 0.19628 0.53314
 O46 O 0.52431 0.19544 0.46852
 O47 O 0.52497 0.23941 0.46887
 O48 O 0.47336 0.24024 0.53313
 O49 O 0.52515 0.23915 0.53284
 O50 O 0.47323 0.24037 0.46912
 Cu51 Cu 0.49825 0.19136 0.50083
 Cu52 Cu 0.49925 0.24420 0.50103
 C53 C 0.46384 0.21866 0.45832
 C54 C 0.53378 0.21703 0.54339
 C55 C 0.46396 0.21848 0.54382
 C56 C 0.53351 0.21737 0.45799
 O57 O 0.69666 -0.02620 0.03128
 O58 O 0.69659 0.02588 -0.03315
 O59 O 0.69637 -0.02622 -0.03298
 O60 O 0.69673 0.02586 0.03127
 O61 O 0.74071 0.02555 0.03080
 O62 O 0.74035 -0.02625 -0.03311
 O63 O 0.74057 0.02554 -0.03327
 O64 O 0.74064 -0.02620 0.03082
 Cu65 Cu 0.69212 -0.00012 -0.00088
 Cu66 Cu 0.74498 -0.00033 -0.00123
 C67 C 0.71874 -0.03514 0.04168
 C68 C 0.71865 0.03459 -0.04392
 C69 C 0.71836 -0.03520 -0.04361
 C70 C 0.71885 0.03455 0.04174
 O71 O 0.19563 0.53024 0.46790
 O72 O 0.19548 0.47847 0.53265
 O73 O 0.19610 0.53057 0.53222
 O74 O 0.19518 0.47814 0.46832
 O75 O 0.23916 0.47780 0.46803
 O76 O 0.24008 0.52989 0.53159
 O77 O 0.23946 0.47810 0.53203
 O78 O 0.23961 0.52958 0.46760
 Cu79 Cu 0.19114 0.50441 0.50032
 Cu80 Cu 0.24398 0.50380 0.49977
 C81 C 0.21772 0.53877 0.45703
 C82 C 0.21751 0.46941 0.54304
 C83 C 0.21833 0.53919 0.54248
 C84 C 0.21709 0.46900 0.45761
 O85 O 0.30308 0.97830 -0.03378
 O86 O 0.30257 1.03041 0.03049
 O87 O 0.30346 0.97838 0.03053
 O88 O 0.30212 1.03041 -0.03390
 O89 O 0.25815 1.02947 -0.03326
 O90 O 0.25948 0.97777 0.03084
 O91 O 0.25859 1.02950 0.03080
 O92 O 0.25911 0.97766 -0.03315
 Cu93 Cu 0.30726 1.00447 -0.00174
 Cu94 Cu 0.25443 1.00354 -0.00117
 C95 C 0.28112 0.96902 -0.04407
 C96 C 0.28042 1.03880 0.04136
 C97 C 0.28162 0.96918 0.04136
 C98 C 0.27983 1.03883 -0.04427
 O99 O 0.80507 0.47292 0.46782
 O100 O 0.80526 0.52519 0.53185
 O101 O 0.80463 0.47316 0.53215
 O102 O 0.80565 0.52501 0.46742
 O103 O 0.76167 0.52535 0.46721
 O104 O 0.76065 0.47384 0.53156
 O105 O 0.76128 0.52554 0.53127
 O106 O 0.76109 0.47359 0.46759
 Cu107 Cu 0.80962 0.49904 0.49983
 Cu108 Cu 0.75677 0.49965 0.49935
 C109 C 0.78298 0.46429 0.45714
 C110 C 0.78322 0.53423 0.54225
 C111 C 0.78239 0.46465 0.54259
 C112 C 0.78375 0.53401 0.45656
 C113 C 0.23843 0.20786 0.20070
 C114 C 0.21432 0.21798 0.18899
 C115 C 0.20312 0.24115 0.20204
 C116 C 0.21599 0.25443 0.22834
 C117 C 0.24044 0.24436 0.24064
 C118 C 0.25180 0.22108 0.22665
 C119 C 0.27594 0.21140 0.23936
 C120 C 0.28879 0.22437 0.26516
 C121 C 0.27774 0.24723 0.27970
 C122 C 0.25343 0.25745 0.26719
 C123 C 0.20476 0.27707 0.24318
 C124 C 0.21748 0.28989 0.26921
 C125 C 0.24194 0.28059 0.28139
 C126 C 0.25496 0.29340 0.30793
 C127 C 0.27894 0.28312 0.31986
 C128 C 0.29043 0.26029 0.30630
 H129 H 0.28510 0.19359 0.22958
 H130 H 0.30749 0.21621 0.27363
 H131 H 0.18581 0.28492 0.23510
 H132 H 0.20777 0.30706 0.27989
 H133 H 0.20440 0.20795 0.16873
 H134 H 0.28875 0.29298 0.34033
 C135 C 0.74254 0.70349 0.29788
 C136 C 0.71837 0.71348 0.30963
 C137 C 0.70710 0.73666 0.29666
 C138 C 0.71997 0.75004 0.27037
 C139 C 0.74450 0.74013 0.25807
 C140 C 0.75592 0.71686 0.27199
 C141 C 0.78014 0.70733 0.25927
 C142 C 0.79302 0.72046 0.23356
 C143 C 0.78191 0.74333 0.21909
 C144 C 0.75750 0.75337 0.23158
 C145 C 0.70864 0.77264 0.25553
 C146 C 0.72137 0.78560 0.22956
 C147 C 0.74593 0.77649 0.21743
 C148 C 0.75898 0.78948 0.19099
 C149 C 0.78306 0.77940 0.17910
 C150 C 0.79464 0.75658 0.19261
 H151 H 0.78936 0.68953 0.26899
 H152 H 0.81178 0.71242 0.22508
 H153 H 0.68961 0.78036 0.26356
 H154 H 0.71159 0.80274 0.21890
 H155 H 0.70846 0.70335 0.32986
 H156 H 0.79289 0.78940 0.15870
 C157 C 0.79548 0.23756 0.20182
 C158 C 0.78449 0.21436 0.18862
 C159 C 0.76042 0.20405 0.20022
 C160 C 0.74683 0.21710 0.22618
 C161 C 0.75797 0.24039 0.24032
 C162 C 0.78241 0.25063 0.22819
 C163 C 0.79346 0.27323 0.24326
 C164 C 0.78054 0.28588 0.26930
 C165 C 0.75603 0.27645 0.28125
 C166 C 0.74475 0.25333 0.26687
 C167 C 0.72270 0.20724 0.23875
 C168 C 0.70961 0.22008 0.26452
 C169 C 0.72041 0.24297 0.27918
 C170 C 0.70744 0.25596 0.30569
 C171 C 0.71876 0.27879 0.31943
 C172 C 0.74277 0.28915 0.30772
 H173 H 0.81241 0.28118 0.23536
 H174 H 0.79012 0.30303 0.28015
 H175 H 0.71372 0.18939 0.22889
 H176 H 0.69093 0.21179 0.27287
 H177 H 0.79455 0.20447 0.16832
 H178 H 0.70876 0.28859 0.33984
 C179 C 0.21027 0.76028 0.19263
 C180 C 0.22166 0.78324 0.17926
 C181 C 0.24479 0.79435 0.19247
 C182 C 0.25702 0.78233 0.22016
 C183 C 0.24581 0.75889 0.23392
 C184 C 0.22239 0.74776 0.22006
 C185 C 0.21159 0.72463 0.23421
 C186 C 0.22372 0.71240 0.26113
 C187 C 0.24683 0.72314 0.27537
 C188 C 0.25804 0.74657 0.26161
 C189 C 0.28027 0.79291 0.23421
 C190 C 0.29210 0.78098 0.26154
 C191 C 0.28144 0.75771 0.27549
 C192 C 0.29335 0.74539 0.30320
 C193 C 0.28216 0.72223 0.31630
 C194 C 0.25924 0.71092 0.30280
 H195 H 0.19363 0.71571 0.22460
 H196 H 0.21475 0.69442 0.27067
 H197 H 0.28956 0.81057 0.22421
 H198 H 0.30974 0.79022 0.27160
 H199 H 0.21232 0.79266 0.15811
 H200 H 0.29148 0.71282 0.33746
 C201 C 0.78944 0.24324 0.80700
 C202 C 0.77940 0.21910 0.81877
 C203 C 0.75756 0.20675 0.80396
 C204 C 0.74531 0.21873 0.77625
 C205 C 0.75513 0.24335 0.76412
 C206 C 0.77721 0.25572 0.77962
 C207 C 0.78613 0.28042 0.76773
 C208 C 0.77413 0.29243 0.74058
 C209 C 0.75271 0.28021 0.72427
 C210 C 0.74285 0.25563 0.73644
 C211 C 0.72388 0.20654 0.75997
 C212 C 0.71182 0.21858 0.73287
 C213 C 0.72075 0.24328 0.72098
 C214 C 0.70850 0.25578 0.69362
 C215 C 0.71861 0.27985 0.68175
 C216 C 0.74052 0.29215 0.69648
 H217 H 0.80240 0.29084 0.77945
 H218 H 0.78170 0.31153 0.73267
 H219 H 0.71631 0.18743 0.76787
 H220 H 0.69554 0.20817 0.72117
 H221 H 0.78880 0.20973 0.83991
 H222 H 0.70924 0.28921 0.66059
 C223 C 0.29377 0.74805 0.69346
 C224 C 0.28292 0.72475 0.68036
 C225 C 0.26085 0.71243 0.69473
 C226 C 0.24900 0.72374 0.72316
 C227 C 0.25966 0.74750 0.73667
 C228 C 0.28218 0.75968 0.72185
 C229 C 0.29235 0.78320 0.73565
 C230 C 0.28102 0.79429 0.76385
 C231 C 0.25875 0.78257 0.77899
 C232 C 0.24792 0.75897 0.76526
 C233 C 0.22722 0.71159 0.73885
 C234 C 0.21572 0.72283 0.76684
 C235 C 0.22556 0.74664 0.78025
 C236 C 0.21407 0.75812 0.80880
 C237 C 0.22528 0.78108 0.82236
 C238 C 0.24727 0.79350 0.80788
 H239 H 0.30925 0.79327 0.72481
 H240 H 0.29001 0.81212 0.77375
 H241 H 0.21898 0.69311 0.72985
 H242 H 0.19922 0.71242 0.77811
 H243 H 0.29197 0.71590 0.65863
 H244 H 0.21635 0.78980 0.84423
 C245 C 0.23697 0.20856 0.80061
 C246 C 0.21289 0.21889 0.81217
 C247 C 0.20198 0.24220 0.79907
 C248 C 0.21517 0.25540 0.77288
 C249 C 0.23960 0.24510 0.76073
 C250 C 0.25063 0.22168 0.77475
 C251 C 0.27472 0.21175 0.76215
 C252 C 0.28787 0.22464 0.73646
 C253 C 0.27718 0.24765 0.72190
 C254 C 0.25289 0.25811 0.73427
 C255 C 0.20427 0.27818 0.75798
 C256 C 0.21729 0.29091 0.73206
 C257 C 0.24173 0.28138 0.72003
 C258 C 0.25505 0.29410 0.69360
 C259 C 0.27901 0.28362 0.68182
 C260 C 0.29019 0.26064 0.69542
 H261 H 0.28363 0.19381 0.77191
 H262 H 0.30653 0.21629 0.72809
 H263 H 0.18536 0.28622 0.76594
 H264 H 0.20783 0.30821 0.72133
 H265 H 0.20274 0.20890 0.83234
 H266 H 0.28904 0.29343 0.66143
 C267 C 0.74090 0.70394 0.69989
 C268 C 0.71756 0.71491 0.68700
 C269 C 0.70653 0.73823 0.69986
 C270 C 0.71896 0.75096 0.72690
 C271 C 0.74262 0.74002 0.74042
 C272 C 0.75364 0.71641 0.72688
 C273 C 0.77660 0.70549 0.74130
 C274 C 0.78874 0.71764 0.76823
 C275 C 0.77838 0.74118 0.78183
 C276 C 0.75499 0.75240 0.76794
 C277 C 0.70795 0.77385 0.74140
 C278 C 0.72004 0.78596 0.76839
 C279 C 0.74365 0.77568 0.78192
 C280 C 0.75581 0.78757 0.80972
 C281 C 0.77875 0.77620 0.82318
 C282 C 0.79029 0.75339 0.80959
 H283 H 0.78524 0.68720 0.73220
 H284 H 0.80614 0.70812 0.77860
 H285 H 0.68961 0.78241 0.73234
 H286 H 0.71044 0.80328 0.77883
 H287 H 0.70801 0.70531 0.66615
 H288 H 0.78804 0.78552 0.84440
 C289 C 0.27951 0.16238 0.14636
 C290 C 0.26461 0.13888 0.14792
 C291 C 0.24222 0.13753 0.16844
 C292 C 0.23432 0.15976 0.18665
 C293 C 0.27976 0.05960 0.06559
 C294 C 0.27164 0.18466 0.16463
 C295 C 0.27081 0.11686 0.12654
 C296 C 0.27478 0.09858 0.10793
 C297 C 0.27808 0.07741 0.08541
 C298 C 0.24883 0.18354 0.18465
 H299 H 0.29671 0.16373 0.13030
 H300 H 0.23040 0.11954 0.16961
 H301 H 0.21651 0.15868 0.20167
 H302 H 0.28279 0.20300 0.16241
 C303 C 0.78296 0.65746 0.64810
 C304 C 0.76718 0.63451 0.64816
 C305 C 0.74373 0.63383 0.66682
 C306 C 0.73571 0.65619 0.68466
 C307 C 0.78279 0.55505 0.56642
 C308 C 0.77496 0.67987 0.66601
 C309 C 0.77366 0.61243 0.62705
 C310 C 0.77780 0.59410 0.60859
 C311 C 0.78117 0.57289 0.58618
 C312 C 0.75113 0.67943 0.68415
 H313 H 0.80100 0.65829 0.63347
 H314 H 0.73125 0.61627 0.66681
 H315 H 0.71714 0.65564 0.69826
 H316 H 0.78686 0.69780 0.66497
 C317 C 0.73950 0.86095 0.17400
 C318 C 0.73260 0.85956 0.14051
 C319 C 0.73292 0.83500 0.12424
 C320 C 0.74068 0.81205 0.14110
 C321 C 0.71921 0.94362 0.06535
 C322 C 0.74723 0.83793 0.19094
 C323 C 0.72720 0.88338 0.12195
 C324 C 0.72366 0.90289 0.10519
 C325 C 0.72070 0.92516 0.08426
 C326 C 0.74809 0.81338 0.17446
 H327 H 0.73957 0.87989 0.18675
 H328 H 0.72785 0.83372 0.09828
 H329 H 0.74147 0.79330 0.12797
 H330 H 0.75325 0.83933 0.21657
 C331 C 0.22982 0.33980 0.62656
 C332 C 0.22993 0.36442 0.64268
 C333 C 0.23682 0.36583 0.67617
 C334 C 0.24414 0.34274 0.69326
 C335 C 0.21783 0.44830 0.56689
 C336 C 0.23716 0.31677 0.64357
 C337 C 0.22495 0.38825 0.62396
 C338 C 0.22174 0.40773 0.60706
 C339 C 0.21911 0.42992 0.58595
 C340 C 0.24457 0.31812 0.67694
 H341 H 0.22475 0.33850 0.60060
 H342 H 0.23722 0.38481 0.68880
 H343 H 0.25016 0.34414 0.71889
 H344 H 0.23764 0.29796 0.63056
 C345 C 0.84261 0.27997 0.15134
 C346 C 0.86529 0.26378 0.15059
 C347 C 0.86565 0.23990 0.16840
 C348 C 0.84321 0.23187 0.18618
 C349 C 0.94415 0.28052 0.06802
 C350 C 0.82014 0.27196 0.16917
 C351 C 0.88733 0.27038 0.12941
 C352 C 0.90554 0.27476 0.11079
 C353 C 0.92653 0.27853 0.08809
 C354 C 0.82022 0.24772 0.18645
 H355 H 0.84201 0.29834 0.13737
 H356 H 0.88299 0.22711 0.16774
 H357 H 0.84351 0.21299 0.19906
 H358 H 0.80241 0.28419 0.16866
 C359 C 0.36534 0.76575 0.67467
 C360 C 0.36336 0.77396 0.64168
 C361 C 0.33838 0.77543 0.62653
 C362 C 0.31556 0.76800 0.64394
 C363 C 0.44672 0.78391 0.56449
 C364 C 0.34248 0.75835 0.69215
 C365 C 0.38694 0.77858 0.62233
 C366 C 0.40628 0.78134 0.60505
 C367 C 0.42838 0.78330 0.58366
 C368 C 0.31748 0.75916 0.67674
 H369 H 0.38460 0.76426 0.68652
 H370 H 0.33664 0.78150 0.60093
 H371 H 0.29646 0.76845 0.63159
 H372 H 0.34434 0.75115 0.71727
 C373 C 0.13968 0.75819 0.16104
 C374 C 0.13995 0.73494 0.14205
 C375 C 0.16287 0.71907 0.14116
 C376 C 0.18561 0.72677 0.15863
 C377 C 0.05888 0.71959 0.06260
 C378 C 0.16237 0.76591 0.17843
 C379 C 0.11741 0.72868 0.12157
 C380 C 0.09869 0.72466 0.10369
 C381 C 0.07704 0.72131 0.08191
 C382 C 0.18554 0.75038 0.17714
 H383 H 0.12216 0.77074 0.16168
 H384 H 0.16338 0.70118 0.12628
 H385 H 0.20346 0.71478 0.15701
 H386 H 0.16210 0.78431 0.19232
 C387 C 0.63746 0.23558 0.67574
 C388 C 0.63913 0.22912 0.64214
 C389 C 0.66377 0.22985 0.62604
 C390 C 0.68655 0.23764 0.64319
 C391 C 0.55509 0.21699 0.56689
 C392 C 0.66028 0.24335 0.69296
 C393 C 0.61543 0.22390 0.62335
 C394 C 0.59593 0.22062 0.60655
 C395 C 0.57363 0.21807 0.58569
 C396 C 0.68493 0.24466 0.67668
 H397 H 0.61844 0.23535 0.68834
 H398 H 0.66525 0.22512 0.59998
 H399 H 0.70537 0.23880 0.63021
 H400 H 0.65863 0.24910 0.71866
 C401 C 0.75792 0.13631 0.83640
 C402 C 0.73354 0.13523 0.85308
 C403 C 0.71620 0.15703 0.85190
 C404 C 0.72353 0.18007 0.83475
 C405 C 0.71907 0.05440 0.93329
 C406 C 0.76527 0.15931 0.81933
 C407 C 0.72752 0.11261 0.87357
 C408 C 0.72367 0.09392 0.89162
 C409 C 0.72055 0.07240 0.91370
 C410 C 0.74825 0.18143 0.81864
 H411 H 0.77159 0.11966 0.83740
 H412 H 0.69741 0.15651 0.86500
 H413 H 0.71036 0.19712 0.83489
 H414 H 0.78452 0.16015 0.80732
 C415 C 0.21776 0.66354 0.35410
 C416 C 0.23354 0.64058 0.35313
 C417 C 0.25682 0.64026 0.33413
 C418 C 0.26466 0.66297 0.31682
 C419 C 0.21826 0.55972 0.43299
 C420 C 0.22558 0.68630 0.33671
 C421 C 0.22723 0.61806 0.37364
 C422 C 0.22319 0.59937 0.39161
 C423 C 0.21989 0.57779 0.41353
 C424 C 0.24922 0.68619 0.31820
 H425 H 0.19985 0.66409 0.36900
 H426 H 0.26930 0.62270 0.33345
 H427 H 0.28308 0.66268 0.30292
 H428 H 0.21367 0.70420 0.33839
 C429 C 0.27427 0.83995 0.87298
 C430 C 0.27077 0.86475 0.85784
 C431 C 0.26111 0.86614 0.82543
 C432 C 0.25437 0.84282 0.80852
 C433 C 0.28100 0.94889 0.93360
 C434 C 0.26751 0.81668 0.85615
 C435 C 0.27512 0.88863 0.87668
 C436 C 0.27786 0.90817 0.89359
 C437 C 0.28004 0.93044 0.91464
 C438 C 0.25732 0.81796 0.82392
 H439 H 0.28150 0.83864 0.89813
 H440 H 0.25807 0.88523 0.81360
 H441 H 0.24613 0.84417 0.78386
 H442 H 0.26962 0.79768 0.86850
 C443 C 0.76853 0.33449 0.37472
 C444 C 0.76878 0.35910 0.35853
 C445 C 0.76181 0.36062 0.32507
 C446 C 0.75411 0.33767 0.30806
 C447 C 0.78245 0.44301 0.43359
 C448 C 0.76081 0.31159 0.35779
 C449 C 0.77425 0.38284 0.37712
 C450 C 0.77785 0.40231 0.39387
 C451 C 0.78090 0.42454 0.41475
 C452 C 0.75338 0.31305 0.32443
 H453 H 0.77365 0.33311 0.40066
 H454 H 0.76169 0.37961 0.31240
 H455 H 0.74809 0.33915 0.28244
 H456 H 0.76011 0.29278 0.37082
 C457 C 0.13163 0.24413 0.83190
 C458 C 0.13189 0.26771 0.85027
 C459 C 0.15454 0.28393 0.84996
 C460 C 0.17708 0.27621 0.83206
 C461 C 0.05293 0.28229 0.93333
 C462 C 0.15414 0.23639 0.81407
 C463 C 0.10982 0.27386 0.87162
 C464 C 0.09158 0.27778 0.89037
 C465 C 0.07056 0.28090 0.91319
 C466 C 0.17712 0.25223 0.81429
 H467 H 0.11433 0.23131 0.83221
 H468 H 0.15506 0.30207 0.86436
 H469 H 0.19480 0.28844 0.83295
 H470 H 0.15394 0.21769 0.80080
 C471 C 0.63696 0.73810 0.33026
 C472 C 0.63708 0.76189 0.34820
 C473 C 0.65958 0.77829 0.34752
 C474 C 0.68212 0.77059 0.32962
 C475 C 0.55797 0.77860 0.43044
 C476 C 0.65947 0.73038 0.31239
 C477 C 0.61495 0.76824 0.36935
 C478 C 0.59669 0.77254 0.38791
 C479 C 0.57565 0.77636 0.41050
 C480 C 0.68228 0.74646 0.31218
 H481 H 0.61976 0.72514 0.33085
 H482 H 0.65999 0.79660 0.36159
 H483 H 0.69971 0.78300 0.33018
 H484 H 0.65937 0.71157 0.29938
 C485 C 0.83752 0.72767 0.87475
 C486 C 0.86197 0.72920 0.85828
 C487 C 0.86280 0.73718 0.82512
 C488 C 0.83929 0.74416 0.80874
 C489 C 0.94737 0.71825 0.93169
 C490 C 0.81407 0.73467 0.85845
 C491 C 0.88619 0.72458 0.87636
 C492 C 0.90603 0.72164 0.89269
 C493 C 0.92865 0.71929 0.91314
 C494 C 0.81480 0.74316 0.82542
 H495 H 0.83666 0.72175 0.90048
 H496 H 0.88163 0.73869 0.81223
 H497 H 0.84024 0.75106 0.78341
 H498 H 0.79538 0.73405 0.87177
 C499 C 0.36131 0.25897 0.33705
 C500 C 0.36156 0.23541 0.35549
 C501 C 0.33895 0.21916 0.35627
 C502 C 0.31597 0.22676 0.33925
 C503 C 0.44281 0.21960 0.43445
 C504 C 0.33836 0.26659 0.32008
 C505 C 0.38428 0.22917 0.37566
 C506 C 0.40306 0.22505 0.39341
 C507 C 0.42470 0.22151 0.41513
 C508 C 0.31549 0.25064 0.32126
 H509 H 0.37860 0.27181 0.33654
 H510 H 0.33885 0.20103 0.37075
 H511 H 0.29834 0.21446 0.34083
 H512 H 0.33820 0.28521 0.30661
 C513 C 0.72928 0.83409 0.87512
 C514 C 0.73068 0.85865 0.85890
 C515 C 0.73889 0.85978 0.82584
 C516 C 0.74623 0.83647 0.80931
 C517 C 0.71863 0.94345 0.93293
 C518 C 0.73664 0.81083 0.85866
 C519 C 0.72570 0.88268 0.87716
 C520 C 0.72249 0.90237 0.89364
 C521 C 0.71988 0.92484 0.91426
 C522 C 0.74535 0.81188 0.82574
 H523 H 0.72319 0.83301 0.90077
 H524 H 0.74030 0.87871 0.81317
 H525 H 0.75329 0.83764 0.78405
 H526 H 0.73611 0.79204 0.87177
 C527 C 0.22925 0.33895 0.37486
 C528 C 0.22922 0.36357 0.35869
 C529 C 0.23611 0.36500 0.32518
 C530 C 0.24359 0.34195 0.30813
 C531 C 0.21718 0.44769 0.43404
 C532 C 0.23675 0.31596 0.35790
 C533 C 0.22417 0.38739 0.37738
 C534 C 0.22094 0.40691 0.39420
 C535 C 0.21835 0.42919 0.41516
 C536 C 0.24419 0.31733 0.32451
 H537 H 0.22418 0.33763 0.40084
 H538 H 0.23640 0.38398 0.31251
 H539 H 0.24963 0.34338 0.28250
 H540 H 0.23736 0.29716 0.37096
 C541 C 0.24037 0.13795 0.83220
 C542 C 0.26289 0.13898 0.85247
 C543 C 0.27784 0.16243 0.85435
 C544 C 0.26995 0.18495 0.83653
 C545 C 0.27891 0.05866 0.93301
 C546 C 0.23247 0.16043 0.81443
 C547 C 0.26926 0.11663 0.87324
 C548 C 0.27345 0.09808 0.89138
 C549 C 0.27702 0.07665 0.91345
 C550 C 0.24709 0.18412 0.81665
 H551 H 0.22853 0.12000 0.83081
 H552 H 0.29513 0.16353 0.87023
 H553 H 0.28120 0.20321 0.83890
 H554 H 0.21463 0.15956 0.79949
 C555 C 0.78371 0.65791 0.35196
 C556 C 0.76896 0.63433 0.35016
 C557 C 0.74663 0.63298 0.32960
 C558 C 0.73865 0.65529 0.31157
 C559 C 0.78362 0.55479 0.43226
 C560 C 0.77575 0.68027 0.33387
 C561 C 0.77519 0.61223 0.37141
 C562 C 0.77912 0.59387 0.38995
 C563 C 0.78223 0.57263 0.41243
 C564 C 0.75301 0.67914 0.31381
 H565 H 0.80085 0.65926 0.36807
 H566 H 0.73493 0.61493 0.32826
 H567 H 0.72089 0.65421 0.29651
 H568 H 0.78679 0.69865 0.33626
 C569 C 0.16790 0.73119 0.87451
 C570 C 0.14337 0.73192 0.85817
 C571 C 0.14221 0.73981 0.82501
 C572 C 0.16542 0.74749 0.80848
 C573 C 0.05819 0.71900 0.93150
 C574 C 0.19108 0.73888 0.85804
 C575 C 0.11934 0.72662 0.87634
 C576 C 0.09956 0.72319 0.89264
 C577 C 0.07694 0.72037 0.91300
 C578 C 0.18998 0.74727 0.82498
 H579 H 0.16900 0.72536 0.90025
 H580 H 0.12330 0.74072 0.81224
 H581 H 0.16417 0.75432 0.78314
 H582 H 0.20982 0.73885 0.87122
 C583 C 0.65849 0.21515 0.35551
 C584 C 0.63591 0.23148 0.35447
 C585 C 0.63632 0.25489 0.33573
 C586 C 0.65937 0.26232 0.31880
 C587 C 0.55450 0.21753 0.43395
 C588 C 0.68158 0.22255 0.33852
 C589 C 0.61314 0.22559 0.37477
 C590 C 0.59431 0.22186 0.39263
 C591 C 0.57262 0.21888 0.41450
 C592 C 0.68222 0.24633 0.32031
 H593 H 0.65849 0.19714 0.37022
 H594 H 0.61907 0.26780 0.33501
 H595 H 0.65965 0.28086 0.30517
 H596 H 0.69919 0.21022 0.34036
 C597 C 0.83379 0.26928 0.87489
 C598 C 0.85851 0.27002 0.85897
 C599 C 0.86035 0.26356 0.82539
 C600 C 0.83763 0.25576 0.80799
 C601 C 0.94233 0.28243 0.93455
 C602 C 0.81110 0.26146 0.85756
 C603 C 0.88211 0.27528 0.87793
 C604 C 0.90154 0.27859 0.89484
 C605 C 0.92380 0.28123 0.91577
 C606 C 0.81290 0.25443 0.82409
 H607 H 0.83218 0.27400 0.90093
 H608 H 0.87943 0.26381 0.81293
 H609 H 0.83941 0.25001 0.78230
 H610 H 0.79223 0.26028 0.87040
 C611 C 0.33846 0.77256 0.36956
 C612 C 0.36342 0.77053 0.35441
 C613 C 0.36531 0.76181 0.32161
 C614 C 0.34233 0.75455 0.30431
 C615 C 0.44666 0.78199 0.43136
 C616 C 0.31554 0.76528 0.35234
 C617 C 0.38704 0.77533 0.37359
 C618 C 0.40634 0.77840 0.39080
 C619 C 0.42837 0.78086 0.41218
 C620 C 0.31734 0.75601 0.31972
 H621 H 0.33678 0.77905 0.39499
 H622 H 0.38454 0.75991 0.30977
 H623 H 0.34407 0.74706 0.27932
 H624 H 0.29643 0.76624 0.36467
 C625 C 0.26135 0.86634 0.17457
 C626 C 0.27028 0.86461 0.14183
 C627 C 0.27238 0.83973 0.12655
 C628 C 0.26495 0.81674 0.14358
 C629 C 0.28170 0.94809 0.06522
 C630 C 0.25395 0.84330 0.19168
 C631 C 0.27517 0.88830 0.12281
 C632 C 0.27826 0.90767 0.10569
 C633 C 0.28068 0.92976 0.08439
 C634 C 0.25547 0.81840 0.17613
 H635 H 0.25940 0.88552 0.18650
 H636 H 0.27902 0.83817 0.10115
 H637 H 0.26597 0.79770 0.13115
 H638 H 0.24631 0.84492 0.21662
 C639 C 0.78252 0.34136 0.64856
 C640 C 0.76532 0.36325 0.64695
 C641 C 0.74077 0.36238 0.66327
 C642 C 0.73313 0.33952 0.68044
 C643 C 0.78151 0.44379 0.56675
 C644 C 0.77490 0.31846 0.66579
 C645 C 0.77172 0.38577 0.62646
 C646 C 0.77594 0.40438 0.60842
 C647 C 0.77957 0.42583 0.58635
 C648 C 0.75004 0.31732 0.68158
 H649 H 0.80144 0.34172 0.63574
 H650 H 0.72721 0.37911 0.66195
 H651 H 0.71378 0.33886 0.69220
 H652 H 0.78799 0.30135 0.66600
 C653 C 0.75699 0.13368 0.16809
 C654 C 0.73458 0.13493 0.14764
 C655 C 0.71964 0.15842 0.14595
 C656 C 0.72745 0.18076 0.16407
 C657 C 0.71945 0.05536 0.06592
 C658 C 0.76482 0.15599 0.18615
 C659 C 0.72838 0.11282 0.12648
 C660 C 0.72440 0.09445 0.10803
 C661 C 0.72110 0.07321 0.08565
 C662 C 0.75023 0.17972 0.18407
 H663 H 0.76883 0.11570 0.16934
 H664 H 0.70243 0.15968 0.12993
 H665 H 0.71624 0.19907 0.16180
 H666 H 0.78261 0.15497 0.20118
 C667 C 0.25996 0.64227 0.66154
 C668 C 0.23564 0.64176 0.64474
 C669 C 0.21884 0.66399 0.64576
 C670 C 0.22660 0.68683 0.66298
 C671 C 0.21919 0.56038 0.56617
 C672 C 0.26774 0.66507 0.67868
 C673 C 0.22907 0.61914 0.62457
 C674 C 0.22477 0.60035 0.60690
 C675 C 0.22112 0.57861 0.58534
 C676 C 0.25121 0.68755 0.67933
 H677 H 0.27321 0.62529 0.66069
 H678 H 0.20009 0.66390 0.63259
 H679 H 0.21380 0.70416 0.66288
 H680 H 0.28689 0.66540 0.69091
 C681 C 0.86559 0.75610 0.16189
 C682 C 0.86607 0.73271 0.14315
 C683 C 0.84362 0.71623 0.14228
 C684 C 0.82057 0.72346 0.15946
 C685 C 0.94720 0.71881 0.06324
 C686 C 0.84257 0.76334 0.17902
 C687 C 0.88879 0.72696 0.12272
 C688 C 0.90756 0.72327 0.10475
 C689 C 0.92915 0.72027 0.08277
 C690 C 0.81984 0.74720 0.17770
 H691 H 0.88274 0.76911 0.16249
 H692 H 0.84369 0.69825 0.12757
 H693 H 0.80305 0.71101 0.15777
 H694 H 0.84222 0.78186 0.19267
 C695 C 0.36124 0.25881 0.66507
 C696 C 0.36142 0.23530 0.64656
 C697 C 0.33868 0.21923 0.64564
 C698 C 0.31567 0.22696 0.66257
 C699 C 0.44291 0.21932 0.56775
 C700 C 0.33827 0.26656 0.68195
 C701 C 0.38419 0.22897 0.62646
 C702 C 0.40303 0.22479 0.60876
 C703 C 0.42474 0.22122 0.58707
 C704 C 0.31527 0.25080 0.68062
 H705 H 0.37862 0.27153 0.66570
 H706 H 0.33851 0.20115 0.63111
 H707 H 0.29795 0.21480 0.66087
 H708 H 0.33818 0.28515 0.69546
 C709 C 0.13307 0.24256 0.16852
 C710 C 0.13333 0.26617 0.15015
 C711 C 0.15582 0.28257 0.15071
 C712 C 0.17826 0.27501 0.16885
 C713 C 0.05475 0.28102 0.06685
 C714 C 0.15547 0.23498 0.18659
 C715 C 0.11139 0.27221 0.12862
 C716 C 0.09328 0.27611 0.10976
 C717 C 0.07236 0.27935 0.08690
 C718 C 0.17832 0.25101 0.18661
 H719 H 0.11586 0.22961 0.16802
 H720 H 0.15633 0.30074 0.13632
 H721 H 0.19589 0.28737 0.16814
 H722 H 0.15530 0.21626 0.19986
 C723 C 0.66020 0.78029 0.64779
 C724 C 0.63736 0.76435 0.64733
 C725 C 0.63666 0.74081 0.66581
 C726 C 0.65890 0.73286 0.68396
 C727 C 0.55832 0.78037 0.56489
 C728 C 0.68249 0.77236 0.66602
 C729 C 0.61542 0.77081 0.62594
 C730 C 0.59720 0.77501 0.60731
 C731 C 0.57609 0.77853 0.58473
 C732 C 0.68205 0.74845 0.68396
 H733 H 0.66106 0.79841 0.63333
 H734 H 0.61920 0.72821 0.66541
 H735 H 0.65834 0.71422 0.69737
 H736 H 0.70034 0.78440 0.66534
   
