data_POSCAR
  _audit_creation_date              2014-09-24
  _audit_creation_method            'ToBaCCo'
  _symmetry_space_group_name_H-M    'P1'
  _symmetry_Int_Tables_number       1
  _symmetry_cell_setting            triclinic
  loop_
  _symmetry_equiv_pos_as_xyz
 x,y,z
_cell_length_a 40.9613
_cell_length_b 41.1122
_cell_length_c 40.6144
_cell_angle_alpha 93.347700
_cell_angle_beta 94.212500
_cell_angle_gamma 93.656300
loop_
  _atom_site_label
  _atom_site_type_symbol
  _atom_site_fract_x
  _atom_site_fract_y
  _atom_site_fract_z
N1 N 0.20652 1.27181 0.18696
 N2 N 0.18420 1.27091 0.20867
 C3 C 0.16360 1.29463 0.20311
 C4 C 0.17383 1.31111 0.17671
 C5 C 0.20095 1.29611 0.16687
 H6 H 0.14229 1.29901 0.21653
 H7 H 0.21493 1.30179 0.14611
 Cu8 Cu 0.18339 1.23756 0.24068
 Cu9 Cu 0.23987 1.24015 0.18496
 Cu10 Cu 0.23844 1.18054 0.24209
 N11 N 0.18266 1.20423 0.27273
 N12 N 0.20439 1.18199 0.27314
 C13 C 0.19789 1.16121 0.29662
 C14 C 0.17077 1.17115 0.31157
 C15 C 0.16152 1.19834 0.29594
 H16 H 0.21134 1.14005 0.30182
 H17 H 0.14058 1.21221 0.30059
 N18 N 0.27092 1.18327 0.20868
 N19 N 0.27148 1.20598 0.18696
 C20 C 0.29546 1.20050 0.16672
 C21 C 0.31053 1.17322 0.17631
 C22 C 0.29452 1.16276 0.20280
 H23 H 0.30097 1.21467 0.14597
 H24 H 0.29915 1.14130 0.21613
 H25 H 0.21309 1.20259 0.20453
 H26 H 0.24106 1.22972 0.23412
 N27 N 0.80380 0.73820 0.14676
 N28 N 0.82472 0.73740 0.17281
 C29 C 0.84400 0.71247 0.16810
 C30 C 0.83459 0.69705 0.13752
 C31 C 0.80915 0.71392 0.12447
 H32 H 0.86408 0.70666 0.18508
 H33 H 0.79622 0.70955 0.10026
 Cu34 Cu 0.82699 0.77064 0.20911
 Cu35 Cu 0.77320 0.77230 0.14282
 Cu36 Cu 0.76345 0.81814 0.21549
 N37 N 0.82223 0.79785 0.24897
 N38 N 0.79696 0.81575 0.25168
 C39 C 0.80114 0.83410 0.28044
 C40 C 0.83042 0.82702 0.29653
 C41 C 0.84335 0.80413 0.27595
 H42 H 0.78532 0.85281 0.28795
 H43 H 0.86716 0.79432 0.27945
 N44 N 0.73270 0.81768 0.17578
 N45 N 0.73693 0.80097 0.14781
 C46 C 0.71364 0.80790 0.12456
 C47 C 0.69404 0.82997 0.13870
 C48 C 0.70668 0.83579 0.17101
 H49 H 0.71170 0.79843 0.09903
 H50 H 0.69839 0.85303 0.18920
 H51 H 0.79325 0.80800 0.17860
 H52 H 0.76888 0.77225 0.19272
 N53 N 0.79662 1.25598 -0.18460
 N54 N 0.82175 1.25324 -0.20273
 C55 C 0.84356 1.27895 -0.19507
 C56 C 0.83120 1.29884 -0.17116
 C57 C 0.80144 1.28369 -0.16496
 H58 H 0.86732 1.28216 -0.20489
 H59 H 0.78533 1.29131 -0.14645
 Cu60 Cu 0.82463 1.21481 -0.23225
 Cu61 Cu 0.76082 1.22205 -0.18636
 Cu62 Cu 0.77952 1.14662 -0.22079
 N63 N 0.82465 1.17658 -0.26273
 N64 N 0.80716 1.14955 -0.25782
 C65 C 0.81361 1.12590 -0.28033
 C66 C 0.83604 1.13913 -0.30042
 C67 C 0.84268 1.17119 -0.28867
 H68 H 0.80352 1.10086 -0.28130
 H69 H 0.86021 1.18879 -0.29752
 N70 N 0.74302 1.15209 -0.19234
 N71 N 0.73533 1.18086 -0.18012
 C72 C 0.70962 1.17653 -0.16161
 C73 C 0.70081 1.14357 -0.16246
 C74 C 0.72233 1.12868 -0.18205
 H75 H 0.69880 1.19580 -0.14776
 H76 H 0.72315 1.10277 -0.18795
 H77 H 0.79484 1.18849 -0.19009
 H78 H 0.76847 1.19262 -0.22884
 N79 N 0.17980 0.73557 -0.17736
 N80 N 0.15402 0.73640 -0.19855
 C81 C 0.13086 0.71357 -0.19154
 C82 C 0.14301 0.69780 -0.16469
 C83 C 0.17398 0.71225 -0.15621
 H84 H 0.10680 0.70918 -0.20444
 H85 H 0.19068 0.70672 -0.13572
 Cu86 Cu 0.15302 0.76833 -0.23210
 Cu87 Cu 0.21827 0.76600 -0.17736
 Cu88 Cu 0.21693 0.82259 -0.23744
 N89 N 0.15243 0.80007 -0.26586
 N90 N 0.17775 0.82103 -0.26790
 C91 C 0.17083 0.84100 -0.29220
 C92 C 0.13963 0.83195 -0.30600
 C93 C 0.12844 0.80604 -0.28884
 H94 H 0.18689 0.86116 -0.29868
 H95 H 0.10445 0.79317 -0.29228
 N96 N 0.25429 0.82031 -0.20436
 N97 N 0.25478 0.79880 -0.18142
 C98 C 0.28206 0.80532 -0.16086
 C99 C 0.29943 0.83198 -0.17153
 C100 C 0.28125 0.84103 -0.19897
 H101 H 0.28795 0.79287 -0.13868
 H102 H 0.28637 0.86228 -0.21271
 H103 H 0.19434 0.80345 -0.19827
 H104 H 0.21280 0.77404 -0.22704
 C105 C 0.48082 1.03502 0.03478
 C106 C 0.50195 1.01041 0.05183
 C107 C 0.51676 0.99006 0.03071
 C108 C 0.50970 0.99698 -0.00600
 C109 C 0.50477 1.05326 0.01382
 C110 C 0.51962 1.03366 -0.00794
 C111 C 0.45727 1.01435 0.00974
 C112 C 0.47211 0.99447 -0.01159
 H113 H 0.50668 1.01063 0.07839
 H114 H 0.52137 0.98080 -0.02376
 H115 H 0.51053 1.07936 0.01704
 H116 H 0.43085 1.01482 0.00974
 C117 C 0.03424 0.48090 1.03546
 C118 C 0.05206 0.50432 1.01360
 C119 C 0.03190 0.51889 0.99154
 C120 C -0.00485 0.50931 0.99419
 C121 C 0.01010 0.50230 1.05224
 C122 C -0.01077 0.51690 1.03088
 C123 C 0.01279 0.45727 1.01124
 C124 C -0.00763 0.47185 0.98964
 H125 H 0.07831 0.50996 1.01644
 H126 H -0.02156 0.52078 0.97629
 H127 H 0.01103 0.50738 1.07873
 H128 H 0.01327 0.43100 1.01190
 C129 C 1.02919 0.03164 0.48007
 C130 C 1.00767 0.04925 0.50379
 C131 C 0.98632 0.02907 0.51864
 C132 C 0.98928 -0.00748 0.50903
 C133 C 1.04650 0.00763 0.50178
 C134 C 1.02586 -0.01325 0.51665
 C135 C 1.00506 0.01028 0.45622
 C136 C 0.98417 -0.01016 0.47109
 H137 H 1.01030 0.07534 0.50961
 H138 H 0.97198 -0.02421 0.52076
 H139 H 1.07288 0.00849 0.50663
 H140 H 1.00525 0.01082 0.42960
 C141 C 0.10485 0.43117 1.06672
 C142 C 0.09433 0.42139 1.09681
 C143 C 0.06494 0.43187 1.10773
 C144 C 0.04600 0.45191 1.08857
 C145 C 0.15831 0.33494 1.16133
 C146 C 0.08598 0.45120 1.04750
 C147 C 0.11254 0.39883 1.11533
 C148 C 0.12736 0.37925 1.13031
 C149 C 0.14424 0.35563 1.14728
 C150 C 0.05649 0.46238 1.05835
 H151 H 0.12722 0.42261 1.05767
 H152 H 0.05618 0.42381 1.13064
 H153 H 0.02264 0.45813 1.09702
 H154 H 0.09405 0.45707 1.02365
 C155 C -0.06757 0.58634 1.03648
 C156 C -0.08031 0.58188 1.06704
 C157 C -0.07172 0.55526 1.08494
 C158 C -0.04981 0.53368 1.07276
 C159 C -0.14931 0.67128 1.12130
 C160 C -0.04567 0.56474 1.02424
 C161 C -0.10073 0.60555 1.08091
 C162 C -0.11693 0.62584 1.09314
 C163 C -0.13488 0.65011 1.10808
 C164 C -0.03593 0.53852 1.04253
 H165 H -0.07401 0.60691 1.02242
 H166 H -0.08154 0.55147 1.10858
 H167 H -0.04367 0.51328 1.08717
 H168 H -0.03574 0.56933 1.00100
 C169 C -0.04285 0.40461 0.92708
 C170 C -0.07481 0.41384 0.92039
 C171 C -0.08444 0.44302 0.93513
 C172 C -0.06228 0.46252 0.95705
 C173 C -0.15139 0.32619 0.84746
 C174 C -0.02080 0.42393 0.94897
 C175 C -0.09775 0.39225 0.89963
 C176 C -0.11582 0.37265 0.88273
 C177 C -0.13562 0.34818 0.86348
 C178 C -0.03042 0.45283 0.96458
 H179 H -0.03511 0.38213 0.91577
 H180 H -0.10918 0.45033 0.93022
 H181 H -0.07042 0.48450 0.96895
 H182 H 0.00375 0.41613 0.95385
 C183 C 0.08866 0.55943 0.93380
 C184 C 0.07066 0.58534 0.92367
 C185 C 0.03944 0.58889 0.93468
 C186 C 0.02652 0.56697 0.95623
 C187 C 0.12622 0.67308 0.85259
 C188 C 0.07581 0.53754 0.95535
 C189 C 0.08483 0.60892 0.90305
 C190 C 0.09732 0.62891 0.88646
 C191 C 0.11262 0.65260 0.86782
 C192 C 0.04475 0.54133 0.96732
 H193 H 0.11280 0.55633 0.92531
 H194 H 0.02527 0.60889 0.92701
 H195 H 0.00267 0.57076 0.96470
 H196 H 0.09027 0.51762 0.96254
 C197 C 1.06055 0.10279 0.43121
 C198 C 1.08948 0.09130 0.42015
 C199 C 1.09944 0.06100 0.42930
 C200 C 1.08053 0.04218 0.44936
 C201 C 1.15472 0.15561 0.33491
 C202 C 1.04158 0.08402 0.45128
 C203 C 1.10788 0.10964 0.39778
 C204 C 1.12296 0.12455 0.37845
 C205 C 1.14024 0.14150 0.35521
 C206 C 1.05159 0.05366 0.46124
 H207 H 1.05221 0.12591 0.42365
 H208 H 1.12143 0.05153 0.42025
 H209 H 1.08818 0.01821 0.45465
 H210 H 1.01858 0.09297 0.45810
 C211 C 1.03382 -0.07014 0.58694
 C212 C 1.06398 -0.08301 0.58187
 C213 C 1.08080 -0.07445 0.55456
 C214 C 1.06797 -0.05246 0.53292
 C215 C 1.12257 -0.15252 0.67034
 C216 C 1.02091 -0.04815 0.56525
 C217 C 1.07865 -0.10353 0.60556
 C218 C 1.09177 -0.11984 0.62570
 C219 C 1.10801 -0.13793 0.64963
 C220 C 1.03815 -0.03847 0.53836
 H221 H 1.02059 -0.07655 0.60804
 H222 H 1.10412 -0.08436 0.55030
 H223 H 1.08155 -0.04633 0.51200
 H224 H 0.99802 -0.03809 0.57029
 C225 C 0.93135 -0.08708 0.44205
 C226 C 0.91604 -0.07759 0.41247
 C227 C 0.92173 -0.04565 0.40311
 C228 C 0.94323 -0.02351 0.42266
 C229 C 0.84661 -0.15561 0.32297
 C230 C 0.95285 -0.06483 0.46179
 C231 C 0.89597 -0.10071 0.39046
 C232 C 0.87978 -0.11904 0.37046
 C233 C 0.86155 -0.13930 0.34547
 C234 C 0.95943 -0.03300 0.45193
 H235 H 0.92724 -0.11181 0.44944
 H236 H 0.91002 -0.03802 0.38030
 H237 H 0.94740 0.00101 0.41473
 H238 H 0.96523 -0.07287 0.48405
 C239 C 0.92908 0.08529 0.55974
 C240 C 0.91979 0.06731 0.58611
 C241 C 0.93117 0.03626 0.58976
 C242 C 0.95227 0.02349 0.56749
 C243 C 0.85147 0.12309 0.67564
 C244 C 0.95017 0.07259 0.53751
 C245 C 0.89979 0.08142 0.61014
 C246 C 0.88378 0.09394 0.63052
 C247 C 0.86593 0.10935 0.65470
 C248 C 0.96254 0.04171 0.54142
 H249 H 0.92031 0.10931 0.55657
 H250 H 0.92417 0.02212 0.61013
 H251 H 0.96106 -0.00023 0.57137
 H252 H 0.95673 0.08702 0.51724
 C253 C 0.43114 1.10499 0.06561
 C254 C 0.42110 1.09388 0.09539
 C255 C 0.43124 1.06420 0.10617
 C256 C 0.45125 1.04559 0.08722
 C257 C 0.33550 1.15710 0.15994
 C258 C 0.45115 1.08645 0.04661
 C259 C 0.39870 1.11188 0.11378
 C260 C 0.37932 1.12653 0.12876
 C261 C 0.35596 1.14321 0.14579
 C262 C 0.46206 1.05670 0.05738
 H263 H 0.42284 1.12761 0.05666
 H264 H 0.42298 1.05500 0.12882
 H265 H 0.45722 1.02204 0.09555
 H266 H 0.45728 1.09503 0.02300
 C267 C 0.59107 1.04228 -0.06226
 C268 C 0.58757 1.07347 -0.07354
 C269 C 0.56136 1.09122 -0.06425
 C270 C 0.53903 1.07808 -0.04336
 C271 C 0.67597 1.12786 -0.14452
 C272 C 0.56872 1.02908 -0.04137
 C273 C 0.61138 1.08771 -0.09380
 C274 C 0.63153 1.10005 -0.11027
 C275 C 0.65538 1.11490 -0.12899
 C276 C 0.54268 1.04697 -0.03125
 H277 H 0.61131 1.02832 -0.06926
 H278 H 0.55830 1.11534 -0.07296
 H279 H 0.51885 1.09229 -0.03683
 H280 H 0.57245 1.00526 -0.03265
 C281 C 0.44360 0.91863 -0.06641
 C282 C 0.41442 0.92834 -0.08187
 C283 C 0.40512 0.96012 -0.07562
 C284 C 0.42436 0.98187 -0.05341
 C285 C 0.32677 0.85057 -0.15383
 C286 C 0.46303 0.94047 -0.04419
 C287 C 0.39277 0.90553 -0.10267
 C288 C 0.37317 0.88731 -0.11945
 C289 C 0.34874 0.86703 -0.13834
 C290 C 0.45325 0.97212 -0.03706
 H291 H 0.45094 0.89401 -0.07094
 H292 H 0.38261 0.96792 -0.08746
 H293 H 0.41650 1.00626 -0.04881
 H294 H 0.48497 0.93222 -0.03170
 C295 C 0.58529 0.93195 0.03706
 C296 C 0.58048 0.91873 0.06742
 C297 C 0.55392 0.92750 0.08496
 C298 C 0.53277 0.95003 0.07263
 C299 C 0.66854 0.84688 0.12226
 C300 C 0.56413 0.95449 0.02466
 C301 C 0.60373 0.89757 0.08146
 C302 C 0.62369 0.88072 0.09381
 C303 C 0.64763 0.86199 0.10890
 C304 C 0.53800 0.96439 0.04260
 H305 H 0.60581 0.92536 0.02326
 H306 H 0.54985 0.91730 0.10844
 H307 H 0.51239 0.95624 0.08674
 H308 H 0.56899 0.96469 0.00155
   
