data_POSCAR
  _audit_creation_date              2014-09-24
  _audit_creation_method            'ToBaCCo'
  _symmetry_space_group_name_H-M    'P1'
  _symmetry_Int_Tables_number       1
  _symmetry_cell_setting            triclinic
  loop_
  _symmetry_equiv_pos_as_xyz
 x,y,z
_cell_length_a 30.3431
_cell_length_b 30.7040
_cell_length_c 31.4028
_cell_angle_alpha 91.048300
_cell_angle_beta 89.746900
_cell_angle_gamma 91.105700
loop_
  _atom_site_label
  _atom_site_type_symbol
  _atom_site_fract_x
  _atom_site_fract_y
  _atom_site_fract_z
C1 C 1.20139 0.27176 0.32374
 H2 H 1.20540 0.23873 0.33399
 C3 C 1.16862 0.29711 0.34263
 H4 H 1.14758 0.28276 0.36670
 C5 C 1.22325 0.33008 0.27970
 H6 H 1.24427 0.34312 0.25513
 C7 C 1.19070 0.35644 0.29749
 H8 H 1.18748 0.38950 0.28661
 N9 N 1.22728 0.28804 0.29203
 C10 C 1.22680 0.20930 0.18431
 H11 H 1.25332 0.22545 0.16748
 C12 C 1.19469 0.18606 0.16117
 H13 H 1.19789 0.18463 0.12691
 C14 C 1.19315 0.18881 0.24918
 H15 H 1.19306 0.18906 0.28346
 C16 C 1.16022 0.16536 0.22734
 H17 H 1.13494 0.14814 0.24519
 Zn18 Zn 1.26345 0.24951 0.25893
 N19 N 1.22462 0.21168 0.22754
 C20 C 1.32592 0.18594 0.27070
 N21 N 1.30050 0.21480 0.29253
 C22 C 1.30333 0.21918 0.33556
 C23 C 1.33194 0.19319 0.35842
 C24 C 1.35617 0.16055 0.29198
 C25 C 1.28107 0.30474 0.18902
 C26 C 1.30721 0.32779 0.16017
 C27 C 1.37192 0.30471 0.19742
 C28 C 1.34451 0.28249 0.22588
 N29 N 1.29992 0.28232 0.22096
 H30 H 1.32329 0.18336 0.23639
 H31 H 1.28385 0.24318 0.35224
 H32 H 1.33356 0.19854 0.39247
 H33 H 1.37619 0.13817 0.27352
 H34 H 1.24560 0.30425 0.18563
 H35 H 1.29143 0.34440 0.13442
 H36 H 1.40733 0.30417 0.20153
 H37 H 1.35909 0.26548 0.25192
 C38 C 1.15986 0.16483 0.18276
 C39 C 1.16259 0.33994 0.32904
 C40 C 1.35333 0.32794 0.16430
 C41 C 1.35898 0.16290 0.33666
 C42 C 0.67600 -0.22647 0.29617
 H43 H 0.65809 -0.24855 0.27523
 C44 C 0.65256 -0.20205 0.32614
 H45 H 0.61706 -0.20591 0.32740
 C46 C 0.74367 -0.19740 0.32213
 H47 H 0.77924 -0.19681 0.32150
 C48 C 0.72146 -0.17232 0.35275
 H49 H 0.74018 -0.15160 0.37463
 N50 N 0.72070 -0.22261 0.29347
 C51 C 0.71129 -0.33351 0.21837
 H52 H 0.73614 -0.34967 0.23652
 C53 C 0.68131 -0.35818 0.19385
 H54 H 0.68313 -0.39331 0.19418
 C55 C 0.67854 -0.26814 0.19657
 H56 H 0.67800 -0.23291 0.19759
 C57 C 0.64799 -0.29144 0.17175
 H58 H 0.62402 -0.27396 0.15355
 Zn59 Zn 0.75106 -0.25455 0.24991
 N60 N 0.70958 -0.28931 0.21900
 C61 C 0.83589 -0.29034 0.26079
 N62 N 0.79365 -0.28966 0.27561
 C63 C 0.78097 -0.31330 0.30982
 C64 C 0.81146 -0.33832 0.33111
 C65 C 0.86751 -0.31518 0.28108
 C66 C 0.77498 -0.22385 0.16825
 C67 C 0.79679 -0.19721 0.13904
 C68 C 0.82916 -0.15662 0.19796
 C69 C 0.80662 -0.18387 0.22601
 N70 N 0.77990 -0.21663 0.21094
 H71 H 0.84517 -0.27156 0.23327
 H72 H 0.74710 -0.31246 0.32067
 H73 H 0.80026 -0.35739 0.35785
 H74 H 0.90105 -0.31531 0.26914
 H75 H 0.75490 -0.25084 0.15656
 H76 H 0.79262 -0.20347 0.10522
 H77 H 0.84941 -0.13025 0.21094
 H78 H 0.81093 -0.17898 0.25979
 C79 C 0.64965 -0.33694 0.16945
 C80 C 0.67526 -0.17344 0.35410
 C81 C 0.82476 -0.16353 0.15378
 C82 C 0.85567 -0.33882 0.31725
 C83 C 0.70305 0.27214 -0.18375
 H84 H 0.69912 0.23724 -0.18068
 C85 C 0.67741 0.30005 -0.15878
 H86 H 0.65471 0.28621 -0.13582
 C87 C 0.73770 0.33229 -0.21731
 H88 H 0.76076 0.34482 -0.24057
 C89 C 0.71310 0.36138 -0.19260
 H90 H 0.71774 0.39611 -0.19680
 N91 N 0.73206 0.28852 -0.21280
 C92 C 0.73524 0.18222 -0.30760
 H93 H 0.77010 0.17760 -0.31201
 C94 C 0.70533 0.15430 -0.32870
 H95 H 0.71804 0.12799 -0.34827
 C96 C 0.67668 0.22125 -0.27610
 H97 H 0.66530 0.24774 -0.25619
 C98 C 0.64558 0.19388 -0.29642
 H99 H 0.61076 0.19942 -0.29153
 Zn100 Zn 0.76284 0.24959 -0.24979
 N101 N 0.72071 0.21460 -0.28127
 C102 C 0.83044 0.18863 -0.23995
 N103 N 0.80083 0.21342 -0.21819
 C104 C 0.80026 0.21449 -0.17487
 C105 C 0.82870 0.18856 -0.15190
 C106 C 0.85943 0.16211 -0.21824
 C107 C 0.78638 0.29191 -0.32688
 C108 C 0.81243 0.31931 -0.35224
 C109 C 0.86476 0.32620 -0.29459
 C110 C 0.83749 0.29914 -0.27036
 N111 N 0.79905 0.28287 -0.28663
 H112 H 0.83223 0.18999 -0.27424
 H113 H 0.77814 0.23577 -0.15786
 H114 H 0.82780 0.19069 -0.11750
 H115 H 0.88235 0.14223 -0.23616
 H116 H 0.75556 0.27859 -0.33902
 H117 H 0.80063 0.32557 -0.38385
 H118 H 0.89496 0.33899 -0.28040
 H119 H 0.84665 0.29162 -0.23811
 C120 C 0.65970 0.15995 -0.32323
 C121 C 0.68182 0.34537 -0.16362
 C122 C 0.85229 0.33762 -0.33598
 C123 C 0.85821 0.16109 -0.17367
 C124 C 1.18179 -0.23555 -0.18103
 H125 H 1.17750 -0.27054 -0.18389
 C126 C 1.15292 -0.21148 -0.15573
 H127 H 1.12634 -0.22790 -0.13893
 C128 C 1.22087 -0.17125 -0.20060
 H129 H 1.24710 -0.15577 -0.21853
 C130 C 1.19366 -0.14606 -0.17443
 H131 H 1.19880 -0.11108 -0.17254
 N132 N 1.21380 -0.21504 -0.20410
 C133 C 1.22474 -0.30864 -0.30830
 H134 H 1.25996 -0.31350 -0.30913
 C135 C 1.19697 -0.33433 -0.33406
 H136 H 1.21137 -0.35930 -0.35415
 C137 C 1.16350 -0.27167 -0.27907
 H138 H 1.15046 -0.24675 -0.25819
 C139 C 1.13449 -0.29675 -0.30412
 H140 H 1.09937 -0.29139 -0.30173
 Zn141 Zn 1.24660 -0.25021 -0.24198
 N142 N 1.20757 -0.27914 -0.28039
 C143 C 1.26807 -0.33467 -0.21279
 N144 N 1.27622 -0.29105 -0.20866
 C145 C 1.30509 -0.27479 -0.17919
 C146 C 1.32895 -0.30281 -0.15402
 C147 C 1.29102 -0.36390 -0.18801
 C148 C 1.27127 -0.18624 -0.30053
 C149 C 1.29972 -0.16083 -0.32537
 C150 C 1.36137 -0.19818 -0.29550
 C151 C 1.33172 -0.22317 -0.27154
 N152 N 1.28758 -0.21648 -0.27404
 H153 H 1.24365 -0.34700 -0.23503
 H154 H 1.30983 -0.23991 -0.17559
 H155 H 1.35152 -0.28899 -0.13063
 H156 H 1.28451 -0.39857 -0.19183
 H157 H 1.23605 -0.18174 -0.30215
 H158 H 1.28593 -0.13625 -0.34536
 H159 H 1.39640 -0.20366 -0.29289
 H160 H 1.34416 -0.24803 -0.25121
 C161 C 1.15106 -0.32886 -0.33164
 C162 C 1.15870 -0.16629 -0.15246
 C163 C 1.34551 -0.16683 -0.32312
 C164 C 1.32260 -0.34810 -0.15892
 C165 C 0.25669 0.19030 0.67539
 H166 H 0.22165 0.19260 0.67048
 C167 C 0.28140 0.16476 0.64743
 H168 H 0.26479 0.14654 0.62214
 C169 C 0.32103 0.21341 0.71238
 H170 H 0.33656 0.23342 0.73685
 C171 C 0.34715 0.18811 0.68505
 H172 H 0.38249 0.18922 0.68927
 N173 N 0.27648 0.21353 0.70753
 C174 C 0.20009 0.21952 0.81772
 H175 H 0.22154 0.24373 0.83253
 C176 C 0.17234 0.19414 0.84327
 H177 H 0.17324 0.20020 0.87724
 C178 C 0.17181 0.18483 0.75551
 H179 H 0.17106 0.18160 0.72128
 C180 C 0.14281 0.15943 0.77974
 H181 H 0.12081 0.13639 0.76359
 Zn182 Zn 0.23844 0.24934 0.74063
 N183 N 0.19992 0.21415 0.77464
 C184 C 0.16088 0.27903 0.70179
 N185 N 0.20561 0.27962 0.70089
 C186 C 0.22871 0.30064 0.67001
 C187 C 0.20667 0.32311 0.63869
 C188 C 0.13750 0.30063 0.67082
 C189 C 0.29939 0.27728 0.80465
 C190 C 0.32127 0.30730 0.83147
 C191 C 0.28121 0.36518 0.79921
 C192 C 0.26025 0.33404 0.77278
 N193 N 0.26979 0.29098 0.77567
 H194 H 0.14322 0.26205 0.72658
 H195 H 0.26434 0.30006 0.66998
 H196 H 0.22549 0.34051 0.61480
 H197 H 0.10190 0.29890 0.67188
 H198 H 0.30544 0.24285 0.80748
 H199 H 0.34392 0.29529 0.85484
 H200 H 0.27318 0.39924 0.79650
 H201 H 0.23582 0.34440 0.75040
 C202 C 0.14337 0.16300 0.82436
 C203 C 0.32714 0.16295 0.65220
 C204 C 0.31266 0.35208 0.82858
 C205 C 0.16056 0.32395 0.63930
 C206 C 0.76743 0.69491 0.67966
 H207 H 0.73209 0.69085 0.68301
 C208 C 0.78928 0.67385 0.64641
 H209 H 0.77077 0.65281 0.62464
 C210 C 0.83424 0.72774 0.70410
 H211 H 0.85123 0.74987 0.72586
 C212 C 0.85754 0.70720 0.67117
 H213 H 0.89260 0.71359 0.66832
 N214 N 0.79012 0.72048 0.70811
 C215 C 0.68851 0.71838 0.80491
 H216 H 0.67986 0.75240 0.80608
 C217 C 0.66575 0.68848 0.83024
 H218 H 0.64038 0.70121 0.85090
 C219 C 0.73504 0.66301 0.77865
 H220 H 0.76286 0.65344 0.75927
 C221 C 0.71347 0.63197 0.80385
 H222 H 0.72458 0.59864 0.80284
 Zn223 Zn 0.75401 0.74826 0.74851
 N224 N 0.72203 0.70523 0.77934
 C225 C 0.67436 0.77443 0.70751
 N226 N 0.71785 0.78312 0.71451
 C227 C 0.74012 0.81393 0.69192
 C228 C 0.71873 0.83761 0.66095
 C229 C 0.65156 0.79747 0.67672
 C230 C 0.82124 0.76759 0.80919
 C231 C 0.84351 0.79288 0.84014
 C232 C 0.79108 0.84990 0.82999
 C233 C 0.77047 0.82399 0.79859
 N234 N 0.78595 0.78377 0.78852
 H235 H 0.65775 0.74854 0.72450
 H236 H 0.77503 0.81924 0.69726
 H237 H 0.73716 0.86187 0.64324
 H238 H 0.61733 0.78902 0.67092
 H239 H 0.83199 0.73492 0.80178
 H240 H 0.87157 0.77953 0.85619
 H241 H 0.77825 0.88178 0.83769
 H242 H 0.74151 0.83570 0.78285
 C243 C 0.67777 0.64413 0.82982
 C244 C 0.83497 0.67911 0.64233
 C245 C 0.82840 0.83470 0.85077
 C246 C 0.67390 0.82968 0.65295
 C247 C 0.76550 0.19184 0.19059
 H248 H 0.73044 0.18646 0.18754
 C249 C 0.79418 0.16640 0.16621
 H250 H 0.78043 0.14087 0.14581
 C251 C 0.82563 0.23135 0.22093
 H252 H 0.83800 0.25757 0.24112
 C253 C 0.85551 0.20647 0.19738
 H254 H 0.89053 0.21314 0.20061
 N255 N 0.78146 0.22305 0.21803
 C256 C 0.70364 0.22095 0.32594
 H257 H 0.72560 0.24386 0.34185
 C258 C 0.67740 0.19335 0.35059
 H259 H 0.67963 0.19600 0.38492
 C260 C 0.67239 0.19155 0.26251
 H261 H 0.66965 0.19163 0.22826
 C262 C 0.64527 0.16346 0.28604
 H263 H 0.62247 0.14153 0.26952
 Zn264 Zn 0.74056 0.25629 0.25110
 N265 N 0.70157 0.21909 0.28261
 C266 C 0.66476 0.29483 0.21508
 N267 N 0.70938 0.29191 0.21362
 C268 C 0.73401 0.31632 0.18637
 C269 C 0.71380 0.34480 0.15869
 C270 C 0.64316 0.32292 0.18792
 C271 C 0.80234 0.27642 0.31595
 C272 C 0.82370 0.30288 0.34624
 C273 C 0.77762 0.36241 0.32610
 C274 C 0.75780 0.33509 0.29551
 N275 N 0.77073 0.29310 0.29067
 H276 H 0.64595 0.27603 0.23783
 H277 H 0.76952 0.31380 0.18637
 H278 H 0.73392 0.36384 0.13706
 H279 H 0.60774 0.32532 0.19046
 H280 H 0.81074 0.24244 0.31269
 H281 H 0.84917 0.28936 0.36582
 H282 H 0.76736 0.39590 0.32946
 H283 H 0.73165 0.34731 0.27607
 C284 C 0.64830 0.16348 0.33060
 C285 C 0.83996 0.17354 0.16955
 C286 C 0.81149 0.34651 0.35120
 C287 C 0.66779 0.34804 0.15882
 C288 C 0.26968 0.66883 0.21320
 H289 H 0.24159 0.65772 0.23150
 C290 C 0.29184 0.63886 0.18728
 H291 H 0.28094 0.60505 0.18656
 C292 C 0.31642 0.72628 0.18989
 H293 H 0.32475 0.76068 0.18967
 C294 C 0.33967 0.69731 0.16363
 H295 H 0.36576 0.71017 0.14363
 N296 N 0.28215 0.71173 0.21423
 C297 C 0.22325 0.69512 0.30982
 H298 H 0.25847 0.69630 0.31503
 C299 C 0.19638 0.66870 0.33484
 H300 H 0.21179 0.64908 0.35857
 C301 C 0.16170 0.71787 0.27024
 H302 H 0.14864 0.73682 0.24467
 C303 C 0.13343 0.69182 0.29470
 H304 H 0.09846 0.69088 0.28786
 Zn305 Zn 0.24681 0.75166 0.24668
 N306 N 0.20571 0.71876 0.27817
 C307 C 0.19149 0.82108 0.22605
 N308 N 0.21750 0.78957 0.20910
 C309 C 0.22323 0.78555 0.16617
 C310 C 0.20275 0.81412 0.13862
 C311 C 0.17025 0.85014 0.19971
 C312 C 0.32422 0.78894 0.28687
 C313 C 0.34676 0.81409 0.31766
 C314 C 0.27727 0.82925 0.35193
 C315 C 0.25614 0.80421 0.32015
 N316 N 0.27957 0.78533 0.28792
 H317 H 0.18722 0.82384 0.26012
 H318 H 0.24362 0.76015 0.15305
 H319 H 0.20775 0.81052 0.10457
 H320 H 0.15066 0.87547 0.21427
 H321 H 0.34264 0.77230 0.26226
 H322 H 0.38223 0.81499 0.31529
 H323 H 0.25742 0.84422 0.37676
 H324 H 0.22078 0.79952 0.32154
 C325 C 0.15068 0.66697 0.32760
 C326 C 0.32745 0.65279 0.16217
 C327 C 0.32324 0.83586 0.35063
 C328 C 0.17550 0.84666 0.15523
 N329 N 1.07327 0.06174 0.05161
 N330 N 1.10318 0.09244 0.05930
 N331 N 1.04731 -0.02837 0.08771
 N332 N 1.05477 -0.05532 0.11890
 N333 N 1.07929 -0.02941 0.05946
 N334 N 1.10969 -0.05722 0.07092
 N335 N 1.04228 0.06213 0.08089
 N336 N 1.05129 0.09241 0.11027
 C337 C 1.08886 0.11162 0.09555
 C338 C 1.09355 -0.07330 0.10799
 N339 N 0.92459 -0.04371 0.05355
 N340 N 0.89573 -0.07436 0.06458
 N341 N 0.94655 0.05362 0.07683
 N342 N 0.93285 0.08362 0.10429
 N343 N 0.91723 0.04688 0.04661
 N344 N 0.88311 0.07231 0.05256
 N345 N 0.95362 -0.03691 0.08400
 N346 N 0.94580 -0.06300 0.11607
 Mn347 Mn 0.99736 0.01287 0.08264
 C348 C 0.91001 -0.08641 0.10344
 C349 C 0.89351 0.09541 0.08828
 N350 N 1.08427 -0.03700 -0.03254
 N351 N 1.11893 -0.06146 -0.03945
 N352 N 1.04955 0.04858 -0.06982
 N353 N 1.05991 0.07514 -0.10120
 N354 N 1.07786 0.05356 -0.03849
 N355 N 1.10737 0.08420 -0.04710
 N356 N 1.05554 -0.04224 -0.06350
 N357 N 1.06967 -0.07104 -0.09190
 Mn358 Mn 1.07894 0.01206 0.01005
 C359 C 1.10892 -0.08314 -0.07601
 C360 C 1.09577 0.09751 -0.08612
 N361 N 0.92184 0.03868 -0.04443
 N362 N 0.89039 0.06582 -0.05369
 N363 N 0.96104 -0.05119 -0.06729
 N364 N 0.95492 -0.08169 -0.09694
 N365 N 0.92858 -0.05189 -0.03940
 N366 N 0.89898 -0.08230 -0.05021
 N367 N 0.95346 0.03999 -0.07314
 N368 N 0.94394 0.06810 -0.10311
 Mn369 Mn 0.92271 -0.00278 0.00408
 Mn370 Mn 1.00486 -0.00110 -0.06890
 Cl371 Cl 1.00092 0.00522 0.00689
 C372 C 0.90451 0.08406 -0.09015
 C373 C 0.91641 -0.10113 -0.08572
 N374 N 1.08180 0.54100 0.54384
 N375 N 1.11445 0.56901 0.55083
 N376 N 1.04009 0.45328 0.57316
 N377 N 1.04360 0.42343 0.60239
 N378 N 1.07172 0.45008 0.54474
 N379 N 1.09797 0.41782 0.55406
 N380 N 1.05143 0.54427 0.57350
 N381 N 1.06272 0.57489 0.60175
 C382 C 1.10200 0.59016 0.58675
 C383 C 1.07948 0.40134 0.58987
 N384 N 0.91705 0.46313 0.54124
 N385 N 0.88458 0.43469 0.54714
 N386 N 0.95768 0.55235 0.57205
 N387 N 0.95366 0.58345 0.60106
 N388 N 0.92687 0.55453 0.54303
 N389 N 0.90051 0.58733 0.55194
 N390 N 0.94615 0.46132 0.57191
 N391 N 0.93410 0.43152 0.59976
 Mn392 Mn 0.99882 0.50282 0.57307
 C393 C 0.89567 0.41508 0.58364
 C394 C 0.91823 0.60523 0.58803
 N395 N 1.07381 0.44842 0.45360
 N396 N 1.10150 0.41650 0.44711
 N397 N 1.05379 0.54231 0.42276
 N398 N 1.06499 0.57252 0.39521
 N399 N 1.08363 0.53969 0.45273
 N400 N 1.11586 0.56836 0.44655
 N401 N 1.04610 0.45114 0.42181
 N402 N 1.05513 0.42138 0.39210
 Mn403 Mn 1.07812 0.49473 0.49869
 C404 C 1.08937 0.39970 0.40896
 C405 C 1.10363 0.58868 0.41074
 N406 N 0.92892 0.55323 0.45131
 N407 N 0.90004 0.58318 0.44270
 N408 N 0.95115 0.45858 0.42108
 N409 N 0.94240 0.42684 0.39346
 N410 N 0.91930 0.46220 0.44936
 N411 N 0.88754 0.43326 0.44123
 N412 N 0.95839 0.54984 0.42066
 N413 N 0.94951 0.57728 0.38986
 Mn414 Mn 0.92257 0.50831 0.49620
 Mn415 Mn 1.00234 0.50050 0.42101
 Cl416 Cl 1.00041 0.50161 0.49716
 C417 C 0.91338 0.59831 0.40471
 C418 C 0.90276 0.41137 0.40646
 N419 N 0.58353 0.03391 0.55042
 N420 N 0.61637 0.06133 0.55857
 N421 N 0.54438 -0.05617 0.57590
 N422 N 0.55027 -0.08551 0.60524
 N423 N 0.57607 -0.05726 0.54725
 N424 N 0.60510 -0.08711 0.55728
 N425 N 0.55358 0.03541 0.58070
 N426 N 0.56575 0.06412 0.61070
 C427 C 0.60490 0.08025 0.59593
 C428 C 0.58785 -0.10489 0.59320
 N429 N 0.42037 -0.04894 0.54635
 N430 N 0.38660 -0.07524 0.55440
 N431 N 0.45816 0.04053 0.58123
 N432 N 0.45178 0.06871 0.61272
 N433 N 0.42649 0.04233 0.55297
 N434 N 0.39767 0.07208 0.56461
 N435 N 0.45002 -0.05070 0.57665
 N436 N 0.43709 -0.07859 0.60600
 Mn437 Mn 0.50157 -0.00759 0.57897
 C438 C 0.39774 -0.09404 0.59127
 C439 C 0.41429 0.08853 0.60174
 N440 N 0.57614 -0.05322 0.45425
 N441 N 0.60472 -0.08323 0.44281
 N442 N 0.55225 0.04217 0.43085
 N443 N 0.56344 0.07188 0.40277
 N444 N 0.58350 0.03807 0.45928
 N445 N 0.61658 0.06543 0.45147
 N446 N 0.54613 -0.04898 0.42466
 N447 N 0.55310 -0.07646 0.39267
 Mn448 Mn 0.58018 -0.00987 0.50279
 C449 C 0.58946 -0.09781 0.40456
 C450 C 0.60339 0.08648 0.41635
 N451 N 0.42702 0.04701 0.46187
 N452 N 0.39765 0.07736 0.45630
 N453 N 0.45259 -0.04426 0.42525
 N454 N 0.44530 -0.07290 0.39442
 N455 N 0.42052 -0.04477 0.45345
 N456 N 0.38958 -0.07371 0.44156
 N457 N 0.45629 0.04690 0.43092
 N458 N 0.44634 0.07645 0.40242
 Mn459 Mn 0.42315 -0.00127 0.50363
 Mn460 Mn 0.50183 -0.00078 0.42768
 Cl461 Cl 0.50167 -0.00491 0.50330
 C462 C 0.41001 0.09558 0.41930
 C463 C 0.40614 -0.09114 0.40469
 N464 N 0.54128 0.41889 -0.05371
 N465 N 0.54976 0.38597 -0.07991
 N466 N 0.57511 0.44553 0.03513
 N467 N 0.60440 0.43446 0.06392
 N468 N 0.54116 0.41836 0.03561
 N469 N 0.54628 0.38824 0.06439
 N470 N 0.57377 0.44785 -0.05428
 N471 N 0.60525 0.43505 -0.08060
 C472 C 0.58936 0.39680 -0.09694
 C473 C 0.58560 0.39876 0.08203
 N474 N 0.55302 0.57036 0.04143
 N475 N 0.56373 0.59783 0.07273
 N476 N 0.58030 0.54321 -0.05088
 N477 N 0.61035 0.55392 -0.08002
 N478 N 0.55055 0.57364 -0.04784
 N479 N 0.55876 0.60504 -0.07472
 N480 N 0.58167 0.53895 0.03861
 N481 N 0.61237 0.54387 0.06792
 Mn482 Mn 0.57823 0.49389 -0.00810
 C483 C 0.60062 0.58049 0.08914
 C484 C 0.59577 0.59255 -0.09478
 N485 N 0.44613 0.42320 0.03687
 N486 N 0.43515 0.39367 0.06534
 N487 N 0.41740 0.45457 -0.05210
 N488 N 0.38615 0.44495 -0.08043
 N489 N 0.44716 0.42402 -0.05263
 N490 N 0.43769 0.39366 -0.08134
 N491 N 0.41748 0.45473 0.03734
 N492 N 0.38643 0.44767 0.06599
 Mn493 Mn 0.49387 0.42088 -0.00832
 C494 C 0.39808 0.40979 0.08349
 C495 C 0.39999 0.40704 -0.09877
 N496 N 0.45692 0.57850 -0.04625
 N497 N 0.44982 0.61108 -0.07196
 N498 N 0.42393 0.54867 0.04116
 N499 N 0.39351 0.56107 0.06905
 N500 N 0.45817 0.57548 0.04298
 N501 N 0.45213 0.60646 0.07186
 N502 N 0.42431 0.54978 -0.04833
 N503 N 0.39392 0.56236 -0.07520
 Mn504 Mn 0.50473 0.57468 -0.00223
 Mn505 Mn 0.42026 0.50194 -0.00567
 Cl506 Cl 0.49925 0.49782 -0.00620
 C507 C 0.41076 0.60034 -0.09014
 C508 C 0.41208 0.59691 0.08832
 C509 C 1.12442 0.13979 0.16024
 C510 C 1.11613 0.14377 0.11874
 H511 H 1.10582 0.11571 0.17811
 H512 H 1.13428 0.16697 0.09970
 C513 C 1.11981 0.64229 0.64471
 C514 C 1.13069 0.62253 0.60809
 H515 H 1.08712 0.63708 0.65797
 H516 H 1.16229 0.62929 0.59325
 C517 C 0.62661 0.13058 0.65558
 C518 C 0.63478 0.11152 0.61783
 H519 H 0.59485 0.12543 0.67077
 H520 H 0.66545 0.11880 0.60147
 C521 C 0.61893 0.63943 0.14028
 C522 C 0.62786 0.60053 0.12291
 H523 H 0.58998 0.65636 0.12983
 H524 H 0.65767 0.58388 0.13104
 C525 C 0.84842 -0.13583 0.12273
 C526 C 0.88747 -0.11712 0.13172
 H527 H 0.83369 -0.13128 0.09179
 H528 H 0.90343 -0.12324 0.16172
 C529 C 0.87849 0.36603 0.64246
 C530 C 0.86898 0.38336 0.60260
 H531 H 0.90858 0.37774 0.65777
 H532 H 0.83928 0.37412 0.58567
 C533 C 0.37735 -0.14003 0.65216
 C534 C 0.36740 -0.12314 0.61450
 H535 H 0.41014 -0.13476 0.66506
 H536 H 0.33563 -0.13010 0.60012
 C537 C 0.38253 0.35094 0.13392
 C538 C 0.37059 0.38763 0.11529
 H539 H 0.41497 0.33801 0.12770
 H540 H 0.33944 0.40232 0.12344
 C541 C 0.88786 0.13133 -0.15102
 C542 C 0.87791 0.11590 -0.11252
 H543 H 0.91697 0.11976 -0.16746
 H544 H 0.84753 0.12503 -0.09691
 C545 C 0.88916 0.63542 0.33953
 C546 C 0.88660 0.62926 0.38150
 H547 H 0.91562 0.62099 0.32117
 H548 H 0.86106 0.64513 0.39991
 C549 C 0.38674 0.13591 0.35665
 C550 C 0.38479 0.12722 0.40023
 H551 H 0.40909 0.11651 0.33740
 H552 H 0.35873 0.14057 0.41973
 C553 C 0.34712 0.62074 -0.13312
 C554 C 0.38765 0.62967 -0.11841
 H555 H 0.33165 0.58941 -0.12671
 H556 H 0.40443 0.65987 -0.12638
 C557 C 1.12690 -0.14042 -0.12787
 C558 C 1.14019 -0.11102 -0.09871
 H559 H 1.09202 -0.14669 -0.13295
 H560 H 1.17490 -0.10737 -0.09115
 C561 C 1.12806 0.36834 0.34737
 C562 C 1.11467 0.36528 0.38780
 H563 H 1.11726 0.39557 0.32881
 H564 H 1.12901 0.34136 0.40820
 C565 C 0.65175 -0.14450 0.38453
 C566 C 0.61129 -0.12988 0.37679
 H567 H 0.66945 -0.13237 0.41236
 H568 H 0.59437 -0.13923 0.34769
 C569 C 0.65526 0.37650 -0.13824
 C570 C 0.61441 0.36694 -0.12456
 H571 H 0.66946 0.40853 -0.13150
 H572 H 0.59890 0.33593 -0.13292
 C573 C 1.11547 0.13531 -0.15187
 C574 C 1.12076 0.12808 -0.10837
 H575 H 1.09093 0.11567 -0.16886
 H576 H 1.14787 0.14333 -0.09119
 C577 C 1.12084 0.63772 0.35183
 C578 C 1.13127 0.62162 0.38976
 H579 H 1.08948 0.62861 0.33751
 H580 H 1.16140 0.63153 0.40574
 C581 C 0.62018 0.13286 0.35517
 C582 C 0.63095 0.11866 0.39385
 H583 H 0.59071 0.11983 0.33982
 H584 H 0.66158 0.12898 0.40873
 C585 C 0.65634 0.61237 -0.14484
 C586 C 0.61625 0.61979 -0.12417
 H587 H 0.67096 0.58062 -0.14196
 H588 H 0.59858 0.64914 -0.13052
 C589 C 0.85045 -0.13701 -0.11664
 C590 C 0.89434 -0.13462 -0.11272
 H591 H 0.83042 -0.11421 -0.09872
 H592 H 0.91488 -0.15407 -0.13364
 C593 C 0.83471 0.37629 0.38109
 C594 C 0.87860 0.37700 0.38316
 H595 H 0.81610 0.40141 0.39740
 H596 H 0.89751 0.35496 0.36324
 C597 C 0.34257 -0.13704 0.38018
 C598 C 0.38643 -0.12232 0.37771
 H599 H 0.32243 -0.12335 0.40553
 H600 H 0.40674 -0.13186 0.35099
 C601 C 0.33523 0.38507 -0.14343
 C602 C 0.37650 0.37935 -0.13031
 H603 H 0.31789 0.41419 -0.13382
 H604 H 0.39426 0.35118 -0.14177
 C605 C 1.15377 -0.12314 0.12583
 C606 C 1.11549 -0.10439 0.13554
 H607 H 1.16894 -0.11730 0.09510
 H608 H 1.09874 -0.11211 0.16503
 C609 C 1.13798 0.35118 0.60819
 C610 C 1.09841 0.36779 0.61611
 H611 H 1.15623 0.36148 0.58025
 H612 H 1.08058 0.36013 0.64497
 C613 C 0.65199 -0.14431 0.61991
 C614 C 0.60871 -0.13712 0.62029
 H615 H 0.67262 -0.12718 0.59717
 H616 H 0.58804 -0.15112 0.64483
 C617 C 0.64693 0.37778 0.12841
 C618 C 0.60546 0.37200 0.11492
 H619 H 0.66720 0.40341 0.11465
 H620 H 0.58552 0.34501 0.12626
 C621 C 0.87214 0.14621 0.14610
 C622 C 0.86270 0.12540 0.10933
 H623 H 0.90478 0.14342 0.15956
 H624 H 0.83112 0.12953 0.09423
 C625 C 0.85779 0.65302 0.60922
 C626 C 0.89900 0.63986 0.61434
 H627 H 0.83847 0.63959 0.58297
 H628 H 0.91781 0.65045 0.64195
 C629 C 0.35216 0.13490 0.62205
 C630 C 0.39253 0.12041 0.62989
 H631 H 0.33540 0.12341 0.59344
 H632 H 0.40941 0.12953 0.65905
 C633 C 0.34924 0.62077 0.13324
 C634 C 0.39079 0.62607 0.11965
 H635 H 0.33061 0.59193 0.12320
 H636 H 0.41040 0.65367 0.13100
   
