data_POSCAR
  _audit_creation_date              2014-09-24
  _audit_creation_method            'ToBaCCo'
  _symmetry_space_group_name_H-M    'P1'
  _symmetry_Int_Tables_number       1
  _symmetry_cell_setting            triclinic
  loop_
  _symmetry_equiv_pos_as_xyz
 x,y,z
_cell_length_a 38.3705
_cell_length_b 42.8418
_cell_length_c 38.8633
_cell_angle_alpha 90.217200
_cell_angle_beta 89.750200
_cell_angle_gamma 90.496900
loop_
  _atom_site_label
  _atom_site_type_symbol
  _atom_site_fract_x
  _atom_site_fract_y
  _atom_site_fract_z
C1 C 0.27538 0.28308 0.23126
 C2 C 0.25141 0.26718 0.25221
 C3 C 0.23002 0.28391 0.27484
 C4 C 0.23298 0.31650 0.27726
 C5 C 0.25759 0.33225 0.25669
 C6 C 0.27852 0.31572 0.23326
 C7 C 0.24930 0.23292 0.25141
 C8 C 0.27153 0.21548 0.27217
 C9 C 0.26860 0.18275 0.27345
 C10 C 0.24315 0.16784 0.25300
 C11 C 0.22145 0.18511 0.23124
 C12 C 0.22453 0.21778 0.23081
 H13 H 0.29177 0.27002 0.21367
 H14 H 0.21148 0.27146 0.29097
 H15 H 0.29116 0.22764 0.28715
 H16 H 0.20747 0.23147 0.21476
 H17 H 0.25951 0.35748 0.25798
 H18 H 0.24026 0.14270 0.25373
 C19 C 0.77628 0.78227 0.22835
 C20 C 0.75441 0.76580 0.25082
 C21 C 0.73423 0.78178 0.27506
 C22 C 0.73569 0.81460 0.27754
 C23 C 0.75862 0.83077 0.25515
 C24 C 0.77907 0.81506 0.23033
 C25 C 0.75368 0.73149 0.25016
 C26 C 0.77474 0.71480 0.27282
 C27 C 0.77386 0.68203 0.27303
 C28 C 0.75117 0.66626 0.25045
 C29 C 0.73023 0.68272 0.22722
 C30 C 0.73174 0.71552 0.22726
 H31 H 0.79236 0.76909 0.21064
 H32 H 0.71849 0.76816 0.29275
 H33 H 0.79215 0.72746 0.28986
 H34 H 0.71609 0.72872 0.20942
 H35 H 0.75823 0.85599 0.25485
 H36 H 0.74932 0.64105 0.25146
 C37 C 0.77056 0.28287 0.72924
 C38 C 0.74691 0.26707 0.75054
 C39 C 0.72407 0.28384 0.77170
 C40 C 0.72455 0.31683 0.77206
 C41 C 0.74827 0.33224 0.74980
 C42 C 0.77136 0.31558 0.72855
 C43 C 0.74621 0.23275 0.75078
 C44 C 0.76957 0.21633 0.77136
 C45 C 0.76991 0.18333 0.77134
 C46 C 0.74605 0.16750 0.74959
 C47 C 0.72245 0.18387 0.72890
 C48 C 0.72267 0.21658 0.72985
 H49 H 0.78843 0.26958 0.71340
 H50 H 0.70722 0.27075 0.78887
 H51 H 0.78828 0.22972 0.78620
 H52 H 0.70446 0.22961 0.71437
 H53 H 0.74777 0.35737 0.74739
 H54 H 0.74489 0.14229 0.74917
 C55 C 0.27076 0.78410 0.72515
 C56 C 0.25057 0.76805 0.74950
 C57 C 0.22974 0.78456 0.77273
 C58 C 0.22825 0.81726 0.77139
 C59 C 0.24835 0.83316 0.74650
 C60 C 0.27035 0.81700 0.72332
 C61 C 0.25076 0.73374 0.75001
 C62 C 0.27229 0.71794 0.77302
 C63 C 0.27318 0.68517 0.77303
 C64 C 0.25230 0.66853 0.74952
 C65 C 0.22994 0.68408 0.72683
 C66 C 0.22954 0.71688 0.72719
 H67 H 0.28569 0.77045 0.70691
 H68 H 0.21482 0.77179 0.79186
 H69 H 0.28808 0.73122 0.79101
 H70 H 0.21236 0.72945 0.71020
 H71 H 0.24750 0.85835 0.74618
 H72 H 0.25394 0.64333 0.74853
 C73 C 0.02633 0.05968 0.02250
 H74 H 0.01251 0.07032 0.00146
 C75 C 0.04582 0.07835 0.04500
 H76 H 0.04644 0.10337 0.04126
 C77 C 0.04178 0.01423 0.05326
 H78 H 0.04002 -0.01084 0.05621
 C79 C 0.06169 0.03195 0.07621
 H80 H 0.07563 0.02020 0.09648
 N81 N 0.02480 0.02823 0.02695
 C82 C 0.01461 -0.04197 -0.05417
 H83 H -0.01334 -0.04273 -0.05766
 C84 C 0.03606 -0.06018 -0.07513
 H85 H 0.02424 -0.07448 -0.09498
 C86 C 0.06370 -0.02115 -0.02506
 H87 H 0.07450 -0.00569 -0.00579
 C88 C 0.08608 -0.03936 -0.04504
 H89 H 0.11381 -0.03807 -0.04019
 Zn90 Zn -0.00170 0.00248 -0.00285
 N91 N 0.02864 -0.02278 -0.02984
 C92 C -0.02238 0.02815 -0.06690
 N93 N -0.02928 0.02775 -0.03249
 C94 C -0.05535 0.04540 -0.01897
 C95 C -0.07632 0.06341 -0.04027
 C96 C -0.04280 0.04575 -0.08915
 C97 C -0.02977 -0.05502 0.02244
 C98 C -0.04982 -0.07373 0.04443
 C99 C -0.07111 -0.02707 0.07208
 C100 C -0.05028 -0.00932 0.04995
 N101 N -0.03059 -0.02335 0.02527
 H102 H -0.00084 0.01505 -0.07727
 H103 H -0.06002 0.04567 0.00836
 H104 H -0.09737 0.07671 -0.02899
 H105 H -0.03682 0.04574 -0.11641
 H106 H -0.01306 -0.06598 0.00365
 H107 H -0.04809 -0.09886 0.04214
 H108 H -0.08709 -0.01515 0.09091
 H109 H -0.04920 0.01569 0.05318
 C110 C 0.07241 -0.05908 -0.07075
 C111 C 0.06394 0.06450 0.07227
 C112 C -0.07099 -0.05981 0.06969
 C113 C -0.07038 0.06350 -0.07592
 C114 C 0.05520 0.54080 0.51381
 H115 H 0.05933 0.53947 0.48628
 C116 C 0.07776 0.55868 0.53422
 H117 H 0.09942 0.57078 0.52213
 C118 C 0.02288 0.52528 0.56299
 H119 H 0.00186 0.51194 0.57433
 C120 C 0.04442 0.54318 0.58424
 H121 H 0.03891 0.54386 0.61157
 N122 N 0.02841 0.52453 0.52842
 C123 C 0.02443 0.47280 0.43714
 H124 H 0.00352 0.48546 0.42527
 C125 C 0.04638 0.45473 0.41662
 H126 H 0.04206 0.45357 0.38911
 C127 C 0.05622 0.45937 0.48703
 H128 H 0.05980 0.46136 0.51454
 C129 C 0.07921 0.44146 0.46733
 H130 H 0.10041 0.42947 0.47979
 Zn131 Zn -0.00015 0.49920 0.49980
 N132 N 0.02940 0.47450 0.47175
 C133 C -0.05417 0.50953 0.45335
 N134 N -0.02915 0.52425 0.47221
 C135 C -0.02564 0.55587 0.47191
 C136 C -0.04720 0.57391 0.45118
 C137 C -0.07607 0.52661 0.43209
 C138 C -0.02534 0.44192 0.52780
 C139 C -0.04677 0.42346 0.54878
 C140 C -0.07677 0.47007 0.56709
 C141 C -0.05503 0.48756 0.54556
 N142 N -0.02945 0.47342 0.52705
 H143 H -0.05684 0.48440 0.45463
 H144 H -0.00600 0.56716 0.48755
 H145 H -0.04367 0.59901 0.45069
 H146 H -0.09572 0.51448 0.41709
 H147 H -0.00524 0.43108 0.51244
 H148 H -0.04273 0.39849 0.54970
 H149 H -0.09677 0.48176 0.58192
 H150 H -0.05814 0.51259 0.54396
 C151 C 0.07417 0.43886 0.43170
 C152 C 0.07258 0.55998 0.57004
 C153 C -0.07255 0.43762 0.56912
 C154 C -0.07256 0.55921 0.43065
 C155 C 0.55390 0.04172 0.51374
 H156 H 0.56197 0.03941 0.48732
 C157 C 0.57358 0.06055 0.53582
 H158 H 0.59689 0.07188 0.52601
 C159 C 0.51441 0.02950 0.55874
 H160 H 0.49097 0.01782 0.56752
 C161 C 0.53325 0.04824 0.58169
 H162 H 0.52408 0.05064 0.60794
 N163 N 0.52530 0.02604 0.52556
 C164 C 0.53275 -0.05778 0.47483
 H165 H 0.51581 -0.06858 0.49362
 C166 C 0.55578 -0.07639 0.45602
 H167 H 0.55661 -0.10120 0.46109
 C168 C 0.55241 -0.01266 0.44536
 H169 H 0.55023 0.01200 0.44029
 C170 C 0.57564 -0.03038 0.42588
 H171 H 0.59129 -0.01894 0.40632
 Zn172 Zn 0.50010 -0.00123 0.49554
 N173 N 0.53162 -0.02641 0.46951
 C174 C 0.47324 0.01900 0.43110
 N175 N 0.47243 0.02319 0.46579
 C176 C 0.45080 0.04437 0.48056
 C177 C 0.42852 0.06213 0.46030
 C178 C 0.45209 0.03682 0.40981
 C179 C 0.48379 -0.04366 0.54887
 C180 C 0.46221 -0.06203 0.56975
 C181 C 0.41307 -0.04687 0.53515
 C182 C 0.43559 -0.02888 0.51487
 N183 N 0.47019 -0.02730 0.52223
 H184 H 0.48991 0.00157 0.41977
 H185 H 0.45032 0.04695 0.50826
 H186 H 0.41070 0.07796 0.47290
 H187 H 0.45399 0.03350 0.38226
 H188 H 0.51140 -0.04204 0.55420
 H189 H 0.47339 -0.07430 0.59130
 H190 H 0.38562 -0.04784 0.52887
 H191 H 0.42531 -0.01616 0.49328
 C192 C 0.57769 -0.06269 0.43117
 C193 C 0.56356 0.06378 0.57042
 C194 C 0.42628 -0.06355 0.56317
 C195 C 0.42895 0.05857 0.42428
 C196 C 0.56308 0.52754 0.02005
 H197 H 0.57394 0.51459 -0.00125
 C198 C 0.58515 0.54536 0.04087
 H199 H 0.61268 0.54634 0.03475
 C200 C 0.51415 0.54220 0.05358
 H201 H 0.48641 0.54056 0.05846
 C202 C 0.53535 0.56008 0.07533
 H203 H 0.52368 0.57188 0.09713
 N204 N 0.52826 0.52637 0.02659
 C205 C 0.52785 0.44450 -0.02553
 H206 H 0.51407 0.43364 -0.00437
 C207 C 0.54853 0.42630 -0.04728
 H208 H 0.55084 0.40156 -0.04232
 C209 C 0.54216 0.48997 -0.05732
 H210 H 0.53942 0.51485 -0.06103
 C211 C 0.56308 0.47269 -0.07966
 H212 H 0.57613 0.48442 -0.10078
 Zn213 Zn 0.49857 0.50116 -0.00091
 N214 N 0.52549 0.47581 -0.03060
 C215 C 0.45035 0.51215 -0.05322
 N216 N 0.46990 0.52645 -0.02859
 C217 C 0.46986 0.55803 -0.02469
 C218 C 0.44884 0.57644 -0.04555
 C219 C 0.42880 0.52963 -0.07445
 C220 C 0.48723 0.46155 0.05546
 C221 C 0.46806 0.44315 0.07849
 C222 C 0.41608 0.45436 0.04609
 C223 C 0.43610 0.47296 0.02406
 N224 N 0.47108 0.47594 0.02883
 H225 H 0.45148 0.48707 -0.05628
 H226 H 0.48606 0.56901 -0.00540
 H227 H 0.44867 0.60150 -0.04177
 H228 H 0.41341 0.51784 -0.09393
 H229 H 0.51503 0.46450 0.05884
 H230 H 0.48123 0.43177 0.09954
 H231 H 0.38827 0.45218 0.04195
 H232 H 0.42354 0.48496 0.00322
 C233 C 0.56676 0.44044 -0.07459
 C234 C 0.57144 0.56177 0.06916
 C235 C 0.43208 0.43925 0.07371
 C236 C 0.42776 0.56221 -0.07064
 C237 C 0.16263 -0.13101 -0.15942
 C238 C 0.19544 -0.11885 -0.16861
 C239 C 0.21703 -0.13613 -0.19061
 C240 C 0.20576 -0.16510 -0.20412
 C241 C 0.17269 -0.17691 -0.19451
 C242 C 0.15114 -0.16006 -0.17200
 C243 C 0.13976 -0.11285 -0.13639
 C244 C 0.10706 -0.12510 -0.12697
 C245 C 0.08539 -0.10770 -0.10511
 C246 C 0.09589 -0.07792 -0.09317
 C247 C 0.12883 -0.06604 -0.10312
 C248 C 0.15094 -0.08349 -0.12445
 C249 C 0.11822 -0.17155 -0.16202
 C250 C 0.09663 -0.15444 -0.13975
 C251 C 0.20590 -0.08954 -0.15580
 C252 C 0.18395 -0.07209 -0.13424
 H253 H 0.10906 -0.19397 -0.17149
 H254 H 0.07145 -0.16416 -0.13268
 H255 H 0.23116 -0.07989 -0.16272
 H256 H 0.19292 -0.04948 -0.12514
 H257 H 0.24265 -0.12702 -0.19708
 H258 H 0.16342 -0.19892 -0.20501
 H259 H 0.06047 -0.11747 -0.09727
 H260 H 0.13711 -0.04299 -0.09481
 C261 C 0.16559 0.36757 0.34459
 C262 C 0.20171 0.37304 0.34591
 C263 C 0.22373 0.35639 0.32366
 C264 C 0.20981 0.33410 0.30071
 C265 C 0.17358 0.32869 0.29997
 C266 C 0.15130 0.34557 0.32166
 C267 C 0.14226 0.38539 0.36747
 C268 C 0.10608 0.38049 0.36547
 C269 C 0.08395 0.39798 0.38672
 C270 C 0.09782 0.41988 0.41015
 C271 C 0.13417 0.42414 0.41228
 C272 C 0.15654 0.40715 0.39070
 C273 C 0.11501 0.34106 0.32071
 C274 C 0.09276 0.35832 0.34215
 C275 C 0.21503 0.39504 0.36944
 C276 C 0.19284 0.41171 0.39156
 H277 H 0.10368 0.32418 0.30309
 H278 H 0.06491 0.35429 0.34044
 H279 H 0.24285 0.39941 0.37079
 H280 H 0.20418 0.42847 0.40930
 H281 H 0.25165 0.36042 0.32443
 H282 H 0.16278 0.31175 0.28207
 H283 H 0.05598 0.39451 0.38524
 H284 H 0.14488 0.44120 0.43009
 C285 C 0.67042 -0.13518 0.34612
 C286 C 0.70299 -0.12265 0.33687
 C287 C 0.72470 -0.13953 0.31461
 C288 C 0.71423 -0.16898 0.30130
 C289 C 0.68145 -0.18129 0.31171
 C290 C 0.65949 -0.16444 0.33380
 C291 C 0.64709 -0.11708 0.36875
 C292 C 0.61414 -0.12930 0.37738
 C293 C 0.59170 -0.11163 0.39817
 C294 C 0.60204 -0.08193 0.41035
 C295 C 0.63546 -0.07031 0.40183
 C296 C 0.65799 -0.08770 0.38091
 C297 C 0.62645 -0.17606 0.34329
 C298 C 0.60415 -0.15877 0.36466
 C299 C 0.71318 -0.09334 0.34992
 C300 C 0.69108 -0.07617 0.37160
 H301 H 0.61764 -0.19862 0.33390
 H302 H 0.57880 -0.16848 0.37114
 H303 H 0.73836 -0.08346 0.34310
 H304 H 0.69984 -0.05356 0.38088
 H305 H 0.75018 -0.12989 0.30861
 H306 H 0.67186 -0.20320 0.30132
 H307 H 0.56592 -0.12066 0.40414
 H308 H 0.64393 -0.04774 0.41148
 C309 C 0.65758 0.36882 -0.16253
 C310 C 0.68963 0.38171 -0.17282
 C311 C 0.71164 0.36440 -0.19433
 C312 C 0.70205 0.33411 -0.20590
 C313 C 0.66955 0.32163 -0.19482
 C314 C 0.64733 0.33887 -0.17332
 C315 C 0.63429 0.38707 -0.13999
 C316 C 0.60210 0.37424 -0.12976
 C317 C 0.58003 0.39175 -0.10838
 C318 C 0.59001 0.42188 -0.09727
 C319 C 0.62249 0.43427 -0.10775
 C320 C 0.64468 0.41700 -0.12912
 C321 C 0.61487 0.32682 -0.16259
 C322 C 0.59265 0.34420 -0.14119
 C323 C 0.69920 0.41170 -0.16128
 C324 C 0.67711 0.42905 -0.13980
 H325 H 0.60657 0.30374 -0.17079
 H326 H 0.56788 0.33402 -0.13352
 H327 H 0.72396 0.42189 -0.16897
 H328 H 0.68545 0.45210 -0.13153
 H329 H 0.73687 0.37434 -0.20075
 H330 H 0.66054 0.29908 -0.20392
 H331 H 0.55496 0.38212 -0.10077
 H332 H 0.63068 0.45720 -0.09891
 C333 C -0.16080 0.13320 -0.16479
 C334 C -0.17146 0.16315 -0.15490
 C335 C -0.19413 0.17972 -0.17620
 C336 C -0.20658 0.16663 -0.20744
 C337 C -0.19513 0.13635 -0.21675
 C338 C -0.17240 0.11967 -0.19562
 C339 C -0.13719 0.11558 -0.14230
 C340 C -0.12650 0.08560 -0.15224
 C341 C -0.10435 0.06882 -0.13061
 C342 C -0.09302 0.08177 -0.09914
 C343 C -0.10389 0.11197 -0.08970
 C344 C -0.12597 0.12897 -0.11119
 C345 C -0.16097 0.08967 -0.20479
 C346 C -0.13842 0.07292 -0.18347
 C347 C -0.15953 0.17584 -0.12364
 C348 C -0.13719 0.15905 -0.10216
 H349 H -0.16964 0.07897 -0.22861
 H350 H -0.13037 0.04982 -0.19145
 H351 H -0.16761 0.19894 -0.11565
 H352 H -0.12870 0.16967 -0.07824
 H353 H -0.20315 0.20223 -0.16733
 H354 H -0.20264 0.12592 -0.24104
 H355 H -0.09651 0.04546 -0.13790
 H356 H -0.09498 0.12229 -0.06576
 C357 C -0.16012 0.63010 0.34040
 C358 C -0.16565 0.61946 0.30664
 C359 C -0.18708 0.63665 0.28475
 C360 C -0.20324 0.66418 0.29645
 C361 C -0.19737 0.67449 0.33046
 C362 C -0.17575 0.65757 0.35251
 C363 C -0.13758 0.61209 0.36352
 C364 C -0.13186 0.62278 0.39724
 C365 C -0.11038 0.60553 0.41911
 C366 C -0.09497 0.57765 0.40749
 C367 C -0.10103 0.56731 0.37357
 C368 C -0.12222 0.58448 0.35145
 C369 C -0.16949 0.66749 0.38646
 C370 C -0.14787 0.65042 0.40842
 C371 C -0.14965 0.59184 0.29543
 C372 C -0.12835 0.57461 0.31748
 H373 H -0.18139 0.68864 0.39612
 H374 H -0.14371 0.65891 0.43439
 H375 H -0.15372 0.58341 0.26942
 H376 H -0.11659 0.55337 0.30786
 H377 H -0.19089 0.62876 0.25849
 H378 H -0.20997 0.69540 0.33989
 H379 H -0.10607 0.61347 0.44528
 H380 H -0.08889 0.54610 0.36432
 C381 C 0.33672 0.12966 0.33804
 C382 C 0.32626 0.15949 0.34863
 C383 C 0.30359 0.17650 0.32775
 C384 C 0.29208 0.16426 0.29593
 C385 C 0.30330 0.13433 0.28565
 C386 C 0.32520 0.11680 0.30679
 C387 C 0.36025 0.11153 0.36009
 C388 C 0.37007 0.08141 0.34987
 C389 C 0.39208 0.06411 0.37112
 C390 C 0.40514 0.07699 0.40203
 C391 C 0.39522 0.10750 0.41157
 C392 C 0.37245 0.12467 0.39094
 C393 C 0.33586 0.08667 0.29728
 C394 C 0.35770 0.06918 0.31858
 C395 C 0.33873 0.17176 0.37987
 C396 C 0.36164 0.15474 0.40054
 H397 H 0.32709 0.07645 0.27325
 H398 H 0.36514 0.04597 0.31037
 H399 H 0.33090 0.19480 0.38831
 H400 H 0.37080 0.16514 0.42433
 H401 H 0.29475 0.19912 0.33651
 H402 H 0.29542 0.12473 0.26104
 H403 H 0.39863 0.04050 0.36364
 H404 H 0.40541 0.11811 0.43482
 C405 C 0.33849 0.63429 -0.15807
 C406 C 0.30445 0.62361 -0.16451
 C407 C 0.28311 0.64066 -0.18658
 C408 C 0.29565 0.66808 -0.20251
 C409 C 0.32980 0.67863 -0.19547
 C410 C 0.35134 0.66180 -0.17325
 C411 C 0.36122 0.61614 -0.13525
 C412 C 0.39534 0.62672 -0.12888
 C413 C 0.41695 0.60918 -0.10743
 C414 C 0.40470 0.58113 -0.09269
 C415 C 0.37035 0.57098 -0.09928
 C416 C 0.34848 0.58842 -0.12050
 C417 C 0.38559 0.67169 -0.16618
 C418 C 0.40720 0.65448 -0.14433
 C419 C 0.29251 0.59594 -0.14897
 C420 C 0.31418 0.57861 -0.12737
 H421 H 0.39583 0.69287 -0.17771
 H422 H 0.43347 0.66289 -0.13964
 H423 H 0.26626 0.58749 -0.15372
 H424 H 0.30403 0.55729 -0.11606
 H425 H 0.25669 0.63263 -0.19133
 H426 H 0.33983 0.69950 -0.20785
 H427 H 0.44346 0.61698 -0.10274
 H428 H 0.36059 0.54965 -0.08766
 C429 C -0.15538 -0.13335 0.16289
 C430 C -0.16129 -0.12234 0.19641
 C431 C -0.18291 -0.13953 0.21859
 C432 C -0.19848 -0.16802 0.20785
 C433 C -0.19138 -0.17893 0.17410
 C434 C -0.17030 -0.16152 0.15150
 C435 C -0.13335 -0.11488 0.13918
 C436 C -0.12820 -0.12542 0.10532
 C437 C -0.10785 -0.10739 0.08267
 C438 C -0.09226 -0.07917 0.09382
 C439 C -0.09729 -0.06936 0.12817
 C440 C -0.11808 -0.08691 0.15079
 C441 C -0.16426 -0.17150 0.11750
 C442 C -0.14370 -0.15369 0.09476
 C443 C -0.14544 -0.09428 0.20714
 C444 C -0.12407 -0.07693 0.18476
 H445 H -0.17571 -0.19316 0.10830
 H446 H -0.13991 -0.16214 0.06872
 H447 H -0.14965 -0.08560 0.23303
 H448 H -0.11241 -0.05539 0.19405
 H449 H -0.18647 -0.13108 0.24467
 H450 H -0.20361 -0.20011 0.16455
 H451 H -0.10466 -0.11509 0.05627
 H452 H -0.08489 -0.04816 0.13746
 C453 C -0.15976 0.36612 0.66113
 C454 C -0.16553 0.37717 0.69470
 C455 C -0.18751 0.36021 0.71678
 C456 C -0.20410 0.33258 0.70539
 C457 C -0.19777 0.32172 0.67165
 C458 C -0.17556 0.33839 0.64943
 C459 C -0.13701 0.38413 0.63766
 C460 C -0.13122 0.37313 0.60404
 C461 C -0.10978 0.39052 0.58174
 C462 C -0.09459 0.41886 0.59281
 C463 C -0.10063 0.42945 0.62665
 C464 C -0.12173 0.41214 0.64921
 C465 C -0.16910 0.32810 0.61564
 C466 C -0.14725 0.34513 0.59335
 C467 C -0.14943 0.40510 0.70546
 C468 C -0.12796 0.42233 0.68307
 H469 H -0.18111 0.30673 0.60630
 H470 H -0.14302 0.33640 0.56748
 H471 H -0.15367 0.41384 0.73132
 H472 H -0.11623 0.44386 0.69230
 H473 H -0.19170 0.36852 0.74284
 H474 H -0.21069 0.30073 0.66244
 H475 H -0.10545 0.38237 0.55564
 H476 H -0.08863 0.45103 0.63546
 C477 C 0.33525 -0.13343 0.65326
 C478 C 0.34546 -0.16288 0.66490
 C479 C 0.32367 -0.17939 0.68763
 C480 C 0.29170 -0.16665 0.69924
 C481 C 0.28200 -0.13695 0.68669
 C482 C 0.30359 -0.12036 0.66386
 C483 C 0.35833 -0.11580 0.62974
 C484 C 0.34808 -0.08630 0.61811
 C485 C 0.37027 -0.06947 0.59608
 C486 C 0.40260 -0.08188 0.58581
 C487 C 0.41239 -0.11158 0.59764
 C488 C 0.39032 -0.12865 0.61959
 C489 C 0.29411 -0.09086 0.65147
 C490 C 0.31598 -0.07411 0.62899
 C491 C 0.37757 -0.17509 0.65399
 C492 C 0.39963 -0.15827 0.63174
 H493 H 0.26966 -0.08053 0.65937
 H494 H 0.30776 -0.05138 0.62018
 H495 H 0.38581 -0.19781 0.66284
 H496 H 0.42421 -0.16848 0.62407
 H497 H 0.33280 -0.20145 0.69745
 H498 H 0.25713 -0.12691 0.69354
 H499 H 0.36272 -0.04647 0.58749
 H500 H 0.43703 -0.12146 0.58956
 C501 C 0.34672 0.36624 0.16570
 C502 C 0.34803 0.37219 0.20124
 C503 C 0.32578 0.35545 0.22335
 C504 C 0.30277 0.33266 0.21010
 C505 C 0.30222 0.32664 0.17448
 C506 C 0.32391 0.34358 0.15209
 C507 C 0.36931 0.38438 0.14222
 C508 C 0.36718 0.37911 0.10659
 C509 C 0.38798 0.39703 0.08432
 C510 C 0.41109 0.41976 0.09749
 C511 C 0.41341 0.42437 0.13330
 C512 C 0.39227 0.40693 0.15580
 C513 C 0.32292 0.33865 0.11635
 C514 C 0.34409 0.35620 0.09397
 C515 C 0.37137 0.39489 0.21388
 C516 C 0.39322 0.41188 0.19156
 H517 H 0.30541 0.32126 0.10556
 H518 H 0.34230 0.35186 0.06655
 H519 H 0.37270 0.39963 0.24125
 H520 H 0.41078 0.42923 0.20236
 H521 H 0.32638 0.35999 0.25080
 H522 H 0.28425 0.30934 0.16418
 H523 H 0.38636 0.39329 0.05676
 H524 H 0.43096 0.44205 0.14347
 C525 C 0.15099 0.13623 0.16441
 C526 C 0.17131 0.16094 0.15136
 C527 C 0.19372 0.17732 0.17355
 C528 C 0.19616 0.16889 0.20846
 C529 C 0.17533 0.14424 0.22118
 C530 C 0.15266 0.12784 0.19926
 C531 C 0.12796 0.11848 0.14102
 C532 C 0.10788 0.09360 0.15402
 C533 C 0.08653 0.07642 0.13156
 C534 C 0.08543 0.08371 0.09622
 C535 C 0.10558 0.10895 0.08374
 C536 C 0.12685 0.12642 0.10603
 C537 C 0.13190 0.10301 0.21138
 C538 C 0.10984 0.08621 0.18915
 C539 C 0.16921 0.16843 0.11626
 C540 C 0.14740 0.15143 0.09397
 H541 H 0.13288 0.09636 0.23823
 H542 H 0.09443 0.06710 0.19950
 H543 H 0.18476 0.18743 0.10587
 H544 H 0.14676 0.15782 0.06704
 H545 H 0.20997 0.19603 0.16351
 H546 H 0.17682 0.13785 0.24810
 H547 H 0.07075 0.05740 0.14160
 H548 H 0.10536 0.11455 0.05657
 C549 C 0.16337 0.63118 0.65930
 C550 C 0.17791 0.65945 0.64775
 C551 C 0.19982 0.67664 0.66976
 C552 C 0.20681 0.66593 0.70330
 C553 C 0.19155 0.63763 0.71446
 C554 C 0.17014 0.62005 0.69250
 C555 C 0.14053 0.61288 0.63624
 C556 C 0.12634 0.58446 0.64773
 C557 C 0.10471 0.56712 0.62576
 C558 C 0.09653 0.57823 0.59266
 C559 C 0.11108 0.60686 0.58157
 C560 C 0.13326 0.62418 0.60320
 C561 C 0.15534 0.59155 0.70312
 C562 C 0.13395 0.57397 0.68105
 C563 C 0.17025 0.66991 0.61441
 C564 C 0.14819 0.65265 0.59257
 H565 H 0.16043 0.58271 0.72868
 H566 H 0.12311 0.55208 0.69021
 H567 H 0.18128 0.69170 0.60516
 H568 H 0.14283 0.66164 0.56714
 H569 H 0.21169 0.69812 0.66062
 H570 H 0.19601 0.62938 0.74038
 H571 H 0.09444 0.54485 0.63442
 H572 H 0.10474 0.61593 0.55640
 C573 C 0.65208 0.13413 0.66242
 C574 C 0.66867 0.16139 0.65055
 C575 C 0.69151 0.17759 0.67245
 C576 C 0.69773 0.16680 0.70608
 C577 C 0.68054 0.13954 0.71764
 C578 C 0.65782 0.12304 0.69586
 C579 C 0.62854 0.11667 0.63926
 C580 C 0.61236 0.08915 0.65093
 C581 C 0.59067 0.07222 0.62852
 C582 C 0.58509 0.08266 0.59463
 C583 C 0.60115 0.11064 0.58361
 C584 C 0.62303 0.12763 0.60574
 C585 C 0.64086 0.09558 0.70675
 C586 C 0.61857 0.07889 0.68464
 C587 C 0.66232 0.17175 0.61692
 C588 C 0.63984 0.15518 0.59491
 H589 H 0.64503 0.08680 0.73249
 H590 H 0.60622 0.05770 0.69398
 H591 H 0.67494 0.19277 0.60747
 H592 H 0.63578 0.16390 0.56911
 H593 H 0.70492 0.19828 0.66312
 H594 H 0.68468 0.13129 0.74362
 H595 H 0.57889 0.05054 0.63717
 H596 H 0.59665 0.11918 0.55781
 C597 C 0.66269 0.63195 0.15883
 C598 C 0.65120 0.66010 0.17339
 C599 C 0.67338 0.67675 0.19561
 C600 C 0.70695 0.66551 0.20308
 C601 C 0.71812 0.63741 0.18777
 C602 C 0.69603 0.62044 0.16587
 C603 C 0.63931 0.61410 0.13588
 C604 C 0.65069 0.58577 0.12170
 C605 C 0.62830 0.56873 0.10017
 C606 C 0.59483 0.57997 0.09234
 C607 C 0.58392 0.60856 0.10675
 C608 C 0.60600 0.62563 0.12867
 C609 C 0.70657 0.59209 0.15101
 C610 C 0.68423 0.57499 0.12939
 C611 C 0.61767 0.67090 0.16561
 C612 C 0.59550 0.65401 0.14355
 H613 H 0.73224 0.58297 0.15627
 H614 H 0.69332 0.55317 0.11856
 H615 H 0.60848 0.69260 0.17666
 H616 H 0.56987 0.66318 0.13820
 H617 H 0.66428 0.69810 0.20754
 H618 H 0.74407 0.62879 0.19275
 H619 H 0.63682 0.54652 0.08986
 H620 H 0.55845 0.61770 0.10062
   
