data_POSCAR
  _audit_creation_date              2014-09-24
  _audit_creation_method            'ToBaCCo'
  _symmetry_space_group_name_H-M    'P1'
  _symmetry_Int_Tables_number       1
  _symmetry_cell_setting            triclinic
  loop_
  _symmetry_equiv_pos_as_xyz
 x,y,z
_cell_length_a 44.2971
_cell_length_b 42.8837
_cell_length_c 41.9581
_cell_angle_alpha 92.004000
_cell_angle_beta 90.729000
_cell_angle_gamma 88.663600
loop_
  _atom_site_label
  _atom_site_type_symbol
  _atom_site_fract_x
  _atom_site_fract_y
  _atom_site_fract_z
C1 C 0.18487 0.14400 0.18108
 C2 C 0.17247 0.13258 0.20900
 C3 C 0.14417 0.14402 0.22027
 C4 C 0.12852 0.16683 0.20276
 C5 C 0.14070 0.17854 0.17508
 C6 C 0.16891 0.16705 0.16415
 C7 C 0.21320 0.13307 0.17006
 C8 C 0.22596 0.14490 0.14240
 C9 C 0.20939 0.16768 0.12559
 C10 C 0.18126 0.17885 0.13636
 C11 C 0.16561 0.20227 0.12001
 C12 C 0.13802 0.21454 0.13128
 C13 C 0.12530 0.20204 0.15849
 H14 H 0.18522 0.11497 0.22154
 H15 H 0.10682 0.17596 0.21099
 H16 H 0.22552 0.11550 0.18331
 H17 H 0.21791 0.17738 0.10420
 H18 H 0.17538 0.21169 0.09892
 H19 H 0.10350 0.21044 0.16692
 C20 C -0.18126 0.88029 0.16548
 C21 C -0.16849 0.89145 0.19453
 C22 C -0.13927 0.88149 0.20438
 C23 C -0.12240 0.86151 0.18357
 C24 C -0.13496 0.84985 0.15498
 C25 C -0.16446 0.85902 0.14594
 C26 C -0.21080 0.88925 0.15604
 C27 C -0.22372 0.87685 0.12737
 C28 C -0.20654 0.85547 0.10852
 C29 C -0.17728 0.84641 0.11758
 C30 C -0.16112 0.82388 0.09927
 C31 C -0.13229 0.81361 0.10899
 C32 C -0.11875 0.82790 0.13605
 H33 H -0.18169 0.90721 0.20993
 H34 H -0.09950 0.85433 0.18919
 H35 H -0.22342 0.90544 0.17137
 H36 H -0.21611 0.84543 0.08665
 H37 H -0.17160 0.81319 0.07822
 H38 H -0.09600 0.82137 0.14322
 C39 C -0.18195 0.14424 -0.19185
 C40 C -0.16641 0.12817 -0.21684
 C41 C -0.13828 0.13879 -0.22699
 C42 C -0.12591 0.16539 -0.21216
 C43 C -0.14127 0.18193 -0.18795
 C44 C -0.16925 0.17134 -0.17758
 C45 C -0.20984 0.13383 -0.18079
 C46 C -0.22500 0.15035 -0.15565
 C47 C -0.21189 0.17734 -0.14212
 C48 C -0.18441 0.18793 -0.15285
 C49 C -0.17197 0.21505 -0.13910
 C50 C -0.14454 0.22620 -0.15014
 C51 C -0.12910 0.20915 -0.17417
 H52 H -0.17586 0.10731 -0.22786
 H53 H -0.10433 0.17361 -0.21999
 H54 H -0.21932 0.11305 -0.19183
 H55 H -0.22321 0.19041 -0.12294
 H56 H -0.18373 0.22708 -0.11971
 H57 H -0.10773 0.21739 -0.18255
 C58 C 0.19624 0.82988 -0.17246
 C59 C 0.18295 0.84031 -0.20095
 C60 C 0.15841 0.82441 -0.21551
 C61 C 0.14763 0.79785 -0.20088
 C62 C 0.16052 0.78733 -0.17241
 C63 C 0.18488 0.80335 -0.15815
 C64 C 0.22071 0.84557 -0.15796
 C65 C 0.23393 0.83488 -0.12944
 C66 C 0.22214 0.80864 -0.11541
 C67 C 0.19790 0.79279 -0.12953
 C68 C 0.18647 0.76650 -0.11533
 C69 C 0.16198 0.75065 -0.12911
 C70 C 0.14931 0.76099 -0.15795
 H71 H 0.19212 0.86066 -0.21137
 H72 H 0.12887 0.78529 -0.21161
 H73 H 0.22897 0.86619 -0.16878
 H74 H 0.23208 0.80037 -0.09341
 H75 H 0.19649 0.75850 -0.09327
 H76 H 0.13105 0.74849 -0.16955
 C77 C 0.13769 1.17475 0.84071
 C78 C 0.12507 1.15958 0.81342
 C79 C 0.13604 1.12972 0.80296
 C80 C 0.15878 1.11496 0.82095
 C81 C 0.17211 1.13011 0.84728
 C82 C 0.16189 1.16023 0.85711
 C83 C 0.12685 1.20435 0.85155
 C84 C 0.14018 1.21982 0.87842
 C85 C 0.16527 1.20540 0.89345
 C86 C 0.17623 1.17588 0.88305
 C87 C 0.20158 1.16184 0.89785
 C88 C 0.21189 1.13192 0.88755
 C89 C 0.19645 1.11590 0.86305
 H90 H 0.10697 1.17125 0.80067
 H91 H 0.16730 1.09193 0.81351
 H92 H 0.10816 1.21489 0.83875
 H93 H 0.17624 1.21709 0.91366
 H94 H 0.21326 1.17407 0.91720
 H95 H 0.20451 1.09287 0.85509
 C96 C 0.83277 0.80149 0.78684
 C97 C 0.84562 0.81411 0.75986
 C98 C 0.83154 0.83963 0.74470
 C99 C 0.80420 0.85188 0.75694
 C100 C 0.79122 0.83946 0.78380
 C101 C 0.80555 0.81427 0.79899
 C102 C 0.84689 0.77628 0.80184
 C103 C 0.83446 0.76352 0.82908
 C104 C 0.80708 0.77661 0.84113
 C105 C 0.79260 0.80187 0.82624
 C106 C 0.76532 0.81493 0.83806
 C107 C 0.75103 0.84022 0.82286
 C108 C 0.76412 0.85208 0.79571
 H109 H 0.86654 0.80377 0.75124
 H110 H 0.79295 0.87142 0.74562
 H111 H 0.86785 0.76658 0.79222
 H112 H 0.79661 0.76745 0.86182
 H113 H 0.75523 0.80505 0.85866
 H114 H 0.75320 0.87150 0.78389
 C115 C 0.16926 0.81314 1.17286
 C116 C 0.16001 0.82763 1.20190
 C117 C 0.17323 0.85558 1.21312
 C118 C 0.19548 0.86902 1.19500
 C119 C 0.20511 0.85476 1.16632
 C120 C 0.19200 0.82678 1.15507
 C121 C 0.15626 0.78523 1.16146
 C122 C 0.16579 0.77050 1.13243
 C123 C 0.18870 0.78448 1.11515
 C124 C 0.20184 0.81238 1.12620
 C125 C 0.22488 0.82604 1.10898
 C126 C 0.23804 0.85396 1.12018
 C127 C 0.22804 0.86801 1.14904
 H128 H 0.14230 0.81738 1.21537
 H129 H 0.20567 0.89055 1.20357
 H130 H 0.13890 0.77543 1.17562
 H131 H 0.19643 0.77358 1.09291
 H132 H 0.23270 0.81490 1.08691
 H133 H 0.23858 0.88876 1.15888
 C134 C 0.84693 1.18272 1.20503
 C135 C 0.86241 1.16147 1.22448
 C136 C 0.84791 1.13479 1.23519
 C137 C 0.81772 1.12996 1.22603
 C138 C 0.80218 1.15086 1.20653
 C139 C 0.81675 1.17732 1.19585
 C140 C 0.86113 1.20947 1.19485
 C141 C 0.84568 1.23101 1.17571
 C142 C 0.81566 1.22501 1.16603
 C143 C 0.80109 1.19837 1.17607
 C144 C 0.77108 1.19236 1.16671
 C145 C 0.75663 1.16580 1.17736
 C146 C 0.77221 1.14552 1.19756
 H147 H 0.88544 1.16639 1.23131
 H148 H 0.80613 1.10972 1.23413
 H149 H 0.88430 1.21373 1.20213
 H150 H 0.80350 1.24065 1.15052
 H151 H 0.75897 1.20856 1.15168
 H152 H 0.76108 1.12508 1.20582
 N153 N 0.46641 0.99994 1.05122
 N154 N 0.44183 1.00205 1.06886
 N155 N 0.52967 0.96952 1.03570
 N156 N 0.55253 0.95061 1.04323
 N157 N 0.52989 0.99491 1.05415
 N158 N 0.55259 0.99398 1.07469
 N159 N 0.46612 0.97442 1.03301
 N160 N 0.44157 0.95858 1.03763
 C161 C 0.42667 0.97593 1.06011
 C162 C 0.56645 0.96628 1.06775
 N163 N 0.53107 0.97271 0.94206
 N164 N 0.55383 0.96284 0.92401
 N165 N 0.46623 0.96142 0.96540
 N166 N 0.44201 0.94387 0.96327
 N167 N 0.46780 0.97882 0.94037
 N168 N 0.44508 0.97357 0.92053
 N169 N 0.52980 0.95613 0.96772
 N170 N 0.55151 0.93458 0.96787
 Mn171 Mn 0.49802 0.96497 1.00055
 C172 C 0.56627 0.93901 0.94050
 C173 C 0.42915 0.95184 0.93504
 N174 N 0.53444 1.06053 1.04319
 N175 N 0.55602 1.06818 1.06389
 N176 N 0.47299 1.08296 1.01519
 N177 N 0.44949 1.10252 1.01382
 N178 N 0.47119 1.06570 1.04033
 N179 N 0.44673 1.07305 1.05670
 N180 N 0.53649 1.07683 1.01742
 N181 N 0.55936 1.09589 1.01976
 Mn182 Mn 0.50043 1.03033 1.04761
 C183 C 0.57139 1.09017 1.04873
 C184 C 0.43351 1.09618 1.04008
 N185 N 0.47162 1.04462 0.92991
 N186 N 0.44684 1.04645 0.91199
 N187 N 0.53761 1.06344 0.94946
 N188 N 0.56225 1.07862 0.94265
 N189 N 0.53536 1.03819 0.93104
 N190 N 0.55827 1.03540 0.91135
 N191 N 0.47456 1.07031 0.94752
 N192 N 0.45256 1.09049 0.94164
 Mn193 Mn 0.50139 1.00854 0.93546
 Mn194 Mn 0.50556 1.07373 0.98236
 Cl195 Cl 0.50139 1.01937 0.99149
 C196 C 0.43554 1.07546 0.91946
 C197 C 0.57482 1.06071 0.91877
 N198 N -0.06100 0.47408 -0.03595
 N199 N -0.06733 0.45008 -0.05517
 N200 N -0.07524 0.54166 -0.01074
 N201 N -0.09361 0.56606 -0.01343
 N202 N -0.05632 0.53952 -0.03457
 N203 N -0.06136 0.56262 -0.05423
 N204 N -0.08042 0.47664 -0.01258
 N205 N -0.10061 0.45455 -0.01531
 C206 C -0.09215 0.43828 -0.04202
 C207 C -0.08464 0.57901 -0.04049
 N208 N -0.04796 0.53923 0.07841
 N209 N -0.04500 0.56555 0.09528
 N210 N -0.07569 0.47670 0.05564
 N211 N -0.09618 0.45549 0.05975
 N212 N -0.05328 0.47362 0.07614
 N213 N -0.05790 0.44989 0.09472
 N214 N -0.07002 0.54188 0.05740
 N215 N -0.08245 0.57012 0.05928
 Mn216 Mn -0.07562 0.50927 0.02251
 C217 C -0.06686 0.58439 0.08331
 C218 C -0.08485 0.43893 0.08409
 N219 N 0.00831 0.53240 -0.03902
 N220 N 0.01163 0.55577 -0.05810
 N221 N 0.02633 0.46505 -0.02020
 N222 N 0.04302 0.43965 -0.02639
 N223 N 0.00375 0.46706 -0.04070
 N224 N 0.00453 0.44311 -0.06139
 N225 N 0.03094 0.53065 -0.01856
 N226 N 0.05040 0.55290 -0.02331
 Mn227 Mn -0.02631 0.50323 -0.03795
 C228 C 0.03793 0.56825 -0.04815
 C229 C 0.02912 0.42621 -0.05217
 N230 N 0.01147 0.46735 0.07182
 N231 N 0.01409 0.44320 0.09026
 N232 N 0.03578 0.53090 0.05039
 N233 N 0.05522 0.55385 0.05330
 N234 N 0.01657 0.53244 0.07404
 N235 N 0.02250 0.55629 0.09367
 N236 N 0.03099 0.46508 0.04849
 N237 N 0.04732 0.43898 0.05034
 Mn238 Mn -0.01828 0.50308 0.07549
 Mn239 Mn 0.03148 0.49792 0.01502
 Cl240 Cl -0.02213 0.50336 0.01873
 C241 C 0.03647 0.42575 0.07664
 C242 C 0.04665 0.56938 0.08055
 N243 N 0.96270 0.01497 0.52485
 N244 N 0.94088 0.01777 0.54580
 N245 N 0.98873 0.03586 0.46116
 N246 N 0.98745 0.05304 0.43580
 N247 N 0.96982 0.01279 0.45841
 N248 N 0.95490 0.01383 0.43092
 N249 N 0.98127 0.03833 0.52791
 N250 N 0.97262 0.05763 0.55159
 C251 C 0.94731 0.04432 0.56235
 C252 C 0.96625 0.03921 0.41727
 N253 N 1.07557 0.02132 0.47197
 N254 N 1.09561 0.02440 0.44942
 N255 N 1.04568 0.04411 0.53525
 N256 N 1.04416 0.06456 0.55931
 N257 N 1.06852 0.02443 0.53884
 N258 N 1.08309 0.03093 0.56595
 N259 N 1.05288 0.04124 0.46869
 N260 N 1.05689 0.05841 0.44353
 Mn261 Mn 1.01710 0.04026 0.49828
 C262 C 1.08379 0.04763 0.43194
 C263 C 1.06754 0.05617 0.57824
 N264 N 0.97598 -0.05393 0.45993
 N265 N 0.96052 -0.05879 0.43337
 N266 N 0.99230 -0.07147 0.52904
 N267 N 0.98798 -0.09086 0.55208
 N268 N 0.96927 -0.05187 0.52631
 N269 N 0.94849 -0.05750 0.54760
 N270 N 0.99865 -0.07404 0.46217
 N271 N 0.99917 -0.09322 0.43668
 Mn272 Mn 0.96912 -0.01954 0.49235
 C273 C 0.97502 -0.08336 0.41907
 C274 C 0.96069 -0.08189 0.56345
 N275 N 1.07523 -0.04261 0.53946
 N276 N 1.09249 -0.04385 0.56517
 N277 N 1.06308 -0.06916 0.47129
 N278 N 1.07091 -0.08999 0.44901
 N279 N 1.08179 -0.04582 0.47255
 N280 N 1.10278 -0.05005 0.45046
 N281 N 1.05672 -0.06612 0.53777
 N282 N 1.06106 -0.08413 0.56254
 Mn283 Mn 1.07568 -0.01062 0.50574
 Mn284 Mn 1.02770 -0.07058 0.50009
 Cl285 Cl 1.02245 -0.01513 0.49916
 C286 C 1.08347 -0.06973 0.57939
 C287 C 1.09552 -0.07784 0.43614
 C288 C 1.13077 0.13411 0.24844
 C289 C 1.14341 0.11259 0.26941
 C290 C 1.12807 0.10432 0.29889
 N291 N 1.14141 0.08357 0.31859
 N292 N 1.12798 0.07586 0.34534
 C293 C 1.10066 0.08862 0.35348
 N294 N 1.08729 0.10940 0.33380
 N295 N 1.10074 0.11713 0.30702
 C296 C 1.08551 0.07995 0.38293
 C297 C 1.09853 0.05824 0.40320
 H298 H 1.16511 0.10146 0.26493
 H299 H 1.06360 0.09037 0.38844
 H300 H 1.10893 0.14435 0.25470
 H301 H 1.12032 0.04768 0.39743
 C302 C 0.87185 -0.10877 0.23478
 C303 C 0.89845 -0.12068 0.24897
 C304 C 0.90910 -0.11092 0.28108
 N305 N 0.93429 -0.12474 0.29358
 N306 N 0.94441 -0.11639 0.32262
 C307 C 0.92964 -0.09386 0.34022
 N308 N 0.90448 -0.08003 0.32771
 N309 N 0.89435 -0.08839 0.29870
 C310 C 0.94033 -0.08379 0.37215
 C311 C 0.96575 -0.09642 0.38758
 H312 H 0.91195 -0.13881 0.23729
 H313 H 0.92745 -0.06506 0.38396
 H314 H 0.85837 -0.09198 0.24869
 H315 H 0.97890 -0.11533 0.37650
 C316 C 0.87950 0.12317 0.74727
 C317 C 0.86698 0.10799 0.72055
 C318 C 0.88568 0.09957 0.69254
 N319 N 0.87368 0.08344 0.66725
 N320 N 0.89027 0.07650 0.64158
 C321 C 0.91941 0.08564 0.64009
 N322 N 0.93133 0.10194 0.66528
 N323 N 0.91479 0.10877 0.69099
 C324 C 0.93814 0.07755 0.61207
 C325 C 0.92842 0.05612 0.58878
 H326 H 0.84295 0.10401 0.71919
 H327 H 0.96050 0.08708 0.61072
 H328 H 0.90357 0.12723 0.74753
 H329 H 0.90670 0.04542 0.59122
 C330 C 1.14400 -0.16631 0.75599
 C331 C 1.15120 -0.14024 0.73865
 C332 C 1.13488 -0.13198 0.70908
 N333 N 1.14255 -0.10604 0.69379
 N334 N 1.12820 -0.09806 0.66711
 C335 C 1.10557 -0.11569 0.65458
 N336 N 1.09787 -0.14169 0.66984
 N337 N 1.11224 -0.14969 0.69660
 C338 C 1.08973 -0.10685 0.62486
 C339 C 1.09744 -0.08002 0.60932
 H340 H 1.16897 -0.12488 0.74649
 H341 H 1.07209 -0.12155 0.61511
 H342 H 1.12563 -0.18039 0.74675
 H343 H 1.11507 -0.06549 0.61939
 C344 C 0.25489 1.13384 1.13294
 C345 C 0.27066 1.14423 1.10666
 C346 C 0.30125 1.13275 1.09851
 N347 N 0.31535 1.14416 1.07299
 N348 N 0.34310 1.13420 1.06522
 C349 C 0.35777 1.11245 1.08277
 N350 N 0.34369 1.10105 1.10829
 N351 N 0.31595 1.11102 1.11606
 C352 C 0.38819 1.10071 1.07448
 C353 C 0.40406 1.11062 1.04828
 H354 H 0.26116 1.16159 1.09125
 H355 H 0.39819 1.08296 1.08933
 H356 H 0.26600 1.11634 1.14730
 H357 H 0.39446 1.12830 1.03313
 C358 C 0.25976 0.85026 0.88698
 C359 C 0.27907 0.87070 0.87267
 C360 C 0.30579 0.88326 0.88954
 N361 N 0.32395 0.90297 0.87458
 N362 N 0.34850 0.91408 0.88921
 C363 C 0.35593 0.90589 0.91936
 N364 N 0.33776 0.88618 0.93438
 N365 N 0.31315 0.87508 0.91975
 C366 C 0.38332 0.91791 0.93548
 C367 C 0.40148 0.93904 0.92074
 H368 H 0.27544 0.87695 0.84816
 H369 H 0.38921 0.91014 0.95910
 H370 H 0.26481 0.84376 0.91124
 H371 H 0.39512 0.94708 0.89735
 C372 C 0.74682 0.88423 1.11647
 C373 C 0.72621 0.90513 1.13118
 C374 C 0.69605 0.91106 1.11689
 N375 N 0.67752 0.93370 1.12963
 N376 N 0.65057 0.93972 1.11641
 C377 C 0.64106 0.92326 1.09001
 N378 N 0.65947 0.90044 1.07745
 N379 N 0.68642 0.89447 1.09062
 C380 C 0.61179 0.93049 1.07446
 C381 C 0.59405 0.95606 1.08454
 H382 H 0.73196 0.91803 1.15289
 H383 H 0.60485 0.91643 1.05383
 H384 H 0.73943 0.87277 1.09437
 H385 H 0.60147 0.97052 1.10469
 C386 C 0.74727 1.14166 0.85707
 C387 C 0.73027 1.11574 0.84779
 C388 C 0.70158 1.10967 0.86389
 N389 N 0.68521 1.08431 0.85529
 N390 N 0.65940 1.07879 0.86993
 C391 C 0.64900 1.09843 0.89370
 N392 N 0.66534 1.12376 0.90224
 N393 N 0.69109 1.12925 0.88764
 C394 C 0.62059 1.09274 0.91024
 C395 C 0.60310 1.06700 0.90250
 H396 H 0.73767 1.09958 0.82900
 H397 H 0.61336 1.10915 0.92898
 H398 H 0.73817 1.15656 0.87621
 H399 H 0.61035 1.05053 0.88383
 C400 C 0.12376 0.24096 0.11449
 C401 C 0.10435 0.26278 0.12941
 C402 C 0.09414 0.29151 0.11409
 N403 N 0.07563 0.31198 0.13014
 N404 N 0.06694 0.33868 0.11725
 C405 C 0.07650 0.34602 0.08787
 N406 N 0.09499 0.32552 0.07174
 N407 N 0.10367 0.29873 0.08463
 C408 C 0.06719 0.37576 0.07383
 C409 C 0.04685 0.39601 0.08945
 H410 H 0.09774 0.26001 0.15385
 H411 H 0.07616 0.38164 0.05096
 H412 H 0.13109 0.24508 0.09048
 H413 H 0.03736 0.38965 0.11191
 C414 C -0.13120 0.25541 -0.13733
 C415 C -0.14737 0.27842 -0.12002
 C416 C -0.13353 0.30772 -0.10925
 N417 N -0.14901 0.32808 -0.08975
 N418 N -0.13675 0.35480 -0.07980
 C419 C -0.10863 0.36215 -0.08915
 N420 N -0.09324 0.34190 -0.10883
 N421 N -0.10545 0.31513 -0.11867
 C422 C -0.09466 0.39125 -0.07811
 C423 C -0.10738 0.41035 -0.05418
 H424 H -0.17088 0.27559 -0.11452
 H425 H -0.07320 0.39711 -0.08817
 H426 H -0.10790 0.25962 -0.14310
 H427 H -0.12821 0.40404 -0.04308
 C428 C 0.15068 0.72320 -0.11287
 C429 C 0.12163 0.71192 -0.11752
 C430 C 0.11070 0.68500 -0.10065
 N431 N 0.08252 0.67466 -0.10702
 N432 N 0.07215 0.65024 -0.09219
 C433 C 0.08952 0.63524 -0.07036
 N434 N 0.11770 0.64566 -0.06385
 N435 N 0.12813 0.67009 -0.07876
 C436 C 0.07814 0.60800 -0.05423
 C437 C 0.05035 0.59558 -0.06283
 H438 H 0.10593 0.72334 -0.13350
 H439 H 0.09191 0.59734 -0.03588
 H440 H 0.16536 0.71234 -0.09541
 H441 H 0.03695 0.60600 -0.08160
 C442 C -0.11851 0.78594 0.09231
 C443 C -0.09784 0.76604 0.10727
 C444 C -0.09302 0.73346 0.09649
 N445 N -0.07557 0.71431 0.11442
 N446 N -0.07324 0.68395 0.10700
 C447 C -0.08842 0.67160 0.08143
 N448 N -0.10558 0.69079 0.06321
 N449 N -0.10793 0.72119 0.07066
 C450 C -0.08688 0.63799 0.07375
 C451 C -0.07005 0.61753 0.09233
 H452 H -0.08774 0.77268 0.13000
 H453 H -0.09898 0.62924 0.05281
 H454 H -0.12857 0.77821 0.06980
 H455 H -0.05737 0.62621 0.11289
 C456 C 1.12649 0.11398 0.77475
 C457 C 1.10763 0.12617 0.75109
 C458 C 1.10343 0.10899 0.72029
 N459 N 1.08564 0.12130 0.69717
 N460 N 1.08251 0.10636 0.66898
 C461 C 1.09716 0.07863 0.66275
 N462 N 1.11495 0.06632 0.68585
 N463 N 1.11803 0.08124 0.71405
 C464 C 1.09372 0.06186 0.63168
 C465 C 1.07380 0.07287 0.60861
 H466 H 1.09709 0.14905 0.75395
 H467 H 1.10623 0.04015 0.62734
 H468 H 1.13616 0.09086 0.76991
 H469 H 1.06076 0.09414 0.61349
 C470 C 0.84359 -0.14621 0.71805
 C471 C 0.87075 -0.15499 0.70335
 C472 C 0.88251 -0.13796 0.67656
 N473 N 0.90952 -0.14679 0.66398
 N474 N 0.92088 -0.13140 0.64008
 C475 C 0.90569 -0.10659 0.62783
 N476 N 0.87858 -0.09779 0.64032
 N477 N 0.86721 -0.11319 0.66429
 C478 C 0.91843 -0.08943 0.60160
 C479 C 0.94668 -0.09775 0.58956
 H480 H 0.88450 -0.17429 0.71147
 H481 H 0.90562 -0.07009 0.59183
 H482 H 0.83105 -0.12661 0.70837
 H483 H 0.95941 -0.11702 0.59955
 C484 C 1.16439 -0.12804 0.24331
 C485 C 1.15341 -0.14308 0.26951
 C486 C 1.14735 -0.12616 0.30001
 N487 N 1.13718 -0.14187 0.32503
 N488 N 1.13121 -0.12691 0.35265
 C489 C 1.13529 -0.09567 0.35642
 N490 N 1.14573 -0.07996 0.33146
 N491 N 1.15169 -0.09494 0.30379
 C492 C 1.12673 -0.07877 0.38633
 C493 C 1.11133 -0.09397 0.40968
 H494 H 1.15008 -0.16801 0.26819
 H495 H 1.12992 -0.05383 0.38865
 H496 H 1.16901 -0.10337 0.24584
 H497 H 1.10690 -0.11859 0.40623
 C498 C 0.86177 0.11305 0.25540
 C499 C 0.89160 0.11392 0.26650
 C500 C 0.90284 0.09294 0.29118
 N501 N 0.93095 0.09675 0.30357
 N502 N 0.94071 0.07966 0.32763
 C503 C 0.92279 0.05805 0.34020
 N504 N 0.89487 0.05376 0.32740
 N505 N 0.88506 0.07094 0.30334
 C506 C 0.93253 0.04131 0.36871
 C507 C 0.95773 0.05100 0.38608
 H508 H 0.90707 0.13099 0.25850
 H509 H 0.91848 0.02325 0.37757
 H510 H 0.84804 0.09438 0.26359
 H511 H 0.97096 0.06989 0.37765
 C512 C 0.12967 0.24901 -0.10882
 C513 C 0.10442 0.26615 -0.11967
 C514 C 0.09434 0.29592 -0.10383
 N515 N 0.06939 0.31137 -0.11477
 N516 N 0.05983 0.33805 -0.10056
 C517 C 0.07486 0.35034 -0.07479
 N518 N 0.09981 0.33492 -0.06388
 N519 N 0.10936 0.30825 -0.07809
 C520 C 0.06462 0.37980 -0.05858
 C521 C 0.03914 0.39681 -0.06850
 H522 H 0.09104 0.25783 -0.13976
 H523 H 0.07759 0.38834 -0.03816
 H524 H 0.14181 0.25882 -0.08838
 H525 H 0.02603 0.38842 -0.08887
 C526 C -0.13799 0.25908 0.16622
 C527 C -0.15182 0.28524 0.15288
 C528 C -0.13475 0.31271 0.14412
 N529 N -0.14914 0.33615 0.12874
 N530 N -0.13418 0.36108 0.12032
 C531 C -0.10424 0.36366 0.12706
 N532 N -0.08984 0.34032 0.14268
 N533 N -0.10481 0.31528 0.15102
 C534 C -0.08750 0.39098 0.11709
 C535 C -0.10072 0.41236 0.09660
 H536 H -0.17592 0.28616 0.14868
 H537 H -0.06424 0.39358 0.12482
 H538 H -0.11387 0.25951 0.17085
 H539 H -0.12352 0.40877 0.08785
 C540 C -0.14989 0.73815 -0.15724
 C541 C -0.15818 0.72328 -0.12962
 C542 C -0.14053 0.69662 -0.11726
 N543 N -0.14871 0.68385 -0.08964
 N544 N -0.13320 0.65962 -0.07821
 C545 C -0.10890 0.64718 -0.09396
 N546 N -0.10069 0.65994 -0.12160
 N547 N -0.11619 0.68422 -0.13302
 C548 C -0.09191 0.62005 -0.08165
 C549 C -0.09974 0.60688 -0.05314
 H550 H -0.17771 0.73102 -0.11613
 H551 H -0.07328 0.61010 -0.09538
 H552 H -0.12953 0.72950 -0.16895
 H553 H -0.11829 0.61704 -0.03943
 C554 C 0.15357 0.74237 0.11986
 C555 C 0.13072 0.72554 0.13386
 C556 C 0.11890 0.69627 0.11942
 N557 N 0.09673 0.68132 0.13436
 N558 N 0.08559 0.65495 0.12186
 C559 C 0.09617 0.64241 0.09387
 N560 N 0.11837 0.65734 0.07889
 N561 N 0.12953 0.68376 0.09141
 C562 C 0.08373 0.61327 0.07973
 C563 C 0.06055 0.59776 0.09431
 H564 H 0.12067 0.73349 0.15606
 H565 H 0.09268 0.60413 0.05730
 H566 H 0.16253 0.73293 0.09751
 H567 H 0.05148 0.60713 0.11659
 C568 C 0.23968 1.11715 0.90025
 C569 C 0.26640 1.13344 0.90349
 C570 C 0.29602 1.11719 0.90473
 N571 N 0.32159 1.13390 0.90402
 N572 N 0.34855 1.11953 0.90355
 C573 C 0.35104 1.08787 0.90353
 N574 N 0.32546 1.07113 0.90425
 N575 N 0.29845 1.08552 0.90470
 C576 C 0.38089 1.07197 0.90456
 C577 C 0.40708 1.08909 0.90784
 H578 H 0.26593 1.15855 0.90138
 H579 H 0.38207 1.04681 0.90620
 H580 H 0.24066 1.09189 0.90065
 H581 H 0.40549 1.11433 0.90805
 C582 C 0.26342 0.86696 1.10250
 C583 C 0.27260 0.89784 1.10686
 C584 C 0.30095 0.90905 1.09403
 N585 N 0.31059 0.93796 1.10283
 N586 N 0.33690 0.94804 1.09266
 C587 C 0.35450 0.92953 1.07328
 N588 N 0.34474 0.90073 1.06427
 N589 N 0.31850 0.89061 1.07454
 C590 C 0.38376 0.93982 1.06199
 C591 C 0.39715 0.96755 1.07250
 H592 H 0.25937 0.91436 1.12122
 H593 H 0.39550 0.92444 1.04501
 H594 H 0.27579 0.85142 1.08619
 H595 H 0.38606 0.98304 1.08985
 C596 C 0.72539 1.15799 1.16802
 C597 C 0.71254 1.16488 1.13854
 C598 C 0.68440 1.15026 1.12737
 N599 N 0.67407 1.15470 1.09727
 N600 N 0.64968 1.14005 1.08625
 C601 C 0.63476 1.12033 1.10488
 N602 N 0.64493 1.11610 1.13506
 N603 N 0.66931 1.13076 1.14608
 C604 C 0.60837 1.10326 1.09264
 C605 C 0.59755 1.10686 1.06171
 H606 H 0.72457 1.17884 1.12210
 H607 H 0.59739 1.08748 1.10817
 H608 H 0.71345 1.14278 1.18338
 H609 H 0.60832 1.12291 1.04631
 C610 C 0.72231 0.85505 0.83380
 C611 C 0.71034 0.85259 0.86417
 C612 C 0.68313 0.87078 0.87379
 N613 N 0.67121 0.86751 0.90307
 N614 N 0.64690 0.88431 0.91208
 C615 C 0.63369 0.90508 0.89217
 N616 N 0.64564 0.90838 0.86295
 N617 N 0.66987 0.89155 0.85393
 C618 C 0.60701 0.92401 0.90177
 C619 C 0.59281 0.92014 0.93068
 H620 H 0.72143 0.83816 0.88164
 H621 H 0.59824 0.94124 0.88558
 H622 H 0.71075 0.87035 0.81737
 H623 H 0.60118 0.90258 0.94670
   
