data_POSCAR
  _audit_creation_date              2014-09-24
  _audit_creation_method            'ToBaCCo'
  _symmetry_space_group_name_H-M    'P1'
  _symmetry_Int_Tables_number       1
  _symmetry_cell_setting            triclinic
  loop_
  _symmetry_equiv_pos_as_xyz
 x,y,z
_cell_length_a 41.9119
_cell_length_b 41.6453
_cell_length_c 39.9555
_cell_angle_alpha 88.354900
_cell_angle_beta 87.991400
_cell_angle_gamma 92.690000
loop_
  _atom_site_label
  _atom_site_type_symbol
  _atom_site_fract_x
  _atom_site_fract_y
  _atom_site_fract_z
N1 N 0.18899 1.27812 0.16571
 N2 N 0.16514 1.27439 0.18798
 C3 C 0.14347 1.29637 0.18168
 C4 C 0.15420 1.31477 0.15383
 C5 C 0.18338 1.30280 0.14448
 H6 H 0.12076 1.29779 0.19514
 H7 H 0.19827 1.30995 0.12261
 Cu8 Cu 0.16273 1.23829 0.21989
 Cu9 Cu 0.22236 1.24689 0.16299
 Cu10 Cu 0.22907 1.20041 0.23614
 N11 N 0.16215 1.20316 0.25284
 N12 N 0.18849 1.18897 0.26027
 C13 C 0.18143 1.16557 0.28378
 C14 C 0.14874 1.16465 0.29059
 C15 C 0.13733 1.18886 0.27059
 H16 H 0.19849 1.14948 0.29380
 H17 H 0.11270 1.19516 0.26869
 N18 N 0.26237 1.20378 0.19966
 N19 N 0.25919 1.22040 0.17139
 C20 C 0.28253 1.21310 0.14932
 C21 C 0.30126 1.19081 0.16433
 C22 C 0.28803 1.18563 0.19632
 H23 H 0.28442 1.22153 0.12344
 H24 H 0.29461 1.16762 0.21453
 H25 H 0.20427 1.20799 0.19372
 H26 H 0.22078 1.24511 0.21320
 N27 N 0.80421 0.73842 0.15247
 N28 N 0.83077 0.74798 0.16650
 C29 C 0.85501 0.73121 0.15440
 C30 C 0.84303 0.70985 0.13169
 C31 C 0.81064 0.71488 0.13108
 H32 H 0.87968 0.73470 0.16111
 H33 H 0.79347 0.70347 0.11508
 Cu34 Cu 0.83216 0.78228 0.19823
 Cu35 Cu 0.76478 0.76062 0.15998
 Cu36 Cu 0.76340 0.81298 0.22578
 N37 N 0.82946 0.80596 0.23916
 N38 N 0.80261 0.81736 0.25066
 C39 C 0.80855 0.83406 0.27843
 C40 C 0.84093 0.83315 0.28421
 C41 C 0.85332 0.81494 0.25895
 H42 H 0.79105 0.84721 0.29227
 H43 H 0.87809 0.80949 0.25468
 N44 N 0.72674 0.80555 0.19672
 N45 N 0.72760 0.78599 0.17129
 C46 C 0.70244 0.79100 0.15211
 C47 C 0.68484 0.81474 0.16612
 C48 C 0.70072 0.82325 0.19453
 H49 H 0.69880 0.78039 0.12807
 H50 H 0.69565 0.84327 0.21020
 H51 H 0.78297 0.80366 0.17895
 H52 H 0.77603 0.76863 0.20941
 N53 N 0.81020 1.24329 -0.16272
 N54 N 0.83672 1.23695 -0.17929
 C55 C 0.85976 1.25908 -0.17253
 C56 C 0.84712 1.28051 -0.15058
 C57 C 0.81552 1.26995 -0.14492
 H58 H 0.88430 1.25892 -0.18182
 H59 H 0.79842 1.27965 -0.12749
 Cu60 Cu 0.84033 1.19915 -0.20607
 Cu61 Cu 0.77288 1.21335 -0.16148
 Cu62 Cu 0.77497 1.15153 -0.21751
 N63 N 0.83842 1.16914 -0.24224
 N64 N 0.81255 1.15120 -0.24755
 C65 C 0.81852 1.13193 -0.27335
 C66 C 0.84998 1.13797 -0.28438
 C67 C 0.86181 1.16181 -0.26419
 H68 H 0.80182 1.11379 -0.28225
 H69 H 0.88589 1.17242 -0.26486
 N70 N 0.73939 1.15593 -0.18474
 N71 N 0.73810 1.17991 -0.16388
 C72 C 0.71332 1.17387 -0.14181
 C73 C 0.69876 1.14450 -0.14887
 C74 C 0.71580 1.13387 -0.17623
 H75 H 0.70817 1.18812 -0.12024
 H76 H 0.71271 1.11064 -0.18743
 H77 H 0.79502 1.17230 -0.17566
 H78 H 0.78293 1.20042 -0.21003
 N79 N 0.21879 0.74382 -0.18931
 N80 N 0.19943 0.74528 -0.21444
 C81 C 0.17663 0.72152 -0.21056
 C82 C 0.18210 0.70409 -0.18155
 C83 C 0.20927 0.71863 -0.16883
 H84 H 0.15639 0.71850 -0.22644
 H85 H 0.21960 0.71313 -0.14502
 Cu86 Cu 0.20278 0.78053 -0.24745
 Cu87 Cu 0.25120 0.77806 -0.18253
 Cu88 Cu 0.23361 0.85057 -0.22115
 N89 N 0.19476 0.82070 -0.27053
 N90 N 0.20542 0.84823 -0.25888
 C91 C 0.19340 0.87247 -0.27666
 C92 C 0.17416 0.85936 -0.30072
 C93 C 0.17576 0.82639 -0.29634
 H94 H 0.19769 0.89772 -0.27193
 H95 H 0.16268 0.80798 -0.30954
 N96 N 0.26219 0.84747 -0.18313
 N97 N 0.27033 0.81984 -0.16963
 C98 C 0.29058 0.82580 -0.14481
 C99 C 0.29507 0.85875 -0.14252
 C100 C 0.27679 0.87170 -0.16711
 H101 H 0.30033 0.80759 -0.12882
 H102 H 0.27428 0.89699 -0.17272
 H103 H 0.21703 0.80809 -0.19716
 H104 H 0.25210 0.80645 -0.22690
 C105 C 0.45384 0.97968 0.01862
 C106 C 0.47297 1.00030 0.03754
 C107 C 0.45939 1.02609 0.05376
 C108 C 0.42693 1.03184 0.05026
 C109 C 0.40829 1.01172 0.03025
 C110 C 0.42148 0.98545 0.01447
 C111 C 0.50779 0.99711 0.03624
 C112 C 0.52680 1.01758 0.01440
 C113 C 0.55906 1.01164 0.00798
 C114 C 0.57235 0.98543 0.02431
 C115 C 0.55394 0.96570 0.04745
 C116 C 0.52151 0.97152 0.05321
 H117 H 0.46470 0.96024 0.00560
 H118 H 0.47431 1.04223 0.06802
 H119 H 0.51597 1.03704 0.00101
 H120 H 0.50676 0.95566 0.06997
 H121 H 0.38329 1.01632 0.02732
 H122 H 0.59734 0.98086 0.01965
 C123 C -0.02353 0.46844 0.97048
 C124 C -0.00124 0.48840 0.98650
 C125 C 0.02076 0.47487 1.00785
 C126 C 0.01984 0.44155 1.01403
 C127 C -0.00210 0.42177 0.99752
 C128 C -0.02344 0.43493 0.97523
 C129 C -0.00071 0.52345 0.98070
 C130 C -0.02390 0.54163 0.99651
 C131 C -0.02276 0.57523 0.99209
 C132 C 0.00076 0.59020 0.97027
 C133 C 0.02377 0.57217 0.95404
 C134 C 0.02338 0.53881 0.95992
 H135 H -0.03997 0.47894 0.95342
 H136 H 0.03783 0.49031 1.02035
 H137 H -0.04192 0.52969 1.01324
 H138 H 0.04125 0.52470 0.94774
 H139 H -0.00228 0.39593 1.00179
 H140 H 0.00157 0.61609 0.96636
 C141 C 0.97182 -0.03404 0.46212
 C142 C 0.99362 -0.01404 0.47873
 C143 C 1.01528 0.00682 0.46020
 C144 C 1.01486 0.00838 0.42517
 C145 C 0.99348 -0.01209 0.40873
 C146 C 0.97221 -0.03365 0.42694
 C147 C 0.99432 -0.01448 0.51549
 C148 C 1.01825 -0.03072 0.53173
 C149 C 1.02260 -0.02694 0.56607
 C150 C 1.00280 -0.00670 0.58394
 C151 C 0.97820 0.00892 0.56816
 C152 C 0.97383 0.00470 0.53389
 H153 H 0.95544 -0.05048 0.47648
 H154 H 1.03178 0.02249 0.47318
 H155 H 1.03422 -0.04524 0.51733
 H156 H 0.95569 0.01761 0.52117
 H157 H 0.99346 -0.01132 0.38159
 H158 H 1.00612 -0.00355 0.61045
 C159 C 0.10097 0.37737 1.10063
 N160 N 0.08855 0.36164 1.12866
 N161 N 0.10626 0.34223 1.14645
 C162 C 0.13696 0.33739 1.13665
 N163 N 0.14957 0.35346 1.10880
 N164 N 0.13192 0.37321 1.09118
 C165 C 0.08019 0.39601 1.07951
 N166 N 0.09242 0.41836 1.05651
 N167 N 0.07317 0.43373 1.03624
 C168 C 0.04113 0.42689 1.03796
 N169 N 0.02900 0.40461 1.06099
 N170 N 0.04814 0.38964 1.08153
 C171 C -0.10245 0.65135 1.07117
 N172 N -0.13453 0.64539 1.07517
 N173 N -0.15212 0.66400 1.09438
 C174 C -0.13813 0.68891 1.11057
 N175 N -0.10607 0.69463 1.10672
 N176 N -0.08860 0.67632 1.08725
 C177 C -0.08265 0.63157 1.04975
 N178 N -0.05320 0.64304 1.03879
 N179 N -0.03456 0.62524 1.02000
 C180 C -0.04446 0.59510 1.01170
 N181 N -0.07396 0.58352 1.02275
 N182 N -0.09281 0.60153 1.04128
 C183 C -0.09996 0.34989 0.90038
 N184 N -0.13236 0.35047 0.90058
 N185 N -0.14946 0.32858 0.88412
 C186 C -0.13467 0.30566 0.86663
 N187 N -0.10231 0.30543 0.86617
 N188 N -0.08531 0.32700 0.88287
 C189 C -0.08068 0.37246 0.91980
 N190 N -0.05082 0.36487 0.92815
 N191 N -0.03291 0.38475 0.94593
 C192 C -0.04396 0.41322 0.95577
 N193 N -0.07379 0.42105 0.94717
 N194 N -0.09194 0.40089 0.92968
 C195 C 0.11674 0.64047 0.87051
 N196 N 0.10767 0.65854 0.84402
 N197 N 0.12883 0.67792 0.82678
 C198 C 0.15980 0.68027 0.83562
 N199 N 0.16899 0.66205 0.86200
 N200 N 0.14785 0.64233 0.87903
 C201 C 0.09268 0.62130 0.89098
 N202 N 0.10110 0.59691 0.91167
 N203 N 0.07909 0.58066 0.93124
 C204 C 0.04801 0.58859 0.93114
 N205 N 0.03969 0.61295 0.91043
 N206 N 0.06156 0.62885 0.89057
 C207 C 1.09397 0.09960 0.34975
 N208 N 1.08017 0.12153 0.32991
 N209 N 1.09804 0.14291 0.31124
 C210 C 1.13042 0.14291 0.31131
 N211 N 1.14430 0.12092 0.33119
 N212 N 1.12637 0.09977 0.35026
 C213 C 1.07387 0.07570 0.36949
 N214 N 1.08485 0.06082 0.39720
 N215 N 1.06609 0.03946 0.41510
 C216 C 1.03589 0.03190 0.40562
 N217 N 1.02510 0.04666 0.37779
 N218 N 1.04365 0.06829 0.36019
 C219 C 1.11570 -0.09185 0.63736
 N220 N 1.11801 -0.12413 0.63508
 N221 N 1.13732 -0.13998 0.65483
 C222 C 1.15517 -0.12407 0.67740
 N223 N 1.15321 -0.09171 0.67922
 N224 N 1.13371 -0.07594 0.65972
 C225 C 1.09276 -0.07457 0.61756
 N226 N 1.08400 -0.04505 0.62673
 N227 N 1.06194 -0.02985 0.61009
 C228 C 1.04801 -0.04342 0.58342
 N229 N 1.05711 -0.07281 0.57393
 N230 N 1.07896 -0.08820 0.59082
 C231 C 0.89419 -0.11639 0.35123
 N232 N 0.90834 -0.13458 0.32792
 N233 N 0.89088 -0.15150 0.30689
 C234 C 0.85854 -0.15065 0.30802
 N235 N 0.84423 -0.13268 0.33160
 N236 N 0.86176 -0.11592 0.35293
 C237 C 0.91418 -0.09595 0.37225
 N238 N 0.90231 -0.08301 0.40066
 N239 N 0.92084 -0.06366 0.41867
 C240 C 0.95170 -0.05628 0.40859
 N241 N 0.96342 -0.06931 0.38024
 N242 N 0.94509 -0.08889 0.36256
 C243 C 0.90212 0.08814 0.64733
 N244 N 0.87003 0.08227 0.65119
 N245 N 0.85291 0.09870 0.67301
 C246 C 0.86724 0.12177 0.69150
 N247 N 0.89923 0.12797 0.68711
 N248 N 0.91635 0.11134 0.66561
 C249 C 0.92167 0.06855 0.62550
 N250 N 0.95346 0.06720 0.63032
 N251 N 0.97134 0.04840 0.61184
 C252 C 0.95823 0.03049 0.58755
 N253 N 0.92647 0.03214 0.58235
 N254 N 0.90845 0.05069 0.60117
 C255 C 0.36372 1.13081 0.11535
 N256 N 0.36235 1.13151 0.14933
 N257 N 0.34314 1.15130 0.16506
 C258 C 0.32488 1.17130 0.14734
 N259 N 0.32676 1.17102 0.11337
 N260 N 0.34569 1.15104 0.09769
 C261 C 0.38204 1.10674 0.09791
 N262 N 0.37467 1.09878 0.06632
 N263 N 0.38936 1.07530 0.05107
 C264 C 0.41226 1.05910 0.06665
 N265 N 0.42007 1.06742 0.09807
 N266 N 0.40505 1.09068 0.11353
 C267 C 0.63514 1.08914 -0.08540
 N268 N 0.63754 1.12162 -0.08293
 N269 N 0.65738 1.13944 -0.10353
 C270 C 0.67519 1.12542 -0.12759
 N271 N 0.67241 1.09302 -0.13033
 N272 N 0.65287 1.07520 -0.10952
 C273 C 0.61486 1.06915 -0.06157
 N274 N 0.61999 1.03739 -0.05731
 N275 N 0.60232 1.01920 -0.03510
 C276 C 0.57861 1.03200 -0.01652
 N277 N 0.57329 1.06375 -0.02099
 N278 N 0.59124 1.08205 -0.04294
 C279 C 0.34823 0.91069 -0.07386
 N280 N 0.32673 0.92529 -0.09302
 N281 N 0.30996 0.90867 -0.11491
 C282 C 0.31385 0.87675 -0.11831
 N283 N 0.33524 0.86203 -0.09904
 N284 N 0.35225 0.87875 -0.07730
 C285 C 0.36686 0.92946 -0.05015
 N286 N 0.39296 0.91747 -0.03600
 N287 N 0.41025 0.93513 -0.01528
 C288 C 0.40193 0.96531 -0.00772
 N289 N 0.37566 0.97710 -0.02172
 N290 N 0.35855 0.95957 -0.04261
 C291 C 0.61957 0.87072 0.11714
 N292 N 0.63655 0.84903 0.10022
 N293 N 0.65634 0.83030 0.11618
 C294 C 0.66018 0.83279 0.14960
 N295 N 0.64297 0.85426 0.16664
 N296 N 0.62287 0.87278 0.15072
 C297 C 0.60040 0.89350 0.09880
 N298 N 0.57797 0.91050 0.11492
 N299 N 0.56234 0.93278 0.09837
 C300 C 0.56893 0.93916 0.06524
 N301 N 0.59123 0.92202 0.04917
 N302 N 0.60652 0.89949 0.06559
   
