data_POSCAR
  _audit_creation_date              2014-09-24
  _audit_creation_method            'ToBaCCo'
  _symmetry_space_group_name_H-M    'P1'
  _symmetry_Int_Tables_number       1
  _symmetry_cell_setting            triclinic
  loop_
  _symmetry_equiv_pos_as_xyz
 x,y,z
_cell_length_a 43.6869
_cell_length_b 42.0712
_cell_length_c 41.6584
_cell_angle_alpha 89.834400
_cell_angle_beta 90.158600
_cell_angle_gamma 90.370200
loop_
  _atom_site_label
  _atom_site_type_symbol
  _atom_site_fract_x
  _atom_site_fract_y
  _atom_site_fract_z
Si1 Si 0.24894 0.49610 0.99958
 Si2 Si 0.74991 0.49803 0.00372
 Si3 Si 0.00112 0.24835 0.49235
 Si4 Si 1.00108 0.75856 0.51302
 Si5 Si 0.49705 -0.01297 0.25096
 Si6 Si 0.50215 0.00755 0.74595
 C7 C 0.29505 0.02688 0.45594
 H8 H 0.29646 0.04607 0.47313
 C9 C 0.31531 0.02603 0.43013
 H10 H 0.33235 0.04467 0.42760
 C11 C 0.27232 -0.02177 0.43959
 H12 H 0.25607 -0.04077 0.44378
 C13 C 0.29227 -0.02367 0.41356
 H14 H 0.29078 -0.04388 0.39758
 N15 N 0.27409 0.00322 0.46019
 C16 C 0.20340 0.04228 0.52212
 H17 H 0.20275 0.02427 0.54071
 C18 C 0.18220 0.06695 0.52236
 H19 H 0.16523 0.06768 0.54123
 C20 C 0.22513 0.06186 0.47386
 H21 H 0.24140 0.05944 0.45459
 C22 C 0.20437 0.08696 0.47318
 H23 H 0.20542 0.10401 0.45368
 Zn24 Zn 0.25008 0.00415 0.49792
 N25 N 0.22434 0.04019 0.49815
 C26 C 0.27487 0.02471 0.55828
 N27 N 0.27766 0.00456 0.53301
 C28 C 0.30168 -0.01567 0.53086
 C29 C 0.32438 -0.01590 0.55443
 C30 C 0.29675 0.02476 0.58287
 C31 C 0.20244 -0.03522 0.47715
 C32 C 0.18180 -0.06063 0.47821
 C33 C 0.20646 -0.07899 0.52678
 C34 C 0.22686 -0.05335 0.52462
 N35 N 0.22446 -0.03213 0.50006
 H36 H 0.25578 0.04083 0.55945
 H37 H 0.30353 -0.03120 0.51031
 H38 H 0.34380 -0.03140 0.55131
 H39 H 0.29368 0.04052 0.60307
 H40 H 0.20076 -0.01766 0.45821
 H41 H 0.16411 -0.06243 0.46003
 H42 H 0.20851 -0.09564 0.54653
 H43 H 0.24429 -0.05016 0.54282
 C44 C 0.18236 0.08961 0.49752
 C45 C 0.31430 0.00030 0.40877
 C46 C 0.18353 -0.08279 0.50338
 C47 C 0.32217 0.00443 0.58106
 C48 C 0.70066 0.02630 0.53002
 H49 H 0.69813 0.04072 0.50865
 C50 C 0.67891 0.02805 0.55442
 H51 H 0.65959 0.04374 0.55127
 C52 C 0.72787 -0.01327 0.55859
 H53 H 0.74658 -0.02987 0.55984
 C54 C 0.70694 -0.01188 0.58385
 H55 H 0.71041 -0.02694 0.60463
 N56 N 0.72438 0.00568 0.53234
 C57 C 0.79691 0.03768 0.46836
 H58 H 0.79776 0.01750 0.45235
 C59 C 0.81904 0.06160 0.46616
 H60 H 0.83667 0.05994 0.44803
 C61 C 0.77350 0.06361 0.51228
 H62 H 0.75621 0.06375 0.53079
 C63 C 0.79516 0.08822 0.51082
 H64 H 0.79436 0.10721 0.52828
 Zn65 Zn 0.75003 0.00227 0.49592
 N66 N 0.77502 0.03883 0.49144
 C67 C 0.72438 0.01815 0.43494
 N68 N 0.72403 -0.00275 0.45993
 C69 C 0.70293 -0.02657 0.46157
 C70 C 0.68055 -0.02966 0.43785
 C71 C 0.70244 0.01582 0.41054
 C72 C 0.79860 -0.03082 0.52326
 C73 C 0.82113 -0.05403 0.52577
 C74 C 0.79856 -0.08090 0.48023
 C75 C 0.77635 -0.05715 0.47864
 N76 N 0.77686 -0.03268 0.49994
 H77 H 0.74099 0.03728 0.43441
 H78 H 0.70299 -0.04261 0.48192
 H79 H 0.66362 -0.04848 0.43984
 H80 H 0.70235 0.03325 0.39136
 H81 H 0.79879 -0.01081 0.53952
 H82 H 0.83823 -0.05202 0.54452
 H83 H 0.79837 -0.09965 0.46249
 H84 H 0.75935 -0.05779 0.45977
 C85 C 0.81872 0.08695 0.48799
 C86 C 0.68171 0.00866 0.58182
 C87 C 0.82162 -0.07926 0.50376
 C88 C 0.67978 -0.00794 0.41221
 C89 C 0.47571 0.20034 1.04145
 H90 H 0.45883 0.20051 1.02240
 C91 C 0.47501 0.17637 1.06464
 H92 H 0.45724 0.15834 1.06357
 C93 C 0.52001 0.22304 1.06531
 H94 H 0.53819 0.24050 1.06491
 C95 C 0.52002 0.19963 1.08916
 H96 H 0.53808 0.19952 1.10702
 N97 N 0.49795 0.22308 1.04216
 C98 C 0.46360 0.30265 0.98584
 H99 H 0.48320 0.30621 0.97039
 C100 C 0.43898 0.32352 0.98416
 H101 H 0.44021 0.34339 0.96765
 C102 C 0.43931 0.27318 1.02718
 H103 H 0.43969 0.25375 1.04417
 C104 C 0.41392 0.29322 1.02595
 H105 H 0.39476 0.28847 1.04170
 Zn106 Zn 0.49864 0.25229 1.00748
 N107 N 0.46337 0.27809 1.00708
 C108 C 0.47698 0.22864 0.94772
 N109 N 0.50021 0.22782 0.96951
 C110 C 0.52408 0.20754 0.96610
 C111 C 0.52519 0.18688 0.93997
 C112 C 0.47706 0.20819 0.92135
 C113 C 0.53654 0.29776 1.03706
 C114 C 0.56119 0.31886 1.03981
 C115 C 0.57694 0.30419 0.98637
 C116 C 0.55246 0.28277 0.98500
 N117 N 0.53299 0.27978 1.01023
 H118 H 0.45795 0.24454 0.95117
 H119 H 0.54196 0.20701 0.98411
 H120 H 0.54402 0.17038 0.93806
 H121 H 0.45826 0.20890 0.90438
 H122 H 0.52026 0.29552 1.05647
 H123 H 0.56401 0.33202 1.06190
 H124 H 0.59142 0.30682 0.96549
 H125 H 0.54860 0.26914 0.96341
 C126 C 0.41354 0.31892 1.00428
 C127 C 0.49752 0.17571 1.08873
 C128 C 0.58181 0.32252 1.01416
 C129 C 0.50127 0.18677 0.91740
 C130 C 0.47556 0.78887 -0.04993
 H131 H 0.45599 0.78536 -0.03444
 C132 C 0.47482 0.81223 -0.07382
 H133 H 0.45456 0.82668 -0.07647
 C134 C 0.52643 0.77552 -0.06383
 H135 H 0.54686 0.76194 -0.05921
 C136 C 0.52667 0.79857 -0.08801
 H137 H 0.54707 0.80174 -0.10238
 N138 N 0.50109 0.77108 -0.04539
 C139 C 0.46320 0.69696 0.01624
 H140 H 0.47786 0.70048 0.03691
 C141 C 0.43915 0.67514 0.01782
 H142 H 0.43515 0.66312 0.04040
 C143 C 0.45059 0.70984 -0.03750
 H144 H 0.45549 0.72320 -0.05912
 C145 C 0.42699 0.68716 -0.03745
 H146 H 0.41432 0.68326 -0.05943
 Zn147 Zn 0.50157 0.74295 -0.00984
 N148 N 0.46798 0.71439 -0.01078
 C149 C 0.47485 0.76910 0.04639
 N150 N 0.50017 0.76852 0.02748
 C151 C 0.52469 0.78763 0.03369
 C152 C 0.52467 0.80776 0.06028
 C153 C 0.47390 0.78874 0.07329
 C154 C 0.54318 0.70111 -0.03723
 C155 C 0.56800 0.68049 -0.03848
 C156 C 0.57920 0.69294 0.01690
 C157 C 0.55452 0.71390 0.01685
 N158 N 0.53713 0.71760 -0.01001
 H159 H 0.45503 0.75484 0.04040
 H160 H 0.54423 0.78732 0.01779
 H161 H 0.54422 0.82315 0.06449
 H162 H 0.45365 0.78853 0.08821
 H163 H 0.52857 0.70397 -0.05804
 H164 H 0.57267 0.66827 -0.06074
 H165 H 0.59196 0.68952 0.03893
 H166 H 0.54865 0.72634 0.03862
 C167 C 0.42072 0.66947 -0.00938
 C168 C 0.50074 0.81754 -0.09304
 C169 C 0.58621 0.67574 -0.01102
 C170 C 0.49900 0.80850 0.08049
 C171 C 1.03480 0.49196 0.19752
 H172 H 1.01524 0.47620 0.19531
 C173 C 1.05868 0.49008 0.17549
 H174 H 1.05682 0.47314 0.15607
 C175 C 1.05981 0.53406 0.22482
 H176 H 1.06002 0.55150 0.24377
 C177 C 1.08456 0.53258 0.20364
 H178 H 1.10381 0.54850 0.20721
 N179 N 1.03581 0.51350 0.22173
 C180 C 0.97866 0.47098 0.29591
 H181 H 0.96080 0.48859 0.29752
 C182 C 0.97805 0.44438 0.31600
 H183 H 0.95970 0.44177 0.33324
 C184 C 1.02497 0.45379 0.27227
 H185 H 1.04341 0.45780 0.25549
 C186 C 1.02536 0.42692 0.29207
 H187 H 1.04396 0.41018 0.29001
 Zn188 Zn 1.00169 0.51290 0.24980
 N189 N 1.00182 0.47514 0.27454
 C190 C 0.94766 0.48832 0.22113
 N191 N 0.96610 0.51434 0.22379
 C192 C 0.96085 0.54098 0.20613
 C193 C 0.93583 0.54240 0.18525
 C194 C 0.92276 0.48846 0.20005
 C195 C 1.02724 0.54964 0.29913
 C196 C 1.02850 0.57329 0.32253
 C197 C 0.97857 0.59099 0.30540
 C198 C 0.97847 0.56725 0.28201
 N199 N 1.00267 0.54726 0.27917
 H200 H 0.95280 0.46699 0.23454
 H201 H 0.97621 0.56114 0.20824
 H202 H 0.93182 0.56415 0.17201
 H203 H 0.90918 0.46701 0.19752
 H204 H 1.04580 0.53288 0.29706
 H205 H 1.04859 0.57499 0.33769
 H206 H 0.95866 0.60596 0.30781
 H207 H 0.95856 0.56423 0.26689
 C208 C 1.00172 0.42203 0.31437
 C209 C 1.08431 0.51025 0.17854
 C210 C 1.00379 0.59422 0.32618
 C211 C 0.91653 0.51575 0.18163
 C212 C -0.03549 0.47597 0.81038
 H213 H -0.01283 0.46957 0.81845
 C214 C -0.06003 0.47299 0.83148
 H215 H -0.05555 0.46538 0.85587
 C216 C -0.06838 0.49424 0.76914
 H217 H -0.07156 0.50263 0.74487
 C218 C -0.09373 0.49118 0.78935
 H219 H -0.11621 0.49696 0.78014
 N220 N -0.03983 0.48736 0.78014
 C221 C 0.01262 0.46623 0.69587
 H222 H 0.02190 0.48957 0.69066
 C223 C 0.01435 0.44227 0.67289
 H224 H 0.02456 0.44769 0.64986
 C225 C -0.01294 0.43146 0.73190
 H226 H -0.02361 0.42753 0.75498
 C227 C -0.01142 0.40666 0.70972
 H228 H -0.02067 0.38359 0.71616
 Zn229 Zn -0.00483 0.49431 0.75399
 N230 N -0.00119 0.46057 0.72453
 C231 C 0.05540 0.47828 0.77420
 N232 N 0.03038 0.49619 0.78064
 C233 C 0.02948 0.51542 0.80678
 C234 C 0.05401 0.51651 0.82820
 C235 C 0.08079 0.47914 0.79470
 C236 C -0.02815 0.53413 0.70536
 C237 C -0.02946 0.56111 0.68580
 C238 C 0.00943 0.58564 0.71892
 C239 C 0.01011 0.55816 0.73775
 N240 N -0.00844 0.53301 0.73067
 H241 H 0.05570 0.46330 0.75316
 H242 H 0.00926 0.52938 0.81139
 H243 H 0.05202 0.53101 0.84949
 H244 H 0.10064 0.46506 0.78882
 H245 H -0.04195 0.51353 0.69948
 H246 H -0.04448 0.56099 0.66508
 H247 H 0.02446 0.60532 0.72494
 H248 H 0.02597 0.55682 0.75758
 C249 C 0.00214 0.41196 0.67959
 C250 C -0.08966 0.48105 0.82127
 C251 C -0.01022 0.58721 0.69225
 C252 C 0.08022 0.49820 0.82240
 C253 C 0.08663 0.18315 0.49369
 C254 C 0.07223 0.19010 0.46432
 C255 C 0.04727 0.21089 0.46392
 C256 C 0.03676 0.22443 0.49260
 C257 C 0.05159 0.21758 0.52176
 C258 C 0.07663 0.19692 0.52245
 C259 C 0.11205 0.16026 0.49448
 C260 C 0.12592 0.15270 0.52395
 C261 C 0.14941 0.13014 0.52472
 C262 C 0.15886 0.11496 0.49633
 C263 C 0.14491 0.12320 0.46692
 C264 C 0.12146 0.14579 0.46587
 C265 C 0.09139 0.18914 0.55140
 C266 C 0.11566 0.16744 0.55213
 C267 C 0.08260 0.17550 0.43612
 C268 C 0.10680 0.15371 0.43688
 H269 H 0.08391 0.19966 0.57373
 H270 H 0.12622 0.16186 0.57501
 H271 H 0.07169 0.18068 0.41333
 H272 H 0.11389 0.14273 0.41464
 H273 H 0.03549 0.21583 0.44154
 H274 H 0.04315 0.22750 0.54398
 H275 H 0.16022 0.12427 0.54740
 H276 H 0.15164 0.11135 0.44501
 C277 C 0.68111 0.58094 -0.00793
 C278 C 0.67746 0.55312 -0.02612
 C279 C 0.69946 0.52919 -0.02368
 C280 C 0.72438 0.53259 -0.00259
 C281 C 0.72806 0.56068 0.01521
 C282 C 0.70649 0.58514 0.01245
 C283 C 0.65746 0.60573 -0.00956
 C284 C 0.66094 0.63349 0.00873
 C285 C 0.63803 0.65671 0.00756
 C286 C 0.61138 0.65197 -0.01112
 C287 C 0.60843 0.62384 -0.02928
 C288 C 0.63146 0.60084 -0.02882
 C289 C 0.70935 0.61337 0.03018
 C290 C 0.68705 0.63722 0.02820
 C291 C 0.65145 0.54939 -0.04565
 C292 C 0.62874 0.57278 -0.04685
 H293 H 0.72886 0.61696 0.04590
 H294 H 0.69004 0.65854 0.04242
 H295 H 0.64837 0.52798 -0.05973
 H296 H 0.60881 0.56879 -0.06187
 H297 H 0.69660 0.50740 -0.03724
 H298 H 0.74719 0.56329 0.03158
 H299 H 0.64096 0.67836 0.02127
 H300 H 0.58788 0.61935 -0.04320
 C301 C 0.92062 -0.16923 0.50694
 C302 C 0.91465 -0.20163 0.50162
 C303 C 0.93897 -0.22330 0.50297
 C304 C 0.96885 -0.21268 0.50994
 C305 C 0.97443 -0.18007 0.51469
 C306 C 0.95042 -0.15825 0.51332
 C307 C 0.89522 -0.14633 0.50590
 C308 C 0.90131 -0.11397 0.51129
 C309 C 0.87713 -0.09230 0.51047
 C310 C 0.84692 -0.10269 0.50448
 C311 C 0.84124 -0.13527 0.49891
 C312 C 0.86535 -0.15721 0.49961
 C313 C 0.95562 -0.12567 0.51841
 C314 C 0.93147 -0.10390 0.51739
 C315 C 0.88449 -0.21163 0.49522
 C316 C 0.86026 -0.18981 0.49428
 H317 H 0.97854 -0.11694 0.52332
 H318 H 0.93644 -0.07898 0.52153
 H319 H 0.87955 -0.23655 0.49104
 H320 H 0.83734 -0.19854 0.48937
 H321 H 0.93469 -0.24830 0.49850
 H322 H 0.99729 -0.17147 0.51972
 H323 H 0.88190 -0.06726 0.51411
 H324 H 0.81807 -0.14355 0.49447
 C325 C 0.31644 0.41119 1.00042
 C326 C 0.30980 0.42670 0.97135
 C327 C 0.28847 0.45144 0.97113
 C328 C 0.27329 0.46001 0.99947
 C329 C 0.27989 0.44403 1.02833
 C330 C 0.30164 0.41967 1.02899
 C331 C 0.34022 0.38646 1.00118
 C332 C 0.34798 0.37209 1.03052
 C333 C 0.37159 0.34965 1.03136
 C334 C 0.38727 0.34132 1.00306
 C335 C 0.37848 0.35544 0.97370
 C336 C 0.35531 0.37832 0.97271
 C337 C 0.30958 0.40429 1.05778
 C338 C 0.33243 0.38097 1.05856
 C339 C 0.32517 0.41767 0.94328
 C340 C 0.34740 0.39373 0.94391
 H341 H 0.29835 0.41065 1.08000
 H342 H 0.33815 0.37002 1.08134
 H343 H 0.32015 0.42938 0.92069
 H344 H 0.35888 0.38764 0.92176
 H345 H 0.28412 0.46446 0.94911
 H346 H 0.26923 0.45145 1.05049
 H347 H 0.37833 0.33946 1.05420
 H348 H 0.38981 0.34887 0.95162
 C349 C 0.91874 0.17689 0.49052
 C350 C 0.91283 0.20954 0.49328
 C351 C 0.93753 0.23111 0.49380
 C352 C 0.96783 0.22010 0.49182
 C353 C 0.97322 0.18726 0.48935
 C354 C 0.94881 0.16559 0.48852
 C355 C 0.89298 0.15406 0.48976
 C356 C 0.89903 0.12147 0.48675
 C357 C 0.87456 0.09985 0.48595
 C358 C 0.84415 0.11049 0.48834
 C359 C 0.83843 0.14326 0.49162
 C360 C 0.86284 0.16521 0.49216
 C361 C 0.95394 0.13279 0.48567
 C362 C 0.92945 0.11110 0.48473
 C363 C 0.88236 0.21985 0.49549
 C364 C 0.85780 0.19806 0.49501
 H365 H 0.97708 0.12382 0.48408
 H366 H 0.93439 0.08600 0.48246
 H367 H 0.87745 0.24496 0.49766
 H368 H 0.83468 0.20703 0.49684
 H369 H 0.93321 0.25634 0.49591
 H370 H 0.99632 0.17832 0.48796
 H371 H 0.87919 0.07464 0.48402
 H372 H 0.81508 0.15161 0.49336
 C373 C 0.32336 0.57570 -0.00349
 C374 C 0.29885 0.57734 -0.02529
 C375 C 0.27607 0.55365 -0.02451
 C376 C 0.27716 0.52940 -0.00122
 C377 C 0.30137 0.52869 0.02103
 C378 C 0.32493 0.55134 0.01955
 C379 C 0.34814 0.59961 -0.00516
 C380 C 0.37341 0.59689 0.01546
 C381 C 0.39729 0.61913 0.01324
 C382 C 0.39559 0.64508 -0.00834
 C383 C 0.36966 0.64752 -0.02858
 C384 C 0.34623 0.62451 -0.02752
 C385 C 0.35033 0.54976 0.04020
 C386 C 0.37434 0.57195 0.03794
 C387 C 0.29786 0.60242 -0.04761
 C388 C 0.32095 0.62583 -0.04845
 H389 H 0.35187 0.53096 0.05795
 H390 H 0.39370 0.56968 0.05409
 H391 H 0.27901 0.60407 -0.06448
 H392 H 0.31920 0.64487 -0.06590
 H393 H 0.25797 0.55403 -0.04221
 H394 H 0.30240 0.50987 0.03883
 H395 H 0.41726 0.61583 0.02826
 H396 H 0.36738 0.66736 -0.04498
 C397 C 0.08837 -0.17769 0.51083
 C398 C 0.07923 -0.19375 0.48284
 C399 C 0.05390 -0.21436 0.48404
 C400 C 0.03768 -0.21855 0.51283
 C401 C 0.04735 -0.20271 0.54077
 C402 C 0.07278 -0.18225 0.53994
 C403 C 0.11399 -0.15474 0.50934
 C404 C 0.12261 -0.13808 0.53713
 C405 C 0.14616 -0.11534 0.53528
 C406 C 0.16065 -0.10885 0.50579
 C407 C 0.15203 -0.12615 0.47828
 C408 C 0.12870 -0.14914 0.47991
 C409 C 0.08238 -0.16553 0.56735
 C410 C 0.10694 -0.14388 0.56599
 C411 C 0.09500 -0.18809 0.45402
 C412 C 0.11930 -0.16613 0.45257
 H413 H 0.07057 -0.16890 0.58995
 H414 H 0.11339 -0.13119 0.58760
 H415 H 0.08819 -0.20035 0.43228
 H416 H 0.13055 -0.16210 0.42976
 H417 H 0.04620 -0.22612 0.46235
 H418 H 0.03447 -0.20551 0.56281
 H419 H 0.15241 -0.10183 0.55646
 H420 H 0.16329 -0.12145 0.45558
 C421 C 0.67935 0.41572 1.01551
 C422 C 0.67563 0.44406 1.03275
 C423 C 0.69828 0.46771 1.03077
 C424 C 0.72382 0.46361 1.01079
 C425 C 0.72739 0.43501 0.99390
 C426 C 0.70536 0.41078 0.99648
 C427 C 0.65504 0.39128 1.01642
 C428 C 0.65871 0.36303 0.99907
 C429 C 0.63521 0.34020 0.99937
 C430 C 0.60761 0.34587 1.01589
 C431 C 0.60450 0.37444 1.03328
 C432 C 0.62823 0.39703 1.03388
 C433 C 0.70837 0.38205 0.97971
 C434 C 0.68556 0.35846 0.98121
 C435 C 0.64885 0.44859 1.05070
 C436 C 0.62545 0.42555 1.05108
 H437 H 0.72841 0.37788 0.96507
 H438 H 0.68867 0.33674 0.96772
 H439 H 0.64567 0.47038 1.06405
 H440 H 0.60491 0.43022 1.06476
 H441 H 0.69537 0.48989 1.04356
 H442 H 0.74670 0.43175 0.97814
 H443 H 0.63841 0.31814 0.98650
 H444 H 0.58335 0.37964 1.04563
 C445 C 0.50078 0.07169 1.17868
 C446 C 0.49694 0.04059 1.16724
 C447 C 0.49681 0.01531 1.18907
 C448 C 0.49984 0.02091 1.22218
 C449 C 0.50442 0.05210 1.23333
 C450 C 0.50479 0.07772 1.21159
 C451 C 0.50028 0.09843 1.15575
 C452 C 0.50413 0.12962 1.16706
 C453 C 0.50339 0.15498 1.14507
 C454 C 0.49846 0.14918 1.11214
 C455 C 0.49474 0.11773 1.10130
 C456 C 0.49572 0.09228 1.12296
 C457 C 0.50871 0.10924 1.22201
 C458 C 0.50843 0.13474 1.20012
 C459 C 0.49286 0.03536 1.13422
 C460 C 0.49219 0.06079 1.11244
 H461 H 0.51186 0.11425 1.24730
 H462 H 0.51144 0.15868 1.20917
 H463 H 0.48989 0.01141 1.12517
 H464 H 0.48877 0.05578 1.08719
 H465 H 0.49387 -0.00855 1.18002
 H466 H 0.50718 0.05639 1.25882
 H467 H 0.50615 0.17917 1.15353
 H468 H 0.49147 0.11309 1.07593
 C469 C -0.00519 0.68944 0.60010
 C470 C 0.02341 0.70185 0.59098
 C471 C 0.02490 0.72420 0.56602
 C472 C -0.00192 0.73401 0.55020
 C473 C -0.03043 0.72178 0.55995
 C474 C -0.03223 0.69944 0.58495
 C475 C -0.00672 0.66452 0.62501
 C476 C -0.03521 0.65128 0.63334
 C477 C -0.03639 0.62661 0.65605
 C478 C -0.00929 0.61498 0.67015
 C479 C 0.01903 0.62896 0.66183
 C480 C 0.02045 0.65366 0.63924
 C481 C -0.06039 0.68612 0.59440
 C482 C -0.06186 0.66249 0.61823
 C483 C 0.05004 0.69082 0.60621
 C484 C 0.04858 0.66713 0.62995
 H485 H -0.08142 0.69369 0.58294
 H486 H -0.08399 0.65253 0.62449
 H487 H 0.07224 0.70024 0.59939
 H488 H 0.06970 0.65897 0.64080
 H489 H 0.04703 0.73272 0.55797
 H490 H -0.05109 0.72874 0.54755
 H491 H -0.05831 0.61627 0.66252
 H492 H 0.04007 0.61986 0.67205
 C493 C 0.50182 0.92102 -0.18414
 C494 C 0.52816 0.94015 -0.18696
 C495 C 0.52799 0.96590 -0.20839
 C496 C 0.50189 0.97230 -0.22703
 C497 C 0.47555 0.95322 -0.22368
 C498 C 0.47545 0.92736 -0.20235
 C499 C 0.50170 0.89416 -0.16131
 C500 C 0.47525 0.87529 -0.15816
 C501 C 0.47514 0.85000 -0.13612
 C502 C 0.50121 0.84363 -0.11720
 C503 C 0.52757 0.86281 -0.12081
 C504 C 0.52794 0.88810 -0.14281
 C505 C 0.44945 0.90787 -0.19864
 C506 C 0.44937 0.88225 -0.17696
 C507 C 0.55401 0.93327 -0.16812
 C508 C 0.55390 0.90767 -0.14642
 H509 H 0.42896 0.91251 -0.21256
 H510 H 0.42881 0.86787 -0.17477
 H511 H 0.57446 0.94784 -0.17009
 H512 H 0.57428 0.90325 -0.13226
 H513 H 0.54808 0.98101 -0.21057
 H514 H 0.45500 0.95872 -0.23708
 H515 H 0.45485 0.83522 -0.13377
 H516 H 0.54757 0.85853 -0.10601
 C517 C 1.00257 0.32017 0.40704
 C518 C 0.97514 0.30420 0.41438
 C519 C 0.97495 0.28136 0.43900
 C520 C 1.00179 0.27498 0.45649
 C521 C 1.02925 0.29053 0.44822
 C522 C 1.02978 0.31326 0.42357
 C523 C 1.00265 0.34518 0.38215
 C524 C 1.02998 0.36154 0.37525
 C525 C 1.02971 0.38608 0.35239
 C526 C 1.00228 0.39452 0.33675
 C527 C 0.97518 0.37749 0.34362
 C528 C 0.97524 0.35279 0.36632
 C529 C 1.05679 0.32976 0.41563
 C530 C 1.05689 0.35348 0.39186
 C531 C 0.94830 0.31199 0.39751
 C532 C 0.94834 0.33591 0.37392
 H533 H 1.07794 0.32458 0.42818
 H534 H 1.07813 0.36590 0.38672
 H535 H 0.92699 0.29982 0.40291
 H536 H 0.92706 0.34148 0.36180
 H537 H 0.95378 0.26933 0.44488
 H538 H 1.05012 0.28530 0.46122
 H539 H 1.05058 0.39930 0.34756
 H540 H 0.95406 0.38361 0.33144
 C541 C 0.49572 0.89984 0.18314
 C542 C 0.46875 0.91700 0.18840
 C543 C 0.46897 0.94172 0.21081
 C544 C 0.49601 0.94963 0.22736
 C545 C 0.52255 0.93152 0.22285
 C546 C 0.52259 0.90661 0.20051
 C547 C 0.49620 0.87528 0.15798
 C548 C 0.52344 0.85886 0.15190
 C549 C 0.52410 0.83649 0.12700
 C550 C 0.49785 0.83077 0.10806
 C551 C 0.47062 0.84720 0.11487
 C552 C 0.46968 0.86948 0.13976
 C553 C 0.54921 0.88915 0.19427
 C554 C 0.54962 0.86563 0.17041
 C555 C 0.44246 0.90999 0.17021
 C556 C 0.44293 0.88662 0.14627
 H557 H 0.57006 0.89407 0.20755
 H558 H 0.57075 0.85305 0.16603
 H559 H 0.42153 0.92308 0.17410
 H560 H 0.42230 0.88228 0.13242
 H561 H 0.44859 0.95590 0.21412
 H562 H 0.54342 0.93755 0.23554
 H563 H 0.54505 0.82370 0.12224
 H564 H 0.45043 0.84343 0.10016
 C565 C 0.00310 0.31738 0.57966
 C566 C -0.02207 0.29675 0.57599
 C567 C -0.02242 0.27509 0.55040
 C568 C 0.00179 0.27473 0.52823
 C569 C 0.02704 0.29514 0.53262
 C570 C 0.02787 0.31650 0.55831
 C571 C 0.00337 0.34065 0.60606
 C572 C 0.02852 0.36128 0.60960
 C573 C 0.02836 0.38387 0.63424
 C574 C 0.00302 0.38642 0.65495
 C575 C -0.02188 0.36519 0.65124
 C576 C -0.02176 0.34219 0.62690
 C577 C 0.05280 0.33726 0.56284
 C578 C 0.05317 0.35922 0.58813
 C579 C -0.04655 0.29858 0.59771
 C580 C -0.04646 0.32101 0.62264
 H581 H 0.07210 0.33670 0.54657
 H582 H 0.07274 0.37498 0.59064
 H583 H -0.06611 0.28282 0.59518
 H584 H -0.06597 0.32189 0.63861
 H585 H -0.04160 0.25898 0.54771
 H586 H 0.04607 0.29445 0.51608
 H587 H 0.04793 0.39957 0.63717
 H588 H -0.04170 0.36708 0.66668
 C589 C 0.50095 0.09119 0.81868
 C590 C 0.47411 0.07352 0.81294
 C591 C 0.47466 0.04882 0.79044
 C592 C 0.50161 0.04217 0.77349
 C593 C 0.52833 0.06001 0.77945
 C594 C 0.52813 0.08462 0.80210
 C595 C 0.50079 0.11650 0.84311
 C596 C 0.52787 0.13349 0.84959
 C597 C 0.52781 0.15688 0.87354
 C598 C 0.50090 0.16334 0.89085
 C599 C 0.47384 0.14635 0.88367
 C600 C 0.47370 0.12276 0.85996
 C601 C 0.55466 0.10243 0.80894
 C602 C 0.55454 0.12644 0.83230
 C603 C 0.44741 0.08063 0.83013
 C604 C 0.44719 0.10490 0.85319
 H605 H 0.57577 0.09760 0.79632
 H606 H 0.57557 0.13942 0.83703
 H607 H 0.42655 0.06720 0.82585
 H608 H 0.42616 0.10949 0.86605
 H609 H 0.45426 0.03460 0.78629
 H610 H 0.54941 0.05425 0.76723
 H611 H 0.54865 0.17002 0.87877
 H612 H 0.45317 0.15083 0.89721
 C613 C 1.00257 0.68626 0.42868
 C614 C 0.98836 0.71579 0.42395
 C615 C 0.98769 0.73771 0.44934
 C616 C 1.00129 0.73011 0.47898
 C617 C 1.01587 0.70071 0.48309
 C618 C 1.01630 0.67853 0.45815
 C619 C 1.00309 0.66296 0.40231
 C620 C 1.01691 0.63332 0.40731
 C621 C 1.01700 0.61106 0.38238
 C622 C 1.00381 0.61832 0.35232
 C623 C 0.99026 0.64838 0.34768
 C624 C 0.98967 0.67070 0.37268
 C625 C 1.03011 0.64873 0.46217
 C626 C 1.03029 0.62644 0.43721
 C627 C 0.97516 0.72270 0.39394
 C628 C 0.97588 0.70058 0.36872
 H629 H 1.04074 0.64252 0.48485
 H630 H 1.04105 0.60365 0.44134
 H631 H 0.96418 0.74539 0.38991
 H632 H 0.96544 0.70687 0.34598
 H633 H 0.97687 0.76059 0.44600
 H634 H 1.02678 0.69494 0.50571
 H635 H 1.02691 0.58788 0.38663
 H636 H 0.98037 0.65450 0.32462
 C637 C 1.18119 0.50153 0.08496
 C638 C 1.19719 0.52910 0.07558
 C639 C 1.21914 0.52708 0.05112
 C640 C 1.22448 0.49791 0.03583
 C641 C 1.20819 0.47060 0.04533
 C642 C 1.18682 0.47215 0.07026
 C643 C 1.15735 0.50365 0.10986
 C644 C 1.14130 0.47612 0.11905
 C645 C 1.11822 0.47833 0.14221
 C646 C 1.11033 0.50798 0.15552
 C647 C 1.12691 0.53536 0.14608
 C648 C 1.15057 0.53327 0.12342
 C649 C 1.17044 0.44507 0.08029
 C650 C 1.14823 0.44698 0.10446
 C651 C 1.19022 0.55822 0.09020
 C652 C 1.16721 0.56030 0.11360
 H653 H 1.17469 0.42226 0.06921
 H654 H 1.13599 0.42556 0.11136
 H655 H 1.20233 0.57967 0.08315
 H656 H 1.16228 0.58330 0.12393
 H657 H 1.23110 0.54831 0.04314
 H658 H 1.21176 0.44832 0.03293
 H659 H 1.10633 0.45690 0.14970
 H660 H 1.12097 0.55841 0.15564
 C661 C 0.58520 0.00870 0.67630
 C662 C 0.57737 -0.01973 0.69215
 C663 C 0.55292 -0.01989 0.71393
 C664 C 0.53627 0.00802 0.71947
 C665 C 0.54402 0.03615 0.70306
 C666 C 0.56880 0.03676 0.68175
 C667 C 0.61059 0.00893 0.65303
 C668 C 0.61837 0.03733 0.63720
 C669 C 0.64224 0.03733 0.61474
 C670 C 0.65783 0.00900 0.60736
 C671 C 0.64966 -0.01927 0.62368
 C672 C 0.62623 -0.01938 0.64665
 C673 C 0.57733 0.06476 0.66555
 C674 C 0.60182 0.06509 0.64380
 C675 C 0.59386 -0.04749 0.68547
 C676 C 0.61778 -0.04735 0.66301
 H677 H 0.56492 0.08659 0.66965
 H678 H 0.60760 0.08716 0.63173
 H679 H 0.58803 -0.06959 0.69748
 H680 H 0.62970 -0.06935 0.65834
 H681 H 0.54641 -0.04182 0.72584
 H682 H 0.53074 0.05748 0.70686
 H683 H 0.64852 0.05939 0.60294
 H684 H 0.66092 -0.04140 0.61796
 C685 C -0.18381 0.48552 0.91766
 C686 C -0.18266 0.46416 0.94359
 C687 C -0.20328 0.46771 0.96899
 C688 C -0.22531 0.49186 0.96815
 C689 C -0.22656 0.51279 0.94183
 C690 C -0.20563 0.50989 0.91656
 C691 C -0.16105 0.48303 0.89174
 C692 C -0.16119 0.50537 0.86666
 C693 C -0.13838 0.50402 0.84308
 C694 C -0.11563 0.48038 0.84433
 C695 C -0.11667 0.45743 0.86908
 C696 C -0.13899 0.45896 0.89310
 C697 C -0.20554 0.53132 0.89064
 C698 C -0.18361 0.52919 0.86618
 C699 C -0.16050 0.44012 0.94390
 C700 C -0.13915 0.43744 0.91896
 H701 H -0.22224 0.55022 0.88952
 H702 H -0.18401 0.54653 0.84690
 H703 H -0.15949 0.42342 0.96371
 H704 H -0.12224 0.41875 0.92027
 H705 H -0.20187 0.45207 0.98967
 H706 H -0.24307 0.53186 0.94139
 H707 H -0.13770 0.52213 0.82456
 H708 H -0.09977 0.43872 0.87004
 C709 C 0.41000 -0.00871 0.31474
 C710 C 0.42577 -0.03749 0.31143
 C711 C 0.45117 -0.03871 0.29105
 C712 C 0.46085 -0.01142 0.27431
 C713 C 0.44428 0.01695 0.27700
 C714 C 0.41892 0.01854 0.29749
 C715 C 0.38430 -0.00680 0.33749
 C716 C 0.36926 0.02229 0.34174
 C717 C 0.34579 0.02433 0.36452
 C718 C 0.33737 -0.00245 0.38294
 C719 C 0.35225 -0.03160 0.37782
 C720 C 0.37587 -0.03386 0.35527
 C721 C 0.40283 0.04701 0.30179
 C722 C 0.37845 0.04887 0.32359
 C723 C 0.41633 -0.06419 0.32922
 C724 C 0.39176 -0.06242 0.35075
 H725 H 0.40946 0.06818 0.28859
 H726 H 0.36696 0.07141 0.32655
 H727 H 0.42829 -0.08654 0.32679
 H728 H 0.38544 -0.08346 0.36431
 H729 H 0.46401 -0.06057 0.28897
 H730 H 0.45148 0.03799 0.26405
 H731 H 0.33425 0.04677 0.36817
 H732 H 0.34621 -0.05220 0.39222
 C733 C 0.17666 0.49778 0.91734
 C734 C 0.18177 0.52510 0.93593
 C735 C 0.20365 0.52423 0.96053
 C736 C 0.22118 0.49680 0.96570
 C737 C 0.21574 0.46954 0.94705
 C738 C 0.19334 0.46985 0.92285
 C739 C 0.15287 0.49819 0.89218
 C740 C 0.14679 0.47048 0.87454
 C741 C 0.12333 0.47067 0.85147
 C742 C 0.10626 0.49848 0.84561
 C743 C 0.11340 0.52630 0.86303
 C744 C 0.13628 0.52613 0.88667
 C745 C 0.18692 0.44271 0.90439
 C746 C 0.16394 0.44297 0.88075
 C747 C 0.16471 0.55263 0.92970
 C748 C 0.14252 0.55322 0.90530
 H749 H 0.19957 0.42099 0.90845
 H750 H 0.15951 0.42143 0.86728
 H751 H 0.16855 0.57389 0.94381
 H752 H 0.12982 0.57492 0.90129
 H753 H 0.20699 0.54484 0.97574
 H754 H 0.22817 0.44787 0.95186
 H755 H 0.11789 0.44892 0.83877
 H756 H 0.10106 0.54810 0.85842
 C757 C 0.57928 -0.01032 0.32243
 C758 C 0.58487 -0.00687 0.28940
 C759 C 0.56005 -0.00763 0.26787
 C760 C 0.53004 -0.01180 0.27934
 C761 C 0.52488 -0.01472 0.31250
 C762 C 0.54940 -0.01422 0.33415
 C763 C 0.60516 -0.00979 0.34523
 C764 C 0.59943 -0.01345 0.37819
 C765 C 0.62402 -0.01304 0.39977
 C766 C 0.65421 -0.00884 0.38873
 C767 C 0.65960 -0.00495 0.35559
 C768 C 0.63508 -0.00557 0.33367
 C769 C 0.54458 -0.01763 0.36730
 C770 C 0.56920 -0.01731 0.38896
 C771 C 0.61513 -0.00277 0.27871
 C772 C 0.63980 -0.00208 0.30047
 H773 H 0.52160 -0.02066 0.37658
 H774 H 0.56452 -0.02009 0.41434
 H775 H 0.61979 -0.00006 0.25331
 H776 H 0.66276 0.00117 0.29120
 H777 H 0.56399 -0.00500 0.24231
 H778 H 0.50191 -0.01753 0.32170
 H779 H 0.61963 -0.01545 0.42527
 H780 H 0.68280 -0.00183 0.34693
 C781 C 0.82044 0.51108 0.08633
 C782 C 0.82427 0.52766 0.05730
 C783 C 0.80194 0.52469 0.03331
 C784 C 0.77645 0.50469 0.03791
 C785 C 0.77266 0.48843 0.06714
 C786 C 0.79459 0.49173 0.09163
 C787 C 0.84436 0.51334 0.11128
 C788 C 0.84068 0.49665 0.14023
 C789 C 0.86385 0.49831 0.16358
 C790 C 0.89098 0.51583 0.15781
 C791 C 0.89407 0.53253 0.12855
 C792 C 0.87078 0.53156 0.10536
 C793 C 0.79156 0.47563 0.12106
 C794 C 0.81413 0.47819 0.14502
 C795 C 0.85071 0.54621 0.05254
 C796 C 0.87366 0.54800 0.07610
 H797 H 0.77169 0.46074 0.12552
 H798 H 0.81099 0.46521 0.16728
 H799 H 0.85392 0.55907 0.03021
 H800 H 0.89391 0.56221 0.07130
 H801 H 0.80486 0.53711 0.01067
 H802 H 0.75306 0.47294 0.07067
 H803 H 0.86079 0.48580 0.18612
 H804 H 0.91492 0.54558 0.12332
 C805 C 0.42014 0.00627 0.67446
 C806 C 0.42751 0.03471 0.69040
 C807 C 0.45188 0.03506 0.71244
 C808 C 0.46888 0.00734 0.71809
 C809 C 0.46183 -0.02063 0.70123
 C810 C 0.43705 -0.02152 0.67985
 C811 C 0.39452 0.00567 0.65133
 C812 C 0.38696 -0.02285 0.63576
 C813 C 0.36270 -0.02330 0.61370
 C814 C 0.34657 0.00475 0.60622
 C815 C 0.35458 0.03320 0.62220
 C816 C 0.37833 0.03370 0.64497
 C817 C 0.42886 -0.04959 0.66373
 C818 C 0.40407 -0.05032 0.64225
 C819 C 0.41053 0.06220 0.68371
 C820 C 0.38647 0.06176 0.66125
 H821 H 0.44166 -0.07121 0.66782
 H822 H 0.39848 -0.07247 0.63034
 H823 H 0.41602 0.08431 0.69576
 H824 H 0.37414 0.08356 0.65660
 H825 H 0.45791 0.05693 0.72463
 H826 H 0.47544 -0.04178 0.70504
 H827 H 0.35649 -0.04556 0.60234
 H828 H 0.34289 0.05512 0.61647
   
