data_POSCAR
  _audit_creation_date              2014-09-24
  _audit_creation_method            'ToBaCCo'
  _symmetry_space_group_name_H-M    'P1'
  _symmetry_Int_Tables_number       1
  _symmetry_cell_setting            triclinic
  loop_
  _symmetry_equiv_pos_as_xyz
 x,y,z
_cell_length_a 41.2835
_cell_length_b 44.2380
_cell_length_c 34.6585
_cell_angle_alpha 90.712700
_cell_angle_beta 90.516400
_cell_angle_gamma 90.277000
loop_
  _atom_site_label
  _atom_site_type_symbol
  _atom_site_fract_x
  _atom_site_fract_y
  _atom_site_fract_z
C1 C 0.27591 0.28045 0.22424
 C2 C 0.25152 0.26492 0.24386
 C3 C 0.22689 0.28115 0.26230
 C4 C 0.22658 0.31290 0.26164
 C5 C 0.25078 0.32813 0.24112
 C6 C 0.27558 0.31216 0.22238
 C7 C 0.25212 0.23165 0.24603
 C8 C 0.27807 0.21712 0.26430
 C9 C 0.27815 0.18550 0.26822
 C10 C 0.25202 0.16872 0.25251
 C11 C 0.22680 0.18282 0.23214
 C12 C 0.22669 0.21449 0.22985
 H13 H 0.29512 0.26777 0.21053
 H14 H 0.20869 0.26899 0.27835
 H15 H 0.29802 0.23066 0.27554
 H16 H 0.20749 0.22588 0.21437
 H17 H 0.24997 0.35253 0.23919
 H18 H 0.25099 0.14451 0.25642
 C19 C 0.77714 0.78278 0.23823
 C20 C 0.75252 0.76782 0.25791
 C21 C 0.72865 0.78444 0.27699
 C22 C 0.72926 0.81635 0.27748
 C23 C 0.75453 0.83096 0.25743
 C24 C 0.77843 0.81459 0.23711
 C25 C 0.75154 0.73448 0.25784
 C26 C 0.77712 0.71824 0.27415
 C27 C 0.77681 0.68651 0.27349
 C28 C 0.75120 0.67122 0.25447
 C29 C 0.72516 0.68718 0.23789
 C30 C 0.72535 0.71898 0.24075
 H31 H 0.79562 0.76922 0.22452
 H32 H 0.70922 0.77204 0.29041
 H33 H 0.79717 0.73041 0.28759
 H34 H 0.70539 0.73200 0.22935
 H35 H 0.75551 0.85529 0.25735
 H36 H 0.75165 0.64681 0.25290
 C37 C 0.77537 0.28452 0.74259
 C38 C 0.74988 0.26953 0.76072
 C39 C 0.72432 0.28623 0.77636
 C40 C 0.72362 0.31808 0.77415
 C41 C 0.74892 0.33248 0.75395
 C42 C 0.77490 0.31603 0.73817
 C43 C 0.74916 0.23612 0.76160
 C44 C 0.77547 0.22004 0.77656
 C45 C 0.77551 0.18807 0.77679
 C46 C 0.74880 0.17290 0.75918
 C47 C 0.72230 0.18877 0.74361
 C48 C 0.72248 0.22045 0.74612
 H49 H 0.79524 0.27132 0.73130
 H50 H 0.70458 0.27387 0.78922
 H51 H 0.79607 0.23294 0.78714
 H52 H 0.70212 0.23325 0.73529
 H53 H 0.74910 0.35672 0.75118
 H54 H 0.74794 0.14858 0.75812
 C55 C 0.27122 0.78333 0.72024
 C56 C 0.24801 0.76789 0.74178
 C57 C 0.22514 0.78407 0.76312
 C58 C 0.22464 0.81581 0.76258
 C59 C 0.24744 0.83097 0.73972
 C60 C 0.27151 0.81522 0.71894
 C61 C 0.24798 0.73460 0.74273
 C62 C 0.27338 0.71922 0.76083
 C63 C 0.27279 0.68749 0.76360
 C64 C 0.24672 0.67146 0.74639
 C65 C 0.22185 0.68659 0.72661
 C66 C 0.22235 0.71830 0.72570
 H67 H 0.28953 0.77010 0.70573
 H68 H 0.20838 0.77167 0.78090
 H69 H 0.29342 0.73223 0.77284
 H70 H 0.20294 0.73038 0.71147
 H71 H 0.24536 0.85517 0.73686
 H72 H 0.24575 0.64708 0.74798
 C73 C 0.04444 0.03979 0.01591
 H74 H 0.04587 0.03944 -0.01524
 C75 C 0.06507 0.05858 0.03752
 H76 H 0.08205 0.07293 0.02261
 C77 C 0.01982 0.02191 0.07280
 H78 H 0.00185 0.00792 0.08641
 C79 C 0.04022 0.04022 0.09561
 H80 H 0.03821 0.03944 0.12670
 N81 N 0.02275 0.02160 0.03372
 C82 C 0.01467 -0.03965 -0.06389
 H83 H -0.00961 -0.03498 -0.07411
 C84 C 0.03537 -0.05724 -0.08647
 H85 H 0.02686 -0.06495 -0.11452
 C86 C 0.05496 -0.03438 -0.01525
 H87 H 0.06230 -0.02567 0.01279
 C88 C 0.07605 -0.05270 -0.03623
 H89 H 0.09929 -0.05808 -0.02349
 Zn90 Zn -0.00269 -0.00337 0.00057
 N91 N 0.02511 -0.02781 -0.02959
 C92 C -0.01856 0.02929 -0.06742
 N93 N -0.02746 0.02309 -0.03064
 C94 C -0.05302 0.03735 -0.01412
 C95 C -0.07227 0.05692 -0.03560
 C96 C -0.03679 0.04915 -0.08978
 C97 C -0.01534 -0.04696 0.05655
 C98 C -0.03397 -0.06615 0.07921
 C99 C -0.08136 -0.05142 0.04282
 C100 C -0.06186 -0.03234 0.02106
 N101 N -0.02960 -0.02981 0.02894
 H102 H 0.00303 0.01930 -0.07933
 H103 H -0.05881 0.03311 0.01570
 H104 H -0.09336 0.06677 -0.02218
 H105 H -0.02901 0.05390 -0.11882
 H106 H 0.01054 -0.04534 0.06138
 H107 H -0.02226 -0.07929 0.10145
 H108 H -0.10713 -0.05251 0.03678
 H109 H -0.07259 -0.01972 -0.00220
 C110 C 0.06673 -0.06401 -0.07287
 C111 C 0.06351 0.05865 0.07800
 C112 C -0.06751 -0.06829 0.07273
 C113 C -0.06444 0.06295 -0.07416
 C114 C 0.05973 0.51694 0.52125
 H115 H 0.07011 0.50194 0.49993
 C116 C 0.08004 0.53579 0.54331
 H117 H 0.10598 0.53457 0.53923
 C118 C 0.01347 0.53693 0.55226
 H119 H -0.01259 0.53735 0.55526
 C120 C 0.03289 0.55616 0.57497
 H121 H 0.02155 0.57154 0.59523
 N122 N 0.02711 0.51765 0.52629
 C123 C 0.02203 0.46894 0.42405
 H124 H 0.00571 0.48460 0.41038
 C125 C 0.04201 0.45076 0.40123
 H126 H 0.04129 0.45319 0.37019
 C127 C 0.04315 0.44701 0.48092
 H128 H 0.04346 0.44578 0.51207
 C129 C 0.06343 0.42838 0.45926
 H130 H 0.07902 0.41259 0.47404
 Zn131 Zn -0.00095 0.49281 0.49605
 N132 N 0.02355 0.46729 0.46320
 C133 C -0.01422 0.53787 0.44161
 N134 N -0.02821 0.51897 0.46735
 C135 C -0.06067 0.51973 0.47375
 C136 C -0.08052 0.53907 0.45274
 C137 C -0.03321 0.55756 0.41986
 C138 C -0.01832 0.46536 0.56654
 C139 C -0.03670 0.44682 0.59035
 C140 C -0.06988 0.43291 0.53518
 C141 C -0.05016 0.45088 0.51224
 N142 N -0.02569 0.46749 0.52837
 H143 H 0.01177 0.53755 0.43790
 H144 H -0.07132 0.50563 0.49545
 H145 H -0.10636 0.53881 0.45778
 H146 H -0.02163 0.57241 0.39950
 H147 H 0.00207 0.47779 0.57856
 H148 H -0.02974 0.44515 0.62040
 H149 H -0.09032 0.42151 0.52167
 H150 H -0.05501 0.45236 0.48160
 C151 C 0.06348 0.43048 0.41885
 C152 C 0.06669 0.55576 0.57063
 C153 C -0.06347 0.43069 0.57504
 C154 C -0.06689 0.55822 0.42519
 C155 C 0.54868 0.04366 0.52160
 H156 H 0.55401 0.04153 0.49118
 C157 C 0.56754 0.06266 0.54508
 H158 H 0.58788 0.07415 0.53226
 C159 C 0.51634 0.02990 0.57465
 H160 H 0.49600 0.01741 0.58587
 C161 C 0.53394 0.04948 0.59904
 H162 H 0.52658 0.05181 0.62880
 N163 N 0.52434 0.02700 0.53682
 C164 C 0.51752 -0.04066 0.44435
 H165 H 0.49182 -0.03987 0.43805
 C166 C 0.53768 -0.05910 0.42213
 H167 H 0.52741 -0.07227 0.39844
 C168 C 0.56214 -0.02439 0.48288
 H169 H 0.57151 -0.01164 0.50731
 C170 C 0.58318 -0.04227 0.46125
 H171 H 0.60864 -0.04275 0.46898
 Zn172 Zn 0.50122 0.00124 0.50221
 N173 N 0.53008 -0.02334 0.47359
 C174 C 0.48574 0.03093 0.43188
 N175 N 0.47732 0.02679 0.46927
 C176 C 0.45219 0.04207 0.48517
 C177 C 0.43321 0.06116 0.46276
 C178 C 0.46795 0.05056 0.40862
 C179 C 0.48554 -0.04148 0.55835
 C180 C 0.46570 -0.06108 0.57895
 C181 C 0.42096 -0.04770 0.53723
 C182 C 0.44159 -0.02825 0.51759
 N183 N 0.47308 -0.02503 0.52888
 H184 H 0.50657 0.01941 0.42019
 H185 H 0.44645 0.03886 0.51525
 H186 H 0.41239 0.07170 0.47591
 H187 H 0.47564 0.05394 0.37923
 H188 H 0.51088 -0.03912 0.56606
 H189 H 0.47596 -0.07383 0.60252
 H190 H 0.39580 -0.04943 0.52834
 H191 H 0.43241 -0.01595 0.49314
 C192 C 0.57104 -0.05973 0.43024
 C193 C 0.56038 0.06593 0.58454
 C194 C 0.43288 -0.06421 0.56859
 C195 C 0.44090 0.06577 0.42379
 C196 C 0.54501 0.54662 0.01650
 H197 H 0.54917 0.54499 -0.01423
 C198 C 0.56482 0.56516 0.03948
 H199 H 0.58465 0.57683 0.02588
 C200 C 0.51483 0.53185 0.07089
 H201 H 0.49504 0.51905 0.08288
 C202 C 0.53338 0.55097 0.09485
 H203 H 0.52720 0.55271 0.12505
 N204 N 0.52132 0.52964 0.03257
 C205 C 0.51172 0.46185 -0.05943
 H206 H 0.48579 0.46231 -0.06422
 C207 C 0.53119 0.44360 -0.08275
 H208 H 0.52015 0.43020 -0.10573
 C209 C 0.55764 0.47885 -0.02368
 H210 H 0.56783 0.49182 0.00007
 C211 C 0.57800 0.46116 -0.04647
 H212 H 0.60375 0.46101 -0.04023
 Zn213 Zn 0.49718 0.50395 -0.00116
 N214 N 0.52522 0.47945 -0.03106
 C215 C 0.47992 0.53306 -0.07112
 N216 N 0.47235 0.52937 -0.03338
 C217 C 0.44751 0.54479 -0.01703
 C218 C 0.42780 0.56333 -0.03936
 C219 C 0.46146 0.55218 -0.09430
 C220 C 0.48397 0.46016 0.05439
 C221 C 0.46518 0.44013 0.07572
 C222 C 0.41822 0.45536 0.03886
 C223 C 0.43790 0.47504 0.01824
 N224 N 0.47003 0.47752 0.02677
 H225 H 0.50058 0.52153 -0.08320
 H226 H 0.44250 0.54203 0.01331
 H227 H 0.40718 0.57388 -0.02580
 H228 H 0.46852 0.55518 -0.12398
 H229 H 0.50974 0.46200 0.05993
 H230 H 0.47675 0.42650 0.09754
 H231 H 0.39258 0.45430 0.03216
 H232 H 0.42741 0.48806 -0.00480
 C233 C 0.56485 0.44344 -0.07664
 C234 C 0.55930 0.56763 0.07943
 C235 C 0.43177 0.43767 0.06820
 C236 C 0.43453 0.56733 -0.07873
 C237 C 0.15647 -0.13371 -0.16751
 C238 C 0.18690 -0.12146 -0.17679
 C239 C 0.20892 -0.13790 -0.19889
 C240 C 0.20088 -0.16676 -0.21373
 C241 C 0.17018 -0.17880 -0.20517
 C242 C 0.14851 -0.16273 -0.18197
 C243 C 0.13335 -0.11631 -0.14286
 C244 C 0.09963 -0.12024 -0.14700
 C245 C 0.07814 -0.10388 -0.12390
 C246 C 0.08962 -0.08237 -0.09671
 C247 C 0.12334 -0.07831 -0.09282
 C248 C 0.14481 -0.09536 -0.11499
 H249 H 0.23247 -0.12793 -0.20389
 H250 H 0.16264 -0.20066 -0.21647
 H251 H 0.05251 -0.10833 -0.12746
 H252 H 0.13344 -0.06167 -0.07296
 H253 H 0.12567 -0.17337 -0.17512
 H254 H 0.08959 -0.13570 -0.16842
 H255 H 0.19390 -0.09898 -0.16722
 H256 H 0.17048 -0.09202 -0.10997
 C257 C 0.15547 0.36261 0.32691
 C258 C 0.18775 0.37269 0.32526
 C259 C 0.21063 0.35668 0.30389
 C260 C 0.20180 0.33022 0.28343
 C261 C 0.16942 0.32027 0.28469
 C262 C 0.14650 0.33631 0.30617
 C263 C 0.13149 0.37936 0.35063
 C264 C 0.09957 0.38354 0.33733
 C265 C 0.07737 0.39990 0.35950
 C266 C 0.08660 0.41239 0.39549
 C267 C 0.11845 0.40795 0.40886
 C268 C 0.14057 0.39160 0.38677
 H269 H 0.23543 0.36476 0.30395
 H270 H 0.16178 0.30014 0.26895
 H271 H 0.05293 0.40266 0.34854
 H272 H 0.12651 0.41758 0.43618
 H273 H 0.12188 0.32781 0.30710
 H274 H 0.09189 0.37460 0.30948
 H275 H 0.19537 0.39309 0.34044
 H276 H 0.16482 0.38843 0.39812
 C277 C 0.65905 -0.13220 0.33931
 C278 C 0.67485 -0.11990 0.30749
 C279 C 0.69742 -0.13685 0.28682
 C280 C 0.70525 -0.16672 0.29755
 C281 C 0.68862 -0.17901 0.32932
 C282 C 0.66587 -0.16202 0.34974
 C283 C 0.63614 -0.11365 0.36211
 C284 C 0.60639 -0.12573 0.37408
 C285 C 0.58502 -0.10815 0.39587
 C286 C 0.59322 -0.07830 0.40648
 C287 C 0.62297 -0.06627 0.39449
 C288 C 0.64414 -0.08371 0.37241
 H289 H 0.70767 -0.12650 0.26159
 H290 H 0.69412 -0.20125 0.34008
 H291 H 0.56233 -0.11803 0.40495
 H292 H 0.62975 -0.04324 0.40198
 H293 H 0.65433 -0.17191 0.37456
 H294 H 0.59956 -0.14869 0.36630
 H295 H 0.66944 -0.09716 0.29826
 H296 H 0.66704 -0.07393 0.36387
 C297 C 0.65132 0.37019 -0.16859
 C298 C 0.66716 0.38163 -0.20092
 C299 C 0.69027 0.36437 -0.22034
 C300 C 0.69859 0.33508 -0.20777
 C301 C 0.68176 0.32358 -0.17566
 C302 C 0.65850 0.34085 -0.15652
 C303 C 0.62835 0.38922 -0.14653
 C304 C 0.59899 0.37714 -0.13326
 C305 C 0.57806 0.39487 -0.11110
 C306 C 0.58627 0.42490 -0.10143
 C307 C 0.61546 0.43703 -0.11504
 C308 C 0.63621 0.41942 -0.13748
 H309 H 0.70073 0.37406 -0.24586
 H310 H 0.68758 0.30189 -0.16345
 H311 H 0.55579 0.38492 -0.10079
 H312 H 0.62222 0.46021 -0.10833
 H313 H 0.64701 0.33164 -0.13124
 H314 H 0.59226 0.35397 -0.14004
 H315 H 0.66151 0.40399 -0.21137
 H316 H 0.65881 0.42922 -0.14702
 C317 C -0.15057 0.13805 -0.16516
 C318 C -0.15542 0.16878 -0.15661
 C319 C -0.17918 0.18527 -0.17598
 C320 C -0.19882 0.17174 -0.20518
 C321 C -0.19264 0.14111 -0.21467
 C322 C -0.16925 0.12457 -0.19477
 C323 C -0.12704 0.11985 -0.14239
 C324 C -0.10997 0.09589 -0.15968
 C325 C -0.08952 0.07766 -0.13770
 C326 C -0.08514 0.08318 -0.09792
 C327 C -0.10144 0.10773 -0.08090
 C328 C -0.12231 0.12562 -0.10272
 H329 H -0.18287 0.20825 -0.16616
 H330 H -0.20521 0.12951 -0.23800
 H331 H -0.07773 0.05880 -0.15185
 H332 H -0.09823 0.11315 -0.05057
 H333 H -0.16637 0.10091 -0.20221
 H334 H -0.11247 0.09105 -0.19025
 H335 H -0.14111 0.18017 -0.13446
 H336 H -0.13530 0.14355 -0.08816
 C337 C -0.15162 0.63513 0.33561
 C338 C -0.16387 0.66220 0.35115
 C339 C -0.18653 0.67910 0.33060
 C340 C -0.19747 0.66940 0.29395
 C341 C -0.18464 0.64271 0.27796
 C342 C -0.16194 0.62577 0.29856
 C343 C -0.12912 0.61621 0.35861
 C344 C -0.10286 0.60146 0.34114
 C345 C -0.08237 0.58298 0.36280
 C346 C -0.08779 0.57876 0.40237
 C347 C -0.11382 0.59380 0.41989
 C348 C -0.13424 0.61227 0.39828
 H349 H -0.19616 0.69939 0.34390
 H350 H -0.19228 0.63483 0.24960
 H351 H -0.06268 0.57151 0.34841
 H352 H -0.11840 0.59133 0.45040
 H353 H -0.15315 0.60491 0.28590
 H354 H -0.09810 0.60428 0.31072
 H355 H -0.15607 0.67025 0.37939
 H356 H -0.15446 0.62301 0.41254
 C357 C 0.35404 0.13866 0.33023
 C358 C 0.34600 0.16868 0.33999
 C359 C 0.32162 0.18390 0.31992
 C360 C 0.30513 0.16987 0.28878
 C361 C 0.31417 0.14034 0.27798
 C362 C 0.33783 0.12483 0.29873
 C363 C 0.37815 0.12142 0.35357
 C364 C 0.39644 0.09799 0.33679
 C365 C 0.41690 0.08018 0.35934
 C366 C 0.42046 0.08579 0.39922
 C367 C 0.40336 0.11016 0.41561
 C368 C 0.38219 0.12737 0.39330
 H369 H 0.31530 0.20647 0.32950
 H370 H 0.30283 0.12893 0.25355
 H371 H 0.42924 0.06154 0.34545
 H372 H 0.40600 0.11594 0.44590
 H373 H 0.34273 0.10166 0.29043
 H374 H 0.39484 0.09307 0.30618
 H375 H 0.35833 0.18054 0.36337
 H376 H 0.36840 0.14484 0.40768
 C377 C 0.34668 0.63915 -0.17271
 C378 C 0.33883 0.66919 -0.16291
 C379 C 0.31501 0.68476 -0.18342
 C380 C 0.29899 0.67117 -0.21522
 C381 C 0.30775 0.64155 -0.22596
 C382 C 0.33081 0.62563 -0.20469
 C383 C 0.37050 0.62173 -0.14911
 C384 C 0.38877 0.59820 -0.16568
 C385 C 0.40946 0.58069 -0.14304
 C386 C 0.41334 0.58672 -0.10329
 C387 C 0.39603 0.61101 -0.08705
 C388 C 0.37458 0.62788 -0.10942
 H389 H 0.30882 0.70731 -0.17367
 H390 H 0.29678 0.63040 -0.25081
 H391 H 0.42184 0.56204 -0.15682
 H392 H 0.39881 0.61711 -0.05689
 H393 H 0.33556 0.60246 -0.21307
 H394 H 0.38712 0.59306 -0.19623
 H395 H 0.35092 0.68086 -0.13921
 H396 H 0.36075 0.64536 -0.09512
 C397 C -0.15157 -0.13904 0.16976
 C398 C -0.16404 -0.12557 0.20327
 C399 C -0.18661 -0.14086 0.22574
 C400 C -0.19736 -0.17030 0.21548
 C401 C -0.18385 -0.18395 0.18223
 C402 C -0.16149 -0.16846 0.15967
 C403 C -0.12904 -0.12205 0.14481
 C404 C -0.13327 -0.12247 0.10453
 C405 C -0.11308 -0.10532 0.08108
 C406 C -0.08807 -0.08754 0.09739
 C407 C -0.08343 -0.08759 0.13762
 C408 C -0.10378 -0.10457 0.16109
 H409 H -0.19474 -0.12962 0.25175
 H410 H -0.19166 -0.20604 0.17206
 H411 H -0.11702 -0.10594 0.05015
 H412 H -0.06453 -0.07390 0.15102
 H413 H -0.15210 -0.17948 0.13406
 H414 H -0.15272 -0.13552 0.09121
 H415 H -0.15679 -0.10287 0.21180
 H416 H -0.09979 -0.10403 0.19202
 C417 C -0.15154 0.36232 0.67218
 C418 C -0.16671 0.37677 0.70357
 C419 C -0.18959 0.36153 0.72567
 C420 C -0.19896 0.33168 0.71631
 C421 C -0.18366 0.31716 0.68508
 C422 C -0.15996 0.33204 0.66382
 C423 C -0.12779 0.37894 0.64776
 C424 C -0.12403 0.37138 0.60848
 C425 C -0.10251 0.38739 0.58540
 C426 C -0.08484 0.41224 0.60039
 C427 C -0.08852 0.41974 0.63971
 C428 C -0.10920 0.40306 0.66313
 H429 H -0.19996 0.37339 0.75004
 H430 H -0.19034 0.29440 0.67636
 H431 H -0.09997 0.38016 0.55567
 H432 H -0.07595 0.43891 0.65257
 H433 H -0.14842 0.31964 0.64068
 H434 H -0.13812 0.35341 0.59503
 H435 H -0.16155 0.40014 0.71087
 H436 H -0.11055 0.40932 0.69333
 C437 C 0.34285 -0.13670 0.65554
 C438 C 0.32814 -0.12342 0.68781
 C439 C 0.30478 -0.13915 0.70852
 C440 C 0.29538 -0.16887 0.69773
 C441 C 0.31065 -0.18215 0.66537
 C442 C 0.33388 -0.16621 0.64453
 C443 C 0.36706 -0.11948 0.63318
 C444 C 0.36600 -0.11982 0.59265
 C445 C 0.38767 -0.10225 0.57165
 C446 C 0.41098 -0.08410 0.59073
 C447 C 0.41253 -0.08432 0.63124
 C448 C 0.39076 -0.10176 0.65223
 H449 H 0.29514 -0.12808 0.73390
 H450 H 0.30392 -0.20442 0.65479
 H451 H 0.38614 -0.10279 0.54044
 H452 H 0.43005 -0.07039 0.64675
 H453 H 0.34492 -0.17705 0.61977
 H454 H 0.34785 -0.13309 0.57720
 H455 H 0.33446 -0.10062 0.69690
 H456 H 0.39237 -0.10132 0.68344
 C457 C 0.34682 0.36171 0.15803
 C458 C 0.33644 0.37236 0.19422
 C459 C 0.31379 0.35603 0.21534
 C460 C 0.30087 0.32870 0.20074
 C461 C 0.31168 0.31774 0.16488
 C462 C 0.33441 0.33406 0.14377
 C463 C 0.36967 0.37992 0.13478
 C464 C 0.36518 0.38240 0.09470
 C465 C 0.38563 0.40071 0.07304
 C466 C 0.41103 0.41704 0.09094
 C467 C 0.41592 0.41411 0.13091
 C468 C 0.39548 0.39575 0.15257
 H469 H 0.30630 0.36487 0.24311
 H470 H 0.30202 0.29689 0.15270
 H471 H 0.38149 0.40211 0.04223
 H472 H 0.43508 0.42657 0.14565
 H473 H 0.34220 0.32505 0.11621
 H474 H 0.34534 0.37077 0.08014
 H475 H 0.34525 0.39371 0.20587
 H476 H 0.39985 0.39403 0.18332
 C477 C 0.15516 0.12967 0.16970
 C478 C 0.14627 0.15670 0.18852
 C479 C 0.16927 0.17378 0.20936
 C480 C 0.20167 0.16424 0.21174
 C481 C 0.21036 0.13701 0.19330
 C482 C 0.18740 0.11989 0.17279
 C483 C 0.13129 0.11194 0.14618
 C484 C 0.14085 0.09788 0.11155
 C485 C 0.11889 0.08065 0.08965
 C486 C 0.08662 0.07726 0.10151
 C487 C 0.07690 0.09155 0.13596
 C488 C 0.09900 0.10868 0.15808
 H489 H 0.16167 0.19446 0.22355
 H490 H 0.23515 0.12916 0.19397
 H491 H 0.12740 0.06963 0.06361
 H492 H 0.05215 0.08970 0.14573
 H493 H 0.19500 0.09894 0.15926
 H494 H 0.16537 0.10030 0.10115
 H495 H 0.12170 0.16500 0.18648
 H496 H 0.09090 0.11900 0.18476
 C497 C 0.15109 0.63388 0.66252
 C498 C 0.16417 0.66047 0.64710
 C499 C 0.18648 0.67791 0.66832
 C500 C 0.19624 0.66921 0.70550
 C501 C 0.18252 0.64305 0.72136
 C502 C 0.16018 0.62559 0.70011
 C503 C 0.12895 0.61438 0.63896
 C504 C 0.10193 0.60035 0.65563
 C505 C 0.08160 0.58150 0.63345
 C506 C 0.08790 0.57617 0.59415
 C507 C 0.11480 0.59035 0.57747
 C508 C 0.13508 0.60920 0.59960
 H509 H 0.19682 0.69777 0.65513
 H510 H 0.18925 0.63595 0.75010
 H511 H 0.06123 0.57070 0.64722
 H512 H 0.12010 0.58702 0.54718
 H513 H 0.15072 0.60513 0.71271
 H514 H 0.09641 0.60409 0.68579
 H515 H 0.15732 0.66770 0.61844
 H516 H 0.15591 0.61935 0.58600
 C517 C 0.64638 0.13986 0.68159
 C518 C 0.66244 0.12676 0.71322
 C519 C 0.68596 0.14294 0.73428
 C520 C 0.69507 0.17235 0.72356
 C521 C 0.67861 0.18560 0.69235
 C522 C 0.65427 0.16987 0.67224
 C523 C 0.62267 0.12199 0.65749
 C524 C 0.61840 0.12825 0.61806
 C525 C 0.59732 0.11095 0.59502
 C526 C 0.58069 0.08598 0.61017
 C527 C 0.58462 0.07987 0.64970
 C528 C 0.60489 0.09788 0.67311
 H529 H 0.69714 0.13208 0.75878
 H530 H 0.68496 0.20796 0.68255
 H531 H 0.59439 0.11721 0.56514
 H532 H 0.57268 0.06076 0.66267
 H533 H 0.64196 0.18135 0.64902
 H534 H 0.63186 0.14612 0.60435
 H535 H 0.65760 0.10367 0.72138
 H536 H 0.60667 0.09260 0.70343
 C537 C 0.64925 0.63893 0.17479
 C538 C 0.65711 0.66906 0.16606
 C539 C 0.68162 0.68451 0.18627
 C540 C 0.69830 0.67082 0.21701
 C541 C 0.68949 0.64112 0.22684
 C542 C 0.66580 0.62527 0.20566
 C543 C 0.62480 0.62161 0.15107
 C544 C 0.60720 0.59739 0.16674
 C545 C 0.58598 0.58005 0.14375
 C546 C 0.58082 0.58694 0.10462
 C547 C 0.59735 0.61197 0.08946
 C548 C 0.61940 0.62861 0.11203
 H549 H 0.68778 0.70706 0.17704
 H550 H 0.70090 0.62984 0.25086
 H551 H 0.57423 0.56084 0.15671
 H552 H 0.59357 0.61883 0.05993
 H553 H 0.66109 0.60203 0.21324
 H554 H 0.60980 0.59155 0.19680
 H555 H 0.64454 0.68094 0.14338
 H556 H 0.63265 0.64658 0.09827
   
