data_POSCAR
  _audit_creation_date              2014-09-24
  _audit_creation_method            'ToBaCCo'
  _symmetry_space_group_name_H-M    'P1'
  _symmetry_Int_Tables_number       1
  _symmetry_cell_setting            triclinic
  loop_
  _symmetry_equiv_pos_as_xyz
 x,y,z
_cell_length_a 16.2793
_cell_length_b 16.7927
_cell_length_c 21.1825
_cell_angle_alpha 90.359900
_cell_angle_beta 85.556900
_cell_angle_gamma 95.329300
loop_
  _atom_site_label
  _atom_site_type_symbol
  _atom_site_fract_x
  _atom_site_fract_y
  _atom_site_fract_z
C1 C -0.00383 0.57587 1.03617
 C2 C 0.00693 0.57435 0.96843
 C3 C 0.01735 0.50025 0.93856
 C4 C 0.01349 0.42832 0.97264
 C5 C 0.00026 0.42952 1.03972
 C6 C -0.00962 0.50322 1.06953
 H7 H -0.01842 0.50448 1.12092
 H8 H 0.02745 0.49778 0.88734
 C9 C 0.42279 -0.02421 0.53616
 C10 C 0.42417 -0.00730 0.47092
 C11 C 0.50058 0.00189 0.43498
 C12 C 0.57572 -0.00568 0.46201
 C13 C 0.57432 -0.01881 0.52851
 C14 C 0.49726 -0.02965 0.56413
 H15 H 0.49471 -0.03773 0.61496
 H16 H 0.50143 0.01042 0.38425
 C17 C 0.19697 0.04176 0.25609
 H18 H 0.20187 0.05372 0.20585
 C19 C 0.26820 0.04932 0.28917
 H20 H 0.32775 0.06532 0.26380
 C21 C 0.11384 0.00946 0.35078
 H22 H 0.05370 -0.00468 0.37516
 C23 C 0.18345 0.01580 0.38560
 H24 H 0.17532 0.00700 0.43635
 N25 N 0.12173 0.02034 0.28688
 C26 C -0.03561 -0.13962 0.18517
 H27 H -0.09142 -0.13055 0.21421
 C28 C -0.03474 -0.20528 0.14468
 H29 H -0.09034 -0.24576 0.14353
 C30 C 0.10102 -0.09364 0.14709
 H31 H 0.15306 -0.04904 0.14684
 C32 C 0.10472 -0.15881 0.10597
 H33 H 0.16022 -0.16439 0.07520
 Zn34 Zn 0.02625 0.00470 0.24009
 N35 N 0.03215 -0.08601 0.18660
 C36 C -0.03724 0.08293 0.14249
 N37 N 0.01776 0.09313 0.18766
 C38 C 0.06329 0.16411 0.19501
 C39 C 0.05433 0.22860 0.15569
 C40 C -0.04816 0.14577 0.10218
 C41 C -0.08475 -0.07494 0.33427
 C42 C -0.15429 -0.08382 0.37748
 C43 C -0.19161 0.04435 0.34390
 C44 C -0.12151 0.05077 0.30143
 N45 N -0.06987 -0.00850 0.29714
 H46 H -0.07278 0.02577 0.13792
 H47 H 0.10616 0.17095 0.23156
 H48 H 0.09277 0.28387 0.16140
 H49 H -0.09201 0.13665 0.06628
 H50 H -0.04218 -0.12084 0.33049
 H51 H -0.16531 -0.13696 0.40676
 H52 H -0.23033 0.09343 0.34748
 H53 H -0.10773 0.10392 0.27264
 C54 C 0.03687 -0.21639 0.10529
 C55 C 0.26215 0.03413 0.35439
 C56 C -0.20926 -0.02419 0.38211
 C57 C -0.00290 0.22000 0.10899
 C58 C -0.07653 0.15072 0.78782
 H59 H -0.11546 0.13722 0.74934
 C60 C -0.07481 0.22595 0.81636
 H61 H -0.11377 0.26935 0.80018
 C62 C 0.02282 0.11132 0.85447
 H63 H 0.06131 0.06635 0.86847
 C64 C 0.02631 0.18587 0.88453
 H65 H 0.06637 0.19594 0.92267
 N66 N -0.02789 0.09535 0.80699
 C67 C 0.09076 -0.05797 0.66767
 H68 H 0.04917 -0.11217 0.66964
 C69 C 0.16375 -0.05400 0.62796
 H70 H 0.17794 -0.10524 0.59924
 C71 C 0.12214 0.07542 0.70149
 H72 H 0.10593 0.12592 0.73008
 C73 C 0.19444 0.08266 0.66113
 H74 H 0.23345 0.13862 0.65909
 Zn75 Zn -0.02451 -0.00234 0.76202
 N76 N 0.07244 0.00549 0.70480
 C77 C -0.11282 -0.01387 0.65079
 N78 N -0.12039 -0.01865 0.71519
 C79 C -0.19616 -0.03238 0.74717
 C80 C -0.26758 -0.04381 0.71457
 C81 C -0.18299 -0.02340 0.61629
 C82 C 0.03825 -0.13974 0.81293
 C83 C 0.03624 -0.20721 0.85145
 C84 C -0.08738 -0.16708 0.90801
 C85 C -0.08260 -0.09995 0.86865
 N86 N -0.02237 -0.08904 0.82036
 H87 H -0.05250 -0.00164 0.62598
 H88 H -0.20187 -0.03361 0.79810
 H89 H -0.32727 -0.05506 0.74088
 H90 H -0.17558 -0.02014 0.56511
 H91 H 0.08869 -0.12840 0.77720
 H92 H 0.08605 -0.24543 0.84442
 H93 H -0.13667 -0.17528 0.94543
 H94 H -0.12699 -0.05647 0.87706
 C95 C 0.21683 0.01692 0.62502
 C96 C -0.02239 0.24494 0.86492
 C97 C -0.02895 -0.22317 0.89853
 C98 C -0.26163 -0.03841 0.64849
 C99 C -0.00464 -0.35530 0.07456
 C100 C 0.04114 -0.28584 0.06210
 H101 H -0.03655 -0.36232 0.12133
 H102 H 0.08571 -0.28073 0.02128
 C103 C 0.00179 0.36304 0.08028
 C104 C -0.01406 0.28574 0.06512
 H105 H 0.01295 0.37608 0.12923
 H106 H -0.04146 0.26888 0.02168
 C107 C 0.34463 -0.03403 0.57705
 C108 C 0.29413 0.02450 0.58335
 H109 H 0.33158 -0.08785 0.60539
 H110 H 0.31231 0.08128 0.55982
 C111 C -0.34865 -0.00904 0.56243
 C112 C -0.33811 -0.05002 0.61481
 H113 H -0.29923 0.03389 0.54357
 H114 H -0.38770 -0.09165 0.63521
 C115 C 0.00607 -0.35915 0.92769
 C116 C -0.03533 -0.29452 0.94058
 H117 H 0.03538 -0.36416 0.88037
 H118 H -0.07752 -0.29412 0.98263
 C119 C 0.02883 0.35467 0.93677
 C120 C -0.02383 0.32516 0.89496
 H121 H 0.07875 0.32170 0.95001
 H122 H -0.07325 0.36071 0.88404
 C123 C -0.35218 0.00087 0.42003
 C124 C -0.28262 -0.03372 0.42827
 H125 H -0.35625 0.02969 0.37487
 H126 H -0.28075 -0.07511 0.46694
 C127 C 0.34585 -0.00653 0.43935
 C128 C 0.33860 0.03813 0.38814
 H129 H 0.29314 -0.04522 0.45863
 H130 H 0.39130 0.07641 0.36823
   
