data_POSCAR
  _audit_creation_date              2014-09-24
  _audit_creation_method            'ToBaCCo'
  _symmetry_space_group_name_H-M    'P1'
  _symmetry_Int_Tables_number       1
  _symmetry_cell_setting            triclinic
  loop_
  _symmetry_equiv_pos_as_xyz
 x,y,z
_cell_length_a 18.6753
_cell_length_b 18.8009
_cell_length_c 23.0773
_cell_angle_alpha 90.054600
_cell_angle_beta 90.155100
_cell_angle_gamma 90.270200
loop_
  _atom_site_label
  _atom_site_type_symbol
  _atom_site_fract_x
  _atom_site_fract_y
  _atom_site_fract_z
B1 B 0.27820 0.21506 0.19291
 B2 B 0.29129 0.30063 0.21029
 B3 B 0.20862 0.27073 0.19425
 B4 B 0.19974 0.18737 0.22091
 B5 B 0.27892 0.16708 0.25375
 B6 B 0.33566 0.23771 0.24711
 B7 B 0.22017 0.28108 0.31017
 B8 B 0.20901 0.19522 0.29309
 B9 B 0.29034 0.22563 0.30886
 B10 B 0.29910 0.30856 0.28274
 B11 B 0.22048 0.32935 0.24895
 B12 B 0.16325 0.25814 0.25630
 B13 B 0.70217 0.77484 0.30792
 B14 B 0.78573 0.79993 0.29383
 B15 B 0.76757 0.71444 0.30871
 B16 B 0.68695 0.69400 0.27946
 B17 B 0.65686 0.76890 0.24549
 B18 B 0.71878 0.83446 0.25454
 B19 B 0.78166 0.72738 0.19309
 B20 B 0.69643 0.70411 0.20751
 B21 B 0.71643 0.78863 0.19246
 B22 B 0.79655 0.80922 0.22169
 B23 B 0.82676 0.73488 0.25603
 B24 B 0.76404 0.66834 0.24661
 B25 B 0.72380 0.21453 -0.19471
 B26 B 0.71463 0.30060 -0.21033
 B27 B 0.79579 0.26815 -0.19529
 B28 B 0.80122 0.18525 -0.22315
 B29 B 0.72101 0.16804 -0.25607
 B30 B 0.66702 0.24028 -0.24811
 B31 B 0.78310 0.28121 -0.31108
 B32 B 0.79167 0.19499 -0.29512
 B33 B 0.71123 0.22800 -0.31001
 B34 B 0.70584 0.31091 -0.28242
 B35 B 0.78585 0.32806 -0.24911
 B36 B 0.84012 0.25580 -0.25791
 B37 B 0.29384 0.77297 -0.30410
 B38 B 0.21224 0.80474 -0.29209
 B39 B 0.22283 0.71847 -0.30732
 B40 B 0.29931 0.69036 -0.27589
 B41 B 0.33546 0.76188 -0.24047
 B42 B 0.28078 0.83327 -0.25075
 B43 B 0.20478 0.73257 -0.19215
 B44 B 0.28687 0.70109 -0.20405
 B45 B 0.27584 0.78725 -0.18908
 B46 B 0.19937 0.81511 -0.22050
 B47 B 0.16317 0.74363 -0.25621
 B48 B 0.21813 0.67231 -0.24539
 B49 B 1.22093 1.28625 0.68866
 B50 B 1.20312 1.20220 0.70837
 B51 B 1.28697 1.22585 0.69072
 B52 B 1.30209 1.30916 0.71492
 B53 B 1.22565 1.33660 0.74841
 B54 B 1.16380 1.26944 0.74405
 B55 B 1.27732 1.22089 0.80702
 B56 B 1.29479 1.30474 0.78737
 B57 B 1.21109 1.28123 0.80498
 B58 B 1.19615 1.19783 0.78101
 B59 B 1.27236 1.17051 0.74716
 B60 B 1.33435 1.23742 0.75194
 B61 B 0.78537 0.72137 0.81162
 B62 B 0.70181 0.69776 0.79328
 B63 B 0.71910 0.78151 0.81317
 B64 B 0.80056 0.80472 0.78786
 B65 B 0.83316 0.73301 0.75111
 B66 B 0.77127 0.66593 0.75488
 B67 B 0.71048 0.77684 0.69669
 B68 B 0.79421 0.80029 0.71512
 B69 B 0.77646 0.71619 0.69521
 B70 B 0.69508 0.69342 0.72066
 B71 B 0.66253 0.76511 0.75744
 B72 B 0.72462 0.83212 0.75342
 B73 B 1.22844 0.71292 0.30776
 B74 B 1.20752 0.79656 0.28906
 B75 B 1.29188 0.77629 0.30758
 B76 B 1.31071 0.69438 0.28233
 B77 B 1.23598 0.66414 0.24732
 B78 B 1.17148 0.72822 0.25190
 B79 B 1.28387 0.78363 0.19143
 B80 B 1.30447 0.70024 0.20981
 B81 B 1.22016 0.72014 0.19145
 B82 B 1.20157 0.80215 0.21651
 B83 B 1.27617 0.83239 0.25182
 B84 B 1.34075 0.76844 0.24707
 B85 B 0.79016 1.27266 0.19212
 B86 B 0.70469 1.29057 0.20757
 B87 B 0.72828 1.20724 0.19168
 B88 B 0.80999 1.19207 0.21947
 B89 B 0.83671 1.26779 0.25430
 B90 B 0.77058 1.32980 0.24642
 B91 B 0.71530 1.21819 0.30731
 B92 B 0.80086 1.19953 0.29157
 B93 B 0.77728 1.28314 0.30809
 B94 B 0.69549 1.29869 0.27986
 B95 B 0.66886 1.22272 0.24532
 B96 B 0.73474 1.16084 0.25307
 O97 O 0.46143 1.13007 0.06630
 O98 O 0.53983 0.88992 0.07507
 O99 O 0.38134 0.96703 0.07398
 O100 O 0.62313 1.05542 0.06720
 O101 O 0.41993 0.86874 0.04270
 O102 O 0.57775 1.14769 0.02938
 O103 O 0.63842 0.93239 0.04341
 O104 O 0.36179 1.08447 0.04112
 C105 C 0.39824 1.11893 0.07735
 C106 C 0.60402 0.90157 0.08276
 C107 C 0.39050 0.90321 0.08210
 C108 C 0.61039 1.11963 0.07038
 O109 O 0.52831 1.12400 -0.07896
 O110 O 0.46677 0.87955 -0.06837
 O111 O 0.37445 1.03421 -0.07198
 O112 O 0.62179 0.96833 -0.07203
 O113 O 0.58836 0.87098 -0.03490
 O114 O 0.40718 1.13570 -0.04303
 O115 O 0.63086 1.09026 -0.04802
 O116 O 0.36555 0.91628 -0.03859
 Co117 Co 0.49395 1.12180 -0.00618
 Co118 Co 0.50324 0.88973 0.00315
 Co119 Co 0.38287 1.00105 0.00100
 Co120 Co 0.61633 1.01087 -0.00218
 O121 O 0.49915 1.00589 -0.00094
 C122 C 0.59356 1.11902 -0.08657
 C123 C 0.40178 0.88466 -0.07626
 C124 C 0.37825 1.09835 -0.08115
 C125 C 0.61574 0.90354 -0.07648
 O126 O 0.96948 0.62608 0.57350
 O127 O 1.02863 0.37992 0.56874
 O128 O 0.87521 0.47250 0.57107
 O129 O 1.12331 0.53287 0.57071
 O130 O 0.90709 0.37264 0.53723
 O131 O 1.09114 0.63443 0.54090
 O132 O 1.13061 0.41345 0.53815
 O133 O 0.86676 0.59366 0.54269
 C134 C 0.90420 0.62365 0.58088
 C135 C 1.09385 0.38221 0.57585
 C136 C 0.87940 0.40785 0.57735
 C137 C 1.12010 0.59726 0.57924
 O138 O 1.04058 0.62546 0.42947
 O139 O 0.95466 0.38715 0.42551
 O140 O 0.87565 0.55016 0.42905
 O141 O 1.11702 0.46276 0.42585
 O142 O 1.07455 0.36519 0.45683
 O143 O 0.92233 0.64507 0.46238
 O144 O 1.13880 0.58116 0.45829
 O145 O 0.85696 0.42965 0.45748
 Co146 Co 1.00526 0.62038 0.50140
 Co147 Co 0.99190 0.38864 0.49726
 Co148 Co 0.88114 0.51072 0.50001
 Co149 Co 1.11497 0.49826 0.49828
 O150 O 0.99831 0.50454 0.49915
 C151 C 1.10435 0.61476 0.42059
 C152 C 0.89039 0.39796 0.41816
 C153 C 0.88825 0.61398 0.42302
 C154 C 1.10746 0.39871 0.41833
 O155 O 1.04103 0.40903 0.11202
 O156 O 1.03020 0.58900 -0.10991
 O157 O 1.06240 0.37063 -0.06290
 O158 O 1.06654 0.62971 0.06414
 O159 O 1.08907 0.47286 -0.09919
 O160 O 1.09682 0.52728 0.09952
 O161 O 1.08327 0.62614 -0.03627
 O162 O 1.08965 0.37928 0.03496
 C163 C 1.09343 0.38308 0.08797
 C164 C 1.08308 0.61888 -0.08914
 C165 C 1.10363 0.40905 -0.09299
 C166 C 1.11050 0.59155 0.09217
 O167 O 0.97157 0.58322 0.11755
 O168 O 0.96229 0.41321 -0.11114
 O169 O 0.94095 0.36669 0.06288
 O170 O 0.93331 0.63079 -0.05561
 O171 O 0.90541 0.52941 -0.09492
 O172 O 0.91342 0.46678 0.10240
 O173 O 0.91570 0.62213 0.04603
 O174 O 0.91411 0.37784 -0.03513
 Co175 Co 1.00507 0.49659 0.09699
 Co176 Co 0.99723 0.50071 -0.09292
 Co177 Co 1.00169 0.38468 0.00025
 Co178 Co 0.99959 0.61568 0.00435
 O179 O 1.00077 0.49938 0.00212
 C180 C 0.91858 0.61468 0.09900
 C181 C 0.91111 0.38316 -0.08817
 C182 C 0.89865 0.40329 0.09327
 C183 C 0.89136 0.59320 -0.08646
 O184 O 0.59215 0.97100 0.60113
 O185 O 0.59065 1.02943 0.40235
 O186 O 0.58644 0.87809 0.46636
 O187 O 0.58690 1.12415 0.53520
 O188 O 0.53587 0.91247 0.39090
 O189 O 0.53843 1.08915 0.61143
 O190 O 0.56147 1.13155 0.43694
 O191 O 0.56159 0.86928 0.56536
 C192 C 0.60477 0.90668 0.59481
 C193 C 0.60469 1.09333 0.40876
 C194 C 0.58901 0.88600 0.41368
 C195 C 0.59078 1.11643 0.58782
 O196 O 0.40991 1.03301 0.60063
 O197 O 0.40803 0.96852 0.40338
 O198 O 0.41388 0.87770 0.53913
 O199 O 0.41297 1.12166 0.46402
 O200 O 0.46257 1.08540 0.38892
 O201 O 0.46352 0.91582 0.61433
 O202 O 0.43923 1.13364 0.56249
 O203 O 0.43794 0.86764 0.44033
 Co204 Co 0.50095 1.00214 0.59650
 Co205 Co 0.49935 0.99916 0.40677
 Co206 Co 0.50003 0.88469 0.50258
 Co207 Co 0.50004 1.11633 0.49980
 O208 O 0.50008 1.00059 0.50150
 C209 C 0.39628 1.09667 0.59227
 C210 C 0.39467 0.90463 0.41099
 C211 C 0.41137 0.88641 0.59179
 C212 C 0.40999 1.11328 0.41136
 O213 O 1.13092 1.05305 0.43373
 O214 O 0.87047 1.05329 0.56604
 O215 O 0.91144 1.03610 0.38996
 O216 O 1.08955 1.03837 0.61035
 O217 O 0.87792 1.08127 0.46856
 O218 O 1.12267 1.08335 0.53155
 O219 O 0.97286 1.08689 0.59822
 O220 O 1.02882 1.08487 0.40033
 C221 C 1.09298 1.09689 0.40630
 C222 C 0.90862 1.09795 0.59278
 C223 C 0.88183 1.08594 0.41589
 C224 C 1.11962 1.08797 0.58435
 O225 O 1.13358 0.93989 0.56303
 O226 O 0.86699 0.93743 0.43814
 O227 O 1.08441 0.95372 0.38733
 O228 O 0.91652 0.95610 0.61387
 O229 O 0.88041 0.90925 0.53634
 O230 O 1.12116 0.90981 0.46564
 O231 O 1.03257 0.90746 0.59847
 O232 O 0.96752 0.90505 0.40233
 Co233 Co 1.11579 0.99650 0.49866
 Co234 Co 0.88524 0.99524 0.50204
 Co235 Co 0.99828 0.99502 0.40547
 Co236 Co 1.00263 0.99709 0.59454
 O237 O 1.00049 0.99599 0.50012
 C238 C 1.09657 0.89623 0.59163
 C239 C 0.90356 0.89334 0.40983
 C240 C 1.11672 0.90520 0.41290
 C241 C 0.88387 0.90683 0.58926
 O242 O 0.63306 0.56832 -0.03170
 O243 O 0.39099 0.59591 0.02984
 O244 O 0.47645 0.59116 -0.09623
 O245 O 0.55274 0.57180 0.10081
 O246 O 0.37229 0.56344 -0.06818
 O247 O 0.64427 0.52209 0.06358
 O248 O 0.42597 0.54911 0.10883
 O249 O 0.58789 0.53547 -0.11112
 C250 C 0.62366 0.57976 -0.08354
 C251 C 0.39613 0.59905 0.08295
 C252 C 0.41245 0.60504 -0.09500
 C253 C 0.61861 0.56931 0.09480
 O254 O 0.61376 0.39034 0.02516
 O255 O 0.36947 0.42316 -0.03455
 O256 O 0.52348 0.40608 -0.10213
 O257 O 0.45002 0.40837 0.09555
 O258 O 0.35816 0.46081 0.06221
 O259 O 0.62815 0.43083 -0.07210
 O260 O 0.57533 0.43092 0.10553
 O261 O 0.41188 0.46222 -0.11286
 Co262 Co 0.61698 0.47963 -0.00399
 Co263 Co 0.38549 0.50917 -0.00284
 Co264 Co 0.49994 0.49839 -0.09549
 Co265 Co 0.50080 0.49054 0.09240
 O266 O 0.50085 0.49429 -0.00218
 C267 C 0.60897 0.38462 0.07830
 C268 C 0.37598 0.41664 -0.08706
 C269 C 0.58744 0.39173 -0.10103
 C270 C 0.38461 0.40906 0.08783
 C271 C 0.30457 1.17954 0.13438
 C272 C 0.36919 1.14987 0.13060
 H273 H 0.26899 1.17928 0.09723
 H274 H 0.40577 1.15315 0.16704
 C275 C 0.80517 0.67953 0.63733
 C276 C 0.87398 0.66042 0.63167
 H277 H 0.76720 0.66791 0.60303
 H278 H 0.91194 0.67380 0.66557
 C279 C 0.69066 0.82658 0.13470
 C280 C 0.63763 0.87425 0.13551
 H281 H 0.71423 0.81076 0.09387
 H282 H 0.61085 0.88652 0.17587
 C283 C 1.19248 0.32284 0.63069
 C284 C 1.12436 0.34443 0.62594
 H285 H 1.23001 0.33293 0.59594
 H286 H 1.08680 0.33248 0.66029
 C287 C 0.69255 1.17843 -0.13824
 C288 C 0.62563 1.15217 -0.13749
 H289 H 0.72649 1.17464 -0.10025
 H290 H 0.59086 1.15795 -0.17481
 C291 C 1.20128 0.67516 0.36546
 C292 C 1.13616 0.64530 0.36806
 H293 H 1.23594 0.67493 0.40316
 H294 H 1.10058 0.64864 0.33104
 C295 C 0.30360 0.82432 -0.13107
 C296 C 0.37050 0.85029 -0.12757
 H297 H 0.26748 0.82905 -0.09466
 H298 H 0.40692 0.84339 -0.16356
 C299 C 0.80229 0.32247 0.36599
 C300 C 0.85627 0.36978 0.36548
 H301 H 0.77730 0.30791 0.40660
 H302 H 0.88380 0.38104 0.32524
 C303 C 1.16412 0.29248 0.13813
 C304 C 1.15540 0.36044 0.12245
 H305 H 1.13148 0.25165 0.11779
 H306 H 1.18419 0.40200 0.14537
 C307 C 0.66828 0.80540 0.64116
 C308 C 0.66297 0.87526 0.62982
 H309 H 0.63381 0.76805 0.61856
 H310 H 0.69617 0.91253 0.65380
 C311 C 1.15917 0.70986 -0.13663
 C312 C 1.14123 0.64156 -0.12747
 H313 H 1.13606 0.75123 -0.11001
 H314 H 1.16029 0.60071 -0.15658
 C315 C 0.67225 1.19204 0.36287
 C316 C 0.66482 1.12280 0.37501
 H317 H 0.63832 1.23044 0.38433
 H318 H 0.69758 1.08446 0.35224
 C319 C 0.82538 0.70015 0.13726
 C320 C 0.86638 0.64159 0.14148
 H321 H 0.82516 0.73124 0.09783
 H322 H 0.86818 0.61334 0.18232
 C323 C 0.33001 1.19772 0.63578
 C324 C 0.33664 1.12788 0.62529
 H325 H 0.36445 1.23524 0.61355
 H326 H 0.30346 1.09050 0.64898
 C327 C 0.83982 0.29028 -0.13834
 C328 C 0.85108 0.35886 -0.12441
 H329 H 0.86878 0.24913 -0.11548
 H330 H 0.82719 0.40011 -0.15058
 C331 C 0.33243 0.80375 0.36396
 C332 C 0.33581 0.87307 0.37698
 H333 H 0.36825 0.76690 0.38531
 H334 H 0.30161 0.91009 0.35404
 C335 C 1.17537 1.13902 0.33485
 C336 C 1.12383 1.15394 0.37226
 H337 H 1.19647 1.08541 0.33288
 H338 H 1.09721 1.20493 0.37174
 C339 C 0.65501 0.64498 -0.17046
 C340 C 0.66019 0.63795 -0.11301
 H341 H 0.62025 0.60980 -0.19506
 H342 H 0.69461 0.67214 -0.08754
 C343 C 0.82400 1.13951 0.66227
 C344 C 0.87801 1.15439 0.62713
 H345 H 0.80108 1.08639 0.66243
 H346 H 0.90648 1.20459 0.62997
 C347 C 0.35412 0.65116 0.17286
 C348 C 0.35670 0.65280 0.11506
 H349 H 0.38541 0.61247 0.19664
 H350 H 0.32449 0.68948 0.09045
 C351 C 1.18020 0.85866 0.66366
 C352 C 1.12849 0.84131 0.62668
 H353 H 1.20104 0.91260 0.66430
 H354 H 1.10145 0.79037 0.62914
 C355 C 0.65496 0.33679 0.16833
 C356 C 0.65257 0.33354 0.11036
 H357 H 0.62177 0.37448 0.19138
 H358 H 0.68654 0.29752 0.08645
 C359 C 0.82162 0.85390 0.33681
 C360 C 0.87087 0.83700 0.37580
 H361 H 0.80369 0.90865 0.33423
 H362 H 0.89549 0.78534 0.37602
 C363 C 0.34177 0.35674 -0.17582
 C364 C 0.33583 0.36286 -0.11850
 H365 H 0.37905 0.39022 -0.19937
 H366 H 0.29885 0.33064 -0.09405
 C367 C 1.16806 0.30926 -0.14000
 C368 C 1.16113 0.37904 -0.12906
 H369 H 1.13528 0.27118 -0.11677
 H370 H 1.19263 0.41698 -0.15361
 C371 C 0.66073 0.79693 0.36477
 C372 C 0.64942 0.86506 0.37787
 H373 H 0.63229 0.75567 0.38821
 H374 H 0.67319 0.90674 0.35182
 C375 C 0.82793 0.69377 -0.13290
 C376 C 0.83288 0.62418 -0.12095
 H377 H 0.86268 0.73132 -0.11080
 H378 H 0.79986 0.58665 -0.14482
 C379 C 0.33320 1.20261 0.36539
 C380 C 0.34949 1.13438 0.37507
 H381 H 0.35818 1.24393 0.39132
 H382 H 0.32883 1.09335 0.34657
 C383 C 1.17857 0.69202 0.13549
 C384 C 1.17161 0.62225 0.12451
 H385 H 1.14410 0.72947 0.11340
 H386 H 1.20494 0.58482 0.14783
 C387 C 0.66717 1.20628 0.63380
 C388 C 0.65224 1.13794 0.62264
 H389 H 0.64014 1.24780 0.60981
 H390 H 0.67474 1.09636 0.64933
 C391 C 0.83250 0.30133 0.13675
 C392 C 0.83866 0.37134 0.12600
 H393 H 0.86737 0.26429 0.11473
 H394 H 0.80503 0.40832 0.14939
 C395 C 0.33934 0.79494 0.64056
 C396 C 0.35174 0.86346 0.62804
 H397 H 0.36770 0.75369 0.61736
 H398 H 0.32786 0.90493 0.65400
 C399 C 0.30806 1.18788 -0.13453
 C400 C 0.34707 1.12826 -0.13417
 H401 H 0.29665 1.21384 -0.09385
 H402 H 0.35480 1.09824 -0.17372
 C403 C 0.79486 0.67542 0.36602
 C404 C 0.86251 0.65203 0.37163
 H405 H 0.75688 0.66656 0.40068
 H406 H 0.90132 0.66087 0.33762
 C407 C 0.70345 1.16481 0.13592
 C408 C 0.63491 1.16295 0.11909
 H409 H 0.74282 1.13324 0.11317
 H410 H 0.59543 1.19619 0.14001
 C411 C 1.19377 0.68531 0.63341
 C412 C 1.15195 0.62715 0.63239
 H413 H 1.20582 0.71279 0.59334
 H414 H 1.14267 0.59748 0.67188
 C415 C 0.68845 0.81422 -0.12828
 C416 C 0.64175 0.86808 -0.12897
 H417 H 0.70779 0.79408 -0.08724
 H418 H 0.62608 0.89184 -0.16980
 C419 C 1.18808 0.31437 0.36815
 C420 C 1.13692 0.36439 0.36643
 H421 H 1.20768 0.29528 0.40949
 H422 H 1.11956 0.38582 0.32521
 C423 C 0.31252 0.81977 0.13392
 C424 C 0.36402 0.86949 0.13498
 H425 H 0.28853 0.80457 0.09294
 H426 H 0.38498 0.88914 0.17580
 C427 C 0.81415 0.31351 0.63046
 C428 C 0.84907 0.37578 0.62977
 H429 H 0.80739 0.28359 0.59067
 H430 H 0.85260 0.40761 0.66882
 C431 C 1.15653 1.14841 0.67259
 C432 C 1.15682 1.14534 0.61494
 H433 H 1.12585 1.10984 0.69718
 H434 H 1.18733 1.18330 0.58970
 C435 C 0.64479 0.66091 0.16677
 C436 C 0.66773 0.61314 0.12895
 H437 H 0.58782 0.67020 0.17131
 H438 H 0.72422 0.60236 0.12472
 C439 C 1.15788 0.84778 0.32447
 C440 C 1.15600 0.84965 0.38211
 H441 H 1.12700 0.88586 0.29969
 H442 H 1.18706 0.81244 0.40750
 C443 C 0.67856 0.35303 -0.16701
 C444 C 0.61610 0.33980 -0.14128
 H445 H 0.70638 0.40250 -0.15817
 H446 H 0.58388 0.29389 -0.15272
 C447 C 0.85000 1.14973 0.32839
 C448 C 0.84521 1.14347 0.38557
 H449 H 0.88508 1.11460 0.30447
 H450 H 0.81103 1.17840 0.41038
 C451 C 0.32029 0.64876 -0.15891
 C452 C 0.38362 0.65940 -0.13344
 H453 H 0.28988 0.60099 -0.14936
 H454 H 0.41716 0.70428 -0.14507
 C455 C 0.84156 0.85320 0.67903
 C456 C 0.84381 0.85282 0.62129
 H457 H 0.87175 0.89275 0.70316
 H458 H 0.81321 0.81427 0.59657
 C459 C 0.33837 0.35334 0.17373
 C460 C 0.33819 0.35713 0.11618
 H461 H 0.37443 0.38770 0.19799
 H462 H 0.30104 0.32616 0.09030
   
