data_POSCAR
  _audit_creation_date              2014-09-24
  _audit_creation_method            'ToBaCCo'
  _symmetry_space_group_name_H-M    'P1'
  _symmetry_Int_Tables_number       1
  _symmetry_cell_setting            triclinic
  loop_
  _symmetry_equiv_pos_as_xyz
 x,y,z
_cell_length_a 38.5541
_cell_length_b 41.1382
_cell_length_c 38.4315
_cell_angle_alpha 85.733500
_cell_angle_beta 95.452900
_cell_angle_gamma 95.616200
loop_
  _atom_site_label
  _atom_site_type_symbol
  _atom_site_fract_x
  _atom_site_fract_y
  _atom_site_fract_z
C1 C 0.22309 0.28066 0.28476
 C2 C 0.24744 0.30230 0.26150
 C3 C 0.26546 0.28556 0.24102
 C4 C 0.25815 0.24811 0.24646
 C5 C 0.20013 0.25872 0.25953
 C6 C 0.21826 0.24162 0.23954
 C7 C 0.24756 0.25760 0.30599
 C8 C 0.26555 0.24017 0.28610
 H9 H 0.25043 0.32873 0.26175
 H10 H 0.27264 0.23436 0.22978
 H11 H 0.17184 0.25610 0.25872
 H12 H 0.25211 0.25632 0.33418
 C13 C 0.72483 0.78032 0.28624
 C14 C 0.74945 0.80171 0.26305
 C15 C 0.76740 0.78474 0.24273
 C16 C 0.75977 0.74733 0.24826
 C17 C 0.70180 0.75845 0.26098
 C18 C 0.71987 0.74114 0.24114
 C19 C 0.74897 0.75709 0.30766
 C20 C 0.76691 0.73946 0.28794
 H21 H 0.75256 0.82814 0.26314
 H22 H 0.77422 0.73338 0.23173
 H23 H 0.67350 0.75607 0.26001
 H24 H 0.75331 0.75575 0.33586
 C25 C 0.71882 0.27788 0.78524
 C26 C 0.74058 0.29801 0.76172
 C27 C 0.76006 0.28030 0.74066
 C28 C 0.75390 0.24483 0.74777
 C29 C 0.69574 0.25410 0.76187
 C30 C 0.71397 0.23693 0.74201
 C31 C 0.74374 0.25562 0.80708
 C32 C 0.76225 0.23838 0.78754
 H33 H 0.74364 0.32436 0.76260
 H34 H 0.76775 0.22940 0.73242
 H35 H 0.66749 0.25111 0.76127
 H36 H 0.74545 0.25230 0.83532
 C37 C 0.21976 0.77817 0.78389
 C38 C 0.24097 0.79944 0.75751
 C39 C 0.25924 0.78241 0.73760
 C40 C 0.25454 0.74522 0.74579
 C41 C 0.19676 0.75326 0.76187
 C42 C 0.21479 0.73618 0.74171
 C43 C 0.24650 0.75738 0.80519
 C44 C 0.26479 0.74027 0.78531
 H45 H 0.24232 0.82593 0.75586
 H46 H 0.26933 0.73125 0.72958
 H47 H 0.16858 0.74980 0.76206
 H48 H 0.24861 0.75369 0.83340
 C49 C 0.05870 0.04641 0.00554
 H50 H 0.05871 0.04914 -0.02267
 C51 C 0.07991 0.06826 0.02632
 H52 H 0.09645 0.08781 0.01413
 C53 C 0.03629 0.01831 0.05596
 H54 H 0.01868 -0.00063 0.06743
 C55 C 0.05707 0.03961 0.07767
 H56 H 0.05565 0.03673 0.10576
 N57 N 0.03759 0.02193 0.02059
 C58 C 0.01566 -0.05134 -0.05720
 H59 H -0.01265 -0.05374 -0.05924
 C60 C 0.03354 -0.07068 -0.07650
 H61 H 0.01902 -0.08798 -0.09360
 C62 C 0.06928 -0.02634 -0.03190
 H63 H 0.08313 -0.00947 -0.01405
 C64 C 0.08817 -0.04522 -0.05071
 H65 H 0.11651 -0.04260 -0.04755
 Zn66 Zn 0.00756 -0.00507 -0.00943
 N67 N 0.03367 -0.02950 -0.03568
 C68 C -0.02119 0.02330 -0.07478
 N69 N -0.01997 0.02299 -0.03923
 C70 C -0.03782 0.04378 -0.02331
 C71 C -0.05866 0.06540 -0.04325
 C72 C -0.04177 0.04459 -0.09575
 C73 C -0.00601 -0.05790 0.03942
 C74 C -0.02615 -0.07982 0.06061
 C75 C -0.07793 -0.05566 0.03448
 C76 C -0.05685 -0.03417 0.01382
 N77 N -0.02149 -0.03520 0.01715
 H78 H -0.00622 0.00714 -0.08695
 H79 H -0.03595 0.04335 0.00499
 H80 H -0.07301 0.08164 -0.03032
 H81 H -0.04287 0.04458 -0.12402
 H82 H 0.02210 -0.05849 0.04117
 H83 H -0.01356 -0.09731 0.07885
 H84 H -0.10597 -0.05426 0.03216
 H85 H -0.06880 -0.01658 -0.00461
 C86 C 0.07013 -0.06756 -0.07323
 C87 C 0.07899 0.06485 0.06270
 C88 C -0.06240 -0.07843 0.05834
 C89 C -0.06077 0.06572 -0.07978
 C90 C 0.05499 0.54057 0.50884
 H91 H 0.05526 0.54352 0.48066
 C92 C 0.07625 0.56206 0.52998
 H93 H 0.09309 0.58157 0.51811
 C94 C 0.03192 0.51222 0.55881
 H95 H 0.01406 0.49331 0.56995
 C96 C 0.05274 0.53317 0.58087
 H97 H 0.05109 0.53006 0.60893
 N98 N 0.03354 0.51613 0.52349
 C99 C 0.01221 0.44362 0.44483
 H100 H -0.01610 0.44133 0.44238
 C101 C 0.03031 0.42452 0.42545
 H102 H 0.01595 0.40753 0.40789
 C103 C 0.06562 0.46812 0.47113
 H104 H 0.07930 0.48471 0.48936
 C105 C 0.08472 0.44948 0.45226
 H106 H 0.11305 0.45202 0.45576
 Zn107 Zn 0.00368 0.48951 0.49291
 N108 N 0.03002 0.46512 0.46685
 C109 C -0.02376 0.51859 0.42741
 N110 N -0.02322 0.51797 0.46293
 C111 C -0.04124 0.53874 0.47868
 C112 C -0.06153 0.56070 0.45856
 C113 C -0.04378 0.54023 0.40627
 C114 C -0.01098 0.43644 0.54117
 C115 C -0.03159 0.41449 0.56188
 C116 C -0.08285 0.43912 0.53514
 C117 C -0.06131 0.46063 0.51498
 N118 N -0.02598 0.45938 0.51885
 H119 H -0.00865 0.50245 0.41539
 H120 H -0.03990 0.53807 0.50697
 H121 H -0.07600 0.57696 0.47135
 H122 H -0.04429 0.54050 0.37802
 H123 H 0.01712 0.43567 0.54335
 H124 H -0.01939 0.39680 0.58018
 H125 H -0.11088 0.44071 0.53240
 H126 H -0.07287 0.47842 0.49650
 C127 C 0.06689 0.42755 0.42917
 C128 C 0.07504 0.55834 0.56632
 C129 C -0.06783 0.41609 0.55906
 C130 C -0.06292 0.56137 0.42204
 C131 C 0.55586 0.04302 0.50623
 H132 H 0.55624 0.04588 0.47806
 C133 C 0.57706 0.06456 0.52737
 H134 H 0.59395 0.08403 0.51550
 C135 C 0.53259 0.01483 0.55618
 H136 H 0.51467 -0.00404 0.56732
 C137 C 0.55334 0.03583 0.57824
 H138 H 0.55158 0.03281 0.60628
 N139 N 0.53435 0.01863 0.52088
 C140 C 0.51334 -0.05416 0.44250
 H141 H 0.48503 -0.05639 0.43985
 C142 C 0.53155 -0.07343 0.42343
 H143 H 0.51728 -0.09050 0.40590
 C144 C 0.56663 -0.02965 0.46904
 H145 H 0.58021 -0.01300 0.48726
 C146 C 0.58583 -0.04846 0.45048
 H147 H 0.61415 -0.04599 0.45422
 Zn148 Zn 0.50459 -0.00807 0.49031
 N149 N 0.53103 -0.03258 0.46451
 C150 C 0.47715 0.02077 0.42463
 N151 N 0.47779 0.02033 0.46016
 C152 C 0.45983 0.04120 0.47583
 C153 C 0.43946 0.06305 0.45565
 C154 C 0.45704 0.04230 0.40343
 C155 C 0.48959 -0.06097 0.53871
 C156 C 0.46880 -0.08284 0.55933
 C157 C 0.41772 -0.05819 0.53214
 C158 C 0.43944 -0.03678 0.51207
 N159 N 0.47475 -0.03807 0.51619
 H160 H 0.49220 0.00454 0.41267
 H161 H 0.46124 0.04065 0.50412
 H162 H 0.42501 0.07936 0.46839
 H163 H 0.45640 0.04240 0.37518
 H164 H 0.51769 -0.06178 0.54108
 H165 H 0.48087 -0.10050 0.57776
 H166 H 0.38970 -0.05658 0.52918
 H167 H 0.42800 -0.01903 0.49345
 C168 C 0.56813 -0.07050 0.42745
 C169 C 0.57570 0.06095 0.56369
 C170 C 0.43257 -0.08118 0.55623
 C171 C 0.43793 0.06351 0.41914
 C172 C 0.55908 0.54751 0.00630
 H173 H 0.55930 0.55022 -0.02190
 C174 C 0.58043 0.56914 0.02720
 H175 H 0.59727 0.58852 0.01514
 C176 C 0.53606 0.51964 0.05654
 H177 H 0.51818 0.50086 0.06788
 C178 C 0.55696 0.54073 0.07837
 H179 H 0.55536 0.53787 0.10644
 N180 N 0.53761 0.52323 0.02120
 C181 C 0.51573 0.44991 -0.05651
 H182 H 0.48742 0.44773 -0.05882
 C183 C 0.53362 0.43037 -0.07558
 H184 H 0.51910 0.41315 -0.09277
 C185 C 0.56934 0.47455 -0.03078
 H186 H 0.58317 0.49136 -0.01286
 C187 C 0.58824 0.45547 -0.04936
 H188 H 0.61657 0.45788 -0.04594
 Zn189 Zn 0.50760 0.49640 -0.00901
 N190 N 0.53373 0.47167 -0.03490
 C191 C 0.47973 0.52486 -0.07466
 N192 N 0.48056 0.52463 -0.03913
 C193 C 0.46270 0.54560 -0.02350
 C194 C 0.44225 0.56737 -0.04373
 C195 C 0.45955 0.54630 -0.09590
 C196 C 0.49318 0.44371 0.03972
 C197 C 0.47270 0.42190 0.06070
 C198 C 0.42132 0.44646 0.03412
 C199 C 0.44274 0.46781 0.01368
 N200 N 0.47806 0.46653 0.01733
 H201 H 0.49471 0.50855 -0.08659
 H202 H 0.46426 0.54523 0.00478
 H203 H 0.42790 0.58378 -0.03103
 H204 H 0.45879 0.54624 -0.12415
 H205 H 0.52127 0.44291 0.04172
 H206 H 0.48500 0.40429 0.07902
 H207 H 0.39330 0.44804 0.03153
 H208 H 0.43108 0.48551 -0.00485
 C209 C 0.57020 0.43322 -0.07197
 C210 C 0.57927 0.56574 0.06356
 C211 C 0.43648 0.42354 0.05808
 C212 C 0.44055 0.56763 -0.08024
 C213 C 0.15044 -0.16726 -0.19536
 C214 C 0.16035 -0.16118 -0.16034
 C215 C 0.18984 -0.17446 -0.14312
 C216 C 0.20918 -0.19407 -0.16065
 C217 C 0.19896 -0.20120 -0.19571
 C218 C 0.16973 -0.18684 -0.21297
 C219 C 0.14059 -0.14097 -0.14215
 C220 C 0.12421 -0.12408 -0.12669
 C221 C 0.10521 -0.10436 -0.10834
 C222 C 0.08914 -0.08756 -0.09245
 H223 H 0.12792 -0.15673 -0.20913
 H224 H 0.19809 -0.16943 -0.11616
 H225 H 0.23240 -0.20280 -0.14661
 H226 H 0.16183 -0.19072 -0.24026
 C227 C 0.16308 0.34431 0.30516
 C228 C 0.15941 0.33708 0.34081
 C229 C 0.17575 0.31100 0.35853
 C230 C 0.19618 0.29250 0.34090
 C231 C 0.20111 0.30016 0.30519
 C232 C 0.18347 0.32586 0.28745
 C233 C 0.13891 0.35639 0.35926
 C234 C 0.12201 0.37261 0.37495
 C235 C 0.10254 0.39167 0.39358
 C236 C 0.08615 0.40799 0.40970
 H237 H 0.15019 0.36421 0.29104
 H238 H 0.17259 0.30486 0.38603
 H239 H 0.20734 0.27204 0.35548
 H240 H 0.18560 0.33175 0.25975
 C241 C 0.66463 -0.15575 0.30538
 C242 C 0.66122 -0.16222 0.34117
 C243 C 0.67789 -0.18782 0.35947
 C244 C 0.69834 -0.20665 0.34225
 C245 C 0.70291 -0.19982 0.30634
 C246 C 0.68504 -0.17452 0.28808
 C247 C 0.64062 -0.14262 0.35917
 C248 C 0.62362 -0.12616 0.37447
 C249 C 0.60401 -0.10684 0.39264
 C250 C 0.58751 -0.09030 0.40838
 H251 H 0.65152 -0.13620 0.29083
 H252 H 0.67497 -0.19335 0.38711
 H253 H 0.70980 -0.22669 0.35732
 H254 H 0.68699 -0.16921 0.26027
 C255 C 0.68993 0.32620 -0.14201
 C256 C 0.65996 0.33897 -0.15880
 C257 C 0.64937 0.33232 -0.19355
 C258 C 0.66839 0.31262 -0.21128
 C259 C 0.69801 0.29860 -0.19437
 C260 C 0.70902 0.30648 -0.15967
 C261 C 0.64043 0.35930 -0.14052
 C262 C 0.62417 0.37629 -0.12506
 C263 C 0.60526 0.39615 -0.10678
 C264 C 0.58921 0.41307 -0.09101
 H265 H 0.69877 0.33176 -0.11532
 H266 H 0.62653 0.34254 -0.20702
 H267 H 0.66002 0.30849 -0.23841
 H268 H 0.73271 0.29822 -0.14612
 C269 C -0.19849 0.17231 -0.15132
 C270 C -0.16744 0.16912 -0.16634
 C271 C -0.15958 0.18824 -0.19674
 C272 C -0.18260 0.21064 -0.21192
 C273 C -0.21367 0.21424 -0.19677
 C274 C -0.22147 0.19468 -0.16641
 C275 C -0.14350 0.14667 -0.14993
 C276 C -0.12387 0.12793 -0.13527
 C277 C -0.10139 0.10611 -0.11702
 C278 C -0.08263 0.08761 -0.10054
 H279 H -0.20489 0.15758 -0.12784
 H280 H -0.13553 0.18607 -0.20851
 H281 H -0.17570 0.22561 -0.23500
 H282 H -0.24549 0.19642 -0.15447
 C283 C -0.19556 0.67323 0.35037
 C284 C -0.16578 0.66753 0.33446
 C285 C -0.15823 0.68488 0.30295
 C286 C -0.18023 0.70809 0.28759
 C287 C -0.20994 0.71440 0.30367
 C288 C -0.21751 0.69641 0.33510
 C289 C -0.14278 0.64433 0.35105
 C290 C -0.12388 0.62504 0.36591
 C291 C -0.10220 0.60266 0.38440
 C292 C -0.08407 0.58372 0.40108
 H293 H -0.20177 0.65983 0.37468
 H294 H -0.13521 0.68068 0.29041
 H295 H -0.17349 0.72143 0.26357
 H296 H -0.24060 0.69999 0.34782
 C297 C 0.30412 0.17430 0.34826
 C298 C 0.33378 0.16877 0.33204
 C299 C 0.34089 0.18612 0.30041
 C300 C 0.31860 0.20915 0.28525
 C301 C 0.28902 0.21531 0.30164
 C302 C 0.28188 0.19731 0.33319
 C303 C 0.35709 0.14576 0.34843
 C304 C 0.37625 0.12663 0.36315
 C305 C 0.39822 0.10444 0.38151
 C306 C 0.41657 0.08567 0.39815
 H307 H 0.29825 0.16089 0.37266
 H308 H 0.36382 0.18205 0.28763
 H309 H 0.32503 0.22248 0.26113
 H310 H 0.25890 0.20074 0.34614
 C311 C 0.33503 0.70262 -0.15328
 C312 C 0.33739 0.67316 -0.16852
 C313 C 0.31660 0.66595 -0.19935
 C314 C 0.29326 0.68798 -0.21469
 C315 C 0.29039 0.71743 -0.19926
 C316 C 0.31171 0.72463 -0.16852
 C317 C 0.36032 0.65000 -0.15170
 C318 C 0.37922 0.63079 -0.13669
 C319 C 0.40098 0.60855 -0.11808
 C320 C 0.41922 0.58977 -0.10131
 H321 H 0.35101 0.70847 -0.12943
 H322 H 0.31808 0.64312 -0.21125
 H323 H 0.27684 0.68150 -0.23804
 H324 H 0.31042 0.74731 -0.15631
 C325 C -0.15754 -0.19707 0.18475
 C326 C -0.16520 -0.16689 0.16802
 C327 C -0.19509 -0.15283 0.17526
 C328 C -0.21706 -0.16866 0.19935
 C329 C -0.20941 -0.19883 0.21672
 C330 C -0.17956 -0.21298 0.20887
 C331 C -0.14224 -0.14988 0.14390
 C332 C -0.12337 -0.13477 0.12390
 C333 C -0.10170 -0.11612 0.10076
 C334 C -0.08358 -0.09938 0.08125
 H335 H -0.13442 -0.20816 0.17938
 H336 H -0.20137 -0.12955 0.16235
 H337 H -0.24023 -0.15737 0.20408
 H338 H -0.17274 -0.23597 0.22177
 C339 C -0.19721 0.34508 0.68074
 C340 C -0.17246 0.32805 0.66732
 C341 C -0.17023 0.29501 0.67762
 C342 C -0.19248 0.27905 0.70150
 C343 C -0.21747 0.29595 0.71587
 C344 C -0.21945 0.32934 0.70461
 C345 C -0.14924 0.34486 0.64331
 C346 C -0.13008 0.35985 0.62350
 C347 C -0.10801 0.37843 0.60068
 C348 C -0.08950 0.39515 0.58152
 H349 H -0.19941 0.37067 0.67268
 H350 H -0.15102 0.28157 0.66744
 H351 H -0.18874 0.25381 0.70906
 H352 H -0.23872 0.34361 0.71316
 C353 C 0.29550 -0.15713 0.66783
 C354 C 0.32698 -0.16982 0.66317
 C355 C 0.33598 -0.19855 0.68227
 C356 C 0.31372 -0.21436 0.70621
 C357 C 0.28225 -0.20152 0.71139
 C358 C 0.27326 -0.17284 0.69175
 C359 C 0.35037 -0.15268 0.63953
 C360 C 0.36970 -0.13751 0.62001
 C361 C 0.39199 -0.11884 0.59747
 C362 C 0.41069 -0.10210 0.57851
 H363 H 0.28825 -0.13492 0.65315
 H364 H 0.36038 -0.20850 0.67900
 H365 H 0.32161 -0.23611 0.72130
 H366 H 0.24897 -0.16262 0.69477
 C367 C 0.30277 0.34856 0.17396
 C368 C 0.33275 0.33469 0.16664
 C369 C 0.34051 0.30446 0.18315
 C370 C 0.31851 0.28830 0.20713
 C371 C 0.28858 0.30225 0.21508
 C372 C 0.28081 0.33248 0.19793
 C373 C 0.35574 0.35195 0.14270
 C374 C 0.37472 0.36718 0.12289
 C375 C 0.39658 0.38591 0.09999
 C376 C 0.41495 0.40265 0.08071
 H377 H 0.29641 0.37189 0.16122
 H378 H 0.36370 0.29352 0.17772
 H379 H 0.32544 0.26528 0.21987
 H380 H 0.25758 0.34363 0.20274
 C381 C 0.15258 0.20189 0.17207
 C382 C 0.16763 0.17302 0.16774
 C383 C 0.19945 0.16676 0.18653
 C384 C 0.21608 0.18922 0.20972
 C385 C 0.20101 0.21818 0.21442
 C386 C 0.16913 0.22434 0.19525
 C387 C 0.14994 0.14957 0.14458
 C388 C 0.13457 0.13001 0.12542
 C389 C 0.11592 0.10721 0.10327
 C390 C 0.09941 0.08784 0.08462
 H391 H 0.12796 0.20699 0.15763
 H392 H 0.21124 0.14440 0.18352
 H393 H 0.24029 0.18351 0.22452
 H394 H 0.15710 0.24662 0.19797
 C395 C 0.15128 0.66825 0.70503
 C396 C 0.16431 0.66489 0.67285
 C397 C 0.19413 0.68451 0.66339
 C398 C 0.21073 0.70755 0.68594
 C399 C 0.19762 0.71130 0.71818
 C400 C 0.16780 0.69128 0.72756
 C401 C 0.14657 0.64173 0.64939
 C402 C 0.13109 0.62244 0.62997
 C403 C 0.11227 0.59999 0.60753
 C404 C 0.09561 0.58094 0.58861
 H405 H 0.12826 0.65314 0.71265
 H406 H 0.20435 0.68221 0.63848
 H407 H 0.23332 0.72292 0.67774
 H408 H 0.15738 0.69320 0.75244
 C409 C 0.65020 0.17039 0.70299
 C410 C 0.66405 0.16708 0.67122
 C411 C 0.69442 0.18636 0.66272
 C412 C 0.71080 0.20899 0.68586
 C413 C 0.69690 0.21264 0.71773
 C414 C 0.66649 0.19300 0.72611
 C415 C 0.64664 0.14418 0.64729
 C416 C 0.63138 0.12502 0.62760
 C417 C 0.61274 0.10264 0.60497
 C418 C 0.59619 0.08359 0.58598
 H419 H 0.62675 0.15553 0.70987
 H420 H 0.70528 0.18408 0.63813
 H421 H 0.73390 0.22408 0.67847
 H422 H 0.65546 0.19485 0.75068
 C423 C 0.65413 0.70200 0.17333
 C424 C 0.66887 0.67295 0.16908
 C425 C 0.70053 0.66638 0.18803
 C426 C 0.71730 0.68870 0.21130
 C427 C 0.70251 0.71784 0.21593
 C428 C 0.67081 0.72431 0.19659
 C429 C 0.65102 0.64965 0.14585
 C430 C 0.63548 0.63024 0.12661
 C431 C 0.61661 0.60766 0.10436
 C432 C 0.59991 0.58849 0.08561
 H433 H 0.62966 0.70735 0.15877
 H434 H 0.71208 0.64388 0.18508
 H435 H 0.74136 0.68277 0.22622
 H436 H 0.65903 0.74673 0.19924
   
