data_POSCAR
  _audit_creation_date              2014-09-24
  _audit_creation_method            'ToBaCCo'
  _symmetry_space_group_name_H-M    'P1'
  _symmetry_Int_Tables_number       1
  _symmetry_cell_setting            triclinic
  loop_
  _symmetry_equiv_pos_as_xyz
 x,y,z
_cell_length_a 35.1924
_cell_length_b 35.1957
_cell_length_c 35.3152
_cell_angle_alpha 90.444500
_cell_angle_beta 89.346400
_cell_angle_gamma 89.873700
loop_
  _atom_site_label
  _atom_site_type_symbol
  _atom_site_fract_x
  _atom_site_fract_y
  _atom_site_fract_z
N1 N 0.20834 0.20682 0.21875
 N2 N 0.69347 0.70099 0.71340
 N3 N 0.29918 0.78736 0.68802
 N4 N 0.78137 0.27673 0.19890
 N5 N 0.79880 0.71076 0.29759
 N6 N 0.31115 0.19465 -0.20192
 N7 N 0.69836 0.31314 -0.19821
 N8 N 0.20874 0.81035 0.30598
 N9 N 0.45168 0.45101 0.43618
 N10 N -0.04455 -0.05340 0.94271
 N11 N 1.05110 0.54902 0.96674
 N12 N 0.57359 0.06471 0.44677
 N13 N -0.04552 0.04524 0.55025
 N14 N 0.43848 0.54492 0.05858
 N15 N 0.53294 -0.04017 0.03534
 N16 N 1.03706 0.44505 0.54786
 C17 C 0.43571 0.03400 0.20502
 H18 H 0.43336 0.05995 0.22151
 C19 C 0.45911 0.03276 0.17288
 H20 H 0.47453 0.05804 0.16472
 C21 C 0.41879 -0.03055 0.19627
 H22 H 0.40343 -0.05530 0.20584
 C23 C 0.44196 -0.03308 0.16389
 H24 H 0.44353 -0.05982 0.14872
 N25 N 0.41589 0.00275 0.21588
 C26 C 0.32361 0.04835 0.28579
 H27 H 0.32777 0.03148 0.31089
 C28 C 0.29474 0.07550 0.28514
 H29 H 0.27671 0.07941 0.30991
 C30 C 0.34253 0.06383 0.22318
 H31 H 0.36117 0.05908 0.19909
 C32 C 0.31387 0.09128 0.22125
 H33 H 0.31135 0.10774 0.19569
 Zn34 Zn 0.38652 0.00739 0.26088
 N35 N 0.34729 0.04361 0.25544
 C36 C 0.41529 0.05902 0.31486
 N37 N 0.41975 0.02372 0.29950
 C38 C 0.44945 0.00113 0.30918
 C39 C 0.47581 0.01364 0.33584
 C40 C 0.44105 0.07272 0.34133
 C41 C 0.33586 -0.05193 0.24896
 C42 C 0.31247 -0.08236 0.25879
 C43 C 0.34415 -0.08549 0.31901
 C44 C 0.36698 -0.05500 0.30798
 N45 N 0.36218 -0.03867 0.27360
 H46 H 0.39232 0.07713 0.30597
 H47 H 0.45289 -0.02644 0.29581
 H48 H 0.49948 -0.00457 0.34278
 H49 H 0.43714 0.10099 0.35303
 H50 H 0.33205 -0.03782 0.22215
 H51 H 0.29111 -0.09147 0.23899
 H52 H 0.34770 -0.09746 0.34688
 H53 H 0.38730 -0.04341 0.32761
 C54 C 0.28981 0.09773 0.25276
 C55 C 0.46255 -0.00107 0.15178
 C56 C 0.31592 -0.09911 0.29461
 C57 C 0.47180 0.05001 0.35214
 C58 C 0.07518 -0.00975 0.69215
 H59 H 0.07298 -0.03796 0.70394
 C60 C 0.05065 0.00135 0.66352
 H61 H 0.02953 -0.01860 0.65384
 C62 C 0.10512 0.05046 0.69163
 H63 H 0.12606 0.06967 0.70296
 C64 C 0.08108 0.06280 0.66297
 H65 H 0.08403 0.09141 0.65233
 N66 N 0.10211 0.01451 0.70520
 C67 C 0.19044 -0.06003 0.74808
 H68 H 0.19332 -0.04894 0.77656
 C69 C 0.21278 -0.09071 0.73594
 H70 H 0.23293 -0.10266 0.75541
 C71 C 0.16085 -0.05703 0.68827
 H72 H 0.14093 -0.04360 0.66958
 C73 C 0.18264 -0.08762 0.67494
 H74 H 0.17896 -0.09757 0.64614
 Zn75 Zn 0.13420 -0.00387 0.74366
 N76 N 0.16460 -0.04432 0.72452
 C77 C 0.10421 -0.05772 0.79586
 N78 N 0.10245 -0.02118 0.78371
 C79 C 0.07706 0.00387 0.79908
 C80 C 0.05280 -0.00718 0.82856
 C81 C 0.08047 -0.06999 0.82524
 C82 C 0.19282 0.05006 0.73676
 C83 C 0.21760 0.07862 0.74873
 C84 C 0.18973 0.07467 0.81137
 C85 C 0.16549 0.04630 0.79821
 N86 N 0.16706 0.03492 0.76133
 H87 H 0.12380 -0.07756 0.78271
 H88 H 0.07578 0.03258 0.78844
 H89 H 0.03296 0.01340 0.84014
 H90 H 0.08241 -0.09915 0.83456
 H91 H 0.19401 0.03995 0.70776
 H92 H 0.23776 0.09012 0.72859
 H93 H 0.18783 0.08342 0.84079
 H94 H 0.14564 0.03329 0.81764
 C95 C 0.20876 -0.10519 0.69896
 C96 C 0.05357 0.03804 0.64830
 C97 C 0.21610 0.09146 0.78654
 C98 C 0.05440 -0.04461 0.84216
 C99 C 0.57427 0.48821 0.18859
 H100 H 0.57374 0.46022 0.20104
 C101 C 0.54696 0.49828 0.16186
 H102 H 0.52576 0.47765 0.15382
 C103 C 0.60132 0.54968 0.18573
 H104 H 0.62162 0.57020 0.19584
 C105 C 0.57474 0.56087 0.15912
 H106 H 0.57559 0.58968 0.14864
 N107 N 0.60071 0.51391 0.20000
 C108 C 0.69379 0.45629 0.25607
 H109 H 0.69618 0.47682 0.27887
 C110 C 0.71707 0.42440 0.25549
 H111 H 0.73770 0.42076 0.27768
 C112 C 0.66273 0.43560 0.20037
 H113 H 0.64098 0.43990 0.17946
 C114 C 0.68586 0.40312 0.19853
 H115 H 0.68163 0.38243 0.17616
 Zn116 Zn 0.63420 0.50245 0.24012
 N117 N 0.66656 0.46079 0.22950
 C118 C 0.60704 0.45420 0.29704
 N119 N 0.60431 0.49017 0.28350
 C120 C 0.57865 0.51525 0.29846
 C121 C 0.55439 0.50429 0.32820
 C122 C 0.58367 0.44221 0.32659
 C123 C 0.69178 0.55098 0.21951
 C124 C 0.71807 0.58034 0.22217
 C125 C 0.69389 0.59459 0.28502
 C126 C 0.66776 0.56490 0.28105
 N127 N 0.66702 0.54409 0.24846
 H128 H 0.62652 0.43406 0.28426
 H129 H 0.57645 0.54347 0.28675
 H130 H 0.53390 0.52453 0.33928
 H131 H 0.58621 0.41325 0.33636
 H132 H 0.69089 0.53358 0.19415
 H133 H 0.73731 0.58546 0.19864
 H134 H 0.69368 0.61122 0.31089
 H135 H 0.64822 0.55848 0.30394
 C136 C 0.71278 0.39692 0.22700
 C137 C 0.54677 0.53530 0.14707
 C138 C 0.71942 0.60265 0.25516
 C139 C 0.55654 0.46706 0.34237
 C140 C 0.94418 0.52278 0.71706
 H141 H 0.94659 0.54751 0.73524
 C142 C 0.97143 0.51602 0.68882
 H143 H 0.99483 0.53565 0.68535
 C144 C 0.91088 0.46694 0.69972
 H145 H 0.88756 0.44760 0.70439
 C146 C 0.93716 0.45951 0.67053
 H147 H 0.93394 0.43436 0.65305
 N148 N 0.91472 0.49834 0.72209
 C149 C 0.81926 0.56164 0.77073
 H150 H 0.81620 0.54840 0.79814
 C151 C 0.79349 0.58960 0.75969
 H152 H 0.77065 0.59755 0.77890
 C153 C 0.85214 0.56594 0.71200
 H154 H 0.87472 0.55630 0.69328
 C155 C 0.82698 0.59385 0.69979
 H156 H 0.83069 0.60565 0.67178
 Zn157 Zn 0.88038 0.51063 0.76211
 N158 N 0.84791 0.55049 0.74695
 C159 C 0.90549 0.56062 0.82060
 N160 N 0.90988 0.52578 0.80418
 C161 C 0.93681 0.50107 0.81627
 C162 C 0.96014 0.51066 0.84657
 C163 C 0.92837 0.57147 0.85088
 C164 C 0.82356 0.45577 0.74982
 C165 C 0.79867 0.42636 0.75937
 C166 C 0.82694 0.42431 0.82129
 C167 C 0.85121 0.45369 0.81058
 N168 N 0.84934 0.46865 0.77526
 H169 H 0.88452 0.58022 0.81007
 H170 H 0.94020 0.47384 0.80219
 H171 H 0.98155 0.49060 0.85533
 H172 H 0.92454 0.59931 0.86362
 H173 H 0.82194 0.46882 0.72224
 H174 H 0.77830 0.41696 0.73867
 H175 H 0.82886 0.41299 0.84962
 H176 H 0.87101 0.46491 0.83089
 C177 C 0.79709 0.60600 0.72365
 C178 C 0.96799 0.48421 0.66502
 C179 C 0.80009 0.41028 0.79567
 C180 C 0.95604 0.54631 0.86436
 C181 C 0.18830 0.41670 0.01817
 H182 H 0.20012 0.41674 0.04631
 C183 C 0.15911 0.44218 0.00935
 H184 H 0.14856 0.46132 0.03113
 C185 C 0.18943 0.39299 -0.04476
 H186 H 0.20193 0.37466 -0.06615
 C187 C 0.16035 0.41783 -0.05474
 H188 H 0.15054 0.41772 -0.08368
 N189 N 0.20296 0.39291 -0.00886
 C190 C 0.26558 0.30012 0.04296
 H191 H 0.28964 0.30072 0.02364
 C192 C 0.26501 0.27424 0.07251
 H193 H 0.28857 0.25469 0.07542
 C194 C 0.20658 0.32620 0.06332
 H195 H 0.18430 0.34703 0.05993
 C196 C 0.20485 0.30062 0.09350
 H197 H 0.18110 0.30219 0.11314
 Zn198 Zn 0.24652 0.36313 0.00216
 N199 N 0.23718 0.32602 0.03943
 C200 C 0.30008 0.39039 0.05500
 N201 N 0.28462 0.39625 0.02038
 C202 C 0.29563 0.42600 -0.00143
 C203 C 0.32420 0.45051 0.01081
 C204 C 0.32864 0.41421 0.06836
 C205 C 0.24202 0.30904 -0.05644
 C206 C 0.25501 0.28668 -0.08680
 C207 C 0.31387 0.32181 -0.08634
 C208 C 0.29974 0.34350 -0.05604
 N209 N 0.26435 0.33685 -0.04175
 H210 H 0.29037 0.36724 0.07245
 H211 H 0.28237 0.43043 -0.02854
 H212 H 0.33237 0.47391 -0.00713
 H213 H 0.34080 0.40885 0.09583
 H214 H 0.21429 0.30380 -0.04403
 H215 H 0.23685 0.26441 -0.09745
 H216 H 0.34227 0.32731 -0.09700
 H217 H 0.31756 0.36495 -0.04345
 C218 C 0.23489 0.27478 0.09881
 C219 C 0.14507 0.44331 -0.02777
 C220 C 0.29159 0.29275 -0.10200
 C221 C 0.34137 0.44452 0.04607
 C222 C 0.70174 0.05569 -0.04008
 H223 H 0.71890 0.05680 -0.06566
 C224 C 0.67192 0.02976 -0.03730
 H225 H 0.66637 0.01085 -0.06090
 C226 C 0.68789 0.07955 0.02146
 H227 H 0.69424 0.09894 0.04436
 C228 C 0.65783 0.05400 0.02550
 H229 H 0.64123 0.05460 0.05142
 N230 N 0.70847 0.08061 -0.01135
 C231 C 0.75643 0.17930 -0.06799
 H232 H 0.78326 0.18217 -0.05359
 C233 C 0.74556 0.20641 -0.09450
 H234 H 0.76435 0.22997 -0.10029
 C235 C 0.69851 0.14617 -0.07595
 H236 H 0.67965 0.12343 -0.06785
 C237 C 0.68647 0.17266 -0.10242
 H238 H 0.65871 0.16950 -0.11494
 Zn239 Zn 0.74683 0.11746 -0.01912
 N240 N 0.73295 0.14991 -0.05927
 C241 C 0.80945 0.09519 -0.06514
 N242 N 0.79270 0.09124 -0.03052
 C243 C 0.80607 0.06578 -0.00511
 C244 C 0.83732 0.04271 -0.01430
 C245 C 0.84065 0.07273 -0.07550
 C246 C 0.71963 0.17107 0.03134
 C247 C 0.71904 0.19623 0.06194
 C248 C 0.78288 0.17645 0.07697
 C249 C 0.78220 0.15148 0.04591
 N250 N 0.75067 0.14906 0.02412
 H251 H 0.79789 0.11482 -0.08536
 H252 H 0.79172 0.06262 0.02194
 H253 H 0.84676 0.02206 0.00606
 H254 H 0.85310 0.07588 -0.10347
 H255 H 0.69516 0.16894 0.01319
 H256 H 0.69388 0.21330 0.06718
 H257 H 0.80806 0.17762 0.09416
 H258 H 0.80683 0.13418 0.03923
 C259 C 0.70991 0.20347 -0.11179
 C260 C 0.64907 0.02909 -0.00445
 C261 C 0.75086 0.19922 0.08533
 C262 C 0.85474 0.04568 -0.05019
 C263 C 0.19418 0.55477 0.46772
 H264 H 0.21071 0.55630 0.44176
 C265 C 0.16675 0.52654 0.47200
 H266 H 0.16211 0.50645 0.44916
 C267 C 0.18091 0.57857 0.52944
 H268 H 0.18712 0.59840 0.55203
 C269 C 0.15263 0.55112 0.53466
 H270 H 0.13731 0.55001 0.56137
 N271 N 0.20093 0.57990 0.49628
 C272 C 0.25249 0.67938 0.44403
 H273 H 0.27984 0.67963 0.45771
 C274 C 0.24343 0.70761 0.41807
 H275 H 0.26397 0.72965 0.41216
 C276 C 0.19221 0.65066 0.43618
 H277 H 0.17225 0.62856 0.44355
 C278 C 0.18186 0.67851 0.41029
 H279 H 0.15400 0.67743 0.39767
 Zn280 Zn 0.24141 0.61431 0.48770
 N281 N 0.22716 0.65140 0.45217
 C282 C 0.29987 0.59319 0.43482
 N283 N 0.28289 0.58534 0.46866
 C284 C 0.29455 0.55565 0.49003
 C285 C 0.32539 0.53338 0.47837
 C286 C 0.33078 0.57150 0.42197
 C287 C 0.23140 0.66509 0.54952
 C288 C 0.24299 0.68740 0.58026
 C289 C 0.30485 0.65780 0.57581
 C290 C 0.29217 0.63626 0.54522
 N291 N 0.25601 0.64021 0.53259
 H292 H 0.28959 0.61623 0.41771
 H293 H 0.28000 0.54958 0.51644
 H294 H 0.33402 0.50996 0.49594
 H295 H 0.34426 0.57833 0.39518
 H296 H 0.20303 0.66831 0.53848
 H297 H 0.22299 0.70725 0.59287
 H298 H 0.33395 0.65455 0.58487
 H299 H 0.31180 0.61729 0.53092
 C300 C 0.20772 0.70729 0.40070
 C301 C 0.14560 0.52444 0.50577
 C302 C 0.28043 0.68423 0.59349
 C303 C 0.34422 0.54146 0.44407
 C304 C 0.70327 0.93512 0.51704
 H305 H 0.71407 0.93773 0.54551
 C306 C 0.67771 0.96214 0.50341
 H307 H 0.66909 0.98541 0.52174
 C308 C 0.70269 0.90218 0.45831
 H309 H 0.71303 0.87935 0.44039
 C310 C 0.67730 0.92847 0.44357
 H311 H 0.66802 0.92508 0.41463
 N312 N 0.71493 0.90568 0.49456
 C313 C 0.75512 0.81601 0.56875
 H314 H 0.78253 0.81077 0.55551
 C315 C 0.74295 0.79348 0.59879
 H316 H 0.76132 0.77089 0.60821
 C317 C 0.69749 0.85095 0.57076
 H318 H 0.67959 0.87287 0.55922
 C319 C 0.68408 0.82892 0.60084
 H320 H 0.65601 0.83441 0.61251
 Zn321 Zn 0.75118 0.87051 0.51268
 N322 N 0.73254 0.84420 0.55550
 C323 C 0.80839 0.89788 0.56133
 N324 N 0.79561 0.89798 0.52514
 C325 C 0.81228 0.92007 0.49828
 C326 C 0.84303 0.94338 0.50745
 C327 C 0.83900 0.92064 0.57170
 C328 C 0.73059 0.80974 0.46811
 C329 C 0.73235 0.78324 0.43870
 C330 C 0.79619 0.80427 0.42436
 C331 C 0.79319 0.83052 0.45426
 N332 N 0.76034 0.83332 0.47476
 H333 H 0.79425 0.88099 0.58260
 H334 H 0.80106 0.92025 0.46988
 H335 H 0.85529 0.96106 0.48565
 H336 H 0.84830 0.92048 0.60081
 H337 H 0.70490 0.81247 0.48504
 H338 H 0.70789 0.76549 0.43332
 H339 H 0.82207 0.80340 0.40760
 H340 H 0.81667 0.84924 0.46034
 C341 C 0.70689 0.79968 0.61520
 C342 C 0.66439 0.95896 0.46610
 C343 C 0.76512 0.78068 0.41583
 C344 C 0.85654 0.94417 0.54480
 C345 C 0.00193 0.19251 0.42876
 H346 H 0.02749 0.20904 0.43266
 C347 C -0.00632 0.16234 0.45312
 H348 H 0.01321 0.15587 0.47559
 C349 C -0.05563 0.18250 0.39606
 H350 H -0.07552 0.19102 0.37470
 C351 C -0.06498 0.15237 0.41969
 H352 H -0.09163 0.13769 0.41560
 N353 N -0.02269 0.20199 0.40092
 C354 C 0.03732 0.27244 0.31862
 H355 H 0.01688 0.29539 0.31741
 C356 C 0.06905 0.27258 0.29472
 H357 H 0.07299 0.29592 0.27529
 C358 C 0.05616 0.21366 0.34488
 H359 H 0.05063 0.19053 0.36410
 C360 C 0.08831 0.21253 0.32120
 H361 H 0.10765 0.18873 0.32307
 Zn362 Zn -0.01422 0.24610 0.37146
 N363 N 0.03161 0.24348 0.34326
 C364 C 0.01730 0.31162 0.40627
 N365 N -0.01355 0.28840 0.40519
 C366 C -0.04250 0.29237 0.43079
 C367 C -0.04062 0.31995 0.45946
 C368 C 0.02004 0.33990 0.43403
 C369 C -0.05262 0.22180 0.30837
 C370 C -0.08020 0.22078 0.28043
 C371 C -0.10719 0.27848 0.30691
 C372 C -0.07912 0.27822 0.33467
 N373 N -0.05292 0.24981 0.33510
 H374 H 0.04059 0.30746 0.38654
 H375 H -0.06641 0.27313 0.42976
 H376 H -0.06336 0.32209 0.48028
 H377 H 0.04542 0.35714 0.43500
 H378 H -0.03114 0.19979 0.30923
 H379 H -0.07984 0.19790 0.25976
 H380 H -0.12838 0.30078 0.30751
 H381 H -0.07851 0.30040 0.35602
 C382 C 0.09495 0.24230 0.29559
 C383 C -0.04047 0.14210 0.44893
 C384 C -0.10807 0.24921 0.27951
 C385 C -0.00886 0.34392 0.46151
 C386 C -0.00342 0.69870 0.08377
 H387 H -0.03189 0.71028 0.08263
 C388 C 0.00601 0.66616 0.06263
 H389 H -0.01567 0.65296 0.04560
 C390 C 0.05932 0.70270 0.10692
 H391 H 0.08036 0.71739 0.12349
 C392 C 0.06994 0.67032 0.08632
 H393 H 0.09902 0.66037 0.08769
 N394 N 0.02309 0.71616 0.10551
 C395 C -0.03714 0.78326 0.19166
 H396 H -0.02118 0.80930 0.18851
 C397 C -0.06610 0.78112 0.21877
 H398 H -0.07221 0.80575 0.23637
 C399 C -0.04837 0.71977 0.17213
 H400 H -0.04119 0.69591 0.15398
 C401 C -0.07774 0.71637 0.19899
 H402 H -0.09295 0.68981 0.20081
 Zn403 Zn 0.00990 0.76145 0.13235
 N404 N -0.02926 0.75313 0.16857
 C405 C -0.04293 0.81168 0.09965
 N406 N -0.00667 0.79835 0.09706
 C407 C 0.01728 0.81023 0.06908
 C408 C 0.00533 0.83736 0.04295
 C409 C -0.05604 0.83865 0.07417
 C410 C 0.06380 0.75602 0.18847
 C411 C 0.09361 0.76688 0.21179
 C412 C 0.09867 0.82545 0.17690
 C413 C 0.06871 0.81337 0.15409
 N414 N 0.05215 0.77902 0.16012
 H415 H -0.06203 0.80123 0.12129
 H416 H 0.04576 0.79866 0.06713
 H417 H 0.02493 0.84628 0.02100
 H418 H -0.08497 0.84890 0.07694
 H419 H 0.04959 0.72920 0.19310
 H420 H 0.10181 0.74810 0.23434
 H421 H 0.11149 0.85291 0.17186
 H422 H 0.05843 0.83168 0.13204
 C423 C -0.08721 0.74756 0.22251
 C424 C 0.04329 0.65162 0.06357
 C425 C 0.11152 0.80208 0.20621
 C426 C -0.03184 0.85209 0.04543
 C427 C 0.50502 0.20821 0.56291
 H428 H 0.47614 0.21827 0.55999
 C429 C 0.51877 0.17923 0.53926
 H430 H 0.50006 0.16750 0.51817
 C431 C 0.56430 0.21232 0.59376
 H432 H 0.58216 0.22562 0.61465
 C433 C 0.57923 0.18342 0.57070
 H434 H 0.60842 0.17457 0.57440
 N435 N 0.52759 0.22370 0.58987
 C436 C 0.44882 0.26607 0.67669
 H437 H 0.45748 0.29549 0.67867
 C438 C 0.42005 0.25240 0.70051
 H439 H 0.40689 0.27175 0.72063
 C440 C 0.45665 0.20524 0.64853
 H441 H 0.47144 0.18668 0.62882
 C442 C 0.42809 0.19038 0.67177
 H443 H 0.42100 0.16056 0.66928
 Zn444 Zn 0.50632 0.26248 0.62095
 N445 N 0.46626 0.24257 0.65114
 C446 C 0.45100 0.31126 0.58892
 N447 N 0.48827 0.30098 0.58858
 C448 C 0.51334 0.31642 0.56353
 C449 C 0.50138 0.34379 0.53781
 C450 C 0.43779 0.33846 0.56365
 C451 C 0.55692 0.25739 0.68053
 C452 C 0.58502 0.26895 0.70560
 C453 C 0.58426 0.33100 0.67683
 C454 C 0.55614 0.31819 0.65221
 N455 N 0.54354 0.28173 0.65412
 H456 H 0.43127 0.29802 0.60836
 H457 H 0.54268 0.30714 0.56335
 H458 H 0.52187 0.35524 0.51797
 H459 H 0.40800 0.34617 0.56428
 H460 H 0.54589 0.22875 0.68182
 H461 H 0.59500 0.24892 0.72628
 H462 H 0.59425 0.35998 0.67472
 H463 H 0.54455 0.33739 0.63161
 C464 C 0.40935 0.21396 0.69828
 C465 C 0.55634 0.16623 0.54317
 C466 C 0.59937 0.30615 0.70373
 C467 C 0.46305 0.35513 0.53761
 C468 C 0.48935 0.69024 0.93884
 H469 H 0.51636 0.70446 0.94212
 C470 C 0.47892 0.66140 0.96363
 H471 H 0.49813 0.65379 0.98603
 C472 C 0.43101 0.68457 0.90641
 H473 H 0.41217 0.69424 0.88456
 C474 C 0.41931 0.65567 0.93079
 H475 H 0.39162 0.64292 0.92716
 N476 N 0.46565 0.70099 0.91074
 C477 C 0.54346 0.75476 0.83066
 H478 H 0.53127 0.78293 0.82891
 C479 C 0.57517 0.74510 0.80837
 H480 H 0.58712 0.76630 0.78978
 C481 C 0.54132 0.69275 0.85615
 H482 H 0.52753 0.67204 0.87398
 C483 C 0.57291 0.68190 0.83444
 H484 H 0.58333 0.65303 0.83633
 Zn485 Zn 0.48234 0.74207 0.88091
 N486 N 0.52730 0.72870 0.85402
 C487 C 0.52352 0.80210 0.91759
 N488 N 0.49019 0.78283 0.91499
 C489 C 0.45986 0.79181 0.93750
 C490 C 0.46175 0.82213 0.96295
 C491 C 0.52668 0.83278 0.94278
 C492 C 0.43388 0.73080 0.81848
 C493 C 0.40786 0.74150 0.79083
 C494 C 0.40701 0.80479 0.81777
 C495 C 0.43274 0.79287 0.84492
 N496 N 0.44545 0.75636 0.84503
 H497 H 0.54750 0.79403 0.89991
 H498 H 0.43387 0.77566 0.93511
 H499 H 0.43700 0.82915 0.98011
 H500 H 0.55317 0.84819 0.94374
 H501 H 0.44512 0.70217 0.81864
 H502 H 0.39930 0.72085 0.76978
 H503 H 0.39737 0.83402 0.81815
 H504 H 0.44307 0.81315 0.86542
 C505 C 0.59018 0.70806 0.80990
 C506 C 0.44344 0.64370 0.95980
 C507 C 0.39416 0.77904 0.79028
 C508 C 0.49529 0.84341 0.96561
 N509 N 0.13947 0.27262 0.25186
 N510 N 0.16969 0.26427 0.23069
 C511 C 0.17697 0.22711 0.23602
 C512 C 0.15042 0.21289 0.26122
 N513 N 0.12750 0.24229 0.27052
 H514 H 0.14770 0.18400 0.27108
 N515 N 0.63455 0.66081 0.78410
 N516 N 0.66225 0.65768 0.75855
 C517 C 0.66706 0.69248 0.74366
 C518 C 0.64153 0.71712 0.76089
 N519 N 0.62158 0.69619 0.78598
 H520 H 0.63793 0.74709 0.75554
 N521 N 0.36158 0.82805 0.75452
 N522 N 0.33636 0.83151 0.72725
 C523 C 0.32668 0.79597 0.71676
 C524 C 0.34678 0.77049 0.73839
 N525 N 0.36832 0.79175 0.76167
 H526 H 0.34500 0.73982 0.73796
 N527 N -0.14759 0.21554 0.23383
 N528 N -0.17713 0.22174 0.21175
 C529 C -0.18608 0.25881 0.21574
 C530 C -0.16111 0.27519 0.24093
 N531 N -0.13768 0.24716 0.25179
 H532 H -0.16011 0.30445 0.25043
 N533 N -0.13029 0.77598 0.26946
 N534 N -0.16070 0.76735 0.29003
 C535 C -0.16849 0.73059 0.28271
 C536 C -0.14188 0.71689 0.25691
 N537 N -0.11850 0.74622 0.24924
 H538 H -0.14012 0.68863 0.24482
 N539 N 0.37186 0.16175 0.72440
 N540 N 0.34558 0.15536 0.75073
 C541 C 0.33732 0.18929 0.76675
 C542 C 0.35927 0.21672 0.74942
 N543 N 0.38064 0.19835 0.72313
 H544 H 0.35949 0.24687 0.75544
 N545 N 0.63862 0.35493 0.73382
 N546 N 0.66536 0.35801 0.75981
 C547 C 0.67254 0.32250 0.77186
 C548 C 0.64952 0.29759 0.75253
 N549 N 0.62853 0.31892 0.72913
 H550 H 0.64849 0.26703 0.75522
 N551 N 0.15458 0.84996 0.23225
 N552 N 0.18082 0.85339 0.25871
 C553 C 0.18462 0.81882 0.27439
 C554 C 0.16000 0.79413 0.25683
 N555 N 0.14156 0.81466 0.23072
 H556 H 0.15613 0.76427 0.26262
 N557 N 0.24502 0.14109 0.28414
 N558 N 0.22290 0.17040 0.27624
 C559 C 0.22567 0.17566 0.23855
 C560 C 0.25009 0.14858 0.22355
 N561 N 0.26180 0.12766 0.25300
 H562 H 0.25858 0.14471 0.19426
 N563 N 0.76771 0.64452 0.67474
 N564 N 0.74025 0.66991 0.67075
 C565 C 0.72485 0.67561 0.70544
 C566 C 0.74365 0.65290 0.73088
 N567 N 0.77027 0.63383 0.71053
 H568 H 0.73877 0.65102 0.76109
 N569 N 0.77265 0.36674 0.84200
 N570 N 0.74574 0.34064 0.84489
 C571 C 0.72955 0.33802 0.81059
 C572 C 0.74733 0.36327 0.78653
 N573 N 0.77415 0.38078 0.80728
 H574 H 0.74140 0.36803 0.75698
 N575 N 0.28775 -0.14028 0.34271
 N576 N 0.25920 -0.16439 0.34702
 C577 C 0.24230 -0.16735 0.31308
 C578 C 0.26146 -0.14445 0.28775
 N579 N 0.28966 -0.12785 0.30739
 H580 H 0.25528 -0.14029 0.25817
 N581 N 0.23210 -0.14910 0.64980
 N582 N 0.25579 -0.17823 0.64567
 C583 C 0.27009 -0.18500 0.68019
 C584 C 0.25463 -0.15916 0.70556
 N585 N 0.23107 -0.13706 0.68549
 H586 H 0.26022 -0.15687 0.73552
 N587 N 0.74868 0.34916 0.26085
 N588 N 0.76710 0.31689 0.25465
 C589 C 0.76434 0.30932 0.21734
 C590 C 0.74334 0.33782 0.20074
 N591 N 0.73422 0.36223 0.22899
 H592 H 0.73635 0.34100 0.17117
 N593 N 0.76388 0.64808 0.22756
 N594 N 0.78565 0.67697 0.23772
 C595 C 0.78162 0.68082 0.27554
 C596 C 0.75659 0.65342 0.28831
 N597 N 0.74602 0.63362 0.25738
 H598 H 0.74726 0.64833 0.31709
 N599 N 0.24377 0.13086 0.83632
 N600 N 0.26885 0.15852 0.84066
 C601 C 0.28259 0.16637 0.80584
 C602 C 0.26525 0.14268 0.77997
 N603 N 0.24114 0.12080 0.80018
 H604 H 0.26942 0.14203 0.74959
 N605 N 0.26829 0.23389 0.14276
 N606 N 0.26253 0.21556 0.17487
 C607 C 0.22578 0.22104 0.18453
 C608 C 0.20911 0.24347 0.15733
 N609 N 0.23672 0.25091 0.13169
 H610 H 0.17997 0.25319 0.15632
 N611 N 0.65648 0.77339 0.65539
 N612 N 0.65166 0.74715 0.68173
 C613 C 0.68628 0.73228 0.68830
 C614 C 0.71245 0.75018 0.66528
 N615 N 0.69272 0.77558 0.64496
 H616 H 0.74272 0.74509 0.66361
 N617 N 0.73446 0.73900 0.37006
 N618 N 0.74219 0.72006 0.33837
 C619 C 0.77952 0.72493 0.33113
 C620 C 0.79452 0.74751 0.35945
 N621 N 0.76534 0.75582 0.38320
 H622 H 0.82354 0.75703 0.36224
 N623 N 0.34294 0.26981 -0.14343
 N624 N 0.34941 0.24392 -0.17017
 C625 C 0.31616 0.22599 -0.17590
 C626 C 0.28906 0.24165 -0.15187
 N627 N 0.30695 0.26896 -0.13193
 H628 H 0.25944 0.23391 -0.14942
 N629 N 0.66034 0.23600 -0.14687
 N630 N 0.65598 0.26523 -0.16980
 C631 C 0.69071 0.28053 -0.17488
 C632 C 0.71659 0.25982 -0.15436
 N633 N 0.69642 0.23221 -0.13719
 H634 H 0.74695 0.26402 -0.15275
 N635 N 0.16185 0.74322 0.36384
 N636 N 0.16092 0.77077 0.33853
 C637 C 0.19723 0.78138 0.33236
 C638 C 0.22053 0.75956 0.35465
 N639 N 0.19729 0.73607 0.37398
 H640 H 0.25122 0.75994 0.35572
 N641 N 0.32951 0.70592 0.63686
 N642 N 0.33575 0.73310 0.66214
 C643 C 0.30351 0.75371 0.66479
 C644 C 0.27719 0.73823 0.64039
 N645 N 0.29460 0.70839 0.62334
 H646 H 0.24863 0.74809 0.63523
 N647 N 0.71874 0.24325 0.12881
 N648 N 0.72570 0.26444 0.15906
 C649 C 0.76269 0.25942 0.16704
 C650 C 0.77830 0.23448 0.14073
 N651 N 0.74980 0.22492 0.11732
 H652 H 0.80740 0.22473 0.13868
 N653 N 0.41277 0.38923 0.50483
 N654 N 0.40848 0.41478 0.47785
 C655 C 0.44371 0.42452 0.46621
 C656 C 0.46977 0.40420 0.48684
 N657 N 0.44928 0.38233 0.51067
 H658 H 0.50041 0.40561 0.48486
 N659 N -0.08164 0.89082 0.01722
 N660 N -0.08627 0.91626 -0.00979
 C661 C -0.05178 0.92178 -0.02570
 C662 C -0.02580 0.89886 -0.00769
 N663 N -0.04562 0.87984 0.01899
 H664 H 0.00440 0.89667 -0.01328
 N665 N 0.08955 0.60445 0.04085
 N666 N 0.09282 0.57672 0.01541
 C667 C 0.05875 0.57361 -0.00133
 C668 C 0.03444 0.60027 0.01472
 N669 N 0.05481 0.61915 0.04090
 H670 H 0.00525 0.60581 0.00736
 N671 N 0.60768 0.12545 0.51886
 N672 N 0.61350 0.09804 0.49347
 C673 C 0.57966 0.09134 0.47728
 C674 C 0.55295 0.11530 0.49346
 N675 N 0.57157 0.13636 0.51925
 H676 H 0.52304 0.11689 0.48707
 N677 N -0.08676 0.09923 0.47743
 N678 N -0.08939 0.07332 0.50428
 C679 C -0.05456 0.07017 0.51939
 C680 C -0.03039 0.09505 0.50100
 N681 N -0.05169 0.11273 0.47494
 H682 H -0.00043 0.09943 0.50581
 N683 N 0.39555 0.60402 0.99069
 N684 N 0.39299 0.57763 1.01714
 C685 C 0.42863 0.57139 1.02931
 C686 C 0.45312 0.59467 1.00959
 N687 N 0.43134 0.61473 0.98578
 H688 H 0.48368 0.59627 1.01197
 N689 N 0.46611 0.89037 1.00812
 N690 N 0.47495 0.92159 1.02718
 C691 C 0.51239 0.92732 1.02137
 C692 C 0.52629 0.89862 0.99817
 N693 N 0.49640 0.87613 0.99036
 H694 H 0.55514 0.89475 0.98801
 N695 N -0.02022 0.36506 0.52678
 N696 N -0.00825 0.39142 0.55085
 C697 C 0.01573 0.41407 0.53136
 C698 C 0.01793 0.40079 0.49444
 N699 N -0.00472 0.37003 0.49281
 H700 H 0.03432 0.41215 0.47109
 N701 N 0.38988 0.51873 0.39620
 N702 N 0.41897 0.49487 0.39293
 C703 C 0.42409 0.47988 0.42752
 C704 C 0.39733 0.49515 0.45204
 N705 N 0.37634 0.51917 0.43139
 H706 H 0.39386 0.48952 0.48194
 N707 N 0.89733 0.01733 -0.09760
 N708 N 0.92413 -0.00900 -0.10077
 C709 C 0.92916 -0.02317 -0.06584
 C710 C 0.90454 -0.00467 -0.04106
 N711 N 0.88505 0.02044 -0.06208
 H712 H 0.90144 -0.00893 -0.01090
 N713 N 0.60284 -0.01421 -0.03227
 N714 N 0.57161 -0.03299 -0.02287
 C715 C 0.56521 -0.02604 0.01424
 C716 C 0.59347 -0.00240 0.02736
 N717 N 0.61646 0.00443 -0.00263
 H718 H 0.59686 0.00851 0.05582
 N719 N 0.12087 0.46080 0.49381
 N720 N 0.09237 0.43864 0.50444
 C721 C 0.07087 0.45907 0.52904
 C722 C 0.08727 0.49450 0.53340
 N723 N 0.11845 0.49437 0.51093
 H724 H 0.07724 0.51820 0.55049
 N725 N 0.10604 0.47506 -0.07461
 N726 N 0.08111 0.50308 -0.07735
 C727 C 0.07584 0.51728 -0.04214
 C728 C 0.09845 0.49701 -0.01758
 N729 N 0.11694 0.47080 -0.03908
 H730 H 0.10094 0.50093 0.01267
 N731 N 0.62940 0.98742 0.41418
 N732 N 0.60512 1.01537 0.40775
 C733 C 0.59876 1.03278 0.44133
 C734 C 0.61983 1.01473 0.46861
 N735 N 0.63867 0.98646 0.45045
 H736 H 0.62059 1.02108 0.49859
 N737 N 0.89774 0.97367 0.59175
 N738 N 0.92392 1.00049 0.59446
 C739 C 0.92953 1.01400 0.55926
 C740 C 0.90601 0.99458 0.53480
 N741 N 0.88646 0.96963 0.55625
 H742 H 0.90334 0.99854 0.50463
 N743 N 0.38368 0.46926 0.09492
 N744 N 0.41009 0.49567 0.09942
 C745 C 0.41429 0.51274 0.06562
 C746 C 0.38980 0.49606 0.04029
 N747 N 0.37096 0.46914 0.05970
 H748 H 0.38630 0.50287 0.01074
 N749 N 0.53155 0.41806 0.38413
 N750 N 0.50391 0.41249 0.40917
 C751 C 0.48490 0.44561 0.41246
 C752 C 0.50180 0.47181 0.38864
 N753 N 0.53090 0.45337 0.37134
 H754 H 0.49359 0.50105 0.38432
 N755 N 0.02710 -0.09309 0.88354
 N756 N 0.00102 -0.09665 0.91064
 C757 C -0.01361 -0.06170 0.91679
 C758 C 0.00427 -0.03659 0.89268
 N759 N 0.02948 -0.05733 0.87219
 H760 H -0.00072 -0.00639 0.89047
 N761 N 0.02545 0.08626 0.60755
 N762 N -0.00072 0.08938 0.58103
 C763 C -0.01459 0.05419 0.57521
 C764 C 0.00380 0.02941 0.59889
 N765 N 0.02853 0.05055 0.61883
 H766 H -0.00051 -0.00088 0.60116
 N767 N 0.51368 0.58400 0.11139
 N768 N 0.48492 0.58787 0.08791
 C769 C 0.47028 0.55293 0.08272
 C770 C 0.49096 0.52736 0.10379
 N771 N 0.51793 0.54800 0.12134
 H772 H 0.48713 0.49695 0.10553
 N773 N 0.50369 0.02790 0.10385
 N774 N 0.52306 0.01863 0.07273
 C775 C 0.51812 -0.01896 0.06739
 C776 C 0.49508 -0.03250 0.09615
 N777 N 0.48655 -0.00228 0.11837
 H778 H 0.48570 -0.06140 0.10031
 N779 N 1.03221 0.48784 0.63880
 N780 N 1.05164 0.47771 0.60801
 C781 C 1.02708 0.45976 0.58498
 C782 C 0.99184 0.45899 0.60274
 N783 N 0.99636 0.47682 0.63629
 H784 H 0.96537 0.44795 0.59199
 N785 N 0.98499 0.59323 0.90642
 N786 N 1.01023 0.59517 0.93393
 C787 C 1.02190 0.55930 0.94028
 C788 C 1.00314 0.53529 0.91576
 N789 N 0.98041 0.55760 0.89495
 H790 H 1.00572 0.50473 0.91353
 N791 N 0.50255 0.10119 0.38719
 N792 N 0.52967 0.10639 0.41237
 C793 C 0.54387 0.07172 0.41997
 C794 C 0.52472 0.04505 0.39867
 N795 N 0.49909 0.06466 0.37852
 H796 H 0.52833 0.01452 0.39873
   
