data_POSCAR
  _audit_creation_date              2014-09-24
  _audit_creation_method            'ToBaCCo'
  _symmetry_space_group_name_H-M    'P1'
  _symmetry_Int_Tables_number       1
  _symmetry_cell_setting            triclinic
  loop_
  _symmetry_equiv_pos_as_xyz
 x,y,z
_cell_length_a 42.1806
_cell_length_b 42.7055
_cell_length_c 43.4773
_cell_angle_alpha 90.457900
_cell_angle_beta 90.563700
_cell_angle_gamma 88.854900
loop_
  _atom_site_label
  _atom_site_type_symbol
  _atom_site_fract_x
  _atom_site_fract_y
  _atom_site_fract_z
N1 N 0.28498 0.21082 0.20238
 N2 N 0.27419 0.23838 0.19332
 C3 C 0.29257 0.24864 0.17046
 C4 C 0.31630 0.22653 0.16531
 C5 C 0.31056 0.20265 0.18566
 H6 H 0.28965 0.27093 0.15904
 H7 H 0.32441 0.18126 0.18850
 Cu8 Cu 0.23849 0.25891 0.21368
 Cu9 Cu 0.26635 0.18849 0.23642
 Cu10 Cu 0.20213 0.22455 0.27250
 N11 N 0.20275 0.27904 0.23433
 N12 N 0.18822 0.26520 0.25697
 C13 C 0.16493 0.28430 0.26756
 C14 C 0.16532 0.31173 0.25101
 C15 C 0.18934 0.30754 0.22991
 H16 H 0.14947 0.27908 0.28646
 H17 H 0.19660 0.32423 0.21292
 N18 N 0.21976 0.18346 0.28492
 N19 N 0.24420 0.16970 0.27126
 C20 C 0.25193 0.14319 0.28643
 C21 C 0.23121 0.14004 0.31059
 C22 C 0.21137 0.16610 0.30911
 H23 H 0.27212 0.12809 0.28137
 H24 H 0.19300 0.17245 0.32530
 H25 H 0.22153 0.20810 0.23184
 H26 H 0.24906 0.22764 0.25948
 N27 N 0.70569 -0.22827 0.20385
 N28 N 0.71534 -0.25706 0.19773
 C29 C 0.69718 -0.26898 0.17505
 C30 C 0.67456 -0.24654 0.16661
 C31 C 0.68132 -0.22072 0.18498
 H32 H 0.70107 -0.29181 0.16467
 H33 H 0.66846 -0.19856 0.18555
 Cu34 Cu 0.75106 -0.27631 0.21932
 Cu35 Cu 0.72347 -0.20407 0.23777
 Cu36 Cu 0.79343 -0.23290 0.26945
 N37 N 0.79374 -0.28843 0.23203
 N38 N 0.81060 -0.27126 0.25100
 C39 C 0.83903 -0.28544 0.25568
 C40 C 0.84029 -0.31295 0.23837
 C41 C 0.81073 -0.31413 0.22408
 H42 H 0.85659 -0.27726 0.27198
 H43 H 0.80235 -0.33208 0.20851
 N44 N 0.77184 -0.19459 0.28471
 N45 N 0.74511 -0.18354 0.27257
 C46 C 0.73484 -0.15884 0.28945
 C47 C 0.75599 -0.15441 0.31347
 C48 C 0.77935 -0.17716 0.30956
 H49 H 0.71298 -0.14579 0.28538
 H50 H 0.79946 -0.18154 0.32465
 H51 H 0.76801 -0.22341 0.22956
 H52 H 0.74533 -0.24009 0.26239
 N53 N 0.71442 0.21888 0.80437
 N54 N 0.72812 0.24204 0.81904
 C55 C 0.71274 0.24756 0.84563
 C56 C 0.68813 0.22664 0.84775
 C57 C 0.68963 0.20929 0.82074
 H58 H 0.71839 0.26596 0.86187
 H59 H 0.67325 0.19168 0.81299
 Cu60 Cu 0.76218 0.26482 0.79999
 Cu61 Cu 0.72997 0.20213 0.76555
 Cu62 Cu 0.79230 0.24069 0.73225
 N63 N 0.79622 0.28707 0.78032
 N64 N 0.80789 0.27744 0.75391
 C65 C 0.82999 0.29756 0.74481
 C66 C 0.83175 0.32181 0.76617
 C67 C 0.81037 0.31383 0.78878
 H68 H 0.84273 0.29548 0.72341
 H69 H 0.80606 0.32604 0.81024
 N70 N 0.77317 0.20311 0.71395
 N71 N 0.74929 0.18855 0.72656
 C72 C 0.74190 0.16358 0.70898
 C73 C 0.76226 0.16229 0.68433
 C74 C 0.78146 0.18788 0.68791
 H75 H 0.72316 0.14743 0.71367
 H76 H 0.80029 0.19458 0.67276
 H77 H 0.77584 0.21781 0.77047
 H78 H 0.74704 0.24402 0.74965
 N79 N 0.26852 -0.21422 0.81201
 N80 N 0.25689 -0.23995 0.82336
 C81 C 0.27503 -0.24938 0.84734
 C82 C 0.29914 -0.22820 0.85130
 C83 C 0.29441 -0.20631 0.82837
 H84 H 0.27174 -0.27070 0.86009
 H85 H 0.30925 -0.18665 0.82338
 Cu86 Cu 0.22056 -0.25981 0.80433
 Cu87 Cu 0.24998 -0.19395 0.77602
 Cu88 Cu 0.20483 -0.24318 0.73015
 N89 N 0.19460 -0.28673 0.77892
 N90 N 0.18878 -0.28043 0.74988
 C91 C 0.17049 -0.30296 0.73781
 C92 C 0.16516 -0.32515 0.76031
 C93 C 0.18048 -0.31355 0.78630
 H94 H 0.16222 -0.30345 0.71420
 H95 H 0.18030 -0.32304 0.80927
 N96 N 0.22300 -0.20398 0.71509
 N97 N 0.23891 -0.18465 0.73303
 C98 C 0.24736 -0.15966 0.71658
 C99 C 0.23689 -0.16374 0.68660
 C100 C 0.22109 -0.19182 0.68662
 H101 H 0.26027 -0.14000 0.72575
 H102 H 0.20916 -0.20255 0.66722
 H103 H 0.20683 -0.21661 0.76914
 H104 H 0.24409 -0.23815 0.75868
 N105 N 0.71412 -0.21250 0.79460
 N106 N 0.72650 -0.23821 0.80654
 C107 C 0.70743 -0.24818 0.82900
 C108 C 0.68159 -0.22786 0.83091
 C109 C 0.68685 -0.20523 0.80905
 H110 H 0.71163 -0.26892 0.84267
 H111 H 0.67181 -0.18508 0.80398
 Cu112 Cu 0.76602 -0.25629 0.79109
 Cu113 Cu 0.73368 -0.19095 0.76053
 Cu114 Cu 0.80450 -0.22256 0.73312
 N115 N 0.80556 -0.27397 0.77530
 N116 N 0.82096 -0.26024 0.75320
 C117 C 0.84743 -0.27712 0.74684
 C118 C 0.84898 -0.30287 0.76617
 C119 C 0.82155 -0.30023 0.78350
 H120 H 0.86324 -0.27204 0.72819
 H121 H 0.81408 -0.31606 0.80117
 N122 N 0.78401 -0.18460 0.71582
 N123 N 0.75705 -0.17260 0.72623
 C124 C 0.74858 -0.14768 0.70898
 C125 C 0.77146 -0.14356 0.68691
 C126 C 0.79334 -0.16759 0.69168
 H127 H 0.72682 -0.13414 0.71149
 H128 H 0.81417 -0.17260 0.67806
 H129 H 0.75715 -0.22971 0.74224
 H130 H 0.77961 -0.20538 0.77051
 N131 N 0.28858 0.21953 0.79458
 N132 N 0.27363 0.24370 0.80705
 C133 C 0.29122 0.25480 0.83062
 C134 C 0.31878 0.23690 0.83266
 C135 C 0.31620 0.21452 0.80969
 H136 H 0.28489 0.27479 0.84486
 H137 H 0.33326 0.19609 0.80433
 Cu138 Cu 0.23334 0.25937 0.79057
 Cu139 Cu 0.27148 0.19677 0.75942
 Cu140 Cu 0.20110 0.22527 0.72775
 N141 N 0.19467 0.27571 0.77128
 N142 N 0.18202 0.26226 0.74692
 C143 C 0.15602 0.27881 0.73809
 C144 C 0.15214 0.30388 0.75810
 C145 C 0.17727 0.30141 0.77862
 H146 H 0.14154 0.27362 0.71809
 H147 H 0.18264 0.31752 0.79718
 N148 N 0.22384 0.18805 0.71157
 N149 N 0.25047 0.17691 0.72382
 C150 C 0.26020 0.15158 0.70749
 C151 C 0.23855 0.14655 0.68400
 C152 C 0.21605 0.17025 0.68705
 H153 H 0.28179 0.13818 0.71180
 H154 H 0.19566 0.17426 0.67223
 H155 H 0.24708 0.23505 0.74140
 H156 H 0.22433 0.20839 0.76653
 N157 N 0.27349 -0.21274 0.18122
 N158 N 0.26588 -0.24092 0.17161
 C159 C 0.28593 -0.25022 0.14928
 C160 C 0.30746 -0.22672 0.14496
 C161 C 0.29856 -0.20305 0.16519
 H162 H 0.28594 -0.27300 0.13822
 H163 H 0.31052 -0.18118 0.16917
 Cu164 Cu 0.23226 -0.26379 0.19109
 Cu165 Cu 0.25292 -0.19307 0.21677
 Cu166 Cu 0.22663 -0.24957 0.26664
 N167 N 0.20516 -0.28851 0.21679
 N168 N 0.20297 -0.28297 0.24650
 C169 C 0.18337 -0.30384 0.25890
 C170 C 0.17296 -0.32359 0.23569
 C171 C 0.18699 -0.31297 0.20921
 H172 H 0.17731 -0.30470 0.28299
 H173 H 0.18413 -0.32233 0.18618
 N174 N 0.23901 -0.20720 0.28015
 N175 N 0.24591 -0.18485 0.26070
 C176 C 0.25011 -0.15797 0.27641
 C177 C 0.24703 -0.16386 0.30757
 C178 C 0.23948 -0.19531 0.30889
 H179 H 0.25484 -0.13580 0.26572
 H180 H 0.23425 -0.20849 0.32929
 H181 H 0.25878 -0.23679 0.23345
 H182 H 0.21649 -0.22395 0.22897
 N183 N 0.71422 0.23233 0.20729
 N184 N 0.73179 0.24348 0.18531
 C185 C 0.71434 0.24539 0.15926
 C186 C 0.68401 0.23497 0.16528
 C187 C 0.68473 0.22796 0.19640
 H188 H 0.72300 0.25406 0.13767
 H189 H 0.66531 0.22050 0.21043
 Cu190 Cu 0.77464 0.25719 0.19421
 Cu191 Cu 0.73140 0.22213 0.24775
 Cu192 Cu 0.81252 0.22866 0.25632
 N193 N 0.81116 0.27817 0.21210
 N194 N 0.82606 0.26698 0.23649
 C195 C 0.84886 0.28691 0.24517
 C196 C 0.84776 0.31225 0.22552
 C197 C 0.82395 0.30561 0.20443
 H198 H 0.86415 0.28389 0.26509
 H199 H 0.81589 0.32010 0.18550
 N200 N 0.78748 0.20142 0.28240
 N201 N 0.75635 0.19981 0.27978
 C202 C 0.74596 0.17840 0.29966
 C203 C 0.77185 0.16578 0.31529
 C204 C 0.79776 0.18130 0.30417
 H205 H 0.72147 0.17183 0.30200
 H206 H 0.82232 0.17762 0.31083
 H207 H 0.77053 0.25038 0.24984
 H208 H 0.77440 0.21243 0.22835
 C209 C 0.24154 0.00426 0.49819
 C210 C 0.24181 -0.02757 0.49832
 C211 C 0.24280 -0.04549 0.46905
 C212 C 0.24143 -0.04593 0.52723
 C213 C 0.24196 0.02321 0.52686
 C214 C 0.24113 0.02192 0.46903
 C215 C 0.21456 -0.05517 0.45504
 C216 C 0.21531 -0.07146 0.42705
 C217 C 0.24440 -0.07928 0.41313
 C218 C 0.27271 -0.07047 0.42796
 C219 C 0.27187 -0.05301 0.45527
 C220 C 0.21846 -0.03994 0.54989
 C221 C 0.21868 -0.05720 0.57710
 C222 C 0.24158 -0.08101 0.58191
 C223 C 0.26370 -0.08779 0.55878
 C224 C 0.26380 -0.07027 0.53185
 C225 C 0.26746 0.02103 0.54780
 C226 C 0.26763 0.03966 0.57444
 C227 C 0.24209 0.06032 0.58066
 C228 C 0.21683 0.06261 0.55949
 C229 C 0.21685 0.04434 0.53275
 C230 C 0.26710 0.04025 0.46142
 C231 C 0.26655 0.05778 0.43443
 C232 C 0.24007 0.05705 0.41470
 C233 C 0.21401 0.03890 0.42238
 C234 C 0.21445 0.02160 0.44950
 H235 H 0.19195 -0.04972 0.46560
 H236 H 0.19315 -0.07820 0.41637
 H237 H 0.29551 -0.07723 0.41849
 H238 H 0.29389 -0.04586 0.46599
 H239 H 0.20030 -0.02200 0.54648
 H240 H 0.20100 -0.05201 0.59440
 H241 H 0.28156 -0.07567 0.51473
 H242 H 0.28728 0.00520 0.54332
 H243 H 0.28768 0.03808 0.59014
 H244 H 0.19708 0.07862 0.56371
 H245 H 0.19711 0.04646 0.51673
 H246 H 0.28770 0.04102 0.47647
 H247 H 0.28666 0.07202 0.42894
 H248 H 0.19317 0.03862 0.40763
 H249 H 0.19381 0.00840 0.45553
 H250 H 0.28100 -0.10666 0.56165
 C251 C 0.76180 0.02245 0.49686
 C252 C 0.76127 -0.00943 0.49719
 C253 C 0.76238 -0.02725 0.52649
 C254 C 0.75980 -0.02842 0.46840
 C255 C 0.76319 0.04051 0.46786
 C256 C 0.76170 0.04131 0.52568
 C257 C 0.78681 -0.02283 0.54824
 C258 C 0.78780 -0.04024 0.57534
 C259 C 0.76466 -0.06261 0.58087
 C260 C 0.74063 -0.06747 0.55897
 C261 C 0.73946 -0.04989 0.53201
 C262 C 0.78161 -0.05330 0.46415
 C263 C 0.77964 -0.07261 0.43821
 C264 C 0.75570 -0.06753 0.41611
 C265 C 0.73421 -0.04229 0.41991
 C266 C 0.73600 -0.02308 0.44607
 C267 C 0.74083 0.06470 0.46251
 C268 C 0.74285 0.08334 0.43642
 C269 C 0.76736 0.07816 0.41539
 C270 C 0.78975 0.05400 0.42051
 C271 C 0.78775 0.03531 0.44669
 C272 C 0.73712 0.03901 0.54707
 C273 C 0.73729 0.05740 0.57382
 C274 C 0.76204 0.07825 0.57950
 C275 C 0.78628 0.08086 0.55790
 C276 C 0.78609 0.06256 0.53119
 H277 H 0.80525 -0.00614 0.54409
 H278 H 0.80678 -0.03658 0.59186
 H279 H 0.72278 -0.08487 0.56280
 H280 H 0.72063 -0.05391 0.51541
 H281 H 0.80008 -0.05790 0.48110
 H282 H 0.79649 -0.09191 0.43559
 H283 H 0.71856 -0.00439 0.44912
 H284 H 0.72188 0.06923 0.47869
 H285 H 0.72546 0.10196 0.43271
 H286 H 0.80886 0.04989 0.40444
 H287 H 0.80561 0.01720 0.45072
 H288 H 0.71778 0.02318 0.54290
 H289 H 0.71810 0.05552 0.59004
 H290 H 0.80539 0.09703 0.56181
 H291 H 0.80511 0.06482 0.51484
 H292 H 0.71571 -0.03792 0.40294
 C293 C 0.49679 0.24219 0.01803
 C294 C 0.49794 0.24036 -0.01316
 C295 C 0.52832 0.23942 -0.03032
 C296 C 0.46870 0.23953 -0.03239
 C297 C 0.46653 0.24170 0.03501
 C298 C 0.52574 0.24179 0.03752
 C299 C 0.53258 0.26046 -0.05455
 C300 C 0.55895 0.25754 -0.07363
 C301 C 0.58183 0.23373 -0.06863
 C302 C 0.57836 0.21368 -0.04349
 C303 C 0.55129 0.21572 -0.02531
 C304 C 0.44661 0.26459 -0.03230
 C305 C 0.42149 0.26521 -0.05360
 C306 C 0.41837 0.24092 -0.07531
 C307 C 0.43962 0.21525 -0.07441
 C308 C 0.46472 0.21469 -0.05330
 C309 C 0.44714 0.21535 0.03353
 C310 C 0.42132 0.21299 0.05330
 C311 C 0.41485 0.23683 0.07482
 C312 C 0.43333 0.26373 0.07536
 C313 C 0.45904 0.26611 0.05565
 C314 C 0.53744 0.21318 0.04884
 C315 C 0.56328 0.21229 0.06903
 C316 C 0.57600 0.24017 0.08082
 C317 C 0.56419 0.26895 0.06942
 C318 C 0.53950 0.26972 0.04762
 H319 H 0.51496 0.27865 -0.05924
 H320 H 0.56113 0.27345 -0.09273
 H321 H 0.59599 0.19555 -0.03870
 H322 H 0.54786 0.19793 -0.00829
 H323 H 0.44955 0.28415 -0.01660
 H324 H 0.40519 0.28512 -0.05392
 H325 H 0.48157 0.19522 -0.05374
 H326 H 0.45284 0.19608 0.01808
 H327 H 0.40727 0.19204 0.05275
 H328 H 0.42853 0.28231 0.09188
 H329 H 0.47367 0.28661 0.05716
 H330 H 0.52663 0.19143 0.04179
 H331 H 0.57274 0.18971 0.07615
 H332 H 0.57367 0.29084 0.07777
 H333 H 0.53041 0.29207 0.03943
 H334 H 0.43732 0.19614 -0.09077
 C335 C 0.49943 0.75862 0.00952
 C336 C 0.49980 0.75822 -0.02176
 C337 C 0.52940 0.75889 -0.03987
 C338 C 0.46986 0.75885 -0.03990
 C339 C 0.46899 0.75976 0.02655
 C340 C 0.52873 0.75846 0.02891
 C341 C 0.55064 0.78368 -0.03684
 C342 C 0.57615 0.78595 -0.05704
 C343 C 0.58045 0.76367 -0.08063
 C344 C 0.56000 0.73824 -0.08278
 C345 C 0.53456 0.73601 -0.06272
 C346 C 0.46273 0.78470 -0.05858
 C347 C 0.43414 0.78637 -0.07491
 C348 C 0.41233 0.76210 -0.07302
 C349 C 0.41990 0.73572 -0.05508
 C350 C 0.44842 0.73419 -0.03843
 C351 C 0.46273 0.73636 0.04800
 C352 C 0.43580 0.73857 0.06634
 C353 C 0.41488 0.76436 0.06366
 C354 C 0.42055 0.78736 0.04167
 C355 C 0.44760 0.78523 0.02337
 C356 C 0.55361 0.73653 0.02436
 C357 C 0.57921 0.73499 0.04511
 C358 C 0.57964 0.75445 0.07134
 C359 C 0.55526 0.77686 0.07534
 C360 C 0.53022 0.77894 0.05431
 H361 H 0.54679 0.80180 -0.01965
 H362 H 0.59182 0.80567 -0.05504
 H363 H 0.56319 0.72069 -0.10066
 H364 H 0.51838 0.71678 -0.06547
 H365 H 0.47909 0.80386 -0.06000
 H366 H 0.42886 0.80676 -0.08886
 H367 H 0.45378 0.71391 -0.02437
 H368 H 0.47908 0.71670 0.05093
 H369 H 0.43168 0.72064 0.08324
 H370 H 0.40464 0.80746 0.03947
 H371 H 0.45236 0.80385 0.00741
 H372 H 0.55280 0.72000 0.00538
 H373 H 0.59810 0.71787 0.04136
 H374 H 0.55521 0.79228 0.09524
 H375 H 0.51143 0.79609 0.05837
 H376 H 0.40364 0.71646 -0.05387
 C377 C 0.01935 0.50036 0.24837
 C378 C -0.01277 0.50053 0.24606
 C379 C -0.03105 0.47126 0.24359
 C380 C -0.03150 0.53018 0.24468
 C381 C 0.03772 0.52968 0.24862
 C382 C 0.03839 0.47084 0.24946
 C383 C -0.02635 0.45014 0.21903
 C384 C -0.04589 0.42422 0.21548
 C385 C -0.07054 0.41929 0.23625
 C386 C -0.07451 0.43985 0.26133
 C387 C -0.05514 0.46579 0.26478
 C388 C -0.04997 0.53668 0.21844
 C389 C -0.06859 0.56397 0.21698
 C390 C -0.06934 0.58508 0.24188
 C391 C -0.05109 0.57843 0.26833
 C392 C -0.03206 0.55124 0.26963
 C393 C 0.05945 0.53516 0.27264
 C394 C 0.08003 0.56030 0.27129
 C395 C 0.07931 0.58016 0.24580
 C396 C 0.05707 0.57532 0.22213
 C397 C 0.03640 0.55017 0.22350
 C398 C 0.03478 0.44920 0.27327
 C399 C 0.05508 0.42295 0.27533
 C400 C 0.07932 0.41829 0.25377
 C401 C 0.08214 0.43936 0.22943
 C402 C 0.06202 0.46555 0.22745
 H403 H -0.00818 0.45423 0.20219
 H404 H -0.04238 0.40849 0.19610
 H405 H -0.09312 0.43615 0.27783
 H406 H -0.05915 0.48185 0.28382
 H407 H -0.04990 0.52057 0.19907
 H408 H -0.08269 0.56855 0.19648
 H409 H -0.01826 0.54630 0.29022
 H410 H 0.06106 0.51939 0.29201
 H411 H 0.09733 0.56361 0.28955
 H412 H 0.05658 0.59029 0.20214
 H413 H 0.02036 0.54590 0.20439
 H414 H 0.01687 0.45310 0.29064
 H415 H 0.05250 0.40677 0.29415
 H416 H 0.10043 0.43584 0.21235
 H417 H 0.06512 0.48198 0.20891
 H418 H -0.05188 0.59411 0.28802
 C419 C 0.01337 0.49814 0.75339
 C420 C -0.01871 0.50022 0.75511
 C421 C -0.03880 0.47220 0.75674
 C422 C -0.03552 0.53094 0.75670
 C423 C 0.03326 0.52633 0.75295
 C424 C 0.03074 0.46765 0.75351
 C425 C -0.06375 0.46874 0.73547
 C426 C -0.08428 0.44367 0.73770
 C427 C -0.08024 0.42179 0.76131
 C428 C -0.05522 0.42492 0.78249
 C429 C -0.03469 0.45012 0.78034
 C430 C -0.03703 0.55088 0.73122
 C431 C -0.05412 0.57927 0.73293
 C432 C -0.06923 0.58836 0.76037
 C433 C -0.06755 0.56829 0.78578
 C434 C -0.05103 0.53973 0.78388
 C435 C 0.03391 0.54711 0.77813
 C436 C 0.05525 0.57173 0.77878
 C437 C 0.07631 0.57565 0.75439
 C438 C 0.07508 0.55542 0.72889
 C439 C 0.05382 0.53078 0.72827
 C440 C 0.05228 0.46120 0.77750
 C441 C 0.06982 0.43320 0.77775
 C442 C 0.06637 0.41124 0.75384
 C443 C 0.04503 0.41779 0.72958
 C444 C 0.02712 0.44576 0.72953
 H445 H -0.06748 0.48565 0.71728
 H446 H -0.10366 0.44156 0.72132
 H447 H -0.05208 0.40829 0.80100
 H448 H -0.01608 0.45279 0.79743
 H449 H -0.02548 0.54418 0.70996
 H450 H -0.05574 0.59408 0.71284
 H451 H -0.05018 0.52447 0.80367
 H452 H 0.01865 0.54365 0.79764
 H453 H 0.05602 0.58719 0.79863
 H454 H 0.09124 0.55817 0.70994
 H455 H 0.05377 0.51480 0.70880
 H456 H 0.05548 0.47792 0.79609
 H457 H 0.08632 0.42871 0.79652
 H458 H 0.04253 0.40140 0.71062
 H459 H 0.01093 0.45063 0.71060
 H460 H -0.07922 0.57469 0.80706
 C461 C 0.35856 0.23679 0.09032
 C462 C 0.33494 0.23491 0.11238
 C463 C 0.34258 0.22862 0.14321
 C464 C 0.37488 0.22469 0.15208
 C465 C 0.39887 0.22639 0.12956
 C466 C 0.39051 0.23275 0.09856
 C467 C 0.43067 0.22179 0.13888
 N468 N 0.43785 0.21682 0.16892
 N469 N 0.41543 0.21619 0.19023
 C470 C 0.38429 0.22008 0.18291
 H471 H 0.35193 0.24186 0.06672
 H472 H 0.31040 0.23818 0.10529
 H473 H 0.44988 0.22210 0.12260
 H474 H 0.36739 0.21999 0.20138
 C475 C 0.62144 0.77877 0.10296
 C476 C 0.64347 0.77888 0.12689
 C477 C 0.65073 0.75162 0.14365
 C478 C 0.63353 0.72387 0.13680
 C479 C 0.61073 0.72398 0.11237
 C480 C 0.60501 0.75168 0.09516
 C481 C 0.59298 0.69680 0.10718
 N482 N 0.59757 0.67141 0.12524
 N483 N 0.61815 0.67151 0.14860
 C484 C 0.63582 0.69687 0.15528
 H485 H 0.61699 0.80027 0.09043
 H486 H 0.65580 0.80046 0.13149
 H487 H 0.57493 0.69556 0.08950
 H488 H 0.65023 0.69586 0.17583
 C489 C 0.62705 0.25659 -0.09597
 C490 C 0.65300 0.25480 -0.11546
 C491 C 0.66284 0.22618 -0.12864
 C492 C 0.64653 0.19857 -0.12088
 C493 C 0.61859 0.20081 -0.10296
 C494 C 0.60930 0.23005 -0.08966
 C495 C 0.60062 0.17362 -0.09954
 N496 N 0.61176 0.14571 -0.11036
 N497 N 0.63948 0.14316 -0.12459
 C498 C 0.65732 0.16854 -0.13002
 H499 H 0.62053 0.27911 -0.08599
 H500 H 0.66496 0.27625 -0.12082
 H501 H 0.57772 0.17421 -0.08865
 H502 H 0.68001 0.16479 -0.14084
 C503 C 0.38424 0.76767 -0.12277
 C504 C 0.35702 0.77031 -0.14092
 C505 C 0.32689 0.76915 -0.12782
 C506 C 0.32417 0.76591 -0.09552
 C507 C 0.35199 0.76357 -0.07691
 C508 C 0.38226 0.76410 -0.09086
 C509 C 0.34847 0.76191 -0.04481
 N510 N 0.31910 0.76202 -0.03241
 N511 N 0.29304 0.76405 -0.04987
 C512 C 0.29455 0.76616 -0.08092
 H513 H 0.40715 0.76833 -0.13378
 H514 H 0.35953 0.77288 -0.16554
 H515 H 0.36868 0.76099 -0.02936
 H516 H 0.27259 0.76853 -0.09374
 C517 C 0.09070 0.36121 0.25420
 C518 C 0.11155 0.33550 0.25348
 C519 C 0.14441 0.33959 0.25491
 C520 C 0.15644 0.37010 0.25919
 C521 C 0.13520 0.39624 0.26013
 C522 C 0.10215 0.39169 0.25660
 C523 C 0.14779 0.42615 0.26519
 N524 N 0.17951 0.42947 0.26878
 N525 N 0.19945 0.40492 0.26793
 C526 C 0.18903 0.37540 0.26341
 H527 H 0.06548 0.35737 0.25179
 H528 H 0.10201 0.31228 0.25061
 H529 H 0.13274 0.44687 0.26684
 H530 H 0.20631 0.35639 0.26377
 C531 C 0.09813 0.62525 0.73611
 C532 C 0.12036 0.64888 0.73686
 C533 C 0.14605 0.64809 0.75780
 C534 C 0.15065 0.62084 0.77630
 C535 C 0.12739 0.59721 0.77601
 C536 C 0.10074 0.59990 0.75611
 C537 C 0.13226 0.57079 0.79476
 N538 N 0.15930 0.56761 0.81160
 N539 N 0.18196 0.58879 0.81059
 C540 C 0.17879 0.61494 0.79326
 H541 H 0.07822 0.62713 0.72024
 H542 H 0.11619 0.66876 0.72195
 H543 H 0.11520 0.55227 0.79571
 H544 H 0.19899 0.62993 0.79192
 C545 C -0.12313 0.60763 0.23525
 C546 C -0.14490 0.63235 0.23352
 C547 C -0.13557 0.66357 0.23762
 C548 C -0.10253 0.66959 0.24133
 C549 C -0.08032 0.64407 0.24331
 C550 C -0.09096 0.61288 0.24068
 C551 C -0.04787 0.65066 0.24631
 N552 N -0.03822 0.68072 0.24662
 N553 N -0.05872 0.70458 0.24355
 C554 C -0.09032 0.70008 0.24047
 H555 H -0.13164 0.58394 0.23281
 H556 H -0.16961 0.62654 0.23049
 H557 H -0.02994 0.63230 0.24766
 H558 H -0.10514 0.72039 0.23594
 C559 C -0.09667 0.36779 0.75025
 C560 C -0.11868 0.34397 0.75044
 C561 C -0.14818 0.34792 0.76506
 C562 C -0.15594 0.37784 0.77826
 C563 C -0.13295 0.40175 0.77870
 C564 C -0.10332 0.39654 0.76444
 C565 C -0.14071 0.43072 0.79261
 N566 N -0.17022 0.43608 0.80370
 N567 N -0.19253 0.41458 0.80143
 C568 C -0.18660 0.38598 0.78875
 H569 H -0.07422 0.36379 0.73881
 H570 H -0.11183 0.32181 0.73992
 H571 H -0.12370 0.44930 0.79443
 H572 H -0.20641 0.37069 0.78580
 C573 C 0.23607 0.10927 0.39124
 C574 C 0.23329 0.12915 0.36616
 C575 C 0.23343 0.11726 0.33601
 C576 C 0.23611 0.08440 0.33117
 C577 C 0.23902 0.06414 0.35683
 C578 C 0.23877 0.07684 0.38701
 C579 C 0.24227 0.03174 0.35137
 N580 N 0.24175 0.02045 0.32214
 N581 N 0.23817 0.03935 0.29809
 C582 C 0.23522 0.07086 0.30158
 H583 H 0.23577 0.11926 0.41424
 H584 H 0.23139 0.15416 0.37035
 H585 H 0.24527 0.01530 0.37003
 H586 H 0.23185 0.08487 0.28120
 C587 C 0.76080 0.13084 0.60346
 C588 C 0.76112 0.15105 0.62869
 C589 C 0.76264 0.13940 0.65868
 C590 C 0.76482 0.10657 0.66329
 C591 C 0.76463 0.08594 0.63751
 C592 C 0.76219 0.09832 0.60740
 C593 C 0.76803 0.05357 0.64275
 N594 N 0.77117 0.04276 0.67187
 N595 N 0.77140 0.06207 0.69605
 C596 C 0.76850 0.09354 0.69278
 H597 H 0.75924 0.14066 0.58057
 H598 H 0.75972 0.17607 0.62477
 H599 H 0.76872 0.03677 0.62404
 H600 H 0.76973 0.10797 0.71324
 C601 C 0.21377 -0.11612 0.61715
 C602 C 0.21299 -0.13661 0.64184
 C603 C 0.23989 -0.14200 0.66040
 C604 C 0.26832 -0.12620 0.65371
 C605 C 0.26870 -0.10439 0.62922
 C606 C 0.24141 -0.10008 0.61028
 C607 C 0.29652 -0.08746 0.62457
 N608 N 0.32273 -0.09354 0.64195
 N609 N 0.32299 -0.11535 0.66366
 C610 C 0.29684 -0.13199 0.66999
 H611 H 0.19271 -0.11319 0.60291
 H612 H 0.19104 -0.14835 0.64652
 H613 H 0.29767 -0.06934 0.60742
 H614 H 0.29896 -0.14990 0.68727
 C615 C 0.77916 -0.09113 0.36931
 C616 C 0.77930 -0.11223 0.34476
 C617 C 0.75355 -0.13175 0.33926
 C618 C 0.72717 -0.13023 0.35928
 C619 C 0.72710 -0.10876 0.38442
 C620 C 0.75335 -0.08900 0.38929
 C621 C 0.70121 -0.10876 0.40462
 N622 N 0.67702 -0.12866 0.39968
 N623 N 0.67711 -0.14882 0.37618
 C624 C 0.70137 -0.15044 0.35598
 H625 H 0.79954 -0.07645 0.37295
 H626 H 0.79976 -0.11338 0.32988
 H627 H 0.70008 -0.09350 0.42452
 H628 H 0.70037 -0.16791 0.33794
 C629 C 0.63718 0.76439 -0.09483
 C630 C 0.66141 0.76570 -0.11634
 C631 C 0.65461 0.77027 -0.14764
 C632 C 0.62249 0.77320 -0.15748
 C633 C 0.59788 0.77246 -0.13547
 C634 C 0.60538 0.76746 -0.10400
 C635 C 0.56637 0.77685 -0.14576
 N636 N 0.55999 0.78024 -0.17618
 N637 N 0.58294 0.77953 -0.19697
 C638 C 0.61388 0.77598 -0.18873
 H639 H 0.64326 0.76049 -0.07087
 H640 H 0.68577 0.76334 -0.10841
 H641 H 0.54674 0.77774 -0.12995
 H642 H 0.63124 0.77489 -0.20679
 C643 C 0.36179 0.24232 -0.09127
 C644 C 0.33782 0.24137 -0.11355
 C645 C 0.34510 0.24052 -0.14493
 C646 C 0.37717 0.24258 -0.15407
 C647 C 0.40155 0.24371 -0.13139
 C648 C 0.39371 0.24266 -0.09976
 C649 C 0.43306 0.24661 -0.14119
 N650 N 0.43954 0.24804 -0.17161
 N651 N 0.41667 0.24705 -0.19288
 C652 C 0.38576 0.24453 -0.18519
 H653 H 0.35543 0.24190 -0.06719
 H654 H 0.31340 0.24025 -0.10620
 H655 H 0.45258 0.24829 -0.12500
 H656 H 0.36827 0.24473 -0.20350
 C657 C 0.35730 0.76372 0.07404
 C658 C 0.33152 0.76538 0.09384
 C659 C 0.33584 0.77171 0.12527
 C660 C 0.36697 0.77594 0.13710
 C661 C 0.39314 0.77457 0.11686
 C662 C 0.38815 0.76805 0.08520
 C663 C 0.42363 0.77977 0.12906
 N664 N 0.42761 0.78481 0.15966
 N665 N 0.40321 0.78499 0.17884
 C666 C 0.37312 0.78060 0.16868
 H667 H 0.35323 0.75860 0.04989
 H668 H 0.30793 0.76184 0.08453
 H669 H 0.44434 0.77991 0.11461
 H670 H 0.35451 0.78039 0.18554
 C671 C 0.62862 0.25778 0.09993
 C672 C 0.65478 0.25590 0.11968
 C673 C 0.65629 0.23406 0.14366
 C674 C 0.63046 0.21350 0.14731
 C675 C 0.60242 0.21789 0.12938
 C676 C 0.60215 0.23901 0.10425
 C677 C 0.57547 0.20093 0.13745
 N678 N 0.57784 0.17818 0.15894
 N679 N 0.60525 0.17143 0.17303
 C680 C 0.63166 0.18804 0.16771
 H681 H 0.62921 0.27402 0.08094
 H682 H 0.67399 0.27185 0.11610
 H683 H 0.55253 0.20557 0.12701
 H684 H 0.65342 0.18047 0.17882
 C685 C -0.12009 0.61559 0.77119
 C686 C -0.13967 0.64201 0.77346
 C687 C -0.12870 0.67195 0.76629
 C688 C -0.09594 0.67505 0.75902
 C689 C -0.07595 0.64782 0.75673
 C690 C -0.08846 0.61783 0.76228
 C691 C -0.04357 0.65169 0.75050
 N692 N -0.03191 0.68077 0.74721
 N693 N -0.05023 0.70627 0.75035
 C694 C -0.08157 0.70446 0.75655
 H695 H -0.12999 0.59292 0.77593
 H696 H -0.16422 0.63846 0.77932
 H697 H -0.02717 0.63201 0.74898
 H698 H -0.09433 0.72612 0.76087
 C699 C -0.08001 0.36229 0.23321
 C700 C -0.09983 0.33661 0.23123
 C701 C -0.13272 0.34069 0.22766
 C702 C -0.14591 0.37153 0.22636
 C703 C -0.12560 0.39765 0.22760
 C704 C -0.09245 0.39288 0.23174
 C705 C -0.13922 0.42783 0.22454
 N706 N -0.17113 0.43158 0.22215
 N707 N -0.19030 0.40722 0.22260
 C708 C -0.17886 0.37742 0.22479
 H709 H -0.05475 0.35826 0.23641
 H710 H -0.08935 0.31328 0.23241
 H711 H -0.12486 0.44850 0.22389
 H712 H -0.19576 0.35885 0.22580
 C713 C 0.11961 0.38626 0.75467
 C714 C 0.14021 0.36049 0.75599
 C715 C 0.12866 0.32999 0.75609
 C716 C 0.09542 0.32546 0.75518
 C717 C 0.07433 0.35184 0.75414
 C718 C 0.08670 0.38249 0.75372
 C719 C 0.04152 0.34657 0.75473
 N720 N 0.03072 0.31692 0.75579
 N721 N 0.05045 0.29222 0.75666
 C722 C 0.08236 0.29545 0.75658
 H723 H 0.12949 0.40949 0.75450
 H724 H 0.16551 0.36441 0.75676
 H725 H 0.02432 0.36566 0.75480
 H726 H 0.09709 0.27454 0.75810
 C727 C 0.09880 0.63361 0.25568
 C728 C 0.12173 0.65655 0.25367
 C729 C 0.15038 0.65049 0.23842
 C730 C 0.15641 0.62023 0.22578
 C731 C 0.13293 0.59701 0.22763
 C732 C 0.10393 0.60396 0.24257
 C733 C 0.13946 0.56725 0.21479
 N734 N 0.16789 0.56113 0.20155
 N735 N 0.19022 0.58266 0.20041
 C736 C 0.18555 0.61188 0.21216
 H737 H 0.07683 0.63904 0.26747
 H738 H 0.11682 0.67945 0.26364
 H739 H 0.12233 0.54875 0.21534
 H740 H 0.20491 0.62799 0.21121
 C741 C 0.77402 -0.11373 0.60578
 C742 C 0.77622 -0.13304 0.63138
 C743 C 0.77052 -0.12117 0.66102
 C744 C 0.76314 -0.08878 0.66486
 C745 C 0.76059 -0.06919 0.63866
 C746 C 0.76626 -0.08187 0.60898
 C747 C 0.75208 -0.03748 0.64307
 N748 N 0.74752 -0.02604 0.67189
 N749 N 0.75103 -0.04411 0.69655
 C750 C 0.75883 -0.07498 0.69406
 H751 H 0.77842 -0.12373 0.58320
 H752 H 0.78182 -0.15768 0.62791
 H753 H 0.74892 -0.02169 0.62390
 H754 H 0.76197 -0.08820 0.71496
 C755 C 0.22697 -0.12590 0.38373
 C756 C 0.22808 -0.14636 0.35873
 C757 C 0.24835 -0.14132 0.33393
 C758 C 0.26805 -0.11461 0.33480
 C759 C 0.26492 -0.09238 0.35919
 C760 C 0.24516 -0.09881 0.38456
 C761 C 0.28163 -0.06429 0.35717
 N762 N 0.30257 -0.06031 0.33416
 N763 N 0.30781 -0.08246 0.31301
 C764 C 0.29153 -0.10952 0.31270
 H765 H 0.21183 -0.13154 0.40281
 H766 H 0.21273 -0.16637 0.35889
 H767 H 0.27818 -0.04536 0.37352
 H768 H 0.29788 -0.12698 0.29570
 C769 C 0.78635 0.12633 0.39130
 C770 C 0.78755 0.14735 0.36703
 C771 C 0.77183 0.14124 0.33914
 C772 C 0.75584 0.11251 0.33519
 C773 C 0.75449 0.09123 0.36002
 C774 C 0.76961 0.09850 0.38828
 C775 C 0.73802 0.06320 0.35572
 N776 N 0.72449 0.05669 0.32805
 N777 N 0.72639 0.07625 0.30448
 C778 C 0.74167 0.10381 0.30703
 H779 H 0.79806 0.13207 0.41285
 H780 H 0.80005 0.16905 0.37038
 H781 H 0.73600 0.04634 0.37400
 H782 H 0.74302 0.11829 0.28685
 C783 C 0.23971 0.11329 0.60381
 C784 C 0.23865 0.13399 0.62864
 C785 C 0.24042 0.12306 0.65888
 C786 C 0.24283 0.09035 0.66417
 C787 C 0.24350 0.06914 0.63879
 C788 C 0.24219 0.08088 0.60833
 C789 C 0.24424 0.03682 0.64488
 N790 N 0.24489 0.02660 0.67433
 N791 N 0.24447 0.04646 0.69808
 C792 C 0.24328 0.07791 0.69405
 H793 H 0.23854 0.12268 0.58074
 H794 H 0.23665 0.15888 0.62417
 H795 H 0.24383 0.01952 0.62663
 H796 H 0.24220 0.09276 0.71425
   
