data_POSCAR
  _audit_creation_date              2014-09-24
  _audit_creation_method            'ToBaCCo'
  _symmetry_space_group_name_H-M    'P1'
  _symmetry_Int_Tables_number       1
  _symmetry_cell_setting            triclinic
  loop_
  _symmetry_equiv_pos_as_xyz
 x,y,z
_cell_length_a 51.5643
_cell_length_b 50.9453
_cell_length_c 55.2418
_cell_angle_alpha 90.064100
_cell_angle_beta 89.942000
_cell_angle_gamma 120.737200
loop_
  _atom_site_label
  _atom_site_type_symbol
  _atom_site_fract_x
  _atom_site_fract_y
  _atom_site_fract_z
C1 C 0.02944 0.49249 1.30143
 C2 C 0.00170 0.48086 1.31345
 C3 C -0.02597 0.46772 1.30113
 C4 C -0.02583 0.46723 1.27533
 C5 C 0.00190 0.47866 1.26268
 C6 C 0.02940 0.49028 1.27574
 C7 C 0.05570 0.49727 1.26283
 C8 C 0.05592 0.49656 1.23773
 C9 C 0.02975 0.48838 1.22434
 C10 C 0.00219 0.47837 1.23682
 C11 C -0.05239 0.45679 1.26174
 C12 C -0.05220 0.45558 1.23664
 C13 C -0.02509 0.46750 1.22355
 C14 C -0.02450 0.46724 1.19767
 C15 C 0.00332 0.47772 1.18601
 C16 C 0.03028 0.48876 1.19878
 H17 H 0.07639 0.50272 1.27195
 H18 H 0.07685 0.50202 1.22893
 H19 H -0.07390 0.44952 1.27017
 H20 H -0.07392 0.44469 1.22786
 H21 H 0.00161 0.48207 1.33304
 H22 H 0.00445 0.47911 1.16640
 C23 C 0.53737 0.50990 1.19895
 C24 C 0.51894 0.51826 1.18666
 C25 C 0.50122 0.52751 1.19903
 C26 C 0.50082 0.52708 1.22469
 C27 C 0.52028 0.51990 1.23745
 C28 C 0.53921 0.51215 1.22453
 C29 C 0.56013 0.50779 1.23749
 C30 C 0.56066 0.50839 1.26265
 C31 C 0.53994 0.51283 1.27601
 C32 C 0.52082 0.52049 1.26322
 C33 C 0.48101 0.53289 1.23795
 C34 C 0.48184 0.53391 1.26310
 C35 C 0.50231 0.52884 1.27608
 C36 C 0.50431 0.53125 1.30161
 C37 C 0.52242 0.52255 1.31397
 C38 C 0.53920 0.51182 1.30180
 H39 H 0.57672 0.50439 1.22829
 H40 H 0.57799 0.50593 1.27150
 H41 H 0.46435 0.53640 1.22904
 H42 H 0.46587 0.53828 1.27225
 H43 H 0.51831 0.51748 1.16705
 H44 H 0.52205 0.52277 1.33357
 C45 C 0.46047 0.97162 1.30292
 C46 C 0.47103 0.99960 1.31491
 C47 C 0.48348 1.02759 1.30260
 C48 C 0.48294 1.02717 1.27685
 C49 C 0.47313 0.99937 1.26416
 C50 C 0.46176 0.97149 1.27714
 C51 C 0.44994 0.94416 1.26382
 C52 C 0.45142 0.94428 1.23872
 C53 C 0.46263 0.97148 1.22553
 C54 C 0.47360 0.99934 1.23830
 C55 C 0.48924 1.05323 1.26344
 C56 C 0.48998 1.05322 1.23833
 C57 C 0.48437 1.02711 1.22531
 C58 C 0.48658 1.02737 1.19957
 C59 C 0.47495 0.99925 1.18748
 C60 C 0.46281 0.97152 1.19990
 H61 H 0.43869 0.92206 1.27242
 H62 H 0.44318 0.92252 1.22986
 H63 H 0.49283 1.07382 1.27222
 H64 H 0.49412 1.07380 1.22924
 H65 H 0.47218 0.99974 1.33451
 H66 H 0.47631 0.99875 1.16792
 C67 C 1.02833 0.48977 0.80105
 C68 C 1.00059 0.47464 0.81337
 C69 C 0.97295 0.46237 0.80135
 C70 C 0.97251 0.46417 0.77580
 C71 C 1.00008 0.47815 0.76266
 C72 C 1.02802 0.49087 0.77522
 C73 C 1.05468 0.50309 0.76149
 C74 C 1.05439 0.50565 0.73649
 C75 C 1.02717 0.49320 0.72350
 C76 C 0.99967 0.47959 0.73685
 C77 C 0.94526 0.45278 0.76306
 C78 C 0.94484 0.45400 0.73798
 C79 C 0.97173 0.46770 0.72452
 C80 C 0.97136 0.46972 0.69902
 C81 C 0.99852 0.48377 0.68623
 C82 C 1.02655 0.49529 0.69774
 H83 H 1.07637 0.51084 0.76976
 H84 H 1.07609 0.51794 0.72773
 H85 H 0.92380 0.44286 0.77226
 H86 H 0.92304 0.44412 0.72931
 H87 H 1.00030 0.47391 0.83299
 H88 H 0.99754 0.48461 0.66664
 C89 C 0.53369 0.50514 0.69768
 C90 C 0.51920 0.51833 0.68580
 C91 C 0.50505 0.53134 0.69850
 C92 C 0.50572 0.53166 0.72415
 C93 C 0.52011 0.51817 0.73659
 C94 C 0.53401 0.50473 0.72334
 C95 C 0.54735 0.49081 0.73612
 C96 C 0.54808 0.49102 0.76127
 C97 C 0.53431 0.50396 0.77481
 C98 C 0.52038 0.51791 0.76237
 C99 C 0.49268 0.54533 0.73771
 C100 C 0.49249 0.54460 0.76287
 C101 C 0.50652 0.53138 0.77563
 C102 C 0.50670 0.53081 0.80128
 C103 C 0.52057 0.51699 0.81319
 C104 C 0.53424 0.50351 0.80046
 H105 H 0.55732 0.47938 0.72691
 H106 H 0.55960 0.48082 0.76992
 H107 H 0.48244 0.55684 0.72908
 H108 H 0.48108 0.55454 0.77211
 H109 H 0.51870 0.51823 0.66616
 H110 H 0.52048 0.51647 0.83283
 C111 C 0.48778 0.02970 0.69878
 C112 C 0.47366 0.00200 0.68617
 C113 C 0.45979 -0.02641 0.69806
 C114 C 0.45911 -0.02668 0.72390
 C115 C 0.47419 0.00132 0.73695
 C116 C 0.48801 0.02954 0.72437
 C117 C 0.50072 0.05686 0.73774
 C118 C 0.50161 0.05664 0.76287
 C119 C 0.48965 0.02909 0.77574
 C120 C 0.47486 0.00113 0.76272
 C121 C 0.44183 -0.05385 0.73713
 C122 C 0.44269 -0.05408 0.76228
 C123 C 0.46020 -0.02701 0.77542
 C124 C 0.46225 -0.02714 0.80100
 C125 C 0.47761 0.00065 0.81344
 C126 C 0.49104 0.02866 0.80133
 H127 H 0.50982 0.07878 0.72894
 H128 H 0.51144 0.07840 0.77208
 H129 H 0.42679 -0.07528 0.72827
 H130 H 0.42891 -0.07573 0.77131
 H131 H 0.47533 0.00289 0.66659
 H132 H 0.47953 0.00052 0.83299
 O133 O 0.38371 0.66398 0.97943
 O134 O 0.37823 0.71186 0.97342
 C135 C 0.36136 0.72225 0.96772
 O136 O 0.33644 0.71423 0.97815
 O137 O 0.28950 0.66066 0.97083
 C138 C 0.27847 0.63281 0.96548
 O139 O 0.28547 0.61545 0.97650
 O140 O 0.33898 0.62291 0.97105
 C141 C 0.36703 0.63995 0.96723
 O142 O 0.37973 0.66894 1.02756
 O143 O 0.37619 0.71766 1.02181
 C144 C 0.35574 0.72041 1.03222
 O145 O 0.32818 0.70515 1.02627
 O146 O 0.28016 0.65177 1.01884
 C147 C 0.27685 0.62837 1.02990
 O148 O 0.29222 0.61601 1.02501
 O149 O 0.34451 0.62069 1.01957
 C150 C 0.36690 0.64057 1.03169
 Cr151 Cr 0.37765 0.68957 1.00047
 Cr152 Cr 0.30964 0.68221 0.99857
 Cr153 Cr 0.31607 0.62057 0.99806
 O154 O 0.33445 0.66415 0.99906
 O155 O 0.62673 0.34668 0.98036
 O156 O 0.62220 0.29359 0.97506
 C157 C 0.63398 0.27739 0.97108
 O158 O 0.65631 0.28015 0.98307
 O159 O 0.70958 0.32812 0.97543
 C160 C 0.72466 0.35574 0.96870
 O161 O 0.72205 0.37694 0.97831
 O162 O 0.67442 0.38095 0.97170
 C163 C 0.64642 0.36872 0.96782
 O164 O 0.62817 0.34123 1.02844
 O165 O 0.62026 0.28665 1.02356
 C166 C 0.63697 0.27990 1.03565
 O167 O 0.66469 0.29106 1.03109
 O168 O 0.71813 0.33784 1.02347
 C169 C 0.72659 0.36369 1.03301
 O170 O 0.71658 0.38073 1.02655
 O171 O 0.66943 0.38623 1.02018
 C172 C 0.64536 0.36961 1.03219
 Cr173 Cr 0.62613 0.31774 1.00184
 Cr174 Cr 0.68646 0.31036 1.00318
 Cr175 Cr 0.69456 0.37942 0.99930
 O176 O 0.66915 0.33590 1.00151
 O177 O 0.67791 0.38603 0.52455
 O178 O 0.72455 0.37963 0.51695
 C179 C 0.72576 0.35961 0.52987
 O180 O 0.70865 0.33114 0.52644
 O181 O 0.65588 0.28217 0.51943
 C182 C 0.63422 0.28050 0.53160
 O183 O 0.62336 0.29738 0.52744
 O184 O 0.62922 0.35033 0.52003
 C185 C 0.65035 0.37377 0.53049
 O186 O 0.66897 0.38569 0.47659
 O187 O 0.71368 0.37699 0.46886
 C188 C 0.72501 0.36037 0.46530
 O189 O 0.71842 0.33721 0.47829
 O190 O 0.66398 0.29021 0.47152
 C191 C 0.63612 0.27927 0.46718
 O192 O 0.61967 0.28677 0.47904
 O193 O 0.62684 0.34061 0.47178
 C194 C 0.64405 0.36835 0.46604
 Cr195 Cr 0.69527 0.38037 0.49682
 Cr196 Cr 0.68609 0.31124 0.49890
 Cr197 Cr 0.62644 0.31944 0.49951
 O198 O 0.66916 0.33703 0.49839
 O199 O 0.33486 0.61965 0.52658
 O200 O 0.28213 0.61429 0.51942
 C201 C 0.27584 0.63125 0.53199
 O202 O 0.28809 0.65975 0.52848
 O203 O 0.33518 0.71396 0.52253
 C204 C 0.35885 0.72063 0.53438
 O205 O 0.37502 0.70916 0.52972
 O206 O 0.38025 0.66173 0.52220
 C207 C 0.36236 0.63645 0.53247
 O208 O 0.34423 0.62218 0.47850
 O209 O 0.29309 0.61910 0.47127
 C210 C 0.27740 0.63129 0.46740
 O211 O 0.27976 0.65316 0.48018
 O212 O 0.32896 0.70613 0.47414
 C213 C 0.35706 0.72216 0.46989
 O214 O 0.37670 0.71933 0.48168
 O215 O 0.38064 0.67085 0.47402
 C216 C 0.36773 0.64295 0.46804
 Cr217 Cr 0.31434 0.62057 0.49905
 Cr218 Cr 0.30899 0.68252 0.50130
 Cr219 Cr 0.37641 0.68923 0.50184
 O220 O 0.33332 0.66411 0.50078
 C221 C 0.45955 0.56598 0.34601
 C222 C 0.45622 0.53725 0.35074
 C223 C 0.47004 0.52570 0.33593
 C224 C 0.48790 0.54273 0.31623
 C225 C 0.49159 0.57153 0.31157
 C226 C 0.47724 0.58285 0.32606
 C227 C 0.44516 0.57843 0.36215
 C228 C 0.45926 0.60997 0.36676
 C229 C 0.44619 0.62145 0.38253
 C230 C 0.41895 0.60167 0.39452
 C231 C 0.40478 0.57016 0.38976
 C232 C 0.41750 0.55877 0.37362
 C233 C 0.40573 0.61360 0.41239
 C234 C 0.37427 0.59891 0.41567
 C235 C 0.36198 0.60866 0.43360
 C236 C 0.38075 0.63382 0.44827
 C237 C 0.41204 0.64934 0.44449
 C238 C 0.42444 0.63914 0.42694
 H239 H 0.44347 0.52384 0.36621
 H240 H 0.46710 0.50355 0.34004
 H241 H 0.50572 0.58533 0.29673
 H242 H 0.48003 0.60481 0.32157
 H243 H 0.48075 0.62587 0.35858
 H244 H 0.45757 0.64588 0.38533
 H245 H 0.38407 0.55404 0.39886
 H246 H 0.40557 0.53443 0.37022
 H247 H 0.35902 0.57975 0.40443
 H248 H 0.33772 0.59656 0.43597
 H249 H 0.42700 0.66869 0.45572
 H250 H 0.44874 0.65078 0.42534
 C251 C 0.42928 0.89350 0.34812
 C252 C 0.42043 0.91502 0.35226
 C253 C 0.43056 0.94043 0.33725
 C254 C 0.44977 0.94511 0.31748
 C255 C 0.45947 0.92407 0.31389
 C256 C 0.44907 0.89842 0.32881
 C257 C 0.41821 0.86642 0.36423
 C258 C 0.43716 0.85531 0.37088
 C259 C 0.42706 0.83071 0.38687
 C260 C 0.39784 0.81678 0.39679
 C261 C 0.37875 0.82759 0.38981
 C262 C 0.38874 0.85194 0.37365
 C263 C 0.38758 0.79173 0.41489
 C264 C 0.35732 0.76772 0.41555
 C265 C 0.34741 0.74508 0.43332
 C266 C 0.36760 0.74568 0.45068
 C267 C 0.39796 0.76928 0.44975
 C268 C 0.40778 0.79212 0.43218
 H269 H 0.40590 0.91249 0.36733
 H270 H 0.42279 0.95619 0.34088
 H271 H 0.47568 0.92776 0.29986
 H272 H 0.45650 0.88241 0.32515
 H273 H 0.46008 0.86604 0.36418
 H274 H 0.44223 0.82269 0.39151
 H275 H 0.35625 0.81773 0.39727
 H276 H 0.37331 0.85950 0.36860
 H277 H 0.34124 0.76632 0.40226
 H278 H 0.32394 0.72701 0.43340
 H279 H 0.41405 0.77052 0.46297
 H280 H 0.43109 0.81051 0.43255
 C281 C 0.10834 0.53562 0.34529
 C282 C 0.08324 0.50754 0.35213
 C283 C 0.05752 0.49331 0.33760
 C284 C 0.05617 0.50657 0.31560
 C285 C 0.08125 0.53499 0.30899
 C286 C 0.10704 0.54921 0.32356
 C287 C 0.13542 0.55083 0.36114
 C288 C 0.15075 0.58259 0.36483
 C289 C 0.17523 0.59661 0.38074
 C290 C 0.18490 0.57919 0.39338
 C291 C 0.16995 0.54753 0.38929
 C292 C 0.14556 0.53354 0.37333
 C293 C 0.20971 0.59371 0.41143
 C294 C 0.23064 0.58398 0.41395
 C295 C 0.25287 0.59645 0.43187
 C296 C 0.25478 0.61905 0.44765
 C297 C 0.23428 0.62928 0.44477
 C298 C 0.21198 0.61671 0.42693
 H299 H 0.08326 0.49671 0.36898
 H300 H 0.03886 0.47145 0.34340
 H301 H 0.08066 0.54673 0.29285
 H302 H 0.12599 0.57087 0.31778
 H303 H 0.14337 0.59655 0.35588
 H304 H 0.18650 0.62110 0.38325
 H305 H 0.17658 0.53337 0.39890
 H306 H 0.13452 0.50910 0.37063
 H307 H 0.22982 0.56666 0.40206
 H308 H 0.26845 0.58822 0.43346
 H309 H 0.23504 0.64659 0.45664
 H310 H 0.19598 0.62443 0.42573
 C311 C 0.57589 0.46979 0.34553
 C312 C 0.56291 0.45736 0.32293
 C313 C 0.55130 0.47140 0.30840
 C314 C 0.55292 0.49873 0.31575
 C315 C 0.56618 0.51117 0.33839
 C316 C 0.57744 0.49692 0.35301
 C317 C 0.58700 0.45413 0.36157
 C318 C 0.61242 0.47113 0.37636
 C319 C 0.62199 0.45650 0.39229
 C320 C 0.60668 0.42444 0.39361
 C321 C 0.58165 0.40741 0.37843
 C322 C 0.57183 0.42206 0.36273
 C323 C 0.61637 0.40897 0.41120
 C324 C 0.59496 0.38204 0.42306
 C325 C 0.60399 0.36834 0.44039
 C326 C 0.63458 0.38152 0.44654
 C327 C 0.65604 0.40810 0.43445
 C328 C 0.64708 0.42151 0.41686
 H329 H 0.56145 0.43658 0.31647
 H330 H 0.53994 0.46003 0.29180
 H331 H 0.56831 0.53229 0.34478
 H332 H 0.58681 0.50694 0.37047
 H333 H 0.62499 0.49584 0.37571
 H334 H 0.64108 0.47044 0.40391
 H335 H 0.56955 0.38270 0.37866
 H336 H 0.55193 0.40817 0.35187
 H337 H 0.57110 0.37196 0.41949
 H338 H 0.58693 0.34796 0.44953
 H339 H 0.67983 0.41855 0.43860
 H340 H 0.66428 0.44178 0.40772
 C341 C 0.52853 0.10775 0.34626
 C342 C 0.50081 0.08262 0.35357
 C343 C 0.48566 0.05672 0.33894
 C344 C 0.49778 0.05495 0.31651
 C345 C 0.52574 0.08016 0.30936
 C346 C 0.54065 0.10627 0.32385
 C347 C 0.54506 0.13491 0.36233
 C348 C 0.57677 0.15100 0.36353
 C349 C 0.59218 0.17573 0.37931
 C350 C 0.57631 0.18477 0.39461
 C351 C 0.54462 0.16886 0.39322
 C352 C 0.52925 0.14448 0.37716
 C353 C 0.59258 0.21008 0.41237
 C354 C 0.58138 0.22926 0.41857
 C355 C 0.59564 0.25183 0.43625
 C356 C 0.62179 0.25619 0.44782
 C357 C 0.63358 0.23774 0.44120
 C358 C 0.61900 0.21476 0.42385
 H359 H 0.49097 0.08258 0.37089
 H360 H 0.46412 0.03816 0.34519
 H361 H 0.53680 0.07939 0.29293
 H362 H 0.56185 0.12521 0.31749
 H363 H 0.58978 0.14413 0.35266
 H364 H 0.61659 0.18771 0.37952
 H365 H 0.53151 0.17477 0.40490
 H366 H 0.50488 0.13306 0.37647
 H367 H 0.56156 0.22691 0.40976
 H368 H 0.58627 0.26600 0.44081
 H369 H 0.65359 0.24046 0.44997
 H370 H 0.62804 0.20016 0.41994
 C371 C 0.89510 0.43214 0.34474
 C372 C 0.92031 0.46111 0.34938
 C373 C 0.94605 0.47274 0.33493
 C374 C 0.94737 0.45585 0.31525
 C375 C 0.92243 0.42638 0.31111
 C376 C 0.89652 0.41482 0.32550
 C377 C 0.86775 0.42004 0.36026
 C378 C 0.85134 0.38904 0.36684
 C379 C 0.82657 0.37815 0.38243
 C380 C 0.81774 0.39802 0.39197
 C381 C 0.83381 0.42888 0.38498
 C382 C 0.85836 0.43970 0.36924
 C383 C 0.79271 0.38701 0.40985
 C384 C 0.77335 0.39889 0.41007
 C385 C 0.75115 0.39001 0.42789
 C386 C 0.74754 0.36877 0.44574
 C387 C 0.76630 0.35625 0.44514
 C388 C 0.78871 0.36538 0.42750
 H389 H 0.92034 0.47478 0.36441
 H390 H 0.96474 0.49544 0.33887
 H391 H 0.92314 0.41197 0.29701
 H392 H 0.87756 0.39236 0.32146
 H393 H 0.85807 0.37330 0.36044
 H394 H 0.81444 0.35415 0.38711
 H395 H 0.82793 0.44495 0.39216
 H396 H 0.87013 0.46359 0.36421
 H397 H 0.77538 0.41513 0.39648
 H398 H 0.73684 0.39984 0.42771
 H399 H 0.76421 0.33995 0.45872
 H400 H 0.80349 0.35612 0.42817
 C401 C 0.57780 0.47067 1.15441
 C402 C 0.56197 0.45588 1.17565
 C403 C 0.54925 0.46880 1.19022
 C404 C 0.55290 0.49733 1.18443
 C405 C 0.56929 0.51253 1.16358
 C406 C 0.58144 0.49929 1.14867
 C407 C 0.58931 0.45574 1.13782
 C408 C 0.61557 0.47322 1.12395
 C409 C 0.62529 0.45921 1.10743
 C410 C 0.60934 0.42727 1.10463
 C411 C 0.58364 0.40976 1.11906
 C412 C 0.57358 0.42379 1.13518
 C413 C 0.61889 0.41228 1.08635
 C414 C 0.59723 0.38571 1.07423
 C415 C 0.60596 0.37164 1.05701
 C416 C 0.63650 0.38414 1.05103
 C417 C 0.65823 0.41076 1.06289
 C418 C 0.64956 0.42451 1.08054
 H419 H 0.55913 0.43414 1.18102
 H420 H 0.53616 0.45629 1.20591
 H421 H 0.57220 0.53442 1.15858
 H422 H 0.59289 0.51117 1.13227
 H423 H 0.62867 0.49782 1.12574
 H424 H 0.64497 0.47358 1.09650
 H425 H 0.57107 0.38509 1.11789
 H426 H 0.55301 0.40945 1.14517
 H427 H 0.57338 0.37598 1.07765
 H428 H 0.58868 0.35134 1.04792
 H429 H 0.68197 0.42073 1.05874
 H430 H 0.66697 0.44457 1.08975
 C431 C 0.89884 0.43792 1.15209
 C432 C 0.92051 0.42970 1.14717
 C433 C 0.94542 0.43922 1.16227
 C434 C 0.94967 0.45744 1.18281
 C435 C 0.92875 0.46697 1.18698
 C436 C 0.90343 0.45692 1.17211
 C437 C 0.87177 0.42672 1.13625
 C438 C 0.85895 0.44484 1.13162
 C439 C 0.83403 0.43442 1.11624
 C440 C 0.82156 0.40580 1.10474
 C441 C 0.83429 0.38765 1.10954
 C442 C 0.85875 0.39779 1.12526
 C443 C 0.79598 0.39517 1.08734
 C444 C 0.77461 0.36383 1.08477
 C445 C 0.75197 0.35366 1.06724
 C446 C 0.74965 0.37459 1.05226
 C447 C 0.77016 0.40593 1.05533
 C448 C 0.79326 0.41609 1.07248
 H449 H 0.91842 0.41596 1.13151
 H450 H 0.96104 0.43157 1.15812
 H451 H 0.93217 0.48268 1.20155
 H452 H 0.88739 0.46392 1.17647
 H453 H 0.86845 0.46736 1.13949
 H454 H 0.82460 0.44888 1.11338
 H455 H 0.82579 0.36573 1.10081
 H456 H 0.86746 0.38281 1.12875
 H457 H 0.77532 0.34703 1.09626
 H458 H 0.73617 0.32938 1.06545
 H459 H 0.76898 0.42253 1.04388
 H460 H 0.80949 0.44031 1.07354
 C461 C 0.53172 0.10772 1.15612
 C462 C 0.50484 0.08198 1.14819
 C463 C 0.48978 0.05593 1.16264
 C464 C 0.50112 0.05461 1.18555
 C465 C 0.52840 0.08032 1.19324
 C466 C 0.54323 0.10657 1.17891
 C467 C 0.54792 0.13525 1.14040
 C468 C 0.57964 0.15262 1.13997
 C469 C 0.59477 0.17770 1.12448
 C470 C 0.57861 0.18584 1.10871
 C471 C 0.54689 0.16870 1.10938
 C472 C 0.53178 0.14395 1.12514
 C473 C 0.59463 0.21137 1.09108
 C474 C 0.58241 0.22945 1.08427
 C475 C 0.59634 0.25195 1.06649
 C476 C 0.62316 0.25734 1.05543
 C477 C 0.63600 0.24009 1.06276
 C478 C 0.62178 0.21720 1.08021
 H479 H 0.49554 0.08166 1.13056
 H480 H 0.46879 0.03697 1.15593
 H481 H 0.53893 0.07990 1.21007
 H482 H 0.56381 0.12594 1.18572
 H483 H 0.59291 0.14649 1.15121
 H484 H 0.61918 0.19062 1.12483
 H485 H 0.53358 0.17389 1.09733
 H486 H 0.50736 0.13156 1.12525
 H487 H 0.56197 0.22620 1.09261
 H488 H 0.58611 0.26515 1.06139
 H489 H 0.65654 0.24358 1.05440
 H490 H 0.63166 0.20347 1.08459
 C491 C 0.45548 0.56075 1.15426
 C492 C 0.45230 0.53200 1.14987
 C493 C 0.46632 0.52085 1.16486
 C494 C 0.48428 0.53833 1.18437
 C495 C 0.48782 0.56715 1.18867
 C496 C 0.47316 0.57798 1.17410
 C497 C 0.44121 0.57304 1.13781
 C498 C 0.45506 0.60461 1.13349
 C499 C 0.44219 0.61605 1.11756
 C500 C 0.41549 0.59624 1.10495
 C501 C 0.40153 0.56468 1.10938
 C502 C 0.41400 0.55330 1.12578
 C503 C 0.40275 0.60833 1.08681
 C504 C 0.37145 0.59331 1.08244
 C505 C 0.35978 0.60380 1.06456
 C506 C 0.37901 0.63001 1.05110
 C507 C 0.41009 0.64559 1.05580
 C508 C 0.42187 0.63467 1.07321
 H509 H 0.43958 0.51829 1.13451
 H510 H 0.46351 0.49870 1.16098
 H511 H 0.50211 0.58138 1.20327
 H512 H 0.47582 0.59994 1.17844
 H513 H 0.47624 0.62064 1.14201
 H514 H 0.45336 0.64053 1.11514
 H515 H 0.38123 0.54853 1.09985
 H516 H 0.40221 0.52892 1.12892
 H517 H 0.35584 0.57345 1.09286
 H518 H 0.33566 0.59158 1.06140
 H519 H 0.42541 0.66570 1.04545
 H520 H 0.44610 0.64655 1.07550
 C521 C 0.11029 0.53013 1.15447
 C522 C 0.10716 0.54647 1.17368
 C523 C 0.08149 0.53285 1.18835
 C524 C 0.05871 0.50238 1.18453
 C525 C 0.06200 0.48580 1.16570
 C526 C 0.08748 0.49952 1.15080
 C527 C 0.13652 0.54530 1.13768
 C528 C 0.14915 0.52901 1.12751
 C529 C 0.17269 0.54289 1.11073
 C530 C 0.18439 0.57349 1.10386
 C531 C 0.17227 0.58998 1.11450
 C532 C 0.14854 0.57602 1.13106
 C533 C 0.20854 0.58795 1.08522
 C534 C 0.20847 0.60864 1.06841
 C535 C 0.23084 0.62199 1.05069
 C536 C 0.25363 0.61470 1.04910
 C537 C 0.25377 0.59401 1.06583
 C538 C 0.23157 0.58091 1.08377
 H539 H 0.12443 0.56991 1.17728
 H540 H 0.07916 0.54625 1.20250
 H541 H 0.04452 0.46238 1.16225
 H542 H 0.08881 0.48639 1.13594
 H543 H 0.14078 0.50546 1.13245
 H544 H 0.18123 0.52938 1.10274
 H545 H 0.18104 0.61373 1.10998
 H546 H 0.13917 0.58920 1.13822
 H547 H 0.19078 0.61412 1.06862
 H548 H 0.22994 0.63764 1.03793
 H549 H 0.27119 0.58812 1.06519
 H550 H 0.23263 0.56547 1.09664
 C551 C 0.42857 0.89108 1.15505
 C552 C 0.45862 0.91534 1.15286
 C553 C 0.46979 0.94093 1.16786
 C554 C 0.45111 0.94326 1.18513
 C555 C 0.42096 0.91954 1.18705
 C556 C 0.40996 0.89349 1.17253
 C557 C 0.41667 0.86388 1.13879
 C558 C 0.38618 0.84782 1.13167
 C559 C 0.37534 0.82300 1.11582
 C560 C 0.39480 0.81395 1.10606
 C561 C 0.42522 0.82985 1.11335
 C562 C 0.43587 0.85411 1.12971
 C563 C 0.38373 0.78874 1.08786
 C564 C 0.39703 0.77058 1.08590
 C565 C 0.38792 0.74833 1.06784
 C566 C 0.36466 0.74305 1.05183
 C567 C 0.35060 0.76030 1.05416
 C568 C 0.36029 0.78317 1.07172
 H569 H 0.47351 0.91499 1.13922
 H570 H 0.49301 0.95918 1.16577
 H571 H 0.40594 0.92117 1.19989
 H572 H 0.38687 0.87527 1.17513
 H573 H 0.37064 0.85471 1.13788
 H574 H 0.35163 0.81103 1.11120
 H575 H 0.44118 0.82409 1.10608
 H576 H 0.45930 0.86525 1.13512
 H577 H 0.41452 0.77344 1.09829
 H578 H 0.39887 0.73504 1.06651
 H579 H 0.33280 0.75682 1.04181
 H580 H 0.34987 0.79697 1.07212
 C581 C 0.57305 0.46591 0.65193
 C582 C 0.54242 0.45706 0.64978
 C583 C 0.52974 0.46942 0.66496
 C584 C 0.54740 0.49137 0.68239
 C585 C 0.57818 0.50111 0.68412
 C586 C 0.59076 0.48813 0.66937
 C587 C 0.58628 0.45215 0.63588
 C588 C 0.61664 0.46903 0.62847
 C589 C 0.62862 0.45621 0.61289
 C590 C 0.61041 0.42639 0.60383
 C591 C 0.58011 0.40951 0.61138
 C592 C 0.56839 0.42201 0.62742
 C593 C 0.62249 0.41315 0.58607
 C594 C 0.61070 0.38138 0.58505
 C595 C 0.62000 0.36868 0.56709
 C596 C 0.64206 0.38747 0.55024
 C597 C 0.65501 0.41921 0.55178
 C598 C 0.64504 0.43191 0.56930
 H599 H 0.52817 0.44085 0.63613
 H600 H 0.50605 0.46196 0.66299
 H601 H 0.59241 0.51858 0.69705
 H602 H 0.61431 0.49540 0.67184
 H603 H 0.63115 0.49241 0.63428
 H604 H 0.65218 0.46983 0.60796
 H605 H 0.56505 0.38673 0.60458
 H606 H 0.54515 0.40788 0.63309
 H607 H 0.59409 0.36614 0.59803
 H608 H 0.61002 0.34411 0.56637
 H609 H 0.67192 0.43407 0.53880
 H610 H 0.65437 0.45636 0.56908
 C611 C 0.53337 0.11064 0.65463
 C612 C 0.50223 0.08993 0.65192
 C613 C 0.48739 0.06407 0.66663
 C614 C 0.50332 0.05825 0.68429
 C615 C 0.53442 0.07866 0.68695
 C616 C 0.54921 0.10478 0.67250
 C617 C 0.54938 0.13759 0.63833
 C618 C 0.57895 0.14763 0.63047
 C619 C 0.59356 0.17208 0.61438
 C620 C 0.57884 0.18689 0.60540
 C621 C 0.54945 0.17719 0.61355
 C622 C 0.53498 0.15298 0.62991
 C623 C 0.59371 0.21157 0.58698
 C624 C 0.58900 0.23646 0.58674
 C625 C 0.60221 0.25896 0.56884
 C626 C 0.62071 0.25726 0.55098
 C627 C 0.62579 0.23268 0.55142
 C628 C 0.61229 0.21002 0.56907
 H629 H 0.48940 0.09325 0.63803
 H630 H 0.46347 0.04835 0.66404
 H631 H 0.54725 0.07428 0.70016
 H632 H 0.57309 0.12034 0.67535
 H633 H 0.59068 0.13617 0.63628
 H634 H 0.61639 0.17924 0.60889
 H635 H 0.53726 0.18780 0.60686
 H636 H 0.51242 0.14627 0.63586
 H637 H 0.57525 0.23869 0.60046
 H638 H 0.59806 0.27776 0.56906
 H639 H 0.63970 0.23054 0.53777
 H640 H 0.61594 0.19091 0.56831
 C641 C 0.89143 0.43349 0.65500
 C642 C 0.89788 0.45647 0.67221
 C643 C 0.92366 0.46813 0.68673
 C644 C 0.94312 0.45660 0.68468
 C645 C 0.93669 0.43360 0.66769
 C646 C 0.91120 0.42222 0.65297
 C647 C 0.86487 0.42199 0.63862
 C648 C 0.84906 0.39129 0.63112
 C649 C 0.82552 0.38098 0.61439
 C650 C 0.81689 0.40101 0.60495
 C651 C 0.83202 0.43146 0.61308
 C652 C 0.85582 0.44186 0.62957
 C653 C 0.79295 0.39046 0.58610
 C654 C 0.79536 0.41014 0.56726
 C655 C 0.77338 0.40018 0.54921
 C656 C 0.74864 0.37015 0.54934
 C657 C 0.74612 0.35041 0.56811
 C658 C 0.76793 0.36051 0.58638
 H659 H 0.88303 0.46548 0.67447
 H660 H 0.92853 0.48623 0.69950
 H661 H 0.95170 0.42473 0.66561
 H662 H 0.90744 0.40510 0.63958
 H663 H 0.85500 0.37517 0.63803
 H664 H 0.81464 0.35747 0.60841
 H665 H 0.82565 0.44741 0.60658
 H666 H 0.86761 0.46572 0.63471
 H667 H 0.81459 0.43312 0.56611
 H668 H 0.77609 0.41588 0.53488
 H669 H 0.72715 0.32721 0.56881
 H670 H 0.76503 0.34487 0.60081
 C671 C 0.45970 0.56533 0.65416
 C672 C 0.44401 0.54394 0.67266
 C673 C 0.45865 0.53295 0.68712
 C674 C 0.48954 0.54388 0.68402
 C675 C 0.50531 0.56530 0.66573
 C676 C 0.49056 0.57572 0.65087
 C677 C 0.44397 0.57627 0.63801
 C678 C 0.45962 0.60582 0.62805
 C679 C 0.44547 0.61552 0.61184
 C680 C 0.41495 0.59630 0.60556
 C681 C 0.39902 0.56709 0.61611
 C682 C 0.41340 0.55709 0.63187
 C683 C 0.40018 0.60642 0.58762
 C684 C 0.37744 0.58522 0.57205
 C685 C 0.36448 0.59489 0.55462
 C686 C 0.37449 0.62601 0.55193
 C687 C 0.39693 0.64722 0.56747
 C688 C 0.40932 0.63752 0.58534
 H689 H 0.42039 0.53564 0.67606
 H690 H 0.44585 0.51585 0.70074
 H691 H 0.52904 0.57365 0.66272
 H692 H 0.50333 0.59144 0.63646
 H693 H 0.48295 0.62161 0.63267
 H694 H 0.45880 0.63798 0.60389
 H695 H 0.37536 0.55176 0.61220
 H696 H 0.40057 0.53404 0.63882
 H697 H 0.37014 0.56120 0.57278
 H698 H 0.34736 0.57813 0.54267
 H699 H 0.40475 0.67134 0.56591
 H700 H 0.42608 0.65450 0.59734
 C701 C 0.42777 0.89437 0.65366
 C702 C 0.44282 0.89690 0.67552
 C703 C 0.45344 0.92288 0.69008
 C704 C 0.44852 0.94677 0.68366
 C705 C 0.43379 0.94426 0.66153
 C706 C 0.42367 0.91857 0.64679
 C707 C 0.41674 0.86691 0.63786
 C708 C 0.39033 0.85629 0.62403
 C709 C 0.38064 0.83145 0.60839
 C710 C 0.39670 0.81602 0.60646
 C711 C 0.42268 0.82613 0.62077
 C712 C 0.43270 0.85137 0.63609
 C713 C 0.38682 0.79015 0.58910
 C714 C 0.40814 0.78540 0.57702
 C715 C 0.39896 0.76213 0.55983
 C716 C 0.36832 0.74349 0.55395
 C717 C 0.34693 0.74780 0.56622
 C718 C 0.35602 0.77061 0.58378
 H719 H 0.44643 0.87879 0.68150
 H720 H 0.46625 0.92451 0.70612
 H721 H 0.42939 0.96193 0.65574
 H722 H 0.41290 0.91793 0.62982
 H723 H 0.37703 0.86718 0.62521
 H724 H 0.36082 0.82479 0.59745
 H725 H 0.43540 0.81459 0.62016
 H726 H 0.45333 0.85901 0.64618
 H727 H 0.43206 0.80022 0.58023
 H728 H 0.41595 0.75945 0.55049
 H729 H 0.32311 0.73347 0.56223
 H730 H 0.33884 0.77293 0.59311
 C731 C 0.10396 0.53462 0.65205
 C732 C 0.08104 0.54151 0.64901
 C733 C 0.05581 0.52862 0.66410
 C734 C 0.05266 0.50846 0.68286
 C735 C 0.07502 0.50052 0.68519
 C736 C 0.10051 0.51374 0.67021
 C737 C 0.13110 0.54908 0.63613
 C738 C 0.14468 0.53267 0.62823
 C739 C 0.16947 0.54608 0.61255
 C740 C 0.18114 0.57616 0.60419
 C741 C 0.16778 0.59266 0.61239
 C742 C 0.14328 0.57940 0.62827
 C743 C 0.20648 0.59002 0.58646
 C744 C 0.22799 0.62147 0.58718
 C745 C 0.25063 0.63481 0.56962
 C746 C 0.25261 0.61697 0.55114
 C747 C 0.23171 0.58543 0.55077
 C748 C 0.20880 0.57215 0.56811
 H749 H 0.08242 0.55677 0.63478
 H750 H 0.03902 0.53513 0.66144
 H751 H 0.07258 0.48364 0.69834
 H752 H 0.11761 0.50772 0.67301
 H753 H 0.13578 0.50920 0.63372
 H754 H 0.17944 0.53282 0.60694
 H755 H 0.17581 0.61569 0.60615
 H756 H 0.13382 0.59297 0.63432
 H757 H 0.22737 0.63586 0.60133
 H758 H 0.26663 0.65913 0.57055
 H759 H 0.23254 0.57110 0.53666
 H760 H 0.19240 0.54800 0.56669
 C761 C 0.46412 0.56694 0.84660
 C762 C 0.45541 0.53588 0.84765
 C763 C 0.46902 0.52427 0.83269
 C764 C 0.49186 0.54342 0.81648
 C765 C 0.50120 0.57456 0.81573
 C766 C 0.48721 0.58613 0.83039
 C767 C 0.44947 0.57917 0.86264
 C768 C 0.46605 0.60890 0.87219
 C769 C 0.45251 0.61990 0.88792
 C770 C 0.42213 0.60132 0.89485
 C771 C 0.40546 0.57174 0.88505
 C772 C 0.41885 0.56094 0.86901
 C773 C 0.40815 0.61232 0.91278
 C774 C 0.37733 0.60292 0.91140
 C775 C 0.36396 0.61196 0.92900
 C776 C 0.38121 0.63110 0.94813
 C777 C 0.41211 0.64115 0.94923
 C778 C 0.42536 0.63166 0.93191
 H779 H 0.43836 0.52053 0.86032
 H780 H 0.46183 0.50026 0.83383
 H781 H 0.51920 0.58983 0.80366
 H782 H 0.49435 0.61007 0.82885
 H783 H 0.48974 0.62355 0.86797
 H784 H 0.46597 0.64300 0.89469
 H785 H 0.38215 0.55655 0.89014
 H786 H 0.40513 0.53817 0.86167
 H787 H 0.36346 0.58859 0.89669
 H788 H 0.34013 0.60411 0.92758
 H789 H 0.42592 0.65568 0.96390
 H790 H 0.44896 0.63889 0.93395
 C791 C 0.10728 0.53383 0.84503
 C792 C 0.08353 0.50424 0.85052
 C793 C 0.05794 0.48971 0.83585
 C794 C 0.05509 0.50429 0.81520
 C795 C 0.07846 0.53437 0.81026
 C796 C 0.10437 0.54867 0.82466
 C797 C 0.13452 0.54927 0.86086
 C798 C 0.14983 0.58107 0.86448
 C799 C 0.17473 0.59534 0.87995
 C800 C 0.18465 0.57817 0.89268
 C801 C 0.16956 0.54643 0.88882
 C802 C 0.14509 0.53226 0.87295
 C803 C 0.20986 0.59310 0.91050
 C804 C 0.22921 0.58164 0.91471
 C805 C 0.25164 0.59460 0.93248
 C806 C 0.25571 0.61975 0.94602
 C807 C 0.23708 0.63181 0.94141
 C808 C 0.21422 0.61845 0.92408
 H809 H 0.08440 0.49230 0.86640
 H810 H 0.04053 0.46666 0.84050
 H811 H 0.07646 0.54727 0.79556
 H812 H 0.12210 0.57143 0.81974
 H813 H 0.14227 0.59501 0.85581
 H814 H 0.18606 0.61989 0.88197
 H815 H 0.17614 0.53227 0.89846
 H816 H 0.13442 0.50785 0.87027
 H817 H 0.22711 0.56264 0.90430
 H818 H 0.26592 0.58507 0.93554
 H819 H 0.23952 0.65100 0.95179
 H820 H 0.19948 0.62757 0.92187
 C821 C 0.42842 0.89233 0.84546
 C822 C 0.42084 0.91472 0.85046
 C823 C 0.43110 0.94028 0.83559
 C824 C 0.44951 0.94436 0.81553
 C825 C 0.45742 0.92231 0.81059
 C826 C 0.44665 0.89636 0.82517
 C827 C 0.41792 0.86541 0.86172
 C828 C 0.43606 0.85263 0.86603
 C829 C 0.42661 0.82807 0.88196
 C830 C 0.39900 0.81597 0.89438
 C831 C 0.38078 0.82863 0.88991
 C832 C 0.38994 0.85273 0.87363
 C833 C 0.38949 0.79082 0.91234
 C834 C 0.35873 0.76921 0.91593
 C835 C 0.34968 0.74689 0.93384
 C836 C 0.37117 0.74511 0.94819
 C837 C 0.40191 0.76587 0.94415
 C838 C 0.41098 0.78870 0.92661
 H839 H 0.40754 0.91294 0.86620
 H840 H 0.42503 0.95719 0.83995
 H841 H 0.47213 0.92529 0.79551
 H842 H 0.45266 0.87951 0.82050
 H843 H 0.45793 0.86194 0.85751
 H844 H 0.44106 0.81866 0.88454
 H845 H 0.35960 0.82039 0.89934
 H846 H 0.37501 0.86146 0.87047
 H847 H 0.34152 0.76947 0.90492
 H848 H 0.32582 0.73085 0.93639
 H849 H 0.41891 0.76509 0.95512
 H850 H 0.43482 0.80517 0.92476
 C851 C 0.57167 0.46095 0.84424
 C852 C 0.54914 0.44380 0.82699
 C853 C 0.53707 0.45758 0.81267
 C854 C 0.54781 0.48894 0.81483
 C855 C 0.57035 0.50616 0.83189
 C856 C 0.58210 0.49234 0.84647
 C857 C 0.58350 0.44607 0.86042
 C858 C 0.61375 0.46192 0.86815
 C859 C 0.62431 0.44861 0.88453
 C860 C 0.60501 0.41894 0.89339
 C861 C 0.57505 0.40272 0.88502
 C862 C 0.56439 0.41617 0.86892
 C863 C 0.61567 0.40539 0.91196
 C864 C 0.59605 0.38671 0.93036
 C865 C 0.60599 0.37448 0.94816
 C866 C 0.63594 0.38096 0.94829
 C867 C 0.65565 0.39959 0.92995
 C868 C 0.64557 0.41151 0.91189
 H869 H 0.54077 0.41969 0.82452
 H870 H 0.51928 0.44377 0.79992
 H871 H 0.57860 0.53030 0.83409
 H872 H 0.59886 0.50616 0.85990
 H873 H 0.62931 0.48475 0.86167
 H874 H 0.64743 0.46194 0.89071
 H875 H 0.55967 0.37961 0.89104
 H876 H 0.54089 0.40333 0.86364
 H877 H 0.57311 0.38203 0.93139
 H878 H 0.59031 0.36046 0.96218
 H879 H 0.67881 0.40480 0.92949
 H880 H 0.66119 0.42538 0.89780
 C881 C 0.89381 0.42651 0.84675
 C882 C 0.91789 0.45679 0.84930
 C883 C 0.94313 0.46831 0.83427
 C884 C 0.94531 0.44978 0.81657
 C885 C 0.92188 0.41927 0.81438
 C886 C 0.89617 0.40789 0.82903
 C887 C 0.86672 0.41455 0.86275
 C888 C 0.85057 0.38370 0.86987
 C889 C 0.82587 0.37294 0.88555
 C890 C 0.81700 0.39283 0.89504
 C891 C 0.83299 0.42359 0.88769
 C892 C 0.85715 0.43416 0.87156
 C893 C 0.79191 0.38194 0.91303
 C894 C 0.77415 0.39565 0.91453
 C895 C 0.75222 0.38705 0.93255
 C896 C 0.74686 0.36389 0.94903
 C897 C 0.76361 0.34929 0.94710
 C898 C 0.78615 0.35847 0.92953
 H899 H 0.91758 0.47164 0.86316
 H900 H 0.96117 0.49178 0.83655
 H901 H 0.92338 0.40438 0.80117
 H902 H 0.87810 0.38459 0.82626
 H903 H 0.85729 0.36786 0.86377
 H904 H 0.81386 0.34896 0.89028
 H905 H 0.82738 0.43988 0.89477
 H906 H 0.86838 0.45787 0.86611
 H907 H 0.77713 0.41313 0.90183
 H908 H 0.73928 0.39837 0.93352
 H909 H 0.76003 0.33153 0.95977
 H910 H 0.79959 0.34771 0.92942
 C911 C 0.53605 0.10828 0.84695
 C912 C 0.50510 0.08695 0.84983
 C913 C 0.49049 0.06155 0.83464
 C914 C 0.50646 0.05679 0.81629
 C915 C 0.53739 0.07782 0.81343
 C916 C 0.55198 0.10348 0.82844
 C917 C 0.55167 0.13486 0.86365
 C918 C 0.58136 0.14530 0.87139
 C919 C 0.59553 0.16941 0.88788
 C920 C 0.58028 0.18350 0.89727
 C921 C 0.55074 0.17332 0.88928
 C922 C 0.53670 0.14946 0.87258
 C923 C 0.59477 0.20814 0.91576
 C924 C 0.58931 0.23252 0.91611
 C925 C 0.60202 0.25499 0.93404
 C926 C 0.62083 0.25386 0.95188
 C927 C 0.62674 0.22983 0.95133
 C928 C 0.61371 0.20714 0.93360
 H929 H 0.49223 0.08946 0.86419
 H930 H 0.46670 0.04535 0.83736
 H931 H 0.55023 0.07426 0.79964
 H932 H 0.57574 0.11955 0.82552
 H933 H 0.59350 0.13442 0.86514
 H934 H 0.61847 0.17696 0.89329
 H935 H 0.53812 0.18333 0.89630
 H936 H 0.51402 0.14240 0.86674
 H937 H 0.57533 0.23439 0.90242
 H938 H 0.59729 0.27340 0.93384
 H939 H 0.64097 0.22819 0.96492
 H940 H 0.61799 0.18845 0.93421
   
