data_POSCAR
  _audit_creation_date              2014-09-24
  _audit_creation_method            'ToBaCCo'
  _symmetry_space_group_name_H-M    'P1'
  _symmetry_Int_Tables_number       1
  _symmetry_cell_setting            triclinic
  loop_
  _symmetry_equiv_pos_as_xyz
 x,y,z
_cell_length_a 43.5573
_cell_length_b 46.0672
_cell_length_c 35.1258
_cell_angle_alpha 89.972900
_cell_angle_beta 89.347500
_cell_angle_gamma 89.972700
loop_
  _atom_site_label
  _atom_site_type_symbol
  _atom_site_fract_x
  _atom_site_fract_y
  _atom_site_fract_z
C1 C 0.27421 0.27980 0.23203
 C2 C 0.25017 0.26450 0.24989
 C3 C 0.22617 0.27985 0.26776
 C4 C 0.22639 0.31025 0.26812
 C5 C 0.25024 0.32538 0.24989
 C6 C 0.27405 0.31020 0.23167
 C7 C 0.25014 0.23250 0.24990
 C8 C 0.27415 0.21715 0.26707
 C9 C 0.27392 0.18675 0.26747
 C10 C 0.25006 0.17161 0.24996
 C11 C 0.22624 0.18682 0.23242
 C12 C 0.22609 0.21722 0.23276
 H13 H 0.29266 0.26805 0.21790
 H14 H 0.20770 0.26814 0.28188
 H15 H 0.29263 0.22885 0.28064
 H16 H 0.20763 0.22898 0.21918
 H17 H 0.25026 0.34893 0.24989
 H18 H 0.25002 0.14807 0.24999
 C19 C 0.77392 0.78115 0.23189
 C20 C 0.74999 0.76581 0.24989
 C21 C 0.72602 0.78107 0.26793
 C22 C 0.72615 0.81149 0.26835
 C23 C 0.74991 0.82671 0.24997
 C24 C 0.77370 0.81157 0.23156
 C25 C 0.75004 0.73381 0.24987
 C26 C 0.77403 0.71851 0.26715
 C27 C 0.77389 0.68811 0.26751
 C28 C 0.75014 0.67292 0.24984
 C29 C 0.72634 0.68808 0.23218
 C30 C 0.72610 0.71848 0.23257
 H31 H 0.79232 0.76937 0.21768
 H32 H 0.70765 0.76923 0.28212
 H33 H 0.79243 0.73025 0.28084
 H34 H 0.70766 0.73021 0.21890
 H35 H 0.74988 0.85028 0.25001
 H36 H 0.75018 0.64938 0.24983
 C37 C 0.77389 0.27987 0.73316
 C38 C 0.74990 0.26457 0.75112
 C39 C 0.72590 0.27991 0.76901
 C40 C 0.72609 0.31034 0.76932
 C41 C 0.74991 0.32546 0.75098
 C42 C 0.77371 0.31026 0.73274
 C43 C 0.74991 0.23258 0.75117
 C44 C 0.77390 0.21726 0.76844
 C45 C 0.77373 0.18684 0.76884
 C46 C 0.74992 0.17168 0.75119
 C47 C 0.72613 0.18687 0.73355
 C48 C 0.72594 0.21726 0.73392
 H49 H 0.79233 0.26811 0.71902
 H50 H 0.70748 0.26813 0.78317
 H51 H 0.79230 0.22907 0.78206
 H52 H 0.70751 0.22900 0.72025
 H53 H 0.74999 0.34902 0.75086
 H54 H 0.74986 0.14812 0.75113
 C55 C 0.27445 0.78072 0.73182
 C56 C 0.25043 0.76540 0.74969
 C57 C 0.22639 0.78071 0.76752
 C58 C 0.22655 0.81110 0.76787
 C59 C 0.25036 0.82629 0.74965
 C60 C 0.27424 0.81114 0.73142
 C61 C 0.25044 0.73340 0.74970
 C62 C 0.27449 0.71807 0.76684
 C63 C 0.27431 0.68767 0.76722
 C64 C 0.25046 0.67251 0.74972
 C65 C 0.22661 0.68769 0.73221
 C66 C 0.22641 0.71809 0.73257
 H67 H 0.29290 0.76892 0.71773
 H68 H 0.20794 0.76897 0.78164
 H69 H 0.29296 0.72980 0.78040
 H70 H 0.20793 0.72983 0.71900
 H71 H 0.25026 0.84985 0.74970
 H72 H 0.25047 0.64896 0.74973
 C73 C 0.04113 0.04596 0.01424
 H74 H 0.04140 0.04751 -0.01650
 C75 C 0.05990 0.06409 0.03568
 H76 H 0.07478 0.07962 0.02147
 C77 C 0.02157 0.02370 0.07038
 H78 H 0.00644 0.00812 0.08383
 C79 C 0.04000 0.04143 0.09291
 H80 H 0.03923 0.03925 0.12362
 N81 N 0.02289 0.02590 0.03174
 C82 C 0.01214 -0.04263 -0.05290
 H83 H -0.01261 -0.04401 -0.05445
 C84 C 0.03049 -0.06117 -0.07495
 H85 H 0.01991 -0.07682 -0.09369
 C86 C 0.05630 -0.02086 -0.02624
 H87 H 0.06634 -0.00551 -0.00681
 C88 C 0.07545 -0.03897 -0.04774
 H89 H 0.10014 -0.03725 -0.04508
 Zn90 Zn -0.00081 0.00157 0.00006
 N91 N 0.02525 -0.02271 -0.02953
 C92 C -0.02319 0.02391 -0.07020
 N93 N -0.02453 0.02599 -0.03154
 C94 C -0.04278 0.04601 -0.01398
 C95 C -0.06154 0.06422 -0.03537
 C96 C -0.04160 0.04173 -0.09267
 C97 C -0.01370 -0.04277 0.05285
 C98 C -0.03202 -0.06136 0.07487
 C99 C -0.07702 -0.03907 0.04779
 C100 C -0.05790 -0.02092 0.02632
 N101 N -0.02684 -0.02278 0.02957
 H102 H -0.00804 0.00837 -0.08369
 H103 H -0.04307 0.04747 0.01677
 H104 H -0.07642 0.07973 -0.02111
 H105 H -0.04080 0.03964 -0.12339
 H106 H 0.01105 -0.04416 0.05437
 H107 H -0.02141 -0.07706 0.09356
 H108 H -0.10171 -0.03733 0.04517
 H109 H -0.06796 -0.00551 0.00695
 C110 C 0.06244 -0.05922 -0.07240
 C111 C 0.05952 0.06162 0.07535
 C112 C -0.06398 -0.05938 0.07238
 C113 C -0.06112 0.06188 -0.07505
 C114 C 0.04192 0.54605 0.51431
 H115 H 0.04218 0.54755 0.48357
 C116 C 0.06068 0.56424 0.53570
 H117 H 0.07553 0.57976 0.52143
 C118 C 0.02239 0.52388 0.57053
 H119 H 0.00726 0.50833 0.58403
 C120 C 0.04079 0.54168 0.59300
 H121 H 0.04002 0.53956 0.62372
 N122 N 0.02370 0.52601 0.53188
 C123 C 0.01276 0.45738 0.44745
 H124 H -0.01199 0.45602 0.44599
 C125 C 0.03105 0.43877 0.42542
 H126 H 0.02041 0.42308 0.40678
 C127 C 0.05701 0.47916 0.47389
 H128 H 0.06711 0.49454 0.49323
 C129 C 0.07610 0.46097 0.45240
 H130 H 0.10079 0.46267 0.45498
 Zn131 Zn -0.00005 0.50166 0.50029
 N132 N 0.02595 0.47733 0.47071
 C133 C -0.02243 0.52395 0.43004
 N134 N -0.02379 0.52605 0.46869
 C135 C -0.04203 0.54609 0.48623
 C136 C -0.06076 0.56431 0.46481
 C137 C -0.04080 0.54179 0.40754
 C138 C -0.01283 0.45735 0.55314
 C139 C -0.03110 0.43873 0.57517
 C140 C -0.07616 0.46097 0.54820
 C141 C -0.05709 0.47917 0.52672
 N142 N -0.02603 0.47733 0.52989
 H143 H -0.00728 0.50840 0.41657
 H144 H -0.04234 0.54756 0.51697
 H145 H -0.07563 0.57984 0.47905
 H146 H -0.03998 0.53971 0.37682
 H147 H 0.01193 0.45599 0.55459
 H148 H -0.02044 0.42302 0.59380
 H149 H -0.10086 0.46268 0.54563
 H150 H -0.06720 0.49457 0.50738
 C151 C 0.06301 0.44069 0.42787
 C152 C 0.06028 0.56185 0.57537
 C153 C -0.06306 0.44066 0.57273
 C154 C -0.06031 0.56197 0.42513
 C155 C 0.54224 0.04521 0.51459
 H156 H 0.54260 0.04671 0.48385
 C157 C 0.56092 0.06341 0.53606
 H158 H 0.57582 0.07893 0.52187
 C159 C 0.52254 0.02304 0.57072
 H160 H 0.50738 0.00749 0.58415
 C161 C 0.54087 0.04084 0.59328
 H162 H 0.54000 0.03873 0.62399
 N163 N 0.52397 0.02517 0.53207
 C164 C 0.51332 -0.04345 0.44753
 H165 H 0.48857 -0.04484 0.44598
 C166 C 0.53168 -0.06198 0.42549
 H167 H 0.52111 -0.07764 0.40675
 C168 C 0.55747 -0.02165 0.47418
 H169 H 0.56750 -0.00628 0.49360
 C170 C 0.57663 -0.03975 0.45269
 H171 H 0.60132 -0.03801 0.45533
 Zn172 Zn 0.50033 0.00080 0.50038
 N173 N 0.52642 -0.02351 0.47089
 C174 C 0.47807 0.02306 0.43003
 N175 N 0.47665 0.02518 0.46868
 C176 C 0.45837 0.04522 0.48616
 C177 C 0.43963 0.06339 0.46468
 C178 C 0.45969 0.04085 0.40747
 C179 C 0.48735 -0.04347 0.55325
 C180 C 0.46899 -0.06203 0.57526
 C181 C 0.42404 -0.03979 0.54799
 C182 C 0.44320 -0.02166 0.52654
 N183 N 0.47425 -0.02352 0.52987
 H184 H 0.49325 0.00751 0.41660
 H185 H 0.45802 0.04671 0.51690
 H186 H 0.42472 0.07890 0.47887
 H187 H 0.46053 0.03873 0.37676
 H188 H 0.51210 -0.04486 0.55484
 H189 H 0.47957 -0.07770 0.59402
 H190 H 0.39935 -0.03806 0.54530
 H191 H 0.43317 -0.00629 0.50710
 C192 C 0.56363 -0.06001 0.42803
 C193 C 0.56041 0.06102 0.57574
 C194 C 0.43704 -0.06006 0.57267
 C195 C 0.44012 0.06100 0.42501
 C196 C 0.54271 0.54576 0.01358
 H197 H 0.54303 0.54721 -0.01717
 C198 C 0.56139 0.56400 0.03498
 H199 H 0.57626 0.57951 0.02072
 C200 C 0.52305 0.52368 0.06980
 H201 H 0.50790 0.50814 0.08329
 C202 C 0.54139 0.54153 0.09228
 H203 H 0.54054 0.53947 0.12300
 N204 N 0.52445 0.52574 0.03114
 C205 C 0.51359 0.45700 -0.05317
 H206 H 0.48884 0.45566 -0.05468
 C207 C 0.53189 0.43834 -0.07510
 H208 H 0.52126 0.42263 -0.09372
 C209 C 0.55782 0.47880 -0.02671
 H210 H 0.56790 0.49420 -0.00739
 C211 C 0.57692 0.46056 -0.04810
 H212 H 0.60162 0.46224 -0.04547
 Zn213 Zn 0.50075 0.50135 -0.00044
 N214 N 0.52676 0.47699 -0.02994
 C215 C 0.47837 0.52356 -0.07076
 N216 N 0.47703 0.52571 -0.03212
 C217 C 0.45880 0.54578 -0.01461
 C218 C 0.44007 0.56398 -0.03605
 C219 C 0.45999 0.54137 -0.09329
 C220 C 0.48788 0.45711 0.05248
 C221 C 0.46957 0.43852 0.07451
 C222 C 0.42456 0.46074 0.04739
 C223 C 0.44366 0.47891 0.02591
 N224 N 0.47472 0.47706 0.02916
 H225 H 0.49350 0.50798 -0.08421
 H226 H 0.45851 0.54729 0.01613
 H227 H 0.42521 0.57953 -0.02183
 H228 H 0.46079 0.53925 -0.12400
 H229 H 0.51263 0.45574 0.05400
 H230 H 0.48019 0.42284 0.09321
 H231 H 0.39986 0.46245 0.04476
 H232 H 0.43359 0.49429 0.00651
 C233 C 0.56385 0.44024 -0.07259
 C234 C 0.56090 0.56169 0.07466
 C235 C 0.43762 0.44046 0.07199
 C236 C 0.44050 0.56158 -0.07572
 C237 C 0.12181 -0.11309 -0.17892
 C238 C 0.15714 -0.10939 -0.17775
 C239 C 0.16053 -0.14246 -0.17405
 C240 C 0.12555 -0.14647 -0.17557
 C241 C 0.12065 -0.11100 -0.13528
 C242 C 0.12402 -0.14408 -0.13154
 C243 C 0.15564 -0.10705 -0.13381
 C244 C 0.15935 -0.14036 -0.13040
 C245 C 0.18336 -0.15954 -0.19524
 C246 C 0.20275 -0.17315 -0.21227
 C247 C 0.09909 -0.09305 -0.11330
 C248 C 0.08203 -0.07784 -0.09484
 H249 H 0.10612 -0.10167 -0.19862
 H250 H 0.17100 -0.09531 -0.19698
 H251 H 0.11345 -0.16288 -0.19299
 H252 H 0.11015 -0.15814 -0.11230
 H253 H 0.16778 -0.09065 -0.11641
 H254 H 0.17503 -0.15176 -0.11068
 C255 C 0.12202 0.38644 0.32140
 C256 C 0.15736 0.39000 0.32248
 C257 C 0.16061 0.35692 0.32626
 C258 C 0.12561 0.35305 0.32484
 C259 C 0.12093 0.38859 0.36504
 C260 C 0.12416 0.35551 0.36886
 C261 C 0.15594 0.39241 0.36641
 C262 C 0.15951 0.35909 0.36990
 C263 C 0.18334 0.33973 0.30505
 C264 C 0.20265 0.32604 0.28800
 C265 C 0.09949 0.40667 0.38702
 C266 C 0.08251 0.42196 0.40546
 H267 H 0.10635 0.39789 0.30171
 H268 H 0.17126 0.40400 0.30318
 H269 H 0.11341 0.33666 0.30749
 H270 H 0.11026 0.34154 0.38817
 H271 H 0.16819 0.40879 0.38374
 H272 H 0.17517 0.34766 0.38962
 C273 C 0.61555 -0.14251 0.35024
 C274 C 0.62991 -0.13388 0.31124
 C275 C 0.66157 -0.14306 0.32587
 C276 C 0.64759 -0.15198 0.36449
 C277 C 0.62178 -0.11168 0.36490
 C278 C 0.65345 -0.12088 0.37948
 C279 C 0.63576 -0.10278 0.32628
 C280 C 0.66774 -0.11223 0.34057
 C281 C 0.68435 -0.16009 0.30452
 C282 C 0.70370 -0.17364 0.28734
 C283 C 0.60026 -0.09377 0.38701
 C284 C 0.58322 -0.07860 0.40554
 H285 H 0.59383 -0.15475 0.35447
 H286 H 0.62049 -0.13943 0.28292
 H287 H 0.65271 -0.17240 0.37995
 H288 H 0.66291 -0.11535 0.40778
 H289 H 0.63066 -0.08235 0.31082
 H290 H 0.68945 -0.09996 0.33637
 C291 C 0.62237 0.38505 -0.17868
 C292 C 0.65767 0.38915 -0.17843
 C293 C 0.66152 0.35619 -0.17372
 C294 C 0.62657 0.35178 -0.17432
 C295 C 0.62181 0.38796 -0.13511
 C296 C 0.62564 0.35500 -0.13037
 C297 C 0.65677 0.39232 -0.13457
 C298 C 0.66094 0.35913 -0.13015
 C299 C 0.68427 0.33897 -0.19485
 C300 C 0.70362 0.32530 -0.21185
 C301 C 0.60035 0.40610 -0.11324
 C302 C 0.58336 0.42145 -0.09489
 H303 H 0.60626 0.39591 -0.19839
 H304 H 0.67108 0.40300 -0.19842
 H305 H 0.61442 0.33490 -0.19091
 H306 H 0.61222 0.34117 -0.11036
 H307 H 0.66897 0.40918 -0.11799
 H308 H 0.67704 0.34828 -0.11042
 C309 C -0.11692 0.12044 -0.17928
 C310 C -0.15054 0.11116 -0.18658
 C311 C -0.16126 0.14184 -0.17554
 C312 C -0.12801 0.15141 -0.16858
 C313 C -0.12084 0.11132 -0.13743
 C314 C -0.13155 0.14199 -0.12638
 C315 C -0.15409 0.10179 -0.14443
 C316 C -0.16513 0.13269 -0.13370
 C317 C -0.18429 0.15853 -0.19629
 C318 C -0.20377 0.17196 -0.21289
 C319 C -0.09887 0.09403 -0.11573
 C320 C -0.08137 0.07952 -0.09742
 H321 H -0.09683 0.11521 -0.19777
 H322 H -0.15860 0.09868 -0.21157
 H323 H -0.11755 0.17201 -0.17875
 H324 H -0.12350 0.15447 -0.10139
 H325 H -0.16459 0.08120 -0.13426
 H326 H -0.18520 0.13790 -0.11517
 C327 C -0.14875 0.62538 0.38015
 C328 C -0.14157 0.65376 0.35813
 C329 C -0.16001 0.64219 0.32434
 C330 C -0.16750 0.61407 0.34606
 C331 C -0.11977 0.61156 0.36260
 C332 C -0.13821 0.59999 0.32882
 C333 C -0.11222 0.63968 0.34090
 C334 C -0.13104 0.62838 0.30675
 C335 C -0.18295 0.65893 0.30351
 C336 C -0.20236 0.67240 0.28684
 C337 C -0.09791 0.59421 0.38437
 C338 C -0.08047 0.57966 0.40272
 H339 H -0.15580 0.62397 0.41056
 H340 H -0.14321 0.67606 0.36994
 H341 H -0.19048 0.60371 0.34796
 H342 H -0.13659 0.57769 0.31700
 H343 H -0.08923 0.65000 0.33903
 H344 H -0.12402 0.62980 0.27633
 C345 C 0.38244 0.11615 0.31935
 C346 C 0.34783 0.10885 0.31627
 C347 C 0.34013 0.14085 0.32414
 C348 C 0.37438 0.14845 0.32688
 C349 C 0.38049 0.11036 0.36239
 C350 C 0.37280 0.14236 0.37027
 C351 C 0.34624 0.10279 0.35961
 C352 C 0.33822 0.13503 0.36718
 C353 C 0.31713 0.15755 0.30334
 C354 C 0.29769 0.17100 0.28672
 C355 C 0.40242 0.09309 0.38416
 C356 C 0.41991 0.07861 0.40254
 H357 H 0.40089 0.10819 0.29994
 H358 H 0.33731 0.09525 0.29383
 H359 H 0.38568 0.16742 0.31318
 H360 H 0.38331 0.15595 0.39272
 H361 H 0.33490 0.08384 0.37330
 H362 H 0.31979 0.14297 0.38662
 C363 C 0.38284 0.61697 -0.18120
 C364 C 0.34822 0.60972 -0.18426
 C365 C 0.34057 0.64172 -0.17628
 C366 C 0.37483 0.64927 -0.17357
 C367 C 0.38092 0.61111 -0.13818
 C368 C 0.37328 0.64311 -0.13019
 C369 C 0.34666 0.60360 -0.14093
 C370 C 0.33869 0.63583 -0.13326
 C371 C 0.31757 0.65847 -0.19701
 C372 C 0.29812 0.67194 -0.21358
 C373 C 0.40284 0.59377 -0.11647
 C374 C 0.42030 0.57924 -0.09814
 H375 H 0.40126 0.60902 -0.20066
 H376 H 0.33766 0.59618 -0.20672
 H377 H 0.38615 0.66825 -0.18723
 H378 H 0.38384 0.65664 -0.10772
 H379 H 0.33530 0.58463 -0.12728
 H380 H 0.32028 0.64377 -0.11377
 C381 C -0.14969 -0.12687 0.11791
 C382 C -0.14172 -0.15431 0.14132
 C383 C -0.16178 -0.14277 0.17423
 C384 C -0.17008 -0.11560 0.15113
 C385 C -0.12204 -0.11126 0.13533
 C386 C -0.14212 -0.09974 0.16824
 C387 C -0.11368 -0.13842 0.15841
 C388 C -0.13414 -0.12717 0.19169
 C389 C -0.18454 -0.15987 0.19551
 C390 C -0.20387 -0.17349 0.21262
 C391 C -0.10054 -0.09327 0.11330
 C392 C -0.08352 -0.07804 0.09482
 H393 H -0.15586 -0.12655 0.08733
 H394 H -0.14181 -0.17694 0.13049
 H395 H -0.19350 -0.10640 0.14836
 H396 H -0.14205 -0.07711 0.17908
 H397 H -0.09024 -0.14759 0.16114
 H398 H -0.12801 -0.12750 0.22227
 C399 C -0.12004 0.38397 0.67889
 C400 C -0.15513 0.38940 0.68091
 C401 C -0.16055 0.35684 0.67441
 C402 C -0.12581 0.35110 0.67273
 C403 C -0.12092 0.38852 0.63558
 C404 C -0.12633 0.35596 0.62905
 C405 C -0.15567 0.39421 0.63731
 C406 C -0.16141 0.36141 0.63111
 C407 C -0.18326 0.33966 0.69567
 C408 C -0.20256 0.32600 0.71277
 C409 C -0.09950 0.40661 0.61358
 C410 C -0.08254 0.42192 0.59514
 H411 H -0.10278 0.39346 0.69828
 H412 H -0.16722 0.40297 0.70247
 H413 H -0.11381 0.33317 0.68754
 H414 H -0.11423 0.34241 0.60747
 H415 H -0.16772 0.41213 0.62252
 H416 H -0.17866 0.35194 0.61169
 C417 C 0.37957 -0.11629 0.67888
 C418 C 0.34450 -0.11072 0.68073
 C419 C 0.33895 -0.14327 0.67434
 C420 C 0.37367 -0.14915 0.67283
 C421 C 0.37883 -0.11184 0.63554
 C422 C 0.37330 -0.14440 0.62913
 C423 C 0.34411 -0.10601 0.63710
 C424 C 0.33824 -0.13881 0.63101
 C425 C 0.31612 -0.16034 0.69555
 C426 C 0.29673 -0.17393 0.71259
 C427 C 0.40039 -0.09389 0.61355
 C428 C 0.41745 -0.07869 0.59510
 H429 H 0.39682 -0.10683 0.69830
 H430 H 0.33241 -0.09705 0.70218
 H431 H 0.38555 -0.16710 0.68778
 H432 H 0.38539 -0.15805 0.60766
 H433 H 0.33218 -0.08808 0.62218
 H434 H 0.32100 -0.14825 0.61156
 C435 C 0.35201 0.37278 0.11729
 C436 C 0.36003 0.34532 0.14063
 C437 C 0.33991 0.35677 0.17355
 C438 C 0.33158 0.38396 0.15052
 C439 C 0.37962 0.38841 0.13479
 C440 C 0.35949 0.39984 0.16771
 C441 C 0.38801 0.36123 0.15780
 C442 C 0.36751 0.37239 0.19109
 C443 C 0.31716 0.33960 0.19475
 C444 C 0.29782 0.32595 0.21179
 C445 C 0.40109 0.40647 0.11283
 C446 C 0.41809 0.42175 0.09439
 H447 H 0.34587 0.37314 0.08671
 H448 H 0.35999 0.32270 0.12974
 H449 H 0.30814 0.39313 0.14774
 H450 H 0.35950 0.42246 0.17861
 H451 H 0.41147 0.35210 0.16054
 H452 H 0.37362 0.37202 0.22168
 C453 C 0.13699 0.13697 0.12166
 C454 C 0.13027 0.15371 0.15910
 C455 C 0.15983 0.14113 0.17593
 C456 C 0.16687 0.12466 0.13883
 C457 C 0.11934 0.11077 0.13782
 C458 C 0.14891 0.09822 0.15467
 C459 C 0.11224 0.12723 0.17492
 C460 C 0.14219 0.11493 0.19211
 C461 C 0.18291 0.15775 0.19667
 C462 C 0.20240 0.17115 0.21323
 C463 C 0.09733 0.09358 0.11611
 C464 C 0.07979 0.07915 0.09777
 H465 H 0.13460 0.14585 0.09246
 H466 H 0.12287 0.17673 0.16116
 H467 H 0.18958 0.12377 0.12420
 H468 H 0.15634 0.07521 0.15262
 H469 H 0.08952 0.12808 0.18951
 H470 H 0.14459 0.10605 0.22131
 C471 C 0.12915 0.60516 0.67903
 C472 C 0.16328 0.60921 0.66736
 C473 C 0.16032 0.64182 0.67577
 C474 C 0.12653 0.63806 0.68778
 C475 C 0.11994 0.61128 0.63771
 C476 C 0.11694 0.64390 0.64609
 C477 C 0.15373 0.61508 0.62575
 C478 C 0.15110 0.64794 0.63444
 C479 C 0.18334 0.65853 0.69648
 C480 C 0.20280 0.67198 0.71302
 C481 C 0.09800 0.59399 0.61604
 C482 C 0.08051 0.57948 0.59774
 H483 H 0.11987 0.58738 0.69713
 H484 H 0.18258 0.59513 0.67634
 H485 H 0.11561 0.64771 0.71353
 H486 H 0.09763 0.65796 0.63709
 H487 H 0.16469 0.60545 0.60001
 H488 H 0.16038 0.66571 0.61634
 C489 C 0.63741 0.13674 0.62232
 C490 C 0.63050 0.15347 0.65972
 C491 C 0.66006 0.14101 0.67670
 C492 C 0.66730 0.12456 0.63964
 C493 C 0.61983 0.11047 0.63840
 C494 C 0.64941 0.09805 0.65540
 C495 C 0.61255 0.12690 0.67546
 C496 C 0.64250 0.11474 0.69280
 C497 C 0.68300 0.15772 0.69756
 C498 C 0.70239 0.17116 0.71422
 C499 C 0.59798 0.09317 0.61660
 C500 C 0.58056 0.07866 0.59821
 H501 H 0.63508 0.14560 0.59310
 H502 H 0.62298 0.17645 0.66174
 H503 H 0.69006 0.12377 0.62512
 H504 H 0.65696 0.07507 0.65340
 H505 H 0.58977 0.12767 0.68994
 H506 H 0.64484 0.10588 0.72202
 C507 C 0.63773 0.63766 0.12100
 C508 C 0.63078 0.65442 0.15835
 C509 C 0.66038 0.64206 0.17537
 C510 C 0.66766 0.62558 0.13834
 C511 C 0.62023 0.61137 0.13714
 C512 C 0.64984 0.59904 0.15417
 C513 C 0.61290 0.62784 0.17417
 C514 C 0.64288 0.61577 0.19153
 C515 C 0.68327 0.65885 0.19619
 C516 C 0.70263 0.67234 0.21285
 C517 C 0.59842 0.59398 0.11540
 C518 C 0.58102 0.57940 0.09706
 H519 H 0.63537 0.64647 0.09175
 H520 H 0.62320 0.67739 0.16032
 H521 H 0.69042 0.62482 0.12382
 H522 H 0.65745 0.57608 0.15222
 H523 H 0.59013 0.62857 0.18865
 H524 H 0.64526 0.60696 0.22077
   
