data_POSCAR
  _audit_creation_date              2014-09-24
  _audit_creation_method            'ToBaCCo'
  _symmetry_space_group_name_H-M    'P1'
  _symmetry_Int_Tables_number       1
  _symmetry_cell_setting            triclinic
  loop_
  _symmetry_equiv_pos_as_xyz
 x,y,z
_cell_length_a 39.1278
_cell_length_b 39.4373
_cell_length_c 39.3339
_cell_angle_alpha 89.953400
_cell_angle_beta 89.953100
_cell_angle_gamma 89.859400
loop_
  _atom_site_label
  _atom_site_type_symbol
  _atom_site_fract_x
  _atom_site_fract_y
  _atom_site_fract_z
N1 N 0.20981 0.20854 0.20847
 N2 N 0.70966 0.70928 0.70821
 N3 N 0.29218 0.79450 0.70661
 N4 N 0.78939 0.29246 0.20976
 N5 N 0.79221 0.70894 0.28886
 N6 N 0.29114 0.21031 -0.21364
 N7 N 0.70670 0.29363 -0.20882
 N8 N 0.20609 0.79306 0.29253
 N9 N 0.45985 0.46442 0.46111
 N10 N -0.04199 -0.03895 0.95942
 N11 N 1.04591 0.54041 0.95982
 N12 N 0.54201 0.03857 0.45997
 N13 N -0.03646 0.03770 0.53605
 N14 N 0.45834 0.54262 0.03979
 N15 N 0.54465 -0.04444 0.04371
 N16 N 1.03890 0.45857 0.54184
 C17 C 0.42827 0.01410 0.20542
 H18 H 0.42994 0.03695 0.22053
 C19 C 0.45068 0.00908 0.17825
 H20 H 0.46957 0.02828 0.17248
 C21 C 0.40175 -0.03879 0.19488
 H22 H 0.38280 -0.05751 0.20157
 C23 C 0.42364 -0.04485 0.16747
 H24 H 0.42037 -0.06789 0.15299
 N25 N 0.40425 -0.00957 0.21305
 C26 C 0.32340 0.04510 0.26641
 H27 H 0.32204 0.03045 0.28964
 C28 C 0.30109 0.07233 0.26137
 H29 H 0.28329 0.07871 0.28140
 C30 C 0.34918 0.05456 0.21273
 H31 H 0.36762 0.04729 0.19362
 C32 C 0.32733 0.08193 0.20660
 H33 H 0.32941 0.09569 0.18285
 Zn34 Zn 0.37544 -0.00109 0.25081
 N35 N 0.34702 0.03693 0.24238
 C36 C 0.40175 0.03610 0.30699
 N37 N 0.40397 0.00681 0.28887
 C38 C 0.42770 -0.01722 0.29659
 C39 C 0.44978 -0.01277 0.32410
 C40 C 0.42327 0.04157 0.33474
 C41 C 0.32233 -0.04562 0.23499
 C42 C 0.29946 -0.07231 0.23982
 C43 C 0.32613 -0.08383 0.29399
 C44 C 0.34847 -0.05687 0.28813
 N45 N 0.34635 -0.03855 0.25889
 H46 H 0.38346 0.05538 0.29992
 H47 H 0.42950 -0.03989 0.28120
 H48 H 0.46874 -0.03209 0.32913
 H49 H 0.42102 0.06497 0.34899
 H50 H 0.32095 -0.03039 0.21214
 H51 H 0.28053 -0.07758 0.22047
 H52 H 0.32906 -0.09842 0.31708
 H53 H 0.36740 -0.05062 0.30705
 C54 C 0.30268 0.09099 0.23089
 C55 C 0.44877 -0.02079 0.15900
 C56 C 0.30092 -0.09164 0.26973
 C57 C 0.44739 0.01684 0.34392
 C58 C 0.07143 -0.01476 0.70483
 H59 H 0.06976 -0.03734 0.72038
 C60 C 0.04922 -0.01037 0.67741
 H61 H 0.03048 -0.02978 0.67191
 C62 C 0.09781 0.03802 0.69331
 H63 H 0.11665 0.05693 0.69968
 C64 C 0.07613 0.04343 0.66562
 H65 H 0.07943 0.06619 0.65066
 N66 N 0.09531 0.00914 0.71206
 C67 C 0.17666 -0.04418 0.76589
 H68 H 0.17836 -0.02894 0.78868
 C69 C 0.19879 -0.07161 0.76129
 H70 H 0.21744 -0.07748 0.78077
 C71 C 0.15064 -0.05460 0.71256
 H72 H 0.13236 -0.04744 0.69329
 C73 C 0.17231 -0.08222 0.70688
 H74 H 0.17038 -0.09564 0.68301
 Zn75 Zn 0.12419 0.00138 0.74989
 N76 N 0.15284 -0.03654 0.74192
 C77 C 0.09833 -0.03552 0.80646
 N78 N 0.09581 -0.00635 0.78815
 C79 C 0.07191 0.01753 0.79583
 C80 C 0.04996 0.01303 0.82348
 C81 C 0.07695 -0.04105 0.83433
 C82 C 0.17702 0.04594 0.73330
 C83 C 0.19944 0.07313 0.73737
 C84 C 0.17241 0.08555 0.79119
 C85 C 0.15057 0.05807 0.78611
 N86 N 0.15293 0.03920 0.75728
 H87 H 0.11675 -0.05470 0.79943
 H88 H 0.06986 0.04010 0.78029
 H89 H 0.03085 0.03222 0.82850
 H90 H 0.07943 -0.06436 0.84872
 H91 H 0.17888 0.02999 0.71100
 H92 H 0.21871 0.07732 0.71814
 H93 H 0.17006 0.10041 0.81423
 H94 H 0.13190 0.05181 0.80533
 C95 C 0.19652 -0.09133 0.73172
 C96 C 0.05122 0.01908 0.65750
 C97 C 0.19699 0.09368 0.76652
 C98 C 0.05265 -0.01648 0.84347
 C99 C 0.57127 0.48651 0.20421
 H100 H 0.56972 0.46373 0.21947
 C101 C 0.54867 0.49137 0.17720
 H102 H 0.52978 0.47211 0.17172
 C103 C 0.59761 0.53941 0.19317
 H104 H 0.61649 0.55824 0.19965
 C105 C 0.57554 0.54530 0.16588
 H106 H 0.57863 0.56831 0.15127
 N107 N 0.59530 0.51025 0.21150
 C108 C 0.67520 0.45478 0.26537
 H109 H 0.67698 0.46977 0.28832
 C110 C 0.69668 0.42681 0.26084
 H111 H 0.71521 0.42091 0.28036
 C112 C 0.64984 0.44572 0.21148
 H113 H 0.63196 0.45347 0.19205
 C114 C 0.67088 0.41763 0.20584
 H115 H 0.66873 0.40377 0.18218
 Zn116 Zn 0.62409 0.50177 0.24922
 N117 N 0.65200 0.46334 0.24110
 C118 C 0.59643 0.46466 0.30486
 N119 N 0.59532 0.49431 0.28721
 C120 C 0.57234 0.51898 0.29515
 C121 C 0.54987 0.51477 0.32241
 C122 C 0.57441 0.45937 0.33229
 C123 C 0.67675 0.54683 0.23276
 C124 C 0.69952 0.57364 0.23745
 C125 C 0.67453 0.58339 0.29277
 C126 C 0.65220 0.55646 0.28698
 N127 N 0.65348 0.53899 0.25721
 H128 H 0.61412 0.44491 0.29758
 H129 H 0.57140 0.54193 0.28009
 H130 H 0.53147 0.53458 0.32765
 H131 H 0.57568 0.43564 0.34614
 H132 H 0.67742 0.53231 0.20944
 H133 H 0.71699 0.57981 0.21708
 H134 H 0.67311 0.59706 0.31661
 H135 H 0.63408 0.54943 0.30644
 C136 C 0.69432 0.40753 0.23086
 C137 C 0.55040 0.52115 0.15777
 C138 C 0.69876 0.59219 0.26800
 C139 C 0.55103 0.48471 0.34168
 C140 C 0.92856 0.51615 0.70830
 H141 H 0.92987 0.53901 0.72344
 C142 C 0.95138 0.51134 0.68142
 H143 H 0.97040 0.53059 0.67660
 C144 C 0.90314 0.46269 0.69799
 H145 H 0.88473 0.44352 0.70491
 C146 C 0.92550 0.45680 0.67092
 H147 H 0.92382 0.43319 0.65697
 N148 N 0.90480 0.49219 0.71579
 C149 C 0.82487 0.54796 0.76936
 H150 H 0.82350 0.53354 0.79273
 C151 C 0.80312 0.57564 0.76438
 H152 H 0.78512 0.58251 0.78416
 C153 C 0.84958 0.55602 0.71497
 H154 H 0.86714 0.54781 0.69544
 C155 C 0.82822 0.58380 0.70886
 H156 H 0.82972 0.59623 0.68441
 Zn157 Zn 0.87577 0.50060 0.75336
 N158 N 0.84784 0.53901 0.74501
 C159 C 0.90353 0.53780 0.80884
 N160 N 0.90431 0.50797 0.79151
 C161 C 0.92691 0.48308 0.79982
 C162 C 0.94923 0.48726 0.82716
 C163 C 0.92548 0.54310 0.83631
 C164 C 0.82303 0.45604 0.73641
 C165 C 0.80010 0.42930 0.74070
 C166 C 0.82505 0.41827 0.79577
 C167 C 0.84747 0.44527 0.79043
 N168 N 0.84627 0.46334 0.76098
 H169 H 0.88632 0.55779 0.80109
 H170 H 0.92756 0.45992 0.78511
 H171 H 0.96692 0.46706 0.83350
 H172 H 0.92475 0.56738 0.84901
 H173 H 0.82236 0.47107 0.71339
 H174 H 0.78184 0.42380 0.72078
 H175 H 0.82730 0.40387 0.81905
 H176 H 0.86573 0.45174 0.80992
 C177 C 0.80482 0.59422 0.73399
 C178 C 0.94975 0.48141 0.66204
 C179 C 0.80069 0.41016 0.77077
 C180 C 0.94849 0.51739 0.84608
 C181 C 0.20894 0.42523 0.01373
 H182 H 0.22366 0.42633 0.03697
 C183 C 0.18232 0.44825 0.00833
 H184 H 0.17639 0.46643 0.02806
 C185 C 0.19866 0.39938 -0.03963
 H186 H 0.20540 0.38066 -0.05850
 C187 C 0.17178 0.42184 -0.04604
 H188 H 0.15781 0.41995 -0.06973
 N189 N 0.21643 0.40127 -0.00998
 C190 C 0.26825 0.32074 0.04615
 H191 H 0.29140 0.31843 0.03127
 C192 C 0.26302 0.29956 0.07412
 H193 H 0.28221 0.28072 0.08014
 C194 C 0.21453 0.34719 0.05491
 H195 H 0.19546 0.36540 0.04705
 C196 C 0.20820 0.32645 0.08301
 H197 H 0.18436 0.32915 0.09677
 Zn198 Zn 0.25368 0.37188 -0.00091
 N199 N 0.24442 0.34434 0.03745
 C200 C 0.30967 0.39788 0.03707
 N201 N 0.29233 0.39952 0.00715
 C202 C 0.30136 0.42197 -0.01749
 C203 C 0.32921 0.44352 -0.01279
 C204 C 0.33765 0.41901 0.04287
 C205 C 0.23669 0.31999 -0.04623
 C206 C 0.24106 0.29753 -0.07332
 C207 C 0.29726 0.32099 -0.08264
 C208 C 0.29177 0.34307 -0.05544
 N209 N 0.26163 0.34255 -0.03820
 H210 H 0.30181 0.38030 0.05661
 H211 H 0.28686 0.42306 -0.04088
 H212 H 0.33611 0.46115 -0.03277
 H213 H 0.35140 0.41644 0.06656
 H214 H 0.21334 0.31949 -0.03149
 H215 H 0.22097 0.27955 -0.07875
 H216 H 0.32134 0.32185 -0.09623
 H217 H 0.31172 0.36043 -0.04805
 C218 C 0.23280 0.30263 0.09327
 C219 C 0.16349 0.44687 -0.02209
 C220 C 0.27157 0.29820 -0.09225
 C221 C 0.34760 0.44246 0.01778
 C222 C 0.70250 0.07619 -0.01576
 H223 H 0.71714 0.07537 -0.03910
 C224 C 0.67536 0.05377 -0.01093
 H225 H 0.66913 0.03576 -0.03074
 C226 C 0.69315 0.10043 0.03855
 H227 H 0.70035 0.11840 0.05793
 C228 C 0.66588 0.07842 0.04449
 H229 H 0.65192 0.08067 0.06812
 N230 N 0.71064 0.09914 0.00868
 C231 C 0.76420 0.17973 -0.04539
 H232 H 0.78726 0.18113 -0.03030
 C233 C 0.75941 0.20203 -0.07256
 H234 H 0.77887 0.22076 -0.07767
 C235 C 0.71017 0.15463 -0.05526
 H236 H 0.69075 0.13660 -0.04805
 C237 C 0.70431 0.17645 -0.08263
 H238 H 0.68049 0.17469 -0.09652
 Zn239 Zn 0.74840 0.12794 0.00034
 N240 N 0.73996 0.15634 -0.03756
 C241 C 0.80444 0.10137 -0.03751
 N242 N 0.78674 0.09973 -0.00778
 C243 C 0.79523 0.07693 0.01677
 C244 C 0.82292 0.05503 0.01218
 C245 C 0.83228 0.07987 -0.04320
 C246 C 0.73155 0.17917 0.04661
 C247 C 0.73630 0.20167 0.07358
 C248 C 0.79268 0.17802 0.08194
 C249 C 0.78677 0.15588 0.05491
 N250 N 0.75646 0.15666 0.03803
 H251 H 0.79702 0.11929 -0.05693
 H252 H 0.78046 0.07589 0.04001
 H253 H 0.82944 0.03715 0.03209
 H254 H 0.84640 0.08240 -0.06670
 H255 H 0.70782 0.17949 0.03250
 H256 H 0.71556 0.21853 0.08026
 H257 H 0.81699 0.17705 0.09507
 H258 H 0.80660 0.13839 0.04725
 C259 C 0.72922 0.20026 -0.09189
 C260 C 0.65684 0.05446 0.01960
 C261 C 0.76744 0.20149 0.09149
 C262 C 0.84169 0.05609 -0.01819
 C263 C 0.20091 0.57457 0.48526
 H264 H 0.21649 0.57292 0.46257
 C265 C 0.17351 0.55238 0.48975
 H266 H 0.16875 0.53351 0.47042
 C267 C 0.18998 0.60020 0.53862
 H268 H 0.19683 0.61841 0.55790
 C269 C 0.16232 0.57857 0.54413
 H270 H 0.14789 0.58066 0.56756
 N271 N 0.20834 0.59815 0.50931
 C272 C 0.26250 0.67884 0.45610
 H273 H 0.28533 0.68042 0.47152
 C274 C 0.25790 0.70113 0.42888
 H275 H 0.27726 0.72004 0.42410
 C276 C 0.20890 0.65320 0.44536
 H277 H 0.18960 0.63490 0.45220
 C278 C 0.20326 0.67497 0.41791
 H279 H 0.17969 0.67294 0.40362
 Zn280 Zn 0.24643 0.62662 0.50138
 N281 N 0.23838 0.65521 0.46354
 C282 C 0.30247 0.60005 0.46364
 N283 N 0.28457 0.59814 0.49323
 C284 C 0.29251 0.57473 0.51738
 C285 C 0.32003 0.55262 0.51269
 C286 C 0.33015 0.57839 0.45787
 C287 C 0.23021 0.67822 0.54748
 C288 C 0.23502 0.70021 0.57485
 C289 C 0.29035 0.67466 0.58443
 C290 C 0.28444 0.65312 0.55690
 N291 N 0.25455 0.65494 0.53936
 H292 H 0.29521 0.61815 0.44434
 H293 H 0.27728 0.57320 0.54029
 H294 H 0.32529 0.53388 0.53208
 H295 H 0.34421 0.58030 0.43421
 H296 H 0.20699 0.67965 0.53263
 H297 H 0.21525 0.71847 0.58107
 H298 H 0.31465 0.67307 0.59740
 H299 H 0.30401 0.63530 0.54934
 C300 C 0.22805 0.69906 0.40906
 C301 C 0.15348 0.55453 0.51941
 C302 C 0.26519 0.69836 0.59400
 C303 C 0.33956 0.55460 0.48270
 C304 C 0.70708 0.92459 0.51523
 H305 H 0.72244 0.92600 0.53805
 C306 C 0.67949 0.94667 0.51086
 H307 H 0.67364 0.96501 0.53052
 C308 C 0.69634 0.89916 0.46178
 H309 H 0.70312 0.88083 0.44255
 C310 C 0.66851 0.92074 0.45635
 H311 H 0.65381 0.91780 0.43329
 N312 N 0.71478 0.90122 0.49100
 C313 C 0.76965 0.82037 0.54376
 H314 H 0.79229 0.81860 0.52805
 C315 C 0.76558 0.79856 0.57144
 H316 H 0.78525 0.78001 0.57702
 C317 C 0.71629 0.84648 0.55530
 H318 H 0.69680 0.86469 0.54855
 C319 C 0.71125 0.82528 0.58331
 H320 H 0.68767 0.82742 0.59754
 Zn321 Zn 0.75310 0.87278 0.49869
 N322 N 0.74541 0.84407 0.53654
 C323 C 0.80860 0.89944 0.53669
 N324 N 0.79098 0.90136 0.50696
 C325 C 0.79884 0.92500 0.48304
 C326 C 0.82591 0.94740 0.48821
 C327 C 0.83585 0.92137 0.54294
 C328 C 0.73713 0.82144 0.45230
 C329 C 0.74169 0.80007 0.42437
 C330 C 0.79665 0.82606 0.41449
 C331 C 0.79098 0.84701 0.44255
 N332 N 0.76133 0.84473 0.46047
 H333 H 0.80126 0.88128 0.55589
 H334 H 0.78394 0.92646 0.45992
 H335 H 0.83187 0.96599 0.46882
 H336 H 0.84873 0.91966 0.56717
 H337 H 0.71418 0.81955 0.46755
 H338 H 0.72220 0.78151 0.41874
 H339 H 0.82030 0.82834 0.40035
 H340 H 0.81038 0.86494 0.45000
 C341 C 0.73639 0.80124 0.59197
 C342 C 0.65992 0.94514 0.48104
 C343 C 0.77163 0.80261 0.40473
 C344 C 0.84506 0.94560 0.51830
 C345 C 0.01735 0.20456 0.42580
 H346 H 0.04064 0.21928 0.42641
 C347 C 0.01321 0.17725 0.44802
 H348 H 0.03338 0.17164 0.46594
 C349 C -0.03779 0.19564 0.40270
 H350 H -0.05786 0.20325 0.38547
 C351 C -0.04308 0.16822 0.42457
 H352 H -0.06712 0.15469 0.42366
 N353 N -0.00773 0.21287 0.40338
 C354 C 0.04627 0.26709 0.32296
 H355 H 0.03210 0.29068 0.32270
 C356 C 0.07326 0.26220 0.30021
 H357 H 0.07989 0.28270 0.28323
 C358 C 0.05469 0.21233 0.34630
 H359 H 0.04706 0.19272 0.36389
 C360 C 0.08173 0.20629 0.32391
 H361 H 0.09491 0.18211 0.32482
 Zn362 Zn 0.00004 0.25067 0.37471
 N363 N 0.03775 0.24247 0.34562
 C364 C 0.03804 0.30615 0.40158
 N365 N 0.00833 0.28838 0.40327
 C366 C -0.01628 0.29641 0.42632
 C367 C -0.01189 0.32375 0.44836
 C368 C 0.04354 0.33369 0.42321
 C369 C -0.04710 0.23440 0.32394
 C370 C -0.07453 0.23929 0.30178
 C371 C -0.08305 0.29490 0.32610
 C372 C -0.05550 0.28890 0.34784
 N373 N -0.03830 0.25892 0.34655
 H374 H 0.05757 0.29906 0.38352
 H375 H -0.03948 0.28157 0.42741
 H376 H -0.03190 0.32993 0.46638
 H377 H 0.06699 0.34790 0.42061
 H378 H -0.03278 0.21090 0.32327
 H379 H -0.08142 0.21892 0.28477
 H380 H -0.09644 0.31894 0.32744
 H381 H -0.04769 0.30842 0.36541
 C382 C 0.09125 0.23123 0.30030
 C383 C -0.01725 0.15839 0.44726
 C384 C -0.09273 0.27011 0.30246
 C385 C 0.01838 0.34269 0.44717
 C386 C -0.01515 0.70376 0.07081
 H387 H -0.03808 0.71904 0.06908
 C388 C -0.01084 0.67586 0.04940
 H389 H -0.03064 0.66967 0.03122
 C390 C 0.03878 0.69363 0.09629
 H391 H 0.05840 0.70106 0.11404
 C392 C 0.04407 0.66541 0.07549
 H393 H 0.06795 0.65169 0.07747
 N394 N 0.00929 0.71182 0.09397
 C395 C -0.04512 0.76733 0.17322
 H396 H -0.03108 0.79093 0.17326
 C397 C -0.07209 0.76259 0.19601
 H398 H -0.07885 0.78321 0.21280
 C399 C -0.05324 0.71239 0.15038
 H400 H -0.04552 0.69267 0.13294
 C401 C -0.08025 0.70650 0.17281
 H402 H -0.09329 0.68231 0.17211
 Zn403 Zn 0.00130 0.75028 0.12168
 N404 N -0.03643 0.74252 0.15083
 C405 C -0.03729 0.80486 0.09361
 N406 N -0.00732 0.78738 0.09227
 C407 C 0.01692 0.79487 0.06867
 C408 C 0.01197 0.82154 0.04580
 C409 C -0.04334 0.83169 0.07119
 C410 C 0.04791 0.73529 0.17337
 C411 C 0.07564 0.74031 0.19507
 C412 C 0.08539 0.79458 0.16830
 C413 C 0.05750 0.78847 0.14703
 N414 N 0.03961 0.75905 0.14969
 H415 H -0.05672 0.79791 0.11181
 H416 H 0.04013 0.77994 0.06757
 H417 H 0.03148 0.82641 0.02697
 H418 H -0.06731 0.84543 0.07266
 H419 H 0.03297 0.71232 0.17527
 H420 H 0.08200 0.72100 0.21363
 H421 H 0.09963 0.81779 0.16492
 H422 H 0.05021 0.80731 0.12846
 C423 C -0.08990 0.73160 0.19621
 C424 C 0.01880 0.65598 0.05192
 C425 C 0.09466 0.77033 0.19291
 C426 C -0.01842 0.84065 0.04717
 C427 C 0.48464 0.20512 0.56922
 H428 H 0.46131 0.21988 0.56860
 C429 C 0.48909 0.17813 0.54667
 H430 H 0.46903 0.17285 0.52858
 C431 C 0.53968 0.19590 0.59256
 H432 H 0.55961 0.20329 0.60999
 C433 C 0.54523 0.16876 0.57043
 H434 H 0.56933 0.15522 0.57137
 N435 N 0.50957 0.21319 0.59185
 C436 C 0.45637 0.26684 0.67325
 H437 H 0.47122 0.28993 0.67416
 C438 C 0.42930 0.26214 0.69591
 H439 H 0.42400 0.28169 0.71445
 C440 C 0.44691 0.21274 0.64893
 H441 H 0.45420 0.19330 0.63100
 C442 C 0.41972 0.20693 0.67119
 H443 H 0.40606 0.18310 0.66991
 Zn444 Zn 0.50171 0.25087 0.62065
 N445 N 0.46430 0.24254 0.65003
 C446 C 0.46279 0.30622 0.59457
 N447 N 0.49265 0.28863 0.59229
 C448 C 0.51663 0.29672 0.56863
 C449 C 0.51161 0.32421 0.54680
 C450 C 0.45667 0.33385 0.57318
 C451 C 0.54950 0.23503 0.67117
 C452 C 0.57741 0.24003 0.69266
 C453 C 0.58565 0.29522 0.66732
 C454 C 0.55760 0.28912 0.64627
 N455 N 0.54035 0.25929 0.64833
 H456 H 0.44357 0.29881 0.61280
 H457 H 0.53975 0.28172 0.56677
 H458 H 0.53092 0.32968 0.52791
 H459 H 0.43285 0.34773 0.57543
 H460 H 0.53506 0.21170 0.67260
 H461 H 0.58443 0.22035 0.71059
 H462 H 0.59932 0.31882 0.66441
 H463 H 0.54964 0.30836 0.62840
 C464 C 0.41027 0.23194 0.69474
 C465 C 0.51966 0.15927 0.54737
 C466 C 0.59575 0.27051 0.69114
 C467 C 0.48144 0.34352 0.54929
 C468 C 0.51609 0.70598 0.92639
 H469 H 0.53951 0.72049 0.92718
 C470 C 0.51122 0.67914 0.94905
 H471 H 0.53099 0.67365 0.96746
 C472 C 0.46130 0.69718 0.90243
 H473 H 0.44164 0.70465 0.88468
 C474 C 0.45530 0.67024 0.92469
 H475 H 0.43114 0.65694 0.92357
 N476 N 0.49153 0.71410 0.90333
 C477 C 0.54599 0.76559 0.82152
 H478 H 0.53151 0.78896 0.82019
 C479 C 0.57293 0.75992 0.79890
 H480 H 0.57934 0.77955 0.78079
 C481 C 0.55530 0.71215 0.84752
 H482 H 0.54804 0.69333 0.86609
 C483 C 0.58248 0.70547 0.82546
 H484 H 0.59615 0.68164 0.82755
 Zn485 Zn 0.50007 0.75121 0.87400
 N486 N 0.53785 0.74195 0.84534
 C487 C 0.53894 0.80638 0.90002
 N488 N 0.50882 0.78933 0.90185
 C489 C 0.48434 0.79821 0.92475
 C490 C 0.48942 0.82561 0.94658
 C491 C 0.54516 0.83388 0.92151
 C492 C 0.45333 0.73463 0.82302
 C493 C 0.42573 0.73915 0.80101
 C494 C 0.41694 0.79493 0.82485
 C495 C 0.44472 0.78931 0.84643
 N496 N 0.46194 0.75933 0.84550
 H497 H 0.55830 0.79864 0.88203
 H498 H 0.46079 0.78394 0.92596
 H499 H 0.46957 0.83242 0.96456
 H500 H 0.56900 0.84745 0.91892
 H501 H 0.46794 0.71131 0.82231
 H502 H 0.41909 0.71909 0.78343
 H503 H 0.40418 0.81926 0.82572
 H504 H 0.45268 0.80912 0.86360
 C505 C 0.59139 0.72931 0.80054
 C506 C 0.48059 0.66058 0.94804
 C507 C 0.40683 0.76939 0.80202
 C508 C 0.52023 0.84365 0.94540
 C509 C 0.18247 0.21524 0.23234
 C510 C 0.15501 0.23429 0.22463
 C511 C 0.12668 0.24178 0.24849
 C512 C 0.12019 0.22398 0.27691
 H513 H 0.15293 0.24594 0.19984
 H514 H 0.10965 0.26198 0.24083
 H515 H 0.18494 0.20499 0.25769
 H516 H 0.13568 0.20204 0.28289
 C517 C 0.68259 0.71558 0.73232
 C518 C 0.65223 0.72839 0.72287
 C519 C 0.62376 0.73576 0.74653
 C520 C 0.62038 0.72171 0.77744
 H521 H 0.64801 0.73490 0.69647
 H522 H 0.60401 0.75241 0.73692
 H523 H 0.68708 0.70870 0.75857
 H524 H 0.63840 0.70259 0.78576
 C525 C 0.32195 0.78990 0.72777
 C526 C 0.32247 0.79990 0.76038
 C527 C 0.35209 0.79578 0.78339
 C528 C 0.37770 0.77364 0.77826
 H529 H 0.30027 0.81247 0.77098
 H530 H 0.35137 0.81067 0.80645
 H531 H 0.34405 0.77758 0.71677
 H532 H 0.37674 0.75658 0.75678
 C533 C -0.18402 0.28574 0.23433
 C534 C -0.15570 0.26812 0.22635
 C535 C -0.12721 0.26095 0.25008
 C536 C -0.12206 0.27722 0.27961
 H537 H -0.15282 0.25793 0.20098
 H538 H -0.10886 0.24233 0.24143
 H539 H -0.18662 0.29659 0.25939
 H540 H -0.13877 0.29782 0.28690
 C541 C -0.18063 0.71556 0.26477
 C542 C -0.15340 0.73495 0.27209
 C543 C -0.12526 0.74240 0.24802
 C544 C -0.11873 0.72444 0.21972
 H545 H -0.15137 0.74692 0.29669
 H546 H -0.10839 0.76273 0.25544
 H547 H -0.18311 0.70505 0.23955
 H548 H -0.13406 0.70242 0.21396
 C549 C 0.31974 0.21374 0.76341
 C550 C 0.33389 0.24399 0.75662
 C551 C 0.36292 0.24969 0.73310
 C552 C 0.38142 0.22508 0.71823
 H553 H 0.32314 0.26648 0.76826
 H554 H 0.36890 0.27595 0.72798
 H555 H 0.32872 0.19121 0.75058
 H556 H 0.37508 0.19877 0.72236
 C557 C 0.67858 0.28734 0.76838
 C558 C 0.66743 0.31055 0.74593
 C559 C 0.63807 0.30552 0.72278
 C560 C 0.62537 0.27509 0.71420
 H561 H 0.67912 0.33537 0.74531
 H562 H 0.62703 0.32838 0.71229
 H563 H 0.66516 0.26352 0.77091
 H564 H 0.63653 0.25228 0.72473
 C565 C 0.17770 0.78697 0.27001
 C566 C 0.16690 0.81003 0.24722
 C567 C 0.13749 0.80514 0.22409
 C568 C 0.12421 0.77481 0.21609
 H569 H 0.17904 0.83463 0.24618
 H570 H 0.12696 0.82798 0.21306
 H571 H 0.16387 0.76344 0.27296
 H572 H 0.13482 0.75200 0.22716
 C573 C 0.23432 0.18187 0.21498
 C574 C 0.22604 0.15366 0.23228
 C575 C 0.24969 0.12513 0.23935
 C576 C 0.27983 0.12023 0.22371
 H577 H 0.20043 0.15092 0.24227
 H578 H 0.24052 0.10663 0.25745
 H579 H 0.25958 0.18433 0.20421
 H580 H 0.28775 0.13718 0.20362
 C581 C 0.73107 0.68011 0.71428
 C582 C 0.76247 0.67706 0.70072
 C583 C 0.78569 0.64778 0.70595
 C584 C 0.78103 0.62325 0.72922
 H585 H 0.77208 0.69695 0.68437
 H586 H 0.80835 0.64760 0.69024
 H587 H 0.72128 0.66061 0.73093
 H588 H 0.75970 0.62473 0.74662
 C589 C 0.73094 0.32033 0.78434
 C590 C 0.74279 0.34019 0.80934
 C591 C 0.76743 0.36826 0.80473
 C592 C 0.77616 0.38173 0.77458
 H593 H 0.73442 0.33537 0.83514
 H594 H 0.77760 0.37890 0.82791
 H595 H 0.73844 0.32459 0.75825
 H596 H 0.76400 0.37285 0.75161
 C597 C 0.23077 -0.18079 0.28517
 C598 C 0.24332 -0.16093 0.30983
 C599 C 0.26830 -0.13328 0.30458
 C600 C 0.27627 -0.11985 0.27421
 H601 H 0.23526 -0.16540 0.33580
 H602 H 0.27927 -0.12281 0.32747
 H603 H 0.23805 -0.17690 0.25896
 H604 H 0.26326 -0.12850 0.25161
 C605 C 0.27094 -0.17588 0.71102
 C606 C 0.23786 -0.17564 0.70199
 C607 C 0.21466 -0.14625 0.70613
 C608 C 0.22044 -0.12026 0.72738
 H609 H 0.22697 -0.19798 0.69030
 H610 H 0.19096 -0.14744 0.69209
 H611 H 0.28226 -0.15367 0.72247
 H612 H 0.24268 -0.12067 0.74368
 C613 C 0.76880 0.32248 0.21389
 C614 C 0.75227 0.32883 0.24306
 C615 C 0.73082 0.35916 0.24913
 C616 C 0.71642 0.37765 0.22430
 H617 H 0.75507 0.31130 0.26408
 H618 H 0.72535 0.36500 0.27544
 H619 H 0.76694 0.33998 0.19281
 H620 H 0.71924 0.36976 0.19810
 C621 C 0.76752 0.68254 0.28245
 C622 C 0.77555 0.65425 0.26515
 C623 C 0.75165 0.62600 0.25832
 C624 C 0.72200 0.62109 0.27482
 H625 H 0.80107 0.65125 0.25496
 H626 H 0.76025 0.60769 0.23975
 H627 H 0.74231 0.68527 0.29329
 H628 H 0.71481 0.63783 0.29536
 C629 C 0.26909 0.18119 0.78359
 C630 C 0.26044 0.16817 0.75327
 C631 C 0.23757 0.13874 0.74804
 C632 C 0.22000 0.12290 0.77273
 H633 H 0.27057 0.17976 0.73044
 H634 H 0.23468 0.13073 0.72194
 H635 H 0.25877 0.17068 0.80677
 H636 H 0.22119 0.13210 0.79855
 C637 C 0.21418 0.22920 0.17858
 C638 C 0.24372 0.24519 0.17234
 C639 C 0.25025 0.26640 0.14201
 C640 C 0.22560 0.28091 0.12321
 H641 H 0.26475 0.24204 0.18994
 H642 H 0.27679 0.27153 0.13637
 H643 H 0.19304 0.23146 0.16107
 H644 H 0.19915 0.27845 0.13085
 C645 C 0.71425 0.72982 0.67814
 C646 C 0.71014 0.76359 0.67889
 C647 C 0.71396 0.78595 0.64896
 C648 C 0.73257 0.77806 0.62139
 H649 H 0.70231 0.77559 0.70239
 H650 H 0.70219 0.81072 0.65089
 H651 H 0.72191 0.71733 0.65487
 H652 H 0.74714 0.75471 0.62089
 C653 C 0.78833 0.72926 0.31902
 C654 C 0.75897 0.74545 0.32585
 C655 C 0.75307 0.76654 0.35638
 C656 C 0.77813 0.78076 0.37474
 H657 H 0.73764 0.74267 0.30857
 H658 H 0.72665 0.77192 0.36249
 H659 H 0.80976 0.73115 0.33623
 H660 H 0.80441 0.77803 0.36662
 C661 C 0.28832 0.23231 -0.18445
 C662 C 0.25814 0.23840 -0.16933
 C663 C 0.25287 0.26123 -0.13990
 C664 C 0.27799 0.27508 -0.12130
 H665 H 0.23532 0.22690 -0.17970
 H666 H 0.22650 0.26674 -0.13372
 H667 H 0.31110 0.24507 -0.17582
 H668 H 0.30441 0.27037 -0.12775
 C669 C 0.71023 0.27123 -0.18003
 C670 C 0.74096 0.26258 -0.16748
 C671 C 0.74683 0.23933 -0.13844
 C672 C 0.72219 0.22341 -0.12083
 H673 H 0.76369 0.27285 -0.17929
 H674 H 0.77333 0.23500 -0.13199
 H675 H 0.68722 0.26010 -0.16981
 H676 H 0.69574 0.22625 -0.12809
 C677 C 0.20948 0.77095 0.32157
 C678 C 0.24017 0.76163 0.33372
 C679 C 0.24590 0.73866 0.36301
 C680 C 0.22123 0.72207 0.37994
 H681 H 0.26297 0.77129 0.32151
 H682 H 0.27234 0.73491 0.37004
 H683 H 0.18633 0.76072 0.33242
 H684 H 0.19496 0.72412 0.37182
 C685 C 0.28727 0.77304 0.67735
 C686 C 0.29653 0.74024 0.67741
 C687 C 0.29194 0.71694 0.64831
 C688 C 0.26983 0.72225 0.62275
 H689 H 0.30882 0.72971 0.69970
 H690 H 0.30643 0.69359 0.64939
 H691 H 0.27523 0.78397 0.65514
 H692 H 0.25311 0.74412 0.62340
 C693 C 0.78276 0.26877 0.18251
 C694 C 0.76399 0.27672 0.15502
 C695 C 0.75663 0.25304 0.12676
 C696 C 0.77454 0.22464 0.12039
 H697 H 0.75250 0.30155 0.15284
 H698 H 0.73648 0.26086 0.10968
 H699 H 0.79280 0.24335 0.18507
 H700 H 0.79650 0.21852 0.13591
 C701 C 0.46306 0.43537 0.48323
 C702 C 0.49353 0.42106 0.48979
 C703 C 0.49921 0.39145 0.51228
 C704 C 0.47442 0.37298 0.52689
 H705 H 0.51625 0.43203 0.47860
 H706 H 0.52569 0.38501 0.51689
 H707 H 0.44023 0.42606 0.49549
 H708 H 0.44791 0.37982 0.52345
 C709 C -0.03702 0.93297 -0.01758
 C710 C -0.00778 0.91506 -0.01647
 C711 C -0.00116 0.88658 0.00720
 C712 C -0.02562 0.86913 0.02353
 H713 H 0.01339 0.92234 -0.03259
 H714 H 0.02539 0.87980 0.01060
 H715 H -0.05722 0.92745 0.00037
 H716 H -0.05217 0.87599 0.02013
 C717 C 0.04199 0.57045 -0.01957
 C718 C 0.04642 0.56968 0.01423
 C719 C 0.04255 0.59958 0.03655
 C720 C 0.02295 0.62650 0.02894
 H721 H 0.05436 0.54625 0.02624
 H722 H 0.05497 0.59810 0.06106
 H723 H 0.03433 0.59373 -0.03200
 H724 H 0.00778 0.62636 0.00594
 C725 C 0.53724 0.06653 0.48311
 C726 C 0.50801 0.08443 0.48458
 C727 C 0.50171 0.11292 0.50826
 C728 C 0.52643 0.13059 0.52388
 H729 H 0.48666 0.07715 0.46874
 H730 H 0.47520 0.11960 0.51219
 H731 H 0.55761 0.07199 0.50085
 H732 H 0.55293 0.12384 0.51987
 C733 C -0.03352 0.06658 0.51368
 C734 C -0.00335 0.08141 0.50716
 C735 C 0.00174 0.11058 0.48398
 C736 C -0.02350 0.12931 0.47036
 H737 H 0.01957 0.07112 0.51866
 H738 H 0.02805 0.11659 0.47818
 H739 H -0.05628 0.07487 0.50051
 H740 H -0.04989 0.12306 0.47536
 C741 C 0.46190 0.57121 1.01718
 C742 C 0.49255 0.58435 1.00933
 C743 C 0.49833 0.61320 0.98589
 C744 C 0.47357 0.63199 0.97151
 H745 H 0.51530 0.57297 1.02008
 H746 H 0.52480 0.61873 0.98030
 H747 H 0.43904 0.58072 1.00506
 H748 H 0.44702 0.62606 0.97597
 C749 C 0.53699 0.92818 1.02062
 C750 C 0.56146 0.91259 1.00242
 C751 C 0.55573 0.88396 0.97874
 C752 C 0.52494 0.87270 0.96885
 H753 H 0.58777 0.92040 1.00563
 H754 H 0.57859 0.87169 0.96932
 H755 H 0.51088 0.91944 1.01938
 H756 H 0.50193 0.88424 0.97872
 C757 C 0.03210 0.43086 0.51891
 C758 C 0.05733 0.41388 0.50311
 C759 C 0.05251 0.38484 0.47972
 C760 C 0.02214 0.37194 0.47056
 H761 H 0.08355 0.42121 0.50776
 H762 H 0.07577 0.37349 0.47014
 H763 H 0.00587 0.42293 0.51613
 H764 H -0.00120 0.38215 0.48109
 C765 C 0.43076 0.48675 0.46442
 C766 C 0.41656 0.49352 0.49477
 C767 C 0.38703 0.51642 0.50047
 C768 C 0.36891 0.53172 0.47583
 H769 H 0.42756 0.48220 0.51734
 H770 H 0.38046 0.52083 0.52681
 H771 H 0.42138 0.49903 0.44172
 H772 H 0.37596 0.52847 0.44949
 C773 C 0.93018 -0.01601 -0.03329
 C774 C 0.91265 -0.00025 -0.05807
 C775 C 0.88344 0.02315 -0.05276
 C776 C 0.87116 0.03271 -0.02233
 H777 H 0.91958 -0.00498 -0.08428
 H778 H 0.87141 0.03243 -0.07570
 H779 H 0.92257 -0.01322 -0.00705
 H780 H 0.88203 0.02253 0.00075
 C781 C 0.57191 -0.02109 0.03588
 C782 C 0.58788 -0.00340 0.06030
 C783 C 0.61639 0.02062 0.05465
 C784 C 0.62804 0.03046 0.02408
 H785 H 0.58034 -0.00718 0.08651
 H786 H 0.62829 0.03027 0.07746
 H787 H 0.58013 -0.01914 0.00975
 H788 H 0.61706 0.02017 0.00113
 C789 C 0.06853 0.47999 0.53813
 C790 C 0.07794 0.49209 0.50766
 C791 C 0.10755 0.51461 0.50164
 C792 C 0.12412 0.53170 0.52609
 H793 H 0.06345 0.48467 0.48545
 H794 H 0.11469 0.51805 0.47532
 H795 H 0.08225 0.48703 0.56087
 H796 H 0.11518 0.53036 0.55206
 C797 C 0.07284 0.51604 -0.03439
 C798 C 0.10347 0.52508 -0.02204
 C799 C 0.13179 0.50114 -0.01515
 C800 C 0.13470 0.47031 -0.02932
 H801 H 0.10802 0.55134 -0.01552
 H802 H 0.15184 0.51046 0.00126
 H803 H 0.06801 0.48994 -0.04126
 H804 H 0.11637 0.46229 -0.04822
 C805 C 0.56981 1.01552 0.46699
 C806 C 0.58768 1.00051 0.44199
 C807 C 0.61685 0.97699 0.44696
 C808 C 0.63053 0.96870 0.47717
 H809 H 0.58083 1.00573 0.41584
 H810 H 0.62779 0.96678 0.42389
 H811 H 0.57697 1.01190 0.49325
 H812 H 0.62099 0.98022 0.50020
 C813 C 0.93638 1.01399 0.52923
 C814 C 0.92650 0.99037 0.55183
 C815 C 0.89858 0.96580 0.54605
 C816 C 0.87332 0.97014 0.52335
 H817 H 0.93974 0.98802 0.57584
 H818 H 0.89898 0.94362 0.56217
 H819 H 0.92351 1.01582 0.50498
 H820 H 0.87300 0.99252 0.50745
 C821 C 0.43020 0.51989 0.03367
 C822 C 0.41905 0.49781 0.05722
 C823 C 0.38975 0.47465 0.05246
 C824 C 0.37712 0.46560 0.02206
 H825 H 0.43074 0.49752 0.08214
 H826 H 0.37871 0.46453 0.07550
 H827 H 0.41680 0.52213 0.00974
 H828 H 0.38826 0.47579 -0.00094
 C829 C 0.48202 0.46744 0.43193
 C830 C 0.48935 0.49765 0.41799
 C831 C 0.51247 0.50305 0.38862
 C832 C 0.52772 0.47826 0.37072
 H833 H 0.47844 0.52032 0.42914
 H834 H 0.51720 0.52925 0.38209
 H835 H 0.49381 0.44459 0.42234
 H836 H 0.52415 0.45204 0.37778
 C837 C -0.02084 -0.03525 0.92957
 C838 C -0.00899 -0.00484 0.91990
 C839 C 0.01312 0.00120 0.88995
 C840 C 0.03015 -0.02317 0.87311
 H841 H -0.01636 0.01733 0.93443
 H842 H 0.01635 0.02745 0.88275
 H843 H -0.01384 -0.05793 0.91581
 H844 H 0.02907 -0.04908 0.88204
 C845 C -0.01268 0.03186 0.56348
 C846 C -0.00352 0.05691 0.58460
 C847 C 0.02023 0.05276 0.61356
 C848 C 0.02765 0.02286 0.62819
 H849 H -0.01330 0.08222 0.58005
 H850 H 0.03046 0.07594 0.62403
 H851 H -0.00319 0.00637 0.56723
 H852 H 0.01492 0.00013 0.61955
 C853 C 0.48263 0.53577 0.06654
 C854 C 0.49413 0.56058 0.08681
 C855 C 0.51861 0.55567 0.11507
 C856 C 0.52618 0.52551 0.12907
 H857 H 0.48566 0.58633 0.08215
 H858 H 0.52947 0.57859 0.12548
 H859 H 0.49042 0.50977 0.07056
 H860 H 0.51312 0.50298 0.12047
 C861 C 0.52124 -0.03673 0.07102
 C862 C 0.50459 -0.06123 0.08796
 C863 C 0.48055 -0.05566 0.11657
 C864 C 0.47277 -0.02532 0.13009
 H865 H 0.50894 -0.08740 0.08085
 H866 H 0.46946 -0.07839 0.12721
 H867 H 0.51833 -0.01049 0.07829
 H868 H 0.48503 -0.00266 0.12075
 C869 C 1.01558 0.46325 0.56987
 C870 C 1.01386 0.49232 0.58760
 C871 C 0.98992 0.49869 0.61606
 C872 C 0.97346 0.47435 0.63343
 H873 H 1.02975 0.51350 0.58022
 H874 H 0.98641 0.52500 0.62292
 H875 H 0.99792 0.44295 0.57548
 H876 H 0.97685 0.44804 0.62647
 C877 C 1.02386 0.53464 0.93106
 C878 C 0.99261 0.54867 0.92870
 C879 C 0.96880 0.54408 0.89980
 C880 C 0.97288 0.52134 0.87471
 H881 H 0.98356 0.56500 0.94890
 H882 H 0.94622 0.55990 0.90037
 H883 H 1.03306 0.51791 0.91132
 H884 H 0.99413 0.50382 0.87538
 C885 C 0.52076 0.03514 0.43018
 C886 C 0.50911 0.00478 0.42020
 C887 C 0.48686 -0.00105 0.39034
 C888 C 0.47001 0.02343 0.37346
 H889 H 0.51666 -0.01752 0.43445
 H890 H 0.48343 -0.02728 0.38321
 H891 H 0.51352 0.05796 0.41678
 H892 H 0.47134 0.04935 0.38224
   
