data_POSCAR
  _audit_creation_date              2014-09-24
  _audit_creation_method            'ToBaCCo'
  _symmetry_space_group_name_H-M    'P1'
  _symmetry_Int_Tables_number       1
  _symmetry_cell_setting            triclinic
  loop_
  _symmetry_equiv_pos_as_xyz
 x,y,z
_cell_length_a 20.8202
_cell_length_b 21.0565
_cell_length_c 21.0089
_cell_angle_alpha 88.529000
_cell_angle_beta 90.313400
_cell_angle_gamma 91.015400
loop_
  _atom_site_label
  _atom_site_type_symbol
  _atom_site_fract_x
  _atom_site_fract_y
  _atom_site_fract_z
C1 C 0.49797 0.97382 -0.67425
 C2 C 0.44437 0.95311 -0.63901
 C3 C 0.45209 0.94288 -0.57347
 C4 C 0.50731 0.96626 -0.54152
 C5 C 0.56171 0.98461 -0.57840
 C6 C 0.55734 0.98808 -0.64548
 C7 C 0.50270 0.97933 -0.47160
 C8 C 0.55715 0.98831 -0.43177
 C9 C 0.54945 1.00443 -0.36737
 C10 C 0.48735 1.00591 -0.34205
 C11 C 0.43329 0.99795 -0.38048
 C12 C 0.44124 0.98777 -0.44503
 H13 H 0.49381 0.97527 -0.72564
 H14 H 0.41260 0.92270 -0.54642
 H15 H 0.60560 1.00068 -0.55575
 H16 H 0.60513 0.98409 -0.45039
 H17 H 0.48067 1.01272 -0.29162
 H18 H 0.39848 0.98869 -0.47431
 C19 C -0.67473 1.50729 0.06434
 C20 C -0.64525 1.44841 0.06184
 C21 C -0.58027 1.44722 0.04491
 C22 C -0.54501 1.50330 0.02691
 C23 C -0.57856 1.56183 0.02618
 C24 C -0.64265 1.56445 0.04784
 C25 C -0.47373 1.49971 0.01141
 C26 C -0.43331 1.55485 0.00571
 C27 C -0.36683 1.54989 -0.00593
 C28 C -0.33985 1.48928 -0.00619
 C29 C -0.37781 1.43402 -0.00121
 C30 C -0.44448 1.43982 0.00410
 H31 H -0.72598 1.50843 0.07165
 H32 H -0.55803 1.40155 0.04824
 H33 H -0.55522 1.60576 0.01098
 H34 H -0.45244 1.60183 0.00972
 H35 H -0.28824 1.48492 -0.00937
 H36 H -0.47249 1.39661 0.00136
 C37 C -0.00361 0.33135 0.48584
 C38 C 0.00835 0.36818 0.43006
 C39 C 0.01209 0.43476 0.43549
 C40 C -0.00180 0.46466 0.49341
 C41 C -0.01803 0.42559 0.54685
 C42 C -0.01724 0.35936 0.54390
 C43 C 0.00078 0.53605 0.49816
 C44 C 0.00581 0.56531 0.55816
 C45 C 0.00557 0.63197 0.56345
 C46 C 0.00601 0.66899 0.50664
 C47 C 0.00609 0.64166 0.44669
 C48 C -0.00053 0.57572 0.44276
 H49 H -0.00294 0.28004 0.48438
 H50 H 0.02868 0.46285 0.39524
 H51 H -0.03228 0.44568 0.59126
 H52 H 0.01186 0.53632 0.60050
 H53 H 0.00566 0.72028 0.50844
 H54 H -0.00550 0.55633 0.39594
 O55 O -0.16456 1.01166 -0.08873
 O56 O 0.16433 1.01073 -0.09380
 O57 O -0.00569 1.10287 -0.16008
 O58 O 0.00070 0.93336 -0.17283
 O59 O -0.00106 0.84664 -0.10370
 O60 O 0.00382 1.17421 -0.07878
 O61 O 0.08499 1.01868 -0.17029
 O62 O -0.08679 1.01578 -0.16678
 Zr63 Zr -0.00015 1.01291 -0.11538
 O64 O 0.05739 0.94881 -0.06817
 O65 O -0.05508 1.06579 -0.05619
 C66 C -0.14584 1.01415 -0.14780
 C67 C 0.14454 1.01814 -0.15186
 C68 C -0.00325 1.15989 -0.13838
 C69 C 0.00098 0.87284 -0.16049
 H70 H 0.08765 1.09537 -0.08411
 O71 O 0.06049 1.06517 -0.05892
 H72 H -0.08707 0.92601 -0.09239
 O73 O -0.05880 0.95102 -0.06416
 O74 O 0.16851 0.99539 0.07529
 O75 O -0.16000 0.99783 0.08603
 O76 O 0.09532 1.16237 0.01156
 O77 O 0.08548 0.83850 -0.01692
 O78 O -0.09091 0.84016 -0.01265
 O79 O -0.07803 1.16682 0.00359
 O80 O 0.01246 1.06975 0.16410
 O81 O 0.00297 0.90089 0.15140
 O82 O 0.01173 1.15662 0.09524
 O83 O -0.00439 0.82969 0.06984
 O84 O 0.17082 1.08451 0.00090
 O85 O -0.16047 1.09233 -0.00222
 O86 O -0.16638 0.91840 -0.00151
 O87 O 0.16531 0.91617 -0.01809
 O88 O 0.09444 0.98829 0.15637
 O89 O -0.07924 0.98553 0.16085
 Zr90 Zr 0.11433 1.00092 -0.00804
 Zr91 Zr -0.11134 1.00407 -0.00226
 Zr92 Zr 0.00618 1.11398 0.00412
 Zr93 Zr -0.00134 0.88967 -0.01296
 Zr94 Zr 0.00535 0.99083 0.10616
 O95 O -0.05649 0.93980 0.04942
 O96 O 0.06370 1.05292 0.05540
 C97 C 0.15276 0.99273 0.13465
 C98 C -0.13902 0.99032 0.14415
 C99 C 0.15395 1.14253 0.01010
 C100 C 0.14529 0.85757 -0.01867
 C101 C -0.14948 0.85950 -0.00601
 C102 C -0.13799 1.15053 -0.00226
 C103 C 0.01485 1.13027 0.15197
 C104 C -0.00150 0.84399 0.12963
 H105 H -0.07819 1.08030 0.08715
 O106 O -0.05255 1.05480 0.05804
 H107 H 0.08732 0.90913 0.07172
 O108 O 0.05981 0.93836 0.04663
 C109 C 0.32106 0.99143 0.24453
 C110 C 0.26661 0.95839 0.26752
 N111 N 0.27155 0.92288 0.32229
 C112 C 0.32841 0.91914 0.35488
 C113 C 0.38375 0.95117 0.33047
 N114 N 0.37730 0.98630 0.27577
 N115 N 0.31743 1.02831 0.19121
 C116 C 0.26185 1.03236 0.15819
 C117 C 0.20761 0.99664 0.17845
 N118 N 0.21066 0.96091 0.23352
 H119 H 0.33014 0.88987 0.39780
 H120 H 0.26070 1.06168 0.11508
 C121 C -0.28066 0.98912 0.28808
 C122 C -0.29247 1.01479 0.22686
 N123 N -0.35072 1.03855 0.21240
 C124 C -0.39909 1.03499 0.25518
 C125 C -0.38971 1.00464 0.31535
 N126 N -0.32945 0.98461 0.33110
 N127 N -0.22165 0.96567 0.30195
 C128 C -0.17449 0.96605 0.25712
 C129 C -0.18730 0.98989 0.19514
 N130 N -0.24601 1.01424 0.18210
 H131 H -0.44469 1.05535 0.24171
 H132 H -0.12805 0.94677 0.26936
 C133 C -0.28931 0.99784 -0.28945
 C134 C -0.29834 1.03635 -0.23661
 N135 N -0.35396 1.06786 -0.23079
 C136 C -0.40191 1.06111 -0.27416
 C137 C -0.39513 1.01909 -0.32498
 N138 N -0.33802 0.98950 -0.33204
 N139 N -0.23264 0.96799 -0.29619
 C140 C -0.18502 0.97429 -0.25213
 C141 C -0.19505 1.01079 -0.19793
 N142 N -0.25158 1.04119 -0.19163
 H143 H -0.44526 1.08784 -0.26827
 H144 H -0.14050 0.94939 -0.25827
 C145 C 0.30424 1.04086 -0.27055
 C146 C 0.25384 0.99930 -0.28773
 N147 N 0.26135 0.96108 -0.33815
 C148 C 0.31742 0.96161 -0.37122
 C149 C 0.36877 1.00142 -0.35222
 N150 N 0.36020 1.04055 -0.30273
 N151 N 0.29814 1.07801 -0.21943
 C152 C 0.24455 1.07417 -0.18327
 C153 C 0.19519 1.03068 -0.19839
 N154 N 0.20030 0.99474 -0.25101
 H155 H 0.32275 0.92923 -0.40993
 H156 H 0.24143 1.10313 -0.14158
 C157 C 0.29423 1.28685 0.03636
 C158 C 0.23356 1.28929 0.06472
 N159 N 0.21794 1.34015 0.09902
 C160 C 0.25880 1.39064 0.10350
 C161 C 0.31773 1.39170 0.07011
 N162 N 0.33482 1.33809 0.03942
 N163 N 0.30972 1.23498 0.00277
 C164 C 0.26659 1.18621 -0.00478
 C165 C 0.20459 1.19050 0.02089
 N166 N 0.19021 1.24172 0.05579
 H167 H 0.24457 1.42957 0.13255
 H168 H 0.27977 1.14575 -0.03231
 C169 C 0.28781 0.71739 -0.00082
 C170 C 0.23434 0.71790 0.03968
 N171 N 0.22823 0.67360 0.08690
 C172 C 0.27117 0.62647 0.09368
 C173 C 0.32200 0.62132 0.04963
 N174 N 0.33050 0.66892 0.00470
 N175 N 0.29423 0.76391 -0.04668
 C176 C 0.24931 0.81010 -0.05398
 C177 C 0.19452 0.80852 -0.01498
 N178 N 0.18904 0.76267 0.03128
 H179 H 0.26466 0.59246 0.13273
 H180 H 0.25566 0.84696 -0.09039
 C181 C -0.29174 0.71272 0.00609
 C182 C -0.23615 0.70629 -0.03059
 N183 N -0.22692 0.65186 -0.06189
 C184 C -0.26970 0.60265 -0.05693
 C185 C -0.32393 0.60681 -0.01723
 N186 N -0.33418 0.66276 0.01247
 N187 N -0.30131 0.76832 0.03591
 C188 C -0.25753 0.81723 0.03128
 C189 C -0.20068 0.80986 -0.00363
 N190 N -0.19182 0.75433 -0.03390
 H191 H -0.26089 0.56041 -0.08354
 H192 H -0.26608 0.86065 0.05615
 C193 C -0.25383 1.31233 -0.02706
 C194 C -0.27821 1.25879 0.00665
 N195 N -0.33674 1.26214 0.03468
 C196 C -0.37137 1.31662 0.03120
 C197 C -0.34615 1.37091 -0.00144
 N198 N -0.28795 1.36650 -0.03001
 N199 N -0.19516 1.31043 -0.05419
 C200 C -0.15887 1.25784 -0.04822
 C201 C -0.18177 1.20436 -0.01301
 N202 N -0.24170 1.20565 0.01308
 H203 H -0.41680 1.31803 0.05578
 H204 H -0.11192 1.25814 -0.07018
 C205 C 0.02371 1.23904 0.31862
 C206 C 0.01836 1.26992 0.25903
 N207 N 0.01316 1.33419 0.25647
 C208 C 0.01224 1.36867 0.31067
 C209 C 0.01544 1.33726 0.37115
 N210 N 0.02163 1.27299 0.37222
 N211 N 0.02896 1.17523 0.32251
 C212 C 0.02805 1.14027 0.26940
 C213 C 0.02054 1.17019 0.20895
 N214 N 0.01649 1.23492 0.20515
 H215 H 0.00586 1.41931 0.30570
 H216 H 0.03215 1.08926 0.27488
 C217 C -0.00876 1.29733 -0.28834
 C218 C -0.03733 1.23701 -0.29418
 N219 N -0.06340 1.21983 -0.35053
 C220 C -0.06055 1.25959 -0.40231
 C221 C -0.02883 1.31896 -0.39815
 N222 N -0.00474 1.33690 -0.34053
 N223 N 0.01720 1.31391 -0.23136
 C224 C 0.01703 1.27224 -0.18046
 C225 C -0.00896 1.21071 -0.18745
 N226 N -0.03614 1.19532 -0.24417
 H227 H -0.08196 1.24436 -0.44653
 H228 H 0.03924 1.28604 -0.13610
 C229 C 0.00957 0.76261 -0.32562
 C230 C 0.00225 0.73219 -0.26605
 N231 N -0.00290 0.66770 -0.26303
 C232 C -0.00127 0.63253 -0.31681
 C233 C 0.00562 0.66339 -0.37730
 N234 N 0.01095 0.72791 -0.37859
 N235 N 0.01443 0.82658 -0.33024
 C236 C 0.01201 0.86216 -0.27772
 C237 C 0.00415 0.83260 -0.21714
 N238 N -0.00032 0.76775 -0.21266
 H239 H -0.00683 0.58165 -0.31147
 H240 H 0.01620 0.91326 -0.28371
 C241 C -0.00833 0.70723 0.28003
 C242 C 0.02707 0.76420 0.28471
 N243 N 0.05750 0.77826 0.33972
 C244 C 0.05293 0.73868 0.39136
 C245 C 0.01472 0.68285 0.38869
 N246 N -0.01407 0.66779 0.33225
 N247 N -0.03780 0.69351 0.22387
 C248 C -0.03430 0.73486 0.17276
 C249 C -0.00098 0.79310 0.17876
 N250 N 0.02922 0.80563 0.23462
 H251 H 0.07900 0.75104 0.43409
 H252 H -0.05924 0.72359 0.12903
   
