data_POSCAR
  _audit_creation_date              2014-09-24
  _audit_creation_method            'ToBaCCo'
  _symmetry_space_group_name_H-M    'P1'
  _symmetry_Int_Tables_number       1
  _symmetry_cell_setting            triclinic
  loop_
  _symmetry_equiv_pos_as_xyz
 x,y,z
_cell_length_a 58.2622
_cell_length_b 58.2731
_cell_length_c 57.9198
_cell_angle_alpha 90.013500
_cell_angle_beta 89.991800
_cell_angle_gamma 90.054400
loop_
  _atom_site_label
  _atom_site_type_symbol
  _atom_site_fract_x
  _atom_site_fract_y
  _atom_site_fract_z
N1 N 0.15037 0.16627 0.21266
 N2 N 0.16766 0.15190 0.21401
 C3 C 0.16491 0.13854 0.23278
 C4 C 0.14468 0.14481 0.24390
 C5 C 0.13600 0.16256 0.23045
 H6 H 0.17677 0.12524 0.23783
 H7 H 0.12036 0.17214 0.23314
 Cu8 Cu 0.19195 0.15204 0.19089
 Cu9 Cu 0.14735 0.18832 0.18761
 Cu10 Cu 0.19371 0.19337 0.15038
 N11 N 0.21594 0.15272 0.16750
 N12 N 0.21671 0.16915 0.15200
 C13 C 0.23490 0.16578 0.13811
 C14 C 0.24636 0.14608 0.14521
 C15 C 0.23368 0.13832 0.16402
 H16 H 0.23921 0.17687 0.12382
 H17 H 0.23698 0.12332 0.17443
 N18 N 0.16836 0.21575 0.15136
 N19 N 0.15053 0.21356 0.16521
 C20 C 0.13602 0.23115 0.16154
 C21 C 0.14504 0.24510 0.14441
 C22 C 0.16560 0.23473 0.13840
 H23 H 0.12001 0.23352 0.17064
 H24 H 0.17770 0.24057 0.12555
 H25 H 0.16841 0.17274 0.16288
 H26 H 0.18238 0.19209 0.18444
 N27 N -0.15133 0.83496 0.21237
 N28 N -0.16880 0.84911 0.21392
 C29 C -0.16609 0.86236 0.23279
 C30 C -0.14578 0.85622 0.24367
 C31 C -0.13691 0.83873 0.23011
 H32 H -0.17805 0.87545 0.23820
 H33 H -0.12104 0.82951 0.23270
 Cu34 Cu -0.19312 0.84893 0.19087
 Cu35 Cu -0.14818 0.81310 0.18718
 Cu36 Cu -0.19461 0.80782 0.15009
 N37 N -0.21712 0.84818 0.16751
 N38 N -0.21779 0.83186 0.15189
 C39 C -0.23600 0.83523 0.13802
 C40 C -0.24755 0.85482 0.14526
 C41 C -0.23493 0.86251 0.16413
 H42 H -0.24023 0.82422 0.12363
 H43 H -0.23828 0.87744 0.17464
 N44 N -0.16910 0.78563 0.15091
 N45 N -0.15124 0.78792 0.16470
 C46 C -0.13664 0.77041 0.16098
 C47 C -0.14563 0.75640 0.14389
 C48 C -0.16627 0.76665 0.13795
 H49 H -0.12059 0.76814 0.17004
 H50 H -0.17840 0.76072 0.12516
 H51 H -0.16951 0.82864 0.16262
 H52 H -0.18324 0.80903 0.18411
 N53 N -0.15344 0.16922 -0.21562
 N54 N -0.16877 0.15270 -0.21484
 C55 C -0.16511 0.13821 -0.23259
 C56 C -0.14642 0.14604 -0.24521
 C57 C -0.13952 0.16581 -0.23383
 H58 H -0.17522 0.12302 -0.23594
 H59 H -0.12536 0.17693 -0.23830
 Cu60 Cu -0.19215 0.15206 -0.19082
 Cu61 Cu -0.15201 0.19352 -0.19256
 Cu62 Cu -0.18939 0.18880 -0.14621
 N63 N -0.21525 0.15197 -0.16652
 N64 N -0.21414 0.16650 -0.14922
 C65 C -0.23191 0.16276 -0.13487
 C66 C -0.24509 0.14483 -0.14359
 C67 C -0.23384 0.13849 -0.16380
 H68 H -0.23479 0.17244 -0.11923
 H69 H -0.23870 0.12507 -0.17570
 N70 N -0.16705 0.21405 -0.14937
 N71 N -0.15315 0.21606 -0.16723
 C72 C -0.14015 0.23497 -0.16447
 C73 C -0.14612 0.24548 -0.14386
 C74 C -0.16332 0.23170 -0.13481
 H75 H -0.12725 0.24062 -0.17659
 H76 H -0.17236 0.23417 -0.11872
 H77 H -0.16467 0.17306 -0.16692
 H78 H -0.18600 0.19221 -0.18136
 N79 N 0.15292 0.83194 -0.21533
 N80 N 0.16929 0.84745 -0.21549
 C81 C 0.16582 0.86186 -0.23333
 C82 C 0.14620 0.85501 -0.24507
 C83 C 0.13853 0.83591 -0.23304
 H84 H 0.17681 0.87621 -0.23746
 H85 H 0.12356 0.82561 -0.23677
 Cu86 Cu 0.19351 0.84730 -0.19232
 Cu87 Cu 0.15142 0.80771 -0.19227
 Cu88 Cu 0.19358 0.80758 -0.15010
 N89 N 0.21667 0.84733 -0.16808
 N90 N 0.21660 0.83179 -0.15168
 C91 C 0.23429 0.83573 -0.13728
 C92 C 0.24628 0.85489 -0.14499
 C93 C 0.23444 0.86174 -0.16467
 H94 H 0.23799 0.82531 -0.12233
 H95 H 0.23834 0.87612 -0.17574
 N96 N 0.16883 0.78452 -0.15145
 N97 N 0.15279 0.78458 -0.16751
 C98 C 0.13847 0.76681 -0.16383
 C99 C 0.14577 0.75488 -0.14447
 C100 C 0.16512 0.76669 -0.13712
 H101 H 0.12380 0.76288 -0.17451
 H102 H 0.17577 0.76264 -0.12243
 H103 H 0.16813 0.82598 -0.16661
 H104 H 0.18616 0.80672 -0.18494
 N105 N 0.16575 1.15067 0.78765
 N106 N 0.15161 1.16814 0.78607
 C107 C 0.13839 1.16543 0.76719
 C108 C 0.14453 1.14510 0.75635
 C109 C 0.16200 1.13623 0.76993
 H110 H 0.12534 1.17741 0.76174
 H111 H 0.17121 1.12035 0.76735
 Cu112 Cu 0.15178 1.19255 0.80900
 Cu113 Cu 0.18761 1.14759 0.81285
 Cu114 Cu 0.19302 1.19429 0.84959
 N115 N 0.15256 1.21663 0.83227
 N116 N 0.16899 1.21742 0.84777
 C117 C 0.16566 1.23566 0.86160
 C118 C 0.14602 1.24704 0.85445
 C119 C 0.13819 1.23440 0.83572
 H120 H 0.17671 1.24013 0.87588
 H121 H 0.12307 1.23772 0.82547
 N122 N 0.21519 1.16882 0.84885
 N123 N 0.21284 1.15083 0.83523
 C124 C 0.23034 1.13625 0.83907
 C125 C 0.24438 1.14541 0.85604
 C126 C 0.23418 1.16611 0.86180
 H127 H 0.23257 1.12010 0.83019
 H128 H 0.24014 1.17835 0.87445
 H129 H 0.17213 1.16902 0.83726
 H130 H 0.19168 1.18257 0.81559
 N131 N 0.83201 0.84817 0.78486
 N132 N 0.84782 0.83212 0.78507
 C133 C 0.86227 0.83558 0.76724
 C134 C 0.85514 0.85486 0.75516
 C135 C 0.83583 0.86234 0.76695
 H136 H 0.87687 0.82484 0.76338
 H137 H 0.82524 0.87701 0.76291
 Cu138 Cu 0.84789 0.80837 0.80871
 Cu139 Cu 0.80760 0.84960 0.80776
 Cu140 Cu 0.80734 0.80748 0.85001
 N141 N 0.84756 0.78482 0.83255
 N142 N 0.83165 0.78461 0.84862
 C143 C 0.83530 0.76675 0.86284
 C144 C 0.85460 0.75498 0.85536
 C145 C 0.86190 0.76704 0.83604
 H146 H 0.82461 0.76270 0.87753
 H147 H 0.87655 0.76321 0.82529
 N148 N 0.78422 0.83210 0.84848
 N149 N 0.78433 0.84812 0.83241
 C150 C 0.76652 0.86238 0.83601
 C151 C 0.75452 0.85504 0.85532
 C152 C 0.76632 0.83575 0.86273
 H153 H 0.76263 0.87705 0.82533
 H154 H 0.76223 0.82510 0.87743
 H155 H 0.82551 0.83337 0.83385
 H156 H 0.80706 0.81491 0.81513
 N157 N 0.17263 0.84380 1.21903
 N158 N 0.15646 0.82811 1.21845
 C159 C 0.14076 0.83283 1.23482
 C160 C 0.14752 0.85254 1.24644
 C161 C 0.16791 0.85896 1.23587
 H162 H 0.12566 0.82252 1.23803
 H163 H 0.17877 0.87338 1.24018
 Cu164 Cu 0.15793 0.80250 1.19704
 Cu165 Cu 0.19900 0.84284 1.19851
 Cu166 Cu 0.19251 0.80753 1.15073
 N167 N 0.15490 0.78241 1.17051
 N168 N 0.16815 0.78471 1.15231
 C169 C 0.16259 0.76855 1.13670
 C170 C 0.14484 0.75534 1.14554
 C171 C 0.14040 0.76476 1.16709
 H172 H 0.17108 0.76649 1.12025
 H173 H 0.12781 0.75905 1.17953
 N174 N 0.21627 0.83152 1.15283
 N175 N 0.21903 0.84458 1.17123
 C176 C 0.23695 0.85874 1.16773
 C177 C 0.24608 0.85435 1.14609
 C178 C 0.23247 0.83696 1.13717
 H179 H 0.24296 0.87120 1.18017
 H180 H 0.23422 0.82879 1.12052
 H181 H 0.17748 0.83080 1.17331
 H182 H 0.19798 0.80940 1.18542
 N183 N 0.83529 1.14878 1.21113
 N184 N 0.85072 1.16521 1.21129
 C185 C 0.86386 1.16306 1.23028
 C186 C 0.85632 1.14413 1.24270
 C187 C 0.83812 1.13552 1.22990
 H188 H 0.87791 1.17441 1.23455
 H189 H 0.82782 1.12055 1.23366
 Cu190 Cu 0.85287 1.18726 1.18623
 Cu191 Cu 0.81329 1.14536 1.18614
 Cu192 Cu 0.80722 1.19319 1.15108
 N193 N 0.84967 1.21351 1.16591
 N194 N 0.83163 1.21597 1.15255
 C195 C 0.83392 1.23537 1.14018
 C196 C 0.85454 1.24573 1.14610
 C197 C 0.86403 1.23130 1.16257
 H198 H 0.82154 1.24130 1.12766
 H199 H 0.88031 1.23334 1.17127
 N200 N 0.78464 1.16801 1.15199
 N201 N 0.78725 1.14960 1.16496
 C202 C 0.76952 1.13524 1.16126
 C203 C 0.75503 1.14499 1.14503
 C204 C 0.76523 1.16580 1.13959
 H205 H 0.76750 1.11880 1.16964
 H206 H 0.75904 1.17840 1.12742
 H207 H 0.82720 1.16601 1.16016
 H208 H 0.81175 1.18046 1.18433
 N209 N 0.47555 0.96019 0.97491
 N210 N 0.45792 0.94622 0.97217
 N211 N 0.52395 0.97604 0.95902
 N212 N 0.54161 0.97329 0.94502
 N213 N 0.52385 0.96013 0.97506
 N214 N 0.54143 0.94612 0.97241
 N215 N 0.47561 0.97610 0.95887
 N216 N 0.45802 0.97337 0.94477
 C217 C 0.44714 0.95462 0.95327
 C218 C 0.55236 0.95452 0.95357
 N219 N 0.52406 1.04138 0.97508
 N220 N 0.54168 1.05537 0.97239
 N221 N 0.47576 1.02553 0.95889
 N222 N 0.45819 1.02830 0.94477
 N223 N 0.47576 1.04145 0.97493
 N224 N 0.45819 1.05546 0.97218
 N225 N 0.52406 1.02547 0.95902
 N226 N 0.54169 1.02821 0.94497
 Mn227 Mn 0.49984 1.00078 0.95866
 C228 C 0.55253 1.04697 0.95351
 C229 C 0.44740 1.04707 0.95326
 N230 N 0.52370 0.96013 1.02476
 N231 N 0.54121 0.94606 1.02759
 N232 N 0.47538 0.97612 1.04063
 N233 N 0.45764 0.97351 1.05455
 N234 N 0.47539 0.96020 1.02459
 N235 N 0.45766 0.94632 1.02717
 N236 N 0.52370 0.97606 1.04079
 N237 N 0.54122 0.97327 1.05495
 Mn238 Mn 0.49963 0.95988 0.99983
 C239 C 0.55200 0.95445 1.04651
 C240 C 0.44675 0.95481 1.04597
 N241 N 0.47556 1.04144 1.02464
 N242 N 0.45801 1.05550 1.02739
 N243 N 0.52379 1.02546 1.04082
 N244 N 0.54123 1.02828 1.05508
 N245 N 0.52387 1.04138 1.02480
 N246 N 0.54137 1.05548 1.02773
 N247 N 0.47548 1.02551 1.04066
 N248 N 0.45789 1.02829 1.05474
 Mn249 Mn 0.49981 1.04169 0.99986
 Mn250 Mn 0.49959 1.00078 1.04101
 Cl251 Cl 0.49972 1.00079 0.99983
 C252 C 0.44715 1.04709 1.04627
 C253 C 0.55206 1.04711 1.04671
 N254 N 0.02432 0.47640 0.04192
 N255 N 0.02712 0.45885 0.05605
 N256 N 0.04022 0.52470 0.02581
 N257 N 0.05401 0.54250 0.02833
 N258 N 0.02430 0.52469 0.04184
 N259 N 0.02681 0.54248 0.05571
 N260 N 0.04024 0.47641 0.02587
 N261 N 0.05428 0.45887 0.02864
 C262 C 0.04591 0.44807 0.04756
 C263 C 0.04546 0.55342 0.04710
 N264 N 0.02433 0.52460 -0.03994
 N265 N 0.02710 0.54219 -0.05403
 N266 N 0.04022 0.47632 -0.02383
 N267 N 0.05428 0.45879 -0.02661
 N268 N 0.02430 0.47629 -0.03986
 N269 N 0.02710 0.45874 -0.05399
 N270 N 0.04025 0.52462 -0.02390
 N271 N 0.05427 0.54220 -0.02664
 Mn272 Mn 0.04052 0.50051 0.00098
 C273 C 0.04589 0.55302 -0.04554
 C274 C 0.04590 0.44798 -0.04552
 N275 N -0.02509 0.52472 0.04186
 N276 N -0.02784 0.54233 0.05593
 N277 N -0.04105 0.47640 0.02591
 N278 N -0.05521 0.45895 0.02884
 N279 N -0.02511 0.47643 0.04192
 N280 N -0.02798 0.45901 0.05619
 N281 N -0.04100 0.52469 0.02581
 N282 N -0.05500 0.54227 0.02853
 Mn283 Mn -0.00040 0.50055 0.04217
 C284 C -0.04660 0.55312 0.04742
 C285 C -0.04685 0.44825 0.04782
 N286 N -0.02515 0.47624 -0.03984
 N287 N -0.02800 0.45866 -0.05394
 N288 N -0.04100 0.52460 -0.02389
 N289 N -0.05498 0.54219 -0.02666
 N290 N -0.02509 0.52456 -0.03993
 N291 N -0.02780 0.54214 -0.05404
 N292 N -0.04107 0.47630 -0.02380
 N293 N -0.05517 0.45878 -0.02654
 Mn294 Mn -0.00040 0.50042 -0.04019
 Mn295 Mn -0.04131 0.50050 0.00101
 Cl296 Cl -0.00040 0.50049 0.00099
 C297 C -0.04682 0.44792 -0.04543
 C298 C -0.04655 0.55298 -0.04556
 N299 N 0.95986 0.02519 0.52406
 N300 N 0.94583 0.02788 0.54174
 N301 N 0.97565 0.04125 0.47548
 N302 N 0.97269 0.05547 0.45801
 N303 N 0.95973 0.02530 0.47548
 N304 N 0.94548 0.02825 0.45802
 N305 N 0.97578 0.04115 0.52408
 N306 N 0.97300 0.05514 0.54179
 C307 C 0.95422 0.04666 0.55266
 C308 C 0.95378 0.04716 0.44726
 N309 N 1.04102 0.02542 0.47523
 N310 N 1.05507 0.02826 0.45757
 N311 N 1.02521 0.04124 0.52388
 N312 N 1.02799 0.05525 0.54157
 N313 N 1.04117 0.02536 0.52380
 N314 N 1.05525 0.02814 0.54144
 N315 N 1.02508 0.04132 0.47528
 N316 N 1.02783 0.05540 0.45764
 Mn317 Mn 1.00043 0.04152 0.49968
 C318 C 1.04664 0.04706 0.44675
 C319 C 1.04683 0.04688 0.55236
 N320 N 0.95979 -0.02413 0.47537
 N321 N 0.94566 -0.02694 0.45778
 N322 N 0.97587 -0.04010 0.52390
 N323 N 0.97320 -0.05415 0.54156
 N324 N 0.95991 -0.02421 0.52396
 N325 N 0.94595 -0.02702 0.54168
 N326 N 0.97571 -0.04006 0.47532
 N327 N 0.97284 -0.05413 0.45769
 Mn328 Mn 0.95954 0.00053 0.49971
 C329 C 0.95400 -0.04575 0.44690
 C330 C 0.95444 -0.04579 0.55250
 N331 N 1.04120 -0.02405 0.52375
 N332 N 1.05525 -0.02675 0.54141
 N333 N 1.02510 -0.03995 0.47521
 N334 N 1.02759 -0.05381 0.45738
 N335 N 1.04102 -0.02399 0.47513
 N336 N 1.05478 -0.02657 0.45721
 N337 N 1.02528 -0.04000 0.52379
 N338 N 1.02807 -0.05399 0.54148
 Mn339 Mn 1.04139 0.00068 0.49947
 Mn340 Mn 1.00050 -0.04031 0.49956
 Cl341 Cl 1.00046 0.00061 0.49961
 C342 C 1.04687 -0.04554 0.55232
 C343 C 1.04621 -0.04529 0.44631
 C344 C 1.11544 0.11571 0.30452
 C345 C 1.13614 0.10723 0.29551
 C346 C 1.14581 0.11682 0.27563
 C347 C 1.13503 0.13521 0.26410
 C348 C 1.11427 0.14368 0.27330
 C349 C 1.10466 0.13408 0.29320
 C350 C 1.10514 0.10545 0.32557
 N351 N 1.08547 0.11407 0.33471
 N352 N 1.07623 0.10487 0.35361
 C353 C 1.08624 0.08663 0.36418
 N354 N 1.10590 0.07801 0.35503
 N355 N 1.11515 0.08722 0.33615
 C356 C 1.07599 0.07642 0.38527
 C357 C 1.08603 0.05711 0.39575
 C358 C 1.07645 0.04755 0.41568
 C359 C 1.05666 0.05710 0.42560
 C360 C 1.04654 0.07633 0.41515
 C361 C 1.05609 0.08589 0.39520
 H362 H 1.14496 0.09311 0.30380
 H363 H 1.16174 0.10960 0.26945
 H364 H 1.10522 0.15776 0.26530
 H365 H 1.08870 0.14108 0.29966
 H366 H 1.10133 0.04934 0.38858
 H367 H 1.08459 0.03269 0.42335
 H368 H 1.03124 0.08402 0.42241
 H369 H 1.04789 0.10074 0.38760
 C370 C 0.88419 -0.11425 0.30509
 C371 C 0.86500 -0.10404 0.29458
 C372 C 0.85524 -0.11363 0.27475
 C373 C 0.86442 -0.13369 0.26490
 C374 C 0.88356 -0.14394 0.27549
 C375 C 0.89332 -0.13434 0.29531
 C376 C 0.89464 -0.10402 0.32608
 N377 N 0.91339 -0.11368 0.33606
 N378 N 0.92277 -0.10450 0.35489
 C379 C 0.91383 -0.08525 0.36457
 N380 N 0.89509 -0.07558 0.35458
 N381 N 0.88570 -0.08475 0.33575
 C382 C 0.92423 -0.07506 0.38560
 C383 C 0.91468 -0.05534 0.39577
 C384 C 0.92438 -0.04581 0.41566
 C385 C 0.94384 -0.05579 0.42581
 C386 C 0.95348 -0.07542 0.41566
 C387 C 0.94377 -0.08497 0.39578
 H388 H 0.85752 -0.08854 0.30162
 H389 H 0.84062 -0.10513 0.26710
 H390 H 0.89105 -0.15947 0.26862
 H391 H 0.90805 -0.14272 0.30297
 H392 H 0.89965 -0.04724 0.38842
 H393 H 0.91661 -0.03064 0.42309
 H394 H 0.96852 -0.08345 0.42310
 H395 H 0.95160 -0.10014 0.38841
 C396 C 0.88415 0.11553 0.69412
 C397 C 0.86385 0.10648 0.70358
 C398 C 0.85392 0.11635 0.72319
 C399 C 0.86405 0.13553 0.73388
 C400 C 0.88436 0.14456 0.72437
 C401 C 0.89427 0.13470 0.70477
 C402 C 0.89471 0.10511 0.67329
 N403 N 0.91411 0.11412 0.66394
 N404 N 0.92358 0.10482 0.64521
 C405 C 0.91407 0.08609 0.63502
 N406 N 0.89468 0.07707 0.64438
 N407 N 0.88521 0.08637 0.66311
 C408 C 0.92453 0.07583 0.61406
 C409 C 0.91477 0.05630 0.60369
 C410 C 0.92448 0.04678 0.58381
 C411 C 0.94414 0.05659 0.57383
 C412 C 0.95402 0.07600 0.58421
 C413 C 0.94433 0.08553 0.60411
 H414 H 0.85555 0.09174 0.69581
 H415 H 0.83825 0.10891 0.72984
 H416 H 0.89280 0.15922 0.73204
 H417 H 0.90992 0.14214 0.69800
 H418 H 0.89957 0.04834 0.61089
 H419 H 0.91654 0.03176 0.57621
 H420 H 0.96922 0.08389 0.57693
 H421 H 0.95233 0.10054 0.61163
 C422 C 1.11587 -0.11424 0.69430
 C423 C 1.13533 -0.10441 0.70469
 C424 C 1.14514 -0.11432 0.72433
 C425 C 1.13575 -0.13435 0.73409
 C426 C 1.11626 -0.14414 0.72367
 C427 C 1.10645 -0.13422 0.70405
 C428 C 1.10548 -0.10382 0.67340
 N429 N 1.08660 -0.11328 0.66345
 N430 N 1.07730 -0.10400 0.64463
 C431 C 1.08648 -0.08486 0.63494
 N432 N 1.10536 -0.07538 0.64490
 N433 N 1.11465 -0.08466 0.66372
 C434 C 1.07620 -0.07464 0.61389
 C435 C 1.08590 -0.05497 0.60371
 C436 C 1.07633 -0.04549 0.58374
 C437 C 1.05687 -0.05546 0.57352
 C438 C 1.04708 -0.07501 0.58370
 C439 C 1.05664 -0.08451 0.60366
 H440 H 1.14305 -0.08901 0.69766
 H441 H 1.16008 -0.10617 0.73178
 H442 H 1.10847 -0.15954 0.73052
 H443 H 1.09148 -0.14230 0.69652
 H444 H 1.10093 -0.04690 0.61111
 H445 H 1.08420 -0.03037 0.57628
 H446 H 1.03204 -0.08303 0.57622
 H447 H 1.04870 -0.09963 0.61103
 C448 C 0.30620 1.11626 1.11571
 C449 C 0.29668 1.13635 1.10640
 C450 C 0.27704 1.14617 1.11610
 C451 C 0.26626 1.13617 1.13545
 C452 C 0.27594 1.11600 1.14474
 C453 C 0.29560 1.10622 1.13502
 C454 C 0.32703 1.10585 1.10532
 N455 N 0.33648 1.08656 1.11441
 N456 N 0.35517 1.07724 1.10506
 C457 C 0.36522 1.08680 1.08620
 N458 N 0.35577 1.10609 1.07711
 N459 N 0.33708 1.11541 1.08647
 C460 C 0.38610 1.07650 1.07582
 C461 C 0.39636 1.08637 1.05620
 C462 C 0.41614 1.07677 1.04656
 C463 C 0.42611 1.05712 1.05633
 C464 C 0.41585 1.04715 1.07584
 C465 C 0.39606 1.05673 1.08549
 H466 H 0.30439 1.14459 1.09154
 H467 H 0.27047 1.16162 1.10819
 H468 H 0.26849 1.10755 1.15956
 H469 H 0.30248 1.09074 1.14267
 H470 H 0.38916 1.10157 1.04827
 H471 H 0.42366 1.08478 1.03147
 H472 H 0.42313 1.03195 1.08370
 H473 H 0.38862 1.04865 1.10057
 C474 C 0.30568 0.88539 0.88477
 C475 C 0.29575 0.89464 0.86475
 C476 C 0.27622 0.88465 0.85495
 C477 C 0.26599 0.86506 0.86491
 C478 C 0.27605 0.85589 0.88504
 C479 C 0.29558 0.86591 0.89480
 C480 C 0.32648 0.89593 0.89510
 N481 N 0.33618 0.88689 0.91439
 N482 N 0.35491 0.89625 0.92361
 C483 C 0.36478 0.91508 0.91396
 N484 N 0.35507 0.92414 0.89468
 N485 N 0.33633 0.91477 0.88546
 C486 C 0.38576 0.92538 0.92415
 C487 C 0.39599 0.94486 0.91412
 C488 C 0.41590 0.95441 0.92361
 C489 C 0.42601 0.94468 0.94331
 C490 C 0.41577 0.92532 0.95343
 C491 C 0.39587 0.91577 0.94396
 H492 H 0.30307 0.90966 0.85654
 H493 H 0.26932 0.89248 0.83954
 H494 H 0.26903 0.84091 0.89349
 H495 H 0.30275 0.85830 0.91024
 H496 H 0.38867 0.95274 0.89888
 H497 H 0.42340 0.96937 0.91548
 H498 H 0.42317 0.91749 0.96866
 H499 H 0.38847 0.90080 0.95216
 C500 C 0.69263 0.88475 1.11588
 C501 C 0.70318 0.89466 1.13527
 C502 C 0.72282 0.88483 1.14496
 C503 C 0.73253 0.86473 1.13555
 C504 C 0.72180 0.85484 1.11611
 C505 C 0.70218 0.86471 1.10644
 C506 C 0.67183 0.89523 1.10553
 N507 N 0.66178 0.88579 1.08662
 N508 N 0.64312 0.89519 1.07731
 C509 C 0.63370 0.91444 1.08650
 N510 N 0.64375 0.92390 1.10541
 N511 N 0.66241 0.91450 1.11472
 C512 C 0.61287 0.92485 1.07615
 C513 C 0.60292 0.94460 1.08588
 C514 C 0.58318 0.95426 1.07621
 C515 C 0.57297 0.94438 1.05663
 C516 C 0.58293 0.92475 1.04680
 C517 C 0.60265 0.91507 1.05646
 H518 H 0.69629 0.91010 1.14301
 H519 H 0.73022 0.89320 1.15986
 H520 H 0.72840 0.83944 1.10812
 H521 H 0.69450 0.85657 1.09151
 H522 H 0.61033 0.95261 1.10101
 H523 H 0.57589 0.96944 1.08411
 H524 H 0.57545 0.91680 1.03166
 H525 H 0.60985 0.89990 1.04848
 C526 C 0.69456 1.11550 0.88544
 C527 C 0.70562 1.13402 0.89629
 C528 C 0.72542 1.14369 0.88674
 C529 C 0.73480 1.13515 0.86600
 C530 C 0.72355 1.11660 0.85516
 C531 C 0.70377 1.10693 0.86476
 C532 C 0.67357 1.10520 0.89564
 N533 N 0.66317 1.08692 0.88550
 N534 N 0.64432 1.07769 0.89465
 C535 C 0.63504 1.08634 0.91433
 N536 N 0.64545 1.10462 0.92447
 N537 N 0.66431 1.11384 0.91533
 C538 C 0.61398 1.07614 0.92446
 C539 C 0.60403 1.08560 0.94444
 C540 C 0.58409 1.07610 0.95388
 C541 C 0.57367 1.05693 0.94358
 C542 C 0.58361 1.04737 0.92370
 C543 C 0.60354 1.05688 0.91423
 H544 H 0.69901 1.14109 0.91224
 H545 H 0.73321 1.15790 0.89583
 H546 H 0.72988 1.10931 0.83923
 H547 H 0.69569 1.09270 0.85590
 H548 H 0.61160 1.10041 0.95280
 H549 H 0.57683 1.08379 0.96926
 H550 H 0.57596 1.03256 0.91543
 H551 H 0.61073 1.04912 0.89886
 C552 C 0.11507 0.30642 0.11539
 C553 C 0.10586 0.29644 0.13544
 C554 C 0.11561 0.27663 0.14488
 C555 C 0.13481 0.26629 0.13451
 C556 C 0.14406 0.27633 0.11448
 C557 C 0.13431 0.29612 0.10504
 C558 C 0.10469 0.32739 0.10530
 N559 N 0.11365 0.33711 0.08598
 N560 N 0.10434 0.35593 0.07691
 C561 C 0.08566 0.36586 0.08676
 N562 N 0.07669 0.35613 0.10607
 N563 N 0.08600 0.33731 0.11514
 C564 C 0.07537 0.38687 0.07668
 C565 C 0.05595 0.39708 0.08680
 C566 C 0.04635 0.41694 0.07733
 C567 C 0.05597 0.42703 0.05756
 C568 C 0.07531 0.41685 0.04738
 C569 C 0.08491 0.39699 0.05682
 H570 H 0.09108 0.30391 0.14392
 H571 H 0.10808 0.26959 0.16041
 H572 H 0.15872 0.26885 0.10586
 H573 H 0.14186 0.30330 0.08955
 H574 H 0.04812 0.38975 0.10207
 H575 H 0.03140 0.42441 0.08551
 H576 H 0.08306 0.42424 0.03209
 H577 H 0.09984 0.38961 0.04854
 C578 C -0.11634 0.30655 -0.11393
 C579 C -0.10631 0.29609 -0.13332
 C580 C -0.11598 0.27637 -0.14301
 C581 C -0.13596 0.26657 -0.13359
 C582 C -0.14602 0.27706 -0.11420
 C583 C -0.13633 0.29680 -0.10450
 C584 C -0.10597 0.32746 -0.10364
 N585 N -0.11545 0.33757 -0.08478
 N586 N -0.10612 0.35635 -0.07558
 C587 C -0.08690 0.36584 -0.08485
 N588 N -0.07743 0.35573 -0.10370
 N589 N -0.08675 0.33695 -0.11289
 C590 C -0.07653 0.38679 -0.07466
 C591 C -0.05681 0.39674 -0.08449
 C592 C -0.04713 0.41656 -0.07498
 C593 C -0.05695 0.42688 -0.05543
 C594 C -0.07658 0.41694 -0.04551
 C595 C -0.08627 0.39713 -0.05502
 H596 H -0.09088 0.30308 -0.14103
 H597 H -0.10757 0.26878 -0.15780
 H598 H -0.16147 0.27018 -0.10651
 H599 H -0.14456 0.30442 -0.08959
 H600 H -0.04883 0.38925 -0.09960
 H601 H -0.03196 0.42383 -0.08295
 H602 H -0.08449 0.42450 -0.03040
 H603 H -0.10144 0.38995 -0.04697
 C604 C 0.11515 0.69440 -0.11412
 C605 C 0.10565 0.70444 -0.13399
 C606 C 0.11555 0.72400 -0.14379
 C607 C 0.13523 0.73407 -0.13400
 C608 C 0.14471 0.72400 -0.11409
 C609 C 0.13480 0.70444 -0.10429
 C610 C 0.10468 0.67359 -0.10376
 N611 N 0.11386 0.66379 -0.08460
 N612 N 0.10452 0.64505 -0.07537
 C613 C 0.08557 0.63527 -0.08490
 N614 N 0.07637 0.64508 -0.10405
 N615 N 0.08572 0.66383 -0.11328
 C616 C 0.07526 0.61431 -0.07469
 C617 C 0.05571 0.60415 -0.08465
 C618 C 0.04613 0.58428 -0.07515
 C619 C 0.05589 0.57412 -0.05550
 C620 C 0.07534 0.58427 -0.04544
 C621 C 0.08492 0.60414 -0.05493
 H622 H 0.09052 0.69719 -0.14204
 H623 H 0.10765 0.73111 -0.15908
 H624 H 0.15981 0.73114 -0.10596
 H625 H 0.14260 0.69718 -0.08898
 H626 H 0.04779 0.61151 -0.09985
 H627 H 0.03110 0.57684 -0.08323
 H628 H 0.08320 0.57684 -0.03024
 H629 H 0.09995 0.61149 -0.04678
 C630 C -0.11552 0.69510 0.11492
 C631 C -0.10628 0.70518 0.13491
 C632 C -0.11605 0.72499 0.14432
 C633 C -0.13533 0.73524 0.13399
 C634 C -0.14460 0.72510 0.11402
 C635 C -0.13482 0.70530 0.10461
 C636 C -0.10513 0.67411 0.10487
 N637 N -0.11416 0.66429 0.08563
 N638 N -0.10487 0.64544 0.07660
 C639 C -0.08614 0.63558 0.08640
 N640 N -0.07709 0.64540 0.10564
 N641 N -0.08639 0.66426 0.11467
 C642 C -0.07587 0.61452 0.07636
 C643 C -0.05640 0.60436 0.08644
 C644 C -0.04685 0.58444 0.07702
 C645 C -0.05658 0.57424 0.05735
 C646 C -0.07596 0.58438 0.04721
 C647 C -0.08550 0.60430 0.05660
 H648 H -0.09145 0.69777 0.14336
 H649 H -0.10849 0.73211 0.15980
 H650 H -0.15931 0.73250 0.10543
 H651 H -0.14240 0.69804 0.08918
 H652 H -0.04851 0.61177 0.10164
 H653 H -0.03188 0.57701 0.08517
 H654 H -0.08379 0.57692 0.03200
 H655 H -0.10048 0.61163 0.04837
 C656 C 1.11505 0.11535 0.69485
 C657 C 1.13520 0.10624 0.70452
 C658 C 1.14478 0.11591 0.72439
 C659 C 1.13445 0.13493 0.73512
 C660 C 1.11432 0.14407 0.72540
 C661 C 1.10475 0.13440 0.70552
 C662 C 1.10485 0.10507 0.67378
 N663 N 1.08552 0.11401 0.66426
 N664 N 1.07637 0.10481 0.64533
 C665 C 1.08614 0.08626 0.63509
 N666 N 1.10546 0.07730 0.64462
 N667 N 1.11461 0.08651 0.66355
 C668 C 1.07599 0.07608 0.61396
 C669 C 1.08599 0.05670 0.60355
 C670 C 1.07649 0.04718 0.58356
 C671 C 1.05681 0.05686 0.57354
 C672 C 1.04675 0.07616 0.58391
 C673 C 1.05623 0.08567 0.60391
 H674 H 1.14365 0.09162 0.69673
 H675 H 1.16037 0.10847 0.73119
 H676 H 1.10575 0.15859 0.73317
 H677 H 1.08920 0.14186 0.69858
 H678 H 1.10120 0.04884 0.61081
 H679 H 1.08458 0.03227 0.57594
 H680 H 1.03154 0.08394 0.57657
 H681 H 1.04806 0.10058 0.61144
 C682 C 0.88584 -0.11494 0.69442
 C683 C 0.89534 -0.13471 0.70449
 C684 C 0.88542 -0.14450 0.72415
 C685 C 0.86575 -0.13476 0.73426
 C686 C 0.85630 -0.11496 0.72415
 C687 C 0.86620 -0.10519 0.70451
 C688 C 0.89626 -0.10456 0.67353
 N689 N 0.88702 -0.08548 0.66380
 N690 N 0.89629 -0.07617 0.64499
 C691 C 0.91522 -0.08553 0.63507
 N692 N 0.92449 -0.10460 0.64480
 N693 N 0.91521 -0.11392 0.66363
 C694 C 0.92543 -0.07523 0.61403
 C695 C 0.94499 -0.08497 0.60373
 C696 C 0.95445 -0.07536 0.58377
 C697 C 0.94456 -0.05583 0.57369
 C698 C 0.92511 -0.04599 0.58399
 C699 C 0.91564 -0.05558 0.60395
 H700 H 0.91046 -0.14270 0.69719
 H701 H 0.89328 -0.15970 0.73132
 H702 H 0.84120 -0.10686 0.73130
 H703 H 0.85841 -0.08996 0.69724
 H704 H 0.95300 -0.10008 0.61103
 H705 H 0.96949 -0.08327 0.57621
 H706 H 0.91716 -0.03088 0.57661
 H707 H 0.90060 -0.04760 0.61142
 C708 C 1.11471 -0.11502 0.30474
 C709 C 1.10648 -0.13602 0.29610
 C710 C 1.11699 -0.14645 0.27712
 C711 C 1.13598 -0.13615 0.26628
 C712 C 1.14404 -0.11502 0.27481
 C713 C 1.13355 -0.10461 0.29379
 C714 C 1.10394 -0.10420 0.32522
 N715 N 1.11250 -0.08441 0.33414
 N716 N 1.10311 -0.07488 0.35278
 C717 C 1.08474 -0.08472 0.36330
 N718 N 1.07611 -0.10446 0.35432
 N719 N 1.08552 -0.11401 0.33569
 C720 C 1.07458 -0.07433 0.38431
 C721 C 1.05531 -0.08434 0.39494
 C722 C 1.04603 -0.07481 0.41500
 C723 C 1.05583 -0.05511 0.42490
 C724 C 1.07494 -0.04496 0.41423
 C725 C 1.08421 -0.05446 0.39414
 H726 H 1.09200 -0.14454 0.30411
 H727 H 1.11028 -0.16272 0.27118
 H728 H 1.15848 -0.10641 0.26690
 H729 H 1.14031 -0.08841 0.29992
 H730 H 1.04741 -0.09961 0.38782
 H731 H 1.03123 -0.08294 0.42283
 H732 H 1.08278 -0.02970 0.42145
 H733 H 1.09903 -0.04627 0.38641
 C734 C 0.88487 0.11615 0.30544
 C735 C 0.86436 0.10736 0.29622
 C736 C 0.85505 0.11652 0.27600
 C737 C 0.86601 0.13472 0.26446
 C738 C 0.88643 0.14363 0.27381
 C739 C 0.89574 0.13447 0.29405
 C740 C 0.89495 0.10613 0.32668
 N741 N 0.91456 0.11481 0.33589
 N742 N 0.92372 0.10565 0.35483
 C743 C 0.91368 0.08739 0.36537
 N744 N 0.89405 0.07873 0.35617
 N745 N 0.88489 0.08790 0.33724
 C746 C 0.92395 0.07708 0.38637
 C747 C 0.91393 0.05770 0.39677
 C748 C 0.92364 0.04796 0.41653
 C749 C 0.94355 0.05741 0.42634
 C750 C 0.95360 0.07675 0.41600
 C751 C 0.94392 0.08648 0.39622
 H752 H 0.85547 0.09331 0.30457
 H753 H 0.83923 0.10926 0.26953
 H754 H 0.89547 0.15756 0.26546
 H755 H 0.91156 0.14168 0.30065
 H756 H 0.89857 0.04998 0.38964
 H757 H 0.91554 0.03303 0.42413
 H758 H 0.96898 0.08438 0.42319
 H759 H 0.95210 0.10139 0.38868
 C760 C 0.11557 0.30759 -0.11537
 C761 C 0.10666 0.29814 -0.13583
 C762 C 0.11653 0.27857 -0.14563
 C763 C 0.13556 0.26793 -0.13523
 C764 C 0.14447 0.27744 -0.11477
 C765 C 0.13461 0.29701 -0.10499
 C766 C 0.10508 0.32831 -0.10489
 N767 N 0.11391 0.33764 -0.08532
 N768 N 0.10451 0.35625 -0.07590
 C769 C 0.08587 0.36634 -0.08564
 N770 N 0.07703 0.35700 -0.10521
 N771 N 0.08643 0.33839 -0.11464
 C772 C 0.07548 0.38712 -0.07521
 C773 C 0.05597 0.39733 -0.08515
 C774 C 0.04632 0.41704 -0.07545
 C775 C 0.05596 0.42700 -0.05562
 C776 C 0.07535 0.41678 -0.04556
 C777 C 0.08500 0.39705 -0.05524
 H778 H 0.09203 0.30587 -0.14433
 H779 H 0.10920 0.27192 -0.16142
 H780 H 0.15901 0.26980 -0.10612
 H781 H 0.14193 0.30379 -0.08921
 H782 H 0.04815 0.39013 -0.10048
 H783 H 0.03132 0.42453 -0.08352
 H784 H 0.08310 0.42406 -0.03022
 H785 H 0.09999 0.38965 -0.04710
 C786 C -0.11604 0.30745 0.11737
 C787 C -0.10616 0.29698 0.13683
 C788 C -0.11574 0.27705 0.14622
 C789 C -0.13545 0.26710 0.13638
 C790 C -0.14539 0.27769 0.11700
 C791 C -0.13582 0.29759 0.10763
 C792 C -0.10576 0.32841 0.10718
 N793 N -0.11524 0.33838 0.08826
 N794 N -0.10596 0.35712 0.07898
 C795 C -0.08679 0.36671 0.08821
 N796 N -0.07731 0.35676 0.10715
 N797 N -0.08659 0.33801 0.11643
 C798 C -0.07647 0.38756 0.07782
 C799 C -0.05672 0.39760 0.08749
 C800 C -0.04708 0.41730 0.07771
 C801 C -0.05697 0.42738 0.05808
 C802 C -0.07663 0.41736 0.04834
 C803 C -0.08629 0.39767 0.05811
 H804 H -0.09095 0.30413 0.14483
 H805 H -0.10765 0.26956 0.16123
 H806 H -0.16047 0.27055 0.10881
 H807 H -0.14390 0.30518 0.09263
 H808 H -0.04869 0.39027 0.10264
 H809 H -0.03188 0.42465 0.08555
 H810 H -0.08459 0.42475 0.03318
 H811 H -0.10147 0.39040 0.05018
 C812 C -0.11504 0.69439 -0.11444
 C813 C -0.13454 0.70455 -0.10450
 C814 C -0.14435 0.72415 -0.11426
 C815 C -0.13492 0.73413 -0.13424
 C816 C -0.11539 0.72394 -0.14417
 C817 C -0.10558 0.70433 -0.13439
 C818 C -0.10470 0.67353 -0.10409
 N819 N -0.08584 0.66365 -0.11363
 N820 N -0.07661 0.64489 -0.10437
 C821 C -0.08583 0.63519 -0.08516
 N822 N -0.10468 0.64508 -0.07561
 N823 N -0.11391 0.66385 -0.08487
 C824 C -0.07564 0.61422 -0.07490
 C825 C -0.08538 0.60413 -0.05513
 C826 C -0.07589 0.58427 -0.04557
 C827 C -0.05647 0.57406 -0.05558
 C828 C -0.04664 0.58414 -0.07525
 C829 C -0.05612 0.60400 -0.08483
 H830 H -0.14231 0.69737 -0.08912
 H831 H -0.15933 0.73138 -0.10602
 H832 H -0.10756 0.73100 -0.15953
 H833 H -0.09057 0.69697 -0.14254
 H834 H -0.10039 0.61153 -0.04702
 H835 H -0.08379 0.57690 -0.03036
 H836 H -0.03162 0.57666 -0.08330
 H837 H -0.04816 0.61130 -0.10004
 C838 C 0.11297 0.69601 0.11450
 C839 C 0.10376 0.70586 0.13462
 C840 C 0.11398 0.72517 0.14459
 C841 C 0.13366 0.73512 0.13470
 C842 C 0.14273 0.72535 0.11446
 C843 C 0.13253 0.70605 0.10450
 C844 C 0.10245 0.67524 0.10415
 N845 N 0.11155 0.66557 0.08488
 N846 N 0.10234 0.64672 0.07574
 C847 C 0.08364 0.63672 0.08548
 N848 N 0.07448 0.64643 0.10471
 N849 N 0.08370 0.66529 0.11386
 C850 C 0.07364 0.61554 0.07548
 C851 C 0.05430 0.60514 0.08559
 C852 C 0.04511 0.58499 0.07633
 C853 C 0.05506 0.57480 0.05678
 C854 C 0.07427 0.58520 0.04656
 C855 C 0.08347 0.60536 0.05580
 H856 H 0.08868 0.69861 0.14276
 H857 H 0.10635 0.73225 0.16005
 H858 H 0.15791 0.73236 0.10636
 H859 H 0.14010 0.69893 0.08901
 H860 H 0.04626 0.61252 0.10073
 H861 H 0.03024 0.57735 0.08452
 H862 H 0.08225 0.57775 0.03143
 H863 H 0.09834 0.61290 0.04754
 C864 C 0.30564 1.11563 0.88527
 C865 C 0.29566 1.10627 0.86528
 C866 C 0.27585 1.11594 0.85579
 C867 C 0.26552 1.13521 0.86603
 C868 C 0.27555 1.14459 0.88600
 C869 C 0.29535 1.13493 0.89550
 C870 C 0.32661 1.10535 0.89541
 N871 N 0.33632 1.11443 0.91468
 N872 N 0.35516 1.10521 0.92380
 C873 C 0.36511 1.08650 0.91404
 N874 N 0.35541 1.07742 0.89477
 N875 N 0.33656 1.08664 0.88565
 C876 C 0.38613 1.07630 0.92415
 C877 C 0.39633 1.05683 0.91411
 C878 C 0.41622 1.04731 0.92359
 C879 C 0.42633 1.05705 0.94329
 C880 C 0.41615 1.07642 0.95341
 C881 C 0.39626 1.08594 0.94395
 H882 H 0.30314 1.09144 0.85691
 H883 H 0.26879 1.10831 0.84031
 H884 H 0.26806 1.15930 0.89453
 H885 H 0.30253 1.14258 0.91093
 H886 H 0.38898 1.04893 0.89889
 H887 H 0.42369 1.03233 0.91546
 H888 H 0.42355 1.08425 0.96864
 H889 H 0.38887 1.10090 0.95216
 C890 C 0.30517 0.88615 1.11452
 C891 C 0.29524 0.89559 1.13449
 C892 C 0.27602 0.88537 1.14464
 C893 C 0.26625 0.86545 1.13508
 C894 C 0.27610 0.85611 1.11501
 C895 C 0.29532 0.86632 1.10487
 C896 C 0.32581 0.89675 1.10397
 N897 N 0.33561 0.88747 1.08484
 N898 N 0.35431 0.89681 1.07553
 C899 C 0.36403 0.91583 1.08493
 N900 N 0.35420 0.92515 1.10402
 N901 N 0.33549 0.91581 1.11334
 C902 C 0.38505 0.92603 1.07475
 C903 C 0.39524 0.94557 1.08469
 C904 C 0.41524 0.95497 1.07529
 C905 C 0.42548 0.94503 1.05576
 C906 C 0.41527 0.92562 1.04570
 C907 C 0.39527 0.91622 1.05509
 H908 H 0.30233 0.91088 1.14237
 H909 H 0.26884 0.89321 1.15994
 H910 H 0.26923 0.84072 1.10719
 H911 H 0.30252 0.85855 1.08951
 H912 H 0.38783 0.95360 1.09981
 H913 H 0.42272 0.96998 1.08336
 H914 H 0.42277 0.91765 1.03059
 H915 H 0.38790 0.90119 1.04697
 C916 C 0.69334 1.11582 1.11598
 C917 C 0.70349 1.13537 1.10609
 C918 C 0.72339 1.14489 1.11558
 C919 C 0.73366 1.13509 1.13520
 C920 C 0.72342 1.11562 1.14518
 C921 C 0.70350 1.10610 1.13569
 C922 C 0.67236 1.10560 1.10574
 N923 N 0.66249 1.08668 1.11521
 N924 N 0.64370 1.07746 1.10594
 C925 C 0.63396 1.08675 1.08680
 N926 N 0.64382 1.10567 1.07734
 N927 N 0.66261 1.11489 1.08660
 C928 C 0.61302 1.07652 1.07647
 C929 C 0.60297 1.08626 1.05669
 C930 C 0.58318 1.07669 1.04702
 C931 C 0.57301 1.05717 1.05690
 C932 C 0.58303 1.04736 1.07660
 C933 C 0.60282 1.05693 1.08629
 H934 H 0.69615 1.14332 1.09090
 H935 H 0.73079 1.15977 1.10727
 H936 H 0.73065 1.10769 1.16040
 H937 H 0.69612 1.09108 1.14382
 H938 H 0.61035 1.10133 1.04865
 H939 H 0.57584 1.08459 1.03180
 H940 H 0.57557 1.03228 1.08456
 H941 H 0.61010 1.04895 1.10150
 C942 C 0.69403 0.88558 0.88560
 C943 C 0.70400 0.86592 0.89542
 C944 C 0.72357 0.85604 0.88564
 C945 C 0.73369 0.86555 0.86576
 C946 C 0.72368 0.88523 0.85597
 C947 C 0.70412 0.89511 0.86576
 C948 C 0.67320 0.89602 0.89591
 N949 N 0.66350 0.91498 0.88639
 N950 N 0.64472 0.92429 0.89556
 C951 C 0.63482 0.91504 0.91465
 N952 N 0.64454 0.89610 0.92419
 N953 N 0.66332 0.88680 0.91502
 C954 C 0.61380 0.92530 0.92475
 C955 C 0.60351 0.91558 0.94442
 C956 C 0.58358 0.92511 0.95380
 C957 C 0.57351 0.94455 0.94372
 C958 C 0.58379 0.95437 0.92415
 C959 C 0.60372 0.94484 0.91475
 H960 H 0.69670 0.85811 0.91071
 H961 H 0.73066 0.84093 0.89377
 H962 H 0.73084 0.89314 0.84070
 H963 H 0.69691 0.91024 0.85771
 H964 H 0.61080 0.90055 0.95259
 H965 H 0.57604 0.91722 0.96894
 H966 H 0.57641 0.96940 0.91605
 H967 H 0.61118 0.95280 0.89962
   
