data_POSCAR
  _audit_creation_date              2014-09-24
  _audit_creation_method            'ToBaCCo'
  _symmetry_space_group_name_H-M    'P1'
  _symmetry_Int_Tables_number       1
  _symmetry_cell_setting            triclinic
  loop_
  _symmetry_equiv_pos_as_xyz
 x,y,z
_cell_length_a 31.8948
_cell_length_b 31.5400
_cell_length_c 31.1013
_cell_angle_alpha 90.276800
_cell_angle_beta 87.774800
_cell_angle_gamma 90.603500
loop_
  _atom_site_label
  _atom_site_type_symbol
  _atom_site_fract_x
  _atom_site_fract_y
  _atom_site_fract_z
N1 N 0.13996 0.23753 0.24240
 N2 N 0.15388 0.20710 0.26655
 C3 C 0.12314 0.19304 0.29353
 C4 C 0.08822 0.21674 0.28715
 C5 C 0.09968 0.24508 0.25458
 H6 H 0.12693 0.16958 0.31832
 H7 H 0.08073 0.26992 0.24175
 Cu8 Cu 0.21180 0.19244 0.26574
 Cu9 Cu 0.17727 0.26482 0.19891
 Cu10 Cu 0.26707 0.20567 0.17353
 N11 N 0.26113 0.16055 0.25331
 N12 N 0.28167 0.16337 0.21601
 C13 C 0.31045 0.13244 0.21346
 C14 C 0.30699 0.10929 0.25132
 C15 C 0.27575 0.12818 0.27583
 H16 H 0.33086 0.12633 0.18561
 H17 H 0.26255 0.11731 0.30644
 N18 N 0.24666 0.25108 0.13642
 N19 N 0.21347 0.27439 0.14656
 C20 C 0.20927 0.30390 0.11587
 C21 C 0.24143 0.29881 0.08509
 C22 C 0.26428 0.26505 0.09904
 H23 H 0.18459 0.32714 0.11595
 H24 H 0.29227 0.25224 0.08338
 H25 H 0.20352 0.20697 0.19030
 H26 H 0.23769 0.24748 0.21548
 N27 N 0.61847 0.71621 0.76128
 N28 N 0.63604 0.68612 0.78327
 C29 C 0.61236 0.67865 0.81937
 C30 C 0.57809 0.70516 0.81946
 C31 C 0.58309 0.72860 0.78218
 H32 H 0.61959 0.65605 0.84398
 H33 H 0.56349 0.75403 0.77180
 Cu34 Cu 0.68809 0.66024 0.76202
 Cu35 Cu 0.64379 0.74034 0.70916
 Cu36 Cu 0.73742 0.69674 0.67222
 N37 N 0.74145 0.63701 0.74083
 N38 N 0.75949 0.65079 0.70477
 C39 C 0.79487 0.62916 0.69616
 C40 C 0.79967 0.60056 0.72868
 C41 C 0.76520 0.60612 0.75667
 H42 H 0.81587 0.63406 0.66846
 H43 H 0.75759 0.58862 0.78579
 N44 N 0.71055 0.74349 0.64362
 N45 N 0.67471 0.76028 0.65721
 C46 C 0.66604 0.79318 0.63165
 C47 C 0.69837 0.79734 0.60117
 C48 C 0.72577 0.76514 0.60941
 H49 H 0.63909 0.81354 0.63570
 H50 H 0.75489 0.75819 0.59206
 H51 H 0.67487 0.68633 0.69030
 H52 H 0.70440 0.72546 0.72332
 N53 N 0.33851 0.74847 0.75521
 N54 N 0.33506 0.78481 0.77586
 C55 C 0.36195 0.78518 0.80837
 C56 C 0.38303 0.74687 0.80772
 C57 C 0.36721 0.72451 0.77380
 H58 H 0.36640 0.81151 0.83016
 H59 H 0.37733 0.69370 0.76235
 Cu60 Cu 0.29622 0.82809 0.75733
 Cu61 Cu 0.30960 0.73613 0.70299
 Cu62 Cu 0.24599 0.81435 0.66459
 N63 N 0.25214 0.86648 0.74012
 N64 N 0.23314 0.86117 0.70368
 C65 C 0.20494 0.89218 0.69931
 C66 C 0.20598 0.91828 0.73527
 C67 C 0.23624 0.90094 0.76047
 H68 H 0.18486 0.89485 0.67227
 H69 H 0.24582 0.91258 0.79140
 N70 N 0.25385 0.75905 0.63573
 N71 N 0.27827 0.72934 0.65041
 C72 C 0.27768 0.69565 0.62368
 C73 C 0.25126 0.70447 0.59086
 C74 C 0.23642 0.74470 0.59959
 H75 H 0.29466 0.66662 0.62811
 H76 H 0.21459 0.76217 0.58088
 H77 H 0.30533 0.79819 0.68463
 H78 H 0.25861 0.77594 0.71529
 N79 N 0.85740 0.23587 0.24838
 N80 N 0.85073 0.27145 0.26952
 C81 C 0.88019 0.27640 0.29900
 C82 C 0.90669 0.24189 0.29600
 C83 C 0.89109 0.21667 0.26384
 H84 H 0.88269 0.30358 0.32003
 H85 H 0.90457 0.18760 0.25126
 Cu86 Cu 0.80577 0.30876 0.25446
 Cu87 Cu 0.82566 0.22026 0.19867
 Cu88 Cu 0.74869 0.29011 0.16739
 N89 N 0.76132 0.34651 0.23932
 N90 N 0.73913 0.34002 0.20505
 C91 C 0.71067 0.37135 0.20278
 C92 C 0.71561 0.39856 0.23764
 C93 C 0.74786 0.38170 0.25988
 H94 H 0.68787 0.37377 0.17810
 H95 H 0.76043 0.39437 0.28911
 N96 N 0.76349 0.23711 0.13492
 N97 N 0.79102 0.20989 0.14896
 C98 C 0.79316 0.17627 0.12234
 C99 C 0.76650 0.18246 0.08942
 C100 C 0.74791 0.22138 0.09814
 H101 H 0.81326 0.14924 0.12601
 H102 H 0.72429 0.23652 0.07967
 H103 H 0.81059 0.28182 0.18087
 H104 H 0.77053 0.25275 0.21489
 N105 N 0.87040 0.73383 0.24735
 N106 N 0.86100 0.69752 0.22902
 C107 C 0.89055 0.68939 0.19782
 C108 C 0.91951 0.72265 0.19674
 C109 C 0.90560 0.75007 0.22879
 H110 H 0.89054 0.66201 0.17674
 H111 H 0.91958 0.77994 0.23803
 Cu112 Cu 0.80957 0.66653 0.24712
 Cu113 Cu 0.83588 0.75977 0.29207
 Cu114 Cu 0.75760 0.69692 0.33889
 N115 N 0.76105 0.63448 0.27105
 N116 N 0.74194 0.64618 0.30737
 C117 C 0.71009 0.61911 0.31687
 C118 C 0.70870 0.58884 0.28484
 C119 C 0.74161 0.59942 0.25614
 H120 H 0.68872 0.62173 0.34461
 H121 H 0.75062 0.58300 0.22669
 N122 N 0.77781 0.74982 0.36515
 N123 N 0.80749 0.77377 0.34687
 C124 C 0.81504 0.80730 0.37238
 C125 C 0.78839 0.80472 0.40812
 C126 C 0.76513 0.76789 0.40268
 H127 H 0.83833 0.83177 0.36559
 H128 H 0.74121 0.75492 0.42455
 H129 H 0.81952 0.70062 0.31610
 H130 H 0.77838 0.72749 0.28499
 N131 N 0.36562 0.24260 -0.23777
 N132 N 0.35932 0.20818 -0.26067
 C133 C 0.38797 0.20645 -0.29342
 C134 C 0.41401 0.24175 -0.29080
 C135 C 0.39893 0.26398 -0.25503
 H136 H 0.38949 0.18118 -0.31700
 H137 H 0.41132 0.29339 -0.24245
 Cu138 Cu 0.31477 0.16844 -0.24551
 Cu139 Cu 0.33046 0.25554 -0.18678
 Cu140 Cu 0.23606 0.19917 -0.17812
 N141 N 0.26153 0.13884 -0.24350
 N142 N 0.23070 0.15039 -0.21685
 C143 C 0.19772 0.12406 -0.22205
 C144 C 0.20867 0.09486 -0.25399
 C145 C 0.24922 0.10536 -0.26694
 H146 H 0.16800 0.12632 -0.20429
 H147 H 0.26844 0.08958 -0.29144
 N148 N 0.24852 0.24942 -0.14207
 N149 N 0.28449 0.27053 -0.14545
 C150 C 0.28409 0.30224 -0.11635
 C151 C 0.24608 0.30104 -0.09330
 C152 C 0.22434 0.26720 -0.11045
 H153 H 0.30987 0.32414 -0.11205
 H154 H 0.19342 0.25605 -0.10009
 H155 H 0.29970 0.19810 -0.17343
 H156 H 0.27968 0.23120 -0.21740
 N157 N 0.64410 0.26756 -0.27203
 N158 N 0.65598 0.30210 -0.29299
 C159 C 0.62906 0.30965 -0.32424
 C160 C 0.59878 0.27808 -0.32350
 C161 C 0.60924 0.25166 -0.28986
 H162 H 0.63117 0.33622 -0.34610
 H163 H 0.59262 0.22349 -0.27870
 Cu164 Cu 0.70523 0.33409 -0.27679
 Cu165 Cu 0.67496 0.24690 -0.22233
 Cu166 Cu 0.76913 0.30039 -0.20331
 N167 N 0.75106 0.37003 -0.25815
 N168 N 0.77589 0.35645 -0.22853
 C169 C 0.80511 0.38635 -0.22084
 C170 C 0.79804 0.42063 -0.24704
 C171 C 0.76362 0.40921 -0.27035
 H172 H 0.82976 0.38303 -0.19822
 H173 H 0.74893 0.42816 -0.29431
 N174 N 0.74858 0.25170 -0.16926
 N175 N 0.71247 0.23181 -0.17478
 C176 C 0.70720 0.20214 -0.14363
 C177 C 0.74170 0.20399 -0.11765
 C178 C 0.76697 0.23559 -0.13496
 H179 H 0.68021 0.18129 -0.13979
 H180 H 0.79626 0.24689 -0.12249
 H181 H 0.70428 0.30344 -0.20568
 H182 H 0.73059 0.26813 -0.24628
 N183 N 0.14725 0.76831 0.26694
 N184 N 0.15503 0.80519 0.24844
 C185 C 0.12752 0.81065 0.21689
 C186 C 0.10133 0.77521 0.21582
 C187 C 0.11491 0.74923 0.24791
 H188 H 0.12663 0.83816 0.19635
 H189 H 0.10174 0.71869 0.25703
 Cu190 Cu 0.20086 0.84195 0.26763
 Cu191 Cu 0.17806 0.74736 0.31549
 Cu192 Cu 0.25015 0.81696 0.35725
 N193 N 0.25080 0.87364 0.28565
 N194 N 0.26927 0.86304 0.32102
 C195 C 0.30209 0.88896 0.32729
 C196 C 0.30497 0.91757 0.29409
 C197 C 0.27177 0.90715 0.26795
 H198 H 0.32273 0.88681 0.35399
 H199 H 0.26361 0.92241 0.23841
 N200 N 0.23989 0.76037 0.38030
 N201 N 0.21245 0.73324 0.36498
 C202 C 0.21365 0.69709 0.38807
 C203 C 0.24393 0.70206 0.41857
 C204 C 0.25992 0.74227 0.41251
 H205 H 0.19463 0.66913 0.38264
 H206 H 0.28458 0.75722 0.43028
 H207 H 0.18788 0.80631 0.33666
 H208 H 0.23185 0.78250 0.30333
 N209 N 0.50069 0.38593 0.48890
 N210 N 0.46910 0.39393 0.51601
 C211 C 0.46794 0.36433 0.54724
 C212 C 0.50059 0.33637 0.53900
 C213 C 0.52064 0.35113 0.50184
 H214 H 0.44448 0.36257 0.57321
 H215 H 0.54715 0.33685 0.48483
 Cu216 Cu 0.43150 0.44096 0.50571
 Cu217 Cu 0.51192 0.41932 0.43717
 Cu218 Cu 0.45018 0.50781 0.42283
 N219 N 0.39396 0.48794 0.49541
 N220 N 0.40093 0.51377 0.46274
 C221 C 0.37009 0.54284 0.46296
 C222 C 0.34247 0.53480 0.49773
 C223 C 0.35882 0.49991 0.51756
 H224 H 0.36825 0.56823 0.43992
 H225 H 0.34572 0.48446 0.54606
 N226 N 0.50139 0.49535 0.38618
 N227 N 0.52453 0.46151 0.39195
 C228 C 0.55656 0.46117 0.36241
 C229 C 0.55362 0.49637 0.33639
 C230 C 0.51824 0.51733 0.35240
 H231 H 0.57997 0.43671 0.35979
 H232 H 0.50554 0.54623 0.33990
 H233 H 0.48788 0.47501 0.46349
 H234 H 0.45175 0.44379 0.42925
 N235 N -0.00511 -0.09682 0.98546
 N236 N -0.03641 -0.08847 1.01284
 C237 C -0.03269 -0.11292 1.04805
 C238 C 0.00294 -0.13774 1.04216
 C239 C 0.01948 -0.12651 1.00212
 H240 H -0.05452 -0.11299 1.07552
 H241 H 0.04694 -0.13978 0.98583
 Cu242 Cu -0.07968 -0.04731 0.99863
 Cu243 Cu 0.00021 -0.07101 0.92888
 Cu244 Cu -0.06208 0.01617 0.91241
 N245 N -0.11789 -0.00108 0.98520
 N246 N -0.10980 0.02409 0.95225
 C247 C -0.14047 0.05288 0.94994
 C248 C -0.16965 0.04560 0.98322
 C249 C -0.15432 0.01107 1.00497
 H250 H -0.14187 0.07661 0.92510
 H251 H -0.16888 -0.00416 1.03291
 N252 N -0.01288 0.00238 0.87506
 N253 N 0.00985 -0.03174 0.88044
 C254 C 0.04038 -0.03317 0.84931
 C255 C 0.03651 0.00176 0.82301
 C256 C 0.00255 0.02358 0.84032
 H257 H 0.06414 -0.05732 0.84671
 H258 H -0.00986 0.05283 0.82834
 H259 H -0.02356 -0.01554 0.95401
 H260 H -0.06037 -0.04773 0.92141
 N261 N 1.00780 0.62880 1.00563
 N262 N 1.04411 0.62612 1.02403
 C263 C 1.04884 0.65982 1.05025
 C264 C 1.01345 0.68486 1.04811
 C265 C 0.98813 0.66412 1.01957
 H266 H 1.07573 0.66527 1.06973
 H267 H 0.95729 0.67360 1.01025
 Cu268 Cu 1.08084 0.57792 1.01270
 Cu269 Cu 0.98773 0.58492 0.96694
 Cu270 Cu 1.06531 0.51852 0.92548
 N271 N 1.11167 0.52547 1.00216
 N272 N 1.10574 0.50304 0.96715
 C273 C 1.13201 0.47006 0.96556
 C274 C 1.15561 0.47156 1.00182
 C275 C 1.14195 0.50709 1.02443
 H276 H 1.13370 0.44709 0.93966
 H277 H 1.15388 0.51912 1.05425
 N278 N 1.01078 0.52395 0.89992
 N279 N 0.98073 0.54841 0.91606
 C280 C 0.94712 0.54464 0.89145
 C281 C 0.95669 0.51609 0.85861
 C282 C 0.99710 0.50350 0.86508
 H283 H 0.91813 0.56164 0.89694
 H284 H 1.01541 0.48148 0.84554
 H285 H 1.02844 0.53491 0.97737
 H286 H 1.04711 0.58058 0.94349
 N287 N 0.52533 0.10139 0.49385
 N288 N 0.56168 0.09192 0.50980
 C289 C 0.57088 0.11990 0.54080
 C290 C 0.53865 0.14843 0.54519
 C291 C 0.50997 0.13585 0.51486
 H292 H 0.59867 0.11918 0.55963
 H293 H 0.48009 0.15013 0.50888
 Cu294 Cu 0.59297 0.04257 0.49099
 Cu295 Cu 0.50078 0.06591 0.44857
 Cu296 Cu 0.57166 -0.00282 0.39773
 N297 N 0.61944 -0.00997 0.47291
 N298 N 0.61166 -0.02699 0.43542
 C299 C 0.63593 -0.06111 0.42881
 C300 C 0.65982 -0.06605 0.46434
 C301 C 0.64872 -0.03303 0.49187
 H302 H 0.63639 -0.08063 0.40009
 H303 H 0.66168 -0.02555 0.52263
 N304 N 0.51727 0.01015 0.37477
 N305 N 0.48942 0.03553 0.39366
 C306 C 0.45471 0.03529 0.37000
 C307 C 0.46141 0.00789 0.33525
 C308 C 0.50123 -0.00721 0.33947
 H309 H 0.42665 0.05314 0.37779
 H310 H 0.51729 -0.02969 0.31844
 H311 H 0.53586 0.01079 0.45200
 H312 H 0.55887 0.05808 0.42373
 N313 N -0.02341 0.11576 0.49444
 N314 N -0.06219 0.11007 0.48250
 C315 C -0.07105 0.13820 0.45211
 C316 C -0.03608 0.16291 0.44376
 C317 C -0.00606 0.14810 0.47120
 H318 H -0.10074 0.14017 0.43660
 H319 H 0.02542 0.16041 0.47464
 Cu320 Cu -0.09780 0.06516 0.50439
 Cu321 Cu -0.00076 0.08110 0.54086
 Cu322 Cu -0.06380 -0.00440 0.57431
 N323 N -0.12333 0.00980 0.50983
 N324 N -0.10993 -0.01785 0.53738
 C325 C -0.13448 -0.05275 0.53639
 C326 C -0.16466 -0.04639 0.50622
 C327 C -0.15649 -0.00651 0.48988
 H328 H -0.13105 -0.08006 0.55678
 H329 H -0.17420 0.00996 0.46626
 N330 N -0.00953 0.00871 0.59916
 N331 N 0.01448 0.04152 0.58778
 C332 C 0.04783 0.04263 0.61343
 C333 C 0.04439 0.00857 0.64164
 C334 C 0.00798 -0.01215 0.63133
 H335 H 0.07247 0.06644 0.61193
 H336 H -0.00534 -0.03992 0.64712
 H337 H -0.03497 0.02821 0.52389
 H338 H -0.05638 0.06172 0.56890
 N339 N 0.48280 0.60911 0.02342
 N340 N 0.45330 0.59675 -0.00238
 C341 C 0.44992 0.62558 -0.03381
 C342 C 0.47887 0.65782 -0.02717
 C343 C 0.49905 0.64636 0.00948
 H344 H 0.42824 0.62301 -0.05956
 H345 H 0.52397 0.66367 0.02467
 Cu346 Cu 0.42203 0.54424 0.00789
 Cu347 Cu 0.49733 0.57591 0.07336
 Cu348 Cu 0.46709 0.47019 0.06654
 N349 N 0.39377 0.49059 0.02110
 N350 N 0.41238 0.46113 0.04296
 C351 C 0.38759 0.42644 0.04563
 C352 C 0.35114 0.43482 0.02501
 C353 C 0.35606 0.47584 0.00959
 H354 H 0.39537 0.39742 0.06178
 H355 H 0.33437 0.49335 -0.00922
 N356 N 0.50952 0.49084 0.10564
 N357 N 0.52039 0.53115 0.10923
 C358 C 0.54839 0.53509 0.14034
 C359 C 0.55490 0.49525 0.15724
 C360 C 0.52977 0.46809 0.13462
 H361 H 0.56240 0.56476 0.15023
 H362 H 0.52599 0.43430 0.13941
 H363 H 0.49016 0.52518 0.03510
 H364 H 0.44869 0.53073 0.07877
 N365 N 0.49417 -0.10712 0.00382
 N366 N 0.52994 -0.10801 -0.01861
 C367 C 0.52962 -0.14174 -0.04534
 C368 C 0.49144 -0.16282 -0.03905
 C369 C 0.46983 -0.13990 -0.00779
 H370 H 0.55504 -0.14993 -0.06776
 H371 H 0.43852 -0.14636 0.00535
 Cu372 Cu 0.57252 -0.06406 -0.01103
 Cu373 Cu 0.48086 -0.06288 0.04527
 Cu374 Cu 0.56654 -0.00558 0.07921
 N375 N 0.60868 -0.01449 -0.00362
 N376 N 0.60630 0.00771 0.03226
 C377 C 0.63476 0.03933 0.03026
 C378 C 0.65608 0.03724 -0.00929
 C379 C 0.63887 0.00257 -0.02995
 H380 H 0.63925 0.06197 0.05591
 H381 H 0.64771 -0.00931 -0.06167
 N382 N 0.51303 -0.00845 0.11219
 N383 N 0.48014 -0.02951 0.09853
 C384 C 0.44807 -0.02523 0.12740
 C385 C 0.46144 0.00006 0.16068
 C386 C 0.50262 0.01046 0.14994
 H387 H 0.41730 -0.03930 0.12415
 H388 H 0.52343 0.03029 0.16818
 H389 H 0.52715 -0.01688 0.03157
 H390 H 0.54151 -0.06517 0.06206
 N391 N 0.99724 0.38516 0.50980
 N392 N 1.03066 0.39410 0.48547
 C393 C 1.03239 0.36726 0.45178
 C394 C 0.99811 0.34014 0.45553
 C395 C 0.97644 0.35238 0.49255
 H396 H 1.05668 0.36754 0.42659
 H397 H 0.94784 0.33823 0.50601
 Cu398 Cu 1.06824 0.43977 0.50061
 Cu399 Cu 0.98348 0.41651 0.56177
 Cu400 Cu 1.04908 0.50081 0.58837
 N401 N 1.10556 0.48578 0.51486
 N402 N 1.09871 0.50992 0.54901
 C403 C 1.12984 0.53931 0.55021
 C404 C 1.15714 0.53290 0.51476
 C405 C 1.14057 0.49894 0.49327
 H406 H 1.13200 0.56380 0.57450
 H407 H 1.15317 0.48518 0.46366
 N408 N 0.99710 0.48471 0.62315
 N409 N 0.97394 0.45142 0.61300
 C410 C 0.94308 0.44580 0.64294
 C411 C 0.94588 0.47714 0.67328
 C412 C 0.98047 0.50171 0.66009
 H413 H 0.91996 0.42049 0.64305
 H414 H 0.99334 0.52866 0.67690
 H415 H 1.01235 0.47392 0.54312
 H416 H 1.04394 0.43764 0.57576
 C417 C 0.37452 0.00880 0.25023
 C418 C 0.12447 0.00653 0.73298
 C419 C 0.63992 0.49489 0.24276
 C420 C 0.87456 0.51526 0.77083
 C421 C 0.24289 0.38676 -0.00263
 C422 C 0.73895 0.12815 -0.01895
 C423 C 0.24915 0.61452 0.50521
 C424 C 0.74888 0.86632 0.51028
 C425 C 0.00069 0.25457 0.36669
 C426 C 0.01325 0.77705 0.13198
 C427 C 0.49904 0.24177 0.61938
 C428 C 0.47790 0.74296 0.88217
 C429 C 0.05108 0.21610 0.31616
 C430 C 0.03401 0.25213 0.33058
 H431 H 0.04159 0.18595 0.33006
 H432 H 0.04470 0.28175 0.31604
 C433 C 0.54538 0.71004 0.85377
 C434 C 0.50969 0.73060 0.84680
 H435 H 0.55139 0.69757 0.88524
 H436 H 0.50489 0.74283 0.81488
 C437 C 0.41783 0.73246 0.83354
 C438 C 0.43817 0.75750 0.86092
 H439 H 0.42908 0.70060 0.82747
 H440 H 0.42753 0.78972 0.86600
 C441 C -0.05679 0.23438 0.31783
 C442 C -0.04079 0.26219 0.34570
 H443 H -0.04016 0.20520 0.31084
 H444 H -0.05671 0.29178 0.35239
 C445 C -0.04410 0.72862 0.16638
 C446 C -0.02311 0.76590 0.16355
 H447 H -0.03564 0.70217 0.14578
 H448 H -0.03281 0.79156 0.18479
 C449 C 0.44848 0.25312 0.68243
 C450 C 0.46118 0.22980 0.64812
 H451 H 0.46558 0.28192 0.68995
 H452 H 0.44410 0.20104 0.64049
 C453 C 0.56518 0.27598 0.64874
 C454 C 0.53712 0.24392 0.64821
 H455 H 0.56256 0.30206 0.62664
 H456 H 0.54091 0.21735 0.66966
 C457 C 0.06591 0.76489 0.18814
 C458 C 0.05051 0.79080 0.15848
 H459 H 0.05123 0.73404 0.19295
 H460 H 0.06487 0.82171 0.15314
 C461 C 0.32726 0.06988 0.26299
 C462 C 0.35509 0.05010 0.23709
 H463 H 0.31820 0.05604 0.29386
 H464 H 0.36379 0.06381 0.20607
 C465 C 0.83414 0.57032 0.73081
 C466 C 0.84176 0.54954 0.76695
 H467 H 0.85310 0.56520 0.70169
 H468 H 0.82186 0.55546 0.79536
 C469 C 0.82180 0.46072 0.74883
 C470 C 0.85048 0.47347 0.77681
 H471 H 0.81501 0.48081 0.72187
 H472 H 0.85735 0.45334 0.80372
 C473 C 0.33623 -0.05115 0.28975
 C474 C 0.33912 -0.02374 0.25700
 H475 H 0.35940 -0.05012 0.31423
 H476 H 0.31615 -0.02550 0.23223
 C477 C 0.18158 -0.04615 0.74566
 C478 C 0.15325 -0.03002 0.71941
 H479 H 0.18568 -0.03129 0.77673
 H480 H 0.14893 -0.04457 0.68826
 C481 C 0.69241 0.43700 0.25105
 C482 C 0.66292 0.45480 0.22779
 H483 H 0.70034 0.45157 0.28135
 H484 H 0.65569 0.44045 0.19718
 C485 C 0.67724 0.55419 0.28286
 C486 C 0.67293 0.52983 0.24782
 H487 H 0.65648 0.55001 0.31085
 H488 H 0.69369 0.53548 0.21998
 C489 C 0.18381 0.05953 0.72877
 C490 C 0.14973 0.04389 0.74978
 H491 H 0.19494 0.04475 0.69901
 H492 H 0.13938 0.05869 0.77982
 C493 C 0.25101 0.32342 0.04574
 C494 C 0.23202 0.35997 0.03713
 H495 H 0.27526 0.31135 0.02378
 H496 H 0.20931 0.37237 0.06061
 C497 C 0.70318 0.82979 0.56771
 C498 C 0.74088 0.83785 0.54874
 H499 H 0.67542 0.84640 0.55857
 H500 H 0.76782 0.82058 0.55922
 C501 C 0.78657 0.83513 0.44403
 C502 C 0.75389 0.83600 0.47230
 H503 H 0.81226 0.85757 0.44606
 H504 H 0.72812 0.81386 0.46808
 C505 C 0.23185 0.32821 -0.05683
 C506 C 0.25577 0.35972 -0.04166
 H507 H 0.20147 0.32153 -0.04142
 H508 H 0.28590 0.36639 -0.05758
 C509 C 0.75143 0.18032 -0.07856
 C510 C 0.72661 0.15051 -0.06005
 H511 H 0.78068 0.18851 -0.06378
 H512 H 0.69725 0.14229 -0.07457
 C513 C 0.25821 0.67246 0.45111
 C514 C 0.23441 0.64089 0.46767
 H515 H 0.28840 0.67916 0.46462
 H516 H 0.20365 0.63493 0.45510
 C517 C 0.23961 0.67696 0.55486
 C518 C 0.26271 0.64366 0.54151
 H519 H 0.21152 0.68491 0.53827
 H520 H 0.29083 0.63601 0.55819
 C521 C 0.76007 0.15156 0.05453
 C522 C 0.74569 0.16158 0.01604
 H523 H 0.76910 0.11928 0.06064
 H524 H 0.73676 0.19411 0.01041
 C525 C 0.51097 0.29709 0.56174
 C526 C 0.48984 0.28373 0.59737
 H527 H 0.53650 0.27820 0.54832
 H528 H 0.46524 0.30353 0.61119
 C529 C 0.01958 0.82877 0.06994
 C530 C -0.00135 0.81429 0.10517
 H531 H 0.04891 0.81410 0.05979
 H532 H -0.03060 0.82944 0.11486
 C533 C 0.00259 0.72385 0.07235
 C534 C 0.02652 0.73966 0.10323
 H535 H -0.02701 0.73875 0.06616
 H536 H 0.05549 0.72381 0.10991
 C537 C 0.53680 0.18287 0.57753
 C538 C 0.50303 0.20717 0.58474
 H539 H 0.56421 0.18720 0.59654
 H540 H 0.47609 0.20212 0.56506
 C541 C -0.03495 0.19839 0.41321
 C542 C 0.00035 0.21582 0.39631
 H543 H -0.06512 0.21008 0.40421
 H544 H 0.03026 0.20410 0.40635
 C545 C 0.48800 0.69600 0.94678
 C546 C 0.46727 0.70511 0.91127
 H547 H 0.51318 0.71661 0.95683
 H548 H 0.44317 0.68328 0.90111
 C549 C 0.47513 0.79942 0.93900
 C550 C 0.49622 0.78028 0.90655
 H551 H 0.44428 0.78759 0.94907
 H552 H 0.52688 0.79247 0.89632
 C553 C -0.01344 0.30498 0.42732
 C554 C 0.01158 0.29231 0.39435
 H555 H -0.04286 0.28850 0.43435
 H556 H 0.04155 0.30817 0.38852
 C557 C 0.30447 0.55822 0.51273
 C558 C 0.28642 0.58781 0.48898
 H559 H 0.29106 0.55093 0.54440
 H560 H 0.30002 0.59445 0.45722
 C561 C 0.79053 0.06818 -0.00706
 C562 C 0.77953 0.10331 -0.02827
 H563 H 0.76998 0.05548 0.01834
 H564 H 0.80151 0.11616 -0.05229
 C565 C 0.69024 0.06526 -0.02592
 C566 C 0.70292 0.09933 -0.00374
 H567 H 0.70556 0.05758 -0.05662
 H568 H 0.68673 0.10721 0.02643
 C569 C 0.19477 0.55696 0.49960
 C570 C 0.21285 0.58715 0.52293
 H571 H 0.20782 0.54977 0.46773
 H572 H 0.19971 0.59391 0.55488
 C573 C 0.18981 0.44335 0.01331
 C574 C 0.20477 0.41276 -0.01319
 H575 H 0.20451 0.44923 0.04363
 H576 H 0.19028 0.40725 -0.04365
 C577 C 0.69194 0.90158 0.46902
 C578 C 0.71283 0.89706 0.50523
 H579 H 0.69879 0.88183 0.44116
 H580 H 0.70539 0.91747 0.53253
 C581 C 0.79938 0.92661 0.49564
 C582 C 0.78840 0.89210 0.51849
 H583 H 0.78024 0.93659 0.46958
 H584 H 0.80820 0.88231 0.54408
 C585 C 0.31583 0.40505 0.02016
 C586 C 0.27882 0.41740 0.00603
 H587 H 0.32069 0.37225 0.02835
 H588 H 0.27518 0.45040 -0.00250
 C589 C 0.58048 0.50829 0.29817
 C590 C 0.61372 0.48526 0.28415
 H591 H 0.57188 0.53614 0.28043
 H592 H 0.62271 0.45828 0.30294
 C593 C 0.06332 0.01510 0.78569
 C594 C 0.09447 -0.00888 0.76910
 H595 H 0.05775 0.04592 0.77191
 H596 H 0.09976 -0.03968 0.78303
 C597 C 0.07117 -0.00435 0.67683
 C598 C 0.09996 0.02084 0.69444
 H599 H 0.06518 -0.03547 0.69054
 H600 H 0.10559 0.05228 0.68136
 C601 C 0.58175 0.48294 0.19229
 C602 C 0.61143 0.50864 0.20744
 H603 H 0.57794 0.45119 0.20513
 H604 H 0.61533 0.54024 0.19422
 C605 C 0.43703 0.01400 0.19900
 C606 C 0.40209 -0.00660 0.21259
 H607 H 0.44810 0.04136 0.21663
 H608 H 0.39205 -0.03449 0.19507
 C609 C 0.91810 0.47876 0.71204
 C610 C 0.90654 0.51448 0.73250
 H611 H 0.90446 0.44866 0.72191
 H612 H 0.92093 0.54421 0.72218
 C613 C 0.93128 0.50306 0.82242
 C614 C 0.89825 0.52544 0.81087
 H615 H 0.94163 0.47618 0.80310
 H616 H 0.88911 0.55292 0.82997
 C617 C 0.43426 -0.00392 0.29974
 C618 C 0.39960 0.01724 0.29067
 H619 H 0.44486 -0.02951 0.27883
 H620 H 0.38926 0.04215 0.31257
   
