data_POSCAR
  _audit_creation_date              2014-09-24
  _audit_creation_method            'ToBaCCo'
  _symmetry_space_group_name_H-M    'P1'
  _symmetry_Int_Tables_number       1
  _symmetry_cell_setting            triclinic
  loop_
  _symmetry_equiv_pos_as_xyz
 x,y,z
_cell_length_a 28.3155
_cell_length_b 26.6273
_cell_length_c 27.1492
_cell_angle_alpha 83.523800
_cell_angle_beta 93.793700
_cell_angle_gamma 94.644200
loop_
  _atom_site_label
  _atom_site_type_symbol
  _atom_site_fract_x
  _atom_site_fract_y
  _atom_site_fract_z
C1 C 0.29233 0.31801 0.22084
 H2 H 0.29266 0.32208 0.26007
 C3 C 0.32665 0.34504 0.19180
 H4 H 0.35347 0.37019 0.20857
 C5 C 0.25845 0.27830 0.15149
 H6 H 0.23282 0.25103 0.13632
 C7 C 0.29221 0.30463 0.12105
 H8 H 0.29216 0.29795 0.08243
 N9 N 0.25940 0.28514 0.20051
 C10 C 0.16584 0.26813 0.32264
 H11 H 0.16722 0.22834 0.33569
 C12 C 0.14499 0.30005 0.35094
 H13 H 0.13112 0.28470 0.38619
 C14 C 0.18238 0.33638 0.26096
 H15 H 0.19679 0.35026 0.22566
 C16 C 0.15966 0.36901 0.28680
 H17 H 0.15611 0.40772 0.27074
 Zn18 Zn 0.21970 0.24493 0.24514
 N19 N 0.18622 0.28728 0.27986
 C20 C 0.26895 0.21195 0.33772
 N21 N 0.26141 0.20551 0.28867
 C22 C 0.28730 0.17387 0.26723
 C23 C 0.32190 0.14685 0.29533
 C24 C 0.30284 0.18522 0.36728
 C25 C 0.14550 0.22699 0.17454
 C26 C 0.11381 0.19853 0.14505
 C27 C 0.14142 0.12222 0.19078
 C28 C 0.17276 0.15210 0.21921
 N29 N 0.17490 0.20350 0.20998
 H30 H 0.25015 0.23904 0.35389
 H31 H 0.28166 0.17046 0.22791
 H32 H 0.34270 0.12237 0.27762
 H33 H 0.30865 0.19081 0.40619
 H34 H 0.14767 0.26795 0.16831
 H35 H 0.09148 0.21756 0.11603
 H36 H 0.14084 0.08131 0.19752
 H37 H 0.19569 0.13415 0.24817
 C38 C 0.14283 0.35163 0.33371
 C39 C 0.32726 0.33755 0.14161
 C40 C 0.11177 0.14552 0.15300
 C41 C 0.33038 0.15303 0.34579
 C42 C 0.80152 0.81685 0.23467
 H43 H 0.80868 0.81749 0.27425
 C44 C 0.83207 0.84444 0.20155
 H45 H 0.86229 0.86700 0.21604
 C46 C 0.75404 0.78537 0.16814
 H47 H 0.72488 0.76075 0.15514
 C48 C 0.78302 0.81319 0.13369
 H49 H 0.77570 0.80916 0.09460
 N50 N 0.76335 0.78812 0.21759
 C51 C 0.66531 0.76662 0.33711
 H52 H 0.66423 0.72601 0.34668
 C53 C 0.63805 0.79596 0.36208
 H54 H 0.61648 0.77801 0.39155
 C55 C 0.69471 0.83973 0.28699
 H56 H 0.71638 0.85656 0.25729
 C57 C 0.66764 0.87035 0.31057
 H58 H 0.66896 0.91074 0.29923
 Zn59 Zn 0.72742 0.74773 0.26575
 N60 N 0.69318 0.78890 0.30063
 C61 C 0.77579 0.71226 0.35803
 N62 N 0.77174 0.71163 0.30785
 C63 C 0.80185 0.68665 0.28407
 C64 C 0.83766 0.66064 0.31075
 C65 C 0.81108 0.68628 0.38633
 C66 C 0.64946 0.72136 0.20213
 C67 C 0.62029 0.68945 0.17373
 C68 C 0.65914 0.61792 0.21626
 C69 C 0.68790 0.65121 0.24345
 N70 N 0.68369 0.70204 0.23472
 H71 H 0.75206 0.73312 0.37611
 H72 H 0.79814 0.68736 0.24408
 H73 H 0.86152 0.64106 0.29130
 H74 H 0.81405 0.68656 0.42627
 H75 H 0.64642 0.76188 0.19654
 H76 H 0.59474 0.70532 0.14603
 H77 H 0.66407 0.57772 0.22188
 H78 H 0.71447 0.63645 0.27038
 C79 C 0.63860 0.84839 0.34828
 C80 C 0.82254 0.84372 0.15010
 C81 C 0.62572 0.63728 0.18025
 C82 C 0.84275 0.66065 0.36238
 C83 C 0.82447 0.34439 0.73315
 H84 H 0.82572 0.34443 0.77306
 C85 C 0.85824 0.37421 0.70541
 H86 H 0.88527 0.39778 0.72387
 C87 C 0.78895 0.31212 0.66046
 H88 H 0.76286 0.28677 0.64321
 C89 C 0.82229 0.34097 0.63141
 H90 H 0.82128 0.33816 0.59185
 N91 N 0.79078 0.31407 0.71043
 C92 C 0.68358 0.27596 0.81990
 H93 H 0.68153 0.23506 0.82146
 C94 C 0.65396 0.29938 0.84792
 H95 H 0.62920 0.27656 0.87150
 C96 C 0.71775 0.35585 0.78659
 H97 H 0.74192 0.37772 0.76186
 C98 C 0.68892 0.38082 0.81418
 H99 H 0.69142 0.42184 0.81116
 Zn100 Zn 0.75082 0.26912 0.75113
 N101 N 0.71476 0.30431 0.79015
 C102 C 0.79394 0.22258 0.84166
 N103 N 0.79107 0.22595 0.79123
 C104 C 0.81779 0.19815 0.76648
 C105 C 0.84529 0.16172 0.79233
 C106 C 0.82214 0.18738 0.86923
 C107 C 0.67656 0.25501 0.67882
 C108 C 0.64625 0.22828 0.64655
 C109 C 0.67787 0.15058 0.68442
 C110 C 0.70737 0.17870 0.71608
 N111 N 0.70744 0.23016 0.71161
 H112 H 0.77364 0.24637 0.86061
 H113 H 0.81642 0.20321 0.72632
 H114 H 0.86605 0.14007 0.77139
 H115 H 0.82184 0.18396 0.90934
 H116 H 0.67654 0.29582 0.67680
 H117 H 0.62285 0.24850 0.61948
 H118 H 0.67931 0.10983 0.68714
 H119 H 0.73059 0.15926 0.74368
 C120 C 0.65639 0.35237 0.84484
 C121 C 0.85796 0.37159 0.65411
 C122 C 0.64791 0.17562 0.64832
 C123 C 0.84614 0.15382 0.84464
 C124 C 0.32412 0.84148 0.74511
 H125 H 0.32500 0.84250 0.78489
 C126 C 0.35574 0.87371 0.71659
 H127 H 0.38071 0.89997 0.73437
 C128 C 0.29151 0.80511 0.67343
 H129 H 0.26729 0.77757 0.65677
 C130 C 0.32286 0.83614 0.64370
 H131 H 0.32223 0.83256 0.60431
 N132 N 0.29275 0.80809 0.72324
 C133 C 0.18259 0.76602 0.82946
 H134 H 0.18181 0.72515 0.83151
 C135 C 0.15118 0.78863 0.85614
 H136 H 0.12636 0.76516 0.87912
 C137 C 0.21526 0.84661 0.79632
 H138 H 0.23961 0.86910 0.77227
 C139 C 0.18432 0.87078 0.82223
 H140 H 0.18530 0.91178 0.81836
 Zn141 Zn 0.25396 0.76129 0.76398
 N142 N 0.21407 0.79509 0.80060
 C143 C 0.29134 0.71358 0.85669
 N144 N 0.29504 0.72105 0.80661
 C145 C 0.32888 0.69960 0.78441
 C146 C 0.36006 0.66832 0.81258
 C147 C 0.32166 0.68219 0.88628
 C148 C 0.18142 0.74172 0.69189
 C149 C 0.15391 0.71345 0.65873
 C150 C 0.19319 0.63918 0.69369
 C151 C 0.21987 0.66882 0.72628
 N152 N 0.21454 0.71942 0.72382
 H153 H 0.26476 0.73153 0.87379
 H154 H 0.33123 0.70646 0.74457
 H155 H 0.38665 0.65120 0.79442
 H156 H 0.31800 0.67571 0.92599
 H157 H 0.17744 0.78186 0.69124
 H158 H 0.12861 0.73180 0.63240
 H159 H 0.19876 0.59929 0.69478
 H160 H 0.24547 0.65147 0.75274
 C161 C 0.15158 0.84161 0.85212
 C162 C 0.35598 0.87026 0.66543
 C163 C 0.16075 0.66190 0.65863
 C164 C 0.35662 0.65944 0.86411
 C165 C 0.02485 -0.05299 -0.03806
 C166 C 0.04867 -0.01739 -0.00094
 C167 C 0.01782 0.00817 0.02149
 C168 C -0.03446 -0.00352 0.00459
 C169 C -0.01107 -0.08695 -0.00676
 C170 C -0.04276 -0.06141 0.01412
 C171 C -0.00459 -0.01715 -0.07409
 C172 C -0.03627 0.00776 -0.05221
 H173 H 0.08631 -0.01071 0.00687
 H174 H -0.05977 0.01720 0.02278
 H175 H -0.01103 -0.12789 -0.00130
 H176 H 0.00000 -0.01147 -0.11368
 C177 C 0.04926 0.47869 0.45560
 C178 C 0.08269 0.51056 0.48915
 C179 C 0.05998 0.53927 0.51717
 C180 C 0.00570 0.53173 0.51172
 C181 C 0.01766 0.44665 0.49345
 C182 C -0.00493 0.47442 0.52248
 C183 C 0.01606 0.51585 0.42697
 C184 C -0.00670 0.54335 0.45605
 H185 H 0.12090 0.50923 0.49195
 H186 H -0.01293 0.55420 0.53548
 H187 H 0.01514 0.40570 0.49932
 H188 H 0.00914 0.51806 0.38709
 C189 C 0.53780 -0.02125 0.46005
 C190 C 0.56936 0.01712 0.48880
 C191 C 0.54484 0.04673 0.51416
 C192 C 0.49086 0.03479 0.51024
 C193 C 0.50889 -0.05122 0.50092
 C194 C 0.48431 -0.02224 0.52686
 C195 C 0.50252 0.01153 0.42829
 C196 C 0.47776 0.04019 0.45425
 H197 H 0.60755 0.01903 0.49323
 H198 H 0.47075 0.05839 0.53148
 H199 H 0.50832 -0.09205 0.50896
 H200 H 0.49719 0.01144 0.38840
 C201 C 0.54115 0.45481 -0.03083
 C202 C 0.56823 0.48188 0.01135
 C203 C 0.53998 0.50426 0.03981
 C204 C 0.48703 0.49869 0.02341
 C205 C 0.50391 0.41862 -0.00385
 C206 C 0.47579 0.44130 0.02427
 C207 C 0.51326 0.49694 -0.05968
 C208 C 0.48457 0.51929 -0.03182
 H209 H 0.60624 0.48702 0.01714
 H210 H 0.46378 0.51733 0.04611
 H211 H 0.50083 0.37809 -0.00604
 H212 H 0.51524 0.50735 -0.09928
 C213 C 0.06804 -0.13927 -0.13116
 C214 C 0.11770 -0.13345 -0.12107
 C215 C 0.13599 -0.10383 -0.08410
 C216 C 0.10629 -0.07962 -0.05717
 C217 C 0.05651 -0.08379 -0.06592
 C218 C 0.03710 -0.11574 -0.10269
 C219 C 0.04853 -0.16745 -0.16974
 C220 C -0.00034 -0.17445 -0.17891
 C221 C -0.03069 -0.15374 -0.14995
 C222 C -0.01241 -0.12497 -0.11233
 H223 H 0.07076 -0.18405 -0.19346
 H224 H -0.01473 -0.19631 -0.20845
 H225 H -0.06873 -0.15986 -0.15674
 H226 H -0.03795 -0.11093 -0.09093
 H227 H 0.17398 -0.09944 -0.07582
 H228 H 0.12376 -0.05778 -0.02942
 C229 C 0.14123 0.43565 0.37112
 C230 C 0.12096 0.38628 0.36369
 C231 C 0.07695 0.37016 0.38292
 C232 C 0.05413 0.40047 0.41085
 C233 C 0.07381 0.44893 0.42033
 C234 C 0.11532 0.46857 0.39540
 C235 C 0.18675 0.45327 0.35522
 C236 C 0.20348 0.50375 0.35700
 C237 C 0.17524 0.53753 0.37432
 C238 C 0.13150 0.52029 0.39302
 H239 H 0.20994 0.42840 0.34148
 H240 H 0.23806 0.51694 0.34385
 H241 H 0.18744 0.57718 0.37373
 H242 H 0.11015 0.54807 0.40445
 H243 H 0.05975 0.33354 0.37613
 H244 H 0.02006 0.38567 0.42404
 C245 C 0.56042 -0.12589 0.37574
 C246 C 0.61047 -0.11925 0.37436
 C247 C 0.63502 -0.08023 0.39779
 C248 C 0.61154 -0.04892 0.42389
 C249 C 0.56210 -0.05567 0.42887
 C250 C 0.53591 -0.09430 0.40323
 C251 C 0.53406 -0.16239 0.34905
 C252 C 0.48489 -0.16896 0.35024
 C253 C 0.46089 -0.13903 0.37738
 C254 C 0.48578 -0.10203 0.40331
 H255 H 0.55100 -0.18572 0.32637
 H256 H 0.46526 -0.19718 0.32965
 H257 H 0.42260 -0.14414 0.37795
 H258 H 0.46463 -0.07964 0.42265
 H259 H 0.67321 -0.07399 0.39612
 H260 H 0.63349 -0.01922 0.43954
 C261 C 0.57586 0.37874 -0.13659
 C262 C 0.62536 0.37803 -0.12584
 C263 C 0.64624 0.40125 -0.08556
 C264 C 0.61921 0.42495 -0.05551
 C265 C 0.56974 0.42729 -0.06472
 C266 C 0.54758 0.40292 -0.10582
 C267 C 0.55402 0.35620 -0.17781
 C268 C 0.50525 0.35620 -0.18822
 C269 C 0.47733 0.37861 -0.15799
 C270 C 0.49795 0.40165 -0.11738
 H271 H 0.57442 0.33854 -0.20251
 H272 H 0.48902 0.33865 -0.21988
 H273 H 0.43936 0.37827 -0.16611
 H274 H 0.47399 0.41805 -0.09562
 H275 H 0.68410 0.40042 -0.07679
 H276 H 0.63842 0.44063 -0.02468
 C277 C -0.13037 0.06629 -0.14611
 C278 C -0.12999 0.11564 -0.12973
 C279 C -0.10299 0.12491 -0.08574
 C280 C -0.07294 0.08971 -0.06202
 C281 C -0.06935 0.04309 -0.08009
 C282 C -0.09946 0.03029 -0.12159
 C283 C -0.16465 0.04976 -0.18256
 C284 C -0.16558 0.00142 -0.19760
 C285 C -0.13407 -0.03261 -0.17527
 C286 C -0.10211 -0.01880 -0.13714
 H287 H -0.19250 0.07304 -0.19850
 H288 H -0.19178 -0.01013 -0.22579
 H289 H -0.13556 -0.07058 -0.18624
 H290 H -0.08133 -0.04794 -0.11869
 H291 H -0.10189 0.16134 -0.07135
 H292 H -0.05115 0.09975 -0.02975
 C293 C -0.08055 0.65729 0.41674
 C294 C -0.11921 0.63278 0.39057
 C295 C -0.12038 0.58049 0.38800
 C296 C -0.08393 0.55238 0.41012
 C297 C -0.04511 0.57553 0.43574
 C298 C -0.04337 0.62827 0.43992
 C299 C -0.07707 0.71023 0.41888
 C300 C -0.03853 0.73380 0.44421
 C301 C -0.00255 0.70539 0.46727
 C302 C -0.00471 0.65323 0.46497
 H303 H -0.10366 0.73399 0.40072
 H304 H -0.03641 0.77438 0.44565
 H305 H 0.02743 0.72391 0.48664
 H306 H 0.02429 0.63291 0.48262
 H307 H -0.14960 0.56135 0.36797
 H308 H -0.08587 0.51205 0.40693
 C309 C 0.40841 0.15307 0.39810
 C310 C 0.36864 0.12661 0.37555
 C311 C 0.36553 0.07354 0.38026
 C312 C 0.40077 0.04649 0.40678
 C313 C 0.44013 0.07153 0.42987
 C314 C 0.44407 0.12527 0.42606
 C315 C 0.41451 0.20659 0.39198
 C316 C 0.45386 0.23206 0.41410
 C317 C 0.48813 0.20495 0.44211
 C318 C 0.48352 0.15216 0.44782
 H319 H 0.38949 0.22930 0.36955
 H320 H 0.45795 0.27306 0.40918
 H321 H 0.51874 0.22488 0.45905
 H322 H 0.51126 0.13284 0.46907
 H323 H 0.33555 0.05284 0.36299
 H324 H 0.39747 0.00547 0.40912
 C325 C 0.42227 0.64217 -0.06887
 C326 C 0.38891 0.62529 -0.10590
 C327 C 0.38721 0.57486 -0.11641
 C328 C 0.41788 0.54121 -0.09123
 C329 C 0.45129 0.55673 -0.05458
 C330 C 0.45355 0.60752 -0.04284
 C331 C 0.42653 0.69318 -0.05840
 C332 C 0.45998 0.70943 -0.02246
 C333 C 0.49026 0.67559 0.00309
 C334 C 0.48739 0.62531 -0.00723
 H335 H 0.40460 0.72114 -0.07816
 H336 H 0.46274 0.74860 -0.01475
 H337 H 0.51650 0.68846 0.03065
 H338 H 0.51222 0.60086 0.01244
 H339 H 0.36202 0.56150 -0.14471
 H340 H 0.41575 0.50259 -0.10071
 C341 C -0.16206 -0.10104 0.07143
 C342 C -0.14614 -0.13011 0.11592
 C343 C -0.09721 -0.13546 0.12498
 C344 C -0.06481 -0.11505 0.09049
 C345 C -0.07971 -0.08709 0.04631
 C346 C -0.12869 -0.08073 0.03596
 C347 C -0.20987 -0.08888 0.06259
 C348 C -0.22500 -0.06164 0.01825
 C349 C -0.19297 -0.04542 -0.01790
 C350 C -0.14530 -0.05474 -0.00914
 H351 H -0.23583 -0.09925 0.09010
 H352 H -0.26179 -0.05315 0.01190
 H353 H -0.20493 -0.02498 -0.05264
 H354 H -0.12172 -0.04196 -0.03811
 H355 H -0.08385 -0.15754 0.15822
 H356 H -0.02743 -0.12001 0.09897
 C357 C -0.05604 0.38845 0.63158
 C358 C -0.10444 0.39934 0.62415
 C359 C -0.11789 0.43644 0.58618
 C360 C -0.08464 0.46193 0.55497
 C361 C -0.03700 0.45095 0.56071
 C362 C -0.02191 0.41533 0.60023
 C363 C -0.04086 0.35058 0.66862
 C364 C 0.00700 0.34135 0.67617
 C365 C 0.04056 0.36930 0.64702
 C366 C 0.02643 0.40594 0.60934
 H367 H -0.06562 0.32757 0.69189
 H368 H 0.01812 0.31247 0.70494
 H369 H 0.07772 0.36235 0.65345
 H370 H 0.05372 0.42704 0.58779
 H371 H -0.15470 0.44511 0.58015
 H372 H -0.09649 0.48925 0.52497
 C373 C 0.44091 -0.10437 0.64201
 C374 C 0.39136 -0.09907 0.63442
 C375 C 0.37459 -0.06557 0.59473
 C376 C 0.40562 -0.03875 0.56177
 C377 C 0.45436 -0.04465 0.56749
 C378 C 0.47268 -0.07594 0.60893
 C379 C 0.45965 -0.13840 0.68074
 C380 C 0.50849 -0.14212 0.68832
 C381 C 0.53957 -0.11247 0.65747
 C382 C 0.52202 -0.07971 0.61806
 H383 H 0.43701 -0.16266 0.70535
 H384 H 0.52231 -0.16807 0.71841
 H385 H 0.57747 -0.11512 0.66390
 H386 H 0.54743 -0.05713 0.59515
 H387 H 0.33689 -0.06113 0.58850
 H388 H 0.39125 -0.01484 0.53028
 C389 C 0.41350 0.34705 0.12081
 C390 C 0.36638 0.36159 0.11169
 C391 C 0.35646 0.40080 0.07455
 C392 C 0.39249 0.42617 0.04682
 C393 C 0.43937 0.41276 0.05512
 C394 C 0.45047 0.37330 0.09284
 C395 C 0.42467 0.30686 0.15722
 C396 C 0.47138 0.29415 0.16717
 C397 C 0.50778 0.32110 0.14127
 C398 C 0.49766 0.36032 0.10455
 H399 H 0.39751 0.28487 0.17826
 H400 H 0.47942 0.26347 0.19538
 H401 H 0.54409 0.31157 0.14968
 H402 H 0.52730 0.38073 0.08624
 H403 H 0.32056 0.41223 0.06743
 H404 H 0.38370 0.45645 0.01838
 C405 C 0.04546 0.07780 0.13806
 C406 C 0.08121 0.11424 0.11995
 C407 C 0.09108 0.11836 0.06978
 C408 C 0.06842 0.08506 0.03828
 C409 C 0.03504 0.04647 0.05576
 C410 C 0.02244 0.04334 0.10591
 C411 C 0.03224 0.07480 0.18762
 C412 C -0.00194 0.03785 0.20558
 C413 C -0.02343 0.00333 0.17471
 C414 C -0.01134 0.00593 0.12549
 H415 H 0.04788 0.10115 0.21272
 H416 H -0.01169 0.03591 0.24367
 H417 H -0.04971 -0.02557 0.18888
 H418 H -0.02875 -0.02150 0.10320
 H419 H 0.11815 0.14624 0.05533
 H420 H 0.07821 0.08841 0.00006
 C421 C 0.14380 0.64310 0.56945
 C422 C 0.13556 0.63223 0.62066
 C423 C 0.10274 0.59233 0.63622
 C424 C 0.07801 0.56324 0.60201
 C425 C 0.08552 0.57311 0.55130
 C426 C 0.11777 0.61405 0.53441
 C427 C 0.17776 0.68187 0.55228
 C428 C 0.18423 0.69328 0.50167
 C429 C 0.15709 0.66655 0.46730
 C430 C 0.12410 0.62743 0.48334
 H431 H 0.19974 0.70356 0.57761
 H432 H 0.21015 0.72329 0.48905
 H433 H 0.16162 0.67615 0.42799
 H434 H 0.10296 0.60860 0.45539
 H435 H 0.09624 0.58365 0.67526
 H436 H 0.05329 0.53222 0.61530
 C437 C 0.62965 0.15321 0.56034
 C438 C 0.62008 0.14664 0.61141
 C439 C 0.58473 0.11008 0.62830
 C440 C 0.55946 0.07945 0.59581
 C441 C 0.56898 0.08425 0.54550
 C442 C 0.60329 0.12240 0.52696
 C443 C 0.66560 0.18895 0.54182
 C444 C 0.67381 0.19584 0.49136
 C445 C 0.64671 0.16728 0.45845
 C446 C 0.61184 0.13086 0.47587
 H447 H 0.68784 0.21178 0.56594
 H448 H 0.70123 0.22364 0.47770
 H449 H 0.65287 0.17321 0.41923
 H450 H 0.59140 0.10999 0.44877
 H451 H 0.57724 0.10464 0.66725
 H452 H 0.53336 0.05052 0.61043
 C453 C 0.56572 0.56471 0.16193
 C454 C 0.60024 0.60360 0.14611
 C455 C 0.61365 0.60892 0.09706
 C456 C 0.59410 0.57595 0.06379
 C457 C 0.55993 0.53689 0.07819
 C458 C 0.54553 0.53085 0.12778
 C459 C 0.55078 0.55883 0.21096
 C460 C 0.51748 0.51972 0.22640
 C461 C 0.49868 0.48583 0.19350
 C462 C 0.51261 0.49118 0.14477
 H463 H 0.56457 0.58441 0.23762
 H464 H 0.50640 0.51552 0.26414
 H465 H 0.47324 0.45516 0.20579
 H466 H 0.49778 0.46369 0.12093
 H467 H 0.64023 0.63840 0.08465
 H468 H 0.60531 0.58147 0.02604
   
