data_POSCAR
  _audit_creation_date              2014-09-24
  _audit_creation_method            'ToBaCCo'
  _symmetry_space_group_name_H-M    'P1'
  _symmetry_Int_Tables_number       1
  _symmetry_cell_setting            triclinic
  loop_
  _symmetry_equiv_pos_as_xyz
 x,y,z
_cell_length_a 37.6710
_cell_length_b 37.8715
_cell_length_c 47.3786
_cell_angle_alpha 90.081800
_cell_angle_beta 89.373400
_cell_angle_gamma 118.941900
loop_
  _atom_site_label
  _atom_site_type_symbol
  _atom_site_fract_x
  _atom_site_fract_y
  _atom_site_fract_z
C1 C 0.03418 0.49479 1.31232
 C2 C -0.00333 0.47250 1.32611
 C3 C -0.04041 0.45696 1.31189
 C4 C -0.03968 0.46033 1.28198
 C5 C -0.00206 0.48199 1.26727
 C6 C 0.03507 0.49969 1.28245
 C7 C 0.07175 0.51812 1.26696
 C8 C 0.07229 0.52166 1.23779
 C9 C 0.03619 0.50485 1.22242
 C10 C -0.00148 0.48408 1.23712
 C11 C -0.07535 0.43947 1.26618
 C12 C -0.07452 0.44040 1.23688
 C13 C -0.03827 0.46354 1.22168
 C14 C -0.03677 0.46364 1.19156
 C15 C 0.00096 0.48439 1.17787
 C16 C 0.03711 0.50588 1.19262
 H17 H 0.10076 0.52859 1.27682
 H18 H 0.10161 0.53588 1.22729
 H19 H -0.10430 0.41988 1.27609
 H20 H -0.10270 0.42105 1.22653
 H21 H -0.00330 0.47070 1.34892
 H22 H 0.00197 0.48554 1.15497
 C23 C 0.49503 0.53411 1.30973
 C24 C 0.51690 0.51818 1.32335
 C25 C 0.53951 0.50351 1.30836
 C26 C 0.54030 0.50540 1.27829
 C27 C 0.51824 0.52168 1.26418
 C28 C 0.49567 0.53611 1.27997
 C29 C 0.47462 0.55262 1.26558
 C30 C 0.47466 0.55393 1.23628
 C31 C 0.49591 0.53896 1.22011
 C32 C 0.51789 0.52267 1.23413
 C33 C 0.56035 0.48925 1.26175
 C34 C 0.55969 0.48997 1.23245
 C35 C 0.53893 0.50674 1.21815
 C36 C 0.53745 0.50670 1.18830
 C37 C 0.51548 0.52275 1.17492
 C38 C 0.49489 0.53894 1.19029
 H39 H 0.45783 0.56481 1.27679
 H40 H 0.45726 0.56631 1.22647
 H41 H 0.57594 0.47460 1.27091
 H42 H 0.57506 0.47631 1.22119
 H43 H 0.51658 0.51800 1.34620
 H44 H 0.51562 0.52405 1.15205
 C45 C 0.49632 0.96487 1.30931
 C46 C 0.51379 1.00199 1.32344
 C47 C 0.53094 1.03930 1.30925
 C48 C 0.53047 1.03950 1.27922
 C49 C 0.51403 1.00242 1.26426
 C50 C 0.49708 0.96510 1.27930
 C51 C 0.48269 0.92910 1.26382
 C52 C 0.48323 0.92934 1.23457
 C53 C 0.49894 0.96561 1.21927
 C54 C 0.51474 1.00260 1.23408
 C55 C 0.54715 1.07571 1.26358
 C56 C 0.54671 1.07575 1.23428
 C57 C 0.53122 1.03966 1.21881
 C58 C 0.53036 1.03940 1.18865
 C59 C 0.51324 1.00197 1.17474
 C60 C 0.49866 0.96557 1.18950
 H61 H 0.47142 0.90003 1.27390
 H62 H 0.47085 0.90045 1.22411
 H63 H 0.56117 1.10493 1.27350
 H64 H 0.55848 1.10488 1.22426
 H65 H 0.50985 1.00181 1.34605
 H66 H 0.51405 1.00081 1.15192
 C67 C 0.95592 0.47911 0.68846
 C68 C 0.99104 0.49867 0.67180
 C69 C 1.02988 0.52030 0.68361
 C70 C 1.03316 0.52115 0.71363
 C71 C 0.99750 0.50216 0.73082
 C72 C 0.95883 0.48137 0.71812
 C73 C 0.92389 0.46408 0.73537
 C74 C 0.92668 0.46731 0.76456
 C75 C 0.96456 0.48741 0.77776
 C76 C 1.00043 0.50394 0.76084
 C77 C 1.07102 0.53924 0.72708
 C78 C 1.07391 0.54009 0.75631
 C79 C 1.03911 0.52249 0.77382
 C80 C 1.04179 0.52443 0.80382
 C81 C 1.00565 0.50900 0.81988
 C82 C 0.96740 0.49073 0.80745
 H83 H 0.89383 0.44842 0.72649
 H84 H 0.89864 0.45331 0.77663
 H85 H 1.09932 0.55248 0.71542
 H86 H 1.10415 0.55576 0.76474
 H87 H 0.98723 0.49777 0.64919
 H88 H 1.00682 0.50992 0.84268
 C89 C 0.49031 0.46183 0.68705
 C90 C 0.47333 0.48344 0.67424
 C91 C 0.45962 0.50578 0.69007
 C92 C 0.46203 0.50589 0.71986
 C93 C 0.47902 0.48407 0.73328
 C94 C 0.49344 0.46218 0.71683
 C95 C 0.51168 0.44225 0.73057
 C96 C 0.51516 0.44323 0.75982
 C97 C 0.50019 0.46384 0.77664
 C98 C 0.48195 0.48447 0.76322
 C99 C 0.44732 0.52675 0.73662
 C100 C 0.44957 0.52659 0.76588
 C101 C 0.46666 0.50559 0.77966
 C102 C 0.46943 0.50579 0.80941
 C103 C 0.48859 0.48635 0.82229
 C104 C 0.50386 0.46525 0.80644
 H105 H 0.52417 0.42619 0.71886
 H106 H 0.53017 0.42792 0.76902
 H107 H 0.43355 0.54320 0.72733
 H108 H 0.43824 0.54372 0.77754
 H109 H 0.47121 0.48329 0.65144
 H110 H 0.48976 0.48589 0.84513
 C111 C 0.48254 -0.03237 0.81642
 C112 C 0.50288 0.00610 0.82885
 C113 C 0.52342 0.04136 0.81281
 C114 C 0.52457 0.03883 0.78315
 C115 C 0.50495 0.00054 0.76987
 C116 C 0.48372 -0.03520 0.78640
 C117 C 0.46567 -0.07267 0.77233
 C118 C 0.46699 -0.07495 0.74307
 C119 C 0.48734 -0.04005 0.72639
 C120 C 0.50675 -0.00194 0.73992
 C121 C 0.54548 0.07371 0.76645
 C122 C 0.54697 0.07125 0.73727
 C123 C 0.52804 0.03376 0.72354
 C124 C 0.52921 0.03120 0.69381
 C125 C 0.50892 -0.00651 0.68075
 C126 C 0.48831 -0.04219 0.69654
 H127 H 0.45069 -0.10108 0.78348
 H128 H 0.45174 -0.10464 0.73372
 H129 H 0.56120 0.10342 0.77576
 H130 H 0.56301 0.09929 0.72564
 H131 H 0.50048 0.00956 0.85135
 H132 H 0.51064 -0.00821 0.65796
 O133 O 0.39842 0.67931 0.97370
 O134 O 0.39383 0.74366 0.98831
 C135 C 0.37175 0.75325 0.97352
 O136 O 0.33317 0.73425 0.97430
 O137 O 0.26405 0.66698 0.97280
 C138 C 0.26246 0.64166 0.95474
 O139 O 0.28174 0.62223 0.95725
 O140 O 0.34650 0.61700 0.96923
 C141 C 0.38151 0.64491 0.96217
 O142 O 0.38373 0.65289 1.02761
 O143 O 0.37836 0.71643 1.04210
 C144 C 0.35807 0.73441 1.04684
 O145 O 0.33032 0.73163 1.03076
 O146 O 0.26453 0.66157 1.02931
 C147 C 0.24636 0.62324 1.02871
 O148 O 0.25529 0.60311 1.01127
 O149 O 0.32140 0.60028 1.02327
 C150 C 0.35602 0.61781 1.03462
 Cr151 Cr 0.38631 0.69692 1.00759
 Cr152 Cr 0.29915 0.69746 1.00170
 Cr153 Cr 0.30233 0.61290 0.99061
 O154 O 0.32946 0.66908 0.99992
 O155 O 0.62659 0.34214 0.95977
 O156 O 0.62364 0.27321 0.97024
 C157 C 0.65207 0.26588 0.96315
 O158 O 0.68639 0.28191 0.97490
 O159 O 0.75099 0.34871 0.98887
 C160 C 0.75995 0.37963 0.97366
 O161 O 0.74099 0.39966 0.97500
 O162 O 0.67339 0.40310 0.97338
 C163 C 0.64624 0.38001 0.95648
 O164 O 0.60850 0.34789 1.01452
 O165 O 0.60670 0.27925 1.02490
 C166 C 0.62461 0.26174 1.03582
 O167 O 0.66042 0.26964 1.02902
 O168 O 0.72346 0.33698 1.04296
 C169 C 0.74006 0.37427 1.04836
 O170 O 0.73799 0.39964 1.03203
 O171 O 0.66788 0.39748 1.02984
 C172 C 0.62938 0.37778 1.03050
 Cr173 Cr 0.61872 0.31179 0.99271
 Cr174 Cr 0.70417 0.31055 1.00862
 Cr175 Cr 0.70397 0.39762 1.00248
 O176 O 0.67549 0.33980 1.00125
 O177 O 0.64680 0.39138 0.51116
 O178 O 0.71467 0.39422 0.52582
 C179 C 0.73104 0.37650 0.53849
 O180 O 0.72466 0.34126 0.53230
 O181 O 0.65562 0.27745 0.54328
 C182 C 0.61741 0.25813 0.54530
 O183 O 0.59455 0.26110 0.52723
 O184 O 0.59672 0.33134 0.52588
 C185 C 0.61581 0.36970 0.52661
 O186 O 0.66046 0.37568 0.45737
 O187 O 0.72855 0.37956 0.47216
 C188 C 0.73702 0.35161 0.46649
 O189 O 0.71983 0.31730 0.47833
 O190 O 0.65125 0.25243 0.48919
 C191 C 0.62293 0.24457 0.47171
 O192 O 0.60274 0.26343 0.47096
 O193 O 0.59781 0.33008 0.46950
 C194 C 0.62275 0.35713 0.45303
 Cr195 Cr 0.68650 0.38297 0.49196
 Cr196 Cr 0.68671 0.29824 0.51037
 Cr197 Cr 0.60020 0.29760 0.49846
 O198 O 0.65810 0.32644 0.50027
 O199 O 0.31379 0.60312 0.52407
 O200 O 0.25086 0.60822 0.50671
 C201 C 0.24054 0.62997 0.52148
 O202 O 0.25964 0.66835 0.52107
 O203 O 0.32714 0.73730 0.52473
 C204 C 0.35162 0.73894 0.54348
 O205 O 0.37049 0.71901 0.54189
 O206 O 0.37605 0.65427 0.53122
 C207 C 0.34701 0.61942 0.53720
 O208 O 0.34550 0.61812 0.47126
 O209 O 0.28351 0.62454 0.45410
 C210 C 0.26585 0.64469 0.44826
 O211 O 0.26676 0.67185 0.46434
 O212 O 0.33710 0.73721 0.46846
 C213 C 0.37553 0.75508 0.47029
 O214 O 0.39437 0.74569 0.48837
 O215 O 0.39792 0.67986 0.47758
 C216 C 0.38151 0.64563 0.46581
 Cr217 Cr 0.29953 0.61576 0.48939
 Cr218 Cr 0.29873 0.70248 0.49479
 Cr219 Cr 0.38247 0.69863 0.50932
 O220 O 0.32698 0.67215 0.49786
 C221 C 0.47011 0.54653 0.32724
 C222 C 0.48560 0.57029 0.35121
 C223 C 0.46039 0.57992 0.37022
 N224 N 0.47814 0.60779 0.39080
 N225 N 0.45570 0.61608 0.40872
 C226 C 0.41462 0.59659 0.40684
 N227 N 0.39684 0.56858 0.38633
 N228 N 0.41931 0.56046 0.36830
 C229 C 0.38944 0.60478 0.42693
 C230 C 0.40618 0.63762 0.44519
 H231 H 0.51738 0.58233 0.35617
 H232 H 0.35694 0.58487 0.42700
 H233 H 0.43910 0.53672 0.32117
 H234 H 0.43836 0.65877 0.44395
 C235 C 0.47580 0.92873 0.32534
 C236 C 0.48465 0.92560 0.35357
 C237 C 0.45904 0.89068 0.37160
 N238 N 0.47235 0.88779 0.39752
 N239 N 0.44903 0.85752 0.41484
 C240 C 0.41134 0.82912 0.40700
 N241 N 0.39793 0.83203 0.38107
 N242 N 0.42136 0.86227 0.36367
 C243 C 0.38524 0.79588 0.42624
 C244 C 0.40022 0.78886 0.45115
 H245 H 0.51183 0.94925 0.36300
 H246 H 0.35411 0.77594 0.42031
 H247 H 0.45181 0.90197 0.31587
 H248 H 0.43196 0.80757 0.45618
 C249 C 0.06863 0.50990 0.32976
 C250 C 0.10247 0.54829 0.32753
 C251 C 0.13588 0.56164 0.34785
 N252 N 0.16009 0.60150 0.35307
 N253 N 0.18928 0.61351 0.37227
 C254 C 0.19562 0.58609 0.38670
 N255 N 0.17193 0.54632 0.38106
 N256 N 0.14254 0.53431 0.36208
 C257 C 0.22628 0.59842 0.40899
 C258 C 0.24187 0.63574 0.42231
 H259 H 0.10280 0.57004 0.31257
 H260 H 0.23348 0.57593 0.41714
 H261 H 0.06605 0.49339 0.34906
 H262 H 0.23237 0.65715 0.41549
 C263 C 0.56084 0.48766 0.32354
 C264 C 0.54791 0.46901 0.34991
 C265 C 0.56919 0.45122 0.36512
 N266 N 0.54901 0.42326 0.38543
 N267 N 0.56760 0.40702 0.39990
 C268 C 0.60720 0.41827 0.39476
 N269 N 0.62760 0.44653 0.37454
 N270 N 0.60884 0.46256 0.35983
 C271 C 0.62806 0.40186 0.41209
 C272 C 0.60567 0.36814 0.42912
 H273 H 0.51899 0.46340 0.35869
 H274 H 0.66087 0.41795 0.41298
 H275 H 0.58695 0.48738 0.31418
 H276 H 0.57299 0.35150 0.42693
 C277 C 0.54544 0.07499 0.32549
 C278 C 0.55936 0.07775 0.35310
 C279 C 0.56854 0.11208 0.37165
 N280 N 0.58617 0.11434 0.39685
 N281 N 0.59329 0.14415 0.41467
 C282 C 0.58278 0.17270 0.40806
 N283 N 0.56501 0.17043 0.38286
 N284 N 0.55800 0.14062 0.36494
 C285 C 0.59032 0.20547 0.42786
 C286 C 0.61330 0.21136 0.45200
 H287 H 0.56468 0.05420 0.36159
 H288 H 0.57866 0.22586 0.42299
 H289 H 0.54632 0.10170 0.31674
 H290 H 0.62656 0.19208 0.45597
 C291 C 0.92287 0.44100 0.32768
 C292 C 0.91813 0.42531 0.35502
 C293 C 0.88195 0.41500 0.37255
 N294 N 0.87430 0.39108 0.39558
 N295 N 0.84276 0.38288 0.41249
 C296 C 0.81791 0.39867 0.40718
 N297 N 0.82569 0.42284 0.38423
 N298 N 0.85707 0.43077 0.36715
 C299 C 0.78386 0.39079 0.42637
 C300 C 0.76921 0.35909 0.44576
 H301 H 0.94075 0.41877 0.36375
 H302 H 0.76981 0.40981 0.42498
 H303 H 0.89667 0.44092 0.31852
 H304 H 0.78137 0.33836 0.44549
 C305 C 0.55971 0.49153 1.17046
 C306 C 0.54200 0.46786 1.14676
 C307 C 0.56420 0.45464 1.12765
 N308 N 0.54440 0.42923 1.10615
 N309 N 0.56416 0.41756 1.08824
 C310 C 0.60452 0.43102 1.09111
 N311 N 0.62436 0.45650 1.11259
 N312 N 0.60456 0.46808 1.13056
 C313 C 0.62684 0.41882 1.07127
 C314 C 0.60722 0.39004 1.05042
 H315 H 0.51062 0.45858 1.14207
 H316 H 0.65944 0.43252 1.07338
 H317 H 0.59035 0.49904 1.17604
 H318 H 0.57448 0.37538 1.04894
 C319 C 0.92970 0.44266 1.17373
 C320 C 0.89206 0.44112 1.17676
 C321 C 0.86069 0.42071 1.15525
 N322 N 0.83449 0.43445 1.14880
 N323 N 0.80786 0.41754 1.12806
 C324 C 0.80616 0.38598 1.11326
 N325 N 0.83171 0.37169 1.12017
 N326 N 0.85862 0.38887 1.14065
 C327 C 0.77835 0.36809 1.08942
 C328 C 0.76351 0.38972 1.07442
 H329 H 0.88732 0.45876 1.19288
 H330 H 0.77258 0.33880 1.08185
 H331 H 0.93542 0.43268 1.15352
 H332 H 0.77200 0.42028 1.08073
 C333 C 0.54835 0.07539 1.17236
 C334 C 0.53665 0.07818 1.14485
 C335 C 0.55833 0.11506 1.12763
 N336 N 0.53965 0.12121 1.10532
 N337 N 0.55933 0.15373 1.08892
 C338 C 0.59860 0.18111 1.09405
 N339 N 0.61737 0.17482 1.11624
 N340 N 0.59756 0.14252 1.13283
 C341 C 0.62135 0.21595 1.07518
 C342 C 0.60200 0.22975 1.05680
 H343 H 0.50947 0.05366 1.13607
 H344 H 0.65418 0.23119 1.07582
 H345 H 0.57205 0.10285 1.18126
 H346 H 0.56930 0.21673 1.05782
 C347 C 0.47432 0.55736 1.17445
 C348 C 0.44953 0.53777 1.15163
 C349 C 0.43399 0.55794 1.13298
 N350 N 0.40631 0.53641 1.11304
 N351 N 0.39367 0.55473 1.09493
 C352 C 0.40851 0.59530 1.09600
 N353 N 0.43615 0.61679 1.11595
 N354 N 0.44860 0.59845 1.13416
 C355 C 0.39688 0.61637 1.07519
 C356 C 0.36475 0.59607 1.05673
 H357 H 0.44222 0.50701 1.14687
 H358 H 0.41438 0.64900 1.07431
 H359 H 0.47945 0.58703 1.18052
 H360 H 0.34533 0.56377 1.05878
 C361 C 0.07505 0.53061 1.17620
 C362 C 0.08302 0.51700 1.15082
 C363 C 0.11598 0.54311 1.13138
 N364 N 0.12144 0.52738 1.10706
 N365 N 0.14988 0.55066 1.08846
 C366 C 0.17387 0.59066 1.09336
 N367 N 0.16846 0.60647 1.11772
 N368 N 0.13996 0.58312 1.13640
 C369 C 0.20542 0.61640 1.07277
 C370 C 0.21296 0.59994 1.04861
 H371 H 0.06331 0.48617 1.14433
 H372 H 0.22379 0.64828 1.07714
 H373 H 0.09612 0.56051 1.18367
 H374 H 0.19521 0.56779 1.04493
 C375 C 0.48524 0.92797 1.17318
 C376 C 0.45670 0.91729 1.15196
 C377 C 0.44236 0.87977 1.13584
 N378 N 0.40956 0.86742 1.11912
 N379 N 0.39649 0.83394 1.10392
 C380 C 0.41577 0.81153 1.10477
 N381 N 0.44870 0.82392 1.12147
 N382 N 0.46165 0.85736 1.13684
 C383 C 0.40278 0.77595 1.08653
 C384 C 0.36728 0.76152 1.07105
 H385 H 0.44344 0.93650 1.14765
 H386 H 0.42270 0.76303 1.08366
 H387 H 0.49667 0.90766 1.17884
 H388 H 0.34739 0.77434 1.07462
 C389 C 0.50411 0.43896 0.66871
 C390 C 0.52605 0.45576 0.64388
 C391 C 0.53836 0.43338 0.62435
 N392 N 0.56249 0.45276 0.60183
 N393 N 0.57360 0.43301 0.58362
 C394 C 0.56082 0.39305 0.58717
 N395 N 0.53652 0.37359 0.60965
 N396 N 0.52550 0.39340 0.62793
 C397 C 0.57304 0.37099 0.56722
 C398 C 0.60167 0.39085 0.54588
 H399 H 0.53491 0.48679 0.63861
 H400 H 0.56016 0.33868 0.56992
 H401 H 0.49725 0.40879 0.67491
 H402 H 0.61562 0.42336 0.54394
 C403 C 0.55265 0.06740 0.67600
 C404 C 0.53509 0.07598 0.65321
 C405 C 0.55707 0.11313 0.63643
 N406 N 0.53667 0.12319 0.61753
 N407 N 0.55607 0.15662 0.60204
 C408 C 0.59662 0.18126 0.60481
 N409 N 0.61709 0.17115 0.62366
 N410 N 0.59763 0.13777 0.63929
 C411 C 0.61848 0.21708 0.58663
 C412 C 0.59760 0.22921 0.56844
 H413 H 0.50362 0.05565 0.64831
 H414 H 0.65134 0.23250 0.58631
 H415 H 0.58332 0.08879 0.68201
 H416 H 0.56474 0.21398 0.56934
 C417 C 0.91661 0.45583 0.67405
 C418 C 0.90574 0.47243 0.65176
 C419 C 0.87019 0.44842 0.63422
 N420 N 0.85867 0.46715 0.61489
 N421 N 0.82799 0.44576 0.59764
 C422 C 0.80786 0.40482 0.59894
 N423 N 0.81935 0.38606 0.61830
 N424 N 0.84991 0.40747 0.63568
 C425 C 0.77555 0.38093 0.57888
 C426 C 0.75978 0.39888 0.56095
 H427 H 0.92467 0.50404 0.64650
 H428 H 0.76457 0.34871 0.57782
 H429 H 0.89640 0.42515 0.68085
 H430 H 0.76926 0.43070 0.56312
 C431 C 0.44521 0.53053 0.67475
 C432 C 0.41904 0.51525 0.65194
 C433 C 0.40890 0.54068 0.63395
 N434 N 0.37944 0.52325 0.61436
 N435 N 0.37125 0.54582 0.59688
 C436 C 0.39242 0.58673 0.59820
 N437 N 0.42190 0.60419 0.61780
 N438 N 0.42993 0.58160 0.63541
 C439 C 0.38519 0.61197 0.57794
 C440 C 0.35212 0.59574 0.55985
 H441 H 0.40603 0.48355 0.64677
 H442 H 0.40680 0.64390 0.57691
 H443 H 0.45601 0.56146 0.68123
 H444 H 0.32945 0.56426 0.56195
 C445 C 0.46974 0.91878 0.68128
 C446 C 0.44589 0.91260 0.65755
 C447 C 0.42959 0.87552 0.64057
 N448 N 0.40275 0.86964 0.61985
 N449 N 0.38895 0.83724 0.60338
 C450 C 0.40159 0.80949 0.60691
 N451 N 0.42841 0.81531 0.62769
 N452 N 0.44208 0.84767 0.64428
 C453 C 0.38855 0.77501 0.58750
 C454 C 0.35929 0.76704 0.56704
 H455 H 0.43888 0.93596 0.65112
 H456 H 0.40383 0.75708 0.58831
 H457 H 0.47478 0.89463 0.68888
 H458 H 0.34345 0.78449 0.56689
 C459 C 0.06402 0.54205 0.66558
 C460 C 0.06520 0.53295 0.63702
 C461 C 0.09967 0.55771 0.61814
 N462 N 0.10179 0.54332 0.59232
 N463 N 0.13247 0.56515 0.57472
 C464 C 0.16210 0.60241 0.58215
 N465 N 0.15982 0.61704 0.60790
 N466 N 0.12917 0.59507 0.62560
 C467 C 0.19659 0.62625 0.56297
 C468 C 0.20425 0.60865 0.53948
 H469 H 0.04135 0.50546 0.62816
 H470 H 0.21755 0.65727 0.56832
 H471 H 0.09115 0.56705 0.67383
 H472 H 0.18458 0.57689 0.53536
 C473 C 0.44931 0.52295 0.82749
 C474 C 0.46842 0.54787 0.85038
 C475 C 0.44702 0.56305 0.86872
 N476 N 0.46792 0.59295 0.88750
 N477 N 0.44855 0.60620 0.90458
 C478 C 0.40755 0.58983 0.90356
 N479 N 0.38671 0.55987 0.88487
 N480 N 0.40608 0.54684 0.86769
 C481 C 0.38522 0.60221 0.92324
 C482 C 0.40416 0.63649 0.94008
 H483 H 0.49986 0.55691 0.85463
 H484 H 0.35262 0.58318 0.92476
 H485 H 0.41878 0.51625 0.82223
 H486 H 0.43631 0.65707 0.93742
 C487 C 0.07932 0.54007 0.81793
 C488 C 0.08548 0.55711 0.84482
 C489 C 0.12309 0.57039 0.86062
 N490 N 0.13039 0.59529 0.88290
 N491 N 0.16317 0.60645 0.89852
 C492 C 0.18987 0.59292 0.89265
 N493 N 0.18254 0.56778 0.87039
 N494 N 0.14977 0.55681 0.85455
 C495 C 0.22485 0.60384 0.91116
 C496 C 0.23516 0.63435 0.93099
 H497 H 0.06294 0.56350 0.85430
 H498 H 0.24086 0.58659 0.91029
 H499 H 0.10511 0.54015 0.80767
 H500 H 0.21973 0.65218 0.93059
 C501 C 0.45992 0.93341 0.83386
 C502 C 0.46782 0.93200 0.86250
 C503 C 0.44294 0.89690 0.88053
 N504 N 0.45703 0.89398 0.90612
 N505 N 0.43521 0.86244 0.92285
 C506 C 0.39830 0.83274 0.91473
 N507 N 0.38390 0.83586 0.88926
 N508 N 0.40588 0.86737 0.87240
 C509 C 0.37465 0.79743 0.93298
 C510 C 0.39302 0.78885 0.95530
 H511 H 0.49474 0.95599 0.87193
 H512 H 0.34324 0.77704 0.92802
 H513 H 0.43559 0.90630 0.82507
 H514 H 0.42517 0.80801 0.95883
 C515 C 0.52139 0.44317 0.82175
 C516 C 0.54860 0.46106 0.84375
 C517 C 0.56424 0.43927 0.86088
 N518 N 0.59400 0.45993 0.87975
 N519 N 0.60751 0.44074 0.89634
 C520 C 0.59167 0.40006 0.89483
 N521 N 0.56189 0.37934 0.87592
 N522 N 0.54849 0.39859 0.85919
 C523 C 0.60484 0.37844 0.91439
 C524 C 0.63686 0.39931 0.93290
 H525 H 0.55892 0.49248 0.84865
 H526 H 0.58782 0.34580 0.91522
 H527 H 0.51288 0.41257 0.81560
 H528 H 0.65418 0.43190 0.93142
 C529 C 0.93104 0.47686 0.82609
 C530 C 0.92741 0.45667 0.85147
 C531 C 0.89401 0.44650 0.87180
 N532 N 0.89097 0.42438 0.89508
 N533 N 0.86159 0.41561 0.91413
 C534 C 0.83422 0.42886 0.91072
 N535 N 0.83732 0.45112 0.88746
 N536 N 0.86667 0.45979 0.86834
 C537 C 0.80150 0.41916 0.93162
 C538 C 0.79430 0.39227 0.95381
 H539 H 0.95013 0.44814 0.85679
 H540 H 0.78174 0.43221 0.92885
 H541 H 0.90708 0.48318 0.81991
 H542 H 0.81307 0.37797 0.95577
 C543 C 0.54104 0.08055 0.82776
 C544 C 0.56530 0.08782 0.85138
 C545 C 0.57878 0.12417 0.86878
 N546 N 0.60754 0.13292 0.88861
 N547 N 0.61859 0.16454 0.90556
 C548 C 0.60106 0.18843 0.90345
 N549 N 0.57226 0.17966 0.88363
 N550 N 0.56141 0.14820 0.86653
 C551 C 0.61116 0.22189 0.92321
 C552 C 0.64475 0.23624 0.94076
 H553 H 0.57426 0.06574 0.85755
 H554 H 0.59127 0.23507 0.92429
 H555 H 0.53440 0.10369 0.82023
 H556 H 0.66606 0.22489 0.93837
   
