data_POSCAR
  _audit_creation_date              2014-09-24
  _audit_creation_method            'ToBaCCo'
  _symmetry_space_group_name_H-M    'P1'
  _symmetry_Int_Tables_number       1
  _symmetry_cell_setting            triclinic
  loop_
  _symmetry_equiv_pos_as_xyz
 x,y,z
_cell_length_a 51.0872
_cell_length_b 51.0795
_cell_length_c 51.1579
_cell_angle_alpha 90.020500
_cell_angle_beta 90.018600
_cell_angle_gamma 90.022400
loop_
  _atom_site_label
  _atom_site_type_symbol
  _atom_site_fract_x
  _atom_site_fract_y
  _atom_site_fract_z
C1 C 0.36598 0.33362 0.33409
 N2 N 0.35512 0.32277 0.35574
 C3 C 0.33349 0.33368 0.36663
 N4 N 0.32258 0.35529 0.35572
 C5 C 0.33343 0.36615 0.33408
 N6 N 0.35506 0.35523 0.32319
 C7 C 0.36667 0.83380 -0.16662
 N8 N 0.35587 0.82293 -0.14495
 C9 C 0.33421 0.83376 -0.13405
 N10 N 0.32320 0.85531 -0.14498
 C11 C 0.33398 0.86619 -0.16665
 N12 N 0.35564 0.85535 -0.17754
 C13 C 0.86607 0.33454 -0.16657
 N14 N 0.85517 0.35616 -0.17749
 C15 C 0.83354 0.36708 -0.16663
 N16 N 0.82265 0.35621 -0.14500
 C17 C 0.83354 0.33459 -0.13409
 N18 N 0.85517 0.32369 -0.14495
 C19 C 0.86672 0.83322 0.33359
 N20 N 0.85590 0.82242 0.35529
 C21 C 0.83437 0.83343 0.36627
 N22 N 0.82350 0.85508 0.35539
 C23 C 0.83431 0.86588 0.33370
 N24 N 0.85584 0.85487 0.32273
 C25 C 0.63380 0.66623 0.33390
 N26 N 0.64465 0.67706 0.35558
 C27 C 0.66629 0.66617 0.36646
 N28 N 0.67723 0.64459 0.35550
 C29 C 0.66639 0.63375 0.33383
 N30 N 0.64475 0.64465 0.32296
 C31 C 0.63333 0.16615 -0.16673
 N32 N 0.64432 0.14456 -0.17762
 C33 C 0.66600 0.13373 -0.16675
 N34 N 0.67684 0.14466 -0.14512
 C35 C 0.66586 0.16625 -0.13421
 N36 N 0.64419 0.17707 -0.14510
 C37 C 0.13435 0.66574 -0.16671
 N38 N 0.14522 0.64409 -0.17759
 C39 C 0.16681 0.63313 -0.16668
 N40 N 0.17767 0.64398 -0.14501
 C41 C 0.16680 0.66563 -0.13412
 N42 N 0.14522 0.67658 -0.14505
 C43 C 0.13365 0.16634 0.33317
 N44 N 0.14456 0.14474 0.32223
 C45 C 0.16611 0.13372 0.33319
 N46 N 0.17688 0.14447 0.35494
 C47 C 0.16597 0.16607 0.36589
 N48 N 0.14443 0.17708 0.35493
 C49 C 0.63363 0.33353 0.66604
 N50 N 0.64455 0.35516 0.67693
 C51 C 0.66613 0.36612 0.66601
 N52 N 0.67695 0.35529 0.64433
 C53 C 0.66604 0.33366 0.63342
 N54 N 0.64446 0.32270 0.64436
 C55 C 0.63299 0.83329 1.16652
 N56 N 0.64386 0.82237 1.14491
 C57 C 0.66550 0.83324 1.13400
 N58 N 0.67642 0.85488 1.14487
 C59 C 0.66556 0.86581 1.16647
 N60 N 0.64392 0.85494 1.17737
 C61 C 0.13390 0.33380 1.16674
 N62 N 0.14473 0.35550 1.17761
 C63 C 0.16632 0.36649 1.16673
 N64 N 0.17723 0.35562 1.14511
 C65 C 0.16642 0.33393 1.13423
 N66 N 0.14482 0.32295 1.14513
 C67 C 0.13351 0.83389 0.66660
 N68 N 0.14456 0.85541 0.67760
 C69 C 0.16619 0.86632 0.66671
 N70 N 0.17693 0.85553 0.64497
 C71 C 0.16590 0.83401 0.63397
 N72 N 0.14427 0.82311 0.64486
 C73 C 0.36606 0.66657 0.66588
 N74 N 0.35520 0.64491 0.67674
 C75 C 0.33359 0.63395 0.66584
 N76 N 0.32270 0.64481 0.64421
 C77 C 0.33356 0.66647 0.63334
 N78 N 0.35517 0.67742 0.64425
 C79 C 0.36651 0.16598 1.16715
 N80 N 0.35551 0.14442 1.17810
 C81 C 0.33385 0.13353 1.16722
 N82 N 0.32305 0.14437 1.14554
 C83 C 0.33403 0.16592 1.13459
 N84 N 0.35569 0.17680 1.14547
 C85 C 0.86643 0.66598 1.16670
 N86 N 0.85554 0.67680 1.14505
 C87 C 0.83396 0.66582 1.13413
 N88 N 0.82310 0.64416 1.14501
 C89 C 0.83398 0.63332 1.16666
 N90 N 0.85557 0.64432 1.17758
 C91 C 0.86577 0.16583 0.66625
 N92 N 0.85473 0.14431 0.67721
 C93 C 0.83306 0.13344 0.66634
 N94 N 0.82227 0.14427 0.64465
 C95 C 0.83330 0.16580 0.63367
 N96 N 0.85497 0.17665 0.64455
 C97 C 0.33376 0.36593 0.66662
 N98 N 0.35536 0.35500 0.67753
 C99 C 0.36622 0.33333 0.66668
 N100 N 0.35531 0.32243 0.64507
 C101 C 0.33371 0.33334 0.63416
 N102 N 0.32286 0.35502 0.64501
 C103 C 0.33373 0.86714 0.16613
 N104 N 0.35538 0.85624 0.17698
 C105 C 0.36626 0.83461 0.16607
 N106 N 0.35535 0.82373 0.14446
 C107 C 0.33370 0.83462 0.13360
 N108 N 0.32282 0.85625 0.14451
 C109 C 0.83480 0.36643 0.16566
 N110 N 0.82386 0.35550 0.14409
 C111 C 0.83470 0.33382 0.13322
 N112 N 0.85635 0.32294 0.14409
 C113 C 0.86731 0.33387 0.16566
 N114 N 0.85645 0.35554 0.17652
 C115 C 0.83401 0.86724 0.66642
 N116 N 0.85570 0.85642 0.67728
 C117 C 0.86665 0.83481 0.66639
 N118 N 0.85575 0.82387 0.64480
 C119 C 0.83407 0.83468 0.63393
 N120 N 0.82312 0.85629 0.64483
 C121 C 0.66611 0.63393 0.66663
 N122 N 0.67697 0.64482 0.64501
 C123 C 0.66608 0.66646 0.63414
 N124 N 0.64446 0.67736 0.64505
 C125 C 0.63359 0.66648 0.66667
 N126 N 0.64449 0.64483 0.67753
 C127 C 0.66605 0.13338 0.16573
 N128 N 0.67695 0.14428 0.14413
 C129 C 0.66604 0.16588 0.13321
 N130 N 0.64435 0.17673 0.14404
 C131 C 0.63344 0.16583 0.16564
 N132 N 0.64437 0.14423 0.17655
 C133 C 0.16546 0.63353 0.16563
 N134 N 0.17642 0.64447 0.14408
 C135 C 0.16558 0.66614 0.13322
 N136 N 0.14393 0.67703 0.14407
 C137 C 0.13296 0.66610 0.16563
 N138 N 0.14381 0.64443 0.17648
 C139 C 0.16596 0.13255 0.66645
 N140 N 0.14436 0.14348 0.67735
 C141 C 0.13347 0.16512 0.66648
 N142 N 0.14434 0.17598 0.64484
 C143 C 0.16594 0.16506 0.63393
 N144 N 0.17683 0.14342 0.64482
 C145 C 0.33337 0.63385 0.33343
 N146 N 0.32246 0.64476 0.35502
 C147 C 0.33336 0.66640 0.36592
 N148 N 0.35502 0.67728 0.35507
 C149 C 0.36593 0.66638 0.33347
 N150 N 0.35503 0.64473 0.32258
 C151 C 0.33394 0.13257 0.83446
 N152 N 0.35559 0.14347 0.82360
 C153 C 0.36649 0.16511 0.83448
 N154 N 0.35559 0.17602 0.85608
 C155 C 0.33394 0.16513 0.86695
 N156 N 0.32305 0.14348 0.85606
 C157 C 0.83448 0.63384 0.83397
 N158 N 0.85607 0.64477 0.82304
 C159 C 0.86698 0.66644 0.83388
 N160 N 0.85613 0.67733 0.85551
 C161 C 0.83454 0.66640 0.86646
 N162 N 0.82364 0.64473 0.85561
 C163 C 0.83465 0.13363 0.33350
 N164 N 0.82374 0.14454 0.35509
 C165 C 0.83462 0.16617 0.36600
 N166 N 0.85629 0.17706 0.35516
 C167 C 0.86721 0.16616 0.33357
 N168 N 0.85631 0.14452 0.32267
 C169 C 0.66636 0.36636 0.33310
 N170 N 0.67723 0.35549 0.35474
 C171 C 0.66631 0.33389 0.36565
 N172 N 0.64465 0.32300 0.35478
 C173 C 0.63377 0.33386 0.33315
 N174 N 0.64470 0.35546 0.32224
 C175 C 0.66616 0.86706 0.83446
 N176 N 0.64448 0.85620 0.82361
 C177 C 0.63359 0.83454 0.83445
 N178 N 0.64455 0.82358 0.85600
 C179 C 0.66623 0.83443 0.86686
 N180 N 0.67711 0.85610 0.85601
 C181 C 0.16620 0.36626 0.83444
 N182 N 0.14457 0.35535 0.82352
 C183 C 0.13369 0.33368 0.83434
 N184 N 0.14458 0.32276 0.85594
 C185 C 0.16620 0.33367 0.86687
 N186 N 0.17708 0.35534 0.85604
 C187 C 0.16535 0.86701 0.33351
 N188 N 0.17624 0.85614 0.35513
 C189 C 0.16537 0.83448 0.36600
 N190 N 0.14377 0.82353 0.35509
 C191 C 0.13287 0.83439 0.33346
 N192 N 0.14374 0.85606 0.32260
 O193 O 0.28293 0.97543 0.24749
 O194 O 0.24687 1.02653 0.28334
 O195 O 0.24680 0.97544 0.28327
 O196 O 0.28307 1.02651 0.24763
 O197 O 0.25261 1.02662 0.21690
 O198 O 0.21633 0.97553 0.25254
 O199 O 0.21641 1.02662 0.25261
 O200 O 0.25246 0.97553 0.21677
 Cu201 Cu 0.26799 1.00097 0.26853
 Cu202 Cu 0.23138 1.00109 0.23161
 C203 C 0.27371 0.96676 0.22614
 C204 C 0.22562 1.03529 0.27395
 C205 C 0.22552 0.96676 0.27385
 C206 C 0.27390 1.03528 0.22631
 O207 O 0.24733 0.52581 0.78341
 O208 O 0.28325 0.47463 0.74756
 O209 O 0.28319 0.52571 0.74737
 O210 O 0.24737 0.47472 0.78358
 O211 O 0.21666 0.47457 0.75310
 O212 O 0.25249 0.52556 0.71688
 O213 O 0.25254 0.47447 0.71708
 O214 O 0.21663 0.52566 0.75293
 Cu215 Cu 0.26838 0.50024 0.76856
 Cu216 Cu 0.23148 0.50005 0.73192
 C217 C 0.22599 0.53447 0.77415
 C218 C 0.27389 0.46581 0.72634
 C219 C 0.27382 0.53434 0.72608
 C220 C 0.22604 0.46594 0.77438
 O221 O 0.78356 0.02522 0.25237
 O222 O 0.74731 -0.02590 0.21670
 O223 O 0.74745 0.02518 0.21655
 O224 O 0.78347 -0.02586 0.25248
 O225 O 0.75298 -0.02572 0.28316
 O226 O 0.71696 0.02533 0.24723
 O227 O 0.71683 -0.02575 0.24738
 O228 O 0.75307 0.02536 0.28305
 Cu229 Cu 0.76852 -0.00035 0.23143
 Cu230 Cu 0.73188 -0.00018 0.26830
 C231 C 0.77436 0.03401 0.27367
 C232 C 0.72602 -0.03454 0.22609
 C233 C 0.72619 0.03396 0.22589
 C234 C 0.77423 -0.03450 0.27381
 O235 O 0.78359 0.52543 0.75285
 O236 O 0.74754 0.47440 0.71687
 O237 O 0.74753 0.52549 0.71699
 O238 O 0.78354 0.47434 0.75281
 O239 O 0.75296 0.47431 0.78340
 O240 O 0.71696 0.52544 0.74759
 O241 O 0.71696 0.47436 0.74746
 O242 O 0.75302 0.52540 0.78345
 Cu243 Cu 0.76863 0.49992 0.73179
 Cu244 Cu 0.73189 0.49987 0.76857
 C245 C 0.77432 0.53413 0.77415
 C246 C 0.72624 0.46567 0.72616
 C247 C 0.72623 0.53419 0.72632
 C248 C 0.77425 0.46560 0.77409
 O249 O 0.25202 0.47427 0.28306
 O250 O 0.21603 0.52520 0.24694
 O251 O 0.21607 0.47411 0.24708
 O252 O 0.25201 0.52535 0.28290
 O253 O 0.28264 0.52527 0.25235
 O254 O 0.24670 0.47404 0.21654
 O255 O 0.24666 0.52513 0.21640
 O256 O 0.28265 0.47419 0.25252
 Cu257 Cu 0.23094 0.49974 0.26807
 Cu258 Cu 0.26775 0.49965 0.23137
 C259 C 0.27334 0.46554 0.27382
 C260 C 0.22535 0.53387 0.22565
 C261 C 0.22539 0.46532 0.22583
 C262 C 0.27333 0.53405 0.27360
 O263 O 0.74700 1.02673 0.78338
 O264 O 0.78307 0.97562 0.74756
 O265 O 0.78293 1.02670 0.74739
 O266 O 0.74717 0.97564 0.78356
 O267 O 0.71650 0.97542 0.75304
 O268 O 0.75226 1.02649 0.71687
 O269 O 0.75240 0.97541 0.71704
 O270 O 0.71633 1.02651 0.75286
 Cu271 Cu 0.76813 1.00120 0.76855
 Cu272 Cu 0.73128 1.00093 0.73187
 C273 C 0.72564 1.03534 0.77409
 C274 C 0.77376 0.96680 0.72632
 C275 C 0.77357 1.03530 0.72609
 C276 C 0.72587 0.96681 0.77434
 O277 O 0.75345 0.52592 0.21635
 O278 O 0.71739 0.47473 0.25205
 O279 O 0.71740 0.52580 0.25222
 O280 O 0.75348 0.47482 0.21623
 O281 O 0.78402 0.47477 0.24687
 O282 O 0.74795 0.52574 0.28286
 O283 O 0.74794 0.47467 0.28269
 O284 O 0.78399 0.52587 0.24699
 Cu285 Cu 0.73235 0.50032 0.23111
 Cu286 Cu 0.76906 0.50026 0.26794
 C287 C 0.77473 0.53463 0.22571
 C288 C 0.72664 0.46597 0.27333
 C289 C 0.72665 0.53446 0.27355
 C290 C 0.77477 0.46610 0.22555
 O291 O 0.28329 0.02425 0.75302
 O292 O 0.24731 -0.02684 0.71700
 O293 O 0.24731 0.02425 0.71707
 O294 O 0.28338 -0.02684 0.75287
 O295 O 0.25281 -0.02693 0.78347
 O296 O 0.21673 0.02417 0.74766
 O297 O 0.21673 -0.02691 0.74760
 O298 O 0.25271 0.02415 0.78361
 Cu299 Cu 0.26841 -0.00129 0.73191
 Cu300 Cu 0.23166 -0.00139 0.76867
 C301 C 0.27400 0.03292 0.77432
 C302 C 0.22600 -0.03558 0.72629
 C303 C 0.22600 0.03293 0.72638
 C304 C 0.27412 -0.03560 0.77415
 O305 O 0.24759 0.28287 0.97499
 O306 O 0.28355 0.24694 1.02604
 O307 O 0.28347 0.24678 0.97502
 O308 O 0.24766 0.28300 1.02599
 O309 O 0.21697 0.25245 1.02610
 O310 O 0.25278 0.21624 0.97514
 O311 O 0.25287 0.21640 1.02615
 O312 O 0.21689 0.25232 0.97509
 Cu313 Cu 0.26866 0.26798 1.00050
 Cu314 Cu 0.23178 0.23127 1.00063
 C315 C 0.22624 0.27359 0.96633
 C316 C 0.27421 0.22568 1.03481
 C317 C 0.27410 0.22546 0.96638
 C318 C 0.22634 0.27377 1.03474
 O319 O 0.24672 0.78377 0.47422
 O320 O 0.28275 0.74774 0.52515
 O321 O 0.28268 0.74777 0.47415
 O322 O 0.24677 0.78371 0.52524
 O323 O 0.21615 0.75309 0.52522
 O324 O 0.25207 0.71715 0.47414
 O325 O 0.25214 0.71712 0.52514
 O326 O 0.21610 0.75315 0.47421
 Cu327 Cu 0.26782 0.76884 0.49969
 Cu328 Cu 0.23102 0.73204 0.49967
 C329 C 0.22540 0.77447 0.46552
 C330 C 0.27346 0.72642 0.53384
 C331 C 0.27337 0.72646 0.46543
 C332 C 0.22547 0.77439 0.53396
 O333 O 0.21701 0.74719 -0.02585
 O334 O 0.25267 0.78349 0.02520
 O335 O 0.25292 0.78326 -0.02581
 O336 O 0.21675 0.74741 0.02515
 O337 O 0.24741 0.71687 0.02543
 O338 O 0.28359 0.75272 -0.02553
 O339 O 0.28334 0.75294 0.02548
 O340 O 0.24768 0.71664 -0.02557
 Cu341 Cu 0.23174 0.76842 -0.00035
 Cu342 Cu 0.26860 0.73171 -0.00002
 C343 C 0.22640 0.72586 -0.03443
 C344 C 0.27395 0.77427 0.03405
 C345 C 0.27428 0.77397 -0.03437
 C346 C 0.22604 0.72615 0.03398
 O347 O 0.21637 0.24677 0.47478
 O348 O 0.25235 0.28265 0.52590
 O349 O 0.25232 0.28280 0.47490
 O350 O 0.21642 0.24658 0.52580
 O351 O 0.24707 0.21602 0.52567
 O352 O 0.28296 0.25223 0.47478
 O353 O 0.28299 0.25208 0.52578
 O354 O 0.24701 0.21620 0.47466
 Cu355 Cu 0.23127 0.26778 0.50036
 Cu356 Cu 0.26810 0.23105 0.50021
 C357 C 0.22569 0.22551 0.46599
 C358 C 0.27368 0.27336 0.53456
 C359 C 0.27363 0.27355 0.46615
 C360 C 0.22576 0.22526 0.53443
 O361 O 0.75302 0.71667 0.97463
 O362 O 0.71670 0.75227 1.02565
 O363 O 0.71696 0.75257 0.97465
 O364 O 0.75282 0.71643 1.02564
 O365 O 0.78334 0.74715 1.02594
 O366 O 0.74748 0.78328 0.97496
 O367 O 0.74723 0.78299 1.02596
 O368 O 0.78354 0.74737 0.97492
 Cu369 Cu 0.73180 0.73139 1.00011
 Cu370 Cu 0.76848 0.76829 1.00048
 C371 C 0.77434 0.72608 0.96606
 C372 C 0.72590 0.77357 1.03451
 C373 C 0.72623 0.77396 0.96611
 C374 C 0.77406 0.72576 1.03449
 O375 O 0.74744 0.28324 0.47411
 O376 O 0.78323 0.24716 0.52520
 O377 O 0.78348 0.24731 0.47419
 O378 O 0.74730 0.28318 0.52512
 O379 O 0.71669 0.25255 0.52494
 O380 O 0.75287 0.21668 0.47398
 O381 O 0.75261 0.21653 0.52499
 O382 O 0.71684 0.25261 0.47392
 Cu383 Cu 0.76845 0.26831 0.49967
 Cu384 Cu 0.73166 0.23150 0.49944
 C385 C 0.72617 0.27394 0.46530
 C386 C 0.77388 0.22583 0.53382
 C387 C 0.77422 0.22601 0.46540
 C388 C 0.72596 0.27385 0.53373
 O389 O 0.78314 0.25296 -0.02599
 O390 O 0.74733 0.21678 0.02500
 O391 O 0.74720 0.21692 -0.02600
 O392 O 0.78340 0.25271 0.02502
 O393 O 0.75281 0.28334 0.02525
 O394 O 0.71660 0.24754 -0.02579
 O395 O 0.71674 0.24740 0.02522
 O396 O 0.75255 0.28358 -0.02575
 Cu397 Cu 0.76835 0.23176 -0.00051
 Cu398 Cu 0.73159 0.26855 -0.00024
 C399 C 0.77382 0.27431 -0.03457
 C400 C 0.72606 0.22606 0.03381
 C401 C 0.72587 0.22625 -0.03461
 C402 C 0.77415 0.27400 0.03384
 O403 O 0.78357 0.75270 0.47488
 O404 O 0.74743 0.71695 0.52593
 O405 O 0.74749 0.71681 0.47492
 O406 O 0.78344 0.75293 0.52589
 O407 O 0.75288 0.78359 0.52572
 O408 O 0.71693 0.74746 0.47476
 O409 O 0.71687 0.74761 0.52577
 O410 O 0.75301 0.78336 0.47471
 Cu411 Cu 0.76856 0.73176 0.50043
 Cu412 Cu 0.73184 0.76860 0.50023
 C413 C 0.77432 0.77399 0.46608
 C414 C 0.72612 0.72631 0.53456
 C415 C 0.72621 0.72611 0.46614
 C416 C 0.77416 0.77429 0.53450
 O417 O 0.97573 0.25271 0.21644
 O418 O 1.02677 0.21676 0.25244
 O419 O 0.97570 0.21678 0.25242
 O420 O 1.02682 0.25280 0.21656
 O421 O 1.02677 0.28342 0.24713
 O422 O 0.97567 0.24741 0.28299
 O423 O 1.02675 0.24738 0.28302
 O424 O 0.97569 0.28334 0.24701
 Cu425 Cu 1.00126 0.23167 0.23138
 Cu426 Cu 1.00122 0.26847 0.26812
 C427 C 0.96699 0.27402 0.22572
 C428 C 1.03547 0.22606 0.27374
 C429 C 0.96696 0.22609 0.27369
 C430 C 1.03551 0.27412 0.22586
 O431 O 0.47455 0.25189 0.71722
 O432 O 0.52578 0.21594 0.75297
 O433 O 0.47469 0.21589 0.75313
 O434 O 0.52562 0.25193 0.71705
 O435 O 0.52571 0.28254 0.74763
 O436 O 0.47478 0.24650 0.78371
 O437 O 0.52587 0.24655 0.78355
 O438 O 0.47464 0.28250 0.74780
 Cu439 Cu 0.50015 0.23082 0.73201
 Cu440 Cu 0.50026 0.26761 0.76876
 C441 C 0.46586 0.27320 0.72654
 C442 C 0.53457 0.22525 0.77422
 C443 C 0.46604 0.22518 0.77444
 C444 C 0.53435 0.27325 0.72631
 O445 O -0.02557 0.28320 0.75258
 O446 O 0.02543 0.24687 0.71693
 O447 O -0.02564 0.24704 0.71681
 O448 O 0.02550 0.28297 0.75278
 O449 O 0.02528 0.25247 0.78345
 O450 O -0.02585 0.21654 0.74749
 O451 O 0.02523 0.21637 0.74760
 O452 O -0.02579 0.25270 0.78326
 Cu453 Cu -0.00005 0.26810 0.73168
 Cu454 Cu -0.00030 0.23144 0.76854
 C455 C -0.03439 0.27402 0.77387
 C456 C 0.03403 0.22556 0.72631
 C457 C -0.03447 0.22580 0.72615
 C458 C 0.03411 0.27372 0.77412
 O459 O 0.52494 0.24691 0.21640
 O460 O 0.47400 0.28284 0.25255
 O461 O 0.52507 0.28294 0.25230
 O462 O 0.47386 0.24678 0.21668
 O463 O 0.47408 0.21622 0.24728
 O464 O 0.52529 0.25238 0.28291
 O465 O 0.47421 0.25228 0.28316
 O466 O 0.52516 0.21634 0.24701
 Cu467 Cu 0.49945 0.26795 0.23140
 Cu468 Cu 0.49971 0.23122 0.26817
 C469 C 0.53375 0.22564 0.22568
 C470 C 0.46541 0.27356 0.27389
 C471 C 0.53392 0.27369 0.27355
 C472 C 0.46523 0.22547 0.22603
 O473 O 1.02635 0.78378 0.74715
 O474 O 0.97526 0.74780 0.78307
 O475 O 1.02633 0.74763 0.78292
 O476 O 0.97526 0.78392 0.74728
 O477 O 0.97508 0.75342 0.71658
 O478 O 1.02614 0.71714 0.75222
 O479 O 0.97507 0.71731 0.75237
 O480 O 1.02616 0.75329 0.71645
 Cu481 Cu 1.00082 0.76886 0.76820
 Cu482 Cu 1.00059 0.73222 0.73131
 C483 C 1.03498 0.77454 0.72581
 C484 C 0.96645 0.72655 0.77372
 C485 C 1.03494 0.72633 0.77352
 C486 C 0.96645 0.77472 0.72598
 O487 O 0.47453 0.75306 0.21659
 O488 O 0.52552 0.71698 0.25255
 O489 O 0.47445 0.71703 0.25247
 O490 O 0.52561 0.75291 0.21657
 O491 O 0.52568 0.78354 0.24714
 O492 O 0.47450 0.74765 0.28304
 O493 O 0.52558 0.74760 0.28312
 O494 O 0.47460 0.78368 0.24716
 Cu495 Cu 0.50002 0.73191 0.23146
 Cu496 Cu 0.50010 0.76871 0.26820
 C497 C 0.46586 0.77439 0.22588
 C498 C 0.53425 0.72627 0.27384
 C499 C 0.46574 0.72635 0.27374
 C500 C 0.53438 0.77421 0.22586
 O501 O 0.02472 0.75264 0.28292
 O502 O -0.02639 0.71646 0.24715
 O503 O 0.02469 0.71664 0.24699
 O504 O -0.02636 0.75246 0.28311
 O505 O -0.02656 0.78307 0.25254
 O506 O 0.02449 0.74724 0.21642
 O507 O -0.02659 0.74707 0.21659
 O508 O 0.02451 0.78325 0.25235
 Cu509 Cu -0.00081 0.73146 0.26812
 Cu510 Cu -0.00106 0.76824 0.23139
 C511 C 0.03333 0.77399 0.27361
 C512 C -0.03521 0.72573 0.22590
 C513 C 0.03331 0.72596 0.22568
 C514 C -0.03516 0.77375 0.27386
 O515 O 0.52510 0.75333 0.78368
 O516 O 0.47410 0.71738 0.74753
 O517 O 0.52517 0.71733 0.74774
 O518 O 0.47401 0.75333 0.78352
 O519 O 0.47413 0.78396 0.75298
 O520 O 0.52529 0.74796 0.71719
 O521 O 0.47422 0.74802 0.71699
 O522 O 0.52521 0.78396 0.75313
 Cu523 Cu 0.49958 0.73225 0.76870
 Cu524 Cu 0.49973 0.76907 0.73200
 C525 C 0.53386 0.77464 0.77443
 C526 C 0.46546 0.72670 0.72622
 C527 C 0.53396 0.72663 0.72649
 C528 C 0.46533 0.77465 0.77422
 C529 C 0.38816 0.32145 0.32194
 C530 C 0.40644 0.31091 0.31140
 C531 C 0.42743 0.29824 0.29869
 C532 C 0.44498 0.28713 0.28753
 C533 C 0.38772 0.82235 0.82188
 C534 C 0.40608 0.81190 0.81140
 C535 C 0.42716 0.79929 0.79878
 C536 C 0.44480 0.78821 0.78772
 C537 C -0.11173 0.32234 0.82132
 C538 C -0.09343 0.31175 0.81088
 C539 C -0.07242 0.29896 0.79832
 C540 C -0.05484 0.28774 0.78732
 C541 C -0.11236 0.82162 0.32202
 C542 C -0.09411 0.81107 0.31144
 C543 C -0.07315 0.79839 0.29869
 C544 C -0.05561 0.78729 0.28751
 C545 C 0.61159 0.67838 0.32176
 C546 C 0.59329 0.68889 0.31123
 C547 C 0.57228 0.70156 0.29854
 C548 C 0.55470 0.71267 0.28742
 C549 C 0.61227 0.17758 0.82179
 C550 C 0.59389 0.18802 0.81133
 C551 C 0.57278 0.20063 0.79874
 C552 C 0.55512 0.21170 0.78770
 C553 C 1.11219 0.67797 0.82112
 C554 C 1.09393 0.68858 0.81063
 C555 C 1.07295 0.70138 0.79802
 C556 C 1.05539 0.71261 0.78699
 C557 C 1.11272 0.17796 0.32162
 C558 C 1.09446 0.18855 0.31110
 C559 C 1.07348 0.20130 0.29844
 C560 C 1.05592 0.21246 0.28733
 C561 C 0.61149 0.32131 0.67823
 C562 C 0.59324 0.31074 0.68879
 C563 C 0.57229 0.29802 0.70152
 C564 C 0.55476 0.28687 0.71268
 C565 C 0.61196 0.82182 0.17803
 C566 C 0.59361 0.81137 0.18854
 C567 C 0.57254 0.79878 0.20120
 C568 C 0.55491 0.78773 0.21231
 C569 C 1.11292 0.32221 0.17822
 C570 C 1.09461 0.31163 0.18869
 C571 C 1.07359 0.29890 0.20128
 C572 C 1.05600 0.28773 0.21234
 C573 C 1.11249 0.82238 0.67809
 C574 C 1.09416 0.81187 0.68857
 C575 C 1.07310 0.79921 0.70119
 C576 C 1.05548 0.78811 0.71227
 C577 C 0.38823 0.67878 0.67806
 C578 C 0.40650 0.68933 0.68863
 C579 C 0.42747 0.70201 0.70138
 C580 C 0.44503 0.71313 0.71256
 C581 C 0.38757 0.17747 0.17862
 C582 C 0.40593 0.18799 0.18906
 C583 C 0.42703 0.20068 0.20161
 C584 C 0.44468 0.21183 0.21260
 C585 C -0.11259 0.67757 0.17822
 C586 C -0.09430 0.68815 0.18871
 C587 C -0.07328 0.70089 0.20134
 C588 C -0.05569 0.71207 0.21240
 C589 C -0.11198 0.17796 0.67837
 C590 C -0.09365 0.18847 0.68886
 C591 C -0.07259 0.20113 0.70150
 C592 C -0.05498 0.21224 0.71259
 C593 C 0.32125 0.38832 0.32190
 C594 C 0.31072 0.40659 0.31134
 C595 C 0.29804 0.42757 0.29862
 C596 C 0.28692 0.44512 0.28746
 C597 C 0.32236 -0.11287 0.82183
 C598 C 0.31174 -0.09460 0.81135
 C599 C 0.29896 -0.07362 0.79873
 C600 C 0.28777 -0.05606 0.78767
 C601 C 0.82204 0.38809 0.82185
 C602 C 0.81156 0.40642 0.81134
 C603 C 0.79892 0.42747 0.79869
 C604 C 0.78783 0.44509 0.78761
 C605 C 0.82217 -0.11190 0.32157
 C606 C 0.81164 -0.09358 0.31108
 C607 C 0.79896 -0.07256 0.29845
 C608 C 0.78783 -0.05497 0.28736
 C609 C 0.32147 0.61172 0.67798
 C610 C 0.31099 0.59340 0.68852
 C611 C 0.29838 0.57238 0.70124
 C612 C 0.28733 0.55480 0.71242
 C613 C 0.32225 1.11258 0.17876
 C614 C 0.31164 1.09431 0.18924
 C615 C 0.29884 1.07331 0.20183
 C616 C 0.28761 1.05574 0.21285
 C617 C 0.82252 0.61227 0.17814
 C618 C 0.81204 0.59391 0.18861
 C619 C 0.79941 0.57282 0.20120
 C620 C 0.78832 0.55517 0.21224
 C621 C 0.82144 1.11252 0.67791
 C622 C 0.81087 1.09427 0.68849
 C623 C 0.79819 1.07331 0.70123
 C624 C 0.78709 1.05575 0.71242
 C625 C 0.67860 0.61161 0.32162
 C626 C 0.68916 0.59336 0.31104
 C627 C 0.70188 0.57241 0.29831
 C628 C 0.71303 0.55488 0.28716
 C629 C 0.67758 1.11275 0.82176
 C630 C 0.68814 1.09445 0.81128
 C631 C 0.70087 1.07342 0.79867
 C632 C 0.71202 1.05583 0.78761
 C633 C 0.17828 0.61209 0.82184
 C634 C 0.18875 0.59373 0.81136
 C635 C 0.20137 0.57264 0.79874
 C636 C 0.21244 0.55501 0.78767
 C637 C 0.17763 1.11273 0.32166
 C638 C 0.18817 1.09441 0.31116
 C639 C 0.20087 1.07338 0.29854
 C640 C 0.21201 1.05578 0.28748
 C641 C 0.67831 0.38833 0.67817
 C642 C 0.68884 0.40662 0.68872
 C643 C 0.70151 0.42763 0.70142
 C644 C 0.71263 0.44521 0.71256
 C645 C 0.67776 -0.11197 0.17858
 C646 C 0.68835 -0.09366 0.18904
 C647 C 0.70112 -0.07263 0.20161
 C648 C 0.71233 -0.05503 0.21263
 C649 C 0.17775 0.38757 0.17821
 C650 C 0.18819 0.40596 0.18868
 C651 C 0.20078 0.42709 0.20128
 C652 C 0.21185 0.44476 0.21233
 C653 C 0.17783 -0.11278 0.67829
 C654 C 0.18844 -0.09453 0.68885
 C655 C 0.20121 -0.07357 0.70155
 C656 C 0.21239 -0.05603 0.71268
 C657 C 0.32137 0.32155 0.38884
 C658 C 0.31088 0.31104 0.40714
 C659 C 0.29825 0.29835 0.42815
 C660 C 0.28717 0.28720 0.44571
 C661 C 0.32215 0.82163 -0.11181
 C662 C 0.31168 0.81114 -0.09348
 C663 C 0.29903 0.79853 -0.07244
 C664 C 0.28791 0.78747 -0.05484
 C665 C 0.82140 0.32245 -0.11189
 C666 C 0.81093 0.31190 -0.09360
 C667 C 0.79835 0.29916 -0.07259
 C668 C 0.78731 0.28797 -0.05502
 C669 C 0.82228 0.82138 0.38854
 C670 C 0.81177 0.81097 0.40689
 C671 C 0.79909 0.79845 0.42796
 C672 C 0.78794 0.78745 0.44558
 C673 C 0.67813 0.32156 0.61117
 C674 C 0.68860 0.31108 0.59284
 C675 C 0.70124 0.29845 0.57179
 C676 C 0.71235 0.28737 0.55420
 C677 C 0.67765 0.82107 1.11182
 C678 C 0.68821 0.81059 1.09354
 C679 C 0.70097 0.79802 1.07254
 C680 C 0.71219 0.78701 1.05497
 C681 C 0.17859 0.32180 1.11204
 C682 C 0.18911 0.31128 1.09376
 C683 C 0.20175 0.29858 1.07276
 C684 C 0.21283 0.28743 1.05519
 C685 C 0.17792 0.82196 0.61165
 C686 C 0.18834 0.81153 0.59325
 C687 C 0.20091 0.79896 0.57214
 C688 C 0.21196 0.78791 0.55449
 C689 C 0.32140 0.67859 0.61114
 C690 C 0.31087 0.68908 0.59284
 C691 C 0.29819 0.70173 0.57184
 C692 C 0.28706 0.71284 0.55428
 C693 C 0.32195 0.17801 1.11233
 C694 C 0.31148 0.18847 1.09398
 C695 C 0.29886 0.20108 1.07292
 C696 C 0.28777 0.21215 1.05531
 C697 C 0.82181 0.67791 1.11190
 C698 C 0.81131 0.68839 1.09359
 C699 C 0.79867 0.70104 1.07255
 C700 C 0.78759 0.71215 1.05496
 C701 C 0.82127 0.17790 0.61139
 C702 C 0.81087 0.18840 0.59303
 C703 C 0.79835 0.20109 0.57196
 C704 C 0.78735 0.21222 0.55433
 C705 C 0.67840 0.67828 0.38870
 C706 C 0.68890 0.68876 0.40703
 C707 C 0.70155 0.70140 0.42807
 C708 C 0.71265 0.71251 0.44567
 C709 C 0.67796 0.17844 -0.11200
 C710 C 0.68845 0.18897 -0.09369
 C711 C 0.70110 0.20165 -0.07267
 C712 C 0.71223 0.21274 -0.05508
 C713 C 0.17892 0.67775 -0.11189
 C714 C 0.18937 0.68828 -0.09356
 C715 C 0.20194 0.70099 -0.07252
 C716 C 0.21295 0.71218 -0.05491
 C717 C 0.17802 0.17807 0.38823
 C718 C 0.18847 0.18846 0.40664
 C719 C 0.20107 0.20100 0.42777
 C720 C 0.21214 0.21201 0.44544
 C721 C 0.32165 0.38820 0.67871
 C722 C 0.31116 0.40655 0.68917
 C723 C 0.29852 0.42764 0.70177
 C724 C 0.28744 0.44528 0.71282
 C725 C 0.32159 0.88935 0.17830
 C726 C 0.31108 0.90765 0.18883
 C727 C 0.29842 0.92868 0.20150
 C728 C 0.28731 0.94627 0.21260
 C729 C 0.82268 0.38867 0.17778
 C730 C 0.81217 0.40700 0.18827
 C731 C 0.79950 0.42804 0.20090
 C732 C 0.78837 0.44563 0.21199
 C733 C 0.82180 0.88943 0.67857
 C734 C 0.81124 0.90772 0.68907
 C735 C 0.79853 0.92873 0.70171
 C736 C 0.78738 0.94632 0.71279
 C737 C 0.67826 0.61169 0.67873
 C738 C 0.68880 0.59337 0.68919
 C739 C 0.70150 0.57232 0.70177
 C740 C 0.71264 0.55470 0.71281
 C741 C 0.67823 0.11121 0.17791
 C742 C 0.68877 0.09294 0.18847
 C743 C 0.70146 0.07196 0.20117
 C744 C 0.71259 0.05440 0.21231
 C745 C 0.17757 0.61128 0.17776
 C746 C 0.18805 0.59295 0.18826
 C747 C 0.20069 0.57192 0.20092
 C748 C 0.21178 0.55433 0.21204
 C749 C 0.17811 0.11034 0.67859
 C750 C 0.18862 0.09203 0.68911
 C751 C 0.20128 0.07100 0.70176
 C752 C 0.21240 0.05341 0.71286
 C753 C 0.32121 0.61161 0.32130
 C754 C 0.31069 0.59328 0.31081
 C755 C 0.29801 0.57222 0.29819
 C756 C 0.28690 0.55459 0.28712
 C757 C 0.32179 0.11035 0.82231
 C758 C 0.31129 0.09203 0.81177
 C759 C 0.29865 0.07100 0.79906
 C760 C 0.28756 0.05340 0.78792
 C761 C 0.82232 0.61159 0.82188
 C762 C 0.81177 0.59326 0.81141
 C763 C 0.79907 0.57221 0.79879
 C764 C 0.78793 0.55461 0.78771
 C765 C 0.82249 0.11142 0.32134
 C766 C 0.81194 0.09311 0.31083
 C767 C 0.79922 0.07209 0.29820
 C768 C 0.78804 0.05450 0.28715
 C769 C 0.67855 0.38855 0.32095
 C770 C 0.68912 0.40684 0.31046
 C771 C 0.70185 0.42786 0.29786
 C772 C 0.71302 0.44546 0.28681
 C773 C 0.67829 0.88931 0.82234
 C774 C 0.68876 0.90764 0.81182
 C775 C 0.70135 0.92870 0.79913
 C776 C 0.71239 0.94631 0.78798
 C777 C 0.17834 0.38851 0.82235
 C778 C 0.18884 0.40684 0.81185
 C779 C 0.20146 0.42788 0.79917
 C780 C 0.21253 0.44547 0.78803
 C781 C 0.17748 0.88926 0.32139
 C782 C 0.18800 0.90759 0.31092
 C783 C 0.20069 0.92865 0.29833
 C784 C 0.21185 0.94626 0.28731
 C785 C 0.38842 0.32115 0.67884
 C786 C 0.40672 0.31061 0.68934
 C787 C 0.42774 0.29792 0.70197
 C788 C 0.44535 0.28679 0.71303
 C789 C 0.38849 0.82244 0.17818
 C790 C 0.40680 0.81189 0.18865
 C791 C 0.42782 0.79917 0.20126
 C792 C 0.44540 0.78801 0.21233
 C793 C 0.88954 0.32173 0.17779
 C794 C 0.90786 0.31125 0.18832
 C795 C 0.92890 0.29863 0.20100
 C796 C 0.94651 0.28756 0.21213
 C797 C 0.88891 0.82273 0.67850
 C798 C 0.90726 0.81223 0.68896
 C799 C 0.92833 0.79955 0.70153
 C800 C 0.94595 0.78839 0.71254
 C801 C 0.61151 0.32171 0.32105
 C802 C 0.59317 0.31118 0.31059
 C803 C 0.57209 0.29849 0.29801
 C804 C 0.55446 0.28733 0.28700
 C805 C 0.61133 0.82242 0.82234
 C806 C 0.59300 0.81192 0.81183
 C807 C 0.57194 0.79928 0.79917
 C808 C 0.55434 0.78819 0.78805
 C809 C 0.11149 0.32153 0.82215
 C810 C 0.09319 0.31102 0.81159
 C811 C 0.07218 0.29837 0.79887
 C812 C 0.05459 0.28728 0.78772
 C813 C 0.11068 0.82218 0.32130
 C814 C 0.09240 0.81160 0.31080
 C815 C 0.07139 0.79884 0.29817
 C816 C 0.05381 0.78766 0.28711
 C817 C 0.61139 0.67864 0.67882
 C818 C 0.59308 0.68919 0.68931
 C819 C 0.57206 0.70189 0.70193
 C820 C 0.55446 0.71303 0.71298
 C821 C 0.61119 0.17795 0.17773
 C822 C 0.59285 0.18842 0.18824
 C823 C 0.57181 0.20103 0.20091
 C824 C 0.55422 0.21210 0.21205
 C825 C 0.11074 0.67825 0.17774
 C826 C 0.09242 0.68875 0.18825
 C827 C 0.07139 0.70138 0.20093
 C828 C 0.05379 0.71245 0.21206
 C829 C 0.11129 0.17732 0.67864
 C830 C 0.09302 0.18789 0.68915
 C831 C 0.07203 0.20064 0.70178
 C832 C 0.05448 0.21185 0.71284
 C833 C 0.38818 0.67852 0.32138
 C834 C 0.40652 0.68904 0.31092
 C835 C 0.42759 0.70170 0.29833
 C836 C 0.44521 0.71280 0.28727
 C837 C 0.38871 0.17727 0.82235
 C838 C 0.40701 0.18779 0.81184
 C839 C 0.42803 0.20047 0.79917
 C840 C 0.44560 0.21159 0.78804
 C841 C 0.88915 0.67862 0.82168
 C842 C 0.90742 0.68916 0.81113
 C843 C 0.92841 0.70184 0.79843
 C844 C 0.94599 0.71296 0.78730
 C845 C 0.88946 0.17830 0.32146
 C846 C 0.90779 0.18879 0.31097
 C847 C 0.92884 0.20143 0.29832
 C848 C 0.94646 0.21252 0.28723
 C849 C 0.32155 0.32119 0.61196
 C850 C 0.31104 0.31067 0.59366
 C851 C 0.29837 0.29801 0.57264
 C852 C 0.28726 0.28691 0.55505
 C853 C 0.32154 0.82247 0.11140
 C854 C 0.31105 0.81192 0.09311
 C855 C 0.29845 0.79917 0.07210
 C856 C 0.28741 0.78797 0.05452
 C857 C 0.82248 0.32165 0.11107
 C858 C 0.81186 0.31116 0.09281
 C859 C 0.79906 0.29855 0.07184
 C860 C 0.78784 0.28750 0.05428
 C861 C 0.82193 0.82247 0.61176
 C862 C 0.81143 0.81188 0.59349
 C863 C 0.79880 0.79913 0.57250
 C864 C 0.78772 0.78794 0.55494
 C865 C 0.32120 0.67857 0.38810
 C866 C 0.31068 0.68910 0.40638
 C867 C 0.29803 0.70177 0.42738
 C868 C 0.28693 0.71289 0.44496
 C869 C 0.32179 0.17731 0.88913
 C870 C 0.31130 0.18787 0.90740
 C871 C 0.29867 0.20061 0.92839
 C872 C 0.28761 0.21179 0.94595
 C873 C 0.82242 0.67854 0.88867
 C874 C 0.81190 0.68902 0.90698
 C875 C 0.79920 0.70161 0.92800
 C876 C 0.78802 0.71263 0.94559
 C877 C 0.82243 0.17832 0.38817
 C878 C 0.81185 0.18881 0.40644
 C879 C 0.79909 0.20142 0.42742
 C880 C 0.78789 0.21248 0.44497
 C881 C 0.67844 0.32177 0.38787
 C882 C 0.68894 0.31128 0.40618
 C883 C 0.70158 0.29864 0.42722
 C884 C 0.71266 0.28754 0.44482
 C885 C 0.67843 0.82221 0.88898
 C886 C 0.68895 0.81161 0.90721
 C887 C 0.70160 0.79883 0.92816
 C888 C 0.71269 0.78763 0.94569
 C889 C 0.17835 0.32149 0.88904
 C890 C 0.18887 0.31095 0.90732
 C891 C 0.20154 0.29827 0.92831
 C892 C 0.21265 0.28716 0.94587
 C893 C 0.17752 0.82235 0.38820
 C894 C 0.18804 0.81184 0.40650
 C895 C 0.20070 0.79918 0.42750
 C896 C 0.21181 0.78806 0.44507
 C897 C 0.67820 0.67861 0.61194
 C898 C 0.68870 0.68911 0.59364
 C899 C 0.70137 0.70174 0.57262
 C900 C 0.71250 0.71281 0.55503
 C901 C 0.67821 0.17804 0.11104
 C902 C 0.68874 0.18857 0.09278
 C903 C 0.70142 0.20126 0.07180
 C904 C 0.71252 0.21241 0.05425
 C905 C 0.17781 0.67833 0.11110
 C906 C 0.18840 0.68885 0.09286
 C907 C 0.20117 0.70151 0.07192
 C908 C 0.21237 0.71261 0.05439
 C909 C 0.17807 0.17720 0.61173
 C910 C 0.18855 0.18773 0.59343
 C911 C 0.20116 0.20044 0.57243
 C912 C 0.21223 0.21161 0.55486
   
