data_POSCAR
  _audit_creation_date              2014-09-24
  _audit_creation_method            'ToBaCCo'
  _symmetry_space_group_name_H-M    'P1'
  _symmetry_Int_Tables_number       1
  _symmetry_cell_setting            triclinic
  loop_
  _symmetry_equiv_pos_as_xyz
 x,y,z
_cell_length_a 51.9831
_cell_length_b 51.9962
_cell_length_c 49.4777
_cell_angle_alpha 89.968900
_cell_angle_beta 89.972600
_cell_angle_gamma 90.039000
loop_
  _atom_site_label
  _atom_site_type_symbol
  _atom_site_fract_x
  _atom_site_fract_y
  _atom_site_fract_z
O1 O 0.02558 0.28327 -0.02466
 O2 O -0.02619 0.28323 0.02614
 O3 O 0.02387 0.28298 0.02794
 O4 O -0.02449 0.28304 -0.02647
 O5 O -0.02449 0.24051 -0.02645
 O6 O 0.02381 0.24045 0.02789
 O7 O -0.02626 0.24070 0.02615
 O8 O 0.02558 0.24074 -0.02471
 Cu9 Cu -0.00030 0.28743 0.00074
 Cu10 Cu -0.00035 0.23631 0.00072
 C11 C 0.03432 0.26203 -0.03326
 C12 C -0.03497 0.26198 0.03474
 C13 C 0.03200 0.26169 0.03709
 C14 C -0.03264 0.26177 -0.03563
 O15 O 0.52564 0.78258 0.47426
 O16 O 0.47438 0.78264 0.52562
 O17 O 0.52448 0.78229 0.52689
 O18 O 0.47555 0.78238 0.47298
 O19 O 0.47549 0.73985 0.47303
 O20 O 0.52436 0.73976 0.52687
 O21 O 0.47425 0.74011 0.52567
 O22 O 0.52559 0.74005 0.47424
 Cu23 Cu 0.50002 0.78676 0.49994
 Cu24 Cu 0.49991 0.73565 0.49995
 C25 C 0.53427 0.76133 0.46557
 C26 C 0.46566 0.76141 0.53432
 C27 C 0.53268 0.76099 0.53596
 C28 C 0.46726 0.76111 0.46391
 O29 O 0.97429 0.71767 -0.02680
 O30 O 1.02566 0.71746 0.02443
 O31 O 0.97557 0.71782 0.02583
 O32 O 1.02439 0.71781 -0.02820
 O33 O 1.02448 0.76033 -0.02811
 O34 O 0.97572 0.76035 0.02585
 O35 O 1.02582 0.75999 0.02452
 O36 O 0.97438 0.76019 -0.02677
 Cu37 Cu 0.99997 0.71340 -0.00119
 Cu38 Cu 1.00012 0.76451 -0.00113
 C39 C 0.96566 0.73895 -0.03544
 C40 C 1.03441 0.73867 0.03313
 C41 C 0.96741 0.73911 0.03495
 C42 C 1.03268 0.73909 -0.03727
 O43 O 0.47437 0.21646 0.47470
 O44 O 0.52589 0.21665 0.52569
 O45 O 0.47582 0.21672 0.52731
 O46 O 0.52445 0.21693 0.47308
 O47 O 0.52427 0.25947 0.47311
 O48 O 0.47571 0.25926 0.52727
 O49 O 0.52579 0.25919 0.52572
 O50 O 0.47420 0.25899 0.47465
 Cu51 Cu 0.50014 0.21240 0.50020
 Cu52 Cu 0.49998 0.26352 0.50019
 C53 C 0.46559 0.23767 0.46605
 C54 C 0.53454 0.23793 0.53431
 C55 C 0.46756 0.23798 0.53644
 C56 C 0.53257 0.23826 0.46396
 O57 O 0.71743 0.02539 -0.02565
 O58 O 0.71720 -0.02603 0.02554
 O59 O 0.71741 0.02404 0.02697
 O60 O 0.71768 -0.02467 -0.02708
 O61 O 0.76022 -0.02461 -0.02685
 O62 O 0.75996 0.02405 0.02714
 O63 O 0.75974 -0.02602 0.02577
 O64 O 0.75998 0.02546 -0.02547
 Cu65 Cu 0.71314 -0.00033 -0.00007
 Cu66 Cu 0.76427 -0.00028 0.00017
 C67 C 0.73873 0.03410 -0.03421
 C68 C 0.73842 -0.03470 0.03432
 C69 C 0.73866 0.03226 0.03616
 C70 C 0.73901 -0.03285 -0.03609
 O71 O 0.21771 0.52541 0.47501
 O72 O 0.21807 0.47430 0.52655
 O73 O 0.21813 0.52439 0.52766
 O74 O 0.21813 0.47531 0.47392
 O75 O 0.26068 0.47553 0.47378
 O76 O 0.26067 0.52454 0.52745
 O77 O 0.26061 0.47446 0.52640
 O78 O 0.26025 0.52562 0.47481
 Cu79 Cu 0.21372 0.49984 0.50080
 Cu80 Cu 0.26484 0.50006 0.50059
 C81 C 0.23890 0.53414 0.46620
 C82 C 0.23938 0.46574 0.53517
 C83 C 0.23942 0.53274 0.53662
 C84 C 0.23943 0.46713 0.46480
 O85 O 0.28149 0.97422 -0.02603
 O86 O 0.28139 1.02550 0.02527
 O87 O 0.28115 0.97543 0.02660
 O88 O 0.28128 1.02430 -0.02736
 O89 O 0.23874 1.02426 -0.02741
 O90 O 0.23861 0.97544 0.02649
 O91 O 0.23885 1.02552 0.02522
 O92 O 0.23895 0.97417 -0.02615
 Cu93 Cu 0.28562 0.99986 -0.00038
 Cu94 Cu 0.23450 0.99985 -0.00047
 C95 C 0.26025 0.96553 -0.03476
 C96 C 0.26012 1.03417 0.03392
 C97 C 0.25984 0.96719 0.03565
 C98 C 0.26002 1.03254 -0.03649
 O99 O 0.78301 0.52592 0.52502
 O100 O 0.78283 0.47463 0.47379
 O101 O 0.78262 0.52470 0.47240
 O102 O 0.78268 0.47585 0.52641
 O103 O 0.74013 0.47591 0.52649
 O104 O 0.74008 0.52469 0.47256
 O105 O 0.74029 0.47462 0.47387
 O106 O 0.74047 0.52598 0.52518
 Cu107 Cu 0.78708 0.50027 0.49939
 Cu108 Cu 0.73595 0.50030 0.49954
 C109 C 0.76179 0.53461 0.53375
 C110 C 0.76155 0.46596 0.46518
 C111 C 0.76132 0.53294 0.46338
 C112 C 0.76139 0.46764 0.53555
 C113 C 0.24023 0.25866 0.25091
 C114 C 0.25865 0.24000 0.25069
 C115 C 0.25994 0.22040 0.22888
 C116 C 0.27841 0.23826 0.27230
 C117 C 0.24054 0.27989 0.27101
 C118 C 0.21878 0.25877 0.23109
 C119 C 0.26006 0.19414 0.23555
 C120 C 0.26070 0.17550 0.21522
 C121 C 0.26145 0.18290 0.18802
 C122 C 0.26185 0.20904 0.18123
 C123 C 0.26123 0.22772 0.20155
 C124 C 0.27125 0.23665 0.29966
 C125 C 0.29005 0.23575 0.31983
 C126 C 0.31615 0.23618 0.31285
 C127 C 0.32339 0.23720 0.28561
 C128 C 0.30462 0.23813 0.26543
 C129 C 0.26228 0.29573 0.27404
 C130 C 0.26239 0.31541 0.29329
 C131 C 0.24071 0.31961 0.30950
 C132 C 0.21884 0.30420 0.30623
 C133 C 0.21871 0.28451 0.28702
 C134 C 0.21425 0.28077 0.21533
 C135 C 0.19437 0.28101 0.19634
 C136 C 0.17869 0.25934 0.19307
 C137 C 0.18279 0.23750 0.20906
 C138 C 0.20266 0.23725 0.22810
 H139 H 0.25922 0.18811 0.25649
 H140 H 0.26046 0.15533 0.22071
 H141 H 0.26256 0.21499 0.16025
 H142 H 0.26166 0.24786 0.19600
 H143 H 0.25113 0.23624 0.30534
 H144 H 0.28424 0.23484 0.34084
 H145 H 0.31051 0.23920 0.24445
 H146 H 0.27913 0.29280 0.26153
 H147 H 0.27938 0.32730 0.29556
 H148 H 0.20194 0.30732 0.31862
 H149 H 0.20172 0.27262 0.28488
 H150 H 0.22637 0.29760 0.21747
 H151 H 0.19133 0.29802 0.18411
 H152 H 0.17068 0.22067 0.20677
 H153 H 0.20552 0.22028 0.24043
 H154 H 0.34353 0.23748 0.27999
 C155 C 0.75908 0.74106 0.24908
 C156 C 0.74055 0.75962 0.24914
 C157 C 0.73902 0.77935 0.22747
 C158 C 0.72089 0.76109 0.27090
 C159 C 0.75901 0.71970 0.26904
 C160 C 0.78040 0.74118 0.22906
 C161 C 0.73887 0.80556 0.23429
 C162 C 0.73804 0.82433 0.21408
 C163 C 0.73715 0.81709 0.18685
 C164 C 0.73677 0.79099 0.17991
 C165 C 0.73756 0.77219 0.20011
 C166 C 0.72816 0.76248 0.29823
 C167 C 0.70944 0.76320 0.31852
 C168 C 0.68331 0.76280 0.31169
 C169 C 0.67596 0.76198 0.28448
 C170 C 0.69465 0.76123 0.26419
 C171 C 0.73738 0.70372 0.27210
 C172 C 0.73745 0.68396 0.29128
 C173 C 0.75923 0.67982 0.30735
 C174 C 0.78100 0.69535 0.30402
 C175 C 0.78094 0.71513 0.28489
 C176 C 0.78495 0.71928 0.21317
 C177 C 0.80473 0.71923 0.19404
 C178 C 0.82030 0.74098 0.19075
 C179 C 0.81616 0.76274 0.20685
 C180 C 0.79639 0.76280 0.22602
 H181 H 0.73982 0.81146 0.25526
 H182 H 0.73827 0.84447 0.21968
 H183 H 0.73595 0.78517 0.15890
 H184 H 0.73716 0.75208 0.19445
 H185 H 0.74830 0.76288 0.30381
 H186 H 0.71534 0.76396 0.33950
 H187 H 0.68867 0.76032 0.24324
 H188 H 0.72046 0.70662 0.25971
 H189 H 0.72054 0.67197 0.29361
 H190 H 0.79796 0.69228 0.31631
 H191 H 0.79785 0.72713 0.28271
 H192 H 0.77294 0.70237 0.21533
 H193 H 0.80781 0.70228 0.18174
 H194 H 0.82818 0.77963 0.20455
 H195 H 0.79351 0.77970 0.23844
 H196 H 0.65579 0.76173 0.27897
 C197 C 0.74069 0.24084 0.24961
 C198 C 0.75926 0.25937 0.24949
 C199 C 0.77890 0.26083 0.22770
 C200 C 0.76085 0.27908 0.27114
 C201 C 0.71940 0.24096 0.26966
 C202 C 0.74070 0.21947 0.22970
 C203 C 0.80515 0.26102 0.23439
 C204 C 0.82382 0.26183 0.21408
 C205 C 0.81645 0.26267 0.18688
 C206 C 0.79031 0.26300 0.18007
 C207 C 0.77161 0.26222 0.20038
 C208 C 0.76236 0.27190 0.29849
 C209 C 0.76317 0.29067 0.31869
 C210 C 0.76276 0.31678 0.31174
 C211 C 0.76184 0.32404 0.28450
 C212 C 0.76100 0.30530 0.26430
 C213 C 0.70344 0.26258 0.27272
 C214 C 0.68368 0.26249 0.29190
 C215 C 0.67952 0.24072 0.30799
 C216 C 0.69505 0.21897 0.30469
 C217 C 0.71483 0.21904 0.28556
 C218 C 0.71874 0.21489 0.21390
 C219 C 0.71859 0.19506 0.19486
 C220 C 0.74031 0.17948 0.19157
 C221 C 0.76213 0.18364 0.20758
 C222 C 0.76229 0.20346 0.22666
 H223 H 0.81115 0.26011 0.25533
 H224 H 0.84399 0.26164 0.21957
 H225 H 0.78439 0.26378 0.15909
 H226 H 0.75146 0.26259 0.19482
 H227 H 0.76277 0.25178 0.30416
 H228 H 0.76401 0.28485 0.33969
 H229 H 0.76000 0.31121 0.24333
 H230 H 0.70634 0.27949 0.26029
 H231 H 0.67168 0.27938 0.29420
 H232 H 0.69196 0.20200 0.31700
 H233 H 0.72681 0.20213 0.28339
 H234 H 0.70186 0.22692 0.21607
 H235 H 0.70159 0.19196 0.18262
 H236 H 0.77899 0.17161 0.20527
 H237 H 0.77923 0.20637 0.23902
 H238 H 0.76159 0.34419 0.27890
 C239 C 0.25880 0.75912 0.24999
 C240 C 0.24032 0.74048 0.24986
 C241 C 0.22072 0.73894 0.22805
 C242 C 0.23880 0.72073 0.27152
 C243 C 0.28011 0.75903 0.27001
 C244 C 0.25864 0.78055 0.23012
 C245 C 0.19445 0.73856 0.23471
 C246 C 0.17582 0.73777 0.21437
 C247 C 0.18323 0.73714 0.18718
 C248 C 0.20939 0.73697 0.18040
 C249 C 0.22805 0.73773 0.20072
 C250 C 0.23729 0.72788 0.29888
 C251 C 0.23653 0.70908 0.31908
 C252 C 0.23700 0.68298 0.31214
 C253 C 0.23793 0.67575 0.28491
 C254 C 0.23872 0.69452 0.26469
 C255 C 0.29614 0.73744 0.27301
 C256 C 0.31590 0.73754 0.29217
 C257 C 0.32001 0.75928 0.30830
 C258 C 0.30442 0.78100 0.30505
 C259 C 0.28464 0.78092 0.28593
 C260 C 0.28055 0.78532 0.21428
 C261 C 0.28051 0.80513 0.19518
 C262 C 0.25864 0.82050 0.19188
 C263 C 0.23689 0.81618 0.20797
 C264 C 0.23692 0.79639 0.22711
 H265 H 0.18841 0.73933 0.25565
 H266 H 0.15564 0.73784 0.21985
 H267 H 0.21535 0.73635 0.15942
 H268 H 0.24821 0.73750 0.19518
 H269 H 0.23683 0.74799 0.30454
 H270 H 0.23569 0.71489 0.34009
 H271 H 0.23972 0.68862 0.24373
 H272 H 0.29329 0.72056 0.26056
 H273 H 0.32794 0.72067 0.29443
 H274 H 0.30747 0.79794 0.31738
 H275 H 0.27261 0.79780 0.28380
 H276 H 0.29753 0.77343 0.21642
 H277 H 0.29745 0.80835 0.18288
 H278 H 0.21990 0.82804 0.20566
 H279 H 0.22001 0.79334 0.23950
 H280 H 0.23824 0.65561 0.27931
 C281 C 0.75988 0.25938 0.74971
 C282 C 0.74142 0.24073 0.74975
 C283 C 0.72174 0.23909 0.72806
 C284 C 0.74000 0.22104 0.77149
 C285 C 0.78123 0.25939 0.76965
 C286 C 0.75968 0.28071 0.72973
 C287 C 0.69551 0.23877 0.73485
 C288 C 0.67680 0.23787 0.71460
 C289 C 0.68411 0.23708 0.68738
 C290 C 0.71024 0.23685 0.68048
 C291 C 0.72898 0.23771 0.70071
 C292 C 0.73851 0.22827 0.79882
 C293 C 0.73775 0.20952 0.81908
 C294 C 0.73820 0.18340 0.81221
 C295 C 0.73914 0.17610 0.78500
 C296 C 0.73993 0.19482 0.76473
 C297 C 0.79730 0.23785 0.77266
 C298 C 0.81708 0.23802 0.79179
 C299 C 0.82114 0.25979 0.80788
 C300 C 0.80550 0.28148 0.80461
 C301 C 0.78571 0.28132 0.78552
 C302 C 0.78160 0.28544 0.71387
 C303 C 0.78157 0.30522 0.69475
 C304 C 0.75972 0.32062 0.69143
 C305 C 0.73795 0.31631 0.70750
 C306 C 0.73797 0.29654 0.72666
 H307 H 0.68956 0.23966 0.75581
 H308 H 0.65664 0.23799 0.72017
 H309 H 0.71610 0.23611 0.65948
 H310 H 0.74911 0.23744 0.69508
 H311 H 0.73805 0.24839 0.80443
 H312 H 0.73689 0.21538 0.84007
 H313 H 0.74091 0.18887 0.74378
 H314 H 0.79447 0.22094 0.76025
 H315 H 0.82915 0.22118 0.79408
 H316 H 0.80852 0.29844 0.81692
 H317 H 0.77363 0.29816 0.78338
 H318 H 0.79858 0.27356 0.71605
 H319 H 0.79854 0.30843 0.68247
 H320 H 0.72098 0.32819 0.70517
 H321 H 0.72105 0.29353 0.73906
 H322 H 0.73943 0.15595 0.77945
 C323 C 0.24049 0.74138 0.75029
 C324 C 0.25898 0.76001 0.75033
 C325 C 0.27873 0.76159 0.72867
 C326 C 0.26036 0.77972 0.77203
 C327 C 0.21908 0.74139 0.77018
 C328 C 0.24072 0.72003 0.73031
 C329 C 0.30494 0.76177 0.73549
 C330 C 0.32371 0.76253 0.71527
 C331 C 0.31646 0.76334 0.68803
 C332 C 0.29035 0.76373 0.68110
 C333 C 0.27156 0.76299 0.70131
 C334 C 0.26170 0.77253 0.79939
 C335 C 0.26234 0.79130 0.81962
 C336 C 0.26192 0.81741 0.81269
 C337 C 0.26114 0.82468 0.78545
 C338 C 0.26047 0.80594 0.76522
 C339 C 0.20303 0.76296 0.77315
 C340 C 0.18319 0.76281 0.79223
 C341 C 0.17903 0.74103 0.80832
 C342 C 0.19464 0.71933 0.80509
 C343 C 0.21450 0.71946 0.78605
 C344 C 0.21886 0.71536 0.71438
 C345 C 0.21892 0.69558 0.69528
 C346 C 0.24074 0.68012 0.69205
 C347 C 0.26245 0.68437 0.70819
 C348 C 0.26241 0.70415 0.72734
 H349 H 0.31084 0.76084 0.75646
 H350 H 0.34385 0.76229 0.72087
 H351 H 0.28454 0.76448 0.66009
 H352 H 0.25144 0.76337 0.69565
 H353 H 0.26212 0.75241 0.80505
 H354 H 0.26307 0.78545 0.84062
 H355 H 0.25960 0.81187 0.74426
 H356 H 0.20593 0.77988 0.76074
 H357 H 0.17114 0.77967 0.79448
 H358 H 0.19155 0.70235 0.81739
 H359 H 0.22655 0.70259 0.78394
 H360 H 0.20190 0.72729 0.71649
 H361 H 0.20199 0.69242 0.68294
 H362 H 0.27940 0.67245 0.70595
 H363 H 0.27928 0.70712 0.73979
 H364 H 0.26088 0.84483 0.77986
 C365 C 0.25979 0.24041 0.75115
 C366 C 0.24143 0.25913 0.75124
 C367 C 0.24008 0.27888 0.72957
 C368 C 0.22176 0.26075 0.77298
 C369 C 0.25950 0.21900 0.77106
 C370 C 0.28111 0.24037 0.73114
 C371 C 0.24019 0.30509 0.73640
 C372 C 0.23952 0.32386 0.71619
 C373 C 0.23851 0.31663 0.68895
 C374 C 0.23787 0.29054 0.68201
 C375 C 0.23851 0.27174 0.70222
 C376 C 0.22902 0.26202 0.80032
 C377 C 0.21028 0.26290 0.82058
 C378 C 0.18415 0.26279 0.81372
 C379 C 0.17683 0.26209 0.78651
 C380 C 0.19553 0.26118 0.76623
 C381 C 0.23771 0.20323 0.77407
 C382 C 0.23760 0.18339 0.79316
 C383 C 0.25934 0.17897 0.80920
 C384 C 0.28126 0.19430 0.80592
 C385 C 0.28139 0.21415 0.78688
 C386 C 0.28545 0.21848 0.71518
 C387 C 0.30521 0.21830 0.69603
 C388 C 0.32097 0.23992 0.69279
 C389 C 0.31706 0.26166 0.70897
 C390 C 0.29731 0.26185 0.72816
 H391 H 0.24124 0.31098 0.75737
 H392 H 0.23996 0.34400 0.72178
 H393 H 0.23696 0.28473 0.66101
 H394 H 0.23790 0.25163 0.69656
 H395 H 0.24915 0.26220 0.80592
 H396 H 0.21617 0.26356 0.84158
 H397 H 0.18956 0.26037 0.74528
 H398 H 0.22082 0.20634 0.76169
 H399 H 0.22058 0.17155 0.79544
 H400 H 0.29821 0.19100 0.81819
 H401 H 0.29842 0.22599 0.78473
 H402 H 0.27328 0.20168 0.71729
 H403 H 0.30811 0.20136 0.68365
 H404 H 0.32922 0.27845 0.70671
 H405 H 0.29459 0.27874 0.74064
 H406 H 0.15667 0.26207 0.78097
 C407 C 0.74162 0.75961 0.74937
 C408 C 0.76027 0.74117 0.74947
 C409 C 0.76191 0.72145 0.72782
 C410 C 0.77993 0.73980 0.77123
 C411 C 0.74159 0.78098 0.76927
 C412 C 0.72030 0.75936 0.72937
 C413 C 0.76211 0.69524 0.73467
 C414 C 0.76294 0.67649 0.71446
 C415 C 0.76378 0.68375 0.68723
 C416 C 0.76415 0.70986 0.68027
 C417 C 0.76335 0.72863 0.70047
 C418 C 0.77265 0.73838 0.79857
 C419 C 0.79137 0.73770 0.81885
 C420 C 0.81751 0.73816 0.81201
 C421 C 0.82486 0.73902 0.78480
 C422 C 0.80618 0.73973 0.76451
 C423 C 0.76315 0.79707 0.77227
 C424 C 0.76299 0.81683 0.79142
 C425 C 0.74122 0.82086 0.80754
 C426 C 0.71951 0.80522 0.80426
 C427 C 0.71965 0.78545 0.78515
 C428 C 0.71562 0.78122 0.71344
 C429 C 0.69581 0.78116 0.69436
 C430 C 0.68036 0.75932 0.69113
 C431 C 0.68463 0.73760 0.70725
 C432 C 0.70443 0.73764 0.72638
 H433 H 0.76116 0.68933 0.75564
 H434 H 0.76271 0.65635 0.72007
 H435 H 0.76493 0.71568 0.65926
 H436 H 0.76371 0.74875 0.69479
 H437 H 0.75251 0.73792 0.80416
 H438 H 0.78546 0.73690 0.83984
 H439 H 0.81217 0.74066 0.74356
 H440 H 0.78007 0.79425 0.75985
 H441 H 0.77985 0.82890 0.79371
 H442 H 0.70254 0.80822 0.81658
 H443 H 0.70280 0.77336 0.78302
 H444 H 0.72754 0.79820 0.71556
 H445 H 0.69263 0.79809 0.68204
 H446 H 0.67270 0.72064 0.70501
 H447 H 0.70741 0.72077 0.73883
 H448 H 0.84503 0.73931 0.77928
 C449 C 0.26072 0.09051 0.09117
 N450 N 0.25007 0.11384 0.08617
 N451 N 0.25039 0.13215 0.10502
 C452 C 0.26140 0.12769 0.12942
 N453 N 0.27206 0.10437 0.13442
 N454 N 0.27173 0.08606 0.11557
 C455 C 0.26037 0.07076 0.07092
 C456 C 0.26017 0.05408 0.05399
 C457 C 0.26155 0.14730 0.14984
 C458 C 0.26158 0.16362 0.16715
 C459 C 0.76275 0.59109 0.59078
 N460 N 0.74923 0.61313 0.58719
 N461 N 0.74966 0.63150 0.60596
 C462 C 0.76365 0.62839 0.62887
 N463 N 0.77717 0.60635 0.63245
 N464 N 0.77674 0.58799 0.61368
 C465 C 0.76226 0.57127 0.57062
 C466 C 0.76196 0.55455 0.55376
 C467 C 0.76388 0.64802 0.64923
 C468 C 0.76394 0.66438 0.66647
 C469 C 0.73765 0.90987 0.09036
 N470 N 0.74521 0.88561 0.08420
 N471 N 0.74489 0.86724 0.10300
 C472 C 0.73697 0.87258 0.12852
 N473 N 0.72941 0.89684 0.13466
 N474 N 0.72973 0.91520 0.11587
 C475 C 0.73803 0.92968 0.07016
 C476 C 0.73827 0.94641 0.05326
 C477 C 0.73686 0.85289 0.14885
 C478 C 0.73690 0.83649 0.16609
 C479 C 0.23924 0.40927 0.59231
 N480 N 0.22001 0.39163 0.59299
 N481 N 0.21979 0.37329 0.61182
 C482 C 0.23881 0.37204 0.63054
 N483 N 0.25804 0.38967 0.62985
 N484 N 0.25825 0.40801 0.61102
 C485 C 0.23939 0.42911 0.57214
 C486 C 0.23945 0.44583 0.55525
 C487 C 0.23853 0.35240 0.65093
 C488 C 0.23843 0.33603 0.66819
 C489 C 0.90915 0.26250 0.09029
 N490 N 0.89155 0.24327 0.09140
 N491 N 0.87311 0.24349 0.11012
 C492 C 0.87171 0.26296 0.12830
 N493 N 0.88931 0.28220 0.12718
 N494 N 0.90774 0.28198 0.10846
 C495 C 0.92913 0.26220 0.07027
 C496 C 0.94599 0.26203 0.05352
 C497 C 0.85209 0.26301 0.14871
 C498 C 0.83576 0.26294 0.16602
 C499 C 0.40916 0.76227 0.59145
 N500 N 0.38860 0.74631 0.58955
 N501 N 0.37022 0.74672 0.60835
 C502 C 0.37185 0.76313 0.62958
 N503 N 0.39241 0.77909 0.63147
 N504 N 0.41078 0.77868 0.61268
 C505 C 0.42900 0.76181 0.57127
 C506 C 0.44572 0.76153 0.55437
 C507 C 0.35222 0.76337 0.64999
 C508 C 0.33585 0.76346 0.66726
 C509 C 0.09094 0.73783 0.09020
 N510 N 0.09145 0.71896 0.10913
 N511 N 0.10977 0.71863 0.12796
 C512 C 0.12816 0.73714 0.12842
 N513 N 0.12765 0.75601 0.10949
 N514 N 0.10933 0.75634 0.09065
 C515 C 0.07110 0.73825 0.07002
 C516 C 0.05438 0.73851 0.05315
 C517 C 0.14769 0.73697 0.14892
 C518 C 0.16396 0.73695 0.16628
 C519 C 0.59135 0.23739 0.59101
 N520 N 0.59200 0.21856 0.60997
 N521 N 0.61044 0.21829 0.62867
 C522 C 0.62878 0.23684 0.62897
 N523 N 0.62814 0.25568 0.61000
 N524 N 0.60970 0.25594 0.59129
 C525 C 0.57141 0.23773 0.57098
 C526 C 0.55460 0.23791 0.55421
 C527 C 0.64841 0.23675 0.64934
 C528 C 0.66477 0.23680 0.66659
 C529 C 0.73837 0.09064 0.90872
 N530 N 0.74487 0.11514 0.91519
 N531 N 0.74464 0.13352 0.89640
 C532 C 0.73790 0.12795 0.87058
 N533 N 0.73140 0.10345 0.86411
 N534 N 0.73163 0.08507 0.88290
 C535 C 0.73862 0.07082 0.92891
 C536 C 0.73874 0.05409 0.94579
 C537 C 0.73786 0.14765 0.85026
 C538 C 0.73793 0.16404 0.83301
 C539 C 0.23794 0.59040 0.40883
 N540 N 0.24431 0.61496 0.41519
 N541 N 0.24391 0.63327 0.39633
 C542 C 0.23709 0.62757 0.37056
 N543 N 0.23072 0.60301 0.36421
 N544 N 0.23112 0.58470 0.38307
 C545 C 0.23839 0.57066 0.42911
 C546 C 0.23868 0.55401 0.44608
 C547 C 0.23688 0.64722 0.35017
 C548 C 0.23683 0.66359 0.33291
 C549 C 0.26100 0.91014 0.90918
 N550 N 0.25099 0.88658 0.91451
 N551 N 0.25137 0.86821 0.89573
 C552 C 0.26178 0.87285 0.87105
 N553 N 0.27178 0.89641 0.86573
 N554 N 0.27141 0.91477 0.88451
 C555 C 0.26060 0.92995 0.92938
 C556 C 0.26036 0.94666 0.94627
 C557 C 0.26197 0.85317 0.85071
 C558 C 0.26203 0.83679 0.83347
 C559 C 0.76214 0.40951 0.40812
 N560 N 0.75232 0.38589 0.41356
 N561 N 0.75266 0.36752 0.39479
 C562 C 0.76286 0.37221 0.37003
 N563 N 0.77268 0.39582 0.36460
 N564 N 0.77234 0.41419 0.38336
 C565 C 0.76177 0.42931 0.42829
 C566 C 0.76158 0.44602 0.44517
 C567 C 0.76300 0.35254 0.34971
 C568 C 0.76299 0.33615 0.33249
 C569 C 0.09133 0.26264 0.91017
 N570 N 0.10844 0.24302 0.90859
 N571 N 0.12690 0.24325 0.88989
 C572 C 0.12882 0.26312 0.87222
 N573 N 0.11171 0.28274 0.87381
 N574 N 0.09325 0.28251 0.89251
 C575 C 0.07132 0.26232 0.93017
 C576 C 0.05445 0.26212 0.94690
 C577 C 0.14846 0.26318 0.85183
 C578 C 0.16481 0.26310 0.83454
 C579 C 0.59080 0.76203 0.40848
 N580 N 0.60915 0.74349 0.40803
 N581 N 0.62751 0.74383 0.38922
 C582 C 0.62809 0.76272 0.37032
 N583 N 0.60976 0.78126 0.37078
 N584 N 0.59140 0.78092 0.38958
 C585 C 0.57095 0.76163 0.42865
 C586 C 0.55423 0.76140 0.44553
 C587 C 0.64767 0.76291 0.34986
 C588 C 0.66399 0.76295 0.33254
 C589 C 0.91005 0.73855 0.90872
 N590 N 0.90595 0.71724 0.89352
 N591 N 0.88757 0.71702 0.87475
 C592 C 0.87272 0.73810 0.87062
 N593 N 0.87682 0.75941 0.88583
 N594 N 0.89520 0.75963 0.90460
 C595 C 0.92996 0.73882 0.92882
 C596 C 0.94674 0.73894 0.94565
 C597 C 0.85314 0.73798 0.85017
 C598 C 0.83682 0.73798 0.83286
 C599 C 0.40891 0.23678 0.40923
 N600 N 0.41002 0.21983 0.38844
 N601 N 0.39162 0.21948 0.36970
 C602 C 0.37154 0.23605 0.37120
 N603 N 0.37042 0.25300 0.39200
 N604 N 0.38882 0.25335 0.41074
 C605 C 0.42880 0.23723 0.42932
 C606 C 0.44557 0.23751 0.44612
 C607 C 0.35191 0.23590 0.35083
 C608 C 0.33554 0.23592 0.33359
 C609 C 0.73987 0.91316 0.90431
 N610 N 0.71765 0.90515 0.89268
 N611 N 0.71803 0.88727 0.87339
 C612 C 0.74063 0.87689 0.86515
 N613 N 0.76285 0.88491 0.87677
 N614 N 0.76248 0.90279 0.89606
 C615 C 0.73946 0.93223 0.92524
 C616 C 0.73919 0.94820 0.94288
 C617 C 0.74098 0.85738 0.84468
 C618 C 0.74117 0.84083 0.82764
 C619 C 0.23999 0.41228 0.40600
 N620 N 0.23935 0.38702 0.41282
 N621 N 0.23967 0.36895 0.39373
 C622 C 0.24067 0.37559 0.36724
 N623 N 0.24132 0.40085 0.36041
 N624 N 0.24100 0.41892 0.37951
 C625 C 0.23969 0.43170 0.42660
 C626 C 0.23951 0.44792 0.44400
 C627 C 0.24087 0.35610 0.34673
 C628 C 0.24089 0.33956 0.32966
 C629 C 0.25969 0.08590 0.90534
 N630 N 0.23714 0.09613 0.89672
 N631 N 0.23695 0.11417 0.87757
 C632 C 0.25931 0.12250 0.86645
 N633 N 0.28186 0.11226 0.87506
 N634 N 0.28204 0.09423 0.89421
 C635 C 0.25989 0.06667 0.92614
 C636 C 0.26000 0.05059 0.94369
 C637 C 0.25916 0.14218 0.84612
 C638 C 0.25916 0.15886 0.82919
 C639 C 0.76042 0.58732 0.40408
 N640 N 0.74315 0.60684 0.40518
 N641 N 0.74273 0.62478 0.38595
 C642 C 0.75955 0.62374 0.36502
 N643 N 0.77682 0.60422 0.36391
 N644 N 0.77723 0.58627 0.38315
 C645 C 0.76091 0.56809 0.42487
 C646 C 0.76119 0.55200 0.44242
 C647 C 0.75932 0.64326 0.34452
 C648 C 0.75920 0.65983 0.32747
 C649 C 0.08599 0.73970 0.90449
 N650 N 0.09608 0.71740 0.89505
 N651 N 0.11411 0.71774 0.87589
 C652 C 0.12257 0.74040 0.86558
 N653 N 0.11247 0.76270 0.87501
 N654 N 0.09444 0.76235 0.89417
 C655 C 0.06678 0.73935 0.92531
 C656 C 0.05071 0.73916 0.94288
 C657 C 0.14224 0.74076 0.84524
 C658 C 0.15892 0.74096 0.82831
 C659 C 0.58671 0.23918 0.40441
 N660 N 0.59543 0.21694 0.39344
 N661 N 0.61340 0.21736 0.37423
 C662 C 0.62319 0.24005 0.36540
 N663 N 0.61447 0.26230 0.37636
 N664 N 0.59649 0.26187 0.39557
 C665 C 0.56756 0.23873 0.42529
 C666 C 0.55155 0.23843 0.44292
 C667 C 0.64282 0.24046 0.34501
 C668 C 0.65946 0.24068 0.32804
 C669 C 0.91356 0.26115 0.90456
 N670 N 0.90516 0.23849 0.89424
 N671 N 0.88728 0.23814 0.87495
 C672 C 0.87728 0.26044 0.86540
 N673 N 0.88568 0.28310 0.87571
 N674 N 0.90357 0.28345 0.89499
 C675 C 0.93259 0.26150 0.92553
 C676 C 0.94850 0.26170 0.94324
 C677 C 0.85774 0.26007 0.84495
 C678 C 0.84115 0.25987 0.82794
 C679 C 0.41289 0.76051 0.40460
 N680 N 0.40387 0.73784 0.39490
 N681 N 0.38586 0.73750 0.37574
 C682 C 0.37635 0.75982 0.36569
 N683 N 0.38538 0.78249 0.37538
 N684 N 0.40339 0.78283 0.39454
 C685 C 0.43211 0.76086 0.42542
 C686 C 0.44819 0.76105 0.44297
 C687 C 0.35671 0.75948 0.34531
 C688 C 0.34007 0.75930 0.32835
 C689 C 0.25912 0.91293 0.09508
 N690 N 0.24064 0.89450 0.09529
 N691 N 0.24037 0.87659 0.11456
 C692 C 0.25855 0.87657 0.13421
 N693 N 0.27703 0.89501 0.13400
 N694 N 0.27730 0.91293 0.11473
 C695 C 0.25948 0.93211 0.07422
 C696 C 0.25971 0.94815 0.05663
 C697 C 0.25846 0.85705 0.15471
 C698 C 0.25848 0.84049 0.17176
 C699 C 0.76063 0.41328 0.59488
 N700 N 0.74103 0.39610 0.59622
 N701 N 0.74068 0.37813 0.61544
 C702 C 0.75990 0.37683 0.63391
 N703 N 0.77950 0.39401 0.63257
 N704 N 0.77986 0.41198 0.61335
 C705 C 0.76107 0.43250 0.57407
 C706 C 0.76131 0.44858 0.55651
 C707 C 0.75970 0.35725 0.65434
 C708 C 0.75963 0.34064 0.67135
 C709 C 0.73895 0.08654 0.09547
 N710 N 0.75980 0.08938 0.11167
 N711 N 0.76011 0.10741 0.13080
 C712 C 0.73957 0.12313 0.13430
 N713 N 0.71872 0.12028 0.11811
 N714 N 0.71841 0.10225 0.09899
 C715 C 0.73873 0.06733 0.07468
 C716 C 0.73863 0.05128 0.05713
 C717 C 0.73999 0.14276 0.15465
 C718 C 0.74022 0.15940 0.17159
 C719 C 0.24000 0.58721 0.59581
 N720 N 0.21793 0.59405 0.60856
 N721 N 0.21821 0.61206 0.62771
 C722 C 0.24056 0.62377 0.63470
 N723 N 0.26263 0.61692 0.62197
 N724 N 0.26235 0.59891 0.60282
 C725 C 0.23968 0.56797 0.57503
 C726 C 0.23949 0.55186 0.55752
 C727 C 0.24078 0.64342 0.65506
 C728 C 0.24085 0.66006 0.67202
 C729 C 0.91312 0.73978 0.09435
 N730 N 0.90449 0.71750 0.10536
 N731 N 0.88649 0.71785 0.12456
 C732 C 0.87660 0.74049 0.13332
 N733 N 0.88524 0.76277 0.12232
 N734 N 0.90323 0.76243 0.10312
 C735 C 0.93231 0.73941 0.07351
 C736 C 0.94837 0.73920 0.05593
 C737 C 0.85698 0.74082 0.15371
 C738 C 0.84035 0.74098 0.17069
 C739 C 0.41351 0.23850 0.59608
 N740 N 0.40292 0.21624 0.60509
 N741 N 0.38499 0.21660 0.62435
 C742 C 0.37712 0.23921 0.63519
 N743 N 0.38771 0.26148 0.62619
 N744 N 0.40564 0.26112 0.60693
 C745 C 0.43262 0.23816 0.57515
 C746 C 0.44860 0.23799 0.55750
 C747 C 0.35756 0.23960 0.65564
 C748 C 0.34097 0.23982 0.67268
 C749 C 0.08591 0.26098 0.09678
 N750 N 0.09336 0.23839 0.10803
 N751 N 0.11130 0.23800 0.12725
 C752 C 0.12234 0.26019 0.13579
 N753 N 0.11489 0.28278 0.12455
 N754 N 0.09694 0.28317 0.10533
 C755 C 0.06683 0.26136 0.07586
 C756 C 0.05089 0.26158 0.05819
 C757 C 0.14195 0.25976 0.15616
 C758 C 0.15860 0.25949 0.17310
 C759 C 0.58719 0.76026 0.59513
 N760 N 0.59867 0.73785 0.60228
 N761 N 0.61674 0.73752 0.62139
 C762 C 0.62386 0.75960 0.63392
 N763 N 0.61237 0.78201 0.62678
 N764 N 0.59430 0.78233 0.60767
 C765 C 0.56791 0.76063 0.57438
 C766 C 0.55179 0.76086 0.55687
 C767 C 0.64356 0.75932 0.65423
 C768 C 0.66025 0.75923 0.67114
   
