data_POSCAR
  _audit_creation_date              2014-09-24
  _audit_creation_method            'ToBaCCo'
  _symmetry_space_group_name_H-M    'P1'
  _symmetry_Int_Tables_number       1
  _symmetry_cell_setting            triclinic
  loop_
  _symmetry_equiv_pos_as_xyz
 x,y,z
_cell_length_a 39.7021
_cell_length_b 39.6005
_cell_length_c 14.9730
_cell_angle_alpha 89.855800
_cell_angle_beta 89.977100
_cell_angle_gamma 120.298400
loop_
  _atom_site_label
  _atom_site_type_symbol
  _atom_site_fract_x
  _atom_site_fract_y
  _atom_site_fract_z
C1 C 0.14378 0.45056 0.53861
 C2 C 0.14390 0.45021 0.44689
 C3 C 0.18254 0.47312 0.42018
 N4 N 0.20593 0.48662 0.49257
 C5 C 0.18234 0.47285 0.56466
 C6 C 0.19668 0.48161 0.33135
 C7 C 0.23699 0.49741 0.31400
 C8 C 0.25698 0.51952 0.23957
 C9 C 0.29323 0.52304 0.24056
 C10 C 0.29473 0.50407 0.31689
 N11 N 0.26078 0.48930 0.36246
 C12 C 0.32446 0.49588 0.33668
 C13 C 0.33146 0.48852 0.42450
 C14 C 0.35339 0.47176 0.44887
 C15 C 0.35258 0.47009 0.54048
 C16 C 0.33075 0.48658 0.56874
 N17 N 0.31770 0.49758 0.49750
 C18 C 0.32245 0.49137 0.65812
 C19 C 0.29195 0.49903 0.67772
 C20 C 0.28906 0.51699 0.75464
 C21 C 0.25288 0.51365 0.75347
 C22 C 0.23508 0.49468 0.67493
 N23 N 0.25931 0.48658 0.62814
 C24 C 0.19574 0.48093 0.65325
 H25 H 0.11837 0.43506 0.58104
 H26 H 0.11845 0.43359 0.40561
 H27 H 0.25173 0.46865 0.57208
 H28 H 0.24611 0.53079 0.18816
 H29 H 0.31559 0.53703 0.18989
 H30 H 0.36740 0.46072 0.40542
 H31 H 0.36541 0.45680 0.58073
 H32 H 0.24069 0.52336 0.80526
 H33 H 0.25234 0.46975 0.41592
 H34 H 0.31042 0.53028 0.80735
 C35 C 0.51473 -0.32426 0.53671
 C36 C 0.51451 -0.32334 0.44512
 C37 C 0.48517 -0.31590 0.42037
 N38 N 0.46809 -0.31143 0.49401
 C39 C 0.48596 -0.31673 0.56510
 C40 C 0.47443 -0.31255 0.33198
 C41 C 0.45282 -0.29345 0.31555
 C42 C 0.42901 -0.29956 0.24222
 C43 C 0.41968 -0.27048 0.24291
 C44 C 0.43679 -0.24823 0.31845
 N45 N 0.45635 -0.26286 0.36319
 C46 C 0.43827 -0.21273 0.33968
 C47 C 0.44602 -0.19784 0.42721
 C48 C 0.45501 -0.16064 0.45322
 C49 C 0.45788 -0.15973 0.54476
 C50 C 0.44916 -0.19683 0.57153
 N51 N 0.44210 -0.21986 0.49954
 C52 C 0.44593 -0.21049 0.65996
 C53 C 0.44259 -0.24706 0.67750
 C54 C 0.42740 -0.26861 0.75522
 C55 C 0.43647 -0.29781 0.75385
 C56 C 0.45710 -0.29307 0.67548
 N57 N 0.45966 -0.26283 0.62798
 C58 C 0.47756 -0.31264 0.65478
 H59 H 0.53534 -0.32773 0.57723
 H60 H 0.53524 -0.32567 0.40257
 H61 H 0.47759 -0.24990 0.57256
 H62 H 0.42037 -0.32184 0.19148
 H63 H 0.40296 -0.26595 0.19224
 H64 H 0.45939 -0.13646 0.41145
 H65 H 0.46593 -0.13434 0.58558
 H66 H 0.43019 -0.31905 0.80632
 H67 H 0.47566 -0.24940 0.41600
 H68 H 0.41284 -0.26278 0.80903
 C69 C 1.13670 0.63642 0.54838
 C70 C 1.13743 0.63548 0.45715
 C71 C 1.16852 0.67098 0.42976
 N72 N 1.18668 0.69353 0.50148
 C73 C 1.16729 0.67271 0.57463
 C74 C 1.18328 0.67977 0.34182
 C75 C 1.21531 0.71650 0.31719
 C76 C 1.23686 0.72368 0.23934
 C77 C 1.26351 0.76294 0.23754
 C78 C 1.25684 0.77911 0.31284
 N79 N 1.22784 0.75051 0.36198
 C80 C 1.27575 0.81970 0.33148
 C81 C 1.27963 0.83371 0.41988
 C82 C 1.29118 0.87189 0.44345
 C83 C 1.29175 0.87314 0.53475
 C84 C 1.27995 0.83558 0.56426
 N85 N 1.27245 0.81141 0.49398
 C86 C 1.27552 0.82409 0.65489
 C87 C 1.25443 0.78433 0.68227
 C88 C 1.25739 0.77101 0.76592
 C89 C 1.23085 0.73180 0.76872
 C90 C 1.21282 0.72142 0.68558
 N91 N 1.22732 0.75396 0.63350
 C92 C 1.18128 0.68357 0.66326
 H93 H 1.11705 0.61177 0.58918
 H94 H 1.11849 0.61041 0.41669
 H95 H 1.21651 0.75641 0.57213
 H96 H 1.23376 0.70312 0.18815
 H97 H 1.28511 0.77794 0.18578
 H98 H 1.29735 0.89619 0.39997
 H99 H 1.29861 0.89854 0.57472
 H100 H 1.22505 0.71370 0.82730
 H101 H 1.21441 0.75488 0.41692
 H102 H 1.27641 0.78785 0.82023
 C103 C 0.68181 0.54524 0.45986
 C104 C 0.68267 0.54639 0.55150
 C105 C 0.71578 0.54548 0.57760
 N106 N 0.73505 0.54404 0.50454
 C107 C 0.71443 0.54381 0.43265
 C108 C 0.73130 0.55223 0.66529
 C109 C 0.76522 0.55050 0.68684
 C110 C 0.78558 0.56318 0.76678
 C111 C 0.81301 0.55191 0.76653
 C112 C 0.80845 0.53197 0.68736
 N113 N 0.77959 0.53157 0.63864
 C114 C 0.82894 0.51242 0.66549
 C115 C 0.83423 0.50448 0.57575
 C116 C 0.84901 0.48092 0.54918
 C117 C 0.84854 0.48046 0.45755
 C118 C 0.83295 0.50323 0.43076
 N119 N 0.82443 0.51809 0.50300
 C120 C 0.82689 0.50994 0.34089
 C121 C 0.80366 0.52617 0.31584
 C122 C 0.80371 0.54092 0.23167
 C123 C 0.77532 0.55110 0.23214
 C124 C 0.75850 0.54213 0.31645
 N125 N 0.77587 0.52678 0.36696
 C126 C 0.72702 0.54699 0.34316
 H127 H 0.66036 0.54669 0.41798
 H128 H 0.66214 0.54946 0.59316
 H129 H 0.76669 0.51367 0.42927
 H130 H 0.78061 0.57777 0.82171
 H131 H 0.83346 0.55703 0.81981
 H132 H 0.85809 0.46463 0.59086
 H133 H 0.85753 0.46418 0.41566
 H134 H 0.76767 0.56335 0.17636
 H135 H 0.76708 0.51456 0.58217
 H136 H 0.82218 0.54384 0.17550
 C137 C 0.52550 0.16859 0.54909
 C138 C 0.52356 0.16767 0.45753
 C139 C 0.51371 0.19524 0.43207
 N140 N 0.50904 0.21259 0.50501
 C141 C 0.51629 0.19639 0.57680
 C142 C 0.50980 0.20450 0.34285
 C143 C 0.50803 0.23816 0.31891
 C144 C 0.49761 0.24473 0.23499
 C145 C 0.50529 0.28268 0.23383
 C146 C 0.52010 0.29830 0.31715
 N147 N 0.52125 0.27084 0.36900
 C148 C 0.53553 0.33804 0.33996
 C149 C 0.54350 0.35194 0.42864
 C150 C 0.56394 0.39103 0.45273
 C151 C 0.56532 0.39196 0.54432
 C152 C 0.54530 0.35336 0.57324
 N153 N 0.53194 0.32899 0.50232
 C154 C 0.53997 0.34072 0.66328
 C155 C 0.52487 0.30096 0.68606
 C156 C 0.50566 0.28406 0.76550
 C157 C 0.49846 0.24642 0.76595
 C158 C 0.51352 0.24127 0.68686
 N159 N 0.52879 0.27439 0.63724
 C160 C 0.51567 0.20758 0.66632
 H161 H 0.53428 0.15175 0.58970
 H162 H 0.53006 0.14970 0.41477
 H163 H 0.54546 0.28007 0.57950
 H164 H 0.48681 0.22463 0.17929
 H165 H 0.50144 0.29745 0.17722
 H166 H 0.57727 0.41627 0.40897
 H167 H 0.58036 0.41812 0.58443
 H168 H 0.48423 0.22530 0.81912
 H169 H 0.53543 0.27584 0.42996
 H170 H 0.49787 0.29760 0.81806
 C171 C 0.65780 0.10916 0.55253
 C172 C 0.65752 0.10803 0.46075
 C173 C 0.67832 0.14647 0.43171
 N174 N 0.69062 0.17100 0.50218
 C175 C 0.67795 0.14837 0.57638
 C176 C 0.68543 0.15871 0.34175
 C177 C 0.71425 0.19688 0.31608
 C178 C 0.71707 0.21301 0.23214
 C179 C 0.75194 0.24776 0.22970
 C180 C 0.76943 0.25191 0.31223
 N181 N 0.74596 0.22108 0.36506
 C182 C 0.80803 0.28103 0.33319
 C183 C 0.82161 0.28957 0.42194
 C184 C 0.86028 0.31119 0.44814
 C185 C 0.86022 0.31218 0.54010
 C186 C 0.82145 0.29153 0.56650
 N187 N 0.79805 0.27784 0.49419
 C188 C 0.80701 0.28588 0.65469
 C189 C 0.76739 0.25911 0.67254
 C190 C 0.74650 0.26149 0.74395
 C191 C 0.71173 0.22669 0.74674
 C192 C 0.71268 0.20385 0.67768
 N193 N 0.74617 0.22438 0.63076
 C194 C 0.68513 0.16380 0.66412
 H195 H 0.64576 0.08381 0.59574
 H196 H 0.64466 0.08189 0.42019
 H197 H 0.75643 0.21313 0.58170
 H198 H 0.69671 0.20043 0.17732
 H199 H 0.76366 0.26717 0.17268
 H200 H 0.88589 0.32407 0.40579
 H201 H 0.88587 0.32578 0.58189
 H202 H 0.68884 0.21860 0.79576
 H203 H 0.75370 0.21414 0.42588
 H204 H 0.75593 0.28539 0.79070
 O205 O 1.05957 0.56214 0.16326
 O206 O 1.10081 0.55167 0.07495
 C207 C 1.09412 0.56960 0.13870
 O208 O 0.94635 0.38675 0.14995
 O209 O 0.90383 0.39977 0.07398
 C210 C 0.91157 0.37904 0.12843
 O211 O 1.05571 0.44393 0.15926
 O212 O 1.09867 0.49499 0.07045
 C213 C 1.09065 0.46922 0.13240
 O214 O 0.94947 0.51209 0.15990
 O215 O 0.90573 0.45956 0.07642
 C216 C 0.91416 0.48633 0.13606
 Zr217 Zr 1.00376 0.52017 0.11325
 O218 O 1.00118 0.51823 0.25444
 O219 O 1.00939 0.57626 0.11314
 Zr220 Zr 1.00125 0.43366 0.10983
 O221 O 0.99952 0.43569 0.25071
 O222 O 1.00381 0.38159 0.11337
 O223 O 1.03735 0.49355 0.12740
 O224 O 0.96855 0.46027 0.12876
 O225 O 0.94840 0.51324 -0.15593
 O226 O 0.90510 0.46036 -0.07156
 C227 C 0.91332 0.48743 -0.13071
 O228 O 1.05404 0.44448 -0.16920
 O229 O 1.09812 0.49533 -0.08222
 C230 C 1.08928 0.46957 -0.14454
 O231 O 0.94478 0.39025 -0.16172
 O232 O 0.90339 0.40140 -0.07598
 C233 C 0.91030 0.38215 -0.13599
 O234 O 1.05847 0.56468 -0.16290
 O235 O 1.10011 0.55326 -0.07900
 C236 C 1.09315 0.57221 -0.13967
 Zr237 Zr 1.00299 0.52158 -0.11244
 O238 O 0.99895 0.52195 -0.25334
 O239 O 1.00831 0.57748 -0.10573
 Zr240 Zr 1.00024 0.43472 -0.11695
 O241 O 0.99594 0.43361 -0.25796
 O242 O 1.00218 0.38225 -0.11726
 Zr243 Zr 1.05986 0.50516 -0.00363
 Zr244 Zr 0.94416 0.44937 0.00009
 O245 O 0.96785 0.46197 -0.12981
 O246 O 1.03630 0.49498 -0.13342
 O247 O 0.96868 0.51063 0.00159
 O248 O 1.03415 0.44397 -0.00473
 O249 O 1.03751 0.54338 -0.00013
 O250 O 0.96591 0.41063 -0.00299
 H251 H 0.95095 0.45119 0.18133
 H252 H 1.05097 0.43213 -0.00562
 H253 H 0.95030 0.45391 -0.18228
 H254 H 1.05595 0.57197 0.00076
 H255 H 0.98629 0.36442 0.06591
 H256 H 0.97862 0.36206 -0.08584
 H257 H 1.01784 0.45851 -0.28081
 H258 H 1.01899 0.51672 -0.27791
 H259 H 0.98488 0.57438 -0.07481
 H260 H 0.98686 0.57420 0.08010
 H261 H 1.01830 0.50831 0.27492
 H262 H 0.99887 0.41173 0.27259
 O263 O 0.44262 0.48161 0.15698
 O264 O 0.44011 0.52723 0.06626
 C265 C 0.42661 0.50141 0.12978
 O266 O 0.61772 0.57861 0.15690
 O267 O 0.61930 0.52925 0.08020
 C268 C 0.63338 0.55761 0.13772
 O269 O 0.54064 0.60748 0.16187
 O270 O 0.48868 0.58916 0.06752
 C271 C 0.51093 0.60964 0.13262
 O272 O 0.51199 0.44306 0.15400
 O273 O 0.56896 0.46482 0.07480
 C274 C 0.54296 0.44166 0.13228
 Zr275 Zr 0.49191 0.48021 0.10624
 O276 O 0.48825 0.47481 0.24689
 O277 O 0.44731 0.42099 0.09135
 Zr278 Zr 0.56506 0.57406 0.11215
 O279 O 0.56180 0.56888 0.25282
 O280 O 0.60796 0.63409 0.11948
 O281 O 0.50515 0.53779 0.12437
 O282 O 0.55093 0.51654 0.12746
 O283 O 0.51586 0.44513 -0.16270
 O284 O 0.57002 0.46529 -0.07445
 C285 C 0.54589 0.44319 -0.13570
 O286 O 0.54767 0.61111 -0.16780
 O287 O 0.49213 0.59095 -0.08436
 C288 C 0.51701 0.61272 -0.14507
 O289 O 0.62234 0.58050 -0.15239
 O290 O 0.62125 0.53015 -0.07334
 C291 C 0.63694 0.55891 -0.12995
 O292 O 0.44515 0.48134 -0.17282
 O293 O 0.44181 0.52715 -0.08566
 C294 C 0.42870 0.50096 -0.14766
 Zr295 Zr 0.49526 0.48229 -0.11948
 O296 O 0.50042 0.48293 -0.26035
 O297 O 0.44709 0.42451 -0.12201
 Zr298 Zr 0.56904 0.57609 -0.11362
 O299 O 0.57452 0.57606 -0.25426
 O300 O 0.61206 0.63618 -0.10803
 Zr301 Zr 0.49182 0.54620 -0.00710
 Zr302 Zr 0.56903 0.50998 -0.00020
 O303 O 0.55490 0.51869 -0.13064
 O304 O 0.50926 0.54022 -0.13618
 O305 O 0.51106 0.46321 -0.00518
 O306 O 0.54999 0.59245 -0.00226
 O307 O 0.46561 0.48489 -0.00836
 O308 O 0.59596 0.57151 0.00177
 H309 H 0.56178 0.51086 0.18124
 H310 H 0.55553 0.61981 -0.00163
 H311 H 0.56726 0.51366 -0.18247
 H312 H 0.43679 0.46861 -0.00968
 H313 H 0.62936 0.63844 0.07859
 H314 H 0.63424 0.63854 -0.07289
 H315 H 0.54832 0.56653 -0.27993
 H316 H 0.49662 0.50416 -0.28364
 H317 H 0.45241 0.40904 -0.07815
 H318 H 0.42166 0.41938 0.09491
 H319 H 0.49961 0.50163 0.27077
 H320 H 0.58156 0.59480 0.27627
 O321 O 0.47991 -0.07780 0.15876
 O322 O 0.42599 -0.10806 0.06818
 C323 C 0.44778 -0.10832 0.13228
 O324 O 0.46299 0.06599 0.15735
 O325 O 0.52061 0.09788 0.07909
 C326 C 0.49576 0.09719 0.13622
 O327 O 0.38709 -0.04172 0.15742
 O328 O 0.38181 -0.09022 0.06429
 C329 C 0.36934 -0.07753 0.12841
 O330 O 0.56182 0.02696 0.15973
 O331 O 0.56797 0.07969 0.08097
 C332 C 0.58017 0.06375 0.13846
 Zr333 Zr 0.50787 -0.01906 0.11209
 O334 O 0.50758 -0.01773 0.25337
 O335 O 0.54762 -0.03985 0.11433
 Zr336 Zr 0.43929 0.00765 0.10948
 O337 O 0.44000 0.00649 0.25077
 O338 O 0.39526 0.02261 0.09922
 O339 O 0.44839 -0.03948 0.12431
 O340 O 0.49770 0.02678 0.12991
 O341 O 0.56606 0.03303 -0.15520
 O342 O 0.56971 0.08239 -0.06788
 C343 C 0.58344 0.06902 -0.12776
 O344 O 0.39160 -0.03574 -0.17340
 O345 O 0.38419 -0.08767 -0.08933
 C346 C 0.37308 -0.07243 -0.15104
 O347 O 0.46831 0.07046 -0.15679
 O348 O 0.52304 0.10032 -0.06846
 C349 C 0.50012 0.10098 -0.12922
 O350 O 0.48753 -0.07277 -0.16420
 O351 O 0.43035 -0.10602 -0.08466
 C352 C 0.45570 -0.10439 -0.14156
 Zr353 Zr 0.51172 -0.01526 -0.11418
 O354 O 0.51554 -0.00997 -0.25512
 O355 O 0.55272 -0.03451 -0.11257
 Zr356 Zr 0.44285 0.01110 -0.11652
 O357 O 0.44714 0.01731 -0.25716
 O358 O 0.39753 0.02449 -0.11408
 Zr359 Zr 0.43400 -0.05980 -0.00780
 Zr360 Zr 0.51700 0.05179 0.00291
 O361 O 0.50166 0.03072 -0.12844
 O362 O 0.45262 -0.03553 -0.13617
 O363 O 0.54011 0.01422 0.00220
 O364 O 0.41183 -0.02152 -0.00654
 O365 O 0.49067 -0.05157 -0.00346
 O366 O 0.46090 0.04497 -0.00067
 H367 H 0.50964 0.04302 0.18369
 H368 H 0.38321 -0.03249 -0.00839
 H369 H 0.51484 0.04836 -0.17981
 H370 H 0.49429 -0.07456 -0.00264
 H371 H 0.38674 0.02352 0.16086
 H372 H 0.40526 0.04616 -0.07121
 H373 H 0.44630 -0.00629 -0.28150
 H374 H 0.48960 -0.02877 -0.27973
 H375 H 0.57525 -0.01567 -0.07642
 H376 H 0.57010 -0.02208 0.07644
 H377 H 0.48002 -0.02967 0.27249
 H378 H 0.42082 0.01369 0.27193
 N379 N 1.14852 0.46226 0.11969
 N380 N 1.17815 0.46572 0.17515
 C381 C 1.17121 0.47399 0.25832
 C382 C 1.13652 0.47497 0.25747
 C383 C 1.12359 0.46750 0.16997
 H384 H 1.12381 0.48310 0.31121
 H385 H 1.14705 0.45750 0.05104
 H386 H 1.20041 0.46076 0.15451
 N387 N 0.50032 0.66544 0.11945
 N388 N 0.49044 0.68729 0.17454
 C389 C 0.48593 0.67296 0.25843
 C390 C 0.49400 0.64234 0.25806
 C391 C 0.50302 0.63900 0.17026
 H392 H 0.49117 0.62311 0.31261
 H393 H 0.50381 0.66877 0.05058
 H394 H 0.48952 0.71192 0.15314
 N395 N 0.30174 -0.13203 0.11976
 N396 N 0.27572 -0.16150 0.17655
 C397 C 0.29135 -0.15375 0.25915
 C398 C 0.32685 -0.11852 0.25706
 C399 C 0.33229 -0.10632 0.16871
 H400 H 0.34830 -0.10614 0.30987
 H401 H 0.29947 -0.13278 0.05046
 H402 H 0.24932 -0.18550 0.15623
 N403 N 0.84390 0.46530 0.15083
 N404 N 0.82114 0.47161 0.20405
 C405 C 0.84317 0.49691 0.26819
 C406 C 0.88194 0.50753 0.25479
 C407 C 0.88103 0.48674 0.17933
 H408 H 0.90698 0.52716 0.29459
 H409 H 0.83395 0.44640 0.09619
 H410 H 0.79091 0.45833 0.19710
 N411 N 0.57542 0.40210 0.15030
 N412 N 0.57300 0.37448 0.20419
 C413 C 0.54547 0.36667 0.26635
 C414 C 0.52932 0.39005 0.25111
 C415 C 0.54915 0.41207 0.17668
 H416 H 0.50665 0.39104 0.28913
 H417 H 0.59472 0.41377 0.09648
 H418 H 0.59029 0.36159 0.19904
 N419 N 0.65223 0.09830 0.14617
 N420 N 0.68000 0.12334 0.19972
 C421 C 0.66329 0.13023 0.27037
 C422 C 0.62309 0.10865 0.26160
 C423 C 0.61750 0.08901 0.18178
 H424 H 0.60120 0.10831 0.30532
 H425 H 0.65708 0.08808 0.08610
 H426 H 0.70984 0.13569 0.18754
 N427 N 0.53490 0.17329 -0.12935
 N428 N 0.53874 0.20288 -0.18623
 C429 C 0.51833 0.18604 -0.26133
 C430 C 0.50057 0.14555 -0.25314
 C431 C 0.51150 0.13898 -0.16969
 H432 H 0.48137 0.12363 -0.30041
 H433 H 0.54777 0.17764 -0.06647
 H434 H 0.55608 0.23274 -0.17305
 N435 N 0.70659 0.60139 -0.17012
 N436 N 0.73301 0.59937 -0.22811
 C437 C 0.71446 0.56409 -0.26810
 C438 C 0.67646 0.54278 -0.23600
 C439 C 0.67298 0.56700 -0.17461
 H440 H 0.65401 0.51381 -0.25623
 H441 H 0.71205 0.62582 -0.13257
 H442 H 0.76117 0.62238 -0.24146
 N443 N 0.85403 0.31491 -0.13089
 N444 N 0.82774 0.28941 -0.18630
 C445 C 0.83289 0.30614 -0.26769
 C446 C 0.86442 0.34413 -0.26364
 C447 C 0.87680 0.34821 -0.17578
 H448 H 0.87616 0.36602 -0.31595
 H449 H 0.85661 0.30925 -0.06390
 H450 H 0.80688 0.26084 -0.16837
 N451 N 0.47163 -0.15640 -0.13521
 N452 N 0.47035 -0.18334 -0.18875
 C453 C 0.44960 -0.18564 -0.26211
 C454 C 0.43662 -0.15905 -0.25390
 C455 C 0.45161 -0.14104 -0.17277
 H456 H 0.42049 -0.15217 -0.30162
 H457 H 0.48804 -0.14701 -0.07655
 H458 H 0.48546 -0.19819 -0.17718
 N459 N 0.35868 0.47744 -0.13459
 N460 N 0.32905 0.47518 -0.18815
 C461 C 0.34395 0.48800 -0.27055
 C462 C 0.38312 0.49793 -0.27111
 C463 C 0.39086 0.49087 -0.18510
 H464 H 0.40412 0.51132 -0.32469
 H465 H 0.35612 0.47082 -0.06672
 H466 H 0.30022 0.46373 -0.16710
 N467 N 1.16412 0.61252 -0.16859
 N468 N 1.18875 0.64398 -0.22300
 C469 C 1.16646 0.65443 -0.26995
 C470 C 1.12747 0.63011 -0.24666
 C471 C 1.12734 0.60436 -0.18366
 H472 H 1.10242 0.63097 -0.27236
 H473 H 1.17316 0.59771 -0.12597
 H474 H 1.21866 0.65487 -0.23028
 N475 N 0.84622 0.47655 -0.13015
 N476 N 0.82307 0.48426 -0.18669
 C477 C 0.84328 0.50001 -0.26284
 C478 C 0.87983 0.50336 -0.25576
 C479 C 0.88047 0.48870 -0.17174
 H480 H 0.90345 0.51616 -0.30382
 H481 H 0.83835 0.46472 -0.06599
 H482 H 0.79463 0.47763 -0.17212
 N483 N 0.56916 0.39574 -0.13370
 N484 N 0.56644 0.36632 -0.18936
 C485 C 0.54946 0.36771 -0.26635
 C486 C 0.54052 0.39738 -0.26090
 C487 C 0.55285 0.41371 -0.17681
 H488 H 0.52493 0.40462 -0.30946
 H489 H 0.57980 0.40077 -0.06842
 H490 H 0.57643 0.34721 -0.17314
 N491 N 0.65231 0.12134 -0.11846
 N492 N 0.68051 0.14807 -0.17681
 C493 C 0.66555 0.14026 -0.26034
 C494 C 0.62795 0.10771 -0.25664
 C495 C 0.62102 0.09709 -0.16722
 H496 H 0.60670 0.09568 -0.30986
 H497 H 0.65486 0.12184 -0.04903
 H498 H 0.70847 0.16952 -0.15722
 N499 N 1.13734 0.44745 -0.14792
 N500 N 1.16558 0.45078 -0.20033
 C501 C 1.16767 0.47202 -0.27273
 C502 C 1.13950 0.48286 -0.26606
 C503 C 1.12122 0.46681 -0.18546
 H504 H 1.13339 0.50002 -0.31265
 H505 H 1.12873 0.43141 -0.08856
 H506 H 1.18259 0.43805 -0.18735
 N507 N 0.51803 0.67532 -0.14272
 N508 N 0.50565 0.69542 -0.19722
 C509 C 0.49231 0.67520 -0.27405
 C510 C 0.49572 0.64183 -0.26982
 C511 C 0.51130 0.64293 -0.18619
 H512 H 0.48632 0.61883 -0.31900
 H513 H 0.53163 0.68502 -0.08106
 H514 H 0.50865 0.72250 -0.18165
 N515 N 0.30204 -0.11685 -0.14911
 N516 N 0.27485 -0.14738 -0.20174
 C517 C 0.29263 -0.14681 -0.27889
 C518 C 0.33114 -0.11599 -0.27737
 C519 C 0.33588 -0.09863 -0.19441
 H520 H 0.35376 -0.10984 -0.32590
 H521 H 0.29702 -0.11072 -0.08446
 H522 H 0.24614 -0.16714 -0.18273
 N523 N 0.39839 -0.17679 0.17415
 N524 N 0.39576 -0.20421 0.22910
 C525 C 0.43052 -0.19116 0.26920
 C526 C 0.45639 -0.15373 0.23866
 C527 C 0.43479 -0.14565 0.17883
 H528 H 0.48635 -0.13471 0.25896
 H529 H 0.37521 -0.17902 0.13650
 H530 H 0.37021 -0.23082 0.24085
 N531 N 0.35476 0.46953 0.13610
 N532 N 0.32796 0.46855 0.18987
 C533 C 0.34581 0.49120 0.26127
 C534 C 0.38585 0.50756 0.25255
 C535 C 0.39007 0.49313 0.17185
 H536 H 0.40849 0.52713 0.29798
 H537 H 0.34877 0.45342 0.07739
 H538 H 0.29794 0.45192 0.17865
 N539 N 1.16358 0.60308 0.18585
 N540 N 1.18697 0.63178 0.23968
 C541 C 1.16706 0.64783 0.27487
 C542 C 1.12912 0.62815 0.24290
 C543 C 1.12818 0.59996 0.18675
 H544 H 1.10545 0.63313 0.25965
 H545 H 1.17154 0.58528 0.15127
 H546 H 1.21576 0.63952 0.25357
 N547 N 0.53672 0.16912 0.15122
 N548 N 0.54034 0.19708 0.20492
 C549 C 0.51285 0.18118 0.26901
 C550 C 0.49033 0.14104 0.25509
 C551 C 0.50661 0.13471 0.17931
 H552 H 0.46633 0.11962 0.29527
 H553 H 0.55506 0.17365 0.09692
 H554 H 0.56188 0.22650 0.19869
 N555 N 0.69282 0.60199 0.22341
 N556 N 0.71759 0.59918 0.27729
 C557 C 0.70998 0.56201 0.27699
 C558 C 0.67905 0.54003 0.21954
 C559 C 0.66892 0.56666 0.18732
 H560 H 0.66371 0.50868 0.20992
 H561 H 0.69117 0.62732 0.21506
 H562 H 0.73792 0.62189 0.31737
 N563 N 0.86751 0.30750 0.13587
 N564 N 0.84076 0.28170 0.19050
 C565 C 0.83538 0.30093 0.25803
 C566 C 0.85955 0.34088 0.24544
 C567 C 0.87909 0.34359 0.16669
 H568 H 0.86313 0.36440 0.28842
 H569 H 0.87842 0.30038 0.08004
 H570 H 0.82724 0.25141 0.18280
   
