data_POSCAR
  _audit_creation_date              2014-09-24
  _audit_creation_method            'ToBaCCo'
  _symmetry_space_group_name_H-M    'P1'
  _symmetry_Int_Tables_number       1
  _symmetry_cell_setting            triclinic
  loop_
  _symmetry_equiv_pos_as_xyz
 x,y,z
_cell_length_a 20.6717
_cell_length_b 20.6707
_cell_length_c 54.1344
_cell_angle_alpha 89.831100
_cell_angle_beta 90.206000
_cell_angle_gamma 119.842400
loop_
  _atom_site_label
  _atom_site_type_symbol
  _atom_site_fract_x
  _atom_site_fract_y
  _atom_site_fract_z
Si1 Si 0.00252 0.00007 0.50012
 Si2 Si 0.99964 0.00175 0.16655
 Si3 Si -0.00195 0.99845 0.83334
 O4 O 0.46399 0.06016 0.02323
 O5 O 0.59031 0.05953 -0.02488
 O6 O 0.46720 0.06564 -0.02482
 O7 O 0.59300 0.06601 0.02315
 O8 O 0.53227 -0.05732 0.02349
 O9 O 0.40497 -0.05769 -0.02477
 O10 O 0.52808 -0.06381 -0.02454
 O11 O 0.40327 -0.06318 0.02327
 Cu12 Cu 0.53478 0.07519 -0.00086
 Cu13 Cu 0.46099 -0.07286 -0.00062
 C14 C 0.41208 -0.00183 0.03129
 C15 C 0.58038 -0.00268 -0.03273
 C16 C 0.41475 0.00434 -0.03285
 C17 C 0.58436 0.00483 0.03139
 O18 O 0.06043 0.46442 0.64350
 O19 O 0.05957 0.59073 0.69160
 O20 O 0.06568 0.46760 0.69156
 O21 O 0.06631 0.59344 0.64358
 O22 O -0.05702 0.53273 0.64312
 O23 O -0.05765 0.40539 0.69139
 O24 O -0.06375 0.52850 0.69115
 O25 O -0.06291 0.40371 0.64334
 Cu26 Cu 0.07535 0.53520 0.66760
 Cu27 Cu -0.07269 0.46143 0.66723
 C28 C -0.00153 0.41251 0.63538
 C29 C -0.00266 0.58079 0.69940
 C30 C 0.00434 0.41515 0.69953
 C31 C 0.00517 0.58482 0.63529
 O32 O 0.59408 0.53462 0.35740
 O33 O 0.46705 0.40823 0.30924
 O34 O 0.59587 0.53108 0.30937
 O35 O 0.47121 0.40582 0.35727
 O36 O 0.40866 0.46689 0.35744
 O37 O 0.53481 0.59366 0.30924
 O38 O 0.40600 0.47081 0.30941
 O39 O 0.53152 0.59570 0.35728
 Cu40 Cu 0.53824 0.46374 0.33332
 Cu41 Cu 0.46406 0.53796 0.33334
 C42 C 0.58407 0.58676 0.36538
 C43 C 0.41482 0.41835 0.30128
 C44 C 0.58690 0.58360 0.30126
 C45 C 0.41881 0.41470 0.36541
 C46 C -0.01506 0.06037 0.51982
 C47 C -0.02026 0.10347 0.53348
 C48 C -0.02159 0.15678 0.55019
 C49 C 0.01225 0.23217 0.54344
 C50 C 0.01671 0.28516 0.56041
 C51 C -0.01245 0.26298 0.58422
 C52 C -0.04712 0.18747 0.59086
 C53 C -0.05158 0.13450 0.57390
 C54 C -0.00656 0.31744 0.60194
 C55 C -0.00294 0.36182 0.61707
 H56 H 0.03628 0.25010 0.52523
 H57 H 0.04357 0.34337 0.55507
 H58 H -0.06992 0.16971 0.60922
 H59 H -0.07719 0.07649 0.57939
 C60 C 0.93952 0.92362 0.18619
 C61 C 0.89644 0.87509 0.19977
 C62 C 0.84307 0.82013 0.21638
 C63 C 0.86520 0.81163 0.24009
 C64 C 0.81214 0.76281 0.25696
 C65 C 0.73668 0.72247 0.25023
 C66 C 0.71465 0.73024 0.22642
 C67 C 0.76774 0.77906 0.20954
 C68 C 0.68211 0.67373 0.26788
 C69 C 0.63764 0.63287 0.28296
 H70 H 0.92317 0.84364 0.24566
 H71 H 0.82979 0.75719 0.27533
 H72 H 0.65648 0.69930 0.22101
 H73 H 0.74991 0.78577 0.19133
 C74 C 0.07210 0.01558 -0.14800
 C75 C 0.12106 0.02157 -0.13441
 C76 C 0.17652 0.02363 -0.11779
 C77 C 0.21916 -0.00891 -0.12474
 C78 C 0.26839 -0.01298 -0.10785
 C79 C 0.27500 0.01527 -0.08392
 C80 C 0.23310 0.04871 -0.07708
 C81 C 0.18387 0.05277 -0.09397
 C82 C 0.32410 0.00952 -0.06625
 C83 C 0.36522 0.00589 -0.05116
 H84 H 0.21333 -0.03231 -0.14305
 H85 H 0.30054 -0.03890 -0.11334
 H86 H 0.23781 0.07077 -0.05862
 H87 H 0.15063 0.07735 -0.08832
 C88 C 0.02029 0.93944 0.51978
 C89 C 0.02554 0.89608 0.53339
 C90 C 0.02684 0.84241 0.55007
 C91 C 0.05723 0.86428 0.57378
 C92 C 0.05261 0.81095 0.59072
 C93 C 0.01737 0.73548 0.58406
 C94 C -0.01216 0.71372 0.56024
 C95 C -0.00752 0.76707 0.54329
 C96 C 0.01111 0.68064 0.60179
 C97 C 0.00712 0.63592 0.61693
 H98 H 0.08325 0.92225 0.57930
 H99 H 0.07567 0.82839 0.60910
 H100 H -0.03948 0.65555 0.55489
 H101 H -0.03188 0.74945 0.52508
 C102 C 0.06013 0.07962 0.18622
 C103 C 0.10344 0.12797 0.19982
 C104 C 0.15707 0.18269 0.21645
 C105 C 0.13550 0.19028 0.24027
 C106 C 0.18888 0.23888 0.25714
 C107 C 0.26409 0.27992 0.25029
 C108 C 0.28556 0.27307 0.22637
 C109 C 0.23216 0.22445 0.20949
 C110 C 0.31900 0.32850 0.26793
 C111 C 0.36374 0.36923 0.28300
 H112 H 0.07774 0.15772 0.24593
 H113 H 0.17167 0.24380 0.27559
 H114 H 0.34354 0.30456 0.22087
 H115 H 0.24956 0.21845 0.19119
 C116 C 0.91995 -0.01897 -0.14712
 C117 C 0.87145 -0.02398 -0.13362
 C118 C 0.81655 -0.02499 -0.11712
 C119 C 0.77542 0.00930 -0.12413
 C120 C 0.72666 0.01413 -0.10737
 C121 C 0.71902 -0.01512 -0.08349
 C122 C 0.75942 -0.05026 -0.07660
 C123 C 0.80817 -0.05508 -0.09336
 C124 C 0.67034 -0.00872 -0.06595
 C125 C 0.62955 -0.00465 -0.05095
 H126 H 0.78205 0.03342 -0.14239
 H127 H 0.69567 0.04137 -0.11290
 H128 H 0.75389 -0.07312 -0.05818
 H129 H 0.84023 -0.08104 -0.08766
 C130 C 0.05991 -0.01580 0.14683
 C131 C 0.10299 -0.02098 0.13317
 C132 C 0.15629 -0.02226 0.11646
 C133 C 0.13408 -0.05184 0.09268
 C134 C 0.18706 -0.04731 0.07572
 C135 C 0.26252 -0.01298 0.08243
 C136 C 0.28462 0.01577 0.10631
 C137 C 0.23162 0.01124 0.12327
 C138 C 0.31698 -0.00701 0.06472
 C139 C 0.36138 -0.00333 0.04960
 H140 H 0.07612 -0.07718 0.08713
 H141 H 0.16935 -0.06979 0.05731
 H142 H 0.34279 0.04237 0.11170
 H143 H 0.24950 0.03496 0.14153
 C144 C 0.92440 0.93989 0.48044
 C145 C 0.87587 0.89677 0.46685
 C146 C 0.82091 0.84335 0.45022
 C147 C 0.77942 0.76813 0.45714
 C148 C 0.73056 0.71497 0.44026
 C149 C 0.72318 0.73680 0.41638
 C150 C 0.76394 0.81215 0.40957
 C151 C 0.81279 0.86530 0.42644
 C152 C 0.67436 0.68214 0.39874
 C153 C 0.63344 0.63760 0.38367
 H154 H 0.78583 0.75045 0.47541
 H155 H 0.69928 0.65688 0.44572
 H156 H 0.75862 0.82965 0.39115
 H157 H 0.84513 0.92317 0.42082
 C158 C 0.01517 0.07250 0.81470
 C159 C 0.02118 0.12145 0.80111
 C160 C 0.02327 0.17690 0.78450
 C161 C 0.05264 0.18437 0.76071
 C162 C 0.04864 0.23360 0.74382
 C163 C 0.01504 0.27537 0.75061
 C164 C -0.01345 0.26865 0.77451
 C165 C -0.00944 0.21942 0.79140
 C166 C 0.00935 0.32448 0.73294
 C167 C 0.00580 0.36560 0.71784
 H168 H 0.07736 0.15122 0.75509
 H169 H 0.07089 0.23840 0.72539
 H170 H -0.03951 0.30071 0.77996
 H171 H -0.03302 0.21350 0.80967
 C172 C 0.93898 0.01952 0.14690
 C173 C 0.89559 0.02479 0.13329
 C174 C 0.84190 0.02612 0.11662
 C175 C 0.76654 -0.00845 0.12335
 C176 C 0.71319 -0.01302 0.10640
 C177 C 0.73499 0.01677 0.08262
 C178 C 0.81047 0.05221 0.07600
 C179 C 0.86380 0.05676 0.09295
 C180 C 0.68016 0.01060 0.06489
 C181 C 0.63545 0.00669 0.04974
 H182 H 0.74891 -0.03300 0.14152
 H183 H 0.65501 -0.04049 0.11171
 H184 H 0.82794 0.07548 0.05767
 H185 H 0.92179 0.08294 0.08747
 C186 C 0.08039 0.06052 0.48048
 C187 C 0.12873 0.10381 0.46689
 C188 C 0.18344 0.15741 0.45028
 C189 C 0.19165 0.13558 0.42657
 C190 C 0.24022 0.18888 0.40969
 C191 C 0.28061 0.26426 0.41643
 C192 C 0.27314 0.28597 0.44025
 C193 C 0.22456 0.23266 0.45713
 C194 C 0.32912 0.31906 0.39878
 C195 C 0.36978 0.36372 0.38370
 H196 H 0.15959 0.07769 0.42099
 H197 H 0.24561 0.17147 0.39132
 H198 H 0.30413 0.34408 0.44566
 H199 H 0.21808 0.25025 0.47535
 C200 C -0.01937 0.92034 0.81378
 C201 C -0.02436 0.87183 0.80028
 C202 C -0.02533 0.81692 0.78378
 C203 C -0.05518 0.80868 0.75997
 C204 C -0.05029 0.75994 0.74321
 C205 C -0.01532 0.71942 0.75015
 C206 C 0.01368 0.72692 0.77406
 C207 C 0.00878 0.77567 0.79083
 C208 C -0.00885 0.67074 0.73262
 C209 C -0.00472 0.62996 0.71762
 H210 H -0.08100 0.84085 0.75424
 H211 H -0.07295 0.75452 0.72476
 H212 H 0.04078 0.69583 0.77963
 H213 H 0.03271 0.78218 0.80912
   
