data_POSCAR
  _audit_creation_date              2014-09-24
  _audit_creation_method            'ToBaCCo'
  _symmetry_space_group_name_H-M    'P1'
  _symmetry_Int_Tables_number       1
  _symmetry_cell_setting            triclinic
  loop_
  _symmetry_equiv_pos_as_xyz
 x,y,z
_cell_length_a 12.4706
_cell_length_b 12.4737
_cell_length_c 31.2379
_cell_angle_alpha 89.813200
_cell_angle_beta 90.200700
_cell_angle_gamma 119.899600
loop_
  _atom_site_label
  _atom_site_type_symbol
  _atom_site_fract_x
  _atom_site_fract_y
  _atom_site_fract_z
C1 C 0.00080 -0.00016 0.50040
 C2 C 0.99976 0.00066 0.16636
 C3 C 0.00130 1.00144 0.83331
 O4 O 0.34780 -0.08304 -0.04090
 O5 O 0.56544 -0.08239 0.03894
 O6 O 0.33675 -0.11994 0.04102
 O7 O 0.53737 -0.11871 -0.04431
 O8 O 0.64766 0.08506 -0.04118
 O9 O 0.43200 0.08405 0.03889
 O10 O 0.66102 0.12158 0.04079
 O11 O 0.45876 0.12075 -0.04437
 Cu12 Cu 0.43786 -0.12083 -0.00103
 Cu13 Cu 0.55892 0.12280 -0.00114
 C14 C 0.36667 0.02001 -0.05617
 C15 C 0.65097 0.02069 0.05342
 C16 C 0.34682 -0.01915 0.05352
 C17 C 0.62888 -0.01779 -0.05635
 O18 O 0.08407 0.43218 0.62779
 O19 O 0.08478 0.64762 0.70787
 O20 O 0.12113 0.45877 0.71099
 O21 O 0.12173 0.66097 0.62584
 O22 O -0.08225 0.56557 0.62776
 O23 O -0.08266 0.34817 0.70755
 O24 O -0.11904 0.53744 0.71090
 O25 O -0.12004 0.33707 0.62554
 Cu26 Cu 0.12282 0.55903 0.66786
 Cu27 Cu -0.12080 0.43796 0.66770
 C28 C -0.01915 0.34705 0.61312
 C29 C -0.01816 0.62893 0.72296
 C30 C 0.02036 0.36682 0.72279
 C31 C 0.02085 0.65102 0.61325
 O32 O 0.64973 0.56685 0.37336
 O33 O 0.43347 0.35114 0.29350
 O34 O 0.66144 0.53982 0.29078
 O35 O 0.46121 0.33905 0.37612
 O36 O 0.35116 0.43325 0.37323
 O37 O 0.56697 0.64964 0.29339
 O38 O 0.33963 0.46155 0.29040
 O39 O 0.54011 0.66158 0.37574
 Cu40 Cu 0.56128 0.43941 0.33347
 Cu41 Cu 0.43957 0.56072 0.33330
 C42 C 0.63155 0.65187 0.38809
 C43 C 0.34893 0.36986 0.27837
 C44 C 0.65172 0.63126 0.27850
 C45 C 0.36967 0.34850 0.38822
 N46 N 0.08615 0.16632 0.55339
 C47 C -0.01497 0.08681 0.53024
 N48 N -0.12011 0.09321 0.53426
 N49 N -0.12250 0.17644 0.56060
 C50 C -0.01970 0.25675 0.58311
 N51 N 0.08418 0.24952 0.57910
 N52 N 0.83424 0.91917 0.21969
 C53 C 0.91316 0.89755 0.19625
 N54 N 0.90578 0.78538 0.19969
 N55 N 0.82209 0.69911 0.22582
 C56 C 0.74234 0.72161 0.24863
 N57 N 0.75059 0.83332 0.24516
 N58 N 0.21370 0.11896 -0.13638
 C59 C 0.09844 0.01784 -0.13758
 N60 N 0.07482 -0.08014 -0.11202
 N61 N 0.16122 -0.07886 -0.08685
 C62 C 0.27569 0.02095 -0.08575
 N63 N 0.30053 0.12086 -0.11052
 N64 N 0.12171 0.90592 0.53442
 C65 C 0.01667 0.91261 0.53032
 N66 N -0.08437 0.83302 0.55339
 N67 N -0.08242 0.74935 0.57908
 C68 C 0.02136 0.74180 0.58320
 N69 N 0.12406 0.82219 0.56074
 N70 N 0.16622 0.08225 0.21961
 C71 C 0.08679 0.10373 0.19617
 N72 N 0.09402 0.21581 0.19954
 N73 N 0.17797 0.30206 0.22559
 C74 C 0.25816 0.27966 0.24845
 N75 N 0.25016 0.16810 0.24501
 N76 N 0.78481 -0.11877 -0.13401
 C77 C 0.89651 -0.01369 -0.13769
 N78 N 0.91666 0.08759 -0.11498
 N79 N 0.83019 0.08573 -0.08999
 C80 C 0.71914 -0.01809 -0.08623
 N81 N 0.69792 -0.12095 -0.10836
 N82 N 0.09301 -0.12027 0.13242
 C83 C 0.08670 -0.01510 0.13650
 N84 N 0.16617 0.08607 0.11340
 N85 N 0.24936 0.08406 0.08769
 C86 C 0.25657 -0.01979 0.08360
 N87 N 0.17617 -0.12269 0.10605
 N88 N 0.91942 0.83427 0.44708
 C89 C 0.89777 0.91321 0.47048
 N90 N 0.78563 0.90588 0.46694
 N91 N 0.69940 0.82227 0.44076
 C92 C 0.72196 0.74255 0.41797
 N93 N 0.83363 0.75072 0.42154
 N94 N 0.11903 0.21372 0.80300
 C95 C 0.01778 0.09857 0.80421
 N96 N -0.08023 0.07501 0.77864
 N97 N -0.07882 0.16139 0.75345
 C98 C 0.02113 0.27578 0.75236
 N99 N 0.12101 0.30053 0.77712
 N100 N 0.83258 -0.08470 0.11341
 C101 C 0.91229 0.01638 0.13648
 N102 N 0.90584 0.12152 0.13230
 N103 N 0.82224 0.12394 0.10591
 C104 C 0.74170 0.02119 0.08348
 N105 N 0.74898 -0.08267 0.08767
 N106 N 0.08222 0.16617 0.44717
 C107 C 0.10382 0.08685 0.47060
 N108 N 0.21587 0.09393 0.46713
 N109 N 0.30206 0.17772 0.44102
 C110 C 0.27956 0.25789 0.41820
 N111 N 0.16798 0.24992 0.42168
 N112 N -0.11913 0.78490 0.80061
 C113 C -0.01400 0.89657 0.80429
 N114 N 0.08726 0.91670 0.78156
 N115 N 0.08544 0.83029 0.75656
 C116 C -0.01842 0.71926 0.75282
 N117 N -0.12129 0.69807 0.77494
   
