data_POSCAR
  _audit_creation_date              2014-09-24
  _audit_creation_method            'ToBaCCo'
  _symmetry_space_group_name_H-M    'P1'
  _symmetry_Int_Tables_number       1
  _symmetry_cell_setting            triclinic
  loop_
  _symmetry_equiv_pos_as_xyz
 x,y,z
_cell_length_a 31.1857
_cell_length_b 31.1115
_cell_length_c 13.0779
_cell_angle_alpha 89.882000
_cell_angle_beta 90.117800
_cell_angle_gamma 119.999500
loop_
  _atom_site_label
  _atom_site_type_symbol
  _atom_site_fract_x
  _atom_site_fract_y
  _atom_site_fract_z
C1 C 0.47702 0.95548 0.55552
 C2 C 0.47898 0.95561 0.44789
 C3 C 0.50251 1.00088 0.39512
 C4 C 0.52419 1.04614 0.44793
 C5 C 0.52219 1.04605 0.55577
 C6 C 0.49864 1.00069 0.60851
 H7 H 0.49716 1.00057 0.69152
 H8 H 0.50388 1.00078 0.31215
 C9 C 0.04435 0.52142 0.55076
 C10 C 0.04425 0.52324 0.44325
 C11 C -0.00089 0.50153 0.39036
 C12 C -0.04601 0.47802 0.44331
 C13 C -0.04588 0.47624 0.55101
 C14 C -0.00069 0.49797 0.60376
 H15 H -0.00057 0.49665 0.68668
 H16 H -0.00080 0.50294 0.30738
 C17 C 0.47834 0.52351 0.55765
 C18 C 0.47647 0.52156 0.45000
 C19 C 0.49811 0.49800 0.39749
 C20 C 0.52156 0.47628 0.45058
 C21 C 0.52342 0.47815 0.55825
 C22 C 0.50179 0.50176 0.61088
 H23 H 0.50317 0.50317 0.69389
 H24 H 0.49673 0.49658 0.31456
 O25 O 0.40649 0.66917 -0.11896
 O26 O 0.40868 0.75326 -0.08749
 C27 C 0.37801 0.76090 -0.13685
 O28 O 0.33190 0.73783 -0.11986
 O29 O 0.24798 0.65591 -0.08849
 C30 C 0.24047 0.61755 -0.13748
 O31 O 0.26348 0.59440 -0.11992
 O32 O 0.34512 0.59216 -0.08712
 C33 C 0.38344 0.62295 -0.13610
 O34 O 0.40822 0.65539 0.08418
 O35 O 0.40642 0.73743 0.11557
 C36 C 0.38343 0.76059 0.13277
 O37 O 0.34531 0.75330 0.08325
 O38 O 0.26340 0.66942 0.11461
 C39 C 0.24018 0.62320 0.13185
 O40 O 0.24758 0.59232 0.08287
 O41 O 0.33123 0.59415 0.11571
 C42 C 0.37730 0.61716 0.13344
 Cr43 Cr 0.40465 0.70242 -0.00171
 Cr44 Cr 0.29854 0.70271 -0.00262
 Cr45 Cr 0.29826 0.59606 -0.00213
 O46 O 0.33382 0.66707 -0.00218
 O47 O 0.59145 0.34424 -0.08416
 O48 O 0.59346 0.26229 -0.11610
 C49 C 0.61647 0.23917 -0.13348
 O50 O 0.65471 0.24657 -0.08427
 O51 O 0.73643 0.33053 -0.11655
 C52 C 0.75943 0.37673 -0.13414
 O53 O 0.75208 0.40762 -0.08500
 O54 O 0.66827 0.40566 -0.11626
 C55 C 0.62215 0.38260 -0.13336
 O56 O 0.59378 0.33053 0.11881
 O57 O 0.59175 0.24658 0.08698
 C58 C 0.62262 0.23922 0.13627
 O59 O 0.66868 0.26232 0.11872
 O60 O 0.75243 0.34425 0.08635
 C61 C 0.75998 0.38260 0.13540
 O62 O 0.73687 0.40566 0.11816
 O63 O 0.65502 0.40761 0.08689
 C64 C 0.61688 0.37672 0.13622
 Cr65 Cr 0.59541 0.29731 0.00136
 Cr66 Cr 0.70166 0.29732 0.00107
 Cr67 Cr 0.70166 0.40383 0.00095
 O68 O 0.66625 0.33283 0.00112
 C69 C 0.45472 0.91236 -0.38943
 C70 C 0.43570 0.87542 -0.33735
 C71 C 0.41441 0.83373 -0.27193
 C72 C 0.39719 0.79959 -0.21229
 C73 C 0.08977 0.54329 -0.39100
 C74 C 0.12652 0.56106 -0.33864
 C75 C 0.16801 0.58130 -0.27298
 C76 C 0.20199 0.59811 -0.21315
 C77 C 0.45772 0.54593 -0.38753
 C78 C 0.43997 0.56507 -0.33570
 C79 C 0.41974 0.58650 -0.27060
 C80 C 0.40292 0.60378 -0.21123
 C81 C 0.54273 0.08895 -0.38849
 C82 C 0.56036 0.12562 -0.33577
 C83 C 0.58041 0.16695 -0.26958
 C84 C 0.59710 0.20079 -0.20938
 C85 C 0.90893 0.45277 -0.39002
 C86 C 0.87245 0.43391 -0.33702
 C87 C 0.83132 0.41280 -0.27059
 C88 C 0.79763 0.39574 -0.21023
 C89 C 0.54563 0.45736 -0.38638
 C90 C 0.56459 0.43945 -0.33409
 C91 C 0.58582 0.41907 -0.26851
 C92 C 0.60300 0.40214 -0.20880
 C93 C 0.91099 0.45723 0.38820
 C94 C 0.87416 0.43935 0.33604
 C95 C 0.83261 0.41900 0.27052
 C96 C 0.79858 0.40210 0.21083
 C97 C 0.54650 0.08911 0.39223
 C98 C 0.56548 0.12580 0.33938
 C99 C 0.58666 0.16710 0.27295
 C100 C 0.60372 0.20089 0.21248
 C101 C 0.54333 0.45275 0.39193
 C102 C 0.56098 0.43387 0.33905
 C103 C 0.58103 0.41277 0.27267
 C104 C 0.59767 0.39571 0.21231
 C105 C 0.08957 0.54679 0.38490
 C106 C 0.12625 0.56576 0.33251
 C107 C 0.16768 0.58700 0.26690
 C108 C 0.20165 0.60415 0.20721
 C109 C 0.45718 0.91032 0.38893
 C110 C 0.43951 0.87378 0.33585
 C111 C 0.41941 0.83260 0.26932
 C112 C 0.40272 0.79887 0.20887
 C113 C 0.45300 0.54334 0.39076
 C114 C 0.43416 0.56099 0.33744
 C115 C 0.41310 0.58107 0.27059
 C116 C 0.39613 0.59777 0.20988
   
