data_POSCAR
  _audit_creation_date              2014-09-24
  _audit_creation_method            'ToBaCCo'
  _symmetry_space_group_name_H-M    'P1'
  _symmetry_Int_Tables_number       1
  _symmetry_cell_setting            triclinic
  loop_
  _symmetry_equiv_pos_as_xyz
 x,y,z
_cell_length_a 20.3553
_cell_length_b 20.5155
_cell_length_c 20.4340
_cell_angle_alpha 91.541300
_cell_angle_beta 92.042200
_cell_angle_gamma 87.423200
loop_
  _atom_site_label
  _atom_site_type_symbol
  _atom_site_fract_x
  _atom_site_fract_y
  _atom_site_fract_z
C1 C 0.00151 0.43411 0.21003
 C2 C 0.06214 0.43852 0.25570
 C3 C 0.06444 0.49401 0.29325
 C4 C 0.00412 0.54150 0.28196
 C5 C -0.05696 0.44491 0.25425
 C6 C -0.05615 0.50006 0.29205
 C7 C 0.00097 0.49695 0.17000
 C8 C 0.00238 0.55346 0.20740
 H9 H 0.10236 0.40206 0.25504
 H10 H 0.00550 0.58625 0.31361
 H11 H -0.09743 0.41228 0.25393
 H12 H -0.00345 0.49754 0.11724
 C13 C 0.01848 0.42137 0.78665
 C14 C -0.02843 0.41906 0.73201
 C15 C -0.03072 0.47488 0.69195
 C16 C 0.01871 0.52188 0.71246
 C17 C 0.08129 0.43092 0.75882
 C18 C 0.08190 0.48406 0.71559
 C19 C 0.00365 0.48314 0.82186
 C20 C 0.00448 0.54011 0.78114
 H21 H -0.06720 0.38428 0.72980
 H22 H 0.01848 0.56158 0.67710
 H23 H 0.12641 0.40687 0.77753
 H24 H 0.00252 0.48602 0.87468
 C25 C 0.21666 0.01227 0.43075
 C26 C 0.25118 0.07643 0.44222
 C27 C 0.28518 0.08192 0.50026
 C28 C 0.28407 0.01986 0.54204
 C29 C 0.27277 -0.03958 0.43798
 C30 C 0.30687 -0.03762 0.49621
 C31 C 0.17537 0.00551 0.49161
 C32 C 0.20994 0.00968 0.55028
 H33 H 0.25069 0.11459 0.40665
 H34 H 0.31382 0.02378 0.58837
 H35 H 0.28137 -0.07885 0.40245
 H36 H 0.12340 -0.00352 0.48770
 C37 C 0.77267 0.00530 0.41724
 C38 C 0.73394 -0.05189 0.41515
 C39 C 0.69550 -0.05915 0.47119
 C40 C 0.70169 -0.00561 0.51910
 C41 C 0.72400 0.06273 0.42832
 C42 C 0.68674 0.05713 0.48118
 C43 C 0.81351 0.00168 0.48240
 C44 C 0.77586 -0.00408 0.53602
 H45 H 0.74274 -0.09105 0.37943
 H46 H 0.66937 -0.00863 0.56129
 H47 H 0.72492 0.10768 0.40167
 H48 H 0.86588 0.00802 0.48685
 C49 C 0.41586 0.21653 0.99585
 C50 C 0.42450 0.24661 1.06019
 C51 C 0.48051 0.28589 1.06899
 C52 C 0.51853 0.28780 1.00826
 C53 C 0.41516 0.26954 0.95048
 C54 C 0.47199 0.30824 0.95440
 C55 C 0.47842 0.17967 0.98572
 C56 C 0.53623 0.21850 0.99279
 H57 H 0.38969 0.24082 1.09828
 H58 H 0.56030 0.32036 1.01343
 H59 H 0.38092 0.27060 0.90858
 H60 H 0.48269 0.12712 0.98608
 C61 C 0.43712 0.77689 1.00352
 C62 C 0.45249 0.72723 0.94854
 C63 C 0.50972 0.69200 0.95820
 C64 C 0.54745 0.71023 1.02173
 C65 C 0.44042 0.73787 1.06572
 C66 C 0.49773 0.70314 1.07548
 C67 C 0.49443 0.81725 1.00809
 C68 C 0.55609 0.78046 1.01725
 H69 H 0.42483 0.72592 0.90219
 H70 H 0.59224 0.67886 1.03121
 H71 H 0.40159 0.74007 1.10082
 H72 H 0.49210 0.86744 0.99314
 B73 B 0.98669 1.05752 0.02555
 B74 B 0.98327 1.05477 -0.05648
 B75 B 1.05244 1.02899 -0.01565
 B76 B 1.03007 0.99082 0.05140
 B77 B 0.94762 0.99323 0.05127
 B78 B 0.91818 1.03300 -0.01515
 B79 B 0.98585 0.92199 -0.05602
 B80 B 0.98895 0.92455 0.02663
 B81 B 0.92000 0.95075 -0.01464
 B82 B 0.94225 0.98891 -0.08168
 B83 B 1.02518 0.98675 -0.08224
 B84 B 1.05365 0.94714 -0.01511
 B85 B 0.57821 0.50370 0.47275
 B86 B 0.58182 0.50575 0.55506
 B87 B 0.55534 0.57211 0.51436
 B88 B 0.51084 0.54811 0.44823
 B89 B 0.50945 0.46595 0.44738
 B90 B 0.55315 0.44004 0.51454
 B91 B 0.44812 0.51463 0.55657
 B92 B 0.44391 0.51221 0.47384
 B93 B 0.47017 0.44489 0.51536
 B94 B 0.51536 0.46965 0.58202
 B95 B 0.51715 0.55144 0.58114
 B96 B 0.47290 0.57823 0.51521
 C97 C 0.99522 1.24148 0.11718
 C98 C 0.99345 1.24963 0.18505
 C99 C 0.99629 1.31190 0.21371
 C100 C 1.00014 1.36758 0.17507
 C101 C 1.00316 1.35860 0.10663
 C102 C 1.00086 1.29586 0.07808
 C103 C 0.99139 1.17728 0.08782
 C104 C 0.98854 1.12388 0.06230
 H105 H 0.98977 1.20786 0.21587
 H106 H 0.99494 1.31687 0.26657
 H107 H 1.00765 1.39910 0.07475
 H108 H 1.00361 1.28972 0.02549
 C109 C 0.99704 0.74485 0.12245
 C110 C 1.02783 0.69125 0.09031
 C111 C 1.02992 0.62938 0.11798
 C112 C 1.00108 0.61974 0.17848
 C113 C 0.97061 0.67402 0.21070
 C114 C 0.96855 0.73598 0.18285
 C115 C 0.99394 0.80826 0.09249
 C116 C 0.99164 0.86015 0.06535
 H117 H 1.05021 0.69722 0.04363
 H118 H 1.05476 0.58922 0.09214
 H119 H 0.94706 0.66850 0.25675
 H120 H 0.94425 0.77684 0.20822
 C121 C 0.99363 1.23628 -0.13434
 C122 C 0.95960 1.29080 -0.10759
 C123 C 0.97102 1.35306 -0.12960
 C124 C 1.01715 1.36124 -0.17844
 C125 C 1.05040 1.30456 -0.20459
 C126 C 1.03946 1.24326 -0.18196
 C127 C 0.98450 1.17264 -0.11179
 C128 C 0.98146 1.11913 -0.09102
 H129 H 0.92355 1.28507 -0.07065
 H130 H 0.94143 1.39400 -0.11070
 H131 H 1.08285 1.30675 -0.24524
 H132 H 1.06569 1.20095 -0.20291
 C133 C 0.98751 0.73558 -0.14327
 C134 C 0.97108 0.68373 -0.10495
 C135 C 0.97567 0.61959 -0.13002
 C136 C 0.99731 0.60565 -0.19420
 C137 C 1.01234 0.65942 -0.23233
 C138 C 1.00763 0.72329 -0.20702
 C139 C 0.98589 0.80113 -0.11643
 C140 C 0.98551 0.85528 -0.09216
 H141 H 0.95498 0.69283 -0.05542
 H142 H 0.96116 0.58167 -0.09861
 H143 H 1.02985 0.65393 -0.28127
 H144 H 1.02071 0.76315 -0.23707
 C145 C 1.11894 0.99850 0.23851
 C146 C 1.12305 1.05920 0.27072
 C147 C 1.15089 1.06356 0.33412
 C148 C 1.17692 1.00727 0.36582
 C149 C 1.16651 0.94598 0.33502
 C150 C 1.13870 0.94175 0.27153
 C151 C 1.09256 0.99462 0.17235
 C152 C 1.06819 0.99233 0.11780
 H153 H 1.10530 1.10331 0.24658
 H154 H 1.15253 1.11134 0.35758
 H155 H 1.18105 0.90112 0.35925
 H156 H 1.13329 0.89424 0.24798
 C157 C 1.11930 0.99322 -0.26224
 C158 C 1.18612 0.97594 -0.26903
 C159 C 1.21563 0.98152 -0.32959
 C160 C 1.17877 1.00433 -0.38476
 C161 C 1.11163 1.02201 -0.37708
 C162 C 1.08232 1.01646 -0.31653
 C163 C 1.08867 0.98848 -0.19962
 C164 C 1.06185 0.98611 -0.14779
 H165 H 1.21552 0.95808 -0.22748
 H166 H 1.26710 0.96695 -0.33304
 H167 H 1.08166 1.04117 -0.41754
 H168 H 1.03075 1.03072 -0.31201
 C169 C 0.86340 1.00712 0.23119
 C170 C 0.79632 1.02133 0.23586
 C171 C 0.76845 1.02287 0.29670
 C172 C 0.80750 1.01075 0.35388
 C173 C 0.87553 0.99738 0.34851
 C174 C 0.90337 0.99587 0.28713
 C175 C 0.89049 1.00182 0.16838
 C176 C 0.91377 0.99744 0.11575
 H177 H 0.76533 1.02968 0.19236
 H178 H 0.71569 1.03159 0.29908
 H179 H 0.90707 0.98573 0.39053
 H180 H 0.95560 0.98441 0.28308
 C181 C 0.85208 0.98823 -0.26639
 C182 C 0.78964 1.01656 -0.27963
 C183 C 0.76501 1.01923 -0.34402
 C184 C 0.80278 0.99375 -0.39594
 C185 C 0.86563 0.96524 -0.38197
 C186 C 0.89013 0.96255 -0.31742
 C187 C 0.87851 0.98780 -0.20077
 C188 C 0.90363 0.98807 -0.14688
 H189 H 0.76025 1.03709 -0.24030
 H190 H 0.71687 1.04237 -0.35277
 H191 H 0.89546 0.94427 -0.42068
 H192 H 0.93876 0.94067 -0.30730
 C193 C 1.23157 1.12183 -0.01783
 C194 C 1.23481 1.18682 0.00311
 C195 C 1.29495 1.21688 0.00603
 C196 C 1.35436 1.18233 -0.01036
 C197 C 1.34962 1.11718 -0.03418
 C198 C 1.28879 1.08743 -0.03762
 C199 C 1.16949 1.09070 -0.01785
 C200 C 1.11754 1.06472 -0.01684
 H201 H 1.19077 1.21436 0.01761
 H202 H 1.29531 1.26762 0.02218
 H203 H 1.39182 1.08868 -0.05106
 H204 H 1.28643 1.03749 -0.05578
 C205 C 0.73184 1.13241 -0.01412
 C206 C 0.72103 1.19495 0.01365
 C207 C 0.65714 1.22391 0.01542
 C208 C 0.60194 1.19076 -0.01032
 C209 C 0.61427 1.12789 -0.03890
 C210 C 0.67811 1.09934 -0.04065
 C211 C 0.79740 1.10119 -0.01445
 C212 C 0.85112 1.07299 -0.01482
 H213 H 0.76199 1.22118 0.03481
 H214 H 0.65189 1.27119 0.03956
 H215 H 0.57512 1.10050 -0.06170
 H216 H 0.68549 1.05112 -0.06285
 C217 C 1.24006 0.86083 -0.01102
 C218 C 1.29129 0.90092 0.00863
 C219 C 1.35595 0.87540 0.01149
 C220 C 1.36951 0.80939 -0.00557
 C221 C 1.31673 0.76961 -0.02381
 C222 C 1.25263 0.79538 -0.02732
 C223 C 1.17418 0.88653 -0.01305
 C224 C 1.11960 0.91024 -0.01441
 H225 H 1.28105 0.95146 0.02299
 H226 H 1.39435 0.90681 0.02909
 H227 H 1.32495 0.71789 -0.03414
 H228 H 1.21282 0.76402 -0.04155
 C229 C 0.74101 0.86355 -0.00099
 C230 C 0.68615 0.90327 0.01520
 C231 C 0.62518 0.87594 0.02173
 C232 C 0.61815 0.80810 0.01241
 C233 C 0.67469 0.76895 -0.00352
 C234 C 0.73529 0.79654 -0.01014
 C235 C 0.80347 0.89142 -0.00767
 C236 C 0.85550 0.91582 -0.01215
 H237 H 0.69054 0.95537 0.02306
 H238 H 0.58430 0.90820 0.03573
 H239 H 0.67287 0.71728 -0.01426
 H240 H 0.77763 0.76556 -0.02311
 C241 C 0.76241 0.51364 0.38845
 C242 C 0.77351 0.55689 0.33835
 C243 C 0.83587 0.55814 0.31124
 C244 C 0.88766 0.51629 0.33415
 C245 C 0.87708 0.47578 0.38680
 C246 C 0.81501 0.47473 0.41398
 C247 C 0.69720 0.50782 0.41303
 C248 C 0.64370 0.50359 0.43613
 H249 H 0.73338 0.58760 0.31841
 H250 H 0.84238 0.58818 0.26936
 H251 H 0.91582 0.44182 0.40394
 H252 H 0.80735 0.44145 0.45301
 C253 C 0.25237 0.51650 0.39023
 C254 C 0.22301 0.56836 0.35459
 C255 C 0.15903 0.56368 0.32697
 C256 C 0.12422 0.50686 0.33442
 C257 C 0.15288 0.45668 0.37305
 C258 C 0.21626 0.46154 0.40078
 C259 C 0.31978 0.51783 0.41511
 C260 C 0.37539 0.51616 0.43816
 H261 H 0.25023 0.61140 0.34641
 H262 H 0.13841 0.60255 0.29668
 H263 H 0.12710 0.41235 0.37946
 H264 H 0.23794 0.42138 0.42874
 C265 C 0.77796 0.50237 0.61599
 C266 C 0.81215 0.44289 0.60545
 C267 C 0.87835 0.43597 0.62394
 C268 C 0.91142 0.48837 0.65414
 C269 C 0.87878 0.55039 0.65692
 C270 C 0.81175 0.55704 0.63873
 C271 C 0.70831 0.50569 0.60290
 C272 C 0.65087 0.50554 0.58733
 H273 H 0.78695 0.40095 0.58552
 H274 H 0.90284 0.38826 0.61820
 H275 H 0.90247 0.59203 0.67930
 H276 H 0.78573 0.60388 0.64520
 C277 C 0.26492 0.51549 0.63606
 C278 C 0.24674 0.45271 0.64842
 C279 C 0.18493 0.44279 0.67108
 C280 C 0.13971 0.49575 0.68286
 C281 C 0.15655 0.55864 0.66531
 C282 C 0.21954 0.56854 0.64257
 C283 C 0.32980 0.52236 0.61390
 C284 C 0.38375 0.52126 0.59233
 H285 H 0.28073 0.41112 0.64103
 H286 H 0.17282 0.39288 0.67937
 H287 H 0.12339 0.60055 0.67283
 H288 H 0.23317 0.61732 0.63127
 C289 C 0.51541 0.62181 0.26289
 C290 C 0.56610 0.65912 0.24167
 C291 C 0.56359 0.68154 0.17764
 C292 C 0.51014 0.66685 0.13550
 C293 C 0.46183 0.62602 0.15605
 C294 C 0.46459 0.60345 0.21958
 C295 C 0.51419 0.60228 0.32909
 C296 C 0.51176 0.58218 0.38326
 H297 H 0.60602 0.67265 0.27508
 H298 H 0.60075 0.71360 0.16245
 H299 H 0.42033 0.61435 0.12385
 H300 H 0.42587 0.57364 0.23563
 C301 C 0.54154 0.61778 0.77134
 C302 C 0.50902 0.58016 0.81500
 C303 C 0.50692 0.59925 0.88072
 C304 C 0.53749 0.65594 0.90271
 C305 C 0.57567 0.68969 0.86010
 C306 C 0.57756 0.67063 0.79416
 C307 C 0.53336 0.60387 0.70300
 C308 C 0.52487 0.58657 0.64713
 H309 H 0.48136 0.53894 0.79740
 H310 H 0.47596 0.57388 0.91277
 H311 H 0.59773 0.73473 0.87605
 H312 H 0.60317 0.69956 0.76043
 C313 C 0.50992 0.37241 0.25994
 C314 C 0.48120 0.31232 0.25128
 C315 C 0.47489 0.28315 0.18904
 C316 C 0.49660 0.31322 0.13239
 C317 C 0.53001 0.37174 0.14203
 C318 C 0.53563 0.40158 0.20521
 C319 C 0.51045 0.40353 0.32496
 C320 C 0.50927 0.42886 0.37944
 H321 H 0.46250 0.28810 0.29283
 H322 H 0.45330 0.23591 0.18612
 H323 H 0.54793 0.39674 0.10071
 H324 H 0.55860 0.44809 0.21104
 C325 C 0.50725 0.39471 0.77240
 C326 C 0.44421 0.39650 0.79741
 C327 C 0.43387 0.37273 0.85952
 C328 C 0.48623 0.34540 0.89885
 C329 C 0.55057 0.34890 0.87571
 C330 C 0.56080 0.37269 0.81268
 C331 C 0.51499 0.41605 0.70563
 C332 C 0.51700 0.43632 0.65032
 H333 H 0.40239 0.41515 0.76815
 H334 H 0.38390 0.37465 0.87620
 H335 H 0.59253 0.32886 0.90367
 H336 H 0.61025 0.37209 0.79472
 C337 C 0.63053 0.75361 0.50240
 C338 C 0.64422 0.79456 0.55640
 C339 C 0.66212 0.85840 0.54674
 C340 C 0.66720 0.88124 0.48267
 C341 C 0.64905 0.84017 0.42919
 C342 C 0.63113 0.77688 0.43909
 C343 C 0.61190 0.68855 0.51076
 C344 C 0.59153 0.63512 0.51400
 H345 H 0.64228 0.77679 0.60573
 H346 H 0.67614 0.88753 0.58944
 H347 H 0.64867 0.85669 0.37930
 H348 H 0.61815 0.74587 0.39722
 C349 C 0.61627 0.24732 0.51957
 C350 C 0.57987 0.20711 0.47706
 C351 C 0.59780 0.14110 0.47069
 C352 C 0.65215 0.11536 0.50687
 C353 C 0.68534 0.15489 0.55310
 C354 C 0.66727 0.22100 0.55955
 C355 C 0.60262 0.31588 0.51895
 C356 C 0.58614 0.37242 0.51661
 H357 H 0.53997 0.22746 0.44635
 H358 H 0.57306 0.11142 0.43360
 H359 H 0.72911 0.13630 0.57925
 H360 H 0.69540 0.25213 0.59261
 C361 C 0.39679 0.77255 0.52211
 C362 C 0.42460 0.81634 0.48066
 C363 C 0.39951 0.88097 0.47715
 C364 C 0.34670 0.90319 0.51565
 C365 C 0.32156 0.86015 0.55996
 C366 C 0.34644 0.79526 0.56317
 C367 C 0.41848 0.70417 0.52019
 C368 C 0.43905 0.64780 0.51758
 H369 H 0.46380 0.79976 0.44888
 H370 H 0.41859 0.91262 0.44143
 H371 H 0.27929 0.87506 0.58824
 H372 H 0.32444 0.76212 0.59555
 C373 C 0.37443 0.26735 0.52653
 C374 C 0.30698 0.26408 0.51223
 C375 C 0.27751 0.20373 0.50877
 C376 C 0.31487 0.14513 0.51921
 C377 C 0.38185 0.14874 0.53737
 C378 C 0.41146 0.20959 0.54096
 C379 C 0.40556 0.32944 0.52275
 C380 C 0.43195 0.38097 0.51869
 H381 H 0.27746 0.30802 0.50148
 H382 H 0.22568 0.20251 0.49498
 H383 H 0.41187 0.10451 0.54510
 H384 H 0.46359 0.21135 0.55288
   
