data_POSCAR
  _audit_creation_date              2014-09-24
  _audit_creation_method            'ToBaCCo'
  _symmetry_space_group_name_H-M    'P1'
  _symmetry_Int_Tables_number       1
  _symmetry_cell_setting            triclinic
  loop_
  _symmetry_equiv_pos_as_xyz
 x,y,z
_cell_length_a 32.2469
_cell_length_b 31.7162
_cell_length_c 32.2466
_cell_angle_alpha 90.248000
_cell_angle_beta 89.197700
_cell_angle_gamma 89.645400
loop_
  _atom_site_label
  _atom_site_type_symbol
  _atom_site_fract_x
  _atom_site_fract_y
  _atom_site_fract_z
C1 C 0.70939 0.66435 0.94786
 H2 H 0.73856 0.67585 0.93560
 C3 C 0.67194 0.67796 0.93059
 H4 H 0.67256 0.70046 0.90547
 C5 C 0.67303 0.61901 0.99362
 H6 H 0.67322 0.59463 1.01681
 C7 C 0.63531 0.63141 0.97724
 H8 H 0.60714 0.61722 0.98919
 N9 N 0.70918 0.63569 0.97920
 C10 C 0.83162 0.63152 1.03539
 H11 H 0.83213 0.59765 1.03915
 C12 C 0.86417 0.65555 1.05021
 H13 H 0.88978 0.63968 1.06500
 C14 C 0.79727 0.69271 1.01104
 H15 H 0.77081 0.70698 0.99631
 C16 C 0.82971 0.71809 1.02502
 H17 H 0.82813 0.75189 1.02069
 Zn18 Zn 0.75845 0.61113 1.00009
 N19 N 0.79912 0.65018 1.01619
 C20 C 0.81704 0.58557 0.93902
 N21 N 0.78032 0.57578 0.95781
 C22 C 0.75660 0.54361 0.94373
 C23 C 0.76951 0.51992 0.90926
 C24 C 0.83095 0.56293 0.90426
 C25 C 0.72635 0.60509 1.07911
 C26 C 0.71033 0.58650 1.11485
 C27 C 0.73527 0.51900 1.08943
 C28 C 0.74988 0.53894 1.05350
 N29 N 0.74426 0.58112 1.04872
 H30 H 0.83496 0.61190 0.95004
 H31 H 0.72711 0.53710 0.95870
 H32 H 0.74991 0.49482 0.89812
 H33 H 0.85998 0.57164 0.88952
 H34 H 0.72298 0.63873 1.07464
 H35 H 0.69532 0.60677 1.13762
 H36 H 0.73946 0.48521 1.09215
 H37 H 0.76504 0.52065 1.02926
 C38 C 0.86354 0.69941 1.04512
 C39 C 0.63432 0.66104 0.94523
 C40 C 0.71387 0.54259 1.12031
 C41 C 0.80679 0.52996 0.88866
 C42 C 0.68311 0.34408 0.55557
 H43 H 0.69593 0.36866 0.57474
 C44 C 0.64917 0.32117 0.57019
 H45 H 0.63659 0.32808 0.60077
 C46 C 0.68350 0.30574 0.49232
 H47 H 0.69666 0.30041 0.46169
 C48 C 0.64992 0.28165 0.50597
 H49 H 0.63747 0.25768 0.48571
 N50 N 0.69935 0.33632 0.51711
 C51 C 0.82007 0.35840 0.45755
 H52 H 0.81977 0.39232 0.45579
 C53 C 0.85427 0.33607 0.44192
 H54 H 0.87955 0.35337 0.42786
 C55 C 0.78812 0.29508 0.47937
 H56 H 0.76295 0.27922 0.49508
 C57 C 0.82174 0.27146 0.46411
 H58 H 0.82161 0.23753 0.46767
 Zn59 Zn 0.74330 0.37086 0.49763
 N60 N 0.78766 0.33779 0.47551
 C61 C 0.79204 0.38191 0.56715
 N62 N 0.76410 0.40177 0.54270
 C63 C 0.75088 0.44170 0.55116
 C64 C 0.76633 0.46345 0.58532
 C65 C 0.80834 0.40248 0.60149
 C66 C 0.68684 0.40006 0.43742
 C67 C 0.67334 0.42533 0.40492
 C68 C 0.73452 0.46799 0.41265
 C69 C 0.74698 0.44172 0.44486
 N70 N 0.72354 0.40801 0.45614
 H71 H 0.80155 0.34991 0.55999
 H72 H 0.72805 0.45651 0.53166
 H73 H 0.75547 0.49523 0.59168
 H74 H 0.83048 0.38591 0.62043
 H75 H 0.66811 0.37375 0.44710
 H76 H 0.64430 0.41796 0.39024
 H77 H 0.75393 0.49427 0.40375
 H78 H 0.77541 0.44836 0.46089
 C79 C 0.85542 0.29198 0.44515
 C80 C 0.63204 0.28967 0.54514
 C81 C 0.69764 0.45943 0.39175
 C82 C 0.79550 0.44383 0.61094
 C83 C 0.18201 -0.15522 0.03912
 H84 H 0.18551 -0.12177 0.04444
 C85 C 0.14650 -0.17534 0.05365
 H86 H 0.12299 -0.15685 0.06978
 C87 C 0.20839 -0.21924 0.01095
 H88 H 0.23255 -0.23617 -0.00571
 C89 C 0.17290 -0.24066 0.02463
 H90 H 0.17012 -0.27410 0.01841
 N91 N 0.21204 -0.17711 0.01809
 C92 C 0.34139 -0.16039 0.00590
 H93 H 0.33955 -0.13571 0.02895
 C94 C 0.38035 -0.17485 -0.00684
 H95 H 0.40756 -0.16153 0.00739
 C96 C 0.30882 -0.20543 -0.04230
 H97 H 0.28093 -0.21585 -0.05738
 C98 C 0.34751 -0.22041 -0.05650
 H99 H 0.34880 -0.24321 -0.08155
 Zn100 Zn 0.25653 -0.14359 -0.00157
 N101 N 0.30651 -0.17475 -0.01260
 C102 C 0.27340 -0.11950 0.07928
 N103 N 0.26750 -0.10366 0.04066
 C104 C 0.27114 -0.06175 0.03293
 C105 C 0.28245 -0.03413 0.06472
 C106 C 0.28478 -0.09312 0.11184
 C107 C 0.26162 -0.12361 -0.08687
 C108 C 0.24598 -0.11146 -0.12508
 C109 C 0.18625 -0.08158 -0.08951
 C110 C 0.20263 -0.09548 -0.05196
 N111 N 0.23921 -0.11706 -0.05138
 H112 H 0.27025 -0.15301 0.08447
 H113 H 0.26634 -0.04994 0.00195
 H114 H 0.28611 -0.00096 0.05789
 H115 H 0.28995 -0.10671 0.14204
 H116 H 0.29134 -0.13925 -0.08602
 H117 H 0.26424 -0.11848 -0.15275
 H118 H 0.15660 -0.06545 -0.08877
 H119 H 0.18544 -0.09012 -0.02342
 C120 C 0.38393 -0.20402 -0.03946
 C121 C 0.14140 -0.21855 0.04623
 C122 C 0.20732 -0.09078 -0.12715
 C123 C 0.29008 -0.04988 0.10464
 C124 C 0.19884 0.15576 0.45267
 H125 H 0.22443 0.15203 0.43087
 C126 C 0.16209 0.17549 0.44030
 H127 H 0.15980 0.18708 0.40891
 C128 C 0.17022 0.14356 0.51960
 H129 H 0.17316 0.13086 0.55042
 C130 C 0.13318 0.16293 0.50862
 H131 H 0.10815 0.16486 0.53130
 N132 N 0.20190 0.13964 0.49155
 C133 C 0.32773 0.12310 0.53572
 H134 H 0.32705 0.08969 0.54227
 C135 C 0.36135 0.14702 0.54834
 H136 H 0.38674 0.13143 0.56372
 C137 C 0.29445 0.18379 0.50890
 H138 H 0.26786 0.19799 0.49427
 C139 C 0.32778 0.20897 0.52073
 H140 H 0.32673 0.24255 0.51488
 Zn141 Zn 0.24851 0.10694 0.50678
 N142 N 0.29495 0.14170 0.51682
 C143 C 0.30135 0.06298 0.45059
 N144 N 0.26117 0.06835 0.46299
 C145 C 0.22968 0.05168 0.44066
 C146 C 0.23801 0.03081 0.40304
 C147 C 0.31105 0.04195 0.41368
 C148 C 0.24600 0.10007 0.59253
 C149 C 0.23219 0.08620 0.63108
 C150 C 0.19466 0.03058 0.59694
 C151 C 0.20969 0.04536 0.55871
 N152 N 0.23480 0.07966 0.55726
 H153 H 0.32610 0.07662 0.46814
 H154 H 0.19791 0.05678 0.45077
 H155 H 0.21245 0.01967 0.38464
 H156 H 0.34328 0.03940 0.40428
 H157 H 0.26409 0.12854 0.59085
 H158 H 0.24105 0.10355 0.65853
 H159 H 0.17420 0.00368 0.59757
 H160 H 0.20017 0.03043 0.53020
 C161 C 0.36140 0.19063 0.54141
 C162 C 0.12842 0.17850 0.46834
 C163 C 0.20564 0.05154 0.63368
 C164 C 0.27914 0.02699 0.38848
 C165 C 0.15520 0.44073 0.19441
 H166 H 0.13479 0.41906 0.21010
 C167 C 0.17602 0.42769 0.15829
 H168 H 0.17124 0.39603 0.14676
 C169 C 0.18665 0.50793 0.19038
 H170 H 0.19003 0.53945 0.20278
 C171 C 0.20838 0.49607 0.15444
 H172 H 0.22867 0.51860 0.13945
 N173 N 0.15975 0.48076 0.20890
 C174 C 0.15578 0.57023 0.30459
 H175 H 0.12919 0.58756 0.29376
 C176 C 0.18085 0.58817 0.33482
 H177 H 0.17318 0.61922 0.34680
 C178 C 0.19797 0.50878 0.30252
 H179 H 0.20392 0.47749 0.29025
 C180 C 0.22414 0.52575 0.33230
 H181 H 0.25032 0.50731 0.34278
 Zn182 Zn 0.12736 0.50265 0.25368
 N183 N 0.16401 0.53069 0.29000
 C184 C 0.10719 0.45658 0.32495
 N185 N 0.09969 0.45923 0.28364
 C186 C 0.07321 0.43201 0.26495
 C187 C 0.05529 0.39895 0.28753
 C188 C 0.08926 0.42487 0.34873
 C189 C 0.05955 0.55975 0.25907
 C190 C 0.03419 0.59265 0.24528
 C191 C 0.06590 0.58560 0.17730
 C192 C 0.09025 0.55272 0.19220
 N193 N 0.08794 0.54157 0.23286
 H194 H 0.12708 0.47913 0.33980
 H195 H 0.06642 0.43558 0.23239
 H196 H 0.03487 0.37707 0.27219
 H197 H 0.09605 0.42327 0.38149
 H198 H 0.05788 0.54991 0.29113
 H199 H 0.01293 0.60801 0.26690
 H200 H 0.06922 0.59473 0.14513
 H201 H 0.11189 0.53713 0.17137
 C202 C 0.21505 0.56547 0.34959
 C203 C 0.20230 0.45588 0.13738
 C204 C 0.03832 0.60679 0.20426
 C205 C 0.06356 0.39513 0.32998
 C206 C -0.19052 0.02510 0.20859
 H207 H -0.20278 0.01144 0.23677
 C208 C -0.21772 0.03878 0.17792
 H209 H -0.25078 0.03512 0.18292
 C210 C -0.13275 0.04733 0.16830
 H211 H -0.09949 0.05049 0.16488
 C212 C -0.15864 0.06207 0.13734
 H213 H -0.14446 0.07619 0.11024
 N214 N -0.14888 0.02937 0.20304
 C215 C -0.11892 0.01638 0.32878
 H216 H -0.09607 0.04101 0.32665
 C217 C -0.13205 0.00290 0.36779
 H218 H -0.11965 0.01795 0.39512
 C219 C -0.16066 -0.03493 0.29621
 H220 H -0.17049 -0.05049 0.26813
 C221 C -0.17525 -0.04900 0.33485
 H222 H -0.19659 -0.07518 0.33629
 Zn223 Zn -0.10899 0.01358 0.24240
 N224 N -0.13316 -0.00258 0.29389
 C225 C -0.09709 0.09707 0.26234
 N226 N -0.07565 0.06173 0.25107
 C227 C -0.03351 0.06166 0.24809
 C228 C -0.01122 0.09756 0.25956
 C229 C -0.07618 0.13342 0.27401
 C230 C -0.08839 -0.05169 0.18585
 C231 C -0.06817 -0.08841 0.17246
 C232 C -0.02589 -0.08563 0.23367
 C233 C -0.04720 -0.04912 0.24609
 N234 N -0.07774 -0.03291 0.22215
 H235 H -0.13061 0.09638 0.26383
 H236 H -0.01708 0.03348 0.23826
 H237 H 0.02235 0.09650 0.25894
 H238 H -0.09403 0.16067 0.28413
 H239 H -0.11334 -0.03888 0.16768
 H240 H -0.07739 -0.10290 0.14362
 H241 H -0.00195 -0.09834 0.25332
 H242 H -0.03996 -0.03408 0.27526
 C243 C -0.16032 -0.03030 0.37120
 C244 C -0.20190 0.05802 0.14180
 C245 C -0.03671 -0.10604 0.19668
 C246 C -0.03267 0.13352 0.27404
 C247 C 0.33176 0.56405 0.68518
 H248 H 0.35015 0.58487 0.70380
 C249 C 0.31312 0.58011 0.64979
 H250 H 0.31802 0.61280 0.64167
 C251 C 0.30155 0.49729 0.67393
 H252 H 0.29653 0.46522 0.68357
 C253 C 0.28182 0.51226 0.63849
 H254 H 0.26235 0.49120 0.62094
 N255 N 0.32730 0.52275 0.69572
 C256 C 0.34630 0.45740 0.81291
 H257 H 0.37917 0.45109 0.80939
 C258 C 0.32481 0.44248 0.84757
 H259 H 0.34160 0.42472 0.87052
 C260 C 0.28522 0.48941 0.78728
 H261 H 0.27022 0.50809 0.76378
 C262 C 0.26250 0.47533 0.82177
 H263 H 0.22983 0.48309 0.82448
 Zn264 Zn 0.35993 0.50083 0.74008
 N265 N 0.32641 0.48049 0.78379
 C266 C 0.38661 0.56048 0.79977
 N267 N 0.39329 0.54510 0.76074
 C268 C 0.42082 0.56362 0.73430
 C269 C 0.44098 0.60049 0.74584
 C270 C 0.40687 0.59689 0.81292
 C271 C 0.37491 0.41987 0.70666
 C272 C 0.39823 0.38492 0.69364
 C273 C 0.46037 0.42171 0.71297
 C274 C 0.43588 0.45629 0.72501
 N275 N 0.39389 0.45504 0.72123
 H276 H 0.36435 0.54558 0.82022
 H277 H 0.42535 0.55096 0.70334
 H278 H 0.46167 0.61566 0.72385
 H279 H 0.40033 0.60947 0.84360
 H280 H 0.34156 0.41832 0.70613
 H281 H 0.38236 0.35728 0.68234
 H282 H 0.49371 0.42323 0.71626
 H283 H 0.45051 0.48368 0.73814
 C284 C 0.28240 0.45169 0.85254
 C285 C 0.28861 0.55381 0.62539
 C286 C 0.44154 0.38561 0.69673
 C287 C 0.43354 0.61786 0.78532
 C288 C 0.67087 0.94752 0.70124
 H289 H 0.65317 0.92342 0.71668
 C290 C 0.69393 0.93664 0.66578
 H291 H 0.69292 0.90455 0.65434
 C292 C 0.69518 1.01762 0.69806
 H293 H 0.69637 1.04894 0.71100
 C294 C 0.71902 1.00803 0.66273
 H295 H 0.73758 1.03251 0.64851
 N296 N 0.67019 0.98800 0.71560
 C297 C 0.64383 1.05727 0.82807
 H298 H 0.61350 1.06932 0.82025
 C299 C 0.66363 1.07233 0.86331
 H300 H 0.64810 1.09633 0.88181
 C301 C 0.69966 1.01035 0.81352
 H302 H 0.71310 0.98573 0.79419
 C303 C 0.72061 1.02443 0.84853
 H304 H 0.75046 1.01055 0.85554
 Zn305 Zn 0.63232 1.00457 0.75917
 N306 N 0.66201 1.02686 0.80408
 C307 C 0.60622 0.94398 0.81809
 N308 N 0.60246 0.95663 0.77799
 C309 C 0.58123 0.93312 0.75010
 C310 C 0.56694 0.89316 0.76090
 C311 C 0.59096 0.90483 0.83063
 C312 C 0.55401 1.04057 0.73692
 C313 C 0.52799 1.07212 0.72141
 C314 C 0.58789 1.11635 0.71131
 C315 C 0.61253 1.08444 0.72771
 N316 N 0.59564 1.04698 0.73919
 H317 H 0.62278 0.96326 0.83997
 H318 H 0.57827 0.94404 0.71853
 H319 H 0.55271 0.87342 0.73766
 H320 H 0.59586 0.89415 0.86205
 H321 H 0.54086 1.01108 0.74711
 H322 H 0.49498 1.06650 0.71950
 H323 H 0.60214 1.14579 0.70227
 H324 H 0.64514 1.09001 0.73186
 C325 C 0.70253 1.05570 0.87425
 C326 C 0.71745 0.96745 0.64537
 C327 C 0.54510 1.11027 0.70774
 C328 C 0.57273 0.87841 0.80129
 C329 C 0.04502 0.18204 -0.16842
 H330 H 0.05869 0.21071 -0.18025
 C331 C 0.05965 0.14276 -0.18260
 H332 H 0.08421 0.14166 -0.20577
 C333 C -0.00222 0.14866 -0.12248
 H334 H -0.02512 0.15069 -0.09785
 C335 C 0.01139 0.10903 -0.13564
 H336 H -0.00217 0.08129 -0.12161
 N337 N 0.01417 0.18427 -0.13924
 C338 C -0.03840 0.31149 -0.13850
 H339 H -0.04179 0.31331 -0.10512
 C340 C -0.05195 0.34482 -0.16275
 H341 H -0.06555 0.37211 -0.14749
 C342 C -0.01550 0.27358 -0.19813
 H343 H -0.00151 0.24561 -0.21167
 C344 C -0.02833 0.30670 -0.22376
 H345 H -0.02406 0.30400 -0.25703
 Zn346 Zn -0.00382 0.23677 -0.11647
 N347 N -0.02036 0.27691 -0.15625
 C348 C 0.05785 0.29602 -0.09811
 N349 N 0.04025 0.25929 -0.08556
 C350 C 0.05511 0.23763 -0.05257
 C351 C 0.08871 0.25322 -0.03039
 C352 C 0.09152 0.31256 -0.07706
 C353 C -0.08382 0.20977 -0.10213
 C354 C -0.11968 0.19961 -0.07994
 C355 C -0.08936 0.23035 -0.01875
 C356 C -0.05350 0.23882 -0.04204
 N357 N -0.05119 0.22765 -0.08274
 H358 H 0.04629 0.31231 -0.12495
 H359 H 0.04093 0.20814 -0.04364
 H360 H 0.10025 0.23558 -0.00425
 H361 H 0.10479 0.34187 -0.08772
 H362 H -0.08140 0.20226 -0.13484
 H363 H -0.14448 0.18455 -0.09653
 H364 H -0.09020 0.23914 0.01375
 H365 H -0.02761 0.25424 -0.02759
 C366 C -0.04688 0.34285 -0.20596
 C367 C 0.04271 0.10559 -0.16602
 C368 C -0.12284 0.20935 -0.03733
 C369 C 0.10749 0.29104 -0.04280
 C370 C 0.43337 0.23018 0.19206
 H371 H 0.42228 0.26236 0.19473
 C372 C 0.41393 0.19836 0.21474
 H373 H 0.38808 0.20636 0.23514
 C374 C 0.47924 0.18045 0.16068
 H375 H 0.50397 0.17339 0.13879
 C376 C 0.46019 0.14754 0.18222
 H377 H 0.47115 0.11556 0.17728
 N378 N 0.46573 0.22089 0.16606
 C379 C 0.52632 0.34200 0.14547
 H380 H 0.52972 0.33995 0.11209
 C381 C 0.54184 0.37681 0.16663
 H382 H 0.55695 0.40156 0.14919
 C383 C 0.50241 0.31190 0.20848
 H384 H 0.48784 0.28618 0.22480
 C385 C 0.51694 0.34653 0.23085
 H386 H 0.51308 0.34726 0.26426
 Zn387 Zn 0.48815 0.26507 0.13357
 N388 N 0.50688 0.31054 0.16646
 C389 C 0.42989 0.32327 0.10128
 N390 N 0.44563 0.28349 0.09821
 C391 C 0.43003 0.25501 0.07101
 C392 C 0.39776 0.26638 0.04485
 C393 C 0.39718 0.33578 0.07613
 C394 C 0.56659 0.22839 0.12258
 C395 C 0.60148 0.21361 0.10082
 C396 C 0.57007 0.23671 0.03714
 C397 C 0.53557 0.25056 0.06007
 N398 N 0.53420 0.24563 0.10195
 H399 H 0.44218 0.34515 0.12367
 H400 H 0.44274 0.22337 0.06973
 H401 H 0.38566 0.24329 0.02343
 H402 H 0.38500 0.36753 0.07910
 H403 H 0.56508 0.22584 0.15601
 H404 H 0.62678 0.19974 0.11784
 H405 H 0.57057 0.24066 0.00380
 H406 H 0.51017 0.26568 0.04438
 C407 C 0.53710 0.37941 0.20987
 C408 C 0.42703 0.15638 0.20957
 C409 C 0.60336 0.21755 0.05749
 C410 C 0.38072 0.30709 0.04754
 C411 C 0.98682 0.69193 0.68642
 H412 H 0.99960 0.71988 0.70048
 C413 C 0.97630 0.65738 0.71123
 H414 H 0.98114 0.65899 0.74436
 C415 C 0.96415 0.65590 0.62640
 H416 H 0.95941 0.65569 0.59325
 C417 C 0.95268 0.62106 0.65002
 H418 H 0.93952 0.59399 0.63462
 N419 N 0.98053 0.69056 0.64479
 C420 C 1.04546 0.78497 0.65997
 H421 H 1.06442 0.75671 0.65964
 C422 C 1.06010 0.82186 0.67857
 H423 H 1.09033 0.82163 0.69273
 C424 C 0.98383 0.82007 0.64001
 H425 H 0.95431 0.81949 0.62462
 C426 C 0.99740 0.85757 0.65779
 H427 H 0.97793 0.88543 0.65600
 Zn428 Zn 0.99207 0.73710 0.60966
 N429 N 1.00814 0.78491 0.64077
 C430 C 0.94335 0.77641 0.54666
 N431 N 0.94253 0.75091 0.58051
 C432 C 0.90580 0.73895 0.59805
 C433 C 0.86821 0.75338 0.58228
 C434 C 0.90640 0.79196 0.53013
 C435 C 1.05556 0.68454 0.57575
 C436 C 1.09258 0.67590 0.55432
 C437 C 1.09182 0.74699 0.52796
 C438 C 1.05497 0.75445 0.55028
 N439 N 1.03755 0.72339 0.57362
 H440 H 0.97260 0.78618 0.53336
 H441 H 0.90550 0.71983 0.62568
 H442 H 0.83953 0.74452 0.59768
 H443 H 0.90790 0.81311 0.50393
 H444 H 1.04220 0.66052 0.59529
 H445 H 1.10649 0.64492 0.55700
 H446 H 1.10564 0.77236 0.51027
 H447 H 1.04141 0.78569 0.55052
 C448 C 1.03622 0.85897 0.67682
 C449 C 0.95848 0.62162 0.69306
 C450 C 1.11149 0.70753 0.53049
 C451 C 0.86820 0.78120 0.54863
 C452 C 0.52684 0.73024 0.29816
 H453 H 0.51331 0.75673 0.28222
 C454 C 0.54042 0.69504 0.27540
 H455 H 0.53767 0.69506 0.24197
 C456 C 0.54536 0.69713 0.36101
 H457 H 0.54639 0.69792 0.39453
 C458 C 0.55976 0.66155 0.33947
 H459 H 0.57185 0.63516 0.35679
 N460 N 0.52988 0.73082 0.34020
 C461 C 0.44651 0.83241 0.34627
 H462 H 0.42817 0.81733 0.37016
 C463 C 0.42924 0.86572 0.32410
 H464 H 0.39758 0.87490 0.33120
 C465 C 0.51021 0.83927 0.30967
 H466 H 0.54205 0.82925 0.30483
 C467 C 0.49399 0.87245 0.28628
 H468 H 0.51372 0.88744 0.26330
 Zn469 Zn 0.50955 0.77683 0.37262
 N470 N 0.48630 0.81976 0.33878
 C471 C 0.54533 0.83905 0.42250
 N472 N 0.55346 0.80173 0.40304
 C473 C 0.59266 0.78540 0.40158
 C474 C 0.62550 0.80694 0.41989
 C475 C 0.57737 0.86200 0.44044
 C476 C 0.43832 0.73139 0.38727
 C477 C 0.40419 0.71499 0.40855
 C478 C 0.42908 0.74726 0.47136
 C479 C 0.46314 0.76290 0.44879
 N480 N 0.46679 0.75508 0.40737
 H481 H 0.51412 0.85178 0.42266
 H482 H 0.59900 0.75638 0.38506
 H483 H 0.65654 0.79390 0.41753
 H484 H 0.57042 0.89221 0.45480
 H485 H 0.44188 0.72581 0.35429
 H486 H 0.38186 0.69684 0.39141
 H487 H 0.42625 0.75414 0.50420
 H488 H 0.48615 0.78179 0.46417
 C489 C 0.45300 0.88649 0.29358
 C490 C 0.55733 0.66019 0.29607
 C491 C 0.39895 0.72307 0.45114
 C492 C 0.61814 0.84618 0.43889
 Si493 Si 0.35592 0.00977 0.24381
 Si494 Si 0.12055 0.97840 0.75630
 Si495 Si 0.62611 0.51264 0.25374
 Si496 Si 0.88025 0.48460 0.74585
 Si497 Si 0.24187 0.37835 -0.00444
 Si498 Si 0.74137 0.13625 1.01132
 Si499 Si 0.25884 0.64241 0.48868
 Si500 Si 0.76254 0.89844 0.50056
 Si501 Si 0.00421 0.24826 0.38478
 Si502 Si 0.99907 0.74686 0.12380
 Si503 Si 0.49324 0.24379 0.62339
 Si504 Si 0.51080 0.73875 0.86726
 N505 N 0.43220 -0.02814 0.22770
 N506 N 0.45692 -0.05894 0.24037
 C507 C 0.43669 -0.07919 0.27133
 C508 C 0.39856 -0.05948 0.27706
 N509 N 0.39713 -0.02798 0.24944
 H510 H 0.37432 -0.06657 0.29943
 N511 N 0.93392 0.42161 0.71715
 N512 N 0.95192 0.38588 0.72874
 C513 C 0.93938 0.37861 0.76817
 C514 C 0.91302 0.41099 0.78018
 N515 N 0.91044 0.43699 0.74769
 H516 H 0.89714 0.41541 0.80966
 N517 N 0.06220 0.99557 0.81736
 N518 N 0.04240 1.02684 0.83660
 C519 C 0.05739 1.06317 0.82088
 C520 C 0.08726 1.05298 0.79130
 N521 N 0.08930 1.01065 0.79022
 H522 H 0.10526 1.07402 0.77196
 N523 N 0.57814 0.57745 0.22269
 N524 N 0.56101 0.61426 0.23272
 C525 C 0.57123 0.62245 0.27239
 C526 C 0.59542 0.58938 0.28621
 N527 N 0.59899 0.56217 0.25434
 H528 H 0.60900 0.58526 0.31643
 N529 N 0.56312 0.46080 0.28196
 N530 N 0.54102 0.42733 0.27167
 C531 C 0.55339 0.41589 0.23306
 C532 C 0.58384 0.44344 0.22013
 N533 N 0.58910 0.47073 0.25149
 H534 H 0.60098 0.44328 0.19106
 N535 N 0.05689 0.96651 0.70208
 N536 N 0.03517 0.93737 0.68272
 C537 C 0.05177 0.89966 0.69270
 C538 C 0.08463 0.90678 0.71895
 N539 N 0.08664 0.94882 0.72390
 H540 H 0.10465 0.88387 0.73353
 N541 N 0.93920 0.54287 0.77017
 N542 N 0.95869 0.57730 0.75743
 C543 C 0.94523 0.58550 0.71882
 C544 C 0.91675 0.55507 0.70849
 N545 N 0.91380 0.52928 0.74123
 H546 H 0.89932 0.55223 0.68020
 N547 N 0.36241 0.09134 0.27298
 N548 N 0.37944 0.12825 0.26451
 C549 C 0.40492 0.12221 0.23145
 C550 C 0.40296 0.08023 0.22002
 N551 N 0.37610 0.06221 0.24662
 H552 H 0.41761 0.06477 0.19360
 N553 N 0.21137 0.43315 -0.06331
 N554 N 0.22095 0.45141 -0.09905
 C555 C 0.25930 0.43776 -0.11002
 C556 C 0.27280 0.41040 -0.07974
 N557 N 0.24209 0.40841 -0.05137
 H558 H 0.30204 0.39362 -0.07816
 N559 N 0.83297 0.94105 0.47787
 N560 N 0.85228 0.95933 0.44637
 C561 C 0.82846 0.95373 0.41277
 C562 C 0.79366 0.93130 0.42482
 N563 N 0.79779 0.92418 0.46564
 H564 H 0.76777 0.92164 0.40610
 N565 N 0.71545 0.08757 1.07821
 N566 N 0.72973 0.06808 1.11145
 C567 C 0.77129 0.07333 1.11128
 C568 C 0.78181 0.09676 1.07670
 N569 N 0.74630 0.10517 1.05726
 H570 H 0.81208 0.10748 1.06667
 N571 N 0.23254 0.57280 0.53238
 N572 N 0.23941 0.55035 0.56617
 C573 C 0.27058 0.56932 0.58637
 C574 C 0.28277 0.60406 0.56356
 N575 N 0.25828 0.60506 0.53028
 H576 H 0.30734 0.62608 0.57011
 N577 N 0.28750 0.58531 0.43008
 N578 N 0.27692 0.56563 0.39553
 C579 C 0.24001 0.58182 0.38416
 C580 C 0.22836 0.61215 0.41300
 N581 N 0.25874 0.61327 0.44099
 H582 H 0.19963 0.62992 0.41488
 N583 N 0.76939 0.07461 0.95708
 N584 N 0.76010 0.05440 0.92243
 C585 C 0.72297 0.06936 0.91008
 C586 C 0.70984 0.09948 0.93869
 N587 N 0.73964 0.10175 0.96724
 H588 H 0.68168 0.11813 0.93891
 N589 N 0.77689 0.96715 0.55100
 N590 N 0.76611 0.98465 0.58694
 C591 C 0.73928 0.95813 0.60570
 C592 C 0.73394 0.92372 0.57982
 N593 N 0.75786 0.93069 0.54618
 H594 H 0.71372 0.89695 0.58415
 N595 N 0.26312 0.44638 0.04423
 N596 N 0.25394 0.46580 0.07966
 C597 C 0.22259 0.44418 0.09758
 C598 C 0.21263 0.41106 0.07170
 N599 N 0.23856 0.41361 0.03894
 H600 H 0.18881 0.38757 0.07600
 N601 N -0.06805 0.21463 0.41688
 N602 N -0.10510 0.22500 0.43210
 C603 C -0.10831 0.26738 0.42993
 C604 C -0.07187 0.28258 0.41275
 N605 N -0.04777 0.24875 0.40510
 H606 H -0.06324 0.31493 0.40689
 N607 N 0.49201 0.78641 0.93612
 N608 N 0.46111 0.79994 0.96016
 C609 C 0.42568 0.78551 0.94360
 C610 C 0.43606 0.76274 0.90815
 N611 N 0.47763 0.76432 0.90467
 H612 H 0.41568 0.74678 0.88691
 N613 N 1.05482 0.71394 0.06586
 N614 N 1.09056 0.72190 0.04670
 C615 C 1.10319 0.75994 0.06035
 C616 C 1.07394 0.77492 0.08854
 N617 N 1.04449 0.74539 0.09110
 H618 H 1.07406 0.80421 0.10585
 N619 N 0.54860 0.21794 0.56242
 N620 N 0.58301 0.22894 0.54243
 C621 C 0.59541 0.26570 0.55927
 C622 C 0.56731 0.27692 0.59014
 N623 N 0.53875 0.24635 0.59109
 H624 H 0.56701 0.30502 0.60926
 N625 N 0.43631 0.26953 0.56519
 N626 N 0.40348 0.25673 0.54440
 C627 C 0.39570 0.21690 0.55667
 C628 C 0.42471 0.20590 0.58587
 N629 N 0.44923 0.23951 0.59036
 H630 H 0.42774 0.17645 0.60236
 N631 N 0.94195 0.77550 0.06663
 N632 N 0.90791 0.76410 0.04696
 C633 C 0.89821 0.72513 0.06049
 C634 C 0.92728 0.71323 0.08926
 N635 N 0.95384 0.74537 0.09219
 H636 H 0.92931 0.68395 0.10624
 N637 N 0.52826 0.67122 0.91660
 N638 N 0.55835 0.65190 0.93657
 C639 C 0.59384 0.67235 0.92728
 C640 C 0.58441 0.70494 0.90055
 N641 N 0.54324 0.70299 0.89482
 H642 H 0.60492 0.72856 0.88773
 N643 N 0.02282 0.21150 0.45929
 N644 N 0.05344 0.19460 0.48058
 C645 C 0.08774 0.19590 0.45614
 C646 C 0.07698 0.21429 0.41896
 N647 N 0.03633 0.22337 0.42231
 H648 H 0.09646 0.22042 0.39209
 N649 N 0.46539 0.18255 0.67798
 N650 N 0.47779 0.14892 0.69884
 C651 C 0.51858 0.14374 0.69026
 C652 C 0.53066 0.17517 0.66326
 N653 N 0.49667 0.19853 0.65634
 H654 H 0.56110 0.18049 0.64977
 N655 N 0.97237 0.69624 0.18848
 N656 N 0.98178 0.66139 0.20899
 C657 C 1.01571 0.64462 0.19014
 C658 C 1.02691 0.67054 0.15766
 N659 N 0.99919 0.70220 0.15766
 H660 H 1.05344 0.66749 0.13695
 N661 N 1.02730 0.80225 0.18318
 N662 N 1.01883 0.83875 0.20166
 C663 C 0.98410 0.85410 0.18420
 C664 C 0.97150 0.82557 0.15448
 N665 N 0.99924 0.79387 0.15483
 H666 H 0.94445 0.82717 0.13511
 N667 N 0.51804 0.30519 0.67882
 N668 N 0.50578 0.34083 0.69693
 C669 C 0.46690 0.34870 0.68395
 C670 C 0.45583 0.31672 0.65721
 N671 N 0.48854 0.29043 0.65476
 H672 H 0.42707 0.31313 0.64073
 N673 N 0.48388 0.71741 0.78967
 N674 N 0.46605 0.68681 0.76853
 C675 C 0.45257 0.65838 0.79652
 C676 C 0.46237 0.67281 0.83564
 N677 N 0.48200 0.70959 0.82989
 H678 H 0.45814 0.65691 0.86501
 N679 N 0.04001 0.20465 0.31860
 N680 N 0.03120 0.17482 0.29116
 C681 C -0.01024 0.16912 0.29307
 C682 C -0.02637 0.19669 0.32236
 N683 N 0.00577 0.21802 0.33767
 H684 H -0.05783 0.19808 0.33438
 N685 N 0.02685 0.32709 0.40996
 N686 N 0.04156 0.36367 0.39719
 C687 C 0.04559 0.36115 0.35557
 C688 C 0.03286 0.32145 0.34319
 N689 N 0.02156 0.30134 0.37817
 H690 H 0.03298 0.30810 0.31225
 N691 N 0.56285 0.76691 0.80548
 N692 N 0.57710 0.80146 0.78754
 C693 C 0.56394 0.83418 0.81114
 C694 C 0.54133 0.81867 0.84429
 N695 N 0.54130 0.77655 0.83944
 H696 H 0.52498 0.83630 0.86830
 N697 N 0.67880 0.47452 0.19634
 N698 N 0.70087 0.48187 0.16220
 C699 C 0.69666 0.52334 0.15363
 C700 C 0.67095 0.54102 0.18399
 N701 N 0.66039 0.50954 0.20957
 H702 H 0.65998 0.57319 0.18702
 N703 N 0.18040 1.03767 0.74093
 N704 N 0.20233 1.05550 0.71089
 C705 C 0.18906 1.03909 0.67477
 C706 C 0.15790 1.01069 0.68375
 N707 N 0.15346 1.01098 0.72523
 H708 H 0.14038 0.99149 0.66251
 N709 N 0.18541 0.92385 0.76930
 N710 N 0.20878 0.90779 0.79880
 C711 C 0.19136 0.91921 0.83557
 C712 C 0.15602 0.94269 0.82727
 N713 N 0.15363 0.94477 0.78576
 H714 H 0.13535 0.95874 0.84890
 N715 N 0.68619 0.53421 0.30996
 N716 N 0.70438 0.52135 0.34429
 C717 C 0.68534 0.48545 0.35598
 C718 C 0.65491 0.47674 0.32754
 N719 N 0.65646 0.50784 0.29953
 H720 H 0.63456 0.44980 0.32640
 N721 N 0.82022 0.51460 0.69347
 N722 N 0.79889 0.50500 0.65996
 C723 C 0.81187 0.46643 0.64737
 C724 C 0.84198 0.45276 0.67440
 N725 N 0.84623 0.48369 0.70247
 H726 H 0.85909 0.42334 0.67398
 N727 N 0.32636 0.03470 0.16794
 N728 N 0.31008 0.02044 0.13316
 C729 C 0.30490 -0.02147 0.13780
 C730 C 0.31858 -0.03233 0.17691
 N731 N 0.33169 0.00354 0.19449
 H732 H 0.32033 -0.06325 0.19084
 N733 N 0.27906 -0.00405 0.28153
 N734 N 0.25960 0.00041 0.31785
 C735 C 0.28842 0.01163 0.34579
 C736 C 0.32620 0.01351 0.32521
 N737 N 0.31903 0.00385 0.28548
 H738 H 0.35567 0.02400 0.33694
 N739 N 0.81954 0.46069 0.80161
 N740 N 0.80100 0.47131 0.83706
 C741 C 0.81938 0.50683 0.85054
 C742 C 0.84978 0.51770 0.82190
 N743 N 0.84882 0.48813 0.79203
 H744 H 0.87005 0.54472 0.82223
 N745 N 0.20528 0.70804 0.46948
 N746 N 0.16851 0.72442 0.47948
 C747 C 0.15217 0.70005 0.50973
 C748 C 0.18041 0.66842 0.51811
 N749 N 0.21293 0.67452 0.49246
 H750 H 0.17785 0.64357 0.54085
 N751 N 0.68273 0.19235 0.98286
 N752 N 0.64832 0.21280 0.99380
 C753 C 0.63964 0.20203 1.03340
 C754 C 0.66984 0.17419 1.04628
 N755 N 0.69588 0.16886 1.01386
 H756 H 0.67254 0.15916 1.07615
 N757 N 0.80198 0.19090 1.03770
 N758 N 0.83714 0.20882 1.02570
 C759 C 0.84347 0.19835 0.98541
 C760 C 0.81064 0.17337 0.97326
 N761 N 0.78587 0.16940 1.00670
 H762 H 0.80575 0.15793 0.94378
 N763 N 0.31556 0.69863 0.52184
 N764 N 0.35058 0.71863 0.51287
 C765 C 0.36198 0.70705 0.47398
 C766 C 0.33264 0.67915 0.45958
 N767 N 0.30442 0.67474 0.49021
 H768 H 0.33163 0.66357 0.42972
 N769 N 0.68690 0.92655 0.47362
 N770 N 0.65058 0.91423 0.45944
 C771 C 0.65266 0.87199 0.45479
 C772 C 0.69181 0.85882 0.46666
 N773 N 0.71206 0.89387 0.47814
 H774 H 0.70409 0.82701 0.46762
 N775 N 0.19116 0.31476 0.02512
 N776 N 0.15783 0.29256 0.01579
 C777 C 0.14384 0.30752 -0.02060
 C778 C 0.16985 0.33954 -0.03324
 N779 N 0.19870 0.34310 -0.00395
 H780 H 0.16861 0.35791 -0.06136
 N781 N 0.29889 0.31619 -0.02564
 N782 N 0.33335 0.29776 -0.01269
 C783 C 0.34518 0.31889 0.02156
 C784 C 0.31682 0.35079 0.02915
 N785 N 0.28860 0.34802 -0.00087
 H786 H 0.31569 0.37271 0.05496
 N787 N 0.76445 0.81968 0.53715
 N788 N 0.79087 0.79049 0.55001
 C789 C 0.82885 0.80132 0.53560
 C790 C 0.82458 0.83809 0.51325
 N791 N 0.78411 0.84839 0.51486
 H792 H 0.84893 0.85746 0.50021
   
