data_POSCAR
  _audit_creation_date              2014-09-24
  _audit_creation_method            'ToBaCCo'
  _symmetry_space_group_name_H-M    'P1'
  _symmetry_Int_Tables_number       1
  _symmetry_cell_setting            triclinic
  loop_
  _symmetry_equiv_pos_as_xyz
 x,y,z
_cell_length_a 46.1924
_cell_length_b 46.2811
_cell_length_c 20.6594
_cell_angle_alpha 89.986500
_cell_angle_beta 89.984100
_cell_angle_gamma 120.337500
loop_
  _atom_site_label
  _atom_site_type_symbol
  _atom_site_fract_x
  _atom_site_fract_y
  _atom_site_fract_z
C1 C 0.49235 0.96921 0.53576
 C2 C 0.48358 0.96911 0.46986
 C3 C 0.49405 0.99953 0.43784
 C4 C 0.51476 1.03075 0.46772
 C5 C 0.52280 1.03117 0.53462
 C6 C 0.51297 1.00041 0.56581
 H7 H 0.51898 1.00077 0.61658
 H8 H 0.48809 0.99855 0.38681
 C9 C 0.03000 0.51784 0.53380
 C10 C 0.03050 0.51945 0.46549
 C11 C 0.00005 0.50525 0.43150
 C12 C -0.03141 0.48911 0.46310
 C13 C -0.03149 0.48744 0.53200
 C14 C -0.00101 0.50180 0.56583
 H15 H -0.00151 0.50063 0.61830
 H16 H 0.00124 0.50679 0.37914
 C17 C 0.48262 0.51347 0.53703
 C18 C 0.48261 0.51319 0.46817
 C19 C 0.49725 0.49740 0.43499
 C20 C 0.51225 0.48178 0.46751
 C21 C 0.51292 0.48178 0.53635
 C22 C 0.49792 0.49768 0.56931
 H23 H 0.49815 0.49776 0.62167
 H24 H 0.49703 0.49734 0.38243
 O25 O 0.38468 0.65871 -0.05261
 O26 O 0.38464 0.71439 -0.07197
 C27 C 0.36939 0.73008 -0.08433
 O28 O 0.34337 0.72521 -0.05388
 O29 O 0.28769 0.66907 -0.07537
 C30 C 0.27165 0.63797 -0.08717
 O31 O 0.27600 0.61689 -0.05565
 O32 O 0.33251 0.61812 -0.07536
 C33 C 0.36383 0.63364 -0.08582
 O34 O 0.38226 0.66706 0.07621
 O35 O 0.38499 0.72421 0.05666
 C36 C 0.36416 0.72944 0.08710
 O37 O 0.33307 0.71420 0.07453
 O38 O 0.27623 0.65927 0.05321
 C39 C 0.27090 0.63341 0.08472
 O40 O 0.28594 0.61744 0.07298
 O41 O 0.34081 0.61546 0.05325
 C42 C 0.36628 0.63578 0.08622
 Cr43 Cr 0.38227 0.69017 0.00204
 Cr44 Cr 0.31100 0.69097 -0.00036
 Cr45 Cr 0.30978 0.61885 -0.00114
 O46 O 0.33435 0.66670 0.00021
 O47 O 0.61424 0.33879 -0.05583
 O48 O 0.61653 0.28409 -0.07308
 C49 C 0.63269 0.26913 -0.08353
 O50 O 0.65854 0.27484 -0.05143
 O51 O 0.71351 0.33175 -0.07226
 C52 C 0.72868 0.36275 -0.08504
 O53 O 0.72322 0.38348 -0.05496
 O54 O 0.66608 0.38042 -0.07726
 C55 C 0.63487 0.36415 -0.08868
 O56 O 0.61567 0.33101 0.07331
 O57 O 0.61503 0.27472 0.05582
 C58 C 0.63595 0.27031 0.08792
 O59 O 0.66722 0.28642 0.07701
 O60 O 0.72347 0.34222 0.05638
 C61 C 0.72798 0.36813 0.08650
 O62 O 0.71223 0.38323 0.07321
 O63 O 0.65648 0.38306 0.05093
 C64 C 0.63094 0.36230 0.08328
 Cr65 Cr 0.61725 0.30813 0.00009
 Cr66 Cr 0.68973 0.30973 0.00236
 Cr67 Cr 0.68858 0.38067 -0.00193
 O68 O 0.66520 0.33283 0.00022
 N69 N 0.43930 0.88316 -0.40853
 C70 C 0.45202 0.88449 -0.34885
 N71 N 0.47842 0.91367 -0.32805
 N72 N 0.49169 0.94069 -0.36580
 C73 C 0.47925 0.93971 -0.42603
 N74 N 0.45262 0.91025 -0.44622
 C75 C 0.43692 0.85588 -0.30690
 C76 C 0.42431 0.83241 -0.27025
 C77 C 0.40945 0.80517 -0.22505
 N78 N 0.42445 0.78713 -0.21162
 N79 N 0.41142 0.76285 -0.16739
 C80 C 0.38298 0.75584 -0.13505
 N81 N 0.36796 0.77388 -0.14885
 N82 N 0.38099 0.79814 -0.19307
 N83 N 0.08955 0.53155 -0.33442
 C84 C 0.11629 0.56168 -0.35016
 N85 N 0.11493 0.57754 -0.40428
 N86 N 0.08766 0.56357 -0.44163
 C87 C 0.06090 0.53319 -0.42633
 N88 N 0.06233 0.51760 -0.37173
 C89 C 0.14530 0.57666 -0.30907
 C90 C 0.16905 0.58844 -0.27294
 C91 C 0.19651 0.60150 -0.22807
 N92 N 0.21464 0.63478 -0.21540
 N93 N 0.23902 0.64655 -0.17124
 C94 C 0.24601 0.62540 -0.13823
 N95 N 0.22789 0.59212 -0.15131
 N96 N 0.20355 0.58038 -0.19544
 N97 N 0.44316 0.56179 -0.41564
 C98 C 0.44149 0.55791 -0.35050
 N99 N 0.45366 0.53970 -0.32298
 N100 N 0.46691 0.52562 -0.35946
 C101 C 0.46854 0.52900 -0.42505
 N102 N 0.45646 0.54764 -0.45205
 C103 C 0.42705 0.57273 -0.31055
 C104 C 0.41527 0.58462 -0.27464
 C105 C 0.40178 0.59826 -0.22939
 N106 N 0.36831 0.58255 -0.21789
 N107 N 0.35608 0.59408 -0.17277
 C108 C 0.37695 0.62163 -0.13750
 N109 N 0.41044 0.63737 -0.14940
 N110 N 0.42264 0.62585 -0.19449
 N111 N 0.56407 0.08820 -0.33100
 C112 C 0.56066 0.11464 -0.34744
 N113 N 0.54480 0.11352 -0.40333
 N114 N 0.53296 0.08683 -0.44183
 C115 C 0.53682 0.06037 -0.42643
 N116 N 0.55224 0.06156 -0.36951
 C117 C 0.57326 0.14312 -0.30539
 C118 C 0.58406 0.16654 -0.26871
 C119 C 0.59712 0.19376 -0.22349
 N120 N 0.58073 0.21066 -0.21202
 N121 N 0.59228 0.23503 -0.16798
 C122 C 0.62057 0.24324 -0.13391
 N123 N 0.63696 0.22633 -0.14575
 N124 N 0.62542 0.20200 -0.18976
 N125 N 0.90403 0.47512 -0.34876
 C126 C 0.88319 0.44148 -0.35044
 N127 N 0.89016 0.42283 -0.39122
 N128 N 0.91710 0.43744 -0.42943
 C129 C 0.93778 0.47119 -0.42833
 N130 N 0.93094 0.48972 -0.38690
 C131 C 0.85471 0.42594 -0.30802
 C132 C 0.83128 0.41375 -0.27110
 C133 C 0.80405 0.40028 -0.22564
 N134 N 0.79600 0.42095 -0.19415
 N135 N 0.77166 0.40887 -0.14997
 C136 C 0.75453 0.37568 -0.13573
 N137 N 0.76256 0.35498 -0.16757
 N138 N 0.78693 0.36709 -0.21178
 N139 N 0.54357 0.45641 -0.32500
 C140 C 0.55525 0.43789 -0.35301
 N141 N 0.55267 0.43350 -0.41803
 N142 N 0.53897 0.44746 -0.45384
 C143 C 0.52740 0.46643 -0.42636
 N144 N 0.52992 0.47031 -0.36089
 C145 C 0.57012 0.42328 -0.31368
 C146 C 0.58227 0.41160 -0.27814
 C147 C 0.59615 0.39825 -0.23314
 N148 N 0.62956 0.41476 -0.22081
 N149 N 0.64207 0.40359 -0.17555
 C150 C 0.62154 0.37561 -0.14096
 N151 N 0.58813 0.35906 -0.15372
 N152 N 0.57564 0.37022 -0.19896
 N153 N 0.88055 0.44993 0.41469
 C154 C 0.88313 0.45007 0.34937
 N155 N 0.91387 0.46343 0.32208
 N156 N 0.94120 0.47609 0.35897
 C157 C 0.93905 0.47584 0.42473
 N158 N 0.90799 0.46265 0.45150
 C159 C 0.85380 0.43546 0.30914
 C160 C 0.82995 0.42304 0.27331
 C161 C 0.80253 0.40812 0.22844
 N162 N 0.79531 0.37949 0.19721
 N163 N 0.77116 0.36649 0.15272
 C164 C 0.75344 0.38171 0.13783
 N165 N 0.76060 0.41032 0.16944
 N166 N 0.78479 0.42333 0.21395
 N167 N 0.57321 0.11384 0.40446
 C168 C 0.55810 0.11388 0.34832
 N169 N 0.52876 0.08634 0.33177
 N170 N 0.51475 0.05971 0.37056
 C171 C 0.52928 0.05964 0.42785
 N172 N 0.55916 0.08717 0.44320
 C173 C 0.57295 0.14259 0.30655
 C174 C 0.58486 0.16635 0.27054
 C175 C 0.59826 0.19406 0.22633
 N176 N 0.63173 0.21241 0.21499
 N177 N 0.64389 0.23719 0.17173
 C178 C 0.62297 0.24441 0.13840
 N179 N 0.58949 0.22607 0.15019
 N180 N 0.57735 0.20133 0.19342
 N181 N 0.52031 0.42669 0.34934
 C182 C 0.55396 0.43950 0.34756
 N183 N 0.57401 0.46620 0.38539
 N184 N 0.56078 0.47953 0.42418
 C185 C 0.52704 0.46644 0.42663
 N186 N 0.50707 0.44000 0.38808
 C187 C 0.56814 0.42555 0.30463
 C188 C 0.57980 0.41396 0.26763
 C189 C 0.59350 0.40051 0.22238
 N190 N 0.62147 0.42128 0.18818
 N191 N 0.63358 0.40900 0.14442
 C192 C 0.61813 0.37553 0.13330
 N193 N 0.59017 0.35476 0.16783
 N194 N 0.57805 0.36706 0.21162
 N195 N 0.09241 0.56612 0.33743
 C196 C 0.11757 0.56024 0.35198
 N197 N 0.11453 0.54133 0.40455
 N198 N 0.08711 0.52873 0.44146
 C199 C 0.06190 0.53476 0.42719
 N200 N 0.06504 0.55354 0.37426
 C201 C 0.14642 0.57309 0.31062
 C202 C 0.16987 0.58409 0.27383
 C203 C 0.19687 0.59743 0.22789
 N204 N 0.21370 0.58114 0.21474
 N205 N 0.23763 0.59280 0.16963
 C206 C 0.24542 0.62107 0.13607
 N207 N 0.22857 0.63736 0.14959
 N208 N 0.20469 0.62571 0.19467
 N209 N 0.42754 0.90537 0.35190
 C210 C 0.43957 0.88403 0.35144
 N211 N 0.46581 0.89041 0.39022
 N212 N 0.47948 0.91721 0.42860
 C213 C 0.46722 0.93842 0.42983
 N214 N 0.44120 0.93217 0.39029
 C215 C 0.42556 0.85576 0.30863
 C216 C 0.41419 0.83236 0.27181
 C217 C 0.40112 0.80501 0.22682
 N218 N 0.42213 0.79740 0.19521
 N219 N 0.41025 0.77292 0.15144
 C220 C 0.37695 0.75521 0.13780
 N221 N 0.35593 0.76279 0.16980
 N222 N 0.36783 0.78729 0.21358
 N223 N 0.47442 0.56883 0.35160
 C224 C 0.44078 0.55604 0.35011
 N225 N 0.42075 0.52916 0.38762
 N226 N 0.43401 0.51563 0.42581
 C227 C 0.46776 0.52870 0.42795
 N228 N 0.48769 0.55533 0.38974
 C229 C 0.42659 0.57022 0.30776
 C230 C 0.41509 0.58212 0.27112
 C231 C 0.40177 0.59608 0.22615
 N232 N 0.41780 0.62958 0.21558
 N233 N 0.40623 0.64236 0.17167
 C234 C 0.37826 0.62203 0.13682
 N235 N 0.36221 0.58852 0.14777
 N236 N 0.37377 0.57576 0.19166
   
