data_POSCAR
  _audit_creation_date              2014-09-24
  _audit_creation_method            'ToBaCCo'
  _symmetry_space_group_name_H-M    'P1'
  _symmetry_Int_Tables_number       1
  _symmetry_cell_setting            triclinic
  loop_
  _symmetry_equiv_pos_as_xyz
 x,y,z
_cell_length_a 56.8770
_cell_length_b 56.9224
_cell_length_c 56.8667
_cell_angle_alpha 89.995900
_cell_angle_beta 90.000000
_cell_angle_gamma 89.980100
loop_
  _atom_site_label
  _atom_site_type_symbol
  _atom_site_fract_x
  _atom_site_fract_y
  _atom_site_fract_z
C1 C 0.15401 0.17089 0.18870
 C2 C 0.15398 0.18832 0.17127
 C3 C 0.17114 0.18832 0.15406
 C4 C 0.18861 0.17092 0.15410
 C5 C 0.18860 0.15380 0.17122
 C6 C 0.17115 0.15378 0.18867
 C7 C 0.13975 0.16677 0.20777
 N8 N 0.14769 0.14742 0.21960
 C9 C 0.16702 0.13949 0.20772
 C10 C 0.20766 0.13952 0.16709
 N11 N 0.21953 0.14747 0.14775
 C12 C 0.20768 0.16681 0.13983
 C13 C 0.16699 0.20738 0.13976
 N14 N 0.14772 0.21899 0.14789
 C15 C 0.13968 0.20739 0.16718
 H16 H 0.12466 0.17736 0.21226
 H17 H 0.17788 0.12466 0.21245
 H18 H 0.21239 0.12469 0.17794
 H19 H 0.21217 0.17741 0.12473
 H20 H 0.17755 0.21265 0.12484
 H21 H 0.12444 0.21231 0.17746
 C22 C -0.15398 0.82902 0.18883
 C23 C -0.15393 0.81157 0.17141
 C24 C -0.17109 0.81155 0.15421
 C25 C -0.18858 0.82893 0.15423
 C26 C -0.18859 0.84607 0.17134
 C27 C -0.17113 0.84612 0.18879
 C28 C -0.13972 0.83317 0.20789
 N29 N -0.14767 0.85253 0.21970
 C30 C -0.16701 0.86043 0.20782
 C31 C -0.20765 0.86033 0.16719
 N32 N -0.21951 0.85236 0.14786
 C33 C -0.20765 0.83301 0.13996
 C34 C -0.16692 0.79249 0.13992
 N35 N -0.14764 0.78090 0.14804
 C36 C -0.13961 0.79252 0.16734
 H37 H -0.12461 0.82260 0.21240
 H38 H -0.17789 0.87525 0.21253
 H39 H -0.21239 0.87517 0.17802
 H40 H -0.21213 0.82240 0.12487
 H41 H -0.17747 0.78721 0.12500
 H42 H -0.12436 0.78763 0.17761
 C43 C -0.15434 0.17103 -0.18869
 C44 C -0.15437 0.18855 -0.17134
 C45 C -0.17153 0.18857 -0.15413
 C46 C -0.18894 0.17110 -0.15408
 C47 C -0.18890 0.15396 -0.17118
 C48 C -0.17145 0.15392 -0.18863
 C49 C -0.14005 0.16686 -0.20772
 N50 N -0.14797 0.14749 -0.21952
 C51 C -0.16732 0.13960 -0.20765
 C52 C -0.20794 0.13967 -0.16702
 N53 N -0.21979 0.14761 -0.14767
 C54 C -0.20797 0.16697 -0.13978
 C55 C -0.16742 0.20766 -0.13988
 N56 N -0.14818 0.21928 -0.14803
 C57 C -0.14012 0.20764 -0.16730
 H58 H -0.12524 0.17771 -0.21251
 H59 H -0.17791 0.12450 -0.21210
 H60 H -0.21240 0.12456 -0.17760
 H61 H -0.21272 0.17784 -0.12495
 H62 H -0.17798 0.21294 -0.12496
 H63 H -0.12487 0.21254 -0.17758
 C64 C 0.15423 0.82909 -0.18869
 C65 C 0.15426 0.81157 -0.17135
 C66 C 0.17143 0.81154 -0.15415
 C67 C 0.18884 0.82900 -0.15411
 C68 C 0.18881 0.84615 -0.17120
 C69 C 0.17135 0.84620 -0.18864
 C70 C 0.13993 0.83327 -0.20772
 N71 N 0.14786 0.85264 -0.21953
 C72 C 0.16722 0.86052 -0.20766
 C73 C 0.20785 0.86042 -0.16705
 N74 N 0.21971 0.85247 -0.14771
 C75 C 0.20788 0.83312 -0.13981
 C76 C 0.16732 0.79243 -0.13991
 N77 N 0.14808 0.78082 -0.14806
 C78 C 0.14001 0.79248 -0.16731
 H79 H 0.12512 0.82242 -0.21251
 H80 H 0.17780 0.87562 -0.21211
 H81 H 0.21232 0.87553 -0.17763
 H82 H 0.21264 0.82224 -0.12499
 H83 H 0.17790 0.78714 -0.12500
 H84 H 0.12476 0.78759 -0.17758
 C85 C 0.17030 1.15346 0.81204
 C86 C 0.18768 1.15343 0.82954
 C87 C 0.18764 1.17063 0.84670
 C88 C 0.17018 1.18804 0.84663
 C89 C 0.15309 1.18799 0.82947
 C90 C 0.15315 1.17056 0.81202
 C91 C 0.16626 1.13922 0.79295
 N92 N 0.14692 1.14713 0.78107
 C93 C 0.13892 1.16643 0.79293
 C94 C 0.13879 1.20704 0.83355
 N95 N 0.14670 1.21893 0.85288
 C96 C 0.16604 1.20711 0.86086
 C97 C 0.20672 1.16657 0.86101
 N98 N 0.21836 1.14730 0.85297
 C99 C 0.20676 1.13917 0.83371
 H100 H 0.17688 1.12414 0.78849
 H101 H 0.12409 1.17727 0.78815
 H102 H 0.12397 1.21176 0.82265
 H103 H 0.17663 1.21162 0.87595
 H104 H 0.21162 1.17685 0.87625
 H105 H 0.21207 1.12427 0.82314
 C106 C 0.82972 0.84642 0.81187
 C107 C 0.81236 0.84645 0.82939
 C108 C 0.81241 0.82925 0.84655
 C109 C 0.82986 0.81184 0.84647
 C110 C 0.84695 0.81188 0.82929
 C111 C 0.84687 0.82932 0.81184
 C112 C 0.83376 0.86067 0.79279
 N113 N 0.85309 0.85276 0.78089
 C114 C 0.86110 0.83345 0.79274
 C115 C 0.86125 0.79284 0.83336
 N116 N 0.85335 0.78095 0.85270
 C117 C 0.83401 0.79277 0.86069
 C118 C 0.79334 0.83331 0.86087
 N119 N 0.78169 0.85258 0.85284
 C120 C 0.79328 0.86071 0.83357
 H121 H 0.82314 0.87575 0.78833
 H122 H 0.87593 0.82261 0.78795
 H123 H 0.87606 0.78811 0.82246
 H124 H 0.82343 0.78826 0.87580
 H125 H 0.78844 0.82303 0.87611
 H126 H 0.78796 0.87561 0.82300
 C127 C 0.17025 0.84656 1.18825
 C128 C 0.18776 0.84652 1.17087
 C129 C 0.18778 0.82937 1.15367
 C130 C 0.17033 0.81198 1.15364
 C131 C 0.15314 0.81200 1.17082
 C132 C 0.15313 0.82945 1.18824
 C133 C 0.16612 0.86083 1.20730
 N134 N 0.14678 0.85290 1.21915
 C135 C 0.13885 0.83357 1.20731
 C136 C 0.13888 0.79292 1.16673
 N137 N 0.14696 0.78130 1.14746
 C138 C 0.16622 0.79291 1.13935
 C139 C 0.20689 0.83347 1.13942
 N140 N 0.21853 0.85269 1.14757
 C141 C 0.20688 0.86076 1.16683
 H142 H 0.17700 0.87563 1.21206
 H143 H 0.12377 0.82297 1.21180
 H144 H 0.12363 0.78799 1.17699
 H145 H 0.17682 0.78763 1.12445
 H146 H 0.21218 0.82290 1.12451
 H147 H 0.21181 0.87598 1.17711
 C148 C 0.82968 1.15356 1.18825
 C149 C 0.81218 1.15348 1.17086
 C150 C 0.81208 1.17060 1.15363
 C151 C 0.82942 1.18810 1.15359
 C152 C 0.84666 1.18816 1.17073
 C153 C 0.84673 1.17076 1.18821
 C154 C 0.83389 1.13933 1.20731
 N155 N 0.85319 1.14737 1.21915
 C156 C 0.86102 1.16673 1.20728
 C157 C 0.86086 1.20727 1.16656
 N158 N 0.85267 1.21885 1.14731
 C159 C 0.83341 1.20717 1.13929
 C160 C 0.79298 1.16640 1.13940
 N161 N 0.78143 1.14714 1.14758
 C162 C 0.79313 1.13915 1.16685
 H163 H 0.82306 1.12451 1.21213
 H164 H 0.87611 1.17735 1.21174
 H165 H 0.87578 1.21259 1.17711
 H166 H 0.82310 1.21206 1.12406
 H167 H 0.78763 1.17694 1.12449
 H168 H 0.78827 1.12392 1.17716
 N169 N 0.52472 1.04151 0.97484
 N170 N 0.54308 1.05548 0.97244
 N171 N 0.47524 1.02515 0.95849
 N172 N 0.45684 1.02753 0.94455
 N173 N 0.47521 1.04145 0.97482
 N174 N 0.45679 1.05535 0.97244
 N175 N 0.52475 1.02522 0.95851
 N176 N 0.54313 1.02767 0.94455
 C177 C 0.55437 1.04668 0.95341
 C178 C 0.44552 1.04651 0.95341
 N179 N 0.47534 0.95827 0.97477
 N180 N 0.45697 0.94431 0.97234
 N181 N 0.52483 0.97465 0.95847
 N182 N 0.54323 0.97229 0.94454
 N183 N 0.52485 0.95834 0.97479
 N184 N 0.54327 0.94443 0.97239
 N185 N 0.47532 0.97459 0.95845
 N186 N 0.45694 0.97217 0.94449
 Mn187 Mn 0.50003 0.99990 0.95818
 C188 C 0.44568 0.95315 0.95332
 C189 C 0.55455 0.95330 0.95338
 N190 N 0.47518 1.04141 1.02543
 N191 N 0.45679 1.05534 1.02785
 N192 N 0.52471 1.02515 1.04177
 N193 N 0.54310 1.02756 1.05572
 N194 N 0.52469 1.04147 1.02545
 N195 N 0.54307 1.05541 1.02786
 N196 N 0.47520 1.02509 1.04175
 N197 N 0.45681 1.02748 1.05570
 Mn198 Mn 0.49995 1.04176 1.00014
 C199 C 0.44551 1.04649 1.04687
 C200 C 0.55437 1.04657 1.04688
 N201 N 0.52483 0.95830 1.02540
 N202 N 0.54323 0.94437 1.02781
 N203 N 0.47528 0.97453 1.04171
 N204 N 0.45688 0.97211 1.05563
 N205 N 0.47532 0.95823 1.02538
 N206 N 0.45694 0.94429 1.02775
 N207 N 0.52480 0.97459 1.04173
 N208 N 0.54317 0.97218 1.05570
 Mn209 Mn 0.50008 0.95798 1.00008
 Mn210 Mn 0.50000 0.99984 1.04204
 Cl211 Cl 0.50002 0.99987 1.00011
 C212 C 0.55449 0.95319 1.04685
 C213 C 0.44562 0.95310 1.04676
 N214 N 0.02534 0.47520 0.04135
 N215 N 0.02774 0.45684 0.05532
 N216 N 0.04177 0.52463 0.02500
 N217 N 0.05573 0.54299 0.02738
 N218 N 0.02545 0.52467 0.04133
 N219 N 0.02788 0.54306 0.05525
 N220 N 0.04166 0.47516 0.02502
 N221 N 0.05559 0.45677 0.02744
 C222 C 0.04674 0.44553 0.04648
 C223 C 0.04690 0.55430 0.04639
 N224 N 0.02543 0.52465 -0.04193
 N225 N 0.02789 0.54301 -0.05589
 N226 N 0.04163 0.47514 -0.02559
 N227 N 0.05551 0.45670 -0.02798
 N228 N 0.02530 0.47518 -0.04191
 N229 N 0.02763 0.45678 -0.05583
 N230 N 0.04175 0.52461 -0.02561
 N231 N 0.05575 0.54294 -0.02803
 Mn232 Mn 0.04200 0.49989 -0.00029
 C233 C 0.04694 0.55423 -0.04705
 C234 C 0.04661 0.44544 -0.04699
 N235 N -0.02515 0.52481 0.04135
 N236 N -0.02754 0.54317 0.05533
 N237 N -0.04159 0.47538 0.02505
 N238 N -0.05555 0.45701 0.02745
 N239 N -0.02526 0.47534 0.04137
 N240 N -0.02767 0.45695 0.05530
 N241 N -0.04147 0.52485 0.02503
 N242 N -0.05540 0.54324 0.02746
 Mn243 Mn 0.00010 0.50001 0.04165
 C244 C -0.04655 0.55448 0.04649
 C245 C -0.04670 0.44571 0.04645
 N246 N -0.02530 0.47532 -0.04189
 N247 N -0.02777 0.45695 -0.05584
 N248 N -0.04149 0.52485 -0.02558
 N249 N -0.05537 0.54327 -0.02798
 N250 N -0.02517 0.52479 -0.04191
 N251 N -0.02752 0.54317 -0.05586
 N252 N -0.04161 0.47537 -0.02556
 N253 N -0.05562 0.45705 -0.02796
 Mn254 Mn 0.00006 0.49999 -0.04221
 Mn255 Mn -0.04184 0.50011 -0.00026
 Cl256 Cl 0.00008 0.50000 -0.00028
 C257 C -0.04682 0.44574 -0.04698
 C258 C -0.04650 0.55451 -0.04701
 N259 N 0.97473 0.04176 0.47535
 N260 N 0.97236 0.05569 0.45695
 N261 N 0.95837 0.02543 0.52484
 N262 N 0.94440 0.02784 0.54322
 N263 N 0.97470 0.04173 0.52487
 N264 N 0.97227 0.05566 0.54326
 N265 N 0.95840 0.02546 0.47532
 N266 N 0.94449 0.02788 0.45690
 C267 C 0.95336 0.04687 0.44563
 C268 C 0.95324 0.04683 0.55452
 N269 N 0.97468 -0.04144 0.52482
 N270 N 0.97229 -0.05538 0.54322
 N271 N 0.95838 -0.02510 0.47531
 N272 N 0.94441 -0.02751 0.45693
 N273 N 0.97469 -0.04142 0.47530
 N274 N 0.97226 -0.05536 0.45692
 N275 N 0.95836 -0.02513 0.52483
 N276 N 0.94442 -0.02753 0.54323
 Mn277 Mn 0.95808 0.00017 0.50007
 C278 C 0.95328 -0.04653 0.55451
 C279 C 0.95324 -0.04652 0.44564
 N280 N 1.02530 0.04170 0.52489
 N281 N 1.02769 0.05561 0.54330
 N282 N 1.04164 0.02540 0.47537
 N283 N 1.05560 0.02781 0.45699
 N284 N 1.02533 0.04173 0.47537
 N285 N 1.02776 0.05567 0.45698
 N286 N 1.04162 0.02538 0.52489
 N287 N 1.05554 0.02775 0.54330
 Mn288 Mn 1.00001 0.04203 0.50012
 C289 C 1.04669 0.04675 0.55460
 C290 C 1.04678 0.04682 0.44571
 N291 N 1.02529 -0.04145 0.47533
 N292 N 1.02768 -0.05537 0.45692
 N293 N 1.04160 -0.02518 0.52486
 N294 N 1.05555 -0.02760 0.54324
 N295 N 1.02528 -0.04148 0.52485
 N296 N 1.02769 -0.05542 0.54324
 N297 N 1.04162 -0.02516 0.47534
 N298 N 1.05555 -0.02755 0.45693
 Mn299 Mn 0.99999 -0.04175 0.50008
 Mn300 Mn 1.04192 0.00011 0.50011
 Cl301 Cl 1.00000 0.00014 0.50010
 C302 C 1.04669 -0.04653 0.44563
 C303 C 1.04671 -0.04660 0.55453
 C304 C 1.13753 0.10733 0.27010
 C305 C 1.11887 0.11855 0.28141
 C306 C 1.10970 0.13929 0.27207
 C307 C 1.11916 0.14888 0.25151
 C308 C 1.13817 0.13790 0.23974
 C309 C 1.14709 0.11681 0.24954
 C310 C 1.10922 0.10888 0.30272
 C311 C 1.10119 0.10086 0.32062
 C312 C 1.09183 0.09157 0.34164
 C313 C 1.08389 0.08369 0.35964
 C314 C 1.07448 0.07435 0.38119
 C315 C 1.05489 0.08490 0.39171
 C316 C 1.04585 0.07594 0.41275
 C317 C 1.05633 0.05632 0.42350
 C318 C 1.07596 0.04578 0.41279
 C319 C 1.08497 0.05477 0.39176
 H320 H 1.14474 0.09118 0.27717
 H321 H 1.09524 0.14816 0.28074
 H322 H 1.11148 0.16506 0.24532
 H323 H 1.16134 0.10723 0.24150
 H324 H 1.04663 0.10006 0.38368
 H325 H 1.03067 0.08437 0.42058
 H326 H 1.08434 0.03061 0.42065
 H327 H 1.10014 0.04646 0.38376
 C328 C 0.89030 -0.13926 0.27217
 C329 C 0.88114 -0.11849 0.28147
 C330 C 0.86249 -0.10729 0.27012
 C331 C 0.85293 -0.11681 0.24958
 C332 C 0.86184 -0.13792 0.23983
 C333 C 0.88084 -0.14888 0.25164
 C334 C 0.89077 -0.10878 0.30276
 C335 C 0.89880 -0.10073 0.32065
 C336 C 0.90815 -0.09139 0.34165
 C337 C 0.91610 -0.08349 0.35964
 C338 C 0.92552 -0.07411 0.38117
 C339 C 0.91501 -0.05453 0.39173
 C340 C 0.92404 -0.04553 0.41275
 C341 C 0.94369 -0.05603 0.42345
 C342 C 0.95418 -0.07565 0.41270
 C343 C 0.94513 -0.08463 0.39168
 H344 H 0.90475 -0.14812 0.28087
 H345 H 0.85528 -0.09113 0.27716
 H346 H 0.83869 -0.10723 0.24151
 H347 H 0.88851 -0.16508 0.24548
 H348 H 0.89983 -0.04625 0.38374
 H349 H 0.91564 -0.03036 0.42061
 H350 H 0.96937 -0.08405 0.42052
 H351 H 0.95341 -0.09978 0.38365
 C352 C 0.86021 0.10939 0.72811
 C353 C 0.88096 0.11855 0.71874
 C354 C 0.89216 0.13723 0.73001
 C355 C 0.88266 0.14682 0.75055
 C356 C 0.86156 0.13793 0.76036
 C357 C 0.85061 0.11889 0.74864
 C358 C 0.89066 0.10890 0.69745
 C359 C 0.89873 0.10089 0.67956
 C360 C 0.90812 0.09160 0.65855
 C361 C 0.91608 0.08372 0.64056
 C362 C 0.92551 0.07437 0.61902
 C363 C 0.94511 0.08490 0.60851
 C364 C 0.95416 0.07594 0.58748
 C365 C 0.94368 0.05633 0.57672
 C366 C 0.92405 0.04581 0.58742
 C367 C 0.91502 0.05480 0.60845
 H368 H 0.85135 0.09492 0.71947
 H369 H 0.90831 0.14443 0.72292
 H370 H 0.89223 0.16109 0.75854
 H371 H 0.83442 0.11122 0.75486
 H372 H 0.95337 0.10005 0.61655
 H373 H 0.96934 0.08435 0.57966
 H374 H 0.91566 0.03064 0.57955
 H375 H 0.89985 0.04650 0.61644
 C376 C 1.10770 -0.13707 0.73004
 C377 C 1.11891 -0.11841 0.71874
 C378 C 1.13967 -0.10927 0.72809
 C379 C 1.14929 -0.11877 0.74862
 C380 C 1.13831 -0.13779 0.76036
 C381 C 1.11720 -0.14667 0.75057
 C382 C 1.10920 -0.10876 0.69746
 C383 C 1.10113 -0.10075 0.67957
 C384 C 1.09174 -0.09145 0.65857
 C385 C 1.08379 -0.08355 0.64058
 C386 C 1.07437 -0.07418 0.61903
 C387 C 1.08487 -0.05460 0.60848
 C388 C 1.07586 -0.04560 0.58746
 C389 C 1.05624 -0.05611 0.57673
 C390 C 1.04575 -0.07573 0.58747
 C391 C 1.05478 -0.08471 0.60850
 H392 H 1.09154 -0.14426 0.72296
 H393 H 1.14854 -0.09481 0.71944
 H394 H 1.16548 -0.11112 0.75483
 H395 H 1.10762 -0.16092 0.75858
 H396 H 1.10003 -0.04631 0.61649
 H397 H 1.08425 -0.03043 0.57961
 H398 H 1.03057 -0.08414 0.57963
 H399 H 1.04652 -0.09987 0.61653
 C400 C 0.27196 1.13930 1.10972
 C401 C 0.28131 1.11856 1.11889
 C402 C 0.27001 1.10736 1.13757
 C403 C 0.24947 1.11686 1.14714
 C404 C 0.23967 1.13794 1.13823
 C405 C 0.25142 1.14890 1.11919
 C406 C 0.30260 1.10885 1.10923
 C407 C 0.32048 1.10079 1.10119
 C408 C 0.34148 1.09142 1.09185
 C409 C 0.35946 1.08349 1.08393
 C410 C 0.38100 1.07409 1.07452
 C411 C 0.39155 1.05452 1.08504
 C412 C 0.41258 1.04550 1.07604
 C413 C 0.42330 1.05600 1.05640
 C414 C 0.41255 1.07561 1.04588
 C415 C 0.39152 1.08460 1.05491
 H416 H 0.28062 1.14815 1.09524
 H417 H 0.27709 1.09122 1.14478
 H418 H 0.24145 1.10729 1.16141
 H419 H 0.24522 1.16507 1.11151
 H420 H 0.38355 1.04624 1.10022
 H421 H 0.42043 1.03033 1.08445
 H422 H 0.42038 1.08400 1.03069
 H423 H 0.38350 1.09975 1.04662
 C424 C 0.27026 0.86254 0.89237
 C425 C 0.28148 0.88130 0.88124
 C426 C 0.27205 0.89057 0.86057
 C427 C 0.25151 0.88111 0.85096
 C428 C 0.23984 0.86199 0.86184
 C429 C 0.24972 0.85298 0.88286
 C430 C 0.30278 0.89092 0.89094
 C431 C 0.32067 0.89893 0.89899
 C432 C 0.34168 0.90824 0.90834
 C433 C 0.35967 0.91614 0.91627
 C434 C 0.38122 0.92551 0.92566
 C435 C 0.39174 0.94511 0.91515
 C436 C 0.41275 0.95413 0.92415
 C437 C 0.42350 0.94362 0.94378
 C438 C 0.41279 0.92399 0.95428
 C439 C 0.39177 0.91499 0.94525
 H440 H 0.27741 0.85525 0.90846
 H441 H 0.28064 0.90511 0.85177
 H442 H 0.24524 0.88888 0.83484
 H443 H 0.24177 0.83864 0.89237
 H444 H 0.38371 0.95339 0.89999
 H445 H 0.42058 0.96931 0.91575
 H446 H 0.42064 0.91558 0.96945
 H447 H 0.38377 0.89983 0.95352
 C448 C 0.72811 0.86051 1.10974
 C449 C 0.71869 0.88121 1.11894
 C450 C 0.72994 0.89239 1.13766
 C451 C 0.75048 0.88291 1.14726
 C452 C 0.76034 0.86187 1.13831
 C453 C 0.74865 0.85093 1.11923
 C454 C 0.69740 0.89089 1.10926
 C455 C 0.67952 0.89894 1.10122
 C456 C 0.65852 0.90828 1.09186
 C457 C 0.64053 0.91620 1.08393
 C458 C 0.61899 0.92559 1.07453
 C459 C 0.60842 0.94515 1.08506
 C460 C 0.58739 0.95417 1.07605
 C461 C 0.57669 0.94368 1.05639
 C462 C 0.58745 0.92409 1.04587
 C463 C 0.60848 0.91510 1.05490
 H464 H 0.71950 0.85167 1.09523
 H465 H 0.72280 0.90849 1.14491
 H466 H 0.75844 0.89246 1.16157
 H467 H 0.75491 0.83479 1.11152
 H468 H 0.61641 0.95341 1.10025
 H469 H 0.57952 0.96932 1.08447
 H470 H 0.57963 0.91570 1.03067
 H471 H 0.61652 0.89996 1.04661
 C472 C 0.72788 1.10950 0.86061
 C473 C 0.71848 1.11874 0.88131
 C474 C 0.72971 1.13748 0.89245
 C475 C 0.75024 1.14705 0.88293
 C476 C 0.76009 1.13808 0.86188
 C477 C 0.74841 1.11898 0.85099
 C478 C 0.69720 1.10909 0.89103
 C479 C 0.67932 1.10107 0.89909
 C480 C 0.65832 1.09174 0.90845
 C481 C 0.64034 1.08381 0.91638
 C482 C 0.61881 1.07440 0.92577
 C483 C 0.60826 1.08489 0.94537
 C484 C 0.58725 1.07587 0.95440
 C485 C 0.57655 1.05624 0.94388
 C486 C 0.58730 1.04577 0.92424
 C487 C 0.60830 1.05482 0.91524
 H488 H 0.71927 1.09498 0.85180
 H489 H 0.72259 1.14474 0.90856
 H490 H 0.75820 1.16138 0.89245
 H491 H 0.75465 1.11124 0.83484
 H492 H 0.61625 1.10005 0.95367
 H493 H 0.57940 1.08424 0.96959
 H494 H 0.57948 1.03059 0.91582
 H495 H 0.61633 1.04656 0.90006
 C496 C 0.13072 0.26564 0.10434
 C497 C 0.11868 0.28152 0.11876
 C498 C 0.11613 0.27673 0.14276
 C499 C 0.12560 0.25618 0.15232
 C500 C 0.13780 0.24011 0.13800
 C501 C 0.14023 0.24509 0.11387
 C502 C 0.10905 0.30277 0.10899
 C503 C 0.10104 0.32064 0.10090
 C504 C 0.09170 0.34161 0.09152
 C505 C 0.08377 0.35958 0.08358
 C506 C 0.07437 0.38109 0.07417
 C507 C 0.05479 0.39165 0.08470
 C508 C 0.04576 0.41266 0.07569
 C509 C 0.05626 0.42335 0.05603
 C510 C 0.07587 0.41259 0.04550
 C511 C 0.08487 0.39159 0.05454
 H512 H 0.13275 0.26915 0.08572
 H513 H 0.10691 0.28894 0.15410
 H514 H 0.12369 0.25307 0.17099
 H515 H 0.14923 0.23296 0.10231
 H516 H 0.04652 0.38367 0.09989
 H517 H 0.03060 0.42052 0.08410
 H518 H 0.08426 0.42041 0.03030
 H519 H 0.10002 0.38356 0.04625
 C520 C -0.11657 0.27700 -0.14299
 C521 C -0.11916 0.28185 -0.11901
 C522 C -0.13125 0.26603 -0.10457
 C523 C -0.14075 0.24546 -0.11407
 C524 C -0.13827 0.24042 -0.13818
 C525 C -0.12603 0.25644 -0.15253
 C526 C -0.10952 0.30311 -0.10928
 C527 C -0.10148 0.32096 -0.10121
 C528 C -0.09211 0.34193 -0.09186
 C529 C -0.08414 0.35989 -0.08395
 C530 C -0.07468 0.38139 -0.07458
 C531 C -0.08515 0.39196 -0.05498
 C532 C -0.07608 0.41294 -0.04597
 C533 C -0.05642 0.42359 -0.05650
 C534 C -0.04596 0.41282 -0.07613
 C535 C -0.05506 0.39184 -0.08512
 H536 H -0.10731 0.28917 -0.15435
 H537 H -0.13331 0.26958 -0.08597
 H538 H -0.14978 0.23338 -0.10250
 H539 H -0.12409 0.25328 -0.17118
 H540 H -0.10034 0.38401 -0.04668
 H541 H -0.08445 0.42081 -0.03078
 H542 H -0.03076 0.42060 -0.08455
 H543 H -0.04681 0.38380 -0.10029
 C544 C 0.13121 0.73401 -0.10463
 C545 C 0.11909 0.71822 -0.11907
 C546 C 0.11646 0.72310 -0.14304
 C547 C 0.12591 0.74367 -0.15256
 C548 C 0.13818 0.75967 -0.13821
 C549 C 0.14070 0.75459 -0.11412
 C550 C 0.10948 0.69694 -0.10935
 C551 C 0.10145 0.67907 -0.10130
 C552 C 0.09211 0.65809 -0.09196
 C553 C 0.08416 0.64012 -0.08405
 C554 C 0.07473 0.61860 -0.07468
 C555 C 0.05511 0.60813 -0.08521
 C556 C 0.04604 0.58714 -0.07622
 C557 C 0.05652 0.57639 -0.05658
 C558 C 0.07618 0.58705 -0.04606
 C559 C 0.08522 0.60804 -0.05508
 H560 H 0.13330 0.73043 -0.08604
 H561 H 0.10718 0.71096 -0.15440
 H562 H 0.12394 0.74686 -0.17121
 H563 H 0.14975 0.76665 -0.10254
 H564 H 0.04685 0.61616 -0.10037
 H565 H 0.03084 0.57935 -0.08463
 H566 H 0.08456 0.57919 -0.03088
 H567 H 0.10041 0.61600 -0.04679
 C568 C -0.11595 0.72321 0.14289
 C569 C -0.11850 0.71843 0.11890
 C570 C -0.13057 0.73429 0.10448
 C571 C -0.14011 0.75484 0.11402
 C572 C -0.13768 0.75980 0.13815
 C573 C -0.12545 0.74375 0.15247
 C574 C -0.10886 0.69719 0.10912
 C575 C -0.10083 0.67934 0.10102
 C576 C -0.09149 0.65837 0.09161
 C577 C -0.08356 0.64041 0.08365
 C578 C -0.07416 0.61891 0.07422
 C579 C -0.08468 0.60842 0.05460
 C580 C -0.07568 0.58742 0.04554
 C581 C -0.05606 0.57666 0.05605
 C582 C -0.04555 0.58735 0.07570
 C583 C -0.05457 0.60835 0.08473
 H584 H -0.10671 0.71101 0.15423
 H585 H -0.13260 0.73080 0.08586
 H586 H -0.14913 0.76695 0.10247
 H587 H -0.12354 0.74686 0.17114
 H588 H -0.09984 0.61645 0.04632
 H589 H -0.08408 0.57961 0.03035
 H590 H -0.03038 0.57949 0.08410
 H591 H -0.04630 0.61632 0.09992
 C592 C 1.13903 0.10927 0.72849
 C593 C 1.11823 0.11835 0.71915
 C594 C 1.10690 0.13690 0.73051
 C595 C 1.11632 0.14645 0.75111
 C596 C 1.13746 0.13762 0.76089
 C597 C 1.14855 0.11871 0.74908
 C598 C 1.10862 0.10873 0.69781
 C599 C 1.10063 0.10074 0.67988
 C600 C 1.09136 0.09144 0.65883
 C601 C 1.08350 0.08356 0.64080
 C602 C 1.07417 0.07422 0.61922
 C603 C 1.05460 0.08476 0.60865
 C604 C 1.04563 0.07582 0.58758
 C605 C 1.05617 0.05622 0.57684
 C606 C 1.07577 0.04569 0.58760
 C607 C 1.08472 0.05466 0.60867
 H608 H 1.14799 0.09489 0.71979
 H609 H 1.09071 0.14405 0.72344
 H610 H 1.10664 0.16061 0.75918
 H611 H 1.16479 0.11112 0.75527
 H612 H 1.04629 0.09990 0.61668
 H613 H 1.03047 0.08423 0.57972
 H614 H 1.08420 0.03054 0.57974
 H615 H 1.09986 0.04636 0.61670
 C616 C 0.86097 -0.10933 0.72834
 C617 C 0.88177 -0.11841 0.71899
 C618 C 0.89310 -0.13698 0.73033
 C619 C 0.88368 -0.14654 0.75091
 C620 C 0.86254 -0.13772 0.76071
 C621 C 0.85145 -0.11879 0.74892
 C622 C 0.89138 -0.10876 0.69766
 C623 C 0.89936 -0.10073 0.67974
 C624 C 0.90862 -0.09140 0.65870
 C625 C 0.91647 -0.08348 0.64068
 C626 C 0.92580 -0.07411 0.61910
 C627 C 0.94537 -0.08462 0.60852
 C628 C 0.95434 -0.07565 0.58746
 C629 C 0.94379 -0.05604 0.57674
 C630 C 0.92418 -0.04553 0.58751
 C631 C 0.91524 -0.05454 0.60857
 H632 H 0.85201 -0.09494 0.71965
 H633 H 0.90928 -0.14412 0.72324
 H634 H 0.89335 -0.16072 0.75896
 H635 H 0.83522 -0.11120 0.75512
 H636 H 0.95369 -0.09977 0.61653
 H637 H 0.96950 -0.08405 0.57959
 H638 H 0.91575 -0.03037 0.57968
 H639 H 0.90009 -0.04626 0.61662
 C640 C 1.13669 -0.10705 0.26969
 C641 C 1.11804 -0.11826 0.28103
 C642 C 1.10884 -0.13897 0.27167
 C643 C 1.11826 -0.14855 0.25108
 C644 C 1.13727 -0.13758 0.23931
 C645 C 1.14621 -0.11651 0.24911
 C646 C 1.10847 -0.10861 0.30238
 C647 C 1.10053 -0.10059 0.32031
 C648 C 1.09129 -0.09127 0.34137
 C649 C 1.08346 -0.08337 0.35941
 C650 C 1.07415 -0.07403 0.38101
 C651 C 1.05458 -0.08455 0.39158
 C652 C 1.04562 -0.07560 0.41265
 C653 C 1.05617 -0.05601 0.42339
 C654 C 1.07578 -0.04551 0.41263
 C655 C 1.08471 -0.05449 0.39156
 H656 H 1.14392 -0.09092 0.27678
 H657 H 1.09439 -0.14784 0.28035
 H658 H 1.11056 -0.16470 0.24487
 H659 H 1.16045 -0.10693 0.24107
 H660 H 1.04626 -0.09967 0.38355
 H661 H 1.03045 -0.08400 0.42051
 H662 H 1.08421 -0.03036 0.42048
 H663 H 1.09986 -0.04621 0.38352
 C664 C 0.86380 0.10714 0.26943
 C665 C 0.88206 0.11870 0.28103
 C666 C 0.89084 0.13971 0.27193
 C667 C 0.88137 0.14924 0.25134
 C668 C 0.86274 0.13792 0.23931
 C669 C 0.85423 0.11655 0.24884
 C670 C 0.89167 0.10909 0.30238
 C671 C 0.89963 0.10108 0.32032
 C672 C 0.90886 0.09175 0.34138
 C673 C 0.91669 0.08385 0.35942
 C674 C 0.92598 0.07447 0.38101
 C675 C 0.94554 0.08497 0.39162
 C676 C 0.95448 0.07598 0.41268
 C677 C 0.94391 0.05639 0.42340
 C678 C 0.92430 0.04591 0.41260
 C679 C 0.91540 0.05492 0.39153
 H680 H 0.85691 0.09077 0.27630
 H681 H 0.90498 0.14886 0.28083
 H682 H 0.88868 0.16566 0.24536
 H683 H 0.84034 0.10668 0.24055
 H684 H 0.95387 0.10010 0.38362
 H685 H 0.96964 0.08437 0.42058
 H686 H 0.91586 0.03076 0.42043
 H687 H 0.90025 0.04665 0.38347
 C688 C 0.13851 0.27142 -0.10923
 C689 C 0.11782 0.28080 -0.11851
 C690 C 0.10664 0.26949 -0.13719
 C691 C 0.11612 0.24891 -0.14668
 C692 C 0.13717 0.23909 -0.13766
 C693 C 0.14810 0.25084 -0.11862
 C694 C 0.10817 0.30214 -0.10895
 C695 C 0.10020 0.32008 -0.10099
 C696 C 0.09096 0.34114 -0.09172
 C697 C 0.08314 0.35919 -0.08385
 C698 C 0.07388 0.38079 -0.07450
 C699 C 0.05435 0.39142 -0.08505
 C700 C 0.04545 0.41250 -0.07609
 C701 C 0.05603 0.42320 -0.05648
 C702 C 0.07560 0.41238 -0.04595
 C703 C 0.08447 0.39129 -0.05493
 H704 H 0.14735 0.28008 -0.09475
 H705 H 0.09054 0.27660 -0.14448
 H706 H 0.10657 0.24089 -0.16096
 H707 H 0.16423 0.24462 -0.11085
 H708 H 0.04601 0.38343 -0.10020
 H709 H 0.03032 0.42041 -0.08451
 H710 H 0.08405 0.42019 -0.03078
 H711 H 0.09959 0.38321 -0.04663
 C712 C -0.10399 0.26564 0.13024
 C713 C -0.11848 0.28146 0.11821
 C714 C -0.14246 0.27659 0.11569
 C715 C -0.15194 0.25601 0.12518
 C716 C -0.13753 0.24000 0.13736
 C717 C -0.11343 0.24505 0.13976
 C718 C -0.10881 0.30275 0.10859
 C719 C -0.10080 0.32064 0.10058
 C720 C -0.09149 0.34165 0.09126
 C721 C -0.08361 0.35965 0.08336
 C722 C -0.07425 0.38120 0.07400
 C723 C -0.08480 0.39176 0.05443
 C724 C -0.07584 0.41279 0.04544
 C725 C -0.05621 0.42351 0.05595
 C726 C -0.04567 0.41275 0.07556
 C727 C -0.05466 0.39172 0.08452
 H728 H -0.08538 0.26920 0.13224
 H729 H -0.15386 0.28876 0.10649
 H730 H -0.17059 0.25284 0.12330
 H731 H -0.10181 0.23297 0.14875
 H732 H -0.09997 0.38376 0.04614
 H733 H -0.08426 0.42066 0.03028
 H734 H -0.03049 0.42058 0.08397
 H735 H -0.04635 0.38369 0.09967
 C736 C -0.10660 0.73038 -0.13736
 C737 C -0.11777 0.71908 -0.11867
 C738 C -0.13846 0.72846 -0.10939
 C739 C -0.14804 0.74904 -0.11878
 C740 C -0.13712 0.76079 -0.13784
 C741 C -0.11608 0.75096 -0.14685
 C742 C -0.10812 0.69774 -0.10911
 C743 C -0.10014 0.67981 -0.10114
 C744 C -0.09089 0.65875 -0.09185
 C745 C -0.08307 0.64072 -0.08396
 C746 C -0.07380 0.61912 -0.07459
 C747 C -0.08438 0.60863 -0.05501
 C748 C -0.07550 0.58756 -0.04600
 C749 C -0.05592 0.57675 -0.05652
 C750 C -0.04536 0.58743 -0.07615
 C751 C -0.05427 0.60849 -0.08513
 H752 H -0.09049 0.72327 -0.14466
 H753 H -0.14730 0.71980 -0.09491
 H754 H -0.16418 0.75526 -0.11102
 H755 H -0.10654 0.75898 -0.16114
 H756 H -0.09950 0.61672 -0.04671
 H757 H -0.08394 0.57976 -0.03083
 H758 H -0.03022 0.57951 -0.08456
 H759 H -0.04594 0.61647 -0.10029
 C760 C 0.11555 0.72348 0.14233
 C761 C 0.11820 0.71866 0.11835
 C762 C 0.13022 0.73455 0.10393
 C763 C 0.13961 0.75516 0.11346
 C764 C 0.13710 0.76016 0.13757
 C765 C 0.12491 0.74408 0.15189
 C766 C 0.10872 0.69734 0.10859
 C767 C 0.10083 0.67943 0.10051
 C768 C 0.09162 0.65840 0.09114
 C769 C 0.08378 0.64039 0.08323
 C770 C 0.07445 0.61883 0.07389
 C771 C 0.08500 0.60826 0.05432
 C772 C 0.07604 0.58722 0.04535
 C773 C 0.05642 0.57650 0.05588
 C774 C 0.04588 0.58726 0.07548
 C775 C 0.05487 0.60830 0.08443
 H776 H 0.10635 0.71126 0.15367
 H777 H 0.13232 0.73102 0.08533
 H778 H 0.14861 0.76729 0.10190
 H779 H 0.12294 0.74722 0.17055
 H780 H 0.10016 0.61626 0.04603
 H781 H 0.08446 0.57935 0.03019
 H782 H 0.03071 0.57943 0.08390
 H783 H 0.04656 0.61633 0.09957
 C784 C 0.26514 1.10386 0.86989
 C785 C 0.28102 1.11829 0.88191
 C786 C 0.27617 1.14225 0.88451
 C787 C 0.25557 1.15177 0.87509
 C788 C 0.23951 1.13744 0.86289
 C789 C 0.24453 1.11335 0.86043
 C790 C 0.30234 1.10857 0.89146
 C791 C 0.32025 1.10052 0.89942
 C792 C 0.34130 1.09119 0.90868
 C793 C 0.35932 1.08330 0.91654
 C794 C 0.38091 1.07397 0.92589
 C795 C 0.39145 1.08449 0.94547
 C796 C 0.41251 1.07556 0.95446
 C797 C 0.42328 1.05598 0.94392
 C798 C 0.41255 1.04545 0.92429
 C799 C 0.39149 1.05442 0.91534
 H800 H 0.26869 1.08527 0.86783
 H801 H 0.28838 1.15359 0.89372
 H802 H 0.25242 1.17042 0.87702
 H803 H 0.23242 1.10179 0.85143
 H804 H 0.38340 1.09962 0.95378
 H805 H 0.42035 1.08397 0.96963
 H806 H 0.42043 1.03031 0.91587
 H807 H 0.38347 1.04613 0.90018
 C808 C 0.26535 0.86952 1.10412
 C809 C 0.28124 0.88150 1.11858
 C810 C 0.27640 0.88407 1.14257
 C811 C 0.25579 0.87469 1.15209
 C812 C 0.23971 0.86255 1.13773
 C813 C 0.24473 0.86010 1.11361
 C814 C 0.30256 0.89104 1.10886
 C815 C 0.32047 0.89899 1.10081
 C816 C 0.34150 0.90826 1.09148
 C817 C 0.35951 0.91614 1.08358
 C818 C 0.38107 0.92551 1.07424
 C819 C 0.39160 0.94506 1.08481
 C820 C 0.41265 0.95407 1.07587
 C821 C 0.42341 0.94359 1.05624
 C822 C 0.41268 0.92400 1.04568
 C823 C 0.39164 0.91502 1.05465
 H824 H 0.26889 0.86748 1.08552
 H825 H 0.28862 0.89325 1.15394
 H826 H 0.25263 0.87660 1.17075
 H827 H 0.23260 0.85114 1.10203
 H828 H 0.38357 0.95333 1.09998
 H829 H 0.42049 0.96922 1.08431
 H830 H 0.42055 0.91562 1.03050
 H831 H 0.38363 0.89988 1.04633
 C832 C 0.73460 1.13014 1.10422
 C833 C 0.71877 1.11812 1.11871
 C834 C 0.72366 1.11554 1.14268
 C835 C 0.74427 1.12499 1.15216
 C836 C 0.76028 1.13719 1.13777
 C837 C 0.75521 1.13963 1.11367
 C838 C 0.69745 1.10855 1.10902
 C839 C 0.67954 1.10058 1.10099
 C840 C 0.65850 1.09131 1.09168
 C841 C 0.64048 1.08345 1.08378
 C842 C 0.61891 1.07410 1.07443
 C843 C 0.60837 1.05454 1.08497
 C844 C 0.58732 1.04555 1.07600
 C845 C 0.57658 1.05607 1.05638
 C846 C 0.58731 1.07567 1.04585
 C847 C 0.60836 1.08463 1.05485
 H848 H 0.73101 1.13219 1.08562
 H849 H 0.71149 1.10633 1.15407
 H850 H 0.74746 1.12308 1.17082
 H851 H 0.76729 1.14862 1.10206
 H852 H 0.61640 1.04625 1.10013
 H853 H 0.57948 1.03039 1.08442
 H854 H 0.57945 1.08408 1.03068
 H855 H 0.61637 1.09978 1.04655
 C856 C 0.72388 0.85760 0.88439
 C857 C 0.71904 0.88157 0.88182
 C858 C 0.73492 0.89601 0.86981
 C859 C 0.75552 0.88652 0.86033
 C860 C 0.76054 0.86243 0.86277
 C861 C 0.74448 0.84808 0.87495
 C862 C 0.69772 0.89128 0.89138
 C863 C 0.67981 0.89933 0.89934
 C864 C 0.65876 0.90865 0.90860
 C865 C 0.64074 0.91653 0.91648
 C866 C 0.61916 0.92586 0.92583
 C867 C 0.60858 0.94542 0.91530
 C868 C 0.58752 0.95438 0.92427
 C869 C 0.57678 0.94384 0.94388
 C870 C 0.58755 0.92424 0.95440
 C871 C 0.60861 0.91531 0.94541
 H872 H 0.71167 0.84624 0.89358
 H873 H 0.73137 0.91460 0.86777
 H874 H 0.76765 0.89809 0.85135
 H875 H 0.74763 0.82944 0.87686
 H876 H 0.61660 0.95373 0.90015
 H877 H 0.57965 0.96954 0.91586
 H878 H 0.57970 0.91582 0.96956
 H879 H 0.61665 0.90017 0.95370
   
