data_POSCAR
  _audit_creation_date              2014-09-24
  _audit_creation_method            'ToBaCCo'
  _symmetry_space_group_name_H-M    'P1'
  _symmetry_Int_Tables_number       1
  _symmetry_cell_setting            triclinic
  loop_
  _symmetry_equiv_pos_as_xyz
 x,y,z
_cell_length_a 41.1512
_cell_length_b 34.8450
_cell_length_c 31.0827
_cell_angle_alpha 89.608900
_cell_angle_beta 89.863500
_cell_angle_gamma 85.655300
loop_
  _atom_site_label
  _atom_site_type_symbol
  _atom_site_fract_x
  _atom_site_fract_y
  _atom_site_fract_z
C1 C 1.23003 0.22512 0.20486
 C2 C 1.24725 0.25397 0.17650
 C3 C 1.26474 0.27866 0.19953
 C4 C 1.26291 0.27280 0.24871
 C5 C 1.25746 0.20569 0.23246
 C6 C 1.27470 0.23040 0.25526
 C7 C 1.20948 0.25070 0.23596
 C8 C 1.22644 0.27506 0.25943
 H9 H 1.24839 0.25294 0.14181
 H10 H 1.27675 0.29299 0.26764
 H11 H 1.26339 0.17486 0.23263
 H12 H 1.18330 0.24974 0.23869
 C13 C 0.73087 -0.29009 0.18725
 C14 C 0.75053 -0.25989 0.16521
 C15 C 0.76289 -0.23460 0.19325
 C16 C 0.75425 -0.24229 0.24109
 C17 C 0.75430 -0.30906 0.22048
 C18 C 0.76573 -0.28463 0.24950
 C19 C 0.70498 -0.26637 0.21318
 C20 C 0.71683 -0.24222 0.24229
 H21 H 0.75589 -0.25965 0.13118
 H22 H 0.76426 -0.22236 0.26436
 H23 H 0.76056 -0.33983 0.22147
 H24 H 0.67918 -0.26906 0.20858
 C25 C 0.72970 0.21349 -0.31440
 C26 C 0.74946 0.24061 -0.33631
 C27 C 0.76676 0.26424 -0.30742
 C28 C 0.76056 0.25531 -0.26160
 C29 C 0.75271 0.19133 -0.28671
 C30 C 0.76912 0.21365 -0.25616
 C31 C 0.70870 0.23688 -0.28591
 C32 C 0.72507 0.25989 -0.25646
 H33 H 0.75467 0.23901 -0.37038
 H34 H 0.77257 0.27310 -0.23822
 H35 H 0.75939 0.16106 -0.29204
 H36 H 0.68251 0.24039 -0.29067
 C37 C 1.22895 -0.26643 -0.30517
 C38 C 1.25715 -0.25035 -0.33002
 C39 C 1.27709 -0.22985 -0.30525
 C40 C 1.26589 -0.22665 -0.25745
 C41 C 1.24544 -0.28910 -0.26775
 C42 C 1.26460 -0.26863 -0.24247
 C43 C 1.21132 -0.23084 -0.28490
 C44 C 1.22992 -0.21098 -0.25826
 H45 H 1.26046 -0.25368 -0.36427
 H46 H 1.28077 -0.20935 -0.23654
 H47 H 1.24353 -0.31974 -0.26379
 H48 H 1.18508 -0.22509 -0.28644
 C49 C 0.23492 0.21678 0.80285
 C50 C 0.25035 0.24681 0.82562
 C51 C 0.26661 0.27280 0.79847
 C52 C 0.26397 0.26375 0.75275
 C53 C 0.21246 0.23810 0.76985
 C54 C 0.22728 0.26340 0.74443
 C55 C 0.26227 0.19688 0.77525
 C56 C 0.27749 0.22154 0.74902
 H57 H 0.25219 0.24675 0.86037
 H58 H 0.27537 0.28348 0.73021
 H59 H 0.18642 0.23530 0.76880
 H60 H 0.26936 0.16643 0.77582
 C61 C 0.73018 0.73193 0.81706
 C62 C 0.74239 0.76724 0.83266
 C63 C 0.75847 0.78900 0.80056
 C64 C 0.75743 0.77134 0.75738
 C65 C 0.70870 0.74348 0.78148
 C66 C 0.72291 0.76549 0.74846
 C67 C 0.75802 0.71105 0.79640
 C68 C 0.77306 0.73224 0.76295
 H69 H 0.74433 0.77257 0.86683
 H70 H 0.76894 0.78815 0.73203
 H71 H 0.68322 0.73767 0.78136
 H72 H 0.76188 0.68007 0.79714
 C73 C 0.71361 0.24617 0.29790
 C74 C 0.73601 0.27132 0.32250
 C75 C 0.75966 0.28621 0.29811
 C76 C 0.75896 0.27381 0.25040
 C77 C 0.70068 0.27120 0.25999
 C78 C 0.72420 0.28556 0.23532
 C79 C 0.73667 0.21523 0.27622
 C80 C 0.76031 0.22935 0.25107
 H81 H 0.73343 0.27620 0.35674
 H82 H 0.77753 0.28604 0.22951
 H83 H 0.67552 0.27388 0.24981
 H84 H 0.73343 0.18478 0.27909
 C85 C 0.23399 0.72365 0.30713
 C86 C 0.26286 0.74012 0.32965
 C87 C 0.28198 0.76069 0.30348
 C88 C 0.26974 0.76334 0.25637
 C89 C 0.21550 0.75838 0.28547
 C90 C 0.23384 0.77940 0.25923
 C91 C 0.24902 0.70075 0.26904
 C92 C 0.26805 0.72110 0.24289
 H93 H 0.26730 0.73594 0.36372
 H94 H 0.28457 0.77990 0.23413
 H95 H 0.18929 0.76391 0.28731
 H96 H 0.24626 0.67046 0.26419
 O97 O 1.04242 0.05945 0.08824
 O98 O 1.07952 0.02548 0.04480
 C99 C 1.07200 0.04964 0.07548
 O100 O 0.95430 -0.07111 0.08065
 O101 O 0.91694 -0.03166 0.04317
 C102 C 0.92463 -0.05945 0.07030
 O103 O 1.04478 -0.07090 0.08689
 O104 O 1.08067 -0.03936 0.04535
 C105 C 1.07406 -0.06276 0.07633
 O106 O 0.95151 0.06987 0.08347
 O107 O 0.91534 0.03724 0.04419
 C108 C 0.92214 0.06312 0.07230
 Zr109 Zr 0.99704 0.04518 0.06286
 O110 O 0.99429 0.04475 0.13084
 O111 O 0.99712 0.10582 0.05979
 Zr112 Zr 0.99909 -0.05118 0.06052
 O113 O 0.99667 -0.04980 0.12847
 O114 O 1.00376 -0.11208 0.05939
 O115 O 1.02726 -0.00491 0.07002
 O116 O 0.96928 -0.00148 0.06936
 O117 O 0.95176 0.07457 -0.06396
 O118 O 0.91554 0.03865 -0.02812
 C119 C 0.92244 0.06642 -0.05407
 O120 O 1.04529 -0.06967 -0.07217
 O121 O 1.08075 -0.03742 -0.03149
 C122 C 1.07443 -0.06173 -0.06122
 O123 O 0.95483 -0.06634 -0.07099
 O124 O 0.91718 -0.02958 -0.03137
 C125 C 0.92501 -0.05526 -0.06069
 O126 O 1.04220 0.06633 -0.06703
 O127 O 1.07942 0.02754 -0.02863
 C128 C 1.07177 0.05525 -0.05570
 Zr129 Zr 0.99724 0.04840 -0.04482
 O130 O 0.99453 0.05157 -0.11279
 O131 O 0.99689 0.10881 -0.03831
 Zr132 Zr 0.99942 -0.04856 -0.04772
 O133 O 0.99736 -0.04862 -0.11575
 O134 O 1.00155 -0.10928 -0.04380
 Zr135 Zr 1.04718 -0.00443 0.00752
 Zr136 Zr 0.94893 0.00122 0.00726
 O137 O 0.96992 0.00191 -0.05448
 O138 O 1.02751 -0.00148 -0.05501
 O139 O 0.96769 0.05579 0.00913
 O140 O 1.02809 -0.05868 0.00639
 O141 O 1.02551 0.05213 0.00936
 O142 O 0.97008 -0.05576 0.00600
 H143 H 0.95456 -0.00100 0.09466
 H144 H 1.04342 -0.08202 0.00642
 H145 H 0.95556 0.00392 -0.08006
 H146 H 1.03929 0.07422 0.01044
 H147 H 0.98856 -0.12024 0.03719
 H148 H 1.00212 -0.11861 -0.07386
 H149 H 1.01277 -0.03021 -0.12626
 H150 H 1.01328 0.03537 -0.12435
 H151 H 0.99707 0.11958 -0.06790
 H152 H 0.99777 0.11474 0.08996
 H153 H 1.00809 0.02197 0.14090
 H154 H 0.99761 -0.07697 0.13836
 O155 O 1.03956 0.56489 0.58784
 O156 O 1.07678 0.53063 0.54509
 C157 C 1.06917 0.55529 0.57517
 O158 O 0.95300 0.43219 0.57944
 O159 O 0.91530 0.47152 0.54239
 C160 C 0.92329 0.44354 0.56913
 O161 O 1.04302 0.43255 0.58430
 O162 O 1.07874 0.46468 0.54318
 C163 C 1.07219 0.44056 0.57343
 O164 O 0.94883 0.57249 0.58471
 O165 O 0.91314 0.54045 0.54376
 C166 C 0.91972 0.56525 0.57304
 Zr167 Zr 0.99456 0.54935 0.56287
 O168 O 0.99227 0.54852 0.63088
 O169 O 0.99348 0.61008 0.55993
 Zr170 Zr 0.99738 0.45312 0.55956
 O171 O 0.99543 0.45482 0.62751
 O172 O 1.00196 0.39223 0.55883
 O173 O 1.02530 0.49954 0.56965
 O174 O 0.96722 0.50229 0.56890
 O175 O 0.94924 0.57964 0.43738
 O176 O 0.91337 0.54285 0.47254
 C177 C 0.92004 0.57142 0.44775
 O178 O 1.04382 0.43571 0.42755
 O179 O 1.07906 0.46815 0.46839
 C180 C 1.07287 0.44345 0.43908
 O181 O 0.95371 0.43760 0.42908
 O182 O 0.91549 0.47409 0.46797
 C183 C 0.92381 0.44799 0.43933
 O184 O 1.03981 0.57190 0.43327
 O185 O 1.07726 0.53355 0.47187
 C186 C 1.06945 0.56127 0.44482
 Zr187 Zr 0.99488 0.55325 0.45503
 O188 O 0.99186 0.55606 0.38708
 O189 O 0.99432 0.61375 0.46090
 Zr190 Zr 0.99779 0.45672 0.45127
 O191 O 0.99538 0.45880 0.38326
 O192 O 1.00065 0.39588 0.45281
 Zr193 Zr 1.04511 0.50071 0.50713
 Zr194 Zr 0.94691 0.50518 0.50680
 O195 O 0.96772 0.50671 0.44501
 O196 O 1.02565 0.50394 0.44449
 O197 O 0.96531 0.55995 0.50917
 O198 O 1.02624 0.44635 0.50535
 O199 O 1.02293 0.55702 0.50937
 O200 O 0.96861 0.44855 0.50493
 H201 H 0.95259 0.50217 0.59427
 H202 H 1.04136 0.42282 0.50500
 H203 H 0.95313 0.50871 0.41964
 H204 H 1.03639 0.57939 0.51056
 H205 H 0.98897 0.38411 0.53421
 H206 H 1.00126 0.38738 0.42242
 H207 H 1.01278 0.47476 0.37310
 H208 H 1.01127 0.54107 0.37548
 H209 H 0.99437 0.62433 0.43121
 H210 H 0.99410 0.61895 0.59013
 H211 H 1.00677 0.52627 0.64074
 H212 H 0.99645 0.42768 0.63751
 O213 O 0.56323 -0.05524 0.57441
 O214 O 0.53802 -0.09940 0.53414
 C215 C 0.55968 -0.09005 0.56213
 O216 O 0.43915 0.04910 0.57238
 O217 O 0.46569 0.09370 0.53357
 C218 C 0.44477 0.08416 0.56242
 O219 O 0.44896 -0.05674 0.57530
 O220 O 0.48005 -0.10017 0.53427
 C221 C 0.45855 -0.09153 0.56432
 O222 O 0.55700 0.05023 0.57180
 O223 O 0.52441 0.09417 0.53284
 C224 C 0.54753 0.08505 0.56025
 Zr225 Zr 0.54208 -0.00275 0.55101
 O226 O 0.54199 -0.00100 0.61907
 O227 O 0.59338 -0.00249 0.54649
 Zr228 Zr 0.46123 -0.00370 0.55074
 O229 O 0.46458 -0.00308 0.61860
 O230 O 0.41009 -0.00698 0.55197
 O231 O 0.50419 -0.03840 0.55899
 O232 O 0.49920 0.03078 0.55909
 O233 O 0.56018 0.05215 0.42717
 O234 O 0.52494 0.09507 0.46314
 C235 C 0.55017 0.08669 0.43886
 O236 O 0.44985 -0.05491 0.41675
 O237 O 0.48046 -0.09928 0.45756
 C238 C 0.45911 -0.09000 0.42754
 O239 O 0.44027 0.05082 0.42043
 O240 O 0.46666 0.09442 0.45991
 C241 C 0.44587 0.08565 0.43081
 O242 O 0.56343 -0.05422 0.42013
 O243 O 0.53802 -0.09924 0.45987
 C244 C 0.55948 -0.08930 0.43187
 Zr245 Zr 0.54269 -0.00138 0.44314
 O246 O 0.54213 0.00409 0.37522
 O247 O 0.59416 -0.00293 0.44576
 Zr248 Zr 0.46153 -0.00229 0.44276
 O249 O 0.45943 0.00154 0.37484
 O250 O 0.41044 -0.00401 0.44795
 Zr251 Zr 0.50610 -0.06125 0.49635
 Zr252 Zr 0.49756 0.05572 0.49728
 O253 O 0.49988 0.03221 0.43513
 O254 O 0.50473 -0.03666 0.43401
 O255 O 0.54619 0.03220 0.49754
 O256 O 0.45771 -0.03693 0.49639
 O257 O 0.55079 -0.03561 0.49686
 O258 O 0.45220 0.03157 0.49692
 H259 H 0.49820 0.04768 0.58465
 H260 H 0.43958 -0.05409 0.49620
 H261 H 0.49953 0.04984 0.40995
 H262 H 0.57177 -0.05155 0.49695
 H263 H 0.40085 0.01033 0.52899
 H264 H 0.40200 -0.00387 0.41811
 H265 H 0.47822 -0.01470 0.36352
 H266 H 0.53387 -0.01961 0.36344
 H267 H 0.60201 -0.00252 0.41558
 H268 H 0.60173 -0.00277 0.57640
 H269 H 0.52682 -0.01984 0.62929
 H270 H 0.44196 -0.00288 0.62967
 O271 O 0.54965 0.55058 0.06470
 O272 O 0.58221 0.51991 0.01335
 C273 C 0.57778 0.54115 0.04706
 O274 O 0.45897 0.42306 0.05537
 O275 O 0.41962 0.46632 0.02740
 C276 C 0.42885 0.43624 0.05057
 O277 O 0.54985 0.41988 0.04694
 O278 O 0.58265 0.45718 0.00701
 C279 C 0.57820 0.42964 0.03406
 O280 O 0.45860 0.56410 0.07161
 O281 O 0.41950 0.53459 0.03434
 C282 C 0.42846 0.55869 0.06294
 Zr283 Zr 0.50216 0.53973 0.04404
 O284 O 0.50418 0.53336 0.11176
 O285 O 0.50363 0.60016 0.04749
 Zr286 Zr 0.50234 0.44402 0.03180
 O287 O 0.50618 0.44041 0.09951
 O288 O 0.50491 0.38342 0.02562
 O289 O 0.53187 0.48877 0.04235
 O290 O 0.47424 0.49312 0.04949
 O291 O 0.44801 0.58050 -0.07240
 O292 O 0.41403 0.54231 -0.03583
 C293 C 0.41949 0.57231 -0.05911
 O294 O 0.53773 0.43699 -0.10720
 O295 O 0.57680 0.46370 -0.06709
 C296 C 0.56787 0.44195 -0.09787
 O297 O 0.44782 0.44096 -0.09339
 O298 O 0.41413 0.47498 -0.04594
 C299 C 0.41929 0.45130 -0.07777
 O300 O 0.53764 0.57161 -0.08841
 O301 O 0.57654 0.52912 -0.05843
 C302 C 0.56771 0.55946 -0.08116
 Zr303 Zr 0.49432 0.55219 -0.06281
 O304 O 0.49103 0.56022 -0.13039
 O305 O 0.49504 0.61184 -0.05100
 Zr306 Zr 0.49422 0.45643 -0.07538
 O307 O 0.48726 0.46343 -0.14246
 O308 O 0.49546 0.39581 -0.07940
 Zr309 Zr 0.54664 0.49446 -0.02219
 Zr310 Zr 0.44935 0.50148 -0.00925
 O311 O 0.46515 0.50743 -0.07319
 O312 O 0.52271 0.50314 -0.08151
 O313 O 0.46929 0.55527 -0.00471
 O314 O 0.52653 0.44097 -0.02642
 O315 O 0.52648 0.55086 -0.01203
 O316 O 0.46921 0.44472 -0.01900
 H317 H 0.46145 0.49178 0.07645
 H318 H 0.54104 0.41731 -0.03085
 H319 H 0.44847 0.51155 -0.09598
 H320 H 0.54066 0.57255 -0.01038
 H321 H 0.49031 0.37767 0.00164
 H322 H 0.49356 0.38979 -0.11037
 H323 H 0.49938 0.48562 -0.15141
 H324 H 0.46919 0.55384 -0.13995
 H325 H 0.49332 0.62486 -0.07946
 H326 H 0.50681 0.60610 0.07826
 H327 H 0.51914 0.51042 0.11795
 H328 H 0.50751 0.41260 0.10679
 C329 C 1.16771 0.14137 0.15193
 C330 C 1.18649 0.16265 0.12345
 C331 C 1.20696 0.18983 0.13972
 C332 C 1.20960 0.19536 0.18438
 C333 C 1.19256 0.17192 0.21218
 C334 C 1.17188 0.14560 0.19642
 C335 C 1.14415 0.11517 0.13355
 C336 C 1.12114 0.09730 0.15905
 C337 C 1.09833 0.07503 0.14019
 C338 C 1.09841 0.06921 0.09571
 C339 C 1.12159 0.08609 0.07002
 C340 C 1.14379 0.10995 0.08845
 C341 C 1.18475 0.15646 0.07900
 C342 C 1.16438 0.13008 0.06197
 H343 H 1.19944 0.17216 0.05702
 H344 H 1.16394 0.12633 0.02739
 H345 H 1.22060 0.20629 0.11740
 H346 H 1.19486 0.17456 0.24674
 H347 H 1.08023 0.06271 0.16036
 H348 H 1.12097 0.08261 0.03538
 H349 H 1.15949 0.12879 0.21966
 H350 H 1.11952 0.10130 0.19338
 C351 C 1.16406 0.65489 0.63864
 C352 C 1.15749 0.67204 0.67908
 C353 C 1.17843 0.69790 0.69563
 C354 C 1.20570 0.70849 0.67227
 C355 C 1.21185 0.69212 0.63162
 C356 C 1.19124 0.66573 0.61494
 C357 C 1.14147 0.62630 0.62291
 C358 C 1.14676 0.60564 0.58441
 C359 C 1.12404 0.58083 0.57015
 C360 C 1.09551 0.57617 0.59381
 C361 C 1.09079 0.59515 0.63313
 C362 C 1.11357 0.61981 0.64796
 C363 C 1.13009 0.66341 0.70299
 C364 C 1.10831 0.63826 0.68745
 H365 H 1.12512 0.67677 0.73395
 H366 H 1.08710 0.63305 0.70676
 H367 H 1.17381 0.70945 0.72757
 H368 H 1.23292 0.69855 0.61293
 H369 H 1.12819 0.56656 0.53954
 H370 H 1.06897 0.59133 0.65183
 H371 H 1.19712 0.65403 0.58360
 H372 H 1.16798 0.60862 0.56459
 C373 C 0.65249 0.15944 0.62820
 C374 C 0.66858 0.18608 0.60314
 C375 C 0.69635 0.20215 0.61977
 C376 C 0.70939 0.18995 0.66023
 C377 C 0.69507 0.15941 0.68151
 C378 C 0.66725 0.14449 0.66585
 C379 C 0.62074 0.14701 0.61310
 C380 C 0.60020 0.12721 0.64012
 C381 C 0.57318 0.11117 0.62331
 C382 C 0.56599 0.11480 0.57945
 C383 C 0.58369 0.13897 0.55340
 C384 C 0.61099 0.15567 0.57038
 C385 C 0.65652 0.19634 0.56204
 C386 C 0.62910 0.18007 0.54525
 H387 H 0.66903 0.21618 0.54210
 H388 H 0.62158 0.18733 0.51262
 H389 H 0.70636 0.22543 0.60217
 H390 H 0.70362 0.14912 0.71276
 H391 H 0.55936 0.09312 0.64390
 H392 H 0.57788 0.14224 0.51952
 H393 H 0.65716 0.12183 0.68426
 H394 H 0.60526 0.12273 0.67393
 C395 C 0.67793 0.62610 0.11971
 C396 C 0.67928 0.62706 0.16506
 C397 C 0.69817 0.65293 0.18530
 C398 C 0.71500 0.67966 0.16163
 C399 C 0.71421 0.67849 0.11657
 C400 C 0.69601 0.65178 0.09576
 C401 C 0.65529 0.59989 0.09959
 C402 C 0.65265 0.59556 0.05476
 C403 C 0.62839 0.57436 0.03771
 C404 C 0.60628 0.55756 0.06503
 C405 C 0.61004 0.55931 0.10947
 C406 C 0.63464 0.57983 0.12696
 C407 C 0.66031 0.60390 0.19027
 C408 C 0.63796 0.58128 0.17159
 H409 H 0.66165 0.60468 0.22508
 H410 H 0.62262 0.56525 0.19241
 H411 H 0.69838 0.65385 0.22020
 H412 H 0.72670 0.69860 0.09718
 H413 H 0.62583 0.57276 0.00311
 H414 H 0.59325 0.54545 0.13040
 H415 H 0.69543 0.65269 0.06107
 H416 H 0.66849 0.60897 0.03245
 C417 C 0.82834 -0.15119 0.14912
 C418 C 0.80152 -0.15982 0.12349
 C419 C 0.77977 -0.18624 0.13843
 C420 C 0.78420 -0.20430 0.17886
 C421 C 0.80994 -0.19422 0.20485
 C422 C 0.83169 -0.16811 0.19035
 C423 C 0.85236 -0.12509 0.13081
 C424 C 0.88121 -0.11744 0.15235
 C425 C 0.90394 -0.09524 0.13285
 C426 C 0.89848 -0.07947 0.09164
 C427 C 0.86927 -0.08557 0.07043
 C428 C 0.84652 -0.10887 0.08934
 C429 C 0.79684 -0.14243 0.08293
 C430 C 0.81867 -0.11726 0.06642
 H431 H 0.77612 -0.14867 0.06342
 H432 H 0.81411 -0.10494 0.03471
 H433 H 0.75945 -0.19289 0.11839
 H434 H 0.81406 -0.20739 0.23607
 H435 H 0.92622 -0.09076 0.15000
 H436 H 0.86502 -0.07381 0.03841
 H437 H 0.85116 -0.16200 0.21180
 H438 H 0.88720 -0.12914 0.18378
 C439 C 0.83028 0.34716 0.64696
 C440 C 0.80568 0.33449 0.62009
 C441 C 0.78482 0.30726 0.63541
 C442 C 0.78758 0.29231 0.67774
 C443 C 0.81158 0.30620 0.70451
 C444 C 0.83253 0.33301 0.68945
 C445 C 0.85318 0.37466 0.62871
 C446 C 0.87996 0.38658 0.65189
 C447 C 0.90188 0.41001 0.63262
 C448 C 0.89748 0.42285 0.59006
 C449 C 0.87023 0.41254 0.56707
 C450 C 0.84844 0.38794 0.58579
 C451 C 0.80203 0.34901 0.57802
 C452 C 0.82276 0.37537 0.56138
 H453 H 0.78296 0.33963 0.55747
 H454 H 0.81909 0.38538 0.52853
 H455 H 0.76584 0.29873 0.61424
 H456 H 0.81564 0.29549 0.73683
 H457 H 0.92277 0.41770 0.65094
 H458 H 0.86703 0.42191 0.53394
 H459 H 0.85050 0.34195 0.71167
 H460 H 0.88504 0.37732 0.68450
 C461 C 0.36478 -0.18463 0.64305
 C462 C 0.34995 -0.16912 0.68098
 C463 C 0.32151 -0.18380 0.69751
 C464 C 0.30761 -0.21460 0.67749
 C465 C 0.32342 -0.23114 0.64105
 C466 C 0.35136 -0.21628 0.62390
 C467 C 0.39347 -0.16580 0.62441
 C468 C 0.40815 -0.17627 0.58452
 C469 C 0.43193 -0.15429 0.56612
 C470 C 0.44176 -0.12178 0.58734
 C471 C 0.42945 -0.11349 0.62872
 C472 C 0.40495 -0.13433 0.64676
 C473 C 0.36333 -0.13865 0.70203
 C474 C 0.39046 -0.12197 0.68558
 H475 H 0.35237 -0.12713 0.73141
 H476 H 0.39942 -0.09791 0.70268
 H477 H 0.30991 -0.17036 0.72543
 H478 H 0.31445 -0.25594 0.62558
 H479 H 0.44091 -0.16115 0.53413
 H480 H 0.43710 -0.08855 0.64559
 H481 H 0.36209 -0.23001 0.59570
 H482 H 0.40041 -0.20002 0.56605
 C483 C 0.33481 0.34880 0.14102
 C484 C 0.30328 0.34818 0.12305
 C485 C 0.28030 0.32523 0.14201
 C486 C 0.28814 0.30364 0.17940
 C487 C 0.31907 0.30529 0.19768
 C488 C 0.34209 0.32746 0.17889
 C489 C 0.35915 0.37214 0.11894
 C490 C 0.39178 0.37189 0.13242
 C491 C 0.41385 0.39308 0.11027
 C492 C 0.40414 0.41555 0.07425
 C493 C 0.37150 0.41666 0.06090
 C494 C 0.34915 0.39446 0.08239
 C495 C 0.29493 0.37058 0.08650
 C496 C 0.31722 0.39360 0.06697
 H497 H 0.27073 0.37045 0.07286
 H498 H 0.30952 0.41043 0.03884
 H499 H 0.25625 0.32447 0.12803
 H500 H 0.32587 0.28863 0.22624
 H501 H 0.43881 0.39179 0.12155
 H502 H 0.36375 0.43384 0.03312
 H503 H 0.36539 0.32740 0.19466
 H504 H 0.40106 0.35499 0.15949
 C505 C 0.82978 0.15832 -0.15901
 C506 C 0.80555 0.13856 -0.17958
 C507 C 0.78567 0.15725 -0.21112
 C508 C 0.78904 0.19598 -0.22311
 C509 C 0.81226 0.21593 -0.20093
 C510 C 0.83239 0.19741 -0.16963
 C511 C 0.85197 0.13634 -0.12760
 C512 C 0.87850 0.15245 -0.10797
 C513 C 0.90026 0.12987 -0.08230
 C514 C 0.89594 0.09082 -0.07478
 C515 C 0.86862 0.07489 -0.09203
 C516 C 0.84700 0.09714 -0.11902
 C517 C 0.80133 0.10008 -0.16887
 C518 C 0.82145 0.07992 -0.13907
 H519 H 0.78242 0.08508 -0.18428
 H520 H 0.81750 0.05003 -0.13254
 H521 H 0.76687 0.14134 -0.22535
 H522 H 0.81622 0.24546 -0.20864
 H523 H 0.92119 0.14278 -0.06915
 H524 H 0.86543 0.04459 -0.08681
 H525 H 0.85008 0.21418 -0.15449
 H526 H 0.88360 0.18201 -0.11321
 C527 C 0.82411 0.66638 0.35316
 C528 C 0.79628 0.64858 0.33929
 C529 C 0.77623 0.66617 0.30742
 C530 C 0.78402 0.70078 0.28785
 C531 C 0.81026 0.71967 0.30355
 C532 C 0.83011 0.70279 0.33592
 C533 C 0.84711 0.64441 0.38320
 C534 C 0.87649 0.65860 0.39661
 C535 C 0.89931 0.63510 0.41932
 C536 C 0.89334 0.59706 0.42984
 C537 C 0.86307 0.58358 0.42000
 C538 C 0.84009 0.60681 0.39620
 C539 C 0.78949 0.61246 0.35562
 C540 C 0.81100 0.59195 0.38344
 H541 H 0.76786 0.59915 0.34538
 H542 H 0.80533 0.56345 0.39383
 H543 H 0.75515 0.65205 0.29660
 H544 H 0.81642 0.74662 0.28954
 H545 H 0.92225 0.64647 0.42767
 H546 H 0.85825 0.55427 0.42838
 H547 H 0.85059 0.71813 0.34575
 H548 H 0.88292 0.68721 0.38867
 C549 C 0.35676 0.18514 0.33029
 C550 C 0.35257 0.17333 0.28724
 C551 C 0.32647 0.18948 0.26273
 C552 C 0.30393 0.21714 0.28029
 C553 C 0.30885 0.23053 0.32198
 C554 C 0.33494 0.21464 0.34690
 C555 C 0.38315 0.16409 0.35663
 C556 C 0.38868 0.17172 0.40054
 C557 C 0.41096 0.14791 0.42469
 C558 C 0.42795 0.11616 0.40546
 C559 C 0.42445 0.11023 0.36129
 C560 C 0.40222 0.13353 0.33693
 C561 C 0.37364 0.14443 0.26919
 C562 C 0.39794 0.12493 0.29352
 H563 H 0.37062 0.13584 0.23607
 H564 H 0.41291 0.10182 0.27847
 H565 H 0.32319 0.17978 0.23005
 H566 H 0.29177 0.25220 0.33589
 H567 H 0.41356 0.15302 0.45874
 H568 H 0.43799 0.08595 0.34622
 H569 H 0.33713 0.22508 0.37928
 H570 H 0.37523 0.19498 0.41709
 C571 C 0.32452 0.67453 -0.14424
 C572 C 0.29444 0.66033 -0.15535
 C573 C 0.27390 0.68062 -0.18499
 C574 C 0.28391 0.71353 -0.20629
 C575 C 0.31371 0.72755 -0.19496
 C576 C 0.33361 0.70861 -0.16408
 C577 C 0.34679 0.65079 -0.11499
 C578 C 0.37644 0.66348 -0.10061
 C579 C 0.39893 0.63820 -0.07974
 C580 C 0.39234 0.59981 -0.07215
 C581 C 0.36135 0.58805 -0.08165
 C582 C 0.33846 0.61344 -0.10311
 C583 C 0.28602 0.62477 -0.13902
 C584 C 0.30791 0.60138 -0.11427
 H585 H 0.26291 0.61389 -0.14746
 H586 H 0.30108 0.57320 -0.10444
 H587 H 0.25067 0.66970 -0.19268
 H588 H 0.32261 0.75219 -0.21127
 H589 H 0.42226 0.64836 -0.07104
 H590 H 0.35586 0.55865 -0.07496
 H591 H 0.35674 0.72010 -0.15794
 H592 H 0.38317 0.69240 -0.10626
 C593 C 1.17466 -0.14581 -0.16220
 C594 C 1.16991 -0.18504 -0.16957
 C595 C 1.18990 -0.20633 -0.19855
 C596 C 1.21381 -0.18903 -0.22248
 C597 C 1.21961 -0.15070 -0.21430
 C598 C 1.20029 -0.12921 -0.18432
 C599 C 1.15090 -0.12351 -0.13312
 C600 C 1.15342 -0.08457 -0.12229
 C601 C 1.12921 -0.06465 -0.09747
 C602 C 1.10181 -0.08292 -0.08363
 C603 C 1.09979 -0.12193 -0.09269
 C604 C 1.12415 -0.14239 -0.11661
 C605 C 1.14416 -0.20249 -0.14986
 C606 C 1.12151 -0.18149 -0.12446
 H607 H 1.14073 -0.23258 -0.15552
 H608 H 1.10134 -0.19603 -0.11116
 H609 H 1.18572 -0.23625 -0.20431
 H610 H 1.23812 -0.13697 -0.23235
 H611 H 1.13131 -0.03462 -0.09036
 H612 H 1.07897 -0.13640 -0.08119
 H613 H 1.20494 -0.09942 -0.18007
 H614 H 1.17367 -0.06901 -0.13302
 C615 C 1.17207 0.34893 0.34846
 C616 C 1.16633 0.30950 0.34500
 C617 C 1.18580 0.28537 0.31813
 C618 C 1.21035 0.29986 0.29286
 C619 C 1.21718 0.33840 0.29747
 C620 C 1.19829 0.36277 0.32506
 C621 C 1.14872 0.37431 0.37493
 C622 C 1.15186 0.41401 0.38109
 C623 C 1.12781 0.43671 0.40332
 C624 C 1.10010 0.42030 0.41910
 C625 C 1.09753 0.38074 0.41488
 C626 C 1.12157 0.35768 0.39347
 C627 C 1.14019 0.29457 0.36659
 C628 C 1.11807 0.31823 0.38993
 H629 H 1.13605 0.26431 0.36407
 H630 H 1.09755 0.30553 0.40483
 H631 H 1.18092 0.25531 0.31549
 H632 H 1.23613 0.35012 0.27828
 H633 H 1.13028 0.46725 0.40685
 H634 H 1.07641 0.36790 0.42807
 H635 H 1.20379 0.39252 0.32644
 H636 H 1.17240 0.42804 0.36855
 C637 C 0.65446 -0.18208 0.33551
 C638 C 0.64521 -0.21645 0.31700
 C639 C 0.66616 -0.23650 0.28788
 C640 C 0.69554 -0.22164 0.27465
 C641 C 0.70422 -0.18707 0.29240
 C642 C 0.68410 -0.16759 0.32258
 C643 C 0.63133 -0.16129 0.36602
 C644 C 0.63964 -0.12879 0.38868
 C645 C 0.61622 -0.10740 0.41234
 C646 C 0.58399 -0.11785 0.41436
 C647 C 0.57606 -0.15237 0.39572
 C648 C 0.59975 -0.17435 0.37159
 C649 C 0.61461 -0.22976 0.32634
 C650 C 0.59203 -0.20864 0.35221
 H651 H 0.60748 -0.25611 0.31200
 H652 H 0.56818 -0.21923 0.35694
 H653 H 0.65921 -0.26359 0.27531
 H654 H 0.72622 -0.17440 0.28230
 H655 H 0.62306 -0.08147 0.42792
 H656 H 0.55131 -0.16091 0.39798
 H657 H 0.69172 -0.14065 0.33429
 H658 H 0.66385 -0.11893 0.38787
 C659 C 0.66552 0.33882 -0.18147
 C660 C 0.65464 0.30311 -0.19417
 C661 C 0.67556 0.27648 -0.21581
 C662 C 0.70720 0.28494 -0.22788
 C663 C 0.71879 0.31951 -0.21320
 C664 C 0.69816 0.34620 -0.19036
 C665 C 0.64134 0.36716 -0.16014
 C666 C 0.64925 0.40333 -0.14471
 C667 C 0.62542 0.42838 -0.12505
 C668 C 0.59317 0.41818 -0.12135
 C669 C 0.58522 0.38251 -0.13685
 C670 C 0.60886 0.35690 -0.15532
 C671 C 0.62250 0.29433 -0.18678
 C672 C 0.60000 0.32083 -0.16823
 H673 H 0.61434 0.26685 -0.19658
 H674 H 0.57520 0.31295 -0.16398
 H675 H 0.66666 0.24890 -0.22369
 H676 H 0.74294 0.32739 -0.22157
 H677 H 0.63221 0.45564 -0.11266
 H678 H 0.56060 0.37386 -0.13299
 H679 H 0.70781 0.37290 -0.18124
 H680 H 0.67368 0.41243 -0.14700
 C681 C 1.17053 0.14956 -0.12179
 C682 C 1.19899 0.13072 -0.13961
 C683 C 1.22110 0.15207 -0.16254
 C684 C 1.21533 0.19230 -0.16731
 C685 C 1.18885 0.21086 -0.14512
 C686 C 1.16676 0.18996 -0.12282
 C687 C 1.14528 0.12571 -0.10317
 C688 C 1.11392 0.14155 -0.09233
 C689 C 1.09043 0.11816 -0.07737
 C690 C 1.09759 0.07846 -0.07210
 C691 C 1.12890 0.06225 -0.08212
 C692 C 1.15245 0.08547 -0.09913
 C693 C 1.20481 0.09071 -0.13486
 C694 C 1.18240 0.06870 -0.11399
 H695 H 1.22694 0.07617 -0.14760
 H696 H 1.18798 0.03788 -0.11117
 H697 H 1.24211 0.13687 -0.17706
 H698 H 1.18444 0.24189 -0.14670
 H699 H 1.06647 0.13135 -0.06949
 H700 H 1.13446 0.03156 -0.07835
 H701 H 1.14668 0.20597 -0.10714
 H702 H 1.10667 0.17175 -0.09636
 C703 C 1.16812 0.65762 0.38184
 C704 C 1.19746 0.63928 0.36600
 C705 C 1.21984 0.66098 0.34408
 C706 C 1.21310 0.70085 0.33725
 C707 C 1.18622 0.71929 0.35873
 C708 C 1.16385 0.69803 0.38030
 C709 C 1.14277 0.63324 0.39939
 C710 C 1.11088 0.64839 0.40847
 C711 C 1.08745 0.62451 0.42263
 C712 C 1.09513 0.58497 0.42874
 C713 C 1.12693 0.56941 0.42021
 C714 C 1.15052 0.59314 0.40422
 C715 C 1.20388 0.59944 0.37160
 C716 C 1.18121 0.57700 0.39128
 H717 H 1.22668 0.58535 0.36036
 H718 H 1.18726 0.54632 0.39474
 H719 H 1.24202 0.64652 0.33146
 H720 H 1.18182 0.75029 0.35798
 H721 H 1.06313 0.63723 0.42933
 H722 H 1.13289 0.53879 0.42446
 H723 H 1.14325 0.71374 0.39520
 H724 H 1.10329 0.67843 0.40375
 C725 C 0.63973 0.19258 0.37344
 C726 C 0.67324 0.18064 0.37799
 C727 C 0.69682 0.19962 0.35520
 C728 C 0.68772 0.22983 0.32656
 C729 C 0.65467 0.24380 0.32535
 C730 C 0.63102 0.22527 0.34805
 C731 C 0.61509 0.16882 0.39433
 C732 C 0.58101 0.17671 0.38985
 C733 C 0.55930 0.15103 0.40605
 C734 C 0.57127 0.11705 0.42653
 C735 C 0.60482 0.11019 0.43348
 C736 C 0.62673 0.13558 0.41760
 C737 C 0.68299 0.14889 0.40390
 C738 C 0.66021 0.12682 0.42332
 H739 H 0.70864 0.14017 0.40806
 H740 H 0.66896 0.10171 0.44189
 H741 H 0.72234 0.18975 0.35830
 H742 H 0.64654 0.26899 0.30681
 H743 H 0.53336 0.15681 0.40088
 H744 H 0.61395 0.08418 0.45026
 H745 H 0.60603 0.23662 0.34469
 H746 H 0.57071 0.20184 0.37289
 C747 C 0.66632 0.66478 -0.11538
 C748 C 0.69873 0.64942 -0.12088
 C749 C 0.72209 0.67292 -0.13739
 C750 C 0.71286 0.71125 -0.15027
 C751 C 0.68268 0.72785 -0.13505
 C752 C 0.65944 0.70479 -0.11846
 C753 C 0.64058 0.63771 -0.10786
 C754 C 0.60732 0.64928 -0.11233
 C755 C 0.58394 0.62301 -0.10627
 C756 C 0.59305 0.58457 -0.09519
 C757 C 0.62630 0.57237 -0.09232
 C758 C 0.65011 0.59851 -0.09965
 C759 C 0.70700 0.61039 -0.11195
 C760 C 0.68323 0.58565 -0.10028
 H761 H 0.73206 0.59866 -0.11484
 H762 H 0.69068 0.55565 -0.09395
 H763 H 0.74658 0.66022 -0.14232
 H764 H 0.67561 0.75805 -0.14077
 H765 H 0.55852 0.63337 -0.10883
 H766 H 0.63364 0.54264 -0.08434
 H767 H 0.63580 0.71838 -0.11029
 H768 H 0.59892 0.67840 -0.12106
 C769 C 0.82591 -0.13386 -0.15281
 C770 C 0.79612 -0.13776 -0.13118
 C771 C 0.77318 -0.16150 -0.14819
 C772 C 0.77906 -0.18191 -0.18695
 C773 C 0.80747 -0.17495 -0.21021
 C774 C 0.83061 -0.15158 -0.19330
 C775 C 0.85127 -0.11170 -0.13103
 C776 C 0.88303 -0.10985 -0.14737
 C777 C 0.90638 -0.09107 -0.12465
 C778 C 0.89886 -0.07305 -0.08511
 C779 C 0.86693 -0.07370 -0.06911
 C780 C 0.84342 -0.09354 -0.09124
 C781 C 0.78963 -0.11859 -0.09218
 C782 C 0.81253 -0.09654 -0.07302
 H783 H 0.76656 -0.12103 -0.07589
 H784 H 0.80630 -0.08259 -0.04275
 H785 H 0.75065 -0.16417 -0.13070
 H786 H 0.81337 -0.18959 -0.24010
 H787 H 0.93065 -0.09090 -0.13818
 H788 H 0.86071 -0.06004 -0.03867
 H789 H 0.85238 -0.14848 -0.21200
 H790 H 0.89060 -0.12355 -0.17714
 C791 C 0.82978 0.35902 0.35220
 C792 C 0.79800 0.35935 0.36961
 C793 C 0.77508 0.33619 0.35143
 C794 C 0.78342 0.31200 0.31628
 C795 C 0.81492 0.31204 0.29914
 C796 C 0.83776 0.33509 0.31669
 C797 C 0.85371 0.38361 0.37289
 C798 C 0.88574 0.38529 0.35764
 C799 C 0.90765 0.40704 0.37884
 C800 C 0.89851 0.42813 0.41591
 C801 C 0.86618 0.42799 0.43056
 C802 C 0.84382 0.40570 0.40946
 C803 C 0.78944 0.38240 0.40534
 C804 C 0.81186 0.40491 0.42491
 H805 H 0.76509 0.38271 0.41875
 H806 H 0.80408 0.42181 0.45274
 H807 H 0.75069 0.33718 0.36474
 H808 H 0.82238 0.29352 0.27264
 H809 H 0.93218 0.40690 0.36611
 H810 H 0.85865 0.44435 0.45887
 H811 H 0.86164 0.33322 0.30222
 H812 H 0.89463 0.36974 0.32962
 C813 C 0.36760 -0.18787 0.35156
 C814 C 0.35068 -0.17237 0.31493
 C815 C 0.32319 -0.18946 0.29923
 C816 C 0.31204 -0.22227 0.31914
 C817 C 0.32971 -0.23847 0.35443
 C818 C 0.35694 -0.22153 0.37051
 C819 C 0.39532 -0.16686 0.36923
 C820 C 0.41252 -0.17806 0.40722
 C821 C 0.43551 -0.15477 0.42481
 C822 C 0.44198 -0.11998 0.40479
 C823 C 0.42693 -0.11043 0.36517
 C824 C 0.40342 -0.13293 0.34782
 C825 C 0.36086 -0.13939 0.29458
 C826 C 0.38676 -0.12027 0.31048
 H827 H 0.34823 -0.12774 0.26627
 H828 H 0.39315 -0.09437 0.29402
 H829 H 0.30991 -0.17624 0.27226
 H830 H 0.32261 -0.26449 0.36984
 H831 H 0.44677 -0.16287 0.45529
 H832 H 0.43199 -0.08385 0.34898
 H833 H 0.36918 -0.23509 0.39793
 H834 H 0.40759 -0.20380 0.42476
 C835 C 0.32221 0.36001 -0.15043
 C836 C 0.32877 0.34528 -0.19212
 C837 C 0.30981 0.31734 -0.20924
 C838 C 0.28449 0.30258 -0.18516
 C839 C 0.27806 0.31758 -0.14375
 C840 C 0.29644 0.34591 -0.12675
 C841 C 0.34430 0.38820 -0.13247
 C842 C 0.33986 0.40505 -0.09147
 C843 C 0.36325 0.42780 -0.07450
 C844 C 0.39151 0.43401 -0.09790
 C845 C 0.39479 0.41993 -0.13997
 C846 C 0.37157 0.39720 -0.15733
 C847 C 0.35510 0.35726 -0.21599
 C848 C 0.37623 0.38239 -0.19880
 H849 H 0.36008 0.34608 -0.24799
 H850 H 0.39691 0.38977 -0.21800
 H851 H 0.31670 0.30546 -0.24028
 H852 H 0.25826 0.30818 -0.12434
 H853 H 0.35995 0.43905 -0.04232
 H854 H 0.41619 0.42549 -0.15878
 H855 H 0.29040 0.35588 -0.09474
 H856 H 0.31900 0.40027 -0.07163
 C857 C 1.17503 -0.13828 0.18444
 C858 C 1.20027 -0.16129 0.16395
 C859 C 1.22172 -0.18620 0.18867
 C860 C 1.21813 -0.18821 0.23359
 C861 C 1.19514 -0.16250 0.25376
 C862 C 1.17399 -0.13776 0.22969
 C863 C 1.14974 -0.11652 0.15710
 C864 C 1.12103 -0.09820 0.17456
 C865 C 1.09700 -0.08071 0.14789
 C866 C 1.10102 -0.08018 0.10315
 C867 C 1.12983 -0.09754 0.08517
 C868 C 1.15376 -0.11674 0.11182
 C869 C 1.20310 -0.16012 0.11897
 C870 C 1.18077 -0.13770 0.09358
 H871 H 1.22268 -0.17713 0.10308
 H872 H 1.18397 -0.13808 0.05896
 H873 H 1.23964 -0.20571 0.17282
 H874 H 1.19248 -0.16289 0.28845
 H875 H 1.07496 -0.06750 0.16237
 H876 H 1.13281 -0.09779 0.05051
 H877 H 1.15646 -0.11926 0.24714
 H878 H 1.11611 -0.09811 0.20864
 C879 C 1.16931 0.34744 0.66985
 C880 C 1.16020 0.33766 0.71227
 C881 C 1.17974 0.31097 0.73626
 C882 C 1.20828 0.29296 0.71875
 C883 C 1.21813 0.30340 0.67742
 C884 C 1.19882 0.33030 0.65305
 C885 C 1.14643 0.37453 0.64455
 C886 C 1.15247 0.38596 0.60174
 C887 C 1.12897 0.40893 0.57874
 C888 C 1.09905 0.42065 0.59795
 C889 C 1.09359 0.41108 0.64101
 C890 C 1.11680 0.38829 0.66430
 C891 C 1.13122 0.35377 0.73040
 C892 C 1.10991 0.37845 0.70686
 H893 H 1.12451 0.34644 0.76302
 H894 H 1.08735 0.38943 0.72197
 H895 H 1.17252 0.30388 0.76877
 H896 H 1.24030 0.29004 0.66355
 H897 H 1.13364 0.41624 0.54547
 H898 H 1.07069 0.42076 0.65625
 H899 H 1.20708 0.33678 0.62105
 H900 H 1.17479 0.37682 0.58526
 C901 C 0.65865 -0.18711 0.65145
 C902 C 0.68810 -0.16990 0.66018
 C903 C 0.71078 -0.18694 0.69002
 C904 C 0.70411 -0.22063 0.71250
 C905 C 0.67620 -0.23921 0.70027
 C906 C 0.65391 -0.22282 0.67050
 C907 C 0.63322 -0.16576 0.62376
 C908 C 0.60183 -0.17858 0.61623
 C909 C 0.57787 -0.15526 0.59410
 C910 C 0.58483 -0.11884 0.57912
 C911 C 0.61660 -0.10718 0.58403
 C912 C 0.64047 -0.12977 0.60664
 C913 C 0.69408 -0.13492 0.64044
 C914 C 0.67090 -0.11546 0.61400
 H915 H 0.71670 -0.12185 0.64639
 H916 H 0.67642 -0.08796 0.60043
 H917 H 0.73208 -0.17201 0.69800
 H918 H 0.67121 -0.26689 0.71364
 H919 H 0.55360 -0.16486 0.59054
 H920 H 0.62240 -0.07929 0.57175
 H921 H 0.63282 -0.23825 0.66351
 H922 H 0.59492 -0.20582 0.62851
 C923 C 0.68147 0.34669 0.12850
 C924 C 0.67930 0.30647 0.13269
 C925 C 0.69714 0.28578 0.16460
 C926 C 0.71570 0.30481 0.19420
 C927 C 0.71980 0.34397 0.18854
 C928 C 0.70305 0.36479 0.15571
 C929 C 0.65809 0.36859 0.09869
 C930 C 0.65765 0.40875 0.09243
 C931 C 0.63242 0.42841 0.06929
 C932 C 0.60713 0.40846 0.05235
 C933 C 0.60851 0.36837 0.05568
 C934 C 0.63395 0.34827 0.07821
 C935 C 0.65711 0.28763 0.10791
 C936 C 0.63455 0.30819 0.08171
 H937 H 0.65580 0.25677 0.11085
 H938 H 0.61658 0.29260 0.06509
 H939 H 0.69407 0.25537 0.16922
 H940 H 0.73397 0.35900 0.21143
 H941 H 0.63178 0.45948 0.06647
 H942 H 0.58924 0.35293 0.04167
 H943 H 0.70566 0.39533 0.15405
 H944 H 0.67600 0.42555 0.10600
 C945 C 0.82441 0.15692 0.16934
 C946 C 0.83505 0.19090 0.18780
 C947 C 0.81404 0.21424 0.21410
 C948 C 0.78236 0.20434 0.22310
 C949 C 0.77177 0.17070 0.20464
 C950 C 0.79241 0.14733 0.17817
 C951 C 0.84799 0.13253 0.14185
 C952 C 0.84020 0.09816 0.12155
 C953 C 0.86375 0.07592 0.09772
 C954 C 0.89558 0.08734 0.09375
 C955 C 0.90304 0.12213 0.11270
 C956 C 0.87982 0.14453 0.13650
 C957 C 0.86675 0.20130 0.18034
 C958 C 0.88865 0.17859 0.15540
 H959 H 0.87492 0.22727 0.19440
 H960 H 0.91304 0.18776 0.15109
 H961 H 0.82271 0.23981 0.22827
 H962 H 0.74721 0.16261 0.21008
 H963 H 0.85729 0.04929 0.08339
 H964 H 0.92737 0.13179 0.10938
 H965 H 0.78290 0.12191 0.16501
 H966 H 0.81623 0.08779 0.12413
 C967 C 0.83401 0.66541 0.67674
 C968 C 0.83434 0.65748 0.72141
 C969 C 0.81548 0.68111 0.74953
 C970 C 0.79577 0.71316 0.73454
 C971 C 0.79752 0.72291 0.69060
 C972 C 0.81614 0.69913 0.66199
 C973 C 0.85323 0.63773 0.64764
 C974 C 0.85313 0.64098 0.60229
 C975 C 0.87301 0.61540 0.57711
 C976 C 0.89318 0.58622 0.59674
 C977 C 0.89230 0.58167 0.64140
 C978 C 0.87242 0.60677 0.66685
 C979 C 0.85328 0.62580 0.73807
 C980 C 0.87225 0.60130 0.71145
 H981 H 0.85363 0.61997 0.77238
 H982 H 0.88686 0.57750 0.72602
 H983 H 0.81623 0.67427 0.78363
 H984 H 0.78288 0.74729 0.67748
 H985 H 0.87387 0.61960 0.54257
 H986 H 0.90815 0.55919 0.65649
 H987 H 0.81586 0.70723 0.62841
 H988 H 0.83840 0.66346 0.58590
 C989 C 0.35695 0.17912 0.66799
 C990 C 0.35519 0.16727 0.71160
 C991 C 0.32975 0.18222 0.73794
 C992 C 0.30558 0.20877 0.72169
 C993 C 0.30804 0.22208 0.67927
 C994 C 0.33338 0.20738 0.65256
 C995 C 0.38283 0.15947 0.63993
 C996 C 0.38585 0.16715 0.59542
 C997 C 0.40782 0.14445 0.56991
 C998 C 0.42706 0.11393 0.58843
 C999 C 0.42597 0.10800 0.63294
 C1000 C 0.40401 0.13012 0.65867
 C1001 C 0.37814 0.13959 0.72847
 C1002 C 0.40206 0.12141 0.70255
 H1003 H 0.37698 0.13098 0.76198
 H1004 H 0.41860 0.09920 0.71680
 H1005 H 0.32839 0.17262 0.77112
 H1006 H 0.28970 0.24284 0.66626
 H1007 H 0.40839 0.14930 0.53552
 H1008 H 0.44114 0.08448 0.64727
 H1009 H 0.33367 0.21781 0.61982
 H1010 H 0.37065 0.18947 0.57949
 C1011 C 0.33123 0.65625 0.15534
 C1012 C 0.34292 0.68662 0.17961
 C1013 C 0.32157 0.70950 0.20581
 C1014 C 0.28872 0.70201 0.20918
 C1015 C 0.27684 0.67300 0.18387
 C1016 C 0.29772 0.65052 0.15707
 C1017 C 0.35531 0.63071 0.13025
 C1018 C 0.34646 0.59922 0.10566
 C1019 C 0.37010 0.57566 0.08398
 C1020 C 0.40313 0.58275 0.08644
 C1021 C 0.41205 0.61427 0.11052
 C1022 C 0.38858 0.63816 0.13218
 C1023 C 0.37607 0.69303 0.17902
 C1024 C 0.39841 0.66929 0.15587
 H1025 H 0.38501 0.71634 0.19743
 H1026 H 0.42390 0.67514 0.15697
 H1027 H 0.33100 0.73157 0.22568
 H1028 H 0.25142 0.66705 0.18567
 H1029 H 0.36249 0.55174 0.06539
 H1030 H 0.43742 0.62054 0.11230
 H1031 H 0.28728 0.62820 0.13901
 H1032 H 0.32149 0.59222 0.10278
   
