data_POSCAR
  _audit_creation_date              2014-09-24
  _audit_creation_method            'ToBaCCo'
  _symmetry_space_group_name_H-M    'P1'
  _symmetry_Int_Tables_number       1
  _symmetry_cell_setting            triclinic
  loop_
  _symmetry_equiv_pos_as_xyz
 x,y,z
_cell_length_a 40.1056
_cell_length_b 33.9167
_cell_length_c 29.7435
_cell_angle_alpha 89.870000
_cell_angle_beta 89.998100
_cell_angle_gamma 89.826900
loop_
  _atom_site_label
  _atom_site_type_symbol
  _atom_site_fract_x
  _atom_site_fract_y
  _atom_site_fract_z
C1 C 1.25266 0.25069 0.24526
 C2 C 0.74576 -0.24820 0.25572
 C3 C 0.74659 0.24938 -0.25792
 C4 C 1.25283 -0.25018 -0.24735
 C5 C 0.25275 0.24903 0.75693
 C6 C 0.74616 0.75302 0.74217
 C7 C 0.74742 0.24922 0.25743
 C8 C 0.25240 0.74827 0.24939
 O9 O 1.04287 0.06582 0.08632
 O10 O 1.08046 0.03086 0.04366
 C11 C 1.07298 0.05603 0.07490
 O12 O 0.94884 -0.07388 0.07673
 O13 O 0.91281 -0.03521 0.03566
 C14 C 0.91919 -0.06308 0.06432
 O15 O 1.04192 -0.07196 0.08378
 O16 O 1.08000 -0.03635 0.04277
 C17 C 1.07218 -0.06239 0.07297
 O18 O 0.94998 0.07079 0.07926
 O19 O 0.91335 0.03432 0.03710
 C20 C 0.92015 0.06120 0.06660
 Zr21 Zr 0.99670 0.04735 0.05932
 O22 O 0.99392 0.04109 0.12992
 O23 O 1.00023 0.10946 0.06380
 Zr24 Zr 0.99596 -0.05165 0.05716
 O25 O 0.99160 -0.05182 0.12809
 O26 O 0.99904 -0.11397 0.05622
 O27 O 1.02619 -0.00269 0.06786
 O28 O 0.96687 -0.00181 0.06539
 O29 O 0.95278 0.07332 -0.07679
 O30 O 0.91469 0.03557 -0.03843
 C31 C 0.92254 0.06332 -0.06652
 O32 O 1.04481 -0.06892 -0.08073
 O33 O 1.08140 -0.03473 -0.03608
 C34 C 1.07462 -0.05958 -0.06783
 O35 O 0.95169 -0.07130 -0.07982
 O36 O 0.91418 -0.03392 -0.03989
 C37 C 0.92160 -0.06090 -0.06908
 O38 O 1.04604 0.06874 -0.07731
 O39 O 1.08198 0.03205 -0.03382
 C40 C 1.07569 0.05821 -0.06453
 Zr41 Zr 0.99876 0.04963 -0.05422
 O42 O 0.99641 0.05003 -0.12535
 O43 O 1.00286 0.11185 -0.05313
 Zr44 Zr 0.99798 -0.04961 -0.05637
 O45 O 0.99550 -0.04753 -0.12746
 O46 O 1.00126 -0.11192 -0.05776
 Zr47 Zr 1.04735 -0.00182 0.00301
 Zr48 Zr 0.94728 -0.00031 -0.00025
 O49 O 0.96936 0.00059 -0.06445
 O50 O 1.02845 -0.00027 -0.06317
 O51 O 0.96803 0.05675 0.00173
 O52 O 1.02592 -0.05837 0.00116
 O53 O 1.02670 0.05533 0.00365
 O54 O 0.96712 -0.05800 -0.00074
 H55 H 0.95130 -0.00200 0.09126
 H56 H 1.04069 -0.08184 0.00114
 H57 H 0.95479 0.00125 -0.09135
 H58 H 1.04157 0.07859 0.00467
 H59 H 0.98093 -0.12370 0.03664
 H60 H 0.98257 -0.12238 -0.03967
 H61 H 1.01482 -0.03211 -0.13820
 H62 H 1.01599 0.03528 -0.13668
 H63 H 0.98411 0.12220 -0.03503
 H64 H 0.98500 0.12068 0.04096
 H65 H 0.99377 0.06821 0.14227
 H66 H 1.00845 -0.03328 0.13993
 O67 O 1.04876 0.56915 0.58271
 O68 O 1.08584 0.53267 0.54090
 C69 C 1.07870 0.55883 0.57111
 O70 O 0.95467 0.42742 0.57643
 O71 O 0.91819 0.46626 0.53640
 C72 C 0.92494 0.43779 0.56408
 O73 O 1.04745 0.43032 0.58303
 O74 O 1.08523 0.46526 0.54081
 C75 C 1.07756 0.43956 0.57141
 O76 O 0.95601 0.57506 0.57600
 O77 O 0.91884 0.53702 0.53661
 C78 C 0.92606 0.56531 0.56409
 Zr79 Zr 1.00225 0.54949 0.55802
 O80 O 1.00009 0.54194 0.62848
 O81 O 1.00384 0.61141 0.56580
 Zr82 Zr 1.00137 0.45093 0.55764
 O83 O 0.99706 0.45374 0.62853
 O84 O 1.00456 0.38870 0.56077
 O85 O 1.03192 0.49975 0.56693
 O86 O 0.97212 0.50071 0.56545
 O87 O 0.95732 0.57467 0.42319
 O88 O 0.91950 0.53716 0.46229
 C89 C 0.92721 0.56516 0.43453
 O90 O 1.04902 0.43104 0.41973
 O91 O 1.08601 0.46587 0.46311
 C92 C 1.07891 0.44044 0.43212
 O93 O 0.95608 0.42812 0.42321
 O94 O 0.91888 0.46671 0.46215
 C95 C 0.92614 0.43853 0.43447
 O96 O 1.05035 0.56940 0.42034
 O97 O 1.08664 0.53287 0.46346
 C98 C 1.08008 0.55894 0.43276
 Zr99 Zr 1.00332 0.55022 0.44408
 O100 O 1.00010 0.54830 0.37304
 O101 O 1.00717 0.61244 0.44242
 Zr102 Zr 1.00244 0.45135 0.44374
 O103 O 0.99895 0.45450 0.37275
 O104 O 1.00581 0.38914 0.44060
 Zr105 Zr 1.05230 0.49973 0.50155
 Zr106 Zr 0.95227 0.50129 0.49999
 O107 O 0.97353 0.50128 0.43531
 O108 O 1.03300 0.50035 0.43558
 O109 O 0.97339 0.55820 0.50057
 O110 O 1.03065 0.44325 0.50112
 O111 O 1.03167 0.55684 0.50152
 O112 O 0.97233 0.44370 0.50017
 H113 H 0.95634 0.50089 0.59111
 H114 H 1.04510 0.41951 0.50125
 H115 H 0.95837 0.50159 0.40900
 H116 H 1.04661 0.58004 0.50166
 H117 H 0.98922 0.37813 0.53777
 H118 H 0.98971 0.37838 0.46256
 H119 H 1.01969 0.46672 0.36142
 H120 H 1.02041 0.53500 0.36172
 H121 H 0.99047 0.62305 0.46375
 H122 H 1.00865 0.62268 0.53587
 H123 H 0.99957 0.56885 0.64135
 H124 H 1.01666 0.46826 0.64000
 O125 O 0.43545 -0.05334 0.41850
 O126 O 0.46588 -0.09854 0.45924
 C127 C 0.44335 -0.08907 0.42971
 O128 O 0.55833 0.05406 0.42422
 O129 O 0.52631 0.09875 0.46312
 C130 C 0.55031 0.08961 0.43569
 O131 O 0.55409 -0.05481 0.41766
 O132 O 0.52350 -0.09934 0.45876
 C133 C 0.54596 -0.09035 0.42906
 O134 O 0.43256 0.05567 0.42530
 O135 O 0.46553 0.09939 0.46389
 C136 C 0.44116 0.09097 0.43686
 Zr137 Zr 0.45363 0.00080 0.44288
 O138 O 0.45948 0.00320 0.37234
 O139 O 0.40116 0.00037 0.43579
 Zr140 Zr 0.53656 -0.00013 0.44173
 O141 O 0.53123 0.00483 0.37106
 O142 O 0.58880 -0.00277 0.43292
 O143 O 0.49482 -0.03551 0.43320
 O144 O 0.49523 0.03573 0.43459
 O145 O 0.43452 0.05402 0.57763
 O146 O 0.46621 0.09857 0.53811
 C147 C 0.44267 0.08956 0.56625
 O148 O 0.55487 -0.05662 0.57884
 O149 O 0.52397 -0.10015 0.53700
 C150 C 0.54661 -0.09188 0.56669
 O151 O 0.55820 0.05261 0.57614
 O152 O 0.52657 0.09790 0.53733
 C153 C 0.55037 0.08832 0.56489
 O154 O 0.43680 -0.05540 0.58031
 O155 O 0.46674 -0.09953 0.53771
 C156 C 0.44462 -0.09082 0.56796
 Zr157 Zr 0.45425 -0.00055 0.55657
 O158 O 0.45714 0.00298 0.62756
 O159 O 0.40158 -0.00361 0.55954
 Zr160 Zr 0.53757 -0.00147 0.55556
 O161 O 0.53543 0.00214 0.62661
 O162 O 0.59022 -0.00581 0.55767
 Zr163 Zr 0.49523 -0.05983 0.49860
 Zr164 Zr 0.49590 0.05916 0.50001
 O165 O 0.49616 0.03384 0.56464
 O166 O 0.49578 -0.03685 0.56447
 O167 O 0.44744 0.03507 0.50028
 O168 O 0.54327 -0.03492 0.49818
 O169 O 0.44744 -0.03398 0.49940
 O170 O 0.54407 0.03392 0.49902
 H171 H 0.49517 0.05457 0.40906
 H172 H 0.56322 -0.05219 0.49790
 H173 H 0.49644 0.05174 0.59093
 H174 H 0.42741 -0.05098 0.49955
 H175 H 0.59868 -0.00481 0.46324
 H176 H 0.59919 0.01345 0.53579
 H177 H 0.52536 -0.02255 0.63794
 H178 H 0.46741 -0.02175 0.63866
 H179 H 0.39269 0.01563 0.53749
 H180 H 0.39178 -0.00600 0.46562
 H181 H 0.43665 0.00470 0.35974
 H182 H 0.52213 -0.02039 0.35982
 O183 O 0.55117 0.56721 0.08370
 O184 O 0.58757 0.53276 0.03876
 C185 C 0.58091 0.55758 0.07049
 O186 O 0.45806 0.42514 0.07480
 O187 O 0.42071 0.46474 0.03732
 C188 C 0.42806 0.43553 0.06358
 O189 O 0.55140 0.42984 0.07882
 O190 O 0.58772 0.46670 0.03641
 C191 C 0.58113 0.44026 0.06651
 O192 O 0.45801 0.57216 0.08054
 O193 O 0.42069 0.53517 0.04021
 C194 C 0.42802 0.56256 0.06876
 Zr195 Zr 0.50426 0.54854 0.05921
 O196 O 0.50312 0.54063 0.12967
 O197 O 0.50753 0.61048 0.06611
 Zr198 Zr 0.50434 0.44976 0.05550
 O199 O 0.50131 0.45016 0.12657
 O200 O 0.50839 0.38753 0.05612
 O201 O 0.53439 0.49889 0.06544
 O202 O 0.47487 0.49898 0.06598
 O203 O 0.45659 0.57671 -0.07273
 O204 O 0.42001 0.53723 -0.03405
 C205 C 0.42685 0.56624 -0.06078
 O206 O 0.54984 0.43376 -0.08380
 O207 O 0.58698 0.46869 -0.04080
 C208 C 0.57979 0.44341 -0.07180
 O209 O 0.45674 0.42948 -0.07752
 O210 O 0.42008 0.46703 -0.03643
 C211 C 0.42696 0.43938 -0.06487
 O212 O 0.54964 0.57285 -0.07883
 O213 O 0.58684 0.53524 -0.03852
 C214 C 0.57961 0.56236 -0.06761
 Zr215 Zr 0.50321 0.55209 -0.05477
 O216 O 0.49868 0.55105 -0.12572
 O217 O 0.50674 0.61432 -0.05605
 Zr218 Zr 0.50331 0.45326 -0.05844
 O219 O 0.49860 0.45911 -0.12908
 O220 O 0.50690 0.39133 -0.06522
 Zr221 Zr 0.55351 0.50085 -0.00052
 Zr222 Zr 0.45378 0.50103 0.00126
 O223 O 0.47373 0.50295 -0.06417
 O224 O 0.53323 0.50288 -0.06591
 O225 O 0.47425 0.55825 0.00301
 O226 O 0.53257 0.44402 -0.00218
 O227 O 0.53245 0.55771 0.00204
 O228 O 0.47438 0.44371 -0.00125
 H229 H 0.45962 0.49817 0.09219
 H230 H 0.54731 0.42054 -0.00308
 H231 H 0.45797 0.50370 -0.08983
 H232 H 0.54706 0.58120 0.00279
 H233 H 0.49210 0.37726 0.03417
 H234 H 0.49335 0.37958 -0.04092
 H235 H 0.51966 0.47036 -0.14066
 H236 H 0.51940 0.53941 -0.13803
 H237 H 0.49148 0.62456 -0.03270
 H238 H 0.49334 0.62223 0.04244
 H239 H 0.50322 0.56746 0.14277
 H240 H 0.52012 0.46616 0.13784
 C241 C 1.14544 0.12051 0.13745
 C242 C 1.16615 0.10548 0.17207
 C243 C 1.18909 0.13082 0.19425
 C244 C 1.19118 0.17104 0.18167
 C245 C 1.17057 0.18601 0.14689
 C246 C 1.14759 0.16074 0.12483
 C247 C 1.12686 0.17666 0.09074
 C248 C 1.12865 0.21637 0.07896
 C249 C 1.15132 0.24097 0.10020
 C250 C 1.17212 0.22614 0.13375
 C251 C 1.20930 0.11521 0.22901
 C252 C 1.20682 0.07575 0.24171
 C253 C 1.18434 0.05104 0.22017
 C254 C 1.16427 0.06553 0.18559
 C255 C 1.21374 0.19749 0.20508
 C256 C 1.23174 0.22078 0.22373
 C257 C 1.12097 0.09530 0.11575
 C258 C 1.09966 0.07619 0.09728
 H259 H 1.10895 0.15872 0.07295
 H260 H 1.11237 0.22810 0.05313
 H261 H 1.15274 0.27176 0.09072
 H262 H 1.18928 0.24652 0.14934
 H263 H 1.22711 0.13333 0.24678
 H264 H 1.22238 0.06430 0.26849
 H265 H 1.18239 0.02048 0.23037
 H266 H 1.14722 0.04517 0.16972
 C267 C 1.15221 0.62375 0.62964
 C268 C 1.15506 0.66366 0.61613
 C269 C 1.17686 0.68930 0.63965
 C270 C 1.19564 0.67481 0.67645
 C271 C 1.19427 0.63436 0.68820
 C272 C 1.17239 0.60875 0.66476
 C273 C 1.17117 0.56848 0.67725
 C274 C 1.19136 0.55383 0.71159
 C275 C 1.21293 0.57882 0.73434
 C276 C 1.21436 0.61870 0.72310
 C277 C 1.17925 0.72913 0.62573
 C278 C 1.16065 0.74321 0.58948
 C279 C 1.13925 0.71816 0.56652
 C280 C 1.13637 0.67882 0.57955
 C281 C 1.21569 0.70164 0.70286
 C282 C 1.23226 0.72376 0.72521
 C283 C 1.12731 0.59885 0.60885
 C284 C 1.10563 0.57955 0.59175
 H285 H 1.15491 0.54788 0.66032
 H286 H 1.19037 0.52289 0.72045
 H287 H 1.22876 0.56717 0.76067
 H288 H 1.23159 0.63697 0.74165
 H289 H 1.19564 0.74970 0.64247
 H290 H 1.16291 0.77370 0.57912
 H291 H 1.12494 0.72919 0.53829
 H292 H 1.11960 0.66040 0.56041
 C293 C 0.61517 0.16256 0.62685
 C294 C 0.63766 0.18704 0.60310
 C295 C 0.66491 0.20465 0.62606
 C296 C 0.66959 0.19747 0.67256
 C297 C 0.64663 0.17378 0.69654
 C298 C 0.61930 0.15637 0.67366
 C299 C 0.59683 0.13252 0.69832
 C300 C 0.60128 0.12601 0.74420
 C301 C 0.62803 0.14301 0.76655
 C302 C 0.65050 0.16667 0.74319
 C303 C 0.68717 0.22887 0.60159
 C304 C 0.68276 0.23530 0.55568
 C305 C 0.65626 0.21786 0.53319
 C306 C 0.63383 0.19404 0.55647
 C307 C 0.69774 0.21470 0.69599
 C308 C 0.72043 0.22960 0.71635
 C309 C 0.59000 0.14026 0.60281
 C310 C 0.57060 0.11851 0.58443
 H311 H 0.57556 0.11876 0.68250
 H312 H 0.58387 0.10766 0.76249
 H313 H 0.63140 0.13783 0.80219
 H314 H 0.67092 0.17922 0.76210
 H315 H 0.70820 0.24299 0.61762
 H316 H 0.70004 0.25386 0.53744
 H317 H 0.65312 0.22277 0.49751
 H318 H 0.61347 0.18129 0.53761
 C319 C 0.65671 0.61814 0.12942
 C320 C 0.66910 0.65213 0.10740
 C321 C 0.69053 0.67825 0.13079
 C322 C 0.69935 0.67008 0.17589
 C323 C 0.68907 0.63454 0.19665
 C324 C 0.66765 0.60843 0.17327
 C325 C 0.65725 0.57327 0.19476
 C326 C 0.66785 0.56414 0.23819
 C327 C 0.68881 0.58973 0.26113
 C328 C 0.69934 0.62461 0.24080
 C329 C 0.70229 0.71239 0.10850
 C330 C 0.69325 0.72036 0.06414
 C331 C 0.67226 0.69478 0.04119
 C332 C 0.66018 0.66104 0.06245
 C333 C 0.71687 0.69930 0.20210
 C334 C 0.73033 0.72339 0.22545
 C335 C 0.63079 0.59503 0.10843
 C336 C 0.60831 0.57714 0.09130
 H337 H 0.64107 0.55240 0.17812
 H338 H 0.65977 0.53706 0.25409
 H339 H 0.69698 0.58252 0.29486
 H340 H 0.71576 0.64350 0.25991
 H341 H 0.71873 0.73305 0.12500
 H342 H 0.70260 0.74651 0.04749
 H343 H 0.66531 0.70109 0.00672
 H344 H 0.64405 0.64190 0.04322
 C345 C 0.84377 -0.12246 0.12735
 C346 C 0.83395 -0.11029 0.17093
 C347 C 0.81189 -0.13409 0.19668
 C348 C 0.79972 -0.16985 0.17868
 C349 C 0.80814 -0.18096 0.13420
 C350 C 0.83025 -0.15720 0.10848
 C351 C 0.83862 -0.16916 0.06433
 C352 C 0.82547 -0.20359 0.04607
 C353 C 0.80376 -0.22674 0.07115
 C354 C 0.79516 -0.21575 0.11476
 C355 C 0.80276 -0.12158 0.24035
 C356 C 0.81502 -0.08648 0.25806
 C357 C 0.83657 -0.06320 0.23290
 C358 C 0.84604 -0.07483 0.18983
 C359 C 0.77993 -0.19618 0.20647
 C360 C 0.76420 -0.21905 0.22918
 C361 C 0.86938 -0.10067 0.10335
 C362 C 0.89162 -0.08318 0.08474
 H363 H 0.85520 -0.15194 0.04340
 H364 H 0.83206 -0.21225 0.01219
 H365 H 0.79352 -0.25337 0.05676
 H366 H 0.77818 -0.23471 0.13294
 H367 H 0.78598 -0.13866 0.26113
 H368 H 0.80774 -0.07731 0.29149
 H369 H 0.84604 -0.03600 0.24683
 H370 H 0.86275 -0.05565 0.17149
 C371 C 0.85242 0.36725 0.61653
 C372 C 0.86222 0.32818 0.62734
 C373 C 0.83962 0.30270 0.64981
 C374 C 0.80736 0.31639 0.66115
 C375 C 0.79705 0.35484 0.64861
 C376 C 0.81971 0.38041 0.62631
 C377 C 0.80907 0.41893 0.61469
 C378 C 0.77686 0.43176 0.62464
 C379 C 0.75464 0.40669 0.64626
 C380 C 0.76450 0.36865 0.65826
 C381 C 0.85009 0.26397 0.66092
 C382 C 0.88199 0.25075 0.65001
 C383 C 0.90410 0.27563 0.62792
 C384 C 0.89448 0.31391 0.61664
 C385 C 0.78560 0.29181 0.68806
 C386 C 0.76793 0.27203 0.71178
 C387 C 0.87657 0.39407 0.59710
 C388 C 0.89791 0.41508 0.58175
 H389 H 0.82547 0.43941 0.59771
 H390 H 0.76910 0.46130 0.61546
 H391 H 0.72961 0.41674 0.65375
 H392 H 0.74631 0.35018 0.67492
 H393 H 0.83374 0.24349 0.67797
 H394 H 0.88958 0.22105 0.65874
 H395 H 0.92886 0.26522 0.61947
 H396 H 0.91256 0.33210 0.59941
 C397 C 0.38053 -0.16845 0.62575
 C398 C 0.38725 -0.18789 0.66688
 C399 C 0.36079 -0.20554 0.69142
 C400 C 0.32775 -0.20340 0.67470
 C401 C 0.32136 -0.18609 0.63223
 C402 C 0.34785 -0.16858 0.60764
 C403 C 0.34083 -0.15100 0.56546
 C404 C 0.30857 -0.15085 0.54805
 C405 C 0.28268 -0.16812 0.57205
 C406 C 0.28885 -0.18551 0.61374
 C407 C 0.36810 -0.22474 0.73258
 C408 C 0.40064 -0.22643 0.74896
 C409 C 0.42647 -0.20893 0.72507
 C410 C 0.41999 -0.18978 0.68448
 C411 C 0.30040 -0.21855 0.70149
 C412 C 0.27827 -0.23185 0.72431
 C413 C 0.40604 -0.14455 0.60459
 C414 C 0.42525 -0.12173 0.58760
 H415 H 0.36021 -0.13760 0.54531
 H416 H 0.30368 -0.13750 0.51561
 H417 H 0.25769 -0.16807 0.55830
 H418 H 0.26792 -0.19862 0.63116
 H419 H 0.34885 -0.23886 0.75229
 H420 H 0.40588 -0.24149 0.78028
 H421 H 0.45169 -0.21031 0.73795
 H422 H 0.44089 -0.17683 0.66686
 C423 C 0.35391 0.36487 0.11136
 C424 C 0.36176 0.32467 0.11889
 C425 C 0.33838 0.29987 0.14081
 C426 C 0.30747 0.31553 0.15523
 C427 C 0.29858 0.35483 0.14449
 C428 C 0.32191 0.37961 0.12235
 C429 C 0.31261 0.41886 0.11200
 C430 C 0.28101 0.43310 0.12293
 C431 C 0.25822 0.40888 0.14476
 C432 C 0.26682 0.37019 0.15569
 C433 C 0.34674 0.25981 0.14827
 C434 C 0.37736 0.24466 0.13430
 C435 C 0.40034 0.26898 0.11304
 C436 C 0.39279 0.30857 0.10537
 C437 C 0.28641 0.29238 0.18460
 C438 C 0.27037 0.27336 0.21103
 C439 C 0.37930 0.39116 0.09415
 C440 C 0.40123 0.41211 0.08038
 H441 H 0.32949 0.43872 0.09491
 H442 H 0.27410 0.46300 0.11419
 H443 H 0.23367 0.42007 0.15303
 H444 H 0.24822 0.35229 0.17232
 H445 H 0.32960 0.23972 0.16451
 H446 H 0.38331 0.21392 0.14013
 H447 H 0.42413 0.25711 0.10235
 H448 H 0.41139 0.32626 0.08846
 C449 C 0.85081 0.12487 -0.13538
 C450 C 0.85611 0.13064 -0.18205
 C451 C 0.83363 0.15440 -0.20737
 C452 C 0.80591 0.17224 -0.18596
 C453 C 0.80020 0.16581 -0.13952
 C454 C 0.82270 0.14204 -0.11416
 C455 C 0.81653 0.13620 -0.06778
 C456 C 0.78887 0.15323 -0.04704
 C457 C 0.76695 0.17657 -0.07176
 C458 C 0.77243 0.18290 -0.11748
 C459 C 0.83966 0.16002 -0.25385
 C460 C 0.86706 0.14263 -0.27476
 C461 C 0.88900 0.11933 -0.25006
 C462 C 0.88372 0.11331 -0.20425
 C463 C 0.78412 0.19837 -0.21141
 C464 C 0.76677 0.22085 -0.23261
 C465 C 0.87499 0.10238 -0.10926
 C466 C 0.89610 0.08423 -0.08889
 H467 H 0.83293 0.11835 -0.04715
 H468 H 0.78442 0.14829 -0.01158
 H469 H 0.74556 0.18982 -0.05544
 H470 H 0.75465 0.20120 -0.13533
 H471 H 0.82325 0.17779 -0.27454
 H472 H 0.87127 0.14721 -0.31034
 H473 H 0.91023 0.10583 -0.26648
 H474 H 0.90148 0.09490 -0.18654
 C475 C 0.85562 0.63309 0.37486
 C476 C 0.85657 0.63653 0.32743
 C477 C 0.83409 0.66238 0.30511
 C478 C 0.81070 0.68454 0.33035
 C479 C 0.80953 0.68087 0.37773
 C480 C 0.83214 0.65510 0.40011
 C481 C 0.83071 0.65207 0.44753
 C482 C 0.80750 0.67380 0.47215
 C483 C 0.78528 0.69885 0.45023
 C484 C 0.78618 0.70248 0.40354
 C485 C 0.83560 0.66544 0.25763
 C486 C 0.85866 0.64358 0.23298
 C487 C 0.88065 0.61827 0.25483
 C488 C 0.87973 0.61466 0.30149
 C489 C 0.78754 0.71026 0.30698
 C490 C 0.76858 0.73017 0.28514
 C491 C 0.87969 0.60798 0.39744
 C492 C 0.90078 0.58779 0.41493
 H493 H 0.84743 0.63288 0.46602
 H494 H 0.80675 0.67113 0.50843
 H495 H 0.76726 0.71560 0.46949
 H496 H 0.76844 0.72236 0.38794
 H497 H 0.81906 0.68473 0.23901
 H498 H 0.85947 0.64631 0.19673
 H499 H 0.89852 0.60133 0.23555
 H500 H 0.89733 0.59451 0.31688
 C501 C 0.37716 0.16936 0.37906
 C502 C 0.38484 0.18764 0.33756
 C503 C 0.35904 0.20525 0.31157
 C504 C 0.32569 0.20431 0.32724
 C505 C 0.31836 0.18826 0.37006
 C506 C 0.34419 0.17070 0.39606
 C507 C 0.33621 0.15431 0.43850
 C508 C 0.30366 0.15545 0.45490
 C509 C 0.27844 0.17280 0.42955
 C510 C 0.28554 0.18898 0.38752
 C511 C 0.36731 0.22319 0.27003
 C512 C 0.40014 0.22370 0.25467
 C513 C 0.42533 0.20626 0.27999
 C514 C 0.41790 0.18834 0.32097
 C515 C 0.29902 0.21936 0.29898
 C516 C 0.27748 0.23255 0.27493
 C517 C 0.40202 0.14516 0.40149
 C518 C 0.42116 0.12214 0.41857
 H519 H 0.35508 0.14090 0.45964
 H520 H 0.29805 0.14303 0.48758
 H521 H 0.25323 0.17376 0.44251
 H522 H 0.26511 0.20220 0.36903
 H523 H 0.34858 0.23720 0.24920
 H524 H 0.40611 0.23778 0.22302
 H525 H 0.45078 0.20671 0.26789
 H526 H 0.43835 0.17540 0.33969
 C527 C 0.35233 0.63528 -0.11092
 C528 C 0.35963 0.67564 -0.11789
 C529 C 0.33632 0.70008 -0.14065
 C530 C 0.30607 0.68388 -0.15645
 C531 C 0.29771 0.64434 -0.14648
 C532 C 0.32104 0.61983 -0.12377
 C533 C 0.31252 0.58011 -0.11486
 C534 C 0.28156 0.56523 -0.12747
 C535 C 0.25856 0.58938 -0.14924
 C536 C 0.26650 0.62846 -0.15902
 C537 C 0.34411 0.74032 -0.14757
 C538 C 0.37415 0.75595 -0.13239
 C539 C 0.39709 0.73197 -0.11035
 C540 C 0.39006 0.69224 -0.10310
 C541 C 0.28535 0.70686 -0.18650
 C542 C 0.26982 0.72621 -0.21325
 C543 C 0.37769 0.60953 -0.09243
 C544 C 0.39970 0.58907 -0.07785
 H545 H 0.32954 0.56033 -0.09771
 H546 H 0.27532 0.53486 -0.12009
 H547 H 0.23440 0.57780 -0.15843
 H548 H 0.24782 0.64624 -0.17584
 H549 H 0.32698 0.76017 -0.16439
 H550 H 0.37968 0.78680 -0.13792
 H551 H 0.42044 0.74421 -0.09872
 H552 H 0.40862 0.67481 -0.08558
 C553 C 1.14735 -0.12303 -0.13141
 C554 C 1.17313 -0.10597 -0.15744
 C555 C 1.19546 -0.13059 -0.18188
 C556 C 1.19188 -0.17209 -0.18009
 C557 C 1.16651 -0.18915 -0.15328
 C558 C 1.14423 -0.16458 -0.12885
 C559 C 1.11908 -0.18239 -0.10230
 C560 C 1.11603 -0.22325 -0.09998
 C561 C 1.13778 -0.24727 -0.12393
 C562 C 1.16276 -0.23060 -0.15032
 C563 C 1.22097 -0.11289 -0.20775
 C564 C 1.22443 -0.07202 -0.20930
 C565 C 1.20267 -0.04797 -0.18533
 C566 C 1.17719 -0.06459 -0.15973
 C567 C 1.21417 -0.19760 -0.20540
 C568 C 1.23196 -0.22046 -0.22522
 C569 C 1.12314 -0.09824 -0.10848
 C570 C 1.10172 -0.07946 -0.08968
 H571 H 1.10158 -0.16501 -0.08295
 H572 H 1.09668 -0.23633 -0.07947
 H573 H 1.13531 -0.27900 -0.12204
 H574 H 1.17905 -0.25059 -0.16826
 H575 H 1.23850 -0.13042 -0.22690
 H576 H 1.24415 -0.05895 -0.22916
 H577 H 1.20558 -0.01628 -0.18649
 H578 H 1.16087 -0.04472 -0.14162
 C579 C 1.15108 0.37608 0.36908
 C580 C 1.17086 0.39180 0.33398
 C581 C 1.19251 0.36664 0.30928
 C582 C 1.19423 0.32597 0.31995
 C583 C 1.17513 0.31047 0.35583
 C584 C 1.15335 0.33556 0.38034
 C585 C 1.13385 0.31916 0.41537
 C586 C 1.13581 0.27914 0.42576
 C587 C 1.15749 0.25473 0.40221
 C588 C 1.17700 0.27005 0.36763
 C589 C 1.21184 0.38290 0.27404
 C590 C 1.20981 0.42290 0.26350
 C591 C 1.18857 0.44749 0.28759
 C592 C 1.16927 0.43228 0.32249
 C593 C 1.21490 0.29977 0.29337
 C594 C 1.23185 0.27757 0.27151
 C595 C 1.12696 0.40086 0.39198
 C596 C 1.10573 0.41995 0.41061
 H597 H 1.11682 0.33699 0.43497
 H598 H 1.12037 0.26696 0.45215
 H599 H 1.15910 0.22371 0.41062
 H600 H 1.19345 0.24985 0.35024
 H601 H 1.22874 0.36493 0.25441
 H602 H 1.22481 0.43490 0.23653
 H603 H 1.18704 0.47853 0.27924
 H604 H 1.15318 0.45256 0.34037
 C605 C 0.61094 -0.16409 0.36678
 C606 C 0.61951 -0.15256 0.32246
 C607 C 0.64791 -0.16929 0.30119
 C608 C 0.66747 -0.19767 0.32423
 C609 C 0.65850 -0.20989 0.36814
 C610 C 0.63010 -0.19305 0.38948
 C611 C 0.62172 -0.20544 0.43347
 C612 C 0.64081 -0.23380 0.45577
 C613 C 0.66866 -0.25014 0.43501
 C614 C 0.67751 -0.23845 0.39167
 C615 C 0.65628 -0.15678 0.25715
 C616 C 0.63715 -0.12853 0.23481
 C617 C 0.60933 -0.11223 0.25556
 C618 C 0.60047 -0.12400 0.29884
 C619 C 0.69628 -0.21481 0.30206
 C620 C 0.71935 -0.22934 0.28200
 C621 C 0.58500 -0.14254 0.39036
 C622 C 0.56546 -0.12090 0.40877
 H623 H 0.60030 -0.19348 0.45095
 H624 H 0.63406 -0.24297 0.48943
 H625 H 0.68351 -0.27198 0.45259
 H626 H 0.69939 -0.25198 0.37690
 H627 H 0.67772 -0.16853 0.23957
 H628 H 0.64398 -0.11924 0.20121
 H629 H 0.59452 -0.09031 0.23805
 H630 H 0.57853 -0.11053 0.31345
 C631 C 0.65382 0.37856 -0.12966
 C632 C 0.67449 0.39334 -0.16432
 C633 C 0.69667 0.36749 -0.18708
 C634 C 0.69780 0.32709 -0.17513
 C635 C 0.67844 0.31277 -0.13891
 C636 C 0.65630 0.33859 -0.11611
 C637 C 0.63659 0.32344 -0.08058
 C638 C 0.63872 0.28389 -0.06804
 C639 C 0.66059 0.25869 -0.09019
 C640 C 0.68027 0.27279 -0.12528
 C641 C 0.71694 0.38271 -0.22196
 C642 C 0.71520 0.42237 -0.23412
 C643 C 0.69328 0.44760 -0.21209
 C644 C 0.67316 0.43345 -0.17745
 C645 C 0.71644 0.29967 -0.20261
 C646 C 0.73065 0.27676 -0.22682
 C647 C 0.62864 0.40362 -0.10959
 C648 C 0.60674 0.42285 -0.09273
 H649 H 0.61943 0.34196 -0.06203
 H650 H 0.62351 0.27283 -0.04075
 H651 H 0.66234 0.22806 -0.08014
 H652 H 0.69699 0.25210 -0.14146
 H653 H 0.73442 0.36420 -0.23997
 H654 H 0.73094 0.43360 -0.26075
 H655 H 0.69185 0.47831 -0.22190
 H656 H 0.65664 0.45423 -0.16108
 C657 C 1.15168 0.11911 -0.12457
 C658 C 1.16597 0.10621 -0.16554
 C659 C 1.18862 0.13098 -0.18912
 C660 C 1.19690 0.16846 -0.17155
 C661 C 1.18390 0.18050 -0.12948
 C662 C 1.16123 0.15577 -0.10593
 C663 C 1.14834 0.16867 -0.06416
 C664 C 1.15761 0.20492 -0.04617
 C665 C 1.17976 0.22908 -0.06916
 C666 C 1.19282 0.21718 -0.11036
 C667 C 1.20230 0.11763 -0.23022
 C668 C 1.19392 0.08080 -0.24751
 C669 C 1.17178 0.05660 -0.22448
 C670 C 1.15789 0.06900 -0.18394
 C671 C 1.21749 0.19549 -0.19738
 C672 C 1.23380 0.21912 -0.21831
 C673 C 1.12574 0.09594 -0.10293
 C674 C 1.10334 0.07797 -0.08527
 H675 H 1.13113 0.15087 -0.04487
 H676 H 1.14756 0.21433 -0.01422
 H677 H 1.18688 0.25719 -0.05498
 H678 H 1.21004 0.23697 -0.12690
 H679 H 1.21970 0.13541 -0.24925
 H680 H 1.20469 0.07098 -0.27894
 H681 H 1.16537 0.02802 -0.23806
 H682 H 1.14093 0.04907 -0.16710
 C683 C 1.15427 0.62044 0.37022
 C684 C 1.17217 0.64976 0.39385
 C685 C 1.19331 0.67611 0.37002
 C686 C 1.19640 0.67292 0.32276
 C687 C 1.17980 0.64235 0.29947
 C688 C 1.15882 0.61589 0.32332
 C689 C 1.14263 0.58541 0.29939
 C690 C 1.14705 0.58121 0.25317
 C691 C 1.16736 0.60728 0.22977
 C692 C 1.18351 0.63763 0.25244
 C693 C 1.21083 0.70533 0.39425
 C694 C 1.20779 0.70821 0.44081
 C695 C 1.18722 0.68236 0.46414
 C696 C 1.16941 0.65353 0.44108
 C697 C 1.21653 0.70098 0.29790
 C698 C 1.23315 0.72357 0.27600
 C699 C 1.12933 0.59700 0.39334
 C700 C 1.10743 0.57879 0.41168
 H701 H 1.12664 0.56435 0.31616
 H702 H 1.13461 0.55762 0.23542
 H703 H 1.17065 0.60397 0.19384
 H704 H 1.19895 0.65724 0.23274
 H705 H 1.22716 0.72604 0.37754
 H706 H 1.22153 0.73058 0.45887
 H707 H 1.18514 0.68456 0.50031
 H708 H 1.15378 0.63401 0.46068
 C709 C 0.61745 0.16048 0.37386
 C710 C 0.62623 0.19979 0.38418
 C711 C 0.65367 0.21778 0.36189
 C712 C 0.67205 0.19633 0.32937
 C713 C 0.66303 0.15716 0.31870
 C714 C 0.63561 0.13921 0.34089
 C715 C 0.62704 0.09998 0.32943
 C716 C 0.64503 0.07917 0.29714
 C717 C 0.67188 0.09674 0.27556
 C718 C 0.68090 0.13526 0.28607
 C719 C 0.66207 0.25709 0.37282
 C720 C 0.64379 0.27809 0.40469
 C721 C 0.61688 0.26054 0.42629
 C722 C 0.60816 0.22176 0.41639
 C723 C 0.69950 0.21478 0.30561
 C724 C 0.72172 0.22996 0.28453
 C725 C 0.59097 0.14059 0.39820
 C726 C 0.57081 0.11986 0.41670
 H727 H 0.60631 0.08494 0.34509
 H728 H 0.63807 0.04925 0.28882
 H729 H 0.68580 0.08046 0.25051
 H730 H 0.70201 0.14759 0.26835
 H731 H 0.68280 0.27197 0.35689
 H732 H 0.65054 0.30815 0.41264
 H733 H 0.60280 0.27698 0.45104
 H734 H 0.58711 0.20924 0.43410
 C735 C 0.65297 0.62959 -0.12316
 C736 C 0.64817 0.67094 -0.12133
 C737 C 0.67007 0.69629 -0.14513
 C738 C 0.69669 0.68009 -0.17032
 C739 C 0.70274 0.63897 -0.16983
 C740 C 0.68076 0.61358 -0.14613
 C741 C 0.68703 0.57251 -0.14636
 C742 C 0.71443 0.55700 -0.16920
 C743 C 0.73589 0.58184 -0.19252
 C744 C 0.73019 0.62240 -0.19303
 C745 C 0.66445 0.73751 -0.14365
 C746 C 0.63799 0.75323 -0.11912
 C747 C 0.61663 0.72843 -0.09562
 C748 C 0.62152 0.68774 -0.09660
 C749 C 0.71598 0.70546 -0.19947
 C750 C 0.73046 0.72691 -0.22509
 C751 C 0.62823 0.60379 -0.10344
 C752 C 0.60652 0.58387 -0.08730
 H753 H 0.67104 0.55207 -0.12860
 H754 H 0.71910 0.52557 -0.16863
 H755 H 0.75715 0.56965 -0.21016
 H756 H 0.74767 0.64062 -0.21134
 H757 H 0.68052 0.75802 -0.16117
 H758 H 0.63407 0.78481 -0.11830
 H759 H 0.59615 0.74077 -0.07652
 H760 H 0.60430 0.66969 -0.07764
 C761 C 0.84891 -0.11975 -0.13845
 C762 C 0.82189 -0.13853 -0.11657
 C763 C 0.79945 -0.16232 -0.14170
 C764 C 0.80412 -0.16716 -0.18859
 C765 C 0.83054 -0.14743 -0.21068
 C766 C 0.85294 -0.12362 -0.18558
 C767 C 0.87925 -0.10439 -0.20847
 C768 C 0.88335 -0.10860 -0.25474
 C769 C 0.86152 -0.13197 -0.27922
 C770 C 0.83537 -0.15124 -0.25762
 C771 C 0.77283 -0.18110 -0.11898
 C772 C 0.76839 -0.17635 -0.07283
 C773 C 0.79021 -0.15297 -0.04834
 C774 C 0.81679 -0.13434 -0.06975
 C775 C 0.78281 -0.19389 -0.21370
 C776 C 0.76586 -0.21715 -0.23412
 C777 C 0.87347 -0.09794 -0.11247
 C778 C 0.89486 -0.08059 -0.09195
 H779 H 0.89686 -0.08583 -0.19094
 H780 H 0.90359 -0.09364 -0.27169
 H781 H 0.86483 -0.13518 -0.31515
 H782 H 0.81900 -0.16902 -0.27814
 H783 H 0.75514 -0.19947 -0.13663
 H784 H 0.74785 -0.19085 -0.05599
 H785 H 0.78653 -0.14924 -0.01256
 H786 H 0.83314 -0.11650 -0.04926
 C787 C 0.85430 0.37160 0.37513
 C788 C 0.83144 0.34890 0.40052
 C789 C 0.80948 0.32250 0.37830
 C790 C 0.81066 0.31894 0.33092
 C791 C 0.83322 0.34205 0.30551
 C792 C 0.85507 0.36850 0.32769
 C793 C 0.87744 0.39128 0.30159
 C794 C 0.87820 0.38800 0.25492
 C795 C 0.85683 0.36210 0.23320
 C796 C 0.83455 0.33933 0.25801
 C797 C 0.78680 0.30012 0.40427
 C798 C 0.78588 0.30368 0.45095
 C799 C 0.80741 0.32942 0.47271
 C800 C 0.83000 0.35186 0.44794
 C801 C 0.78832 0.29234 0.30775
 C802 C 0.76990 0.27170 0.28622
 C803 C 0.87825 0.39667 0.39761
 C804 C 0.89942 0.41657 0.41501
 H805 H 0.89452 0.41194 0.31688
 H806 H 0.89546 0.40566 0.23551
 H807 H 0.85751 0.35963 0.19694
 H808 H 0.81846 0.31963 0.23950
 H809 H 0.76959 0.27970 0.38880
 H810 H 0.76836 0.28635 0.47033
 H811 H 0.80661 0.33207 0.50897
 H812 H 0.84619 0.37157 0.46630
 C813 C 0.38002 -0.16452 0.36658
 C814 C 0.35613 -0.18666 0.39086
 C815 C 0.32877 -0.20404 0.36790
 C816 C 0.32555 -0.19930 0.32079
 C817 C 0.35018 -0.17852 0.29628
 C818 C 0.37751 -0.16116 0.31923
 C819 C 0.40174 -0.14039 0.29400
 C820 C 0.39906 -0.13691 0.24745
 C821 C 0.37231 -0.15384 0.22501
 C822 C 0.34807 -0.17440 0.24896
 C823 C 0.30506 -0.22577 0.39290
 C824 C 0.30842 -0.23050 0.43924
 C825 C 0.33528 -0.21373 0.46163
 C826 C 0.35883 -0.19181 0.43794
 C827 C 0.29767 -0.21684 0.29705
 C828 C 0.27570 -0.23227 0.27570
 C829 C 0.40493 -0.14156 0.39038
 C830 C 0.42390 -0.11944 0.40902
 H831 H 0.42309 -0.12688 0.30991
 H832 H 0.41785 -0.12099 0.22869
 H833 H 0.37031 -0.15100 0.18886
 H834 H 0.32771 -0.18696 0.22997
 H835 H 0.28380 -0.23941 0.37690
 H836 H 0.29013 -0.24736 0.45783
 H837 H 0.33791 -0.21779 0.49756
 H838 H 0.37933 -0.17933 0.45677
 C839 C 0.35196 0.37225 -0.11607
 C840 C 0.32702 0.38859 -0.14413
 C841 C 0.30452 0.36332 -0.16692
 C842 C 0.30679 0.32198 -0.16079
 C843 C 0.33056 0.30583 -0.13077
 C844 C 0.35325 0.33107 -0.10829
 C845 C 0.37712 0.31427 -0.07881
 C846 C 0.37853 0.27365 -0.07184
 C847 C 0.35639 0.24893 -0.09398
 C848 C 0.33262 0.26467 -0.12316
 C849 C 0.28049 0.38018 -0.19604
 C850 C 0.27828 0.42090 -0.20179
 C851 C 0.30002 0.44567 -0.17899
 C852 C 0.32427 0.42984 -0.15058
 C853 C 0.28634 0.29597 -0.18765
 C854 C 0.27050 0.27447 -0.21162
 C855 C 0.37765 0.39733 -0.09759
 C856 C 0.39982 0.41722 -0.08275
 H857 H 0.39482 0.33231 -0.06075
 H858 H 0.39693 0.26129 -0.04916
 H859 H 0.35761 0.21739 -0.08852
 H860 H 0.31588 0.24427 -0.13955
 H861 H 0.26324 0.36206 -0.21462
 H862 H 0.25964 0.43328 -0.22408
 H863 H 0.29819 0.47729 -0.18348
 H864 H 0.34069 0.45025 -0.13361
 C865 C 1.14439 -0.12797 0.13619
 C866 C 1.13930 -0.16929 0.13776
 C867 C 1.16236 -0.19397 0.16094
 C868 C 1.19049 -0.17728 0.18242
 C869 C 1.19594 -0.13608 0.18015
 C870 C 1.17286 -0.11137 0.15693
 C871 C 1.17896 -0.07034 0.15498
 C872 C 1.20709 -0.05415 0.17524
 C873 C 1.22953 -0.07825 0.19810
 C874 C 1.22413 -0.11877 0.20068
 C875 C 1.15661 -0.23514 0.16208
 C876 C 1.12897 -0.25150 0.14083
 C877 C 1.10648 -0.22741 0.11812
 C878 C 1.11143 -0.18679 0.11652
 C879 C 1.21357 -0.20271 0.20686
 C880 C 1.23199 -0.22496 0.22685
 C881 C 1.11995 -0.10282 0.11378
 C882 C 1.09870 -0.08342 0.09518
 H883 H 1.16219 -0.05042 0.13761
 H884 H 1.21155 -0.02276 0.17307
 H885 H 1.25131 -0.06549 0.21383
 H886 H 1.24232 -0.13634 0.21873
 H887 H 1.17339 -0.25517 0.17926
 H888 H 1.12502 -0.28304 0.14197
 H889 H 1.08507 -0.24026 0.10161
 H890 H 1.09324 -0.16935 0.09835
 C891 C 1.14817 0.37343 0.63561
 C892 C 1.16100 0.38503 0.67787
 C893 C 1.18152 0.35865 0.70275
 C894 C 1.18990 0.32133 0.68462
 C895 C 1.17739 0.30991 0.64216
 C896 C 1.15632 0.33597 0.61765
 C897 C 1.14363 0.32361 0.57559
 C898 C 1.15152 0.28658 0.55834
 C899 C 1.17224 0.26117 0.58223
 C900 C 1.18515 0.27258 0.62366
 C901 C 1.19297 0.37023 0.74572
 C902 C 1.18510 0.40722 0.76314
 C903 C 1.16555 0.43331 0.73842
 C904 C 1.15347 0.42246 0.69630
 C905 C 1.21169 0.29494 0.70942
 C906 C 1.23006 0.27359 0.73041
 C907 C 1.12467 0.39873 0.61217
 C908 C 1.10391 0.41841 0.59325
 H909 H 1.12749 0.34235 0.55563
 H910 H 1.14146 0.27750 0.52632
 H911 H 1.17826 0.23243 0.56867
 H912 H 1.20107 0.25174 0.64109
 H913 H 1.20776 0.35068 0.76645
 H914 H 1.19415 0.41561 0.79603
 H915 H 1.15949 0.46201 0.75208
 H916 H 1.13823 0.44369 0.67840
 C917 C 0.61179 -0.16936 0.62354
 C918 C 0.60852 -0.18165 0.66881
 C919 C 0.63641 -0.19796 0.69184
 C920 C 0.66742 -0.20184 0.66942
 C921 C 0.67012 -0.19182 0.62335
 C922 C 0.64220 -0.17555 0.60032
 C923 C 0.64560 -0.16526 0.55440
 C924 C 0.67569 -0.17097 0.53186
 C925 C 0.70293 -0.18705 0.55433
 C926 C 0.70034 -0.19733 0.59959
 C927 C 0.63260 -0.20971 0.73727
 C928 C 0.60210 -0.20554 0.75923
 C929 C 0.57486 -0.18952 0.73669
 C930 C 0.57791 -0.17759 0.69200
 C931 C 0.69637 -0.21615 0.69391
 C932 C 0.71961 -0.22896 0.71520
 C933 C 0.58569 -0.14582 0.60272
 C934 C 0.56614 -0.12307 0.58594
 H935 H 0.62499 -0.15307 0.53537
 H936 H 0.67783 -0.16305 0.49670
 H937 H 0.72620 -0.19158 0.53660
 H938 H 0.72221 -0.20972 0.61568
 H939 H 0.65304 -0.22238 0.75621
 H940 H 0.59961 -0.21481 0.79392
 H941 H 0.55121 -0.18638 0.75388
 H942 H 0.55599 -0.16552 0.67572
 C943 C 0.65695 0.38073 0.12792
 C944 C 0.66384 0.38863 0.17366
 C945 C 0.68504 0.36291 0.19830
 C946 C 0.69920 0.32960 0.17691
 C947 C 0.69444 0.32351 0.13034
 C948 C 0.67328 0.34929 0.10566
 C949 C 0.66880 0.34273 0.05909
 C950 C 0.68502 0.31167 0.03751
 C951 C 0.70552 0.28623 0.06175
 C952 C 0.71016 0.29186 0.10772
 C953 C 0.69125 0.37101 0.24422
 C954 C 0.67706 0.40379 0.26505
 C955 C 0.65637 0.42903 0.24086
 C956 C 0.64967 0.42162 0.19570
 C957 C 0.71713 0.30072 0.20343
 C958 C 0.73114 0.27699 0.22694
 C959 C 0.63111 0.40290 0.10507
 C960 C 0.60862 0.42043 0.08718
 H961 H 0.65312 0.36180 0.03886
 H962 H 0.68179 0.30738 0.00177
 H963 H 0.71799 0.26209 0.04485
 H964 H 0.72641 0.27146 0.12521
 H965 H 0.70732 0.35234 0.26437
 H966 H 0.68220 0.40966 0.30013
 H967 H 0.64547 0.45452 0.25714
 H968 H 0.63356 0.44220 0.17818
 C969 C 0.84573 0.12205 0.13052
 C970 C 0.83168 0.15636 0.11089
 C971 C 0.80986 0.18067 0.13647
 C972 C 0.80213 0.17050 0.18150
 C973 C 0.81485 0.13517 0.20035
 C974 C 0.83674 0.11089 0.17481
 C975 C 0.84944 0.07595 0.19460
 C976 C 0.84074 0.06527 0.23831
 C977 C 0.81930 0.08896 0.26322
 C978 C 0.80645 0.12356 0.24464
 C979 C 0.79644 0.21506 0.11629
 C980 C 0.80422 0.22507 0.07206
 C981 C 0.82558 0.20134 0.04709
 C982 C 0.83922 0.16732 0.06610
 C983 C 0.78225 0.19718 0.20885
 C984 C 0.76631 0.22017 0.23121
 C985 C 0.87099 0.09965 0.10638
 C986 C 0.89292 0.08172 0.08750
 H987 H 0.86609 0.05647 0.17649
 H988 H 0.85070 0.03847 0.25293
 H989 H 0.81259 0.08049 0.29714
 H990 H 0.78979 0.14099 0.26527
 H991 H 0.77976 0.23446 0.13440
 H992 H 0.79362 0.25141 0.05711
 H993 H 0.83155 0.20924 0.01274
 H994 H 0.85555 0.14965 0.04526
 C995 C 0.85245 0.63420 0.61756
 C996 C 0.82444 0.61776 0.63957
 C997 C 0.80167 0.64275 0.66259
 C998 C 0.80715 0.68397 0.66354
 C999 C 0.83438 0.70055 0.64000
 C1000 C 0.85704 0.67560 0.61677
 C1001 C 0.88417 0.69284 0.59355
 C1002 C 0.88881 0.73355 0.59344
 C1003 C 0.86671 0.75793 0.61636
 C1004 C 0.83976 0.74179 0.63944
 C1005 C 0.77392 0.62567 0.68458
 C1006 C 0.76883 0.58504 0.68385
 C1007 C 0.79116 0.56059 0.66141
 C1008 C 0.81871 0.57660 0.63948
 C1009 C 0.78558 0.70907 0.69020
 C1010 C 0.76784 0.72942 0.71324
 C1011 C 0.87750 0.60862 0.59782
 C1012 C 0.89920 0.58820 0.58219
 H1013 H 0.90199 0.67511 0.57515
 H1014 H 0.90968 0.74624 0.57550
 H1015 H 0.87045 0.78954 0.61626
 H1016 H 0.82319 0.76197 0.65669
 H1017 H 0.75580 0.64350 0.70232
 H1018 H 0.74742 0.57248 0.70072
 H1019 H 0.78710 0.52905 0.66092
 H1020 H 0.83533 0.55644 0.62231
 C1021 C 0.38051 0.16559 0.63094
 C1022 C 0.35622 0.18855 0.60824
 C1023 C 0.32941 0.20569 0.63276
 C1024 C 0.32721 0.19992 0.67983
 C1025 C 0.35239 0.17856 0.70280
 C1026 C 0.37911 0.16137 0.67829
 C1027 C 0.40384 0.13984 0.70196
 C1028 C 0.40225 0.13552 0.74851
 C1029 C 0.37613 0.15236 0.77249
 C1030 C 0.35141 0.17364 0.75010
 C1031 C 0.30522 0.22816 0.60932
 C1032 C 0.30765 0.23393 0.56302
 C1033 C 0.33401 0.21745 0.53913
 C1034 C 0.35797 0.19472 0.56125
 C1035 C 0.29953 0.21644 0.70505
 C1036 C 0.27756 0.23053 0.72761
 C1037 C 0.40465 0.14261 0.60564
 C1038 C 0.42325 0.12029 0.58648
 H1039 H 0.42477 0.12638 0.68483
 H1040 H 0.42142 0.11904 0.76605
 H1041 H 0.37501 0.14894 0.80865
 H1042 H 0.33162 0.18619 0.77029
 H1043 H 0.28432 0.24163 0.62652
 H1044 H 0.28903 0.25138 0.54561
 H1045 H 0.33592 0.22233 0.50325
 H1046 H 0.37804 0.18246 0.54131
 C1047 C 0.35438 0.63070 0.12321
 C1048 C 0.32408 0.61492 0.13961
 C1049 C 0.30069 0.63996 0.16143
 C1050 C 0.30783 0.68052 0.16675
 C1051 C 0.33757 0.69656 0.14893
 C1052 C 0.36092 0.67158 0.12704
 C1053 C 0.39070 0.68821 0.10994
 C1054 C 0.39722 0.72835 0.11447
 C1055 C 0.37439 0.75276 0.13599
 C1056 C 0.34486 0.73722 0.15306
 C1057 C 0.27073 0.62355 0.17808
 C1058 C 0.26405 0.58348 0.17335
 C1059 C 0.28695 0.55897 0.15207
 C1060 C 0.31666 0.57435 0.13528
 C1061 C 0.28621 0.70505 0.19396
 C1062 C 0.26968 0.72535 0.21866
 C1063 C 0.37944 0.60495 0.10383
 C1064 C 0.40119 0.58476 0.08794
 H1065 H 0.40923 0.67046 0.09289
 H1066 H 0.42012 0.74055 0.10122
 H1067 H 0.37956 0.78391 0.13944
 H1068 H 0.32780 0.75743 0.16934
 H1069 H 0.25218 0.64150 0.19478
 H1070 H 0.24099 0.57141 0.18629
 H1071 H 0.28168 0.52787 0.14861
 H1072 H 0.33369 0.55415 0.11891
   
