data_POSCAR
  _audit_creation_date              2014-09-24
  _audit_creation_method            'ToBaCCo'
  _symmetry_space_group_name_H-M    'P1'
  _symmetry_Int_Tables_number       1
  _symmetry_cell_setting            triclinic
  loop_
  _symmetry_equiv_pos_as_xyz
 x,y,z
_cell_length_a 52.5157
_cell_length_b 52.5155
_cell_length_c 38.1229
_cell_angle_alpha 89.978900
_cell_angle_beta 89.976700
_cell_angle_gamma 90.044300
loop_
  _atom_site_label
  _atom_site_type_symbol
  _atom_site_fract_x
  _atom_site_fract_y
  _atom_site_fract_z
O1 O -0.02474 0.28683 0.03367
 O2 O 0.02551 0.28628 -0.03428
 O3 O -0.02448 0.28658 -0.03458
 O4 O 0.02525 0.28670 0.03395
 O5 O 0.02480 0.24470 0.03419
 O6 O -0.02445 0.24458 -0.03402
 O7 O 0.02501 0.24433 -0.03372
 O8 O -0.02464 0.24483 0.03392
 Cu9 Cu 0.00040 0.29084 -0.00036
 Cu10 Cu 0.00015 0.24045 0.00012
 C11 C -0.03340 0.26582 0.04519
 C12 C 0.03407 0.26511 -0.04541
 C13 C -0.03312 0.26548 -0.04578
 C14 C 0.03367 0.26563 0.04555
 O15 O 0.52510 0.78702 0.46631
 O16 O 0.47519 0.78711 0.53467
 O17 O 0.52520 0.78703 0.53454
 O18 O 0.47512 0.78702 0.46643
 O19 O 0.47532 0.74502 0.46666
 O20 O 0.52487 0.74504 0.53448
 O21 O 0.47538 0.74511 0.53461
 O22 O 0.52479 0.74502 0.46654
 Cu23 Cu 0.50016 0.79129 0.50049
 Cu24 Cu 0.50008 0.74088 0.50059
 C25 C 0.53362 0.76591 0.45497
 C26 C 0.46660 0.76603 0.54608
 C27 C 0.53375 0.76594 0.54591
 C28 C 0.46652 0.76592 0.45513
 O29 O 0.97502 0.71453 -0.03518
 O30 O 1.02511 0.71391 0.03292
 O31 O 0.97512 0.71395 0.03306
 O32 O 1.02504 0.71455 -0.03532
 O33 O 1.02480 0.75650 -0.03450
 O34 O 0.97544 0.75594 0.03360
 O35 O 1.02490 0.75590 0.03342
 O36 O 0.97531 0.75648 -0.03432
 Cu37 Cu 1.00007 0.71000 -0.00121
 Cu38 Cu 1.00012 0.76036 -0.00040
 C39 C 0.96636 0.73570 -0.04617
 C40 C 1.03371 0.73490 0.04458
 C41 C 0.96661 0.73494 0.04479
 C42 C 1.03369 0.73572 -0.04638
 O43 O 0.47503 0.21241 0.46634
 O44 O 0.52484 0.21245 0.53477
 O45 O 0.47485 0.21238 0.53458
 O46 O 0.52500 0.21247 0.46654
 O47 O 0.52473 0.25447 0.46671
 O48 O 0.47509 0.25438 0.53442
 O49 O 0.52455 0.25445 0.53464
 O50 O 0.47528 0.25441 0.46649
 Cu51 Cu 0.49993 0.20818 0.50056
 Cu52 Cu 0.49991 0.25860 0.50057
 C53 C 0.46651 0.23350 0.45494
 C54 C 0.53336 0.23355 0.54617
 C55 C 0.46625 0.23346 0.54590
 C56 C 0.53357 0.23358 0.45522
 O57 O 0.71321 0.02471 -0.03308
 O58 O 0.71362 -0.02562 0.03473
 O59 O 0.71334 0.02439 0.03517
 O60 O 0.71340 -0.02526 -0.03349
 O61 O 0.75539 -0.02478 -0.03355
 O62 O 0.75534 0.02435 0.03481
 O63 O 0.75557 -0.02513 0.03436
 O64 O 0.75521 0.02465 -0.03313
 Cu65 Cu 0.70915 -0.00046 0.00087
 Cu66 Cu 0.75955 -0.00020 0.00062
 C67 C 0.73425 0.03340 -0.04450
 C68 C 0.73476 -0.03421 0.04591
 C69 C 0.73443 0.03301 0.04648
 C70 C 0.73450 -0.03364 -0.04504
 O71 O 0.21298 0.52481 0.46613
 O72 O 0.21289 0.47494 0.53456
 O73 O 0.21286 0.52495 0.53437
 O74 O 0.21301 0.47482 0.46633
 O75 O 0.25501 0.47513 0.46661
 O76 O 0.25486 0.52474 0.53434
 O77 O 0.25488 0.47526 0.53454
 O78 O 0.25498 0.52460 0.46640
 Cu79 Cu 0.20869 0.49988 0.50034
 Cu80 Cu 0.25910 0.49994 0.50049
 C81 C 0.23409 0.53338 0.45480
 C82 C 0.23396 0.46643 0.54601
 C83 C 0.23393 0.53356 0.54575
 C84 C 0.23413 0.46626 0.45507
 O85 O 0.28540 0.97495 -0.03547
 O86 O 0.28609 1.02497 0.03273
 O87 O 0.28615 0.97498 0.03276
 O88 O 0.28537 1.02498 -0.03550
 O89 O 0.24342 1.02464 -0.03448
 O90 O 0.24415 0.97518 0.03348
 O91 O 0.24410 1.02463 0.03344
 O92 O 0.24345 0.97514 -0.03444
 Cu93 Cu 0.28998 0.99997 -0.00147
 Cu94 Cu 0.23962 0.99989 -0.00044
 C95 C 0.26422 0.96625 -0.04639
 C96 C 0.26511 1.03349 0.04452
 C97 C 0.26518 0.96640 0.04457
 C98 C 0.26417 1.03360 -0.04643
 O99 O 0.78767 0.52495 0.53415
 O100 O 0.78747 0.47508 0.46580
 O101 O 0.78752 0.52506 0.46591
 O102 O 0.78757 0.47496 0.53404
 O103 O 0.74557 0.47526 0.53405
 O104 O 0.74552 0.52482 0.46624
 O105 O 0.74547 0.47537 0.46612
 O106 O 0.74567 0.52472 0.53417
 Cu107 Cu 0.79180 0.50001 0.49996
 Cu108 Cu 0.74139 0.50004 0.50017
 C109 C 0.76661 0.53350 0.54561
 C110 C 0.76634 0.46656 0.45450
 C111 C 0.76641 0.53363 0.45465
 C112 C 0.76648 0.46640 0.54546
 C113 C 0.23938 0.20628 0.19793
 C114 C 0.21641 0.21608 0.18545
 C115 C 0.20659 0.23899 0.19813
 C116 C 0.21998 0.25272 0.22409
 C117 C 0.24338 0.24297 0.23702
 C118 C 0.25315 0.21963 0.22390
 C119 C 0.27634 0.21032 0.23709
 C120 C 0.28972 0.22367 0.26272
 C121 C 0.28040 0.24681 0.27607
 C122 C 0.25701 0.25657 0.26312
 C123 C 0.21066 0.27586 0.23743
 C124 C 0.22405 0.28923 0.26304
 C125 C 0.24725 0.27992 0.27623
 C126 C 0.26101 0.29327 0.30219
 C127 C 0.28398 0.28346 0.31471
 C128 C 0.29378 0.26054 0.30205
 H129 H 0.28432 0.19259 0.22767
 H130 H 0.30749 0.21570 0.27202
 H131 H 0.19289 0.28384 0.22814
 H132 H 0.21607 0.30696 0.27246
 H133 H 0.20596 0.20567 0.16548
 H134 H 0.29442 0.29387 0.33468
 C135 C 0.73928 0.70654 0.30180
 C136 C 0.71631 0.71631 0.31439
 C137 C 0.70648 0.73925 0.30180
 C138 C 0.71985 0.75302 0.27582
 C139 C 0.74323 0.74329 0.26278
 C140 C 0.75301 0.71993 0.27581
 C141 C 0.77619 0.71065 0.26254
 C142 C 0.78956 0.72404 0.23690
 C143 C 0.78022 0.74721 0.22364
 C144 C 0.75684 0.75694 0.23668
 C145 C 0.71051 0.77619 0.26256
 C146 C 0.72388 0.78959 0.23694
 C147 C 0.74706 0.78031 0.22366
 C148 C 0.76081 0.79371 0.19770
 C149 C 0.78377 0.78393 0.18509
 C150 C 0.79359 0.76098 0.19766
 H151 H 0.78419 0.69290 0.27189
 H152 H 0.80732 0.71609 0.22754
 H153 H 0.69275 0.78414 0.27192
 H154 H 0.71589 0.80734 0.22759
 H155 H 0.70590 0.70586 0.33437
 H156 H 0.79419 0.79438 0.16513
 C157 C 0.79357 0.23926 0.19802
 C158 C 0.78385 0.21622 0.18562
 C159 C 0.76096 0.20633 0.19834
 C160 C 0.74717 0.21972 0.22424
 C161 C 0.75686 0.24317 0.23709
 C162 C 0.78017 0.25302 0.22395
 C163 C 0.78942 0.27627 0.23705
 C164 C 0.77602 0.28965 0.26264
 C165 C 0.75290 0.28025 0.27601
 C166 C 0.74321 0.25681 0.26314
 C167 C 0.72405 0.21032 0.23761
 C168 C 0.71064 0.22371 0.26317
 C169 C 0.71988 0.24697 0.27628
 C170 C 0.70648 0.26073 0.30219
 C171 C 0.71622 0.28375 0.31464
 C172 C 0.73913 0.29362 0.30195
 H173 H 0.80713 0.28431 0.22761
 H174 H 0.78395 0.30746 0.27187
 H175 H 0.71613 0.19250 0.22839
 H176 H 0.69292 0.21568 0.27261
 H177 H 0.79431 0.20577 0.16570
 H178 H 0.70578 0.29419 0.33458
 C179 C 0.29377 0.73906 0.30177
 C180 C 0.28395 0.71609 0.31433
 C181 C 0.26103 0.70625 0.30168
 C182 C 0.24732 0.71960 0.27566
 C183 C 0.25710 0.74298 0.26264
 C184 C 0.28044 0.75278 0.27574
 C185 C 0.28978 0.77597 0.26248
 C186 C 0.27644 0.78932 0.23681
 C187 C 0.25329 0.77997 0.22349
 C188 C 0.24351 0.75658 0.23650
 C189 C 0.22417 0.71024 0.26234
 C190 C 0.21083 0.72361 0.23667
 C191 C 0.22016 0.74679 0.22342
 C192 C 0.20682 0.76053 0.19742
 C193 C 0.21665 0.78349 0.18485
 C194 C 0.23958 0.79333 0.19748
 H195 H 0.30751 0.78398 0.27189
 H196 H 0.28443 0.80709 0.22747
 H197 H 0.21618 0.69248 0.27168
 H198 H 0.19309 0.71560 0.22728
 H199 H 0.29434 0.70568 0.33434
 H200 H 0.20625 0.79391 0.16486
 C201 C 0.70647 0.26067 0.69833
 C202 C 0.71634 0.28358 0.68564
 C203 C 0.73936 0.29332 0.69809
 C204 C 0.75313 0.27992 0.72400
 C205 C 0.74329 0.25660 0.73714
 C206 C 0.71984 0.24690 0.72426
 C207 C 0.71045 0.22378 0.73764
 C208 C 0.72382 0.21038 0.76323
 C209 C 0.74707 0.21963 0.77634
 C210 C 0.75692 0.24295 0.76319
 C211 C 0.77638 0.28917 0.73711
 C212 C 0.78977 0.27576 0.76267
 C213 C 0.78037 0.25263 0.77604
 C214 C 0.79375 0.23886 0.80196
 C215 C 0.78386 0.21597 0.81468
 C216 C 0.76082 0.20624 0.80227
 H217 H 0.69263 0.21585 0.72841
 H218 H 0.71578 0.19267 0.77268
 H219 H 0.78442 0.30688 0.72767
 H220 H 0.80759 0.28368 0.77190
 H221 H 0.70591 0.29403 0.66571
 H222 H 0.79430 0.20552 0.83462
 C223 C 0.29305 0.73973 0.69793
 C224 C 0.28328 0.71673 0.68543
 C225 C 0.26023 0.70699 0.69783
 C226 C 0.24634 0.72049 0.72353
 C227 C 0.25606 0.74391 0.73647
 C228 C 0.27953 0.75360 0.72362
 C229 C 0.28881 0.77683 0.73678
 C230 C 0.27529 0.79033 0.76214
 C231 C 0.25203 0.78108 0.77523
 C232 C 0.24230 0.75766 0.76229
 C233 C 0.22308 0.71123 0.73663
 C234 C 0.20957 0.72473 0.76199
 C235 C 0.21884 0.74795 0.77516
 C236 C 0.20534 0.76181 0.80088
 C237 C 0.21511 0.78481 0.81337
 C238 C 0.23815 0.79457 0.80094
 H239 H 0.30663 0.78476 0.72756
 H240 H 0.28324 0.80812 0.77143
 H241 H 0.21512 0.69345 0.72734
 H242 H 0.19175 0.71680 0.77123
 H243 H 0.29381 0.70621 0.66567
 H244 H 0.20459 0.79532 0.83316
 C245 C 0.23814 0.20558 0.80151
 C246 C 0.21522 0.21544 0.81412
 C247 C 0.20555 0.23850 0.80170
 C248 C 0.21902 0.25230 0.77587
 C249 C 0.24237 0.24249 0.76281
 C250 C 0.25200 0.21902 0.77568
 C251 C 0.27515 0.20966 0.76241
 C252 C 0.28865 0.22310 0.73695
 C253 C 0.27946 0.24638 0.72385
 C254 C 0.25610 0.25617 0.73688
 C255 C 0.20983 0.27557 0.76276
 C256 C 0.22332 0.28900 0.73728
 C257 C 0.24647 0.27964 0.72400
 C258 C 0.26033 0.29308 0.69818
 C259 C 0.28327 0.28324 0.68561
 C260 C 0.29295 0.26020 0.69805
 H261 H 0.28303 0.19183 0.77165
 H262 H 0.30638 0.21509 0.72759
 H263 H 0.19210 0.28358 0.77214
 H264 H 0.21543 0.30683 0.72804
 H265 H 0.20472 0.20498 0.83400
 H266 H 0.29379 0.29372 0.66576
 C267 C 0.74003 0.70663 0.69781
 C268 C 0.71703 0.71635 0.68530
 C269 C 0.70722 0.73931 0.69780
 C270 C 0.72064 0.75316 0.72361
 C271 C 0.74407 0.74349 0.73656
 C272 C 0.75384 0.72010 0.72361
 C273 C 0.77707 0.71087 0.73679
 C274 C 0.79050 0.72435 0.76225
 C275 C 0.78118 0.74753 0.77544
 C276 C 0.75775 0.75721 0.76250
 C277 C 0.71132 0.77634 0.73681
 C278 C 0.72474 0.78981 0.76229
 C279 C 0.74797 0.78058 0.77546
 C280 C 0.76175 0.79404 0.80130
 C281 C 0.78476 0.78433 0.81380
 C282 C 0.79459 0.76138 0.80127
 H283 H 0.78506 0.69311 0.72749
 H284 H 0.80830 0.71644 0.77155
 H285 H 0.69352 0.78426 0.72752
 H286 H 0.71675 0.80757 0.77160
 H287 H 0.70656 0.70584 0.66545
 H288 H 0.79521 0.79483 0.83367
 C289 C 0.28654 0.08860 0.10185
 C290 C 0.26325 0.09674 0.11579
 C291 C 0.24094 0.08334 0.10793
 C292 C 0.24172 0.06234 0.08554
 C293 C 0.26489 0.05437 0.07062
 C294 C 0.28739 0.06747 0.07946
 C295 C 0.26157 0.11976 0.13614
 C296 C 0.25869 0.13935 0.15212
 C297 C 0.25365 0.16253 0.16951
 C298 C 0.24793 0.18243 0.18315
 H299 H 0.30391 0.09892 0.10761
 H300 H 0.22279 0.08952 0.11845
 H301 H 0.22406 0.05266 0.07938
 H302 H 0.30550 0.06184 0.06833
 C303 C 0.78766 0.58862 0.60313
 C304 C 0.76428 0.59677 0.61674
 C305 C 0.74203 0.58337 0.60867
 C306 C 0.74295 0.56233 0.58635
 C307 C 0.76621 0.55436 0.57172
 C308 C 0.78866 0.56746 0.58082
 C309 C 0.76246 0.61986 0.63691
 C310 C 0.75949 0.63951 0.65270
 C311 C 0.75435 0.66276 0.66983
 C312 C 0.74858 0.68271 0.68326
 H313 H 0.80499 0.59896 0.60907
 H314 H 0.72381 0.58956 0.61894
 H315 H 0.72534 0.55265 0.57998
 H316 H 0.80684 0.56182 0.56992
 C317 C 0.71366 0.91295 0.10467
 C318 C 0.73718 0.90332 0.11569
 C319 C 0.75968 0.91522 0.10495
 C320 C 0.75883 0.93624 0.08260
 C321 C 0.73533 0.94579 0.07044
 C322 C 0.71270 0.93412 0.08232
 C323 C 0.73873 0.88033 0.13614
 C324 C 0.74154 0.86074 0.15215
 C325 C 0.74655 0.83753 0.16949
 C326 C 0.75227 0.81760 0.18305
 H327 H 0.69611 0.90382 0.11276
 H328 H 0.77800 0.90788 0.11325
 H329 H 0.77670 0.94465 0.07434
 H330 H 0.69425 0.94088 0.07370
 C331 C 0.21298 0.41126 0.60360
 C332 C 0.23638 0.40307 0.61710
 C333 C 0.25863 0.41647 0.60892
 C334 C 0.25768 0.43753 0.58662
 C335 C 0.23439 0.44554 0.57211
 C336 C 0.21196 0.43245 0.58131
 C337 C 0.23820 0.37998 0.63728
 C338 C 0.24114 0.36031 0.65308
 C339 C 0.24621 0.33704 0.67022
 C340 C 0.25190 0.31705 0.68364
 H341 H 0.19565 0.40094 0.60962
 H342 H 0.27686 0.41025 0.61910
 H343 H 0.27529 0.44720 0.58017
 H344 H 0.19375 0.43811 0.57050
 C345 C 0.91661 0.24143 0.10831
 C346 C 0.90319 0.26369 0.11621
 C347 C 0.91135 0.28703 0.10241
 C348 C 0.93254 0.28797 0.08011
 C349 C 0.94566 0.26551 0.07121
 C350 C 0.93766 0.24230 0.08601
 C351 C 0.88012 0.26191 0.13646
 C352 C 0.86050 0.25892 0.15235
 C353 C 0.83731 0.25372 0.16966
 C354 C 0.81741 0.24789 0.18325
 H355 H 0.91041 0.22325 0.11873
 H356 H 0.90101 0.30437 0.10821
 H357 H 0.93820 0.30612 0.06907
 H358 H 0.94736 0.22467 0.07980
 C359 C 0.41648 0.74140 0.60886
 C360 C 0.40317 0.76367 0.61705
 C361 C 0.41146 0.78707 0.60361
 C362 C 0.43267 0.78807 0.58135
 C363 C 0.44568 0.76561 0.57214
 C364 C 0.43757 0.74233 0.58660
 C365 C 0.38004 0.76188 0.63719
 C366 C 0.36035 0.75895 0.65295
 C367 C 0.33705 0.75389 0.67005
 C368 C 0.31704 0.74820 0.68344
 H369 H 0.41018 0.72317 0.61900
 H370 H 0.40120 0.80441 0.60964
 H371 H 0.43842 0.80627 0.57058
 H372 H 0.44718 0.72470 0.58013
 C373 C 0.08882 0.71347 0.10187
 C374 C 0.09709 0.73677 0.11563
 C375 C 0.08379 0.75910 0.10767
 C376 C 0.06275 0.75832 0.08535
 C377 C 0.05464 0.73514 0.07060
 C378 C 0.06764 0.71262 0.07956
 C379 C 0.12015 0.73843 0.13591
 C380 C 0.13978 0.74127 0.15183
 C381 C 0.16299 0.74629 0.16915
 C382 C 0.18293 0.75199 0.18272
 H383 H 0.09906 0.69608 0.10772
 H384 H 0.09008 0.77725 0.11805
 H385 H 0.05314 0.77599 0.07910
 H386 H 0.06191 0.69449 0.06857
 C387 C 0.58850 0.21277 0.60380
 C388 C 0.59659 0.23620 0.61735
 C389 C 0.58313 0.25839 0.60920
 C390 C 0.56210 0.25736 0.58688
 C391 C 0.55419 0.23405 0.57230
 C392 C 0.56734 0.21167 0.58148
 C393 C 0.61967 0.23812 0.63751
 C394 C 0.63932 0.24117 0.65328
 C395 C 0.66256 0.24637 0.67039
 C396 C 0.68253 0.25216 0.68380
 H397 H 0.59887 0.19549 0.60980
 H398 H 0.58928 0.27664 0.61942
 H399 H 0.55238 0.27493 0.58045
 H400 H 0.56175 0.19345 0.57062
 C401 C 0.75873 0.08344 0.89252
 C402 C 0.73644 0.09675 0.88440
 C403 C 0.71308 0.08853 0.89804
 C404 C 0.71213 0.06736 0.92039
 C405 C 0.73460 0.05434 0.92949
 C406 C 0.75784 0.06241 0.91487
 C407 C 0.73822 0.11978 0.86406
 C408 C 0.74119 0.13937 0.84809
 C409 C 0.74636 0.16254 0.83072
 C410 C 0.75219 0.18241 0.81708
 H411 H 0.77693 0.08969 0.88223
 H412 H 0.69572 0.09878 0.89206
 H413 H 0.69395 0.06164 0.93128
 H414 H 0.77548 0.05279 0.92124
 C415 C 0.25892 0.58328 0.39185
 C416 C 0.23668 0.59658 0.38345
 C417 C 0.21324 0.58835 0.39684
 C418 C 0.21217 0.56722 0.41924
 C419 C 0.23459 0.55423 0.42865
 C420 C 0.25792 0.56228 0.41425
 C421 C 0.23855 0.61961 0.36312
 C422 C 0.24154 0.63921 0.34719
 C423 C 0.24669 0.66242 0.32989
 C424 C 0.25246 0.68234 0.31634
 H425 H 0.27718 0.58953 0.38175
 H426 H 0.19592 0.59859 0.39065
 H427 H 0.19393 0.56152 0.42995
 H428 H 0.27552 0.55268 0.42086
 C429 C 0.28517 0.91383 0.89414
 C430 C 0.26162 0.90405 0.88343
 C431 C 0.23913 0.91572 0.89461
 C432 C 0.24003 0.93666 0.91710
 C433 C 0.26356 0.94635 0.92895
 C434 C 0.28617 0.93491 0.91663
 C435 C 0.26006 0.88114 0.86281
 C436 C 0.25728 0.86159 0.84669
 C437 C 0.25232 0.83841 0.82923
 C438 C 0.24666 0.81848 0.81561
 H439 H 0.30271 0.90488 0.88571
 H440 H 0.22080 0.90827 0.88655
 H441 H 0.22218 0.94488 0.92570
 H442 H 0.30465 0.94178 0.92500
 C443 C 0.78706 0.41153 0.39662
 C444 C 0.76360 0.40339 0.38322
 C445 C 0.74140 0.41677 0.39158
 C446 C 0.74245 0.43776 0.41395
 C447 C 0.76580 0.44572 0.42837
 C448 C 0.78818 0.43265 0.41899
 C449 C 0.76167 0.38035 0.36298
 C450 C 0.75863 0.36072 0.34714
 C451 C 0.75344 0.33750 0.32996
 C452 C 0.74766 0.31756 0.31651
 H453 H 0.80435 0.40122 0.39046
 H454 H 0.72313 0.41058 0.38147
 H455 H 0.72488 0.44743 0.42053
 H456 H 0.80643 0.43829 0.42972
 C457 C 0.08444 0.24003 0.89536
 C458 C 0.09631 0.26250 0.88444
 C459 C 0.08673 0.28605 0.89542
 C460 C 0.06565 0.28708 0.91791
 C461 C 0.05401 0.26447 0.92996
 C462 C 0.06350 0.24094 0.91785
 C463 C 0.11921 0.26088 0.86380
 C464 C 0.13873 0.25800 0.84765
 C465 C 0.16185 0.25290 0.83015
 C466 C 0.18172 0.24712 0.81648
 H467 H 0.09173 0.22169 0.88708
 H468 H 0.09585 0.30357 0.88719
 H469 H 0.05893 0.30555 0.92650
 H470 H 0.05511 0.22310 0.92624
 C471 C 0.58862 0.78680 0.39700
 C472 C 0.59684 0.76337 0.38365
 C473 C 0.58354 0.74111 0.39209
 C474 C 0.56254 0.74210 0.41449
 C475 C 0.55449 0.76542 0.42884
 C476 C 0.56749 0.78786 0.41940
 C477 C 0.61986 0.76154 0.36331
 C478 C 0.63946 0.75858 0.34737
 C479 C 0.66266 0.75349 0.33005
 C480 C 0.68259 0.74776 0.31649
 H481 H 0.59886 0.80414 0.39077
 H482 H 0.58979 0.72286 0.38202
 H483 H 0.55293 0.72449 0.42113
 H484 H 0.56179 0.80609 0.43007
 C485 C 0.91582 0.76069 0.89480
 C486 C 0.90412 0.73818 0.88372
 C487 C 0.91388 0.71465 0.89451
 C488 C 0.93496 0.71368 0.91698
 C489 C 0.94644 0.73632 0.92920
 C490 C 0.93677 0.75983 0.91727
 C491 C 0.88120 0.73969 0.86311
 C492 C 0.86164 0.74243 0.84700
 C493 C 0.83846 0.74732 0.82955
 C494 C 0.81852 0.75293 0.81593
 H495 H 0.90839 0.77901 0.88667
 H496 H 0.90489 0.69709 0.88617
 H497 H 0.94182 0.69522 0.92542
 H498 H 0.94502 0.77769 0.92579
 C499 C 0.41682 0.25826 0.39176
 C500 C 0.40341 0.23604 0.38353
 C501 C 0.41150 0.21262 0.39710
 C502 C 0.43260 0.21156 0.41951
 C503 C 0.44570 0.23397 0.42876
 C504 C 0.43779 0.25727 0.41418
 C505 C 0.38038 0.23792 0.36325
 C506 C 0.36078 0.24095 0.34737
 C507 C 0.33758 0.24615 0.33015
 C508 C 0.31766 0.25196 0.31666
 H509 H 0.41066 0.27650 0.38153
 H510 H 0.40116 0.19531 0.39104
 H511 H 0.43819 0.19335 0.43037
 H512 H 0.44748 0.27486 0.42066
 C513 C 0.75932 0.91691 0.89146
 C514 C 0.73712 0.90346 0.88323
 C515 C 0.71370 0.91144 0.89690
 C516 C 0.71261 0.93248 0.91943
 C517 C 0.73500 0.94562 0.92868
 C518 C 0.75830 0.93782 0.91399
 C519 C 0.73904 0.88049 0.86283
 C520 C 0.74209 0.86093 0.84686
 C521 C 0.74731 0.83778 0.82953
 C522 C 0.75314 0.81789 0.81597
 H523 H 0.77756 0.91084 0.88114
 H524 H 0.69642 0.90107 0.89084
 H525 H 0.69440 0.93799 0.93037
 H526 H 0.77587 0.94755 0.92047
 C527 C 0.21332 0.41113 0.39736
 C528 C 0.23677 0.40287 0.38409
 C529 C 0.25902 0.41617 0.39253
 C530 C 0.25800 0.43722 0.41482
 C531 C 0.23466 0.44532 0.42907
 C532 C 0.21224 0.43230 0.41965
 C533 C 0.23863 0.37983 0.36379
 C534 C 0.24160 0.36023 0.34787
 C535 C 0.24672 0.33705 0.33054
 C536 C 0.25247 0.31714 0.31694
 H537 H 0.19599 0.40088 0.39114
 H538 H 0.27728 0.40990 0.38252
 H539 H 0.27561 0.44683 0.42145
 H540 H 0.19399 0.43803 0.43025
 C541 C 0.23902 0.08410 0.89459
 C542 C 0.26149 0.09586 0.88346
 C543 C 0.28505 0.08614 0.89416
 C544 C 0.28608 0.06503 0.91661
 C545 C 0.26349 0.05351 0.92890
 C546 C 0.23994 0.06313 0.91704
 C547 C 0.25991 0.11882 0.86294
 C548 C 0.25712 0.13841 0.84692
 C549 C 0.25218 0.16164 0.82959
 C550 C 0.24656 0.18161 0.81607
 H551 H 0.22067 0.09151 0.88654
 H552 H 0.30258 0.09517 0.88577
 H553 H 0.30457 0.05821 0.92499
 H554 H 0.22210 0.05484 0.92562
 C555 C 0.74157 0.58357 0.39187
 C556 C 0.76380 0.59694 0.38351
 C557 C 0.78724 0.58877 0.39690
 C558 C 0.78832 0.56761 0.41924
 C559 C 0.76591 0.55454 0.42859
 C560 C 0.74258 0.56254 0.41421
 C561 C 0.76191 0.61998 0.36322
 C562 C 0.75888 0.63959 0.34732
 C563 C 0.75368 0.66277 0.33004
 C564 C 0.74787 0.68268 0.31649
 H565 H 0.72331 0.58978 0.38177
 H566 H 0.80455 0.59908 0.39074
 H567 H 0.80656 0.56195 0.42995
 H568 H 0.72499 0.55288 0.42078
 C569 C 0.08409 0.76076 0.89430
 C570 C 0.09580 0.73827 0.88323
 C571 C 0.08607 0.71473 0.89409
 C572 C 0.06502 0.71373 0.91664
 C573 C 0.05355 0.73635 0.92887
 C574 C 0.06317 0.75987 0.91685
 C575 C 0.11871 0.73983 0.86260
 C576 C 0.13827 0.74263 0.84650
 C577 C 0.16146 0.74762 0.82908
 C578 C 0.18141 0.75330 0.81549
 H579 H 0.09150 0.77909 0.88612
 H580 H 0.09506 0.69719 0.88575
 H581 H 0.05819 0.69527 0.92515
 H582 H 0.05492 0.77773 0.92537
 C583 C 0.58871 0.21276 0.39753
 C584 C 0.59692 0.23620 0.38412
 C585 C 0.58358 0.25843 0.39244
 C586 C 0.56255 0.25741 0.41478
 C587 C 0.55450 0.23409 0.42919
 C588 C 0.56755 0.21167 0.41987
 C589 C 0.61996 0.23808 0.36381
 C590 C 0.63956 0.24110 0.34788
 C591 C 0.66273 0.24630 0.33055
 C592 C 0.68263 0.25211 0.31695
 H593 H 0.59899 0.19544 0.39140
 H594 H 0.58982 0.27668 0.38232
 H595 H 0.55291 0.27500 0.42132
 H596 H 0.56185 0.19344 0.43059
 C597 C 0.91693 0.24067 0.89143
 C598 C 0.90371 0.26294 0.88294
 C599 C 0.91202 0.28638 0.89619
 C600 C 0.93315 0.28743 0.91855
 C601 C 0.94606 0.26498 0.92806
 C602 C 0.93794 0.24165 0.91379
 C603 C 0.88064 0.26110 0.86274
 C604 C 0.86098 0.25814 0.84694
 C605 C 0.83772 0.25305 0.82983
 C606 C 0.81773 0.24733 0.81645
 H607 H 0.91061 0.22241 0.88144
 H608 H 0.90182 0.30372 0.88993
 H609 H 0.93891 0.30567 0.92916
 H610 H 0.94748 0.22403 0.92049
 C611 C 0.41151 0.78682 0.39729
 C612 C 0.40325 0.76339 0.38393
 C613 C 0.41652 0.74113 0.39236
 C614 C 0.43753 0.74212 0.41473
 C615 C 0.44562 0.76544 0.42907
 C616 C 0.43264 0.78787 0.41966
 C617 C 0.38025 0.76155 0.36356
 C618 C 0.36067 0.75857 0.34757
 C619 C 0.33751 0.75343 0.33018
 C620 C 0.31763 0.74765 0.31654
 H621 H 0.40129 0.80416 0.39108
 H622 H 0.41025 0.72288 0.38228
 H623 H 0.44711 0.72451 0.42134
 H624 H 0.43837 0.80610 0.43033
 C625 C 0.24110 0.91649 0.10806
 C626 C 0.26342 0.90312 0.11583
 C627 C 0.28669 0.91130 0.10185
 C628 C 0.28751 0.93246 0.07947
 C629 C 0.26499 0.94552 0.07069
 C630 C 0.24185 0.93752 0.08568
 C631 C 0.26176 0.88006 0.13611
 C632 C 0.25889 0.86042 0.15202
 C633 C 0.25385 0.83719 0.16929
 C634 C 0.24813 0.81724 0.18283
 H635 H 0.22297 0.91028 0.11862
 H636 H 0.30407 0.90100 0.10755
 H637 H 0.30561 0.93812 0.06829
 H638 H 0.22419 0.94717 0.07956
 C639 C 0.74172 0.41643 0.60834
 C640 C 0.76393 0.40300 0.61645
 C641 C 0.78735 0.41115 0.60289
 C642 C 0.78842 0.43234 0.58060
 C643 C 0.76601 0.44547 0.57149
 C644 C 0.74272 0.43749 0.58605
 C645 C 0.76204 0.37993 0.63668
 C646 C 0.75901 0.36030 0.65254
 C647 C 0.75380 0.33710 0.66980
 C648 C 0.74798 0.31719 0.68335
 H649 H 0.72348 0.41024 0.61858
 H650 H 0.80465 0.40080 0.60886
 H651 H 0.80663 0.43798 0.56975
 H652 H 0.72513 0.44720 0.57967
 C653 C 0.75912 0.08293 0.10940
 C654 C 0.73687 0.09624 0.11767
 C655 C 0.71345 0.08799 0.10426
 C656 C 0.71242 0.06683 0.08195
 C657 C 0.73487 0.05383 0.07264
 C658 C 0.75816 0.06189 0.08708
 C659 C 0.73870 0.11935 0.13779
 C660 C 0.74167 0.13904 0.15351
 C661 C 0.74678 0.16233 0.17055
 C662 C 0.75249 0.18234 0.18388
 H663 H 0.77736 0.08920 0.11951
 H664 H 0.69612 0.09826 0.11035
 H665 H 0.69421 0.06112 0.07120
 H666 H 0.77578 0.05229 0.08055
 C667 C 0.25854 0.58377 0.60835
 C668 C 0.23626 0.59707 0.61656
 C669 C 0.21287 0.58876 0.60315
 C670 C 0.21188 0.56754 0.58092
 C671 C 0.23434 0.55453 0.57171
 C672 C 0.25762 0.56267 0.58613
 C673 C 0.23804 0.62017 0.63674
 C674 C 0.24096 0.63982 0.65257
 C675 C 0.24602 0.66308 0.66976
 C676 C 0.25173 0.68305 0.68324
 H677 H 0.27676 0.59008 0.61847
 H678 H 0.19551 0.59900 0.60919
 H679 H 0.19368 0.56177 0.57019
 H680 H 0.27525 0.55307 0.57967
 C681 C 0.91142 0.71365 0.10213
 C682 C 0.90333 0.73696 0.11604
 C683 C 0.91681 0.75923 0.10821
 C684 C 0.93784 0.75839 0.08585
 C685 C 0.94574 0.73521 0.07093
 C686 C 0.93258 0.71274 0.07977
 C687 C 0.88026 0.73871 0.13629
 C688 C 0.86063 0.74163 0.15218
 C689 C 0.83742 0.74673 0.16944
 C690 C 0.81748 0.75246 0.18298
 H691 H 0.90103 0.69631 0.10788
 H692 H 0.91067 0.77739 0.11871
 H693 H 0.94757 0.77602 0.07968
 H694 H 0.93816 0.69462 0.06865
 C695 C 0.41100 0.21249 0.60333
 C696 C 0.40277 0.23590 0.61676
 C697 C 0.41615 0.25815 0.60856
 C698 C 0.43724 0.25720 0.58631
 C699 C 0.44529 0.23390 0.57188
 C700 C 0.43221 0.21146 0.58109
 C701 C 0.37967 0.23773 0.63693
 C702 C 0.36002 0.24071 0.65275
 C703 C 0.33679 0.24585 0.66993
 C704 C 0.31685 0.25163 0.68342
 H705 H 0.40069 0.19516 0.60938
 H706 H 0.40990 0.27639 0.61869
 H707 H 0.44690 0.27481 0.57985
 H708 H 0.43792 0.19325 0.57034
 C709 C 0.08874 0.28662 0.10320
 C710 C 0.09681 0.26323 0.11689
 C711 C 0.08336 0.24100 0.10883
 C712 C 0.06237 0.24195 0.08644
 C713 C 0.05448 0.26521 0.07172
 C714 C 0.06762 0.28764 0.08081
 C715 C 0.11986 0.26140 0.13713
 C716 C 0.13949 0.25842 0.15296
 C717 C 0.16272 0.25328 0.17013
 C718 C 0.18267 0.24753 0.18357
 H719 H 0.09910 0.30393 0.10913
 H720 H 0.08950 0.22279 0.11916
 H721 H 0.05266 0.22435 0.08007
 H722 H 0.06204 0.30582 0.06985
 C723 C 0.58906 0.78683 0.60325
 C724 C 0.59728 0.76341 0.61666
 C725 C 0.58387 0.74117 0.60849
 C726 C 0.56276 0.74216 0.58629
 C727 C 0.55471 0.76547 0.57187
 C728 C 0.56783 0.78789 0.58105
 C729 C 0.62039 0.76156 0.63679
 C730 C 0.64005 0.75859 0.65258
 C731 C 0.66331 0.75349 0.66974
 C732 C 0.68327 0.74778 0.68320
 H733 H 0.59938 0.80415 0.60926
 H734 H 0.59010 0.72293 0.61860
 H735 H 0.55307 0.72456 0.57985
 H736 H 0.56214 0.80611 0.57032
   
