data_POSCAR
  _audit_creation_date              2014-09-24
  _audit_creation_method            'ToBaCCo'
  _symmetry_space_group_name_H-M    'P1'
  _symmetry_Int_Tables_number       1
  _symmetry_cell_setting            triclinic
  loop_
  _symmetry_equiv_pos_as_xyz
 x,y,z
_cell_length_a 51.4751
_cell_length_b 51.4812
_cell_length_c 42.4875
_cell_angle_alpha 89.967900
_cell_angle_beta 90.019500
_cell_angle_gamma 90.086800
loop_
  _atom_site_label
  _atom_site_type_symbol
  _atom_site_fract_x
  _atom_site_fract_y
  _atom_site_fract_z
O1 O -0.02508 0.30823 0.03086
 O2 O 0.02572 0.30835 -0.03039
 O3 O -0.02505 0.30859 -0.03043
 O4 O 0.02566 0.30810 0.03094
 O5 O 0.02535 0.26515 0.03055
 O6 O -0.02519 0.26563 -0.03062
 O7 O 0.02541 0.26540 -0.03057
 O8 O -0.02522 0.26527 0.03047
 Cu9 Cu 0.00034 0.31267 0.00026
 Cu10 Cu 0.00007 0.26104 -0.00008
 C11 C -0.03379 0.28669 0.04089
 C12 C 0.03421 0.28684 -0.04071
 C13 C -0.03376 0.28715 -0.04075
 C14 C 0.03411 0.28650 0.04101
 O15 O 0.47494 0.80793 0.52995
 O16 O 0.52592 0.80774 0.46896
 O17 O 0.47516 0.80776 0.46864
 O18 O 0.52570 0.80785 0.53028
 O19 O 0.52549 0.76489 0.53034
 O20 O 0.47515 0.76480 0.46891
 O21 O 0.52573 0.76478 0.46922
 O22 O 0.47490 0.76497 0.53003
 Cu23 Cu 0.50044 0.81217 0.49944
 Cu24 Cu 0.50031 0.76054 0.49965
 C25 C 0.46625 0.78644 0.54018
 C26 C 0.53449 0.78619 0.45889
 C27 C 0.46657 0.78622 0.45848
 C28 C 0.53418 0.78633 0.54060
 O29 O 0.97472 0.69282 -0.03239
 O30 O 1.02580 0.69242 0.02854
 O31 O 0.97504 0.69262 0.02891
 O32 O 1.02549 0.69270 -0.03276
 O33 O 1.02560 0.73566 -0.03245
 O34 O 0.97533 0.73558 0.02903
 O35 O 1.02592 0.73538 0.02867
 O36 O 0.97499 0.73577 -0.03208
 Cu37 Cu 1.00024 0.68829 -0.00195
 Cu38 Cu 1.00048 0.73991 -0.00169
 C39 C 0.96615 0.71440 -0.04240
 C40 C 1.03454 0.71387 0.03878
 C41 C 0.96661 0.71413 0.03927
 C42 C 1.03413 0.71424 -0.04291
 O43 O 0.47444 0.19086 0.47021
 O44 O 0.52482 0.19154 0.53197
 O45 O 0.47407 0.19130 0.53150
 O46 O 0.52522 0.19127 0.47065
 O47 O 0.52491 0.23423 0.47036
 O48 O 0.47396 0.23425 0.53100
 O49 O 0.52453 0.23450 0.53148
 O50 O 0.47432 0.23382 0.46990
 Cu51 Cu 0.49966 0.18689 0.50111
 Cu52 Cu 0.49941 0.23852 0.50064
 C53 C 0.46580 0.21227 0.45976
 C54 C 0.53322 0.21317 0.54205
 C55 C 0.46533 0.21282 0.54141
 C56 C 0.53376 0.21279 0.46035
 O57 O 0.69154 0.02527 -0.02960
 O58 O 0.69201 -0.02580 0.03136
 O59 O 0.69191 0.02494 0.03170
 O60 O 0.69157 -0.02550 -0.02993
 O61 O 0.73453 -0.02529 -0.03022
 O62 O 0.73487 0.02498 0.03122
 O63 O 0.73496 -0.02559 0.03088
 O64 O 0.73450 0.02530 -0.02990
 Cu65 Cu 0.68741 -0.00028 0.00092
 Cu66 Cu 0.73904 -0.00014 0.00045
 C67 C 0.71299 0.03397 -0.03992
 C68 C 0.71361 -0.03438 0.04130
 C69 C 0.71348 0.03354 0.04176
 C70 C 0.71304 -0.03398 -0.04035
 O71 O 0.19250 0.52489 0.46798
 O72 O 0.19228 0.47458 0.52987
 O73 O 0.19239 0.52533 0.52931
 O74 O 0.19241 0.47413 0.46858
 O75 O 0.23537 0.47419 0.46882
 O76 O 0.23535 0.52523 0.52937
 O77 O 0.23525 0.47465 0.52993
 O78 O 0.23547 0.52478 0.46823
 Cu79 Cu 0.18805 0.49974 0.49892
 Cu80 Cu 0.23968 0.49972 0.49910
 C81 C 0.21407 0.53338 0.45777
 C82 C 0.21377 0.46606 0.54023
 C83 C 0.21390 0.53398 0.53949
 C84 C 0.21393 0.46545 0.45857
 O85 O 0.30725 1.02610 0.03030
 O86 O 0.30715 0.97561 -0.03134
 O87 O 0.30688 1.02637 -0.03103
 O88 O 0.30761 0.97535 0.02996
 O89 O 0.26465 0.97510 0.03027
 O90 O 0.26392 1.02596 -0.03054
 O91 O 0.26419 0.97537 -0.03084
 O92 O 0.26430 1.02567 0.03059
 Cu93 Cu 0.31157 1.00090 -0.00057
 Cu94 Cu 0.25995 1.00050 -0.00009
 C95 C 0.28574 1.03446 0.04076
 C96 C 0.28561 0.96690 -0.04137
 C97 C 0.28524 1.03484 -0.04098
 C98 C 0.28622 0.96655 0.04029
 O99 O 0.80867 0.52572 0.53134
 O100 O 0.80861 0.47500 0.47003
 O101 O 0.80884 0.52577 0.47003
 O102 O 0.80840 0.47498 0.53134
 O103 O 0.76544 0.47522 0.53101
 O104 O 0.76588 0.52582 0.46990
 O105 O 0.76565 0.47524 0.46990
 O106 O 0.76570 0.52577 0.53101
 Cu107 Cu 0.81298 0.50035 0.50070
 Cu108 Cu 0.76135 0.50053 0.50042
 C109 C 0.78715 0.53435 0.54143
 C110 C 0.78708 0.46650 0.45973
 C111 C 0.78739 0.53444 0.45973
 C112 C 0.78680 0.46648 0.54143
 C113 C 0.21418 0.23205 0.16353
 C114 C 0.23294 0.21317 0.16344
 C115 C 0.24450 0.21370 0.19290
 N116 N 0.23341 0.23221 0.21099
 C117 C 0.21490 0.24349 0.19304
 C118 C 0.26370 0.19609 0.20331
 C119 C 0.27760 0.19926 0.23175
 C120 C 0.29259 0.18017 0.24589
 C121 C 0.30381 0.19125 0.27203
 C122 C 0.29537 0.21681 0.27314
 N123 N 0.27953 0.22157 0.24840
 C124 C 0.30340 0.23528 0.29574
 C125 C 0.29072 0.25930 0.30036
 C126 C 0.29998 0.27925 0.31919
 C127 C 0.28125 0.29815 0.31925
 C128 C 0.26116 0.28912 0.30046
 N129 N 0.26696 0.26534 0.28899
 C130 C 0.23725 0.30203 0.29594
 C131 C 0.21863 0.29415 0.27341
 C132 C 0.19312 0.30275 0.27244
 C133 C 0.18187 0.29163 0.24634
 C134 C 0.20081 0.27656 0.23209
 N135 N 0.22320 0.27831 0.24864
 C136 C 0.19745 0.26275 0.20363
 H137 H 0.20136 0.23669 0.14414
 H138 H 0.23743 0.20040 0.14396
 H139 H 0.24123 0.27143 0.24154
 H140 H 0.29523 0.16033 0.23814
 H141 H 0.31678 0.18160 0.28831
 H142 H 0.31826 0.28005 0.33175
 H143 H 0.28225 0.31639 0.33186
 H144 H 0.16201 0.29442 0.23869
 H145 H 0.27273 0.23967 0.24142
 H146 H 0.18361 0.31575 0.28878
 C147 C 0.79384 0.77462 0.16899
 C148 C 0.77568 0.79402 0.16978
 C149 C 0.75969 0.78895 0.19533
 N150 N 0.76768 0.76718 0.21023
 C151 C 0.78858 0.75837 0.19425
 C152 C 0.73785 0.80412 0.20374
 C153 C 0.72097 0.79866 0.22926
 C154 C 0.69759 0.81133 0.23440
 C155 C 0.68647 0.80017 0.26048
 C156 C 0.70330 0.78091 0.27073
 N157 N 0.72451 0.78045 0.25188
 C158 C 0.69824 0.76435 0.29669
 C159 C 0.71314 0.74221 0.30470
 C160 C 0.70761 0.72570 0.32963
 C161 C 0.72580 0.70633 0.32886
 C162 C 0.74207 0.71167 0.30366
 N163 N 0.73423 0.73358 0.28895
 C164 C 0.76407 0.69666 0.29546
 C165 C 0.78107 0.70228 0.27010
 C166 C 0.80465 0.68990 0.26527
 C167 C 0.81574 0.70104 0.23916
 C168 C 0.79869 0.71998 0.22859
 N169 N 0.77738 0.72029 0.24728
 C170 C 0.80360 0.73635 0.20241
 H171 H 0.80924 0.77282 0.15181
 H172 H 0.77438 0.80998 0.15326
 H173 H 0.76057 0.73083 0.24338
 H174 H 0.68910 0.82674 0.22045
 H175 H 0.66782 0.80537 0.27038
 H176 H 0.69201 0.72731 0.34658
 H177 H 0.72693 0.69021 0.34518
 H178 H 0.83450 0.69601 0.22942
 H179 H 0.74115 0.76958 0.25547
 H180 H 0.81326 0.67469 0.27943
 C181 C 0.77460 0.20643 0.17097
 C182 C 0.79404 0.22461 0.17166
 C183 C 0.78894 0.24076 0.19702
 N184 N 0.76712 0.23285 0.21190
 C185 C 0.75830 0.21184 0.19610
 C186 C 0.80411 0.26270 0.20523
 C187 C 0.79864 0.27971 0.23060
 C188 C 0.81126 0.30320 0.23548
 C189 C 0.80013 0.31439 0.26149
 C190 C 0.78095 0.29751 0.27195
 N191 N 0.78050 0.27618 0.25330
 C192 C 0.76447 0.30261 0.29794
 C193 C 0.74233 0.28770 0.30607
 C194 C 0.72592 0.29323 0.33106
 C195 C 0.70648 0.27505 0.33037
 C196 C 0.71169 0.25877 0.30515
 N197 N 0.73358 0.26661 0.29036
 C198 C 0.69657 0.23678 0.29701
 C199 C 0.70213 0.21972 0.27172
 C200 C 0.68963 0.19615 0.26696
 C201 C 0.70075 0.18495 0.24095
 C202 C 0.71981 0.20192 0.23037
 N203 N 0.72020 0.22329 0.24895
 C204 C 0.73622 0.19688 0.20430
 H205 H 0.77281 0.19091 0.15393
 H206 H 0.81003 0.22582 0.15519
 H207 H 0.73086 0.24005 0.24503
 H208 H 0.82660 0.31169 0.22141
 H209 H 0.80530 0.33313 0.27122
 H210 H 0.72764 0.30883 0.34800
 H211 H 0.69041 0.27392 0.34674
 H212 H 0.69565 0.16618 0.23129
 H213 H 0.76972 0.25949 0.25711
 H214 H 0.67435 0.18761 0.28110
 C215 C 0.20118 0.78045 0.17934
 C216 C 0.22001 0.79931 0.17948
 C217 C 0.24002 0.79013 0.19826
 N218 N 0.23409 0.76629 0.20953
 C219 C 0.21032 0.76036 0.19804
 C220 C 0.26399 0.80297 0.20293
 C221 C 0.28253 0.79499 0.22547
 C222 C 0.30805 0.80362 0.22661
 C223 C 0.31922 0.79237 0.25267
 C224 C 0.30021 0.77718 0.26674
 N225 N 0.27787 0.77900 0.25011
 C226 C 0.30348 0.76318 0.29510
 C227 C 0.28596 0.74383 0.30544
 C228 C 0.28657 0.73218 0.33485
 C229 C 0.26775 0.71331 0.33471
 C230 C 0.25626 0.71405 0.30521
 N231 N 0.26745 0.73268 0.28733
 C232 C 0.23701 0.69653 0.29459
 C233 C 0.22314 0.69989 0.26617
 C234 C 0.20807 0.68091 0.25187
 C235 C 0.19689 0.69217 0.22582
 C236 C 0.20544 0.71772 0.22492
 N237 N 0.22131 0.72230 0.24969
 C238 C 0.19750 0.73634 0.20245
 H239 H 0.18293 0.78136 0.16675
 H240 H 0.21912 0.81763 0.16701
 H241 H 0.22818 0.74035 0.25683
 H242 H 0.31762 0.81674 0.21041
 H243 H 0.33906 0.79514 0.26043
 H244 H 0.29935 0.73669 0.35433
 H245 H 0.26317 0.70042 0.35406
 H246 H 0.18388 0.68264 0.20946
 H247 H 0.25981 0.77204 0.25707
 H248 H 0.20533 0.66102 0.25947
 C249 C 0.78031 0.20099 0.82022
 C250 C 0.79916 0.21983 0.82010
 C251 C 0.78996 0.23985 0.80135
 N252 N 0.76612 0.23391 0.79009
 C253 C 0.76021 0.21012 0.80155
 C254 C 0.80278 0.26383 0.79670
 C255 C 0.79475 0.28238 0.77418
 C256 C 0.80330 0.30792 0.77309
 C257 C 0.79207 0.31907 0.74701
 C258 C 0.77696 0.30003 0.73289
 N259 N 0.77882 0.27769 0.74950
 C260 C 0.76303 0.30328 0.70449
 C261 C 0.74370 0.28575 0.69413
 C262 C 0.73207 0.28636 0.66470
 C263 C 0.71320 0.26754 0.66485
 C264 C 0.71393 0.25605 0.69435
 N265 N 0.73254 0.26725 0.71224
 C266 C 0.69641 0.23681 0.70497
 C267 C 0.69975 0.22296 0.73342
 C268 C 0.68076 0.20791 0.74773
 C269 C 0.69201 0.19674 0.77379
 C270 C 0.71757 0.20527 0.77467
 N271 N 0.72217 0.22113 0.74989
 C272 C 0.73620 0.19730 0.79712
 H273 H 0.78123 0.18272 0.83279
 H274 H 0.81748 0.21895 0.83256
 H275 H 0.74022 0.22798 0.74274
 H276 H 0.81636 0.31752 0.78934
 H277 H 0.79479 0.33893 0.73928
 H278 H 0.73659 0.29914 0.64522
 H279 H 0.70031 0.26295 0.64549
 H280 H 0.68247 0.18374 0.79015
 H281 H 0.77193 0.25961 0.74250
 H282 H 0.66087 0.20519 0.74014
 C283 C 0.20536 0.77548 0.82822
 C284 C 0.22481 0.79365 0.82914
 C285 C 0.24111 0.78844 0.80395
 N286 N 0.23229 0.76757 0.78789
 C287 C 0.21046 0.75954 0.80267
 C288 C 0.26319 0.80349 0.79592
 C289 C 0.27966 0.79853 0.76988
 C290 C 0.29866 0.81558 0.75935
 C291 C 0.30993 0.80441 0.73341
 C292 C 0.29756 0.78077 0.72863
 N293 N 0.27943 0.77713 0.75133
 C294 C 0.30332 0.76368 0.70344
 C295 C 0.28831 0.74164 0.69519
 C296 C 0.29378 0.72530 0.67013
 C297 C 0.27433 0.70713 0.66919
 C298 C 0.25765 0.71274 0.69389
 N299 N 0.26625 0.73387 0.70966
 C300 C 0.23537 0.69791 0.70167
 C301 C 0.21865 0.70305 0.72742
 C302 C 0.19923 0.68629 0.73750
 C303 C 0.18797 0.69745 0.76345
 C304 C 0.20075 0.72080 0.76869
 N305 N 0.21912 0.72427 0.74625
 C306 C 0.19525 0.73769 0.79417
 H307 H 0.18937 0.77414 0.84467
 H308 H 0.22660 0.80903 0.84637
 H309 H 0.23012 0.74087 0.74277
 H310 H 0.30364 0.83439 0.76900
 H311 H 0.32521 0.81299 0.71932
 H312 H 0.31001 0.72638 0.65400
 H313 H 0.27278 0.69150 0.65228
 H314 H 0.17243 0.68902 0.77726
 H315 H 0.26889 0.76029 0.75525
 H316 H 0.19398 0.66764 0.72757
 C317 C 0.29299 0.27509 0.67121
 C318 C 0.27363 0.29330 0.67039
 C319 C 0.25725 0.28795 0.69549
 N320 N 0.26594 0.26695 0.71140
 C321 C 0.28776 0.25898 0.69661
 C322 C 0.23521 0.30296 0.70355
 C323 C 0.21873 0.29800 0.72960
 C324 C 0.19970 0.31499 0.74003
 C325 C 0.18850 0.30388 0.76609
 C326 C 0.20093 0.28033 0.77103
 N327 N 0.21903 0.27669 0.74832
 C328 C 0.19530 0.26336 0.79642
 C329 C 0.21033 0.24139 0.80473
 C330 C 0.20505 0.22523 0.83007
 C331 C 0.22441 0.20702 0.83089
 C332 C 0.24084 0.21242 0.80586
 N333 N 0.23218 0.23345 0.78999
 C334 C 0.26291 0.19744 0.79784
 C335 C 0.27942 0.20243 0.77182
 C336 C 0.29851 0.18547 0.76146
 C337 C 0.30970 0.19658 0.73540
 C338 C 0.29722 0.22009 0.73039
 N339 N 0.27908 0.22371 0.75306
 C340 C 0.30281 0.23703 0.70495
 H341 H 0.30901 0.27383 0.65480
 H342 H 0.27195 0.30879 0.65330
 H343 H 0.26840 0.24044 0.75678
 H344 H 0.19467 0.33374 0.73025
 H345 H 0.17323 0.31246 0.78014
 H346 H 0.18899 0.22645 0.84644
 H347 H 0.22606 0.19149 0.84795
 H348 H 0.32501 0.18802 0.72138
 H349 H 0.22965 0.25992 0.74454
 H350 H 0.30358 0.16675 0.77128
 C351 C 0.71449 0.73307 0.66384
 C352 C 0.73339 0.71434 0.66392
 C353 C 0.74492 0.71510 0.69339
 N354 N 0.73367 0.73361 0.71133
 C355 C 0.71509 0.74466 0.69327
 C356 C 0.76424 0.69769 0.70395
 C357 C 0.77815 0.70110 0.73235
 C358 C 0.79333 0.68220 0.74657
 C359 C 0.80451 0.69348 0.77260
 C360 C 0.79584 0.71897 0.77358
 N361 N 0.77991 0.72349 0.74886
 C362 C 0.80374 0.73760 0.79606
 C363 C 0.79079 0.76149 0.80059
 C364 C 0.79983 0.78159 0.81933
 C365 C 0.78089 0.80028 0.81931
 C366 C 0.76091 0.79099 0.80054
 N367 N 0.76697 0.76724 0.78918
 C368 C 0.73685 0.80362 0.79597
 C369 C 0.71833 0.79555 0.77342
 C370 C 0.69276 0.80395 0.77237
 C371 C 0.68163 0.79272 0.74627
 C372 C 0.70071 0.77776 0.73210
 N373 N 0.72306 0.77972 0.74870
 C374 C 0.69749 0.76386 0.70369
 H375 H 0.70166 0.73753 0.64439
 H376 H 0.73799 0.70151 0.64454
 H377 H 0.74116 0.77295 0.74168
 H378 H 0.79614 0.66235 0.73893
 H379 H 0.81759 0.68401 0.78890
 H380 H 0.81810 0.78263 0.83189
 H381 H 0.78169 0.81856 0.83184
 H382 H 0.66177 0.79534 0.73856
 H383 H 0.77294 0.74150 0.74177
 H384 H 0.68312 0.81691 0.78866
 C385 C 0.29695 0.14781 0.14941
 C386 C 0.27709 0.12958 0.14471
 C387 C 0.25323 0.13263 0.16007
 C388 C 0.24907 0.15402 0.17964
 C389 C 0.28552 0.05343 0.06294
 C390 C 0.29281 0.16924 0.16902
 C391 C 0.28063 0.10836 0.12308
 C392 C 0.28288 0.09081 0.10452
 C393 C 0.28468 0.07052 0.08230
 C394 C 0.26872 0.17262 0.18396
 H395 H 0.31546 0.14568 0.13756
 H396 H 0.23771 0.11869 0.15655
 H397 H 0.23041 0.15633 0.19107
 H398 H 0.30814 0.18344 0.17209
 C399 C 0.79778 0.64938 0.65039
 C400 C 0.77805 0.63097 0.64590
 C401 C 0.75419 0.63392 0.66130
 C402 C 0.74990 0.65538 0.68069
 C403 C 0.78689 0.55447 0.56476
 C404 C 0.79350 0.67089 0.66981
 C405 C 0.78172 0.60967 0.62446
 C406 C 0.78406 0.59203 0.60604
 C407 C 0.78597 0.57164 0.58399
 C408 C 0.76941 0.67416 0.68479
 H409 H 0.81628 0.64733 0.63851
 H410 H 0.73878 0.61983 0.65792
 H411 H 0.73124 0.65761 0.69215
 H412 H 0.80872 0.68523 0.67273
 C413 C 0.73349 0.87307 0.17321
 C414 C 0.72213 0.86915 0.14361
 C415 C 0.71507 0.84405 0.13417
 C416 C 0.71971 0.82289 0.15402
 C417 C 0.71401 0.94639 0.06318
 C418 C 0.73814 0.85191 0.19308
 C419 C 0.71887 0.89067 0.12233
 C420 C 0.71674 0.90847 0.10408
 C421 C 0.71494 0.92906 0.08223
 C422 C 0.73153 0.82670 0.18343
 H423 H 0.73911 0.89239 0.18070
 H424 H 0.70636 0.84079 0.11129
 H425 H 0.71453 0.80352 0.14631
 H426 H 0.74729 0.85509 0.21572
 C427 C 0.24066 0.37025 0.66818
 C428 C 0.22132 0.36936 0.64500
 C429 C 0.20587 0.34709 0.64180
 C430 C 0.21004 0.32562 0.66134
 C431 C 0.21393 0.44601 0.56369
 C432 C 0.24484 0.34881 0.68772
 C433 C 0.21825 0.39077 0.62353
 C434 C 0.21628 0.40845 0.60509
 C435 C 0.21469 0.42886 0.58298
 C436 C 0.22974 0.32629 0.68415
 H437 H 0.25279 0.38734 0.67078
 H438 H 0.19092 0.34616 0.62388
 H439 H 0.19828 0.30834 0.65835
 H440 H 0.26011 0.34954 0.70524
 C441 C 0.84384 0.28513 0.13532
 C442 C 0.86900 0.27839 0.14485
 C443 C 0.87301 0.26738 0.17462
 C444 C 0.85191 0.26274 0.19457
 C445 C 0.94600 0.28638 0.06413
 C446 C 0.82273 0.28050 0.15524
 C447 C 0.89046 0.28162 0.12350
 C448 C 0.90822 0.28373 0.10518
 C449 C 0.92874 0.28549 0.08325
 C450 C 0.82664 0.26902 0.18483
 H451 H 0.84051 0.29356 0.11230
 H452 H 0.89238 0.26201 0.18218
 H453 H 0.85516 0.25385 0.21735
 H454 H 0.80332 0.28542 0.14746
 C455 C 0.34349 0.78566 0.63372
 C456 C 0.36860 0.77909 0.64362
 C457 C 0.37243 0.76842 0.67360
 C458 C 0.35120 0.76391 0.69339
 C459 C 0.44597 0.78628 0.56332
 C460 C 0.32226 0.78116 0.65348
 C461 C 0.39019 0.78210 0.62241
 C462 C 0.40803 0.78401 0.60419
 C463 C 0.42864 0.78555 0.58237
 C464 C 0.32598 0.76999 0.68327
 H465 H 0.34030 0.79383 0.61053
 H466 H 0.39176 0.76318 0.68145
 H467 H 0.35431 0.75526 0.71632
 H468 H 0.30288 0.78592 0.64541
 C469 C 0.12892 0.72319 0.17400
 C470 C 0.13281 0.72097 0.14147
 C471 C 0.15795 0.72281 0.12909
 C472 C 0.17907 0.72729 0.14903
 C473 C 0.05489 0.71395 0.06187
 C474 C 0.15006 0.72767 0.19399
 C475 C 0.11101 0.71796 0.12056
 C476 C 0.09303 0.71609 0.10252
 C477 C 0.07229 0.71461 0.08083
 C478 C 0.17523 0.73004 0.18157
 H479 H 0.10954 0.72187 0.18381
 H480 H 0.16118 0.72118 0.10397
 H481 H 0.19838 0.72901 0.13911
 H482 H 0.14679 0.72979 0.21904
 C483 C 0.63264 0.24681 0.66226
 C484 C 0.62959 0.22292 0.64696
 C485 C 0.64793 0.20319 0.65153
 C486 C 0.66946 0.20750 0.67094
 C487 C 0.55323 0.21369 0.56554
 C488 C 0.65414 0.25114 0.68164
 C489 C 0.60828 0.21922 0.62549
 C490 C 0.59067 0.21681 0.60702
 C491 C 0.57034 0.21477 0.58487
 C492 C 0.67284 0.23162 0.68582
 H493 H 0.61861 0.26223 0.65882
 H494 H 0.64579 0.18467 0.63972
 H495 H 0.68375 0.19227 0.67392
 H496 H 0.65645 0.26982 0.69302
 C497 C 0.72255 0.15755 0.87030
 C498 C 0.72058 0.13247 0.85779
 C499 C 0.72283 0.12868 0.82525
 C500 C 0.72743 0.14986 0.80536
 C501 C 0.71308 0.05435 0.93703
 C502 C 0.72715 0.17871 0.85046
 C503 C 0.71742 0.11061 0.87858
 C504 C 0.71541 0.09258 0.89653
 C505 C 0.71381 0.07179 0.91812
 C506 C 0.72991 0.17497 0.81791
 H507 H 0.72091 0.16070 0.89543
 H508 H 0.72142 0.10935 0.81533
 H509 H 0.72954 0.14667 0.78030
 H510 H 0.72895 0.19798 0.86048
 C511 C 0.20350 0.64797 0.34808
 C512 C 0.22330 0.62971 0.35271
 C513 C 0.24719 0.63282 0.33741
 C514 C 0.25145 0.65431 0.31798
 C515 C 0.21442 0.55339 0.43426
 C516 C 0.20775 0.66950 0.32862
 C517 C 0.21966 0.60842 0.37423
 C518 C 0.21733 0.59082 0.39273
 C519 C 0.21540 0.57049 0.41491
 C520 C 0.23187 0.67294 0.31374
 H521 H 0.18498 0.64579 0.35989
 H522 H 0.26265 0.61886 0.34089
 H523 H 0.27014 0.65667 0.30660
 H524 H 0.19247 0.68373 0.32561
 C525 C 0.29295 0.84778 0.85726
 C526 C 0.27732 0.86992 0.85435
 C527 C 0.25770 0.87066 0.83153
 C528 C 0.25342 0.84921 0.81203
 C529 C 0.28531 0.94678 0.93529
 C530 C 0.28868 0.82631 0.83777
 C531 C 0.28056 0.89136 0.87574
 C532 C 0.28266 0.90909 0.89410
 C533 C 0.28442 0.92956 0.91609
 C534 C 0.26870 0.82682 0.81531
 H535 H 0.30812 0.84697 0.87491
 H536 H 0.24544 0.88764 0.82915
 H537 H 0.23794 0.84983 0.79477
 H538 H 0.30059 0.80914 0.84053
 C539 C 0.79395 0.34680 0.35955
 C540 C 0.77879 0.36919 0.35598
 C541 C 0.75958 0.37013 0.33265
 C542 C 0.75526 0.34861 0.31329
 C543 C 0.78679 0.44630 0.43649
 C544 C 0.78963 0.32526 0.34019
 C545 C 0.78203 0.39071 0.37724
 C546 C 0.78414 0.40850 0.39550
 C547 C 0.78591 0.42903 0.41738
 C548 C 0.77007 0.32597 0.31721
 H549 H 0.80878 0.34585 0.37760
 H550 H 0.74769 0.38731 0.32977
 H551 H 0.74010 0.34937 0.29562
 H552 H 0.80117 0.30789 0.34344
 C553 C 0.12636 0.26813 0.82680
 C554 C 0.13036 0.27908 0.85659
 C555 C 0.15552 0.28581 0.86620
 C556 C 0.17665 0.28119 0.84632
 C557 C 0.05334 0.28665 0.93732
 C558 C 0.14749 0.26350 0.80691
 C559 C 0.10888 0.28223 0.87793
 C560 C 0.09112 0.28424 0.89624
 C561 C 0.07060 0.28588 0.91818
 C562 C 0.17276 0.26974 0.81673
 H563 H 0.10699 0.26277 0.81919
 H564 H 0.15885 0.29420 0.88923
 H565 H 0.19608 0.28608 0.85416
 H566 H 0.14425 0.25463 0.78413
 C567 C 0.65429 0.79338 0.35875
 C568 C 0.63182 0.77828 0.35510
 C569 C 0.63076 0.75927 0.33155
 C570 C 0.65222 0.75509 0.31206
 C571 C 0.55474 0.78588 0.43573
 C572 C 0.67577 0.78920 0.33926
 C573 C 0.61035 0.78138 0.37644
 C574 C 0.59258 0.78338 0.39474
 C575 C 0.57204 0.78504 0.41664
 C576 C 0.67492 0.76984 0.31606
 H577 H 0.65534 0.80806 0.37697
 H578 H 0.61352 0.74742 0.32860
 H579 H 0.65135 0.74008 0.29424
 H580 H 0.69319 0.80069 0.34259
 C581 C 0.87245 0.72470 0.82413
 C582 C 0.86868 0.72234 0.85666
 C583 C 0.84359 0.72408 0.86919
 C584 C 0.82240 0.72856 0.84938
 C585 C 0.94684 0.71475 0.93583
 C586 C 0.85124 0.72918 0.80426
 C587 C 0.89055 0.71923 0.87743
 C588 C 0.90860 0.71724 0.89536
 C589 C 0.92939 0.71559 0.91693
 C590 C 0.82612 0.73143 0.81682
 H591 H 0.89179 0.72345 0.81420
 H592 H 0.84046 0.72235 0.89432
 H593 H 0.80312 0.73018 0.85941
 H594 H 0.85441 0.73138 0.77920
 C595 C 0.34287 0.22112 0.36895
 C596 C 0.36800 0.21940 0.35656
 C597 C 0.37192 0.22191 0.32406
 C598 C 0.35081 0.22655 0.30410
 C599 C 0.44565 0.21225 0.43644
 C600 C 0.32177 0.22576 0.34904
 C601 C 0.38978 0.21630 0.37746
 C602 C 0.40772 0.21438 0.39554
 C603 C 0.42836 0.21288 0.41733
 C604 C 0.32565 0.22881 0.31654
 H605 H 0.33962 0.21928 0.39405
 H606 H 0.39131 0.22070 0.31425
 H607 H 0.35409 0.22889 0.27908
 H608 H 0.30247 0.22740 0.35897
 C609 C 0.72276 0.84307 0.86915
 C610 C 0.72084 0.86818 0.85670
 C611 C 0.72322 0.87209 0.82419
 C612 C 0.72794 0.85099 0.80427
 C613 C 0.71317 0.94585 0.93639
 C614 C 0.72747 0.82199 0.84928
 C615 C 0.71760 0.88995 0.87756
 C616 C 0.71556 0.90789 0.89559
 C617 C 0.71392 0.92854 0.91732
 C618 C 0.73038 0.82585 0.81676
 H619 H 0.72102 0.83984 0.89426
 H620 H 0.72185 0.89145 0.81434
 H621 H 0.73017 0.85427 0.77923
 H622 H 0.72925 0.80271 0.85925
 C623 C 0.22422 0.37067 0.32402
 C624 C 0.22184 0.36686 0.35655
 C625 C 0.22362 0.34176 0.36907
 C626 C 0.22816 0.32060 0.34925
 C627 C 0.21418 0.44503 0.43560
 C628 C 0.22876 0.34950 0.30416
 C629 C 0.21869 0.38871 0.37733
 C630 C 0.21667 0.40675 0.39523
 C631 C 0.21500 0.42755 0.41676
 C632 C 0.23103 0.32437 0.31671
 H633 H 0.22295 0.39002 0.31410
 H634 H 0.22187 0.33860 0.39419
 H635 H 0.22980 0.30132 0.35928
 H636 H 0.23096 0.35271 0.27910
 C637 C 0.25760 0.13009 0.83307
 C638 C 0.27686 0.13104 0.85635
 C639 C 0.29219 0.15338 0.85969
 C640 C 0.28799 0.17485 0.84018
 C641 C 0.28478 0.05401 0.93710
 C642 C 0.25339 0.15154 0.81356
 C643 C 0.28001 0.10957 0.87772
 C644 C 0.28208 0.09181 0.89604
 C645 C 0.28384 0.07129 0.91798
 C646 C 0.26838 0.17413 0.81726
 H647 H 0.24557 0.11295 0.83036
 H648 H 0.30707 0.15434 0.87769
 H649 H 0.29966 0.19218 0.84327
 H650 H 0.23819 0.15077 0.79594
 C651 C 0.76904 0.62772 0.32587
 C652 C 0.77977 0.63175 0.35578
 C653 C 0.78627 0.65694 0.36547
 C654 C 0.78166 0.67806 0.34556
 C655 C 0.78729 0.55466 0.43649
 C656 C 0.76442 0.64884 0.30593
 C657 C 0.78292 0.61026 0.37713
 C658 C 0.78493 0.59249 0.39544
 C659 C 0.78655 0.57194 0.41737
 C660 C 0.77044 0.67413 0.31583
 H661 H 0.76385 0.60833 0.31819
 H662 H 0.79449 0.66029 0.38860
 H663 H 0.78638 0.69750 0.35346
 H664 H 0.75573 0.64557 0.28305
 C665 C 0.12628 0.73359 0.82461
 C666 C 0.13011 0.72210 0.85415
 C667 C 0.15515 0.71481 0.86353
 C668 C 0.17634 0.71939 0.84371
 C669 C 0.05317 0.71449 0.93501
 C670 C 0.14746 0.73818 0.80476
 C671 C 0.10861 0.71897 0.87547
 C672 C 0.09086 0.71695 0.89380
 C673 C 0.07038 0.71530 0.91579
 C674 C 0.17262 0.73136 0.81437
 H675 H 0.10701 0.73939 0.81718
 H676 H 0.15835 0.70601 0.88637
 H677 H 0.19568 0.71406 0.85138
 H678 H 0.14436 0.74746 0.78219
 C679 C 0.62756 0.23184 0.32718
 C680 C 0.63150 0.22109 0.35710
 C681 C 0.65666 0.21462 0.36691
 C682 C 0.67784 0.21927 0.34709
 C683 C 0.55410 0.21306 0.43728
 C684 C 0.64873 0.23650 0.30734
 C685 C 0.60995 0.21783 0.37832
 C686 C 0.59210 0.21571 0.39651
 C687 C 0.57147 0.21394 0.41829
 C688 C 0.67399 0.23050 0.31734
 H689 H 0.60819 0.23699 0.31941
 H690 H 0.65994 0.20638 0.39003
 H691 H 0.69725 0.21455 0.35506
 H692 H 0.64553 0.24518 0.28444
 C693 C 0.87149 0.27722 0.82447
 C694 C 0.86777 0.27962 0.85700
 C695 C 0.84272 0.27777 0.86962
 C696 C 0.82150 0.27312 0.84989
 C697 C 0.94594 0.28708 0.93612
 C698 C 0.85025 0.27257 0.80469
 C699 C 0.88968 0.28279 0.87770
 C700 C 0.90774 0.28479 0.89560
 C701 C 0.92852 0.28638 0.91718
 C702 C 0.82517 0.27021 0.81735
 H703 H 0.89081 0.27853 0.81448
 H704 H 0.83963 0.27953 0.89475
 H705 H 0.80225 0.27142 0.85999
 H706 H 0.85338 0.27033 0.77963
 C707 C 0.36704 0.75304 0.33826
 C708 C 0.37007 0.77691 0.35362
 C709 C 0.35177 0.79667 0.34896
 C710 C 0.33031 0.79240 0.32941
 C711 C 0.44648 0.78590 0.43506
 C712 C 0.34562 0.74876 0.31873
 C713 C 0.39135 0.78059 0.37515
 C714 C 0.40897 0.78296 0.39364
 C715 C 0.42933 0.78492 0.41577
 C716 C 0.32696 0.76831 0.31445
 H717 H 0.38104 0.73760 0.34175
 H718 H 0.35388 0.81518 0.36080
 H719 H 0.31606 0.80766 0.32636
 H720 H 0.34334 0.73010 0.30730
 C721 C 0.27703 0.87172 0.17505
 C722 C 0.27946 0.86799 0.14253
 C723 C 0.27781 0.84290 0.12996
 C724 C 0.27331 0.82168 0.14973
 C725 C 0.28626 0.94619 0.06335
 C726 C 0.27252 0.85048 0.19487
 C727 C 0.28244 0.88989 0.12178
 C728 C 0.28427 0.90795 0.10385
 C729 C 0.28568 0.92874 0.08226
 C730 C 0.27033 0.82536 0.18226
 H731 H 0.27819 0.89106 0.18500
 H732 H 0.27959 0.83980 0.10483
 H733 H 0.27172 0.80241 0.13966
 H734 H 0.27023 0.85362 0.21992
 C735 C 0.75307 0.36687 0.66134
 C736 C 0.77697 0.36984 0.64602
 C737 C 0.79667 0.35149 0.65067
 C738 C 0.79233 0.33002 0.67019
 C739 C 0.78634 0.44634 0.56477
 C740 C 0.74871 0.34544 0.68084
 C741 C 0.78073 0.39114 0.62453
 C742 C 0.78319 0.40877 0.60609
 C743 C 0.78526 0.42916 0.58401
 C744 C 0.76822 0.32673 0.68512
 H745 H 0.73768 0.38091 0.65786
 H746 H 0.81520 0.35356 0.63885
 H747 H 0.80755 0.31574 0.67324
 H748 H 0.73004 0.34320 0.69226
 C749 C 0.74125 0.12949 0.16924
 C750 C 0.72189 0.13039 0.14610
 C751 C 0.70656 0.15270 0.14280
 C752 C 0.71088 0.17419 0.16223
 C753 C 0.71385 0.05361 0.06514
 C754 C 0.74557 0.15097 0.18867
 C755 C 0.71865 0.10894 0.12474
 C756 C 0.71655 0.09123 0.10638
 C757 C 0.71477 0.07079 0.08436
 C758 C 0.73060 0.17353 0.18501
 H759 H 0.75327 0.11238 0.17191
 H760 H 0.69161 0.15363 0.12490
 H761 H 0.69922 0.19151 0.15917
 H762 H 0.76086 0.15024 0.20618
 C763 C 0.24042 0.63042 0.66688
 C764 C 0.22154 0.63147 0.64316
 C765 C 0.20652 0.65392 0.63939
 C766 C 0.21065 0.67540 0.65891
 C767 C 0.21414 0.55429 0.56259
 C768 C 0.24456 0.65187 0.68640
 C769 C 0.21849 0.60998 0.62180
 C770 C 0.21654 0.59220 0.60350
 C771 C 0.21493 0.57163 0.58163
 C772 C 0.22989 0.67457 0.68227
 H773 H 0.25221 0.61318 0.66994
 H774 H 0.19193 0.65497 0.62105
 H775 H 0.19922 0.69283 0.65547
 H776 H 0.25949 0.65102 0.70435
 C777 C 0.87081 0.74164 0.16682
 C778 C 0.86987 0.72217 0.14384
 C779 C 0.84760 0.70669 0.14082
 C780 C 0.82617 0.71096 0.16037
 C781 C 0.94653 0.71436 0.06265
 C782 C 0.84941 0.74592 0.18637
 C783 C 0.89125 0.71896 0.12238
 C784 C 0.90894 0.71690 0.10396
 C785 C 0.92935 0.71520 0.08190
 C786 C 0.82688 0.73079 0.18298
 H787 H 0.88790 0.75378 0.16927
 H788 H 0.84664 0.69164 0.12305
 H789 H 0.80888 0.69918 0.15753
 H790 H 0.85017 0.76129 0.20374
 C791 C 0.37176 0.23222 0.67461
 C792 C 0.36777 0.22118 0.64486
 C793 C 0.34261 0.21446 0.63526
 C794 C 0.32148 0.21913 0.65509
 C795 C 0.44502 0.21311 0.56452
 C796 C 0.35062 0.23691 0.69447
 C797 C 0.38928 0.21791 0.62359
 C798 C 0.40708 0.21578 0.60536
 C799 C 0.42767 0.21400 0.58354
 C800 C 0.32536 0.23065 0.68466
 H801 H 0.39113 0.23758 0.68222
 H802 H 0.33930 0.20600 0.61226
 H803 H 0.30205 0.21422 0.64726
 H804 H 0.35386 0.24583 0.71722
 C805 C 0.14914 0.29647 0.15015
 C806 C 0.13073 0.27676 0.14554
 C807 C 0.13370 0.25284 0.16081
 C808 C 0.15517 0.24847 0.18020
 C809 C 0.05422 0.28605 0.06437
 C810 C 0.17065 0.29212 0.16957
 C811 C 0.10942 0.28051 0.12410
 C812 C 0.09178 0.28295 0.10568
 C813 C 0.07139 0.28498 0.08361
 C814 C 0.17393 0.26798 0.18443
 H815 H 0.14707 0.31502 0.13836
 H816 H 0.11962 0.23743 0.15734
 H817 H 0.15741 0.22976 0.19157
 H818 H 0.18498 0.30734 0.17258
 C819 C 0.63391 0.75344 0.66061
 C820 C 0.63080 0.77733 0.64532
 C821 C 0.64905 0.79718 0.64998
 C822 C 0.67055 0.79299 0.66948
 C823 C 0.55428 0.78608 0.56401
 C824 C 0.65537 0.74924 0.68008
 C825 C 0.60948 0.78094 0.62383
 C826 C 0.59184 0.78326 0.60538
 C827 C 0.57144 0.78515 0.58328
 C828 C 0.67398 0.76889 0.68437
 H829 H 0.61995 0.73793 0.65711
 H830 H 0.64687 0.81571 0.63818
 H831 H 0.68476 0.80833 0.67254
 H832 H 0.65772 0.73056 0.69147
   
