data_POSCAR
  _audit_creation_date              2014-09-24
  _audit_creation_method            'ToBaCCo'
  _symmetry_space_group_name_H-M    'P1'
  _symmetry_Int_Tables_number       1
  _symmetry_cell_setting            triclinic
  loop_
  _symmetry_equiv_pos_as_xyz
 x,y,z
_cell_length_a 53.7204
_cell_length_b 54.9262
_cell_length_c 25.2273
_cell_angle_alpha 89.921300
_cell_angle_beta 90.029300
_cell_angle_gamma 122.466300
loop_
  _atom_site_label
  _atom_site_type_symbol
  _atom_site_fract_x
  _atom_site_fract_y
  _atom_site_fract_z
C1 C 0.51132 1.00017 0.47262
 C2 C 0.51219 1.00084 0.52657
 C3 C 0.50035 0.97400 0.55810
 C4 C 0.52534 1.02825 0.55690
 C5 C 0.52568 1.02691 0.43999
 C6 C 0.49561 0.97246 0.44312
 C7 C 0.47770 0.96611 0.59459
 C8 C 0.46653 0.94108 0.62495
 C9 C 0.47811 0.92321 0.62059
 C10 C 0.50136 0.93190 0.58364
 C11 C 0.51214 0.95678 0.55288
 C12 C 0.51654 1.04782 0.54795
 C13 C 0.52945 1.07364 0.57649
 C14 C 0.55110 1.08019 0.61506
 C15 C 0.55933 1.06021 0.62465
 C16 C 0.54657 1.03454 0.59593
 C17 C 0.55558 1.04857 0.44677
 C18 C 0.56874 1.07337 0.41511
 C19 C 0.55236 1.07677 0.37557
 C20 C 0.52256 1.05479 0.36843
 C21 C 0.50940 1.03016 0.40027
 C22 C 0.51067 0.96696 0.40436
 C23 C 0.49586 0.94169 0.37438
 C24 C 0.46559 0.92152 0.38226
 C25 C 0.45053 0.92703 0.42123
 C26 C 0.46541 0.95232 0.45134
 H27 H 0.46865 0.97946 0.59968
 H28 H 0.44997 0.93711 0.65397
 H29 H 0.51063 0.91901 0.57584
 H30 H 0.52978 0.96265 0.52486
 H31 H 0.49976 1.04314 0.51875
 H32 H 0.52271 1.08861 0.56793
 H33 H 0.55347 1.01964 0.60389
 H34 H 0.56874 1.04624 0.47645
 H35 H 0.59169 1.08995 0.42179
 H36 H 0.50948 1.05639 0.33760
 H37 H 0.48641 1.01357 0.39395
 H38 H 0.53390 0.98239 0.39710
 H39 H 0.50793 0.93827 0.34408
 H40 H 0.42725 0.91181 0.42834
 H41 H 0.45329 0.95641 0.48047
 H42 H 0.57544 1.06427 0.65485
 C43 C 0.00089 0.51301 0.47193
 C44 C 0.00047 0.51090 0.52577
 C45 C 0.02790 0.52450 0.55789
 C46 C -0.02765 0.49503 0.55582
 C47 C -0.02680 0.49972 0.44068
 C48 C 0.02883 0.52847 0.44119
 C49 C 0.04967 0.51816 0.54940
 C50 C 0.07531 0.53139 0.58030
 C51 C 0.07944 0.55092 0.62061
 C52 C 0.05730 0.55674 0.62948
 C53 C 0.03183 0.54365 0.59851
 C54 C -0.03341 0.47180 0.58821
 C55 C -0.05956 0.45670 0.61727
 C56 C -0.08038 0.46470 0.61486
 C57 C -0.07445 0.48817 0.58265
 C58 C -0.04825 0.50326 0.55349
 C59 C -0.03244 0.51728 0.40944
 C60 C -0.05854 0.50539 0.38036
 C61 C -0.07972 0.47535 0.38110
 C62 C -0.07344 0.45783 0.41227
 C63 C -0.04733 0.46989 0.44158
 C64 C 0.05058 0.55751 0.45117
 C65 C 0.07688 0.57136 0.42207
 C66 C 0.08171 0.55651 0.38206
 C67 C 0.05952 0.52765 0.37149
 C68 C 0.03339 0.51382 0.40070
 H69 H 0.04682 0.50303 0.51886
 H70 H 0.09201 0.52655 0.57232
 H71 H 0.05948 0.57117 0.66090
 H72 H 0.01515 0.54859 0.60605
 H73 H -0.01763 0.46532 0.59083
 H74 H -0.06326 0.43906 0.64244
 H75 H -0.04397 0.52143 0.52929
 H76 H -0.01661 0.54035 0.40778
 H77 H -0.06124 0.51991 0.35566
 H78 H -0.08905 0.43485 0.41608
 H79 H -0.04322 0.45596 0.46533
 H80 H 0.04725 0.56938 0.48158
 H81 H 0.09356 0.59357 0.43128
 H82 H 0.06221 0.51580 0.34015
 H83 H 0.01674 0.49152 0.39198
 H84 H -0.09014 0.49474 0.57983
 C85 C 0.48834 0.48819 0.47399
 C86 C 0.48670 0.48721 0.52784
 C87 C 0.47228 0.49968 0.55737
 C88 C 0.49902 0.47362 0.56046
 C89 C 0.50315 0.47624 0.44380
 C90 C 0.47546 0.50154 0.44223
 C91 C 0.48912 0.52285 0.59167
 C92 C 0.47605 0.53479 0.62041
 C93 C 0.44547 0.52350 0.61638
 C94 C 0.42867 0.49987 0.58185
 C95 C 0.44197 0.48823 0.55258
 C96 C 0.52899 0.48320 0.55844
 C97 C 0.54006 0.47013 0.58997
 C98 C 0.52139 0.44711 0.62464
 C99 C 0.49127 0.43802 0.62643
 C100 C 0.48039 0.45117 0.59502
 C101 C 0.49487 0.44739 0.44966
 C102 C 0.50940 0.43681 0.42097
 C103 C 0.53219 0.45480 0.38538
 C104 C 0.53994 0.48348 0.37895
 C105 C 0.52556 0.49404 0.40779
 C106 C 0.45331 0.48473 0.40517
 C107 C 0.44081 0.49679 0.37494
 C108 C 0.45043 0.52602 0.38085
 C109 C 0.47295 0.54296 0.41753
 C110 C 0.48539 0.53082 0.44794
 H111 H 0.51253 0.53171 0.59625
 H112 H 0.48997 0.55202 0.64769
 H113 H 0.40537 0.49080 0.57569
 H114 H 0.42863 0.47021 0.52628
 H115 H 0.54380 0.50074 0.53227
 H116 H 0.56309 0.47760 0.58530
 H117 H 0.45723 0.44376 0.59769
 H118 H 0.47722 0.43310 0.47647
 H119 H 0.50299 0.41466 0.42703
 H120 H 0.55691 0.49772 0.35104
 H121 H 0.53206 0.51627 0.40225
 H122 H 0.44558 0.46216 0.39995
 H123 H 0.42386 0.48334 0.34637
 H124 H 0.48071 0.56550 0.42304
 H125 H 0.50279 0.54423 0.47583
 H126 H 0.47599 0.42152 0.65370
 O127 O 0.38307 0.66951 -0.06676
 O128 O 0.38465 0.71715 -0.04882
 C129 C 0.36551 0.72024 -0.07213
 O130 O 0.33841 0.70555 -0.06004
 O131 O 0.28943 0.65666 -0.04083
 C132 C 0.28469 0.63469 -0.06684
 O133 O 0.29864 0.62240 -0.05829
 O134 O 0.34789 0.62422 -0.04675
 C135 C 0.36952 0.64259 -0.07510
 O136 O 0.38762 0.66263 0.03794
 O137 O 0.38644 0.70873 0.05609
 C138 C 0.37279 0.72089 0.06832
 O139 O 0.34935 0.71544 0.04480
 O140 O 0.30134 0.66560 0.06397
 C141 C 0.28786 0.63888 0.07410
 O142 O 0.29193 0.62161 0.04763
 O143 O 0.34254 0.62613 0.05934
 C144 C 0.37025 0.64063 0.06599
 Cr145 Cr 0.38380 0.68864 -0.00524
 Cr146 Cr 0.32047 0.68507 0.00187
 Cr147 Cr 0.32106 0.62519 0.00044
 O148 O 0.34176 0.66632 -0.00103
 O149 O 0.61557 0.33934 -0.04359
 O150 O 0.61692 0.29391 -0.06769
 C151 C 0.63074 0.28191 -0.07964
 O152 O 0.65313 0.28632 -0.05392
 O153 O 0.70174 0.33714 -0.06258
 C154 C 0.71564 0.36441 -0.06654
 O155 O 0.71092 0.37988 -0.03587
 O156 O 0.66163 0.37744 -0.05141
 C157 C 0.63464 0.36338 -0.06465
 O158 O 0.61370 0.32618 0.06010
 O159 O 0.61353 0.28002 0.03605
 C160 C 0.63143 0.27563 0.06086
 O161 O 0.65901 0.29006 0.05211
 O162 O 0.70911 0.33948 0.04340
 C163 C 0.71274 0.35937 0.07437
 O164 O 0.69892 0.37201 0.06881
 O165 O 0.65080 0.37204 0.05357
 C166 C 0.62707 0.35221 0.07511
 Cr167 Cr 0.61661 0.31074 -0.00366
 Cr168 Cr 0.67992 0.31400 -0.00508
 Cr169 Cr 0.67973 0.37373 0.00847
 O170 O 0.65869 0.33280 -0.00007
 C171 C 0.47437 0.86305 -0.30464
 C172 C 0.44633 0.84966 -0.28036
 C173 C 0.42845 0.86059 -0.29291
 C174 C 0.43901 0.88481 -0.32595
 C175 C 0.46752 0.89892 -0.34870
 C176 C 0.48460 0.88690 -0.33802
 C177 C 0.39996 0.84735 -0.27244
 C178 C 0.38877 0.82356 -0.23927
 C179 C 0.40591 0.81222 -0.22429
 C180 C 0.43540 0.82585 -0.24429
 C181 C 0.45321 0.81574 -0.22642
 C182 C 0.44271 0.79324 -0.19022
 C183 C 0.41391 0.77944 -0.17107
 C184 C 0.39482 0.78821 -0.18873
 C185 C 0.36541 0.77258 -0.16980
 C186 C 0.35595 0.75027 -0.13312
 C187 C 0.37531 0.74260 -0.11390
 C188 C 0.40420 0.75706 -0.13376
 H189 H 0.48913 0.85566 -0.29876
 H190 H 0.42394 0.89150 -0.33565
 H191 H 0.50691 0.89666 -0.35248
 H192 H 0.38608 0.85554 -0.28202
 H193 H 0.36675 0.81508 -0.22481
 H194 H 0.47583 0.82534 -0.23847
 H195 H 0.45740 0.78660 -0.17695
 H196 H 0.34900 0.77686 -0.18264
 H197 H 0.33339 0.73929 -0.11910
 H198 H 0.41930 0.75105 -0.11990
 C199 C 0.14382 0.60673 -0.29641
 C200 C 0.15575 0.59107 -0.27602
 C201 C 0.14307 0.56222 -0.29354
 C202 C 0.11863 0.54943 -0.32783
 C203 C 0.10642 0.56495 -0.34589
 C204 C 0.11962 0.59383 -0.33056
 C205 C 0.15452 0.54608 -0.27620
 C206 C 0.17825 0.55776 -0.24150
 C207 C 0.19133 0.58614 -0.22183
 C208 C 0.17961 0.60294 -0.23880
 C209 C 0.19162 0.63073 -0.21693
 C210 C 0.21418 0.64178 -0.17982
 C211 C 0.22608 0.62589 -0.16341
 C212 C 0.21528 0.59807 -0.18476
 C213 C 0.22894 0.58337 -0.16787
 C214 C 0.25155 0.59544 -0.13031
 C215 C 0.26141 0.62252 -0.10811
 C216 C 0.24869 0.63772 -0.12531
 H217 H 0.15269 0.62906 -0.28713
 H218 H 0.10860 0.52705 -0.33930
 H219 H 0.11121 0.60662 -0.34514
 H220 H 0.14495 0.52403 -0.28952
 H221 H 0.18536 0.54357 -0.22986
 H222 H 0.18359 0.64441 -0.22668
 H223 H 0.22237 0.66307 -0.16368
 H224 H 0.22289 0.56258 -0.18301
 H225 H 0.26112 0.58326 -0.11821
 H226 H 0.25639 0.65889 -0.10905
 C227 C 0.39002 0.52912 -0.30349
 C228 C 0.40673 0.55788 -0.28478
 C229 C 0.43608 0.57555 -0.30334
 C230 C 0.44846 0.56426 -0.33647
 C231 C 0.43215 0.53522 -0.35290
 C232 C 0.40244 0.51814 -0.33688
 C233 C 0.45320 0.60446 -0.28844
 C234 C 0.44210 0.61626 -0.25461
 C235 C 0.41335 0.59942 -0.23337
 C236 C 0.39547 0.56963 -0.24821
 C237 C 0.36732 0.55241 -0.22475
 C238 C 0.35710 0.56368 -0.18764
 C239 C 0.37417 0.59263 -0.17297
 C240 C 0.40222 0.61114 -0.19650
 C241 C 0.41804 0.64061 -0.18162
 C242 C 0.40707 0.65076 -0.14331
 C243 C 0.37997 0.63205 -0.11843
 C244 C 0.36342 0.60306 -0.13420
 H245 H 0.36724 0.51438 -0.29300
 H246 H 0.47081 0.57867 -0.35053
 H247 H 0.38881 0.49559 -0.34754
 H248 H 0.47564 0.61815 -0.30280
 H249 H 0.45709 0.63862 -0.24471
 H250 H 0.35282 0.52976 -0.23302
 H251 H 0.33559 0.54945 -0.16995
 H252 H 0.43897 0.65650 -0.19875
 H253 H 0.42022 0.67335 -0.13248
 H254 H 0.34217 0.58842 -0.11593
 C255 C 0.60788 0.14717 -0.31001
 C256 C 0.59101 0.15793 -0.28976
 C257 C 0.56089 0.14345 -0.30473
 C258 C 0.54814 0.11851 -0.33636
 C259 C 0.56493 0.10752 -0.35419
 C260 C 0.59499 0.12245 -0.34148
 C261 C 0.54346 0.15361 -0.28742
 C262 C 0.55501 0.17761 -0.25473
 C263 C 0.58458 0.19230 -0.23716
 C264 C 0.60285 0.18221 -0.25478
 C265 C 0.63207 0.19615 -0.23552
 C266 C 0.64291 0.21865 -0.19950
 C267 C 0.62538 0.22858 -0.18167
 C268 C 0.59624 0.21616 -0.20116
 C269 C 0.57992 0.22796 -0.18298
 C270 C 0.59151 0.24989 -0.14504
 C271 C 0.61972 0.26092 -0.12392
 C272 C 0.63675 0.25055 -0.14343
 H273 H 0.63112 0.15730 -0.30254
 H274 H 0.52483 0.10717 -0.34579
 H275 H 0.60874 0.11501 -0.35605
 H276 H 0.52046 0.14272 -0.29896
 H277 H 0.53979 0.18362 -0.24278
 H278 H 0.64707 0.18969 -0.24632
 H279 H 0.66527 0.22821 -0.18498
 H280 H 0.55805 0.22067 -0.19691
 H281 H 0.57794 0.25769 -0.13119
 H282 H 0.65883 0.25925 -0.12811
 C283 C 0.85183 0.40419 -0.31575
 C284 C 0.84169 0.41916 -0.28628
 C285 C 0.85734 0.44960 -0.29198
 C286 C 0.88218 0.46416 -0.32513
 C287 C 0.89225 0.44903 -0.35293
 C288 C 0.87667 0.41894 -0.34827
 C289 C 0.84849 0.46552 -0.26397
 C290 C 0.82483 0.45211 -0.22919
 C291 C 0.80886 0.42197 -0.22090
 C292 C 0.81701 0.40512 -0.25078
 C293 C 0.80040 0.37487 -0.24377
 C294 C 0.77724 0.36156 -0.20785
 C295 C 0.76964 0.37771 -0.17723
 C296 C 0.78515 0.40811 -0.18340
 C297 C 0.77653 0.42338 -0.15099
 C298 C 0.75390 0.40910 -0.11389
 C299 C 0.73890 0.37910 -0.10757
 C300 C 0.74675 0.36352 -0.13991
 H301 H 0.84142 0.38113 -0.31419
 H302 H 0.89427 0.48750 -0.32798
 H303 H 0.88376 0.40668 -0.36993
 H304 H 0.86023 0.48876 -0.26854
 H305 H 0.81969 0.46620 -0.20930
 H306 H 0.80470 0.36066 -0.26546
 H307 H 0.76532 0.33829 -0.20361
 H308 H 0.78699 0.44645 -0.15257
 H309 H 0.74833 0.42179 -0.08970
 H310 H 0.73532 0.34029 -0.13555
 C311 C 0.52379 0.39226 -0.29083
 C312 C 0.55330 0.40739 -0.27273
 C313 C 0.57249 0.43581 -0.29199
 C314 C 0.56211 0.44860 -0.32646
 C315 C 0.53236 0.43373 -0.34272
 C316 C 0.51365 0.40516 -0.32477
 C317 C 0.60195 0.45163 -0.27617
 C318 C 0.61286 0.44007 -0.24112
 C319 C 0.59459 0.41205 -0.21989
 C320 C 0.56430 0.39541 -0.23602
 C321 C 0.54589 0.36755 -0.21420
 C322 C 0.55648 0.35638 -0.17767
 C323 C 0.58582 0.37231 -0.16136
 C324 C 0.60546 0.40025 -0.18247
 C325 C 0.63512 0.41522 -0.16474
 C326 C 0.64449 0.40313 -0.12713
 C327 C 0.62478 0.37574 -0.10575
 C328 C 0.59549 0.36039 -0.12353
 H329 H 0.50780 0.37027 -0.27988
 H330 H 0.57722 0.47084 -0.33804
 H331 H 0.49104 0.39194 -0.33814
 H332 H 0.61680 0.47336 -0.29086
 H333 H 0.63581 0.45397 -0.23101
 H334 H 0.52288 0.35375 -0.22391
 H335 H 0.54139 0.33498 -0.16174
 H336 H 0.65175 0.43634 -0.17891
 H337 H 0.66732 0.41550 -0.11448
 H338 H 0.58001 0.33907 -0.10769
 C339 C 0.85637 0.46839 0.30658
 C340 C 0.84185 0.43989 0.28683
 C341 C 0.85379 0.42315 0.30039
 C342 C 0.87910 0.43463 0.33236
 C343 C 0.89383 0.46328 0.35094
 C344 C 0.88172 0.47975 0.33767
 C345 C 0.84079 0.39510 0.28118
 C346 C 0.81673 0.38349 0.24728
 C347 C 0.80439 0.39948 0.23140
 C348 C 0.81643 0.42772 0.25314
 C349 C 0.80274 0.44288 0.24022
 C350 C 0.77906 0.43152 0.20542
 C351 C 0.76819 0.40479 0.18153
 C352 C 0.78054 0.38826 0.19423
 C353 C 0.76900 0.36153 0.16790
 C354 C 0.74670 0.35208 0.13013
 C355 C 0.73484 0.36867 0.11736
 C356 C 0.74537 0.39481 0.14404
 H357 H 0.84905 0.48280 0.29822
 H358 H 0.88811 0.42143 0.33987
 H359 H 0.89118 0.50145 0.35252
 H360 H 0.84960 0.38203 0.29186
 H361 H 0.80819 0.36171 0.23448
 H362 H 0.80970 0.46368 0.25659
 H363 H 0.76949 0.44411 0.19636
 H364 H 0.77719 0.34768 0.17434
 H365 H 0.73895 0.33173 0.11032
 H366 H 0.73650 0.40794 0.13435
 C367 C 0.60759 0.13861 0.28781
 C368 C 0.59167 0.15111 0.27117
 C369 C 0.56257 0.13877 0.29081
 C370 C 0.55033 0.11520 0.32577
 C371 C 0.56623 0.10283 0.34116
 C372 C 0.59501 0.11490 0.32206
 C373 C 0.54560 0.14973 0.27509
 C374 C 0.55641 0.17219 0.23885
 C375 C 0.58501 0.18495 0.21718
 C376 C 0.60333 0.17496 0.23508
 C377 C 0.63269 0.18924 0.21649
 C378 C 0.64355 0.21184 0.18049
 C379 C 0.62558 0.22092 0.16081
 C380 C 0.59599 0.20753 0.17848
 C381 C 0.57849 0.21702 0.15582
 C382 C 0.59005 0.23898 0.11795
 C383 C 0.61942 0.25239 0.10124
 C384 C 0.63708 0.24325 0.12311
 H385 H 0.62954 0.14607 0.27409
 H386 H 0.52819 0.10636 0.34089
 H387 H 0.60766 0.10552 0.33251
 H388 H 0.52345 0.14057 0.29045
 H389 H 0.54180 0.17931 0.22919
 H390 H 0.64814 0.18372 0.22956
 H391 H 0.66626 0.22214 0.16742
 H392 H 0.55559 0.20763 0.16563
 H393 H 0.57581 0.24548 0.10170
 H394 H 0.65979 0.25325 0.11024
 C395 C 0.59247 0.45215 0.31276
 C396 C 0.57689 0.42460 0.28853
 C397 C 0.54640 0.40631 0.30023
 C398 C 0.53209 0.41599 0.33249
 C399 C 0.54765 0.44381 0.35424
 C400 C 0.57804 0.46148 0.34484
 C401 C 0.53016 0.37860 0.27900
 C402 C 0.54331 0.36858 0.24570
 C403 C 0.57337 0.38616 0.23141
 C404 C 0.59039 0.41474 0.25283
 C405 C 0.62006 0.43280 0.23656
 C406 C 0.63260 0.42357 0.20014
 C407 C 0.61637 0.39586 0.17893
 C408 C 0.58676 0.37645 0.19510
 C409 C 0.57177 0.34822 0.17362
 C410 C 0.58515 0.34027 0.13596
 C411 C 0.61393 0.36003 0.11833
 C412 C 0.62957 0.38766 0.14084
 H413 H 0.61586 0.46708 0.30801
 H414 H 0.50855 0.40208 0.33935
 H415 H 0.59084 0.48274 0.36245
 H416 H 0.50687 0.36448 0.28796
 H417 H 0.52893 0.34707 0.23067
 H418 H 0.63416 0.45468 0.25013
 H419 H 0.65529 0.43845 0.18811
 H420 H 0.54964 0.33169 0.18487
 H421 H 0.57259 0.31864 0.11980
 H422 H 0.65203 0.40304 0.12820
 C423 C 0.14756 0.61269 0.30178
 C424 C 0.16083 0.59752 0.28550
 C425 C 0.14780 0.56867 0.30335
 C426 C 0.12271 0.55587 0.33598
 C427 C 0.10950 0.57099 0.35071
 C428 C 0.12236 0.59957 0.33369
 C429 C 0.15954 0.55249 0.28796
 C430 C 0.18332 0.56382 0.25342
 C431 C 0.19665 0.59212 0.23316
 C432 C 0.18599 0.60964 0.25116
 C433 C 0.20078 0.63864 0.23407
 C434 C 0.22423 0.64980 0.19878
 C435 C 0.23373 0.63254 0.17848
 C436 C 0.22022 0.60348 0.19536
 C437 C 0.23039 0.58682 0.17242
 C438 C 0.25261 0.59848 0.13405
 C439 C 0.26568 0.62715 0.11734
 C440 C 0.25638 0.64416 0.14048
 H441 H 0.15553 0.63445 0.28942
 H442 H 0.11326 0.53388 0.34960
 H443 H 0.11242 0.61166 0.34380
 H444 H 0.14989 0.53055 0.30207
 H445 H 0.19087 0.54976 0.24365
 H446 H 0.19492 0.65351 0.24755
 H447 H 0.23471 0.67214 0.18649
 H448 H 0.22116 0.56446 0.18205
 H449 H 0.25931 0.58479 0.11693
 H450 H 0.26617 0.66635 0.12777
 C451 C 0.40788 0.86288 0.29283
 C452 C 0.42107 0.84737 0.27831
 C453 C 0.44877 0.85614 0.30128
 C454 C 0.46274 0.87979 0.33594
 C455 C 0.44974 0.89534 0.34858
 C456 C 0.42205 0.88641 0.32728
 C457 C 0.46268 0.84155 0.28913
 C458 C 0.45015 0.81874 0.25365
 C459 C 0.42300 0.80952 0.22842
 C460 C 0.40804 0.82387 0.24139
 C461 C 0.38079 0.81451 0.21641
 C462 C 0.36885 0.79245 0.17927
 C463 C 0.38339 0.77866 0.16544
 C464 C 0.41050 0.78671 0.19011
 C465 C 0.42411 0.77174 0.17473
 C466 C 0.41164 0.75033 0.13596
 C467 C 0.38516 0.74289 0.11100
 C468 C 0.37101 0.75701 0.12648
 H469 H 0.38683 0.85773 0.27789
 H470 H 0.48396 0.88624 0.35300
 H471 H 0.41158 0.89816 0.33614
 H472 H 0.48375 0.84804 0.30692
 H473 H 0.46263 0.80895 0.24655
 H474 H 0.36808 0.82397 0.22425
 H475 H 0.34803 0.78626 0.16079
 H476 H 0.44455 0.77609 0.19142
 H477 H 0.42308 0.73975 0.12517
 H478 H 0.35041 0.75138 0.10778
 C479 C 0.39410 0.53454 0.30715
 C480 C 0.41175 0.56161 0.28160
 C481 C 0.44261 0.57710 0.29092
 C482 C 0.45496 0.56574 0.32416
 C483 C 0.43717 0.53870 0.34821
 C484 C 0.40667 0.52339 0.33966
 C485 C 0.46111 0.60368 0.26647
 C486 C 0.44990 0.61509 0.23175
 C487 C 0.41946 0.60036 0.22014
 C488 C 0.39996 0.57351 0.24650
 C489 C 0.36938 0.55939 0.23665
 C490 C 0.35823 0.57048 0.20110
 C491 C 0.37697 0.59599 0.17365
 C492 C 0.40783 0.61147 0.18281
 C493 C 0.42573 0.63717 0.15339
 C494 C 0.41347 0.64668 0.11628
 C495 C 0.38300 0.63109 0.10708
 C496 C 0.36487 0.60588 0.13649
 H497 H 0.37054 0.52113 0.30239
 H498 H 0.47865 0.57762 0.33005
 H499 H 0.39238 0.50259 0.35832
 H500 H 0.48469 0.61572 0.27377
 H501 H 0.46588 0.63568 0.21468
 H502 H 0.35323 0.53958 0.25588
 H503 H 0.33460 0.55871 0.19460
 H504 H 0.44936 0.65028 0.15730
 H505 H 0.42809 0.66627 0.09431
 H506 H 0.34123 0.59357 0.12989
   
