data_POSCAR
  _audit_creation_date              2014-09-24
  _audit_creation_method            'ToBaCCo'
  _symmetry_space_group_name_H-M    'P1'
  _symmetry_Int_Tables_number       1
  _symmetry_cell_setting            triclinic
  loop_
  _symmetry_equiv_pos_as_xyz
 x,y,z
_cell_length_a 30.1230
_cell_length_b 29.3922
_cell_length_c 30.3279
_cell_angle_alpha 89.933400
_cell_angle_beta 89.719800
_cell_angle_gamma 90.184600
loop_
  _atom_site_label
  _atom_site_type_symbol
  _atom_site_fract_x
  _atom_site_fract_y
  _atom_site_fract_z
C1 C 0.11623 0.14887 0.18291
 C2 C 0.11306 0.17782 0.14637
 C3 C 0.14505 0.17625 0.11374
 C4 C 0.18075 0.14631 0.11759
 C5 C 0.18323 0.11595 0.15260
 C6 C 0.15011 0.11702 0.18577
 C7 C 0.09649 0.15172 0.22361
 N8 N 0.11624 0.12174 0.25119
 C9 C 0.14858 0.09960 0.22829
 C10 C 0.22598 0.09843 0.15200
 N11 N 0.24931 0.11939 0.11914
 C12 C 0.22169 0.14821 0.09794
 C13 C 0.14020 0.21461 0.08821
 N14 N 0.10586 0.23918 0.10426
 C15 C 0.08931 0.21731 0.14012
 H16 H 0.07090 0.17569 0.23295
 H17 H 0.17254 0.07670 0.24280
 H18 H 0.24050 0.07698 0.17712
 H19 H 0.23136 0.17138 0.07179
 H20 H 0.16336 0.22663 0.06334
 H21 H 0.06559 0.23181 0.16303
 C22 C -0.12615 0.85303 0.19813
 C23 C -0.11850 0.81639 0.16905
 C24 C -0.14817 0.80794 0.13515
 C25 C -0.18627 0.83457 0.13064
 C26 C -0.19347 0.87085 0.15855
 C27 C -0.16352 0.87979 0.19262
 C28 C -0.10660 0.86664 0.23725
 N29 N -0.13210 0.89983 0.25578
 C30 C -0.16673 0.90797 0.22842
 C31 C -0.23537 0.88718 0.15006
 N32 N -0.25437 0.86039 0.11890
 C33 C -0.22444 0.82824 0.10671
 C34 C -0.13573 0.76823 0.11491
 N35 N -0.09972 0.75161 0.13589
 C36 C -0.08902 0.78040 0.16932
 H37 H -0.07794 0.85117 0.25252
 H38 H -0.19347 0.93167 0.23451
 H39 H -0.25213 0.91387 0.16816
 H40 H -0.23042 0.80099 0.08350
 H41 H -0.15351 0.75089 0.08888
 H42 H -0.06306 0.77450 0.19320
 C43 C -0.13014 0.14785 -0.19194
 C44 C -0.13244 0.18143 -0.15892
 C45 C -0.16614 0.17977 -0.12727
 C46 C -0.19740 0.14407 -0.12768
 C47 C -0.19540 0.11213 -0.16090
 C48 C -0.16224 0.11421 -0.19302
 C49 C -0.10664 0.14487 -0.23129
 N50 N -0.12540 0.11153 -0.25622
 C51 C -0.15913 0.09265 -0.23281
 C52 C -0.23322 0.08640 -0.15883
 N53 N -0.25844 0.10100 -0.12456
 C54 C -0.23667 0.13615 -0.10481
 C55 C -0.16624 0.22115 -0.10600
 N56 N -0.13346 0.24738 -0.12342
 C57 C -0.11257 0.22360 -0.15563
 H58 H -0.08142 0.16844 -0.24281
 H59 H -0.18145 0.06647 -0.24466
 H60 H -0.24198 0.05953 -0.18158
 H61 H -0.24985 0.15661 -0.07815
 H62 H -0.19069 0.23279 -0.08232
 H63 H -0.08783 0.23761 -0.17788
 C64 C 0.12150 0.85981 -0.18805
 C65 C 0.12029 0.82587 -0.15540
 C66 C 0.15171 0.82561 -0.12172
 C67 C 0.18475 0.85982 -0.12030
 C68 C 0.18596 0.89221 -0.15337
 C69 C 0.15487 0.89200 -0.18710
 C70 C 0.10186 0.86292 -0.22915
 N71 N 0.12430 0.89473 -0.25311
 C72 C 0.15646 0.91272 -0.22746
 C73 C 0.22566 0.91443 -0.15119
 N74 N 0.24927 0.89739 -0.11722
 C75 C 0.22440 0.86433 -0.09729
 C76 C 0.14889 0.78338 -0.10174
 N77 N 0.11709 0.75860 -0.12241
 C78 C 0.09965 0.78409 -0.15517
 H79 H 0.07711 0.83992 -0.24234
 H80 H 0.18115 0.93726 -0.23817
 H81 H 0.23733 0.93989 -0.17437
 H82 H 0.23616 0.84196 -0.07150
 H83 H 0.17153 0.76997 -0.07737
 H84 H 0.07688 0.77145 -0.17986
 C85 C 0.17687 1.11698 0.81208
 C86 C 0.20285 1.12493 0.84976
 C87 C 0.19300 1.16128 0.87727
 C88 C 0.15682 1.18969 0.86792
 C89 C 0.13140 1.18156 0.83092
 C90 C 0.14097 1.14470 0.80329
 C91 C 0.18185 1.08847 0.77625
 N92 N 0.14936 1.09780 0.74650
 C93 C 0.12401 1.13191 0.76314
 C94 C 0.10322 1.21781 0.82599
 N95 N 0.11035 1.24775 0.85935
 C96 C 0.14268 1.23047 0.88564
 C97 C 0.22702 1.16480 0.90724
 N98 N 0.25671 1.13117 0.89920
 C99 C 0.24225 1.10645 0.86428
 H100 H 0.20793 1.06362 0.77191
 H101 H 0.09693 1.14839 0.74614
 H102 H 0.08028 1.22249 0.79903
 H103 H 0.15723 1.24777 0.91359
 H104 H 0.23098 1.19119 0.93181
 H105 H 0.26062 1.07919 0.84871
 C106 C 0.82833 0.88859 0.80713
 C107 C 0.80007 0.88031 0.84314
 C108 C 0.80743 0.84315 0.87028
 C109 C 0.84375 0.81445 0.86235
 C110 C 0.87170 0.82288 0.82691
 C111 C 0.86427 0.86051 0.79936
 C112 C 0.82518 0.91779 0.77178
 N113 N 0.85877 0.90870 0.74303
 C114 C 0.88319 0.87402 0.75996
 C115 C 0.89999 0.78638 0.82349
 N116 N 0.89042 0.75625 0.85632
 C117 C 0.85627 0.77344 0.88053
 C118 C 0.77098 0.83909 0.89762
 N119 N 0.74244 0.87333 0.88831
 C120 C 0.75986 0.89883 0.85520
 H121 H 0.79946 0.94292 0.76702
 H122 H 0.91074 0.85757 0.74346
 H123 H 0.92487 0.78181 0.79804
 H124 H 0.83980 0.75619 0.90763
 H125 H 0.76441 0.81172 0.92070
 H126 H 0.74281 0.92636 0.83872
 C127 C 0.13901 0.87399 1.19259
 C128 C 0.17516 0.87898 1.16344
 C129 C 0.17827 0.85120 1.12654
 C130 C 0.14636 0.81750 1.11904
 C131 C 0.11118 0.81228 1.14807
 C132 C 0.10768 0.84041 1.18489
 C133 C 0.13122 0.89015 1.23466
 N134 N 0.09704 0.86596 1.25266
 C135 C 0.08263 0.83558 1.22238
 C136 C 0.09226 0.77062 1.14005
 N137 N 0.11529 0.75047 1.10718
 C138 C 0.14844 0.77855 1.09403
 C139 C 0.22024 0.85611 1.10944
 N140 N 0.24285 0.88565 1.13502
 C141 C 0.21602 0.89970 1.16832
 H142 H 0.15155 0.91457 1.25214
 H143 H 0.05692 0.81032 1.22761
 H144 H 0.06735 0.75378 1.16020
 H145 H 0.17510 0.76900 1.07185
 H146 H 0.23482 0.83609 1.08317
 H147 H 0.22672 0.92001 1.19610
 C148 C 0.85287 1.13220 1.20310
 C149 C 0.81540 1.12254 1.17714
 C150 C 0.80700 1.14830 1.13976
 C151 C 0.83523 1.18452 1.12838
 C152 C 0.87222 1.19371 1.15373
 C153 C 0.88072 1.16779 1.19143
 C154 C 0.86703 1.11648 1.24360
 N155 N 0.90189 1.14260 1.25700
 C156 C 0.91034 1.17397 1.22514
 C157 C 0.89035 1.23385 1.13871
 N158 N 0.86468 1.24970 1.10558
 C159 C 0.83082 1.21998 1.09900
 C160 C 0.76650 1.13477 1.12353
 N161 N 0.74973 1.10202 1.15039
 C162 C 0.77911 1.09444 1.18343
 H163 H 0.85124 1.08998 1.26299
 H164 H 0.93548 1.20028 1.22655
 H165 H 0.91772 1.25227 1.15340
 H166 H 0.80352 1.22531 1.07652
 H167 H 0.74917 1.14971 1.09590
 H168 H 0.77363 1.07157 1.21094
 O169 O 0.43956 1.07639 1.10072
 O170 O 0.38895 1.03453 1.06137
 C171 C 0.39929 1.06609 1.08918
 O172 O 0.56167 1.07106 0.93886
 O173 O 0.61042 1.03057 0.98145
 C174 C 0.60130 1.05778 0.94907
 O175 O 0.43877 1.08601 0.95188
 O176 O 0.38840 1.03956 0.98691
 C177 C 0.39852 1.07404 0.96216
 O178 O 0.56336 1.06045 1.10943
 O179 O 0.61098 1.02559 1.06089
 C180 C 0.60284 1.04937 1.09597
 Zr181 Zr 0.50092 1.04787 1.07986
 O182 O 0.51137 1.11910 1.08260
 O183 O 0.49428 1.04630 1.14931
 Zr184 Zr 0.50025 1.05611 0.96951
 O185 O 0.51088 1.12672 0.97899
 O186 O 0.49408 1.06829 0.90113
 O187 O 0.46103 1.06179 1.02565
 O188 O 0.54028 1.05902 1.02464
 O189 O 0.55804 0.90383 1.09085
 O190 O 0.60824 0.94937 1.05415
 C191 C 0.59818 0.91558 1.07975
 O192 O 0.43346 0.92156 0.93705
 O193 O 0.38559 0.96137 0.98166
 C194 C 0.39405 0.93405 0.94915
 O195 O 0.55745 0.91695 0.93643
 O196 O 0.60836 0.95539 0.97873
 C197 C 0.59783 0.92661 0.94811
 O198 O 0.43349 0.90880 1.09312
 O199 O 0.38602 0.95645 1.05636
 C200 C 0.39410 0.92364 1.08364
 Zr201 Zr 0.49648 0.93336 1.07255
 O202 O 0.49366 0.86149 1.07348
 O203 O 0.49467 0.93352 1.14239
 Zr204 Zr 0.49606 0.94127 0.96146
 O205 O 0.49597 0.86942 0.95646
 O206 O 0.49334 0.94729 0.89192
 Zr207 Zr 0.43200 0.99634 1.02137
 Zr208 Zr 0.56483 0.99231 1.01974
 O209 O 0.53428 0.92777 1.01584
 O210 O 0.45627 0.92931 1.01678
 O211 O 0.53838 0.98836 1.08426
 O212 O 0.45973 1.00071 0.95768
 O213 O 0.46001 0.99149 1.08472
 O214 O 0.53727 0.99772 0.95618
 H215 H 0.56249 1.08393 1.02595
 H216 H 0.44007 1.00395 0.93178
 H217 H 0.55243 0.89986 1.01326
 H218 H 0.44009 0.99096 1.11082
 H219 H 0.49969 1.03894 0.88631
 H220 H 0.52034 0.96380 0.88211
 H221 H 0.46986 0.85791 0.97304
 H222 H 0.49875 0.85112 1.04292
 H223 H 0.52479 0.94121 1.15301
 H224 H 0.51030 1.01906 1.15973
 H225 H 0.48643 1.13376 1.06703
 H226 H 0.48326 1.13976 0.99134
 O227 O 0.07347 0.56324 -0.09392
 O228 O 0.03725 0.61359 -0.04864
 C229 C 0.06459 0.60418 -0.08034
 O230 O -0.08992 0.44133 -0.08792
 O231 O -0.04820 0.38876 -0.05055
 C232 C -0.07949 0.39974 -0.07758
 O233 O -0.07377 0.56859 -0.09591
 O234 O -0.03660 0.61667 -0.04923
 C235 C -0.06134 0.60883 -0.08321
 O236 O 0.06888 0.43528 -0.09606
 O237 O 0.02799 0.38578 -0.05336
 C238 C 0.05590 0.39470 -0.08484
 Zr239 Zr 0.05007 0.49940 -0.06993
 O240 O 0.04985 0.49812 -0.13971
 O241 O 0.12038 0.50005 -0.06942
 Zr242 Zr -0.06240 0.50434 -0.06622
 O243 O -0.07274 0.50105 -0.13500
 O244 O -0.13148 0.51494 -0.05815
 O245 O -0.00437 0.54210 -0.07590
 O246 O -0.00821 0.46280 -0.07707
 O247 O 0.07503 0.43187 0.06081
 O248 O 0.02985 0.38395 0.02149
 C249 C 0.06132 0.39174 0.04961
 O250 O -0.06874 0.56392 0.07801
 O251 O -0.03457 0.61457 0.03123
 C252 C -0.05716 0.60486 0.06655
 O253 O -0.08896 0.43870 0.06243
 O254 O -0.04739 0.38758 0.02292
 C255 C -0.07909 0.39771 0.05012
 O256 O 0.07750 0.55841 0.06648
 O257 O 0.03852 0.61121 0.02659
 C258 C 0.06753 0.59987 0.05589
 Zr259 Zr 0.05264 0.49646 0.04101
 O260 O 0.05406 0.49039 0.11057
 O261 O 0.12289 0.49812 0.03844
 Zr262 Zr -0.05961 0.50162 0.04414
 O263 O -0.06548 0.49301 0.11313
 O264 O -0.12879 0.51414 0.04215
 Zr265 Zr -0.00183 0.56842 -0.01125
 Zr266 Zr -0.00732 0.43247 -0.01410
 O267 O -0.00517 0.45932 0.05009
 O268 O -0.00121 0.53879 0.05213
 O269 O 0.05853 0.45673 -0.01565
 O270 O -0.06746 0.54390 -0.00991
 O271 O 0.06103 0.53720 -0.01381
 O272 O -0.07106 0.46241 -0.01172
 H273 H -0.01027 0.44345 -0.10370
 H274 H -0.09110 0.56726 -0.00864
 H275 H -0.00598 0.43814 0.07553
 H276 H 0.08820 0.55628 -0.01410
 H277 H -0.14497 0.48550 -0.04951
 H278 H -0.14304 0.48756 0.02800
 H279 H -0.03534 0.49672 0.12531
 H280 H 0.03770 0.51660 0.12299
 H281 H 0.13264 0.47291 0.01914
 H282 H 0.13035 0.47047 -0.05749
 H283 H 0.03011 0.52287 -0.14973
 H284 H -0.04304 0.50211 -0.14893
 O285 O 1.06391 -0.09346 0.43820
 O286 O 1.03663 -0.04047 0.38982
 C287 C 1.05594 -0.07858 0.39880
 O288 O 0.90758 -0.04844 0.56105
 O289 O 0.96043 -0.02502 0.61038
 C290 C 0.92198 -0.04209 0.60087
 O291 O 0.91326 -0.05587 0.43751
 O292 O 0.96415 -0.02528 0.38919
 C293 C 0.92789 -0.04731 0.39800
 O294 O 1.07618 -0.08491 0.56091
 O295 O 1.03788 -0.04057 0.61036
 C296 C 1.06662 -0.07172 0.60061
 Zr297 Zr 1.04982 -0.06328 0.49997
 O298 O 1.03198 -0.13261 0.50764
 O299 O 1.11682 -0.08330 0.49309
 Zr300 Zr 0.94104 -0.03990 0.49987
 O301 O 0.93373 -0.11140 0.50498
 O302 O 0.87109 -0.03570 0.49720
 O303 O 0.99378 -0.05996 0.46020
 O304 O 0.99345 -0.06000 0.53912
 O305 O 1.10454 0.06047 0.56283
 O306 O 1.05193 0.03326 0.61110
 C307 C 1.08999 0.05181 0.60233
 O308 O 0.95080 0.10348 0.43839
 O309 O 0.97949 0.05131 0.38978
 C310 C 0.95932 0.08895 0.39883
 O311 O 0.93736 0.09419 0.56152
 O312 O 0.97400 0.04862 0.61080
 C313 C 0.94534 0.07981 0.60110
 O314 O 1.09602 0.07615 0.43956
 O315 O 1.05216 0.03755 0.39050
 C316 C 1.08298 0.06668 0.39987
 Zr317 Zr 1.07371 0.04941 0.50084
 O318 O 1.08977 0.11892 0.50963
 O319 O 1.14201 0.03467 0.49231
 Zr320 Zr 0.96454 0.07319 0.50052
 O321 O 0.98213 0.14247 0.50890
 O322 O 0.89731 0.09242 0.49393
 Zr323 Zr 1.00774 0.00534 0.43449
 Zr324 Zr 1.00655 0.00448 0.56637
 O325 O 1.02036 0.06919 0.53974
 O326 O 1.02107 0.07016 0.46150
 O327 O 1.06989 -0.00895 0.53919
 O328 O 0.94491 0.01885 0.46210
 O329 O 1.07031 -0.00832 0.46191
 O330 O 0.94383 0.01817 0.53864
 H331 H 0.98821 -0.08535 0.56011
 H332 H 0.91954 0.02527 0.44241
 H333 H 1.02522 0.09446 0.56081
 H334 H 1.09563 -0.01326 0.44150
 H335 H 0.86387 -0.00365 0.49061
 H336 H 0.87939 0.06898 0.50933
 H337 H 0.99653 0.15295 0.48129
 H338 H 1.07008 0.13655 0.49008
 H339 H 1.15115 0.01479 0.51697
 H340 H 1.13501 -0.05884 0.50620
 H341 H 1.01442 -0.14145 0.48150
 H342 H 0.93677 -0.12417 0.47494
 N343 N 1.08745 0.14003 0.36230
 N344 N 1.09275 0.15490 0.31903
 C345 C 1.10875 0.11975 0.29544
 C346 C 1.11333 0.08170 0.32240
 C347 C 1.09885 0.09582 0.36391
 H348 H 1.12155 0.04743 0.31228
 H349 H 1.07162 0.15852 0.38718
 H350 H 1.08525 0.18760 0.30790
 N351 N 0.85685 -0.04518 0.35848
 N352 N 0.84054 -0.05797 0.31746
 C353 C 0.87302 -0.08093 0.29636
 C354 C 0.91080 -0.08256 0.32271
 C355 C 0.89905 -0.05958 0.36114
 H356 H 0.94266 -0.09748 0.31484
 H357 H 0.83961 -0.02578 0.38172
 H358 H 0.80824 -0.05174 0.30682
 N359 N 0.87062 0.08214 0.63171
 N360 N 0.85103 0.08711 0.67295
 C361 C 0.88246 0.10291 0.70045
 C362 C 0.92278 0.10744 0.67816
 C363 C 0.91378 0.09332 0.63529
 H364 H 0.95473 0.11628 0.69195
 H365 H 0.85517 0.06749 0.60441
 H366 H 0.81770 0.08034 0.67999
 N367 N 1.13917 -0.07860 0.63496
 N368 N 1.15517 -0.08397 0.67752
 C369 C 1.12085 -0.09771 0.70292
 C370 C 1.08239 -0.10070 0.67802
 C371 C 1.09537 -0.08764 0.63581
 H372 H 1.04899 -0.10721 0.68980
 H373 H 1.15720 -0.06440 0.60881
 H374 H 1.18803 -0.07841 0.68691
 N375 N 0.36121 1.13920 1.09128
 N376 N 0.31742 1.15337 1.09576
 C377 C 0.29401 1.11829 1.11272
 C378 C 0.32161 1.08106 1.11894
 C379 C 0.36328 1.09547 1.10424
 H380 H 0.31175 1.04684 1.12801
 H381 H 0.38594 1.15739 1.07455
 H382 H 0.30578 1.18550 1.08686
 N383 N 0.36094 0.93150 0.87606
 N384 N 0.31961 0.92366 0.85754
 C385 C 0.29271 0.90775 0.88971
 C386 C 0.31557 0.90579 0.92953
 C387 C 0.35808 0.92171 0.91928
 H388 H 0.30252 0.89673 0.96168
 H389 H 0.38803 0.94590 0.85947
 H390 H 0.31228 0.92838 0.82424
 N391 N 0.63770 0.84258 1.07825
 N392 N 0.68094 0.82797 1.08591
 C393 C 0.70263 0.86249 1.10563
 C394 C 0.67460 0.89964 1.11042
 C395 C 0.63447 0.88574 1.09267
 H396 H 0.68296 0.93322 1.12248
 H397 H 0.61395 0.82452 1.06031
 H398 H 0.69304 0.79574 1.07803
 N399 N 0.63540 1.05087 0.87622
 N400 N 0.67569 1.06088 0.85593
 C401 C 0.70011 1.08503 0.88484
 C402 C 0.67664 1.09038 0.92426
 C403 C 0.63646 1.06806 0.91724
 H404 H 0.68778 1.10660 0.95426
 H405 H 0.61016 1.03111 0.86241
 H406 H 0.68372 1.05206 0.82354
 N407 N 0.11558 0.35846 0.10145
 N408 N 0.12688 0.31806 0.11649
 C409 C 0.10127 0.28677 0.09673
 C410 C 0.07247 0.30742 0.06755
 C411 C 0.08275 0.35330 0.07174
 H412 H 0.04787 0.29159 0.04664
 H413 H 0.13015 0.38898 0.11159
 H414 H 0.15171 0.31211 0.13969
 N415 N -0.14361 0.36711 -0.11888
 N416 N -0.15830 0.32634 -0.13019
 C417 C -0.12877 0.29523 -0.11646
 C418 C -0.09384 0.31645 -0.09549
 C419 C -0.10474 0.36227 -0.09754
 H420 H -0.06517 0.30086 -0.08041
 H421 H -0.16033 0.39750 -0.12513
 H422 H -0.18781 0.32007 -0.14708
 N423 N 0.11216 0.63965 -0.13868
 N424 N 0.12639 0.68079 -0.14946
 C425 C 0.11154 0.71039 -0.11902
 C426 C 0.08620 0.68778 -0.08783
 C427 C 0.08746 0.64272 -0.10162
 H428 H 0.06845 0.70213 -0.06005
 H429 H 0.11856 0.61028 -0.15696
 H430 H 0.14530 0.68846 -0.17746
 N431 N -0.06460 0.63735 0.14180
 N432 N -0.07319 0.67709 0.16027
 C433 C -0.08153 0.70736 0.12809
 C434 C -0.07786 0.68632 0.08730
 C435 C -0.06705 0.64181 0.09762
 H436 H -0.08357 0.70088 0.05503
 H437 H -0.05702 0.60774 0.15926
 H438 H -0.07507 0.68273 0.19421
 N439 N 1.16029 0.04300 0.64355
 N440 N 1.17606 0.05365 0.68551
 C441 C 1.14472 0.07891 0.70570
 C442 C 1.10832 0.08405 0.67799
 C443 C 1.11952 0.06115 0.63958
 H444 H 1.07738 0.10128 0.68494
 H445 H 1.17666 0.02245 0.62064
 H446 H 1.20717 0.04445 0.69752
 N447 N 0.85045 -0.03497 0.64070
 N448 N 0.83353 -0.04661 0.68209
 C449 C 0.86464 -0.07165 0.70268
 C450 C 0.90205 -0.07563 0.67585
 C451 C 0.89170 -0.05212 0.63756
 H452 H 0.93296 -0.09258 0.68327
 H453 H 0.83426 -0.01477 0.61749
 H454 H 0.80178 -0.03834 0.69335
 N455 N 1.04921 -0.15008 0.35761
 N456 N 1.05836 -0.16475 0.31492
 C457 C 1.08216 -0.13162 0.29492
 C458 C 1.08821 -0.09530 0.32343
 C459 C 1.06675 -0.10822 0.36199
 H460 H 1.10375 -0.06283 0.31636
 H461 H 1.02898 -0.16723 0.38028
 H462 H 1.04868 -0.19617 0.30211
 N463 N 0.96465 0.15866 0.35366
 N464 N 0.95025 0.17278 0.31226
 C465 C 0.92305 0.14009 0.29653
 C466 C 0.92002 0.10450 0.32662
 C467 C 0.94659 0.11757 0.36166
 H468 H 0.90225 0.07267 0.32304
 H469 H 0.98751 0.17604 0.37326
 H470 H 0.95890 0.20370 0.29757
 N471 N 0.05593 0.35265 -0.15483
 N472 N 0.06892 0.30998 -0.16993
 C473 C 0.09119 0.28952 -0.13697
 C474 C 0.09228 0.31788 -0.10016
 C475 C 0.06975 0.35688 -0.11294
 H476 H 0.10626 0.31073 -0.06809
 H477 H 0.03656 0.37571 -0.17247
 H478 H 0.06310 0.29779 -0.20168
 N479 N -0.15130 0.36329 0.07169
 N480 N -0.16662 0.32308 0.08406
 C481 C -0.13207 0.29442 0.08732
 C482 C -0.09307 0.31681 0.07643
 C483 C -0.10692 0.36049 0.06661
 H484 H -0.05960 0.30352 0.07634
 H485 H -0.17103 0.39191 0.06633
 H486 H -0.19984 0.31595 0.09139
 N487 N -0.05254 0.65205 -0.15231
 N488 N -0.06413 0.69471 -0.16860
 C489 C -0.09042 0.71465 -0.13820
 C490 C -0.09556 0.68595 -0.10184
 C491 C -0.07132 0.64727 -0.11223
 H492 H -0.11351 0.69254 -0.07154
 H493 H -0.03108 0.62925 -0.16790
 H494 H -0.05460 0.70726 -0.19943
 N495 N 0.12080 0.63113 0.11049
 N496 N 0.13433 0.67174 0.12336
 C497 C 0.11369 0.70308 0.09855
 C498 C 0.08540 0.68249 0.06932
 C499 C 0.09109 0.63670 0.07786
 H500 H 0.06293 0.69849 0.04632
 H501 H 0.13093 0.60047 0.12461
 H502 H 0.15603 0.67780 0.14946
 N503 N 0.36337 1.14814 0.94484
 N504 N 0.32519 1.16333 0.92955
 C505 C 0.29941 1.12735 0.91956
 C506 C 0.32163 1.08736 0.92932
 C507 C 0.36220 1.10232 0.94544
 H508 H 0.31023 1.05270 0.92502
 H509 H 0.38952 1.16891 0.95517
 H510 H 0.31748 1.19765 0.92519
 N511 N 0.35892 0.87382 1.14059
 N512 N 0.31850 0.86592 1.15599
 C513 C 0.28976 0.89130 1.13282
 C514 C 0.31209 0.91553 1.10070
 C515 C 0.35606 0.90383 1.10706
 H516 H 0.29833 0.93798 1.07601
 H517 H 0.38773 0.85880 1.15283
 H518 H 0.31073 0.84262 1.18090
 N519 N 0.63941 1.06437 1.16786
 N520 N 0.67903 1.07638 1.18243
 C521 C 0.70580 1.08342 1.14743
 C522 C 0.68267 1.07520 1.10883
 C523 C 0.64058 1.06311 1.12343
 H524 H 0.69444 1.07843 1.07520
 H525 H 0.61218 1.05687 1.18808
 H526 H 0.68699 1.08100 1.21560
 N527 N 0.62984 0.85615 0.91665
 N528 N 0.66880 0.84137 0.90272
 C529 C 0.69771 0.87626 0.90392
 C530 C 0.67682 0.91500 0.91947
 C531 C 0.63363 0.90050 0.92733
 H532 H 0.69092 0.94849 0.92456
 H533 H 0.60147 0.83583 0.91976
 H534 H 0.67517 0.80823 0.89210
   
