data_POSCAR
  _audit_creation_date              2014-09-24
  _audit_creation_method            'ToBaCCo'
  _symmetry_space_group_name_H-M    'P1'
  _symmetry_Int_Tables_number       1
  _symmetry_cell_setting            triclinic
  loop_
  _symmetry_equiv_pos_as_xyz
 x,y,z
_cell_length_a 26.6848
_cell_length_b 27.7014
_cell_length_c 26.9514
_cell_angle_alpha 90.636000
_cell_angle_beta 89.551800
_cell_angle_gamma 90.800000
loop_
  _atom_site_label
  _atom_site_type_symbol
  _atom_site_fract_x
  _atom_site_fract_y
  _atom_site_fract_z
C1 C 0.25655 0.48950 0.98868
 C2 C 0.74406 0.50262 0.02300
 C3 C -0.00660 0.25649 0.50750
 C4 C 1.00655 0.75215 0.50235
 C5 C 0.48168 0.00219 0.24539
 C6 C 0.51007 -0.01319 0.74157
 C7 C 0.33954 0.00853 0.46637
 H8 H 0.35589 0.00351 0.50248
 C9 C 0.37075 0.01193 0.42455
 H10 H 0.41091 0.00941 0.42886
 C11 C 0.26766 0.01970 0.41693
 H12 H 0.22748 0.02353 0.41436
 C13 C 0.29749 0.02417 0.37442
 H14 H 0.27995 0.03066 0.33907
 N15 N 0.28900 0.01287 0.46195
 C16 C 0.16672 0.07408 0.54806
 H17 H 0.15843 0.04630 0.57471
 C18 C 0.13205 0.11060 0.54088
 H19 H 0.09766 0.11018 0.56233
 C20 C 0.22028 0.10690 0.48626
 H21 H 0.25457 0.10530 0.46479
 C22 C 0.18656 0.14391 0.47769
 H23 H 0.19536 0.17048 0.44969
 Zn24 Zn 0.24742 0.01449 0.51966
 N25 N 0.20901 0.07182 0.51964
 C26 C 0.30237 0.04975 0.60421
 N27 N 0.28766 0.01052 0.57686
 C28 C 0.30139 -0.03480 0.58932
 C29 C 0.33024 -0.04230 0.63119
 C30 C 0.33279 0.04393 0.64587
 C31 C 0.19150 -0.06676 0.48026
 C32 C 0.15791 -0.10586 0.48400
 C33 C 0.14846 -0.08803 0.57147
 C34 C 0.18163 -0.04926 0.56599
 N35 N 0.20228 -0.03909 0.52095
 H36 H 0.29113 0.08545 0.59331
 H37 H 0.28985 -0.06528 0.56652
 H38 H 0.34116 -0.07863 0.64024
 H39 H 0.34536 0.07522 0.66698
 H40 H 0.20886 -0.05874 0.44494
 H41 H 0.14991 -0.12762 0.45137
 H42 H 0.13252 -0.09536 0.60771
 H43 H 0.19151 -0.02749 0.59808
 C44 C 0.14109 0.14528 0.50414
 C45 C 0.34973 0.02064 0.37797
 C46 C 0.13593 -0.11675 0.53019
 C47 C 0.34669 -0.00272 0.65974
 C48 C 0.66855 0.02004 0.52496
 H49 H 0.66756 0.04493 0.49438
 C50 C 0.62829 0.01740 0.55768
 H51 H 0.59617 0.04021 0.55244
 C52 C 0.71074 -0.04153 0.56794
 H53 H 0.74216 -0.06548 0.57066
 C54 C 0.67148 -0.04434 0.60267
 H55 H 0.67274 -0.07024 0.63240
 N56 N 0.70831 -0.00965 0.52997
 C57 C 0.82744 0.06435 0.44874
 H58 H 0.83366 0.04091 0.41698
 C59 C 0.86059 0.10299 0.45837
 H60 H 0.89180 0.10928 0.43335
 C61 C 0.78127 0.08225 0.52194
 H62 H 0.75166 0.07327 0.54784
 C63 C 0.81311 0.12102 0.53278
 H64 H 0.80662 0.14187 0.56637
 Zn65 Zn 0.75333 -0.00489 0.47601
 N66 N 0.78930 0.05427 0.48098
 C67 C 0.69827 0.02715 0.39080
 N68 N 0.71058 -0.01005 0.42070
 C69 C 0.68494 -0.05277 0.41920
 C70 C 0.64502 -0.05959 0.38701
 C71 C 0.65763 0.02208 0.35832
 C72 C 0.83116 -0.06217 0.51336
 C73 C 0.86754 -0.09803 0.51132
 C74 C 0.84111 -0.11777 0.42793
 C75 C 0.80533 -0.08179 0.43162
 N76 N 0.80046 -0.05528 0.47410
 H77 H 0.71821 0.06130 0.39391
 H78 H 0.69442 -0.08105 0.44470
 H79 H 0.62466 -0.09367 0.38708
 H80 H 0.64753 0.05204 0.33519
 H81 H 0.82771 -0.03946 0.54609
 H82 H 0.89165 -0.10269 0.54289
 H83 H 0.84421 -0.13845 0.39376
 H84 H 0.78215 -0.07451 0.39999
 C85 C 0.85419 0.13118 0.50166
 C86 C 0.62943 -0.01522 0.59668
 C87 C 0.87273 -0.12648 0.46807
 C88 C 0.63013 -0.02168 0.35686
 C89 C 0.46152 0.18837 1.07049
 H90 H 0.42696 0.20724 1.06440
 C91 C 0.46448 0.15471 1.10881
 H92 H 0.43229 0.14844 1.13266
 C93 C 0.54554 0.17289 1.04666
 H94 H 0.57684 0.17995 1.02191
 C95 C 0.55035 0.13980 1.08468
 H96 H 0.58554 0.12142 1.08911
 N97 N 0.50206 0.19703 1.04078
 C98 C 0.42638 0.28586 0.93643
 H99 H 0.44018 0.26594 0.90455
 C100 C 0.39225 0.32294 0.92974
 H101 H 0.37901 0.33054 0.89281
 C102 C 0.43048 0.30363 1.02257
 H103 H 0.44777 0.29767 1.05810
 C104 C 0.39567 0.34050 1.01766
 H105 H 0.38576 0.36222 1.04979
 Zn106 Zn 0.50377 0.24021 0.98701
 N107 N 0.44543 0.27756 0.98215
 C108 C 0.47574 0.16692 0.92218
 N109 N 0.51224 0.20091 0.92977
 C110 C 0.55386 0.20284 0.90040
 C111 C 0.55973 0.16964 0.86139
 C112 C 0.48036 0.13275 0.88402
 C113 C 0.57455 0.29183 1.04336
 C114 C 0.60635 0.33060 1.05481
 C115 C 0.60262 0.35573 0.96943
 C116 C 0.56995 0.31679 0.95971
 N117 N 0.55671 0.28573 0.99654
 H118 H 0.44335 0.16587 0.94656
 H119 H 0.58310 0.22922 0.90787
 H120 H 0.59324 0.17132 0.83854
 H121 H 0.45081 0.10611 0.87870
 H122 H 0.56195 0.26826 1.07270
 H123 H 0.61898 0.33570 1.09261
 H124 H 0.61181 0.38093 0.94022
 H125 H 0.55358 0.31250 0.92332
 C126 C 0.37735 0.35141 0.97047
 C127 C 0.50962 0.13034 1.11636
 C128 C 0.62024 0.36342 1.01784
 C129 C 0.52299 0.13363 0.85322
 C130 C 0.47420 0.82437 -0.06386
 H131 H 0.44168 0.82725 -0.03994
 C132 C 0.48181 0.85801 -0.10155
 H133 H 0.45388 0.88523 -0.10732
 C134 C 0.55116 0.78691 -0.08349
 H135 H 0.57914 0.76048 -0.07550
 C136 C 0.56012 0.81957 -0.12164
 H137 H 0.59438 0.81690 -0.14321
 N138 N 0.50844 0.78938 -0.05577
 C139 C 0.45022 0.65911 0.00609
 H140 H 0.48585 0.64756 0.02000
 C141 C 0.41087 0.62563 0.00294
 H142 H 0.41718 0.58885 0.01412
 C143 C 0.39795 0.72140 -0.02188
 H144 H 0.39281 0.75883 -0.03097
 C145 C 0.35724 0.68909 -0.02498
 H146 H 0.32117 0.70192 -0.03684
 Zn147 Zn 0.49929 0.74947 0.00057
 N148 N 0.44352 0.70599 -0.00670
 C149 C 0.44536 0.78903 0.08223
 N150 N 0.48793 0.79205 0.05433
 C151 C 0.52139 0.82900 0.06050
 C152 C 0.51227 0.86548 0.09534
 C153 C 0.43468 0.82483 0.11750
 C154 C 0.57008 0.67965 -0.02492
 C155 C 0.60991 0.64842 -0.01826
 C156 C 0.62433 0.68524 0.06211
 C157 C 0.58408 0.71591 0.05386
 N158 N 0.55765 0.71234 0.01099
 H159 H 0.41908 0.75951 0.07636
 H160 H 0.55450 0.83084 0.03713
 H161 H 0.53893 0.89505 0.09857
 H162 H 0.40037 0.82224 0.13904
 H163 H 0.54811 0.67714 -0.05845
 H164 H 0.61869 0.62279 -0.04746
 H165 H 0.64436 0.68790 0.09682
 H166 H 0.57325 0.74168 0.08224
 C167 C 0.36358 0.64044 -0.01273
 C168 C 0.52538 0.85586 -0.13102
 C169 C 0.63719 0.65038 0.02610
 C170 C 0.46812 0.86396 0.12410
 C171 C 1.11562 0.46131 0.22283
 H172 H 1.11245 0.43670 0.25355
 C173 C 1.15588 0.45752 0.18940
 H174 H 1.18387 0.43018 0.19468
 C175 C 1.08258 0.52605 0.17708
 H176 H 1.05357 0.55247 0.17240
 C177 C 1.12129 0.52270 0.14230
 H178 H 1.12235 0.54708 0.11119
 N179 N 1.07998 0.49522 0.21596
 C180 C 0.96776 0.42179 0.29566
 H181 H 0.94080 0.42924 0.26724
 C182 C 0.95638 0.38655 0.33056
 H183 H 0.92132 0.36665 0.32756
 C184 C 1.04446 0.44031 0.33568
 H185 H 1.07805 0.46251 0.33815
 C186 C 1.03452 0.40518 0.37156
 H187 H 1.06113 0.40033 0.40106
 Zn188 Zn 1.02085 0.50036 0.25475
 N189 N 1.01124 0.44784 0.29859
 C190 C 0.96788 0.46172 0.17712
 N191 N 0.96765 0.50027 0.20873
 C192 C 0.93202 0.53479 0.20585
 C193 C 0.89351 0.53008 0.17090
 C194 C 0.93022 0.45545 0.14222
 C195 C 1.06626 0.58410 0.29570
 C196 C 1.07201 0.62093 0.33105
 C197 C 0.98930 0.60175 0.36284
 C198 C 0.98516 0.56517 0.32690
 N199 N 1.02355 0.55678 0.29462
 H200 H 0.99705 0.43517 0.17990
 H201 H 0.93301 0.56549 0.23097
 H202 H 0.86459 0.55702 0.16982
 H203 H 0.93064 0.42393 0.11812
 H204 H 1.09678 0.57615 0.27047
 H205 H 1.10669 0.64166 0.33194
 H206 H 0.95882 0.60673 0.38896
 H207 H 0.95213 0.54209 0.32599
 C208 C 0.98966 0.37797 0.36940
 C209 C 1.15826 0.48786 0.14805
 C210 C 1.03359 0.62973 0.36575
 C211 C 0.89210 0.48951 0.13902
 C212 C -0.06085 0.50340 0.84918
 H213 H -0.02292 0.50158 0.86240
 C214 C -0.10020 0.50118 0.88344
 H215 H -0.09117 0.49856 0.92229
 C216 C -0.11790 0.50695 0.78261
 H217 H -0.12447 0.50856 0.74311
 C218 C -0.15857 0.50498 0.81572
 H219 H -0.19631 0.50549 0.80135
 N220 N -0.07008 0.50733 0.79983
 C221 C -0.02053 0.46340 0.66036
 H222 H -0.02283 0.49918 0.64523
 C223 C -0.01612 0.42395 0.62803
 H224 H -0.01429 0.42991 0.58844
 C225 C -0.01947 0.41195 0.72997
 H226 H -0.02017 0.40769 0.76983
 C227 C -0.01406 0.37160 0.69904
 H228 H -0.01109 0.33617 0.71522
 Zn229 Zn -0.01496 0.51080 0.75444
 N230 N -0.01981 0.45696 0.71038
 C231 C 0.07576 0.46854 0.78484
 N232 N 0.04644 0.50808 0.79034
 C233 C 0.05773 0.54300 0.82466
 C234 C 0.09647 0.53614 0.85861
 C235 C 0.11388 0.45984 0.81843
 C236 C -0.05659 0.59693 0.71633
 C237 C -0.06070 0.63299 0.68086
 C238 C 0.02089 0.61157 0.64884
 C239 C 0.02339 0.57585 0.68487
 N240 N -0.01584 0.56799 0.71642
 H241 H 0.06840 0.44233 0.75592
 H242 H 0.03440 0.57452 0.82794
 H243 H 0.10303 0.56251 0.88786
 H244 H 0.13478 0.42669 0.81555
 H245 H -0.08695 0.59092 0.74229
 H246 H -0.09424 0.65451 0.68016
 H247 H 0.05152 0.61538 0.62264
 H248 H 0.05538 0.55232 0.68578
 C249 C -0.01097 0.37760 0.64749
 C250 C -0.15001 0.50252 0.86703
 C251 C -0.02232 0.63978 0.64557
 C252 C 0.12335 0.49299 0.85684
 N253 N 0.10491 0.20618 0.45087
 N254 N 0.06611 0.23540 0.44966
 C255 C 0.03922 0.22801 0.49159
 C256 C 0.06295 0.19278 0.51835
 N257 N 0.10394 0.18037 0.49193
 H258 H 0.05183 0.17869 0.55410
 N259 N 0.70785 0.61941 0.07309
 N260 N 0.73729 0.58126 0.07364
 C261 C 0.72452 0.55292 0.03459
 C262 C 0.68559 0.57500 0.01053
 N263 N 0.67644 0.61644 0.03536
 H264 H 0.66443 0.56060 -0.02044
 N265 N 0.92109 -0.18620 0.42179
 N266 N 0.95608 -0.21871 0.42895
 C267 C 0.96765 -0.21687 0.47759
 C268 C 0.93872 -0.18158 0.49986
 N269 N 0.91002 -0.16342 0.46385
 H270 H 0.93854 -0.17094 0.53859
 N271 N 0.34803 0.41870 0.92152
 N272 N 0.31786 0.45608 0.92571
 C273 C 0.29751 0.45506 0.97176
 C274 C 0.31614 0.41493 0.99546
 N275 N 0.34753 0.39350 0.96294
 H276 H 0.30647 0.40127 1.03175
 N277 N 0.88858 0.19014 0.56008
 N278 N 0.92495 0.22283 0.56364
 C279 C 0.95069 0.22181 0.52036
 C280 C 0.92855 0.18701 0.49002
 N281 N 0.88973 0.16826 0.51616
 H282 H 0.93905 0.17760 0.45233
 N283 N 0.27433 0.61929 -0.01014
 N284 N 0.24487 0.58037 -0.00976
 C285 C 0.27474 0.54161 -0.01479
 C286 C 0.32375 0.55838 -0.01723
 N287 N 0.32192 0.60689 -0.01442
 H288 H 0.35743 0.53717 -0.01968
 N289 N 0.08955 -0.17571 0.57955
 N290 N 0.05567 -0.21063 0.57405
 C291 C 0.04572 -0.21423 0.52511
 C292 C 0.07473 -0.17997 0.50082
 N293 N 0.10161 -0.15681 0.53608
 H294 H 0.07477 -0.17189 0.46164
 N295 N 0.64700 0.42669 1.07535
 N296 N 0.67835 0.46401 1.07759
 C297 C 0.70108 0.46743 1.03281
 C298 C 0.68232 0.43043 1.00284
 N299 N 0.64880 0.40596 1.03091
 H300 H 0.69364 0.42071 0.96546
 N301 N 0.55911 0.08607 1.17556
 N302 N 0.55347 0.05277 1.20999
 C303 C 0.50407 0.04185 1.21305
 C304 C 0.47964 0.06970 1.17855
 N305 N 0.51528 0.09688 1.15625
 H306 H 0.44028 0.06870 1.16921
 N307 N -0.07172 0.69397 0.59508
 N308 N -0.06622 0.72335 0.55692
 C309 C -0.01767 0.72158 0.54269
 C310 C 0.00627 0.68978 0.57344
 N311 N -0.02859 0.67355 0.60586
 H312 H 0.04559 0.68083 0.57282
 N313 N 0.56802 0.88146 -0.20655
 N314 N 0.56548 0.91517 -0.24073
 C315 C 0.52891 0.94575 -0.22665
 C316 C 0.50936 0.92944 -0.18200
 N317 N 0.53435 0.88893 -0.17110
 H318 H 0.47863 0.94467 -0.16094
 N319 N 0.93287 0.31950 0.40791
 N320 N 0.93200 0.28729 0.44377
 C321 C 0.97718 0.28944 0.46587
 C322 C 1.00561 0.32480 0.44243
 N323 N 0.97677 0.34236 0.40615
 H324 H 1.04393 0.33527 0.45035
 N325 N 0.41280 0.90685 0.18183
 N326 N 0.41430 0.94349 0.21384
 C327 C 0.46104 0.96266 0.21148
 C328 C 0.48799 0.93648 0.17680
 N329 N 0.45675 0.90184 0.15929
 H330 H 0.52723 0.94114 0.16745
 N331 N 0.02499 0.29889 0.63041
 N332 N 0.02873 0.26701 0.59373
 C333 C 0.00614 0.28585 0.55380
 C334 C -0.01239 0.33047 0.56787
 N335 N 0.00026 0.33716 0.61575
 H336 H -0.03538 0.35425 0.54636
 N337 N 0.55948 0.10505 0.77521
 N338 N 0.55726 0.06721 0.74484
 C339 C 0.52456 0.03514 0.76490
 C340 C 0.50661 0.05501 0.80876
 N341 N 0.52923 0.09865 0.81380
 H342 H 0.47984 0.03903 0.83429
 N343 N 1.08410 0.68747 0.41384
 N344 N 1.07903 0.71976 0.45009
 C345 C 1.03038 0.71866 0.46415
 C346 C 1.00597 0.68418 0.43537
 N347 N 1.04064 0.66577 0.40417
 H348 H 0.96644 0.67503 0.43625
 N349 N 1.24457 0.47296 0.12151
 N350 N 1.27181 0.47281 0.08014
 C351 C 1.24045 0.48167 0.04226
 C352 C 1.19331 0.48905 0.06234
 N353 N 1.19736 0.48281 0.11155
 H354 H 1.15952 0.49869 0.04304
 N355 N 0.54017 -0.02499 0.61047
 N356 N 0.50736 -0.02413 0.64744
 C357 C 0.53350 -0.01782 0.68984
 C358 C 0.58396 -0.01582 0.67734
 N359 N 0.58622 -0.02040 0.62774
 H360 H 0.61561 -0.00991 0.70166
 N361 N -0.23921 0.50514 0.88929
 N362 N -0.26844 0.50508 0.92931
 C363 C -0.23832 0.50113 0.96905
 C364 C -0.18947 0.49928 0.95164
 N365 N -0.19148 0.50171 0.90179
 H366 H -0.15590 0.49741 0.97365
 N367 N 0.36688 0.05114 0.29494
 N368 N 0.40152 0.04829 0.25964
 C369 C 0.43938 0.02189 0.27750
 C370 C 0.42611 0.00813 0.32522
 N371 N 0.38079 0.02716 0.33462
 H372 H 0.44587 -0.01605 0.34926
 N373 N 0.15782 0.43609 0.91475
 N374 N 0.19165 0.43423 0.95024
 C375 C 0.21261 0.47872 0.95454
 C376 C 0.18995 0.50818 0.92014
 N377 N 0.15623 0.48005 0.89621
 H378 H 0.19824 0.54556 0.91181
 N379 N 0.57078 -0.07138 0.31016
 N380 N 0.53140 -0.06689 0.28116
 C381 C 0.52220 -0.01923 0.27781
 C382 C 0.55729 0.00532 0.30655
 N383 N 0.58731 -0.02848 0.32536
 H384 H 0.56083 0.04391 0.31251
 N385 N 0.83973 0.43748 0.08734
 N386 N 0.80094 0.43978 0.05736
 C387 C 0.78674 0.48636 0.05605
 C388 C 0.81936 0.51281 0.08619
 N389 N 0.85140 0.48081 0.10524
 H390 H 0.82137 0.55137 0.09229
 N391 N 0.38162 -0.05108 0.72520
 N392 N 0.42516 -0.05550 0.74775
 C393 C 0.45329 -0.01628 0.73619
 C394 C 0.42454 0.01300 0.70663
 N395 N 0.38059 -0.01043 0.69988
 H396 H 0.43735 0.04421 0.68601
   
