data_POSCAR
  _audit_creation_date              2014-09-24
  _audit_creation_method            'ToBaCCo'
  _symmetry_space_group_name_H-M    'P1'
  _symmetry_Int_Tables_number       1
  _symmetry_cell_setting            triclinic
  loop_
  _symmetry_equiv_pos_as_xyz
 x,y,z
_cell_length_a 31.7477
_cell_length_b 29.3016
_cell_length_c 7.1216
_cell_angle_alpha 89.848200
_cell_angle_beta 85.357300
_cell_angle_gamma 90.140900
loop_
  _atom_site_label
  _atom_site_type_symbol
  _atom_site_fract_x
  _atom_site_fract_y
  _atom_site_fract_z
C1 C 0.17042 0.20363 0.20397
 C2 C 0.14801 0.24497 0.20527
 C3 C 0.16893 0.28704 0.18885
 C4 C 0.21352 0.28865 0.18392
 C5 C 0.23681 0.24758 0.19230
 C6 C 0.21539 0.20489 0.19944
 C7 C 0.23949 0.16486 0.21136
 C8 C 0.28326 0.16657 0.21261
 C9 C 0.30508 0.20845 0.20961
 C10 C 0.28167 0.24932 0.19397
 C11 C 0.23535 0.33051 0.17217
 C12 C 0.27913 0.33212 0.16963
 C13 C 0.30290 0.29204 0.18280
 C14 C 0.34745 0.29367 0.18262
 C15 C 0.37022 0.25305 0.18839
 C16 C 0.34985 0.21053 0.21287
 H17 H 0.22488 0.13153 0.22276
 H18 H 0.29982 0.13439 0.21380
 H19 H 0.21876 0.36262 0.16558
 H20 H 0.29415 0.36529 0.15661
 H21 H 0.11387 0.24437 0.20396
 H22 H 0.40420 0.25531 0.19479
 C23 C 0.66934 0.20712 0.60630
 C24 C 0.64906 0.24952 0.62948
 C25 C 0.67069 0.29055 0.58900
 C26 C 0.71450 0.28964 0.53197
 C27 C 0.73567 0.24725 0.51201
 C28 C 0.71347 0.20605 0.55425
 C29 C 0.73636 0.16484 0.55022
 C30 C 0.77858 0.16343 0.48337
 C31 C 0.80017 0.20347 0.42538
 C32 C 0.77905 0.24593 0.44592
 C33 C 0.73771 0.33011 0.49319
 C34 C 0.78016 0.32877 0.42664
 C35 C 0.80121 0.28695 0.39922
 C36 C 0.84408 0.28489 0.32893
 C37 C 0.86422 0.24271 0.30644
 C38 C 0.84270 0.20221 0.35181
 H39 H 0.72198 0.13312 0.60039
 H40 H 0.79426 0.13064 0.47945
 H41 H 0.72323 0.36330 0.51333
 H42 H 0.79634 0.36086 0.39673
 H43 H 0.61507 0.25037 0.65778
 H44 H 0.89704 0.24137 0.25068
 C45 C 0.66410 0.71093 0.73418
 C46 C 0.64428 0.75314 0.71890
 C47 C 0.66662 0.79401 0.73237
 C48 C 0.71012 0.79304 0.76358
 C49 C 0.73058 0.75050 0.78168
 C50 C 0.70744 0.70929 0.76750
 C51 C 0.72817 0.66747 0.78734
 C52 C 0.77112 0.66599 0.81219
 C53 C 0.79496 0.70632 0.82082
 C54 C 0.77446 0.74908 0.80969
 C55 C 0.73380 0.83340 0.77432
 C56 C 0.77676 0.83206 0.80201
 C57 C 0.79785 0.79030 0.82297
 C58 C 0.84214 0.78829 0.84342
 C59 C 0.86190 0.74534 0.84335
 C60 C 0.83891 0.70480 0.83727
 H61 H 0.71147 0.63534 0.78178
 H62 H 0.78561 0.63275 0.82159
 H63 H 0.71933 0.86652 0.76004
 H64 H 0.79341 0.86427 0.80180
 H65 H 0.61133 0.75422 0.68910
 H66 H 0.89544 0.74310 0.86169
 C67 C 0.16758 0.70475 0.69183
 C68 C 0.14859 0.74618 0.74639
 C69 C 0.16594 0.78875 0.69248
 C70 C 0.20609 0.78998 0.58857
 C71 C 0.22703 0.74835 0.53722
 C72 C 0.20734 0.70567 0.58471
 C73 C 0.22959 0.66535 0.53628
 C74 C 0.26949 0.66660 0.44173
 C75 C 0.29085 0.70809 0.40651
 C76 C 0.26901 0.74938 0.44893
 C77 C 0.22750 0.83134 0.54778
 C78 C 0.26758 0.83216 0.45477
 C79 C 0.28987 0.79164 0.41265
 C80 C 0.33295 0.79238 0.34146
 C81 C 0.35395 0.75123 0.30058
 C82 C 0.33397 0.70917 0.33646
 H83 H 0.21747 0.63201 0.57629
 H84 H 0.28393 0.63428 0.40211
 H85 H 0.21455 0.86383 0.59367
 H86 H 0.28130 0.86529 0.42155
 H87 H 0.11708 0.74520 0.81698
 H88 H 0.38749 0.75189 0.25719
 O89 O 1.04557 -0.05843 0.08956
 O90 O 0.96625 0.02455 0.26609
 O91 O 0.96394 -0.05751 0.13378
 O92 O 1.04755 0.02451 0.22981
 O93 O 1.04652 0.05167 -0.05917
 O94 O 0.96545 -0.03375 -0.16150
 O95 O 0.96322 0.04935 -0.02546
 O96 O 1.04689 -0.03065 -0.19895
 Cu97 Cu 1.00630 -0.01958 0.20774
 Cu98 Cu 1.00536 0.01251 -0.13931
 C99 C 1.05922 -0.05966 -0.08289
 C100 C 0.95084 0.05100 0.14855
 C101 C 0.95116 -0.06041 -0.03004
 C102 C 1.06074 0.05262 0.10236
 O103 O 0.45377 0.54273 0.54909
 O104 O 0.53233 0.45503 0.63635
 O105 O 0.52866 0.54389 0.66641
 O106 O 0.45625 0.45508 0.51786
 O107 O 0.48314 0.46217 0.22408
 O108 O 0.55678 0.55012 0.37416
 O109 O 0.55836 0.46204 0.34097
 O110 O 0.48082 0.55136 0.25588
 Cu111 Cu 0.49007 0.49836 0.62140
 Cu112 Cu 0.52252 0.50717 0.26969
 C113 C 0.45374 0.56211 0.38959
 C114 C 0.55887 0.44346 0.50191
 C115 C 0.55530 0.56203 0.54599
 C116 C 0.45687 0.44380 0.34563
 O117 O -0.03710 0.44304 -0.05662
 O118 O 0.04546 0.52568 -0.21697
 O119 O 0.04515 0.44268 -0.08688
 O120 O -0.03676 0.52653 -0.18545
 O121 O -0.03854 0.54867 0.11081
 O122 O 0.04584 0.46727 0.20544
 O123 O 0.04385 0.55088 0.07469
 O124 O -0.03534 0.46533 0.23870
 Cu125 Cu 0.00413 0.48183 -0.16433
 Cu126 Cu 0.00412 0.51119 0.18534
 C127 C -0.04947 0.43913 0.11668
 C128 C 0.05826 0.55309 -0.09636
 C129 C 0.05931 0.44032 0.07459
 C130 C -0.05184 0.55188 -0.05215
 O131 O 0.45298 1.04443 0.55917
 O132 O 0.52901 0.95703 0.68748
 O133 O 0.52823 1.04595 0.67327
 O134 O 0.45272 0.95623 0.57349
 O135 O 0.47765 0.95315 0.27575
 O136 O 0.55558 1.04056 0.37934
 O137 O 0.55400 0.95282 0.39016
 O138 O 0.48059 1.04296 0.26462
 Cu139 Cu 0.48792 1.00079 0.65247
 Cu140 Cu 0.51949 0.99685 0.29755
 C141 C 0.45453 1.05945 0.39134
 C142 C 0.55495 0.94043 0.56070
 C143 C 0.55514 1.05845 0.54150
 C144 C 0.45161 0.93981 0.40951
 C145 C 1.15640 0.13021 0.05560
 C146 C 1.14726 0.16248 0.19843
 C147 C 1.11168 0.15383 0.32639
 C148 C 1.08516 0.11591 0.30261
 C149 C 1.09216 0.08735 0.14441
 C150 C 1.12924 0.09407 0.02769
 C151 C 1.13621 0.09763 -0.18161
 C152 C 1.16613 0.13710 -0.15140
 H153 H 1.10383 0.17698 0.44226
 H154 H 1.05741 0.11105 0.39953
 H155 H 1.10736 0.10824 -0.24884
 H156 H 1.15253 0.06718 -0.24513
 H157 H 1.15466 0.17045 -0.20179
 H158 H 1.19965 0.12926 -0.19660
 C159 C 0.64863 0.64275 0.54095
 C160 C 0.63932 0.66927 0.70162
 C161 C 0.60459 0.65622 0.82581
 C162 C 0.57819 0.61970 0.78061
 C163 C 0.58531 0.59662 0.60700
 C164 C 0.62224 0.60744 0.49453
 C165 C 0.62834 0.61853 0.28951
 C166 C 0.65728 0.65720 0.34051
 H167 H 0.59680 0.67565 0.95294
 H168 H 0.55082 0.61159 0.87555
 H169 H 0.59864 0.63041 0.23310
 H170 H 0.64517 0.59090 0.20777
 H171 H 0.64454 0.69168 0.31246
 H172 H 0.69086 0.65181 0.28849
 C173 C -0.09740 0.33798 0.38225
 C174 C -0.13061 0.32565 0.27613
 C175 C -0.13530 0.34918 0.10674
 C176 C -0.10948 0.38711 0.05674
 C177 C -0.07875 0.40200 0.17529
 C178 C -0.07205 0.37545 0.33376
 C179 C -0.07067 0.38889 0.53543
 C180 C -0.09858 0.34791 0.58736
 H181 H -0.15912 0.33860 0.01505
 H182 H -0.11413 0.40548 -0.07183
 H183 H -0.08628 0.42219 0.56800
 H184 H -0.03854 0.38506 0.58426
 H185 H -0.13079 0.35717 0.64802
 H186 H -0.08249 0.32113 0.66595
 C187 C 0.35820 0.86169 0.50170
 C188 C 0.35886 0.83463 0.34044
 C189 C 0.38817 0.84633 0.18825
 C190 C 0.41767 0.88197 0.20548
 C191 C 0.41883 0.90575 0.37708
 C192 C 0.38699 0.89642 0.51932
 C193 C 0.38987 0.88618 0.72372
 C194 C 0.35784 0.84824 0.70358
 H195 H 0.38982 0.82625 0.06085
 H196 H 0.44099 0.88894 0.08939
 H197 H 0.37743 0.91442 0.81623
 H198 H 0.42162 0.87341 0.75327
 H199 H 0.32675 0.85492 0.78163
 H200 H 0.37083 0.81347 0.72274
 C201 C -0.11636 0.63986 -0.29231
 C202 C -0.13854 0.66130 -0.13976
 C203 C -0.13793 0.64087 0.03897
 C204 C -0.11127 0.60347 0.06621
 C205 C -0.08504 0.58557 -0.08547
 C206 C -0.09052 0.60249 -0.26632
 C207 C -0.05844 0.61844 -0.41747
 C208 C -0.08657 0.65946 -0.44424
 H209 H -0.15600 0.65564 0.15914
 H210 H -0.10960 0.59017 0.20748
 H211 H -0.05644 0.59521 -0.54056
 H212 H -0.02765 0.62742 -0.36281
 H213 H -0.10013 0.65995 -0.58329
 H214 H -0.07222 0.69222 -0.40307
 C215 C 0.41461 1.16565 0.16164
 C216 C 0.37480 1.17273 0.25712
 C217 C 0.36377 1.14456 0.41540
 C218 C 0.38977 1.10784 0.46052
 C219 C 0.42699 1.09779 0.34649
 C220 C 0.43951 1.12865 0.20249
 C221 C 0.45292 1.12065 -0.00024
 C222 C 0.42599 1.16141 -0.04504
 H223 H 0.33525 1.15111 0.50523
 H224 H 0.38009 1.08665 0.58129
 H225 H 0.44077 1.08792 -0.05309
 H226 H 0.48723 1.12674 -0.03226
 H227 H 0.39844 1.15231 -0.12457
 H228 H 0.44489 1.19107 -0.10194
 C229 C 1.11702 -0.17131 -0.08352
 C230 C 1.14130 -0.17222 -0.25685
 C231 C 1.13464 -0.13627 -0.38431
 C232 C 1.10789 -0.09924 -0.33078
 C233 C 1.08745 -0.09725 -0.14769
 C234 C 1.09110 -0.13501 -0.03073
 C235 C 1.10230 -0.13690 0.16811
 C236 C 1.13090 -0.17676 0.11067
 H237 H 1.14980 -0.13692 -0.52543
 H238 H 1.10395 -0.07199 -0.43079
 H239 H 1.07489 -0.14671 0.26724
 H240 H 1.11972 -0.10583 0.20746
 H241 H 1.12003 -0.20949 0.17714
 H242 H 1.16505 -0.16913 0.11837
 C243 C 0.62276 0.35273 0.72998
 C244 C 0.64562 0.33285 0.57463
 C245 C 0.64444 0.35481 0.39882
 C246 C 0.61774 0.39230 0.37732
 C247 C 0.59099 0.40838 0.53071
 C248 C 0.59634 0.38970 0.70845
 C249 C 0.56502 0.37384 0.86231
 C250 C 0.59389 0.33316 0.88626
 H251 H 0.66271 0.34156 0.27589
 H252 H 0.61639 0.40687 0.23808
 H253 H 0.53413 0.36433 0.80992
 H254 H 0.56309 0.39735 0.98487
 H255 H 0.57896 0.30039 0.85040
 H256 H 0.60850 0.33323 1.02269
 C257 C 0.90796 -0.16892 -0.22193
 C258 C 0.86746 -0.17291 -0.12850
 C259 C 0.85622 -0.14038 0.01324
 C260 C 0.88326 -0.10334 0.04546
 C261 C 0.92130 -0.09704 -0.06802
 C262 C 0.93379 -0.13163 -0.19473
 C263 C 0.94864 -0.12890 -0.39851
 C264 C 0.92067 -0.16998 -0.42845
 H265 H 0.82701 -0.14407 0.10167
 H266 H 0.87407 -0.07925 0.15633
 H267 H 0.98293 -0.13643 -0.42406
 H268 H 0.93787 -0.09732 -0.46694
 H269 H 0.93884 -0.20126 -0.46964
 H270 H 0.89401 -0.16229 -0.51566
 C271 C 0.36270 0.36426 0.36173
 C272 C 0.37085 0.33712 0.20180
 C273 C 0.40490 0.34990 0.07277
 C274 C 0.43183 0.38650 0.11294
 C275 C 0.42605 0.40977 0.28679
 C276 C 0.38957 0.39951 0.40326
 C277 C 0.38426 0.38935 0.60935
 C278 C 0.35469 0.35077 0.56366
 H279 H 0.41205 0.32988 -0.05316
 H280 H 0.45868 0.39429 0.01413
 H281 H 0.36800 0.41743 0.69067
 H282 H 0.41412 0.37733 0.66397
 H283 H 0.32134 0.35669 0.61784
 H284 H 0.36719 0.31631 0.59336
 C285 C 0.12360 0.65929 -0.07792
 C286 C 0.14493 0.66440 -0.25654
 C287 C 0.13776 0.62899 -0.38669
 C288 C 0.11029 0.59175 -0.33577
 C289 C 0.08923 0.58886 -0.15330
 C290 C 0.09785 0.62349 -0.02969
 C291 C 0.08572 0.64064 0.16294
 C292 C 0.11541 0.68108 0.11128
 H293 H 0.15151 0.63107 -0.53032
 H294 H 0.10484 0.56606 -0.44010
 H295 H 0.09670 0.61756 0.27219
 H296 H 0.05180 0.65032 0.18216
 H297 H 0.14410 0.68179 0.19091
 H298 H 0.09811 0.71388 0.10740
 C299 C 0.65026 1.13493 0.46587
 C300 C 0.64432 1.16725 0.61031
 C301 C 0.61060 1.15958 0.74913
 C302 C 0.58273 1.12245 0.73384
 C303 C 0.58682 1.09356 0.57538
 C304 C 0.62231 1.09934 0.44832
 C305 C 0.62592 1.10283 0.23817
 C306 C 0.65686 1.14181 0.25762
 H307 H 0.60535 1.18264 0.86733
 H308 H 0.55673 1.11801 0.83992
 H309 H 0.59595 1.11383 0.18117
 H310 H 0.64084 1.07213 0.17020
 H311 H 0.64493 1.17532 0.21126
 H312 H 0.68964 1.13345 0.20186
 C313 C 0.12164 0.35037 0.31519
 C314 C 0.14376 0.32872 0.16296
 C315 C 0.14357 0.34940 -0.01559
 C316 C 0.11756 0.38732 -0.04280
 C317 C 0.09160 0.40568 0.10856
 C318 C 0.09638 0.38822 0.28908
 C319 C 0.06381 0.37270 0.43886
 C320 C 0.09134 0.33121 0.46609
 H321 H 0.16207 0.33496 -0.13524
 H322 H 0.11640 0.40101 -0.18353
 H323 H 0.03303 0.36425 0.38300
 H324 H 0.06189 0.39574 0.56264
 H325 H 0.07653 0.29873 0.42483
 H326 H 0.10487 0.33046 0.60496
 C327 C 0.61732 0.85746 0.83913
 C328 C 0.64409 0.83689 0.69844
 C329 C 0.64603 0.85590 0.51625
 C330 C 0.61806 0.89093 0.47305
 C331 C 0.58734 0.90735 0.61114
 C332 C 0.58983 0.89213 0.79707
 C333 C 0.55636 0.87534 0.94102
 C334 C 0.58654 0.83727 0.98590
 H335 H 0.66705 0.84152 0.40436
 H336 H 0.61901 0.90321 0.32903
 H337 H 0.52761 0.86288 0.87764
 H338 H 0.55027 0.89955 1.06007
 H339 H 0.57525 0.80283 0.94815
 H340 H 0.59764 0.83984 1.12939
 C341 C 0.85965 0.13331 0.15581
 C342 C 0.86535 0.15899 0.31674
 C343 C 0.89461 0.14353 0.44010
 C344 C 0.92054 0.10576 0.39206
 C345 C 0.91863 0.08428 0.21596
 C346 C 0.88613 0.09708 0.10537
 C347 C 0.88725 0.10876 -0.09880
 C348 C 0.85797 0.14836 -0.04380
 H349 H 0.89917 0.16247 0.56695
 H350 H 0.94439 0.09605 0.48490
 H351 H 0.87216 0.08203 -0.18141
 H352 H 0.91918 0.11992 -0.15696
 H353 H 0.82590 0.14425 -0.09365
 H354 H 0.87279 0.18238 -0.07223
 C355 C 0.36061 0.63980 0.49192
 C356 C 0.36085 0.66771 0.33247
 C357 C 0.39013 0.65725 0.17892
 C358 C 0.41981 0.62175 0.19287
 C359 C 0.42113 0.59671 0.36196
 C360 C 0.38958 0.60519 0.50609
 C361 C 0.39295 0.61446 0.71078
 C362 C 0.36075 0.65226 0.69457
 H363 H 0.39144 0.67794 0.05252
 H364 H 0.44301 0.61563 0.07582
 H365 H 0.42475 0.62734 0.73996
 H366 H 0.38077 0.58565 0.80165
 H367 H 0.37371 0.68703 0.71504
 H368 H 0.32990 0.64499 0.77435
   
