data_POSCAR
  _audit_creation_date              2014-09-24
  _audit_creation_method            'ToBaCCo'
  _symmetry_space_group_name_H-M    'P1'
  _symmetry_Int_Tables_number       1
  _symmetry_cell_setting            triclinic
  loop_
  _symmetry_equiv_pos_as_xyz
 x,y,z
_cell_length_a 29.6789
_cell_length_b 29.8789
_cell_length_c 35.3044
_cell_angle_alpha 90.334100
_cell_angle_beta 90.499600
_cell_angle_gamma 89.609100
loop_
  _atom_site_label
  _atom_site_type_symbol
  _atom_site_fract_x
  _atom_site_fract_y
  _atom_site_fract_z
C1 C 1.17603 0.25273 0.30094
 H2 H 1.17680 0.21654 0.30174
 C3 C 1.14868 0.27655 0.32599
 H4 H 1.12932 0.25828 0.34638
 C5 C 1.20363 0.32010 0.27501
 H6 H 1.22591 0.33693 0.25580
 C7 C 1.17659 0.34522 0.29941
 H8 H 1.17788 0.38141 0.29837
 N9 N 1.20300 0.27468 0.27638
 C10 C 1.22822 0.16690 0.19675
 H11 H 1.26391 0.16113 0.20110
 C12 C 1.20396 0.13982 0.17164
 H13 H 1.22133 0.11273 0.15730
 C14 C 1.16259 0.20937 0.21037
 H15 H 1.14684 0.23721 0.22489
 C16 C 1.13719 0.18360 0.18503
 H17 H 1.10215 0.19231 0.18036
 Zn18 Zn 1.24188 0.23847 0.24736
 N19 N 1.20723 0.20065 0.21570
 C20 C 1.26897 0.16162 0.28895
 N21 N 1.27669 0.20561 0.28277
 C22 C 1.30699 0.22849 0.30420
 C23 C 1.33355 0.20650 0.33111
 C24 C 1.29312 0.13868 0.31693
 C25 C 1.25979 0.30082 0.19033
 C26 C 1.28597 0.32851 0.16774
 C27 C 1.35270 0.29782 0.19760
 C28 C 1.32530 0.27021 0.21906
 N29 N 1.27965 0.27326 0.21611
 H30 H 1.24318 0.14443 0.27283
 H31 H 1.31062 0.26417 0.30032
 H32 H 1.35619 0.22718 0.34753
 H33 H 1.28488 0.10403 0.32025
 H34 H 1.22345 0.30162 0.18763
 H35 H 1.26919 0.34982 0.14729
 H36 H 1.38883 0.29584 0.20167
 H37 H 1.34085 0.24649 0.23807
 C38 C 1.15783 0.14827 0.16509
 C39 C 1.14913 0.32344 0.32571
 C40 C 1.33321 0.32800 0.17177
 C41 C 1.32735 0.16035 0.33838
 C42 C 0.69458 -0.22714 0.29821
 H43 H 0.69172 -0.26317 0.29652
 C44 C 0.66533 -0.20269 0.32125
 H45 H 0.64025 -0.22029 0.33739
 C46 C 0.73195 -0.16089 0.28005
 H47 H 0.75804 -0.14482 0.26399
 C48 C 0.70364 -0.13512 0.30314
 H49 H 0.70803 -0.09920 0.30452
 N50 N 0.72719 -0.20612 0.27831
 C51 C 0.74075 -0.32889 0.21796
 H52 H 0.77169 -0.34151 0.23030
 C53 C 0.71344 -0.35754 0.19638
 H54 H 0.72365 -0.39211 0.19245
 C55 C 0.68987 -0.26871 0.20756
 H56 H 0.68127 -0.23376 0.21148
 C57 C 0.66137 -0.29626 0.18624
 H58 H 0.63107 -0.28210 0.17377
 Zn59 Zn 0.76609 -0.24338 0.24934
 N60 N 0.72886 -0.28517 0.22277
 C61 C 0.84124 -0.29879 0.26968
 N62 N 0.80740 -0.27239 0.28320
 C63 C 0.80303 -0.26494 0.32109
 C64 C 0.83233 -0.28533 0.34700
 C65 C 0.87135 -0.31996 0.29470
 C66 C 0.78731 -0.21312 0.17605
 C67 C 0.80947 -0.18807 0.14878
 C68 C 0.85628 -0.15649 0.19824
 C69 C 0.83275 -0.18186 0.22478
 N70 N 0.79863 -0.20918 0.21336
 H71 H 0.84485 -0.30344 0.23945
 H72 H 0.77663 -0.24329 0.33153
 H73 H 0.82709 -0.27977 0.37696
 H74 H 0.89788 -0.34104 0.28339
 H75 H 0.76075 -0.23547 0.16724
 H76 H 0.79967 -0.19169 0.11931
 H77 H 0.88292 -0.13445 0.20780
 H78 H 0.84154 -0.17963 0.25453
 C79 C 0.67318 -0.34126 0.18011
 C80 C 0.66977 -0.15605 0.32411
 C81 C 0.84418 -0.15894 0.15970
 C82 C 0.86697 -0.31355 0.33404
 C83 C 0.67784 0.27861 -0.19509
 H84 H 0.68102 0.24269 -0.19276
 C85 C 0.65062 0.30212 -0.16962
 H86 H 0.63217 0.28397 -0.14837
 C87 C 0.70063 0.34633 -0.22350
 H88 H 0.72069 0.36363 -0.24407
 C89 C 0.67466 0.37118 -0.19803
 H90 H 0.67452 0.40738 -0.19953
 N91 N 0.70158 0.30082 -0.22183
 C92 C 0.72378 0.22414 -0.32365
 H93 H 0.75447 0.24057 -0.33187
 C94 C 0.70085 0.19759 -0.35002
 H95 H 0.71379 0.19507 -0.37852
 C96 C 0.66998 0.20786 -0.27673
 H97 H 0.65798 0.21165 -0.24818
 C98 C 0.64618 0.18057 -0.30213
 H99 H 0.61650 0.16349 -0.29232
 Zn100 Zn 0.74060 0.26787 -0.25431
 N101 N 0.70771 0.22960 -0.28794
 C102 C 0.78563 0.18845 -0.23095
 N103 N 0.77935 0.23267 -0.22330
 C104 C 0.79897 0.25220 -0.19254
 C105 C 0.82589 0.22700 -0.16782
 C106 C 0.81245 0.16203 -0.20705
 C107 C 0.75255 0.33130 -0.31206
 C108 C 0.77619 0.35937 -0.33633
 C109 C 0.84392 0.34250 -0.30090
 C110 C 0.81909 0.31411 -0.27789
 N111 N 0.77430 0.30863 -0.28402
 H112 H 0.76985 0.17356 -0.25565
 H113 H 0.79318 0.28740 -0.18693
 H114 H 0.84015 0.24384 -0.14357
 H115 H 0.81756 0.12719 -0.21445
 H116 H 0.71676 0.32647 -0.31634
 H117 H 0.75713 0.37427 -0.35922
 H118 H 0.87896 0.34695 -0.29353
 H119 H 0.83576 0.29647 -0.25505
 C120 C 0.66113 0.17561 -0.33962
 C121 C 0.64905 0.34900 -0.17085
 C122 C 0.82332 0.36500 -0.33190
 C123 C 0.83272 0.18092 -0.17448
 C124 C 1.19363 -0.23930 -0.19845
 H125 H 1.19221 -0.27537 -0.19635
 C126 C 1.16398 -0.21264 -0.17749
 H127 H 1.13986 -0.22836 -0.15906
 C128 C 1.22772 -0.17486 -0.22418
 H129 H 1.25293 -0.16015 -0.24201
 C130 C 1.19932 -0.14700 -0.20324
 H131 H 1.20262 -0.11103 -0.20547
 N132 N 1.22409 -0.22013 -0.22180
 C133 C 1.25443 -0.32015 -0.30891
 H134 H 1.29088 -0.31978 -0.30844
 C135 C 1.23166 -0.34624 -0.33578
 H136 H 1.25104 -0.36652 -0.35518
 C137 C 1.18533 -0.29295 -0.28454
 H138 H 1.16726 -0.27107 -0.26552
 C139 C 1.16129 -0.31832 -0.31090
 H140 H 1.12491 -0.31541 -0.31158
 Zn141 Zn 1.26366 -0.25727 -0.25001
 N142 N 1.23108 -0.29464 -0.28368
 C143 C 1.30589 -0.33576 -0.22037
 N144 N 1.29857 -0.29109 -0.21544
 C145 C 1.31401 -0.26919 -0.18411
 C146 C 1.33668 -0.29256 -0.15557
 C147 C 1.32941 -0.36022 -0.19293
 C148 C 1.27961 -0.19979 -0.30898
 C149 C 1.30404 -0.17253 -0.33299
 C150 C 1.37141 -0.19047 -0.29698
 C151 C 1.34557 -0.21756 -0.27361
 N152 N 1.30052 -0.22134 -0.27992
 H153 H 1.29284 -0.35277 -0.24511
 H154 H 1.30755 -0.23370 -0.18085
 H155 H 1.34776 -0.27499 -0.13028
 H156 H 1.33431 -0.39591 -0.19677
 H157 H 1.24378 -0.20397 -0.31348
 H158 H 1.28676 -0.15638 -0.35637
 H159 H 1.40721 -0.18739 -0.29150
 H160 H 1.36143 -0.23542 -0.25046
 C161 C 1.18436 -0.34562 -0.33696
 C162 C 1.16670 -0.16586 -0.17983
 C163 C 1.35055 -0.16738 -0.32704
 C164 C 1.34419 -0.33867 -0.15979
 C165 C 0.27715 0.19206 0.69232
 H166 H 0.24086 0.19432 0.68969
 C167 C 0.30114 0.16241 0.66931
 H168 H 0.28320 0.14206 0.64875
 C169 C 0.34465 0.21650 0.72201
 H170 H 0.36136 0.23768 0.74262
 C171 C 0.37012 0.18798 0.69889
 H172 H 0.40647 0.18725 0.70187
 N173 N 0.29896 0.21757 0.71862
 C174 C 0.20176 0.24020 0.80849
 H175 H 0.20348 0.27619 0.81160
 C176 C 0.17676 0.21516 0.83409
 H177 H 0.16035 0.23308 0.85682
 C178 C 0.22469 0.17429 0.77661
 H179 H 0.24413 0.15807 0.75477
 C180 C 0.19958 0.14797 0.80112
 H181 H 0.19942 0.11238 0.79578
 Zn182 Zn 0.26292 0.25521 0.74950
 N183 N 0.22532 0.21957 0.78053
 C184 C 0.18291 0.29474 0.71957
 N185 N 0.22849 0.29214 0.71677
 C186 C 0.25084 0.31450 0.68930
 C187 C 0.22726 0.34096 0.66324
 C188 C 0.15804 0.32079 0.69409
 C189 C 0.31931 0.27069 0.81196
 C190 C 0.34330 0.29571 0.83877
 C191 C 0.32593 0.36247 0.80318
 C192 C 0.30156 0.33624 0.77740
 N193 N 0.29893 0.29115 0.78207
 H194 H 0.16573 0.27625 0.74125
 H195 H 0.28707 0.31117 0.68733
 H196 H 0.24560 0.35715 0.64095
 H197 H 0.12171 0.32235 0.69654
 H198 H 0.31592 0.23493 0.81546
 H199 H 0.35771 0.27851 0.86291
 H200 H 0.32808 0.39815 0.79851
 H201 H 0.28450 0.35213 0.75389
 C202 C 0.17540 0.16792 0.83117
 C203 C 0.34819 0.16003 0.67258
 C204 C 0.34712 0.34239 0.83460
 C205 C 0.18021 0.34419 0.66538
 C206 C 0.74523 0.66619 0.69195
 H207 H 0.70885 0.66857 0.69117
 C208 C 0.76739 0.63846 0.66601
 H209 H 0.74763 0.61876 0.64623
 C210 C 0.81488 0.69054 0.71769
 H211 H 0.83336 0.71165 0.73721
 C212 C 0.83837 0.66329 0.69230
 H213 H 0.87484 0.66401 0.69273
 N214 N 0.76911 0.69203 0.71680
 C215 C 0.68809 0.72790 0.81456
 H216 H 0.69740 0.76265 0.81787
 C217 C 0.66523 0.70640 0.84364
 H218 H 0.65804 0.72552 0.86896
 C219 C 0.69032 0.66103 0.77859
 H220 H 0.70064 0.64299 0.75360
 C221 C 0.66683 0.63840 0.80655
 H222 H 0.65836 0.60394 0.80081
 Zn223 Zn 0.73799 0.73444 0.74768
 N224 N 0.70088 0.70490 0.78310
 C225 C 0.67192 0.80091 0.73094
 N226 N 0.70293 0.77221 0.71595
 C227 C 0.71089 0.77107 0.67807
 C228 C 0.68575 0.79772 0.65349
 C229 C 0.64648 0.82896 0.70727
 C230 C 0.80275 0.75193 0.80466
 C231 C 0.83131 0.77840 0.82694
 C232 C 0.81189 0.84182 0.78778
 C233 C 0.78380 0.81418 0.76625
 N234 N 0.77948 0.77021 0.77515
 H235 H 0.66687 0.80198 0.76121
 H236 H 0.73702 0.74976 0.66672
 H237 H 0.69203 0.79588 0.62333
 H238 H 0.62137 0.85121 0.71929
 H239 H 0.79835 0.71694 0.81131
 H240 H 0.84854 0.76346 0.85093
 H241 H 0.81473 0.87678 0.78030
 H242 H 0.76517 0.82804 0.74260
 C243 C 0.65497 0.66038 0.84062
 C244 C 0.81467 0.63743 0.66540
 C245 C 0.83588 0.82413 0.81878
 C246 C 0.65285 0.82670 0.66802
 C247 C 0.76407 0.17199 0.19001
 H248 H 0.72772 0.17146 0.19185
 C249 C 0.78568 0.14790 0.16151
 H250 H 0.76574 0.12856 0.14156
 C251 C 0.83392 0.20030 0.21240
 H252 H 0.85238 0.22175 0.23166
 C253 C 0.85688 0.17727 0.18387
 H254 H 0.89310 0.18044 0.18184
 N255 N 0.78831 0.19741 0.21475
 C256 C 0.69629 0.22308 0.30726
 H257 H 0.69964 0.25908 0.30877
 C258 C 0.67086 0.20084 0.33411
 H259 H 0.65511 0.22018 0.35644
 C260 C 0.71535 0.15442 0.27732
 H261 H 0.73359 0.13637 0.25569
 C262 C 0.68960 0.13082 0.30325
 H263 H 0.68744 0.09484 0.30034
 Zn264 Zn 0.75530 0.23367 0.24840
 N265 N 0.71822 0.19970 0.27987
 C266 C 0.67444 0.27017 0.21768
 N267 N 0.72021 0.27231 0.21822
 C268 C 0.74280 0.30016 0.19487
 C269 C 0.71927 0.32786 0.16994
 C270 C 0.64955 0.29672 0.19257
 C271 C 0.82250 0.24412 0.30388
 C272 C 0.84866 0.26726 0.33049
 C273 C 0.81450 0.33625 0.30888
 C274 C 0.78917 0.31189 0.28273
 N275 N 0.79368 0.26669 0.28059
 H276 H 0.65728 0.24706 0.23594
 H277 H 0.77925 0.30040 0.19544
 H278 H 0.73778 0.34946 0.15117
 H279 H 0.61316 0.29431 0.19191
 H280 H 0.82462 0.20800 0.30210
 H281 H 0.87145 0.24862 0.34854
 H282 H 0.80916 0.37207 0.31086
 H283 H 0.76473 0.32908 0.26518
 C284 C 0.66765 0.15395 0.33271
 C285 C 0.83256 0.15107 0.15778
 C286 C 0.84469 0.31401 0.33332
 C287 C 0.67212 0.32581 0.16824
 C288 C 0.25272 0.68105 0.20238
 H289 H 0.21686 0.67479 0.20214
 C290 C 0.28142 0.65426 0.18052
 H291 H 0.26734 0.62738 0.16358
 C292 C 0.31428 0.72505 0.22327
 H293 H 0.32689 0.75342 0.23911
 C294 C 0.34403 0.69955 0.20145
 H295 H 0.37947 0.70795 0.20149
 N296 N 0.26961 0.71503 0.22392
 C297 C 0.15710 0.74265 0.30065
 H298 H 0.15574 0.77864 0.29759
 C299 C 0.12717 0.72140 0.32483
 H300 H 0.10243 0.74123 0.33995
 C301 C 0.19185 0.67340 0.28513
 H302 H 0.21810 0.65501 0.27070
 C303 C 0.16257 0.65077 0.30904
 H304 H 0.16669 0.61500 0.31247
 Zn305 Zn 0.22961 0.75199 0.25235
 N306 N 0.18842 0.71853 0.28121
 C307 C 0.15445 0.78011 0.20832
 N308 N 0.19825 0.78862 0.21733
 C309 C 0.22186 0.82048 0.19883
 C310 C 0.20142 0.84536 0.17000
 C311 C 0.13288 0.80379 0.17928
 C312 C 0.29226 0.76307 0.31001
 C313 C 0.31755 0.78484 0.33782
 C314 C 0.27888 0.85372 0.32203
 C315 C 0.25532 0.83065 0.29359
 N316 N 0.26266 0.78621 0.28800
 H317 H 0.13665 0.75386 0.22272
 H318 H 0.25693 0.82585 0.20598
 H319 H 0.22102 0.86998 0.15508
 H320 H 0.09821 0.79618 0.17211
 H321 H 0.29626 0.72736 0.30584
 H322 H 0.34016 0.76461 0.35488
 H323 H 0.27270 0.88929 0.32458
 H324 H 0.23071 0.84818 0.27635
 C325 C 0.12969 0.67483 0.32936
 C326 C 0.32779 0.66336 0.17996
 C327 C 0.31127 0.83112 0.34480
 C328 C 0.15660 0.83655 0.15943
 O329 O 1.08203 0.04723 0.01481
 O330 O 0.91318 -0.05354 0.00935
 O331 O 0.94446 0.08326 0.00936
 O332 O 1.05130 -0.08910 0.00811
 O333 O 0.91854 0.02180 0.02855
 O334 O 1.07335 -0.02831 0.03207
 O335 O 0.97551 -0.07904 0.03068
 O336 O 1.01978 0.07290 0.03505
 C337 C 1.06031 0.06562 0.04075
 C338 C 0.93476 -0.07229 0.03552
 C339 C 0.92310 0.06229 0.03352
 C340 C 1.07053 -0.06922 0.03463
 O341 O 1.08316 -0.05242 -0.04289
 O342 O 0.91378 0.04862 -0.04572
 O343 O 1.05174 0.08469 -0.03646
 O344 O 0.94607 -0.08828 -0.04198
 O345 O 0.92263 -0.02734 -0.06508
 O346 O 1.07560 0.02374 -0.06002
 O347 O 1.02114 -0.07802 -0.06382
 O348 O 0.97677 0.07776 -0.06091
 Co349 Co 1.07090 -0.00258 -0.01416
 Co350 Co 0.92470 -0.00259 -0.01806
 Co351 Co 0.99830 0.07136 -0.01333
 Co352 Co 0.99851 -0.07544 -0.01662
 O353 O 0.99806 -0.00225 -0.01576
 C354 C 1.06165 -0.07150 -0.06878
 C355 C 0.93620 0.07243 -0.06767
 C356 C 1.07344 0.06492 -0.06170
 C357 C 0.92756 -0.06813 -0.06868
 O358 O 1.09058 0.55370 0.51679
 O359 O 0.91088 0.46112 0.52192
 O360 O 0.96170 0.54920 0.55424
 O361 O 1.04930 0.41339 0.52990
 O362 O 0.90774 0.54085 0.51593
 O363 O 1.09007 0.47350 0.53542
 O364 O 0.96744 0.42548 0.54885
 O365 O 1.03791 0.55379 0.55439
 C366 C 1.07724 0.56284 0.54883
 C367 C 0.92786 0.44010 0.55017
 C368 C 0.92090 0.55039 0.54860
 C369 C 1.08064 0.43465 0.54561
 O370 O 1.08320 0.45105 0.46340
 O371 O 0.94400 0.53545 0.44455
 O372 O 1.03530 0.58748 0.47845
 O373 O 0.94303 0.40716 0.48080
 O374 O 0.94110 0.46012 0.44419
 O375 O 1.06960 0.53335 0.44770
 O376 O 1.02293 0.40986 0.45873
 O377 O 0.95574 0.58828 0.48321
 Co378 Co 1.07509 0.50209 0.49147
 Co379 Co 0.93189 0.49868 0.48312
 Co380 Co 0.99817 0.56390 0.51610
 Co381 Co 0.99639 0.42237 0.50401
 O382 O 1.00095 0.49638 0.49860
 C383 C 1.06149 0.42006 0.44774
 C384 C 0.94651 0.57597 0.45017
 C385 C 1.05391 0.57233 0.44853
 C386 C 0.93256 0.42091 0.44925
 O387 O 0.58462 0.04598 0.52466
 O388 O 0.41730 -0.06125 0.52680
 O389 O 0.44599 0.07628 0.52755
 O390 O 0.55576 -0.09095 0.51994
 O391 O 0.42265 0.01454 0.54848
 O392 O 0.57703 -0.03028 0.54480
 O393 O 0.48122 -0.08707 0.54353
 O394 O 0.52254 0.06800 0.54708
 C395 C 0.56383 0.06661 0.54988
 C396 C 0.44124 -0.08029 0.55109
 C397 C 0.42886 0.05488 0.55384
 C398 C 0.57215 -0.07111 0.54781
 O399 O 0.58564 -0.05540 0.46940
 O400 O 0.41026 0.04257 0.47545
 O401 O 0.54775 0.07982 0.47328
 O402 O 0.44879 -0.09423 0.47198
 O403 O 0.41883 -0.03300 0.45405
 O404 O 0.57322 0.01862 0.45158
 O405 O 0.52373 -0.08081 0.44800
 O406 O 0.47084 0.07091 0.45430
 Co407 Co 0.57207 -0.00557 0.49792
 Co408 Co 0.42516 -0.00900 0.50096
 Co409 Co 0.49722 0.06570 0.50038
 Co410 Co 0.50204 -0.08044 0.49597
 O411 O 0.49893 -0.00730 0.49854
 C412 C 0.56440 -0.07391 0.44305
 C413 C 0.42958 0.06618 0.45145
 C414 C 0.56909 0.05931 0.44828
 C415 C 0.42261 -0.07394 0.45011
 O416 O 0.58611 0.54777 0.03958
 O417 O 0.41352 0.45063 0.04064
 O418 O 0.44941 0.58642 0.04323
 O419 O 0.55046 0.41202 0.03238
 O420 O 0.42455 0.52448 0.06283
 O421 O 0.57766 0.47136 0.05594
 O422 O 0.47628 0.42216 0.05805
 O423 O 0.52559 0.57460 0.06233
 C424 C 0.56637 0.56730 0.06614
 C425 C 0.43598 0.42925 0.06462
 C426 C 0.43001 0.56485 0.06843
 C427 C 0.57308 0.43049 0.05776
 O428 O 0.58074 0.44885 -0.01949
 O429 O 0.41351 0.55551 -0.00893
 O430 O 0.55194 0.58631 -0.01046
 O431 O 0.44249 0.41833 -0.01326
 O432 O 0.41847 0.48061 -0.03290
 O433 O 0.57297 0.52516 -0.03512
 O434 O 0.51691 0.42499 -0.03798
 O435 O 0.47496 0.57926 -0.03119
 Co436 Co 0.57157 0.49852 0.01055
 Co437 Co 0.42510 0.50250 0.01508
 Co438 Co 0.50019 0.57358 0.01558
 Co439 Co 0.49675 0.42719 0.01015
 O440 O 0.49845 0.50041 0.01301
 C441 C 0.55709 0.43118 -0.04484
 C442 C 0.43399 0.57392 -0.03513
 C443 C 0.57047 0.56616 -0.03716
 C444 C 0.42478 0.44038 -0.03921
 C445 C 1.15446 0.10154 0.10586
 C446 C 1.13227 0.12148 0.13653
 C447 C 1.08495 0.11582 0.13822
 C448 C 1.06098 0.09629 0.10764
 C449 C 1.08392 0.08166 0.07501
 C450 C 1.13097 0.08225 0.07606
 C451 C 1.16364 0.09848 0.04743
 C452 C 1.18946 0.11985 0.08012
 H453 H 1.06612 0.12797 0.16232
 H454 H 1.02459 0.09441 0.10888
 H455 H 1.14844 0.12325 0.02761
 H456 H 1.18231 0.07047 0.03373
 H457 H 1.18923 0.15705 0.07935
 H458 H 1.22308 0.10421 0.08501
 C459 C 1.17102 0.62839 0.59575
 C460 C 1.15846 0.62892 0.63403
 C461 C 1.11624 0.61043 0.64304
 C462 C 1.08962 0.58947 0.61519
 C463 C 1.10454 0.58614 0.57754
 C464 C 1.14447 0.60780 0.56821
 C465 C 1.18398 0.59119 0.54647
 C466 C 1.21332 0.61260 0.57692
 H467 H 1.10416 0.61116 0.67189
 H468 H 1.05798 0.57468 0.62343
 H469 H 1.18662 0.60779 0.51849
 H470 H 1.18647 0.55407 0.54566
 H471 H 1.23375 0.64082 0.56624
 H472 H 1.23227 0.58737 0.59388
 C473 C 0.65640 0.13050 0.60001
 C474 C 0.63519 0.14899 0.63184
 C475 C 0.58795 0.14361 0.63409
 C476 C 0.56455 0.11668 0.60760
 C477 C 0.58768 0.09461 0.57809
 C478 C 0.63336 0.10430 0.57387
 C479 C 0.67283 0.07396 0.56809
 C480 C 0.69807 0.10247 0.59699
 H481 H 0.56893 0.15958 0.65646
 H482 H 0.52865 0.11224 0.61087
 H483 H 0.68658 0.07654 0.53901
 H484 H 0.66653 0.03937 0.57785
 H485 H 0.72653 0.12115 0.58451
 H486 H 0.70619 0.08443 0.62368
 C487 C 0.66381 0.59854 0.13071
 C488 C 0.64450 0.62942 0.15585
 C489 C 0.59696 0.63299 0.15559
 C490 C 0.57089 0.61075 0.12769
 C491 C 0.59185 0.58485 0.09919
 C492 C 0.63827 0.57727 0.10296
 C493 C 0.67505 0.58015 0.07453
 C494 C 0.70310 0.60336 0.10497
 H495 H 0.58006 0.65469 0.17570
 H496 H 0.53477 0.61618 0.12705
 H497 H 0.66613 0.60226 0.05033
 H498 H 0.68850 0.54663 0.06653
 H499 H 0.71054 0.63890 0.09841
 H500 H 0.73258 0.58311 0.11454
 C501 C 0.91315 -0.12288 0.13203
 C502 C 0.86663 -0.13069 0.13102
 C503 C 0.84186 -0.11139 0.10086
 C504 C 0.86395 -0.09073 0.07051
 C505 C 0.91140 -0.08888 0.06947
 C506 C 0.93498 -0.10275 0.10195
 C507 C 0.97548 -0.13220 0.10624
 C508 C 0.95158 -0.15429 0.13913
 H509 H 0.80551 -0.11408 0.09978
 H510 H 0.84391 -0.07845 0.04694
 H511 H 1.00578 -0.11305 0.11521
 H512 H 0.98045 -0.15493 0.08155
 H513 H 0.96823 -0.14791 0.16694
 H514 H 0.94261 -0.18980 0.13349
 C515 C 0.89578 0.38747 0.64301
 C516 C 0.84825 0.38996 0.64336
 C517 C 0.82859 0.41917 0.61575
 C518 C 0.85453 0.43820 0.58655
 C519 C 0.90086 0.42881 0.58386
 C520 C 0.92090 0.40596 0.61415
 C521 C 0.95448 0.36864 0.61408
 C522 C 0.92725 0.34794 0.64542
 H523 H 0.79308 0.42717 0.61552
 H524 H 0.83776 0.45799 0.56497
 H525 H 0.98843 0.37983 0.62354
 H526 H 0.95380 0.34862 0.58743
 H527 H 0.94623 0.34675 0.67269
 H528 H 0.91085 0.31602 0.63691
 C529 C 0.42132 -0.15095 0.63741
 C530 C 0.37722 -0.13906 0.64729
 C531 C 0.35820 -0.10090 0.62979
 C532 C 0.38004 -0.08033 0.59938
 C533 C 0.42163 -0.09699 0.58633
 C534 C 0.44316 -0.13027 0.60769
 C535 C 0.46418 -0.17327 0.59493
 C536 C 0.44035 -0.19581 0.62749
 H537 H 0.32527 -0.08859 0.63793
 H538 H 0.36315 -0.05315 0.58476
 H539 H 0.50130 -0.17329 0.59856
 H540 H 0.45188 -0.18428 0.56655
 H541 H 0.46390 -0.20847 0.64968
 H542 H 0.41409 -0.21991 0.61807
 C543 C 0.40721 0.34768 0.14156
 C544 C 0.36212 0.35851 0.14940
 C545 C 0.34558 0.39958 0.13505
 C546 C 0.37086 0.42429 0.10901
 C547 C 0.41366 0.40913 0.09740
 C548 C 0.43245 0.37250 0.11641
 C549 C 0.45550 0.33182 0.10106
 C550 C 0.42780 0.30459 0.12848
 H551 H 0.31231 0.41170 0.14227
 H552 H 0.35574 0.45373 0.09628
 H553 H 0.49207 0.33144 0.10801
 H554 H 0.44694 0.32519 0.07082
 H555 H 0.44864 0.28844 0.15094
 H556 H 0.40300 0.28227 0.11420
 C557 C 0.89904 0.16930 -0.12919
 C558 C 0.86094 0.15249 -0.14847
 C559 C 0.85193 0.10633 -0.14401
 C560 C 0.87769 0.07966 -0.11901
 C561 C 0.91376 0.09790 -0.09822
 C562 C 0.92514 0.14241 -0.10520
 C563 C 0.93214 0.17912 -0.07709
 C564 C 0.90336 0.20835 -0.10256
 H565 H 0.82340 0.09105 -0.15815
 H566 H 0.86843 0.04519 -0.11483
 H567 H 0.96763 0.19027 -0.07541
 H568 H 0.91634 0.17216 -0.04929
 H569 H 0.92235 0.23642 -0.11521
 H570 H 0.87101 0.21792 -0.08897
 C571 C 0.91272 0.61913 0.35362
 C572 C 0.89700 0.66246 0.36140
 C573 C 0.90821 0.68063 0.39741
 C574 C 0.92767 0.65350 0.42601
 C575 C 0.93591 0.60763 0.41922
 C576 C 0.93130 0.59242 0.38176
 C577 C 0.91019 0.55108 0.36583
 C578 C 0.88979 0.58039 0.33499
 H579 H 0.89946 0.71491 0.40434
 H580 H 0.93279 0.66753 0.45405
 H581 H 0.88454 0.53654 0.38487
 H582 H 0.93576 0.52695 0.35501
 H583 H 0.85243 0.58294 0.33628
 H584 H 0.90360 0.57304 0.30645
 C585 C 0.33685 0.09882 0.38306
 C586 C 0.35168 0.13878 0.36616
 C587 C 0.39224 0.15670 0.38208
 C588 C 0.41734 0.13359 0.41003
 C589 C 0.40277 0.09221 0.42384
 C590 C 0.36051 0.07773 0.41194
 C591 C 0.34482 0.03255 0.40086
 C592 C 0.31989 0.05479 0.36834
 H593 H 0.40735 0.18686 0.37153
 H594 H 0.44853 0.14784 0.42034
 H595 H 0.32165 0.01921 0.42249
 H596 H 0.37271 0.01006 0.39167
 H597 H 0.28270 0.05169 0.37068
 H598 H 0.33414 0.04570 0.34026
 C599 C 0.39958 0.60480 -0.13471
 C600 C 0.36430 0.63524 -0.12858
 C601 C 0.34743 0.63928 -0.09151
 C602 C 0.36925 0.61767 -0.06113
 C603 C 0.40899 0.59277 -0.06723
 C604 C 0.42173 0.58437 -0.10464
 C605 C 0.46641 0.58687 -0.12346
 C606 C 0.44220 0.60961 -0.15642
 H607 H 0.31843 0.66040 -0.08586
 H608 H 0.35674 0.62274 -0.03268
 H609 H 0.47992 0.55316 -0.13080
 H610 H 0.49041 0.60910 -0.10831
 H611 H 0.44206 0.58907 -0.18277
 H612 H 0.45198 0.64517 -0.16015
 C613 C 1.15392 -0.09924 -0.13801
 C614 C 1.13681 -0.13669 -0.15708
 C615 C 1.09072 -0.14638 -0.15243
 C616 C 1.06487 -0.12282 -0.12547
 C617 C 1.08496 -0.08988 -0.10217
 C618 C 1.12884 -0.07675 -0.11091
 C619 C 1.16915 -0.06958 -0.08602
 C620 C 1.19665 -0.09407 -0.11587
 H621 H 1.07538 -0.17368 -0.16806
 H622 H 1.03039 -0.13285 -0.12091
 H623 H 1.16722 -0.08805 -0.05883
 H624 H 1.17796 -0.03362 -0.08327
 H625 H 1.21068 -0.12661 -0.10597
 H626 H 1.22103 -0.07211 -0.13044
 C627 C 1.07888 0.34425 0.36259
 C628 C 1.12475 0.35006 0.35458
 C629 C 1.14733 0.38461 0.37419
 C630 C 1.12627 0.40803 0.40382
 C631 C 1.08180 0.39783 0.41455
 C632 C 1.05785 0.36811 0.39132
 C633 C 1.02681 0.33080 0.40027
 C634 C 1.05016 0.30410 0.36914
 H635 H 1.18224 0.39184 0.36815
 H636 H 1.14573 0.43267 0.41938
 H637 H 0.99121 0.33929 0.39319
 H638 H 1.03261 0.31705 0.42912
 H639 H 1.02768 0.29665 0.34459
 H640 H 1.06896 0.27495 0.38074
 C641 C 0.65681 -0.09419 0.37141
 C642 C 0.63995 -0.12966 0.34953
 C643 C 0.59434 -0.14112 0.35462
 C644 C 0.56895 -0.12151 0.38398
 C645 C 0.58828 -0.08991 0.40885
 C646 C 0.63180 -0.07511 0.40052
 C647 C 0.67245 -0.07075 0.42553
 C648 C 0.69974 -0.09128 0.39356
 H649 H 0.57903 -0.16709 0.33742
 H650 H 0.53559 -0.13376 0.38904
 H651 H 0.67090 -0.09243 0.45099
 H652 H 0.68129 -0.03531 0.43139
 H653 H 0.71415 -0.12473 0.40052
 H654 H 0.72376 -0.06745 0.38078
 C655 C 0.64054 0.41133 -0.12364
 C656 C 0.62210 0.37477 -0.14311
 C657 C 0.57771 0.36239 -0.13410
 C658 C 0.55525 0.38263 -0.10336
 C659 C 0.57718 0.41483 -0.08048
 C660 C 0.61890 0.43046 -0.09281
 C661 C 0.66218 0.43736 -0.07178
 C662 C 0.68591 0.41655 -0.10566
 H663 H 0.56129 0.33559 -0.14957
 H664 H 0.52219 0.37071 -0.09596
 H665 H 0.66485 0.41667 -0.04577
 H666 H 0.67001 0.47340 -0.06774
 H667 H 0.70241 0.38390 -0.09927
 H668 H 0.70714 0.44070 -0.12119
 C669 C 1.12214 0.16190 -0.11571
 C670 C 1.15189 0.14182 -0.14173
 C671 C 1.15840 0.09478 -0.13787
 C672 C 1.13311 0.06960 -0.11200
 C673 C 1.10075 0.09039 -0.08882
 C674 C 1.09766 0.13697 -0.09004
 C675 C 1.05677 0.16561 -0.09430
 C676 C 1.08305 0.19289 -0.12252
 H677 H 1.18293 0.07658 -0.15438
 H678 H 1.13847 0.03377 -0.11064
 H679 H 1.04911 0.18430 -0.06779
 H680 H 1.02800 0.14729 -0.10730
 H681 H 1.08964 0.22749 -0.11225
 H682 H 1.06950 0.19051 -0.15193
 C683 C 1.08592 0.67206 0.39026
 C684 C 1.09944 0.65173 0.35620
 C685 C 1.08574 0.60717 0.34982
 C686 C 1.06695 0.58208 0.37926
 C687 C 1.06100 0.60119 0.41550
 C688 C 1.06693 0.64737 0.41925
 C689 C 1.09118 0.67338 0.44922
 C690 C 1.11199 0.70040 0.41757
 H691 H 1.09255 0.59061 0.32311
 H692 H 1.06044 0.54685 0.37451
 H693 H 1.11612 0.65272 0.46520
 H694 H 1.06765 0.69327 0.46706
 H695 H 1.14902 0.69543 0.41513
 H696 H 1.10048 0.73588 0.41727
 C697 C 0.61009 0.15096 0.38445
 C698 C 0.64362 0.12965 0.36301
 C699 C 0.65553 0.08545 0.37319
 C700 C 0.63106 0.06244 0.40074
 C701 C 0.59468 0.08325 0.41939
 C702 C 0.58641 0.12843 0.41210
 C703 C 0.54318 0.15099 0.40152
 C704 C 0.56908 0.17584 0.37140
 H705 H 0.68327 0.06815 0.35972
 H706 H 0.64027 0.02819 0.40705
 H707 H 0.53057 0.17319 0.42453
 H708 H 0.51810 0.12721 0.38953
 H709 H 0.57149 0.21236 0.37717
 H710 H 0.55879 0.16675 0.34200
 C711 C 0.61730 0.65940 -0.09704
 C712 C 0.63569 0.63685 -0.12858
 C713 C 0.63672 0.58935 -0.12640
 C714 C 0.61600 0.56658 -0.09657
 C715 C 0.59385 0.59016 -0.06752
 C716 C 0.59728 0.63675 -0.06739
 C717 C 0.56191 0.67175 -0.06205
 C718 C 0.58305 0.69638 -0.09489
 H719 H 0.65350 0.56886 -0.14730
 H720 H 0.61641 0.53036 -0.09689
 H721 H 0.56584 0.68959 -0.03451
 H722 H 0.52736 0.65956 -0.06822
 H723 H 0.59806 0.72883 -0.08608
 H724 H 0.56099 0.69788 -0.12049
 C725 C 0.85143 -0.10170 -0.15016
 C726 C 0.86422 -0.14625 -0.15703
 C727 C 0.90369 -0.16200 -0.13879
 C728 C 0.92567 -0.13567 -0.11116
 C729 C 0.90909 -0.09279 -0.10152
 C730 C 0.87333 -0.07550 -0.12311
 C731 C 0.82993 -0.05520 -0.11007
 C732 C 0.80621 -0.08352 -0.13983
 H733 H 0.91635 -0.19542 -0.14442
 H734 H 0.95421 -0.14978 -0.09598
 H735 H 0.82747 -0.01890 -0.11611
 H736 H 0.82149 -0.06466 -0.08056
 H737 H 0.79091 -0.06343 -0.16308
 H738 H 0.78383 -0.10934 -0.12765
 C739 C 0.87127 0.32595 0.40054
 C740 C 0.86935 0.33999 0.36267
 C741 C 0.88484 0.38346 0.35468
 C742 C 0.90457 0.41006 0.38309
 C743 C 0.90955 0.39388 0.42026
 C744 C 0.89062 0.35247 0.42866
 C745 C 0.91028 0.31346 0.44913
 C746 C 0.89023 0.28426 0.41801
 H747 H 0.88272 0.39660 0.32620
 H748 H 0.91728 0.44269 0.37559
 H749 H 0.89427 0.30848 0.47712
 H750 H 0.94771 0.31341 0.44961
 H751 H 0.86344 0.26165 0.42829
 H752 H 0.91653 0.26792 0.40034
 C753 C 0.37562 -0.16610 0.38750
 C754 C 0.33539 -0.14752 0.37260
 C755 C 0.32155 -0.10601 0.38875
 C756 C 0.34914 -0.08304 0.41494
 C757 C 0.39221 -0.09923 0.42458
 C758 C 0.40334 -0.14232 0.41234
 C759 C 0.44515 -0.15774 0.39331
 C760 C 0.41544 -0.18454 0.36666
 H761 H 0.28907 -0.09124 0.38227
 H762 H 0.33670 -0.05271 0.42775
 H763 H 0.46676 -0.17879 0.41203
 H764 H 0.46215 -0.12972 0.37881
 H765 H 0.41945 -0.22126 0.37046
 H766 H 0.41680 -0.17303 0.33679
 C767 C 0.36294 0.41550 -0.13109
 C768 C 0.37264 0.36988 -0.13714
 C769 C 0.40733 0.35099 -0.11455
 C770 C 0.42542 0.37467 -0.08349
 C771 C 0.41040 0.41835 -0.07476
 C772 C 0.38163 0.43923 -0.10088
 C773 C 0.33944 0.46552 -0.09461
 C774 C 0.31884 0.43951 -0.12757
 H775 H 0.41914 0.31716 -0.11949
 H776 H 0.44954 0.35783 -0.06523
 H777 H 0.34397 0.50166 -0.10076
 H778 H 0.32360 0.45819 -0.06692
 H779 H 0.31131 0.46084 -0.15255
 H780 H 0.29109 0.41699 -0.11901
 C781 C 1.14535 -0.09543 0.11904
 C782 C 1.13594 -0.14034 0.12645
 C783 C 1.10854 -0.16336 0.09999
 C784 C 1.08795 -0.14050 0.06954
 C785 C 1.09385 -0.09401 0.06513
 C786 C 1.12472 -0.07283 0.08932
 C787 C 1.12035 -0.03074 0.11195
 C788 C 1.14275 -0.05558 0.14460
 H789 H 1.10233 -0.19879 0.10316
 H790 H 1.06607 -0.15888 0.05040
 H791 H 1.08470 -0.02120 0.11741
 H792 H 1.14174 -0.00374 0.10057
 H793 H 1.12002 -0.06084 0.16903
 H794 H 1.17666 -0.04244 0.15206
 C795 C 1.16119 0.41402 0.62783
 C796 C 1.15347 0.36896 0.63664
 C797 C 1.11640 0.34821 0.61874
 C798 C 1.09225 0.37000 0.58972
 C799 C 1.10416 0.41347 0.57800
 C800 C 1.13666 0.43583 0.59976
 C801 C 1.17539 0.46429 0.58889
 C802 C 1.20273 0.44001 0.61929
 H803 H 1.10752 0.31417 0.62577
 H804 H 1.06539 0.35194 0.57554
 H805 H 1.16927 0.50015 0.59580
 H806 H 1.18714 0.45740 0.55960
 H807 H 1.21293 0.46218 0.64322
 H808 H 1.23022 0.41934 0.60699
 C809 C 0.62026 -0.10064 0.64445
 C810 C 0.62432 -0.14727 0.64174
 C811 C 0.60357 -0.16874 0.61068
 C812 C 0.58501 -0.14367 0.58089
 C813 C 0.58683 -0.09653 0.58140
 C814 C 0.60209 -0.07573 0.61473
 C815 C 0.63588 -0.03945 0.62003
 C816 C 0.65547 -0.06646 0.65268
 H817 H 0.60434 -0.20490 0.60828
 H818 H 0.57162 -0.16141 0.55648
 H819 H 0.62006 -0.00738 0.62919
 H820 H 0.65914 -0.03698 0.59564
 H821 H 0.65059 -0.05015 0.68074
 H822 H 0.69018 -0.07912 0.64734
 C823 C 0.65940 0.39592 0.13130
 C824 C 0.64724 0.35190 0.13944
 C825 C 0.61317 0.33217 0.11702
 C826 C 0.58939 0.35762 0.08996
 C827 C 0.59863 0.40349 0.08532
 C828 C 0.63553 0.42119 0.10506
 C829 C 0.63948 0.46273 0.12844
 C830 C 0.66548 0.43496 0.15733
 H831 H 0.60454 0.29731 0.12069
 H832 H 0.56294 0.34174 0.07353
 H833 H 0.60640 0.47519 0.13885
 H834 H 0.66076 0.48810 0.11453
 H835 H 0.64740 0.43094 0.18455
 H836 H 0.70142 0.44477 0.16013
 C837 C 0.84143 0.08735 0.11223
 C838 C 0.85509 0.12945 0.12527
 C839 C 0.88833 0.15186 0.10442
 C840 C 0.91000 0.13039 0.07393
 C841 C 0.89922 0.08592 0.06404
 C842 C 0.86313 0.06602 0.08256
 C843 C 0.85949 0.02127 0.10076
 C844 C 0.83582 0.04471 0.13341
 H845 H 0.89807 0.18562 0.11201
 H846 H 0.93630 0.14793 0.05914
 H847 H 0.89283 0.00673 0.10871
 H848 H 0.83689 -0.00133 0.08442
 H849 H 0.85550 0.04404 0.16036
 H850 H 0.79982 0.03525 0.13594
 C851 C 0.88380 0.59780 0.64219
 C852 C 0.83957 0.61239 0.63552
 C853 C 0.82223 0.60723 0.59825
 C854 C 0.84771 0.58551 0.56989
 C855 C 0.89115 0.56876 0.57811
 C856 C 0.90884 0.57673 0.61431
 C857 C 0.92917 0.54437 0.64170
 C858 C 0.90167 0.56744 0.67229
 H859 H 0.78932 0.62038 0.59074
 H860 H 0.83370 0.58236 0.54159
 H861 H 0.96607 0.54926 0.64521
 H862 H 0.91869 0.50927 0.63608
 H863 H 0.92277 0.58558 0.69346
 H864 H 0.87518 0.54578 0.68443
 C865 C 0.41217 0.14434 0.62863
 C866 C 0.37424 0.12937 0.64790
 C867 C 0.36016 0.08501 0.64087
 C868 C 0.37999 0.05922 0.61176
 C869 C 0.41341 0.07779 0.58856
 C870 C 0.43082 0.11948 0.59935
 C871 C 0.44034 0.16036 0.57671
 C872 C 0.42003 0.18757 0.60890
 H873 H 0.33218 0.07125 0.65636
 H874 H 0.36667 0.02634 0.60558
 H875 H 0.42013 0.16203 0.55007
 H876 H 0.47706 0.16602 0.57338
 H877 H 0.38814 0.20501 0.60092
 H878 H 0.44512 0.20863 0.62415
 C879 C 0.39451 0.65593 0.13695
 C880 C 0.35904 0.63607 0.15649
 C881 C 0.35383 0.58937 0.15222
 C882 C 0.37929 0.56526 0.12529
 C883 C 0.40999 0.58747 0.10167
 C884 C 0.41904 0.63239 0.11004
 C885 C 0.42222 0.67216 0.08482
 C886 C 0.39536 0.69797 0.11435
 H887 H 0.32858 0.57186 0.16827
 H888 H 0.37251 0.53002 0.12117
 H889 H 0.40370 0.66764 0.05756
 H890 H 0.45745 0.68405 0.08221
 H891 H 0.36130 0.70838 0.10422
 H892 H 0.41516 0.72469 0.12868
   
