data_POSCAR
  _audit_creation_date              2014-09-24
  _audit_creation_method            'ToBaCCo'
  _symmetry_space_group_name_H-M    'P1'
  _symmetry_Int_Tables_number       1
  _symmetry_cell_setting            triclinic
  loop_
  _symmetry_equiv_pos_as_xyz
 x,y,z
_cell_length_a 21.4004
_cell_length_b 21.4661
_cell_length_c 51.0594
_cell_angle_alpha 83.446700
_cell_angle_beta 93.306900
_cell_angle_gamma 120.160200
loop_
  _atom_site_label
  _atom_site_type_symbol
  _atom_site_fract_x
  _atom_site_fract_y
  _atom_site_fract_z
C1 C 0.01201 0.13259 0.53240
 H2 H 0.06231 0.13263 0.53111
 C3 C 0.00770 0.17908 0.54816
 H4 H 0.05471 0.21487 0.55916
 C5 C -0.11051 0.08614 0.51939
 H6 H -0.15598 0.05019 0.50791
 C7 C -0.11718 0.13208 0.53504
 H8 H -0.16810 0.13121 0.53578
 N9 N -0.04657 0.08710 0.51857
 C10 C -0.00328 -0.08579 0.50787
 H11 H 0.00170 -0.08072 0.48666
 C12 C -0.00435 -0.14472 0.52314
 H13 H 0.00097 -0.18459 0.51374
 C14 C -0.02142 -0.04305 0.54596
 H15 H -0.03101 -0.00517 0.55473
 C16 C -0.02263 -0.10091 0.56191
 H17 H -0.03170 -0.10642 0.58291
 Zn18 Zn -0.02895 0.03078 0.49752
 N19 N -0.01261 -0.03692 0.51942
 C20 C 0.11421 0.09481 0.47626
 N21 N 0.05197 0.09733 0.47656
 C22 C 0.04532 0.15143 0.46246
 C23 C 0.10224 0.20547 0.44693
 C24 C 0.17275 0.14807 0.46089
 C25 C -0.16916 -0.08017 0.48719
 C26 C -0.22207 -0.13232 0.47203
 C27 C -0.14916 -0.06685 0.43324
 C28 C -0.09766 -0.01629 0.44912
 N29 N -0.10781 -0.02445 0.47563
 H30 H 0.11864 0.05197 0.48799
 H31 H -0.00453 0.15247 0.46338
 H32 H 0.09621 0.24813 0.43571
 H33 H 0.22220 0.14593 0.46060
 H34 H -0.17496 -0.08642 0.50839
 H35 H -0.26925 -0.17814 0.48161
 H36 H -0.13890 -0.06112 0.41230
 H37 H -0.04780 0.02691 0.44035
 C38 C -0.01534 -0.15288 0.55035
 C39 C -0.05733 0.17893 0.54952
 C40 C -0.21110 -0.12642 0.44485
 C41 C 0.16651 0.20386 0.44613
 C42 C 1.17908 0.07931 0.13183
 H43 H 1.18046 0.13027 0.13222
 C44 C 1.22842 0.07554 0.11638
 H45 H 1.26779 0.12364 0.10472
 C46 C 1.12608 -0.04562 0.14670
 H47 H 1.08639 -0.09234 0.15874
 C48 C 1.17467 -0.05178 0.13144
 H49 H 1.17208 -0.10352 0.13154
 N50 N 1.12892 0.01923 0.14639
 C51 C 0.95308 0.06129 0.15535
 H52 H 0.95272 0.06238 0.17647
 C53 C 0.89664 0.06071 0.13993
 H54 H 0.85328 0.06253 0.14912
 C55 C 1.00652 0.05128 0.11777
 H56 H 1.04743 0.04430 0.10933
 C57 C 0.95134 0.05077 0.10168
 H58 H 0.95090 0.04477 0.08087
 Zn59 Zn 1.06768 0.03444 0.16668
 N60 N 1.00580 0.05528 0.14416
 C61 C 1.12631 0.17304 0.18669
 N62 N 1.12912 0.11102 0.18695
 C63 C 1.17933 0.10114 0.20148
 C64 C 1.22874 0.15427 0.21694
 C65 C 1.17498 0.22781 0.20198
 C66 C 0.95300 -0.10711 0.17809
 C67 C 0.89663 -0.16297 0.19355
 C68 C 0.95168 -0.09811 0.23176
 C69 C 1.00678 -0.04345 0.21563
 N70 N 1.00587 -0.04827 0.18924
 H71 H 1.08658 0.18004 0.17469
 H72 H 1.18066 0.05155 0.20105
 H73 H 1.26813 0.14557 0.22858
 H74 H 1.17241 0.27695 0.20192
 H75 H 0.95249 -0.10865 0.15697
 H76 H 0.85316 -0.20823 0.18438
 H77 H 0.95139 -0.09247 0.25257
 H78 H 1.04780 0.00452 0.22405
 C79 C 0.89507 0.05384 0.11294
 C80 C 1.22619 0.00948 0.11613
 C81 C 0.89527 -0.15755 0.22053
 C82 C 1.22653 0.21809 0.21725
 C83 C 0.04493 0.89302 0.87074
 H84 H -0.00487 0.84203 0.86977
 C85 C 0.10178 0.89603 0.88634
 H86 H 0.09575 0.84733 0.89756
 C87 C 0.11377 1.01869 0.85702
 H88 H 0.11819 1.06597 0.84530
 C89 C 0.17224 1.02410 0.87245
 H90 H 0.22164 1.07580 0.87281
 N91 N 0.05158 0.95379 0.85665
 C92 C -0.16950 0.90984 0.84588
 H93 H -0.17527 0.91032 0.82468
 C94 C -0.22239 0.90906 0.86102
 H95 H -0.26953 0.90774 0.85147
 C96 C -0.09811 0.91746 0.88400
 H97 H -0.04828 0.92416 0.89279
 C98 C -0.14961 0.91649 0.89983
 H99 H -0.13952 0.92104 0.92077
 Zn100 Zn -0.02928 0.93928 0.83563
 N101 N -0.10820 0.91549 0.85747
 C102 C -0.11077 0.80227 0.81371
 N103 N -0.04683 0.86535 0.81458
 C104 C 0.01179 0.87853 0.80078
 C105 C 0.00753 0.82775 0.78502
 C106 C -0.11740 0.74966 0.79806
 C107 C -0.00365 1.08155 0.82530
 C108 C -0.00470 1.13943 0.81003
 C109 C -0.02280 1.07738 0.77125
 C110 C -0.02162 1.02071 0.78719
 N111 N -0.01291 1.02337 0.81374
 H112 H -0.15627 0.79267 0.82516
 H113 H 0.06209 0.92887 0.80211
 H114 H 0.05456 0.83905 0.77406
 H115 H -0.16832 0.69955 0.79728
 H116 H 0.00124 1.08143 0.84651
 H117 H 0.00056 1.18459 0.81943
 H118 H -0.03180 1.07382 0.75023
 H119 H -0.03115 0.97325 0.77841
 C120 C -0.21145 0.91410 0.88818
 C121 C 0.16598 0.96205 0.88722
 C122 C -0.01559 1.13662 0.78280
 C123 C -0.05751 0.76277 0.78362
 O124 O 0.42307 -0.08208 -0.01891
 O125 O 0.56419 -0.06214 0.03036
 O126 O 0.43912 -0.06876 0.03125
 O127 O 0.54126 -0.08980 -0.01883
 O128 O 0.60061 0.02857 -0.02957
 O129 O 0.49656 0.04972 0.02071
 O130 O 0.62172 0.05623 0.01961
 O131 O 0.48274 0.03638 -0.02946
 Cu132 Cu 0.48622 -0.08753 0.00700
 Cu133 Cu 0.55640 0.05455 -0.00572
 C134 C 0.42907 -0.02564 -0.03231
 C135 C 0.61693 0.00089 0.03321
 C136 C 0.44964 -0.00650 0.03429
 C137 C 0.58826 -0.03464 -0.03258
 O138 O 0.00461 0.55638 0.69213
 O139 O 0.00464 0.44747 0.64103
 O140 O 0.01210 0.57265 0.64099
 O141 O 0.01205 0.43866 0.69218
 O142 O -0.10746 0.37761 0.69230
 O143 O -0.10740 0.51402 0.64080
 O144 O -0.11487 0.38850 0.64105
 O145 O -0.11490 0.49567 0.69205
 Cu146 Cu 0.02024 0.50974 0.66659
 Cu147 Cu -0.12311 0.43797 0.66655
 C148 C -0.05557 0.54440 0.70059
 C149 C -0.05553 0.39920 0.63255
 C150 C -0.04707 0.56672 0.63235
 C151 C -0.04715 0.38531 0.70079
 O152 O 0.60149 0.57306 0.36319
 O153 O 0.49707 0.44791 0.31286
 O154 O 0.62232 0.56663 0.31399
 O155 O 0.48346 0.44725 0.36305
 O156 O 0.42391 0.50611 0.35259
 O157 O 0.56491 0.62753 0.30333
 O158 O 0.43975 0.50902 0.30241
 O159 O 0.54225 0.63214 0.35255
 Cu160 Cu 0.55706 0.50287 0.33931
 Cu161 Cu 0.48702 0.57485 0.32670
 C162 C 0.58928 0.62396 0.36626
 C163 C 0.45017 0.45728 0.29931
 C164 C 0.61756 0.61724 0.30043
 C165 C 0.42986 0.45558 0.36594
 C166 C -0.06137 0.22678 0.56606
 C167 C -0.06140 0.26748 0.58048
 C168 C -0.05916 0.31491 0.59798
 C169 C -0.05692 0.35438 0.61347
 C170 C 0.83371 0.79078 0.23641
 C171 C 0.78237 0.74975 0.25020
 C172 C 0.72314 0.70336 0.26696
 C173 C 0.67389 0.66421 0.28188
 C174 C 0.22453 -0.03467 -0.09650
 C175 C 0.27214 -0.03368 -0.08242
 C176 C 0.32686 -0.03294 -0.06544
 C177 C 0.37339 -0.03105 -0.05052
 C178 C -0.02317 0.78393 0.56639
 C179 C -0.03080 0.73156 0.58049
 C180 C -0.03935 0.67159 0.59778
 C181 C -0.04471 0.62226 0.61321
 C182 C 0.27655 0.27229 0.23368
 C183 C 0.31847 0.31592 0.24799
 C184 C 0.36668 0.36559 0.26535
 C185 C 0.40619 0.40748 0.28063
 C186 C 0.74299 -0.07721 -0.09700
 C187 C 0.70532 -0.06736 -0.08330
 C188 C 0.66362 -0.05469 -0.06647
 C189 C 0.62908 -0.04447 -0.05141
 C190 C 0.27618 0.00525 0.09975
 C191 C 0.31809 0.00350 0.08548
 C192 C 0.36627 0.00194 0.06817
 C193 C 0.40574 -0.00054 0.05293
 C194 C 0.74504 0.82150 0.43062
 C195 C 0.70709 0.77391 0.41693
 C196 C 0.66509 0.71947 0.40013
 C197 C 0.63032 0.67465 0.38508
 C198 C -0.02339 0.19197 0.76676
 C199 C -0.03099 0.23672 0.75265
 C200 C -0.03950 0.28815 0.73536
 C201 C -0.04483 0.33212 0.71993
 C202 C 0.83343 0.04388 0.09710
 C203 C 0.78201 0.03350 0.08335
 C204 C 0.72268 0.02055 0.06662
 C205 C 0.67335 0.01037 0.05173
 C206 C 0.22514 0.25935 0.42993
 C207 C 0.27281 0.30615 0.41591
 C208 C 0.32760 0.36034 0.39899
 C209 C 0.37416 0.40515 0.38412
 C210 C -0.06151 0.71090 0.76708
 C211 C -0.06152 0.67018 0.75266
 C212 C -0.05924 0.62502 0.73515
 C213 C -0.05698 0.58781 0.71967
   
