data_POSCAR
  _audit_creation_date              2014-09-24
  _audit_creation_method            'ToBaCCo'
  _symmetry_space_group_name_H-M    'P1'
  _symmetry_Int_Tables_number       1
  _symmetry_cell_setting            triclinic
  loop_
  _symmetry_equiv_pos_as_xyz
 x,y,z
_cell_length_a 18.4463
_cell_length_b 18.6271
_cell_length_c 44.6436
_cell_angle_alpha 89.802300
_cell_angle_beta 97.646800
_cell_angle_gamma 124.265700
loop_
  _atom_site_label
  _atom_site_type_symbol
  _atom_site_fract_x
  _atom_site_fract_y
  _atom_site_fract_z
C1 C 0.18883 0.21376 0.56289
 H2 H 0.24503 0.22005 0.55505
 C3 C 0.20266 0.27687 0.58398
 H4 H 0.27004 0.33133 0.59209
 C5 C 0.03271 0.13676 0.55989
 H6 H -0.03318 0.08287 0.54986
 C7 C 0.04352 0.19865 0.58105
 H8 H -0.01495 0.19063 0.58749
 N9 N 0.10511 0.14613 0.55111
 C10 C 0.13494 -0.04897 0.51435
 H11 H 0.12025 -0.04668 0.49022
 C12 C 0.12679 -0.12331 0.52513
 H13 H 0.10982 -0.17579 0.50902
 C14 C 0.16270 0.01127 0.56458
 H15 H 0.16978 0.06032 0.57991
 C16 C 0.15616 -0.06141 0.57632
 H17 H 0.16085 -0.06543 0.60061
 Zn18 Zn 0.09872 0.07600 0.51921
 N19 N 0.14700 0.01369 0.53407
 C20 C 0.22819 0.16004 0.47923
 N21 N 0.15934 0.15291 0.49019
 C22 C 0.13205 0.20537 0.48188
 C23 C 0.17347 0.26748 0.46143
 C24 C 0.27177 0.22162 0.45864
 C25 C -0.05877 -0.08734 0.51528
 C26 C -0.12313 -0.16714 0.49880
 C27 C -0.11553 -0.08999 0.45448
 C28 C -0.04851 -0.01202 0.47154
 N29 N -0.01884 -0.01263 0.50103
 H30 H 0.24973 0.11867 0.48662
 H31 H 0.07769 0.19881 0.49129
 H32 H 0.14923 0.30724 0.45495
 H33 H 0.32697 0.22685 0.45039
 H34 H -0.03372 -0.08639 0.53871
 H35 H -0.14935 -0.22592 0.51044
 H36 H -0.13336 -0.08751 0.43061
 H37 H -0.01528 0.04736 0.46032
 C38 C 0.13207 -0.13235 0.55643
 C39 C 0.12953 0.27078 0.59302
 C40 C -0.14927 -0.16986 0.46750
 C41 C 0.24452 0.27653 0.44953
 C42 C 1.11594 0.01584 0.12395
 H43 H 1.10389 0.06531 0.12762
 C44 C 1.18292 0.03406 0.10772
 H45 H 1.21998 0.09649 0.09834
 C46 C 1.08566 -0.12319 0.13315
 H47 H 1.04995 -0.18304 0.14396
 C48 C 1.15128 -0.10829 0.11629
 H49 H 1.16478 -0.15737 0.11395
 N50 N 1.06919 -0.06121 0.13657
 C51 C 0.80826 -0.14931 0.14345
 H52 H 0.80342 -0.18736 0.16230
 C53 C 0.73049 -0.17064 0.12491
 H54 H 0.66723 -0.22445 0.13002
 C55 C 0.89580 -0.03238 0.11446
 H56 H 0.96022 0.02112 0.11028
 C57 C 0.81946 -0.05117 0.09542
 H58 H 0.82651 -0.01183 0.07668
 Zn59 Zn 0.99246 -0.06389 0.16184
 N60 N 0.88915 -0.08217 0.13771
 C61 C 1.04202 0.10545 0.18465
 N62 N 1.06231 0.04573 0.18441
 C63 C 1.13914 0.06236 0.20023
 C64 C 1.19956 0.14158 0.21729
 C65 C 1.10110 0.18626 0.20152
 C66 C 0.91510 -0.23615 0.18146
 C67 C 0.87273 -0.29925 0.20177
 C68 C 0.91304 -0.18466 0.23935
 C69 C 0.95581 -0.12392 0.21867
 N70 N 0.95510 -0.15021 0.19014
 H71 H 0.98049 0.09059 0.17176
 H72 H 1.15357 0.01365 0.19935
 H73 H 1.26065 0.15317 0.22930
 H74 H 1.08373 0.23284 0.20173
 H75 H 0.91100 -0.25635 0.15829
 H76 H 0.83834 -0.36756 0.19423
 H77 H 0.91204 -0.16241 0.26158
 H78 H 0.98485 -0.05606 0.22499
 C79 C 0.73545 -0.12207 0.10028
 C80 C 1.20180 -0.02795 0.10394
 C81 C 0.86944 -0.27352 0.23080
 C82 C 1.18117 0.20498 0.21812
 C83 C -0.00582 0.93736 0.86857
 H84 H -0.06984 0.87600 0.86768
 C85 C 0.06862 0.95070 0.88720
 H86 H 0.06040 0.89935 0.90089
 C87 C 0.08165 1.07755 0.85110
 H88 H 0.08695 1.12575 0.83628
 C89 C 0.15784 1.09352 0.86928
 H90 H 0.22046 1.15467 0.86820
 N91 N 0.00192 1.00042 0.85105
 C92 C -0.28131 0.88632 0.82897
 H93 H -0.29333 0.86830 0.80494
 C94 C -0.35276 0.86280 0.84385
 H95 H -0.41904 0.82523 0.83089
 C96 C -0.17943 0.96359 0.87390
 H97 H -0.11148 1.00397 0.88537
 C98 C -0.24843 0.94557 0.88925
 H99 H -0.23216 0.97068 0.91275
 Zn100 Zn -0.09925 0.97304 0.82352
 N101 N -0.19686 0.93344 0.84435
 C102 C -0.19018 0.80391 0.79094
 N103 N -0.11864 0.88841 0.79400
 C104 C -0.05165 0.91524 0.77765
 C105 C -0.05585 0.85692 0.75677
 C106 C -0.19773 0.74368 0.76995
 C107 C -0.05579 1.14187 0.82510
 C108 C -0.03868 1.21927 0.81413
 C109 C -0.07098 1.15496 0.76309
 C110 C -0.08709 1.07865 0.77509
 N111 N -0.07785 1.07413 0.80565
 H112 H -0.24017 0.78204 0.80535
 H113 H 0.00580 0.98214 0.78115
 H114 H -0.00194 0.87973 0.74393
 H115 H -0.25468 0.67659 0.76809
 H116 H -0.05058 1.13592 0.84927
 H117 H -0.02085 1.27231 0.83012
 H118 H -0.07681 1.15804 0.73875
 H119 H -0.10701 1.02324 0.75997
 C120 C -0.33700 0.89339 0.87439
 C121 C 0.15226 1.02944 0.88757
 C122 C -0.04528 1.22692 0.78277
 C123 C -0.12982 0.76999 0.75264
 O124 O 0.53713 -0.03048 -0.03862
 O125 O 0.46142 0.02659 0.02390
 O126 O 0.55634 -0.03412 0.01956
 O127 O 0.45124 0.04283 -0.03408
 O128 O 0.32421 -0.08721 -0.03950
 O129 O 0.43294 -0.16710 0.01235
 O130 O 0.33801 -0.10637 0.01816
 O131 O 0.40867 -0.15913 -0.04673
 Cu132 Cu 0.51388 0.01444 -0.00683
 Cu133 Cu 0.36363 -0.14339 -0.01469
 C134 C 0.48517 -0.10476 -0.05348
 C135 C 0.38713 -0.03044 0.03179
 C136 C 0.51294 -0.11345 0.02510
 C137 C 0.36978 -0.00788 -0.04538
 O138 O -0.05593 0.42621 0.69196
 O139 O -0.02806 0.55076 0.62467
 O140 O 0.00172 0.43610 0.64185
 O141 O -0.10400 0.52971 0.67319
 O142 O 0.02611 0.64107 0.69628
 O143 O 0.13286 0.54455 0.66559
 O144 O 0.10188 0.66098 0.64837
 O145 O 0.07278 0.53902 0.71542
 Cu146 Cu -0.06013 0.47533 0.65564
 Cu147 Cu 0.09640 0.60774 0.68359
 C148 C 0.00497 0.46170 0.71502
 C149 C 0.04265 0.62669 0.62501
 C150 C 0.08475 0.47315 0.64874
 C151 C -0.05794 0.60027 0.69024
 O152 O 0.46137 0.40541 0.30899
 O153 O 0.63441 0.52735 0.37604
 O154 O 0.46778 0.41023 0.36696
 O155 O 0.63687 0.49378 0.31798
 O156 O 0.62989 0.60679 0.30985
 O157 O 0.46129 0.52438 0.36105
 O158 O 0.63438 0.64362 0.36612
 O159 O 0.45841 0.52113 0.30139
 Cu160 Cu 0.55220 0.44876 0.34278
 Cu161 Cu 0.54442 0.58341 0.33423
 C162 C 0.42887 0.44250 0.29426
 C163 C 0.66158 0.60600 0.38302
 C164 C 0.43645 0.45301 0.37282
 C165 C 0.66160 0.56298 0.30517
 N166 N 0.20975 0.45879 0.64443
 N167 N 0.22117 0.40459 0.63016
 C168 C 0.14295 0.34135 0.61351
 C169 C 0.07925 0.35637 0.61756
 C170 C 0.12431 0.43130 0.63715
 H171 H 0.01003 0.31935 0.60731
 H172 H 0.25969 0.51325 0.65894
 H173 H 0.28177 0.41133 0.63217
 N174 N 0.74883 0.54042 0.27300
 N175 N 0.80268 0.58271 0.25308
 C176 C 0.81583 0.66136 0.25140
 C177 C 0.76770 0.66918 0.27098
 C178 C 0.72594 0.59097 0.28411
 H179 H 0.76155 0.72291 0.27441
 H180 H 0.72675 0.47725 0.27832
 H181 H 0.82958 0.55776 0.24091
 N182 N 0.37010 0.11083 -0.07119
 N183 N 0.31321 0.12120 -0.08845
 C184 C 0.23318 0.04386 -0.09372
 C185 C 0.24022 -0.01839 -0.07896
 C186 C 0.32797 0.02689 -0.06503
 H187 H 0.18928 -0.08691 -0.07828
 H188 H 0.43645 0.16097 -0.06351
 H189 H 0.32976 0.18106 -0.09590
 N190 N 0.00967 0.64114 0.57018
 N191 N 0.03579 0.70447 0.55190
 C192 C 0.09951 0.78120 0.56788
 C193 C 0.11508 0.76525 0.59764
 C194 C 0.05636 0.67595 0.59812
 H195 H 0.15916 0.81219 0.61671
 H196 H -0.04085 0.57566 0.56369
 H197 H 0.00641 0.69524 0.52932
 N198 N 0.31521 0.42597 0.25238
 N199 N 0.24913 0.36331 0.23258
 C200 C 0.24572 0.28959 0.23625
 C201 C 0.31288 0.30657 0.25947
 C202 C 0.35512 0.39345 0.26901
 H203 H 0.32813 0.26193 0.26869
 H204 H 0.33208 0.48968 0.25448
 H205 H 0.20817 0.37190 0.21674
 N206 N 0.45720 -0.19646 -0.09783
 N207 N 0.50700 -0.19546 -0.11896
 C208 C 0.59210 -0.12692 -0.11050
 C209 C 0.59754 -0.08192 -0.08447
 C210 C 0.51208 -0.12703 -0.07748
 H211 H 0.65574 -0.02329 -0.07223
 H212 H 0.38906 -0.24242 -0.09858
 H213 H 0.48169 -0.24339 -0.13685
 N214 N 0.40009 0.07379 0.07028
 N215 N 0.35106 0.07451 0.08914
 C216 C 0.27592 -0.00622 0.08792
 C217 C 0.27732 -0.06099 0.06742
 C218 C 0.35694 -0.00722 0.05653
 H219 H 0.22567 -0.12873 0.06019
 H220 H 0.46076 0.12864 0.06634
 H221 H 0.36862 0.12991 0.10226
 N222 N 0.73786 0.61252 0.43259
 N223 N 0.78689 0.67484 0.45736
 C224 C 0.79809 0.75016 0.44931
 C225 C 0.75535 0.73666 0.41964
 C226 C 0.71829 0.65022 0.41017
 H227 H 0.74967 0.78284 0.40662
 H228 H 0.71723 0.54754 0.43253
 H229 H 0.81379 0.66411 0.47754
 N230 N 0.04790 0.45071 0.76901
 N231 N 0.03482 0.38912 0.78686
 C232 C -0.02201 0.31066 0.77099
 C233 C -0.04708 0.32325 0.74175
 C234 C -0.00089 0.41297 0.74152
 H235 H -0.08923 0.27467 0.72289
 H236 H 0.09159 0.51750 0.77542
 H237 H 0.06784 0.40156 0.80907
 N238 N 0.51736 -0.22313 0.05613
 N239 N 0.57582 -0.22510 0.07612
 C240 C 0.65362 -0.14560 0.07977
 C241 C 0.64384 -0.09090 0.06121
 C242 C 0.55666 -0.14245 0.04673
 H243 H 0.69263 -0.02273 0.05884
 H244 H 0.45181 -0.27616 0.04923
 H245 H 0.56230 -0.28062 0.08664
 N246 N 0.33519 0.45846 0.40331
 N247 N 0.28507 0.41212 0.42371
 C248 C 0.28981 0.34285 0.42788
 C249 C 0.34519 0.34549 0.40916
 C250 C 0.37247 0.41952 0.39407
 H251 H 0.36411 0.30059 0.40689
 H252 H 0.34461 0.51633 0.39632
 H253 H 0.25034 0.42958 0.43495
 N254 N -0.19239 0.59064 0.70045
 N255 N -0.21157 0.63455 0.71707
 C256 C -0.13514 0.70651 0.73105
 C257 C -0.06407 0.70841 0.72286
 C258 C -0.10343 0.63345 0.70359
 H259 H 0.00610 0.75561 0.73072
 H260 H -0.23975 0.53148 0.68766
 H261 H -0.27611 0.61503 0.71870
   
