data_POSCAR
  _audit_creation_date              2014-09-24
  _audit_creation_method            'ToBaCCo'
  _symmetry_space_group_name_H-M    'P1'
  _symmetry_Int_Tables_number       1
  _symmetry_cell_setting            triclinic
  loop_
  _symmetry_equiv_pos_as_xyz
 x,y,z
_cell_length_a 56.3811
_cell_length_b 56.3805
_cell_length_c 19.9336
_cell_angle_alpha 90.000000
_cell_angle_beta 90.000000
_cell_angle_gamma 120.000000
loop_
  _atom_site_label
  _atom_site_type_symbol
  _atom_site_fract_x
  _atom_site_fract_y
  _atom_site_fract_z
C1 C 0.21430 0.47709 0.45752
 C2 C 0.21305 0.47650 0.53297
 C3 C 0.23659 0.47576 0.56670
 C4 C 0.26181 0.47620 0.53917
 C5 C 0.26372 0.47810 0.46446
 C6 C 0.24012 0.47839 0.42985
 H7 H 0.24310 0.48101 0.37631
 H8 H 0.23553 0.47645 0.62058
 C9 C 0.52342 -0.26392 0.45661
 C10 C 0.52353 -0.26500 0.53211
 C11 C 0.52394 -0.24095 0.56602
 C12 C 0.52249 -0.21688 0.53823
 C13 C 0.52219 -0.21573 0.46371
 C14 C 0.52273 -0.23908 0.42873
 H15 H 0.52110 -0.23820 0.37495
 H16 H 0.52561 -0.24116 0.61990
 C17 C 1.26216 0.78326 0.45579
 C18 C 1.26360 0.78493 0.53039
 C19 C 1.23967 0.76195 0.56612
 C20 C 1.21417 0.73702 0.53883
 C21 C 1.21312 0.73529 0.46384
 C22 C 1.23673 0.75876 0.42870
 H23 H 1.23441 0.75794 0.37488
 H24 H 1.24224 0.76322 0.61986
 C25 C 0.78553 0.52146 0.46131
 C26 C 0.78640 0.52256 0.53631
 C27 C 0.76187 0.52209 0.56758
 C28 C 0.73730 0.52209 0.53786
 C29 C 0.73636 0.52073 0.46299
 C30 C 0.76061 0.52079 0.43033
 H31 H 0.75999 0.52016 0.37607
 H32 H 0.76085 0.51937 0.62114
 C33 C 0.47717 0.26207 0.46019
 C34 C 0.47585 0.26154 0.53472
 C35 C 0.47529 0.23727 0.56663
 C36 C 0.47575 0.21295 0.53680
 C37 C 0.47752 0.21362 0.46173
 C38 C 0.47797 0.23806 0.42872
 H39 H 0.47992 0.23886 0.37465
 H40 H 0.47591 0.23852 0.62062
 C41 C 0.73686 0.21354 0.46320
 C42 C 0.73737 0.21318 0.53816
 C43 C 0.76160 0.23795 0.56843
 C44 C 0.78624 0.26217 0.53764
 C45 C 0.78573 0.26248 0.46268
 C46 C 0.76124 0.23799 0.43147
 H47 H 0.76149 0.23760 0.37720
 H48 H 0.76031 0.23934 0.62207
 N49 N 1.03090 0.47048 0.07592
 N50 N 1.05007 0.46375 0.09317
 N51 N 0.96920 0.45631 0.12250
 N52 N 0.95059 0.44177 0.17082
 N53 N 0.96926 0.43944 0.07595
 N54 N 0.95071 0.41345 0.09434
 N55 N 1.03023 0.48664 0.12358
 N56 N 1.04866 0.49052 0.17224
 C57 C 1.06182 0.47637 0.15399
 C58 C 0.93823 0.41438 0.15395
 N59 N 0.96910 0.52774 0.07637
 N60 N 0.95052 0.53511 0.09472
 N61 N 1.03033 0.54137 0.12362
 N62 N 1.04874 0.55574 0.17244
 N63 N 1.03049 0.55845 0.07732
 N64 N 1.04889 0.58437 0.09642
 N65 N 0.96916 0.51085 0.12289
 N66 N 0.95053 0.50673 0.17120
 Mn67 Mn 0.99974 0.49881 0.12185
 C68 C 0.93809 0.52170 0.15429
 C69 C 1.06113 0.58319 0.15612
 N70 N 0.96949 0.43992 -0.08485
 N71 N 0.95055 0.41402 -0.10257
 N72 N 1.03094 0.48756 -0.13130
 N73 N 1.04948 0.49162 -0.17979
 N74 N 1.03100 0.47066 -0.08478
 N75 N 1.04961 0.46332 -0.10324
 N76 N 0.96998 0.45683 -0.13211
 N77 N 0.95159 0.44231 -0.18086
 Mn78 Mn 1.00016 0.45522 -0.00445
 C79 C 0.93870 0.41497 -0.16311
 C80 C 1.06194 0.47668 -0.16296
 N81 N 1.03100 0.55883 -0.08346
 N82 N 1.05001 0.58481 -0.10057
 N83 N 0.96985 0.51155 -0.13176
 N84 N 0.95153 0.50777 -0.18062
 N85 N 0.96936 0.52793 -0.08439
 N86 N 0.95046 0.53494 -0.10220
 N87 N 1.03067 0.54213 -0.13106
 N88 N 1.04914 0.55683 -0.17949
 Mn89 Mn 0.99999 0.54314 -0.00357
 Mn90 Mn 1.00035 0.49950 -0.13025
 Cl91 Cl 1.00006 0.49917 -0.00411
 C92 C 1.06199 0.58410 -0.16116
 C93 C 0.93864 0.52221 -0.16289
 N94 N 0.47082 0.44003 0.07953
 N95 N 0.46463 0.41441 0.10001
 N96 N 0.45835 0.48898 0.12326
 N97 N 0.44536 0.49469 0.17179
 N98 N 0.44028 0.47144 0.07962
 N99 N 0.41474 0.46523 0.10075
 N100 N 0.48817 0.45795 0.12370
 N101 N 0.49379 0.44479 0.17195
 C102 C 0.47933 0.41712 0.15889
 C103 C 0.41765 0.48011 0.15945
 N104 N 0.52970 0.55956 0.07523
 N105 N 0.53685 0.58557 0.09248
 N106 N 0.54229 0.51133 0.12240
 N107 N 0.55540 0.50579 0.17093
 N108 N 0.56011 0.52811 0.07729
 N109 N 0.58570 0.53407 0.09754
 N110 N 0.51299 0.54286 0.12224
 N111 N 0.50916 0.55754 0.17055
 Mn112 Mn 0.50038 0.50027 0.12117
 C113 C 0.52389 0.58482 0.15267
 C114 C 0.58300 0.51978 0.15722
 N115 N 0.44002 0.47090 -0.08190
 N116 N 0.41412 0.46412 -0.09921
 N117 N 0.48712 0.45645 -0.12902
 N118 N 0.49094 0.44176 -0.17730
 N119 N 0.47033 0.43969 -0.08193
 N120 N 0.46292 0.41368 -0.09977
 N121 N 0.45686 0.48709 -0.12967
 N122 N 0.44224 0.49089 -0.17833
 Mn123 Mn 0.45535 0.45550 -0.00129
 C124 C 0.41494 0.47671 -0.16006
 C125 C 0.47601 0.41445 -0.15975
 N126 N 0.55937 0.52742 -0.08410
 N127 N 0.58519 0.53420 -0.10204
 N128 N 0.51205 0.54180 -0.13100
 N129 N 0.50797 0.55626 -0.17955
 N130 N 0.52932 0.55883 -0.08510
 N131 N 0.53684 0.58478 -0.10399
 N132 N 0.54228 0.51106 -0.13121
 N133 N 0.55668 0.50708 -0.18016
 Mn134 Mn 0.54460 0.54341 -0.00423
 Mn135 Mn 0.49957 0.49910 -0.12902
 Cl136 Cl 0.49996 0.49958 -0.00353
 C137 C 0.58407 0.52137 -0.16261
 C138 C 0.52327 0.58371 -0.16338
 N139 N 0.44052 -0.03156 0.07517
 N140 N 0.41472 -0.05125 0.09196
 N141 N 0.48862 0.03008 0.12154
 N142 N 0.49405 0.04882 0.16969
 N143 N 0.47125 0.03041 0.07695
 N144 N 0.46493 0.04979 0.09715
 N145 N 0.45743 -0.03054 0.12304
 N146 N 0.44306 -0.04896 0.17169
 C147 C 0.41581 -0.06251 0.15342
 C148 C 0.47950 0.06186 0.15625
 N149 N 0.55986 0.02947 0.07826
 N150 N 0.58580 0.04789 0.09714
 N151 N 0.51138 -0.03114 0.12400
 N152 N 0.50598 -0.04946 0.17324
 N153 N 0.52829 -0.03231 0.07945
 N154 N 0.53431 -0.05180 0.10063
 N155 N 0.54279 0.02986 0.12364
 N156 N 0.55720 0.04857 0.17192
 Mn157 Mn 0.50009 -0.00039 0.12145
 C158 C 0.58469 0.06063 0.15604
 C159 C 0.51993 -0.06319 0.16032
 N160 N 0.47183 0.03036 -0.08440
 N161 N 0.46460 0.04905 -0.10265
 N162 N 0.45906 -0.03041 -0.13104
 N163 N 0.44606 -0.04878 -0.18008
 N164 N 0.44103 -0.03142 -0.08642
 N165 N 0.41550 -0.05090 -0.10745
 N166 N 0.48883 0.03034 -0.13071
 N167 N 0.49270 0.04873 -0.17951
 Mn168 Mn 0.45609 -0.00060 -0.00467
 C169 C 0.47775 0.06120 -0.16265
 C170 C 0.41840 -0.06239 -0.16706
 N171 N 0.52878 -0.03202 -0.08199
 N172 N 0.53468 -0.05184 -0.09873
 N173 N 0.54368 0.03006 -0.12888
 N174 N 0.55836 0.04855 -0.17720
 N175 N 0.56037 0.02977 -0.08208
 N176 N 0.58640 0.04852 -0.09968
 N177 N 0.51330 -0.03056 -0.13035
 N178 N 0.50930 -0.04888 -0.17924
 Mn179 Mn 0.54426 -0.00136 -0.00167
 Mn180 Mn 0.50123 -0.00004 -0.12879
 Cl181 Cl 0.50042 -0.00057 -0.00349
 C182 C 0.52264 -0.06276 -0.16060
 C183 C 0.58565 0.06088 -0.15972
 C184 C 1.15110 0.47966 0.35826
 C185 C 1.15243 0.46905 0.29748
 C186 C 1.17204 0.46088 0.28805
 C187 C 1.19089 0.46370 0.34057
 C188 C 1.19194 0.47470 0.40678
 C189 C 1.17016 0.48229 0.41367
 O190 O 1.13089 0.48656 0.35638
 C191 C 1.11926 0.48004 0.29354
 C192 C 1.13178 0.46906 0.25584
 C193 C 1.12281 0.46051 0.18944
 C194 C 1.10076 0.46308 0.16032
 C195 C 1.08638 0.47453 0.19433
 C196 C 1.09665 0.48321 0.26393
 H197 H 1.17291 0.45216 0.24036
 H198 H 1.20421 0.45568 0.32855
 H199 H 1.16825 0.49106 0.45932
 H200 H 1.13263 0.45175 0.15985
 H201 H 1.09494 0.45605 0.10924
 H202 H 1.08723 0.49207 0.29456
 C203 C 0.52028 0.67039 0.35682
 C204 C 0.53241 0.68281 0.29750
 C205 C 0.54174 0.71090 0.28922
 C206 C 0.53857 0.72677 0.34147
 C207 C 0.52609 0.71631 0.40614
 C208 C 0.51722 0.68662 0.41195
 O209 O 0.51242 0.64307 0.35385
 C210 C 0.51987 0.63829 0.29183
 C211 C 0.53236 0.66221 0.25569
 C212 C 0.54200 0.66216 0.19032
 C213 C 0.53900 0.63745 0.16065
 C214 C 0.52608 0.61127 0.19316
 C215 C 0.51629 0.61247 0.26166
 H216 H 0.55159 0.72080 0.24266
 H217 H 0.54742 0.74833 0.33072
 H218 H 0.50698 0.67561 0.45625
 H219 H 0.55191 0.68105 0.16198
 H220 H 0.54690 0.63892 0.11042
 H221 H 0.50625 0.59386 0.29101
 C222 C 0.32606 -0.14896 0.35499
 C223 C 0.32438 -0.16052 0.29332
 C224 C 0.30502 -0.18834 0.28321
 C225 C 0.28680 -0.20487 0.33606
 C226 C 0.28561 -0.19505 0.40202
 C227 C 0.30665 -0.16553 0.40974
 O228 O 0.34689 -0.12214 0.35436
 C229 C 0.35832 -0.11674 0.29128
 C230 C 0.34486 -0.13966 0.25186
 C231 C 0.35261 -0.13848 0.18395
 C232 C 0.37450 -0.11366 0.15513
 C233 C 0.39059 -0.08882 0.19189
 C234 C 0.38164 -0.09120 0.26296
 H235 H 0.30412 -0.19762 0.23505
 H236 H 0.27359 -0.22624 0.32421
 H237 H 0.30782 -0.15540 0.45666
 H238 H 0.34175 -0.15650 0.15278
 H239 H 0.37934 -0.11410 0.10276
 H240 H 0.39227 -0.07354 0.29532
 C241 C 0.84505 0.51373 0.35211
 C242 C 0.85451 0.53628 0.31131
 C243 C 0.84324 0.55362 0.31756
 C244 C 0.82208 0.54817 0.36605
 C245 C 0.81065 0.52537 0.41146
 C246 C 0.82286 0.50754 0.40174
 O247 O 0.85868 0.49982 0.33787
 C248 C 0.87702 0.51379 0.28735
 C249 C 0.87501 0.53620 0.26910
 C250 C 0.89168 0.55323 0.21663
 C251 C 0.91085 0.54763 0.18200
 C252 C 0.91511 0.52519 0.19747
 C253 C 0.89708 0.50795 0.25291
 H254 H 0.85062 0.57135 0.28527
 H255 H 0.81436 0.56230 0.36796
 H256 H 0.81482 0.48881 0.43035
 H257 H 0.88996 0.57078 0.20191
 H258 H 0.92291 0.56151 0.14223
 H259 H 0.89839 0.49028 0.26862
 C260 C 0.46892 0.31573 0.32922
 C261 C 0.49313 0.33935 0.34192
 C262 C 0.51184 0.33886 0.38818
 C263 C 0.50596 0.31406 0.42291
 C264 C 0.48110 0.28842 0.41559
 C265 C 0.46238 0.28992 0.36529
 O266 O 0.45414 0.32080 0.28209
 C267 C 0.46923 0.34805 0.26493
 C268 C 0.49325 0.36017 0.30083
 C269 C 0.51188 0.38832 0.29222
 C270 C 0.50620 0.40470 0.24672
 C271 C 0.48207 0.39450 0.20588
 C272 C 0.46315 0.36466 0.21655
 H273 H 0.53110 0.35742 0.39738
 H274 H 0.52148 0.31496 0.45647
 H275 H 0.44311 0.27158 0.35480
 H276 H 0.53074 0.39787 0.32075
 H277 H 0.52144 0.42621 0.24332
 H278 H 0.44407 0.35468 0.18906
 C279 C 0.66958 0.15384 0.35417
 C280 C 0.68264 0.14408 0.31419
 C281 C 0.71119 0.15513 0.32112
 C282 C 0.72689 0.17639 0.36942
 C283 C 0.71558 0.18816 0.41398
 C284 C 0.68558 0.17612 0.40366
 O285 O 0.64208 0.14037 0.33933
 C286 C 0.63771 0.12185 0.28924
 C287 C 0.66211 0.12358 0.27189
 C288 C 0.66248 0.10668 0.22002
 C289 C 0.63776 0.08757 0.18507
 C290 C 0.61109 0.08359 0.19958
 C291 C 0.61187 0.10186 0.25443
 H292 H 0.72153 0.14753 0.28949
 H293 H 0.74870 0.18395 0.37178
 H294 H 0.67492 0.18433 0.43179
 H295 H 0.68172 0.10818 0.20600
 H296 H 0.63960 0.07533 0.14580
 H297 H 0.59292 0.10079 0.26941
 C298 C 0.48036 0.15037 -0.36659
 C299 C 0.46762 0.14981 -0.30755
 C300 C 0.45725 0.16766 -0.29898
 C301 C 0.46007 0.18681 -0.35040
 C302 C 0.47343 0.19009 -0.41445
 C303 C 0.48315 0.16989 -0.42123
 O304 O 0.48891 0.13139 -0.36371
 C305 C 0.48131 0.11872 -0.30205
 C306 C 0.46804 0.12937 -0.26617
 C307 C 0.45809 0.11923 -0.20130
 C308 C 0.46159 0.09784 -0.17168
 C309 C 0.47530 0.08527 -0.20370
 C310 C 0.48538 0.09673 -0.27188
 H311 H 0.44674 0.16685 -0.25284
 H312 H 0.45012 0.19849 -0.33950
 H313 H 0.49348 0.16961 -0.46624
 H314 H 0.44757 0.12764 -0.17326
 H315 H 0.45340 0.09106 -0.12180
 H316 H 0.49600 0.08870 -0.30094
 C317 C 0.67037 0.51822 -0.36608
 C318 C 0.68237 0.53009 -0.30617
 C319 C 0.71039 0.53964 -0.29676
 C320 C 0.72670 0.53687 -0.34828
 C321 C 0.71678 0.52433 -0.41322
 C322 C 0.68709 0.51550 -0.42079
 O323 O 0.64301 0.51039 -0.36393
 C324 C 0.63786 0.51756 -0.30183
 C325 C 0.66157 0.52986 -0.26497
 C326 C 0.66129 0.53925 -0.19950
 C327 C 0.63652 0.53617 -0.17028
 C328 C 0.61046 0.52345 -0.20334
 C329 C 0.61191 0.51392 -0.27210
 H330 H 0.71996 0.54948 -0.24991
 H331 H 0.74823 0.54619 -0.33663
 H332 H 0.67662 0.50598 -0.46658
 H333 H 0.68007 0.54902 -0.17070
 H334 H 0.63784 0.54389 -0.11989
 H335 H 0.59342 0.50406 -0.30193
 C336 C 0.84908 0.32892 -0.36641
 C337 C 0.84989 0.31657 -0.30786
 C338 C 0.83207 0.28834 -0.29944
 C339 C 0.81271 0.27216 -0.35062
 C340 C 0.80933 0.28245 -0.41416
 C341 C 0.82933 0.31235 -0.42074
 O342 O 0.86800 0.35645 -0.36326
 C343 C 0.88089 0.36134 -0.30197
 C344 C 0.87042 0.33733 -0.26653
 C345 C 0.88074 0.33737 -0.20199
 C346 C 0.90215 0.36221 -0.17229
 C347 C 0.91458 0.38853 -0.20398
 C348 C 0.90294 0.38733 -0.27178
 H349 H 0.83299 0.27855 -0.25359
 H350 H 0.80077 0.25049 -0.34003
 H351 H 0.82899 0.32302 -0.46503
 H352 H 0.87244 0.31837 -0.17428
 H353 H 0.90909 0.36071 -0.12267
 H354 H 0.91084 0.40605 -0.30048
 C355 C 0.52621 -0.14910 -0.36169
 C356 C 0.51602 -0.16073 -0.30025
 C357 C 0.50739 -0.18858 -0.29015
 C358 C 0.50921 -0.20508 -0.34279
 C359 C 0.52057 -0.19519 -0.40844
 C360 C 0.52919 -0.16565 -0.41624
 O361 O 0.53234 -0.12224 -0.36106
 C362 C 0.52608 -0.11690 -0.29819
 C363 C 0.51635 -0.13989 -0.25893
 C364 C 0.50950 -0.13880 -0.19123
 C365 C 0.51244 -0.11398 -0.16245
 C366 C 0.52146 -0.08907 -0.19908
 C367 C 0.52833 -0.09135 -0.26994
 H368 H 0.49875 -0.19790 -0.24219
 H369 H 0.50088 -0.22649 -0.33110
 H370 H 0.53833 -0.15552 -0.46304
 H371 H 0.50212 -0.15688 -0.16020
 H372 H 0.50695 -0.11447 -0.11022
 H373 H 0.53559 -0.07362 -0.30214
 C374 C 0.32843 0.47975 -0.36346
 C375 C 0.31653 0.46841 -0.30310
 C376 C 0.28857 0.45933 -0.29356
 C377 C 0.27227 0.46202 -0.34541
 C378 C 0.28213 0.47398 -0.41092
 C379 C 0.31172 0.48235 -0.41842
 O380 O 0.35570 0.48720 -0.36158
 C381 C 0.36092 0.48034 -0.29918
 C382 C 0.33733 0.46858 -0.26182
 C383 C 0.33775 0.45956 -0.19595
 C384 C 0.36251 0.46247 -0.16691
 C385 C 0.38846 0.47467 -0.20049
 C386 C 0.38685 0.48381 -0.26963
 H387 H 0.27905 0.44990 -0.24634
 H388 H 0.25083 0.45302 -0.33338
 H389 H 0.32217 0.49136 -0.46454
 H390 H 0.31908 0.45021 -0.16670
 H391 H 0.36128 0.45505 -0.11622
 H392 H 0.40523 0.49326 -0.29992
 C393 C 1.15138 0.67070 -0.36412
 C394 C 1.15201 0.68258 -0.30362
 C395 C 1.17104 0.71048 -0.29371
 C396 C 1.19007 0.72678 -0.34546
 C397 C 1.19180 0.71694 -0.41117
 C398 C 1.17069 0.68742 -0.41898
 O399 O 1.13157 0.64344 -0.36235
 C400 C 1.11953 0.63820 -0.29993
 C401 C 1.13139 0.66176 -0.26242
 C402 C 1.12200 0.66130 -0.19649
 C403 C 1.10014 0.63652 -0.16755
 C404 C 1.08639 0.61063 -0.20133
 C405 C 1.09710 0.61226 -0.27048
 H406 H 1.17130 0.71992 -0.24622
 H407 H 1.20296 0.74817 -0.33331
 H408 H 1.16972 0.67713 -0.46514
 H409 H 1.13134 0.67994 -0.16714
 H410 H 1.09396 0.63769 -0.11682
 H411 H 1.08816 0.59391 -0.30085
 C412 C 0.84920 0.51862 -0.36718
 C413 C 0.85024 0.53216 -0.30912
 C414 C 0.83264 0.54288 -0.30134
 C415 C 0.81328 0.53961 -0.35261
 C416 C 0.80964 0.52552 -0.41566
 C417 C 0.82942 0.51532 -0.42161
 O418 O 0.86792 0.50976 -0.36346
 C419 C 0.88092 0.51799 -0.30232
 C420 C 0.87071 0.53190 -0.26751
 C421 C 0.88116 0.54244 -0.20320
 C422 C 0.90244 0.53889 -0.17308
 C423 C 0.91462 0.52463 -0.20412
 C424 C 0.90285 0.51394 -0.27170
 H425 H 0.83374 0.55389 -0.25589
 H426 H 0.80149 0.54954 -0.34251
 H427 H 0.82886 0.50396 -0.46541
 H428 H 0.87305 0.55343 -0.17597
 H429 H 0.90947 0.54754 -0.12368
 H430 H 0.91054 0.50283 -0.29994
 C431 C 0.48217 0.32947 -0.36098
 C432 C 0.46276 0.31606 -0.31229
 C433 C 0.44769 0.28720 -0.31245
 C434 C 0.45237 0.27151 -0.36245
 C435 C 0.47219 0.28307 -0.41558
 C436 C 0.48737 0.31356 -0.41302
 O437 O 0.49433 0.35727 -0.35136
 C438 C 0.48240 0.36143 -0.29584
 C439 C 0.46296 0.33665 -0.27012
 C440 C 0.44827 0.33604 -0.21213
 C441 C 0.45322 0.36094 -0.17939
 C442 C 0.47278 0.38792 -0.20193
 C443 C 0.48765 0.38739 -0.26297
 H444 H 0.43234 0.27661 -0.27417
 H445 H 0.43991 0.24944 -0.35925
 H446 H 0.50342 0.32492 -0.44879
 H447 H 0.43302 0.31649 -0.19176
 H448 H 0.44124 0.35894 -0.13514
 H449 H 0.50301 0.40664 -0.28435
 C450 C 0.67105 0.15034 -0.36441
 C451 C 0.68363 0.14966 -0.30612
 C452 C 0.71189 0.16759 -0.29834
 C453 C 0.72783 0.18691 -0.34985
 C454 C 0.71729 0.19013 -0.41320
 C455 C 0.68739 0.17002 -0.41913
 O456 O 0.64355 0.13138 -0.36064
 C457 C 0.63891 0.11858 -0.29926
 C458 C 0.66305 0.12914 -0.26434
 C459 C 0.66324 0.11887 -0.19984
 C460 C 0.63851 0.09743 -0.16965
 C461 C 0.61208 0.08497 -0.20078
 C462 C 0.61305 0.09656 -0.26852
 H463 H 0.72187 0.16680 -0.25270
 H464 H 0.74952 0.19896 -0.33970
 H465 H 0.67655 0.17023 -0.46325
 H466 H 0.68234 0.12722 -0.17253
 H467 H 0.64018 0.09053 -0.12012
 H468 H 0.59423 0.08862 -0.29682
 C469 C 1.15398 0.48386 -0.36340
 C470 C 1.14599 0.46260 -0.31898
 C471 C 1.15850 0.44634 -0.32195
 C472 C 1.17936 0.45148 -0.37092
 C473 C 1.18913 0.47267 -0.42109
 C474 C 1.17578 0.48966 -0.41405
 O475 O 1.13960 0.49717 -0.35091
 C476 C 1.12221 0.48402 -0.29809
 C477 C 1.12561 0.46277 -0.27663
 C478 C 1.11013 0.44672 -0.22156
 C479 C 1.09068 0.45208 -0.18757
 C480 C 1.08504 0.47334 -0.20604
 C481 C 1.10192 0.48964 -0.26408
 H482 H 1.15239 0.42974 -0.28654
 H483 H 1.18786 0.43799 -0.36986
 H484 H 1.18336 0.50812 -0.44349
 H485 H 1.11297 0.43010 -0.20440
 H486 H 1.07956 0.43896 -0.14574
 H487 H 1.09951 0.50640 -0.28220
 C488 C 0.51629 0.66860 -0.36437
 C489 C 0.53771 0.68184 -0.32037
 C490 C 0.55413 0.71058 -0.32380
 C491 C 0.54897 0.72632 -0.37270
 C492 C 0.52758 0.71493 -0.42235
 C493 C 0.51048 0.68462 -0.41501
 O494 O 0.50283 0.64092 -0.35148
 C495 C 0.51604 0.63667 -0.29884
 C496 C 0.53749 0.66128 -0.27789
 C497 C 0.55364 0.66183 -0.22308
 C498 C 0.54818 0.63703 -0.18883
 C499 C 0.52670 0.61015 -0.20675
 C500 C 0.51031 0.61076 -0.26455
 H501 H 0.57088 0.72106 -0.28875
 H502 H 0.56258 0.74829 -0.37197
 H503 H 0.49193 0.67376 -0.44409
 H504 H 0.57042 0.68126 -0.20630
 H505 H 0.56139 0.63901 -0.14724
 H506 H 0.49339 0.59162 -0.28227
 C507 C 0.31710 -0.15518 -0.33444
 C508 C 0.34178 -0.15001 -0.36027
 C509 C 0.34230 -0.16469 -0.41712
 C510 C 0.31737 -0.18493 -0.44910
 C511 C 0.29042 -0.19165 -0.42791
 C512 C 0.29108 -0.17603 -0.36701
 O513 O 0.32142 -0.13884 -0.27919
 C514 C 0.34928 -0.12310 -0.27006
 C515 C 0.36246 -0.12937 -0.31891
 C516 C 0.39126 -0.11565 -0.31981
 C517 C 0.40722 -0.09511 -0.27063
 C518 C 0.39605 -0.08667 -0.21701
 C519 C 0.36555 -0.10184 -0.21817
 H520 H 0.36180 -0.16078 -0.43691
 H521 H 0.31932 -0.19574 -0.49168
 H522 H 0.27186 -0.17975 -0.34583
 H523 H 0.40161 -0.12060 -0.35835
 H524 H 0.42925 -0.08552 -0.27500
 H525 H 0.35471 -0.09722 -0.18031
 C526 C 0.52840 -0.15602 0.32793
 C527 C 0.50904 -0.15070 0.35404
 C528 C 0.49396 -0.16525 0.41117
 C529 C 0.49863 -0.18550 0.44314
 C530 C 0.51871 -0.19240 0.42168
 C531 C 0.53354 -0.17691 0.36050
 O532 O 0.54032 -0.13978 0.27247
 C533 C 0.52829 -0.12394 0.26347
 C534 C 0.50900 -0.13005 0.31263
 C535 C 0.49403 -0.11621 0.31371
 C536 C 0.49857 -0.09571 0.26440
 C537 C 0.51802 -0.08744 0.21047
 C538 C 0.53324 -0.10273 0.21146
 H539 H 0.47849 -0.16120 0.43120
 H540 H 0.48599 -0.19618 0.48598
 H541 H 0.54895 -0.18072 0.33913
 H542 H 0.47884 -0.12103 0.35249
 H543 H 0.48622 -0.08602 0.26893
 H544 H 0.54857 -0.09825 0.17336
 C545 C 0.31742 0.46953 0.33479
 C546 C 0.34050 0.49465 0.34299
 C547 C 0.33971 0.51406 0.38641
 C548 C 0.31517 0.50796 0.42283
 C549 C 0.29022 0.48215 0.42038
 C550 C 0.29196 0.46276 0.37275
 O551 O 0.32257 0.45418 0.28963
 C552 C 0.34935 0.46981 0.26918
 C553 C 0.36111 0.49474 0.30110
 C554 C 0.38882 0.51403 0.28873
 C555 C 0.40510 0.50809 0.24352
 C556 C 0.39518 0.48304 0.20653
 C557 C 0.36582 0.46345 0.22105
 H558 H 0.35783 0.53398 0.39212
 H559 H 0.31587 0.52384 0.45472
 H560 H 0.27402 0.44283 0.36552
 H561 H 0.39811 0.53360 0.31418
 H562 H 0.42630 0.52385 0.23716
 H563 H 0.35612 0.44364 0.19678
 C564 C 1.15383 0.66795 0.35485
 C565 C 1.14269 0.68061 0.31825
 C566 C 1.15241 0.70879 0.32825
 C567 C 1.17383 0.72454 0.37607
 C568 C 1.18709 0.71366 0.41695
 C569 C 1.17637 0.68405 0.40360
 O570 O 1.14137 0.64072 0.33763
 C571 C 1.12212 0.63615 0.28937
 C572 C 1.12242 0.66015 0.27545
 C573 C 1.10468 0.66033 0.22564
 C574 C 1.08617 0.63579 0.18927
 C575 C 1.08360 0.60949 0.20054
 C576 C 1.10269 0.61045 0.25333
 H577 H 1.14368 0.71879 0.29931
 H578 H 1.18045 0.74611 0.38069
 H579 H 1.18562 0.67382 0.42929
 H580 H 1.10509 0.67930 0.21426
 H581 H 1.07323 0.63744 0.15166
 H582 H 1.10270 0.59177 0.26569
 C583 C 0.46879 0.15146 0.33144
 C584 C 0.49407 0.15380 0.33869
 C585 C 0.51361 0.17416 0.38154
 C586 C 0.50747 0.19248 0.41834
 C587 C 0.48156 0.19141 0.41666
 C588 C 0.46199 0.17005 0.36976
 O589 O 0.45332 0.13077 0.28683
 C590 C 0.46905 0.11981 0.26575
 C591 C 0.49417 0.13331 0.29674
 C592 C 0.51361 0.12517 0.28366
 C593 C 0.50765 0.10289 0.23868
 C594 C 0.48240 0.08740 0.20265
 C595 C 0.46264 0.09689 0.21788
 H596 H 0.53363 0.17616 0.38659
 H597 H 0.52343 0.20778 0.44987
 H598 H 0.44191 0.16779 0.36340
 H599 H 0.53333 0.13571 0.30840
 H600 H 0.52354 0.09767 0.23179
 H601 H 0.44267 0.08647 0.19445
 C602 C 0.68310 0.52975 0.33233
 C603 C 0.66002 0.50458 0.33988
 C604 C 0.66074 0.48503 0.38290
 C605 C 0.68519 0.49102 0.41957
 C606 C 0.71017 0.51683 0.41771
 C607 C 0.70849 0.53642 0.37056
 O608 O 0.67800 0.54526 0.28755
 C609 C 0.65125 0.52968 0.26670
 C610 C 0.63946 0.50462 0.29799
 C611 C 0.61178 0.48536 0.28521
 C612 C 0.59554 0.49146 0.24021
 C613 C 0.60549 0.51664 0.20380
 C614 C 0.63483 0.53620 0.21876
 H615 H 0.64261 0.46508 0.38818
 H616 H 0.68441 0.47505 0.45125
 H617 H 0.72641 0.55641 0.36398
 H618 H 0.60245 0.46569 0.31020
 H619 H 0.57435 0.47571 0.23357
 H620 H 0.64454 0.55612 0.19505
 C621 C 0.84526 0.32959 0.35272
 C622 C 0.85491 0.31647 0.31262
 C623 C 0.84383 0.28792 0.31973
 C624 C 0.82266 0.27229 0.36832
 C625 C 0.81100 0.28367 0.41301
 C626 C 0.82304 0.31367 0.40242
 O627 O 0.85875 0.35708 0.33776
 C628 C 0.87718 0.36138 0.28749
 C629 C 0.87536 0.33696 0.27008
 C630 C 0.89214 0.33654 0.21794
 C631 C 0.91122 0.36123 0.18280
 C632 C 0.91530 0.38793 0.19744
 C633 C 0.89715 0.38719 0.25256
 H634 H 0.85135 0.27752 0.28803
 H635 H 0.81509 0.25049 0.37082
 H636 H 0.81487 0.32437 0.43047
 H637 H 0.89058 0.31727 0.20384
 H638 H 0.92336 0.35936 0.14334
 H639 H 0.89831 0.40617 0.26766
   
