data_POSCAR
  _audit_creation_date              2014-09-24
  _audit_creation_method            'ToBaCCo'
  _symmetry_space_group_name_H-M    'P1'
  _symmetry_Int_Tables_number       1
  _symmetry_cell_setting            triclinic
  loop_
  _symmetry_equiv_pos_as_xyz
 x,y,z
_cell_length_a 41.9778
_cell_length_b 41.9844
_cell_length_c 9.3110
_cell_angle_alpha 101.833000
_cell_angle_beta 93.337500
_cell_angle_gamma 120.759100
loop_
  _atom_site_label
  _atom_site_type_symbol
  _atom_site_fract_x
  _atom_site_fract_y
  _atom_site_fract_z
C1 C 0.06744 0.51460 0.06558
 C2 C 0.08027 0.54616 0.00632
 C3 C 0.05934 0.56300 -0.01039
 C4 C 0.02309 0.54646 0.02762
 C5 C 0.00891 0.51380 0.08502
 C6 C 0.03156 0.49844 0.10722
 C7 C 0.01832 0.46827 0.17565
 C8 C -0.01700 0.45219 0.21490
 C9 C -0.04110 0.46507 0.18555
 C10 C -0.02771 0.49688 0.12279
 C11 C 0.00063 0.56160 0.00917
 C12 C -0.03525 0.54491 0.04418
 C13 C -0.05063 0.51192 0.09798
 C14 C -0.08790 0.49387 0.12925
 C15 C -0.10010 0.46231 0.19006
 C16 C -0.07761 0.44789 0.22196
 H17 H 0.03541 0.45718 0.20343
 H18 H -0.02471 0.42995 0.27157
 H19 H 0.01049 0.58645 -0.03399
 H20 H -0.05020 0.55903 0.03050
 H21 H 0.10778 0.55866 -0.02400
 H22 H -0.12949 0.44496 0.19502
 C23 C 0.46832 0.53624 -0.16495
 C24 C 0.43176 0.52071 -0.13503
 C25 C 0.41532 0.49022 -0.06961
 C26 C 0.43588 0.47340 -0.03753
 C27 C 0.47311 0.48854 -0.06758
 C28 C 0.48945 0.52033 -0.12969
 C29 C 0.52642 0.53536 -0.15523
 C30 C 0.54734 0.51991 -0.11946
 C31 C 0.53196 0.48797 -0.05928
 C32 C 0.49430 0.47237 -0.03228
 C33 C 0.42091 0.44292 0.02945
 C34 C 0.44132 0.42688 0.06239
 C35 C 0.47769 0.44073 0.03076
 C36 C 0.49794 0.42391 0.06243
 C37 C 0.53432 0.43878 0.03170
 C38 C 0.55286 0.47129 -0.02421
 H39 H 0.53960 0.55927 -0.20434
 H40 H 0.57573 0.53382 -0.14032
 H41 H 0.39340 0.43126 0.05943
 H42 H 0.42840 0.40379 0.11568
 H43 H 0.41598 0.53347 -0.15926
 H44 H 0.54666 0.42208 0.04155
 C45 C 0.42726 0.90389 -0.11307
 C46 C 0.44846 0.88667 -0.11604
 C47 C 0.48698 0.90683 -0.12179
 C48 C 0.50520 0.94568 -0.12534
 C49 C 0.48461 0.96405 -0.11943
 C50 C 0.44560 0.94319 -0.11238
 C51 C 0.42592 0.96201 -0.10685
 C52 C 0.44422 1.00079 -0.10314
 C53 C 0.48293 1.02233 -0.10906
 C54 C 0.50322 1.00357 -0.11875
 C55 C 0.54347 0.96649 -0.13590
 C56 C 0.56161 1.00496 -0.13605
 C57 C 0.54224 1.02421 -0.12556
 C58 C 0.56122 1.06387 -0.11744
 C59 C 0.54131 1.08245 -0.09952
 C60 C 0.50236 1.06252 -0.09690
 H61 H 0.39607 0.94706 -0.10408
 H62 H 0.42750 1.01362 -0.09240
 H63 H 0.55988 0.95324 -0.14419
 H64 H 0.59128 1.01957 -0.14172
 H65 H 0.43508 0.85741 -0.10674
 H66 H 0.55606 1.11255 -0.09859
 C67 C 0.94299 0.51301 0.60777
 C68 C 0.92605 0.47902 0.65249
 C69 C 0.94433 0.45927 0.66581
 C70 C 0.98153 0.47511 0.63854
 C71 C 0.99866 0.50893 0.58835
 C72 C 0.97926 0.52784 0.57292
 C73 C 0.99622 0.56061 0.51991
 C74 C 1.03174 0.57490 0.48348
 C75 C 1.05194 0.55689 0.49765
 C76 C 1.03519 0.52372 0.55265
 C77 C 1.00223 0.45822 0.66157
 C78 C 1.03836 0.47328 0.63081
 C79 C 1.05518 0.50573 0.57540
 C80 C 1.09160 0.52074 0.54257
 C81 C 1.10781 0.55309 0.48801
 C82 C 1.08925 0.57237 0.46838
 H83 H 0.98210 0.57559 0.50558
 H84 H 1.04297 0.60075 0.44711
 H85 H 0.99107 0.43354 0.70623
 H86 H 1.05302 0.45914 0.65090
 H87 H 0.89741 0.46724 0.67101
 H88 H 1.13530 0.56283 0.45856
 C89 C 0.51538 0.43826 0.54741
 C90 C 0.55308 0.46047 0.53051
 C91 C 0.56623 0.49305 0.47777
 C92 C 0.54164 0.50480 0.44198
 C93 C 0.50358 0.48337 0.45928
 C94 C 0.49042 0.45029 0.51353
 C95 C 0.45265 0.43028 0.53231
 C96 C 0.42800 0.44126 0.49195
 C97 C 0.44030 0.47330 0.43494
 C98 C 0.47855 0.49483 0.41986
 C99 C 0.55400 0.53689 0.38545
 C100 C 0.52959 0.54813 0.34749
 C101 C 0.49165 0.52739 0.36261
 C102 C 0.46668 0.53874 0.32380
 C103 C 0.42889 0.51678 0.33709
 C104 C 0.41534 0.48409 0.38966
 H105 H 0.44161 0.40612 0.57977
 H106 H 0.39914 0.42436 0.50665
 H107 H 0.58270 0.55358 0.36855
 H108 H 0.54098 0.57327 0.30567
 H109 H 0.57257 0.45158 0.55085
 H110 H 0.40959 0.52513 0.30509
 C111 C 0.59143 0.08453 0.38182
 C112 C 0.57228 0.10354 0.37281
 C113 C 0.53618 0.08939 0.40585
 C114 C 0.51661 0.05275 0.43371
 C115 C 0.53377 0.03095 0.42683
 C116 C 0.57139 0.04708 0.40242
 C117 C 0.58827 0.02559 0.40141
 C118 C 0.56883 -0.01093 0.42339
 C119 C 0.53104 -0.02833 0.44266
 C120 C 0.51374 -0.00657 0.44939
 C121 C 0.48107 0.03799 0.47434
 C122 C 0.46158 0.00155 0.49689
 C123 C 0.47649 -0.02206 0.47810
 C124 C 0.45541 -0.06041 0.48979
 C125 C 0.47298 -0.08148 0.47923
 C126 C 0.51026 -0.06659 0.45671
 H127 H 0.61666 0.03643 0.38119
 H128 H 0.58437 -0.02487 0.42639
 H129 H 0.46783 0.05441 0.49089
 H130 H 0.43489 -0.00738 0.53226
 H131 H 0.58642 0.13147 0.35194
 H132 H 0.45552 -0.11192 0.46617
 O133 O 0.25676 0.45353 0.42820
 O134 O 0.20554 0.48388 0.21349
 O135 O 0.26561 0.47823 0.19513
 O136 O 0.19514 0.45651 0.43905
 O137 O 0.23040 0.51621 0.58420
 O138 O 0.30112 0.53751 0.34364
 O139 O 0.24248 0.54352 0.35788
 O140 O 0.29136 0.51262 0.57905
 Cu141 Cu 0.22718 0.46197 0.30457
 Cu142 Cu 0.26995 0.53323 0.48150
 C143 C 0.28408 0.47854 0.53519
 C144 C 0.21461 0.51878 0.25325
 C145 C 0.29594 0.51134 0.23096
 C146 C 0.19970 0.48338 0.54697
 O147 O 0.52170 0.78142 0.24662
 O148 O 0.52673 0.71255 -0.04976
 O149 O 0.52124 0.77374 -0.03464
 O150 O 0.51473 0.71385 0.21923
 O151 O 0.45239 0.68248 0.16096
 O152 O 0.45920 0.73651 -0.10812
 O153 O 0.46440 0.67677 -0.10785
 O154 O 0.45951 0.74828 0.17817
 Cu155 Cu 0.52728 0.74877 0.10144
 Cu156 Cu 0.45286 0.70786 0.02329
 C157 C 0.49004 0.77732 0.26023
 C158 C 0.49650 0.68185 -0.12312
 C159 C 0.49059 0.76536 -0.11223
 C160 C 0.48206 0.68759 0.23089
 O161 O 0.25808 0.80063 0.06993
 O162 O 0.21390 0.73936 0.32427
 O163 O 0.27740 0.80379 0.33921
 O164 O 0.18780 0.74045 0.06790
 O165 O 0.20757 0.70195 -0.01787
 O166 O 0.29808 0.76642 0.24544
 O167 O 0.23938 0.70589 0.24134
 O168 O 0.27814 0.76265 -0.02075
 Cu169 Cu 0.23174 0.77455 0.20733
 Cu170 Cu 0.25639 0.72996 0.09557
 C171 C 0.27813 0.79318 -0.01125
 C172 C 0.21971 0.71243 0.32602
 C173 C 0.30306 0.79624 0.33719
 C174 C 0.18129 0.70868 -0.01177
 O175 O 0.79850 0.53577 0.59728
 O176 O 0.73113 0.54139 0.82572
 O177 O 0.79795 0.54732 0.87612
 O178 O 0.73332 0.53158 0.54591
 O179 O 0.70314 0.46861 0.51419
 O180 O 0.76721 0.48431 0.84119
 O181 O 0.70160 0.47859 0.79369
 O182 O 0.76624 0.47255 0.56085
 Cu183 Cu 0.76824 0.54546 0.71474
 Cu184 Cu 0.73147 0.46982 0.67559
 C185 C 0.79424 0.50306 0.54515
 C186 C 0.70392 0.51035 0.84342
 C187 C 0.79475 0.51805 0.90887
 C188 C 0.70640 0.49746 0.47815
 O189 O 0.49644 0.28387 0.74136
 O190 O 0.47536 0.20373 0.91001
 O191 O 0.46068 0.26026 0.95037
 O192 O 0.50255 0.22312 0.68227
 O193 O 0.55772 0.25876 0.83844
 O194 O 0.51682 0.29924 1.09787
 O195 O 0.52938 0.24289 1.07136
 O196 O 0.55287 0.31905 0.88878
 Cu197 Cu 0.47799 0.23899 0.80699
 Cu198 Cu 0.54447 0.28341 0.99042
 C199 C 0.52851 0.31538 0.78907
 C200 C 0.50018 0.20964 1.01536
 C201 C 0.48233 0.28841 1.06297
 C202 C 0.53674 0.23333 0.71743
 O203 O 0.75301 0.22599 0.68761
 O204 O 0.81412 0.27577 1.05701
 O205 O 0.74495 0.21174 0.94346
 O206 O 0.81288 0.29587 0.81267
 O207 O 0.77811 0.32079 0.86391
 O208 O 0.71694 0.24297 1.01773
 O209 O 0.78505 0.30680 1.11213
 O210 O 0.71993 0.25235 0.74838
 Cu211 Cu 0.78437 0.24957 0.87003
 Cu212 Cu 0.74657 0.28283 0.94263
 C213 C 0.72562 0.22975 0.65591
 C214 C 0.81233 0.30234 1.14143
 C215 C 0.71869 0.21332 1.00053
 C216 C 0.80679 0.32297 0.81911
 C217 C 0.09205 0.49905 0.08147
 C218 C 0.12981 0.52191 0.11794
 C219 C 0.15383 0.50667 0.14140
 C220 C 0.19118 0.53077 0.18791
 H221 H 0.14341 0.55285 0.13995
 H222 H 0.14067 0.47631 0.13455
 H223 H 0.07905 0.46836 0.06506
 H224 H 0.20374 0.56136 0.20137
 C225 C 0.48505 0.57269 -0.21012
 C226 C 0.46389 0.57860 -0.30200
 C227 C 0.46749 0.61616 -0.28138
 C228 C 0.49887 0.64998 -0.21102
 H229 H 0.43711 0.55400 -0.36674
 H230 H 0.44117 0.61484 -0.30435
 H231 H 0.51177 0.59667 -0.14269
 H232 H 0.52576 0.65226 -0.19385
 C233 C 0.38651 0.88026 -0.10428
 C234 C 0.36449 0.84342 -0.18681
 C235 C 0.32740 0.81464 -0.16071
 C236 C 0.30550 0.82232 -0.07964
 H237 H 0.37630 0.83184 -0.26629
 H238 H 0.31977 0.78504 -0.20019
 H239 H 0.37566 0.89249 -0.02259
 H240 H 0.31143 0.85134 -0.04448
 C241 C 0.92147 0.53181 0.59740
 C242 C 0.88624 0.51152 0.51880
 C243 C 0.86002 0.52481 0.53553
 C244 C 0.82328 0.49951 0.47856
 H245 H 0.87505 0.48228 0.45368
 H246 H 0.86939 0.55227 0.61416
 H247 H 0.93377 0.56139 0.66220
 H248 H 0.81424 0.47105 0.40990
 C249 C 0.50188 0.40068 0.58333
 C250 C 0.52502 0.39343 0.65515
 C251 C 0.51244 0.35528 0.67763
 C252 C 0.53811 0.34944 0.73729
 H253 H 0.55418 0.41609 0.70076
 H254 H 0.48264 0.33291 0.65162
 H255 H 0.47271 0.37740 0.54172
 H256 H 0.56763 0.37271 0.76541
 C257 C 0.63350 0.10699 0.40216
 C258 C 0.65343 0.14037 0.36702
 C259 C 0.69085 0.16990 0.45721
 C260 C 0.69801 0.20526 0.51668
 H261 H 0.63999 0.14951 0.29810
 H262 H 0.70838 0.16083 0.50200
 H263 H 0.64861 0.10003 0.47553
 H264 H 0.67830 0.21288 0.48145
 C265 C 0.48352 0.08258 0.90879
 C266 C 0.49987 0.11951 0.98759
 C267 C 0.48361 0.14275 0.96966
 C268 C 0.49870 0.17779 1.06406
 H269 H 0.52696 0.13375 1.06245
 H270 H 0.46437 0.13413 0.86636
 H271 H 0.45471 0.06786 0.84897
 H272 H 0.51851 0.18585 1.16481
 C273 C 0.59003 0.48418 0.94596
 C274 C 0.61253 0.47338 0.99985
 C275 C 0.64649 0.47846 0.94438
 C276 C 0.67323 0.51039 0.91388
 H277 H 0.60459 0.45595 1.07681
 H278 H 0.64994 0.45425 0.93352
 H279 H 0.60081 0.50210 0.87100
 H280 H 0.67165 0.53584 0.93429
 C281 C 0.90551 0.41333 1.26786
 C282 C 0.87699 0.40331 1.34447
 C283 C 0.84636 0.36337 1.33330
 C284 C 0.84562 0.33228 1.25722
 H285 H 0.87104 0.42469 1.39580
 H286 H 0.81984 0.36033 1.35262
 H287 H 0.91372 0.39300 1.22938
 H288 H 0.87183 0.33381 1.24565
 C289 C 0.52380 0.90826 0.42717
 C290 C 0.50838 0.87449 0.46207
 C291 C 0.51544 0.84470 0.39034
 C292 C 0.48847 0.80746 0.36555
 H293 H 0.48765 0.86673 0.53302
 H294 H 0.54017 0.85292 0.33974
 H295 H 0.54588 0.91465 0.36268
 H296 H 0.46233 0.79952 0.40535
 C297 C 0.37434 0.46115 0.38536
 C298 C 0.35997 0.46015 0.50976
 C299 C 0.32039 0.44898 0.49880
 C300 C 0.31150 0.47033 0.59414
 H301 H 0.37855 0.47352 0.61790
 H302 H 0.30147 0.43088 0.39200
 H303 H 0.35595 0.45128 0.27822
 H304 H 0.33177 0.49064 0.69557
 C305 C 0.10813 0.60650 0.42197
 C306 C 0.14575 0.63092 0.45566
 C307 C 0.16426 0.66531 0.40028
 C308 C 0.20181 0.68640 0.41871
 H309 H 0.16344 0.62600 0.52558
 H310 H 0.14721 0.67112 0.33097
 H311 H 0.09203 0.61455 0.36052
 H312 H 0.21867 0.67856 0.47739
 C313 C 0.88582 0.50380 1.08575
 C314 C 0.85261 0.49178 1.13191
 C315 C 0.82137 0.49256 1.05680
 C316 C 0.82527 0.52278 1.01510
 H317 H 0.84496 0.47582 1.21362
 H318 H 0.79376 0.46622 1.03302
 H319 H 0.89104 0.51975 1.00332
 H320 H 0.85227 0.54995 1.04619
 C321 C 0.48087 0.38813 1.11317
 C322 C 0.50154 0.38388 1.21417
 C323 C 0.49425 0.34686 1.23397
 C324 C 0.46914 0.31284 1.13674
 H325 H 0.52913 0.40856 1.26987
 H326 H 0.51805 0.34946 1.29987
 H327 H 0.45284 0.36446 1.05634
 H328 H 0.44395 0.30866 1.07589
 C329 C 0.60155 0.08647 0.86754
 C330 C 0.62612 0.12103 0.96254
 C331 C 0.66509 0.14640 0.94152
 C332 C 0.68805 0.18062 1.04167
 H333 H 0.61630 0.13193 1.05340
 H334 H 0.67302 0.13958 0.83611
 H335 H 0.61089 0.07470 0.77700
 H336 H 0.67835 0.18778 1.14133
 C337 C 0.11406 0.50350 0.56131
 C338 C 0.13534 0.51258 0.69391
 C339 C 0.16790 0.50796 0.70255
 C340 C 0.16685 0.47799 0.61270
 H341 H 0.13380 0.53062 0.79111
 H342 H 0.19474 0.53320 0.76375
 H343 H 0.11851 0.48950 0.46009
 H344 H 0.13968 0.45233 0.55694
 C345 C 0.47924 0.57271 0.26497
 C346 C 0.47265 0.60018 0.32258
 C347 C 0.48623 0.63421 0.26535
 C348 C 0.47764 0.66047 0.31643
 H349 H 0.45667 0.59723 0.41135
 H350 H 0.50092 0.63633 0.17221
 H351 H 0.49547 0.57593 0.17668
 H352 H 0.46062 0.65700 0.40208
 C353 C 0.41596 0.92031 0.48784
 C354 C 0.39616 0.88681 0.52293
 C355 C 0.35529 0.86117 0.46849
 C356 C 0.34005 0.82314 0.43441
 H357 H 0.41018 0.87551 0.57626
 H358 H 0.33910 0.87273 0.43411
 H359 H 0.40003 0.93099 0.44347
 H360 H 0.35754 0.81197 0.45685
 C361 C 0.50810 0.88770 -0.10743
 C362 C 0.49421 0.85116 -0.18355
 C363 C 0.50905 0.82877 -0.13924
 C364 C 0.48973 0.79061 -0.19814
 H365 H 0.46865 0.83624 -0.26821
 H366 H 0.53127 0.84210 -0.04095
 H367 H 0.53390 0.90299 -0.02397
 H368 H 0.46601 0.77748 -0.29029
 C369 C 0.37733 0.47780 -0.03137
 C370 C 0.36796 0.50345 0.02265
 C371 C 0.33219 0.49237 0.07503
 C372 C 0.32683 0.51972 0.14806
 H373 H 0.38839 0.53392 0.04007
 H374 H 0.31176 0.46226 0.06489
 H375 H 0.35729 0.44763 -0.04207
 H376 H 0.34848 0.54979 0.16371
 C377 C 0.07840 0.60006 -0.05268
 C378 C 0.10086 0.60534 -0.15414
 C379 C 0.13438 0.64262 -0.15448
 C380 C 0.14188 0.67718 -0.07882
 H381 H 0.10014 0.58054 -0.21948
 H382 H 0.15675 0.64060 -0.19908
 H383 H 0.07854 0.62417 0.01693
 H384 H 0.11961 0.68024 -0.03899
 C385 C 0.52126 0.11513 0.42345
 C386 C 0.54385 0.15286 0.49220
 C387 C 0.52879 0.17737 0.53708
 C388 C 0.55169 0.21316 0.62618
 H389 H 0.57368 0.16524 0.53143
 H390 H 0.49847 0.16456 0.51435
 H391 H 0.49128 0.10288 0.39012
 H392 H 0.58180 0.22501 0.65300
 C393 C 0.60614 0.51422 0.46155
 C394 C 0.62062 0.49590 0.38474
 C395 C 0.66165 0.51347 0.40553
 C396 C 0.67512 0.49074 0.37195
 H397 H 0.60206 0.46563 0.32553
 H398 H 0.67960 0.54206 0.48205
 H399 H 0.62412 0.54444 0.52196
 H400 H 0.65637 0.46153 0.30138
 C401 C 0.92269 0.42028 0.69136
 C402 C 0.89440 0.41008 0.76613
 C403 C 0.86863 0.36998 0.76843
 C404 C 0.83358 0.35911 0.78631
 H405 H 0.88859 0.43133 0.82197
 H406 H 0.87822 0.35022 0.75894
 H407 H 0.92805 0.39852 0.63721
 H408 H 0.82498 0.37965 0.79183
   
