data_POSCAR
  _audit_creation_date              2014-09-24
  _audit_creation_method            'ToBaCCo'
  _symmetry_space_group_name_H-M    'P1'
  _symmetry_Int_Tables_number       1
  _symmetry_cell_setting            triclinic
  loop_
  _symmetry_equiv_pos_as_xyz
 x,y,z
_cell_length_a 44.1529
_cell_length_b 44.1296
_cell_length_c 50.3280
_cell_angle_alpha 90.064500
_cell_angle_beta 89.967300
_cell_angle_gamma 120.034000
loop_
  _atom_site_label
  _atom_site_type_symbol
  _atom_site_fract_x
  _atom_site_fract_y
  _atom_site_fract_z
O1 O 0.03347 0.54174 1.27556
 O2 O -0.03447 0.50769 1.22359
 O3 O -0.03461 0.50782 1.27534
 O4 O 0.03361 0.54199 1.22381
 O5 O 0.03364 0.49194 1.22373
 O6 O -0.03463 0.45774 1.27533
 O7 O -0.03444 0.45767 1.22357
 O8 O 0.03345 0.49166 1.27548
 Cu9 Cu -0.00050 0.52984 1.24958
 Cu10 Cu -0.00049 0.46972 1.24952
 C11 C 0.04498 0.52245 1.28438
 C12 C -0.04602 0.47687 1.21468
 C13 C -0.04618 0.47701 1.28413
 C14 C 0.04520 0.52278 1.21498
 O15 O 0.45773 0.49250 1.27643
 O16 O 0.49187 0.45856 1.22447
 O17 O 0.49159 0.45827 1.27624
 O18 O 0.45754 0.49233 1.22466
 O19 O 0.50757 0.54246 1.22468
 O20 O 0.54165 0.50837 1.27634
 O21 O 0.54188 0.50869 1.22457
 O22 O 0.50775 0.54257 1.27646
 Cu23 Cu 0.46966 0.47039 1.25044
 Cu24 Cu 0.52973 0.53056 1.25052
 C25 C 0.47695 0.52333 1.28534
 C26 C 0.52269 0.47789 1.21567
 C27 C 0.52238 0.47751 1.28509
 C28 C 0.47676 0.52315 1.21586
 O29 O 0.50751 0.96579 1.27691
 O30 O 0.54174 1.03382 1.22499
 O31 O 0.54193 1.03394 1.27676
 O32 O 0.50771 0.96569 1.22513
 O33 O 0.45772 0.96579 1.22509
 O34 O 0.49199 1.03409 1.27679
 O35 O 0.49176 1.03393 1.22501
 O36 O 0.45757 0.96594 1.27687
 Cu37 Cu 0.52973 0.99979 1.25095
 Cu38 Cu 0.46975 0.99995 1.25094
 C39 C 0.47670 0.95428 1.28578
 C40 C 0.52253 1.04541 1.21614
 C41 C 0.52281 1.04564 1.28562
 C42 C 0.47693 0.95418 1.21629
 O43 O 0.96641 0.50805 0.72368
 O44 O 1.03471 0.54227 0.77532
 O45 O 1.03453 0.54238 0.72353
 O46 O 0.96660 0.50834 0.77546
 O47 O 0.96659 0.45828 0.77545
 O48 O 1.03458 0.49237 0.72344
 O49 O 1.03471 0.49220 0.77522
 O50 O 0.96646 0.45801 0.72366
 Cu51 Cu 1.00056 0.53028 0.74950
 Cu52 Cu 1.00059 0.47020 0.74944
 C53 C 0.95486 0.47721 0.71487
 C54 C 1.04628 0.52301 0.78408
 C55 C 1.04612 0.52320 0.71458
 C56 C 0.95507 0.47755 0.78433
 O57 O 0.49210 0.45788 0.72418
 O58 O 0.45813 0.49215 0.77586
 O59 O 0.45797 0.49182 0.72410
 O60 O 0.49188 0.45782 0.77594
 O61 O 0.54200 0.50786 0.77596
 O62 O 0.50806 0.54188 0.72405
 O63 O 0.50825 0.54219 0.77581
 O64 O 0.54219 0.50794 0.72420
 Cu65 Cu 0.46998 0.46989 0.75002
 Cu66 Cu 0.53016 0.53000 0.75000
 C67 C 0.52292 0.47712 0.71539
 C68 C 0.47745 0.52299 0.78464
 C69 C 0.47724 0.52260 0.71522
 C70 C 0.52268 0.47706 0.78480
 O71 O 0.54195 0.03361 0.72369
 O72 O 0.50798 -0.03459 0.77534
 O73 O 0.50812 -0.03452 0.72357
 O74 O 0.54216 0.03353 0.77546
 O75 O 0.49210 0.03348 0.77557
 O76 O 0.45806 -0.03461 0.72361
 O77 O 0.45792 -0.03463 0.77537
 O78 O 0.49186 0.03352 0.72381
 Cu79 Cu 0.53008 -0.00049 0.74950
 Cu80 Cu 0.46995 -0.00057 0.74959
 C81 C 0.52265 0.04512 0.71495
 C82 C 0.47718 -0.04616 0.78417
 C83 C 0.47731 -0.04614 0.71469
 C84 C 0.52292 0.04504 0.78437
 O85 O 0.38471 0.66873 0.96959
 O86 O 0.38625 0.72779 0.97798
 C87 C 0.36442 0.73240 0.96467
 O88 O 0.33190 0.71633 0.96948
 O89 O 0.27280 0.65880 0.97772
 C90 C 0.26820 0.63228 0.96445
 O91 O 0.28425 0.61585 0.96934
 O92 O 0.34171 0.61431 0.97786
 C93 C 0.36828 0.63621 0.96467
 O94 O 0.38605 0.65880 1.02240
 O95 O 0.38448 0.71631 1.03079
 C96 C 0.36803 0.73237 1.03563
 O97 O 0.34158 0.72774 1.02232
 O98 O 0.28405 0.66864 1.03056
 C99 C 0.26795 0.63611 1.03537
 O100 O 0.27263 0.61424 1.02213
 O101 O 0.33163 0.61579 1.03065
 C102 C 0.36412 0.63225 1.03560
 Cr103 Cr 0.38346 0.69195 1.00019
 Cr104 Cr 0.30854 0.69192 1.00002
 Cr105 Cr 0.30851 0.61696 1.00000
 O106 O 0.33350 0.66694 1.00007
 O107 O 0.61575 0.33163 0.96979
 O108 O 0.61424 0.27251 0.97794
 C109 C 0.63605 0.26765 0.96479
 O110 O 0.66854 0.28362 0.96973
 O111 O 0.72769 0.34127 0.97781
 C112 C 0.73255 0.36796 0.96470
 O113 O 0.71662 0.38451 0.96969
 O114 O 0.65902 0.38600 0.97788
 C115 C 0.63230 0.36412 0.96480
 O116 O 0.61433 0.34133 1.02269
 O117 O 0.61584 0.28372 1.03084
 C118 C 0.63237 0.26778 1.03579
 O119 O 0.65903 0.27261 1.02264
 O120 O 0.71666 0.33178 1.03072
 C121 C 0.73261 0.36429 1.03568
 O122 O 0.72775 0.38611 1.02259
 O123 O 0.66867 0.38463 1.03078
 C124 C 0.63618 0.36808 1.03577
 Cr125 Cr 0.61699 0.30827 1.00031
 Cr126 Cr 0.69201 0.30830 1.00023
 Cr127 Cr 0.69204 0.38336 1.00024
 O128 O 0.66701 0.33331 1.00026
 O129 O 0.66821 0.38406 0.53045
 O130 O 0.72727 0.38566 0.52201
 C131 C 0.73192 0.36378 0.53522
 O132 O 0.71581 0.33126 0.53032
 O133 O 0.65828 0.27218 0.52189
 C134 C 0.63174 0.26751 0.53512
 O135 O 0.61531 0.28357 0.53026
 O136 O 0.61383 0.34113 0.52199
 C137 C 0.63570 0.36762 0.53528
 O138 O 0.65836 0.38572 0.47765
 O139 O 0.71583 0.38415 0.46922
 C140 C 0.73186 0.36770 0.46430
 O141 O 0.72721 0.34116 0.47751
 O142 O 0.66816 0.28361 0.46908
 C143 C 0.63566 0.26754 0.46420
 O144 O 0.61379 0.27222 0.47743
 O145 O 0.61541 0.33133 0.46915
 C146 C 0.63184 0.36387 0.46437
 Cr147 Cr 0.69146 0.38299 0.49983
 Cr148 Cr 0.69141 0.30801 0.49970
 Cr149 Cr 0.61650 0.30802 0.49971
 O150 O 0.66646 0.33300 0.49975
 O151 O 0.33162 0.61560 0.53039
 O152 O 0.27249 0.61406 0.52237
 C153 C 0.26765 0.63590 0.53552
 O154 O 0.28362 0.66840 0.53058
 O155 O 0.34124 0.72755 0.52241
 C156 C 0.36798 0.73242 0.53545
 O157 O 0.38450 0.71648 0.53040
 O158 O 0.38593 0.65883 0.52216
 C159 C 0.36412 0.63215 0.53530
 O160 O 0.34108 0.61404 0.47748
 O161 O 0.28348 0.61555 0.46946
 C162 C 0.26755 0.63210 0.46454
 O163 O 0.27243 0.65881 0.47768
 O164 O 0.33153 0.71648 0.46951
 C165 C 0.36400 0.73243 0.46449
 O166 O 0.38586 0.72754 0.47751
 O167 O 0.38429 0.66838 0.46928
 C168 C 0.36774 0.63587 0.46433
 Cr169 Cr 0.30814 0.61677 0.49992
 Cr170 Cr 0.30818 0.69183 0.50004
 Cr171 Cr 0.38319 0.69183 0.49984
 O172 O 0.33317 0.66681 0.49994
 N173 N 0.47239 0.58119 0.33397
 C174 C 0.43967 0.56100 0.34381
 N175 N 0.41936 0.52822 0.33404
 N176 N 0.43142 0.51600 0.31501
 C177 C 0.46421 0.53614 0.30509
 N178 N 0.48445 0.56899 0.31494
 C179 C 0.42683 0.57406 0.36450
 C180 C 0.41617 0.58505 0.38196
 C181 C 0.40361 0.59810 0.40285
 N182 N 0.37503 0.57587 0.41721
 N183 N 0.36355 0.58792 0.43676
 C184 C 0.38027 0.62264 0.44263
 N185 N 0.40888 0.64484 0.42818
 N186 N 0.42035 0.63277 0.40863
 N187 N 0.41868 0.89195 0.33432
 C188 C 0.43876 0.87934 0.34418
 N189 N 0.47151 0.89171 0.33444
 N190 N 0.48382 0.91598 0.31543
 C191 C 0.46379 0.92874 0.30551
 N192 N 0.43097 0.91622 0.31532
 C193 C 0.42562 0.85342 0.36484
 C194 C 0.41462 0.83178 0.38227
 C195 C 0.40160 0.80615 0.40314
 N196 N 0.42385 0.79974 0.41739
 N197 N 0.41184 0.77618 0.43690
 C198 C 0.37717 0.75823 0.44283
 N199 N 0.35496 0.76470 0.42849
 N200 N 0.36698 0.78827 0.40898
 N201 N 0.10866 0.58060 0.33427
 C202 C 0.12106 0.56025 0.34399
 N203 N 0.10855 0.52755 0.33407
 N204 N 0.08436 0.51554 0.31500
 C205 C 0.07186 0.53584 0.30522
 N206 N 0.08446 0.56860 0.31520
 C207 C 0.14687 0.57304 0.36471
 C208 C 0.16844 0.58366 0.38219
 C209 C 0.19399 0.59620 0.40310
 N210 N 0.21185 0.57944 0.40886
 N211 N 0.23536 0.59091 0.42842
 C212 C 0.24178 0.61954 0.44287
 N213 N 0.22385 0.63628 0.43703
 N214 N 0.20035 0.62480 0.41747
 N215 N 0.52752 0.41875 0.33440
 C216 C 0.56023 0.43892 0.34427
 N217 N 0.58056 0.47174 0.33464
 N218 N 0.56854 0.48404 0.31570
 C219 C 0.53578 0.46392 0.30578
 N220 N 0.51550 0.43104 0.31546
 C221 C 0.57301 0.42579 0.36486
 C222 C 0.58361 0.41476 0.38225
 C223 C 0.59612 0.40169 0.40306
 N224 N 0.62455 0.42393 0.41756
 N225 N 0.63599 0.41185 0.43707
 C226 C 0.61936 0.37711 0.44275
 N227 N 0.59090 0.35489 0.42817
 N228 N 0.57947 0.36699 0.40865
 N229 N 0.58089 0.10820 0.33399
 C230 C 0.56081 0.12086 0.34382
 N231 N 0.52806 0.10846 0.33411
 N232 N 0.51573 0.08409 0.31515
 C233 C 0.53574 0.07128 0.30526
 N234 N 0.56858 0.08383 0.31503
 C235 C 0.57395 0.14679 0.36443
 C236 C 0.58497 0.16844 0.38186
 C237 C 0.59799 0.19402 0.40273
 N238 N 0.57574 0.20023 0.41717
 N239 N 0.58777 0.22375 0.43673
 C240 C 0.62247 0.24182 0.44251
 N241 N 0.64470 0.23556 0.42798
 N242 N 0.63265 0.21204 0.40842
 N243 N 0.89010 0.47185 0.33366
 C244 C 0.87759 0.43914 0.34351
 N245 N 0.89000 0.41879 0.33376
 N246 N 0.91423 0.43081 0.31474
 C247 C 0.92685 0.46358 0.30485
 N248 N 0.91433 0.48387 0.31463
 C249 C 0.85184 0.42639 0.36420
 C250 C 0.83035 0.41581 0.38171
 C251 C 0.80495 0.40335 0.40265
 N252 N 0.79884 0.37492 0.41709
 N253 N 0.77547 0.36352 0.43673
 C254 C 0.75746 0.38018 0.44258
 N255 N 0.76364 0.40864 0.42806
 N256 N 0.78701 0.42004 0.40842
 N257 N 0.52853 0.41977 1.16586
 C258 C 0.56131 0.44016 1.15617
 N259 N 0.58142 0.47289 1.16609
 N260 N 0.56913 0.48487 1.18511
 C261 C 0.53630 0.46453 1.19485
 N262 N 0.51623 0.43175 1.18489
 C263 C 0.57447 0.42739 1.13550
 C264 C 0.58549 0.41675 1.11805
 C265 C 0.59852 0.40415 1.09717
 N266 N 0.63316 0.42093 1.09137
 N267 N 0.64520 0.40940 1.07184
 C268 C 0.62300 0.38070 1.05744
 N269 N 0.58832 0.36395 1.06334
 N270 N 0.57629 0.37548 1.08287
 N271 N 0.89159 0.47189 1.16596
 C272 C 0.87918 0.43913 1.15618
 N273 N 0.89171 0.41897 1.16603
 N274 N 0.91593 0.43119 1.18508
 C275 C 0.92848 0.46403 1.19493
 N276 N 0.91581 0.48413 1.18501
 C277 C 0.85334 0.42605 1.13549
 C278 C 0.83175 0.41507 1.11802
 C279 C 0.80619 0.40203 1.09712
 N280 N 0.78830 0.36737 1.09131
 N281 N 0.76478 0.35531 1.07176
 C282 C 0.75838 0.37752 1.05735
 N283 N 0.77633 0.41222 1.06325
 N284 N 0.79984 0.42427 1.08280
 N285 N 0.58075 0.10901 1.16627
 C286 C 0.56048 0.12147 1.15651
 N287 N 0.52780 0.10904 1.16641
 N288 N 0.51575 0.08487 1.18549
 C289 C 0.53598 0.07230 1.19530
 N290 N 0.56871 0.08483 1.18535
 C291 C 0.57331 0.14727 1.13577
 C292 C 0.58395 0.16882 1.11826
 C293 C 0.59650 0.19434 1.09733
 N294 N 0.57977 0.21223 1.09152
 N295 N 0.59124 0.23570 1.07195
 C296 C 0.61982 0.24206 1.05749
 N297 N 0.63653 0.22411 1.06338
 N298 N 0.62506 0.20064 1.08296
 N299 N 0.47109 0.58128 1.16619
 C300 C 0.43835 0.56087 1.15644
 N301 N 0.41819 0.52815 1.16630
 N302 N 0.43041 0.51618 1.18533
 C303 C 0.46321 0.53652 1.19512
 N304 N 0.48332 0.56930 1.18522
 C305 C 0.42532 0.57358 1.13573
 C306 C 0.41440 0.58413 1.11823
 C307 C 0.40148 0.59659 1.09727
 N308 N 0.36685 0.57989 1.09149
 N309 N 0.35490 0.59129 1.07185
 C310 C 0.37720 0.61976 1.05733
 N311 N 0.41188 0.63643 1.06319
 N312 N 0.42382 0.62503 1.08283
 N313 N 0.10916 0.52857 1.16540
 C314 C 0.12160 0.56136 1.15573
 N315 N 0.10904 0.58151 1.16560
 N316 N 0.08474 0.56922 1.18457
 C317 C 0.07220 0.53638 1.19429
 N318 N 0.08486 0.51628 1.18437
 C319 C 0.14745 0.57445 1.13510
 C320 C 0.16902 0.58544 1.11766
 C321 C 0.19453 0.59845 1.09679
 N322 N 0.21255 0.63313 1.09115
 N323 N 0.23603 0.64517 1.07158
 C324 C 0.24224 0.62292 1.05702
 N325 N 0.22415 0.58820 1.06275
 N326 N 0.20068 0.57616 1.08231
 N327 N 0.41878 0.89049 1.16646
 C328 C 0.43908 0.87803 1.15672
 N329 N 0.47174 0.89047 1.16665
 N330 N 0.48375 0.91466 1.18573
 C331 C 0.46350 0.92723 1.19551
 N332 N 0.43079 0.91469 1.18555
 C333 C 0.42635 0.85231 1.13596
 C334 C 0.41581 0.83084 1.11841
 C335 C 0.40343 0.80545 1.09740
 N336 N 0.42009 0.78746 1.09171
 N337 N 0.40877 0.76410 1.07203
 C338 C 0.38043 0.75798 1.05739
 N339 N 0.36378 0.77603 1.06317
 N340 N 0.37511 0.79939 1.08285
 N341 N 0.52847 0.41882 0.66573
 C342 C 0.56124 0.43914 0.65601
 N343 N 0.58145 0.47186 0.66588
 N344 N 0.56926 0.48393 0.68489
 C345 C 0.53644 0.46366 0.69466
 N346 N 0.51626 0.43088 0.68475
 C347 C 0.57424 0.42634 0.63533
 C348 C 0.58517 0.41574 0.61784
 C349 C 0.59814 0.40325 0.59691
 N350 N 0.63280 0.41991 0.59124
 N351 N 0.64481 0.40851 0.57161
 C352 C 0.62254 0.38008 0.55701
 N353 N 0.58784 0.36345 0.56277
 N354 N 0.57584 0.37485 0.58240
 N355 N 0.52764 0.10884 0.66553
 C356 C 0.56032 0.12141 0.65563
 N357 N 0.58071 0.10903 0.66529
 N358 N 0.56874 0.08477 0.68429
 C359 C 0.53599 0.07209 0.69424
 N360 N 0.51567 0.08458 0.68453
 C361 C 0.57303 0.14722 0.63497
 C362 C 0.58358 0.16876 0.61751
 C363 C 0.59605 0.19422 0.59661
 N364 N 0.62448 0.20038 0.58215
 N365 N 0.63590 0.22381 0.56256
 C366 C 0.61924 0.24184 0.55678
 N367 N 0.59078 0.23562 0.57133
 N368 N 0.57937 0.21218 0.59092
 N369 N 0.89084 0.47136 0.66533
 C370 C 0.87841 0.43856 0.65561
 N371 N 0.89099 0.41844 0.66543
 N372 N 0.91530 0.43074 0.68440
 C373 C 0.92784 0.46358 0.69417
 N374 N 0.91515 0.48367 0.68430
 C375 C 0.85252 0.42544 0.63497
 C376 C 0.83092 0.41444 0.61754
 C377 C 0.80537 0.40142 0.59667
 N378 N 0.78734 0.36674 0.59095
 N379 N 0.76385 0.35470 0.57139
 C380 C 0.75763 0.37696 0.55689
 N381 N 0.77572 0.41168 0.56269
 N382 N 0.79921 0.42371 0.58225
 N383 N 0.41871 0.52769 0.66559
 C384 C 0.43891 0.56038 0.65569
 N385 N 0.47169 0.58073 0.66542
 N386 N 0.48389 0.56873 0.68447
 C387 C 0.46373 0.53598 0.69441
 N388 N 0.43091 0.51569 0.68463
 C389 C 0.42586 0.57316 0.63501
 C390 C 0.41489 0.58378 0.61755
 C391 C 0.40186 0.59631 0.59667
 N392 N 0.42409 0.62488 0.58231
 N393 N 0.41204 0.63635 0.56278
 C394 C 0.37735 0.61961 0.55695
 N395 N 0.35515 0.59101 0.57140
 N396 N 0.36721 0.57955 0.59092
 N397 N 0.41978 0.89136 0.66596
 C398 C 0.44012 0.87898 0.65615
 N399 N 0.47283 0.89155 0.66599
 N400 N 0.48487 0.91579 0.68505
 C401 C 0.46460 0.92832 0.69493
 N402 N 0.43181 0.91560 0.68502
 C403 C 0.42731 0.85313 0.63542
 C404 C 0.41665 0.83153 0.61793
 C405 C 0.40405 0.80598 0.59699
 N406 N 0.42080 0.78811 0.59110
 N407 N 0.40926 0.76460 0.57151
 C408 C 0.38060 0.75818 0.55716
 N409 N 0.36388 0.77611 0.56314
 N410 N 0.37542 0.79961 0.58272
 N411 N 0.10857 0.52825 0.66579
 C412 C 0.12097 0.56101 0.65607
 N413 N 0.10842 0.58115 0.66598
 N414 N 0.08419 0.56890 0.68502
 C415 C 0.07165 0.53607 0.69482
 N416 N 0.08434 0.51598 0.68484
 C417 C 0.14685 0.57412 0.63537
 C418 C 0.16847 0.58513 0.61790
 C419 C 0.19406 0.59817 0.59699
 N420 N 0.21196 0.63284 0.59123
 N421 N 0.23549 0.64489 0.57168
 C422 C 0.24189 0.62268 0.55722
 N423 N 0.22392 0.58798 0.56307
 N424 N 0.20040 0.57594 0.58262
 N425 N 0.47249 0.58176 0.83414
 C426 C 0.43979 0.56163 0.84402
 N427 N 0.41939 0.52884 0.83431
 N428 N 0.43135 0.51653 0.81529
 C429 C 0.46411 0.53662 0.80537
 N430 N 0.48445 0.56947 0.81513
 C431 C 0.42709 0.57473 0.86470
 C432 C 0.41652 0.58570 0.88219
 C433 C 0.40404 0.59868 0.90311
 N434 N 0.37559 0.57636 0.91754
 N435 N 0.36415 0.58836 0.93715
 C436 C 0.38081 0.62307 0.94299
 N437 N 0.40929 0.64535 0.92847
 N438 N 0.42072 0.63334 0.90886
 N439 N 0.11000 0.52816 0.83359
 C440 C 0.12251 0.56086 0.84351
 N441 N 0.11009 0.58121 0.83382
 N442 N 0.08586 0.56920 0.81478
 C443 C 0.07325 0.53643 0.80482
 N444 N 0.08577 0.51614 0.81455
 C445 C 0.14826 0.57360 0.86423
 C446 C 0.16976 0.58418 0.88175
 C447 C 0.19516 0.59665 0.90272
 N448 N 0.20124 0.62505 0.91723
 N449 N 0.22459 0.63645 0.93688
 C450 C 0.24262 0.61981 0.94269
 N451 N 0.23648 0.59138 0.92809
 N452 N 0.21313 0.57998 0.90844
 N453 N 0.47169 0.89023 0.83392
 C454 C 0.43896 0.87783 0.84369
 N455 N 0.41874 0.89027 0.83382
 N456 N 0.43090 0.91443 0.81474
 C457 C 0.46368 0.92694 0.80493
 N458 N 0.48386 0.91439 0.81484
 C459 C 0.42600 0.85216 0.86445
 C460 C 0.41508 0.83073 0.88199
 C461 C 0.40209 0.80540 0.90298
 N462 N 0.36743 0.78741 0.90865
 N463 N 0.35539 0.76408 0.92831
 C464 C 0.37763 0.75800 0.94295
 N465 N 0.41234 0.77605 0.93719
 N466 N 0.42437 0.79938 0.91753
 N467 N 0.52769 0.41849 0.83444
 C468 C 0.56040 0.43865 0.84432
 N469 N 0.58078 0.47141 0.83457
 N470 N 0.56880 0.48364 0.81553
 C471 C 0.53603 0.46351 0.80561
 N472 N 0.51570 0.43071 0.81541
 C473 C 0.57316 0.42558 0.86500
 C474 C 0.58378 0.41463 0.88247
 C475 C 0.59634 0.40165 0.90336
 N476 N 0.62497 0.42393 0.91767
 N477 N 0.63647 0.41195 0.93722
 C478 C 0.61972 0.37727 0.94313
 N479 N 0.59107 0.35501 0.92873
 N480 N 0.57957 0.36701 0.90919
 N481 N 0.89139 0.41941 0.83420
 C482 C 0.87899 0.43976 0.84399
 N483 N 0.89149 0.47245 0.83410
 N484 N 0.91568 0.48445 0.81502
 C485 C 0.92818 0.46416 0.80519
 N486 N 0.91558 0.43141 0.81512
 C487 C 0.85316 0.42697 0.86473
 C488 C 0.83159 0.41636 0.88223
 C489 C 0.80605 0.40382 0.90317
 N490 N 0.78819 0.42059 0.90900
 N491 N 0.76470 0.40913 0.92857
 C492 C 0.75829 0.38051 0.94299
 N493 N 0.77621 0.36376 0.93708
 N494 N 0.79970 0.37523 0.91750
 N495 N 0.52854 0.10874 0.83431
 C496 C 0.56131 0.12118 0.84404
 N497 N 0.58149 0.10871 0.83408
 N498 N 0.56928 0.08451 0.81500
 C499 C 0.53647 0.07196 0.80522
 N500 N 0.51632 0.08454 0.81522
 C501 C 0.57436 0.14700 0.86479
 C502 C 0.58533 0.16857 0.88230
 C503 C 0.59835 0.19411 0.90325
 N504 N 0.63299 0.21200 0.90904
 N505 N 0.64503 0.23550 0.92863
 C506 C 0.62283 0.24189 0.94309
 N507 N 0.58815 0.22393 0.93722
 N508 N 0.57612 0.20043 0.91763
   
