data_POSCAR
  _audit_creation_date              2014-09-24
  _audit_creation_method            'ToBaCCo'
  _symmetry_space_group_name_H-M    'P1'
  _symmetry_Int_Tables_number       1
  _symmetry_cell_setting            triclinic
  loop_
  _symmetry_equiv_pos_as_xyz
 x,y,z
_cell_length_a 42.2011
_cell_length_b 42.8391
_cell_length_c 42.7856
_cell_angle_alpha 90.003700
_cell_angle_beta 90.017500
_cell_angle_gamma 90.050400
loop_
  _atom_site_label
  _atom_site_type_symbol
  _atom_site_fract_x
  _atom_site_fract_y
  _atom_site_fract_z
C1 C 0.19561 0.52060 1.03242
 H2 H 0.19172 0.53424 1.01149
 C3 C 0.17315 0.52097 1.05632
 H4 H 0.15272 0.53593 1.05353
 C5 C 0.22769 0.48539 1.06091
 H6 H 0.24861 0.47094 1.06225
 C7 C 0.20620 0.48558 1.08577
 H8 H 0.21107 0.47061 1.10555
 N9 N 0.22197 0.50263 1.03487
 C10 C 0.30062 0.53487 0.97822
 H11 H 0.30419 0.51461 0.96354
 C12 C 0.32270 0.55912 0.97795
 H13 H 0.34314 0.55760 0.96273
 C14 C 0.27002 0.56105 1.01657
 H15 H 0.24977 0.56136 1.03202
 C16 C 0.29131 0.58607 1.01672
 H17 H 0.28733 0.60553 1.03238
 Zn18 Zn 0.24876 0.50044 0.99952
 N19 N 0.27512 0.53608 0.99759
 C20 C 0.22709 0.51752 0.93890
 N21 N 0.22257 0.49816 0.96371
 C22 C 0.19761 0.47809 0.96475
 C23 C 0.17552 0.47745 0.94052
 C24 C 0.20577 0.51732 0.91390
 C25 C 0.30045 0.46637 1.02176
 C26 C 0.32260 0.44222 1.02254
 C27 C 0.29213 0.41506 0.98318
 C28 C 0.27075 0.43995 0.98284
 N29 N 0.27531 0.46497 1.00192
 H30 H 0.24685 0.53358 0.93873
 H31 H 0.19445 0.46314 0.98490
 H32 H 0.15549 0.46168 0.94192
 H33 H 0.20926 0.53328 0.89457
 H34 H 0.30368 0.48668 1.03645
 H35 H 0.34272 0.44388 1.03818
 H36 H 0.28855 0.39556 0.96745
 H37 H 0.25089 0.43948 0.96693
 C38 C 0.31831 0.58498 0.99760
 C39 C 0.17789 0.50301 1.08359
 C40 C 0.31869 0.41628 1.00288
 C41 C 0.17932 0.49746 0.91483
 C42 C 0.79923 0.52258 -0.03612
 H43 H 0.80182 0.53899 -0.01707
 C44 C 0.82075 0.52293 -0.06088
 H45 H 0.84001 0.53964 -0.06056
 C46 C 0.77184 0.47980 -0.05862
 H47 H 0.75299 0.46278 -0.05744
 C48 C 0.79277 0.47940 -0.08390
 H49 H 0.78938 0.46232 -0.10225
 N50 N 0.77539 0.50123 -0.03542
 C51 C 0.69738 0.53531 0.02123
 H52 H 0.69462 0.51568 0.03690
 C53 C 0.67505 0.55930 0.02131
 H54 H 0.65524 0.55822 0.03735
 C55 C 0.72617 0.56016 -0.01935
 H56 H 0.74572 0.56005 -0.03563
 C57 C 0.70464 0.58493 -0.01969
 H58 H 0.70780 0.60381 -0.03624
 Zn59 Zn 0.74885 0.50054 0.00018
 N60 N 0.72216 0.53600 0.00092
 C61 C 0.77161 0.52137 0.05909
 N62 N 0.77520 0.49992 0.03592
 C63 C 0.79896 0.47853 0.03677
 C64 C 0.82032 0.47813 0.06167
 C65 C 0.79240 0.52174 0.08450
 C66 C 0.69772 0.46546 -0.02135
 C67 C 0.67549 0.44135 -0.02163
 C68 C 0.70461 0.41606 0.01988
 C69 C 0.72607 0.44093 0.01970
 N70 N 0.72224 0.46498 -0.00073
 H71 H 0.75282 0.53842 0.05778
 H72 H 0.80159 0.46210 0.01775
 H73 H 0.83950 0.46136 0.06148
 H74 H 0.78901 0.53884 0.10282
 H75 H 0.69509 0.48502 -0.03713
 H76 H 0.65588 0.44227 -0.03794
 H77 H 0.70762 0.39730 0.03658
 H78 H 0.74540 0.44121 0.03624
 C79 C 0.67847 0.58439 0.00053
 C80 C 0.81779 0.50103 -0.08517
 C81 C 0.67871 0.41637 -0.00069
 C82 C 0.81730 0.50003 0.08594
 C83 C -0.02443 0.29787 0.46137
 H84 H -0.04207 0.29877 0.47971
 C85 C -0.02597 0.31885 0.43648
 H86 H -0.04475 0.33600 0.43678
 C87 C 0.02252 0.27561 0.44109
 H88 H 0.04149 0.25882 0.44311
 C89 C 0.02218 0.29641 0.41594
 H90 H 0.04060 0.29415 0.39852
 N91 N -0.00061 0.27669 0.46313
 C92 C -0.03399 0.20047 0.52178
 H93 H -0.01433 0.19906 0.53796
 C94 C -0.05792 0.17800 0.52265
 H95 H -0.05678 0.15944 0.53979
 C96 C -0.05885 0.22589 0.47911
 H97 H -0.05871 0.24404 0.46162
 C98 C -0.08356 0.20416 0.47948
 H99 H -0.10235 0.20587 0.46232
 Zn100 Zn 0.00088 0.25058 0.49874
 N101 N -0.03473 0.22369 0.50012
 C102 C -0.02060 0.27432 0.55705
 N103 N 0.00175 0.27679 0.53428
 C104 C 0.02439 0.29936 0.53533
 C105 C 0.02530 0.32052 0.56011
 C106 C -0.02061 0.29505 0.58226
 C107 C 0.03710 0.20140 0.47595
 C108 C 0.06132 0.17926 0.47560
 C109 C 0.08592 0.20602 0.51903
 C110 C 0.06095 0.22743 0.51885
 N111 N 0.03715 0.22469 0.49754
 H112 H -0.03870 0.25654 0.55553
 H113 H 0.04151 0.30114 0.51660
 H114 H 0.04315 0.33869 0.56018
 H115 H -0.03850 0.29267 0.60023
 H116 H 0.01770 0.19959 0.45952
 H117 H 0.06067 0.16056 0.45858
 H118 H 0.10437 0.20806 0.53651
 H119 H 0.06026 0.24570 0.53622
 C120 C -0.08299 0.17962 0.50119
 C121 C -0.00228 0.31875 0.41315
 C122 C 0.08596 0.18128 0.49753
 C123 C 0.00249 0.31863 0.58394
 C124 C 0.97614 0.69998 0.53487
 H125 H 0.95950 0.69901 0.51565
 C126 C 0.97438 0.67798 0.55883
 H127 H 0.95590 0.66045 0.55815
 C128 C 1.02070 0.72387 0.55867
 H129 H 1.03913 0.74138 0.55811
 C130 C 1.01984 0.70226 0.58314
 H131 H 1.03775 0.70336 0.60123
 N132 N 0.99905 0.72229 0.53516
 C133 C 0.96663 0.79820 0.47578
 H134 H 0.98667 0.79997 0.46011
 C135 C 0.94250 0.82041 0.47451
 H136 H 0.94387 0.83913 0.45755
 C137 C 0.94104 0.77221 0.51769
 H138 H 0.94098 0.75393 0.53505
 C139 C 0.91614 0.79368 0.51692
 H140 H 0.89703 0.79167 0.53368
 Zn141 Zn 1.00158 0.74864 0.49985
 N142 N 0.96565 0.77488 0.49731
 C143 C 0.98251 0.72405 0.44097
 N144 N 1.00414 0.72237 0.46448
 C145 C 1.02700 0.70005 0.46472
 C146 C 1.02867 0.67808 0.44073
 C147 C 0.98331 0.70250 0.41645
 C148 C 1.03657 0.79816 0.52410
 C149 C 1.06060 0.82053 0.52530
 C150 C 1.08668 0.79426 0.48246
 C151 C 1.06190 0.77261 0.48180
 N152 N 1.03747 0.77499 0.50240
 H153 H 0.96412 0.74158 0.44157
 H154 H 1.04362 0.69902 0.48394
 H155 H 1.04707 0.66049 0.44138
 H156 H 0.96541 0.70365 0.39836
 H157 H 1.01666 0.79971 0.53995
 H158 H 1.05929 0.83911 0.54241
 H159 H 1.10563 0.79249 0.46549
 H160 H 1.06188 0.75444 0.46431
 C161 C 0.91700 0.81842 0.49545
 C162 C 0.99666 0.67869 0.58322
 C163 C 1.08589 0.81887 0.50409
 C164 C 1.00640 0.67888 0.41634
 C165 C 0.46448 -0.02343 0.29898
 H166 H 0.48428 -0.03939 0.30055
 C167 C 0.44050 -0.02440 0.32140
 H168 H 0.44173 -0.04143 0.34007
 C169 C 0.43937 0.01887 0.27327
 H170 H 0.43944 0.03626 0.25501
 C171 C 0.41464 0.01844 0.29497
 H172 H 0.39579 0.03548 0.29316
 N173 N 0.46366 -0.00186 0.27568
 C174 C 0.52247 -0.03359 0.19865
 H175 H 0.53847 -0.01391 0.19697
 C176 C 0.52383 -0.05739 0.17649
 H177 H 0.54194 -0.05584 0.15868
 C178 C 0.48051 -0.05902 0.22504
 H179 H 0.46317 -0.05916 0.24361
 C180 C 0.48125 -0.08363 0.20358
 H181 H 0.46376 -0.10191 0.20605
 Zn182 Zn 0.49935 0.00028 0.24904
 N183 N 0.50096 -0.03469 0.22219
 C184 C 0.55905 -0.02017 0.27204
 N185 N 0.53564 0.00144 0.27497
 C186 C 0.53634 0.02321 0.29807
 C187 C 0.56124 0.02376 0.31953
 C188 C 0.58447 -0.02042 0.29296
 C189 C 0.47456 0.03707 0.20105
 C190 C 0.47320 0.06184 0.17990
 C191 C 0.51913 0.08440 0.20498
 C192 C 0.51959 0.05919 0.22567
 N193 N 0.49747 0.03619 0.22337
 H194 H 0.55782 -0.03758 0.25382
 H195 H 0.51711 0.03975 0.30019
 H196 H 0.56086 0.04077 0.33824
 H197 H 0.60291 -0.03774 0.29019
 H198 H 0.45766 0.01814 0.19934
 H199 H 0.45521 0.06169 0.16186
 H200 H 0.53689 0.10252 0.20720
 H201 H 0.53797 0.05779 0.24319
 C202 C 0.50283 -0.08303 0.17832
 C203 C 0.41533 -0.00310 0.31967
 C204 C 0.49583 0.08584 0.18155
 C205 C 0.58565 0.00159 0.31730
 C206 C 0.53964 -0.02344 0.70382
 H207 H 0.52064 -0.04036 0.70248
 C208 C 0.56439 -0.02443 0.68221
 H209 H 0.56411 -0.04217 0.66419
 C210 C 0.56179 0.02138 0.72786
 H211 H 0.56036 0.03959 0.74525
 C212 C 0.58708 0.02118 0.70680
 H213 H 0.60524 0.03894 0.70873
 N214 N 0.53870 -0.00072 0.72597
 C215 C 0.47709 -0.03406 0.80055
 H216 H 0.46008 -0.01519 0.80118
 C217 C 0.47530 -0.05808 0.82248
 H218 H 0.45646 -0.05778 0.83965
 C219 C 0.52249 -0.05701 0.77747
 H220 H 0.54122 -0.05614 0.76030
 C221 C 0.52157 -0.08155 0.79898
 H222 H 0.53973 -0.09936 0.79815
 Zn223 Zn 0.50231 0.00103 0.75173
 N224 N 0.50038 -0.03395 0.77861
 C225 C 0.44256 -0.01880 0.72762
 N226 N 0.46673 0.00206 0.72485
 C227 C 0.46740 0.02327 0.70121
 C228 C 0.44329 0.02383 0.67891
 C229 C 0.41770 -0.01876 0.70603
 C230 C 0.52590 0.03807 0.80005
 C231 C 0.52672 0.06285 0.82119
 C232 C 0.48096 0.08493 0.79546
 C233 C 0.48103 0.05969 0.77475
 N234 N 0.50332 0.03693 0.77741
 H235 H 0.44275 -0.03590 0.74615
 H236 H 0.48709 0.03935 0.69939
 H237 H 0.44433 0.04067 0.66005
 H238 H 0.39887 -0.03582 0.70820
 H239 H 0.54297 0.01933 0.80197
 H240 H 0.54446 0.06291 0.83947
 H241 H 0.46307 0.10286 0.79297
 H242 H 0.46298 0.05810 0.75692
 C243 C 0.49788 -0.08214 0.82205
 C244 C 0.58844 -0.00174 0.68333
 C245 C 0.50391 0.08662 0.81920
 C246 C 0.41814 0.00250 0.68109
 C247 C 0.30238 0.02166 0.46670
 H248 H 0.30572 0.03675 0.48671
 C249 C 0.32443 0.02189 0.44242
 H250 H 0.34459 0.03750 0.44366
 C251 C 0.27246 -0.01770 0.44120
 H252 H 0.25255 -0.03355 0.44117
 C253 C 0.29373 -0.01791 0.41617
 H254 H 0.29002 -0.03398 0.39697
 N255 N 0.27720 0.00185 0.46583
 C256 C 0.19964 0.03508 0.52344
 H257 H 0.19644 0.01507 0.53855
 C258 C 0.17756 0.05929 0.52382
 H259 H 0.15749 0.05800 0.53954
 C260 C 0.22923 0.06062 0.48387
 H261 H 0.24901 0.06070 0.46787
 C262 C 0.20794 0.08559 0.48382
 H263 H 0.21149 0.10478 0.46771
 Zn264 Zn 0.25094 0.00031 0.50159
 N265 N 0.22465 0.03599 0.50344
 C266 C 0.27360 0.01805 0.56168
 N267 N 0.27773 -0.00150 0.53695
 C268 C 0.30266 -0.02155 0.53568
 C269 C 0.32508 -0.02204 0.55964
 C270 C 0.29526 0.01800 0.58640
 C271 C 0.19909 -0.03412 0.48029
 C272 C 0.17694 -0.05831 0.47997
 C273 C 0.20750 -0.08476 0.51971
 C274 C 0.22887 -0.05982 0.51960
 N275 N 0.22427 -0.03515 0.50010
 H276 H 0.25387 0.03408 0.56202
 H277 H 0.30551 -0.03664 0.51560
 H278 H 0.34503 -0.03785 0.55809
 H279 H 0.29204 0.03408 0.60567
 H280 H 0.19587 -0.01409 0.46523
 H281 H 0.15681 -0.05697 0.46432
 H282 H 0.21113 -0.10401 0.53572
 H283 H 0.24879 -0.06000 0.53545
 C284 C 0.18145 0.08481 0.50363
 C285 C 0.32035 0.00173 0.41689
 C286 C 0.18091 -0.08392 0.50002
 C287 C 0.32163 -0.00190 0.58527
 C288 C 0.70117 0.02106 0.53560
 H289 H 0.69837 0.03726 0.51640
 C290 C 0.67993 0.02169 0.56059
 H291 H 0.66069 0.03837 0.56027
 C292 C 0.72880 -0.02140 0.55830
 H293 H 0.74765 -0.03839 0.55712
 C294 C 0.70817 -0.02151 0.58383
 H295 H 0.71177 -0.03835 0.60235
 N296 N 0.72500 -0.00025 0.53489
 C297 C 0.80249 0.03367 0.47740
 H298 H 0.80512 0.01397 0.46179
 C299 C 0.82476 0.05774 0.47696
 H300 H 0.84441 0.05666 0.46073
 C301 C 0.77407 0.05861 0.51813
 H302 H 0.75469 0.05852 0.53460
 C303 C 0.79555 0.08347 0.51814
 H304 H 0.79252 0.10240 0.53464
 Zn305 Zn 0.75122 -0.00112 0.49907
 N306 N 0.77792 0.03437 0.49794
 C307 C 0.72794 0.01963 0.44040
 N308 N 0.72456 -0.00187 0.46356
 C309 C 0.70081 -0.02331 0.46286
 C310 C 0.67920 -0.02370 0.43816
 C311 C 0.70691 0.02002 0.41519
 C312 C 0.80251 -0.03607 0.52028
 C313 C 0.82477 -0.06012 0.52041
 C314 C 0.79533 -0.08554 0.47917
 C315 C 0.77385 -0.06073 0.47949
 N316 N 0.77782 -0.03664 0.49987
 H317 H 0.74673 0.03673 0.44158
 H318 H 0.69834 -0.03978 0.48188
 H319 H 0.66003 -0.04049 0.43847
 H320 H 0.71012 0.03719 0.39689
 H321 H 0.80526 -0.01648 0.53602
 H322 H 0.84451 -0.05913 0.53657
 H323 H 0.79220 -0.10433 0.46251
 H324 H 0.75438 -0.06052 0.46311
 C325 C 0.82150 0.08293 0.49766
 C326 C 0.68319 0.00012 0.58513
 C327 C 0.82140 -0.08514 0.49952
 C328 C 0.68198 -0.00171 0.41393
 C329 C 0.47434 0.20093 1.03699
 H330 H 0.45746 0.19921 1.01803
 C331 C 0.47313 0.17970 1.06169
 H332 H 0.45527 0.16154 1.06149
 C333 C 0.51911 0.22585 1.05931
 H334 H 0.53726 0.24361 1.05805
 C335 C 0.51880 0.20506 1.08445
 H336 H 0.53650 0.20737 1.10264
 N337 N 0.49705 0.22345 1.03625
 C338 C 0.46325 0.29935 0.97767
 H339 H 0.48295 0.30113 0.96158
 C340 C 0.43918 0.32163 0.97701
 H341 H 0.44023 0.34039 0.96008
 C342 C 0.43850 0.27322 1.01998
 H343 H 0.43875 0.25483 1.03723
 C344 C 0.41368 0.29479 1.01987
 H345 H 0.39493 0.29276 1.03703
 Zn346 Zn 0.49863 0.24963 1.00073
 N347 N 0.46266 0.27591 0.99909
 C348 C 0.47840 0.22592 0.94195
 N349 N 0.50034 0.22356 0.96511
 C350 C 0.52314 0.20117 0.96442
 C351 C 0.52464 0.18009 0.93961
 C352 C 0.47899 0.20526 0.91668
 C353 C 0.53365 0.29962 1.02382
 C354 C 0.55774 0.32192 1.02469
 C355 C 0.58383 0.29485 0.98236
 C356 C 0.55897 0.27329 0.98198
 N357 N 0.53452 0.27607 1.00252
 H358 H 0.46016 0.24356 0.94318
 H359 H 0.53992 0.19946 0.98347
 H360 H 0.54259 0.16205 0.93983
 H361 H 0.46141 0.20755 0.89839
 H362 H 0.51375 0.30146 1.03964
 H363 H 0.55647 0.34079 1.04149
 H364 H 0.60285 0.29273 0.96551
 H365 H 0.55895 0.25480 0.96484
 C366 C 0.41415 0.31964 0.99850
 C367 C 0.49569 0.18147 1.08577
 C368 C 0.58309 0.31980 1.00360
 C369 C 0.50226 0.18186 0.91536
 C370 C 0.47423 0.79995 -0.03517
 H371 H 0.45713 0.80086 -0.01636
 C372 C 0.47309 0.82201 -0.05911
 H373 H 0.45462 0.83953 -0.05883
 C374 C 0.51934 0.77614 -0.05794
 H375 H 0.53774 0.75864 -0.05696
 C376 C 0.51909 0.79780 -0.08237
 H377 H 0.53743 0.79676 -0.10003
 N378 N 0.49713 0.77766 -0.03496
 C379 C 0.46259 0.70241 0.02421
 H380 H 0.48203 0.70092 0.04063
 C381 C 0.43835 0.68025 0.02502
 H382 H 0.43903 0.66187 0.04238
 C383 C 0.43867 0.72762 -0.01910
 H384 H 0.43935 0.74555 -0.03682
 C385 C 0.41370 0.70617 -0.01886
 H386 H 0.39525 0.70785 -0.03638
 Zn387 Zn 0.49873 0.75127 0.00037
 N388 N 0.46251 0.72530 0.00220
 C389 C 0.47778 0.77726 0.05799
 N390 N 0.50082 0.77758 0.03577
 C391 C 0.52487 0.79867 0.03676
 C392 C 0.52656 0.82049 0.06088
 C393 C 0.47835 0.79894 0.08240
 C394 C 0.53376 0.70168 -0.02358
 C395 C 0.55778 0.67934 -0.02477
 C396 C 0.58332 0.70501 0.01878
 C397 C 0.55853 0.72660 0.01947
 N398 N 0.53442 0.72458 -0.00158
 H399 H 0.45844 0.76079 0.05633
 H400 H 0.54258 0.79874 0.01848
 H401 H 0.54616 0.83680 0.06131
 H402 H 0.45925 0.79892 0.09927
 H403 H 0.51410 0.70039 -0.03976
 H404 H 0.55671 0.66100 -0.04216
 H405 H 0.60207 0.70655 0.03600
 H406 H 0.55829 0.74444 0.03727
 C407 C 0.41368 0.68182 0.00308
 C408 C 0.49595 0.82137 -0.08295
 C409 C 0.58284 0.68078 -0.00327
 C410 C 0.50285 0.82117 0.08394
 C411 C 1.03285 0.47860 0.19854
 H412 H 1.01208 0.46407 0.19565
 C413 C 1.05666 0.47828 0.17591
 H414 H 1.05429 0.46328 0.15567
 C415 C 1.06076 0.51669 0.22789
 H416 H 1.06193 0.53222 0.24772
 C417 C 1.08545 0.51662 0.20613
 H418 H 1.10553 0.53204 0.20944
 N419 N 1.03512 0.49785 0.22372
 C420 C 0.97725 0.46379 0.30051
 H421 H 0.96177 0.48366 0.30362
 C422 C 0.97616 0.43903 0.32163
 H423 H 0.95988 0.44026 0.34114
 C424 C 1.01844 0.43918 0.27209
 H425 H 1.03512 0.43957 0.25293
 C426 C 1.01800 0.41376 0.29258
 H427 H 1.03410 0.39452 0.28861
 Zn428 Zn 0.99973 0.49941 0.25084
 N429 N 0.99822 0.46350 0.27642
 C430 C 0.93956 0.48007 0.22814
 N431 N 0.96306 0.50165 0.22548
 C432 C 0.96225 0.52395 0.20288
 C433 C 0.93724 0.52494 0.18155
 C434 C 0.91403 0.48028 0.20736
 C435 C 1.02521 0.53397 0.30009
 C436 C 1.02721 0.55798 0.32202
 C437 C 0.98197 0.58250 0.29766
 C438 C 0.98084 0.55797 0.27616
 N439 N 1.00234 0.53438 0.27772
 H440 H 0.94085 0.46226 0.24596
 H441 H 0.98156 0.54047 0.20096
 H442 H 0.93761 0.54228 0.16315
 H443 H 0.89557 0.46290 0.20987
 H444 H 1.04169 0.51465 0.30111
 H445 H 1.04571 0.55725 0.33955
 H446 H 0.96424 0.60072 0.29650
 H447 H 0.96239 0.55753 0.25867
 C448 C 0.99680 0.41357 0.31795
 C449 C 1.08324 0.49760 0.17956
 C450 C 1.00524 0.58257 0.32116
 C451 C 0.91282 0.50269 0.18340
 C452 C -0.03796 0.47570 0.79725
 H453 H -0.01898 0.45881 0.79886
 C454 C -0.06261 0.47516 0.81898
 H455 H -0.06228 0.45782 0.83737
 C456 C -0.06020 0.51993 0.77231
 H457 H -0.05886 0.53772 0.75448
 C458 C -0.08538 0.52019 0.79348
 H459 H -0.10355 0.53786 0.79122
 N460 N -0.03714 0.49788 0.77454
 C461 C 0.02334 0.46230 0.70010
 H462 H 0.04039 0.48113 0.69860
 C463 C 0.02463 0.43767 0.67880
 H464 H 0.04270 0.43780 0.66086
 C465 C -0.02194 0.44033 0.72438
 H466 H -0.04036 0.44174 0.74184
 C467 C -0.02155 0.41524 0.70352
 H468 H -0.03944 0.39722 0.70555
 Zn469 Zn -0.00106 0.49889 0.74831
 N470 N 0.00037 0.46318 0.72234
 C471 C 0.05887 0.47957 0.77229
 N472 N 0.03484 0.50060 0.77471
 C473 C 0.03446 0.52238 0.79783
 C474 C 0.05863 0.52327 0.82006
 C475 C 0.08379 0.47992 0.79380
 C476 C -0.02533 0.53430 0.69934
 C477 C -0.02659 0.55838 0.67745
 C478 C 0.01932 0.58167 0.70192
 C479 C 0.01971 0.55707 0.72338
 N480 N -0.00243 0.53403 0.72168
 H481 H 0.05845 0.46204 0.75417
 H482 H 0.01488 0.53859 0.79938
 H483 H 0.05776 0.54047 0.83858
 H484 H 0.10244 0.46268 0.79199
 H485 H -0.04241 0.51548 0.69834
 H486 H -0.04508 0.55818 0.65991
 H487 H 0.03753 0.59945 0.70316
 H488 H 0.03808 0.55609 0.74095
 C489 C 0.00186 0.41378 0.68022
 C490 C -0.08667 0.49777 0.81743
 C491 C -0.00389 0.58235 0.67837
 C492 C 0.08355 0.50168 0.81832
 C493 C 0.10194 0.12515 0.49840
 C494 C 0.11065 0.15679 0.49893
 C495 C 0.14287 0.16473 0.50119
 C496 C 0.16600 0.14137 0.50254
 C497 C 0.15721 0.10973 0.50226
 C498 C 0.12497 0.10186 0.50025
 H499 H 0.07722 0.11845 0.49696
 H500 H 0.15015 0.18897 0.50155
 H501 H 0.19072 0.14798 0.50418
 H502 H 0.11761 0.07764 0.49970
 C503 C 0.66297 0.64089 -0.00049
 C504 C 0.65418 0.60925 -0.00075
 C505 C 0.62192 0.60136 -0.00229
 C506 C 0.59883 0.62465 -0.00359
 C507 C 0.60754 0.65629 -0.00290
 C508 C 0.63981 0.66423 -0.00124
 H509 H 0.68771 0.64750 0.00080
 H510 H 0.61459 0.57713 -0.00279
 H511 H 0.57410 0.61795 -0.00459
 H512 H 0.64706 0.68848 -0.00078
 C513 C 0.90103 -0.12544 0.49584
 C514 C 0.89230 -0.15708 0.49593
 C515 C 0.86001 -0.16501 0.49708
 C516 C 0.83686 -0.14165 0.49792
 C517 C 0.84567 -0.11002 0.49823
 C518 C 0.87796 -0.10215 0.49719
 H519 H 0.92578 -0.11874 0.49525
 H520 H 0.85272 -0.18925 0.49707
 H521 H 0.81210 -0.14826 0.49882
 H522 H 0.88533 -0.07792 0.49712
 C523 C 0.33412 0.35971 1.00250
 C524 C 0.34294 0.39134 1.00198
 C525 C 0.37521 0.39915 1.00019
 C526 C 0.39823 0.37582 0.99878
 C527 C 0.38949 0.34419 0.99950
 C528 C 0.35723 0.33632 1.00154
 H529 H 0.30938 0.35313 1.00399
 H530 H 0.38261 0.42336 0.99946
 H531 H 0.42296 0.38249 0.99752
 H532 H 0.34991 0.31209 1.00202
 C533 C 0.90111 0.12344 0.50102
 C534 C 0.89235 0.15505 0.50059
 C535 C 0.86006 0.16290 0.49919
 C536 C 0.83693 0.13948 0.49852
 C537 C 0.84576 0.10788 0.49862
 C538 C 0.87805 0.10008 0.49982
 H539 H 0.92586 0.11682 0.50183
 H540 H 0.85277 0.18713 0.49894
 H541 H 0.81217 0.14602 0.49749
 H542 H 0.88542 0.07587 0.50018
 C543 C 0.37472 0.60226 0.00169
 C544 C 0.34250 0.60999 -0.00094
 C545 C 0.33369 0.64160 -0.00191
 C546 C 0.35679 0.66504 -0.00070
 C547 C 0.38900 0.65724 0.00210
 C548 C 0.39771 0.62564 0.00339
 H549 H 0.38209 0.57807 0.00278
 H550 H 0.30900 0.64812 -0.00404
 H551 H 0.34950 0.68926 -0.00163
 H552 H 0.42241 0.61902 0.00523
 C553 C 0.14276 -0.16410 0.50167
 C554 C 0.11045 -0.15643 0.50353
 C555 C 0.10155 -0.12486 0.50426
 C556 C 0.12447 -0.10139 0.50291
 C557 C 0.15678 -0.10900 0.50119
 C558 C 0.16576 -0.14057 0.50079
 H559 H 0.15019 -0.18829 0.50119
 H560 H 0.07679 -0.11835 0.50538
 H561 H 0.11697 -0.07722 0.50354
 H562 H 0.19053 -0.14700 0.49936
 C563 C 0.66324 0.35982 1.00091
 C564 C 0.65444 0.39144 1.00047
 C565 C 0.62214 0.39927 1.00133
 C566 C 0.59907 0.37595 1.00271
 C567 C 0.60780 0.34433 1.00283
 C568 C 0.64008 0.33644 1.00178
 H569 H 0.68800 0.35325 1.00016
 H570 H 0.61478 0.42348 1.00128
 H571 H 0.57432 0.38261 1.00322
 H572 H 0.64736 0.31220 1.00196
 C573 C 0.52444 0.12244 1.14545
 C574 C 0.49581 0.11150 1.15820
 C575 C 0.46717 0.12455 1.14769
 C576 C 0.46714 0.14760 1.12457
 C577 C 0.49574 0.15814 1.11145
 C578 C 0.52441 0.14549 1.12235
 H579 H 0.54687 0.11251 1.15266
 H580 H 0.44476 0.11697 1.15741
 H581 H 0.44471 0.15725 1.11700
 H582 H 0.54680 0.15274 1.11237
 C583 C -0.00994 0.62300 0.59993
 C584 C -0.00363 0.65424 0.60783
 C585 C 0.00273 0.66172 0.63921
 C586 C 0.00263 0.63845 0.66218
 C587 C -0.00385 0.60725 0.65422
 C588 C -0.01007 0.59982 0.62283
 H589 H -0.01423 0.61635 0.57588
 H590 H 0.00736 0.68562 0.64608
 H591 H 0.00718 0.64494 0.68622
 H592 H -0.01448 0.57591 0.61584
 C593 C 0.49034 0.90032 -0.12258
 C594 C 0.49726 0.89293 -0.15384
 C595 C 0.50383 0.86173 -0.16168
 C596 C 0.50334 0.83843 -0.13876
 C597 C 0.49628 0.84586 -0.10752
 C598 C 0.48987 0.87709 -0.09972
 H599 H 0.48583 0.92422 -0.11565
 H600 H 0.50891 0.85527 -0.18563
 H601 H 0.50805 0.81454 -0.14556
 H602 H 0.48503 0.88371 -0.07577
 C603 C 0.96871 0.35473 0.37829
 C604 C 0.99732 0.34087 0.38835
 C605 C 1.02561 0.35038 0.37341
 C606 C 1.02535 0.37349 0.35034
 C607 C 0.99685 0.38763 0.34109
 C608 C 0.96851 0.37758 0.35500
 H609 H 0.94606 0.34745 0.38760
 H610 H 1.04845 0.34151 0.38060
 H611 H 1.04773 0.38106 0.34056
 H612 H 0.94599 0.38731 0.34779
 C613 C 0.51366 0.89923 0.12454
 C614 C 0.50307 0.89306 0.15525
 C615 C 0.49242 0.86250 0.16199
 C616 C 0.49262 0.83918 0.13909
 C617 C 0.50310 0.84567 0.10862
 C618 C 0.51347 0.87602 0.10167
 H619 H 0.52073 0.92241 0.11734
 H620 H 0.48506 0.85591 0.18528
 H621 H 0.48503 0.81589 0.14544
 H622 H 0.52079 0.88218 0.07821
 C623 C -0.02646 0.35445 0.62053
 C624 C 0.00225 0.34179 0.60978
 C625 C 0.03077 0.35216 0.62323
 C626 C 0.03062 0.37508 0.64647
 C627 C 0.00194 0.38818 0.65679
 C628 C -0.02662 0.37738 0.64376
 H629 H -0.04880 0.34730 0.61031
 H630 H 0.05324 0.34249 0.61580
 H631 H 0.05298 0.38254 0.65641
 H632 H -0.04907 0.38734 0.65084
 C633 C 0.47457 0.12294 0.85499
 C634 C 0.50342 0.11231 0.84253
 C635 C 0.53184 0.12561 0.85337
 C636 C 0.53144 0.14855 0.87659
 C637 C 0.50262 0.15874 0.88949
 C638 C 0.47417 0.14590 0.87820
 H639 H 0.45230 0.11283 0.84749
 H640 H 0.55441 0.11827 0.84387
 H641 H 0.55371 0.15837 0.88444
 H642 H 0.45161 0.15290 0.88798
 C643 C 1.00029 0.66203 0.36033
 C644 C 1.00653 0.65446 0.39170
 C645 C 1.01245 0.62316 0.39958
 C646 C 1.01215 0.59996 0.37667
 C647 C 1.00594 0.60748 0.34530
 C648 C 1.00001 0.63878 0.33736
 H649 H 0.99599 0.68599 0.35349
 H650 H 1.01667 0.61645 0.42362
 H651 H 1.01616 0.57600 0.38366
 H652 H 0.99550 0.64535 0.31333
 C653 C 1.16300 0.49609 0.13902
 C654 C 1.15464 0.50195 0.10756
 C655 C 1.12220 0.50630 0.10056
 C656 C 1.09918 0.50447 0.12390
 C657 C 1.10782 0.49893 0.15501
 C658 C 1.13990 0.49501 0.16245
 H659 H 1.18749 0.49351 0.14603
 H660 H 1.11410 0.50975 0.07683
 H661 H 1.07450 0.50761 0.11767
 H662 H 1.14706 0.49084 0.18640
 C663 C 0.62486 0.02721 0.64702
 C664 C 0.61395 -0.00126 0.65936
 C665 C 0.62683 -0.02923 0.64782
 C666 C 0.64958 -0.02878 0.62409
 C667 C 0.66010 -0.00032 0.61139
 C668 C 0.64770 0.02767 0.62338
 H669 H 0.61520 0.04918 0.65507
 H670 H 0.61924 -0.05154 0.65706
 H671 H 0.65837 -0.05078 0.61519
 H672 H 0.65558 0.05000 0.61442
 C673 C -0.14627 0.52805 0.87657
 C674 C -0.15880 0.50023 0.88888
 C675 C -0.14814 0.47159 0.87675
 C676 C -0.12518 0.47079 0.85323
 C677 C -0.11223 0.49860 0.84133
 C678 C -0.12323 0.52724 0.85313
 H679 H -0.15424 0.55050 0.88510
 H680 H -0.15701 0.44972 0.88593
 H681 H -0.11751 0.44835 0.84441
 H682 H -0.11352 0.54910 0.84477
 C683 C 0.39967 -0.00298 0.37599
 C684 C 0.39077 -0.00235 0.34437
 C685 C 0.35847 -0.00041 0.33665
 C686 C 0.33548 0.00066 0.36018
 C687 C 0.34446 0.00037 0.39180
 C688 C 0.37676 -0.00144 0.39946
 H689 H 0.42444 -0.00417 0.38255
 H690 H 0.35105 0.00001 0.31242
 H691 H 0.31071 0.00215 0.35372
 H692 H 0.38427 -0.00200 0.42367
 C693 C 0.16374 0.49800 0.85822
 C694 C 0.15502 0.49855 0.88990
 C695 C 0.12278 0.50041 0.89780
 C696 C 0.09968 0.50180 0.87450
 C697 C 0.10831 0.50093 0.84282
 C698 C 0.14054 0.49889 0.83486
 H699 H 0.18846 0.49647 0.85159
 H700 H 0.11549 0.50116 0.92206
 H701 H 0.07497 0.50308 0.88123
 H702 H 0.14776 0.49830 0.81058
 C703 C 0.62423 0.02857 0.35302
 C704 C 0.61148 0.00075 0.34091
 C705 C 0.62289 -0.02790 0.35230
 C706 C 0.64610 -0.02871 0.37559
 C707 C 0.65843 -0.00089 0.38811
 C708 C 0.64740 0.02776 0.37635
 H709 H 0.61623 0.05102 0.34450
 H710 H 0.61334 -0.04976 0.34376
 H711 H 0.65436 -0.05116 0.38386
 H712 H 0.65613 0.04962 0.38569
 C713 C 0.85146 0.52929 0.12415
 C714 C 0.84056 0.50072 0.11205
 C715 C 0.85276 0.47282 0.12446
 C716 C 0.87577 0.47348 0.14793
 C717 C 0.88709 0.50206 0.15966
 C718 C 0.87443 0.52995 0.14770
 H719 H 0.84282 0.55121 0.11491
 H720 H 0.84458 0.45042 0.11594
 H721 H 0.88527 0.45156 0.15633
 H722 H 0.88236 0.55234 0.15647
 C723 C 0.40164 0.00209 0.62499
 C724 C 0.39323 0.00162 0.65674
 C725 C 0.36103 -0.00008 0.66493
 C726 C 0.33766 -0.00100 0.64174
 C727 C 0.34615 -0.00081 0.61000
 C728 C 0.37835 0.00069 0.60186
 H729 H 0.42631 0.00310 0.61808
 H730 H 0.35398 -0.00034 0.68927
 H731 H 0.31299 -0.00226 0.64857
 H732 H 0.38548 0.00116 0.57755
   
