data_POSCAR
  _audit_creation_date              2014-09-24
  _audit_creation_method            'ToBaCCo'
  _symmetry_space_group_name_H-M    'P1'
  _symmetry_Int_Tables_number       1
  _symmetry_cell_setting            triclinic
  loop_
  _symmetry_equiv_pos_as_xyz
 x,y,z
_cell_length_a 63.3490
_cell_length_b 63.7438
_cell_length_c 64.2043
_cell_angle_alpha 94.448600
_cell_angle_beta 92.067800
_cell_angle_gamma 94.500500
loop_
  _atom_site_label
  _atom_site_type_symbol
  _atom_site_fract_x
  _atom_site_fract_y
  _atom_site_fract_z
C1 C 0.20902 0.47821 1.02368
 H2 H 0.20327 0.47822 1.00765
 C3 C 0.19448 0.47693 1.03940
 H4 H 0.17789 0.47683 1.03480
 C5 C 0.23764 0.47939 1.04850
 H6 H 0.25454 0.47995 1.05189
 C7 C 0.22365 0.47824 1.06480
 H8 H 0.23034 0.47753 1.08044
 N9 N 0.23018 0.47957 1.02840
 C10 C 0.27792 0.51248 0.99255
 H11 H 0.27575 0.50287 0.97791
 C12 C 0.29181 0.53067 0.99392
 H13 H 0.30072 0.53446 0.98044
 C14 C 0.26870 0.51937 1.02768
 H15 H 0.25948 0.51519 1.04075
 C16 C 0.28248 0.53770 1.02976
 H17 H 0.28369 0.54736 1.04446
 Zn18 Zn 0.24913 0.48131 1.00609
 N19 N 0.26700 0.50689 1.00940
 C20 C 0.22400 0.49913 0.97666
 N21 N 0.23311 0.48119 0.98068
 C22 C 0.23012 0.46347 0.96735
 C23 C 0.21711 0.46326 0.94927
 C24 C 0.21095 0.49964 0.95877
 C25 C 0.26360 0.44280 1.01873
 C26 C 0.27677 0.42619 1.01840
 C27 C 0.29430 0.44043 0.98921
 C28 C 0.28087 0.45677 0.99014
 N29 N 0.26609 0.45791 1.00495
 H30 H 0.22653 0.51294 0.98764
 H31 H 0.23743 0.44935 0.97097
 H32 H 0.21476 0.44898 0.93889
 H33 H 0.20334 0.51390 0.95618
 H34 H 0.25144 0.44356 1.03006
 H35 H 0.27460 0.41437 1.02954
 H36 H 0.30631 0.44021 0.97764
 H37 H 0.28235 0.46859 0.97903
 C38 C 0.29442 0.54345 1.01279
 C39 C 0.20152 0.47698 1.06053
 C40 C 0.29251 0.42498 1.00361
 C41 C 0.20718 0.48147 0.94489
 C42 C 0.78390 0.53506 -0.03251
 H43 H 0.78534 0.54743 -0.01990
 C44 C 0.79799 0.53553 -0.04873
 H45 H 0.81034 0.54830 -0.04839
 C46 C 0.76671 0.50277 -0.04751
 H47 H 0.75480 0.48980 -0.04677
 C48 C 0.78047 0.50261 -0.06403
 H49 H 0.77867 0.48967 -0.07609
 N50 N 0.76866 0.51885 -0.03218
 C51 C 0.72104 0.54269 0.00882
 H52 H 0.72062 0.53088 0.02006
 C53 C 0.70709 0.55858 0.01021
 H54 H 0.69589 0.55882 0.02255
 C55 C 0.73545 0.55592 -0.02158
 H56 H 0.74625 0.55459 -0.03416
 C57 C 0.72173 0.57207 -0.02080
 H58 H 0.72241 0.58328 -0.03264
 Zn59 Zn 0.75172 0.51843 -0.00851
 N60 N 0.73487 0.54166 -0.00686
 C61 C 0.77075 0.53475 0.03107
 N62 N 0.77044 0.51924 0.01523
 C63 C 0.78426 0.50398 0.01535
 C64 C 0.79882 0.50358 0.03210
 C65 C 0.78514 0.53499 0.04814
 C66 C 0.71773 0.49121 -0.02584
 C67 C 0.70282 0.47376 -0.02735
 C68 C 0.71931 0.46179 0.00362
 C69 C 0.73390 0.47947 0.00452
 N70 N 0.73294 0.49368 -0.01016
 H71 H 0.75996 0.54701 0.03048
 H72 H 0.78393 0.49208 0.00234
 H73 H 0.80980 0.49138 0.03178
 H74 H 0.78502 0.54729 0.06074
 H75 H 0.71707 0.50298 -0.03707
 H76 H 0.69063 0.47228 -0.03975
 H77 H 0.72044 0.45058 0.01536
 H78 H 0.74578 0.48191 0.01715
 C79 C 0.70721 0.57346 -0.00482
 C80 C 0.79650 0.51905 -0.06469
 C81 C 0.70345 0.45879 -0.01244
 C82 C 0.79936 0.51919 0.04883
 C83 C 0.00366 0.28239 0.46064
 H84 H -0.00780 0.28250 0.47274
 C85 C 0.00251 0.29623 0.44492
 H86 H -0.00975 0.30710 0.44578
 C87 C 0.03437 0.26900 0.44664
 H88 H 0.04690 0.25850 0.44750
 C89 C 0.03392 0.28265 0.43064
 H90 H 0.04584 0.28154 0.41907
 N91 N 0.01935 0.26910 0.46120
 C92 C -0.00464 0.21916 0.49879
 H93 H 0.00826 0.21980 0.51039
 C94 C -0.02183 0.20418 0.49936
 H95 H -0.02196 0.19319 0.51141
 C96 C -0.01964 0.23233 0.46857
 H97 H -0.01859 0.24315 0.45645
 C98 C -0.03713 0.21752 0.46852
 H99 H -0.04961 0.21737 0.45651
 Zn100 Zn 0.02038 0.25228 0.48414
 N101 N -0.00395 0.23300 0.48371
 C102 C 0.00633 0.26962 0.52286
 N103 N 0.02172 0.27094 0.50867
 C104 C 0.03771 0.28657 0.51086
 C105 C 0.03872 0.30166 0.52792
 C106 C 0.00673 0.28438 0.54014
 C107 C 0.04446 0.22096 0.46713
 C108 C 0.06050 0.20715 0.46641
 C109 C 0.07571 0.22476 0.49881
 C110 C 0.05935 0.23824 0.49891
 N111 N 0.04413 0.23608 0.48323
 H112 H -0.00652 0.25740 0.52063
 H113 H 0.04951 0.28749 0.49912
 H114 H 0.05132 0.31424 0.52912
 H115 H -0.00564 0.28303 0.55128
 H116 H 0.03191 0.21932 0.45510
 H117 H 0.06010 0.19483 0.45377
 H118 H 0.08764 0.22666 0.51146
 H119 H 0.05859 0.25008 0.51178
 C120 C -0.03841 0.20324 0.48411
 C121 C 0.01787 0.29678 0.42950
 C122 C 0.07629 0.20879 0.48252
 C123 C 0.02298 0.30078 0.54276
 C124 C 0.96261 0.71679 0.53862
 H125 H 0.95007 0.71515 0.52656
 C126 C 0.96221 0.70318 0.55463
 H127 H 0.94933 0.69098 0.55470
 C128 C 0.99521 0.73403 0.55239
 H129 H 1.00825 0.74579 0.55123
 C130 C 0.99545 0.72073 0.56868
 H131 H 1.00854 0.72271 0.58016
 N132 N 0.97893 0.73184 0.53778
 C133 C 0.95477 0.77854 0.49901
 H134 H 0.96652 0.77868 0.48718
 C135 C 0.93888 0.79249 0.49872
 H136 H 0.93858 0.80342 0.48663
 C137 C 0.94172 0.76483 0.52975
 H138 H 0.94312 0.75431 0.54204
 C139 C 0.92557 0.77857 0.53009
 H140 H 0.91442 0.77817 0.54247
 Zn141 Zn 0.97913 0.74818 0.51442
 N142 N 0.95589 0.76506 0.51433
 C143 C 0.96218 0.72857 0.47521
 N144 N 0.97793 0.72905 0.49026
 C145 C 0.99313 0.71515 0.48900
 C146 C 0.99319 0.70030 0.47187
 C147 C 0.96161 0.71392 0.45779
 C148 C 1.00670 0.78233 0.53099
 C149 C 1.02408 0.79730 0.53170
 C150 C 1.03560 0.78011 0.49971
 C151 C 1.01800 0.76547 0.49962
 N152 N 1.00401 0.76679 0.51516
 H153 H 0.94999 0.73945 0.47670
 H154 H 1.00523 0.71563 0.50140
 H155 H 1.00534 0.68926 0.47128
 H156 H 0.94912 0.71392 0.44582
 H157 H 0.99510 0.78325 0.54293
 H158 H 1.02568 0.80980 0.54420
 H159 H 1.04659 0.77875 0.48724
 H160 H 1.01539 0.75332 0.48691
 C161 C 0.92408 0.79273 0.51449
 C162 C 0.97888 0.70493 0.56985
 C163 C 1.03874 0.79639 0.51582
 C164 C 0.97732 0.69958 0.45593
 C165 C 0.47119 0.00692 0.28332
 H166 H 0.48314 -0.00433 0.28315
 C167 C 0.45494 0.00553 0.29736
 H168 H 0.45456 -0.00679 0.30806
 C169 C 0.45791 0.03726 0.27019
 H170 H 0.45934 0.04981 0.25983
 C171 C 0.44139 0.03649 0.28402
 H172 H 0.42999 0.04828 0.28387
 N173 N 0.47234 0.02253 0.27004
 C174 C 0.51039 -0.00081 0.21943
 H175 H 0.52242 0.01223 0.21965
 C176 C 0.51062 -0.01786 0.20447
 H177 H 0.52276 -0.01706 0.19308
 C178 C 0.47931 -0.01611 0.23338
 H179 H 0.46703 -0.01529 0.24458
 C180 C 0.47885 -0.03348 0.21863
 H181 H 0.46647 -0.04599 0.21958
 Zn182 Zn 0.49583 0.02392 0.25270
 N183 N 0.49503 -0.00032 0.23362
 C184 C 0.53445 0.01058 0.26891
 N185 N 0.52048 0.02572 0.27052
 C186 C 0.52283 0.04164 0.28599
 C187 C 0.53974 0.04274 0.30071
 C188 C 0.55159 0.01109 0.28327
 C189 C 0.47925 0.04741 0.22218
 C190 C 0.47865 0.06345 0.20864
 C191 C 0.51163 0.07945 0.22490
 C192 C 0.51158 0.06308 0.23819
 N193 N 0.49552 0.04750 0.23659
 H194 H 0.53210 -0.00221 0.25680
 H195 H 0.51125 0.05323 0.28715
 H196 H 0.54099 0.05522 0.31324
 H197 H 0.56252 -0.00112 0.28174
 H198 H 0.46692 0.03458 0.22099
 H199 H 0.46581 0.06277 0.19694
 H200 H 0.52456 0.09170 0.22634
 H201 H 0.52459 0.06265 0.24946
 C202 C 0.49469 -0.03475 0.20372
 C203 C 0.43979 0.02050 0.29790
 C204 C 0.49508 0.07968 0.20977
 C205 C 0.55428 0.02719 0.29960
 C206 C 0.52742 -0.04003 0.71623
 H207 H 0.51501 -0.05278 0.71486
 C208 C 0.54362 -0.03977 0.70206
 H209 H 0.54349 -0.05237 0.68973
 C210 C 0.54190 -0.00754 0.73335
 H211 H 0.54095 0.00521 0.74529
 C212 C 0.55839 -0.00664 0.71950
 H213 H 0.57023 0.00665 0.72123
 N214 N 0.52685 -0.02408 0.73149
 C215 C 0.48699 -0.05009 0.77875
 H216 H 0.47508 -0.03882 0.77945
 C217 C 0.48667 -0.06598 0.79254
 H218 H 0.47446 -0.06675 0.80389
 C219 C 0.51811 -0.06185 0.76388
 H220 H 0.53060 -0.05990 0.75301
 C221 C 0.51841 -0.07797 0.77742
 H222 H 0.53095 -0.08857 0.77650
 Zn223 Zn 0.50315 -0.02475 0.74859
 N224 N 0.50257 -0.04828 0.76483
 C225 C 0.46321 -0.04198 0.72997
 N226 N 0.47877 -0.02595 0.73050
 C227 C 0.47801 -0.01039 0.71724
 C228 C 0.46090 -0.01027 0.70299
 C229 C 0.44580 -0.04253 0.71585
 C230 C 0.52051 0.00237 0.78229
 C231 C 0.52168 0.01948 0.79736
 C232 C 0.48946 0.03061 0.78199
 C233 C 0.48891 0.01330 0.76721
 N234 N 0.50437 -0.00034 0.76754
 H235 H 0.46433 -0.05444 0.74034
 H236 H 0.49082 0.00193 0.71774
 H237 H 0.46075 0.00216 0.69242
 H238 H 0.43344 -0.05529 0.71573
 H239 H 0.53236 -0.00895 0.78246
 H240 H 0.53445 0.02114 0.80919
 H241 H 0.47708 0.04136 0.78137
 H242 H 0.47594 0.01065 0.75569
 C243 C 0.50266 -0.08006 0.79214
 C244 C 0.55931 -0.02282 0.70348
 C245 C 0.50595 0.03384 0.79740
 C246 C 0.44448 -0.02647 0.70217
 C247 C 0.22461 -0.01815 0.50167
 C248 C 0.23777 -0.00016 0.49809
 C249 C 0.22879 0.01863 0.49415
 C250 C 0.20672 0.01965 0.49393
 C251 C 0.19372 0.00145 0.49730
 C252 C 0.20247 -0.01758 0.50097
 C253 C 0.26096 -0.00105 0.49818
 C254 C 0.27202 0.00321 0.48024
 C255 C 0.29412 0.00260 0.48019
 C256 C 0.30509 -0.00193 0.49851
 C257 C 0.29426 -0.00592 0.51670
 C258 C 0.27209 -0.00578 0.51628
 H259 H 0.23163 -0.03274 0.50428
 H260 H 0.23903 0.03245 0.49128
 H261 H 0.26335 0.00700 0.46635
 H262 H 0.26350 -0.00860 0.53023
 H263 H 0.17671 0.00222 0.49756
 H264 H 0.32209 -0.00281 0.49848
 C265 C 0.77047 -0.01758 0.50775
 C266 C 0.76153 0.00129 0.50395
 C267 C 0.77476 0.01928 0.50052
 C268 C 0.79688 0.01865 0.50118
 C269 C 0.80558 -0.00044 0.50472
 C270 C 0.79253 -0.01865 0.50795
 C271 C 0.73833 0.00225 0.50374
 C272 C 0.72704 -0.00259 0.52138
 C273 C 0.70498 -0.00156 0.52139
 C274 C 0.69428 0.00401 0.50333
 C275 C 0.70535 0.00870 0.48547
 C276 C 0.72747 0.00798 0.48590
 H277 H 0.76019 -0.03142 0.51047
 H278 H 0.76779 0.03392 0.49800
 H279 H 0.73549 -0.00709 0.53511
 H280 H 0.73627 0.01176 0.47233
 H281 H 0.82259 -0.00125 0.50442
 H282 H 0.67724 0.00466 0.50317
 C283 C 0.51796 0.27075 0.99222
 C284 C 0.49923 0.25856 0.99574
 C285 C 0.48010 0.26810 0.99733
 C286 C 0.47949 0.28980 0.99518
 C287 C 0.49841 0.30190 0.99188
 C288 C 0.51773 0.29256 0.99044
 C289 C 0.49957 0.23572 0.99753
 C290 C 0.49738 0.22753 1.01705
 C291 C 0.49741 0.20572 1.01887
 C292 C 0.49934 0.19220 1.00080
 C293 C 0.50127 0.20018 0.98110
 C294 C 0.50163 0.22208 0.97966
 H295 H 0.53265 0.26321 0.99088
 H296 H 0.46564 0.25848 0.99972
 H297 H 0.49558 0.23817 1.03076
 H298 H 0.50288 0.22853 0.96458
 H299 H 0.49819 0.31879 0.99103
 H300 H 0.49983 0.17540 1.00214
 C301 C 0.51972 0.73071 0.00424
 C302 C 0.50088 0.74074 0.00594
 C303 C 0.48191 0.72897 0.00953
 C304 C 0.48160 0.70712 0.01124
 C305 C 0.50064 0.69728 0.00969
 C306 C 0.51981 0.70895 0.00634
 C307 C 0.50108 0.76364 0.00433
 C308 C 0.50341 0.77196 -0.01511
 C309 C 0.50375 0.79383 -0.01674
 C310 C 0.50205 0.80727 0.00143
 C311 C 0.49995 0.79914 0.02105
 C312 C 0.49922 0.77720 0.02230
 H313 H 0.53437 0.74001 0.00183
 H314 H 0.46745 0.73689 0.01099
 H315 H 0.50501 0.76138 -0.02891
 H316 H 0.49780 0.77063 0.03731
 H317 H 0.50045 0.68036 0.01052
 H318 H 0.50183 0.82411 0.00024
 C319 C 0.99443 0.51491 0.27243
 C320 C 0.99980 0.49685 0.26054
 C321 C 1.00438 0.47885 0.27056
 C322 C 1.00348 0.47870 0.29236
 C323 C 0.99827 0.49697 0.30409
 C324 C 0.99381 0.51518 0.29430
 C325 C 1.00055 0.49673 0.23758
 C326 C 1.01916 0.49217 0.22754
 C327 C 1.01994 0.49177 0.20569
 C328 C 1.00170 0.49564 0.19396
 C329 C 0.98287 0.49996 0.20375
 C330 C 0.98253 0.50078 0.22566
 H331 H 0.99082 0.52876 0.26463
 H332 H 1.00856 0.46495 0.26132
 H333 H 1.03301 0.48895 0.23679
 H334 H 0.96806 0.50383 0.23345
 H335 H 0.99770 0.49701 0.32093
 H336 H 1.00231 0.49577 0.17713
 C337 C -0.00374 0.52221 0.72849
 C338 C 0.00164 0.50418 0.73802
 C339 C 0.00688 0.48639 0.72563
 C340 C 0.00661 0.48641 0.70376
 C341 C 0.00138 0.50465 0.69443
 C342 C -0.00371 0.52266 0.70666
 C343 C 0.00186 0.50392 0.76097
 C344 C -0.01669 0.50685 0.77175
 C345 C -0.01672 0.50610 0.79355
 C346 C 0.00226 0.50310 0.80451
 C347 C 0.02104 0.50048 0.79396
 C348 C 0.02061 0.50058 0.77209
 H349 H -0.00782 0.53590 0.73813
 H350 H 0.01111 0.47253 0.73308
 H351 H -0.03123 0.50900 0.76303
 H352 H 0.03497 0.49868 0.76371
 H353 H 0.00130 0.50484 0.67758
 H354 H 0.00242 0.50276 0.82136
 C355 C 0.11267 0.16925 0.50184
 C356 C 0.12117 0.16160 0.48320
 C357 C 0.11573 0.17002 0.46442
 C358 C 0.10153 0.18574 0.46423
 C359 C 0.09255 0.19322 0.48284
 C360 C 0.09848 0.18495 0.50169
 C361 C 0.13457 0.14439 0.48325
 C362 C 0.14526 0.12957 0.48352
 C363 C 0.15717 0.11180 0.48411
 C364 C 0.16680 0.09629 0.48486
 C365 C 0.17765 0.07738 0.48606
 C366 C 0.16883 0.05838 0.47578
 C367 C 0.17852 0.03968 0.47798
 C368 C 0.19718 0.03973 0.49056
 C369 C 0.20619 0.05898 0.50048
 C370 C 0.19645 0.07768 0.49827
 H371 H 0.11667 0.16274 0.51644
 H372 H 0.12220 0.16420 0.44989
 H373 H 0.09747 0.19196 0.44952
 H374 H 0.09163 0.19012 0.51623
 H375 H 0.15428 0.05797 0.46629
 H376 H 0.17137 0.02516 0.46992
 H377 H 0.22041 0.05947 0.51045
 H378 H 0.20335 0.09228 0.50640
 C379 C 0.67082 0.61424 0.01556
 C380 C 0.66038 0.61879 -0.00294
 C381 C 0.66582 0.60917 -0.02212
 C382 C 0.68139 0.59477 -0.02279
 C383 C 0.69168 0.58977 -0.00424
 C384 C 0.68638 0.59984 0.01493
 C385 C 0.64336 0.63249 -0.00212
 C386 C 0.62874 0.64350 -0.00130
 C387 C 0.61120 0.65584 -0.00016
 C388 C 0.59589 0.66589 0.00100
 C389 C 0.57721 0.67730 0.00264
 C390 C 0.57327 0.69270 -0.01109
 C391 C 0.55471 0.70319 -0.00980
 C392 C 0.53983 0.69833 0.00521
 C393 C 0.54407 0.68299 0.01908
 C394 C 0.56261 0.67256 0.01778
 H395 H 0.66672 0.62158 0.03050
 H396 H 0.65774 0.61247 -0.03652
 H397 H 0.68490 0.58708 -0.03775
 H398 H 0.69420 0.59651 0.02944
 H399 H 0.58444 0.69643 -0.02292
 H400 H 0.55179 0.71478 -0.02081
 H401 H 0.53308 0.67914 0.03101
 H402 H 0.56551 0.66069 0.02852
 C403 C 0.88323 -0.17113 0.49689
 C404 C 0.87887 -0.16035 0.51588
 C405 C 0.88861 -0.16550 0.53450
 C406 C 0.90295 -0.18111 0.53412
 C407 C 0.90779 -0.19173 0.51506
 C408 C 0.89757 -0.18673 0.49647
 C409 C 0.86531 -0.14326 0.51609
 C410 C 0.85447 -0.12854 0.51610
 C411 C 0.84240 -0.11086 0.51588
 C412 C 0.83264 -0.09539 0.51549
 C413 C 0.82169 -0.07651 0.51473
 C414 C 0.83046 -0.05767 0.52537
 C415 C 0.82071 -0.03894 0.52356
 C416 C 0.80204 -0.03880 0.51103
 C417 C 0.79306 -0.05791 0.50078
 C418 C 0.80287 -0.07663 0.50259
 H419 H 0.87579 -0.16726 0.48238
 H420 H 0.88547 -0.15715 0.54927
 H421 H 0.91076 -0.18438 0.54866
 H422 H 0.90076 -0.19481 0.48159
 H423 H 0.84502 -0.05738 0.53480
 H424 H 0.82784 -0.02453 0.53185
 H425 H 0.77884 -0.05824 0.49085
 H426 H 0.79600 -0.09111 0.49420
 C427 C 0.33137 0.38733 1.02222
 C428 C 0.33799 0.37836 1.00321
 C429 C 0.32901 0.38386 0.98436
 C430 C 0.31381 0.39861 0.98449
 C431 C 0.30741 0.40811 1.00350
 C432 C 0.31614 0.40208 1.02238
 C433 C 0.35487 0.36451 1.00294
 C434 C 0.36948 0.35347 1.00244
 C435 C 0.38707 0.34120 1.00153
 C436 C 0.40249 0.33130 1.00045
 C437 C 0.42137 0.32021 0.99880
 C438 C 0.43584 0.32518 0.98363
 C439 C 0.45461 0.31513 0.98234
 C440 C 0.45920 0.29994 0.99625
 C441 C 0.44443 0.29481 1.01129
 C442 C 0.42563 0.30493 1.01257
 H443 H 0.33832 0.38329 1.03689
 H444 H 0.33403 0.37703 0.96956
 H445 H 0.30718 0.40272 0.96970
 H446 H 0.31173 0.40929 1.03725
 H447 H 0.43268 0.33695 0.97288
 H448 H 0.46551 0.31918 0.97040
 H449 H 0.44762 0.28333 1.02233
 H450 H 0.41457 0.30102 1.02443
 C451 C 0.91810 0.16058 0.46615
 C452 C 0.90977 0.15563 0.48523
 C453 C 0.91794 0.16664 0.50384
 C454 C 0.93457 0.18234 0.50345
 C455 C 0.94329 0.18723 0.48439
 C456 C 0.93474 0.17631 0.46571
 C457 C 0.89345 0.13870 0.48590
 C458 C 0.88015 0.12425 0.48690
 C459 C 0.86505 0.10704 0.48857
 C460 C 0.85259 0.09208 0.49043
 C461 C 0.83829 0.07391 0.49317
 C462 C 0.84316 0.06037 0.50847
 C463 C 0.82963 0.04249 0.51112
 C464 C 0.81100 0.03787 0.49845
 C465 C 0.80612 0.05167 0.48321
 C466 C 0.81972 0.06957 0.48057
 H467 H 0.91197 0.15206 0.45165
 H468 H 0.91161 0.16294 0.51870
 H469 H 0.94061 0.19066 0.51805
 H470 H 0.94127 0.17954 0.45083
 H471 H 0.85745 0.06361 0.51836
 H472 H 0.83365 0.03237 0.52320
 H473 H 0.79200 0.04842 0.47311
 H474 H 0.81583 0.07994 0.46865
 C475 C 0.32774 0.59239 -0.00040
 C476 C 0.34098 0.59660 0.01761
 C477 C 0.33841 0.58400 0.03438
 C478 C 0.32293 0.56700 0.03302
 C479 C 0.30986 0.56234 0.01480
 C480 C 0.31227 0.57539 -0.00180
 C481 C 0.35792 0.61311 0.01839
 C482 C 0.37248 0.62650 0.01872
 C483 C 0.38996 0.64166 0.01875
 C484 C 0.40525 0.65414 0.01847
 C485 C 0.42391 0.66844 0.01777
 C486 C 0.44220 0.66527 0.02960
 C487 C 0.46083 0.67816 0.02785
 C488 C 0.46143 0.69439 0.01417
 C489 C 0.44283 0.69778 0.00270
 C490 C 0.42420 0.68484 0.00446
 H491 H 0.32960 0.60203 -0.01349
 H492 H 0.34867 0.58703 0.04834
 H493 H 0.32165 0.55710 0.04596
 H494 H 0.30226 0.57240 -0.01591
 H495 H 0.44215 0.65262 0.03995
 H496 H 0.47482 0.67534 0.03709
 H497 H 0.44287 0.70999 -0.00813
 H498 H 0.41017 0.68735 -0.00487
 C499 C 0.07906 -0.16311 0.49661
 C500 C 0.08991 -0.15516 0.51528
 C501 C 0.08436 -0.16333 0.53413
 C502 C 0.06788 -0.17927 0.53433
 C503 C 0.05675 -0.18723 0.51564
 C504 C 0.06261 -0.17903 0.49677
 C505 C 0.10620 -0.13814 0.51504
 C506 C 0.11948 -0.12361 0.51436
 C507 C 0.13455 -0.10631 0.51299
 C508 C 0.14696 -0.09127 0.51133
 C509 C 0.16120 -0.07301 0.50874
 C510 C 0.15635 -0.05945 0.49345
 C511 C 0.16983 -0.04152 0.49090
 C512 C 0.18839 -0.03684 0.50365
 C513 C 0.19325 -0.05064 0.51890
 C514 C 0.17970 -0.06861 0.52144
 H515 H 0.08314 -0.15681 0.48195
 H516 H 0.09264 -0.15728 0.54868
 H517 H 0.06390 -0.18542 0.54907
 H518 H 0.05416 -0.18455 0.48217
 H519 H 0.14211 -0.06274 0.48349
 H520 H 0.16583 -0.03140 0.47880
 H521 H 0.20733 -0.04736 0.52906
 H522 H 0.18358 -0.07899 0.53335
 C523 C 0.66453 0.41295 0.96670
 C524 C 0.65579 0.40666 0.98516
 C525 C 0.66288 0.41712 1.00440
 C526 C 0.67852 0.43392 1.00520
 C527 C 0.68729 0.44052 0.98673
 C528 C 0.68019 0.42977 0.96746
 C529 C 0.63906 0.38994 0.98439
 C530 C 0.62475 0.37626 0.98401
 C531 C 0.60765 0.36066 0.98386
 C532 C 0.59271 0.34775 0.98400
 C533 C 0.57445 0.33288 0.98449
 C534 C 0.57457 0.31645 0.99774
 C535 C 0.55628 0.30294 0.99928
 C536 C 0.53762 0.30579 0.98764
 C537 C 0.53784 0.32204 0.97399
 C538 C 0.55613 0.33549 0.97246
 H539 H 0.65915 0.40496 0.95172
 H540 H 0.65612 0.41247 1.01878
 H541 H 0.68340 0.44205 1.02024
 H542 H 0.68680 0.43431 0.95300
 H543 H 0.58864 0.31435 1.00720
 H544 H 0.55653 0.29073 1.01008
 H545 H 0.52381 0.32444 0.96462
 H546 H 0.55586 0.34815 0.96215
 C547 C 0.47652 0.11874 1.17273
 C548 C 0.49540 0.12474 1.16331
 C549 C 0.51434 0.11685 1.16982
 C550 C 0.51435 0.10265 1.18536
 C551 C 0.49536 0.09609 1.19455
 C552 C 0.47649 0.10453 1.18826
 C553 C 0.49513 0.13791 1.14609
 C554 C 0.49488 0.14830 1.13119
 C555 C 0.49460 0.15972 1.11323
 C556 C 0.49438 0.16883 1.09746
 C557 C 0.49420 0.17891 1.07816
 C558 C 0.50649 0.19788 1.07643
 C559 C 0.50719 0.20689 1.05725
 C560 C 0.49568 0.19695 1.03955
 C561 C 0.48306 0.17812 1.04158
 C562 C 0.48234 0.16917 1.06075
 H563 H 0.46176 0.12472 1.16779
 H564 H 0.52902 0.12128 1.16253
 H565 H 0.52908 0.09623 1.18964
 H566 H 0.46167 0.09998 1.19522
 H567 H 0.51580 0.20549 1.08979
 H568 H 0.51722 0.22128 1.05611
 H569 H 0.47379 0.17027 1.02831
 H570 H 0.47277 0.15449 1.06191
 C571 C -0.00112 0.66632 0.60657
 C572 C -0.01983 0.65927 0.61568
 C573 C -0.03889 0.66765 0.61038
 C574 C -0.03928 0.68282 0.59577
 C575 C -0.02059 0.68975 0.58626
 C576 C -0.00147 0.68146 0.59198
 C577 C -0.01955 0.64274 0.62972
 C578 C -0.01901 0.62852 0.64101
 C579 C -0.01800 0.61146 0.65366
 C580 C -0.01679 0.59654 0.66396
 C581 C -0.01489 0.57833 0.67561
 C582 C -0.02418 0.55861 0.66748
 C583 C -0.02102 0.54057 0.67787
 C584 C -0.00846 0.54201 0.69653
 C585 C 0.00036 0.56198 0.70488
 C586 C -0.00281 0.58001 0.69444
 H587 H 0.01369 0.65983 0.61046
 H588 H -0.05347 0.66229 0.61733
 H589 H -0.05420 0.68907 0.59188
 H590 H 0.01312 0.68622 0.58472
 H591 H -0.03356 0.55712 0.65292
 H592 H -0.02824 0.52546 0.67122
 H593 H 0.01028 0.56354 0.71909
 H594 H 0.00456 0.59518 0.70081
 C595 C 0.48538 0.87913 -0.17051
 C596 C 0.50476 0.87573 -0.16068
 C597 C 0.52352 0.88606 -0.16690
 C598 C 0.52290 0.90004 -0.18261
 C599 C 0.50345 0.90393 -0.19228
 C600 C 0.48472 0.89312 -0.18622
 C601 C 0.50528 0.86263 -0.14342
 C602 C 0.50573 0.85222 -0.12854
 C603 C 0.50621 0.84071 -0.11063
 C604 C 0.50656 0.83148 -0.09495
 C605 C 0.50685 0.82119 -0.07577
 C606 C 0.49438 0.80231 -0.07412
 C607 C 0.49373 0.79310 -0.05504
 C608 C 0.50549 0.80275 -0.03736
 C609 C 0.51831 0.82148 -0.03932
 C610 C 0.51896 0.83063 -0.05839
 H611 H 0.47075 0.87125 -0.16579
 H612 H 0.53859 0.88367 -0.15929
 H613 H 0.53756 0.90833 -0.18668
 H614 H 0.46954 0.89559 -0.19353
 H615 H 0.48487 0.79492 -0.08746
 H616 H 0.48355 0.77880 -0.05395
 H617 H 0.52775 0.82912 -0.02606
 H618 H 0.52867 0.84523 -0.05949
 C619 C 1.03581 0.33349 0.38942
 C620 C 1.01690 0.34209 0.38421
 C621 C 0.99820 0.33517 0.39331
 C622 C 0.99840 0.32002 0.40789
 C623 C 1.01744 0.31140 0.41383
 C624 C 1.03612 0.31828 0.40398
 C625 C 1.01675 0.35867 0.37022
 C626 C 1.01634 0.37294 0.35898
 C627 C 1.01553 0.39005 0.34637
 C628 C 1.01454 0.40499 0.33606
 C629 C 1.01296 0.42320 0.32434
 C630 C 1.00146 0.42146 0.30517
 C631 C 0.99879 0.43945 0.29449
 C632 C 1.00751 0.45941 0.30294
 C633 C 1.01941 0.46091 0.32200
 C634 C 1.02208 0.44292 0.33262
 H635 H 1.05045 0.33889 0.38258
 H636 H 0.98340 0.34161 0.38924
 H637 H 0.98337 0.31481 0.41399
 H638 H 1.05136 0.31293 0.40818
 H639 H 0.99423 0.40629 0.29867
 H640 H 0.98936 0.43784 0.27997
 H641 H 1.02656 0.47602 0.32875
 H642 H 1.03101 0.44444 0.34746
 C643 C 0.47528 0.91891 0.16633
 C644 C 0.49402 0.91411 0.15688
 C645 C 0.51301 0.92581 0.16322
 C646 C 0.51331 0.94245 0.17875
 C647 C 0.49450 0.94786 0.18837
 C648 C 0.47547 0.93552 0.18193
 C649 C 0.49375 0.89763 0.14020
 C650 C 0.49385 0.88418 0.12593
 C651 C 0.49435 0.86888 0.10889
 C652 C 0.49511 0.85621 0.09405
 C653 C 0.49642 0.84160 0.07598
 C654 C 0.51074 0.84644 0.06063
 C655 C 0.51193 0.83258 0.04285
 C656 C 0.49878 0.81365 0.04014
 C657 C 0.48454 0.80881 0.05574
 C658 C 0.48336 0.82274 0.07354
 H659 H 0.46042 0.91003 0.16139
 H660 H 0.52767 0.92212 0.15611
 H661 H 0.52857 0.95052 0.18352
 H662 H 0.46039 0.93913 0.18804
 H663 H 0.52097 0.86096 0.06239
 H664 H 0.52328 0.83659 0.03128
 H665 H 0.47408 0.79446 0.05400
 H666 H 0.47218 0.81887 0.08531
 C667 C 0.04215 0.34156 0.58709
 C668 C 0.02310 0.34963 0.59288
 C669 C 0.00403 0.34148 0.58259
 C670 C 0.00398 0.32544 0.56647
 C671 C 0.02305 0.31732 0.56038
 C672 C 0.04214 0.32550 0.57094
 C673 C 0.02305 0.36669 0.60894
 C674 C 0.02256 0.38119 0.62208
 C675 C 0.02148 0.39842 0.63709
 C676 C 0.02013 0.41334 0.64956
 C677 C 0.01799 0.43142 0.66399
 C678 C 0.00609 0.42935 0.68177
 C679 C 0.00280 0.44718 0.69500
 C680 C 0.01131 0.46731 0.69054
 C681 C 0.02363 0.46915 0.67287
 C682 C 0.02692 0.45131 0.65969
 H683 H 0.05701 0.34776 0.59496
 H684 H -0.01079 0.34770 0.58686
 H685 H -0.01093 0.31974 0.55845
 H686 H 0.05705 0.31943 0.56677
 H687 H -0.00100 0.41404 0.68519
 H688 H -0.00695 0.44530 0.70835
 H689 H 0.03063 0.48439 0.66920
 H690 H 0.03615 0.45309 0.64596
 C691 C 0.48798 0.07367 0.83870
 C692 C 0.50722 0.08475 0.84560
 C693 C 0.52605 0.07944 0.83653
 C694 C 0.52566 0.06301 0.82071
 C695 C 0.50640 0.05168 0.81378
 C696 C 0.48755 0.05726 0.82290
 C697 C 0.50761 0.10114 0.86238
 C698 C 0.50758 0.11456 0.87667
 C699 C 0.50715 0.12990 0.89370
 C700 C 0.50641 0.14263 0.90850
 C701 C 0.50508 0.15733 0.92650
 C702 C 0.51790 0.17635 0.92871
 C703 C 0.51663 0.19041 0.94640
 C704 C 0.50255 0.18554 0.96212
 C705 C 0.48965 0.16644 0.95965
 C706 C 0.49093 0.15246 0.94197
 H707 H 0.47333 0.07757 0.84570
 H708 H 0.54103 0.08791 0.84175
 H709 H 0.54039 0.05925 0.81384
 H710 H 0.47252 0.04865 0.81815
 H711 H 0.52895 0.18026 0.91683
 H712 H 0.52690 0.20489 0.94796
 H713 H 0.47841 0.16240 0.97130
 H714 H 0.48088 0.13781 0.94039
 C715 C 0.95786 0.65733 0.41308
 C716 C 0.97693 0.65238 0.40429
 C717 C 0.99601 0.66327 0.41194
 C718 C 0.99610 0.67884 0.42851
 C719 C 0.97706 0.68373 0.43769
 C720 C 0.95790 0.67294 0.42966
 C721 C 0.97712 0.63553 0.38803
 C722 C 0.97768 0.62114 0.37479
 C723 C 0.97880 0.60396 0.35973
 C724 C 0.98015 0.58900 0.34730
 C725 C 0.98226 0.57080 0.33303
 C726 C 0.97259 0.55114 0.33711
 C727 C 0.97591 0.53312 0.32421
 C728 C 0.98899 0.53452 0.30705
 C729 C 0.99822 0.55445 0.30274
 C730 C 0.99490 0.57246 0.31569
 H731 H 0.94301 0.64891 0.40735
 H732 H 1.01087 0.65956 0.40526
 H733 H 1.01106 0.68707 0.43416
 H734 H 0.94302 0.67617 0.43654
 H735 H 0.96279 0.54967 0.35049
 H736 H 0.96836 0.51804 0.32775
 H737 H 1.00855 0.55599 0.28978
 H738 H 1.00255 0.58759 0.31245
 C739 C 1.17773 0.48418 0.11313
 C740 C 1.15690 0.47578 0.10850
 C741 C 1.15105 0.46709 0.08831
 C742 C 1.16577 0.46714 0.07265
 C743 C 1.18684 0.47601 0.07677
 C744 C 1.19259 0.48423 0.09751
 C745 C 1.14115 0.47677 0.12408
 C746 C 1.12731 0.47773 0.13643
 C747 C 1.11039 0.47902 0.15006
 C748 C 1.09539 0.48026 0.16099
 C749 C 1.07686 0.48195 0.17314
 C750 C 1.05745 0.47185 0.16537
 C751 C 1.03903 0.47464 0.17622
 C752 C 1.03976 0.48764 0.19501
 C753 C 1.05943 0.49731 0.20299
 C754 C 1.07786 0.49452 0.19208
 H755 H 1.18239 0.49111 0.12872
 H756 H 1.13499 0.46035 0.08459
 H757 H 1.16051 0.45963 0.05747
 H758 H 1.20821 0.49178 0.10168
 H759 H 1.05648 0.46209 0.15072
 H760 H 1.02416 0.46676 0.16984
 H761 H 1.06044 0.50757 0.21731
 H762 H 1.09279 0.50252 0.19817
 C763 C 0.59703 -0.00129 0.66423
 C764 C 0.60602 -0.01957 0.65663
 C765 C 0.60024 -0.03885 0.66476
 C766 C 0.58531 -0.03988 0.68026
 C767 C 0.57596 -0.02162 0.68780
 C768 C 0.58212 -0.00228 0.67972
 C769 C 0.62055 -0.01862 0.63994
 C770 C 0.63234 -0.01759 0.62567
 C771 C 0.64571 -0.01609 0.60864
 C772 C 0.65675 -0.01453 0.59384
 C773 C 0.66945 -0.01232 0.57588
 C774 C 0.66154 -0.02085 0.55614
 C775 C 0.67327 -0.01771 0.53846
 C776 C 0.69308 -0.00594 0.54030
 C777 C 0.70109 0.00223 0.56026
 C778 C 0.68932 -0.00092 0.57793
 H779 H 0.60130 0.01369 0.65796
 H780 H 0.60710 -0.05310 0.65898
 H781 H 0.58107 -0.05495 0.68633
 H782 H 0.57499 0.01199 0.68494
 H783 H 0.64618 -0.02971 0.55437
 H784 H 0.66682 -0.02443 0.52334
 H785 H 0.71618 0.01155 0.56214
 H786 H 0.69555 0.00584 0.59313
 C787 C -0.16478 0.53680 0.89509
 C788 C -0.15644 0.51776 0.88870
 C789 C -0.16396 0.49909 0.89702
 C790 C -0.17954 0.49945 0.91187
 C791 C -0.18781 0.51855 0.91866
 C792 C -0.18038 0.53720 0.90996
 C793 C -0.13949 0.51742 0.87437
 C794 C -0.12493 0.51677 0.86281
 C795 C -0.10749 0.51556 0.84983
 C796 C -0.09225 0.51414 0.83925
 C797 C -0.07366 0.51194 0.82727
 C798 C -0.05981 0.49678 0.83205
 C799 C -0.04141 0.49481 0.82097
 C800 C -0.03656 0.50801 0.80493
 C801 C -0.05069 0.52306 0.80005
 C802 C -0.06912 0.52503 0.81120
 H803 H -0.15905 0.55136 0.88877
 H804 H -0.15751 0.48429 0.89229
 H805 H -0.18466 0.48488 0.91848
 H806 H -0.18661 0.55210 0.91468
 H807 H -0.06319 0.48652 0.84441
 H808 H -0.03103 0.48284 0.82485
 H809 H -0.04729 0.53355 0.78790
 H810 H -0.07971 0.53685 0.80742
 C811 C 0.40209 0.03767 0.33938
 C812 C 0.39244 0.01822 0.34417
 C813 C 0.39773 -0.00043 0.33335
 C814 C 0.41284 0.00033 0.31803
 C815 C 0.42290 0.01977 0.31334
 C816 C 0.41720 0.03846 0.32405
 C817 C 0.37785 0.01728 0.36080
 C818 C 0.36602 0.01633 0.37505
 C819 C 0.35266 0.01502 0.39210
 C820 C 0.34168 0.01370 0.40697
 C821 C 0.32912 0.01189 0.42508
 C822 C 0.33701 0.02119 0.44454
 C823 C 0.32545 0.01850 0.46241
 C824 C 0.30582 0.00642 0.46104
 C825 C 0.29781 -0.00254 0.44134
 C826 C 0.30942 0.00015 0.42348
 H827 H 0.39821 0.05218 0.34776
 H828 H 0.39037 -0.01557 0.33693
 H829 H 0.41669 -0.01430 0.30987
 H830 H 0.42485 0.05364 0.32101
 H831 H 0.35223 0.03032 0.44596
 H832 H 0.33189 0.02584 0.47731
 H833 H 0.28285 -0.01211 0.43983
 H834 H 0.30320 -0.00721 0.40849
 C835 C 0.16218 0.46441 0.90510
 C836 C 0.16145 0.48237 0.89395
 C837 C 0.17638 0.49961 0.89872
 C838 C 0.19166 0.49910 0.91489
 C839 C 0.19217 0.48133 0.92656
 C840 C 0.17746 0.46386 0.92127
 C841 C 0.14456 0.48370 0.87863
 C842 C 0.12999 0.48517 0.86637
 C843 C 0.11247 0.48730 0.85271
 C844 C 0.09715 0.48948 0.84165
 C845 C 0.07844 0.49250 0.82920
 C846 C 0.06487 0.50756 0.83629
 C847 C 0.04633 0.51025 0.82473
 C848 C 0.04105 0.49788 0.80589
 C849 C 0.05491 0.48294 0.79873
 C850 C 0.07348 0.48025 0.81036
 H851 H 0.15060 0.45104 0.90165
 H852 H 0.17594 0.51361 0.89021
 H853 H 0.20293 0.51268 0.91842
 H854 H 0.17726 0.45007 0.93013
 H855 H 0.06858 0.51716 0.85083
 H856 H 0.03616 0.52211 0.83048
 H857 H 0.05116 0.47306 0.78438
 H858 H 0.08385 0.46849 0.80476
 C859 C 0.59225 0.00808 0.33968
 C860 C 0.60294 0.02707 0.34806
 C861 C 0.59814 0.04612 0.34025
 C862 C 0.58253 0.04619 0.32427
 C863 C 0.57152 0.02718 0.31591
 C864 C 0.57666 0.00811 0.32374
 C865 C 0.61826 0.02692 0.36514
 C866 C 0.63069 0.02630 0.37970
 C867 C 0.64477 0.02503 0.39701
 C868 C 0.65637 0.02348 0.41202
 C869 C 0.66967 0.02106 0.43018
 C870 C 0.66483 0.03039 0.44970
 C871 C 0.67676 0.02680 0.46763
 C872 C 0.69367 0.01378 0.46628
 C873 C 0.69873 0.00488 0.44652
 C874 C 0.68677 0.00847 0.42860
 H875 H 0.59574 -0.00674 0.34570
 H876 H 0.60631 0.06092 0.34663
 H877 H 0.57909 0.06110 0.31843
 H878 H 0.56826 -0.00675 0.31791
 H879 H 0.65162 0.04015 0.45111
 H880 H 0.67266 0.03410 0.48258
 H881 H 0.71150 -0.00541 0.44501
 H882 H 0.69057 0.00107 0.41358
 C883 C 0.83480 0.49960 0.09080
 C884 C 0.84591 0.51840 0.09910
 C885 C 0.84131 0.53759 0.09148
 C886 C 0.82587 0.53795 0.07540
 C887 C 0.81492 0.51906 0.06667
 C888 C 0.81940 0.49991 0.07472
 C889 C 0.86271 0.51773 0.11469
 C890 C 0.87708 0.51664 0.12728
 C891 C 0.89425 0.51474 0.14145
 C892 C 0.90921 0.51259 0.15302
 C893 C 0.92740 0.50938 0.16613
 C894 C 0.93233 0.52217 0.18466
 C895 C 0.95029 0.51907 0.19705
 C896 C 0.96356 0.50317 0.19097
 C897 C 0.95832 0.49032 0.17240
 C898 C 0.94039 0.49342 0.16009
 H899 H 0.83823 0.48465 0.09657
 H900 H 0.84991 0.55223 0.09771
 H901 H 0.82294 0.55291 0.06938
 H902 H 0.81102 0.48515 0.06853
 H903 H 0.92239 0.53460 0.18946
 H904 H 0.95401 0.52932 0.21116
 H905 H 0.96802 0.47773 0.16748
 H906 H 0.93669 0.48338 0.14582
 C907 C 0.40149 -0.00776 0.66715
 C908 C 0.39404 -0.02655 0.65557
 C909 C 0.40240 -0.04552 0.65985
 C910 C 0.41845 -0.04563 0.67540
 C911 C 0.42640 -0.02672 0.68675
 C912 C 0.41753 -0.00783 0.68265
 C913 C 0.37878 -0.02598 0.63850
 C914 C 0.36655 -0.02486 0.62388
 C915 C 0.35292 -0.02281 0.60641
 C916 C 0.34191 -0.02042 0.59120
 C917 C 0.32959 -0.01682 0.57274
 C918 C 0.31051 -0.02891 0.56722
 C919 C 0.29888 -0.02535 0.54904
 C920 C 0.30628 -0.00970 0.53616
 C921 C 0.32539 0.00243 0.54196
 C922 C 0.33694 -0.00113 0.56010
 H923 H 0.39516 0.00702 0.66396
 H924 H 0.39685 -0.06013 0.65088
 H925 H 0.42511 -0.06038 0.67805
 H926 H 0.42312 0.00692 0.69133
 H927 H 0.30469 -0.04112 0.57688
 H928 H 0.28431 -0.03505 0.54488
 H929 H 0.33132 0.01483 0.53258
 H930 H 0.35165 0.00838 0.56426
   
