data_POSCAR
  _audit_creation_date              2014-09-24
  _audit_creation_method            'ToBaCCo'
  _symmetry_space_group_name_H-M    'P1'
  _symmetry_Int_Tables_number       1
  _symmetry_cell_setting            triclinic
  loop_
  _symmetry_equiv_pos_as_xyz
 x,y,z
_cell_length_a 29.4928
_cell_length_b 29.5344
_cell_length_c 29.5701
_cell_angle_alpha 102.955100
_cell_angle_beta 76.600100
_cell_angle_gamma 76.201200
loop_
  _atom_site_label
  _atom_site_type_symbol
  _atom_site_fract_x
  _atom_site_fract_y
  _atom_site_fract_z
C1 C 0.54465 0.50882 0.00306
 C2 C 0.50858 0.54508 -0.00430
 C3 C 0.46440 0.53680 -0.00762
 C4 C 0.45560 0.49300 -0.00380
 C5 C 0.49163 0.45682 0.00353
 C6 C 0.53578 0.46503 0.00686
 H7 H 0.56347 0.43698 0.01237
 H8 H 0.43657 0.56475 -0.01313
 C9 C -0.00375 0.45668 0.50863
 C10 C 0.00426 0.49192 0.54409
 C11 C 0.00786 0.53588 0.53551
 C12 C 0.00366 0.54520 0.49197
 C13 C -0.00433 0.50988 0.45646
 C14 C -0.00793 0.46593 0.46511
 H15 H -0.01394 0.43868 0.43771
 H16 H 0.01387 0.56304 0.56304
 C17 C 0.49268 0.00300 0.45623
 C18 C 0.45684 -0.00473 0.49174
 C19 C 0.46502 -0.00796 0.53589
 C20 C 0.50856 -0.00368 0.54520
 C21 C 0.54453 0.00406 0.50955
 C22 C 0.53621 0.00729 0.46539
 H23 H 0.56384 0.01309 0.43782
 H24 H 0.43716 -0.01377 0.56322
 O25 O 0.46523 0.00062 -0.05632
 O26 O 0.45512 0.01652 0.07318
 O27 O 0.45477 0.07358 0.01706
 O28 O 0.46555 -0.05637 -0.00027
 O29 O 0.54585 -0.07443 -0.01803
 O30 O 0.53507 0.05553 -0.00073
 O31 O 0.53542 -0.00145 0.05532
 O32 O 0.54553 -0.01737 -0.07418
 Cu33 Cu 0.45213 0.01037 0.01018
 Cu34 Cu 0.54850 -0.01122 -0.01117
 C35 C 0.50700 -0.01052 -0.08734
 C36 C 0.49365 0.00968 0.08634
 C37 C 0.49318 0.08674 0.01055
 C38 C 0.50743 -0.08758 -0.01152
 O39 O -0.07401 0.54566 1.01639
 O40 O 0.05604 0.53547 1.00035
 O41 O 0.00028 0.53471 0.94340
 O42 O -0.01816 0.54640 1.07343
 O43 O -0.00005 0.46641 1.05684
 O44 O 0.01839 0.45472 0.92681
 O45 O 0.07425 0.45548 0.98383
 O46 O -0.05580 0.46567 0.99987
 Cu47 Cu -0.01077 0.54857 1.01003
 Cu48 Cu 0.01101 0.45256 0.99020
 C49 C -0.08709 0.50729 1.01029
 C50 C 0.08733 0.49385 0.98992
 C51 C 0.01189 0.49284 0.91292
 C52 C -0.01166 0.50828 1.08732
 O53 O 0.01642 -0.07366 0.45499
 O54 O -0.00050 0.05638 0.46593
 O55 O 0.07330 -0.01791 0.45462
 O56 O -0.05731 0.00072 0.46632
 O57 O -0.07434 0.01744 0.54605
 O58 O 0.05625 -0.00118 0.53435
 O59 O -0.01745 0.07320 0.54566
 O60 O -0.00054 -0.05684 0.53471
 Cu61 Cu 0.00966 -0.01028 0.45248
 Cu62 Cu -0.01071 0.00982 0.54818
 C63 C 0.01026 -0.08743 0.49310
 C64 C -0.01128 0.08697 0.50755
 C65 C 0.08706 -0.01214 0.49261
 C66 C -0.08810 0.01167 0.50807
 C67 C -0.22182 0.55916 1.02325
 C68 C -0.23592 0.51675 1.01529
 C69 C -0.20184 0.47157 1.00748
 C70 C -0.15368 0.46861 1.00685
 C71 C -0.41143 0.51461 1.00630
 C72 C -0.17362 0.55631 1.02266
 C73 C -0.28487 0.51903 1.01387
 C74 C -0.32535 0.51940 1.01194
 C75 C -0.37210 0.51784 1.00906
 C76 C -0.13888 0.51090 1.01401
 H77 H -0.24789 0.59433 1.02931
 H78 H -0.21234 0.43850 1.00128
 H79 H -0.12790 0.43311 1.00006
 H80 H -0.16340 0.58953 1.02822
 C81 C 0.20211 0.52962 0.99244
 C82 C 0.23622 0.48445 0.98460
 C83 C 0.22213 0.44203 0.97676
 C84 C 0.17390 0.44486 0.97746
 C85 C 0.41178 0.48699 0.99306
 C86 C 0.15393 0.53255 0.99320
 C87 C 0.28521 0.48221 0.98587
 C88 C 0.32571 0.48192 0.98767
 C89 C 0.37246 0.48361 0.99041
 C90 C 0.13913 0.49025 0.98612
 H91 H 0.21261 0.56270 0.99856
 H92 H 0.24823 0.40687 0.97067
 H93 H 0.16369 0.41163 0.97197
 H94 H 0.12812 0.56805 0.99999
 C95 C 0.00812 -0.20290 0.52805
 C96 C 0.01606 -0.23618 0.48294
 C97 C 0.02395 -0.22134 0.44079
 C98 C 0.02314 -0.17317 0.44385
 C99 C 0.00704 -0.41118 0.48560
 C100 C 0.00726 -0.15477 0.53122
 C101 C 0.01474 -0.28505 0.48051
 C102 C 0.01283 -0.32543 0.48019
 C103 C 0.00989 -0.37202 0.48200
 C104 C 0.01432 -0.13921 0.48921
 H105 H 0.00196 -0.21400 0.56091
 H106 H 0.03010 -0.24681 0.40568
 H107 H 0.02862 -0.16233 0.41085
 H108 H 0.00035 -0.12960 0.56668
 C109 C -0.00895 0.20240 0.47259
 C110 C -0.01685 0.23566 0.51770
 C111 C -0.02480 0.22083 0.55985
 C112 C -0.02409 0.17268 0.55679
 C113 C -0.00742 0.41062 0.51535
 C114 C -0.00817 0.15429 0.46942
 C115 C -0.01541 0.28450 0.52013
 C116 C -0.01340 0.32487 0.52050
 C117 C -0.01035 0.37145 0.51881
 C118 C -0.01529 0.13874 0.51143
 H119 H -0.00274 0.21349 0.43972
 H120 H -0.03093 0.24628 0.59496
 H121 H -0.02961 0.16185 0.58979
 H122 H -0.00128 0.12913 0.43396
 C123 C 0.47110 -0.00684 -0.20184
 C124 C 0.51646 -0.01550 -0.23568
 C125 C 0.55905 -0.02428 -0.22148
 C126 C 0.55619 -0.02369 -0.17342
 C127 C 0.51438 -0.00682 -0.41092
 C128 C 0.46813 -0.00620 -0.15383
 C129 C 0.51878 -0.01415 -0.28452
 C130 C 0.51916 -0.01229 -0.32493
 C131 C 0.51761 -0.00950 -0.37162
 C132 C 0.51060 -0.01421 -0.13894
 H133 H 0.43789 0.00000 -0.21243
 H134 H 0.59437 -0.03101 -0.24736
 H135 H 0.58955 -0.02991 -0.16313
 H136 H 0.43248 0.00125 -0.12824
 C137 C 0.52957 0.00612 0.20085
 C138 C 0.48421 0.01479 0.23470
 C139 C 0.44162 0.02353 0.22050
 C140 C 0.44448 0.02289 0.17244
 C141 C 0.48632 0.00629 0.40997
 C142 C 0.53253 0.00543 0.15283
 C143 C 0.48191 0.01350 0.28356
 C144 C 0.48154 0.01168 0.32397
 C145 C 0.48309 0.00893 0.37067
 C146 C 0.49006 0.01340 0.13794
 H147 H 0.56278 -0.00069 0.21144
 H148 H 0.40631 0.03026 0.24640
 H149 H 0.41111 0.02908 0.16215
 H150 H 0.56818 -0.00201 0.12724
 C151 C 0.55997 -0.22222 -0.02575
 C152 C 0.51749 -0.23638 -0.01745
 C153 C 0.47206 -0.20239 -0.00910
 C154 C 0.46891 -0.15423 -0.00823
 C155 C 0.51488 -0.41133 -0.00791
 C156 C 0.55693 -0.17402 -0.02494
 C157 C 0.51990 -0.28528 -0.01605
 C158 C 0.52022 -0.32566 -0.01403
 C159 C 0.51844 -0.37222 -0.01094
 C160 C 0.51126 -0.13936 -0.01568
 H161 H 0.59533 -0.24824 -0.03222
 H162 H 0.43893 -0.21296 -0.00262
 H163 H 0.43321 -0.12851 -0.00099
 H164 H 0.59021 -0.16372 -0.03073
 C165 C 0.44052 0.22142 0.02501
 C166 C 0.48299 0.23560 0.01664
 C167 C 0.52845 0.20161 0.00816
 C168 C 0.53165 0.15343 0.00722
 C169 C 0.48501 0.41075 0.00734
 C170 C 0.44361 0.17319 0.02413
 C171 C 0.48050 0.28453 0.01532
 C172 C 0.48006 0.32495 0.01336
 C173 C 0.48165 0.37158 0.01032
 C174 C 0.48931 0.13853 0.01475
 H175 H 0.40514 0.24744 0.03158
 H176 H 0.56157 0.21220 0.00162
 H177 H 0.56738 0.12770 -0.00012
 H178 H 0.41035 0.16288 0.02998
 C179 C -0.20398 0.01086 0.47378
 C180 C -0.23740 0.01846 0.51898
 C181 C -0.22259 0.02587 0.56100
 C182 C -0.17424 0.02486 0.55770
 C183 C -0.41209 0.00808 0.51620
 C184 C -0.15568 0.00978 0.47038
 C185 C -0.28632 0.01699 0.52155
 C186 C -0.32667 0.01481 0.52190
 C187 C -0.37312 0.01142 0.51999
 C188 C -0.14011 0.01627 0.51224
 H189 H -0.21508 0.00506 0.44102
 H190 H -0.24817 0.03174 0.59616
 H191 H -0.16339 0.02990 0.59059
 H192 H -0.13037 0.00308 0.43486
 C193 C 0.22157 -0.02647 0.43970
 C194 C 0.23638 -0.01909 0.48173
 C195 C 0.20294 -0.01148 0.52691
 C196 C 0.15463 -0.01034 0.53031
 C197 C 0.41113 -0.00895 0.48451
 C198 C 0.17321 -0.02539 0.44299
 C199 C 0.28532 -0.01769 0.47916
 C200 C 0.32568 -0.01557 0.47882
 C201 C 0.37215 -0.01225 0.48073
 C202 C 0.13907 -0.01678 0.48844
 H203 H 0.24717 -0.03234 0.40454
 H204 H 0.21404 -0.00570 0.55968
 H205 H 0.12931 -0.00362 0.56583
 H206 H 0.16236 -0.03040 0.41009
 C207 C -0.01002 0.47391 1.20299
 C208 C -0.01847 0.51929 1.23612
 C209 C -0.02670 0.56145 1.22115
 C210 C -0.02566 0.55811 1.17295
 C211 C -0.00849 0.51696 1.41066
 C212 C -0.00891 0.47046 1.15484
 C213 C -0.01710 0.52195 1.28494
 C214 C -0.01501 0.52238 1.32524
 C215 C -0.01173 0.52061 1.37168
 C216 C -0.01623 0.51247 1.13912
 H217 H -0.00358 0.44104 1.21421
 H218 H -0.03323 0.59676 1.24651
 H219 H -0.03135 0.59112 1.16198
 H220 H -0.00156 0.43479 1.12976
 C221 C 0.01018 0.52725 0.79728
 C222 C 0.01855 0.48188 0.76416
 C223 C 0.02677 0.43971 0.77912
 C224 C 0.02578 0.44303 0.82731
 C225 C 0.00841 0.48460 0.58976
 C226 C 0.00913 0.53067 0.84542
 C227 C 0.01713 0.47926 0.71536
 C228 C 0.01500 0.47890 0.67509
 C229 C 0.01168 0.48080 0.62869
 C230 C 0.01643 0.48866 0.86112
 H231 H 0.00376 0.56012 0.78607
 H232 H 0.03324 0.40441 0.75376
 H233 H 0.03145 0.41002 0.83827
 H234 H 0.00182 0.56633 0.87049
   
