data_POSCAR
  _audit_creation_date              2014-09-24
  _audit_creation_method            'ToBaCCo'
  _symmetry_space_group_name_H-M    'P1'
  _symmetry_Int_Tables_number       1
  _symmetry_cell_setting            triclinic
  loop_
  _symmetry_equiv_pos_as_xyz
 x,y,z
_cell_length_a 50.8114
_cell_length_b 50.8631
_cell_length_c 29.4023
_cell_angle_alpha 90.000900
_cell_angle_beta 89.948900
_cell_angle_gamma 120.064400
loop_
  _atom_site_label
  _atom_site_type_symbol
  _atom_site_fract_x
  _atom_site_fract_y
  _atom_site_fract_z
O1 O 0.46389 0.97080 0.54358
 O2 O 0.49348 1.03001 0.45502
 O3 O 0.46385 0.97089 0.45500
 O4 O 0.49336 1.02993 0.54361
 O5 O 0.53682 1.03005 0.54356
 O6 O 0.50730 0.97098 0.45488
 O7 O 0.53689 1.03010 0.45497
 O8 O 0.50736 0.97092 0.54346
 Cu9 Cu 0.47430 1.00040 0.49931
 Cu10 Cu 0.52644 1.00053 0.49921
 C11 C 0.48058 0.96074 0.55873
 C12 C 0.52028 1.04023 0.43969
 C13 C 0.48052 0.96083 0.43971
 C14 C 0.52013 1.04008 0.55883
 O15 O -0.03063 0.46294 0.45575
 O16 O 0.02856 0.49248 0.54428
 O17 O -0.03062 0.46288 0.54435
 O18 O 0.02855 0.49241 0.45570
 O19 O 0.02862 0.53580 0.45567
 O20 O -0.03057 0.50623 0.54438
 O21 O 0.02861 0.53586 0.54425
 O22 O -0.03056 0.50629 0.45578
 Cu23 Cu -0.00105 0.47334 0.50002
 Cu24 Cu -0.00097 0.52538 0.50002
 C25 C -0.04076 0.47954 0.44045
 C26 C 0.03871 0.51923 0.55947
 C27 C -0.04076 0.47947 0.55971
 C28 C 0.03871 0.51915 0.44044
 O29 O 0.49289 0.46376 0.54514
 O30 O 0.46335 0.49327 0.45648
 O31 O 0.49284 0.46367 0.45656
 O32 O 0.46328 0.49324 0.54507
 O33 O 0.50667 0.53661 0.54504
 O34 O 0.53629 0.50707 0.45646
 O35 O 0.50680 0.53667 0.45645
 O36 O 0.53633 0.50717 0.54504
 Cu37 Cu 0.47374 0.47415 0.50082
 Cu38 Cu 0.52587 0.52623 0.50074
 C39 C 0.51967 0.48043 0.56032
 C40 C 0.48003 0.52002 0.44123
 C41 C 0.51962 0.48031 0.44129
 C42 C 0.47988 0.52000 0.56037
 O43 O 0.37899 0.65927 -0.03836
 O44 O 0.37761 0.70913 -0.05312
 C45 C 0.36350 0.72325 -0.06146
 O46 O 0.34059 0.71928 -0.03838
 O47 O 0.29063 0.66797 -0.05298
 C48 C 0.27647 0.63972 -0.06129
 O49 O 0.28043 0.62081 -0.03824
 O50 O 0.33176 0.62225 -0.05298
 C51 C 0.36003 0.63637 -0.06137
 O52 O 0.37760 0.66810 0.05200
 O53 O 0.37900 0.71935 0.03723
 C54 C 0.36005 0.72329 0.06030
 O55 O 0.33177 0.70912 0.05201
 O56 O 0.28043 0.65919 0.03741
 C57 C 0.27646 0.63631 0.06047
 O58 O 0.29062 0.62223 0.05212
 O59 O 0.34056 0.62090 0.03739
 C60 C 0.36347 0.63986 0.06040
 Cr61 Cr 0.37666 0.68815 -0.00056
 Cr62 Cr 0.31167 0.68807 -0.00048
 Cr63 Cr 0.31166 0.62318 -0.00043
 O64 O 0.33333 0.66647 -0.00049
 O65 O 0.62118 0.34057 -0.03721
 O66 O 0.62255 0.29070 -0.05194
 C67 C 0.63667 0.27658 -0.06032
 O68 O 0.65957 0.28054 -0.03730
 O69 O 0.70952 0.33184 -0.05206
 C70 C 0.72367 0.36008 -0.06047
 O71 O 0.71974 0.37901 -0.03741
 O72 O 0.66841 0.37758 -0.05201
 C73 C 0.64014 0.36346 -0.06030
 O74 O 0.62257 0.33176 0.05314
 O75 O 0.62116 0.28050 0.03843
 C76 C 0.64011 0.27657 0.06145
 O77 O 0.66838 0.29073 0.05306
 O78 O 0.71972 0.34064 0.03830
 C79 C 0.72368 0.36352 0.06134
 O80 O 0.70954 0.37762 0.05299
 O81 O 0.65961 0.37896 0.03837
 C82 C 0.63670 0.36001 0.06146
 Cr83 Cr 0.62350 0.31170 0.00060
 Cr84 Cr 0.68848 0.31175 0.00050
 Cr85 Cr 0.68851 0.37666 0.00049
 O86 O 0.66683 0.33337 0.00054
 C87 C 0.47599 0.90362 -0.35410
 C88 C 0.44661 0.89246 -0.33682
 C89 C 0.42826 0.90347 -0.35385
 C90 C 0.43924 0.92562 -0.38795
 C91 C 0.46879 0.93707 -0.40546
 C92 C 0.48703 0.92577 -0.38819
 C93 C 0.43541 0.86989 -0.30138
 C94 C 0.42612 0.85108 -0.27157
 C95 C 0.41533 0.82918 -0.23651
 C96 C 0.40618 0.81057 -0.20642
 C97 C 0.39532 0.78847 -0.17034
 C98 C 0.36986 0.78315 -0.14482
 C99 C 0.35945 0.76190 -0.10947
 C100 C 0.37442 0.74566 -0.09912
 C101 C 0.39996 0.75112 -0.12513
 C102 C 0.41032 0.77239 -0.16047
 H103 H 0.49039 0.89527 -0.34113
 H104 H 0.40548 0.89499 -0.34069
 H105 H 0.42463 0.93383 -0.40049
 H106 H 0.50986 0.93409 -0.40092
 H107 H 0.35809 0.79547 -0.15218
 H108 H 0.33971 0.75825 -0.09023
 H109 H 0.41200 0.73902 -0.11816
 H110 H 0.43006 0.77633 -0.18001
 C111 C 0.09590 0.52409 -0.35322
 C112 C 0.10701 0.55347 -0.33616
 C113 C 0.09593 0.57172 -0.35337
 C114 C 0.07377 0.56063 -0.38743
 C115 C 0.06238 0.53109 -0.40474
 C116 C 0.07374 0.51295 -0.38729
 C117 C 0.12960 0.56482 -0.30077
 C118 C 0.14843 0.57433 -0.27100
 C119 C 0.17036 0.58545 -0.23600
 C120 C 0.18900 0.59493 -0.20597
 C121 C 0.21114 0.60621 -0.16995
 C122 C 0.22728 0.63730 -0.16011
 C123 C 0.24858 0.64825 -0.12485
 C124 C 0.25403 0.62819 -0.09888
 C125 C 0.23773 0.59696 -0.10920
 C126 C 0.21644 0.58609 -0.14448
 H127 H 0.10431 0.50977 -0.34011
 H128 H 0.10437 0.59449 -0.34038
 H129 H 0.06553 0.57517 -0.40011
 H130 H 0.06546 0.49012 -0.39986
 H131 H 0.22335 0.65308 -0.17963
 H132 H 0.26073 0.67240 -0.11790
 H133 H 0.24136 0.58089 -0.08999
 H134 H 0.20407 0.56197 -0.15182
 C135 C 0.47557 0.57173 -0.35393
 C136 C 0.44618 0.55342 -0.33680
 C137 C 0.42792 0.52409 -0.35398
 C138 C 0.43898 0.51302 -0.38809
 C139 C 0.46862 0.53119 -0.40560
 C140 C 0.48674 0.56077 -0.38805
 C141 C 0.43483 0.56461 -0.30134
 C142 C 0.42533 0.57390 -0.27151
 C143 C 0.41422 0.58467 -0.23642
 C144 C 0.40476 0.59380 -0.20633
 C145 C 0.39349 0.60462 -0.17023
 C146 C 0.36238 0.58962 -0.16029
 C147 C 0.35144 0.59995 -0.12496
 C148 C 0.37155 0.62547 -0.09902
 C149 C 0.40280 0.64045 -0.10943
 C150 C 0.41366 0.63007 -0.14478
 H151 H 0.48990 0.59449 -0.34084
 H152 H 0.40513 0.50971 -0.34092
 H153 H 0.42427 0.49018 -0.40056
 H154 H 0.50961 0.57552 -0.40050
 H155 H 0.34656 0.56989 -0.17978
 H156 H 0.32727 0.58789 -0.11794
 H157 H 0.41891 0.66018 -0.09025
 H158 H 0.43780 0.64185 -0.15220
 C159 C 0.57235 0.09712 -0.35358
 C160 C 0.55398 0.10807 -0.33640
 C161 C 0.52463 0.09697 -0.35366
 C162 C 0.51363 0.07492 -0.38787
 C163 C 0.53189 0.06367 -0.40528
 C164 C 0.56141 0.07507 -0.38780
 C165 C 0.56513 0.13053 -0.30083
 C166 C 0.57437 0.14923 -0.27091
 C167 C 0.58509 0.17102 -0.23572
 C168 C 0.59418 0.18954 -0.20554
 C169 C 0.60497 0.21155 -0.16935
 C170 C 0.58996 0.22760 -0.15937
 C171 C 0.60026 0.24879 -0.12398
 C172 C 0.62577 0.25421 -0.09800
 C173 C 0.64076 0.23800 -0.10844
 C174 C 0.63040 0.21682 -0.14385
 H175 H 0.59511 0.10555 -0.34044
 H176 H 0.51020 0.10528 -0.34058
 H177 H 0.49081 0.06663 -0.40056
 H178 H 0.57604 0.06689 -0.40045
 H179 H 0.57024 0.22369 -0.17890
 H180 H 0.58821 0.26088 -0.11694
 H181 H 0.66047 0.24162 -0.08923
 H182 H 0.64219 0.20451 -0.15129
 C183 C 0.90330 0.47524 -0.35427
 C184 C 0.89225 0.44591 -0.33709
 C185 C 0.90327 0.42765 -0.35438
 C186 C 0.92535 0.43866 -0.38862
 C187 C 0.93680 0.46824 -0.40617
 C188 C 0.92537 0.48636 -0.38852
 C189 C 0.86978 0.43463 -0.30145
 C190 C 0.85107 0.42518 -0.27147
 C191 C 0.82927 0.41412 -0.23620
 C192 C 0.81075 0.40470 -0.20596
 C193 C 0.78874 0.39347 -0.16969
 C194 C 0.77264 0.36240 -0.15970
 C195 C 0.75143 0.35149 -0.12423
 C196 C 0.74606 0.37158 -0.09821
 C197 C 0.76232 0.40279 -0.10867
 C198 C 0.78351 0.41362 -0.14415
 H199 H 0.89491 0.48957 -0.34109
 H200 H 0.89487 0.40490 -0.34129
 H201 H 0.93345 0.42395 -0.40117
 H202 H 0.93350 0.50919 -0.40099
 H203 H 0.77651 0.34659 -0.17926
 H204 H 0.73931 0.32734 -0.11719
 H205 H 0.75874 0.41888 -0.08942
 H206 H 0.79585 0.43773 -0.15161
 C207 C 0.57218 0.47584 -0.35248
 C208 C 0.55391 0.44650 -0.33522
 C209 C 0.52450 0.42817 -0.35225
 C210 C 0.51335 0.43914 -0.38635
 C211 C 0.53152 0.46866 -0.40385
 C212 C 0.56109 0.48687 -0.38657
 C213 C 0.56527 0.43530 -0.29982
 C214 C 0.57478 0.42601 -0.27004
 C215 C 0.58590 0.41523 -0.23503
 C216 C 0.59538 0.40608 -0.20500
 C217 C 0.60666 0.39524 -0.16898
 C218 C 0.58649 0.36979 -0.14346
 C219 C 0.59736 0.35940 -0.10818
 C220 C 0.62862 0.37436 -0.09790
 C221 C 0.64872 0.39989 -0.12390
 C222 C 0.63778 0.41023 -0.15917
 H223 H 0.59498 0.49023 -0.33951
 H224 H 0.51016 0.40542 -0.33911
 H225 H 0.49050 0.42455 -0.39890
 H226 H 0.57566 0.50968 -0.39929
 H227 H 0.56235 0.35802 -0.15078
 H228 H 0.58126 0.33967 -0.08894
 H229 H 0.67290 0.41193 -0.11698
 H230 H 0.65359 0.42996 -0.17871
 C231 C 0.90334 0.47550 0.35471
 C232 C 0.89224 0.44620 0.33746
 C233 C 0.90322 0.42787 0.35460
 C234 C 0.92530 0.43880 0.38879
 C235 C 0.93680 0.46836 0.40640
 C236 C 0.92541 0.48654 0.38889
 C237 C 0.86978 0.43504 0.30189
 C238 C 0.85106 0.42579 0.27196
 C239 C 0.82927 0.41507 0.23676
 C240 C 0.81075 0.40598 0.20657
 C241 C 0.78874 0.39520 0.17037
 C242 C 0.78349 0.36981 0.14485
 C243 C 0.76230 0.35945 0.10943
 C244 C 0.74606 0.37441 0.09902
 C245 C 0.75147 0.39989 0.12502
 C246 C 0.77267 0.41019 0.16042
 H247 H 0.89499 0.48989 0.34164
 H248 H 0.89478 0.40513 0.34145
 H249 H 0.93337 0.42405 0.40124
 H250 H 0.93357 0.50937 0.40141
 H251 H 0.79581 0.35803 0.15227
 H252 H 0.75869 0.33976 0.09020
 H253 H 0.73937 0.41193 0.11801
 H254 H 0.77657 0.42988 0.17997
 C255 C 0.52456 0.09629 0.35402
 C256 C 0.55394 0.10740 0.33688
 C257 C 0.57222 0.09635 0.35405
 C258 C 0.56117 0.07421 0.38815
 C259 C 0.53153 0.06271 0.40567
 C260 C 0.51340 0.07414 0.38813
 C261 C 0.56528 0.12996 0.30143
 C262 C 0.57478 0.14875 0.27160
 C263 C 0.58589 0.17065 0.23652
 C264 C 0.59535 0.18925 0.20643
 C265 C 0.60662 0.21135 0.17034
 C266 C 0.63774 0.22748 0.16040
 C267 C 0.64868 0.24875 0.12506
 C268 C 0.62858 0.25415 0.09911
 C269 C 0.59733 0.23786 0.10952
 C270 C 0.58646 0.21661 0.14488
 H271 H 0.51022 0.10469 0.34094
 H272 H 0.59501 0.10480 0.34099
 H273 H 0.57589 0.06611 0.40062
 H274 H 0.49052 0.06598 0.40058
 H275 H 0.65355 0.22358 0.17990
 H276 H 0.67286 0.26089 0.11805
 H277 H 0.58123 0.24147 0.09033
 H278 H 0.56232 0.20424 0.15229
 C279 C 0.57196 0.47546 0.35385
 C280 C 0.55362 0.44608 0.33680
 C281 C 0.52424 0.42782 0.35408
 C282 C 0.51319 0.43890 0.38819
 C283 C 0.53142 0.46845 0.40547
 C284 C 0.56097 0.48660 0.38797
 C285 C 0.56483 0.43473 0.30136
 C286 C 0.57412 0.42523 0.27155
 C287 C 0.58491 0.41413 0.23648
 C288 C 0.59406 0.40467 0.20640
 C289 C 0.60490 0.39342 0.17032
 C290 C 0.58990 0.36234 0.16046
 C291 C 0.60025 0.35142 0.12514
 C292 C 0.62579 0.37151 0.09912
 C293 C 0.64077 0.40273 0.10945
 C294 C 0.63037 0.41357 0.14479
 H295 H 0.59473 0.48978 0.34070
 H296 H 0.50984 0.40505 0.34111
 H297 H 0.49036 0.42436 0.40091
 H298 H 0.57557 0.50943 0.40052
 H299 H 0.57016 0.34653 0.18002
 H300 H 0.58819 0.32726 0.11818
 H301 H 0.66051 0.41882 0.09020
 H302 H 0.64215 0.43769 0.15214
 C303 C 0.09586 0.52378 0.35311
 C304 C 0.10701 0.55313 0.33586
 C305 C 0.09597 0.57144 0.35296
 C306 C 0.07381 0.56045 0.38710
 C307 C 0.06238 0.53094 0.40458
 C308 C 0.07370 0.51274 0.38724
 C309 C 0.12960 0.56434 0.30040
 C310 C 0.14842 0.57364 0.27058
 C311 C 0.17035 0.58444 0.23550
 C312 C 0.18899 0.59360 0.20542
 C313 C 0.21113 0.60446 0.16933
 C314 C 0.21644 0.62989 0.14383
 C315 C 0.23773 0.64031 0.10849
 C316 C 0.25402 0.62538 0.09813
 C317 C 0.24856 0.59988 0.12412
 C318 C 0.22726 0.58951 0.15945
 H319 H 0.10424 0.50941 0.34010
 H320 H 0.10443 0.59419 0.33982
 H321 H 0.06558 0.57504 0.39969
 H322 H 0.06540 0.48993 0.39995
 H323 H 0.20408 0.64163 0.15121
 H324 H 0.24137 0.66002 0.08926
 H325 H 0.26070 0.58787 0.11714
 H326 H 0.22332 0.56980 0.17898
 C327 C 0.47571 0.90376 0.35225
 C328 C 0.44630 0.89264 0.33522
 C329 C 0.42802 0.90368 0.35249
 C330 C 0.43910 0.92581 0.38659
 C331 C 0.46867 0.93720 0.40387
 C332 C 0.48685 0.92589 0.38635
 C333 C 0.43494 0.87008 0.29981
 C334 C 0.42543 0.85127 0.27003
 C335 C 0.41431 0.82935 0.23502
 C336 C 0.40483 0.81072 0.20499
 C337 C 0.39355 0.78860 0.16897
 C338 C 0.36243 0.77245 0.15914
 C339 C 0.35148 0.75115 0.12388
 C340 C 0.37158 0.74573 0.09789
 C341 C 0.40283 0.76204 0.10819
 C342 C 0.41370 0.78331 0.14347
 H343 H 0.49006 0.89538 0.33909
 H344 H 0.40522 0.89525 0.33953
 H345 H 0.42453 0.93403 0.39932
 H346 H 0.50970 0.93417 0.39890
 H347 H 0.34662 0.77637 0.17868
 H348 H 0.32730 0.73900 0.11695
 H349 H 0.41893 0.75842 0.08896
 H350 H 0.43785 0.79569 0.15079
 C351 C 0.42780 0.52477 0.35365
 C352 C 0.44617 0.55413 0.33648
 C353 C 0.47551 0.57241 0.35374
 C354 C 0.48652 0.56137 0.38794
 C355 C 0.46827 0.53184 0.40534
 C356 C 0.43875 0.51368 0.38786
 C357 C 0.43501 0.56542 0.30092
 C358 C 0.42577 0.57488 0.27099
 C359 C 0.41504 0.58593 0.23581
 C360 C 0.40594 0.59535 0.20563
 C361 C 0.39516 0.60656 0.16944
 C362 C 0.41018 0.63763 0.15945
 C363 C 0.39988 0.64851 0.12406
 C364 C 0.37436 0.62840 0.09809
 C365 C 0.35936 0.59719 0.10854
 C366 C 0.36972 0.58638 0.14396
 H367 H 0.40504 0.51043 0.34050
 H368 H 0.48993 0.59517 0.34067
 H369 H 0.50934 0.57594 0.40064
 H370 H 0.42412 0.49086 0.40049
 H371 H 0.42990 0.65345 0.17897
 H372 H 0.41194 0.67266 0.11701
 H373 H 0.33964 0.58107 0.08934
 H374 H 0.35792 0.56227 0.15141
   
