data_POSCAR
  _audit_creation_date              2014-09-24
  _audit_creation_method            'ToBaCCo'
  _symmetry_space_group_name_H-M    'P1'
  _symmetry_Int_Tables_number       1
  _symmetry_cell_setting            triclinic
  loop_
  _symmetry_equiv_pos_as_xyz
 x,y,z
_cell_length_a 30.4883
_cell_length_b 31.7050
_cell_length_c 32.7170
_cell_angle_alpha 89.675500
_cell_angle_beta 90.994200
_cell_angle_gamma 88.040800
loop_
  _atom_site_label
  _atom_site_type_symbol
  _atom_site_fract_x
  _atom_site_fract_y
  _atom_site_fract_z
N1 N 0.57384 0.70557 0.59978
 N2 N 0.55758 0.69107 0.63389
 C3 C 0.52411 0.71700 0.64539
 C4 C 0.51906 0.74907 0.61663
 C5 C 0.55092 0.74071 0.58808
 H6 H 0.50407 0.71227 0.67186
 H7 H 0.55665 0.75870 0.56062
 Cu8 Cu 0.58108 0.63876 0.65863
 Cu9 Cu 0.62250 0.67699 0.57238
 Cu10 Cu 0.66490 0.58456 0.61601
 N11 N 0.60431 0.58586 0.68227
 N12 N 0.63896 0.56624 0.66694
 C13 C 0.64949 0.53188 0.68992
 C14 C 0.61925 0.52953 0.72095
 C15 C 0.59100 0.56411 0.71502
 H16 H 0.67607 0.50958 0.68351
 H17 H 0.56306 0.57282 0.73346
 N18 N 0.69163 0.61175 0.56850
 N19 N 0.67617 0.64784 0.55276
 C20 C 0.70223 0.65946 0.52215
 C21 C 0.73498 0.62883 0.51785
 C22 C 0.72745 0.59901 0.54771
 H23 H 0.69758 0.68789 0.50394
 H24 H 0.74715 0.57070 0.55428
 H25 H 0.61019 0.61683 0.59292
 H26 H 0.64970 0.64773 0.62404
 N27 N 0.91748 0.30231 0.10467
 N28 N 0.93555 0.31799 0.13778
 C29 C 0.97094 0.29373 0.14885
 C30 C 0.97544 0.26135 0.12076
 C31 C 0.94108 0.26791 0.09310
 H32 H 0.99202 0.29962 0.17496
 H33 H 0.93329 0.24864 0.06694
 Cu34 Cu 0.91105 0.36871 0.16296
 Cu35 Cu 0.86296 0.32597 0.08095
 Cu36 Cu 0.83502 0.42777 0.11179
 N37 N 0.88141 0.41681 0.18832
 N38 N 0.85063 0.43923 0.16862
 C39 C 0.83634 0.47098 0.19270
 C40 C 0.85987 0.46854 0.22915
 C41 C 0.88815 0.43378 0.22541
 H42 H 0.81186 0.49493 0.18378
 H43 H 0.91198 0.42199 0.24791
 N44 N 0.81002 0.40195 0.06237
 N45 N 0.81914 0.36254 0.05179
 C46 C 0.79578 0.35357 0.01784
 C47 C 0.77089 0.38916 0.00648
 C48 C 0.78087 0.41926 0.03520
 H49 H 0.79760 0.32372 0.00204
 H50 H 0.76739 0.45122 0.03650
 H51 H 0.88444 0.38444 0.09341
 H52 H 0.84023 0.36617 0.12732
 N53 N 0.40368 0.21801 -0.11196
 N54 N 0.42011 0.20035 -0.14485
 C55 C 0.45620 0.22079 -0.15562
 C56 C 0.46271 0.25272 -0.12766
 C57 C 0.42888 0.24999 -0.10039
 H58 H 0.47698 0.21205 -0.18088
 H59 H 0.42329 0.26947 -0.07381
 Cu60 Cu 0.39412 0.15076 -0.16885
 Cu61 Cu 0.35105 0.19752 -0.08682
 Cu62 Cu 0.34118 0.09040 -0.10182
 N63 N 0.37695 0.09403 -0.18242
 N64 N 0.35832 0.06983 -0.15543
 C65 C 0.35327 0.03129 -0.17153
 C66 C 0.36866 0.03172 -0.21096
 C67 C 0.38352 0.07202 -0.21696
 H68 H 0.33887 0.00511 -0.15592
 H69 H 0.39910 0.08398 -0.24391
 N70 N 0.31078 0.12177 -0.05795
 N71 N 0.31342 0.16294 -0.05343
 C72 C 0.28685 0.17579 -0.02328
 C73 C 0.26641 0.14108 -0.00800
 C74 C 0.28226 0.10721 -0.03063
 H75 H 0.28244 0.20812 -0.01336
 H76 H 0.27279 0.07474 -0.02835
 H77 H 0.38189 0.14134 -0.09590
 H78 H 0.32953 0.14903 -0.12603
 N79 N 0.08775 0.78154 0.38300
 N80 N 0.07287 0.79657 0.34769
 C81 C 0.03983 0.77282 0.33431
 C82 C 0.03328 0.74169 0.36313
 C83 C 0.06445 0.74805 0.39365
 H84 H 0.02098 0.77848 0.30638
 H85 H 0.07028 0.72965 0.42126
 Cu86 Cu 0.09609 0.84794 0.32518
 Cu87 Cu 0.13772 0.80552 0.41139
 Cu88 Cu 0.15470 0.91011 0.38558
 N89 N 0.12259 0.89808 0.30343
 N90 N 0.14337 0.92368 0.32801
 C91 C 0.15349 0.95860 0.30714
 C92 C 0.13882 0.95427 0.26717
 C93 C 0.11971 0.91542 0.26576
 H94 H 0.17010 0.98511 0.32015
 H95 H 0.10311 0.90186 0.23975
 N96 N 0.18068 0.88237 0.43494
 N97 N 0.17532 0.84223 0.44387
 C98 C 0.20010 0.83162 0.47698
 C99 C 0.22222 0.86665 0.48947
 C100 C 0.20916 0.89840 0.46220
 H101 H 0.20271 0.80042 0.49053
 H102 H 0.22095 0.93016 0.46105
 H103 H 0.11034 0.86257 0.39745
 H104 H 0.16120 0.84882 0.36882
 C105 C 0.10469 0.12252 0.17790
 C106 C 0.07465 0.15692 0.18027
 C107 C 0.06898 0.18523 0.14737
 C108 C 0.09503 0.18028 0.11263
 C109 C 0.12632 0.14695 0.11045
 C110 C 0.13052 0.11736 0.14276
 C111 C 0.10912 0.09304 0.20992
 C112 C 0.13776 0.05770 0.20662
 C113 C 0.16363 0.05273 0.17171
 C114 C 0.16070 0.08274 0.14000
 C115 C 0.18788 0.07913 0.10591
 C116 C 0.18571 0.10996 0.07491
 C117 C 0.15385 0.14306 0.07675
 H118 H 0.05475 0.16107 0.20720
 H119 H 0.09144 0.20288 0.08769
 H120 H 0.08941 0.09689 0.23701
 H121 H 0.18657 0.02596 0.16965
 H122 H 0.21182 0.05313 0.10413
 H123 H 0.15060 0.16597 0.05209
 C124 C 0.39810 0.89824 0.66824
 C125 C 0.42817 0.86387 0.67255
 C126 C 0.42990 0.83203 0.64293
 C127 C 0.39969 0.83345 0.60997
 C128 C 0.36881 0.86701 0.60580
 C129 C 0.36857 0.90004 0.63447
 C130 C 0.39743 0.93115 0.69674
 C131 C 0.36848 0.96629 0.69123
 C132 C 0.33978 0.96824 0.65725
 C133 C 0.33897 0.93496 0.62924
 C134 C 0.30884 0.93582 0.59627
 C135 C 0.30739 0.90192 0.56894
 C136 C 0.33820 0.86806 0.57334
 H137 H 0.45117 0.86249 0.69822
 H138 H 0.40005 0.80822 0.58774
 H139 H 0.42019 0.93003 0.72258
 H140 H 0.31749 0.99539 0.65312
 H141 H 0.28567 0.96233 0.59246
 H142 H 0.33863 0.84263 0.55135
 C143 C 0.92383 0.59630 0.35466
 C144 C 0.95648 0.62632 0.35710
 C145 C 0.95715 0.65521 0.38946
 C146 C 0.92504 0.65397 0.41957
 C147 C 0.89142 0.62491 0.41690
 C148 C 0.89084 0.59582 0.38440
 C149 C 0.92374 0.56663 0.32309
 C150 C 0.89037 0.53741 0.32005
 C151 C 0.85717 0.53732 0.34931
 C152 C 0.85748 0.56606 0.38180
 C153 C 0.82517 0.56548 0.41182
 C154 C 0.82510 0.59493 0.44369
 C155 C 0.85840 0.62446 0.44618
 H156 H 0.98182 0.62686 0.33426
 H157 H 0.92582 0.67622 0.44461
 H158 H 0.94937 0.56649 0.30050
 H159 H 0.83177 0.51426 0.34725
 H160 H 0.79959 0.54258 0.41009
 H161 H 0.85891 0.64668 0.47124
 C162 C 0.60062 0.37867 -0.18139
 C163 C 0.56569 0.35107 -0.18398
 C164 C 0.56010 0.32053 -0.15350
 C165 C 0.59032 0.31698 -0.12061
 C166 C 0.62592 0.34377 -0.11804
 C167 C 0.63109 0.37486 -0.14845
 C168 C 0.60569 0.40998 -0.21122
 C169 C 0.64141 0.43671 -0.20908
 C170 C 0.67221 0.43223 -0.17688
 C171 C 0.66689 0.40193 -0.14608
 C172 C 0.69675 0.39815 -0.11301
 C173 C 0.69155 0.36728 -0.08257
 C174 C 0.65649 0.33988 -0.08562
 H175 H 0.54243 0.35365 -0.20940
 H176 H 0.58655 0.29287 -0.09744
 H177 H 0.58229 0.41323 -0.23648
 H178 H 0.69980 0.45291 -0.17549
 H179 H 0.72440 0.41871 -0.11134
 H180 H 0.65272 0.31588 -0.06231
 C181 C 0.00729 0.22869 0.11939
 C182 C 0.03620 0.22034 0.14994
 H183 H 0.00746 0.20847 0.09277
 H184 H 0.03419 0.23740 0.17846
 C185 C 0.48535 0.78331 0.61411
 C186 C 0.46342 0.79739 0.64667
 H187 H 0.47957 0.79839 0.58460
 H188 H 0.47194 0.78512 0.67685
 C189 C 1.00133 0.71121 0.36097
 C190 C 0.99182 0.68634 0.39263
 H191 H 0.98234 0.70893 0.33278
 H192 H 1.00721 0.69069 0.42231
 C193 C 0.49938 0.28156 -0.12469
 C194 C 0.52314 0.29179 -0.15702
 H195 H 0.50601 0.29581 -0.09529
 H196 H 0.51395 0.28066 -0.18713
 C197 C 0.14026 -0.01496 0.23346
 C198 C 0.14044 0.02658 0.24032
 H199 H 0.13776 -0.02653 0.20243
 H200 H 0.13839 0.03821 0.27133
 C201 C 0.61582 0.49872 -0.24871
 C202 C 0.64711 0.46896 -0.24091
 H203 H 0.58674 0.49977 -0.23005
 H204 H 0.67829 0.46931 -0.25624
 C205 C 0.36982 0.99606 0.76050
 C206 C 0.36864 1.00194 0.72000
 H207 H 0.36937 0.96439 0.77307
 H208 H 0.36473 1.03362 0.70755
 C209 C 0.85683 0.49817 0.26351
 C210 C 0.89191 0.50612 0.28694
 H211 H 0.82614 0.51566 0.26795
 H212 H 0.92359 0.49178 0.27968
 C213 C 0.23349 0.14217 0.02436
 C214 C 0.21751 0.10745 0.04125
 H215 H 0.22326 0.17300 0.03549
 H216 H 0.23015 0.07659 0.03227
 C217 C 0.77060 0.62940 0.48813
 C218 C 0.79037 0.59400 0.47456
 H219 H 0.77906 0.65966 0.47547
 H220 H 0.77891 0.56359 0.48419
 C221 C 0.74067 0.39484 -0.02890
 C222 C 0.72304 0.36205 -0.04792
 H223 H 0.73125 0.42677 -0.03821
 H224 H 0.72953 0.33041 -0.03613
 C225 C 0.25537 0.86723 0.52266
 C226 C 0.27372 0.90258 0.53579
 H227 H 0.26435 0.83729 0.53712
 H228 H 0.26242 0.93288 0.52346
   
