data_POSCAR
  _audit_creation_date              2014-09-24
  _audit_creation_method            'ToBaCCo'
  _symmetry_space_group_name_H-M    'P1'
  _symmetry_Int_Tables_number       1
  _symmetry_cell_setting            triclinic
  loop_
  _symmetry_equiv_pos_as_xyz
 x,y,z
_cell_length_a 31.9422
_cell_length_b 32.3131
_cell_length_c 44.0344
_cell_angle_alpha 89.880900
_cell_angle_beta 90.549100
_cell_angle_gamma 93.781500
loop_
  _atom_site_label
  _atom_site_type_symbol
  _atom_site_fract_x
  _atom_site_fract_y
  _atom_site_fract_z
C1 C -0.00281 0.49919 0.98434
 C2 C -0.00455 0.49979 1.01528
 C3 C -0.00694 0.53908 1.03254
 C4 C -0.00374 0.46122 1.03359
 C5 C -0.00447 0.45965 0.96692
 C6 C 0.00087 0.53818 0.96632
 C7 C 0.02163 0.54855 1.05615
 C8 C 0.02032 0.58548 1.07240
 C9 C -0.00986 0.61458 1.06560
 C10 C -0.03896 0.60399 1.04184
 C11 C -0.03771 0.56674 1.02589
 C12 C 0.02968 0.43531 1.03142
 C13 C 0.03007 0.39920 1.04894
 C14 C -0.00294 0.38838 1.06900
 C15 C -0.03621 0.41465 1.07115
 C16 C -0.03642 0.45083 1.05380
 C17 C -0.03605 0.42816 0.97207
 C18 C -0.03683 0.39104 0.95577
 C19 C -0.00669 0.38501 0.93338
 C20 C 0.02414 0.41717 0.92769
 C21 C 0.02528 0.45398 0.94432
 C22 C -0.02851 0.54484 0.94324
 C23 C -0.02616 0.58181 0.92669
 C24 C 0.00579 0.61278 0.93280
 C25 C 0.03575 0.60566 0.95549
 C26 C 0.03349 0.56857 0.97195
 H27 H 0.04581 0.52766 1.06159
 H28 H 0.04504 0.59163 1.08901
 H29 H -0.06450 0.62301 1.03619
 H30 H -0.06105 0.55938 1.00838
 H31 H 0.05554 0.44324 1.01631
 H32 H 0.05653 0.38010 1.04713
 H33 H -0.06244 0.47049 1.05577
 H34 H -0.06008 0.43223 0.98877
 H35 H -0.06084 0.36694 0.96097
 H36 H 0.04720 0.41414 0.91012
 H37 H 0.04958 0.47806 0.93964
 H38 H -0.05379 0.52169 0.93848
 H39 H -0.04990 0.58656 0.90954
 H40 H 0.06113 0.62866 0.96033
 H41 H 0.05701 0.56364 0.98922
 H42 H -0.06242 0.40698 1.08599
 C43 C 0.50000 0.00040 0.48482
 C44 C 0.50178 0.00282 0.51566
 C45 C 0.46396 0.00794 0.53419
 C46 C 0.54199 0.00059 0.53243
 C47 C 0.53867 -0.00147 0.46658
 C48 C 0.45966 0.00018 0.46770
 C49 C 0.43928 0.04184 0.52975
 C50 C 0.40337 0.04582 0.54714
 C51 C 0.39158 0.01602 0.56935
 C52 C 0.41679 -0.01758 0.57392
 C53 C 0.45275 -0.02139 0.55666
 C54 C 0.55819 0.03491 0.54921
 C55 C 0.59675 0.03373 0.56429
 C56 C 0.61927 -0.00214 0.56333
 C57 C 0.60254 -0.03685 0.54706
 C58 C 0.56425 -0.03541 0.53156
 C59 C 0.54313 -0.03505 0.44705
 C60 C 0.57934 -0.03714 0.42973
 C61 C 0.61164 -0.00543 0.43143
 C62 C 0.60683 0.02842 0.45083
 C63 C 0.57061 0.03044 0.46816
 C64 C 0.42612 -0.02864 0.47431
 C65 C 0.38823 -0.02793 0.45819
 C66 C 0.38336 0.00130 0.43491
 C67 C 0.41738 0.02945 0.42794
 C68 C 0.45511 0.02883 0.44413
 H69 H 0.44788 0.06517 0.51283
 H70 H 0.38504 0.07241 0.54339
 H71 H 0.40830 -0.04145 0.59045
 H72 H 0.47144 -0.04775 0.56040
 H73 H 0.54129 0.06285 0.55016
 H74 H 0.60884 0.06069 0.57697
 H75 H 0.55196 -0.06225 0.51884
 H76 H 0.51871 -0.05989 0.44549
 H77 H 0.58227 -0.06383 0.41527
 H78 H 0.63075 0.05371 0.45221
 H79 H 0.56731 0.05705 0.48265
 H80 H 0.42924 -0.05159 0.49200
 H81 H 0.36258 -0.04988 0.46423
 H82 H 0.41497 0.05178 0.40975
 H83 H 0.48073 0.05105 0.43845
 H84 H 0.61943 -0.06477 0.54596
 C85 C 0.07972 0.02489 0.26410
 H86 H 0.07902 0.04393 0.24391
 C87 C 0.11573 0.02639 0.28235
 H88 H 0.14254 0.04676 0.27606
 C89 C 0.04627 -0.02589 0.29619
 H90 H 0.01895 -0.04617 0.30136
 C91 C 0.08180 -0.02559 0.31498
 H92 H 0.08152 -0.04547 0.33481
 N93 N 0.04578 -0.00066 0.27146
 C94 C -0.03727 -0.05862 0.20239
 H95 H -0.06354 -0.03914 0.20248
 C96 C -0.03872 -0.09390 0.18404
 H97 H -0.06645 -0.10146 0.17031
 C98 C 0.02998 -0.07311 0.22113
 H99 H 0.05676 -0.06490 0.23558
 C100 C 0.02994 -0.10853 0.20302
 H101 H 0.05704 -0.12695 0.20356
 Zn102 Zn -0.00305 -0.00221 0.24677
 N103 N -0.00346 -0.04914 0.22071
 C104 C -0.00964 0.04638 0.19280
 N105 N -0.00316 0.04758 0.22340
 C106 C 0.00413 0.08440 0.23808
 C107 C 0.00427 0.12177 0.22216
 C108 C -0.01016 0.08309 0.17600
 C109 C -0.07791 -0.04093 0.27127
 C110 C -0.11417 -0.04346 0.28881
 C111 C -0.09336 0.02377 0.30982
 C112 C -0.05755 0.02507 0.29180
 N113 N -0.05093 -0.00653 0.27241
 H114 H -0.01457 0.01705 0.18124
 H115 H 0.01099 0.08486 0.26213
 H116 H 0.01091 0.15056 0.23434
 H117 H -0.01643 0.08133 0.15182
 H118 H -0.07149 -0.06664 0.25685
 H119 H -0.13535 -0.07099 0.28740
 H120 H -0.09861 0.04981 0.32442
 H121 H -0.03528 0.05154 0.29323
 C122 C -0.00492 -0.11960 0.18436
 C123 C 0.11702 0.00103 0.30822
 C124 C -0.12256 -0.01057 0.30810
 C125 C -0.00331 0.12153 0.19069
 C126 C -0.03130 0.07262 0.77238
 H127 H -0.05568 0.06481 0.75588
 C128 C -0.03362 0.10848 0.78973
 H129 H -0.05987 0.12753 0.78620
 C130 C 0.03375 0.05931 0.79527
 H131 H 0.06085 0.04116 0.79653
 C132 C 0.03245 0.09463 0.81338
 H133 H 0.05788 0.10195 0.82930
 N134 N 0.00168 0.04833 0.77574
 C135 C 0.08081 -0.02613 0.72822
 H136 H 0.07285 -0.05452 0.74047
 C137 C 0.11772 -0.02232 0.71144
 H138 H 0.13788 -0.04797 0.71089
 C139 C 0.06372 0.04128 0.71325
 H140 H 0.04241 0.06591 0.71419
 C141 C 0.10013 0.04624 0.69593
 H142 H 0.10691 0.07496 0.68368
 Zn143 Zn 0.00454 -0.00011 0.75132
 N144 N 0.05468 0.00542 0.72878
 C145 C -0.03694 -0.00125 0.69376
 N146 N -0.04245 -0.00444 0.72431
 C147 C -0.08153 -0.01004 0.73632
 C148 C -0.11697 -0.01212 0.71747
 C149 C -0.07159 -0.00255 0.67410
 C150 C 0.03431 -0.05161 0.79820
 C151 C 0.03539 -0.08718 0.81617
 C152 C -0.02394 -0.11740 0.78782
 C153 C -0.02385 -0.08127 0.77036
 N154 N 0.00467 -0.04892 0.77598
 H155 H -0.00572 0.00271 0.68455
 H156 H -0.08512 -0.01245 0.76068
 H157 H -0.14784 -0.01592 0.72746
 H158 H -0.06675 0.00043 0.64987
 H159 H 0.05787 -0.02664 0.80166
 H160 H 0.05963 -0.08877 0.83341
 H161 H -0.04733 -0.14244 0.78320
 H162 H -0.04634 -0.07954 0.75205
 C163 C 0.12765 0.01415 0.69492
 C164 C -0.00167 0.11979 0.81084
 C165 C 0.00591 -0.12067 0.81115
 C166 C -0.11219 -0.00790 0.68597
 C167 C -0.01086 -0.27163 0.11315
 C168 C 0.00761 -0.30598 0.12632
 C169 C 0.00778 -0.34364 0.11048
 C170 C -0.01069 -0.34871 0.08121
 C171 C -0.02987 -0.31411 0.06879
 C172 C -0.02981 -0.27647 0.08433
 C173 C -0.00971 -0.23175 0.13069
 C174 C -0.02581 -0.19521 0.11917
 C175 C -0.02406 -0.15896 0.13650
 C176 C -0.00630 -0.15807 0.16579
 C177 C 0.00997 -0.19427 0.17738
 C178 C 0.00866 -0.23077 0.16009
 C179 C 0.02549 -0.30284 0.15548
 C180 C 0.02576 -0.26617 0.17206
 H181 H 0.03945 -0.32924 0.16573
 H182 H 0.03989 -0.26544 0.19455
 H183 H 0.02054 -0.36947 0.12223
 H184 H -0.04319 -0.31454 0.04614
 H185 H -0.03623 -0.13135 0.12675
 H186 H 0.02328 -0.19425 0.20012
 H187 H -0.04459 -0.25145 0.07317
 H188 H -0.03962 -0.19381 0.09679
 C189 C -0.00413 0.27686 0.12345
 C190 C 0.01145 0.27706 0.09346
 C191 C 0.01174 0.31337 0.07583
 C192 C -0.00273 0.35006 0.08775
 C193 C -0.01721 0.34995 0.11775
 C194 C -0.01801 0.31396 0.13535
 C195 C -0.00476 0.23722 0.14129
 C196 C -0.02153 0.23326 0.17071
 C197 C -0.02119 0.19577 0.18646
 C198 C -0.00401 0.16115 0.17346
 C199 C 0.01236 0.16467 0.14399
 C200 C 0.01178 0.20215 0.12780
 C201 C 0.02683 0.24110 0.08129
 C202 C 0.02738 0.20459 0.09819
 H203 H 0.03895 0.24125 0.05837
 H204 H 0.03990 0.17772 0.08778
 H205 H 0.02275 0.31287 0.05264
 H206 H -0.02761 0.37798 0.12783
 H207 H -0.03497 0.19379 0.20883
 H208 H 0.02604 0.13834 0.13370
 H209 H -0.02929 0.31605 0.15825
 H210 H -0.03542 0.25855 0.18192
 C211 C 0.27807 0.02259 0.62129
 C212 C 0.31505 0.00920 0.63509
 C213 C 0.35206 0.00818 0.61827
 C214 C 0.35290 0.01948 0.58746
 C215 C 0.31624 0.03287 0.57385
 C216 C 0.27937 0.03453 0.59048
 C217 C 0.23899 0.02245 0.63997
 C218 C 0.20074 0.03597 0.62867
 C219 C 0.16492 0.03392 0.64670
 C220 C 0.16621 0.01824 0.67638
 C221 C 0.20431 0.00558 0.68809
 C222 C 0.24058 0.00776 0.67026
 C223 C 0.31476 -0.00383 0.66544
 C224 C 0.27827 -0.00483 0.68257
 H225 H 0.34308 -0.01406 0.67601
 H226 H 0.27956 -0.01577 0.70582
 H227 H 0.38029 -0.00164 0.62922
 H228 H 0.31573 0.04117 0.55002
 H229 H 0.13581 0.04375 0.63715
 H230 H 0.20573 -0.00588 0.71121
 H231 H 0.25214 0.04457 0.57862
 H232 H 0.19769 0.04800 0.60595
 C233 C -0.26265 -0.00360 0.61128
 C234 C -0.29407 -0.03610 0.61536
 C235 C -0.33207 -0.03600 0.59904
 C236 C -0.33991 -0.00319 0.57936
 C237 C -0.30907 0.02926 0.57565
 C238 C -0.27083 0.02904 0.59123
 C239 C -0.22259 -0.00479 0.62922
 C240 C -0.18850 0.02478 0.62565
 C241 C -0.15245 0.02313 0.64367
 C242 C -0.14951 -0.00782 0.66578
 C243 C -0.18276 -0.03804 0.66901
 C244 C -0.21894 -0.03703 0.65073
 C245 C -0.28786 -0.06792 0.63624
 C246 C -0.25135 -0.06808 0.65383
 H247 H -0.31196 -0.09271 0.63946
 H248 H -0.24840 -0.09298 0.67007
 H249 H -0.35615 -0.06082 0.60234
 H250 H -0.31456 0.05485 0.56050
 H251 H -0.12712 0.04675 0.64080
 H252 H -0.18030 -0.06250 0.68571
 H253 H -0.24847 0.05500 0.58760
 H254 H -0.18902 0.04945 0.60916
 C255 C 0.00857 -0.27126 0.88373
 C256 C 0.00032 -0.30938 0.86830
 C257 C -0.00021 -0.34698 0.88437
 C258 C 0.00746 -0.34745 0.91579
 C259 C 0.01608 -0.30971 0.93099
 C260 C 0.01663 -0.27211 0.91526
 C261 C 0.00825 -0.23176 0.86575
 C262 C 0.01547 -0.19220 0.87895
 C263 C 0.01467 -0.15637 0.86122
 C264 C 0.00669 -0.15892 0.82988
 C265 C -0.00051 -0.19818 0.81651
 C266 C 0.00012 -0.23441 0.83412
 C267 C -0.00741 -0.30981 0.83694
 C268 C -0.00742 -0.27316 0.82022
 H269 H -0.01362 -0.33899 0.82511
 H270 H -0.01361 -0.27519 0.79601
 H271 H -0.00630 -0.37602 0.87233
 H272 H 0.02167 -0.30919 0.95529
 H273 H 0.01978 -0.12648 0.87220
 H274 H -0.00612 -0.20060 0.79224
 H275 H 0.02323 -0.24418 0.92827
 H276 H 0.02157 -0.18812 0.90291
 C277 C -0.00918 0.27061 0.88232
 C278 C 0.02947 0.29209 0.89008
 C279 C 0.03005 0.32882 0.90711
 C280 C -0.00749 0.34554 0.91591
 C281 C -0.04577 0.32457 0.90760
 C282 C -0.04669 0.28760 0.89117
 C283 C -0.00835 0.23116 0.86448
 C284 C -0.04483 0.20612 0.85722
 C285 C -0.04246 0.16999 0.84017
 C286 C -0.00375 0.15785 0.82966
 C287 C 0.03285 0.18234 0.83722
 C288 C 0.03088 0.21838 0.85478
 C289 C 0.06732 0.27717 0.88045
 C290 C 0.06798 0.24145 0.86281
 H291 H 0.09693 0.29372 0.88625
 H292 H 0.09807 0.23154 0.85559
 H293 H 0.05992 0.34430 0.91358
 H294 H -0.07528 0.33710 0.91336
 H295 H -0.07114 0.15126 0.83548
 H296 H 0.06299 0.17373 0.82912
 H297 H -0.07709 0.27324 0.88525
 H298 H -0.07547 0.21359 0.86471
 C299 C -0.27730 -0.01096 0.37674
 C300 C -0.27415 0.00344 0.40708
 C301 C -0.31035 0.00494 0.42480
 C302 C -0.35006 -0.00745 0.41275
 C303 C -0.35307 -0.02155 0.38265
 C304 C -0.31730 -0.02335 0.36487
 C305 C -0.23788 -0.01199 0.35857
 C306 C -0.23755 -0.02628 0.32835
 C307 C -0.20011 -0.02610 0.31227
 C308 C -0.16197 -0.01169 0.32577
 C309 C -0.16186 0.00224 0.35594
 C310 C -0.19934 0.00208 0.37239
 C311 C -0.23497 0.01645 0.41952
 C312 C -0.19841 0.01592 0.40253
 H313 H -0.23254 0.02747 0.44274
 H314 H -0.16891 0.02656 0.41316
 H315 H -0.30754 0.01545 0.44814
 H316 H -0.38335 -0.03067 0.37260
 H317 H -0.20114 -0.03660 0.28891
 H318 H -0.13247 0.01289 0.36673
 H319 H -0.32181 -0.03424 0.34188
 H320 H -0.26578 -0.03758 0.31662
 C321 C 0.26788 0.00563 0.38346
 C322 C 0.28288 -0.03296 0.39219
 C323 C 0.32025 -0.03421 0.40916
 C324 C 0.34311 0.00255 0.41782
 C325 C 0.32763 0.04072 0.40970
 C326 C 0.29062 0.04234 0.39279
 C327 C 0.22858 0.00561 0.36452
 C328 C 0.21202 0.04228 0.35365
 C329 C 0.17582 0.04059 0.33559
 C330 C 0.15499 0.00243 0.32795
 C331 C 0.17097 -0.03427 0.33884
 C332 C 0.20764 -0.03298 0.35679
 C333 C 0.26065 -0.07005 0.38379
 C334 C 0.22374 -0.07005 0.36663
 H335 H 0.27200 -0.09960 0.39056
 H336 H 0.20776 -0.09961 0.36070
 H337 H 0.33201 -0.06392 0.41509
 H338 H 0.34410 0.06958 0.41663
 H339 H 0.16386 0.06936 0.32770
 H340 H 0.15538 -0.06394 0.33271
 H341 H 0.28046 0.07264 0.38732
 H342 H 0.22661 0.07257 0.35860
   
