data_POSCAR
  _audit_creation_date              2014-09-24
  _audit_creation_method            'ToBaCCo'
  _symmetry_space_group_name_H-M    'P1'
  _symmetry_Int_Tables_number       1
  _symmetry_cell_setting            triclinic
  loop_
  _symmetry_equiv_pos_as_xyz
 x,y,z
_cell_length_a 11.7276
_cell_length_b 11.9902
_cell_length_c 12.1283
_cell_angle_alpha 95.327300
_cell_angle_beta 93.147700
_cell_angle_gamma 88.967800
loop_
  _atom_site_label
  _atom_site_type_symbol
  _atom_site_fract_x
  _atom_site_fract_y
  _atom_site_fract_z
C1 C -0.03572 0.40804 0.16050
 C2 C 0.08520 0.42423 0.21436
 C3 C 0.09759 0.52088 0.28266
 C4 C -0.00957 0.59484 0.28840
 C5 C -0.11390 0.41827 0.25687
 C6 C -0.10201 0.51727 0.32319
 C7 C -0.06377 0.51323 0.10231
 C8 C -0.04349 0.60991 0.16668
 H9 H 0.15151 0.36047 0.20582
 H10 H 0.00074 0.67450 0.34235
 H11 H -0.17897 0.35731 0.26613
 H12 H -0.10073 0.51198 0.01862
 C13 C 0.01316 0.37608 0.80425
 C14 C -0.09796 0.41396 0.76515
 C15 C -0.10098 0.51559 0.71580
 C16 C 0.01423 0.56861 0.71837
 C17 C 0.08642 0.37370 0.71149
 C18 C 0.09218 0.47993 0.66571
 C19 C 0.05742 0.46483 0.88507
 C20 C 0.05467 0.57329 0.84137
 H21 H -0.17397 0.36364 0.76696
 H22 H 0.01378 0.64877 0.67904
 H23 H 0.14827 0.30685 0.69471
 H24 H 0.09330 0.45043 0.96656
 C25 C 0.16962 0.00243 0.40008
 C26 C 0.27386 0.07585 0.39936
 C27 C 0.33501 0.08779 0.49811
 C28 C 0.29433 0.01330 0.58550
 C29 C 0.21787 -0.11066 0.43006
 C30 C 0.28510 -0.10485 0.52565
 C31 C 0.10690 0.05220 0.50180
 C32 C 0.16954 0.05024 0.59949
 H33 H 0.28521 0.13080 0.33492
 H34 H 0.34836 0.01827 0.66390
 H35 H 0.21011 -0.18606 0.37373
 H36 H 0.02003 0.08330 0.49767
 C37 C 0.79840 -0.05265 0.36409
 C38 C 0.70272 -0.12581 0.37258
 C39 C 0.65279 -0.11201 0.47823
 C40 C 0.70767 -0.01475 0.55575
 C41 C 0.75208 0.06924 0.38957
 C42 C 0.70426 0.08866 0.48932
 C43 C 0.87931 -0.07474 0.46419
 C44 C 0.83431 -0.05110 0.56481
 H45 H 0.69263 -0.20315 0.31882
 H46 H 0.66759 0.00073 0.63679
 H47 H 0.75004 0.13230 0.33110
 H48 H 0.96355 -0.11133 0.45538
 C49 C 0.39305 0.21534 0.98258
 C50 C 0.41316 0.28425 1.08503
 C51 C 0.51489 0.34592 1.09558
 C52 C 0.58207 0.33160 0.99288
 C53 C 0.39620 0.28798 0.89463
 C54 C 0.49995 0.34806 0.89458
 C55 C 0.49518 0.14171 0.97028
 C56 C 0.60137 0.20643 0.97875
 H57 H 0.35785 0.28177 1.15382
 H58 H 0.66108 0.38217 0.99715
 H59 H 0.33467 0.28188 0.82426
 H60 H 0.49078 0.05646 0.93332
 C61 C 0.42732 0.84829 1.04020
 C62 C 0.42704 0.77114 0.93133
 C63 C 0.50638 0.68764 0.93002
 C64 C 0.58122 0.68859 1.03750
 C65 C 0.41871 0.77110 1.13267
 C66 C 0.50041 0.68942 1.13208
 C67 C 0.54361 0.89240 1.05578
 C68 C 0.63104 0.80645 1.05146
 H69 H 0.37449 0.78842 0.85840
 H70 H 0.64665 0.62028 1.03757
 H71 H 0.36011 0.78689 1.19855
 H72 H 0.56414 0.97896 1.07966
 B73 B 0.97592 1.11097 0.05972
 B74 B 0.98045 1.09850 -0.08015
 B75 B 1.10359 1.08185 -0.00157
 B76 B 1.06728 1.01514 0.11030
 B77 B 0.92432 0.99042 0.09859
 B78 B 0.87117 1.03944 -0.01933
 B79 B 1.02488 0.87518 -0.07638
 B80 B 1.01839 0.88709 0.06326
 B81 B 0.89913 0.90357 -0.01844
 B82 B 0.93338 0.97001 -0.12751
 B83 B 1.07580 0.99539 -0.11674
 B84 B 1.12946 0.94287 0.00239
 B85 B 0.61646 0.51205 0.45272
 B86 B 0.49414 0.57654 0.41012
 B87 B 0.50866 0.43607 0.39095
 B88 B 0.58086 0.38897 0.50084
 B89 B 0.61095 0.50273 0.59025
 B90 B 0.55827 0.61926 0.53533
 B91 B 0.38059 0.48274 0.56597
 B92 B 0.50094 0.42159 0.61120
 B93 B 0.48531 0.56125 0.63139
 B94 B 0.41396 0.60579 0.51976
 B95 B 0.38595 0.49232 0.43089
 B96 B 0.44002 0.37959 0.48794
 N97 N 0.95426 1.30619 0.08517
 N98 N 0.96121 1.21888 0.13387
 N99 N 0.95081 0.71367 0.11861
 N100 N 1.03085 0.78485 0.12939
 N101 N 0.99510 1.27451 -0.16248
 N102 N 0.94697 1.18563 -0.15749
 N103 N 1.05968 0.67182 -0.09494
 N104 N 1.04281 0.76268 -0.14070
 N105 N 1.09752 0.99046 0.29783
 N106 N 1.13500 1.03671 0.21923
 N107 N 1.11373 1.05551 -0.29797
 N108 N 1.14593 0.99658 -0.21939
 N109 N 0.85679 0.92374 0.26021
 N110 N 0.85128 1.00196 0.19885
 N111 N 0.90313 0.94541 -0.33307
 N112 N 0.86103 0.95549 -0.23789
 N113 N 1.28699 1.17478 -0.01230
 N114 N 1.18558 1.17825 0.00837
 N115 N 0.71153 1.17058 -0.02111
 N116 N 0.74429 1.06955 -0.02941
 N117 N 1.33322 0.93022 0.03808
 N118 N 1.24167 0.87994 0.01160
 N119 N 0.72469 0.81853 0.00886
 N120 N 0.81181 0.81294 -0.04169
 N121 N 0.81628 0.55156 0.40342
 N122 N 0.71899 0.50770 0.38400
 N123 N 0.19650 0.54461 0.35457
 N124 N 0.28137 0.47743 0.35249
 N125 N 0.80596 0.54912 0.65729
 N126 N 0.71442 0.49680 0.66573
 N127 N 0.18450 0.51356 0.61748
 N128 N 0.27351 0.45301 0.61702
 N129 N 0.52179 0.62236 0.22206
 N130 N 0.48195 0.65060 0.31593
 N131 N 0.53145 0.62014 0.83011
 N132 N 0.46599 0.62478 0.74332
 N133 N 0.55410 0.39626 0.19407
 N134 N 0.50249 0.37413 0.27841
 N135 N 0.53625 0.38739 0.80267
 N136 N 0.48872 0.35594 0.70882
 N137 N 0.62792 0.80226 0.52352
 N138 N 0.61545 0.72638 0.58154
 N139 N 0.64329 0.19138 0.52361
 N140 N 0.65699 0.28326 0.48028
 N141 N 0.35794 0.80390 0.55392
 N142 N 0.33157 0.70438 0.51740
 N143 N 0.39517 0.18932 0.52837
 N144 N 0.38403 0.26782 0.46450
   
