data_POSCAR
  _audit_creation_date              2014-09-24
  _audit_creation_method            'ToBaCCo'
  _symmetry_space_group_name_H-M    'P1'
  _symmetry_Int_Tables_number       1
  _symmetry_cell_setting            triclinic
  loop_
  _symmetry_equiv_pos_as_xyz
 x,y,z
_cell_length_a 29.1318
_cell_length_b 28.6232
_cell_length_c 30.6700
_cell_angle_alpha 90.647200
_cell_angle_beta 90.314200
_cell_angle_gamma 90.161500
loop_
  _atom_site_label
  _atom_site_type_symbol
  _atom_site_fract_x
  _atom_site_fract_y
  _atom_site_fract_z
N1 N 0.17006 0.17120 0.17357
 N2 N -0.18397 0.80793 0.19836
 N3 N -0.19249 0.17910 -0.19224
 N4 N 0.17160 0.83100 -0.18674
 N5 N 0.19539 1.18302 0.80889
 N6 N 0.83093 0.83593 0.81808
 N7 N 0.19369 0.80315 1.20547
 N8 N 0.80309 1.20070 1.19839
 O9 O 0.44012 1.07401 1.08669
 O10 O 0.38762 1.03026 1.04785
 C11 C 0.39826 1.06187 1.07685
 O12 O 0.56254 1.07042 0.92425
 O13 O 0.61284 1.02719 0.96468
 C14 C 0.60391 1.05675 0.93439
 O15 O 0.43237 1.07536 0.93341
 O16 O 0.38358 1.03203 0.97576
 C17 C 0.39166 1.06390 0.94699
 O18 O 0.56922 1.07034 1.08447
 O19 O 0.61670 1.02858 1.03923
 C20 C 0.60963 1.05876 1.07025
 Zr21 Zr 0.50332 1.04838 1.06228
 O22 O 0.50838 1.12217 1.06319
 O23 O 0.50200 1.04739 1.13128
 Zr24 Zr 0.49814 1.04989 0.95188
 O25 O 0.50387 1.12362 0.95492
 O26 O 0.48992 1.05251 0.88336
 O27 O 0.45986 1.05844 1.00885
 O28 O 0.54048 1.05752 1.00567
 O29 O 0.56879 0.90766 1.08103
 O30 O 0.61636 0.95004 1.03711
 C31 C 0.60922 0.91958 1.06715
 O32 O 0.43197 0.90525 0.93147
 O33 O 0.38347 0.95084 0.97242
 C34 C 0.39141 0.91821 0.94378
 O35 O 0.56023 0.91081 0.92123
 O36 O 0.61260 0.95169 0.96270
 C37 C 0.60204 0.92282 0.93133
 O38 O 0.44007 0.90140 1.08016
 O39 O 0.38748 0.94837 1.04615
 C40 C 0.39835 0.91406 1.07156
 Zr41 Zr 0.50287 0.93032 1.05982
 O42 O 0.50835 0.85666 1.06066
 O43 O 0.50033 0.93201 1.12882
 Zr44 Zr 0.49715 0.93163 0.94962
 O45 O 0.50265 0.85787 0.94808
 O46 O 0.48787 0.93205 0.88111
 Zr47 Zr 0.43197 0.99032 1.00855
 Zr48 Zr 0.56801 0.98968 1.00331
 O49 O 0.53958 0.92211 1.00287
 O50 O 0.45909 0.92204 1.00610
 O51 O 0.54443 0.98917 1.06807
 O52 O 0.45742 0.99100 0.94440
 O53 O 0.46346 0.98921 1.07049
 O54 O 0.53782 0.99061 0.94070
 H55 H 0.56164 1.08467 1.00503
 H56 H 0.43550 0.99128 0.91959
 H57 H 0.56025 0.89472 1.00120
 H58 H 0.44377 0.98851 1.09672
 H59 H 0.51256 1.03080 0.87046
 H60 H 0.51251 0.95163 0.86878
 H61 H 0.47702 0.84508 0.96532
 H62 H 0.48676 0.84421 1.03841
 H63 H 0.52849 0.94793 1.13947
 H64 H 0.52841 1.02854 1.14115
 H65 H 0.48196 1.13434 1.04645
 H66 H 0.47699 1.13554 0.97113
 O67 O 0.07507 0.57362 -0.08253
 O68 O 0.03711 0.61881 -0.03221
 C69 C 0.06411 0.61390 -0.06523
 O70 O -0.08965 0.44372 -0.08397
 O71 O -0.04440 0.38763 -0.05286
 C72 C -0.07810 0.40053 -0.07779
 O73 O -0.07949 0.57551 -0.07678
 O74 O -0.03623 0.61979 -0.02934
 C75 C -0.06537 0.61563 -0.06106
 O76 O 0.07831 0.44041 -0.09294
 O77 O 0.03479 0.38602 -0.05717
 C78 C 0.06497 0.39765 -0.08592
 Zr79 Zr 0.05529 0.50457 -0.06397
 O80 O 0.05238 0.50693 -0.13287
 O81 O 0.12780 0.50943 -0.06588
 Zr82 Zr -0.06078 0.50607 -0.05825
 O83 O -0.06661 0.50750 -0.12702
 O84 O -0.13285 0.51347 -0.05302
 O85 O -0.00244 0.54734 -0.06486
 O86 O -0.00403 0.46580 -0.07329
 O87 O 0.08943 0.42595 0.05587
 O88 O 0.04092 0.37867 0.01562
 C89 C 0.07544 0.38541 0.04189
 O90 O -0.07512 0.55417 0.08284
 O91 O -0.03564 0.61047 0.04581
 C92 C -0.06492 0.59728 0.07509
 O93 O -0.07938 0.42605 0.06671
 O94 O -0.03895 0.37875 0.02014
 C95 C -0.06844 0.38530 0.05124
 O96 O 0.08675 0.55594 0.07520
 O97 O 0.04238 0.61079 0.04117
 C98 C 0.07479 0.59889 0.06778
 Zr99 Zr 0.06158 0.49290 0.04564
 O100 O 0.06313 0.47958 0.11343
 O101 O 0.13406 0.49750 0.04485
 Zr102 Zr -0.05424 0.49282 0.05096
 O103 O -0.05013 0.48052 0.11880
 O104 O -0.12665 0.49776 0.05426
 Zr105 Zr 0.00129 0.56769 0.00146
 Zr106 Zr -0.00076 0.42971 -0.01379
 O107 O 0.00373 0.45152 0.05185
 O108 O 0.00459 0.53337 0.06164
 O109 O 0.06664 0.45717 -0.01404
 O110 O -0.06549 0.53980 0.00114
 O111 O 0.06731 0.53887 -0.00534
 O112 O -0.06718 0.45800 -0.00776
 H113 H -0.00615 0.44774 -0.10097
 H114 H -0.09188 0.56137 0.00395
 H115 H 0.00521 0.42762 0.07493
 H116 H 0.09450 0.55974 -0.00466
 H117 H -0.14474 0.48519 -0.03863
 H118 H -0.13974 0.47317 0.03494
 H119 H -0.02924 0.50433 0.13160
 H120 H 0.05004 0.50715 0.12857
 H121 H 0.14468 0.47881 0.01956
 H122 H 0.14033 0.47961 -0.05505
 H123 H 0.03274 0.53369 -0.14077
 H124 H -0.04488 0.53143 -0.13746
 O125 O 1.07873 -0.08021 0.43952
 O126 O 1.03521 -0.03921 0.39064
 C127 C 1.06453 -0.07140 0.40020
 O128 O 0.91888 -0.06832 0.56253
 O129 O 0.96220 -0.02231 0.60869
 C130 C 0.93167 -0.05470 0.60120
 O131 O 0.91780 -0.07628 0.44074
 O132 O 0.95953 -0.03453 0.39108
 C133 C 0.92835 -0.06470 0.40125
 O134 O 1.08726 -0.06502 0.56128
 O135 O 1.04230 -0.02187 0.60782
 C136 C 1.07518 -0.05117 0.59995
 Zr137 Zr 1.05823 -0.04946 0.49992
 O138 O 1.05488 -0.12258 0.50935
 O139 O 1.13043 -0.05388 0.49435
 Zr140 Zr 0.94244 -0.04787 0.50067
 O141 O 0.94193 -0.12142 0.50731
 O142 O 0.86981 -0.04645 0.49780
 O143 O 0.99961 -0.06045 0.46189
 O144 O 1.00088 -0.05459 0.53862
 O145 O 1.08540 0.09618 0.55508
 O146 O 1.04264 0.05573 0.60497
 C147 C 1.07391 0.08605 0.59486
 O148 O 0.92210 0.09194 0.43121
 O149 O 0.96283 0.04259 0.38673
 C150 C 0.93345 0.07574 0.39287
 O151 O 0.91763 0.09578 0.55401
 O152 O 0.96124 0.05646 0.60409
 C153 C 0.92915 0.08578 0.59376
 O154 O 1.08358 0.08864 0.43143
 O155 O 1.04044 0.04032 0.38704
 C156 C 1.07192 0.07158 0.39340
 Zr157 Zr 1.06017 0.06893 0.49452
 O158 O 1.06003 0.14290 0.49441
 O159 O 1.13272 0.06795 0.49094
 Zr160 Zr 0.94450 0.07053 0.49447
 O161 O 0.94904 0.14440 0.49589
 O162 O 0.87219 0.07468 0.48979
 Zr163 Zr 1.00056 0.00601 0.43318
 Zr164 Zr 1.00182 0.01465 0.56251
 O165 O 1.00260 0.08044 0.53232
 O166 O 1.00219 0.07608 0.45493
 O167 O 1.06851 0.01225 0.53593
 O168 O 0.93447 0.00899 0.46038
 O169 O 1.06731 0.00687 0.45974
 O170 O 0.93471 0.01398 0.53638
 H171 H 1.00156 -0.08070 0.55954
 H172 H 0.90685 0.00863 0.44137
 H173 H 1.00270 0.10897 0.55092
 H174 H 1.09420 0.00423 0.44025
 H175 H 0.85897 -0.02802 0.52320
 H176 H 0.85961 0.05024 0.50888
 H177 H 0.96374 0.15427 0.46848
 H178 H 1.04367 0.15284 0.46774
 H179 H 1.14435 0.05245 0.51746
 H180 H 1.14346 -0.02694 0.51066
 H181 H 1.03843 -0.13645 0.48403
 H182 H 0.95919 -0.13486 0.48249
 C183 C 1.14141 0.19788 0.24542
 C184 C 1.15633 0.16158 0.21767
 C185 C 1.15547 0.11548 0.23263
 C186 C 1.13811 0.10540 0.27397
 C187 C 1.12241 0.14200 0.30152
 C188 C 1.12485 0.18823 0.28709
 C189 C 1.10300 0.13147 0.34218
 C190 C 1.09789 0.08475 0.35454
 C191 C 1.11422 0.04883 0.32722
 C192 C 1.13460 0.05904 0.28750
 H193 H 1.16644 0.08727 0.21127
 H194 H 1.11296 0.21676 0.30757
 H195 H 1.08981 0.15913 0.36300
 H196 H 1.14634 0.03059 0.26681
 H197 H 1.14216 0.23373 0.23455
 H198 H 1.11049 0.01257 0.33645
 C199 C 0.85702 -0.20924 0.26691
 C200 C 0.83370 -0.17737 0.24020
 C201 C 0.83082 -0.13041 0.25317
 C202 C 0.85248 -0.11496 0.29150
 C203 C 0.87684 -0.14704 0.31775
 C204 C 0.87830 -0.19425 0.30546
 C205 C 0.90047 -0.13101 0.35500
 C206 C 0.90058 -0.08333 0.36540
 C207 C 0.87543 -0.05198 0.33998
 C208 C 0.85139 -0.06763 0.30330
 H209 H 0.81341 -0.10563 0.23240
 H210 H 0.89673 -0.21932 0.32509
 H211 H 0.92010 -0.15504 0.37478
 H212 H 0.83273 -0.04265 0.28376
 H213 H 0.85934 -0.24572 0.25749
 H214 H 0.87459 -0.01523 0.34860
 C215 C 0.85488 0.11380 0.78062
 C216 C 0.82974 0.15465 0.77276
 C217 C 0.82883 0.17349 0.73084
 C218 C 0.85324 0.15195 0.69688
 C219 C 0.87923 0.11132 0.70524
 C220 C 0.87953 0.09231 0.74713
 C221 C 0.90457 0.09041 0.67163
 C222 C 0.90362 0.10891 0.62941
 C223 C 0.87720 0.14898 0.62131
 C224 C 0.85245 0.17048 0.65481
 H225 H 0.80951 0.20515 0.72503
 H226 H 0.89916 0.06114 0.75407
 H227 H 0.92463 0.05946 0.67829
 H228 H 0.83263 0.20151 0.64779
 H229 H 0.85652 0.09911 0.81288
 H230 H 0.87591 0.16397 0.58906
 C231 C 1.10064 -0.13653 0.78225
 C232 C 1.14765 -0.14618 0.77858
 C233 C 1.17136 -0.13332 0.74100
 C234 C 1.14806 -0.11173 0.70665
 C235 C 1.10072 -0.10157 0.71064
 C236 C 1.07736 -0.11392 0.74867
 C237 C 1.07738 -0.08017 0.67617
 C238 C 1.10038 -0.07047 0.63722
 C239 C 1.14724 -0.08096 0.63341
 C240 C 1.17107 -0.10091 0.66807
 H241 H 1.20762 -0.14117 0.73835
 H242 H 1.04109 -0.10659 0.75221
 H243 H 1.04104 -0.07261 0.67902
 H244 H 1.20726 -0.10859 0.66446
 H245 H 1.08219 -0.14608 0.81139
 H246 H 1.16549 -0.07352 0.60359
 C247 C 0.19736 1.11727 1.11656
 C248 C 0.20656 1.14540 1.15331
 C249 C 0.25175 1.15033 1.16862
 C250 C 0.28790 1.12818 1.14656
 C251 C 0.27839 1.09974 1.10957
 C252 C 0.23295 1.09417 1.09507
 C253 C 0.31448 1.07788 1.08729
 C254 C 0.36026 1.08480 1.10076
 C255 C 0.36931 1.11335 1.13748
 C256 C 0.33345 1.13460 1.16032
 H257 H 0.25866 1.17260 1.19673
 H258 H 0.22504 1.07259 1.06674
 H259 H 0.30684 1.05596 1.05910
 H260 H 0.34139 1.15635 1.18853
 H261 H 0.16251 1.11345 1.10457
 H262 H 0.40417 1.11909 1.14880
 C263 C 0.20656 0.90262 0.84509
 C264 C 0.20832 0.85429 0.83653
 C265 C 0.24565 0.82839 0.85215
 C266 C 0.28086 0.85027 0.87604
 C267 C 0.27849 0.89876 0.88518
 C268 C 0.24122 0.92464 0.86946
 C269 C 0.31385 0.92059 0.90916
 C270 C 0.35215 0.89475 0.92267
 C271 C 0.35433 0.84673 0.91319
 C272 C 0.31870 0.82451 0.89050
 H273 H 0.24740 0.79122 0.84523
 H274 H 0.23895 0.96187 0.87591
 H275 H 0.31247 0.95785 0.91587
 H276 H 0.32110 0.78738 0.88364
 H277 H 0.17786 0.92314 0.83361
 H278 H 0.38372 0.82640 0.92339
 C279 C 0.73473 0.83063 1.20717
 C280 C 0.77384 0.82620 1.18087
 C281 C 0.77160 0.83977 1.13713
 C282 C 0.73106 0.85809 1.11981
 C283 C 0.69163 0.86232 1.14630
 C284 C 0.69382 0.84835 1.18996
 C285 C 0.65111 0.88115 1.12877
 C286 C 0.65018 0.89681 1.08552
 C287 C 0.68964 0.89230 1.05965
 C288 C 0.72959 0.87282 1.07651
 H289 H 0.80183 0.83687 1.11684
 H290 H 0.66406 0.85142 1.21083
 H291 H 0.62091 0.88490 1.14901
 H292 H 0.75950 0.86980 1.05582
 H293 H 0.73588 0.82001 1.24092
 H294 H 0.68959 0.90385 1.02614
 C295 C 0.72340 1.18308 0.81528
 C296 C 0.76536 1.16161 0.82517
 C297 C 0.76626 1.12378 0.85346
 C298 C 0.72568 1.10695 0.87164
 C299 C 0.68323 1.12874 0.86229
 C300 C 0.68251 1.16688 0.83384
 C301 C 0.64271 1.11228 0.88202
 C302 C 0.64466 1.07439 0.91083
 C303 C 0.68732 1.05263 0.91855
 C304 C 0.72722 1.06878 0.89939
 H305 H 0.79874 1.10789 0.86189
 H306 H 0.65053 1.18424 0.82617
 H307 H 0.61021 1.12924 0.87556
 H308 H 0.75941 1.05148 0.90653
 H309 H 0.72247 1.21255 0.79348
 H310 H 0.69028 1.02291 0.93992
 C311 C 0.09768 0.20453 0.14594
 C312 C 0.14583 0.20513 0.14811
 C313 C 0.17038 0.23918 0.12539
 C314 C 0.14711 0.27339 0.10176
 C315 C 0.09855 0.27270 0.09971
 C316 C 0.07417 0.23786 0.12159
 C317 C 0.07525 0.30791 0.07725
 C318 C 0.09988 0.34466 0.05853
 C319 C 0.14798 0.34497 0.06045
 C320 C 0.17151 0.30918 0.08134
 H321 H 0.20755 0.23974 0.12737
 H322 H 0.03699 0.23692 0.12052
 H323 H 0.03804 0.30833 0.07660
 H324 H 0.20867 0.31030 0.08278
 H325 H 0.07844 0.17811 0.16307
 H326 H 0.16727 0.37342 0.04634
 C327 C -0.12685 0.20193 -0.14575
 C328 C -0.16724 0.21389 -0.16810
 C329 C -0.18248 0.26024 -0.16732
 C330 C -0.15712 0.29474 -0.14495
 C331 C -0.11635 0.28251 -0.12261
 C332 C -0.10162 0.23595 -0.12305
 C333 C -0.09084 0.31705 -0.10046
 C334 C -0.10520 0.36390 -0.10072
 C335 C -0.14581 0.37560 -0.12309
 C336 C -0.17159 0.34133 -0.14488
 H337 H -0.21354 0.26938 -0.18480
 H338 H -0.07052 0.22591 -0.10608
 H339 H -0.05963 0.30743 -0.08340
 H340 H -0.20272 0.35133 -0.16182
 H341 H -0.11494 0.16618 -0.14568
 H342 H -0.15789 0.41133 -0.12368
 C343 C 0.15951 0.74631 -0.19640
 C344 C 0.15457 0.78721 -0.17131
 C345 C 0.13337 0.78540 -0.13066
 C346 C 0.11666 0.74300 -0.11501
 C347 C 0.12240 0.70136 -0.13973
 C348 C 0.14395 0.70344 -0.18051
 C349 C 0.10610 0.65870 -0.12333
 C350 C 0.08302 0.65771 -0.08318
 C351 C 0.07661 0.69988 -0.05982
 C352 C 0.09381 0.74184 -0.07521
 H353 H 0.12944 0.81733 -0.11169
 H354 H 0.14853 0.67209 -0.20010
 H355 H 0.11064 0.62671 -0.14204
 H356 H 0.08872 0.77352 -0.05617
 H357 H 0.17604 0.74765 -0.22789
 H358 H 0.05810 0.70074 -0.02933
 C359 C -0.11472 0.78991 0.15585
 C360 C -0.15735 0.77617 0.17254
 C361 C -0.17310 0.73061 0.16603
 C362 C -0.14601 0.69817 0.14374
 C363 C -0.10311 0.71189 0.12638
 C364 C -0.08790 0.75807 0.13241
 C365 C -0.07620 0.67905 0.10378
 C366 C -0.09134 0.63260 0.09951
 C367 C -0.13375 0.61953 0.11757
 C368 C -0.16094 0.65202 0.13917
 H369 H -0.20585 0.72033 0.17961
 H370 H -0.05513 0.76930 0.11960
 H371 H -0.04354 0.68940 0.09005
 H372 H -0.19358 0.64099 0.15244
 H373 H -0.10245 0.82529 0.16109
 H374 H -0.14655 0.58408 0.11436
 C375 C 1.16662 0.11124 0.77580
 C376 C 1.17296 0.16019 0.77495
 C377 C 1.15747 0.18455 0.73784
 C378 C 1.13739 0.16040 0.70222
 C379 C 1.13046 0.11157 0.70436
 C380 C 1.14504 0.08744 0.74135
 C381 C 1.10950 0.08754 0.66927
 C382 C 1.09702 0.11132 0.63119
 C383 C 1.10538 0.15957 0.62869
 C384 C 1.12479 0.18403 0.66411
 H385 H 1.16302 0.22193 0.73590
 H386 H 1.14026 0.04997 0.74345
 H387 H 1.10358 0.05019 0.67123
 H388 H 1.13012 0.22137 0.66163
 H389 H 1.17760 0.09142 0.80384
 H390 H 1.09578 0.17855 0.59969
 C391 C 0.86755 -0.09209 0.79079
 C392 C 0.85254 -0.13833 0.78371
 C393 C 0.85733 -0.15865 0.74221
 C394 C 0.87588 -0.13286 0.70781
 C395 C 0.89132 -0.08649 0.71520
 C396 C 0.88725 -0.06657 0.75698
 C397 C 0.91000 -0.06079 0.68059
 C398 C 0.91199 -0.08047 0.63841
 C399 C 0.89602 -0.12646 0.63162
 C400 C 0.87858 -0.15250 0.66595
 H401 H 0.84528 -0.19405 0.73648
 H402 H 0.89877 -0.03111 0.76338
 H403 H 0.92222 -0.02547 0.68628
 H404 H 0.86694 -0.18795 0.65967
 H405 H 0.86432 -0.07578 0.82259
 H406 H 0.89771 -0.14280 0.59965
 C407 C 1.20754 -0.16524 0.27953
 C408 C 1.17681 -0.17827 0.24612
 C409 C 1.12973 -0.17030 0.25146
 C410 C 1.11347 -0.14816 0.28931
 C411 C 1.14455 -0.13509 0.32299
 C412 C 1.19151 -0.14429 0.31793
 C413 C 1.12826 -0.11175 0.36039
 C414 C 1.08167 -0.09988 0.36355
 C415 C 1.05116 -0.11317 0.32998
 C416 C 1.06680 -0.13757 0.29342
 H417 H 1.10616 -0.17968 0.22531
 H418 H 1.21590 -0.13434 0.34319
 H419 H 1.15196 -0.10106 0.38603
 H420 H 1.04256 -0.14721 0.26791
 H421 H 1.24400 -0.17109 0.27559
 H422 H 1.01504 -0.10451 0.33205
 C423 C 0.82541 0.21375 0.27524
 C424 C 0.82567 0.18568 0.23745
 C425 C 0.84727 0.14213 0.23812
 C426 C 0.86872 0.12649 0.27623
 C427 C 0.86753 0.15419 0.31475
 C428 C 0.84585 0.19795 0.31381
 C429 C 0.88817 0.13764 0.35326
 C430 C 0.91108 0.09441 0.35316
 C431 C 0.91301 0.06816 0.31407
 C432 C 0.89154 0.08365 0.27628
 H433 H 0.84756 0.12075 0.20871
 H434 H 0.84475 0.21989 0.34279
 H435 H 0.88695 0.15854 0.38292
 H436 H 0.89306 0.06219 0.24698
 H437 H 0.80858 0.24742 0.27496
 H438 H 0.93074 0.03498 0.31266
 C439 C 0.21035 0.25882 -0.15666
 C440 C 0.17968 0.22550 -0.17506
 C441 C 0.13234 0.23645 -0.17525
 C442 C 0.11613 0.27806 -0.15598
 C443 C 0.14741 0.31062 -0.13744
 C444 C 0.19448 0.30085 -0.13856
 C445 C 0.13093 0.35151 -0.11676
 C446 C 0.08347 0.35906 -0.11296
 C447 C 0.05277 0.32658 -0.13175
 C448 C 0.06889 0.28684 -0.15356
 H449 H 0.10771 0.21140 -0.18820
 H450 H 0.21907 0.32536 -0.12466
 H451 H 0.15474 0.37608 -0.10170
 H452 H 0.04432 0.26228 -0.16744
 H453 H 0.24699 0.25261 -0.15671
 H454 H 0.01606 0.33179 -0.12905
 C455 C -0.19855 0.28300 0.17742
 C456 C -0.17837 0.23881 0.17409
 C457 C -0.14132 0.23162 0.14571
 C458 C -0.12463 0.26859 0.12045
 C459 C -0.14470 0.31330 0.12456
 C460 C -0.18167 0.32014 0.15306
 C461 C -0.12718 0.35065 0.10057
 C462 C -0.08974 0.34425 0.07229
 C463 C -0.07107 0.29928 0.06722
 C464 C -0.08824 0.26180 0.09124
 H465 H -0.12617 0.19718 0.14303
 H466 H -0.19754 0.35417 0.15645
 H467 H -0.14233 0.38498 0.10457
 H468 H -0.07270 0.22767 0.08739
 H469 H -0.22732 0.28856 0.19905
 H470 H -0.04233 0.29330 0.04564
 C471 C -0.17180 0.74983 -0.18447
 C472 C -0.15189 0.79136 -0.16854
 C473 C -0.11854 0.78942 -0.13568
 C474 C -0.10572 0.74645 -0.11793
 C475 C -0.12580 0.70444 -0.13382
 C476 C -0.15854 0.70657 -0.16755
 C477 C -0.11315 0.66139 -0.11529
 C478 C -0.08113 0.66016 -0.08071
 C479 C -0.06184 0.70259 -0.06541
 C480 C -0.07379 0.74505 -0.08389
 H481 H -0.10378 0.82167 -0.12304
 H482 H -0.17455 0.67495 -0.18016
 H483 H -0.12816 0.62916 -0.12766
 H484 H -0.05813 0.77689 -0.07133
 H485 H -0.19821 0.75112 -0.20941
 H486 H -0.03688 0.70324 -0.03911
 C487 C 0.16275 0.72290 0.21368
 C488 C 0.17400 0.76085 0.18697
 C489 C 0.16501 0.75747 0.14202
 C490 C 0.14479 0.71715 0.12397
 C491 C 0.13341 0.67908 0.15098
 C492 C 0.14283 0.68230 0.19585
 C493 C 0.11199 0.63910 0.13267
 C494 C 0.10105 0.63768 0.08798
 C495 C 0.11338 0.67543 0.06163
 C496 C 0.13514 0.71469 0.07930
 H497 H 0.17288 0.78675 0.12121
 H498 H 0.13445 0.65364 0.21719
 H499 H 0.10240 0.61012 0.15320
 H500 H 0.14387 0.74337 0.05808
 H501 H 0.16956 0.72472 0.24839
 H502 H 0.10613 0.67442 0.02704
 C503 C 0.26680 1.14061 0.80065
 C504 C 0.23341 1.16208 0.82730
 C505 C 0.23901 1.15990 0.87306
 C506 C 0.27651 1.13617 0.89153
 C507 C 0.31020 1.11611 0.86415
 C508 C 0.30503 1.11864 0.81882
 C509 C 0.34818 1.09325 0.88255
 C510 C 0.35198 1.08844 0.92793
 C511 C 0.31767 1.10710 0.95490
 C512 C 0.28058 1.13139 0.93692
 H513 H 0.21307 1.17489 0.89418
 H514 H 0.33031 1.10312 0.79735
 H515 H 0.37427 1.07822 0.86160
 H516 H 0.25491 1.14609 0.95847
 H517 H 0.26373 1.14181 0.76547
 H518 H 0.32012 1.10370 0.98996
 C519 C 0.22062 0.87856 1.17609
 C520 C 0.22648 0.83016 1.18111
 C521 C 0.26427 0.80816 1.16169
 C522 C 0.29619 0.83413 1.13788
 C523 C 0.28994 0.88280 1.13267
 C524 C 0.25192 0.90463 1.15186
 C525 C 0.32235 0.90882 1.10920
 C526 C 0.36155 0.88688 1.09224
 C527 C 0.36728 0.83855 1.09757
 C528 C 0.33468 0.81232 1.11976
 H529 H 0.26899 0.77090 1.16575
 H530 H 0.24657 0.94186 1.14840
 H531 H 0.31809 0.94622 1.10565
 H532 H 0.34000 0.77511 1.12343
 H533 H 0.19143 0.89605 1.19055
 H534 H 0.39725 0.82104 1.08459
 C535 C 0.72596 1.16718 1.20801
 C536 C 0.76434 1.17490 1.18158
 C537 C 0.76468 1.15698 1.13881
 C538 C 0.72693 1.13174 1.12243
 C539 C 0.68778 1.12520 1.14879
 C540 C 0.68775 1.14288 1.19165
 C541 C 0.64941 1.10118 1.13179
 C542 C 0.65019 1.08270 1.08913
 C543 C 0.68981 1.08836 1.06372
 C544 C 0.72769 1.11293 1.08009
 H545 H 0.79457 1.16219 1.11858
 H546 H 0.65824 1.13792 1.21246
 H547 H 0.61916 1.09661 1.15176
 H548 H 0.75751 1.11738 1.05956
 H549 H 0.72542 1.18071 1.24111
 H550 H 0.69110 1.07469 1.03066
 C551 C 0.80363 0.88128 0.88129
 C552 C 0.79426 0.85629 0.84268
 C553 C 0.74872 0.84914 0.82927
 C554 C 0.71247 0.86692 0.85435
 C555 C 0.72212 0.89261 0.89300
 C556 C 0.76783 0.89969 0.90614
 C557 C 0.68596 0.91056 0.91800
 C558 C 0.64005 0.90286 0.90526
 C559 C 0.63088 0.87685 0.86699
 C560 C 0.66675 0.85919 0.84168
 H561 H 0.74177 0.82921 0.79969
 H562 H 0.77584 0.91908 0.93578
 H563 H 0.69372 0.93045 0.94741
 H564 H 0.65873 0.83948 0.81223
 H565 H 0.83873 0.88640 0.89213
 H566 H 0.59591 0.87050 0.85628
   
