data_POSCAR
  _audit_creation_date              2014-09-24
  _audit_creation_method            'ToBaCCo'
  _symmetry_space_group_name_H-M    'P1'
  _symmetry_Int_Tables_number       1
  _symmetry_cell_setting            triclinic
  loop_
  _symmetry_equiv_pos_as_xyz
 x,y,z
_cell_length_a 14.7671
_cell_length_b 14.7709
_cell_length_c 14.7925
_cell_angle_alpha 90.616800
_cell_angle_beta 90.545100
_cell_angle_gamma 90.645200
loop_
  _atom_site_label
  _atom_site_type_symbol
  _atom_site_fract_x
  _atom_site_fract_y
  _atom_site_fract_z
Si1 Si 0.00403 0.50509 0.25721
 Si2 Si -0.00044 0.49091 0.74653
 Si3 Si 0.25730 0.00430 0.50326
 Si4 Si 0.74594 -0.00061 0.48972
 Si5 Si 0.50612 0.25913 1.00414
 Si6 Si 0.48811 0.74706 0.99978
 B7 B 0.99400 1.09121 0.07033
 B8 B 0.97994 1.10367 -0.04905
 B9 B 1.09116 1.07221 -0.00536
 B10 B 1.07110 0.99547 0.09039
 B11 B 0.95137 0.97975 0.10243
 B12 B 0.89261 1.04359 0.01602
 B13 B 1.00156 0.90617 -0.07562
 B14 B 1.01880 0.89319 0.04383
 B15 B 0.90604 0.92422 -0.00035
 B16 B 0.92698 0.99948 -0.09617
 B17 B 1.04556 1.01934 -0.10769
 B18 B 1.10399 0.95281 -0.02084
 B19 B 0.59393 0.52234 0.43176
 B20 B 0.48227 0.57430 0.41165
 B21 B 0.49569 0.45434 0.39675
 B22 B 0.57367 0.41174 0.48310
 B23 B 0.60623 0.50832 0.55286
 B24 B 0.55170 0.60712 0.50865
 B25 B 0.41078 0.48312 0.57387
 B26 B 0.52058 0.43160 0.59478
 B27 B 0.50690 0.55206 0.60726
 B28 B 0.43077 0.59456 0.52190
 B29 B 0.39618 0.49588 0.45399
 B30 B 0.45369 0.39647 0.49574
 C31 C 0.99456 1.37809 0.20430
 C32 C 1.08156 1.33949 0.16923
 C33 C 1.07634 1.25223 0.14238
 C34 C 0.98459 1.20228 0.13666
 C35 C 0.95146 1.21852 0.23531
 C36 C 0.96216 1.30439 0.27110
 C37 C 0.93067 1.36343 0.12373
 C38 C 0.92402 1.27523 0.09403
 H39 H 1.13480 1.37822 0.13891
 H40 H 1.13147 1.22773 0.10979
 H41 H 0.89935 1.18040 0.26781
 H42 H 0.93823 1.31725 0.33791
 H43 H 0.89491 1.41620 0.08911
 H44 H 0.87350 1.25861 0.04835
 C45 C 1.02660 0.61582 0.18390
 C46 C 0.94255 0.67327 0.17549
 C47 C 0.95206 0.74934 0.12943
 C48 C 1.04045 0.77450 0.08926
 C49 C 1.10885 0.76259 0.16598
 C50 C 1.10320 0.68380 0.21385
 C51 C 1.05225 0.59915 0.08779
 C52 C 1.06426 0.67746 0.04052
 H53 H 0.87485 0.65717 0.19340
 H54 H 0.89562 0.78617 0.11508
 H55 H 1.17232 0.79770 0.16566
 H56 H 1.16823 0.66149 0.23711
 H57 H 1.07190 0.53331 0.06193
 H58 H 1.09763 0.66410 -0.02212
 C59 C 0.97962 1.38500 -0.17949
 C60 C 1.03663 1.37953 -0.09567
 C61 C 1.03122 1.29763 -0.05497
 C62 C 0.96881 1.22191 -0.09428
 C63 C 0.87820 1.27817 -0.10650
 C64 C 0.88508 1.36171 -0.14572
 C65 C 1.00304 1.30102 -0.23499
 C66 C 1.00007 1.22278 -0.18870
 H67 H 1.07660 1.43505 -0.06773
 H68 H 1.07447 1.28996 -0.00252
 H69 H 0.81507 1.26752 -0.07602
 H70 H 0.82949 1.40872 -0.14442
 H71 H 0.99231 1.29705 -0.30721
 H72 H 0.98531 1.16529 -0.22079
 C73 C 1.00238 0.62179 -0.21147
 C74 C 1.09496 0.66707 -0.19990
 C75 C 1.09457 0.75249 -0.16548
 C76 C 1.00124 0.79688 -0.14332
 C77 C 0.94577 0.77631 -0.23148
 C78 C 0.95270 0.69195 -0.27038
 C79 C 0.95779 0.63483 -0.12038
 C80 C 0.95539 0.72355 -0.09169
 H81 H 1.15726 0.64299 -0.22731
 H82 H 1.15940 0.78461 -0.16271
 H83 H 0.88129 0.80535 -0.24462
 H84 H 0.90601 0.67558 -0.32404
 H85 H 0.93280 0.57951 -0.07940
 H86 H 0.93324 0.74174 -0.02914
 C87 C 1.20384 0.99513 0.37693
 C88 C 1.16853 1.08235 0.33934
 C89 C 1.14225 1.07815 0.25205
 C90 C 1.13707 0.98677 0.20126
 C91 C 1.23588 0.95402 0.21746
 C92 C 1.27123 0.96391 0.30336
 C93 C 1.12341 0.93087 0.36135
 C94 C 1.09412 0.92526 0.27306
 H95 H 1.13790 1.13492 0.37870
 H96 H 1.10966 1.13363 0.22841
 H97 H 1.26862 0.90214 0.17954
 H98 H 1.33776 0.93918 0.31638
 H99 H 1.08874 0.89407 0.41343
 H100 H 1.04821 0.87526 0.25500
 C101 C 1.18614 1.02843 -0.38488
 C102 C 1.09055 1.05580 -0.40129
 C103 C 1.04355 1.06843 -0.32312
 C104 C 1.09117 1.04248 -0.22624
 C105 C 1.13087 0.95457 -0.25156
 C106 C 1.17641 0.94438 -0.32782
 C107 C 1.21757 1.10419 -0.31628
 C108 C 1.16915 1.11005 -0.23764
 H109 H 1.06486 1.07590 -0.46697
 H110 H 0.98125 1.10234 -0.33696
 H111 H 1.11403 0.89885 -0.21567
 H112 H 1.19252 0.87636 -0.34450
 H113 H 1.24275 1.16892 -0.33765
 H114 H 1.16955 1.17338 -0.20228
 C115 C 0.81996 0.97963 0.38381
 C116 C 0.90394 1.03695 0.37749
 C117 C 0.94416 1.03144 0.29533
 C118 C 0.90465 0.96869 0.22034
 C119 C 0.89344 0.87833 0.27767
 C120 C 0.85391 0.88533 0.36093
 C121 C 0.76392 1.00249 0.30033
 C122 C 0.80960 1.00019 0.22187
 H123 H 0.93276 1.07668 0.43266
 H124 H 0.99626 1.07491 0.28651
 H125 H 0.92454 0.81519 0.26811
 H126 H 0.85583 0.83016 0.40836
 H127 H 0.69145 0.99292 0.29694
 H128 H 0.77555 0.99160 0.16429
 C129 C 0.79099 1.00212 -0.38115
 C130 C 0.73527 0.94964 -0.31008
 C131 C 0.77653 0.94152 -0.22726
 C132 C 0.86509 0.99707 -0.20899
 C133 C 0.91657 0.95366 -0.28778
 C134 C 0.88320 0.95932 -0.37393
 C135 C 0.80296 1.09366 -0.33410
 C136 C 0.84018 1.09119 -0.24986
 H137 H 0.67955 0.90475 -0.32502
 H138 H 0.76365 0.87686 -0.19693
 H139 H 0.97827 0.92067 -0.27994
 H140 H 0.91985 0.93282 -0.43161
 H141 H 0.77385 1.15610 -0.35616
 H142 H 0.84245 1.15438 -0.21465
 C143 C 1.37857 1.20615 -0.00444
 C144 C 1.30456 1.27324 -0.03558
 C145 C 1.21862 1.23752 -0.04598
 C146 C 1.20241 1.13870 -0.01341
 C147 C 1.27481 1.09613 -0.07449
 C148 C 1.36315 1.12566 -0.06851
 C149 C 1.34047 1.17061 0.08255
 C150 C 1.25294 1.14422 0.07817
 H151 H 1.31677 1.34069 -0.05791
 H152 H 1.18053 1.27030 -0.09766
 H153 H 1.25726 1.04998 -0.12429
 H154 H 1.41555 1.09059 -0.10447
 H155 H 1.37958 1.13970 0.13502
 H156 H 1.22905 1.11154 0.13357
 C157 C 0.61675 1.18529 0.02353
 C158 C 0.59877 1.08868 0.04706
 C159 C 0.67652 1.04018 0.05757
 C160 C 0.77381 1.08803 0.03531
 C161 C 0.74868 1.12792 -0.05250
 C162 C 0.67453 1.17765 -0.06065
 C163 C 0.68474 1.21328 0.10016
 C164 C 0.76281 1.16438 0.10450
 H165 H 0.53300 1.06381 0.06829
 H166 H 0.66238 0.98002 0.09366
 H167 H 0.77520 1.10140 -0.11013
 H168 H 0.65767 1.19412 -0.12833
 H169 H 0.66293 1.23650 0.16541
 H170 H 0.79883 1.16374 0.16722
 C171 C 1.38329 0.82115 -0.02038
 C172 C 1.36202 0.85564 -0.11475
 C173 C 1.27888 0.89540 -0.12250
 C174 C 1.22116 0.90675 -0.03249
 C175 C 1.22080 0.81171 -0.00250
 C176 C 1.29891 0.76540 0.00170
 C177 C 1.37749 0.90490 0.03683
 C178 C 1.29576 0.94554 0.03089
 H179 H 1.41020 0.85675 -0.16944
 H180 H 1.26959 0.92649 -0.18566
 H181 H 1.16321 0.77928 -0.01792
 H182 H 1.29516 0.69297 -0.00852
 H183 H 1.43315 0.93422 0.07550
 H184 H 1.28736 0.99842 0.07341
 C185 C 0.61722 0.79169 0.00583
 C186 C 0.68547 0.72608 -0.03482
 C187 C 0.77396 0.75567 -0.03378
 C188 C 0.79455 0.85540 0.00306
 C189 C 0.72100 0.90499 -0.04924
 C190 C 0.63303 0.87701 -0.04612
 C191 C 0.66102 0.81103 0.09868
 C192 C 0.74823 0.84306 0.09694
 H193 H 0.67211 0.65417 -0.03682
 H194 H 0.81140 0.69591 -0.01760
 H195 H 0.73398 0.96690 -0.07984
 H196 H 0.57857 0.91699 -0.07448
 H197 H 0.63722 0.78578 0.16195
 H198 H 0.78170 0.84310 0.16064
 C199 C 0.88284 0.52228 0.30660
 C200 C 0.85252 0.45581 0.37530
 C201 C 0.76392 0.46306 0.39759
 C202 C 0.70595 0.53952 0.36337
 C203 C 0.77338 0.62277 0.37631
 C204 C 0.86258 0.61233 0.35250
 C205 C 0.81153 0.51380 0.23172
 C206 C 0.72538 0.52927 0.25796
 H207 H 0.89970 0.42551 0.42217
 H208 H 0.74370 0.43719 0.45718
 H209 H 0.76167 0.68607 0.40614
 H210 H 0.91363 0.66468 0.36456
 H211 H 0.82758 0.51757 0.16079
 H212 H 0.68464 0.54610 0.20055
 C213 C 0.11294 0.50348 0.33193
 C214 C 0.11490 0.43794 0.40881
 C215 C 0.19829 0.43171 0.44883
 C216 C 0.27972 0.48848 0.40822
 C217 C 0.26970 0.45500 0.31204
 C218 C 0.19030 0.47321 0.27002
 C219 C 0.14871 0.58967 0.37713
 C220 C 0.23720 0.58343 0.40301
 H221 H 0.05794 0.39553 0.42776
 H222 H 0.20144 0.37661 0.49128
 H223 H 0.30594 0.39898 0.28594
 H224 H 0.19243 0.48809 0.19870
 H225 H 0.11234 0.65299 0.37970
 H226 H 0.27916 0.64219 0.39901
 C227 C 0.88286 0.48704 0.68264
 C228 C 0.83246 0.39906 0.65942
 C229 C 0.74877 0.41178 0.62233
 C230 C 0.71775 0.50944 0.60533
 C231 C 0.73137 0.55370 0.69793
 C232 C 0.81218 0.53933 0.73932
 C233 C 0.88576 0.53411 0.59317
 C234 C 0.80252 0.55195 0.55901
 H235 H 0.85175 0.33211 0.67950
 H236 H 0.70189 0.35600 0.62232
 H237 H 0.69170 0.60639 0.72435
 H238 H 0.82360 0.56701 0.80590
 H239 H 0.94595 0.56823 0.56846
 H240 H 0.80353 0.61315 0.52548
 C241 C 0.12490 0.46893 0.70135
 C242 C 0.19603 0.48489 0.77627
 C243 C 0.28408 0.48613 0.74826
 C244 C 0.30288 0.46757 0.64407
 C245 C 0.24801 0.37752 0.63757
 C246 C 0.15783 0.37867 0.66044
 C247 C 0.14930 0.53620 0.63028
 C248 C 0.23753 0.53413 0.60603
 H249 H 0.17981 0.49600 0.84659
 H250 H 0.33294 0.49373 0.80158
 H251 H 0.27142 0.31708 0.60956
 H252 H 0.11634 0.32242 0.63837
 H253 H 0.10067 0.58021 0.59825
 H254 H 0.26239 0.57136 0.55603
 C255 C 0.46602 0.70147 0.12422
 C256 C 0.53532 0.63290 0.15040
 C257 C 0.53266 0.60923 0.23877
 C258 C 0.46411 0.64634 0.30326
 C259 C 0.48004 0.75156 0.28199
 C260 C 0.47844 0.77768 0.19385
 C261 C 0.37674 0.65869 0.15639
 C262 C 0.37495 0.63724 0.24684
 H263 H 0.57979 0.60056 0.10234
 H264 H 0.57003 0.55888 0.26365
 H265 H 0.49277 0.80827 0.32615
 H266 H 0.49045 0.84765 0.17666
 H267 H 0.32158 0.63527 0.11408
 H268 H 0.31463 0.60786 0.26796
 C269 C 0.48542 0.68201 0.88291
 C270 C 0.52851 0.59039 0.88596
 C271 C 0.54568 0.55507 0.80287
 C272 C 0.50674 0.60308 0.71831
 C273 C 0.40999 0.62425 0.74767
 C274 C 0.39740 0.66200 0.83112
 C275 C 0.54137 0.73593 0.81298
 C276 C 0.55420 0.69401 0.73229
 H277 H 0.55773 0.56227 0.94689
 H278 H 0.60987 0.52700 0.80534
 H279 H 0.35468 0.62548 0.70045
 H280 H 0.33068 0.68335 0.84995
 H281 H 0.56982 0.80219 0.82266
 H282 H 0.60731 0.71874 0.69193
 C283 C 0.50546 0.33325 0.11345
 C284 C 0.47453 0.27098 0.19009
 C285 C 0.45558 0.31282 0.26939
 C286 C 0.48914 0.40900 0.28026
 C287 C 0.58437 0.40399 0.23848
 C288 C 0.59159 0.37786 0.15015
 C289 C 0.44025 0.41045 0.11547
 C290 C 0.43314 0.44990 0.19893
 H291 H 0.48988 0.19965 0.19203
 H292 H 0.39821 0.28717 0.30418
 H293 H 0.64265 0.39939 0.28084
 H294 H 0.65543 0.37994 0.11460
 H295 H 0.39779 0.42929 0.05869
 H296 H 0.37681 0.49051 0.20200
 C297 C 0.52277 0.30883 0.88374
 C298 C 0.51468 0.23262 0.81303
 C299 C 0.52895 0.25821 0.72650
 C300 C 0.53645 0.36400 0.70672
 C301 C 0.45649 0.39384 0.76400
 C302 C 0.45475 0.37603 0.85373
 C303 C 0.61136 0.35553 0.86230
 C304 C 0.62010 0.37862 0.77315
 H305 H 0.51801 0.16170 0.82946
 H306 H 0.54354 0.20047 0.68515
 H307 H 0.39397 0.37357 0.73584
 H308 H 0.42305 0.42268 0.90010
 H309 H 0.66430 0.36839 0.91243
 H310 H 0.68277 0.40909 0.76097
 C311 C 0.68211 0.88288 0.48694
 C312 C 0.73909 0.81189 0.53854
 C313 C 0.69707 0.73146 0.55358
 C314 C 0.60426 0.71831 0.50983
 C315 C 0.55853 0.80298 0.55310
 C316 C 0.59293 0.88612 0.53494
 C317 C 0.65803 0.83292 0.39926
 C318 C 0.62094 0.74930 0.41217
 H319 H 0.80544 0.82331 0.56690
 H320 H 0.72220 0.69267 0.60790
 H321 H 0.52734 0.80410 0.61574
 H322 H 0.56951 0.94618 0.57014
 H323 H 0.67793 0.85224 0.33233
 H324 H 0.62042 0.70267 0.35638
 C325 C 0.70056 0.12413 0.46817
 C326 C 0.63023 0.15013 0.53558
 C327 C 0.60714 0.23874 0.53267
 C328 C 0.64601 0.30346 0.46535
 C329 C 0.75094 0.28198 0.48322
 C330 C 0.77665 0.19356 0.48341
 C331 C 0.66004 0.15695 0.37811
 C332 C 0.63886 0.24749 0.37603
 H333 H 0.59883 0.10250 0.58116
 H334 H 0.55923 0.26510 0.57196
 H335 H 0.80794 0.32650 0.49373
 H336 H 0.84632 0.17590 0.49677
 H337 H 0.63480 0.11491 0.32363
 H338 H 0.60933 0.26845 0.31567
 C339 C 0.30634 0.88355 0.52068
 C340 C 0.23116 0.81245 0.51259
 C341 C 0.25720 0.72639 0.52814
 C342 C 0.36275 0.70690 0.53864
 C343 C 0.39726 0.76449 0.46218
 C344 C 0.37509 0.85304 0.45440
 C345 C 0.35232 0.86386 0.61058
 C346 C 0.37648 0.77493 0.62127
 H347 H 0.16016 0.82870 0.51632
 H348 H 0.19940 0.68604 0.54517
 H349 H 0.45723 0.74438 0.43723
 H350 H 0.42232 0.90019 0.42428
 H351 H 0.36551 0.91539 0.66212
 H352 H 0.40853 0.76435 0.68378
 C353 C 0.33227 0.11221 0.49999
 C354 C 0.26995 0.19037 0.47276
 C355 C 0.31209 0.26994 0.45543
 C356 C 0.40896 0.27913 0.48706
 C357 C 0.40563 0.23367 0.58040
 C358 C 0.37959 0.14530 0.58541
 C359 C 0.40801 0.11530 0.43303
 C360 C 0.44869 0.19867 0.42835
 H361 H 0.19865 0.19229 0.48837
 H362 H 0.28634 0.30590 0.39911
 H363 H 0.40102 0.27270 0.63937
 H364 H 0.38290 0.10752 0.64779
 H365 H 0.42706 0.05879 0.39020
 H366 H 0.49197 0.20222 0.37423
   
