data_POSCAR
  _audit_creation_date              2014-09-24
  _audit_creation_method            'ToBaCCo'
  _symmetry_space_group_name_H-M    'P1'
  _symmetry_Int_Tables_number       1
  _symmetry_cell_setting            triclinic
  loop_
  _symmetry_equiv_pos_as_xyz
 x,y,z
_cell_length_a 38.5496
_cell_length_b 12.6503
_cell_length_c 14.4818
_cell_angle_alpha 81.582000
_cell_angle_beta 89.624100
_cell_angle_gamma 89.635400
loop_
  _atom_site_label
  _atom_site_type_symbol
  _atom_site_fract_x
  _atom_site_fract_y
  _atom_site_fract_z
C1 C 0.65466 0.20935 0.51191
 C2 C 0.66892 0.20749 0.60070
 C3 C 0.70538 0.20011 0.60804
 C4 C 0.72698 0.20052 0.52807
 C5 C 0.71123 0.20419 0.44010
 C6 C 0.67513 0.20517 0.43247
 C7 C 0.76572 0.19858 0.53679
 C8 C 0.78738 0.15593 0.47157
 C9 C 0.82377 0.14855 0.48329
 C10 C 0.83765 0.18155 0.56424
 C11 C 0.81693 0.22865 0.62672
 C12 C 0.78133 0.23829 0.61218
 H13 H 0.62744 0.22387 0.50139
 H14 H 0.71686 0.19086 0.67655
 H15 H 0.72669 0.20801 0.37717
 H16 H 0.77586 0.12299 0.41431
 H17 H 0.86476 0.17108 0.58042
 H18 H 0.76603 0.27611 0.66115
 C19 C 0.16052 0.79720 0.45523
 C20 C 0.17358 0.82791 0.53815
 C21 C 0.21023 0.82815 0.54775
 C22 C 0.23244 0.79286 0.47985
 C23 C 0.21750 0.75234 0.40391
 C24 C 0.18181 0.75636 0.39053
 C25 C 0.27112 0.80086 0.48516
 C26 C 0.29128 0.81535 0.40230
 C27 C 0.32756 0.81300 0.40563
 C28 C 0.34366 0.80318 0.49224
 C29 C 0.32480 0.79879 0.57570
 C30 C 0.28833 0.79259 0.57181
 H31 H 0.13378 0.81165 0.43615
 H32 H 0.22190 0.85847 0.60573
 H33 H 0.23349 0.72039 0.35271
 H34 H 0.27901 0.82647 0.33457
 H35 H 0.37106 0.78755 0.49467
 H36 H 0.27342 0.78284 0.63588
 C37 C 0.33490 0.27116 -0.44701
 C38 C 0.32151 0.25402 -0.53342
 C39 C 0.28548 0.24494 -0.54220
 C40 C 0.26308 0.24570 -0.46457
 C41 C 0.27811 0.25082 -0.37623
 C42 C 0.31390 0.26461 -0.36783
 C43 C 0.22438 0.24457 -0.47640
 C44 C 0.20230 0.28429 -0.41128
 C45 C 0.16595 0.28399 -0.42024
 C46 C 0.15186 0.25248 -0.50144
 C47 C 0.17323 0.21509 -0.56797
 C48 C 0.20905 0.20721 -0.55378
 H49 H 0.36197 0.29047 -0.44039
 H50 H 0.27520 0.23862 -0.61005
 H51 H 0.26246 0.24436 -0.31348
 H52 H 0.21319 0.31839 -0.35389
 H53 H 0.12410 0.24942 -0.51123
 H54 H 0.22443 0.17112 -0.60356
 C55 C -0.15537 0.73585 -0.48764
 C56 C -0.17063 0.71164 -0.57010
 C57 C -0.20701 0.71851 -0.57814
 C58 C -0.22782 0.75951 -0.51110
 C59 C -0.21114 0.78962 -0.43223
 C60 C -0.17547 0.77317 -0.41829
 C61 C -0.26662 0.76820 -0.52255
 C62 C -0.28823 0.77239 -0.44425
 C63 C -0.32444 0.77596 -0.45203
 C64 C -0.33961 0.77126 -0.53889
 C65 C -0.31902 0.76648 -0.61816
 C66 C -0.28272 0.76737 -0.61024
 H67 H -0.12750 0.73478 -0.47984
 H68 H -0.21887 0.68983 -0.63697
 H69 H -0.22541 0.82580 -0.38045
 H70 H -0.27736 0.76967 -0.37547
 H71 H -0.36750 0.76465 -0.54361
 H72 H -0.26758 0.76645 -0.67314
 O73 O 0.04238 0.90568 -0.20377
 O74 O 0.08321 0.96491 -0.10928
 C75 C 0.07415 0.92771 -0.18449
 O76 O -0.05820 1.23270 -0.11306
 O77 O -0.09195 1.10007 -0.03464
 C78 C -0.08808 1.18974 -0.08993
 O79 O 0.03740 1.24412 -0.14482
 O80 O 0.07997 1.13026 -0.08005
 C81 C 0.06957 1.21445 -0.13507
 O82 O -0.05384 0.87303 -0.17475
 O83 O -0.09020 0.92945 -0.06529
 C84 C -0.08439 0.88690 -0.14013
 Zr85 Zr -0.00448 0.91659 -0.12940
 O86 O -0.01270 0.96294 -0.27404
 O87 O 0.00163 0.75565 -0.15161
 Zr88 Zr -0.00760 1.17216 -0.08109
 O89 O -0.01223 1.24589 -0.22076
 O90 O -0.00606 1.32496 -0.03785
 O91 O 0.02349 1.05708 -0.13140
 O92 O -0.03615 1.04562 -0.11551
 O93 O -0.04273 0.74929 0.15174
 O94 O -0.08472 0.86789 0.09043
 C95 C -0.07487 0.78087 0.14213
 O96 O 0.05112 1.10347 0.19906
 O97 O 0.08697 1.06395 0.08118
 C98 C 0.08152 1.09452 0.16155
 O99 O -0.04611 1.09742 0.22035
 O100 O -0.08653 1.03722 0.12508
 C101 C -0.07774 1.07383 0.20065
 O102 O 0.05445 0.77177 0.13744
 O103 O 0.08801 0.90102 0.05363
 C104 C 0.08431 0.81417 0.11244
 Zr105 Zr 0.00367 0.82587 0.09787
 O106 O 0.00606 0.75149 0.23812
 O107 O 0.00851 0.67393 0.05391
 Zr108 Zr 0.00088 1.08182 0.14589
 O109 O 0.00440 1.04824 0.29276
 O110 O 0.00171 1.24645 0.15867
 Zr111 Zr 0.04959 1.00848 -0.00487
 Zr112 Zr -0.05357 0.98988 0.02103
 O113 O -0.02645 0.94165 0.14651
 O114 O 0.03308 0.95197 0.13273
 O115 O -0.03159 0.84637 -0.01147
 O116 O 0.02718 1.15053 0.02792
 O117 O 0.03045 0.85880 -0.02668
 O118 O -0.03517 1.14072 0.04408
 H119 H -0.05274 1.06339 -0.16746
 H120 H 0.04296 1.21058 0.03437
 H121 H -0.03867 0.91619 0.20590
 H122 H 0.04751 0.80444 -0.04102
 H123 H -0.02901 1.33853 -0.01070
 H124 H -0.02266 1.27153 0.15896
 H125 H 0.00783 0.97023 0.30802
 H126 H 0.01566 0.80502 0.27412
 H127 H -0.01509 0.64982 0.04087
 H128 H -0.01863 0.71534 -0.12316
 H129 H 0.00119 1.02799 -0.29345
 H130 H -0.01563 1.18780 -0.25851
 O131 O 0.45388 0.30819 0.19628
 O132 O 0.41356 0.41677 0.11312
 C133 C 0.42235 0.33996 0.17893
 O134 O 0.55464 0.67867 0.14743
 O135 O 0.58928 0.57850 0.06362
 C136 C 0.58478 0.64716 0.12107
 O137 O 0.45791 0.68767 0.17196
 O138 O 0.41558 0.60340 0.09956
 C139 C 0.42560 0.66884 0.15536
 O140 O 0.54920 0.29149 0.16875
 O141 O 0.58691 0.39698 0.07336
 C142 C 0.58022 0.31976 0.14019
 Zr143 Zr 0.50048 0.36080 0.13092
 O144 O 0.50736 0.34038 0.27735
 O145 O 0.49698 0.19413 0.13082
 Zr146 Zr 0.50410 0.62888 0.11689
 O147 O 0.51113 0.60810 0.26339
 O148 O 0.50364 0.79692 0.11193
 O149 O 0.47170 0.49706 0.14936
 O150 O 0.53275 0.48929 0.13508
 O151 O 0.53970 0.31724 -0.14922
 O152 O 0.58201 0.40699 -0.08215
 C153 C 0.57199 0.33842 -0.13488
 O154 O 0.44895 0.71472 -0.16055
 O155 O 0.41105 0.61499 -0.06133
 C156 C 0.41791 0.68900 -0.13094
 O157 O 0.54511 0.70926 -0.17757
 O158 O 0.58433 0.59564 -0.09573
 C159 C 0.57646 0.67480 -0.15997
 O160 O 0.44280 0.34141 -0.13911
 O161 O 0.40854 0.43755 -0.05098
 C162 C 0.41276 0.37264 -0.11168
 Zr163 Zr 0.49352 0.38366 -0.10180
 O164 O 0.49312 0.40220 -0.24951
 O165 O 0.48787 0.21635 -0.09431
 Zr166 Zr 0.49774 0.65143 -0.11694
 O167 O 0.49702 0.66317 -0.26432
 O168 O 0.49674 0.82010 -0.12633
 Zr169 Zr 0.44691 0.51345 0.01870
 Zr170 Zr 0.55081 0.49960 -0.00336
 O171 O 0.52538 0.51478 -0.13282
 O172 O 0.46411 0.52380 -0.12103
 O173 O 0.52774 0.34747 0.00934
 O174 O 0.47114 0.66384 0.00485
 O175 O 0.46636 0.35698 0.02244
 O176 O 0.53227 0.65733 -0.00774
 H177 H 0.54953 0.48207 0.18714
 H178 H 0.45691 0.72953 0.00343
 H179 H 0.53944 0.51708 -0.19060
 H180 H 0.45012 0.29589 0.02903
 H181 H 0.52066 0.82658 0.06380
 H182 H 0.51773 0.84132 -0.09486
 H183 H 0.47607 0.62595 -0.28152
 H184 H 0.47200 0.44323 -0.27094
 H185 H 0.50346 0.18260 -0.04435
 H186 H 0.49916 0.16061 0.19682
 H187 H 0.49202 0.39266 0.30221
 H188 H 0.48960 0.57677 0.29296
 C189 C 0.33626 0.26504 0.29275
 C190 C 0.34572 0.24536 0.38734
 C191 C 0.38099 0.21817 0.40457
 C192 C 0.40590 0.24030 0.33350
 C193 C 0.39596 0.28568 0.24256
 C194 C 0.36068 0.28062 0.22198
 C195 C 0.33617 0.34129 0.15492
 C196 C 0.30955 0.32953 0.23474
 H197 H 0.39010 0.18813 0.47397
 H198 H 0.43299 0.23114 0.35256
 H199 H 0.32918 0.29495 0.09823
 H200 H 0.34468 0.42332 0.12954
 H201 H 0.28672 0.28116 0.22079
 H202 H 0.30344 0.40593 0.26078
 C203 C -0.16087 0.72028 0.26092
 C204 C -0.14986 0.69017 0.35361
 C205 C -0.11536 0.65151 0.36526
 C206 C -0.09153 0.66598 0.29037
 C207 C -0.10140 0.72164 0.20282
 C208 C -0.13709 0.73852 0.18788
 C209 C -0.15734 0.83162 0.13959
 C210 C -0.18333 0.81167 0.21905
 H211 H -0.10584 0.61764 0.43342
 H212 H -0.06454 0.64653 0.30498
 H213 H -0.16798 0.81600 0.07177
 H214 H -0.14423 0.90979 0.13769
 H215 H -0.20893 0.78452 0.19687
 H216 H -0.18452 0.87744 0.26229
 C217 C 0.64103 0.82235 0.24585
 C218 C 0.66431 0.74874 0.29352
 C219 C 0.66739 0.64896 0.26124
 C220 C 0.64342 0.61934 0.19597
 C221 C 0.61576 0.68825 0.16322
 C222 C 0.61728 0.79268 0.18361
 C223 C 0.59082 0.87145 0.20654
 C224 C 0.61740 0.90601 0.27351
 H225 H 0.68579 0.58991 0.29338
 H226 H 0.64426 0.53879 0.17970
 H227 H 0.56768 0.83315 0.24313
 H228 H 0.58519 0.93413 0.14626
 H229 H 0.60879 0.89167 0.34748
 H230 H 0.62799 0.98632 0.24878
 C231 C 0.14817 1.24992 0.27131
 C232 C 0.15752 1.17800 0.35021
 C233 C 0.14741 1.07084 0.35430
 C234 C 0.12452 1.04070 0.28744
 C235 C 0.11177 1.11764 0.21536
 C236 C 0.12598 1.22002 0.20458
 C237 C 0.10819 1.32615 0.19028
 C238 C 0.13202 1.35831 0.26436
 H239 H 0.15457 1.01339 0.41381
 H240 H 0.11457 0.95992 0.29654
 H241 H 0.08043 1.32158 0.21191
 H242 H 0.11321 1.37088 0.11955
 H243 H 0.11782 1.36962 0.32910
 H244 H 0.15033 1.42308 0.23694
 C245 C 0.61138 0.19534 -0.31964
 C246 C 0.64697 0.22038 -0.32215
 C247 C 0.65855 0.26902 -0.24496
 C248 C 0.63470 0.30101 -0.17853
 C249 C 0.59859 0.28450 -0.18622
 C250 C 0.58904 0.22307 -0.25376
 C251 C 0.55758 0.18546 -0.29734
 C252 C 0.58226 0.15156 -0.37114
 H253 H 0.68540 0.29138 -0.23934
 H254 H 0.64442 0.34354 -0.12450
 H255 H 0.54004 0.25249 -0.32534
 H256 H 0.54503 0.11739 -0.25252
 H257 H 0.57654 0.19693 -0.44094
 H258 H 0.58423 0.06353 -0.36884
 C259 C 0.11377 0.85372 -0.40520
 C260 C 0.15003 0.86151 -0.39447
 C261 C 0.16073 0.90501 -0.31379
 C262 C 0.13648 0.92861 -0.24548
 C263 C 0.10074 0.91098 -0.25556
 C264 C 0.09028 0.87810 -0.33867
 C265 C 0.06613 0.79065 -0.35292
 C266 C 0.09160 0.76262 -0.42544
 H267 H 0.18764 0.91872 -0.30002
 H268 H 0.14600 0.95593 -0.18314
 H269 H 0.04098 0.82192 -0.38298
 H270 H 0.06409 0.72795 -0.29074
 H271 H 0.08025 0.77677 -0.49657
 H272 H 0.10429 0.68339 -0.40564
 C273 C 0.37484 0.84601 -0.33382
 C274 C 0.34291 0.79423 -0.33938
 C275 C 0.33171 0.73036 -0.25551
 C276 C 0.35487 0.70465 -0.17943
 C277 C 0.38915 0.74437 -0.18506
 C278 C 0.39590 0.82661 -0.25791
 C279 C 0.42640 0.87996 -0.30850
 C280 C 0.40281 0.90393 -0.39332
 H281 H 0.30707 0.68945 -0.25198
 H282 H 0.34697 0.64682 -0.12061
 H283 H 0.44773 0.82373 -0.31974
 H284 H 0.43444 0.95266 -0.27964
 H285 H 0.41297 0.86369 -0.45094
 H286 H 0.39688 0.99008 -0.41349
 C287 C -0.14060 1.32907 -0.28780
 C288 C -0.16779 1.25605 -0.28678
 C289 C -0.17538 1.19227 -0.20100
 C290 C -0.15136 1.18367 -0.12720
 C291 C -0.11927 1.23775 -0.13917
 C292 C -0.11674 1.31977 -0.21577
 C293 C -0.08787 1.35750 -0.28187
 C294 C -0.11433 1.37131 -0.35991
 H295 H -0.19708 1.13771 -0.19555
 H296 H -0.15572 1.12289 -0.06745
 H297 H -0.06902 1.29333 -0.29072
 H298 H -0.07648 1.43396 -0.26783
 H299 H -0.10860 1.31993 -0.41374
 H300 H -0.11936 1.45602 -0.38904
 C301 C 0.66274 0.71170 -0.28343
 C302 C 0.65362 0.77485 -0.36748
 C303 C 0.62145 0.82894 -0.37032
 C304 C 0.59719 0.80492 -0.29719
 C305 C 0.60458 0.72553 -0.22047
 C306 C 0.63871 0.68704 -0.21184
 C307 C 0.65181 0.57498 -0.19017
 C308 C 0.67836 0.60235 -0.26754
 H309 H 0.61394 0.88318 -0.43197
 H310 H 0.57162 0.84079 -0.30547
 H311 H 0.63223 0.51685 -0.20679
 H312 H 0.66344 0.55770 -0.11949
 H313 H 0.67460 0.55778 -0.32746
 H314 H 0.70542 0.60281 -0.24153
 C315 C 0.15495 1.28699 -0.25265
 C316 C 0.14417 1.30684 -0.34645
 C317 C 0.10902 1.33757 -0.36121
 C318 C 0.08488 1.32227 -0.28731
 C319 C 0.09526 1.27466 -0.19751
 C320 C 0.13100 1.26959 -0.18006
 C321 C 0.15342 1.18837 -0.12339
 C322 C 0.17946 1.20566 -0.20318
 H323 H 0.09937 1.36527 -0.43060
 H324 H 0.05764 1.33445 -0.30376
 H325 H 0.14247 1.10675 -0.11264
 H326 H 0.16281 1.21669 -0.05890
 H327 H 0.18280 1.13471 -0.23964
 H328 H 0.20403 1.24208 -0.18373
 C329 C 0.35420 0.20166 -0.23536
 C330 C 0.33013 0.27668 -0.27783
 C331 C 0.32788 0.37480 -0.24285
 C332 C 0.35312 0.40207 -0.18004
 C333 C 0.38137 0.33306 -0.15328
 C334 C 0.37924 0.22930 -0.17533
 C335 C 0.40533 0.15369 -0.20567
 C336 C 0.37775 0.12290 -0.27152
 H337 H 0.30922 0.43486 -0.27176
 H338 H 0.35264 0.48126 -0.16113
 H339 H 0.41193 0.08768 -0.14894
 H340 H 0.42790 0.19450 -0.24316
 H341 H 0.36832 0.03991 -0.25192
 H342 H 0.38500 0.14515 -0.34595
 C343 C -0.14249 0.72271 -0.26871
 C344 C -0.15873 0.80046 -0.33321
 C345 C -0.15701 0.90718 -0.31601
 C346 C -0.13467 0.93540 -0.24655
 C347 C -0.11433 0.85676 -0.19232
 C348 C -0.12089 0.75022 -0.20024
 C349 C -0.09746 0.65686 -0.20406
 C350 C -0.12137 0.62582 -0.27883
 H351 H -0.17051 0.96933 -0.36133
 H352 H -0.13086 1.01902 -0.24146
 H353 H -0.09807 0.59943 -0.13821
 H354 H -0.07113 0.68049 -0.23100
 H355 H -0.13603 0.55143 -0.25515
 H356 H -0.10827 0.62966 -0.34764
 C357 C 0.33912 0.74654 0.25321
 C358 C 0.34918 0.80826 0.32088
 C359 C 0.38346 0.84802 0.31439
 C360 C 0.40810 0.80809 0.25566
 C361 C 0.39881 0.72886 0.20112
 C362 C 0.36331 0.70847 0.19434
 C363 C 0.34471 0.60543 0.19776
 C364 C 0.31844 0.64633 0.26266
 H365 H 0.39218 0.90144 0.36138
 H366 H 0.43482 0.83302 0.25896
 H367 H 0.36031 0.53678 0.23236
 H368 H 0.33364 0.59738 0.12851
 H369 H 0.31886 0.60118 0.33462
 H370 H 0.29224 0.65967 0.23135
 C371 C -0.16388 1.11104 0.32228
 C372 C -0.15409 1.10958 0.41623
 C373 C -0.11987 1.07224 0.43858
 C374 C -0.09553 1.05893 0.36841
 C375 C -0.10457 1.07919 0.27349
 C376 C -0.13980 1.09539 0.25305
 C377 C -0.15683 1.17548 0.18179
 C378 C -0.18302 1.19366 0.25700
 H379 H -0.11104 1.05522 0.50986
 H380 H -0.06925 1.03567 0.38867
 H381 H -0.16828 1.13773 0.12446
 H382 H -0.14015 1.24595 0.15874
 H383 H -0.20962 1.16754 0.24205
 H384 H -0.18147 1.27469 0.27786
 C385 C 0.66470 0.29372 0.26919
 C386 C 0.65737 0.21083 0.34183
 C387 C 0.62618 0.15449 0.33841
 C388 C 0.60243 0.18284 0.26660
 C389 C 0.60929 0.26794 0.19506
 C390 C 0.64103 0.32112 0.19642
 C391 C 0.66899 0.32837 0.12407
 C392 C 0.69457 0.29930 0.20247
 H393 H 0.61917 0.09213 0.39485
 H394 H 0.57787 0.14124 0.27011
 H395 H 0.67228 0.41110 0.08711
 H396 H 0.66671 0.26630 0.07748
 H397 H 0.71255 0.36544 0.21130
 H398 H 0.70738 0.22043 0.20128
 C399 C 0.14044 0.66101 0.29748
 C400 C 0.16684 0.73586 0.30143
 C401 C 0.17247 0.81079 0.22095
 C402 C 0.14738 0.82597 0.14990
 C403 C 0.11610 0.76724 0.15930
 C404 C 0.11546 0.67670 0.22821
 C405 C 0.08787 0.62649 0.29300
 C406 C 0.11546 0.60769 0.36828
 H407 H 0.19338 0.86790 0.21913
 H408 H 0.15041 0.89366 0.09536
 H409 H 0.07795 0.55133 0.27191
 H410 H 0.06769 0.68425 0.30896
 H411 H 0.12201 0.52238 0.39010
 H412 H 0.11024 0.65163 0.42728
   
