data_POSCAR
  _audit_creation_date              2014-09-24
  _audit_creation_method            'ToBaCCo'
  _symmetry_space_group_name_H-M    'P1'
  _symmetry_Int_Tables_number       1
  _symmetry_cell_setting            triclinic
  loop_
  _symmetry_equiv_pos_as_xyz
 x,y,z
_cell_length_a 48.1414
_cell_length_b 50.7941
_cell_length_c 45.9495
_cell_angle_alpha 89.646900
_cell_angle_beta 90.663600
_cell_angle_gamma 89.228600
loop_
  _atom_site_label
  _atom_site_type_symbol
  _atom_site_fract_x
  _atom_site_fract_y
  _atom_site_fract_z
C1 C 0.22320 0.19661 0.22180
 C2 C 0.21205 0.18677 0.24768
 C3 C 0.19021 0.20013 0.26199
 C4 C 0.18048 0.22425 0.24983
 C5 C 0.19140 0.23419 0.22388
 C6 C 0.21269 0.22022 0.20967
 C7 C 0.24412 0.18255 0.20741
 C8 C 0.25458 0.19137 0.18051
 C9 C 0.24377 0.21516 0.16863
 C10 C 0.22318 0.22967 0.18313
 C11 C 0.21271 0.25338 0.17133
 C12 C 0.19137 0.26751 0.18531
 C13 C 0.18089 0.25769 0.21164
 H14 H 0.21954 0.16779 0.25544
 H15 H 0.16477 0.23587 0.26070
 H16 H 0.25103 0.16387 0.21661
 H17 H 0.25191 0.22299 0.14853
 H18 H 0.22124 0.26084 0.15122
 H19 H 0.16397 0.26794 0.22226
 C20 C -0.22493 0.80419 0.22602
 C21 C -0.20818 0.82157 0.24174
 C22 C -0.18020 0.81521 0.24860
 C23 C -0.16944 0.79073 0.23920
 C24 C -0.18588 0.77340 0.22299
 C25 C -0.21375 0.78012 0.21642
 C26 C -0.25259 0.81093 0.21930
 C27 C -0.26961 0.79415 0.20258
 C28 C -0.25797 0.76995 0.19317
 C29 C -0.23028 0.76297 0.19983
 C30 C -0.21866 0.73932 0.18958
 C31 C -0.19065 0.73276 0.19545
 C32 C -0.17454 0.74980 0.21249
 H33 H -0.21753 0.83966 0.24956
 H34 H -0.14783 0.78552 0.24309
 H35 H -0.26008 0.83017 0.22582
 H36 H -0.27044 0.75607 0.18116
 H37 H -0.23131 0.72617 0.17669
 H38 H -0.15282 0.74515 0.21672
 C39 C -0.21312 0.17690 -0.17523
 C40 C -0.20267 0.16599 -0.20092
 C41 C -0.18246 0.17922 -0.21697
 C42 C -0.17321 0.20388 -0.20758
 C43 C -0.18372 0.21513 -0.18215
 C44 C -0.20371 0.20159 -0.16583
 C45 C -0.23231 0.16317 -0.15848
 C46 C -0.24257 0.17368 -0.13223
 C47 C -0.23336 0.19873 -0.12345
 C48 C -0.21381 0.21248 -0.13980
 C49 C -0.20347 0.23659 -0.12999
 C50 C -0.18334 0.24995 -0.14603
 C51 C -0.17386 0.23931 -0.17228
 H52 H -0.20952 0.14676 -0.20790
 H53 H -0.15765 0.21416 -0.21998
 H54 H -0.23975 0.14454 -0.16657
 H55 H -0.24004 0.20704 -0.10300
 H56 H -0.21080 0.24485 -0.10974
 H57 H -0.15797 0.24939 -0.18444
 C58 C 0.24416 0.81142 -0.23687
 C59 C 0.23012 0.82671 -0.25809
 C60 C 0.20293 0.82040 -0.26748
 C61 C 0.19061 0.79774 -0.25547
 C62 C 0.20428 0.78255 -0.23407
 C63 C 0.23116 0.78934 -0.22470
 C64 C 0.27060 0.81857 -0.22678
 C65 C 0.28444 0.80376 -0.20488
 C66 C 0.27145 0.78137 -0.19335
 C67 C 0.24475 0.77437 -0.20268
 C68 C 0.23105 0.75315 -0.18971
 C69 C 0.20405 0.74661 -0.19872
 C70 C 0.19104 0.76106 -0.22129
 H71 H 0.24007 0.84433 -0.26590
 H72 H 0.17045 0.79130 -0.26301
 H73 H 0.27994 0.83625 -0.23533
 H74 H 0.28192 0.76951 -0.17678
 H75 H 0.24119 0.74192 -0.17239
 H76 H 0.17007 0.75623 -0.22804
 C77 C 0.19086 1.22904 0.78026
 C78 C 0.17635 1.21760 0.75691
 C79 C 0.18197 1.19139 0.74829
 C80 C 0.20360 1.17736 0.76294
 C81 C 0.21853 1.18868 0.78595
 C82 C 0.21186 1.21448 0.79491
 C83 C 0.18384 1.25449 0.78986
 C84 C 0.19738 1.26580 0.81423
 C85 C 0.21887 1.25097 0.82808
 C86 C 0.22595 1.22555 0.81883
 C87 C 0.24668 1.21085 0.83354
 C88 C 0.25361 1.18526 0.82458
 C89 C 0.23966 1.17436 0.80059
 H90 H 0.15948 1.22876 0.74681
 H91 H 0.20944 1.15770 0.75613
 H92 H 0.16665 1.26463 0.77913
 H93 H 0.23085 1.25922 0.84579
 H94 H 0.25746 1.21927 0.85206
 H95 H 0.24476 1.15445 0.79391
 C96 C 0.79491 0.76594 0.75849
 C97 C 0.80870 0.77897 0.73594
 C98 C 0.79863 0.80324 0.72447
 C99 C 0.77396 0.81399 0.73632
 C100 C 0.76000 0.80118 0.75891
 C101 C 0.77049 0.77704 0.76995
 C102 C 0.80567 0.74223 0.77016
 C103 C 0.79259 0.72932 0.79361
 C104 C 0.76764 0.74050 0.80419
 C105 C 0.75676 0.76419 0.79276
 C106 C 0.73262 0.77549 0.80438
 C107 C 0.72241 0.80002 0.79427
 C108 C 0.73615 0.81260 0.77125
 H109 H 0.82687 0.76948 0.72686
 H110 H 0.76610 0.83304 0.72918
 H111 H 0.82524 0.73493 0.76190
 H112 H 0.75611 0.73069 0.82107
 H113 H 0.72196 0.76528 0.82166
 H114 H 0.72880 0.83166 0.76346
 C115 C 0.17763 0.77452 1.23513
 C116 C 0.16193 0.78892 1.25528
 C117 C 0.17191 0.81264 1.26668
 C118 C 0.19806 0.82170 1.25815
 C119 C 0.21423 0.80726 1.23850
 C120 C 0.20404 0.78350 1.22706
 C121 C 0.16687 0.75182 1.22218
 C122 C 0.18207 0.73762 1.20111
 C123 C 0.20917 0.74611 1.19460
 C124 C 0.21996 0.76908 1.20699
 C125 C 0.24592 0.77854 1.19845
 C126 C 0.25589 0.80269 1.20895
 C127 C 0.23997 0.81673 1.22932
 H128 H 0.14150 0.78220 1.26135
 H129 H 0.20577 0.84005 1.26683
 H130 H 0.14663 0.74519 1.22889
 H131 H 0.22126 0.73621 1.17812
 H132 H 0.25812 0.76728 1.18312
 H133 H 0.24705 0.83556 1.23724
 C134 C 0.81575 1.23369 1.18928
 C135 C 0.82574 1.22520 1.21666
 C136 C 0.81559 1.20214 1.23006
 C137 C 0.79488 1.18793 1.21502
 C138 C 0.78484 1.19618 1.18762
 C139 C 0.79509 1.21925 1.17474
 C140 C 0.82663 1.25614 1.17592
 C141 C 0.81716 1.26439 1.14825
 C142 C 0.79602 1.25031 1.13413
 C143 C 0.78511 1.22755 1.14705
 C144 C 0.76515 1.21241 1.13237
 C145 C 0.75552 1.18889 1.14480
 C146 C 0.76523 1.18116 1.17256
 H147 H 0.84092 1.23722 1.22768
 H148 H 0.78741 1.16950 1.22366
 H149 H 0.84286 1.26706 1.18685
 H150 H 0.78893 1.25645 1.11263
 H151 H 0.75782 1.21839 1.11090
 H152 H 0.75753 1.16326 1.18238
 O153 O 0.52586 0.97206 0.95123
 O154 O 0.47351 0.96716 1.07055
 O155 O 0.53030 0.93959 1.03584
 O156 O 0.45980 0.94723 0.98066
 O157 O 0.52497 0.96654 1.07056
 O158 O 0.47583 0.97401 0.94819
 O159 O 0.45012 0.94864 1.03503
 O160 O 0.52823 0.94244 0.98396
 C161 C 0.53028 0.94847 0.95799
 C162 C 0.45689 0.94996 1.06134
 C163 C 0.52992 0.94357 1.06230
 C164 C 0.46651 0.95170 0.95502
 O165 O 0.47673 1.02326 0.97246
 O166 O 0.52517 1.01643 1.05172
 O167 O 0.55586 0.98896 0.98601
 O168 O 0.43988 0.99948 1.03085
 O169 O 0.47252 1.01744 1.05772
 O170 O 0.52613 1.01970 0.97857
 O171 O 0.44316 0.99705 0.97722
 O172 O 0.55566 0.98745 1.03829
 Co173 Co 0.50089 0.99594 0.96660
 Co174 Co 0.49920 0.99109 1.05756
 Co175 Co 0.53890 0.96605 1.01091
 Co176 Co 0.45310 0.97386 1.00618
 O177 O 0.49774 0.98196 1.01068
 C178 C 0.45142 1.01963 0.97162
 C179 C 0.54985 1.01045 1.04674
 C180 C 0.55075 1.01284 0.98166
 C181 C 0.44790 1.01679 1.04865
 O182 O 0.02221 0.48482 0.05050
 O183 O 0.03476 0.53508 -0.06861
 O184 O 0.05892 0.48064 -0.03170
 O185 O 0.02221 0.56229 0.01054
 O186 O 0.03730 0.48563 -0.07175
 O187 O 0.03938 0.52861 0.03254
 O188 O 0.01261 0.56449 -0.04211
 O189 O 0.05123 0.48277 0.01759
 C190 C 0.04531 0.47666 0.04286
 C191 C 0.03078 0.55852 -0.06099
 C192 C 0.05882 0.47880 -0.05841
 C193 C 0.04057 0.55248 0.02686
 O194 O -0.00675 0.52849 0.05874
 O195 O -0.01601 0.48356 -0.06725
 O196 O -0.00026 0.45929 0.01062
 O197 O -0.03808 0.54290 -0.03137
 O198 O -0.01868 0.53314 -0.07157
 O199 O -0.02518 0.49216 0.02653
 O200 O -0.02870 0.54089 0.01949
 O201 O 0.00895 0.45589 -0.04085
 Co202 Co 0.00686 0.51122 0.02761
 Co203 Co 0.00953 0.50939 -0.06464
 Co204 Co 0.02830 0.47261 -0.01133
 Co205 Co -0.00628 0.54906 -0.01124
 O206 O 0.01061 0.50979 -0.01666
 C207 C -0.02495 0.54420 0.04659
 C208 C -0.01154 0.46073 -0.05772
 C209 C -0.02270 0.46794 0.02142
 C210 C -0.03905 0.54224 -0.05825
 O211 O 1.04724 0.02737 0.47269
 O212 O 0.93268 0.03962 0.52471
 O213 O 0.96763 0.06038 0.46248
 O214 O 1.00775 0.02917 0.55645
 O215 O 0.92980 0.04050 0.46965
 O216 O 1.02772 0.04562 0.51945
 O217 O 0.95837 0.01862 0.55743
 O218 O 1.01468 0.05408 0.46708
 C219 C 1.03938 0.04879 0.46249
 C220 C 0.94038 0.03616 0.55067
 C221 C 0.94209 0.06027 0.46065
 C222 C 1.02199 0.04710 0.54566
 O223 O 1.05543 0.00263 0.52200
 O224 O 0.93551 -0.01001 0.46868
 O225 O 1.01082 0.00372 0.44348
 O226 O 0.97107 -0.02937 0.53452
 O227 O 0.93189 -0.01141 0.52336
 O228 O 1.02631 -0.01727 0.48192
 O229 O 1.01935 -0.01949 0.53467
 O230 O 0.96091 0.01177 0.43759
 Co231 Co 1.02529 0.01391 0.50146
 Co232 Co 0.93736 0.01490 0.49677
 Co233 Co 0.98830 0.03119 0.45605
 Co234 Co 0.98871 0.00125 0.54172
 O235 O 0.98315 0.01624 0.49793
 C236 C 1.04487 -0.01484 0.53911
 C237 C 0.94467 -0.00694 0.44348
 C238 C 1.02217 -0.01660 0.45490
 C239 C 0.94542 -0.03064 0.53332
 C240 C 1.15099 0.16339 0.33409
 C241 C 1.17899 0.15803 0.32814
 C242 C 1.19217 0.17068 0.30513
 C243 C 1.17766 0.18900 0.28705
 C244 C 1.14978 0.19499 0.29408
 C245 C 1.13674 0.18242 0.31720
 C246 C 1.13622 0.14830 0.35670
 N247 N 1.10971 0.15480 0.36373
 N248 N 1.09566 0.14023 0.38252
 C249 C 1.10747 0.11848 0.39507
 N250 N 1.13412 0.11214 0.38834
 N251 N 1.14822 0.12676 0.36956
 C252 C 1.09098 0.10135 0.41432
 C253 C 1.10192 0.07729 0.42499
 C254 C 1.08540 0.06031 0.44125
 C255 C 1.05768 0.06713 0.44712
 C256 C 1.04701 0.09145 0.43719
 C257 C 1.06346 0.10837 0.42100
 H258 H 1.19075 0.14382 0.34111
 H259 H 1.21396 0.16622 0.30209
 H260 H 1.13707 0.20813 0.28081
 H261 H 1.11507 0.18698 0.32110
 H262 H 1.12305 0.07128 0.42026
 H263 H 1.09410 0.04166 0.44872
 H264 H 1.02572 0.09724 0.44148
 H265 H 1.05435 0.12676 0.41327
 C266 C 0.86831 -0.13163 0.29844
 C267 C 0.87369 -0.15882 0.29992
 C268 C 0.85827 -0.17626 0.28303
 C269 C 0.83653 -0.16704 0.26458
 C270 C 0.83170 -0.13957 0.26286
 C271 C 0.84751 -0.12216 0.27937
 C272 C 0.88322 -0.11340 0.31790
 N273 N 0.88365 -0.08714 0.31211
 N274 N 0.89552 -0.07057 0.33071
 C275 C 0.90722 -0.07961 0.35595
 N276 N 0.90704 -0.10588 0.36156
 N277 N 0.89538 -0.12245 0.34288
 C278 C 0.91820 -0.06117 0.37784
 C279 C 0.91899 -0.06857 0.40732
 C280 C 0.92755 -0.05081 0.42849
 C281 C 0.93603 -0.02543 0.42062
 C282 C 0.93608 -0.01820 0.39107
 C283 C 0.92688 -0.03584 0.36985
 H284 H 0.88963 -0.16671 0.31448
 H285 H 0.86254 -0.19709 0.28591
 H286 H 0.81619 -0.13119 0.24817
 H287 H 0.84295 -0.10126 0.27765
 H288 H 0.91231 -0.08789 0.41416
 H289 H 0.92762 -0.05700 0.45110
 H290 H 0.94262 0.00124 0.38448
 H291 H 0.92657 -0.02969 0.34724
 C292 C 0.85452 0.14066 0.70979
 C293 C 0.87120 0.15259 0.73112
 C294 C 0.85910 0.16556 0.75456
 C295 C 0.83011 0.16663 0.75733
 C296 C 0.81337 0.15492 0.73595
 C297 C 0.82546 0.14221 0.71227
 C298 C 0.86745 0.12614 0.68557
 N299 N 0.85236 0.11957 0.66160
 N300 N 0.86398 0.10603 0.64008
 C301 C 0.89109 0.09836 0.64176
 N302 N 0.90616 0.10495 0.66572
 N303 N 0.89460 0.11861 0.68714
 C304 C 0.90386 0.08277 0.61826
 C305 C 0.92888 0.06884 0.62329
 C306 C 0.94065 0.05360 0.60135
 C307 C 0.92785 0.05228 0.57379
 C308 C 0.90303 0.06649 0.56859
 C309 C 0.89104 0.08143 0.59069
 H310 H 0.89364 0.15183 0.72978
 H311 H 0.87245 0.17424 0.77094
 H312 H 0.79095 0.15563 0.73758
 H313 H 0.81206 0.13316 0.69621
 H314 H 0.93922 0.06941 0.64433
 H315 H 0.95987 0.04295 0.60592
 H316 H 0.89271 0.06581 0.54755
 H317 H 0.87181 0.09205 0.58611
 C318 C 1.15773 -0.13050 0.67244
 C319 C 1.14385 -0.14646 0.69241
 C320 C 1.15864 -0.16248 0.71199
 C321 C 1.18801 -0.16331 0.71226
 C322 C 1.20181 -0.14711 0.69204
 C323 C 1.18688 -0.13097 0.67247
 C324 C 1.14164 -0.11347 0.65192
 N325 N 1.15438 -0.09554 0.63473
 N326 N 1.13961 -0.08011 0.61660
 C327 C 1.11150 -0.08204 0.61488
 N328 N 1.09885 -0.10003 0.63200
 N329 N 1.11358 -0.11537 0.65013
 C330 C 1.09480 -0.06489 0.59503
 C331 C 1.06608 -0.06885 0.59186
 C332 C 1.05002 -0.05263 0.57358
 C333 C 1.06225 -0.03202 0.55806
 C334 C 1.09094 -0.02800 0.56104
 C335 C 1.10710 -0.04434 0.57933
 H336 H 1.12138 -0.14632 0.69331
 H337 H 1.14665 -0.17324 0.72773
 H338 H 1.22419 -0.14743 0.69030
 H339 H 1.19822 -0.11906 0.65715
 H340 H 1.05590 -0.08452 0.60353
 H341 H 1.02796 -0.05626 0.57164
 H342 H 1.10087 -0.01219 0.54934
 H343 H 1.12915 -0.04073 0.58132
 C344 C 0.31433 1.14421 1.13648
 C345 C 0.31390 1.14494 1.16697
 C346 C 0.29446 1.16054 1.18137
 C347 C 0.27502 1.17634 1.16573
 C348 C 0.27620 1.17614 1.13500
 C349 C 0.29535 1.16000 1.12061
 C350 C 0.33443 1.12678 1.12163
 N351 N 0.32958 1.11815 1.09411
 N352 N 0.34739 1.10162 1.08139
 C353 C 0.37081 1.09326 1.09563
 N354 N 0.37568 1.10209 1.12302
 N355 N 0.35784 1.11841 1.13578
 C356 C 0.39059 1.07457 1.08214
 C357 C 0.41775 1.07220 1.09333
 C358 C 0.43631 1.05379 1.08200
 C359 C 0.42812 1.03700 1.05935
 C360 C 0.40102 1.03951 1.04784
 C361 C 0.38247 1.05831 1.05898
 H362 H 0.32840 1.13311 1.17984
 H363 H 0.29542 1.16072 1.20491
 H364 H 0.26142 1.18732 1.12181
 H365 H 0.29527 1.15987 1.09704
 H366 H 0.42473 1.08455 1.11103
 H367 H 0.45701 1.05243 1.09142
 H368 H 0.39408 1.02680 1.03048
 H369 H 0.36160 1.05963 1.05000
 C370 C 0.36024 0.83408 0.83205
 C371 C 0.35481 0.83661 0.80207
 C372 C 0.33083 0.82582 0.78978
 C373 C 0.31148 0.81277 0.80733
 C374 C 0.31743 0.80974 0.83721
 C375 C 0.34162 0.82001 0.84933
 C376 C 0.38377 0.84775 0.84595
 N377 N 0.39277 0.84036 0.87291
 N378 N 0.41138 0.85458 0.88725
 C379 C 0.42175 0.87686 0.87534
 N380 N 0.41331 0.88390 0.84802
 N381 N 0.39476 0.86957 0.83357
 C382 C 0.43872 0.89470 0.89347
 C383 C 0.44450 0.92047 0.88408
 C384 C 0.45538 0.93885 0.90361
 C385 C 0.46038 0.93173 0.93279
 C386 C 0.45682 0.90546 0.94143
 C387 C 0.44623 0.88713 0.92198
 H388 H 0.36892 0.84721 0.78821
 H389 H 0.32729 0.82804 0.76659
 H390 H 0.30288 0.80039 0.85163
 H391 H 0.34504 0.81797 0.87257
 H392 H 0.43917 0.92689 0.86219
 H393 H 0.45820 0.95896 0.89637
 H394 H 0.46110 0.89933 0.96368
 H395 H 0.44254 0.86736 0.92984
 C396 C 0.65113 0.82333 1.17430
 C397 C 0.66245 0.83111 1.20110
 C398 C 0.68784 0.82067 1.21102
 C399 C 0.70294 0.80219 1.19434
 C400 C 0.69037 0.79315 1.16837
 C401 C 0.66492 0.80361 1.15853
 C402 C 0.62657 0.83736 1.16166
 N403 N 0.61579 0.83010 1.13553
 N404 N 0.59598 0.84457 1.12246
 C405 C 0.58610 0.86695 1.13492
 N406 N 0.59639 0.87386 1.16139
 N407 N 0.61618 0.85936 1.17449
 C408 C 0.56714 0.88496 1.11840
 C409 C 0.56005 0.90993 1.12941
 C410 C 0.54635 0.92863 1.11172
 C411 C 0.53957 0.92270 1.08271
 C412 C 0.54479 0.89714 1.07244
 C413 C 0.55838 0.87847 1.09009
 H414 H 0.65207 0.84583 1.21417
 H415 H 0.69536 0.82718 1.23201
 H416 H 0.70086 0.77942 1.15421
 H417 H 0.65676 0.79709 1.13777
 H418 H 0.56627 0.91553 1.15120
 H419 H 0.54239 0.94812 1.12028
 H420 H 0.53948 0.89189 1.05027
 H421 H 0.56318 0.85935 1.08099
 C422 C 0.70079 1.12971 0.91841
 C423 C 0.72105 1.11694 0.90174
 C424 C 0.73958 1.13137 0.88516
 C425 C 0.73876 1.15915 0.88504
 C426 C 0.71883 1.17188 0.90261
 C427 C 0.69991 1.15732 0.91879
 C428 C 0.68000 1.11408 0.93407
 N429 N 0.65527 1.12492 0.94195
 N430 N 0.63561 1.11009 0.95360
 C431 C 0.63998 1.08387 0.95800
 N432 N 0.66495 1.07323 0.95075
 N433 N 0.68451 1.08800 0.93899
 C434 C 0.61733 1.06664 0.96773
 C435 C 0.62285 1.03992 0.97375
 C436 C 0.60120 1.02265 0.97890
 C437 C 0.57353 1.03170 0.97823
 C438 C 0.56799 1.05864 0.97371
 C439 C 0.58972 1.07599 0.96856
 H440 H 0.72235 1.09565 0.90104
 H441 H 0.75515 1.12047 0.87323
 H442 H 0.71671 1.19310 0.90286
 H443 H 0.68443 1.16770 0.93141
 H444 H 0.64389 1.03212 0.97365
 H445 H 0.60613 1.00205 0.98280
 H446 H 0.54684 1.06619 0.97350
 H447 H 0.58478 1.09649 0.96414
 C448 C 0.15437 0.33743 0.14661
 C449 C 0.16398 0.31674 0.12908
 C450 C 0.17609 0.29421 0.14161
 C451 C 0.17933 0.29197 0.17198
 C452 C 0.17021 0.31297 0.18947
 C453 C 0.15766 0.33536 0.17693
 C454 C 0.14045 0.36069 0.13317
 N455 N 0.12297 0.37625 0.14874
 N456 N 0.10946 0.39644 0.13610
 C457 C 0.11310 0.40200 0.10745
 N458 N 0.13083 0.38661 0.09203
 N459 N 0.14416 0.36636 0.10459
 C460 C 0.09715 0.42343 0.09270
 C461 C 0.10535 0.43241 0.06519
 C462 C 0.08902 0.45063 0.04969
 C463 C 0.06397 0.46015 0.06122
 C464 C 0.05622 0.45208 0.08922
 C465 C 0.07277 0.43394 0.10492
 H466 H 0.16150 0.31765 0.10564
 H467 H 0.18229 0.27827 0.12746
 H468 H 0.17284 0.31218 0.21289
 H469 H 0.15067 0.35110 0.19097
 H470 H 0.12415 0.42493 0.05529
 H471 H 0.09558 0.45660 0.02819
 H472 H 0.03699 0.45915 0.09858
 H473 H 0.06591 0.42739 0.12609
 C474 C -0.14061 0.31779 -0.11465
 C475 C -0.15210 0.31769 -0.14292
 C476 C -0.16682 0.29597 -0.15284
 C477 C -0.17063 0.27412 -0.13457
 C478 C -0.16027 0.27467 -0.10591
 C479 C -0.14527 0.29626 -0.09607
 C480 C -0.12261 0.33954 -0.10522
 N481 N -0.10571 0.33674 -0.08151
 N482 N -0.08834 0.35575 -0.07394
 C483 C -0.08721 0.37837 -0.08976
 N484 N -0.10431 0.38128 -0.11330
 N485 N -0.12158 0.36222 -0.12094
 C486 C -0.06753 0.39927 -0.08182
 C487 C -0.07030 0.42449 -0.09429
 C488 C -0.05187 0.44433 -0.08673
 C489 C -0.03009 0.43930 -0.06676
 C490 C -0.02699 0.41395 -0.05468
 C491 C -0.04566 0.39418 -0.06196
 H492 H -0.14891 0.33399 -0.15775
 H493 H -0.17480 0.29600 -0.17498
 H494 H -0.16278 0.25792 -0.09151
 H495 H -0.13684 0.29583 -0.07412
 H496 H -0.08693 0.42905 -0.10964
 H497 H -0.05482 0.46368 -0.09640
 H498 H -0.01031 0.40946 -0.03937
 H499 H -0.04285 0.37487 -0.05215
 C500 C 0.15477 0.68869 -0.15544
 C501 C 0.16988 0.70712 -0.13921
 C502 C 0.18678 0.72534 -0.15322
 C503 C 0.18858 0.72565 -0.18371
 C504 C 0.17392 0.70694 -0.19988
 C505 C 0.15733 0.68856 -0.18590
 C506 C 0.13603 0.66996 -0.14095
 N507 N 0.12570 0.64921 -0.15583
 N508 N 0.10857 0.63245 -0.14314
 C509 C 0.10087 0.63577 -0.11505
 N510 N 0.11110 0.65658 -0.10012
 N511 N 0.12837 0.67332 -0.11281
 C512 C 0.08218 0.61665 -0.10112
 C513 C 0.06912 0.62218 -0.07455
 C514 C 0.05177 0.60361 -0.06162
 C515 C 0.04759 0.57910 -0.07485
 C516 C 0.06052 0.57374 -0.10145
 C517 C 0.07744 0.59231 -0.11448
 H518 H 0.16848 0.70764 -0.11572
 H519 H 0.19770 0.73975 -0.14032
 H520 H 0.17510 0.70674 -0.22341
 H521 H 0.14601 0.67462 -0.19907
 H522 H 0.07229 0.64082 -0.06379
 H523 H 0.04213 0.60816 -0.04104
 H524 H 0.05759 0.55508 -0.11226
 H525 H 0.08718 0.58735 -0.13490
 C526 C -0.14856 0.66730 0.15521
 C527 C -0.14365 0.67309 0.18469
 C528 C -0.15801 0.69375 0.19808
 C529 C -0.17756 0.70908 0.18229
 C530 C -0.18318 0.70268 0.15313
 C531 C -0.16888 0.68202 0.13976
 C532 C -0.13171 0.64697 0.14020
 N533 N -0.13624 0.64182 0.11159
 N534 N -0.12019 0.62467 0.09757
 C535 C -0.09888 0.61191 0.11151
 N536 N -0.09448 0.61685 0.14021
 N537 N -0.11055 0.63403 0.15425
 C538 C -0.08034 0.59376 0.09536
 C539 C -0.05798 0.58060 0.10941
 C540 C -0.04002 0.56426 0.09369
 C541 C -0.04408 0.56081 0.06366
 C542 C -0.06654 0.57374 0.04970
 C543 C -0.08447 0.58997 0.06535
 H544 H -0.12831 0.66203 0.19731
 H545 H -0.15353 0.69796 0.22071
 H546 H -0.19786 0.71430 0.14026
 H547 H -0.17325 0.67811 0.11704
 H548 H -0.05418 0.58309 0.13249
 H549 H -0.02282 0.55455 0.10496
 H550 H -0.07024 0.57140 0.02657
 H551 H -0.10144 0.59974 0.05378
 C552 C 1.13130 0.15446 0.68403
 C553 C 1.14397 0.13970 0.70653
 C554 C 1.16109 0.15170 0.72712
 C555 C 1.16568 0.17911 0.72632
 C556 C 1.15289 0.19382 0.70347
 C557 C 1.13624 0.18158 0.68245
 C558 C 1.11263 0.14143 0.66288
 N559 N 1.10871 0.15110 0.63545
 N560 N 1.09234 0.13873 0.61644
 C561 C 1.07896 0.11641 0.62426
 N562 N 1.08273 0.10697 0.65175
 N563 N 1.09926 0.11914 0.67061
 C564 C 1.06154 0.10174 0.60325
 C565 C 1.04168 0.08409 0.61359
 C566 C 1.02758 0.06760 0.59448
 C567 C 1.03316 0.06810 0.56453
 C568 C 1.05189 0.08677 0.55386
 C569 C 1.06585 0.10357 0.57307
 H570 H 1.14057 0.11871 0.70833
 H571 H 1.16943 0.13943 0.74454
 H572 H 1.15632 0.21472 0.70110
 H573 H 1.12682 0.19344 0.66523
 H574 H 1.03759 0.08246 0.63665
 H575 H 1.01319 0.05357 0.60343
 H576 H 1.05664 0.08759 0.53090
 H577 H 1.08102 0.11702 0.56448
 C578 C 0.84240 -0.15525 0.65842
 C579 C 0.81357 -0.15197 0.66133
 C580 C 0.79918 -0.16568 0.68277
 C581 C 0.81313 -0.18331 0.70207
 C582 C 0.84210 -0.18681 0.69854
 C583 C 0.85644 -0.17297 0.67716
 C584 C 0.85782 -0.13967 0.63657
 N585 N 0.88598 -0.14125 0.63516
 N586 N 0.89987 -0.12636 0.61645
 C587 C 0.88619 -0.10928 0.59828
 N588 N 0.85802 -0.10793 0.59947
 N589 N 0.84415 -0.12279 0.61818
 C590 C 0.90166 -0.09129 0.57887
 C591 C 0.88725 -0.07304 0.56097
 C592 C 0.90161 -0.05417 0.54507
 C593 C 0.93074 -0.05309 0.54661
 C594 C 0.94528 -0.07216 0.56329
 C595 C 0.93089 -0.09106 0.57926
 H596 H 0.80198 -0.13865 0.64709
 H597 H 0.77689 -0.16289 0.68334
 H598 H 0.85433 -0.19921 0.71313
 H599 H 0.87869 -0.17589 0.67568
 H600 H 0.86477 -0.07274 0.55991
 H601 H 0.88979 -0.03984 0.53231
 H602 H 0.96774 -0.07185 0.56492
 H603 H 0.94268 -0.10491 0.59266
 C604 C 1.12122 -0.14059 0.32381
 C605 C 1.12569 -0.16756 0.32949
 C606 C 1.14198 -0.18287 0.31083
 C607 C 1.15452 -0.17138 0.28648
 C608 C 1.15022 -0.14442 0.28093
 C609 C 1.13359 -0.12924 0.29925
 C610 C 1.10392 -0.12418 0.34329
 N611 N 1.09326 -0.10074 0.33378
 N612 N 1.07828 -0.08555 0.35132
 C613 C 1.07339 -0.09304 0.37920
 N614 N 1.08398 -0.11653 0.38874
 N615 N 1.09884 -0.13184 0.37110
 C616 C 1.05788 -0.07526 0.39890
 C617 C 1.05980 -0.07827 0.42931
 C618 C 1.04738 -0.05974 0.44771
 C619 C 1.03261 -0.03799 0.43601
 C620 C 1.02956 -0.03578 0.40564
 C621 C 1.04214 -0.05410 0.38732
 H622 H 1.11638 -0.17688 0.34819
 H623 H 1.14508 -0.20362 0.31559
 H624 H 1.15945 -0.13516 0.26215
 H625 H 1.13067 -0.10850 0.29431
 H626 H 1.07175 -0.09439 0.43891
 H627 H 1.05003 -0.06201 0.47103
 H628 H 1.01813 -0.01939 0.39591
 H629 H 1.03995 -0.05137 0.36401
 C630 C 0.84909 0.17186 0.31026
 C631 C 0.86481 0.18853 0.29261
 C632 C 0.85368 0.19898 0.26668
 C633 C 0.82640 0.19297 0.25738
 C634 C 0.81048 0.17687 0.27587
 C635 C 0.82165 0.16653 0.30179
 C636 C 0.86160 0.15909 0.33656
 N637 N 0.84672 0.14203 0.35287
 N638 N 0.85844 0.12920 0.37531
 C639 C 0.88557 0.13287 0.38248
 N640 N 0.90035 0.15021 0.36644
 N641 N 0.88862 0.16305 0.34399
 C642 C 0.89928 0.11676 0.40576
 C643 C 0.92783 0.11928 0.41178
 C644 C 0.94149 0.10183 0.43096
 C645 C 0.92691 0.08146 0.44456
 C646 C 0.89809 0.07988 0.43989
 C647 C 0.88442 0.09734 0.42072
 H648 H 0.88609 0.19302 0.29840
 H649 H 0.86736 0.21051 0.25333
 H650 H 0.78901 0.17257 0.27092
 H651 H 0.80874 0.15407 0.31505
 H652 H 0.93991 0.13412 0.40084
 H653 H 0.96371 0.10361 0.43414
 H654 H 0.88625 0.06444 0.45009
 H655 H 0.86238 0.09493 0.41682
 C656 C 0.17026 0.34002 -0.15220
 C657 C 0.16631 0.33402 -0.18173
 C658 C 0.17555 0.30992 -0.19292
 C659 C 0.18908 0.29092 -0.17491
 C660 C 0.19345 0.29753 -0.14535
 C661 C 0.18426 0.32162 -0.13428
 C662 C 0.15866 0.36467 -0.13972
 N663 N 0.16272 0.37040 -0.11116
 N664 N 0.15063 0.39145 -0.09934
 C665 C 0.13398 0.40773 -0.11559
 N666 N 0.13031 0.40226 -0.14428
 N667 N 0.14241 0.38121 -0.15610
 C668 C 0.11807 0.42942 -0.10170
 C669 C 0.09833 0.44421 -0.11786
 C670 C 0.08022 0.46167 -0.10396
 C671 C 0.08151 0.46479 -0.07361
 C672 C 0.10256 0.45150 -0.05772
 C673 C 0.12063 0.43398 -0.07161
 H674 H 0.15586 0.34788 -0.19627
 H675 H 0.17258 0.30676 -0.21598
 H676 H 0.20259 0.28370 -0.12992
 H677 H 0.18747 0.32544 -0.11134
 H678 H 0.09592 0.44141 -0.14109
 H679 H 0.06432 0.47175 -0.11683
 H680 H 0.10411 0.45353 -0.03431
 H681 H 0.13577 0.42313 -0.05851
 C682 C -0.14147 0.32836 0.10545
 C683 C -0.17060 0.32861 0.10754
 C684 C -0.18428 0.30770 0.12113
 C685 C -0.16897 0.28655 0.13339
 C686 C -0.13991 0.28648 0.13149
 C687 C -0.12635 0.30700 0.11751
 C688 C -0.12649 0.34981 0.09054
 N689 N -0.10070 0.34514 0.08000
 N690 N -0.08656 0.36421 0.06722
 C691 C -0.09745 0.38891 0.06450
 N692 N -0.12332 0.39370 0.07501
 N693 N -0.13762 0.37447 0.08767
 C694 C -0.08066 0.40996 0.05105
 C695 C -0.08609 0.43687 0.05604
 C696 C -0.06791 0.45613 0.04564
 C697 C -0.04414 0.44874 0.02996
 C698 C -0.03964 0.42194 0.02394
 C699 C -0.05758 0.40289 0.03429
 H700 H -0.18280 0.34475 0.09834
 H701 H -0.20672 0.30817 0.12241
 H702 H -0.12766 0.27030 0.14055
 H703 H -0.10389 0.30623 0.11639
 H704 H -0.10375 0.44293 0.06888
 H705 H -0.07194 0.47663 0.05062
 H706 H -0.02161 0.41545 0.01195
 H707 H -0.05291 0.38243 0.02966
 C708 C -0.16845 0.66252 -0.16530
 C709 C -0.18704 0.67864 -0.14999
 C710 C -0.20025 0.70014 -0.16359
 C711 C -0.19528 0.70640 -0.19310
 C712 C -0.17713 0.68955 -0.20853
 C713 C -0.16399 0.66800 -0.19485
 C714 C -0.15284 0.64096 -0.15015
 N715 N -0.13419 0.62579 -0.16465
 N716 N -0.11888 0.60760 -0.15063
 C717 C -0.12155 0.60377 -0.12151
 N718 N -0.14047 0.61869 -0.10709
 N719 N -0.15580 0.63687 -0.12110
 C720 C -0.10277 0.58518 -0.10548
 C721 C -0.10366 0.58320 -0.07495
 C722 C -0.08377 0.56814 -0.05960
 C723 C -0.06257 0.55472 -0.07445
 C724 C -0.06258 0.55553 -0.10503
 C725 C -0.08244 0.57058 -0.12037
 H726 H -0.19091 0.67510 -0.12713
 H727 H -0.21306 0.71259 -0.15009
 H728 H -0.17336 0.69240 -0.23147
 H729 H -0.15005 0.65581 -0.20745
 H730 H -0.11911 0.59403 -0.06277
 H731 H -0.08436 0.56788 -0.03604
 H732 H -0.04659 0.54531 -0.11712
 H733 H -0.08124 0.57145 -0.14387
 C734 C 0.14541 0.67700 0.15032
 C735 C 0.12897 0.69691 0.16265
 C736 C 0.14085 0.71614 0.18024
 C737 C 0.16981 0.71648 0.18558
 C738 C 0.18611 0.69594 0.17361
 C739 C 0.17401 0.67634 0.15650
 C740 C 0.13267 0.65782 0.13021
 N741 N 0.14400 0.63345 0.12627
 N742 N 0.13213 0.61639 0.10813
 C743 C 0.10869 0.62321 0.09293
 N744 N 0.09756 0.64762 0.09678
 N745 N 0.10923 0.66452 0.11507
 C746 C 0.09467 0.60443 0.07329
 C747 C 0.07680 0.61402 0.05119
 C748 C 0.06067 0.59683 0.03483
 C749 C 0.06170 0.56960 0.04039
 C750 C 0.08072 0.55977 0.06138
 C751 C 0.09721 0.57706 0.07759
 H752 H 0.10681 0.69787 0.15837
 H753 H 0.12726 0.73166 0.18795
 H754 H 0.20824 0.69451 0.17783
 H755 H 0.18717 0.66107 0.14744
 H756 H 0.07468 0.63497 0.04706
 H757 H 0.04638 0.60507 0.01872
 H758 H 0.08195 0.53887 0.06616
 H759 H 0.11086 0.56911 0.09446
 C760 C 0.31514 1.13996 0.87249
 C761 C 0.31737 1.14328 0.84220
 C762 C 0.29722 1.15777 0.82653
 C763 C 0.27484 1.16967 0.84096
 C764 C 0.27277 1.16664 0.87124
 C765 C 0.29257 1.15171 0.88682
 C766 C 0.33597 1.12400 0.88901
 N767 N 0.32919 1.11231 0.91458
 N768 N 0.34766 1.09735 0.92912
 C769 C 0.37376 1.09372 0.91885
 N770 N 0.38064 1.10563 0.89342
 N771 N 0.36208 1.12039 0.87874
 C772 C 0.39387 1.07615 0.93430
 C773 C 0.42261 1.07901 0.93050
 C774 C 0.44147 1.06132 0.94372
 C775 C 0.43191 1.04010 0.96042
 C776 C 0.40322 1.03755 0.96464
 C777 C 0.38442 1.05558 0.95203
 H778 H 0.33445 1.13433 0.83055
 H779 H 0.29924 1.15995 0.80319
 H780 H 0.25559 1.17555 0.88279
 H781 H 0.29035 1.14956 0.91014
 H782 H 0.43048 1.09478 0.91709
 H783 H 0.46348 1.06370 0.94000
 H784 H 0.39527 1.02130 0.97726
 H785 H 0.36240 1.05281 0.95526
 C786 C 0.32910 0.83843 1.17314
 C787 C 0.31170 0.82280 1.15582
 C788 C 0.28833 0.81098 1.16758
 C789 C 0.28186 0.81411 1.19713
 C790 C 0.29968 0.82921 1.21468
 C791 C 0.32295 0.84137 1.20277
 C792 C 0.35271 0.85231 1.15973
 N793 N 0.36526 0.87277 1.17330
 N794 N 0.38502 0.88639 1.16000
 C795 C 0.39312 0.87999 1.13266
 N796 N 0.38089 0.85924 1.11943
 N797 N 0.36115 0.84573 1.13263
 C798 C 0.41305 0.89640 1.11634
 C799 C 0.41978 0.88968 1.08763
 C800 C 0.43518 0.90663 1.07042
 C801 C 0.44455 0.93067 1.08148
 C802 C 0.43957 0.93674 1.11076
 C803 C 0.42380 0.91978 1.12804
 H804 H 0.31563 0.82028 1.13284
 H805 H 0.27485 0.80007 1.15316
 H806 H 0.29562 0.83173 1.23762
 H807 H 0.33604 0.85315 1.21674
 H808 H 0.41224 0.87173 1.07792
 H809 H 0.43905 0.90125 1.04804
 H810 H 0.44659 0.95517 1.11980
 H811 H 0.41915 0.92547 1.15014
 C812 C 0.69713 1.13787 1.10212
 C813 C 0.72204 1.12777 1.11426
 C814 C 0.74112 1.14447 1.12753
 C815 C 0.73595 1.17172 1.12879
 C816 C 0.71159 1.18205 1.11575
 C817 C 0.69227 1.16527 1.10270
 C818 C 0.67597 1.11970 1.09020
 N819 N 0.64975 1.12834 1.08382
 N820 N 0.63036 1.11162 1.07490
 C821 C 0.63635 1.08555 1.07190
 N822 N 0.66266 1.07700 1.07788
 N823 N 0.68202 1.09369 1.08687
 C824 C 0.61436 1.06659 1.06382
 C825 C 0.62105 1.04001 1.05850
 C826 C 0.60016 1.02181 1.05277
 C827 C 0.57209 1.02973 1.05235
 C828 C 0.56541 1.05637 1.05706
 C829 C 0.58629 1.07460 1.06262
 H830 H 0.72655 1.10683 1.11418
 H831 H 0.75992 1.13604 1.13708
 H832 H 0.70710 1.20298 1.11649
 H833 H 0.67336 1.17372 1.09344
 H834 H 0.64245 1.03317 1.05904
 H835 H 0.60598 1.00146 1.04893
 H836 H 0.54399 1.06315 1.05649
 H837 H 0.58036 1.09490 1.06653
 C838 C 0.65335 0.83817 0.83709
 C839 C 0.67275 0.82276 0.85294
 C840 C 0.69500 0.81050 0.83902
 C841 C 0.69827 0.81292 0.80875
 C842 C 0.67866 0.82812 0.79279
 C843 C 0.65653 0.84073 0.80684
 C844 C 0.63056 0.85202 0.85245
 N845 N 0.61645 0.87250 0.83976
 N846 N 0.59722 0.88591 0.85445
 C847 C 0.59118 0.87928 0.88236
 N848 N 0.60499 0.85854 0.89481
 N849 N 0.62426 0.84523 0.88020
 C850 C 0.57173 0.89548 0.89984
 C851 C 0.56419 0.88713 0.92786
 C852 C 0.54924 0.90384 0.94613
 C853 C 0.54157 0.92934 0.93688
 C854 C 0.54746 0.93712 0.90823
 C855 C 0.56237 0.92033 0.88986
 H856 H 0.67116 0.82063 0.87633
 H857 H 0.70999 0.79956 0.85220
 H858 H 0.68028 0.83015 0.76941
 H859 H 0.64186 0.85239 0.79399
 H860 H 0.57071 0.86799 0.93614
 H861 H 0.54479 0.89717 0.96800
 H862 H 0.54164 0.95661 0.90043
 H863 H 0.56766 0.92733 0.86834
   
