data_POSCAR
  _audit_creation_date              2014-09-24
  _audit_creation_method            'ToBaCCo'
  _symmetry_space_group_name_H-M    'P1'
  _symmetry_Int_Tables_number       1
  _symmetry_cell_setting            triclinic
  loop_
  _symmetry_equiv_pos_as_xyz
 x,y,z
_cell_length_a 28.2373
_cell_length_b 18.8155
_cell_length_c 13.6718
_cell_angle_alpha 93.790400
_cell_angle_beta 88.737100
_cell_angle_gamma 109.457100
loop_
  _atom_site_label
  _atom_site_type_symbol
  _atom_site_fract_x
  _atom_site_fract_y
  _atom_site_fract_z
O1 O 0.44780 1.00431 0.59428
 O2 O 0.54324 1.09722 0.41331
 O3 O 0.44833 1.02142 0.40941
 O4 O 0.54399 1.08450 0.60420
 O5 O 0.56203 0.97897 0.58196
 O6 O 0.46732 0.91677 0.38483
 O7 O 0.56375 0.99364 0.39573
 O8 O 0.46723 0.89985 0.57316
 Cu9 Cu 0.49440 1.06278 0.50877
 Cu10 Cu 0.51683 0.93669 0.48090
 C11 C 0.44065 0.93625 0.61308
 C12 C 0.57010 1.06083 0.37407
 C13 C 0.44152 0.95780 0.36410
 C14 C 0.56917 1.04305 0.62634
 O15 O -0.04500 0.50391 0.62308
 O16 O 0.05310 0.60040 0.44934
 O17 O -0.04450 0.55181 0.44945
 O18 O 0.05357 0.55339 0.62326
 O19 O 0.05323 0.44454 0.55166
 O20 O -0.04478 0.44287 0.37798
 O21 O 0.05334 0.49175 0.37774
 O22 O -0.04456 0.39540 0.55163
 Cu23 Cu 0.00429 0.56348 0.54306
 Cu24 Cu 0.00431 0.43246 0.45826
 C25 C -0.06187 0.43231 0.61583
 C26 C 0.07003 0.56332 0.38477
 C27 C -0.06146 0.49777 0.38497
 C28 C 0.07050 0.49873 0.61593
 O29 O 0.56263 0.57920 0.41232
 O30 O 0.46796 0.54672 0.60960
 O31 O 0.56444 0.56623 0.59851
 O32 O 0.46784 0.56352 0.42122
 O33 O 0.44844 0.43964 0.40008
 O34 O 0.54388 0.44215 0.58096
 O35 O 0.44897 0.42310 0.58497
 O36 O 0.54458 0.45562 0.39014
 Cu37 Cu 0.51746 0.57630 0.51346
 Cu38 Cu 0.49502 0.42777 0.48560
 C39 C 0.56975 0.52224 0.36795
 C40 C 0.44216 0.47989 0.63031
 C41 C 0.57079 0.50539 0.62013
 C42 C 0.44127 0.50053 0.38127
 O43 O 0.36315 0.60972 -0.10474
 O44 O 0.36733 0.75187 -0.09702
 C45 C 0.33631 0.76540 -0.15283
 O46 O 0.28951 0.73590 -0.14347
 O47 O 0.20426 0.63454 -0.10299
 C48 C 0.19794 0.56601 -0.13155
 O49 O 0.21994 0.52666 -0.09276
 O50 O 0.30351 0.50711 -0.05234
 C51 C 0.34030 0.53912 -0.10857
 O52 O 0.36765 0.61139 0.09127
 O53 O 0.36296 0.74909 0.09900
 C54 C 0.33993 0.79662 0.10287
 O55 O 0.30308 0.79160 0.04666
 O56 O 0.21975 0.68811 0.08736
 C57 C 0.19802 0.62672 0.12627
 O58 O 0.20454 0.56467 0.09767
 O59 O 0.28994 0.54916 0.13784
 C60 C 0.33675 0.56671 0.14713
 Cr61 Cr 0.36264 0.67920 -0.00287
 Cr62 Cr 0.25537 0.71000 -0.02728
 Cr63 Cr 0.25569 0.54066 0.02177
 O64 O 0.29090 0.64311 -0.00282
 O65 O 0.64114 0.38923 -0.09588
 O66 O 0.64565 0.25115 -0.10544
 C67 C 0.66879 0.20365 -0.10960
 O68 O 0.70548 0.20832 -0.05311
 O69 O 0.78935 0.31146 -0.09159
 C70 C 0.81081 0.37248 -0.13155
 O71 O 0.80397 0.43454 -0.10436
 O72 O 0.71864 0.45117 -0.14348
 C73 C 0.67182 0.43449 -0.15119
 O74 O 0.64578 0.39030 0.09947
 O75 O 0.64076 0.24747 0.08988
 C76 C 0.67128 0.23259 0.14529
 O77 O 0.71812 0.26251 0.13779
 O78 O 0.80363 0.36399 0.09915
 C79 C 0.81066 0.43293 0.12639
 O80 O 0.78949 0.47280 0.08628
 O81 O 0.70588 0.49274 0.04734
 C82 C 0.66910 0.46088 0.10372
 Cr83 Cr 0.64599 0.32086 -0.00299
 Cr84 Cr 0.75293 0.28917 0.02221
 Cr85 Cr 0.75327 0.45899 -0.02772
 O86 O 0.71778 0.35653 -0.00285
 C87 C 0.39941 0.89844 -0.32163
 C88 C 0.35571 0.91565 -0.31400
 C89 C 0.32598 0.86579 -0.25242
 C90 C 0.35404 0.82254 -0.22569
 O91 O 0.39884 0.84202 -0.26780
 H92 H 0.34638 0.95853 -0.35061
 H93 H 0.28861 0.86236 -0.22791
 C94 C 0.10862 0.49747 -0.32204
 C95 C 0.12788 0.43895 -0.32568
 C96 C 0.16364 0.45814 -0.25529
 C97 C 0.16406 0.52726 -0.21349
 O98 O 0.13058 0.55172 -0.25398
 H99 H 0.11701 0.38811 -0.37382
 H100 H 0.18686 0.42543 -0.23642
 C101 C 0.40377 0.46863 -0.29258
 C102 C 0.37131 0.39960 -0.26653
 C103 C 0.34212 0.41602 -0.19324
 C104 C 0.35921 0.49372 -0.18042
 O105 O 0.39645 0.52557 -0.24052
 H106 H 0.36915 0.34415 -0.29744
 H107 H 0.31228 0.37639 -0.15382
 C108 C 0.60706 0.07023 -0.29570
 C109 C 0.63932 0.03370 -0.26845
 C110 C 0.66782 0.07921 -0.19429
 C111 C 0.65054 0.13967 -0.18216
 O112 O 0.61383 0.13433 -0.24352
 H113 H 0.64177 -0.01949 -0.29905
 H114 H 0.69732 0.06939 -0.15377
 C115 C 0.90004 0.39294 -0.32209
 C116 C 0.88091 0.31516 -0.32535
 C117 C 0.84517 0.29867 -0.25487
 C118 C 0.84464 0.36741 -0.21346
 O119 O 0.87801 0.42528 -0.25423
 H120 H 0.89186 0.27516 -0.37326
 H121 H 0.82206 0.24278 -0.23569
 C122 C 0.60832 0.50879 -0.31364
 C123 C 0.64546 0.57504 -0.28340
 C124 C 0.67525 0.55419 -0.22274
 C125 C 0.65352 0.47713 -0.21839
 O126 O 0.61276 0.44895 -0.27356
 H127 H 0.65062 0.63165 -0.30427
 H128 H 0.70800 0.59106 -0.18333
 C129 C 0.89906 0.49987 0.31833
 C130 C 0.88154 0.56000 0.31968
 C131 C 0.84627 0.54175 0.24838
 C132 C 0.84448 0.47149 0.20843
 O133 O 0.87661 0.44548 0.25093
 H134 H 0.89335 0.61129 0.36689
 H135 H 0.82431 0.57582 0.22766
 C136 C 0.60758 0.09485 0.30768
 C137 C 0.64460 0.06552 0.27723
 C138 C 0.67439 0.11604 0.21648
 C139 C 0.65279 0.17155 0.21230
 O140 O 0.61211 0.15918 0.26765
 H141 H 0.64968 0.01399 0.29803
 H142 H 0.70707 0.11178 0.17697
 C143 C 0.60760 0.53288 0.28992
 C144 C 0.63993 0.60160 0.26264
 C145 C 0.66836 0.58448 0.18843
 C146 C 0.65096 0.50673 0.17629
 O147 O 0.61426 0.47548 0.23771
 H148 H 0.64247 0.65727 0.29328
 H149 H 0.69788 0.62371 0.14788
 C150 C 0.10951 0.60493 0.31816
 C151 C 0.12717 0.68258 0.31993
 C152 C 0.16247 0.69969 0.24869
 C153 C 0.16413 0.63125 0.20830
 O154 O 0.13189 0.57305 0.25051
 H155 H 0.11547 0.72202 0.36742
 H156 H 0.18454 0.75576 0.22832
 C157 C 0.40315 0.93062 0.28697
 C158 C 0.37062 0.96708 0.26091
 C159 C 0.34150 0.92142 0.18756
 C160 C 0.35870 0.86093 0.17474
 O161 O 0.39594 0.86641 0.23488
 H162 H 0.36836 1.02031 0.29183
 H163 H 0.31163 0.93112 0.14810
 C164 C 0.40004 0.49705 0.31594
 C165 C 0.35641 0.43602 0.30820
 C166 C 0.32665 0.45603 0.24658
 C167 C 0.35461 0.52740 0.21992
 O168 O 0.39939 0.55287 0.26212
 H169 H 0.34716 0.38380 0.34477
 H170 H 0.28932 0.42197 0.22201
   
