data_POSCAR
  _audit_creation_date              2014-09-24
  _audit_creation_method            'ToBaCCo'
  _symmetry_space_group_name_H-M    'P1'
  _symmetry_Int_Tables_number       1
  _symmetry_cell_setting            triclinic
  loop_
  _symmetry_equiv_pos_as_xyz
 x,y,z
_cell_length_a 48.5419
_cell_length_b 48.8826
_cell_length_c 48.7990
_cell_angle_alpha 89.917500
_cell_angle_beta 89.973900
_cell_angle_gamma 89.941700
loop_
  _atom_site_label
  _atom_site_type_symbol
  _atom_site_fract_x
  _atom_site_fract_y
  _atom_site_fract_z
N1 N 0.14072 0.16017 0.21657
 N2 N 0.16091 0.14219 0.21747
 C3 C 0.15753 0.12603 0.23964
 C4 C 0.13403 0.13447 0.25311
 C5 C 0.12378 0.15608 0.23806
 H6 H 0.17098 0.10935 0.24548
 H7 H 0.10536 0.16783 0.24229
 Cu8 Cu 0.18938 0.14172 0.18930
 Cu9 Cu 0.13744 0.18699 0.18712
 Cu10 Cu 0.19122 0.19014 0.14044
 N11 N 0.21731 0.14118 0.16060
 N12 N 0.21806 0.16049 0.14179
 C13 C 0.23935 0.15579 0.12473
 C14 C 0.25249 0.13235 0.13338
 C15 C 0.23817 0.12348 0.15614
 H16 H 0.24483 0.16845 0.10736
 H17 H 0.24268 0.10564 0.16849
 N18 N 0.16185 0.21794 0.14229
 N19 N 0.14112 0.21658 0.15980
 C20 C 0.12423 0.23809 0.15553
 C21 C 0.13490 0.25346 0.13435
 C22 C 0.15865 0.24027 0.12638
 H23 H 0.10552 0.24222 0.16684
 H24 H 0.17234 0.24637 0.10999
 H25 H 0.16045 0.16700 0.15712
 H26 H 0.17932 0.18977 0.18140
 N27 N -0.14067 0.83838 0.21803
 N28 N -0.15992 0.85735 0.21817
 C29 C -0.15561 0.87420 0.23961
 C30 C -0.13254 0.86514 0.25340
 C31 C -0.12351 0.84247 0.23930
 H32 H -0.16820 0.89170 0.24481
 H33 H -0.10580 0.82992 0.24416
 Cu34 Cu -0.18863 0.85795 0.19027
 Cu35 Cu -0.13932 0.80972 0.19044
 Cu36 Cu -0.19024 0.81029 0.14061
 N37 N -0.21714 0.85816 0.16216
 N38 N -0.21765 0.83943 0.14280
 C39 C -0.23933 0.84413 0.12620
 C40 C -0.25295 0.86697 0.13576
 C41 C -0.23850 0.87544 0.15852
 H42 H -0.24482 0.83184 0.10862
 H43 H -0.24327 0.89278 0.17143
 N44 N -0.16068 0.78252 0.14191
 N45 N -0.14129 0.78239 0.16091
 C46 C -0.12430 0.76103 0.15648
 C47 C -0.13349 0.74722 0.13370
 C48 C -0.15652 0.76120 0.12489
 H49 H -0.10665 0.75576 0.16892
 H50 H -0.16930 0.75609 0.10750
 H51 H -0.15905 0.83156 0.15975
 H52 H -0.18111 0.80936 0.18185
 N53 N -0.14164 0.16119 -0.21722
 N54 N -0.16100 0.14234 -0.21741
 C55 C -0.15711 0.12584 -0.23919
 C56 C -0.13417 0.13492 -0.25314
 C57 C -0.12478 0.15731 -0.23880
 H58 H -0.16989 0.10854 -0.24451
 H59 H -0.10697 0.16972 -0.24359
 Cu60 Cu -0.18940 0.14165 -0.18916
 Cu61 Cu -0.13931 0.18867 -0.18836
 Cu62 Cu -0.18971 0.18749 -0.13826
 N63 N -0.21780 0.14097 -0.16091
 N64 N -0.21808 0.15938 -0.14123
 C65 C -0.23972 0.15465 -0.12461
 C66 C -0.25357 0.13213 -0.13450
 C67 C -0.23931 0.12387 -0.15749
 H68 H -0.24492 0.16661 -0.10669
 H69 H -0.24427 0.10680 -0.17067
 N70 N -0.16218 0.21708 -0.14115
 N71 N -0.14291 0.21753 -0.16031
 C72 C -0.12711 0.23990 -0.15674
 C73 C -0.13696 0.25400 -0.13435
 C74 C -0.15913 0.23914 -0.12491
 H75 H -0.10957 0.24540 -0.16925
 H76 H -0.17184 0.24392 -0.10736
 H77 H -0.15894 0.16645 -0.15824
 H78 H -0.18096 0.18943 -0.17964
 N79 N 0.14240 0.84032 -0.21746
 N80 N 0.16160 0.85927 -0.21640
 C81 C 0.15803 0.87678 -0.23749
 C82 C 0.13546 0.86822 -0.25231
 C83 C 0.12599 0.84510 -0.23918
 H84 H 0.17083 0.89436 -0.24181
 H85 H 0.10851 0.83271 -0.24504
 Cu86 Cu 0.18934 0.85907 -0.18755
 Cu87 Cu 0.14010 0.81084 -0.19068
 Cu88 Cu 0.18978 0.80948 -0.13969
 N89 N 0.21747 0.85773 -0.15910
 N90 N 0.21747 0.83829 -0.14041
 C91 C 0.23891 0.84204 -0.12332
 C92 C 0.25293 0.86502 -0.13184
 C93 C 0.23899 0.87455 -0.15454
 H94 H 0.24398 0.82901 -0.10610
 H95 H 0.24419 0.89226 -0.16680
 N96 N 0.16010 0.78211 -0.14236
 N97 N 0.14116 0.78264 -0.16179
 C98 C 0.12389 0.76137 -0.15816
 C99 C 0.13247 0.74695 -0.13545
 C100 C 0.15538 0.76048 -0.12587
 H101 H 0.10642 0.75663 -0.17103
 H102 H 0.16766 0.75489 -0.10824
 H103 H 0.15894 0.83149 -0.15886
 H104 H 0.18161 0.81020 -0.18123
 N105 N 0.16043 1.14130 0.78313
 N106 N 0.14128 1.16037 0.78312
 C107 C 0.12423 1.15617 0.76174
 C108 C 0.13331 1.13333 0.74788
 C109 C 0.15624 1.12433 0.76184
 H110 H 0.10669 1.16879 0.75651
 H111 H 0.16897 1.10689 0.75677
 Cu112 Cu 0.14068 1.18893 0.81085
 Cu113 Cu 0.18955 1.13999 0.81045
 Cu114 Cu 0.18991 1.19137 0.85928
 N115 N 0.14166 1.21800 0.83804
 N116 N 0.16103 1.21879 0.85688
 C117 C 0.15697 1.24068 0.87306
 C118 C 0.13390 1.25421 0.86382
 C119 C 0.12457 1.23946 0.84164
 H120 H 0.16974 1.24629 0.89032
 H121 H 0.10669 1.24399 0.82922
 N122 N 0.21742 1.16183 0.85837
 N123 N 0.21730 1.14222 0.83978
 C124 C 0.23866 1.12525 0.84455
 C125 C 0.25264 1.13475 0.86714
 C126 C 0.23883 1.15787 0.87547
 H127 H 0.24377 1.10741 0.83250
 H128 H 0.24410 1.17081 0.89263
 H129 H 0.16811 1.15990 0.84109
 H130 H 0.18980 1.18154 0.81805
 N131 N 0.84059 0.85848 0.78190
 N132 N 0.85961 0.83929 0.78211
 C133 C 0.87672 0.84317 0.76071
 C134 C 0.86780 0.86592 0.74659
 C135 C 0.84493 0.87523 0.76042
 H136 H 0.89425 0.83045 0.75569
 H137 H 0.83241 0.89280 0.75525
 Cu138 Cu 0.85991 0.81109 0.81021
 Cu139 Cu 0.81159 0.86032 0.80931
 Cu140 Cu 0.81166 0.81023 0.85970
 N141 N 0.85976 0.78313 0.83854
 N142 N 0.84081 0.78290 0.85784
 C143 C 0.84528 0.76143 0.87458
 C144 C 0.86816 0.74765 0.86516
 C145 C 0.87692 0.76178 0.84234
 H146 H 0.83279 0.75618 0.89218
 H147 H 0.89434 0.75675 0.82946
 N148 N 0.78397 0.83967 0.85798
 N149 N 0.78399 0.85874 0.83877
 C150 C 0.76258 0.87576 0.84299
 C151 C 0.74859 0.86691 0.86584
 C152 C 0.76250 0.84407 0.87494
 H153 H 0.75745 0.89323 0.83036
 H154 H 0.75728 0.83160 0.89251
 H155 H 0.83332 0.84093 0.84024
 H156 H 0.81097 0.81892 0.81830
 N157 N 0.15943 0.85740 1.21746
 N158 N 0.14005 0.83861 1.21704
 C159 C 0.12271 0.84283 1.23820
 C160 C 0.13182 0.86541 1.25238
 C161 C 0.15509 0.87423 1.23886
 H162 H 0.10489 0.83047 1.24299
 H163 H 0.16787 0.89153 1.24420
 Cu164 Cu 0.13938 0.81046 1.18898
 Cu165 Cu 0.18873 0.85869 1.19025
 Cu166 Cu 0.18859 0.80813 1.14050
 N167 N 0.13999 0.78187 1.16135
 N168 N 0.15929 0.78108 1.14243
 C169 C 0.15492 0.75939 1.12603
 C170 C 0.13173 0.74605 1.13527
 C171 C 0.12269 0.76066 1.15765
 H172 H 0.16764 0.75373 1.10873
 H173 H 0.10492 0.75613 1.17021
 N174 N 0.21651 0.83728 1.14198
 N175 N 0.21660 0.85653 1.16096
 C176 C 0.23809 0.87337 1.15645
 C177 C 0.25198 0.86417 1.13365
 C178 C 0.23794 0.84136 1.12491
 H179 H 0.24328 0.89102 1.16873
 H180 H 0.24298 0.82876 1.10741
 H181 H 0.16718 0.83954 1.15922
 H182 H 0.18861 0.81722 1.18187
 N183 N 0.83900 1.14320 1.21827
 N184 N 0.85730 1.16304 1.21828
 C185 C 0.87457 1.15945 1.23959
 C186 C 0.86653 1.13623 1.25343
 C187 C 0.84396 1.12635 1.23954
 H188 H 0.89164 1.17269 1.24473
 H189 H 0.83206 1.10833 1.24456
 Cu190 Cu 0.85670 1.19150 1.19044
 Cu191 Cu 0.81012 1.14072 1.19080
 Cu192 Cu 0.80857 1.19134 1.14096
 N193 N 0.85564 1.21972 1.16238
 N194 N 0.83672 1.21955 1.14308
 C195 C 0.84073 1.24105 1.12627
 C196 C 0.86331 1.25526 1.13564
 C197 C 0.87237 1.24136 1.15849
 H198 H 0.82830 1.24590 1.10853
 H199 H 0.88986 1.24657 1.17115
 N200 N 0.78189 1.16106 1.14233
 N201 N 0.78252 1.14176 1.16130
 C202 C 0.76165 1.12418 1.15686
 C203 C 0.74742 1.13293 1.13410
 C204 C 0.76060 1.15626 1.12531
 H205 H 0.75700 1.10643 1.16927
 H206 H 0.75496 1.16881 1.10792
 H207 H 0.83125 1.16109 1.16015
 H208 H 0.80810 1.18213 1.18230
 O209 O 0.53889 0.95144 0.95046
 O210 O 0.56889 0.97639 0.97686
 C211 C 0.56346 0.95878 0.95787
 O212 O 0.46129 1.04910 0.95271
 O213 O 0.43110 1.02265 0.97750
 C214 C 0.43666 1.04173 0.95996
 O215 O 0.53885 1.04649 0.95024
 O216 O 0.56889 1.02204 0.97718
 C217 C 0.56346 1.03943 0.95790
 O218 O 0.46137 0.94881 0.95285
 O219 O 0.43117 0.97518 0.97766
 C220 C 0.43672 0.95617 0.96008
 Zr221 Zr 0.50009 0.96428 0.96588
 O222 O 0.49710 0.96412 0.92260
 O223 O 0.50330 0.92108 0.96632
 Zr224 Zr 0.50002 1.03351 0.96555
 O225 O 0.49690 1.03289 0.92228
 O226 O 0.50315 1.07670 0.96522
 O227 O 0.52461 0.99889 0.96041
 O228 O 0.47615 0.99889 0.96066
 O229 O 0.46106 0.94908 1.04811
 O230 O 0.43103 0.97534 1.02291
 C231 C 0.43647 0.95641 1.04065
 O232 O 0.53846 1.04676 1.05036
 O233 O 0.56867 1.02168 1.02421
 C234 C 0.56309 1.03942 1.04306
 O235 O 0.46092 1.04920 1.04776
 O236 O 0.43097 1.02279 1.02279
 C237 C 0.43634 1.04178 1.04043
 O238 O 0.53867 0.95179 1.05103
 O239 O 0.56880 0.97648 1.02445
 C240 C 0.56331 0.95903 1.04365
 Zr241 Zr 0.49989 0.96454 1.03532
 O242 O 0.49656 0.96493 1.07859
 O243 O 0.50311 0.92136 1.03548
 Zr244 Zr 0.49975 1.03374 1.03495
 O245 O 0.49654 1.03365 1.07821
 O246 O 0.50275 1.07695 1.03469
 Zr247 Zr 0.54081 0.99900 1.00049
 Zr248 Zr 0.45906 0.99900 1.00030
 O249 O 0.47588 0.99914 1.04004
 O250 O 0.52436 0.99918 1.04050
 O251 O 0.47549 0.95905 1.00056
 O252 O 0.52374 1.03860 1.00030
 O253 O 0.52388 0.95940 1.00068
 O254 O 0.47537 1.03897 1.00016
 H255 H 0.46365 0.99886 0.94462
 H256 H 0.53616 1.05467 1.00028
 H257 H 0.46330 0.99918 1.05603
 H258 H 0.53646 0.94342 1.00079
 H259 H 0.48812 1.08393 0.97683
 H260 H 0.48729 1.08407 1.02356
 H261 H 0.51212 1.02278 1.08544
 H262 H 0.51196 0.97604 1.08575
 H263 H 0.48786 0.91417 1.02417
 H264 H 0.48775 0.91397 0.97732
 H265 H 0.51222 0.97562 0.91542
 H266 H 0.51281 1.02239 0.91520
 O267 O 0.04698 0.53841 -0.05096
 O268 O 0.02199 0.56822 -0.02441
 C269 C 0.03961 0.56284 -0.04355
 O270 O -0.05091 0.46119 -0.04790
 O271 O -0.02387 0.43131 -0.02340
 C272 C -0.04320 0.43674 -0.04084
 O273 O -0.04846 0.53823 -0.05050
 O274 O -0.02342 0.56815 -0.02417
 C275 C -0.04112 0.56267 -0.04318
 O276 O 0.04961 0.46138 -0.04851
 O277 O 0.02303 0.43143 -0.02364
 C278 C 0.04208 0.43693 -0.04136
 Zr279 Zr 0.03428 0.49985 -0.03528
 O280 O 0.03438 0.49690 -0.07855
 O281 O 0.07778 0.50295 -0.03495
 Zr282 Zr -0.03554 0.49972 -0.03490
 O283 O -0.03604 0.49665 -0.07816
 O284 O -0.07904 0.50280 -0.03414
 O285 O -0.00072 0.52410 -0.04049
 O286 O -0.00060 0.47614 -0.04004
 O287 O 0.05029 0.46128 0.04698
 O288 O 0.02375 0.43134 0.02217
 C289 C 0.04292 0.43681 0.03974
 O290 O -0.04815 0.53820 0.04996
 O291 O -0.02324 0.56812 0.02341
 C292 C -0.04088 0.56266 0.04253
 O293 O -0.05044 0.46125 0.04765
 O294 O -0.02402 0.43135 0.02258
 C295 C -0.04296 0.43682 0.04042
 O296 O 0.04731 0.53829 0.04959
 O297 O 0.02217 0.56818 0.02317
 C298 C 0.03987 0.56273 0.04222
 Zr299 Zr 0.03467 0.49978 0.03398
 O300 O 0.03533 0.49667 0.07724
 O301 O 0.07815 0.50305 0.03311
 Zr302 Zr -0.03523 0.49971 0.03435
 O303 O -0.03530 0.49670 0.07762
 O304 O -0.07875 0.50274 0.03398
 Zr305 Zr -0.00055 0.54034 -0.00048
 Zr306 Zr -0.00036 0.45913 -0.00036
 O307 O -0.00020 0.47607 0.03925
 O308 O -0.00032 0.52402 0.03953
 O309 O 0.03988 0.47538 -0.00066
 O310 O -0.04043 0.52350 -0.00028
 O311 O 0.03941 0.52362 -0.00069
 O312 O -0.04068 0.47526 -0.00022
 H313 H -0.00067 0.46389 -0.05620
 H314 H -0.05653 0.53598 -0.00022
 H315 H -0.00005 0.46369 0.05534
 H316 H 0.05544 0.53615 -0.00077
 H317 H -0.08613 0.48704 -0.02355
 H318 H -0.08591 0.48699 0.02347
 H319 H -0.02361 0.51166 0.08473
 H320 H 0.02327 0.51127 0.08452
 H321 H 0.08530 0.48734 0.02250
 H322 H 0.08501 0.48714 -0.02451
 H323 H 0.02258 0.51179 -0.08569
 H324 H -0.02433 0.51152 -0.08545
 O325 O 1.04860 -0.04902 0.46128
 O326 O 1.02347 -0.02267 0.43133
 C327 C 1.04119 -0.04165 0.43680
 O328 O 0.95068 -0.04670 0.53842
 O329 O 0.97734 -0.02192 0.56830
 C330 C 0.95830 -0.03959 0.56287
 O331 O 0.95328 -0.04930 0.46133
 O332 O 0.97811 -0.02279 0.43129
 C333 C 0.96061 -0.04198 0.43681
 O334 O 1.05115 -0.04642 0.53855
 O335 O 1.02466 -0.02131 0.56835
 C336 C 1.04370 -0.03904 0.56301
 Zr337 Zr 1.03571 -0.03348 0.49986
 O338 O 1.03587 -0.07667 0.50309
 O339 O 1.07921 -0.03309 0.49674
 Zr340 Zr 0.96590 -0.03348 0.49985
 O341 O 0.96541 -0.07667 0.50300
 O342 O 0.92240 -0.03273 0.49674
 O343 O 1.00082 -0.03887 0.47552
 O344 O 1.00081 -0.03842 0.52358
 O345 O 1.05101 0.04886 0.53811
 O346 O 1.02450 0.02400 0.56814
 C347 C 1.04353 0.04167 0.56262
 O348 O 0.95294 0.05120 0.46111
 O349 O 0.97796 0.02473 0.43121
 C350 C 0.96028 0.04378 0.43665
 O351 O 0.95035 0.04887 0.53825
 O352 O 0.97676 0.02382 0.56822
 C353 C 0.95776 0.04158 0.56276
 O354 O 1.04872 0.05105 0.46097
 O355 O 1.02352 0.02475 0.43116
 C356 C 1.04136 0.04364 0.43650
 Zr357 Zr 1.03563 0.03572 0.49961
 O358 O 1.03557 0.07893 0.50245
 O359 O 1.07914 0.03539 0.49660
 Zr360 Zr 0.96580 0.03571 0.49969
 O361 O 0.96551 0.07891 0.50259
 O362 O 0.92230 0.03518 0.49664
 Zr363 Zr 1.00075 0.00106 0.45910
 Zr364 Zr 1.00072 0.00120 0.54044
 O365 O 1.00070 0.04076 0.52337
 O366 O 1.00071 0.04104 0.47527
 O367 O 1.04099 0.00117 0.52418
 O368 O 0.96084 0.00107 0.47595
 O369 O 1.04066 0.00107 0.47594
 O370 O 0.96046 0.00113 0.52424
 H371 H 1.00091 -0.05451 0.53596
 H372 H 0.94479 0.00100 0.46341
 H373 H 1.00065 0.05684 0.53571
 H374 H 1.05677 0.00103 0.46347
 H375 H 0.91525 -0.02254 0.51274
 H376 H 0.91519 0.02447 0.51232
 H377 H 0.97728 0.08606 0.48767
 H378 H 1.02430 0.08602 0.48713
 H379 H 1.08628 0.02451 0.51216
 H380 H 1.08636 -0.02233 0.51234
 H381 H 1.02452 -0.08389 0.48792
 H382 H 0.97763 -0.08390 0.48850
 C383 C 1.07709 0.07912 0.36931
 C384 C 1.09881 0.06526 0.35576
 C385 C 1.11074 0.07673 0.33173
 C386 C 1.10086 0.10196 0.32132
 C387 C 1.07901 0.11572 0.33477
 C388 C 1.06709 0.10426 0.35882
 C389 C 1.04519 0.11833 0.37180
 C390 C 1.03531 0.14299 0.36133
 C391 C 1.04697 0.15421 0.33785
 C392 C 1.06858 0.14083 0.32465
 C393 C 1.13237 0.06245 0.31853
 C394 C 1.14189 0.03752 0.32871
 C395 C 1.13020 0.02629 0.35217
 C396 C 1.10893 0.03992 0.36564
 C397 C 1.11299 0.11367 0.29669
 C398 C 1.12294 0.12343 0.27622
 C399 C 1.06465 0.06719 0.39365
 C400 C 1.05415 0.05682 0.41351
 H401 H 1.03546 0.11043 0.39013
 H402 H 1.01852 0.15346 0.37150
 H403 H 1.03923 0.17337 0.32980
 H404 H 1.07695 0.15035 0.30643
 H405 H 1.14210 0.07035 0.30020
 H406 H 1.15842 0.02686 0.31833
 H407 H 1.13766 0.00692 0.35997
 H408 H 1.10051 0.03035 0.38382
 C409 C 0.92696 -0.07944 0.36986
 C410 C 0.90546 -0.09883 0.37234
 C411 C 0.89337 -0.11027 0.34843
 C412 C 0.90285 -0.10225 0.32217
 C413 C 0.92467 -0.08318 0.31970
 C414 C 0.93679 -0.07179 0.34362
 C415 C 0.95858 -0.05277 0.34063
 C416 C 0.96807 -0.04519 0.31477
 C417 C 0.95616 -0.05625 0.29139
 C418 C 0.93472 -0.07506 0.29371
 C419 C 0.87187 -0.12959 0.35145
 C420 C 0.86261 -0.13741 0.37733
 C421 C 0.87445 -0.12624 0.40070
 C422 C 0.89563 -0.10715 0.39836
 C423 C 0.89018 -0.11363 0.29774
 C424 C 0.87971 -0.12319 0.27749
 C425 C 0.93860 -0.06688 0.39419
 C426 C 0.94845 -0.05585 0.41397
 H427 H 0.96851 -0.04357 0.35819
 H428 H 0.98475 -0.03062 0.31286
 H429 H 0.96354 -0.05021 0.27134
 H430 H 0.92612 -0.08311 0.27492
 H431 H 0.86204 -0.13888 0.33388
 H432 H 0.84617 -0.15223 0.37926
 H433 H 0.86721 -0.13241 0.42076
 H434 H 0.90423 -0.09907 0.41713
 C435 C 0.92238 0.07711 0.62999
 C436 C 0.93987 0.08624 0.65133
 C437 C 0.92835 0.09833 0.67523
 C438 C 0.89941 0.10101 0.67776
 C439 C 0.88192 0.09159 0.65656
 C440 C 0.89344 0.07964 0.63259
 C441 C 0.87554 0.07031 0.61172
 C442 C 0.84706 0.07266 0.61446
 C443 C 0.83579 0.08433 0.63789
 C444 C 0.85292 0.09374 0.65874
 C445 C 0.94625 0.10739 0.69623
 C446 C 0.97469 0.10430 0.69385
 C447 C 0.98593 0.09220 0.67064
 C448 C 0.96885 0.08341 0.64948
 C449 C 0.88760 0.11318 0.70226
 C450 C 0.87770 0.12317 0.72261
 C451 C 0.93419 0.06478 0.60558
 C452 C 0.94451 0.05435 0.58569
 H453 H 0.88333 0.06104 0.59314
 H454 H 0.83366 0.06535 0.59833
 H455 H 0.81365 0.08607 0.63994
 H456 H 0.84317 0.10264 0.67658
 H457 H 0.93847 0.11683 0.71473
 H458 H 0.98808 0.11123 0.71016
 H459 H 1.00801 0.08958 0.66906
 H460 H 0.97861 0.07427 0.63177
 C461 C 1.07941 -0.07371 0.63059
 C462 C 1.08394 -0.10229 0.63203
 C463 C 1.09554 -0.11404 0.65608
 C464 C 1.10257 -0.09713 0.67856
 C465 C 1.09775 -0.06857 0.67723
 C466 C 1.08602 -0.05684 0.65323
 C467 C 1.08097 -0.02831 0.65259
 C468 C 1.08725 -0.01187 0.67504
 C469 C 1.09902 -0.02328 0.69835
 C470 C 1.10426 -0.05129 0.69955
 C471 C 1.09975 -0.14268 0.65706
 C472 C 1.09264 -0.15926 0.63496
 C473 C 1.08128 -0.14778 0.61147
 C474 C 1.07695 -0.11963 0.60989
 C475 C 1.11442 -0.10917 0.70313
 C476 C 1.12413 -0.11936 0.72349
 C477 C 1.06743 -0.06173 0.60606
 C478 C 1.05702 -0.05158 0.58605
 H479 H 1.07200 -0.01843 0.63484
 H480 H 1.08302 0.00986 0.67432
 H481 H 1.10404 -0.01038 0.71565
 H482 H 1.11333 -0.05924 0.71819
 H483 H 1.10850 -0.15258 0.67489
 H484 H 1.09594 -0.18114 0.63608
 H485 H 1.07577 -0.16074 0.59436
 H486 H 1.06803 -0.11167 0.59119
 C487 C 0.36855 1.07718 1.07532
 C488 C 0.34233 1.07045 1.06455
 C489 C 0.31814 1.08166 1.07657
 C490 C 0.32029 1.09943 1.09938
 C491 C 0.34654 1.10622 1.11007
 C492 C 0.37073 1.09508 1.09799
 C493 C 0.39671 1.10218 1.10902
 C494 C 0.39875 1.11979 1.13136
 C495 C 0.37511 1.13067 1.14318
 C496 C 0.34925 1.12403 1.13275
 C497 C 0.29219 1.07473 1.06537
 C498 C 0.29018 1.05724 1.04293
 C499 C 0.31381 1.04624 1.03121
 C500 C 0.33964 1.05266 1.04184
 C501 C 0.29560 1.11092 1.11173
 C502 C 0.27527 1.12079 1.12198
 C503 C 0.39318 1.06539 1.06324
 C504 C 0.41323 1.05503 1.05299
 H505 H 0.41569 1.09424 1.10052
 H506 H 0.41879 1.12501 1.13955
 H507 H 0.37680 1.14433 1.16054
 H508 H 0.33147 1.13301 1.14265
 H509 H 0.27321 1.08275 1.07379
 H510 H 0.27016 1.05218 1.03460
 H511 H 0.31215 1.03266 1.01379
 H512 H 0.35742 1.04361 1.03198
 C513 C 0.36955 0.91957 0.92539
 C514 C 0.36767 0.91634 0.89662
 C515 C 0.34349 0.90495 0.88484
 C516 C 0.32131 0.89684 0.90189
 C517 C 0.32325 0.89997 0.93068
 C518 C 0.34744 0.91137 0.94247
 C519 C 0.34884 0.91441 0.97130
 C520 C 0.32699 0.90643 0.98800
 C521 C 0.30335 0.89528 0.97648
 C522 C 0.30139 0.89204 0.94817
 C523 C 0.34206 0.90204 0.85601
 C524 C 0.36388 0.91015 0.83932
 C525 C 0.38751 0.92129 0.85085
 C526 C 0.38950 0.92439 0.87916
 C527 C 0.29652 0.88537 0.88978
 C528 C 0.27601 0.87584 0.87963
 C529 C 0.39391 0.93195 0.93738
 C530 C 0.41376 0.94268 0.94756
 H531 H 0.36679 0.92298 0.98123
 H532 H 0.32840 0.90892 1.01001
 H533 H 0.28641 0.88913 0.98953
 H534 H 0.28257 0.88331 0.94016
 H535 H 0.32409 0.89353 0.84607
 H536 H 0.36243 0.90781 0.81731
 H537 H 0.40440 0.92758 0.83779
 H538 H 0.40831 0.93316 0.88716
 C539 C 0.63042 0.92470 1.08117
 C540 C 0.63200 0.89603 1.08504
 C541 C 0.65613 0.88416 1.09656
 C542 C 0.67857 0.90102 1.10416
 C543 C 0.67687 0.92973 1.10055
 C544 C 0.65270 0.94162 1.08911
 C545 C 0.65147 0.97039 1.08586
 C546 C 0.67345 0.98693 1.09374
 C547 C 0.69713 0.97529 1.10473
 C548 C 0.69894 0.94704 1.10813
 C549 C 0.65721 0.85544 1.10017
 C550 C 0.63509 0.83892 1.09266
 C551 C 0.61151 0.85052 1.08141
 C552 C 0.60987 0.87873 1.07759
 C553 C 0.70337 0.88881 1.11562
 C554 C 0.72392 0.87858 1.12508
 C555 C 0.60617 0.93671 1.06843
 C556 C 0.58633 0.94675 1.05742
 H557 H 0.63351 0.98041 1.07734
 H558 H 0.67210 1.00889 1.09136
 H559 H 0.71417 0.98824 1.11071
 H560 H 0.71779 0.93895 1.11679
 H561 H 0.67511 0.84544 1.10882
 H562 H 0.63625 0.81700 1.09561
 H563 H 0.59439 0.83760 1.07560
 H564 H 0.59107 0.88680 1.06881
 C565 C 0.63040 1.07444 0.92097
 C566 C 0.64835 1.05822 0.90486
 C567 C 0.67247 1.07004 0.89329
 C568 C 0.67838 1.09806 0.89772
 C569 C 0.66030 1.11432 0.91365
 C570 C 0.63625 1.10248 0.92530
 C571 C 0.61851 1.11914 0.94118
 C572 C 0.62436 1.14671 0.94541
 C573 C 0.64787 1.15829 0.93403
 C574 C 0.66571 1.14238 0.91832
 C575 C 0.69022 1.05336 0.87748
 C576 C 0.68421 1.02585 0.87301
 C577 C 0.66051 1.01437 0.88409
 C578 C 0.64278 1.03023 0.89997
 C579 C 0.70302 1.11019 0.88593
 C580 C 0.72344 1.12044 0.87627
 C581 C 0.60625 1.06219 0.93356
 C582 C 0.58647 1.05193 0.94441
 H583 H 0.59996 1.11108 0.95044
 H584 H 0.61058 1.15915 0.95762
 H585 H 0.65233 1.17972 0.93740
 H586 H 0.68376 1.15232 0.90994
 H587 H 0.70888 1.06138 0.86839
 H588 H 0.69802 1.01338 0.86087
 H589 H 0.65593 0.99300 0.88053
 H590 H 0.62469 1.02032 0.90830
 C591 C 0.07958 0.36994 0.07462
 C592 C 0.09907 0.37247 0.09603
 C593 C 0.11043 0.34863 0.10839
 C594 C 0.10221 0.32238 0.09925
 C595 C 0.08295 0.31986 0.07761
 C596 C 0.07167 0.34371 0.06520
 C597 C 0.05262 0.34066 0.04344
 C598 C 0.04498 0.31482 0.03418
 C599 C 0.05581 0.29151 0.04646
 C600 C 0.07458 0.29387 0.06793
 C601 C 0.12991 0.35170 0.12973
 C602 C 0.13797 0.37757 0.13859
 C603 C 0.12687 0.40087 0.12651
 C604 C 0.10763 0.39847 0.10547
 C605 C 0.11370 0.29800 0.11196
 C606 C 0.12331 0.27772 0.12233
 C607 C 0.06731 0.39422 0.06251
 C608 C 0.05655 0.41399 0.05227
 H609 H 0.04354 0.35817 0.03328
 H610 H 0.03058 0.31289 0.01737
 H611 H 0.04969 0.27148 0.03928
 H612 H 0.08248 0.27514 0.07679
 H613 H 0.13917 0.33419 0.13973
 H614 H 0.15295 0.37955 0.15489
 H615 H 0.13323 0.42092 0.13342
 H616 H 0.09965 0.41718 0.09662
 C617 C -0.08015 0.37013 -0.07573
 C618 C -0.07441 0.34391 -0.06472
 C619 C -0.08627 0.32024 -0.07681
 C620 C -0.10390 0.32291 -0.09978
 C621 C -0.10983 0.34915 -0.11064
 C622 C -0.09790 0.37282 -0.09859
 C623 C -0.10407 0.39881 -0.10986
 C624 C -0.12155 0.40135 -0.13237
 C625 C -0.13321 0.37822 -0.14413
 C626 C -0.12748 0.35237 -0.13349
 C627 C -0.08013 0.29426 -0.06549
 C628 C -0.06285 0.29172 -0.04285
 C629 C -0.05133 0.31486 -0.03099
 C630 C -0.05694 0.34070 -0.04170
 C631 C -0.11585 0.29865 -0.11224
 C632 C -0.12559 0.27837 -0.12243
 C633 C -0.06756 0.39423 -0.06366
 C634 C -0.05671 0.41390 -0.05341
 H635 H -0.09547 0.41740 -0.10143
 H636 H -0.12604 0.42139 -0.14074
 H637 H -0.14675 0.38031 -0.16164
 H638 H -0.13699 0.33498 -0.14338
 H639 H -0.08863 0.27565 -0.07397
 H640 H -0.05838 0.27170 -0.03445
 H641 H -0.03779 0.31276 -0.01353
 H642 H -0.04744 0.35806 -0.03174
 C643 C 0.07409 0.62988 -0.08018
 C644 C 0.10223 0.63003 -0.08780
 C645 C 0.11409 0.65402 -0.09932
 C646 C 0.09770 0.67770 -0.10323
 C647 C 0.06954 0.67754 -0.09563
 C648 C 0.05773 0.65359 -0.08396
 C649 C 0.02964 0.65407 -0.07612
 C650 C 0.01370 0.67753 -0.07969
 C651 C 0.02516 0.70082 -0.09138
 C652 C 0.05275 0.70095 -0.09929
 C653 C 0.14232 0.65374 -0.10659
 C654 C 0.15839 0.63043 -0.10256
 C655 C 0.14679 0.60698 -0.09132
 C656 C 0.11905 0.60666 -0.08399
 C657 C 0.10992 0.70230 -0.11473
 C658 C 0.12017 0.72270 -0.12420
 C659 C 0.06211 0.60558 -0.06785
 C660 C 0.05201 0.58575 -0.05712
 H661 H 0.01972 0.63640 -0.06712
 H662 H -0.00773 0.67755 -0.07354
 H663 H 0.01262 0.71892 -0.09430
 H664 H 0.06076 0.71960 -0.10820
 H665 H 0.15229 0.67148 -0.11540
 H666 H 0.17996 0.63059 -0.10819
 H667 H 0.15936 0.58893 -0.08822
 H668 H 0.11097 0.58794 -0.07530
 C669 C -0.07628 0.62940 0.07880
 C670 C -0.06204 0.64404 0.09941
 C671 C -0.07367 0.66838 0.11043
 C672 C -0.09960 0.67777 0.10097
 C673 C -0.11394 0.66298 0.08054
 C674 C -0.10226 0.63872 0.06944
 C675 C -0.11700 0.62428 0.04905
 C676 C -0.14258 0.63351 0.03993
 C677 C -0.15394 0.65729 0.05068
 C678 C -0.13988 0.67195 0.07075
 C679 C -0.05889 0.68283 0.13078
 C680 C -0.03345 0.67342 0.14011
 C681 C -0.02222 0.64949 0.12953
 C682 C -0.03623 0.63492 0.10936
 C683 C -0.11164 0.70249 0.11241
 C684 C -0.12167 0.72294 0.12200
 C685 C -0.06389 0.60521 0.06667
 C686 C -0.05349 0.58549 0.05603
 H687 H -0.10901 0.60570 0.04001
 H688 H -0.15365 0.62211 0.02448
 H689 H -0.17377 0.66442 0.04345
 H690 H -0.14955 0.69034 0.07846
 H691 H -0.06681 0.70151 0.13968
 H692 H -0.02240 0.68474 0.15566
 H693 H -0.00243 0.64229 0.13682
 H694 H -0.02659 0.61650 0.10167
 C695 C 1.07899 0.07705 0.62959
 C696 C 1.06709 0.10102 0.64077
 C697 C 1.07793 0.11238 0.66528
 C698 C 1.10072 0.09981 0.67833
 C699 C 1.11261 0.07582 0.66713
 C700 C 1.10177 0.06447 0.64262
 C701 C 1.11406 0.04057 0.63171
 C702 C 1.13634 0.02814 0.64476
 C703 C 1.14681 0.03912 0.66885
 C704 C 1.13521 0.06271 0.67997
 C705 C 1.06551 0.13619 0.67624
 C706 C 1.04308 0.14847 0.66331
 C707 C 1.03260 0.13746 0.63923
 C708 C 1.04438 0.11401 0.62800
 C709 C 1.11209 0.11169 0.70310
 C710 C 1.12168 0.12159 0.72358
 C711 C 1.06717 0.06482 0.60524
 C712 C 1.05678 0.05441 0.58544
 H713 H 1.10655 0.03117 0.61310
 H714 H 1.14538 0.00978 0.63623
 H715 H 1.16403 0.02931 0.67898
 H716 H 1.14409 0.07049 0.69874
 H717 H 1.07294 0.14552 0.69492
 H718 H 1.03379 0.16662 0.67202
 H719 H 1.01515 0.14705 0.62928
 H720 H 1.03541 0.10615 0.60931
 C721 C 0.92347 -0.07627 0.62956
 C722 C 0.89473 -0.07515 0.63427
 C723 C 0.88344 -0.08728 0.65824
 C724 C 0.90100 -0.10046 0.67733
 C725 C 0.92975 -0.10165 0.67257
 C726 C 0.94103 -0.08951 0.64860
 C727 C 0.96986 -0.09086 0.64430
 C728 C 0.98704 -0.10384 0.66314
 C729 C 0.97599 -0.11574 0.68658
 C730 C 0.94769 -0.11472 0.69134
 C731 C 0.85464 -0.08584 0.66258
 C732 C 0.83749 -0.07277 0.64376
 C733 C 0.84854 -0.06090 0.62031
 C734 C 0.87682 -0.06202 0.61551
 C735 C 0.88946 -0.11258 0.70192
 C736 C 0.87969 -0.12249 0.72233
 C737 C 0.93510 -0.06343 0.60542
 C738 C 0.94529 -0.05261 0.58570
 H739 H 0.97943 -0.08193 0.62637
 H740 H 1.00904 -0.10466 0.65953
 H741 H 0.98941 -0.12581 0.70116
 H742 H 0.94007 -0.12427 0.70987
 H743 H 0.84507 -0.09476 0.68051
 H744 H 0.81551 -0.07186 0.64740
 H745 H 0.83514 -0.05077 0.60575
 H746 H 0.88445 -0.05250 0.59697
 C747 C 1.07515 -0.07748 0.36927
 C748 C 1.05821 -0.09293 0.35146
 C749 C 1.06962 -0.10465 0.32736
 C750 C 1.09784 -0.10069 0.32114
 C751 C 1.11462 -0.08475 0.33867
 C752 C 1.10323 -0.07311 0.36281
 C753 C 1.12034 -0.05709 0.37993
 C754 C 1.14791 -0.05266 0.37335
 C755 C 1.15906 -0.06406 0.34974
 C756 C 1.14272 -0.07997 0.33255
 C757 C 1.05231 -0.12002 0.30986
 C758 C 1.02446 -0.12350 0.31588
 C759 C 1.01325 -0.11187 0.33936
 C760 C 1.02985 -0.09681 0.35707
 C761 C 1.10963 -0.11281 0.29666
 C762 C 1.11967 -0.12278 0.27641
 C763 C 1.06352 -0.06550 0.39384
 C764 C 1.05360 -0.05503 0.41386
 H765 H 1.11260 -0.04774 0.39849
 H766 H 1.16067 -0.04028 0.38663
 H767 H 1.18049 -0.06054 0.34470
 H768 H 1.15234 -0.08837 0.31440
 H769 H 1.06007 -0.12938 0.29131
 H770 H 1.01150 -0.13524 0.30223
 H771 H 0.99158 -0.11454 0.34390
 H772 H 1.02019 -0.08819 0.37509
 C773 C 0.92553 0.08007 0.36967
 C774 C 0.93317 0.07023 0.34346
 C775 C 0.92123 0.08191 0.31958
 C776 C 0.90171 0.10331 0.32207
 C777 C 0.89408 0.11313 0.34829
 C778 C 0.90606 0.10148 0.37217
 C779 C 0.89814 0.11161 0.39817
 C780 C 0.87886 0.13262 0.40050
 C781 C 0.86711 0.14400 0.37715
 C782 C 0.87456 0.13445 0.35128
 C783 C 0.92912 0.07172 0.29359
 C784 C 0.94824 0.05056 0.29127
 C785 C 0.95992 0.03912 0.31463
 C786 C 0.95256 0.04876 0.34048
 C787 C 0.88933 0.11506 0.29771
 C788 C 0.87896 0.12475 0.27748
 C789 C 0.93754 0.06789 0.39399
 C790 C 0.94775 0.05724 0.41380
 H791 H 0.90674 0.10343 0.41693
 H792 H 0.87302 0.14012 0.42055
 H793 H 0.85216 0.16033 0.37906
 H794 H 0.86487 0.14397 0.33372
 H795 H 0.92060 0.07994 0.27481
 H796 H 0.95402 0.04299 0.27123
 H797 H 0.97476 0.02269 0.31273
 H798 H 0.96220 0.03919 0.35803
 C799 C 0.07742 0.37027 -0.07751
 C800 C 0.10424 0.37124 -0.08883
 C801 C 0.11571 0.34749 -0.10117
 C802 C 0.10027 0.32295 -0.10211
 C803 C 0.07346 0.32197 -0.09070
 C804 C 0.06200 0.34571 -0.07835
 C805 C 0.03517 0.34422 -0.06704
 C806 C 0.02012 0.31999 -0.06791
 C807 C 0.03133 0.29677 -0.07997
 C808 C 0.05769 0.29763 -0.09127
 C809 C 0.14261 0.34892 -0.11230
 C810 C 0.15773 0.37312 -0.11127
 C811 C 0.14650 0.39634 -0.09922
 C812 C 0.12006 0.39553 -0.08810
 C813 C 0.11204 0.29865 -0.11452
 C814 C 0.12191 0.27840 -0.12460
 C815 C 0.06563 0.39445 -0.06491
 C816 C 0.05528 0.41416 -0.05428
 H817 H 0.02554 0.36172 -0.05740
 H818 H -0.00033 0.31923 -0.05920
 H819 H 0.01955 0.27800 -0.08058
 H820 H 0.06552 0.27903 -0.10042
 H821 H 0.15224 0.33140 -0.12188
 H822 H 0.17828 0.37385 -0.11986
 H823 H 0.15833 0.41509 -0.09846
 H824 H 0.11221 0.41411 -0.07892
 C825 C -0.07859 0.37047 0.07688
 C826 C -0.06800 0.34420 0.07068
 C827 C -0.07994 0.32062 0.08288
 C828 C -0.10229 0.32349 0.10132
 C829 C -0.11262 0.34979 0.10781
 C830 C -0.10074 0.37337 0.09553
 C831 C -0.11136 0.39946 0.10235
 C832 C -0.13307 0.40218 0.12084
 C833 C -0.14469 0.37912 0.13287
 C834 C -0.13468 0.35317 0.12648
 C835 C -0.06906 0.29455 0.07634
 C836 C -0.04686 0.29188 0.05843
 C837 C -0.03508 0.31496 0.04664
 C838 C -0.04550 0.34086 0.05251
 C839 C -0.11458 0.29938 0.11361
 C840 C -0.12471 0.27928 0.12372
 C841 C -0.06655 0.39446 0.06416
 C842 C -0.05611 0.41407 0.05341
 H843 H -0.10297 0.41800 0.09355
 H844 H -0.14089 0.42230 0.12589
 H845 H -0.16152 0.38134 0.14725
 H846 H -0.14437 0.33585 0.13638
 H847 H -0.07749 0.27599 0.08506
 H848 H -0.03873 0.27180 0.05372
 H849 H -0.01778 0.31278 0.03285
 H850 H -0.03565 0.35817 0.04274
 C851 C -0.07579 0.62940 -0.07998
 C852 C -0.10165 0.63909 -0.07069
 C853 C -0.11296 0.66343 -0.08198
 C854 C -0.09835 0.67792 -0.10250
 C855 C -0.07254 0.66815 -0.11188
 C856 C -0.06129 0.64373 -0.10068
 C857 C -0.03559 0.63420 -0.11054
 C858 C -0.02134 0.64849 -0.13080
 C859 C -0.03221 0.67252 -0.14157
 C860 C -0.05753 0.68232 -0.13232
 C861 C -0.13879 0.67280 -0.07229
 C862 C -0.15310 0.65843 -0.05213
 C863 C -0.14208 0.63456 -0.04118
 C864 C -0.11663 0.62494 -0.05020
 C865 C -0.11000 0.70274 -0.11404
 C866 C -0.11990 0.72328 -0.12354
 C867 C -0.06375 0.60519 -0.06762
 C868 C -0.05358 0.58547 -0.05680
 H869 H -0.02623 0.61567 -0.10271
 H870 H -0.00164 0.64099 -0.13801
 H871 H -0.02099 0.68362 -0.15719
 H872 H -0.06518 0.70107 -0.14136
 H873 H -0.14820 0.69128 -0.08016
 H874 H -0.17285 0.66586 -0.04499
 H875 H -0.15334 0.62340 -0.02564
 H876 H -0.10891 0.60628 -0.04102
 C877 C 0.07394 0.62938 0.07940
 C878 C 0.10192 0.62937 0.08755
 C879 C 0.11363 0.65328 0.09928
 C880 C 0.09725 0.67699 0.10286
 C881 C 0.06922 0.67695 0.09483
 C882 C 0.05755 0.65309 0.08296
 C883 C 0.02959 0.65366 0.07472
 C884 C 0.01364 0.67714 0.07808
 C885 C 0.02498 0.70036 0.08996
 C886 C 0.05244 0.70040 0.09825
 C887 C 0.14172 0.65287 0.10708
 C888 C 0.15776 0.62950 0.10340
 C889 C 0.14630 0.60612 0.09196
 C890 C 0.11871 0.60593 0.08410
 C891 C 0.10936 0.70151 0.11445
 C892 C 0.11953 0.72186 0.12398
 C893 C 0.06216 0.60524 0.06677
 C894 C 0.05218 0.58553 0.05586
 H895 H 0.01976 0.63603 0.06559
 H896 H -0.00769 0.67724 0.07162
 H897 H 0.01243 0.71847 0.09273
 H898 H 0.06037 0.71899 0.10728
 H899 H 0.15157 0.67056 0.11605
 H900 H 0.17921 0.62956 0.10947
 H901 H 0.15885 0.58802 0.08914
 H902 H 0.11072 0.58725 0.07530
 C903 C 0.37000 1.07913 0.92530
 C904 C 0.36682 1.07936 0.89647
 C905 C 0.34275 1.09090 0.88459
 C906 C 0.32202 1.10211 0.90163
 C907 C 0.32532 1.10212 0.93046
 C908 C 0.34943 1.09066 0.94235
 C909 C 0.35236 1.09102 0.97122
 C910 C 0.33206 1.10246 0.98785
 C911 C 0.30838 1.11348 0.97624
 C912 C 0.30493 1.11336 0.94789
 C913 C 0.34000 1.09086 0.85570
 C914 C 0.36046 1.07974 0.83905
 C915 C 0.38400 1.06844 0.85068
 C916 C 0.38725 1.06819 0.87904
 C917 C 0.29734 1.11363 0.88947
 C918 C 0.27690 1.12322 0.87929
 C919 C 0.39407 1.06643 0.93744
 C920 C 0.41378 1.05542 0.94759
 H921 H 0.37037 1.08260 0.98123
 H922 H 0.33470 1.10281 1.00986
 H923 H 0.29261 1.12222 0.98926
 H924 H 0.28617 1.12222 0.93981
 H925 H 0.32205 1.09940 0.84569
 H926 H 0.35803 1.07990 0.81700
 H927 H 0.39984 1.05982 0.83766
 H928 H 0.40595 1.05921 0.88712
 C929 C 0.36884 0.92072 1.07525
 C930 C 0.34544 0.93735 1.08010
 C931 C 0.32135 0.92575 1.09189
 C932 C 0.32085 0.89761 1.09882
 C933 C 0.34423 0.88097 1.09388
 C934 C 0.36830 0.89257 1.08206
 C935 C 0.39144 0.87558 1.07735
 C936 C 0.39082 0.84789 1.08415
 C937 C 0.36729 0.83653 1.09571
 C938 C 0.34419 0.85278 1.10056
 C939 C 0.29820 0.94276 1.09653
 C940 C 0.29887 0.97048 1.08984
 C941 C 0.32246 0.98185 1.07841
 C942 C 0.34552 0.96558 1.07349
 C943 C 0.29638 0.88581 1.11116
 C944 C 0.27610 0.87596 1.12144
 C945 C 0.39339 0.93262 1.06323
 C946 C 0.41342 0.94306 1.05309
 H947 H 0.41022 0.88349 1.06842
 H948 H 0.40871 0.83519 1.08042
 H949 H 0.36692 0.81501 1.10097
 H950 H 0.32636 0.84300 1.10957
 H951 H 0.27937 0.93486 1.10538
 H952 H 0.28101 0.98322 1.09358
 H953 H 0.32291 1.00340 1.07337
 H954 H 0.36336 0.97538 1.06453
 C955 C 0.63044 1.07443 1.07848
 C956 C 0.65672 1.06640 1.06876
 C957 C 0.68084 1.07815 1.08024
 C958 C 0.67850 1.09807 1.10115
 C959 C 0.65221 1.10617 1.11079
 C960 C 0.62809 1.09427 1.09944
 C961 C 0.60202 1.10265 1.10938
 C962 C 0.59984 1.12225 1.12998
 C963 C 0.62343 1.13390 1.14109
 C964 C 0.64936 1.12602 1.13170
 C965 C 0.70689 1.06965 1.07036
 C966 C 0.70904 1.05015 1.04965
 C967 C 0.68544 1.03879 1.03829
 C968 C 0.65952 1.04675 1.04763
 C969 C 0.70308 1.11033 1.11269
 C970 C 0.72338 1.12061 1.12238
 C971 C 0.60592 1.06236 1.06672
 C972 C 0.58599 1.05206 1.05634
 H973 H 0.58309 1.09416 1.10137
 H974 H 0.57974 1.12841 1.13736
 H975 H 0.62163 1.14911 1.15710
 H976 H 0.66710 1.13564 1.14101
 H977 H 0.72585 1.07796 1.07850
 H978 H 0.72913 1.04388 1.04235
 H979 H 0.68720 1.02367 1.02219
 H980 H 0.64178 1.03726 1.03819
 C981 C 0.63091 0.92464 0.92142
 C982 C 0.62945 0.89894 0.90818
 C983 C 0.65361 0.88716 0.89673
 C984 C 0.67905 0.90120 0.89850
 C985 C 0.68045 0.92703 0.91156
 C986 C 0.65633 0.93872 0.92318
 C987 C 0.65829 0.96438 0.93647
 C988 C 0.68336 0.97815 0.93810
 C989 C 0.70690 0.96683 0.92650
 C990 C 0.70560 0.94155 0.91340
 C991 C 0.65168 0.86137 0.88370
 C992 C 0.62659 0.84764 0.88203
 C993 C 0.60296 0.85919 0.89322
 C994 C 0.60424 0.88454 0.90617
 C995 C 0.70378 0.88902 0.88704
 C996 C 0.72426 0.87888 0.87746
 C997 C 0.60643 0.93640 0.93370
 C998 C 0.58648 0.94642 0.94439
 H999 H 0.64052 0.97413 0.94564
 H1000 H 0.68447 0.99781 0.94823
 H1001 H 0.72629 0.97768 0.92769
 H1002 H 0.72449 0.93354 0.90478
 H1003 H 0.66949 0.85157 0.87467
 H1004 H 0.62549 0.82794 0.87199
 H1005 H 0.58352 0.84844 0.89186
 H1006 H 0.58530 0.89270 0.91454
   
