data_POSCAR
  _audit_creation_date              2014-09-24
  _audit_creation_method            'ToBaCCo'
  _symmetry_space_group_name_H-M    'P1'
  _symmetry_Int_Tables_number       1
  _symmetry_cell_setting            triclinic
  loop_
  _symmetry_equiv_pos_as_xyz
 x,y,z
_cell_length_a 22.5859
_cell_length_b 23.2568
_cell_length_c 40.7876
_cell_angle_alpha 89.953400
_cell_angle_beta 89.843200
_cell_angle_gamma 117.148400
loop_
  _atom_site_label
  _atom_site_type_symbol
  _atom_site_fract_x
  _atom_site_fract_y
  _atom_site_fract_z
Zn1 Zn 0.97234 0.05062 1.01675
 Zn2 Zn 1.08548 0.01826 1.00977
 Zn3 Zn 0.94510 -0.08756 1.01084
 Zn4 Zn 0.99408 -0.00006 0.95321
 O5 O 0.99938 -0.00467 0.99768
 O6 O 1.03546 0.11103 1.04143
 O7 O 1.09326 -0.04528 1.03176
 O8 O 0.87958 -0.09270 1.03748
 O9 O 1.11910 0.08683 1.03656
 O10 O 0.90168 0.00990 1.04292
 O11 O 0.98881 -0.12199 1.03327
 O12 O 0.94161 -0.07609 0.93474
 O13 O 1.14143 0.04100 0.97524
 O14 O 0.90627 -0.14207 0.97741
 O15 O 1.07317 0.02730 0.93368
 O16 O 0.96211 0.05396 0.94044
 O17 O 0.94794 0.09320 0.98755
 C18 C 1.09449 0.12187 1.04811
 C19 C 1.04959 -0.10105 1.04070
 C20 C 0.86652 -0.04943 1.04958
 C21 C 0.90832 -0.13209 0.94674
 C22 C 1.13099 0.04354 0.94480
 C23 C 0.94461 0.09037 0.95654
 Zn24 Zn 0.03814 0.95366 0.51775
 Zn25 Zn -0.08136 0.97637 0.51591
 Zn26 Zn 0.05359 1.08712 0.50710
 Zn27 Zn -0.00549 0.98670 0.45464
 O28 O 0.00136 1.00104 0.49885
 O29 O -0.01827 0.89151 0.54508
 O30 O -0.08867 1.03976 0.53750
 O31 O 0.12675 1.10250 0.53058
 O32 O -0.10527 0.91137 0.54427
 O33 O 0.11014 1.00278 0.54127
 O34 O 0.01156 1.12181 0.53096
 O35 O 0.03172 1.06046 0.43181
 O36 O -0.14513 0.94728 0.48562
 O37 O 0.07827 1.13482 0.47029
 O38 O -0.09032 0.94638 0.44068
 O39 O 0.03578 0.94064 0.44108
 O40 O 0.06769 0.91587 0.48805
 C41 C -0.07669 0.87893 0.55445
 C42 C -0.04697 1.09822 0.54249
 C43 C 0.14369 1.06345 0.54459
 C44 C 0.06460 1.11901 0.44041
 C45 C -0.14429 0.93458 0.45547
 C46 C 0.06577 0.91476 0.45696
 O47 O 0.45206 0.73809 0.22437
 O48 O 0.34334 0.74908 0.21574
 C49 C 0.28237 0.72415 0.20826
 O50 O 0.23786 0.67381 0.22221
 O51 O 0.23659 0.56380 0.20937
 C52 C 0.26336 0.52778 0.20336
 O53 O 0.31232 0.53029 0.21964
 O54 O 0.42310 0.63618 0.20940
 C55 C 0.45760 0.69662 0.20579
 O56 O 0.42836 0.72939 0.28981
 O57 O 0.32146 0.74535 0.28091
 C58 C 0.26701 0.70612 0.29454
 O59 O 0.23571 0.64717 0.28685
 O60 O 0.23081 0.53506 0.27443
 C61 C 0.27208 0.52265 0.29056
 O62 O 0.33386 0.54867 0.28444
 O63 O 0.44873 0.64863 0.27392
 C64 C 0.46021 0.69674 0.29217
 Cr65 Cr 0.38438 0.73704 0.25266
 Cr66 Cr 0.23880 0.60636 0.24826
 Cr67 Cr 0.37779 0.59287 0.24694
 O68 O 0.33345 0.64557 0.24937
 O69 O 0.77117 0.44753 0.78100
 O70 O 0.75085 0.32836 0.78766
 C71 C 0.71450 0.26814 0.79067
 O72 O 0.66277 0.23699 0.77352
 O73 O 0.56303 0.26120 0.78655
 C74 C 0.53844 0.29872 0.79408
 O75 O 0.55411 0.35232 0.77950
 O76 O 0.67301 0.44557 0.79083
 C77 C 0.73402 0.46507 0.79721
 O78 O 0.76794 0.43239 0.71526
 O79 O 0.75325 0.31509 0.72190
 C80 C 0.70805 0.27291 0.70409
 O81 O 0.64659 0.25304 0.70937
 O82 O 0.54247 0.26964 0.72239
 C83 C 0.54039 0.31632 0.70717
 O84 O 0.57801 0.37482 0.71411
 O85 O 0.69548 0.47070 0.72612
 C86 C 0.74474 0.47190 0.71024
 Cr87 Cr 0.75723 0.37975 0.75143
 Cr88 Cr 0.60589 0.25870 0.74809
 Cr89 Cr 0.62649 0.40855 0.75256
 O90 O 0.66326 0.34919 0.75077
 C91 C 0.13582 0.17606 0.06970
 C92 C 0.11251 0.21778 0.08239
 C93 C 0.15061 0.27274 0.10468
 C94 C 0.11735 0.30496 0.11880
 C95 C 0.15030 0.35685 0.14006
 C96 C 0.21787 0.37832 0.14753
 C97 C 0.25122 0.34601 0.13363
 C98 C 0.21823 0.29404 0.11225
 C99 C 0.25374 0.43213 0.17071
 C100 C 0.23375 0.47959 0.17723
 H101 H 0.06248 0.20893 0.07608
 H102 H 0.06524 0.28948 0.11363
 H103 H 0.12202 0.37882 0.15111
 H104 H 0.30314 0.36132 0.13918
 H105 H 0.24633 0.27141 0.10178
 H106 H 0.29725 0.43440 0.18298
 H107 H 0.18487 0.18210 0.07567
 H108 H 0.19321 0.48050 0.16356
 C109 C 0.80984 0.93249 0.07209
 C110 C 0.76867 0.86831 0.08068
 C111 C 0.71285 0.84792 0.10438
 C112 C 0.68692 0.78551 0.11770
 C113 C 0.63469 0.76398 0.14031
 C114 C 0.60652 0.80431 0.14983
 C115 C 0.63240 0.86678 0.13660
 C116 C 0.68467 0.88834 0.11389
 C117 C 0.55185 0.78328 0.17417
 C118 C 0.50790 0.71839 0.17960
 H119 H 0.77965 0.83111 0.07060
 H120 H 0.70780 0.75347 0.11092
 H121 H 0.61768 0.71626 0.15074
 H122 H 0.61163 0.89878 0.14361
 H123 H 0.70191 0.93623 0.10371
 H124 H 0.54541 0.82002 0.18781
 H125 H 0.80222 0.97119 0.08268
 H126 H 0.51073 0.68150 0.16448
 C127 C 0.06809 0.85713 0.06080
 C128 C 0.13127 0.87868 0.07435
 C129 C 0.14813 0.84063 0.09844
 C130 C 0.20317 0.87345 0.11892
 C131 C 0.22005 0.84010 0.14260
 C132 C 0.18267 0.77269 0.14605
 C133 C 0.12762 0.73973 0.12560
 C134 C 0.11074 0.77312 0.10183
 C135 C 0.19938 0.73608 0.17104
 C136 C 0.26402 0.75746 0.18261
 H137 H 0.16851 0.92766 0.06915
 H138 H 0.23262 0.92538 0.11699
 H139 H 0.26157 0.86766 0.15857
 H140 H 0.09806 0.68784 0.12776
 H141 H 0.06894 0.74560 0.08605
 H142 H 0.16051 0.69017 0.17956
 H143 H 0.02880 0.80990 0.06709
 H144 H 0.30396 0.80056 0.17219
 C145 C 0.88638 0.82599 0.57763
 C146 C 0.91323 0.78862 0.59192
 C147 C 0.87566 0.73486 0.61515
 C148 C 0.89862 0.68906 0.62104
 C149 C 0.86456 0.63736 0.64252
 C150 C 0.80625 0.63014 0.65863
 C151 C 0.78423 0.67685 0.65331
 C152 C 0.81846 0.72869 0.63195
 C153 C 0.76833 0.57636 0.68184
 C154 C 0.77857 0.52185 0.68517
 H155 H 0.96301 0.79757 0.58489
 H156 H 0.94311 0.69317 0.60889
 H157 H 0.88509 0.60416 0.64654
 H158 H 0.74030 0.67333 0.66581
 H159 H 0.80020 0.76402 0.62925
 H160 H 0.73078 0.57999 0.69707
 H161 H 0.83570 0.81603 0.58296
 H162 H 0.81436 0.51578 0.66983
 C163 C 0.20255 0.08744 0.56585
 C164 C 0.23841 0.15213 0.57502
 C165 C 0.29215 0.17409 0.59987
 C166 C 0.34059 0.23907 0.60030
 C167 C 0.39148 0.26110 0.62371
 C168 C 0.39430 0.21840 0.64744
 C169 C 0.34541 0.15370 0.64713
 C170 C 0.29473 0.13183 0.62387
 C171 C 0.44711 0.23804 0.67265
 C172 C 0.49112 0.30181 0.68077
 H173 H 0.22688 0.18790 0.56362
 H174 H 0.33944 0.27273 0.58224
 H175 H 0.42859 0.31112 0.62275
 H176 H 0.34600 0.11984 0.66523
 H177 H 0.25709 0.08203 0.62532
 H178 H 0.44996 0.19953 0.68645
 H179 H 0.21636 0.05186 0.57541
 H180 H 0.48881 0.34188 0.66842
 C181 C 0.93426 0.13999 0.56242
 C182 C 0.87254 0.11620 0.57806
 C183 C 0.85301 0.15442 0.60072
 C184 C 0.78615 0.12858 0.61044
 C185 C 0.76550 0.16116 0.63285
 C186 C 0.81147 0.22085 0.64599
 C187 C 0.87841 0.24659 0.63642
 C188 C 0.89914 0.21390 0.61405
 C189 C 0.79233 0.25567 0.67092
 C190 C 0.72671 0.24337 0.67674
 H191 H 0.83644 0.06649 0.57362
 H192 H 0.74974 0.08244 0.60097
 H193 H 0.71387 0.13823 0.64032
 H194 H 0.91501 0.29197 0.64655
 H195 H 0.95146 0.23496 0.60806
 H196 H 0.83158 0.29225 0.68542
 H197 H 0.97072 0.18993 0.56508
 H198 H 0.68693 0.20976 0.66149
 C199 C 0.18648 0.06588 0.92138
 C200 C 0.25089 0.11071 0.92985
 C201 C 0.30465 0.13727 0.90511
 C202 C 0.35204 0.20252 0.90654
 C203 C 0.40193 0.22887 0.88259
 C204 C 0.40582 0.18978 0.85725
 C205 C 0.35965 0.12411 0.85651
 C206 C 0.30919 0.09816 0.88001
 C207 C 0.45865 0.21475 0.83202
 C208 C 0.48829 0.27840 0.82050
 H209 H 0.26043 0.13120 0.95427
 H210 H 0.34978 0.23332 0.92590
 H211 H 0.43793 0.27929 0.88429
 H212 H 0.36230 0.09288 0.83748
 H213 H 0.27426 0.04731 0.87877
 H214 H 0.47153 0.18005 0.82040
 H215 H 0.17496 0.05163 0.89599
 H216 H 0.47218 0.31267 0.82968
 C217 C 0.87167 0.81412 0.92417
 C218 C 0.85310 0.74998 0.93254
 C219 C 0.82085 0.69689 0.90870
 C220 C 0.83578 0.64456 0.90914
 C221 C 0.80760 0.59497 0.88602
 C222 C 0.76295 0.59641 0.86247
 C223 C 0.74613 0.64750 0.86289
 C224 C 0.77519 0.69758 0.88558
 C225 C 0.73203 0.54508 0.83762
 C226 C 0.76396 0.51134 0.82420
 H227 H 0.86788 0.73921 0.95609
 H228 H 0.87021 0.64268 0.92703
 H229 H 0.82012 0.55528 0.88689
 H230 H 0.71112 0.64914 0.84527
 H231 H 0.76135 0.73643 0.88522
 H232 H 0.68475 0.53757 0.82746
 H233 H 0.86381 0.82590 0.89939
 H234 H 0.81384 0.52238 0.83192
 C235 C 0.91926 0.13000 0.93921
 C236 C 0.90293 0.12088 0.90603
 C237 C 0.87361 0.15706 0.88821
 C238 C 0.83460 0.12880 0.86048
 C239 C 0.80650 0.16155 0.84274
 C240 C 0.81738 0.22370 0.85230
 C241 C 0.85756 0.25257 0.87963
 C242 C 0.88519 0.21952 0.89758
 C243 C 0.79105 0.26083 0.83306
 C244 C 0.73407 0.23139 0.81376
 H245 H 0.90780 0.08264 0.89301
 H246 H 0.82581 0.08114 0.85251
 H247 H 0.77784 0.13870 0.82111
 H248 H 0.86768 0.30089 0.88706
 H249 H 0.91671 0.24360 0.91823
 H250 H 0.81761 0.31311 0.83406
 H251 H 0.90972 0.16423 0.95339
 H252 H 0.70406 0.17946 0.81456
 C253 C 0.79206 0.90595 0.43781
 C254 C 0.78635 0.88478 0.40547
 C255 C 0.72220 0.85588 0.38771
 C256 C 0.71357 0.81334 0.36174
 C257 C 0.65388 0.78550 0.34427
 C258 C 0.60157 0.80006 0.35235
 C259 C 0.61078 0.84376 0.37783
 C260 C 0.67033 0.87128 0.39545
 C261 C 0.53886 0.77379 0.33340
 C262 C 0.51537 0.71642 0.31560
 H263 H 0.82978 0.88652 0.39323
 H264 H 0.75317 0.80156 0.35495
 H265 H 0.64974 0.75400 0.32398
 H266 H 0.57182 0.85680 0.38407
 H267 H 0.67597 0.90561 0.41455
 H268 H 0.51066 0.80101 0.33319
 H269 H 0.74816 0.89982 0.45124
 H270 H 0.54057 0.68657 0.31726
 C271 C 0.08520 0.16902 0.41481
 C272 C 0.11455 0.23477 0.42216
 C273 C 0.12973 0.28528 0.39689
 C274 C 0.18123 0.34742 0.40261
 C275 C 0.19786 0.39595 0.37901
 C276 C 0.16272 0.38333 0.34928
 C277 C 0.10908 0.32215 0.34421
 C278 C 0.09285 0.27334 0.36770
 C279 C 0.18222 0.43278 0.32314
 C280 C 0.24885 0.47553 0.31750
 H281 H 0.12860 0.25002 0.44726
 H282 H 0.20940 0.35817 0.42519
 H283 H 0.23812 0.44334 0.38411
 H284 H 0.08067 0.31168 0.32172
 H285 H 0.05111 0.22669 0.36303
 H286 H 0.14470 0.43156 0.30627
 H287 H 0.07453 0.15321 0.38961
 H288 H 0.28667 0.47203 0.33243
 C289 C 0.10169 0.88491 0.43932
 C290 C 0.09880 0.87776 0.40534
 C291 C 0.14090 0.85511 0.38713
 C292 C 0.11539 0.81739 0.35899
 C293 C 0.15440 0.79628 0.34092
 C294 C 0.22035 0.81384 0.35023
 C295 C 0.24672 0.85330 0.37777
 C296 C 0.20706 0.87314 0.39637
 C297 C 0.26181 0.79202 0.33085
 C298 C 0.23484 0.72898 0.31910
 H299 H 0.06310 0.88721 0.39165
 H300 H 0.06496 0.80380 0.35113
 H301 H 0.13334 0.76711 0.31930
 H302 H 0.29766 0.86803 0.38511
 H303 H 0.22859 0.90371 0.41749
 H304 H 0.31347 0.82533 0.32609
 H305 H 0.13299 0.87007 0.45340
 H306 H 0.18507 0.69502 0.32688
   
