data_POSCAR
  _audit_creation_date              2014-09-24
  _audit_creation_method            'ToBaCCo'
  _symmetry_space_group_name_H-M    'P1'
  _symmetry_Int_Tables_number       1
  _symmetry_cell_setting            triclinic
  loop_
  _symmetry_equiv_pos_as_xyz
 x,y,z
_cell_length_a 44.0826
_cell_length_b 44.0812
_cell_length_c 8.9011
_cell_angle_alpha 90.350900
_cell_angle_beta 89.995900
_cell_angle_gamma 90.071200
loop_
  _atom_site_label
  _atom_site_type_symbol
  _atom_site_fract_x
  _atom_site_fract_y
  _atom_site_fract_z
O1 O 0.22576 0.27869 0.09624
 O2 O 0.28353 0.21980 0.15847
 O3 O 0.22576 0.21959 0.09691
 O4 O 0.28351 0.27885 0.15787
 O5 O 0.27310 0.27924 0.40092
 O6 O 0.21535 0.21998 0.33992
 O7 O 0.27312 0.22017 0.40152
 O8 O 0.21535 0.27906 0.33929
 Cu9 Cu 0.25571 0.24919 0.10299
 Cu10 Cu 0.24315 0.24965 0.39478
 C11 C 0.21080 0.28882 0.20746
 C12 C 0.28810 0.21006 0.29032
 C13 C 0.21079 0.20978 0.20829
 C14 C 0.28806 0.28904 0.28953
 O15 O 0.77339 0.21967 0.09817
 O16 O 0.71560 0.27875 0.15904
 O17 O 0.77335 0.27875 0.09738
 O18 O 0.71563 0.21969 0.15982
 O19 O 0.72603 0.22011 0.40283
 O20 O 0.78376 0.27918 0.34042
 O21 O 0.72601 0.27920 0.40208
 O22 O 0.78380 0.22011 0.34121
 Cu23 Cu 0.74342 0.24916 0.10423
 Cu24 Cu 0.75598 0.24969 0.39601
 C25 C 0.78837 0.20993 0.20958
 C26 C 0.71105 0.28894 0.29066
 C27 C 0.78831 0.28893 0.20856
 C28 C 0.71106 0.20993 0.29168
 O29 O 0.78455 0.72087 0.66077
 O30 O 0.72701 0.77997 0.59821
 O31 O 0.78478 0.77993 0.65984
 O32 O 0.72680 0.72088 0.59915
 O33 O 0.71639 0.72136 0.84219
 O34 O 0.77437 0.78041 0.90285
 O35 O 0.71660 0.78043 0.84126
 O36 O 0.77414 0.72133 0.90382
 Cu37 Cu 0.75686 0.75037 0.60512
 Cu38 Cu 0.74430 0.75094 0.89691
 C39 C 0.78907 0.71113 0.79266
 C40 C 0.71207 0.79016 0.70936
 C41 C 0.78938 0.79013 0.79143
 C42 C 0.71181 0.71116 0.71059
 O43 O 0.28379 0.78041 0.84079
 O44 O 0.22607 0.72135 0.90336
 O45 O 0.28381 0.72135 0.84169
 O46 O 0.22602 0.78044 0.90238
 O47 O 0.21562 0.77996 0.65937
 O48 O 0.27341 0.72088 0.59865
 O49 O 0.21566 0.72090 0.66032
 O50 O 0.27338 0.77996 0.59775
 Cu51 Cu 0.25599 0.75094 0.89644
 Cu52 Cu 0.24344 0.75038 0.60465
 C53 C 0.28835 0.79014 0.70889
 C54 C 0.21111 0.71115 0.79220
 C55 C 0.28837 0.71115 0.71009
 C56 C 0.21104 0.79017 0.79097
 O57 O 0.97091 -0.02423 -0.15283
 O58 O 1.02997 0.03365 -0.09044
 O59 O 1.03000 -0.02415 -0.15293
 O60 O 0.97091 0.03355 -0.09032
 O61 O 0.97092 0.02331 0.15258
 O62 O 1.03001 -0.03440 0.08997
 O63 O 1.03001 0.02341 0.15245
 O64 O 0.97094 -0.03448 0.09006
 Cu65 Cu 1.00045 0.00576 -0.14598
 Cu66 Cu 1.00047 -0.00660 0.14561
 C67 C 0.96095 -0.03913 -0.04172
 C68 C 1.03995 0.03832 0.04135
 C69 C 1.03997 -0.03903 -0.04186
 C70 C 0.96094 0.03818 0.04150
 O71 O 0.47027 0.47642 0.34765
 O72 O 0.52943 0.53420 0.41037
 O73 O 0.52935 0.47640 0.34778
 O74 O 0.47037 0.53421 0.41032
 O75 O 0.47032 0.52394 0.65319
 O76 O 0.52931 0.46613 0.59065
 O77 O 0.52941 0.52393 0.65325
 O78 O 0.47025 0.46615 0.59052
 Cu79 Cu 0.49986 0.50637 0.35468
 Cu80 Cu 0.49982 0.49398 0.64625
 C81 C 0.46029 0.46152 0.45868
 C82 C 0.53940 0.53883 0.54221
 C83 C 0.53928 0.46149 0.45884
 C84 C 0.46040 0.53885 0.54212
 O85 O -0.02961 0.53404 0.09179
 O86 O 0.02937 0.47627 0.15204
 O87 O 0.02944 0.53402 0.09160
 O88 O -0.02971 0.47630 0.15227
 O89 O -0.02975 0.46578 -0.09098
 O90 O 0.02940 0.52350 -0.15164
 O91 O 0.02931 0.46576 -0.09120
 O92 O -0.02967 0.52352 -0.15146
 Cu93 Cu -0.00012 0.50624 0.14633
 Cu94 Cu -0.00018 0.49356 -0.14573
 C95 C -0.03958 0.53855 -0.03985
 C96 C 0.03928 0.46125 0.04043
 C97 C 0.03939 0.53853 -0.04010
 C98 C -0.03970 0.46128 0.04072
 O99 O 0.47092 1.03460 0.59049
 O100 O 0.53001 0.97699 0.65165
 O101 O 0.52999 1.03470 0.59053
 O102 O 0.47092 0.97691 0.65159
 O103 O 0.47095 0.96627 0.40847
 O104 O 0.53001 1.02407 0.34740
 O105 O 0.53002 0.96636 0.40852
 O106 O 0.47092 1.02397 0.34737
 Cu107 Cu 0.50046 1.00690 0.64547
 Cu108 Cu 0.50048 0.99407 0.35354
 C109 C 0.46094 1.03901 0.45878
 C110 C 0.53998 0.96194 0.54025
 C111 C 0.53996 1.03915 0.45882
 C112 C 0.46096 0.96183 0.54017
 C113 C 1.12315 0.11853 -0.02168
 C114 C 1.11792 0.14974 0.05492
 C115 C 1.14723 0.14527 0.14548
 C116 C 1.15282 0.11442 0.06923
 C117 C 1.10545 0.10332 0.10614
 C118 C 1.13475 0.09884 0.19671
 C119 C 1.09986 0.13417 0.18238
 C120 C 1.12953 0.13006 0.27330
 C121 C 1.17043 0.16868 0.16763
 C122 C 1.18945 0.18800 0.18639
 C123 C 1.08212 0.08003 0.08389
 C124 C 1.06289 0.06094 0.06494
 H125 H 1.12027 0.11353 -0.14324
 H126 H 1.11126 0.17093 -0.00317
 H127 H 1.17485 0.10656 0.02292
 H128 H 1.14141 0.07765 0.25479
 H129 H 1.07783 0.14204 0.22870
 H130 H 1.13241 0.13506 0.39486
 C131 C 0.62350 0.61811 0.47995
 C132 C 0.61809 0.64975 0.55176
 C133 C 0.64686 0.64557 0.64676
 C134 C 0.65263 0.61429 0.57530
 C135 C 0.60500 0.60371 0.60732
 C136 C 0.63377 0.59952 0.70232
 C137 C 0.59923 0.63498 0.67878
 C138 C 0.62836 0.63116 0.77413
 C139 C 0.67011 0.66894 0.66890
 C140 C 0.68918 0.68820 0.68757
 C141 C 0.58164 0.58046 0.58498
 C142 C 0.56237 0.56141 0.56593
 H143 H 0.62124 0.61249 0.35873
 H144 H 0.61190 0.67066 0.49007
 H145 H 0.67485 0.60605 0.53297
 H146 H 0.63996 0.57861 0.76401
 H147 H 0.57702 0.64323 0.72111
 H148 H 0.63062 0.63679 0.89536
 C149 C -0.10428 0.37227 0.22817
 C150 C -0.13818 0.37855 0.26186
 C151 C -0.14696 0.35454 0.14375
 C152 C -0.11342 0.34791 0.11041
 C153 C -0.10521 0.39641 0.10450
 C154 C -0.11399 0.37240 -0.01361
 C155 C -0.13876 0.40305 0.13784
 C156 C -0.14790 0.37868 0.02007
 C157 C -0.17015 0.33116 0.16600
 C158 C -0.18916 0.31190 0.18496
 C159 C -0.08190 0.41967 0.08242
 C160 C -0.06266 0.43872 0.06376
 H161 H -0.08609 0.36990 0.31352
 H162 H -0.14839 0.38081 0.37539
 H163 H -0.10326 0.32497 0.09934
 H164 H -0.10379 0.37014 -0.12714
 H165 H -0.14891 0.42599 0.14890
 H166 H -0.16609 0.38104 -0.06527
 C167 C 0.39604 0.87311 0.72838
 C168 C 0.36215 0.87955 0.76159
 C169 C 0.35331 0.85550 0.64378
 C170 C 0.38685 0.84870 0.61093
 C171 C 0.39527 0.89716 0.60430
 C172 C 0.38644 0.87311 0.48649
 C173 C 0.36174 0.90397 0.63715
 C174 C 0.35254 0.87955 0.51969
 C175 C 0.33002 0.83223 0.66615
 C176 C 0.31095 0.81304 0.68520
 C177 C 0.41868 0.92031 0.58208
 C178 C 0.43798 0.93930 0.56332
 H179 H 0.41418 0.87071 0.81397
 H180 H 0.35190 0.88194 0.87497
 H181 H 0.39691 0.82571 0.60036
 H182 H 0.39668 0.87072 0.37311
 H183 H 0.35168 0.92696 0.64772
 H184 H 0.33440 0.88194 0.43410
 C185 C -0.10115 0.63112 -0.20624
 C186 C -0.13347 0.62536 -0.26866
 C187 C -0.14645 0.64545 -0.14252
 C188 C -0.11449 0.65156 -0.08046
 C189 C -0.10485 0.60351 -0.10333
 C190 C -0.11783 0.62359 0.02281
 C191 C -0.13681 0.59738 -0.16539
 C192 C -0.15016 0.61784 -0.03960
 C193 C -0.16955 0.66885 -0.16475
 C194 C -0.18848 0.68814 -0.18371
 C195 C -0.08163 0.58022 -0.08132
 C196 C -0.06246 0.56115 -0.06275
 H197 H -0.08075 0.63632 -0.27455
 H198 H -0.14015 0.62635 -0.38877
 H199 H -0.10556 0.67410 -0.04576
 H200 H -0.11115 0.62261 0.14292
 H201 H -0.14573 0.57485 -0.20010
 H202 H -0.17056 0.61264 0.02870
 C203 C 0.39855 1.13100 0.29119
 C204 C 0.36626 1.12489 0.22926
 C205 C 0.35315 1.14494 0.35519
 C206 C 0.38508 1.15141 0.41677
 C207 C 0.39517 1.10344 0.39464
 C208 C 0.38206 1.12349 0.52058
 C209 C 0.36324 1.09696 0.33307
 C210 C 0.34976 1.11737 0.45866
 C211 C 0.32982 1.16811 0.33288
 C212 C 0.31072 1.18723 0.31390
 C213 C 0.41861 1.08038 0.41684
 C214 C 0.43793 1.06146 0.43560
 H215 H 0.41887 1.13635 0.22255
 H216 H 0.35951 1.12572 0.10921
 H217 H 0.39380 1.17406 0.45097
 H218 H 0.38881 1.12265 0.64063
 H219 H 0.35452 1.07431 0.29887
 H220 H 0.32944 1.11203 0.52729
 C221 C 1.12151 -0.12071 0.02110
 C222 C 1.11698 -0.15087 -0.06629
 C223 C 1.14739 -0.14556 -0.14629
 C224 C 1.15228 -0.11575 -0.05926
 C225 C 1.10555 -0.10378 -0.10687
 C226 C 1.13596 -0.09846 -0.18688
 C227 C 1.10067 -0.13359 -0.19390
 C228 C 1.13143 -0.12863 -0.27427
 C229 C 1.17063 -0.16888 -0.16847
 C230 C 1.18968 -0.18812 -0.18720
 C231 C 1.08219 -0.08058 -0.08455
 C232 C 1.06294 -0.06157 -0.06553
 H233 H 1.11717 -0.11719 0.14282
 H234 H 1.10944 -0.17268 -0.01692
 H235 H 1.17376 -0.10867 -0.00410
 H236 H 1.14349 -0.07665 -0.23625
 H237 H 1.07919 -0.14067 -0.24906
 H238 H 1.13578 -0.13215 -0.39598
 C239 C 0.61184 0.38124 0.24245
 C240 C 0.64614 0.38541 0.27475
 C241 C 0.64634 0.35460 0.35458
 C242 C 0.61241 0.35008 0.32192
 C243 C 0.60464 0.39653 0.39385
 C244 C 0.60485 0.36572 0.47367
 C245 C 0.63857 0.40106 0.42651
 C246 C 0.63914 0.36989 0.50598
 C247 C 0.66951 0.33121 0.33245
 C248 C 0.68851 0.31192 0.31375
 C249 C 0.58137 0.41981 0.41615
 C250 C 0.56217 0.43888 0.43517
 H251 H 0.60036 0.38617 0.13433
 H252 H 0.66338 0.39324 0.19271
 H253 H 0.60190 0.32885 0.27872
 H254 H 0.58761 0.35789 0.55570
 H255 H 0.64907 0.42228 0.46973
 H256 H 0.65062 0.36496 0.61410
 C257 C 0.86616 -0.09943 -0.19876
 C258 C 0.87133 -0.13084 -0.27354
 C259 C 0.85326 -0.14566 -0.14586
 C260 C 0.84773 -0.11462 -0.07143
 C261 C 0.89525 -0.10392 -0.10650
 C262 C 0.87718 -0.11875 0.02118
 C263 C 0.90078 -0.13497 -0.18092
 C264 C 0.88235 -0.15015 -0.05360
 C265 C 0.82994 -0.16896 -0.16801
 C266 C 0.81083 -0.18818 -0.18674
 C267 C 0.91867 -0.08073 -0.08424
 C268 C 0.93797 -0.06171 -0.06529
 H269 H 0.85977 -0.07832 -0.25824
 H270 H 0.86866 -0.13606 -0.39499
 H271 H 0.82566 -0.10653 -0.02663
 H272 H 0.87984 -0.11353 0.14263
 H273 H 0.92285 -0.14307 -0.22573
 H274 H 0.88874 -0.17126 0.00588
 C275 C 0.36542 0.40116 0.30279
 C276 C 0.37061 0.36995 0.22604
 C277 C 0.35288 0.35474 0.35375
 C278 C 0.34732 0.38558 0.43015
 C279 C 0.39471 0.39663 0.39340
 C280 C 0.37698 0.38141 0.52110
 C281 C 0.40026 0.36579 0.31700
 C282 C 0.38218 0.35021 0.44435
 C283 C 0.32966 0.33135 0.33147
 C284 C 0.31063 0.31205 0.31269
 C285 C 0.41805 0.41989 0.41584
 C286 C 0.43731 0.43894 0.43494
 H287 H 0.35879 0.42237 0.24481
 H288 H 0.36774 0.36498 0.10445
 H289 H 0.32529 0.39345 0.47645
 H290 H 0.37985 0.38638 0.64269
 H291 H 0.42229 0.35791 0.27070
 H292 H 0.38881 0.32900 0.50233
 C293 C 0.13794 0.60068 -0.05224
 C294 C 0.14840 0.61302 -0.20645
 C295 C 0.14648 0.64545 -0.14298
 C296 C 0.13638 0.63348 0.01087
 C297 C 0.10481 0.60349 -0.10385
 C298 C 0.10289 0.63592 -0.04040
 C299 C 0.11491 0.61546 -0.25771
 C300 C 0.11335 0.64825 -0.19459
 C301 C 0.16963 0.66887 -0.16520
 C302 C 0.18860 0.68816 -0.18417
 C303 C 0.08153 0.58020 -0.08180
 C304 C 0.06232 0.56112 -0.06315
 H305 H 0.14779 0.58086 0.00651
 H306 H 0.16738 0.60386 -0.27496
 H307 H 0.14547 0.64115 0.12107
 H308 H 0.08392 0.64508 0.02811
 H309 H 0.10582 0.60779 -0.36790
 H310 H 0.10350 0.66807 -0.25334
 C311 C 0.63870 1.10094 0.44593
 C312 C 0.64914 1.11327 0.29169
 C313 C 0.64742 1.14569 0.35544
 C314 C 0.63733 1.13373 0.50932
 C315 C 0.60555 1.10393 0.39474
 C316 C 0.60383 1.13635 0.45848
 C317 C 0.61564 1.11590 0.24086
 C318 C 0.61428 1.14867 0.30426
 C319 C 0.67066 1.16901 0.33311
 C320 C 0.68971 1.18824 0.31405
 C321 C 0.58219 1.08073 0.41690
 C322 C 0.56293 1.06171 0.43565
 H323 H 0.64848 1.08105 0.50441
 H324 H 0.66804 1.10404 0.22289
 H325 H 0.64651 1.14132 0.61946
 H326 H 0.58494 1.14558 0.52728
 H327 H 0.60646 1.10831 0.13072
 H328 H 0.60449 1.16857 0.24578
 C329 C 0.09919 0.36616 0.18550
 C330 C 0.11628 0.34938 0.05771
 C331 C 0.14619 0.35439 0.14296
 C332 C 0.12945 0.37082 0.27109
 C333 C 0.10457 0.39630 0.10385
 C334 C 0.13448 0.40132 0.18909
 C335 C 0.12130 0.37987 -0.02430
 C336 C 0.15157 0.38453 0.06130
 C337 C 0.16932 0.33101 0.16510
 C338 C 0.18829 0.31175 0.18397
 C339 C 0.08133 0.41958 0.08187
 C340 C 0.06216 0.43865 0.06332
 H341 H 0.07739 0.35888 0.23636
 H342 H 0.10906 0.32776 0.00391
 H343 H 0.13306 0.36684 0.39282
 H344 H 0.14169 0.42294 0.24290
 H345 H 0.11770 0.38385 -0.14602
 H346 H 0.17337 0.39181 0.01045
 C347 C 0.60024 0.86710 0.68577
 C348 C 0.61755 0.85046 0.55821
 C349 C 0.64735 0.85560 0.64420
 C350 C 0.63040 0.87188 0.77212
 C351 C 0.60554 0.89730 0.60457
 C352 C 0.63534 0.90244 0.69057
 C353 C 0.62248 0.88102 0.47665
 C354 C 0.65265 0.88580 0.56299
 C355 C 0.67056 0.83231 0.66661
 C356 C 0.68956 0.81309 0.68567
 C357 C 0.58219 0.92046 0.58229
 C358 C 0.56294 0.93944 0.56347
 H359 H 0.57844 0.85967 0.73604
 H360 H 0.61049 0.82883 0.50400
 H361 H 0.63392 0.86786 0.89388
 H362 H 0.64239 0.92407 0.74477
 H363 H 0.61897 0.88503 0.35488
 H364 H 0.67445 0.89322 0.51273
 C365 C 0.86376 0.10205 0.03270
 C366 C 0.84943 0.11089 0.18576
 C367 C 0.85333 0.14452 0.14564
 C368 C 0.86729 0.13604 -0.00706
 C369 C 0.89526 0.10283 0.10642
 C370 C 0.89916 0.13646 0.06630
 C371 C 0.88130 0.11131 0.25912
 C372 C 0.88484 0.14530 0.21934
 C373 C 0.83005 0.16780 0.16775
 C374 C 0.81097 0.18701 0.18646
 C375 C 0.91867 0.07967 0.08415
 C376 C 0.93795 0.06069 0.06516
 H377 H 0.85535 0.08401 -0.04429
 H378 H 0.82871 0.10064 0.23509
 H379 H 0.86127 0.14647 -0.11628
 H380 H 0.91987 0.14672 0.01697
 H381 H 0.88732 0.10088 0.36833
 H382 H 0.89325 0.16334 0.29632
 C383 C 0.36350 0.60315 0.53266
 C384 C 0.34908 0.61192 0.68560
 C385 C 0.35317 0.64557 0.64628
 C386 C 0.36722 0.63716 0.49370
 C387 C 0.39494 0.60372 0.60706
 C388 C 0.39903 0.63737 0.56775
 C389 C 0.38089 0.61213 0.75964
 C390 C 0.38461 0.64614 0.72067
 C391 C 0.32996 0.66893 0.66838
 C392 C 0.31094 0.68819 0.68704
 C393 C 0.41826 0.58048 0.58478
 C394 C 0.43748 0.56143 0.56577
 H395 H 0.35508 0.58521 0.45511
 H396 H 0.32827 0.60172 0.73427
 H397 H 0.36135 0.64771 0.38459
 H398 H 0.41983 0.64758 0.51908
 H399 H 0.38677 0.60158 0.86875
 H400 H 0.39304 0.66408 0.79821
   
