data_POSCAR
  _audit_creation_date              2014-09-24
  _audit_creation_method            'ToBaCCo'
  _symmetry_space_group_name_H-M    'P1'
  _symmetry_Int_Tables_number       1
  _symmetry_cell_setting            triclinic
  loop_
  _symmetry_equiv_pos_as_xyz
 x,y,z
_cell_length_a 29.1976
_cell_length_b 28.2666
_cell_length_c 27.3453
_cell_angle_alpha 91.718100
_cell_angle_beta 90.898900
_cell_angle_gamma 92.087000
loop_
  _atom_site_label
  _atom_site_type_symbol
  _atom_site_fract_x
  _atom_site_fract_y
  _atom_site_fract_z
C1 C 0.24172 0.26331 0.30843
 C2 C 0.27226 0.29431 0.27647
 C3 C 0.29689 0.26932 0.24325
 C4 C 0.28880 0.21541 0.24542
 C5 C 0.21218 0.23249 0.27246
 C6 C 0.23657 0.20747 0.23911
 C7 C 0.27417 0.22901 0.33184
 C8 C 0.29928 0.20404 0.29903
 H9 H 0.27528 0.33244 0.28143
 H10 H 0.30894 0.19499 0.21846
 H11 H 0.17518 0.23342 0.27186
 H12 H 0.27560 0.22419 0.37091
 C13 C 0.74597 0.77874 0.27754
 C14 C 0.77143 0.80646 0.23845
 C15 C 0.79244 0.77850 0.20463
 C16 C 0.78594 0.72521 0.21334
 C17 C 0.71290 0.74412 0.24911
 C18 C 0.73380 0.71619 0.21518
 C19 C 0.78193 0.74713 0.29947
 C20 C 0.80299 0.71908 0.26600
 H21 H 0.77447 0.84474 0.23959
 H22 H 0.80308 0.70233 0.18597
 H23 H 0.67677 0.74072 0.25709
 H24 H 0.78742 0.74484 0.33855
 C25 C 0.71383 0.30558 0.78157
 C26 C 0.74631 0.32471 0.74699
 C27 C 0.77741 0.29105 0.72804
 C28 C 0.77056 0.24424 0.74803
 C29 C 0.69004 0.26284 0.75441
 C30 C 0.71987 0.23060 0.73659
 C31 C 0.74333 0.28400 0.82148
 C32 C 0.77320 0.25177 0.80428
 H33 H 0.74760 0.36173 0.73804
 H34 H 0.79406 0.21770 0.73302
 H35 H 0.65353 0.26066 0.74673
 H36 H 0.74023 0.29299 0.86006
 C37 C 0.20217 0.77789 0.77065
 C38 C 0.22815 0.81332 0.73907
 C39 C 0.26098 0.79390 0.71093
 C40 C 0.26432 0.73996 0.71630
 C41 C 0.18318 0.73971 0.73430
 C42 C 0.21560 0.71961 0.70601
 C43 C 0.23930 0.75348 0.79985
 C44 C 0.27170 0.73302 0.77136
 H45 H 0.22116 0.85071 0.73918
 H46 H 0.29023 0.72292 0.69311
 H47 H 0.14699 0.73021 0.73065
 H48 H 0.23916 0.75240 0.83935
 C49 C 0.06132 0.08842 0.02929
 H50 H 0.06745 0.09641 -0.00855
 C51 C 0.08715 0.11210 0.06662
 H52 H 0.11246 0.13911 0.05726
 C53 C 0.02074 0.04338 0.08740
 H54 H -0.00442 0.01588 0.09545
 C55 C 0.04509 0.06676 0.12575
 H56 H 0.03793 0.05751 0.16310
 N57 N 0.02950 0.05412 0.04022
 C58 C 0.02860 -0.05306 -0.07819
 H59 H -0.00728 -0.05658 -0.08865
 C60 C 0.06052 -0.08086 -0.10217
 H61 H 0.04857 -0.10457 -0.13178
 C62 C 0.08719 -0.01715 -0.02738
 H63 H 0.09774 0.00715 0.00214
 C64 C 0.12015 -0.04410 -0.05032
 H65 H 0.15566 -0.03967 -0.03844
 Zn66 Zn -0.00099 0.01794 -0.01084
 N67 N 0.04243 -0.02127 -0.04210
 C68 C -0.02706 0.05122 -0.10495
 N69 N -0.02778 0.05989 -0.05574
 C70 C -0.04897 0.09827 -0.03685
 C71 C -0.07261 0.12816 -0.06740
 C72 C -0.05023 0.08022 -0.13686
 C73 C -0.04356 -0.06759 0.02210
 C74 C -0.07626 -0.09437 0.04736
 C75 C -0.11834 -0.02339 0.06115
 C76 C -0.08495 0.00191 0.03580
 N77 N -0.04815 -0.02020 0.01728
 H78 H -0.00927 0.02140 -0.11974
 H79 H -0.04779 0.10560 0.00220
 H80 H -0.08892 0.15839 -0.05112
 H81 H -0.05008 0.07210 -0.17582
 H82 H -0.01376 -0.08448 0.00779
 H83 H -0.07114 -0.13174 0.05100
 H84 H -0.14679 -0.00471 0.07646
 H85 H -0.08780 0.03959 0.03230
 C86 C 0.10718 -0.07636 -0.08831
 C87 C 0.07942 0.10075 0.11556
 C88 C -0.11399 -0.07197 0.06810
 C89 C -0.07444 0.11855 -0.11819
 C90 C 0.07838 0.53067 0.52238
 H91 H 0.08787 0.52915 0.48429
 C92 C 0.10742 0.55399 0.55709
 H93 H 0.13939 0.56967 0.54497
 C94 C 0.02445 0.51209 0.58343
 H95 H -0.00828 0.49644 0.59339
 C96 C 0.05235 0.53495 0.61926
 H97 H 0.04074 0.53655 0.65669
 N98 N 0.03742 0.51124 0.53594
 C99 C 0.05771 0.41374 0.46541
 H100 H 0.05887 0.41026 0.50464
 C101 C 0.08593 0.38649 0.43606
 H102 H 0.10692 0.36088 0.45336
 C103 C 0.02973 0.45256 0.39607
 H104 H 0.00884 0.47913 0.38052
 C105 C 0.05738 0.42613 0.36538
 H106 H 0.05683 0.43225 0.32646
 Zn107 Zn -0.00334 0.48529 0.48742
 N108 N 0.03015 0.44585 0.44512
 C109 C -0.06096 0.52461 0.41693
 N110 N -0.02842 0.53523 0.45210
 C111 C -0.01534 0.58090 0.46378
 C112 C -0.03512 0.61800 0.43961
 C113 C -0.08146 0.56064 0.39163
 C114 C -0.04444 0.40918 0.53948
 C115 C -0.07832 0.38781 0.56794
 C116 C -0.12664 0.45332 0.55195
 C117 C -0.09196 0.47329 0.52394
 N118 N -0.05160 0.45138 0.51849
 H119 H -0.07156 0.48804 0.40920
 H120 H 0.00982 0.58879 0.49248
 H121 H -0.02482 0.65420 0.44986
 H122 H -0.10820 0.55121 0.36493
 H123 H -0.01196 0.39262 0.53556
 H124 H -0.07073 0.35488 0.58476
 H125 H -0.15801 0.47222 0.55650
 H126 H -0.09671 0.50743 0.50832
 C127 C 0.08643 0.39308 0.38526
 C128 C 0.09386 0.55734 0.60622
 C129 C -0.12001 0.41045 0.57528
 C130 C -0.06846 0.60814 0.40297
 C131 C 0.58478 0.04732 0.54286
 H132 H 0.59061 0.05289 0.50445
 C133 C 0.60632 0.07764 0.57825
 H134 H 0.62874 0.10627 0.56649
 C135 C 0.54490 0.00607 0.60423
 H136 H 0.51958 -0.02054 0.61425
 C137 C 0.56515 0.03593 0.64066
 H138 H 0.55579 0.03136 0.67846
 N139 N 0.55457 0.01248 0.55631
 C140 C 0.52954 -0.07781 0.42448
 H141 H 0.49248 -0.07945 0.42531
 C142 C 0.55216 -0.10114 0.38682
 H143 H 0.53231 -0.12091 0.35876
 C144 C 0.60028 -0.04986 0.46017
 H145 H 0.61883 -0.02982 0.48885
 C146 C 0.62440 -0.07304 0.42328
 H147 H 0.66142 -0.06967 0.42371
 Zn148 Zn 0.51833 -0.02073 0.50721
 N149 N 0.55367 -0.05223 0.45974
 C150 C 0.48331 0.03181 0.42800
 N151 N 0.48256 0.02500 0.47705
 C152 C 0.45698 0.05211 0.50716
 C153 C 0.42961 0.08671 0.48806
 C154 C 0.45621 0.06595 0.40726
 C155 C 0.49919 -0.10243 0.56049
 C156 C 0.47193 -0.13594 0.58433
 C157 C 0.40471 -0.09718 0.55550
 C158 C 0.43321 -0.06448 0.53225
 N159 N 0.47955 -0.06691 0.53614
 H160 H 0.50509 0.01113 0.40483
 H161 H 0.45770 0.04655 0.54613
 H162 H 0.40915 0.10770 0.51259
 H163 H 0.45780 0.07102 0.36828
 H164 H 0.53614 -0.10406 0.56225
 H165 H 0.48809 -0.16335 0.60456
 H166 H 0.36798 -0.09452 0.55153
 H167 H 0.41815 -0.03712 0.51122
 C168 C 0.60014 -0.09917 0.38594
 C169 C 0.59595 0.07249 0.62791
 C170 C 0.42410 -0.13283 0.58308
 C171 C 0.42845 0.09354 0.43750
 C172 C 0.51327 0.59707 0.03311
 H173 H 0.48813 0.61084 0.00866
 C174 C 0.54045 0.62893 0.06168
 H175 H 0.53505 0.66654 0.05944
 C176 C 0.55181 0.53228 0.06506
 H177 H 0.55654 0.49459 0.06578
 C178 C 0.58040 0.56317 0.09393
 H179 H 0.60597 0.54867 0.11770
 N180 N 0.51801 0.54951 0.03645
 C181 C 0.49712 0.41820 -0.03815
 H182 H 0.46836 0.40622 -0.01680
 C183 C 0.52294 0.38494 -0.06309
 H184 H 0.51367 0.34763 -0.06059
 C185 C 0.54453 0.48104 -0.06645
 H186 H 0.55323 0.51856 -0.06664
 C187 C 0.57142 0.44886 -0.09203
 H188 H 0.60079 0.46250 -0.11141
 Zn189 Zn 0.47576 0.50788 0.00028
 N190 N 0.50851 0.46521 -0.03974
 C191 C 0.43536 0.54652 -0.08667
 N192 N 0.43620 0.54570 -0.03691
 C193 C 0.40771 0.57259 -0.00980
 C194 C 0.37665 0.60140 -0.03230
 C195 C 0.40489 0.57557 -0.11089
 C196 C 0.45716 0.44898 0.08164
 C197 C 0.42927 0.42300 0.11310
 C198 C 0.36324 0.44386 0.06527
 C199 C 0.39234 0.46843 0.03422
 N200 N 0.43834 0.47184 0.04350
 H201 H 0.45814 0.52467 -0.10751
 H202 H 0.40909 0.57138 0.02970
 H203 H 0.35410 0.62216 -0.00985
 H204 H 0.40414 0.57530 -0.15046
 H205 H 0.49373 0.45081 0.08786
 H206 H 0.44470 0.40597 0.14388
 H207 H 0.32665 0.44244 0.05784
 H208 H 0.37790 0.48449 0.00247
 C209 C 0.56087 0.39986 -0.09021
 C210 C 0.57414 0.61223 0.09294
 C211 C 0.38159 0.42078 0.10517
 C212 C 0.37503 0.60346 -0.08333
 C213 C 0.16520 -0.20068 -0.19884
 C214 C 0.17360 -0.16398 -0.16771
 C215 C 0.13580 -0.14154 -0.14178
 C216 C 0.14359 -0.10262 -0.11345
 H217 H 0.20831 -0.14939 -0.16296
 H218 H 0.10150 -0.15690 -0.14665
 H219 H 0.13035 -0.21492 -0.20339
 H220 H 0.17868 -0.08926 -0.10813
 C221 C 0.21445 0.29090 0.34495
 C222 C 0.18108 0.31866 0.33059
 C223 C 0.15315 0.34378 0.36643
 C224 C 0.11636 0.36668 0.35176
 H225 H 0.17354 0.32173 0.29187
 H226 H 0.16316 0.34338 0.40465
 H227 H 0.22205 0.28790 0.38365
 H228 H 0.10841 0.36725 0.31289
 C229 C 0.72453 -0.19042 0.31622
 C230 C 0.68554 -0.16816 0.30897
 C231 C 0.66562 -0.14016 0.34914
 C232 C 0.62322 -0.12422 0.34534
 H233 H 0.66761 -0.17197 0.27398
 H234 H 0.68508 -0.13491 0.38302
 H235 H 0.74233 -0.18546 0.35122
 H236 H 0.60344 -0.13244 0.31206
 C237 C 0.68171 0.34250 -0.19943
 C238 C 0.64943 0.33327 -0.16656
 C239 C 0.62097 0.37151 -0.14718
 C240 C 0.58936 0.36302 -0.11332
 H241 H 0.64491 0.29773 -0.15316
 H242 H 0.62642 0.40674 -0.16085
 H243 H 0.68578 0.37838 -0.21215
 H244 H 0.58391 0.32689 -0.10180
 C245 C -0.19720 0.22623 -0.16166
 C246 C -0.16236 0.19978 -0.17572
 C247 C -0.13552 0.17432 -0.13930
 C248 C -0.10081 0.14729 -0.15272
 H249 H -0.15331 0.19665 -0.21383
 H250 H -0.14562 0.17663 -0.10143
 H251 H -0.20438 0.22968 -0.12295
 H252 H -0.09285 0.14409 -0.19126
 C253 C -0.16462 0.68246 0.27923
 C254 C -0.14044 0.68492 0.32119
 C255 C -0.11372 0.64507 0.33748
 C256 C -0.09141 0.64816 0.38061
 H257 H -0.14173 0.71607 0.34513
 H258 H -0.11386 0.61286 0.31503
 H259 H -0.16150 0.65229 0.25427
 H260 H -0.09037 0.68166 0.40110
 C261 C 0.33300 0.16876 0.31288
 C262 C 0.35167 0.16801 0.35784
 C263 C 0.38344 0.13141 0.37208
 C264 C 0.39877 0.13036 0.41843
 H265 H 0.34342 0.19470 0.38518
 H266 H 0.39251 0.10459 0.34525
 H267 H 0.34309 0.14323 0.28511
 H268 H 0.38710 0.15671 0.44461
 C269 C 0.30892 0.70381 -0.21007
 C270 C 0.30720 0.68323 -0.16671
 C271 C 0.34336 0.65219 -0.14975
 C272 C 0.34040 0.63366 -0.10544
 H273 H 0.27806 0.68823 -0.14337
 H274 H 0.37238 0.64555 -0.17282
 H275 H 0.33723 0.69687 -0.23408
 H276 H 0.31168 0.64290 -0.08278
 C277 C -0.17758 -0.20333 0.16573
 C278 C -0.17940 -0.15924 0.14948
 C279 C -0.14605 -0.14089 0.11409
 C280 C -0.14851 -0.09643 0.09885
 H281 H -0.20512 -0.13580 0.16311
 H282 H -0.11867 -0.16324 0.10275
 H283 H -0.15305 -0.22715 0.15020
 H284 H -0.17660 -0.07559 0.11182
 C285 C -0.18934 0.30081 0.69281
 C286 C -0.18768 0.34254 0.66663
 C287 C -0.15334 0.35222 0.63314
 C288 C -0.15448 0.39365 0.60640
 H289 H -0.21399 0.36812 0.67145
 H290 H -0.12611 0.32762 0.62883
 H291 H -0.16495 0.27389 0.68421
 H292 H -0.18413 0.41535 0.61106
 C293 C 0.28891 -0.17634 0.67841
 C294 C 0.32796 -0.18973 0.65824
 C295 C 0.35440 -0.15654 0.62803
 C296 C 0.39566 -0.16687 0.61090
 H297 H 0.34133 -0.22416 0.66501
 H298 H 0.34042 -0.12229 0.62157
 H299 H 0.27751 -0.14086 0.67225
 H300 H 0.41028 -0.20023 0.62015
 C301 C 0.33004 0.29121 0.20966
 C302 C 0.32605 0.33533 0.19427
 C303 C 0.35964 0.35703 0.16136
 C304 C 0.34991 0.39679 0.13876
 H305 H 0.29696 0.35567 0.20516
 H306 H 0.39178 0.34006 0.15492
 H307 H 0.35747 0.26988 0.19606
 H308 H 0.31630 0.41132 0.14322
 C309 C 0.21519 0.17938 0.19761
 C310 C 0.17122 0.16412 0.19755
 C311 C 0.14868 0.14057 0.15435
 C312 C 0.10514 0.12444 0.15693
 H313 H 0.15082 0.16940 0.22983
 H314 H 0.16757 0.13650 0.12079
 H315 H 0.23604 0.17181 0.16610
 H316 H 0.08792 0.12688 0.19174
 C317 C 0.20470 0.68193 0.66877
 C318 C 0.17087 0.64977 0.67539
 C319 C 0.15458 0.61640 0.63613
 C320 C 0.11967 0.58587 0.64454
 H321 H 0.15318 0.64951 0.70997
 H322 H 0.16879 0.61983 0.60011
 H323 H 0.22451 0.68089 0.63562
 H324 H 0.10662 0.58455 0.68144
 C325 C 0.70663 0.19019 0.70307
 C326 C 0.66467 0.16957 0.70132
 C327 C 0.65221 0.13238 0.66397
 C328 C 0.61266 0.10723 0.66641
 H329 H 0.63902 0.18054 0.72708
 H330 H 0.67534 0.12605 0.63409
 H331 H 0.73263 0.17710 0.67881
 H332 H 0.59138 0.11221 0.69818
 C333 C 0.71002 0.67868 0.18439
 C334 C 0.66519 0.67880 0.17372
 C335 C 0.64248 0.64139 0.14226
 C336 C 0.59988 0.64702 0.12534
 H337 H 0.64490 0.70764 0.18708
 H338 H 0.66096 0.61016 0.13202
 H339 H 0.73052 0.65115 0.16852
 H340 H 0.58343 0.67997 0.13403
   
