data_POSCAR
  _audit_creation_date              2014-09-24
  _audit_creation_method            'ToBaCCo'
  _symmetry_space_group_name_H-M    'P1'
  _symmetry_Int_Tables_number       1
  _symmetry_cell_setting            triclinic
  loop_
  _symmetry_equiv_pos_as_xyz
 x,y,z
_cell_length_a 55.0844
_cell_length_b 31.1041
_cell_length_c 18.2696
_cell_angle_alpha 89.990700
_cell_angle_beta 90.002700
_cell_angle_gamma 90.010100
loop_
  _atom_site_label
  _atom_site_type_symbol
  _atom_site_fract_x
  _atom_site_fract_y
  _atom_site_fract_z
C1 C 0.72925 0.26412 0.53995
 C2 C 0.73146 0.27041 0.46319
 C3 C 0.75207 0.25516 0.42640
 C4 C 0.77049 0.23209 0.46266
 C5 C 0.76866 0.22635 0.54012
 C6 C 0.74765 0.24110 0.57636
 H7 H 0.74689 0.23878 0.63550
 H8 H 0.75257 0.25816 0.36729
 C9 C 0.23042 0.76699 0.53825
 C10 C 0.23148 0.77065 0.46120
 C11 C 0.25181 0.75482 0.42392
 C12 C 0.27100 0.73485 0.46119
 C13 C 0.27023 0.73129 0.53896
 C14 C 0.24951 0.74682 0.57581
 H15 H 0.24875 0.74585 0.63508
 H16 H 0.25220 0.75637 0.36462
 C17 C 0.26767 0.27263 -0.53801
 C18 C 0.26928 0.26722 -0.46153
 C19 C 0.25064 0.24590 -0.42422
 C20 C 0.22969 0.23087 -0.46057
 C21 C 0.22820 0.23578 -0.53850
 C22 C 0.24710 0.25767 -0.57510
 H23 H 0.24686 0.26031 -0.63427
 H24 H 0.25178 0.24413 -0.36506
 C25 C -0.23099 0.76840 -0.53959
 C26 C -0.23240 0.77318 -0.46297
 C27 C -0.25257 0.75685 -0.42554
 C28 C -0.27158 0.73531 -0.46219
 C29 C -0.27049 0.73167 -0.54037
 C30 C -0.24984 0.74774 -0.57699
 H31 H -0.24876 0.74614 -0.63618
 H32 H -0.25273 0.75932 -0.36635
 O33 O -0.03342 0.92395 0.13305
 O34 O -0.06040 0.96296 0.06441
 C35 C -0.05534 0.93506 0.11492
 O36 O 0.03438 1.07696 0.12904
 O37 O 0.06090 1.03670 0.06081
 C38 C 0.05619 1.06586 0.10949
 O39 O -0.03380 1.07312 0.13726
 O40 O -0.06052 1.03514 0.06613
 C41 C -0.05567 1.06216 0.11810
 O42 O 0.03454 0.92077 0.12485
 O43 O 0.06095 0.96288 0.05961
 C44 C 0.05632 0.93270 0.10654
 Zr45 Zr 0.00034 0.94459 0.09029
 O46 O 0.00324 0.94192 0.20572
 O47 O -0.00228 0.87673 0.08512
 Zr48 Zr 0.00015 1.05337 0.09387
 O49 O 0.00309 1.05274 0.20941
 O50 O -0.00262 1.12127 0.09439
 O51 O -0.02136 0.99870 0.10702
 O52 O 0.02127 0.99895 0.10525
 O53 O 0.03392 0.92335 -0.13099
 O54 O 0.06064 0.96427 -0.06468
 C55 C 0.05578 0.93482 -0.11274
 O56 O -0.03433 1.07595 -0.13131
 O57 O -0.06081 1.03650 -0.06167
 C58 C -0.05611 1.06456 -0.11219
 O59 O 0.03379 1.07993 -0.12537
 O60 O 0.06064 1.03816 -0.06102
 C61 C 0.05570 1.06845 -0.10749
 O62 O -0.03415 0.92727 -0.13717
 O63 O -0.06068 0.96457 -0.06444
 C64 C -0.05596 0.93811 -0.11734
 Zr65 Zr -0.00011 0.94671 -0.09413
 O66 O 0.00241 0.94693 -0.20973
 O67 O -0.00286 0.87880 -0.09383
 Zr68 Zr -0.00024 1.05543 -0.09045
 O69 O 0.00224 1.05748 -0.20604
 O70 O -0.00306 1.12329 -0.08645
 Zr71 Zr -0.03629 0.99982 0.00069
 Zr72 Zr 0.03615 1.00015 -0.00081
 O73 O 0.02081 1.00133 -0.10628
 O74 O -0.02185 1.00116 -0.10626
 O75 O 0.02189 0.93728 -0.00263
 O76 O -0.02126 1.06206 0.00237
 O77 O -0.02112 0.93774 -0.00173
 O78 O 0.02168 1.06289 0.00155
 H79 H 0.03222 0.99861 0.14827
 H80 H -0.03229 1.08723 0.00336
 H81 H 0.03160 1.00195 -0.14966
 H82 H -0.03218 0.91260 -0.00242
 H83 H 0.01143 1.13279 0.06696
 H84 H 0.01107 1.13421 -0.05867
 H85 H -0.01099 1.03941 -0.22584
 H86 H -0.01030 0.96654 -0.22834
 H87 H 0.01145 0.86739 -0.06747
 H88 H 0.01218 0.86600 0.05871
 H89 H -0.00923 0.96141 0.22606
 H90 H -0.01011 1.03434 0.22847
 O91 O 0.46607 0.42575 0.13534
 O92 O 0.43955 0.46351 0.06323
 C93 C 0.44426 0.43667 0.11559
 O94 O 0.53421 0.57848 0.12480
 O95 O 0.56109 0.53678 0.06037
 C96 C 0.55612 0.56703 0.10692
 O97 O 0.46611 0.57459 0.13141
 O98 O 0.43956 0.53552 0.06143
 C99 C 0.44430 0.56330 0.11233
 O100 O 0.53406 0.42161 0.12976
 O101 O 0.56076 0.46228 0.06310
 C102 C 0.55592 0.43285 0.11116
 Zr103 Zr 0.50015 0.44553 0.09302
 O104 O 0.50269 0.44618 0.20864
 O105 O 0.49737 0.37762 0.09308
 Zr106 Zr 0.50014 0.55413 0.09002
 O107 O 0.50272 0.55587 0.20560
 O108 O 0.49736 0.62201 0.08667
 O109 O 0.47845 0.49995 0.10554
 O110 O 0.52120 0.49999 0.10539
 O111 O 0.53451 0.41946 -0.12603
 O112 O 0.56104 0.46120 -0.06067
 C113 C 0.55631 0.43104 -0.10754
 O114 O 0.46659 0.57253 -0.13748
 O115 O 0.43977 0.53456 -0.06665
 C116 C 0.44470 0.56171 -0.11842
 O117 O 0.53474 0.57603 -0.12957
 O118 O 0.56129 0.53562 -0.06161
 C119 C 0.55657 0.56484 -0.11020
 O120 O 0.46664 0.42320 -0.13383
 O121 O 0.43980 0.46232 -0.06497
 C122 C 0.44475 0.43440 -0.11548
 Zr123 Zr 0.50050 0.44386 -0.09152
 O124 O 0.50340 0.44227 -0.20704
 O125 O 0.49776 0.37598 -0.08785
 Zr126 Zr 0.50049 0.55249 -0.09438
 O127 O 0.50339 0.55201 -0.20993
 O128 O 0.49782 0.62041 -0.09472
 Zr129 Zr 0.46400 0.49898 -0.00140
 Zr130 Zr 0.53652 0.49908 -0.00011
 O131 O 0.52158 0.49809 -0.10611
 O132 O 0.47885 0.49804 -0.10781
 O133 O 0.52208 0.43630 0.00133
 O134 O 0.47911 0.56113 -0.00273
 O135 O 0.47912 0.43685 0.00058
 O136 O 0.52204 0.56182 -0.00203
 H137 H 0.53203 0.50043 0.14868
 H138 H 0.46811 0.58633 -0.00346
 H139 H 0.53254 0.49773 -0.14910
 H140 H 0.46810 0.41167 0.00109
 H141 H 0.51141 0.63298 0.05862
 H142 H 0.51184 0.63181 -0.06704
 H143 H 0.49015 0.53367 -0.22902
 H144 H 0.49033 0.46061 -0.22706
 H145 H 0.51183 0.36507 -0.05978
 H146 H 0.51142 0.36618 0.06562
 H147 H 0.48940 0.46454 0.22730
 H148 H 0.48961 0.53751 0.22534
 C149 C 0.32661 0.32758 0.33980
 C150 C 0.30312 0.34430 0.33241
 C151 C 0.28385 0.32615 0.37159
 C152 C 0.28794 0.29128 0.41889
 C153 C 0.31148 0.27425 0.42508
 C154 C 0.33071 0.29242 0.38598
 C155 C 0.34657 0.34653 0.30050
 C156 C 0.36345 0.36223 0.26809
 C157 C 0.38372 0.38083 0.22975
 C158 C 0.37978 0.41110 0.17438
 C159 C 0.39945 0.42921 0.13718
 C160 C 0.42342 0.41727 0.15492
 C161 C 0.42717 0.38682 0.21079
 C162 C 0.40745 0.36874 0.24787
 H163 H 0.29975 0.37146 0.29672
 H164 H 0.26583 0.33969 0.36596
 H165 H 0.31496 0.24696 0.46038
 H166 H 0.34878 0.27912 0.39189
 H167 H 0.36149 0.42072 0.15997
 H168 H 0.39586 0.45261 0.09464
 H169 H 0.44534 0.37691 0.22590
 H170 H 0.41070 0.34535 0.29071
 C171 C -0.17120 0.82061 0.33910
 C172 C -0.19497 0.83359 0.32347
 C173 C -0.21443 0.81606 0.36237
 C174 C -0.21029 0.78550 0.41756
 C175 C -0.18643 0.77202 0.43218
 C176 C -0.16697 0.78964 0.39327
 C177 C -0.15120 0.83956 0.30016
 C178 C -0.13453 0.85583 0.26763
 C179 C -0.11469 0.87552 0.22898
 C180 C -0.11924 0.90689 0.17583
 C181 C -0.09996 0.92626 0.13858
 C182 C -0.07582 0.91447 0.15412
 C183 C -0.07147 0.88287 0.20773
 C184 C -0.09079 0.86356 0.24484
 H185 H -0.19844 0.85753 0.28166
 H186 H -0.23269 0.82688 0.35040
 H187 H -0.18292 0.74816 0.47404
 H188 H -0.14864 0.77931 0.40567
 H189 H -0.13769 0.91643 0.16325
 H190 H -0.10398 0.95052 0.09781
 H191 H -0.05315 0.87302 0.22111
 H192 H -0.08708 0.83933 0.28598
 C193 C 0.67142 0.68334 0.33102
 C194 C 0.66659 0.71000 0.39089
 C195 C 0.68567 0.72644 0.43287
 C196 C 0.71001 0.71598 0.41632
 C197 C 0.71456 0.69010 0.35428
 C198 C 0.69543 0.67374 0.31248
 C199 C 0.65175 0.66503 0.28957
 C200 C 0.63528 0.64915 0.25555
 C201 C 0.61552 0.62969 0.21603
 C202 C 0.59161 0.64200 0.23096
 C203 C 0.57231 0.62204 0.19478
 C204 C 0.57666 0.58934 0.14310
 C205 C 0.60082 0.57757 0.12780
 C206 C 0.62010 0.59761 0.16412
 H207 H 0.64805 0.71804 0.40526
 H208 H 0.68134 0.74787 0.47769
 H209 H 0.73288 0.68084 0.33973
 H210 H 0.69937 0.65307 0.26624
 H211 H 0.58787 0.66675 0.27113
 H212 H 0.55398 0.63195 0.20791
 H213 H 0.60485 0.55257 0.08837
 H214 H 0.63855 0.58779 0.15224
 C215 C 0.17285 1.17797 0.33337
 C216 C 0.18291 1.15563 0.39243
 C217 C 0.20135 1.17433 0.43418
 C218 C 0.20987 1.21614 0.41826
 C219 C 0.20003 1.23764 0.35695
 C220 C 0.18158 1.21881 0.31535
 C221 C 0.15323 1.15931 0.29220
 C222 C 0.13658 1.14376 0.25854
 C223 C 0.11649 1.12516 0.21942
 C224 C 0.12060 1.09432 0.16509
 C225 C 0.10101 1.07540 0.12860
 C226 C 0.07700 1.08709 0.14612
 C227 C 0.07310 1.11849 0.20033
 C228 C 0.09272 1.13735 0.23668
 H229 H 0.17647 1.12374 0.40633
 H230 H 0.20919 1.15570 0.47832
 H231 H 0.20582 1.26987 0.34286
 H232 H 0.17390 1.23640 0.26968
 H233 H 0.13894 1.08464 0.15134
 H234 H 0.10471 1.05135 0.08721
 H235 H 0.05489 1.12827 0.21521
 H236 H 0.08935 1.16119 0.27870
 C237 C 0.67216 0.31802 -0.33361
 C238 C 0.68219 0.34127 -0.39165
 C239 C 0.70100 0.32368 -0.43327
 C240 C 0.71001 0.28209 -0.41821
 C241 C 0.69996 0.25941 -0.35843
 C242 C 0.68113 0.27714 -0.31693
 C243 C 0.65262 0.33615 -0.29144
 C244 C 0.63612 0.35158 -0.25697
 C245 C 0.61623 0.37029 -0.21707
 C246 C 0.62053 0.40238 -0.16496
 C247 C 0.60109 0.42171 -0.12837
 C248 C 0.57703 0.40921 -0.14359
 C249 C 0.57296 0.37648 -0.19538
 C250 C 0.59243 0.35722 -0.23183
 H251 H 0.67561 0.37323 -0.40442
 H252 H 0.70901 0.34345 -0.47558
 H253 H 0.70602 0.22723 -0.34509
 H254 H 0.67347 0.25882 -0.27209
 H255 H 0.63889 0.41279 -0.15320
 H256 H 0.60490 0.44679 -0.08889
 H257 H 0.55472 0.36602 -0.20846
 H258 H 0.58890 0.33244 -0.27212
 C259 C 0.17201 0.82177 -0.33731
 C260 C 0.18514 0.84734 -0.38639
 C261 C 0.20423 0.82959 -0.42665
 C262 C 0.21027 0.78595 -0.41864
 C263 C 0.19720 0.76057 -0.36870
 C264 C 0.17811 0.77838 -0.32839
 C265 C 0.15221 0.84010 -0.29652
 C266 C 0.13556 0.85574 -0.26297
 C267 C 0.11561 0.87473 -0.22375
 C268 C 0.11995 0.90614 -0.17050
 C269 C 0.10052 0.92542 -0.13382
 C270 C 0.07644 0.91355 -0.15005
 C271 C 0.07231 0.88163 -0.20327
 C272 C 0.09178 0.86241 -0.23983
 H273 H 0.18062 0.88098 -0.39353
 H274 H 0.21432 0.84989 -0.46399
 H275 H 0.20161 0.72689 -0.36163
 H276 H 0.16807 0.75833 -0.29051
 H277 H 0.13834 0.91594 -0.15770
 H278 H 0.10438 0.94984 -0.09321
 H279 H 0.05404 0.87168 -0.21714
 H280 H 0.08822 0.83816 -0.28103
 C281 C 0.32835 0.67746 -0.33903
 C282 C 0.33319 0.70438 -0.39849
 C283 C 0.31411 0.72273 -0.43800
 C284 C 0.28971 0.71398 -0.41951
 C285 C 0.28518 0.68793 -0.35764
 C286 C 0.30433 0.66961 -0.31824
 C287 C 0.34808 0.65760 -0.29998
 C288 C 0.36476 0.64089 -0.26806
 C289 C 0.38479 0.62093 -0.23058
 C290 C 0.40865 0.63214 -0.24869
 C291 C 0.42816 0.61280 -0.21248
 C292 C 0.42406 0.58192 -0.15750
 C293 C 0.39996 0.57078 -0.13988
 C294 C 0.38049 0.59018 -0.17622
 H295 H 0.35174 0.71128 -0.41433
 H296 H 0.31858 0.74466 -0.48195
 H297 H 0.26680 0.68000 -0.34145
 H298 H 0.30038 0.64886 -0.27211
 H299 H 0.41217 0.65587 -0.29080
 H300 H 0.44643 0.62215 -0.22746
 H301 H 0.39611 0.54711 -0.09798
 H302 H 0.36209 0.58119 -0.16187
 C303 C -0.17320 1.17719 -0.33279
 C304 C -0.16851 1.20558 -0.39036
 C305 C -0.18765 1.22237 -0.43150
 C306 C -0.21190 1.21054 -0.41651
 C307 C -0.21636 1.18306 -0.35645
 C308 C -0.19714 1.16631 -0.31542
 C309 C -0.15337 1.15854 -0.29270
 C310 C -0.13660 1.14264 -0.26014
 C311 C -0.11645 1.12345 -0.22227
 C312 C -0.09271 1.13579 -0.23954
 C313 C -0.07306 1.11671 -0.20371
 C314 C -0.07691 1.08498 -0.15000
 C315 C -0.10090 1.07287 -0.13297
 C316 C -0.12051 1.09199 -0.16894
 H317 H -0.15004 1.21463 -0.40368
 H318 H -0.18343 1.24505 -0.47464
 H319 H -0.23463 1.17286 -0.34310
 H320 H -0.20095 1.14434 -0.27083
 H321 H -0.08938 1.16006 -0.28090
 H322 H -0.05487 1.12681 -0.21819
 H323 H -0.10455 1.04851 -0.09205
 H324 H -0.13883 1.08214 -0.15533
 C325 C 0.67330 0.67650 -0.33450
 C326 C 0.68211 0.71715 -0.31564
 C327 C 0.70052 0.73624 -0.35704
 C328 C 0.71023 0.71523 -0.41900
 C329 C 0.70168 0.67356 -0.43572
 C330 C 0.68327 0.65458 -0.39415
 C331 C 0.65367 0.65769 -0.29357
 C332 C 0.63700 0.64215 -0.25998
 C333 C 0.61689 0.62367 -0.22078
 C334 C 0.59313 0.63589 -0.23809
 C335 C 0.57349 0.61722 -0.20149
 C336 C 0.57738 0.58596 -0.14700
 C337 C 0.60139 0.57426 -0.12944
 C338 C 0.62098 0.59299 -0.16616
 H339 H 0.67451 0.73440 -0.26950
 H340 H 0.70634 0.76836 -0.34233
 H341 H 0.70942 0.65531 -0.48044
 H342 H 0.67677 0.62283 -0.40870
 H343 H 0.58976 0.65962 -0.28030
 H344 H 0.55529 0.62699 -0.21642
 H345 H 0.60507 0.55032 -0.08783
 H346 H 0.63931 0.58330 -0.15233
 C347 C 0.17150 1.18331 -0.33144
 C348 C 0.16677 1.21053 -0.39064
 C349 C 0.18589 1.22668 -0.43277
 C350 C 0.21017 1.21537 -0.41707
 C351 C 0.21464 1.18892 -0.35566
 C352 C 0.19546 1.17284 -0.31370
 C353 C 0.15174 1.16535 -0.28989
 C354 C 0.13517 1.14978 -0.25587
 C355 C 0.11532 1.13063 -0.21636
 C356 C 0.09144 1.14301 -0.23171
 C357 C 0.07205 1.12324 -0.19558
 C358 C 0.07629 1.09069 -0.14354
 C359 C 0.10041 1.07889 -0.12779
 C360 C 0.11977 1.09872 -0.16405
 H361 H 0.14828 1.21924 -0.40438
 H362 H 0.18163 1.24858 -0.47700
 H363 H 0.23291 1.17904 -0.34173
 H364 H 0.19933 1.15175 -0.26796
 H365 H 0.08779 1.16763 -0.27220
 H366 H 0.05374 1.13316 -0.20906
 H367 H 0.10436 1.05399 -0.08809
 H368 H 0.13819 1.08884 -0.15183
 C369 C 0.32816 0.32182 -0.33895
 C370 C 0.31421 0.34781 -0.38521
 C371 C 0.29492 0.33011 -0.42458
 C372 C 0.28949 0.28610 -0.41854
 C373 C 0.30333 0.26029 -0.37124
 C374 C 0.32264 0.27807 -0.33179
 C375 C 0.34819 0.34017 -0.29926
 C376 C 0.36496 0.35598 -0.26657
 C377 C 0.38496 0.37527 -0.22809
 C378 C 0.40880 0.36319 -0.24466
 C379 C 0.42828 0.38235 -0.20802
 C380 C 0.42415 0.41390 -0.15421
 C381 C 0.40007 0.42577 -0.13792
 C382 C 0.38064 0.40656 -0.17467
 H383 H 0.31827 0.38173 -0.39092
 H384 H 0.28422 0.35070 -0.45988
 H385 H 0.29939 0.22632 -0.36574
 H386 H 0.33332 0.25770 -0.29604
 H387 H 0.41234 0.33904 -0.28605
 H388 H 0.44655 0.37244 -0.22195
 H389 H 0.39620 0.44998 -0.09695
 H390 H 0.36225 0.41622 -0.16157
 C391 C -0.17416 0.83194 -0.34316
 C392 C -0.18643 0.85540 -0.39714
 C393 C -0.20573 0.83667 -0.43538
 C394 C -0.21279 0.79416 -0.42030
 C395 C -0.20068 0.77110 -0.36520
 C396 C -0.18143 0.78988 -0.32698
 C397 C -0.15393 0.85073 -0.30487
 C398 C -0.13690 0.86611 -0.27266
 C399 C -0.11657 0.88422 -0.23394
 C400 C -0.09287 0.87187 -0.25193
 C401 C -0.07311 0.88927 -0.21401
 C402 C -0.07682 0.91927 -0.15741
 C403 C -0.10075 0.93146 -0.13983
 C404 C -0.12045 0.91404 -0.17786
 H405 H -0.18100 0.88802 -0.40997
 H406 H -0.21500 0.85511 -0.47716
 H407 H -0.20584 0.73829 -0.35287
 H408 H -0.17208 0.77146 -0.28528
 H409 H -0.08966 0.84878 -0.29525
 H410 H -0.05497 0.87920 -0.22904
 H411 H -0.10431 0.95455 -0.09679
 H412 H -0.13872 0.92382 -0.16347
 C413 C 0.32737 0.67551 0.33450
 C414 C 0.32207 0.71917 0.32494
 C415 C 0.30344 0.73833 0.36533
 C416 C 0.29007 0.71404 0.41612
 C417 C 0.29509 0.66998 0.42411
 C418 C 0.31374 0.65088 0.38374
 C419 C 0.34714 0.65620 0.29500
 C420 C 0.36388 0.64013 0.26257
 C421 C 0.38402 0.62105 0.22449
 C422 C 0.37994 0.58988 0.17069
 C423 C 0.39954 0.57116 0.13404
 C424 C 0.42353 0.58339 0.15080
 C425 C 0.42741 0.61480 0.20502
 C426 C 0.40777 0.63348 0.24154
 H427 H 0.33250 0.73848 0.28691
 H428 H 0.29978 0.77229 0.35825
 H429 H 0.28476 0.65059 0.46227
 H430 H 0.31766 0.61704 0.39137
 H431 H 0.36162 0.58000 0.15717
 H432 H 0.39587 0.54702 0.09277
 H433 H 0.44560 0.62496 0.21933
 H434 H 0.41111 0.65757 0.28318
 C435 C -0.17346 1.17368 0.33804
 C436 C -0.18441 1.15113 0.39537
 C437 C -0.20322 1.16992 0.43542
 C438 C -0.21123 1.21206 0.41965
 C439 C -0.20066 1.23367 0.35957
 C440 C -0.18182 1.21474 0.31963
 C441 C -0.15337 1.15490 0.29914
 C442 C -0.13641 1.13900 0.26741
 C443 C -0.11612 1.11981 0.23001
 C444 C -0.09236 1.13159 0.24844
 C445 C -0.07264 1.11281 0.21231
 C446 C -0.07645 1.08194 0.15714
 C447 C -0.10045 1.07027 0.13922
 C448 C -0.12010 1.08909 0.17544
 H449 H -0.17833 1.11905 0.40942
 H450 H -0.21163 1.15119 0.47846
 H451 H -0.20609 1.26610 0.34553
 H452 H -0.17350 1.23245 0.27514
 H453 H -0.08908 1.15530 0.29073
 H454 H -0.05445 1.12254 0.22750
 H455 H -0.10409 1.04659 0.09718
 H456 H -0.13841 1.07965 0.16085
 C457 C 0.67280 0.32080 0.33415
 C458 C 0.69609 0.33851 0.32793
 C459 C 0.71525 0.32181 0.36929
 C460 C 0.71125 0.28745 0.41776
 C461 C 0.68794 0.26928 0.42259
 C462 C 0.66880 0.28602 0.38125
 C463 C 0.65290 0.33881 0.29335
 C464 C 0.63613 0.35415 0.25996
 C465 C 0.61604 0.37285 0.22097
 C466 C 0.62022 0.40370 0.16669
 C467 C 0.60069 0.42287 0.13036
 C468 C 0.57664 0.41145 0.14797
 C469 C 0.57265 0.38004 0.20215
 C470 C 0.59223 0.36093 0.23838
 H471 H 0.69937 0.36542 0.29160
 H472 H 0.73310 0.33615 0.36460
 H473 H 0.68455 0.24236 0.45879
 H474 H 0.65087 0.27201 0.38634
 H475 H 0.63858 0.41320 0.15284
 H476 H 0.60445 0.44688 0.08896
 H477 H 0.55441 0.37047 0.21709
 H478 H 0.58879 0.33710 0.28040
 C479 C 0.17282 0.82301 0.33462
 C480 C 0.19638 0.83915 0.32613
 C481 C 0.21548 0.82207 0.36732
 C482 C 0.21117 0.78882 0.41774
 C483 C 0.18751 0.77251 0.42549
 C484 C 0.16843 0.78965 0.38433
 C485 C 0.15311 0.84082 0.29271
 C486 C 0.13650 0.85581 0.25817
 C487 C 0.11650 0.87391 0.21787
 C488 C 0.12064 0.90586 0.16541
 C489 C 0.10111 0.92450 0.12818
 C490 C 0.07713 0.91143 0.14310
 C491 C 0.07323 0.87881 0.19524
 C492 C 0.09279 0.86024 0.23233
 H493 H 0.19998 0.86497 0.28782
 H494 H 0.23359 0.83503 0.36043
 H495 H 0.18385 0.74643 0.46318
 H496 H 0.15028 0.77684 0.39120
 H497 H 0.13894 0.91670 0.15383
 H498 H 0.10480 0.94952 0.08848
 H499 H 0.05505 0.86795 0.20811
 H500 H 0.08938 0.83553 0.27286
   
