data_POSCAR
  _audit_creation_date              2014-09-24
  _audit_creation_method            'ToBaCCo'
  _symmetry_space_group_name_H-M    'P1'
  _symmetry_Int_Tables_number       1
  _symmetry_cell_setting            triclinic
  loop_
  _symmetry_equiv_pos_as_xyz
 x,y,z
_cell_length_a 41.4571
_cell_length_b 41.4730
_cell_length_c 41.4064
_cell_angle_alpha 89.860800
_cell_angle_beta 89.849900
_cell_angle_gamma 90.047900
loop_
  _atom_site_label
  _atom_site_type_symbol
  _atom_site_fract_x
  _atom_site_fract_y
  _atom_site_fract_z
C1 C 0.17183 0.17030 0.21235
 C2 C 0.19947 0.15656 0.19848
 C3 C 0.21333 0.17041 0.17080
 C4 C 0.19951 0.19802 0.15700
 C5 C 0.17190 0.21177 0.17084
 C6 C 0.15808 0.19792 0.19849
 H7 H 0.21016 0.13518 0.20921
 H8 H 0.21017 0.20883 0.13559
 H9 H 0.13670 0.20864 0.20916
 C10 C -0.17045 0.82937 0.21335
 C11 C -0.19801 0.84322 0.19952
 C12 C -0.21183 0.82948 0.17194
 C13 C -0.19808 0.80189 0.15816
 C14 C -0.17054 0.78801 0.17192
 C15 C -0.15672 0.80175 0.19951
 H16 H -0.20873 0.86457 0.21017
 H17 H -0.20879 0.79123 0.13683
 H18 H -0.13541 0.79093 0.21014
 C19 C -0.17096 0.17076 -0.21330
 C20 C -0.19862 0.15697 -0.19939
 C21 C -0.21243 0.17071 -0.17170
 C22 C -0.19854 0.19827 -0.15795
 C23 C -0.17092 0.21207 -0.17182
 C24 C -0.15713 0.19832 -0.19947
 H25 H -0.20936 0.13565 -0.21008
 H26 H -0.20917 0.20900 -0.13655
 H27 H -0.13575 0.20908 -0.21017
 C28 C 0.17244 0.83011 -0.21189
 C29 C 0.15862 0.80251 -0.19801
 C30 C 0.17237 0.78864 -0.17042
 C31 C 0.19998 0.80239 -0.15667
 C32 C 0.21387 0.83002 -0.17052
 C33 C 0.20005 0.84386 -0.19815
 H34 H 0.13726 0.79185 -0.20867
 H35 H 0.21060 0.79157 -0.13531
 H36 H 0.21072 0.86523 -0.20897
 C37 C 0.17011 1.17023 0.78820
 C38 C 0.15637 1.19779 0.80206
 C39 C 0.17019 1.21151 0.82964
 C40 C 0.19775 1.19765 0.84337
 C41 C 0.21151 1.17010 0.82953
 C42 C 0.19767 1.15639 0.80194
 H43 H 0.13506 1.20855 0.79139
 H44 H 0.20849 1.20830 0.86469
 H45 H 0.20835 1.13509 0.79118
 C46 C 0.82991 0.82815 0.78744
 C47 C 0.80237 0.84197 0.80138
 C48 C 0.78854 0.82817 0.82906
 C49 C 0.80225 0.80053 0.84284
 C50 C 0.82980 0.78665 0.82896
 C51 C 0.84363 0.80048 0.80125
 H52 H 0.79167 0.86337 0.79076
 H53 H 0.79146 0.78990 0.86427
 H54 H 0.86495 0.78973 0.79046
 C55 C 0.16970 0.82946 1.21273
 C56 C 0.19739 0.84320 1.19886
 C57 C 0.21121 0.82942 1.17125
 C58 C 0.19736 0.80189 1.15748
 C59 C 0.16970 0.78813 1.17129
 C60 C 0.15586 0.80191 1.19890
 H61 H 0.20820 0.86451 1.20950
 H62 H 0.20809 0.79120 1.13613
 H63 H 0.13445 0.79117 1.20957
 C64 C 0.82956 1.17086 1.21273
 C65 C 0.84339 1.19852 1.19891
 C66 C 0.82963 1.21243 1.17129
 C67 C 0.80204 1.19863 1.15751
 C68 C 0.78821 1.17100 1.17131
 C69 C 0.80196 1.15713 1.19890
 H70 H 0.86474 1.20920 1.20962
 H71 H 0.79130 1.20933 1.13615
 H72 H 0.79116 1.13574 1.20955
 N73 N 0.46619 0.96557 1.05719
 N74 N 0.44167 0.96146 1.07719
 N75 N 0.53416 0.94318 1.03495
 N76 N 0.55859 0.92322 1.03916
 N77 N 0.53407 0.96560 1.05730
 N78 N 0.55844 0.96153 1.07736
 N79 N 0.46627 0.94315 1.03483
 N80 N 0.44181 0.92316 1.03898
 C81 C 0.42681 0.93495 1.06546
 C82 C 0.57339 0.93503 1.06568
 N83 N 0.53454 0.96548 0.94286
 N84 N 0.55904 0.96131 0.92287
 N85 N 0.46654 0.94308 0.96526
 N86 N 0.44211 0.92307 0.96116
 N87 N 0.46665 0.96545 0.94274
 N88 N 0.44230 0.96130 0.92269
 N89 N 0.53442 0.94310 0.96537
 N90 N 0.55884 0.92308 0.96135
 Mn91 Mn 0.50035 0.94275 1.00010
 C92 C 0.57385 0.93481 0.93478
 C93 C 0.42733 0.93480 0.93454
 N94 N 0.53408 1.03507 1.05706
 N95 N 0.55845 1.03920 1.07710
 N96 N 0.46629 1.05741 1.03445
 N97 N 0.44187 1.07742 1.03851
 N98 N 0.46620 1.03503 1.05696
 N99 N 0.44170 1.03918 1.07696
 N100 N 0.53419 1.05744 1.03455
 N101 N 0.55863 1.07744 1.03863
 Mn102 Mn 0.50013 1.00032 1.05751
 C103 C 0.57341 1.06569 1.06523
 C104 C 0.42687 1.06567 1.06509
 N105 N 0.46670 1.03491 0.94252
 N106 N 0.44226 1.03890 0.92253
 N107 N 0.53450 1.05737 0.96497
 N108 N 0.55893 1.07742 0.96078
 N109 N 0.53459 1.03495 0.94262
 N110 N 0.55908 1.03910 0.92258
 N111 N 0.46661 1.05733 0.96488
 N112 N 0.44211 1.07721 0.96074
 Mn113 Mn 0.50062 1.00020 0.94230
 Mn114 Mn 0.50040 1.05777 0.99971
 Cl115 Cl 0.50038 1.00026 0.99991
 C116 C 0.42728 1.06536 0.93426
 C117 C 0.57391 1.06564 0.93428
 N118 N -0.03493 0.46612 -0.05715
 N119 N -0.03898 0.44177 -0.07723
 N120 N -0.05749 0.53384 -0.03460
 N121 N -0.07754 0.55821 -0.03872
 N122 N -0.03502 0.53398 -0.05703
 N123 N -0.03915 0.55844 -0.07705
 N124 N -0.05740 0.46597 -0.03471
 N125 N -0.07736 0.44152 -0.03889
 C126 C -0.06551 0.42677 -0.06547
 C127 C -0.06572 0.57321 -0.06526
 N128 N -0.03530 0.53350 0.05742
 N129 N -0.03943 0.55790 0.07743
 N130 N -0.05757 0.46569 0.03488
 N131 N -0.07757 0.44123 0.03902
 N132 N -0.03521 0.46565 0.05730
 N133 N -0.03936 0.44117 0.07733
 N134 N -0.05765 0.53356 0.03499
 N135 N -0.07763 0.55800 0.03911
 Mn136 Mn -0.05791 0.49976 0.00014
 C137 C -0.06589 0.57283 0.06566
 C138 C -0.06584 0.42629 0.06555
 N139 N 0.03447 0.53416 -0.05703
 N140 N 0.03865 0.55866 -0.07702
 N141 N 0.05690 0.46625 -0.03471
 N142 N 0.07686 0.44180 -0.03878
 N143 N 0.03456 0.46629 -0.05714
 N144 N 0.03868 0.44187 -0.07712
 N145 N 0.05681 0.53410 -0.03459
 N146 N 0.07683 0.55855 -0.03868
 Mn147 Mn -0.00023 0.50014 -0.05747
 C148 C 0.06513 0.57354 -0.06521
 C149 C 0.06514 0.42695 -0.06531
 N150 N 0.03429 0.46578 0.05729
 N151 N 0.03845 0.44131 0.07730
 N152 N 0.05664 0.53380 0.03497
 N153 N 0.07654 0.55830 0.03909
 N154 N 0.03418 0.53365 0.05741
 N155 N 0.03817 0.55804 0.07744
 N156 N 0.05674 0.46594 0.03485
 N157 N 0.07682 0.44159 0.03896
 Mn158 Mn -0.00051 0.49964 0.05774
 Mn159 Mn 0.05716 0.50002 0.00013
 Cl160 Cl -0.00038 0.49989 0.00013
 C161 C 0.06504 0.42656 0.06549
 C162 C 0.06466 0.57306 0.06564
 N163 N 0.96496 -0.05708 0.53408
 N164 N 0.96086 -0.07710 0.55859
 N165 N 0.94247 -0.03487 0.46609
 N166 N 0.92249 -0.03906 0.44167
 N167 N 0.96491 -0.05721 0.46612
 N168 N 0.96083 -0.07725 0.44173
 N169 N 0.94251 -0.03474 0.53407
 N170 N 0.92249 -0.03893 0.55858
 C171 C 0.93431 -0.06540 0.57352
 C172 C 0.93430 -0.06556 0.42683
 N173 N 0.96476 0.05705 0.46563
 N174 N 0.96060 0.07702 0.44112
 N175 N 0.94242 0.03474 0.53378
 N176 N 0.92240 0.03890 0.55827
 N177 N 0.96479 0.05719 0.53360
 N178 N 0.96063 0.07725 0.55796
 N179 N 0.94237 0.03462 0.46580
 N180 N 0.92234 0.03868 0.44139
 Mn181 Mn 0.94206 -0.00006 0.49993
 C182 C 0.93408 0.06519 0.42634
 C183 C 0.93413 0.06548 0.57301
 N184 N 1.03439 -0.05706 0.46590
 N185 N 1.03851 -0.07710 0.44152
 N186 N 1.05682 -0.03447 0.53368
 N187 N 1.07689 -0.03851 0.55806
 N188 N 1.03445 -0.05692 0.53387
 N189 N 1.03867 -0.07687 0.55840
 N190 N 1.05676 -0.03461 0.46572
 N191 N 1.07675 -0.03874 0.44120
 Mn192 Mn 0.99968 -0.05745 0.50000
 C193 C 1.06499 -0.06530 0.42646
 C194 C 1.06520 -0.06501 0.57314
 N195 N 1.03429 0.05732 0.53335
 N196 N 1.03832 0.07728 0.55780
 N197 N 1.05668 0.03484 0.46541
 N198 N 1.07675 0.03902 0.44094
 N199 N 1.03426 0.05720 0.46537
 N200 N 1.03844 0.07723 0.44088
 N201 N 1.05672 0.03497 0.53337
 N202 N 1.07666 0.03909 0.55782
 Mn203 Mn 0.99952 0.05757 0.49949
 Mn204 Mn 1.05712 0.00018 0.49954
 Cl205 Cl 0.99959 0.00006 0.49974
 C206 C 1.06482 0.06555 0.57270
 C207 C 1.06500 0.06551 0.42598
 C208 C 1.13212 0.13123 0.29154
 N209 N 1.10540 0.14458 0.30493
 N210 N 1.09215 0.13168 0.33133
 C211 C 1.10521 0.10505 0.34513
 N212 N 1.13192 0.09169 0.33174
 N213 N 1.14517 0.10459 0.30534
 C214 C 1.14641 0.14515 0.26314
 C215 C 1.15838 0.15691 0.23929
 C216 C 1.09097 0.09118 0.37359
 C217 C 1.07907 0.07950 0.39750
 C218 C 0.86869 -0.13154 0.29243
 N219 N 0.89306 -0.14669 0.30810
 N220 N 0.90598 -0.13372 0.33450
 C221 C 0.89492 -0.10520 0.34602
 N222 N 0.87054 -0.09004 0.33035
 N223 N 0.85762 -0.10302 0.30395
 C224 C 0.85471 -0.14555 0.26406
 C225 C 0.84292 -0.15732 0.24024
 C226 C 0.90879 -0.09125 0.37448
 C227 C 0.92043 -0.07953 0.39838
 C228 C 0.86819 0.13163 0.70747
 N229 N 0.85295 0.10727 0.69190
 N230 N 0.86591 0.09427 0.66548
 C231 C 0.89451 0.10523 0.65383
 N232 N 0.90975 0.12959 0.66941
 N233 N 0.89679 0.14259 0.69583
 C234 C 0.85420 0.14566 0.73589
 C235 C 0.84241 0.15744 0.75975
 C236 C 0.90845 0.09125 0.62536
 C237 C 0.92017 0.07949 0.60146
 C238 C 1.13213 -0.13019 0.70752
 N239 N 1.10750 -0.14541 0.69234
 N240 N 1.09429 -0.13260 0.66595
 C241 C 1.10531 -0.10418 0.65395
 N242 N 1.12993 -0.08896 0.66914
 N243 N 1.14314 -0.10177 0.69552
 C244 C 1.14637 -0.14403 0.73589
 C245 C 1.15829 -0.15576 0.75970
 C246 C 1.09113 -0.09042 0.62551
 C247 C 1.07926 -0.07885 0.60160
 C248 C 0.29244 1.13140 1.13136
 N249 N 0.30865 1.10765 1.14697
 N250 N 0.33504 1.09474 1.13390
 C251 C 0.34603 1.10519 1.10481
 N252 N 0.32982 1.12893 1.08919
 N253 N 0.30343 1.14184 1.10227
 C254 C 0.26406 1.14535 1.14547
 C255 C 0.24024 1.15710 1.15736
 C256 C 0.37448 1.09131 1.09077
 C257 C 0.39840 1.07963 1.07902
 C258 C 0.29299 0.86906 0.86858
 N259 N 0.30944 0.89257 0.85275
 N260 N 0.33584 0.90549 0.86572
 C261 C 0.34657 0.89528 0.89493
 N262 N 0.33011 0.87177 0.91076
 N263 N 0.30372 0.85885 0.89778
 C264 C 0.26460 0.85510 0.85458
 C265 C 0.24077 0.84334 0.84280
 C266 C 0.37501 0.90918 0.90888
 C267 C 0.39890 0.92086 0.92060
 C268 C 0.70769 0.86940 1.13188
 N269 N 0.69689 0.89859 1.14187
 N270 N 0.67052 0.91152 1.12884
 C271 C 0.65415 0.89565 1.10543
 N272 N 0.66496 0.86646 1.09543
 N273 N 0.69133 0.85353 1.10846
 C274 C 0.73603 0.85543 1.14597
 C275 C 0.75981 0.84364 1.15781
 C276 C 0.62572 0.90953 1.09144
 C277 C 0.60183 0.92117 1.07969
 C278 C 0.70841 1.13158 0.86782
 N279 N 0.69599 1.10378 0.85594
 N280 N 0.66958 1.09082 0.86904
 C281 C 0.65479 1.10527 0.89442
 N282 N 0.66721 1.13307 0.90630
 N283 N 0.69362 1.14603 0.89320
 C284 C 0.73681 1.14557 0.85367
 C285 C 0.76065 1.15736 0.84176
 C286 C 0.62632 1.09133 0.90848
 C287 C 0.60239 1.07962 0.92026
 C288 C 0.13169 0.29232 0.13106
 N289 N 0.14399 0.30530 0.10356
 N290 N 0.13084 0.33166 0.09067
 C291 C 0.10501 0.34585 0.10491
 N292 N 0.09271 0.33287 0.13240
 N293 N 0.10585 0.30651 0.14529
 C294 C 0.14587 0.26397 0.14497
 C295 C 0.15775 0.24017 0.15672
 C296 C 0.09089 0.37426 0.09106
 C297 C 0.07907 0.39814 0.07941
 C298 C -0.13102 0.29253 -0.13177
 N299 N -0.10607 0.30783 -0.14653
 N300 N -0.09317 0.33419 -0.13348
 C301 C -0.10484 0.34605 -0.10527
 N302 N -0.12978 0.33074 -0.09051
 N303 N -0.14268 0.30438 -0.10356
 C304 C -0.14498 0.26420 -0.14586
 C305 C -0.15677 0.24043 -0.15770
 C306 C -0.09099 0.37447 -0.09125
 C307 C -0.07936 0.39835 -0.07948
 C308 C 0.13194 0.70803 -0.13064
 N309 N 0.14383 0.69531 -0.10291
 N310 N 0.13062 0.66891 -0.09006
 C311 C 0.10514 0.65443 -0.10454
 N312 N 0.09325 0.66716 -0.13226
 N313 N 0.10646 0.69356 -0.14512
 C314 C 0.14620 0.73641 -0.14454
 C315 C 0.15816 0.76022 -0.15628
 C316 C 0.09098 0.62596 -0.09073
 C317 C 0.07915 0.60203 -0.07911
 C318 C -0.13101 0.70738 0.13181
 N319 N -0.14259 0.69560 0.10359
 N320 N -0.12981 0.66917 0.09054
 C321 C -0.10506 0.65373 0.10531
 N322 N -0.09347 0.66551 0.13353
 N323 N -0.10626 0.69194 0.14658
 C324 C -0.14485 0.73577 0.14591
 C325 C -0.15652 0.75959 0.15777
 C326 C -0.09132 0.62524 0.09130
 C327 C -0.07975 0.60131 0.07957
 C328 C 1.13028 0.13074 0.70747
 N329 N 1.14251 0.10322 0.69477
 N330 N 1.12960 0.09040 0.66829
 C331 C 1.10408 0.10474 0.65372
 N332 N 1.09185 0.13226 0.66643
 N333 N 1.10475 0.14507 0.69290
 C334 C 1.14424 0.14459 0.73590
 C335 C 1.15601 0.15625 0.75976
 C336 C 1.09024 0.09098 0.62519
 C337 C 1.07863 0.07939 0.60122
 C338 C 0.86888 -0.13226 0.70818
 N339 N 0.89609 -0.14472 0.69494
 N340 N 0.90894 -0.13151 0.66849
 C341 C 0.89496 -0.10545 0.65450
 N342 N 0.86775 -0.09299 0.66774
 N343 N 0.85490 -0.10620 0.69418
 C344 C 0.85501 -0.14650 0.73660
 C345 C 0.84327 -0.15843 0.76048
 C346 C 0.90876 -0.09128 0.62600
 C347 C 0.92039 -0.07943 0.60204
 C348 C 1.13063 -0.13136 0.29191
 N349 N 1.10473 -0.14529 0.30638
 N350 N 1.09182 -0.13228 0.33281
 C351 C 1.10443 -0.10496 0.34557
 N352 N 1.13033 -0.09103 0.33110
 N353 N 1.14324 -0.10404 0.30467
 C354 C 1.14457 -0.14540 0.26350
 C355 C 1.15634 -0.15720 0.23965
 C356 C 1.09055 -0.09098 0.37405
 C357 C 1.07890 -0.07925 0.39798
 C358 C 0.86848 0.13139 0.29184
 N359 N 0.89670 0.14277 0.30379
 N360 N 0.90958 0.12970 0.33020
 C361 C 0.89463 0.10484 0.34546
 N362 N 0.86642 0.09345 0.33351
 N363 N 0.85353 0.10653 0.30710
 C364 C 0.85457 0.14552 0.26346
 C365 C 0.84285 0.15741 0.23963
 C366 C 0.90847 0.09082 0.37393
 C367 C 0.92013 0.07909 0.39786
 C368 C 0.13056 0.29220 -0.13058
 N369 N 0.10170 0.30337 -0.14112
 N370 N 0.08883 0.32984 -0.12827
 C371 C 0.10444 0.34595 -0.10450
 N372 N 0.13330 0.33478 -0.09396
 N373 N 0.14617 0.30830 -0.10681
 C374 C 0.14447 0.26378 -0.14450
 C375 C 0.15618 0.23993 -0.15626
 C376 C 0.09061 0.37448 -0.09071
 C377 C 0.07898 0.39844 -0.07913
 C378 C -0.13142 0.29171 0.13199
 N379 N -0.10168 0.29071 0.11830
 N380 N -0.08882 0.31716 0.10520
 C381 C -0.10530 0.34539 0.10539
 N382 N -0.13504 0.34639 0.11908
 N383 N -0.14791 0.31995 0.13218
 C384 C -0.14530 0.26326 0.14608
 C385 C -0.15703 0.23937 0.15792
 C386 C -0.09144 0.37387 0.09132
 C387 C -0.07978 0.39780 0.07953
 C388 C -0.13131 0.70754 -0.13164
 N389 N -0.14389 0.69477 -0.10417
 N390 N -0.13102 0.66838 -0.09108
 C391 C -0.10517 0.65397 -0.10506
 N392 N -0.09259 0.66675 -0.13252
 N393 N -0.10547 0.69313 -0.14562
 C394 C -0.14521 0.73591 -0.14577
 C395 C -0.15692 0.75974 -0.15764
 C396 C -0.09133 0.62554 -0.09099
 C397 C -0.07967 0.60165 -0.07922
 C398 C 0.12990 0.70761 0.13141
 N399 N 0.14225 0.69507 0.10380
 N400 N 0.12938 0.66865 0.09085
 C401 C 0.10379 0.65398 0.10512
 N402 N 0.09144 0.66652 0.13273
 N403 N 0.10430 0.69294 0.14568
 C404 C 0.14383 0.73597 0.14541
 C405 C 0.15559 0.75977 0.15720
 C406 C 0.09000 0.62549 0.09123
 C407 C 0.07843 0.60155 0.07955
 C408 C 0.29228 1.13036 0.86905
 N409 N 0.30295 1.14026 0.89833
 N410 N 0.32947 1.12745 0.91115
 C411 C 0.34612 1.10435 0.89506
 N412 N 0.33544 1.09444 0.86578
 N413 N 0.30892 1.10726 0.85297
 C414 C 0.26382 1.14426 0.85519
 C415 C 0.23994 1.15600 0.84351
 C416 C 0.37470 1.09060 0.90883
 C417 C 0.39872 1.07908 0.92042
 C418 C 0.29204 0.86919 1.13133
 N419 N 0.30287 0.85916 1.10210
 N420 N 0.32935 0.87211 1.08913
 C421 C 0.34579 0.89546 1.10501
 N422 N 0.33496 0.90549 1.13424
 N423 N 0.30849 0.89254 1.14721
 C424 C 0.26359 0.85522 1.14533
 C425 C 0.23970 0.84347 1.15712
 C426 C 0.37431 0.90936 1.09108
 C427 C 0.39829 0.92104 1.07938
 C428 C 0.70768 1.13129 1.13128
 N429 N 0.69121 1.14735 1.10801
 N430 N 0.66484 1.13446 1.09498
 C431 C 0.65415 1.10511 1.10483
 N432 N 0.67063 1.08905 1.12810
 N433 N 0.69700 1.10195 1.14113
 C434 C 0.73603 1.14521 1.14536
 C435 C 0.75982 1.15694 1.15719
 C436 C 0.62572 1.09126 1.09086
 C437 C 0.60184 1.07960 1.07915
 C438 C 0.70815 0.86839 0.86912
 N439 N 0.69792 0.89790 0.85937
 N440 N 0.67156 0.91099 0.87232
 C441 C 0.65464 0.89497 0.89540
 N442 N 0.66487 0.86547 0.90516
 N443 N 0.69124 0.85238 0.89221
 C444 C 0.73646 0.85425 0.85510
 C445 C 0.76021 0.84236 0.84326
 C446 C 0.62621 0.90903 0.90927
 C447 C 0.60230 0.92081 0.92090
   
