data_POSCAR
  _audit_creation_date              2014-09-24
  _audit_creation_method            'ToBaCCo'
  _symmetry_space_group_name_H-M    'P1'
  _symmetry_Int_Tables_number       1
  _symmetry_cell_setting            triclinic
  loop_
  _symmetry_equiv_pos_as_xyz
 x,y,z
_cell_length_a 31.2591
_cell_length_b 31.3515
_cell_length_c 51.2482
_cell_angle_alpha 90.269800
_cell_angle_beta 90.754900
_cell_angle_gamma 83.032300
loop_
  _atom_site_label
  _atom_site_type_symbol
  _atom_site_fract_x
  _atom_site_fract_y
  _atom_site_fract_z
C1 C 0.02519 0.36573 1.01300
 C2 C 0.02196 0.36595 0.98627
 C3 C 0.00787 0.40793 0.97910
 N4 N 0.00237 0.43332 1.00043
 C5 C 0.01278 0.40755 1.02117
 C6 C -0.00383 0.42159 0.95355
 C7 C -0.01124 0.46544 0.94668
 C8 C -0.03291 0.48128 0.92435
 C9 C -0.03110 0.52489 0.92422
 C10 C -0.00769 0.53439 0.94627
 N11 N 0.00380 0.49798 0.96003
 C12 C 0.00418 0.57541 0.95288
 C13 C 0.01562 0.58486 0.97898
 C14 C 0.03941 0.61753 0.98653
 C15 C 0.04055 0.61770 1.01325
 C16 C 0.01777 0.58491 1.02121
 N17 N 0.00302 0.56439 1.00025
 C18 C 0.00943 0.57531 1.04751
 C19 C 0.00009 0.53379 1.05460
 C20 C -0.01926 0.52350 1.07762
 C21 C -0.01925 0.47965 1.07768
 C22 C -0.00081 0.46450 1.05449
 N23 N 0.01067 0.49763 1.04044
 C24 C 0.00694 0.42078 1.04734
 H25 H 0.03471 0.33784 1.02505
 H26 H 0.02854 0.33829 0.97360
 H27 H 0.02877 0.49519 1.02345
 H28 H -0.04852 0.46330 0.90971
 H29 H -0.04545 0.54703 0.90952
 H30 H 0.05466 0.63887 0.97408
 H31 H 0.05675 0.63919 1.02545
 H32 H -0.03171 0.46108 1.09296
 H33 H 0.02458 0.49494 0.97616
 H34 H -0.03205 0.54522 1.09285
 C35 C 0.37408 -0.02832 0.48975
 C36 C 0.37626 -0.02977 0.51648
 C37 C 0.41380 -0.01316 0.52382
 N38 N 0.43480 -0.00210 0.50248
 C39 C 0.41063 -0.01144 0.48166
 C40 C 0.42649 -0.00536 0.54981
 C41 C 0.46758 0.00644 0.55642
 C42 C 0.47848 0.02292 0.58038
 C43 C 0.52186 0.02624 0.57986
 C44 C 0.53646 0.01246 0.55534
 N45 N 0.50298 0.00018 0.54129
 C46 C 0.58033 0.00667 0.54754
 C47 C 0.59277 -0.00113 0.52118
 C48 C 0.63497 -0.00940 0.51257
 C49 C 0.63309 -0.01088 0.48587
 C50 C 0.58997 -0.00268 0.47884
 N51 N 0.56545 0.00350 0.50039
 C52 C 0.57440 0.00224 0.45287
 C53 C 0.53014 0.00787 0.44610
 C54 C 0.51348 0.02300 0.42223
 C55 C 0.46961 0.02225 0.42305
 C56 C 0.46075 0.00627 0.44733
 N57 N 0.49788 -0.00256 0.46121
 C58 C 0.41956 -0.00197 0.45555
 H59 H 0.34853 -0.03848 0.47764
 H60 H 0.35263 -0.04133 0.52904
 H61 H 0.50161 -0.01903 0.47881
 H62 H 0.45762 0.03080 0.59683
 H63 H 0.54034 0.03643 0.59620
 H64 H 0.66441 -0.01283 0.52406
 H65 H 0.66053 -0.01629 0.47310
 H66 H 0.44691 0.03204 0.40746
 H67 H 0.50516 -0.01685 0.52383
 H68 H 0.53111 0.03358 0.40591
 C69 C 0.08321 -0.00387 0.25888
 H70 H 0.08437 -0.00404 0.23778
 C71 C 0.12135 -0.00534 0.27356
 H72 H 0.15182 -0.00648 0.26362
 C73 C 0.04187 -0.00081 0.29741
 H74 H 0.01086 0.00144 0.30667
 C75 C 0.07913 -0.00200 0.31282
 H76 H 0.07636 -0.00147 0.33386
 N77 N 0.04454 -0.00220 0.27094
 C78 C -0.04351 -0.05451 0.21605
 H79 H -0.07078 -0.02984 0.21739
 C80 C -0.04553 -0.08955 0.19940
 H81 H -0.07476 -0.09189 0.18819
 C82 C 0.02761 -0.08126 0.22921
 H83 H 0.05605 -0.07796 0.24085
 C84 C 0.02700 -0.11687 0.21277
 H85 H 0.05542 -0.14023 0.21164
 Zn86 Zn -0.00611 0.00048 0.25000
 N87 N -0.00695 -0.05042 0.23002
 C88 C -0.00971 0.04275 0.20112
 N89 N -0.00678 0.04828 0.22740
 C90 C -0.00351 0.08769 0.23793
 C91 C -0.00469 0.12376 0.22189
 C92 C -0.01118 0.07787 0.18441
 C93 C -0.06229 -0.02726 0.28663
 C94 C -0.09832 -0.02486 0.30264
 C95 C -0.12073 0.04660 0.28625
 C96 C -0.08440 0.04274 0.27045
 N97 N -0.05573 0.00645 0.27119
 H98 H -0.01091 0.01112 0.19297
 H99 H -0.00052 0.09111 0.25887
 H100 H -0.00304 0.15504 0.23064
 H101 H -0.01354 0.07276 0.16356
 H102 H -0.03925 -0.05594 0.28661
 H103 H -0.10255 -0.05171 0.31516
 H104 H -0.14322 0.07569 0.28539
 H105 H -0.07931 0.06877 0.25759
 C106 C -0.00965 -0.12093 0.19721
 C107 C 0.11957 -0.00440 0.30092
 C108 C -0.12796 0.01257 0.30270
 C109 C -0.00910 0.11911 0.19475
 C110 C 0.00079 0.08659 0.75823
 H111 H 0.00362 0.08629 0.73721
 C112 C -0.00195 0.12550 0.77186
 H113 H -0.00148 0.15514 0.76117
 C114 C -0.00391 0.04825 0.79761
 H115 H -0.00523 0.01822 0.80759
 C116 C -0.00693 0.08640 0.81199
 H117 H -0.00947 0.08504 0.83301
 N118 N 0.00078 0.04889 0.77127
 C119 C 0.06652 -0.04314 0.71649
 H120 H 0.04384 -0.06658 0.71542
 C121 C 0.10198 -0.04687 0.70002
 H122 H 0.10660 -0.07324 0.68622
 C123 C 0.08748 0.02052 0.73525
 H124 H 0.08171 0.04677 0.74896
 C125 C 0.12393 0.01748 0.71954
 H126 H 0.14563 0.04185 0.72094
 Zn127 Zn 0.00651 -0.00271 0.75147
 N128 N 0.05891 -0.00880 0.73282
 C129 C -0.03521 -0.00216 0.70171
 N130 N -0.04119 0.00010 0.72796
 C131 C -0.08149 0.00459 0.73813
 C132 C -0.11766 0.00485 0.72176
 C133 C -0.07035 -0.00257 0.68470
 C134 C 0.03860 -0.05690 0.79237
 C135 C 0.03988 -0.09116 0.80978
 C136 C -0.02126 -0.11478 0.78703
 C137 C -0.02181 -0.07967 0.77029
 N138 N 0.00738 -0.05114 0.77354
 H139 H -0.00327 -0.00382 0.69379
 H140 H -0.08543 0.00707 0.75904
 H141 H -0.14947 0.00729 0.73017
 H142 H -0.06497 -0.00507 0.66389
 H143 H 0.06201 -0.03428 0.79415
 H144 H 0.06444 -0.09487 0.82498
 H145 H -0.04520 -0.13676 0.78453
 H146 H -0.04560 -0.07528 0.75477
 C147 C 0.13066 -0.01582 0.70115
 C148 C -0.00547 0.12567 0.79915
 C149 C 0.00945 -0.12040 0.80732
 C150 C -0.11213 0.00039 0.69472
 C151 C 0.02897 -0.40084 0.09161
 C152 C 0.02868 -0.36859 0.11057
 C153 C 0.00940 -0.32688 0.10528
 C154 C -0.00946 -0.31759 0.08062
 C155 C -0.00917 -0.34970 0.06163
 C156 C 0.00984 -0.39200 0.06682
 N157 N 0.00930 -0.29458 0.12516
 N158 N -0.00819 -0.25626 0.12139
 C159 C -0.00863 -0.22340 0.14091
 C160 C -0.02801 -0.18204 0.13484
 C161 C -0.02865 -0.14892 0.15319
 C162 C -0.00989 -0.15664 0.17808
 C163 C 0.00940 -0.19836 0.18420
 C164 C 0.01002 -0.23151 0.16577
 H165 H 0.04508 -0.43253 0.09619
 H166 H 0.04363 -0.37609 0.12945
 H167 H -0.02470 -0.28559 0.07604
 H168 H -0.02504 -0.34163 0.04308
 H169 H -0.04236 -0.17539 0.11572
 H170 H -0.04310 -0.11703 0.14769
 H171 H 0.02372 -0.20544 0.20328
 H172 H 0.02509 -0.26332 0.17093
 C173 C 0.03596 0.38525 0.08871
 C174 C 0.03590 0.35331 0.10766
 C175 C 0.00614 0.32340 0.10607
 C176 C -0.02421 0.32621 0.08545
 C177 C -0.02424 0.35817 0.06656
 C178 C 0.00616 0.38761 0.06788
 N179 N 0.00793 0.29002 0.12520
 N180 N -0.01723 0.26104 0.12403
 C181 C -0.01546 0.22686 0.14259
 C182 C -0.04305 0.19535 0.13905
 C183 C -0.04125 0.16061 0.15614
 C184 C -0.01176 0.15685 0.17719
 C185 C 0.01547 0.18897 0.18100
 C186 C 0.01375 0.22368 0.16379
 H187 H 0.05954 0.40781 0.09006
 H188 H 0.05940 0.35152 0.12346
 H189 H -0.04766 0.30358 0.08382
 H190 H -0.04775 0.35979 0.05076
 H191 H -0.06577 0.19754 0.12283
 H192 H -0.06307 0.13672 0.15293
 H193 H 0.03873 0.18673 0.19693
 H194 H 0.03544 0.24769 0.16690
 C195 C 0.40465 -0.03554 0.59234
 C196 C 0.37446 -0.03838 0.61197
 C197 C 0.33359 -0.01471 0.61018
 C198 C 0.32366 0.01312 0.58896
 C199 C 0.35418 0.01684 0.56971
 C200 C 0.39469 -0.00800 0.57098
 N201 N 0.30256 -0.01939 0.62994
 N202 N 0.26239 -0.01035 0.62534
 C203 C 0.23052 -0.01345 0.64479
 C204 C 0.18779 -0.01495 0.63678
 C205 C 0.15558 -0.01695 0.65518
 C206 C 0.16554 -0.01639 0.68196
 C207 C 0.20838 -0.01461 0.69006
 C208 C 0.24083 -0.01365 0.67158
 H209 H 0.43571 -0.05494 0.59371
 H210 H 0.38253 -0.05980 0.62829
 H211 H 0.29246 0.03218 0.58738
 H212 H 0.34605 0.03873 0.55362
 H213 H 0.17948 -0.01458 0.61619
 H214 H 0.12265 -0.01783 0.64854
 H215 H 0.21663 -0.01403 0.71064
 H216 H 0.27366 -0.01213 0.67817
 C217 C -0.38321 0.04813 0.57979
 C218 C -0.35027 0.05069 0.59825
 C219 C -0.32029 0.01482 0.60355
 C220 C -0.32409 -0.02412 0.59053
 C221 C -0.35730 -0.02689 0.57234
 C222 C -0.38710 0.00927 0.56662
 N223 N -0.28599 0.01879 0.62188
 N224 N -0.25418 -0.01042 0.62428
 C225 C -0.21952 -0.00720 0.64244
 C226 C -0.18260 -0.03704 0.64077
 C227 C -0.14770 -0.03445 0.65773
 C228 C -0.14946 -0.00223 0.67697
 C229 C -0.18687 0.02731 0.67897
 C230 C -0.22159 0.02507 0.66169
 H231 H -0.40527 0.07668 0.57546
 H232 H -0.34760 0.08090 0.60810
 H233 H -0.30146 -0.05240 0.59442
 H234 H -0.35978 -0.05731 0.56264
 H235 H -0.18073 -0.06212 0.62608
 H236 H -0.11942 -0.05789 0.65600
 H237 H -0.18890 0.05252 0.69358
 H238 H -0.24994 0.04839 0.66340
 C239 C 0.01955 -0.40270 0.90803
 C240 C 0.02034 -0.37073 0.88914
 C241 C 0.00642 -0.32778 0.89513
 C242 C -0.00954 -0.31717 0.92009
 C243 C -0.01102 -0.34908 0.93885
 C244 C 0.00410 -0.39242 0.93334
 N245 N 0.00892 -0.29548 0.87571
 N246 N 0.00507 -0.25572 0.88160
 C247 C 0.00680 -0.22274 0.86255
 C248 C 0.01005 -0.18081 0.87111
 C249 C 0.01155 -0.14769 0.85314
 C250 C 0.00908 -0.15591 0.82622
 C251 C 0.00551 -0.19799 0.81762
 C252 C 0.00471 -0.23127 0.83564
 H253 H 0.03246 -0.43529 0.90302
 H254 H 0.03278 -0.37933 0.86996
 H255 H -0.02120 -0.28424 0.92506
 H256 H -0.02471 -0.33979 0.95765
 H257 H 0.01151 -0.17384 0.89180
 H258 H 0.01384 -0.11545 0.86026
 H259 H 0.00373 -0.20513 0.79696
 H260 H 0.00199 -0.26345 0.82859
 C261 C -0.04248 0.36098 0.93746
 C262 C -0.04743 0.32806 0.91963
 C263 C -0.02112 0.32223 0.89771
 C264 C 0.00976 0.35050 0.89343
 C265 C 0.01474 0.38349 0.91129
 C266 C -0.01094 0.38854 0.93362
 N267 N -0.02523 0.28635 0.88086
 N268 N -0.00201 0.27839 0.86080
 C269 C -0.00530 0.24134 0.84475
 C270 C 0.02135 0.23420 0.82305
 C271 C 0.02070 0.19708 0.80789
 C272 C -0.00665 0.16631 0.81427
 C273 C -0.03402 0.17400 0.83578
 C274 C -0.03339 0.21117 0.85088
 H275 H -0.06271 0.36456 0.95452
 H276 H -0.07131 0.30651 0.92313
 H277 H 0.03048 0.34661 0.87662
 H278 H 0.03921 0.40450 0.90804
 H279 H 0.04326 0.25711 0.81817
 H280 H 0.04249 0.19185 0.79162
 H281 H -0.05586 0.15121 0.84098
 H282 H -0.05441 0.21597 0.86753
 C283 C -0.38742 -0.03187 0.41409
 C284 C -0.35554 -0.03296 0.39515
 C285 C -0.32983 0.00049 0.39342
 C286 C -0.33694 0.03568 0.41061
 C287 C -0.36875 0.03672 0.42960
 C288 C -0.39380 0.00269 0.43165
 N289 N -0.29585 -0.00281 0.37476
 N290 N -0.27188 0.02681 0.37180
 C291 C -0.23697 0.02292 0.35378
 C292 C -0.21343 0.05770 0.35061
 C293 C -0.17831 0.05455 0.33381
 C294 C -0.16595 0.01627 0.31999
 C295 C -0.18980 -0.01858 0.32311
 C296 C -0.22508 -0.01528 0.33981
 H297 H -0.40652 -0.05837 0.41545
 H298 H -0.35036 -0.06023 0.38203
 H299 H -0.31749 0.06193 0.40967
 H300 H -0.37339 0.06365 0.44301
 H301 H -0.22214 0.08723 0.36136
 H302 H -0.16026 0.08175 0.33203
 H303 H -0.18131 -0.04829 0.31251
 H304 H -0.24275 -0.04266 0.34195
 C305 C 0.34763 0.03288 0.44008
 C306 C 0.31261 0.03579 0.42274
 C307 C 0.31261 0.00780 0.40141
 C308 C 0.34847 -0.02314 0.39739
 C309 C 0.38359 -0.02613 0.41481
 C310 C 0.38326 0.00173 0.43636
 N311 N 0.27539 0.01101 0.38463
 N312 N 0.27277 -0.01267 0.36457
 C313 C 0.23464 -0.00931 0.34848
 C314 C 0.23382 -0.03529 0.32624
 C315 C 0.19664 -0.03344 0.31057
 C316 C 0.15952 -0.00563 0.31703
 C317 C 0.16060 0.02068 0.33926
 C318 C 0.19778 0.01892 0.35483
 H319 H 0.34689 0.05471 0.45656
 H320 H 0.28518 0.05971 0.42603
 H321 H 0.34914 -0.04517 0.38104
 H322 H 0.41078 -0.05043 0.41171
 H323 H 0.26195 -0.05727 0.32117
 H324 H 0.19664 -0.05438 0.29371
 H325 H 0.13273 0.04286 0.34453
 H326 H 0.19758 0.03943 0.37189
   
