data_POSCAR
  _audit_creation_date              2014-09-24
  _audit_creation_method            'ToBaCCo'
  _symmetry_space_group_name_H-M    'P1'
  _symmetry_Int_Tables_number       1
  _symmetry_cell_setting            triclinic
  loop_
  _symmetry_equiv_pos_as_xyz
 x,y,z
_cell_length_a 39.4814
_cell_length_b 39.1516
_cell_length_c 40.1715
_cell_angle_alpha 89.580100
_cell_angle_beta 90.316000
_cell_angle_gamma 90.118700
loop_
  _atom_site_label
  _atom_site_type_symbol
  _atom_site_fract_x
  _atom_site_fract_y
  _atom_site_fract_z
C1 C 0.38567 0.28189 0.03412
 C2 C 0.39686 0.26722 0.00450
 C3 C 0.38388 0.27675 -0.02697
 C4 C 0.35923 0.30332 -0.02861
 C5 C 0.34755 0.31859 0.00129
 C6 C 0.36075 0.30771 0.03264
 C7 C 0.34797 0.32223 0.06188
 C8 C 0.32287 0.34696 0.06062
 C9 C 0.30941 0.35825 0.03009
 C10 C 0.32179 0.34410 -0.00000
 C11 C 0.34437 0.31376 -0.05900
 C12 C 0.31935 0.33872 -0.06026
 C13 C 0.30764 0.35452 -0.03120
 C14 C 0.28076 0.37875 -0.03210
 C15 C 0.26991 0.39272 -0.00183
 C16 C 0.28308 0.38250 0.02898
 H17 H 0.35665 0.31414 0.08625
 H18 H 0.31372 0.35669 0.08404
 H19 H 0.35096 0.30220 -0.08238
 H20 H 0.30868 0.34457 -0.08444
 H21 H 0.41778 0.24945 0.00614
 H22 H 0.25166 0.41335 -0.00203
 C23 C 0.70419 0.60192 0.03164
 C24 C 0.71729 0.59225 0.00086
 C25 C 0.70533 0.60626 -0.02910
 C26 C 0.67864 0.63029 -0.02836
 C27 C 0.66457 0.64000 0.00265
 C28 C 0.67715 0.62538 0.03274
 C29 C 0.66331 0.63559 0.06319
 C30 C 0.63808 0.66023 0.06427
 C31 C 0.62585 0.67578 0.03496
 C32 C 0.63892 0.66545 0.00371
 C33 C 0.66672 0.64596 -0.05763
 C34 C 0.64194 0.67111 -0.05663
 C35 C 0.62751 0.68146 -0.02629
 C36 C 0.60374 0.70874 -0.02472
 C37 C 0.59113 0.71804 0.00666
 C38 C 0.60185 0.70231 0.03625
 H39 H 0.67226 0.62505 0.08660
 H40 H 0.62885 0.66755 0.08850
 H41 H 0.67713 0.63966 -0.08167
 H42 H 0.63522 0.68279 -0.08015
 H43 H 0.73738 0.57340 0.00030
 H44 H 0.57128 0.73700 0.00835
 C45 C 0.62758 0.26982 1.02592
 C46 C 0.61217 0.25966 0.99631
 C47 C 0.61801 0.27673 0.96613
 C48 C 0.63995 0.30530 0.96558
 C49 C 0.65594 0.31606 0.99555
 C50 C 0.64953 0.29837 1.02589
 C51 C 0.66640 0.30866 1.05494
 C52 C 0.68921 0.33576 1.05443
 C53 C 0.69634 0.35373 1.02473
 C54 C 0.67960 0.34351 0.99486
 C55 C 0.64754 0.32235 0.93564
 C56 C 0.67103 0.34885 0.93485
 C57 C 0.68759 0.35954 0.96401
 C58 C 0.71288 0.38495 0.96295
 C59 C 0.72856 0.39519 0.99250
 C60 C 0.72130 0.37999 1.02350
 H61 H 0.66269 0.29538 1.07835
 H62 H 0.70198 0.34138 1.07758
 H63 H 0.63608 0.31479 0.91230
 H64 H 0.67649 0.36054 0.91097
 H65 H 0.59520 0.23782 0.99681
 H66 H 0.74599 0.41654 0.99102
 C67 C 0.28334 0.61790 0.97260
 C68 C 0.26974 0.60844 1.00328
 C69 C 0.27715 0.62600 1.03289
 C70 C 0.30067 0.65359 1.03157
 C71 C 0.31561 0.66291 1.00058
 C72 C 0.30726 0.64459 0.97116
 C73 C 0.32187 0.65436 0.94078
 C74 C 0.34352 0.68223 0.93885
 C75 C 0.35106 0.70171 0.96714
 C76 C 0.33742 0.69187 0.99851
 C77 C 0.30753 0.67395 1.05957
 C78 C 0.32835 0.70265 1.05737
 C79 C 0.34413 0.71190 1.02733
 C80 C 0.36382 0.74228 1.02412
 C81 C 0.37576 0.75176 0.99268
 C82 C 0.37046 0.73183 0.96445
 H83 H 0.31619 0.64097 0.91796
 H84 H 0.35326 0.68908 0.91457
 H85 H 0.29567 0.66901 1.08329
 H86 H 0.33057 0.71826 1.07932
 H87 H 0.25340 0.58615 1.00385
 H88 H 0.39153 0.77442 0.99045
 C89 C 0.03141 0.38115 0.28048
 C90 C 0.00100 0.39076 0.26528
 C91 C -0.03063 0.37818 0.27572
 C92 C -0.03159 0.35573 0.30375
 C93 C -0.00079 0.34593 0.31978
 C94 C 0.03072 0.35885 0.30811
 C95 C 0.06087 0.34825 0.32360
 C96 C 0.06039 0.32508 0.34987
 C97 C 0.02971 0.31167 0.36182
 C98 C -0.00131 0.32216 0.34678
 C99 C -0.06209 0.34108 0.31497
 C100 C -0.06258 0.31775 0.34123
 C101 C -0.03261 0.30787 0.35773
 C102 C -0.03259 0.28256 0.38334
 C103 C -0.00156 0.27403 0.39853
 C104 C 0.02936 0.28722 0.38774
 H105 H 0.08531 0.35724 0.31513
 H106 H 0.08455 0.31736 0.36022
 H107 H -0.08606 0.34644 0.30299
 H108 H -0.08690 0.30698 0.34766
 H109 H 0.00228 0.41003 0.24582
 H110 H -0.00133 0.25750 0.42028
 C111 C 0.03018 0.62609 0.72026
 C112 C -0.00123 0.61710 0.73351
 C113 C -0.03149 0.63382 0.72444
 C114 C -0.02987 0.66045 0.70013
 C115 C 0.00186 0.66924 0.68557
 C116 C 0.03182 0.65161 0.69538
 C117 C 0.06287 0.66081 0.68101
 C118 C 0.06486 0.68718 0.65782
 C119 C 0.03594 0.70577 0.64838
 C120 C 0.00398 0.69678 0.66224
 C121 C -0.05841 0.68032 0.69181
 C122 C -0.05613 0.70781 0.66971
 C123 C -0.02546 0.71616 0.65395
 C124 C -0.02231 0.74506 0.63244
 C125 C 0.00957 0.75347 0.61976
 C126 C 0.03849 0.73410 0.62657
 H127 H 0.08619 0.64810 0.68796
 H128 H 0.08966 0.69359 0.64832
 H129 H -0.08268 0.67597 0.70343
 H130 H -0.07858 0.72315 0.66622
 H131 H -0.00190 0.59540 0.75038
 H132 H 0.01140 0.77456 0.60218
 C133 C 1.02801 0.59576 0.29307
 C134 C 0.99676 0.58353 0.28167
 C135 C 0.96613 0.59497 0.29481
 C136 C 0.96654 0.61843 0.32133
 C137 C 0.99802 0.63105 0.33349
 C138 C 1.02884 0.61944 0.31944
 C139 C 1.05956 0.63300 0.33102
 C140 C 1.06021 0.65797 0.35540
 C141 C 1.03010 0.67037 0.36965
 C142 C 0.99861 0.65653 0.35859
 C143 C 0.93633 0.63068 0.33502
 C144 C 0.93684 0.65548 0.35960
 C145 C 0.96760 0.66908 0.37143
 C146 C 0.96804 0.69588 0.39473
 C147 C 0.99915 0.70971 0.40488
 C148 C 1.03036 0.69777 0.39277
 H149 H 1.08353 0.62512 0.32067
 H150 H 1.08482 0.66801 0.36187
 H151 H 0.91191 0.62167 0.32637
 H152 H 0.91271 0.66451 0.36859
 H153 H 0.99622 0.56496 0.26176
 H154 H 0.99884 0.72910 0.42398
 C155 C 1.03007 0.30066 0.60540
 C156 C 0.99981 0.28636 0.59369
 C157 C 0.96821 0.29683 0.60565
 C158 C 0.96683 0.32280 0.62999
 C159 C 0.99743 0.33700 0.64270
 C160 C 1.02907 0.32601 0.63015
 C161 C 1.05903 0.33954 0.64363
 C162 C 1.05819 0.36273 0.66960
 C163 C 1.02725 0.37409 0.68284
 C164 C 0.99645 0.36135 0.66883
 C165 C 0.93580 0.33398 0.64290
 C166 C 0.93474 0.35812 0.66815
 C167 C 0.96468 0.37180 0.68172
 C168 C 0.96375 0.39481 0.70857
 C169 C 0.99420 0.40673 0.72217
 C170 C 1.02607 0.39609 0.71084
 H171 H 1.08363 0.33153 0.63487
 H172 H 1.08236 0.37087 0.67938
 H173 H 0.91197 0.32373 0.63402
 H174 H 0.91015 0.36533 0.67752
 H175 H 1.00090 0.26698 0.57457
 H176 H 0.99276 0.42600 0.74134
 C177 C 0.38104 -0.02864 0.28802
 C178 C 0.39962 0.00110 0.28019
 C179 C 0.39121 0.03320 0.29267
 C180 C 0.36437 0.03587 0.31561
 C181 C 0.34484 0.00646 0.32392
 C182 C 0.35291 -0.02577 0.30986
 C183 C 0.33087 -0.05345 0.31582
 C184 C 0.30220 -0.04993 0.33551
 C185 C 0.29482 -0.01903 0.35151
 C186 C 0.31613 0.00972 0.34507
 C187 C 0.35569 0.06751 0.32943
 C188 C 0.32832 0.07053 0.35066
 C189 C 0.30795 0.04221 0.35843
 C190 C 0.27859 0.04607 0.37781
 C191 C 0.25756 0.01784 0.38316
 C192 C 0.26516 -0.01474 0.37118
 H193 H 0.33438 -0.07785 0.30397
 H194 H 0.28522 -0.07152 0.33662
 H195 H 0.36950 0.09062 0.32361
 H196 H 0.32257 0.09573 0.35992
 H197 H 0.42217 -0.00063 0.26507
 H198 H 0.23553 0.02096 0.39891
 C199 C 0.70493 -0.03492 0.60490
 C200 C 0.71757 -0.00324 0.59367
 C201 C 0.70556 0.02795 0.60555
 C202 C 0.67916 0.02813 0.62908
 C203 C 0.66596 -0.00336 0.64119
 C204 C 0.67854 -0.03497 0.62891
 C205 C 0.66596 -0.06561 0.64279
 C206 C 0.64200 -0.06539 0.66798
 C207 C 0.62946 -0.03459 0.68049
 C208 C 0.64115 -0.00322 0.66676
 C209 C 0.66652 0.05894 0.64175
 C210 C 0.64188 0.05903 0.66639
 C211 C 0.62913 0.02831 0.67955
 C212 C 0.60569 0.02816 0.70608
 C213 C 0.59455 -0.00314 0.71910
 C214 C 0.60660 -0.03432 0.70737
 H215 H 0.67518 -0.09033 0.63540
 H216 H 0.63393 -0.08977 0.67804
 H217 H 0.67601 0.08339 0.63316
 H218 H 0.63352 0.08349 0.67560
 H219 H 0.73630 -0.00241 0.57407
 H220 H 0.57604 -0.00330 0.73896
 C221 C 0.39513 0.96906 0.70488
 C222 C 0.40183 1.00009 0.72051
 C223 C 0.38410 1.03022 0.71276
 C224 C 0.35942 1.02922 0.68686
 C225 C 0.35320 0.99796 0.66981
 C226 C 0.37160 0.96800 0.67848
 C227 C 0.36499 0.93744 0.66153
 C228 C 0.34012 0.93589 0.63698
 C229 C 0.32048 0.96466 0.62895
 C230 C 0.32710 0.99608 0.64538
 C231 C 0.33897 1.05768 0.67922
 C232 C 0.31284 1.05551 0.65594
 C233 C 0.30640 1.02503 0.63883
 C234 C 0.27881 1.02204 0.61647
 C235 C 0.27303 0.99120 0.60029
 C236 C 0.29321 0.96242 0.60620
 H237 H 0.37869 0.91424 0.66739
 H238 H 0.33574 0.91154 0.62510
 H239 H 0.34189 1.08167 0.69205
 H240 H 0.29731 1.07791 0.65196
 H241 H 0.42200 1.00050 0.73893
 H242 H 0.25193 0.98948 0.58294
 C243 C 0.63025 0.96752 0.26612
 C244 C 0.62422 0.99828 0.24924
 C245 C 0.63765 1.02951 0.25988
 C246 C 0.65917 1.03003 0.28846
 C247 C 0.66666 0.99879 0.30537
 C248 C 0.65221 0.96756 0.29407
 C249 C 0.66125 0.93687 0.31009
 C250 C 0.68418 0.93651 0.33641
 C251 C 0.69873 0.96688 0.34821
 C252 C 0.68974 0.99848 0.33285
 C253 C 0.67580 1.05994 0.29889
 C254 C 0.69759 1.05982 0.32627
 C255 C 0.70478 1.02954 0.34401
 C256 C 0.72833 1.02891 0.37103
 C257 C 0.73612 0.99715 0.38580
 C258 C 0.72287 0.96633 0.37426
 H259 H 0.65163 0.91249 0.30175
 H260 H 0.69072 0.91193 0.34704
 H261 H 0.67328 1.08372 0.28537
 H262 H 0.70981 1.08371 0.33233
 H263 H 0.60667 0.99840 0.22836
 H264 H 0.75173 0.99609 0.40803
 O265 O 0.84774 0.88351 0.53478
 O266 O 0.89550 0.83599 0.47414
 O267 O 0.85129 0.88333 0.47162
 O268 O 0.88077 0.82493 0.53785
 O269 O 0.83547 0.79261 0.53086
 O270 O 0.80661 0.85018 0.46379
 O271 O 0.85307 0.79993 0.46691
 O272 O 0.80264 0.85086 0.52739
 Cu273 Cu 0.87326 0.85935 0.50600
 Cu274 Cu 0.82090 0.81974 0.49608
 C275 C 0.81710 0.87660 0.54078
 C276 C 0.88304 0.81007 0.46011
 C277 C 0.82348 0.87687 0.45672
 C278 C 0.86315 0.79879 0.54573
 O279 O 0.17898 0.12479 0.54127
 O280 O 0.11239 0.15818 0.48567
 O281 O 0.15932 0.11624 0.47832
 O282 O 0.12063 0.15890 0.54837
 O283 O 0.15128 0.20508 0.53854
 O284 O 0.19388 0.15984 0.46935
 O285 O 0.14546 0.20208 0.47326
 O286 O 0.21078 0.16989 0.53053
 Cu287 Cu 0.14079 0.13485 0.51543
 Cu288 Cu 0.17823 0.18890 0.50328
 C289 C 0.20657 0.14129 0.54484
 C290 C 0.11791 0.18574 0.46958
 C291 C 0.18249 0.13044 0.46152
 C292 C 0.12768 0.18975 0.55430
 O293 O 0.11696 0.85077 0.51606
 O294 O 0.17461 0.87998 0.45019
 O295 O 0.11526 0.84553 0.45319
 O296 O 0.16476 0.89161 0.51441
 O297 O 0.19961 0.84792 0.52137
 O298 O 0.14701 0.79970 0.46038
 O299 O 0.20753 0.83541 0.45915
 O300 O 0.15056 0.80668 0.52601
 Cu301 Cu 0.14060 0.87148 0.48122
 Cu302 Cu 0.17888 0.81754 0.49106
 C303 C 0.12446 0.82413 0.53285
 C304 C 0.20158 0.86341 0.44425
 C305 C 0.12117 0.81441 0.44762
 C306 C 0.18977 0.87787 0.52902
 O307 O 0.90153 0.14440 0.53834
 O308 O 0.85965 0.09365 0.47429
 O309 O 0.90464 0.14128 0.47434
 O310 O 0.85532 0.09732 0.53835
 O311 O 0.81468 0.13572 0.53332
 O312 O 0.86515 0.18087 0.46884
 O313 O 0.81932 0.13230 0.46834
 O314 O 0.86243 0.18442 0.53338
 Cu315 Cu 0.88415 0.11530 0.50692
 Cu316 Cu 0.83619 0.16229 0.50074
 C317 C 0.88987 0.17331 0.54627
 C318 C 0.83265 0.10397 0.46032
 C319 C 0.89369 0.16850 0.46085
 C320 C 0.82641 0.10845 0.54635
 O321 O 0.47271 0.90592 0.84872
 O322 O 0.53051 0.85885 0.90327
 O323 O 0.53792 0.90219 0.85412
 O324 O 0.46546 0.86326 0.89633
 O325 O 0.46593 0.82022 0.86103
 O326 O 0.53808 0.86039 0.81747
 O327 O 0.53151 0.81600 0.86782
 O328 O 0.47276 0.86376 0.81238
 Cu329 Cu 0.50197 0.88676 0.87922
 Cu330 Cu 0.50254 0.83563 0.83608
 C331 C 0.46256 0.89297 0.82161
 C332 C 0.54020 0.82917 0.89546
 C333 C 0.54952 0.88873 0.82796
 C334 C 0.45315 0.83540 0.88583
 O335 O 0.54981 0.18192 0.13451
 O336 O 0.49247 0.11680 0.16839
 O337 O 0.48860 0.16224 0.12163
 O338 O 0.55384 0.13606 0.18167
 O339 O 0.53492 0.17296 0.21839
 O340 O 0.46949 0.20042 0.15709
 O341 O 0.47329 0.15378 0.20501
 O342 O 0.53097 0.21969 0.17045
 Cu343 Cu 0.52325 0.14559 0.14805
 Cu344 Cu 0.50027 0.19051 0.19143
 C345 C 0.54973 0.21204 0.14604
 C346 C 0.47332 0.12398 0.19258
 C347 C 0.46823 0.18603 0.12879
 C348 C 0.55522 0.14926 0.21043
 O349 O 0.53164 0.09058 0.85170
 O350 O 0.47026 0.13422 0.90391
 O351 O 0.46632 0.09028 0.85599
 O352 O 0.53537 0.13491 0.89825
 O353 O 0.53196 0.17733 0.86180
 O354 O 0.46266 0.13149 0.81828
 O355 O 0.46625 0.17647 0.86735
 O356 O 0.52865 0.13180 0.81393
 Cu357 Cu 0.50105 0.10836 0.88111
 Cu358 Cu 0.49689 0.15855 0.83654
 C359 C 0.54070 0.10342 0.82410
 C360 C 0.45825 0.16290 0.89513
 C361 C 0.45318 0.10267 0.82970
 C362 C 0.54534 0.16371 0.88751
 O363 O 0.52062 0.88721 0.14717
 O364 O 0.45385 0.82754 0.12025
 O365 O 0.45632 0.88758 0.15113
 O366 O 0.51879 0.83843 0.10687
 O367 O 0.52646 0.80390 0.15002
 O368 O 0.46329 0.85605 0.19642
 O369 O 0.46345 0.79488 0.16426
 O370 O 0.53056 0.85418 0.19098
 Cu371 Cu 0.48556 0.86249 0.12696
 Cu372 Cu 0.49581 0.82466 0.18004
 C373 C 0.53722 0.88060 0.17369
 C374 C 0.44768 0.80067 0.13728
 C375 C 0.44984 0.88148 0.18133
 C376 C 0.53363 0.81330 0.12036
 O377 O 0.89927 0.53787 0.85680
 O378 O 0.85196 0.46861 0.89606
 O379 O 0.89825 0.47202 0.85167
 O380 O 0.85214 0.53441 0.90117
 O381 O 0.81268 0.53845 0.86214
 O382 O 0.85968 0.47533 0.81172
 O383 O 0.81208 0.47216 0.85737
 O384 O 0.86111 0.54216 0.81658
 Cu385 Cu 0.87926 0.50300 0.88028
 Cu386 Cu 0.83244 0.50755 0.83286
 C387 C 0.88886 0.55157 0.82999
 C388 C 0.82407 0.45859 0.88380
 C389 C 0.88702 0.46289 0.82348
 C390 C 0.82438 0.54664 0.89056
 O391 O 0.14075 0.46790 0.09506
 O392 O 0.09356 0.52994 0.14395
 O393 O 0.13809 0.53385 0.09699
 O394 O 0.09675 0.46401 0.14169
 O395 O 0.13722 0.46429 0.17993
 O396 O 0.17970 0.53487 0.13396
 O397 O 0.13413 0.53047 0.18206
 O398 O 0.18232 0.46805 0.13212
 Cu399 Cu 0.11325 0.49904 0.11570
 Cu400 Cu 0.16261 0.49961 0.16082
 C401 C 0.16938 0.45731 0.10507
 C402 C 0.10528 0.54029 0.17153
 C403 C 0.16598 0.54598 0.10729
 C404 C 0.10960 0.45232 0.16839
 O405 O 0.90582 0.47013 0.13770
 O406 O 0.85583 0.53753 0.09777
 O407 O 0.90117 0.53568 0.14428
 O408 O 0.86081 0.47236 0.09075
 O409 O 0.82032 0.46426 0.12776
 O410 O 0.86159 0.52816 0.18233
 O411 O 0.81509 0.52985 0.13461
 O412 O 0.86610 0.46231 0.17555
 Cu413 Cu 0.88495 0.50467 0.11397
 Cu414 Cu 0.83667 0.49544 0.15893
 C415 C 0.89486 0.45500 0.16349
 C416 C 0.82673 0.54473 0.10884
 C417 C 0.88873 0.54247 0.17246
 C418 C 0.83357 0.45790 0.09969
 O419 O 0.14175 0.53306 0.90419
 O420 O 0.09327 0.47031 0.85701
 O421 O 0.13979 0.46704 0.90259
 O422 O 0.09628 0.53610 0.85831
 O423 O 0.13535 0.53599 0.81914
 O424 O 0.18010 0.46619 0.86470
 O425 O 0.13233 0.46968 0.81785
 O426 O 0.18216 0.53296 0.86635
 Cu427 Cu 0.11391 0.50152 0.88435
 Cu428 Cu 0.16161 0.50105 0.83810
 C429 C 0.17006 0.54371 0.89363
 C430 C 0.10387 0.45985 0.82920
 C431 C 0.16743 0.45514 0.89178
 C432 C 0.10799 0.54766 0.83116
 C433 C 0.26866 0.39842 0.05931
 C434 C 0.23515 0.40237 0.06213
 C435 C 0.21957 0.42400 0.08765
 C436 C 0.18698 0.43250 0.08412
 H437 H 0.21871 0.39128 0.04334
 H438 H 0.23489 0.43474 0.10746
 H439 H 0.28553 0.40857 0.07817
 H440 H 0.17265 0.42230 0.06330
 C441 C 0.72057 0.58782 0.06202
 C442 C 0.75411 0.59021 0.06580
 C443 C 0.77272 0.57098 0.09158
 C444 C 0.80647 0.56968 0.09006
 H445 H 0.76855 0.60461 0.04752
 H446 H 0.75900 0.55521 0.10925
 H447 H 0.70538 0.57430 0.08025
 H448 H 0.81955 0.58456 0.07119
 C449 C 0.72470 0.40123 0.93155
 C450 C 0.75789 0.40247 0.92518
 C451 C 0.77296 0.42561 0.90021
 C452 C 0.80636 0.43107 0.90163
 H453 H 0.77494 0.38844 0.94156
 H454 H 0.75696 0.44049 0.88360
 H455 H 0.70672 0.41430 0.91548
 H456 H 0.82137 0.41697 0.91977
 C457 C 0.27020 0.60020 0.94252
 C458 C 0.23674 0.59699 0.93810
 C459 C 0.22129 0.57525 0.91235
 C460 C 0.18813 0.56866 0.91428
 H461 H 0.21999 0.60928 0.95568
 H462 H 0.23688 0.56295 0.89386
 H463 H 0.28765 0.58901 0.92500
 H464 H 0.17355 0.58027 0.93401
 C465 C 0.06069 0.27484 0.40453
 C466 C 0.06431 0.24188 0.41275
 C467 C 0.09281 0.22970 0.43316
 C468 C 0.09166 0.19848 0.44676
 H469 H 0.04496 0.22362 0.40554
 H470 H 0.11377 0.24678 0.43846
 H471 H 0.08029 0.29297 0.41122
 H472 H 0.06992 0.18216 0.44218
 C473 C 0.07023 0.74284 0.60845
 C474 C 0.07827 0.77522 0.60101
 C475 C 0.10385 0.78389 0.57586
 C476 C 0.10229 0.81425 0.56051
 H477 H 0.06354 0.79588 0.61139
 H478 H 0.12204 0.76484 0.56818
 H479 H 0.08538 0.72232 0.59845
 H480 H 0.08275 0.83225 0.56746
 C481 C 0.93651 0.70997 0.40939
 C482 C 0.93176 0.74368 0.41129
 C483 C 0.90376 0.75902 0.43022
 C484 C 0.90468 0.79255 0.43604
 H485 H 0.95046 0.76060 0.40023
 H486 H 0.88468 0.74297 0.44174
 H487 H 0.91776 0.69259 0.41953
 H488 H 0.92524 0.80757 0.42565
 C489 C 0.93737 0.27988 0.59208
 C490 C 0.93543 0.24580 0.59065
 C491 C 0.90829 0.22762 0.57248
 C492 C 0.91003 0.19363 0.56990
 H493 H 0.95580 0.23082 0.60159
 H494 H 0.88915 0.24191 0.55890
 H495 H 0.91687 0.29542 0.58232
 H496 H 0.93021 0.18020 0.58290
 C497 C 0.41090 0.06347 0.28093
 C498 C 0.41896 0.06752 0.24881
 C499 C 0.43887 0.09695 0.23673
 C500 C 0.45133 0.09682 0.20586
 H501 H 0.41091 0.04850 0.23092
 H502 H 0.44440 0.11797 0.25333
 H503 H 0.41868 0.08272 0.29863
 H504 H 0.44698 0.07477 0.19020
 C505 C 0.59233 0.05984 0.72144
 C506 C 0.59114 0.06245 0.75461
 C507 C 0.57075 0.08827 0.77196
 C508 C 0.56524 0.08392 0.80454
 H509 H 0.60321 0.04271 0.76960
 H510 H 0.55802 0.10836 0.75807
 H511 H 0.58137 0.07955 0.70571
 H512 H 0.57729 0.06265 0.81735
 C513 C 0.41183 0.93816 0.71885
 C514 C 0.41095 0.93281 0.75172
 C515 C 0.43289 0.90820 0.76916
 C516 C 0.43844 0.91282 0.80163
 H517 H 0.39569 0.94971 0.76681
 H518 H 0.44618 0.88861 0.75553
 H519 H 0.42630 0.92156 0.70287
 H520 H 0.42623 0.93395 0.81410
 C521 C 0.61117 0.93643 0.25550
 C522 C 0.60286 0.93067 0.22363
 C523 C 0.57863 0.90371 0.21412
 C524 C 0.56417 0.90441 0.18392
 H525 H 0.61253 0.94732 0.20422
 H526 H 0.57100 0.88473 0.23240
 H527 H 0.60175 0.91916 0.27452
 H528 H 0.57106 0.92446 0.16644
 C529 C 0.39679 0.26055 0.94419
 C530 C 0.40869 0.22842 0.94473
 C531 C 0.42567 0.21256 0.91610
 C532 C 0.43587 0.18010 0.91883
 H533 H 0.40588 0.21289 0.96699
 H534 H 0.43173 0.22767 0.89421
 H535 H 0.39692 0.27391 0.92055
 H536 H 0.42970 0.16581 0.94125
 C537 C 0.59197 0.72640 0.94648
 C538 C 0.58229 0.75923 0.94714
 C539 C 0.56752 0.77691 0.91799
 C540 C 0.56049 0.81019 0.92010
 H541 H 0.58563 0.77399 0.96965
 H542 H 0.56055 0.76257 0.89601
 H543 H 0.59137 0.71377 0.92266
 H544 H 0.56751 0.82382 0.94253
 C545 C 0.37231 0.76512 0.04981
 C546 C 0.38484 0.75622 0.07969
 C547 C 0.40266 0.78269 0.09917
 C548 C 0.42332 0.77516 0.12460
 H549 H 0.38680 0.72965 0.08717
 H550 H 0.40164 0.80888 0.09020
 H551 H 0.37556 0.79170 0.04247
 H552 H 0.42437 0.74932 0.13440
 C553 C 0.62190 0.24735 0.05507
 C554 C 0.60477 0.25729 0.08189
 C555 C 0.59125 0.23116 0.10485
 C556 C 0.57002 0.23886 0.12949
 H557 H 0.59775 0.28386 0.08477
 H558 H 0.59625 0.20455 0.09939
 H559 H 0.62673 0.22034 0.05160
 H560 H 0.56508 0.26533 0.13545
 C561 C 0.25271 0.04851 0.61139
 C562 C 0.25883 0.07798 0.59565
 C563 C 0.23012 0.09799 0.58251
 C564 C 0.23464 0.12622 0.56424
 H565 H 0.28458 0.08530 0.58957
 H566 H 0.20476 0.08776 0.58556
 H567 H 0.22666 0.04072 0.61543
 H568 H 0.25977 0.13703 0.56152
 C569 C 0.74326 0.05887 0.38458
 C570 C 0.77366 0.05819 0.39984
 C571 C 0.78754 0.08634 0.42005
 C572 C 0.81737 0.08137 0.43532
 H573 H 0.78908 0.03540 0.39817
 H574 H 0.77287 0.10924 0.42430
 H575 H 0.73008 0.08303 0.38299
 H576 H 0.83108 0.05791 0.43064
 C577 C 0.71864 0.93454 0.59172
 C578 C 0.75109 0.93226 0.58229
 C579 C 0.76557 0.90181 0.56629
 C580 C 0.79911 0.90055 0.56237
 H581 H 0.76819 0.95339 0.58706
 H582 H 0.74920 0.88232 0.55588
 H583 H 0.70325 0.91174 0.59006
 H584 H 0.81454 0.92063 0.57318
 C585 C 0.24138 0.95969 0.37972
 C586 C 0.24846 0.92761 0.38933
 C587 C 0.22125 0.90716 0.40497
 C588 C 0.22721 0.87803 0.42153
 H589 H 0.27425 0.91826 0.39010
 H590 H 0.19601 0.91803 0.40564
 H591 H 0.21568 0.96836 0.38422
 H592 H 0.25218 0.86663 0.42098
 C593 C 0.05553 0.40807 0.72756
 C594 C 0.05555 0.41493 0.76027
 C595 C 0.08417 0.43132 0.77768
 C596 C 0.08139 0.43716 0.81029
 H597 H 0.03350 0.40855 0.77506
 H598 H 0.10561 0.44102 0.76374
 H599 H 0.07910 0.41124 0.71434
 H600 H 0.05921 0.42777 0.82334
 C601 C 0.05900 0.58391 0.27588
 C602 C 0.06041 0.58418 0.24264
 C603 C 0.08749 0.56705 0.22410
 C604 C 0.08393 0.56305 0.19126
 H605 H 0.03954 0.59531 0.22862
 H606 H 0.10832 0.55509 0.23742
 H607 H 0.07990 0.57377 0.29045
 H608 H 0.06205 0.57402 0.17874
 C609 C 0.93980 0.38962 0.25885
 C610 C 0.94019 0.39881 0.22659
 C611 C 0.91238 0.41769 0.21040
 C612 C 0.91703 0.42971 0.17953
 H613 H 0.96239 0.39368 0.21169
 H614 H 0.89009 0.42454 0.22447
 H615 H 0.91612 0.39164 0.27208
 H616 H 0.94007 0.42331 0.16639
 C617 C 0.93772 0.62258 0.73910
 C618 C 0.93690 0.60921 0.77000
 C619 C 0.90783 0.59023 0.78397
 C620 C 0.91093 0.57763 0.81490
 H621 H 0.95927 0.61113 0.78566
 H622 H 0.88622 0.58382 0.76847
 H623 H 0.91418 0.62447 0.72529
 H624 H 0.93322 0.58435 0.82940
 C625 C 0.72169 0.59521 0.93952
 C626 C 0.75544 0.59336 0.93745
 C627 C 0.77277 0.57612 0.90988
 C628 C 0.80591 0.56971 0.91268
 H629 H 0.77070 0.60257 0.95808
 H630 H 0.75821 0.56600 0.88922
 H631 H 0.70598 0.58701 0.91886
 H632 H 0.81960 0.57891 0.93433
 C633 C 0.26512 0.39041 0.93795
 C634 C 0.23256 0.40046 0.93721
 C635 C 0.21680 0.41956 0.90935
 C636 C 0.18446 0.42922 0.91253
 H637 H 0.21681 0.39564 0.95878
 H638 H 0.23198 0.42847 0.88864
 H639 H 0.27934 0.39149 0.91503
 H640 H 0.17030 0.42027 0.93398
 C641 C 0.26102 0.61512 0.06263
 C642 C 0.22957 0.60196 0.06211
 C643 C 0.21392 0.58353 0.09024
 C644 C 0.18223 0.57203 0.08627
 H645 H 0.21479 0.60362 0.03931
 H646 H 0.22889 0.57645 0.11189
 H647 H 0.27387 0.61746 0.08636
 H648 H 0.16817 0.57954 0.06411
 C649 C 0.73843 0.39194 0.05229
 C650 C 0.76984 0.40504 0.05109
 C651 C 0.78606 0.42207 0.07959
 C652 C 0.81728 0.43473 0.07592
 H653 H 0.78426 0.40364 0.02826
 H654 H 0.77186 0.42651 0.10215
 H655 H 0.72628 0.39047 0.07632
 H656 H 0.83072 0.43026 0.05287
 C657 C 0.95150 0.76741 0.62264
 C658 C 0.92127 0.75783 0.61059
 C659 C 0.90156 0.78326 0.59128
 C660 C 0.87590 0.77463 0.57123
 H661 H 0.91378 0.73120 0.61022
 H662 H 0.91060 0.80945 0.59077
 H663 H 0.95892 0.79375 0.61788
 H664 H 0.86594 0.74882 0.57170
 C665 C 0.93768 0.26588 0.39476
 C666 C 0.93868 0.23366 0.40646
 C667 C 0.91071 0.21708 0.42452
 C668 C 0.91577 0.18560 0.43666
 H669 H 0.96170 0.21889 0.40366
 H670 H 0.88797 0.23123 0.43035
 H671 H 0.91350 0.27878 0.39407
 H672 H 0.93912 0.17241 0.43079
 C673 C 0.06234 0.28818 0.59141
 C674 C 0.07086 0.25531 0.59409
 C675 C 0.10033 0.24111 0.57665
 C676 C 0.10625 0.20758 0.57833
 H677 H 0.05445 0.23811 0.60792
 H678 H 0.11469 0.25720 0.55974
 H679 H 0.07884 0.30609 0.57867
 H680 H 0.09064 0.19178 0.59441
 C681 C 0.06085 0.71303 0.40426
 C682 C 0.06293 0.74617 0.41222
 C683 C 0.09406 0.76182 0.42579
 C684 C 0.09592 0.79582 0.42771
 H685 H 0.04136 0.76275 0.40796
 H686 H 0.11394 0.74586 0.43616
 H687 H 0.08392 0.69825 0.40558
 H688 H 0.07552 0.81100 0.41711
 C689 C 0.59500 0.93410 0.72446
 C690 C 0.59677 0.93158 0.75763
 C691 C 0.57873 0.90475 0.77628
 C692 C 0.57519 0.90783 0.80919
 H693 H 0.60920 0.95178 0.77151
 H694 H 0.56493 0.88518 0.76286
 H695 H 0.58333 0.91396 0.70999
 H696 H 0.58776 0.92869 0.82192
 C697 C 0.39139 0.93971 0.27436
 C698 C 0.40607 0.93786 0.24439
 C699 C 0.42063 0.90636 0.23051
 C700 C 0.42801 0.90628 0.19810
 H701 H 0.40717 0.96053 0.22877
 H702 H 0.42759 0.88519 0.24664
 H703 H 0.38665 0.91609 0.28770
 H704 H 0.41996 0.92783 0.18288
 C705 C 0.62892 0.05786 0.23982
 C706 C 0.61813 0.08818 0.25087
 C707 C 0.60171 0.11145 0.22661
 C708 C 0.57913 0.13513 0.23538
 H709 H 0.61674 0.09349 0.27725
 H710 H 0.60498 0.10599 0.20039
 H711 H 0.62449 0.05263 0.21361
 H712 H 0.57548 0.14111 0.26141
 C713 C 0.39196 0.06017 0.73089
 C714 C 0.40172 0.05856 0.76295
 C715 C 0.41805 0.08698 0.78075
 C716 C 0.42806 0.08161 0.81222
 H717 H 0.39933 0.03454 0.77639
 H718 H 0.42540 0.10994 0.76737
 H719 H 0.39031 0.08499 0.71896
 H720 H 0.42076 0.05805 0.82466
 C721 C 0.58720 0.71461 0.06801
 C722 C 0.58608 0.74804 0.07433
 C723 C 0.56563 0.76267 0.10132
 C724 C 0.55943 0.79617 0.10040
 H725 H 0.59837 0.76550 0.05708
 H726 H 0.55303 0.74622 0.11921
 H727 H 0.57586 0.69643 0.08511
 H728 H 0.57077 0.81152 0.08080
 C729 C 0.40194 0.27093 0.06606
 C730 C 0.40991 0.23825 0.07227
 C731 C 0.42993 0.22792 0.10178
 C732 C 0.44366 0.19674 0.10312
 H733 H 0.40291 0.21884 0.05437
 H734 H 0.43553 0.24640 0.12102
 H735 H 0.40858 0.29016 0.08423
 H736 H 0.43927 0.17928 0.08270
 C737 C 0.60096 0.26349 0.93582
 C738 C 0.60055 0.22998 0.92972
 C739 C 0.57780 0.21459 0.90487
 C740 C 0.57230 0.18095 0.90622
 H741 H 0.61525 0.21305 0.94566
 H742 H 0.56328 0.23072 0.88806
 H743 H 0.58708 0.28097 0.91979
 H744 H 0.58592 0.16562 0.92447
 C745 C 0.38732 0.74261 0.93310
 C746 C 0.38870 0.77556 0.92436
 C747 C 0.41413 0.78860 0.90093
 C748 C 0.42391 0.82114 0.90343
 H749 H 0.37382 0.79393 0.93807
 H750 H 0.42727 0.77120 0.88461
 H751 H 0.40174 0.72392 0.91937
 H752 H 0.41168 0.83754 0.92138
 C753 C 0.73457 0.93425 0.39085
 C754 C 0.76730 0.92979 0.39875
 C755 C 0.77919 0.90128 0.41988
 C756 C 0.81092 0.90156 0.43180
 H757 H 0.78566 0.94885 0.39096
 H758 H 0.76153 0.88150 0.42748
 H759 H 0.71616 0.91502 0.39794
 H760 H 0.82783 0.92224 0.42482
 C761 C 0.28388 0.93031 0.58893
 C762 C 0.25156 0.92022 0.58826
 C763 C 0.23843 0.89505 0.56444
 C764 C 0.20587 0.89741 0.55569
 H765 H 0.23332 0.93403 0.60315
 H766 H 0.25527 0.87747 0.55205
 H767 H 0.30284 0.91681 0.57477
 H768 H 0.19038 0.91711 0.56682
 C769 C 0.26995 0.07862 0.39468
 C770 C 0.23785 0.08912 0.39659
 C771 C 0.22682 0.11412 0.42144
 C772 C 0.19510 0.11195 0.43256
 H773 H 0.21850 0.07573 0.38249
 H774 H 0.24499 0.13106 0.43316
 H775 H 0.28959 0.09196 0.40837
 H776 H 0.17827 0.09281 0.42215
 C777 C 0.72164 0.05973 0.59261
 C778 C 0.75540 0.06263 0.59203
 C779 C 0.77312 0.08989 0.57348
 C780 C 0.80676 0.08800 0.57027
 H781 H 0.77052 0.04260 0.60353
 H782 H 0.75875 0.10913 0.56000
 H783 H 0.70587 0.07976 0.58213
 H784 H 0.82031 0.06768 0.58309
 C785 C 0.93446 0.58292 0.27866
 C786 C 0.93090 0.58601 0.24567
 C787 C 0.90481 0.56751 0.22664
 C788 C 0.90746 0.56654 0.19351
 H789 H 0.95004 0.60008 0.23190
 H790 H 0.88620 0.55195 0.23948
 H791 H 0.91552 0.56974 0.29336
 H792 H 0.92733 0.58119 0.18145
 C793 C 0.93173 0.40770 0.72325
 C794 C 0.92860 0.40958 0.75634
 C795 C 0.90284 0.43070 0.77277
 C796 C 0.90705 0.43782 0.80504
 H797 H 0.94804 0.39795 0.77188
 H798 H 0.88279 0.44264 0.75832
 H799 H 0.91235 0.41829 0.70704
 H800 H 0.92818 0.42644 0.81844
 C801 C 0.06062 0.60811 0.73360
 C802 C 0.06488 0.60445 0.76650
 C803 C 0.09047 0.58163 0.78158
 C804 C 0.08841 0.57452 0.81411
 H805 H 0.04711 0.61692 0.78296
 H806 H 0.10867 0.56865 0.76605
 H807 H 0.07839 0.59662 0.71657
 H808 H 0.06888 0.58677 0.82868
 C809 C 0.06321 0.39589 0.26686
 C810 C 0.06836 0.39640 0.23401
 C811 C 0.09389 0.41854 0.21821
 C812 C 0.09103 0.42504 0.18563
 H813 H 0.05067 0.38289 0.21802
 H814 H 0.11216 0.43222 0.23333
 H815 H 0.08077 0.40863 0.28348
 H816 H 0.07126 0.41237 0.17144
   
