data_POSCAR
  _audit_creation_date              2014-09-24
  _audit_creation_method            'ToBaCCo'
  _symmetry_space_group_name_H-M    'P1'
  _symmetry_Int_Tables_number       1
  _symmetry_cell_setting            triclinic
  loop_
  _symmetry_equiv_pos_as_xyz
 x,y,z
_cell_length_a 28.5867
_cell_length_b 28.3124
_cell_length_c 28.3221
_cell_angle_alpha 89.952700
_cell_angle_beta 89.849600
_cell_angle_gamma 90.050000
loop_
  _atom_site_label
  _atom_site_type_symbol
  _atom_site_fract_x
  _atom_site_fract_y
  _atom_site_fract_z
C1 C 0.35337 0.98106 -0.47570
 C2 C 0.35302 0.98200 -0.52396
 C3 C 0.39545 1.00141 -0.53816
 N4 N 0.42209 1.01138 -0.50014
 C5 C 0.39629 0.99897 -0.46203
 C6 C 0.40803 1.01160 -0.58549
 C7 C 0.45529 1.01995 -0.59906
 C8 C 0.46917 1.03950 -0.64172
 C9 C 0.51717 1.03929 -0.64229
 C10 C 0.53193 1.02091 -0.59926
 N11 N 0.49374 1.00887 -0.57334
 C12 C 0.57931 1.01128 -0.58684
 C13 C 0.59341 1.00099 -0.53979
 C14 C 0.63849 0.98893 -0.52598
 C15 C 0.63840 0.98687 -0.47756
 C16 C 0.59357 0.99838 -0.46305
 N17 N 0.56627 1.00724 -0.50105
 C18 C 0.57942 1.00354 -0.41538
 C19 C 0.53264 1.01231 -0.40169
 C20 C 0.51888 1.02806 -0.35737
 C21 C 0.47077 1.02906 -0.35722
 C22 C 0.45657 1.01391 -0.40140
 N23 N 0.49441 1.00370 -0.42826
 C24 C 0.40971 1.00653 -0.41489
 H25 H 0.32537 0.96837 -0.45322
 H26 H 0.32469 0.96974 -0.54606
 H27 H 0.49401 0.98656 -0.46070
 H28 H 0.44711 1.05226 -0.66996
 H29 H 0.53825 1.05079 -0.67184
 H30 H 0.66885 0.98340 -0.54813
 H31 H 0.66826 0.97883 -0.45558
 H32 H 0.44878 1.03918 -0.32775
 H33 H 0.49385 0.98930 -0.54228
 H34 H 0.54117 1.03747 -0.32801
 C35 C -0.47829 1.35345 0.02727
 C36 C -0.52612 1.35176 0.02891
 C37 C -0.54218 1.39621 0.01580
 N38 N -0.50536 1.42457 0.00560
 C39 C -0.46639 1.39859 0.01271
 C40 C -0.58974 1.40820 0.00753
 C41 C -0.60392 1.45463 -0.00530
 C42 C -0.64807 1.46730 -0.02151
 C43 C -0.64856 1.51569 -0.02564
 C44 C -0.60513 1.53157 -0.01107
 N45 N -0.57827 1.49431 0.00137
 C46 C -0.59270 1.57955 -0.00551
 C47 C -0.54664 1.59460 0.00383
 C48 C -0.53500 1.63886 0.02094
 C49 C -0.48722 1.64053 0.02266
 C50 C -0.47113 1.59754 0.00558
 N51 N -0.50763 1.56925 -0.00550
 C52 C -0.42344 1.58569 -0.00144
 C53 C -0.40905 1.53809 -0.00783
 C54 C -0.36680 1.52410 -0.02762
 C55 C -0.36614 1.47555 -0.02677
 C56 C -0.40811 1.46106 -0.00685
 N57 N -0.43405 1.49936 0.00472
 C58 C -0.42044 1.41343 0.00179
 H59 H -0.45498 1.32429 0.03469
 H60 H -0.54637 1.32053 0.03706
 H61 H -0.46503 1.49923 0.02408
 H62 H -0.67764 1.44456 -0.02845
 H63 H -0.67811 1.53683 -0.03668
 H64 H -0.55854 1.66687 0.03150
 H65 H -0.46671 1.67008 0.03522
 H66 H -0.33802 1.45344 -0.03969
 H67 H -0.54656 1.49649 0.01905
 H68 H -0.33945 1.54648 -0.04179
 C69 C 0.04424 0.35715 0.52211
 C70 C 0.04458 0.35779 0.47371
 C71 C 0.02689 0.40130 0.46009
 N72 N 0.01617 0.42744 0.49869
 C73 C 0.02643 0.40031 0.53669
 C74 C 0.02063 0.41642 0.41273
 C75 C 0.01357 0.46475 0.40176
 C76 C -0.00687 0.48149 0.36059
 C77 C -0.00308 0.52978 0.36148
 C78 C 0.01862 0.54138 0.40361
 N79 N 0.02848 0.50156 0.42813
 C80 C 0.03154 0.58759 0.41685
 C81 C 0.04278 0.60019 0.46350
 C82 C 0.05755 0.64456 0.47758
 C83 C 0.05789 0.64413 0.52594
 C84 C 0.04350 0.59931 0.53988
 N85 N 0.03410 0.57276 0.50149
 C86 C 0.03204 0.58565 0.58659
 C87 C 0.01775 0.53893 0.59802
 C88 C -0.00320 0.52535 0.64022
 C89 C -0.00735 0.47713 0.63914
 C90 C 0.01245 0.46203 0.59701
 N91 N 0.02711 0.49991 0.57186
 C92 C 0.01962 0.41407 0.58439
 H93 H 0.05677 0.32853 0.54402
 H94 H 0.05745 0.32979 0.45120
 H95 H 0.04768 0.49844 0.54152
 H96 H -0.02243 0.46100 0.33247
 H97 H -0.01474 0.55350 0.33396
 H98 H 0.06524 0.67480 0.45549
 H99 H 0.06555 0.67435 0.54791
 H100 H -0.02231 0.45555 0.66690
 H101 H 0.04908 0.49918 0.45830
 H102 H -0.01359 0.54734 0.66958
 O103 O -0.12594 1.00133 -0.06366
 O104 O 0.11478 0.99158 -0.06395
 O105 O -0.00581 1.05878 -0.12213
 O106 O -0.00513 0.93139 -0.12008
 O107 O -0.00707 0.87507 -0.06134
 O108 O -0.00511 1.11766 -0.06599
 O109 O 0.05807 0.99212 -0.12159
 O110 O -0.06837 0.99914 -0.12084
 Zr111 Zr -0.00536 0.99592 -0.08271
 O112 O 0.03624 0.95292 -0.04228
 O113 O -0.04697 1.04023 -0.04290
 C114 C -0.11171 1.00175 -0.10737
 C115 C 0.10131 0.99004 -0.10755
 C116 C -0.00610 1.10276 -0.10944
 C117 C -0.00572 0.88799 -0.10525
 H118 H 0.05796 1.05773 -0.06423
 O119 O 0.03770 1.03847 -0.04341
 H120 H -0.06932 0.93513 -0.06139
 O121 O -0.04887 0.95512 -0.04158
 O122 O 0.11559 0.99791 0.06227
 O123 O -0.12545 0.99882 0.06545
 O124 O 0.06006 1.11754 -0.00150
 O125 O 0.05477 0.87482 0.00013
 O126 O -0.07056 0.87762 0.00422
 O127 O -0.06572 1.12006 -0.00201
 O128 O -0.00131 1.06195 0.12062
 O129 O -0.00663 0.93503 0.12252
 O130 O -0.00034 1.11941 0.06296
 O131 O -0.00997 0.87709 0.06553
 O132 O 0.11635 1.05924 -0.00058
 O133 O -0.12453 1.06430 -0.00083
 O134 O -0.12733 0.93534 0.00346
 O135 O 0.11360 0.93050 -0.00121
 O136 O 0.05966 0.99958 0.12092
 O137 O -0.06750 0.99742 0.12206
 Zr138 Zr 0.07703 0.99566 -0.00049
 Zr139 Zr -0.08811 0.99909 0.00072
 Zr140 Zr -0.00362 1.08031 -0.00099
 Zr141 Zr -0.00713 0.91481 0.00144
 Zr142 Zr -0.00446 0.99822 0.08311
 O143 O -0.04849 0.95622 0.04388
 O144 O 0.03839 1.03990 0.04200
 C145 C 0.10281 0.99982 0.10611
 C146 C -0.11102 0.99734 0.10896
 C147 C 0.10313 1.10319 -0.00121
 C148 C 0.09845 0.88714 -0.00102
 C149 C -0.11372 0.89149 0.00508
 C150 C -0.10941 1.10765 -0.00185
 C151 C 0.00061 1.10553 0.10678
 C152 C -0.00941 0.89134 0.10903
 H153 H -0.06566 1.06190 0.06283
 O154 O -0.04640 1.04116 0.04255
 H155 H 0.05620 0.93407 0.06349
 O156 O 0.03657 0.95434 0.04314
 C157 C 0.33077 1.04033 0.38995
 C158 C 0.29352 1.04037 0.35822
 C159 C 0.29630 1.01509 0.31581
 C160 C 0.33761 0.98989 0.30558
 C161 C 0.37506 0.99000 0.33729
 C162 C 0.37189 1.01457 0.38036
 C163 C 0.25481 1.01459 0.28437
 C164 C 0.25705 1.00404 0.23832
 C165 C 0.21609 1.00422 0.20628
 C166 C 0.22456 1.00763 0.15769
 C167 C 0.18773 1.00671 0.12563
 C168 C 0.14117 1.00195 0.14123
 C169 C 0.13243 0.99859 0.18998
 C170 C 0.16954 0.99952 0.22226
 H171 H 0.32741 1.06052 0.42226
 H172 H 0.26226 1.06015 0.36700
 H173 H 0.34081 0.96869 0.27402
 H174 H 0.40565 0.96893 0.32914
 H175 H 0.22178 1.02548 0.29958
 H176 H 0.29076 0.99722 0.22230
 H177 H 0.25996 1.01109 0.14435
 H178 H 0.19602 1.00960 0.08840
 H179 H 0.09705 0.99456 0.20316
 H180 H 0.16156 0.99550 0.25938
 C181 C -0.37519 1.05570 0.35447
 C182 C -0.34232 1.05684 0.31782
 C183 C -0.31879 1.01563 0.30394
 C184 C -0.32912 0.97295 0.32732
 C185 C -0.36233 0.97171 0.36370
 C186 C -0.38607 1.01299 0.37742
 C187 C -0.28515 1.01812 0.26398
 C188 C -0.24854 0.98884 0.25952
 C189 C -0.21417 0.99208 0.22030
 C190 C -0.16809 0.97723 0.22832
 C191 C -0.13466 0.97934 0.19229
 C192 C -0.14678 0.99552 0.14698
 C193 C -0.19320 1.00958 0.13860
 C194 C -0.22654 1.00807 0.17493
 H195 H -0.39231 1.08822 0.36487
 H196 H -0.33505 1.09014 0.30040
 H197 H -0.31260 0.94023 0.31680
 H198 H -0.37031 0.93825 0.38049
 H199 H -0.28937 1.04673 0.23895
 H200 H -0.24160 0.96327 0.28707
 H201 H -0.15778 0.96431 0.26277
 H202 H -0.09937 0.96772 0.19984
 H203 H -0.20369 1.02203 0.10405
 H204 H -0.26208 1.01859 0.16715
 C205 C -0.38712 0.96418 -0.34388
 C206 C -0.35558 0.96280 -0.30628
 C207 C -0.32089 0.99762 -0.30154
 C208 C -0.31873 1.03427 -0.33525
 C209 C -0.35038 1.03561 -0.37287
 C210 C -0.38482 1.00062 -0.37740
 C211 C -0.28883 0.99516 -0.26034
 C212 C -0.24656 1.01577 -0.25948
 C213 C -0.21346 1.01173 -0.21935
 C214 C -0.16568 1.01843 -0.22836
 C215 C -0.13296 1.01506 -0.19204
 C216 C -0.14720 1.00539 -0.14541
 C217 C -0.19520 0.99958 -0.13604
 C218 C -0.22804 1.00267 -0.17262
 H219 H -0.41379 0.93713 -0.34659
 H220 H -0.35832 0.93442 -0.28074
 H221 H -0.29361 1.06265 -0.33217
 H222 H -0.34867 1.06447 -0.39796
 H223 H -0.29962 0.97330 -0.23089
 H224 H -0.23402 1.03401 -0.29063
 H225 H -0.15348 1.02593 -0.26384
 H226 H -0.09639 1.02034 -0.20063
 H227 H -0.20740 0.99247 -0.10051
 H228 H -0.26471 0.99869 -0.16398
 C229 C 0.33816 1.04276 -0.37954
 C230 C 0.30050 1.04143 -0.34810
 C231 C 0.29635 1.00476 -0.31494
 C232 C 0.33099 0.96930 -0.31391
 C233 C 0.36882 0.97084 -0.34527
 C234 C 0.37240 1.00736 -0.37846
 C235 C 0.25487 1.00429 -0.28332
 C236 C 0.25292 0.97987 -0.24280
 C237 C 0.21264 0.98168 -0.20985
 C238 C 0.22071 0.97147 -0.16217
 C239 C 0.18443 0.97383 -0.12934
 C240 C 0.13885 0.98601 -0.14344
 C241 C 0.13025 0.99477 -0.19148
 C242 C 0.16681 0.99265 -0.22445
 H243 H 0.34026 1.07095 -0.40534
 H244 H 0.27431 1.06900 -0.34991
 H245 H 0.32858 0.93958 -0.29007
 H246 H 0.39457 0.94281 -0.34464
 H247 H 0.22599 1.02711 -0.29271
 H248 H 0.28326 0.96035 -0.23112
 H249 H 0.25549 0.96236 -0.15007
 H250 H 0.19228 0.96614 -0.09274
 H251 H 0.09546 1.00381 -0.20351
 H252 H 0.15892 0.99921 -0.26120
 C253 C 0.36730 1.34847 0.05263
 C254 C 0.33578 1.31074 0.05438
 C255 C 0.31228 1.29599 0.01355
 C256 C 0.32155 1.31925 -0.02942
 C257 C 0.35328 1.35679 -0.03125
 C258 C 0.37642 1.37192 0.00978
 C259 C 0.27935 1.25563 0.01671
 C260 C 0.24242 1.25110 -0.01197
 C261 C 0.20782 1.21238 -0.00790
 C262 C 0.16191 1.22097 -0.02275
 C263 C 0.12807 1.18558 -0.02006
 C264 C 0.13955 1.14033 -0.00321
 C265 C 0.18577 1.13130 0.01096
 C266 C 0.21963 1.16708 0.00883
 H267 H 0.38480 1.35932 0.08474
 H268 H 0.32949 1.29320 0.08782
 H269 H 0.30532 1.30781 -0.06194
 H270 H 0.36070 1.37328 -0.06499
 H271 H 0.28406 1.23078 0.04540
 H272 H 0.23515 1.27861 -0.03750
 H273 H 0.15206 1.25539 -0.03618
 H274 H 0.09293 1.19359 -0.03183
 H275 H 0.19568 1.09673 0.02391
 H276 H 0.25506 1.15894 0.01943
 C277 C 0.37367 0.65051 -0.04553
 C278 C 0.34167 0.68770 -0.04736
 C279 C 0.30580 0.69135 -0.01363
 C280 C 0.30267 0.65686 0.02221
 C281 C 0.33475 0.61965 0.02399
 C282 C 0.37061 0.61641 -0.00969
 C283 C 0.27380 0.73251 -0.01590
 C284 C 0.23085 0.73246 0.00319
 C285 C 0.19829 0.77309 0.00059
 C286 C 0.15032 0.76428 0.00568
 C287 C 0.11817 0.80124 0.00463
 C288 C 0.13320 0.84826 -0.00105
 C289 C 0.18135 0.85728 -0.00589
 C290 C 0.21363 0.82008 -0.00503
 H291 H 0.40144 0.64871 -0.07157
 H292 H 0.34511 0.71388 -0.07507
 H293 H 0.27655 0.65916 0.04978
 H294 H 0.33245 0.59407 0.05237
 H295 H 0.28542 0.76289 -0.03598
 H296 H 0.21761 0.70048 0.01938
 H297 H 0.13759 0.72852 0.01040
 H298 H 0.08142 0.79280 0.00873
 H299 H 0.19415 0.89306 -0.01005
 H300 H 0.25046 0.82846 -0.00772
 C301 C -0.39811 0.66385 -0.02975
 C302 C -0.36626 0.70124 -0.02944
 C303 C -0.32495 0.69853 -0.00299
 C304 C -0.31609 0.65703 0.02308
 C305 C -0.34779 0.61938 0.02243
 C306 C -0.38971 0.62251 -0.00334
 C307 C -0.29306 0.74009 -0.00293
 C308 C -0.24855 0.73850 0.01182
 C309 C -0.21582 0.77922 0.01025
 C310 C -0.16785 0.76967 0.01314
 C311 C -0.13516 0.80613 0.01166
 C312 C -0.14949 0.85350 0.00748
 C313 C -0.19762 0.86341 0.00544
 C314 C -0.23054 0.82666 0.00692
 H315 H -0.42935 0.66714 -0.05107
 H316 H -0.37402 0.73254 -0.05000
 H317 H -0.28553 0.65358 0.04515
 H318 H -0.34050 0.58859 0.04391
 H319 H -0.30654 0.77256 -0.01770
 H320 H -0.23395 0.70522 0.02321
 H321 H -0.15544 0.73364 0.01616
 H322 H -0.09847 0.79689 0.01372
 H323 H -0.20987 0.89949 0.00263
 H324 H -0.26723 0.83576 0.00603
 C325 C -0.38762 1.34227 -0.03889
 C326 C -0.35532 1.30538 -0.04170
 C327 C -0.31839 1.30218 -0.00928
 C328 C -0.31450 1.33684 0.02623
 C329 C -0.34693 1.37372 0.02906
 C330 C -0.38390 1.37644 -0.00323
 C331 C -0.28608 1.26129 -0.01248
 C332 C -0.24242 1.26191 0.00467
 C333 C -0.20969 1.22144 0.00125
 C334 C -0.16159 1.23056 0.00381
 C335 C -0.12928 1.19370 0.00212
 C336 C -0.14428 1.14649 -0.00165
 C337 C -0.19255 1.13719 -0.00403
 C338 C -0.22497 1.17426 -0.00255
 H339 H -0.41608 1.34379 -0.06401
 H340 H -0.35932 1.27910 -0.06917
 H341 H -0.28744 1.33493 0.05277
 H342 H -0.34392 1.39951 0.05711
 H343 H -0.29818 1.23058 -0.03164
 H344 H -0.22885 1.29420 0.01983
 H345 H -0.14887 1.26647 0.00711
 H346 H -0.09245 1.20238 0.00432
 H347 H -0.20535 1.10128 -0.00661
 H348 H -0.26183 1.16567 -0.00326
 C349 C 0.04497 1.39274 0.33282
 C350 C 0.04335 1.36130 0.29492
 C351 C 0.01806 1.31902 0.29834
 C352 C -0.00593 1.30892 0.34069
 C353 C -0.00420 1.34033 0.37874
 C354 C 0.02093 1.38301 0.37529
 C355 C 0.01653 1.28728 0.25666
 C356 C 0.00746 1.24095 0.25989
 C357 C 0.00702 1.20814 0.21908
 C358 C 0.01147 1.15977 0.22835
 C359 C 0.00996 1.12694 0.19181
 C360 C 0.00358 1.14151 0.14474
 C361 C -0.00073 1.19004 0.13516
 C362 C 0.00079 1.22310 0.17199
 H363 H 0.06553 1.42470 0.32902
 H364 H 0.06212 1.37001 0.26279
 H365 H -0.02725 1.27757 0.34431
 H366 H -0.02434 1.33215 0.41015
 H367 H 0.02568 1.30240 0.22278
 H368 H 0.00245 1.22532 0.29441
 H369 H 0.01614 1.14719 0.26417
 H370 H 0.01365 1.08992 0.20072
 H371 H -0.00603 1.20241 0.09939
 H372 H -0.00399 1.25999 0.16343
 C373 C 0.04417 1.38701 -0.33702
 C374 C 0.04197 1.35439 -0.30011
 C375 C 0.01516 1.31309 -0.30421
 C376 C -0.00920 1.30498 -0.34668
 C377 C -0.00667 1.33748 -0.38384
 C378 C 0.01952 1.37937 -0.37935
 C379 C 0.01298 1.28060 -0.26291
 C380 C -0.00489 1.23680 -0.26431
 C381 C -0.00560 1.20408 -0.22330
 C382 C -0.01059 1.15567 -0.23223
 C383 C -0.01107 1.12313 -0.19528
 C384 C -0.00683 1.13814 -0.14812
 C385 C -0.00286 1.18676 -0.13890
 C386 C -0.00238 1.21946 -0.17607
 H387 H 0.06555 1.41830 -0.33254
 H388 H 0.06125 1.36164 -0.26803
 H389 H -0.03132 1.27443 -0.35140
 H390 H -0.02702 1.33082 -0.41536
 H391 H 0.02853 1.29311 -0.23046
 H392 H -0.01743 1.22268 -0.29735
 H393 H -0.01365 1.14281 -0.26812
 H394 H -0.01462 1.08604 -0.20389
 H395 H 0.00004 1.19958 -0.10301
 H396 H -0.00006 1.25657 -0.16745
 C397 C 0.07252 0.64345 -0.36427
 C398 C 0.07120 0.68017 -0.33139
 C399 C 0.02857 0.69452 -0.31144
 C400 C -0.01299 0.67205 -0.32562
 C401 C -0.01173 0.63563 -0.35877
 C402 C 0.03106 0.62074 -0.37821
 C403 C 0.02831 0.73410 -0.27746
 C404 C -0.00356 0.73782 -0.24293
 C405 C -0.00351 0.77691 -0.20844
 C406 C -0.02048 0.76842 -0.16276
 C407 C -0.02098 0.80447 -0.12920
 C408 C -0.00536 0.85007 -0.14102
 C409 C 0.01070 0.85889 -0.18712
 C410 C 0.01177 0.82261 -0.22052
 H411 H 0.10588 0.63286 -0.37908
 H412 H 0.10357 0.69730 -0.32134
 H413 H -0.04663 0.68339 -0.31221
 H414 H -0.04433 0.61979 -0.37014
 H415 H 0.05669 0.75941 -0.27950
 H416 H -0.02897 0.70987 -0.23781
 H417 H -0.03288 0.73361 -0.15285
 H418 H -0.03401 0.79670 -0.09410
 H419 H 0.02285 0.89371 -0.19725
 H420 H 0.02384 0.83059 -0.25589
 C421 C 0.07040 0.64230 0.35973
 C422 C 0.06838 0.67933 0.32718
 C423 C 0.02522 0.69941 0.31492
 C424 C -0.01590 0.68263 0.33661
 C425 C -0.01376 0.64609 0.36962
 C426 C 0.02933 0.62555 0.38104
 C427 C 0.02422 0.73864 0.28060
 C428 C -0.01141 0.74518 0.25074
 C429 C -0.01145 0.78344 0.21537
 C430 C -0.03187 0.77530 0.17119
 C431 C -0.03127 0.81042 0.13657
 C432 C -0.01119 0.85473 0.14602
 C433 C 0.00786 0.86341 0.19084
 C434 C 0.00797 0.82799 0.22517
 H435 H 0.10394 0.62700 0.36871
 H436 H 0.10048 0.69206 0.31122
 H437 H -0.04953 0.69834 0.32888
 H438 H -0.04562 0.63385 0.38644
 H439 H 0.05498 0.76089 0.27793
 H440 H -0.03988 0.71991 0.24982
 H441 H -0.04747 0.74137 0.16315
 H442 H -0.04668 0.80299 0.10246
 H443 H 0.02345 0.89729 0.19908
 H444 H 0.02288 0.83561 0.25943
   
