data_POSCAR
  _audit_creation_date              2014-09-24
  _audit_creation_method            'ToBaCCo'
  _symmetry_space_group_name_H-M    'P1'
  _symmetry_Int_Tables_number       1
  _symmetry_cell_setting            triclinic
  loop_
  _symmetry_equiv_pos_as_xyz
 x,y,z
_cell_length_a 31.1867
_cell_length_b 18.4254
_cell_length_c 11.9477
_cell_angle_alpha 90.272800
_cell_angle_beta 89.978900
_cell_angle_gamma 90.147400
loop_
  _atom_site_label
  _atom_site_type_symbol
  _atom_site_fract_x
  _atom_site_fract_y
  _atom_site_fract_z
C1 C 0.75042 0.25082 0.44432
 C2 C 0.75004 0.25233 0.55846
 C3 C 0.71320 0.28253 0.62259
 C4 C 0.78663 0.22314 0.62331
 C5 C 0.78821 0.22501 0.38126
 C6 C 0.71307 0.27414 0.37759
 C7 C 0.69684 0.35143 0.59788
 C8 C 0.65935 0.37603 0.64874
 C9 C 0.63854 0.33409 0.73098
 C10 C 0.65722 0.26771 0.76280
 C11 C 0.69387 0.24184 0.70799
 C12 C 0.81215 0.26962 0.68874
 C13 C 0.84864 0.24298 0.74291
 C14 C 0.86021 0.16974 0.73098
 C15 C 0.83361 0.12284 0.66919
 C16 C 0.79671 0.14909 0.61757
 C17 C 0.79121 0.15183 0.34971
 C18 C 0.82856 0.12577 0.29932
 C19 C 0.86239 0.17338 0.27476
 C20 C 0.85846 0.24738 0.30067
 C21 C 0.82177 0.27290 0.35541
 C22 C 0.67592 0.23112 0.37329
 C23 C 0.63939 0.25617 0.31781
 C24 C 0.63941 0.32522 0.26904
 C25 C 0.67677 0.36760 0.27148
 C26 C 0.71376 0.34144 0.32317
 H27 H 0.71269 0.38597 0.53768
 H28 H 0.64699 0.42842 0.62376
 H29 H 0.64268 0.23415 0.82672
 H30 H 0.70648 0.18913 0.73023
 H31 H 0.80444 0.32677 0.69528
 H32 H 0.86858 0.28001 0.79072
 H33 H 0.77641 0.11186 0.57136
 H34 H 0.76524 0.11453 0.36768
 H35 H 0.83102 0.06855 0.27912
 H36 H 0.88438 0.28472 0.28241
 H37 H 0.81972 0.32964 0.37887
 H38 H 0.67505 0.17895 0.41464
 H39 H 0.61065 0.22305 0.31678
 H40 H 0.67716 0.42106 0.23411
 H41 H 0.74222 0.37521 0.32585
 H42 H 0.84141 0.06583 0.66055
 C43 C 0.24941 0.74565 0.44150
 C44 C 0.24896 0.74501 0.55537
 C45 C 0.21206 0.77344 0.61954
 C46 C 0.28576 0.71734 0.62023
 C47 C 0.28683 0.71944 0.37733
 C48 C 0.21263 0.77323 0.37671
 C49 C 0.20399 0.84819 0.62314
 C50 C 0.16697 0.87447 0.67450
 C51 C 0.13843 0.82670 0.72744
 C52 C 0.14792 0.75230 0.73030
 C53 C 0.18441 0.72571 0.67568
 C54 C 0.31331 0.76590 0.67560
 C55 C 0.34990 0.74023 0.73028
 C56 C 0.35961 0.66590 0.72817
 C57 C 0.33115 0.61725 0.67607
 C58 C 0.29400 0.64268 0.62468
 C59 C 0.29309 0.64487 0.36060
 C60 C 0.33063 0.61981 0.31015
 C61 C 0.36142 0.66916 0.27090
 C62 C 0.35386 0.74394 0.28097
 C63 C 0.31694 0.76897 0.33524
 C64 C 0.18138 0.72506 0.33599
 C65 C 0.14498 0.75165 0.28154
 C66 C 0.13909 0.82673 0.27005
 C67 C 0.17099 0.87462 0.30805
 C68 C 0.20802 0.84790 0.35862
 H69 H 0.22597 0.88605 0.58443
 H70 H 0.16066 0.93220 0.67307
 H71 H 0.12638 0.71460 0.77119
 H72 H 0.19060 0.66789 0.67498
 H73 H 0.30700 0.82367 0.67412
 H74 H 0.37138 0.77859 0.77042
 H75 H 0.27212 0.60426 0.58634
 H76 H 0.26941 0.60609 0.38916
 H77 H 0.33560 0.56192 0.30133
 H78 H 0.37725 0.78276 0.25080
 H79 H 0.31224 0.82677 0.34645
 H80 H 0.18482 0.66717 0.34838
 H81 H 0.12070 0.71392 0.25243
 H82 H 0.16726 0.93265 0.29835
 H83 H 0.23250 0.88557 0.38666
 H84 H 0.33768 0.55955 0.67509
 C85 C 0.24797 0.25572 -0.44262
 C86 C 0.24881 0.25703 -0.55708
 C87 C 0.28639 0.28586 -0.61964
 C88 C 0.21275 0.22757 -0.62462
 C89 C 0.21085 0.22705 -0.37905
 C90 C 0.28547 0.27853 -0.37554
 C91 C 0.30206 0.35605 -0.59867
 C92 C 0.33988 0.37996 -0.64896
 C93 C 0.36156 0.33579 -0.72683
 C94 C 0.34391 0.26766 -0.75459
 C95 C 0.30697 0.24262 -0.70036
 C96 C 0.18642 0.27383 -0.68733
 C97 C 0.15082 0.24586 -0.74521
 C98 C 0.14000 0.17193 -0.73575
 C99 C 0.16787 0.12562 -0.67762
 C100 C 0.20497 0.15276 -0.62787
 C101 C 0.20418 0.15207 -0.37172
 C102 C 0.16691 0.12487 -0.32309
 C103 C 0.13792 0.17168 -0.26918
 C104 C 0.14733 0.24634 -0.26432
 C105 C 0.18290 0.27408 -0.32206
 C106 C 0.31987 0.23069 -0.36007
 C107 C 0.35678 0.25393 -0.30372
 C108 C 0.35991 0.32571 -0.26517
 C109 C 0.32508 0.37286 -0.27801
 C110 C 0.28763 0.34885 -0.33049
 H111 H 0.28527 0.39229 -0.54247
 H112 H 0.35180 0.43352 -0.62755
 H113 H 0.35946 0.23249 -0.81502
 H114 H 0.29500 0.18876 -0.71957
 H115 H 0.19294 0.33157 -0.68947
 H116 H 0.13035 0.28277 -0.79086
 H117 H 0.22720 0.11532 -0.58998
 H118 H 0.22743 0.11447 -0.40547
 H119 H 0.16155 0.06679 -0.32442
 H120 H 0.12585 0.28369 -0.22228
 H121 H 0.18830 0.33213 -0.32335
 H122 H 0.31841 0.17604 -0.39369
 H123 H 0.38355 0.21709 -0.29474
 H124 H 0.32707 0.42841 -0.24834
 H125 H 0.26122 0.38622 -0.34111
 H126 H 0.16156 0.06789 -0.67271
 C127 C -0.25133 0.75219 -0.44192
 C128 C -0.25073 0.75303 -0.55635
 C129 C -0.21359 0.78268 -0.61951
 C130 C -0.28709 0.72428 -0.62351
 C131 C -0.28834 0.72383 -0.37775
 C132 C -0.21398 0.77660 -0.37561
 C133 C -0.19914 0.85387 -0.60082
 C134 C -0.16168 0.87884 -0.65165
 C135 C -0.13925 0.83463 -0.72793
 C136 C -0.15584 0.76546 -0.75393
 C137 C -0.19237 0.73940 -0.69897
 C138 C -0.31250 0.77127 -0.68734
 C139 C -0.34809 0.74450 -0.74625
 C140 C -0.35987 0.67095 -0.73726
 C141 C -0.33305 0.62372 -0.67756
 C142 C -0.29593 0.64972 -0.62618
 C143 C -0.29507 0.64890 -0.36969
 C144 C -0.33253 0.62204 -0.32162
 C145 C -0.36170 0.66927 -0.26921
 C146 C -0.35218 0.74390 -0.26476
 C147 C -0.31638 0.77123 -0.32188
 C148 C -0.17948 0.72938 -0.35762
 C149 C -0.14271 0.75402 -0.30205
 C150 C -0.13976 0.82659 -0.26708
 C151 C -0.17465 0.87325 -0.28266
 C152 C -0.21201 0.84784 -0.33403
 H153 H -0.21662 0.89006 -0.54604
 H154 H -0.15069 0.93328 -0.63210
 H155 H -0.13970 0.73025 -0.81324
 H156 H -0.20353 0.68482 -0.71659
 H157 H -0.30520 0.82874 -0.68985
 H158 H -0.36772 0.78211 -0.79302
 H159 H -0.27439 0.61157 -0.58737
 H160 H -0.27177 0.61112 -0.40281
 H161 H -0.33797 0.56393 -0.32239
 H162 H -0.37379 0.78153 -0.22382
 H163 H -0.31095 0.82925 -0.32385
 H164 H -0.18078 0.67405 -0.38850
 H165 H -0.11593 0.71747 -0.29069
 H166 H -0.17284 0.92938 -0.25561
 H167 H -0.23854 0.88473 -0.34642
 H168 H -0.34009 0.56618 -0.67300
 N169 N -0.04492 0.92283 0.19744
 N170 N -0.07932 0.91868 0.26134
 N171 N 0.04520 0.87024 0.12060
 N172 N 0.07812 0.82618 0.13422
 N173 N 0.04580 0.92233 0.19590
 N174 N 0.07953 0.91596 0.26165
 N175 N -0.04462 0.87036 0.12288
 N176 N -0.08052 0.82612 0.13767
 C177 C -0.10081 0.85910 0.22454
 C178 C 0.09922 0.85563 0.22253
 N179 N 0.04472 0.92097 -0.19619
 N180 N 0.07817 0.91454 -0.26290
 N181 N -0.04539 0.86972 -0.11910
 N182 N -0.07862 0.82591 -0.13233
 N183 N -0.04579 0.92133 -0.19452
 N184 N -0.07969 0.91497 -0.25980
 N185 N 0.04463 0.86949 -0.12066
 N186 N 0.07781 0.82594 -0.13487
 Mn187 Mn -0.00008 0.86901 0.00087
 C188 C 0.09840 0.85492 -0.22407
 C189 C -0.09962 0.85507 -0.22042
 N190 N 0.04626 1.07767 0.19458
 N191 N 0.08296 1.08303 0.25999
 N192 N -0.04425 1.13014 0.12248
 N193 N -0.07718 1.17410 0.13750
 N194 N -0.04441 1.07838 0.19764
 N195 N -0.07783 1.08486 0.26457
 N196 N 0.04564 1.13045 0.12123
 N197 N 0.07900 1.17416 0.13538
 Mn198 Mn 0.00069 1.00034 0.19775
 C199 C 0.10169 1.14413 0.22053
 C200 C -0.09775 1.14493 0.22647
 N201 N -0.04532 1.07700 -0.19491
 N202 N -0.07910 1.08259 -0.26053
 N203 N 0.04478 1.12975 -0.12223
 N204 N 0.07762 1.17409 -0.13852
 N205 N 0.04531 1.07621 -0.19501
 N206 N 0.08159 1.08157 -0.26208
 N207 N -0.04517 1.12894 -0.11928
 N208 N -0.07869 1.17185 -0.13235
 Mn209 Mn -0.00027 0.99894 -0.19648
 Mn210 Mn 0.00026 1.13090 0.00054
 Cl211 Cl 0.00013 0.99980 0.00069
 C212 C -0.09954 1.14206 -0.22098
 C213 C 0.10001 1.14359 -0.22423
 N214 N 0.54421 0.62887 -0.12565
 N215 N 0.57734 0.67274 -0.14093
 N216 N 0.45432 0.57443 -0.19729
 N217 N 0.42047 0.57932 -0.26281
 N218 N 0.45431 0.62669 -0.12224
 N219 N 0.42070 0.66930 -0.13577
 N220 N 0.54494 0.57509 -0.19797
 N221 N 0.58161 0.57983 -0.26368
 C222 C 0.60005 0.64175 -0.22558
 C223 C 0.39992 0.63883 -0.22388
 N224 N 0.45488 0.36805 -0.11913
 N225 N 0.42141 0.32458 -0.13121
 N226 N 0.54515 0.41994 -0.19722
 N227 N 0.57963 0.41589 -0.26074
 N228 N 0.54484 0.36803 -0.12258
 N229 N 0.58102 0.32446 -0.13662
 N230 N 0.45455 0.41913 -0.19539
 N231 N 0.42049 0.41281 -0.26002
 Mn232 Mn 0.49978 0.49715 -0.19827
 C233 C 0.40038 0.35345 -0.21953
 C234 C 0.60137 0.35709 -0.22356
 N235 N 0.45553 0.62872 0.11955
 N236 N 0.42189 0.67127 0.13350
 N237 N 0.54708 0.57825 0.19060
 N238 N 0.58207 0.58367 0.25198
 N239 N 0.54518 0.63099 0.11736
 N240 N 0.58015 0.67751 0.13196
 N241 N 0.45625 0.57776 0.19601
 N242 N 0.42272 0.58340 0.26274
 Mn243 Mn 0.49979 0.62982 -0.00282
 C244 C 0.40180 0.64213 0.22324
 C245 C 0.60196 0.64476 0.21597
 N246 N 0.54615 0.36997 0.11891
 N247 N 0.57874 0.32531 0.13320
 N248 N 0.45641 0.42229 0.19766
 N249 N 0.42210 0.41862 0.26200
 N250 N 0.45632 0.36975 0.12318
 N251 N 0.42017 0.32611 0.13838
 N252 N 0.54710 0.42247 0.19359
 N253 N 0.58073 0.41573 0.25964
 Mn254 Mn 0.50050 0.36802 0.00011
 Mn255 Mn 0.50179 0.50025 0.19589
 Cl256 Cl 0.50044 0.49879 -0.00120
 C257 C 0.59995 0.35483 0.22116
 C258 C 0.40022 0.35938 0.22555
   
