data_POSCAR
  _audit_creation_date              2014-09-24
  _audit_creation_method            'ToBaCCo'
  _symmetry_space_group_name_H-M    'P1'
  _symmetry_Int_Tables_number       1
  _symmetry_cell_setting            triclinic
  loop_
  _symmetry_equiv_pos_as_xyz
 x,y,z
_cell_length_a 53.3763
_cell_length_b 51.4930
_cell_length_c 51.8793
_cell_angle_alpha 88.755700
_cell_angle_beta 89.517100
_cell_angle_gamma 88.680700
loop_
  _atom_site_label
  _atom_site_type_symbol
  _atom_site_fract_x
  _atom_site_fract_y
  _atom_site_fract_z
N1 N 0.30419 0.26032 0.22319
 N2 N 0.29473 0.28226 0.21369
 C3 C 0.30968 0.29083 0.19441
 C4 C 0.32931 0.27318 0.19157
 C5 C 0.32531 0.25406 0.21017
 H6 H 0.30634 0.30830 0.18290
 H7 H 0.33692 0.23697 0.21406
 Cu8 Cu 0.26328 0.29703 0.22654
 Cu9 Cu 0.28863 0.24170 0.25186
 Cu10 Cu 0.23163 0.26598 0.27412
 N11 N 0.23059 0.30942 0.23850
 N12 N 0.21828 0.29725 0.25699
 C13 C 0.19640 0.31000 0.26138
 C14 C 0.19495 0.33128 0.24465
 C15 C 0.21690 0.33028 0.23041
 H16 H 0.18266 0.30416 0.27565
 H17 H 0.22242 0.34384 0.21532
 N18 N 0.24820 0.23460 0.28902
 N19 N 0.27011 0.22558 0.28074
 C20 C 0.27690 0.20463 0.29524
 C21 C 0.25835 0.20014 0.31332
 C22 C 0.24040 0.21948 0.30890
 H23 H 0.29413 0.19342 0.29296
 H24 H 0.22322 0.22263 0.31966
 H25 H 0.25247 0.25387 0.24264
 H26 H 0.26908 0.27302 0.26722
 N27 N 0.69010 -0.24707 0.23585
 N28 N 0.70279 -0.26518 0.22350
 C29 C 0.69121 -0.27080 0.20141
 C30 C 0.66762 -0.25451 0.19859
 C31 C 0.66929 -0.23981 0.22285
 H32 H 0.69801 -0.28509 0.18791
 H33 H 0.65590 -0.22523 0.22933
 Cu34 Cu 0.73321 -0.28067 0.23823
 Cu35 Cu 0.70138 -0.23414 0.26872
 Cu36 Cu 0.76520 -0.24388 0.27856
 N37 N 0.76538 -0.29227 0.25203
 N38 N 0.77827 -0.27750 0.26719
 C39 C 0.80009 -0.28975 0.27321
 C40 C 0.80058 -0.31371 0.26149
 C41 C 0.77828 -0.31464 0.24826
 H42 H 0.81406 -0.28200 0.28572
 H43 H 0.77198 -0.33044 0.23673
 N44 N 0.74484 -0.21742 0.29683
 N45 N 0.72041 -0.21449 0.29364
 C46 C 0.71157 -0.19603 0.30944
 C47 C 0.73129 -0.18690 0.32335
 C48 C 0.75219 -0.20087 0.31495
 H49 H 0.69216 -0.18965 0.31076
 H50 H 0.77119 -0.19952 0.32178
 H51 H 0.73590 -0.23613 0.25277
 H52 H 0.73088 -0.25976 0.28000
 N53 N 0.71222 0.25596 0.77551
 N54 N 0.72120 0.27768 0.78412
 C55 C 0.70760 0.28530 0.80465
 C56 C 0.68917 0.26742 0.80928
 C57 C 0.69257 0.24899 0.79040
 H58 H 0.71111 0.30239 0.81572
 H59 H 0.68172 0.23180 0.78772
 Cu60 Cu 0.75035 0.29365 0.76862
 Cu61 Cu 0.72698 0.23861 0.74570
 Cu62 Cu 0.78400 0.26175 0.72391
 N63 N 0.78442 0.30311 0.76011
 N64 N 0.79763 0.29061 0.74264
 C65 C 0.82044 0.30116 0.74055
 C66 C 0.82148 0.32137 0.75775
 C67 C 0.79832 0.32198 0.76984
 H68 H 0.83502 0.29453 0.72752
 H69 H 0.79205 0.33521 0.78460
 N70 N 0.76695 0.23285 0.70762
 N71 N 0.74516 0.22404 0.71578
 C72 C 0.73834 0.20461 0.70049
 C73 C 0.75676 0.20112 0.68186
 C74 C 0.77456 0.21926 0.68699
 H75 H 0.72130 0.19384 0.70280
 H76 H 0.79177 0.22233 0.67632
 H77 H 0.76238 0.25025 0.75531
 H78 H 0.74595 0.26943 0.72917
 N79 N 0.29634 -0.25145 0.77451
 N80 N 0.28893 -0.27486 0.78103
 C81 C 0.29990 -0.28247 0.80325
 C82 C 0.31509 -0.26284 0.81101
 C83 C 0.31247 -0.24337 0.79230
 H84 H 0.29737 -0.30110 0.81284
 H85 H 0.32184 -0.22498 0.79135
 Cu86 Cu 0.26639 -0.29366 0.75956
 Cu87 Cu 0.28546 -0.23428 0.74260
 Cu88 Cu 0.23222 -0.25974 0.71565
 N89 N 0.23606 -0.30726 0.74552
 N90 N 0.22208 -0.29365 0.72918
 C91 C 0.20157 -0.30727 0.72379
 C92 C 0.20298 -0.33066 0.73758
 C93 C 0.22512 -0.32998 0.75104
 H94 H 0.18695 -0.30066 0.71076
 H95 H 0.23246 -0.34471 0.76431
 N96 N 0.24611 -0.22596 0.70461
 N97 N 0.26643 -0.21644 0.71486
 C98 C 0.27176 -0.19382 0.70278
 C99 C 0.25415 -0.18894 0.68389
 C100 C 0.23810 -0.20968 0.68555
 H101 H 0.28760 -0.18195 0.70704
 H102 H 0.22212 -0.21296 0.67350
 H103 H 0.25103 -0.25006 0.74876
 H104 H 0.26989 -0.26427 0.72189
 N105 N 0.71319 -0.24812 0.77845
 N106 N 0.72348 -0.26860 0.79008
 C107 C 0.71241 -0.27219 0.81325
 C108 C 0.69400 -0.25316 0.81608
 C109 C 0.69492 -0.23821 0.79361
 H110 H 0.71714 -0.28767 0.82690
 H111 H 0.68353 -0.22119 0.78876
 Cu112 Cu 0.74946 -0.28929 0.77318
 Cu113 Cu 0.72476 -0.23577 0.74470
 Cu114 Cu 0.78538 -0.25717 0.73076
 N115 N 0.77838 -0.30610 0.75707
 N116 N 0.79259 -0.29320 0.74068
 C117 C 0.81190 -0.30857 0.73324
 C118 C 0.80952 -0.33259 0.74551
 C119 C 0.78800 -0.33033 0.76044
 H120 H 0.82640 -0.30252 0.71989
 H121 H 0.78022 -0.34508 0.77312
 N122 N 0.76947 -0.22649 0.71392
 N123 N 0.74610 -0.21887 0.71849
 C124 C 0.74040 -0.19825 0.70306
 C125 C 0.76124 -0.19277 0.68799
 C126 C 0.77924 -0.21104 0.69535
 H127 H 0.72240 -0.18819 0.70279
 H128 H 0.79794 -0.21323 0.68737
 H129 H 0.74858 -0.26604 0.73159
 H130 H 0.75896 -0.24528 0.75834
 N131 N 0.29007 0.22641 0.78497
 N132 N 0.28547 0.25112 0.78941
 C133 C 0.29793 0.25783 0.81067
 C134 C 0.31091 0.23604 0.81997
 C135 C 0.30538 0.21650 0.80333
 H136 H 0.29761 0.27706 0.81865
 H137 H 0.31275 0.19676 0.80401
 Cu138 Cu 0.26361 0.27201 0.76701
 Cu139 Cu 0.27861 0.20953 0.75417
 Cu140 Cu 0.24365 0.24787 0.71150
 N141 N 0.23493 0.28740 0.74880
 N142 N 0.22748 0.27795 0.72689
 C143 C 0.20783 0.29217 0.71805
 C144 C 0.20246 0.31145 0.73542
 C145 C 0.22005 0.30795 0.75479
 H146 H 0.19797 0.28856 0.70039
 H147 H 0.22196 0.31938 0.77187
 N148 N 0.25340 0.21167 0.70474
 N149 N 0.26583 0.19667 0.72140
 C150 C 0.26897 0.17287 0.71143
 C151 C 0.25789 0.17291 0.68748
 C152 C 0.24817 0.19785 0.68382
 H153 H 0.27882 0.15669 0.72072
 H154 H 0.23798 0.20546 0.66730
 H155 H 0.27705 0.24275 0.73236
 H156 H 0.24708 0.23317 0.74832
 N157 N 0.29327 -0.23959 0.21952
 N158 N 0.28877 -0.26228 0.20960
 C159 C 0.30626 -0.26755 0.19146
 C160 C 0.32249 -0.24691 0.18998
 C161 C 0.31360 -0.22952 0.20794
 H162 H 0.30694 -0.28497 0.18019
 H163 H 0.32143 -0.21097 0.21239
 Cu164 Cu 0.25987 -0.28205 0.22091
 Cu165 Cu 0.27239 -0.22492 0.24676
 Cu166 Cu 0.23971 -0.27176 0.28121
 N167 N 0.23311 -0.30242 0.23626
 N168 N 0.22536 -0.29828 0.25997
 C169 C 0.20689 -0.31472 0.26601
 C170 C 0.20269 -0.32989 0.24482
 C171 C 0.21970 -0.32159 0.22631
 H172 H 0.19715 -0.31520 0.28436
 H173 H 0.22192 -0.32883 0.20699
 N174 N 0.24738 -0.23759 0.29516
 N175 N 0.25875 -0.21934 0.28153
 C176 C 0.26020 -0.19790 0.29576
 C177 C 0.24914 -0.20296 0.31951
 C178 C 0.24128 -0.22827 0.31848
 H179 H 0.26903 -0.18018 0.28937
 H180 H 0.23149 -0.23896 0.33349
 H181 H 0.27214 -0.26167 0.26074
 H182 H 0.24114 -0.24915 0.24888
 N183 N 0.70844 0.24984 0.21473
 N184 N 0.71733 0.27082 0.20336
 C185 C 0.70264 0.27763 0.18322
 C186 C 0.68377 0.25987 0.18175
 C187 C 0.68794 0.24249 0.20206
 H188 H 0.70538 0.29425 0.17049
 H189 H 0.67659 0.22612 0.20757
 Cu190 Cu 0.74728 0.28702 0.21600
 Cu191 Cu 0.72346 0.23439 0.24588
 Cu192 Cu 0.77645 0.26397 0.26884
 N193 N 0.77726 0.30325 0.22862
 N194 N 0.78834 0.29419 0.24960
 C195 C 0.80824 0.30878 0.25456
 C196 C 0.80982 0.32798 0.23559
 C197 C 0.78994 0.32385 0.21938
 H198 H 0.82074 0.30544 0.27064
 H199 H 0.78510 0.33513 0.20225
 N200 N 0.76170 0.23321 0.28567
 N201 N 0.74149 0.22194 0.27711
 C202 C 0.73593 0.20186 0.29314
 C203 C 0.75359 0.20050 0.31256
 C204 C 0.76958 0.22055 0.30718
 H205 H 0.72020 0.18930 0.29089
 H206 H 0.78564 0.22565 0.31841
 H207 H 0.73899 0.26798 0.25869
 H208 H 0.75920 0.24655 0.23839
 C209 C 0.23370 -0.00968 0.41048
 C210 C 0.23305 0.01691 0.41121
 C211 C 0.22559 0.02336 0.43596
 N212 N 0.22145 0.00163 0.45031
 C213 C 0.22646 -0.01862 0.43478
 C214 C 0.22165 0.04897 0.44448
 C215 C 0.21733 0.05514 0.47061
 C216 C 0.20838 0.07902 0.47902
 C217 C 0.20821 0.07772 0.50549
 C218 C 0.21681 0.05297 0.51260
 N219 N 0.22249 0.03940 0.49120
 C220 C 0.22070 0.04424 0.53832
 C221 C 0.22382 0.01776 0.54564
 C222 C 0.22745 0.00856 0.57068
 C223 C 0.22689 -0.01803 0.56990
 C224 C 0.22298 -0.02427 0.54440
 N225 N 0.22088 -0.00234 0.52970
 C226 C 0.21892 -0.04959 0.53552
 C227 C 0.21554 -0.05532 0.50925
 C228 C 0.20648 -0.07854 0.50047
 C229 C 0.20768 -0.07726 0.47400
 C230 C 0.21766 -0.05341 0.46729
 N231 N 0.22238 -0.04013 0.48888
 C232 C 0.22325 -0.04500 0.44178
 H233 H 0.23885 -0.02107 0.39389
 H234 H 0.23761 0.02999 0.39534
 H235 H 0.23242 -0.02312 0.48967
 H236 H 0.20269 0.09576 0.46734
 H237 H 0.20251 0.09335 0.51802
 H238 H 0.22943 0.01974 0.58792
 H239 H 0.22839 -0.03111 0.58644
 H240 H 0.20190 -0.09228 0.46120
 H241 H 0.23200 0.02158 0.49071
 H242 H 0.19986 -0.09486 0.51189
 C243 C 0.73803 -0.00062 0.58442
 C244 C 0.73554 0.02585 0.58187
 C245 C 0.73309 0.03146 0.55572
 N246 N 0.73375 0.00921 0.54230
 C247 C 0.73696 -0.01040 0.55979
 C248 C 0.72798 0.05646 0.54491
 C249 C 0.72487 0.06111 0.51817
 C250 C 0.71289 0.08281 0.50731
 C251 C 0.71504 0.08065 0.48101
 C252 C 0.72879 0.05798 0.47646
 N253 N 0.73461 0.04614 0.49927
 C254 C 0.73673 0.04951 0.45182
 C255 C 0.74614 0.02413 0.44735
 C256 C 0.75715 0.01605 0.42449
 C257 C 0.76205 -0.01011 0.42740
 C258 C 0.75389 -0.01715 0.45194
 N259 N 0.74409 0.00377 0.46406
 C260 C 0.75327 -0.04289 0.46174
 C261 C 0.74623 -0.04932 0.48739
 C262 C 0.73996 -0.07396 0.49618
 C263 C 0.73522 -0.07222 0.52216
 C264 C 0.73922 -0.04667 0.52872
 N265 N 0.74598 -0.03286 0.50739
 C266 C 0.73762 -0.03711 0.55410
 H267 H 0.74012 -0.01143 0.60243
 H268 H 0.73489 0.03924 0.59765
 H269 H 0.75266 -0.01407 0.50695
 H270 H 0.70348 0.09857 0.51723
 H271 H 0.70744 0.09440 0.46691
 H272 H 0.76109 0.02772 0.40739
 H273 H 0.77022 -0.02259 0.41290
 H274 H 0.72960 -0.08810 0.53475
 H275 H 0.74701 0.03046 0.50191
 H276 H 0.73887 -0.09147 0.48513
 C277 C 0.42860 0.26363 -0.01419
 C278 C 0.42893 0.26133 0.01218
 C279 C 0.45149 0.24912 0.01859
 N280 N 0.46481 0.24357 -0.00294
 C281 C 0.45081 0.25236 -0.02304
 C282 C 0.45878 0.24201 0.04386
 C283 C 0.48346 0.23381 0.05032
 C284 C 0.49022 0.22167 0.07344
 C285 C 0.51583 0.21831 0.07283
 C286 C 0.52403 0.22832 0.04929
 N287 N 0.50419 0.23777 0.03568
 C288 C 0.54944 0.22932 0.04144
 C289 C 0.55703 0.23210 0.01539
 C290 C 0.58165 0.23409 0.00702
 C291 C 0.58111 0.23482 -0.01941
 C292 C 0.55613 0.23361 -0.02638
 N293 N 0.54150 0.23165 -0.00505
 C294 C 0.54740 0.23241 -0.05200
 C295 C 0.52172 0.23286 -0.05857
 C296 C 0.51258 0.22710 -0.08270
 C297 C 0.48716 0.23195 -0.08199
 C298 C 0.48140 0.24062 -0.05747
 N299 N 0.50258 0.24119 -0.04335
 C300 C 0.45725 0.24896 -0.04927
 H301 H 0.41365 0.27253 -0.02549
 H302 H 0.41431 0.26803 0.02518
 H303 H 0.50428 0.24970 -0.02550
 H304 H 0.47803 0.21582 0.08919
 H305 H 0.52710 0.20932 0.08795
 H306 H 0.59835 0.23463 0.01866
 H307 H 0.59737 0.23578 -0.03194
 H308 H 0.47440 0.22951 -0.09781
 H309 H 0.50504 0.24878 0.01868
 H310 H 0.52313 0.22042 -0.09928
 C311 C 0.57886 0.73804 -0.02472
 C312 C 0.57960 0.73364 0.00139
 C313 C 0.55537 0.73749 0.01060
 N314 N 0.54003 0.74466 -0.00902
 C315 C 0.55435 0.74524 -0.03066
 C316 C 0.54796 0.73370 0.03664
 C317 C 0.52269 0.73327 0.04538
 C318 C 0.51533 0.72261 0.06896
 C319 C 0.48968 0.72430 0.06996
 C320 C 0.48183 0.73611 0.04704
 N321 N 0.50215 0.74177 0.03222
 C322 C 0.45631 0.74074 0.04055
 C323 C 0.44782 0.74842 0.01573
 C324 C 0.42292 0.75332 0.00947
 C325 C 0.42239 0.75920 -0.01638
 C326 C 0.44698 0.75772 -0.02516
 N327 N 0.46246 0.75130 -0.00545
 C328 C 0.45458 0.76314 -0.05087
 C329 C 0.47984 0.76402 -0.05938
 C330 C 0.48724 0.77326 -0.08352
 C331 C 0.51281 0.77032 -0.08483
 C332 C 0.52052 0.75920 -0.06153
 N333 N 0.50025 0.75525 -0.04617
 C334 C 0.54579 0.75268 -0.05562
 H335 H 0.59471 0.73597 -0.03768
 H336 H 0.59611 0.72768 0.01214
 H337 H 0.50015 0.74489 -0.02884
 H338 H 0.52714 0.71360 0.08363
 H339 H 0.47815 0.71696 0.08562
 H340 H 0.40674 0.75288 0.02218
 H341 H 0.40576 0.76437 -0.02730
 H342 H 0.52439 0.77588 -0.10118
 H343 H 0.50215 0.75237 0.01500
 H344 H 0.47552 0.78133 -0.09875
 C345 C -0.02205 0.42912 0.27064
 C346 C 0.00354 0.42659 0.27077
 C347 C 0.01283 0.45152 0.26903
 N348 N -0.00632 0.46911 0.26740
 C349 C -0.02767 0.45547 0.26829
 C350 C 0.03857 0.45741 0.26969
 C351 C 0.04792 0.48296 0.27076
 C352 C 0.07224 0.48842 0.27777
 C353 C 0.07398 0.51490 0.27788
 C354 C 0.05070 0.52519 0.27092
 N355 N 0.03492 0.50555 0.26636
 C356 C 0.04482 0.55222 0.26993
 C357 C 0.02019 0.56294 0.26881
 C358 C 0.01439 0.58931 0.26962
 C359 C -0.01118 0.59174 0.26920
 C360 C -0.02031 0.56682 0.26776
 N361 N -0.00107 0.54927 0.26756
 C362 C -0.04600 0.56095 0.26593
 C363 C -0.05502 0.53541 0.26343
 C364 C -0.07900 0.52983 0.25537
 C365 C -0.08079 0.50332 0.25578
 C366 C -0.05775 0.49322 0.26368
 N367 N -0.04212 0.51289 0.26845
 C368 C -0.05220 0.46630 0.26630
 H369 H -0.03493 0.41323 0.27205
 H370 H 0.01399 0.40838 0.27229
 H371 H -0.02457 0.51106 0.27688
 H372 H 0.08709 0.47479 0.28325
 H373 H 0.09041 0.52530 0.28341
 H374 H 0.02716 0.60527 0.27059
 H375 H -0.02172 0.60992 0.26981
 H376 H -0.09710 0.49267 0.25032
 H377 H 0.01690 0.50744 0.25912
 H378 H -0.09371 0.54339 0.24935
 C379 C -0.00721 0.57523 0.73279
 C380 C 0.01834 0.57667 0.73402
 C381 C 0.02704 0.55285 0.74370
 N382 N 0.00767 0.53689 0.74831
 C383 C -0.01329 0.55052 0.74156
 C384 C 0.05228 0.54675 0.74962
 C385 C 0.06042 0.52157 0.75772
 C386 C 0.08250 0.51585 0.77075
 C387 C 0.08423 0.48925 0.77347
 C388 C 0.06305 0.47942 0.76220
 N389 N 0.04865 0.49929 0.75264
 C390 C 0.05869 0.45272 0.75892
 C391 C 0.03518 0.44304 0.75191
 C392 C 0.03052 0.41735 0.74643
 C393 C 0.00521 0.41591 0.74234
 C394 C -0.00479 0.44066 0.74581
 N395 N 0.01351 0.45714 0.75183
 C396 C -0.03058 0.44726 0.74545
 C397 C -0.04007 0.47274 0.74898
 C398 C -0.06439 0.47890 0.75659
 C399 C -0.06635 0.50557 0.75698
 C400 C -0.04336 0.51499 0.74891
 N401 N -0.02740 0.49479 0.74424
 C402 C -0.03794 0.54154 0.74467
 H403 H -0.01987 0.59062 0.72610
 H404 H 0.02920 0.59343 0.72855
 H405 H -0.00982 0.49588 0.73554
 H406 H 0.09607 0.52940 0.77748
 H407 H 0.09958 0.47842 0.78242
 H408 H 0.04379 0.40118 0.74584
 H409 H -0.00478 0.39848 0.73803
 H410 H -0.08292 0.51664 0.76251
 H411 H 0.03336 0.49767 0.74054
 H412 H -0.07911 0.46556 0.76164
 C413 C 0.34972 0.27477 0.17242
 C414 C 0.36447 0.25313 0.16606
 C415 C 0.38411 0.25406 0.14587
 C416 C 0.38890 0.23197 0.13113
 C417 C 0.40716 0.23228 0.11169
 C418 C 0.42129 0.25462 0.10696
 C419 C 0.41710 0.27642 0.12229
 C420 C 0.39849 0.27628 0.14143
 C421 C 0.44090 0.25528 0.08671
 C422 C 0.43899 0.24146 0.06404
 H423 H 0.36015 0.23438 0.17462
 H424 H 0.37826 0.21453 0.13447
 H425 H 0.41047 0.21489 0.10070
 H426 H 0.42806 0.29369 0.11924
 H427 H 0.39567 0.29336 0.15300
 H428 H 0.45670 0.26784 0.08907
 H429 H 0.35210 0.29301 0.16200
 H430 H 0.42181 0.23162 0.05991
 C431 C 0.64666 0.74754 0.17724
 C432 C 0.64729 0.73273 0.15518
 C433 C 0.62750 0.73531 0.13543
 C434 C 0.62951 0.72060 0.11303
 C435 C 0.61122 0.72284 0.09391
 C436 C 0.59039 0.73983 0.09692
 C437 C 0.58844 0.75452 0.11936
 C438 C 0.60672 0.75229 0.13843
 C439 C 0.57059 0.74340 0.07720
 C440 C 0.56798 0.72783 0.05574
 H441 H 0.66278 0.71909 0.15217
 H442 H 0.64540 0.70746 0.11023
 H443 H 0.61382 0.71146 0.07682
 H444 H 0.57267 0.76781 0.12217
 H445 H 0.60453 0.76394 0.15546
 H446 H 0.55701 0.75914 0.07976
 H447 H 0.65815 0.74559 0.18768
 H448 H 0.58098 0.71195 0.05203
 C449 C 0.67064 0.26853 -0.16957
 C450 C 0.65395 0.24864 -0.16409
 C451 C 0.63563 0.24925 -0.14238
 C452 C 0.61578 0.23183 -0.14220
 C453 C 0.59809 0.23172 -0.12214
 C454 C 0.60004 0.24899 -0.10163
 C455 C 0.61991 0.26633 -0.10176
 C456 C 0.63763 0.26637 -0.12172
 C457 C 0.58160 0.25001 -0.08016
 C458 C 0.56594 0.22966 -0.07325
 H459 H 0.65390 0.23204 -0.17654
 H460 H 0.61378 0.21840 -0.15780
 H461 H 0.58275 0.21845 -0.12312
 H462 H 0.62188 0.27978 -0.08616
 H463 H 0.65294 0.27962 -0.12051
 H464 H 0.58086 0.26727 -0.06855
 H465 H 0.67042 0.28582 -0.15814
 H466 H 0.56612 0.21193 -0.08403
 C467 C 0.33147 0.73593 -0.16635
 C468 C 0.34693 0.75619 -0.15977
 C469 C 0.36496 0.75407 -0.13825
 C470 C 0.37349 0.77683 -0.12717
 C471 C 0.39093 0.77550 -0.10717
 C472 C 0.40037 0.75128 -0.09812
 C473 C 0.39179 0.72857 -0.10916
 C474 C 0.37444 0.72989 -0.12914
 C475 C 0.41892 0.74875 -0.07717
 C476 C 0.43482 0.76849 -0.07029
 H477 H 0.34552 0.77446 -0.17043
 H478 H 0.36649 0.79568 -0.13386
 H479 H 0.39666 0.79341 -0.09872
 H480 H 0.39886 0.70970 -0.10259
 H481 H 0.36903 0.71193 -0.13770
 H482 H 0.42132 0.72992 -0.06764
 H483 H 0.33122 0.71830 -0.15465
 H484 H 0.43477 0.78682 -0.08085
 C485 C 0.17488 0.35125 0.24204
 C486 C 0.15410 0.35212 0.25853
 C487 C 0.13415 0.37258 0.25687
 C488 C 0.11922 0.37735 0.27872
 C489 C 0.10035 0.39662 0.27811
 C490 C 0.09578 0.41135 0.25540
 C491 C 0.11059 0.40644 0.23349
 C492 C 0.12947 0.38718 0.23410
 C493 C 0.07651 0.43250 0.25404
 C494 C 0.05684 0.43525 0.27174
 H495 H 0.15298 0.33803 0.27426
 H496 H 0.12245 0.36639 0.29649
 H497 H 0.08987 0.40019 0.29564
 H498 H 0.10744 0.41749 0.21575
 H499 H 0.14006 0.38366 0.21662
 H500 H 0.07758 0.44648 0.23816
 H501 H 0.17725 0.36612 0.22724
 H502 H 0.05372 0.42043 0.28641
 C503 C 0.18619 0.64899 0.73860
 C504 C 0.16300 0.64993 0.72636
 C505 C 0.14541 0.62821 0.72853
 C506 C 0.11954 0.63360 0.72843
 C507 C 0.10251 0.61348 0.73117
 C508 C 0.11112 0.58753 0.73371
 C509 C 0.13696 0.58208 0.73283
 C510 C 0.15399 0.60221 0.73043
 C511 C 0.09366 0.56577 0.73644
 C512 C 0.07037 0.56824 0.74864
 H513 H 0.15668 0.66765 0.71658
 H514 H 0.11251 0.65345 0.72657
 H515 H 0.08267 0.61827 0.73086
 H516 H 0.14398 0.56220 0.73429
 H517 H 0.17381 0.59735 0.72973
 H518 H 0.09963 0.54699 0.72926
 H519 H 0.19128 0.63204 0.75032
 H520 H 0.06447 0.58680 0.75630
 C521 C -0.18122 0.66644 0.26280
 C522 C -0.15812 0.66904 0.27479
 C523 C -0.13964 0.64728 0.27638
 C524 C -0.11400 0.65232 0.27412
 C525 C -0.09626 0.63192 0.27514
 C526 C -0.10391 0.60617 0.27901
 C527 C -0.12948 0.60125 0.28223
 C528 C -0.14724 0.62157 0.28067
 C529 C -0.08566 0.58422 0.28026
 C530 C -0.06422 0.58324 0.26471
 H531 H -0.15268 0.68777 0.28167
 H532 H -0.10774 0.67204 0.27118
 H533 H -0.07658 0.63634 0.27330
 H534 H -0.13573 0.58159 0.28557
 H535 H -0.16687 0.61722 0.28318
 H536 H -0.09000 0.56761 0.29255
 H537 H -0.18516 0.64836 0.25350
 H538 H -0.06017 0.59953 0.25193
 C539 C -0.15894 0.33814 0.76238
 C540 C -0.13619 0.33725 0.74885
 C541 C -0.11591 0.35587 0.75290
 C542 C -0.09887 0.36073 0.73273
 C543 C -0.07989 0.37868 0.73550
 C544 C -0.07745 0.39204 0.75867
 C545 C -0.09383 0.38642 0.77922
 C546 C -0.11294 0.36859 0.77639
 C547 C -0.05800 0.41169 0.76198
 C548 C -0.04869 0.42651 0.74142
 H549 H -0.13361 0.32354 0.73347
 H550 H -0.10046 0.35084 0.71461
 H551 H -0.06704 0.38185 0.71955
 H552 H -0.09205 0.39614 0.79741
 H553 H -0.12512 0.36467 0.79271
 H554 H -0.05210 0.41603 0.78132
 H555 H -0.16214 0.35290 0.77664
 H556 H -0.05583 0.42436 0.72216
 C557 C 0.25867 0.17943 0.33332
 C558 C 0.23747 0.17328 0.34790
 C559 C 0.23756 0.15230 0.36781
 C560 C 0.21530 0.13921 0.37316
 C561 C 0.21475 0.11923 0.39181
 C562 C 0.23647 0.11219 0.40569
 C563 C 0.25854 0.12581 0.40090
 C564 C 0.25917 0.14558 0.38202
 C565 C 0.23644 0.09131 0.42568
 C566 C 0.22071 0.07013 0.42466
 H567 H 0.21979 0.18304 0.34352
 H568 H 0.19833 0.14433 0.36274
 H569 H 0.19722 0.10966 0.39560
 H570 H 0.27538 0.12099 0.41165
 H571 H 0.27644 0.15583 0.37893
 H572 H 0.25012 0.09180 0.44097
 H573 H 0.27584 0.16811 0.33579
 H574 H 0.20919 0.06760 0.40786
 C575 C 0.75817 0.18227 0.66091
 C576 C 0.73882 0.16545 0.65560
 C577 C 0.74044 0.14596 0.63496
 C578 C 0.71826 0.13599 0.62523
 C579 C 0.71906 0.11712 0.60619
 C580 C 0.74221 0.10775 0.59657
 C581 C 0.76437 0.11753 0.60652
 C582 C 0.76356 0.13639 0.62549
 C583 C 0.74421 0.08689 0.57736
 C584 C 0.72438 0.07862 0.56246
 H585 H 0.72144 0.16712 0.66640
 H586 H 0.70021 0.14275 0.63245
 H587 H 0.70154 0.10962 0.59961
 H588 H 0.78245 0.11036 0.59977
 H589 H 0.78111 0.14283 0.63306
 H590 H 0.76232 0.07727 0.57482
 H591 H 0.77492 0.18226 0.64903
 H592 H 0.70656 0.08903 0.56243
 C593 C 0.25406 -0.16673 0.66552
 C594 C 0.23691 -0.16400 0.64542
 C595 C 0.23723 -0.14239 0.62603
 C596 C 0.21577 -0.13736 0.61113
 C597 C 0.21529 -0.11736 0.59245
 C598 C 0.23644 -0.10193 0.58818
 C599 C 0.25802 -0.10727 0.60281
 C600 C 0.25850 -0.12726 0.62146
 C601 C 0.23708 -0.08039 0.56871
 C602 C 0.21642 -0.07110 0.55472
 H603 H 0.22221 -0.17802 0.64403
 H604 H 0.19924 -0.14892 0.61400
 H605 H 0.19836 -0.11441 0.58145
 H606 H 0.27469 -0.09593 0.59977
 H607 H 0.27575 -0.13096 0.63180
 H608 H 0.25476 -0.07084 0.56545
 H609 H 0.26813 -0.15228 0.66814
 H610 H 0.19837 -0.08001 0.55660
 C611 C 0.72920 -0.16698 0.34321
 C612 C 0.74973 -0.15782 0.35645
 C613 C 0.74718 -0.13783 0.37649
 C614 C 0.76762 -0.12216 0.38167
 C615 C 0.76562 -0.10274 0.40009
 C616 C 0.74311 -0.09886 0.41399
 C617 C 0.72286 -0.11487 0.40910
 C618 C 0.72486 -0.13423 0.39071
 C619 C 0.73958 -0.07816 0.43319
 C620 C 0.75891 -0.06413 0.44368
 H621 H 0.76840 -0.16455 0.35114
 H622 H 0.78506 -0.12463 0.37107
 H623 H 0.78161 -0.09065 0.40289
 H624 H 0.70537 -0.11246 0.41963
 H625 H 0.70896 -0.14648 0.38799
 H626 H 0.72065 -0.07390 0.43989
 H627 H 0.71066 -0.15893 0.34695
 H628 H 0.77819 -0.06731 0.43784
 C629 C 0.67730 0.75002 -0.16146
 C630 C 0.65519 0.76490 -0.16273
 C631 C 0.63760 0.76669 -0.14070
 C632 C 0.61177 0.76818 -0.14539
 C633 C 0.59465 0.76884 -0.12487
 C634 C 0.60316 0.76855 -0.09931
 C635 C 0.62899 0.76829 -0.09463
 C636 C 0.64612 0.76709 -0.11514
 C637 C 0.58545 0.76835 -0.07733
 C638 C 0.56394 0.75350 -0.07746
 H639 H 0.64946 0.77351 -0.18104
 H640 H 0.60482 0.76827 -0.16496
 H641 H 0.57480 0.76976 -0.12902
 H642 H 0.63589 0.76840 -0.07506
 H643 H 0.66597 0.76666 -0.11101
 H644 H 0.59031 0.77850 -0.06006
 H645 H 0.68179 0.73902 -0.14401
 H646 H 0.55926 0.74322 -0.09470
 C647 C 0.32804 0.23341 -0.15802
 C648 C 0.33835 0.25471 -0.14621
 C649 C 0.35740 0.25169 -0.12572
 C650 C 0.37540 0.27087 -0.12315
 C651 C 0.39419 0.26807 -0.10458
 C652 C 0.39515 0.24604 -0.08805
 C653 C 0.37659 0.22736 -0.09002
 C654 C 0.35794 0.23006 -0.10869
 C655 C 0.41465 0.24224 -0.06811
 C656 C 0.43795 0.25398 -0.06936
 H657 H 0.33405 0.27408 -0.15373
 H658 H 0.37514 0.28790 -0.13580
 H659 H 0.40766 0.28332 -0.10306
 H660 H 0.37663 0.21047 -0.07719
 H661 H 0.34385 0.21534 -0.10954
 H662 H 0.41101 0.22870 -0.05230
 H663 H 0.33414 0.21394 -0.15237
 H664 H 0.44329 0.26496 -0.08647
 C665 C 0.34453 0.75677 0.17314
 C666 C 0.35293 0.73801 0.15585
 C667 C 0.37468 0.74107 0.13805
 C668 C 0.38082 0.72063 0.12149
 C669 C 0.40067 0.72266 0.10389
 C670 C 0.41480 0.74535 0.10233
 C671 C 0.40916 0.76553 0.11928
 C672 C 0.38928 0.76354 0.13688
 C673 C 0.43547 0.74858 0.08340
 C674 C 0.43680 0.73520 0.06034
 H675 H 0.34289 0.72002 0.15508
 H676 H 0.37015 0.70297 0.12211
 H677 H 0.40496 0.70629 0.09176
 H678 H 0.41993 0.78312 0.11861
 H679 H 0.38559 0.77980 0.14923
 H680 H 0.44923 0.76326 0.08681
 H681 H 0.35406 0.77489 0.17477
 H682 H 0.42183 0.72255 0.05518
 C683 C 0.66336 0.26060 0.16284
 C684 C 0.64837 0.23932 0.15854
 C685 C 0.62809 0.24018 0.13924
 C686 C 0.62221 0.21746 0.12635
 C687 C 0.60339 0.21785 0.10772
 C688 C 0.58985 0.24097 0.10194
 C689 C 0.59516 0.26345 0.11546
 C690 C 0.61420 0.26316 0.13381
 C691 C 0.56968 0.24217 0.08253
 C692 C 0.56918 0.22600 0.06132
 H693 H 0.65263 0.22100 0.16837
 H694 H 0.63244 0.19945 0.13047
 H695 H 0.59926 0.19997 0.09820
 H696 H 0.58470 0.28137 0.11163
 H697 H 0.61774 0.28083 0.14396
 H698 H 0.55549 0.25748 0.08401
 H699 H 0.66084 0.27818 0.15124
 H700 H 0.58463 0.21253 0.05781
 C701 C -0.17466 0.64550 0.74404
 C702 C -0.15213 0.64555 0.73012
 C703 C -0.13432 0.62318 0.73004
 C704 C -0.10865 0.62796 0.72761
 C705 C -0.09113 0.60744 0.72801
 C706 C -0.09901 0.58165 0.73043
 C707 C -0.12472 0.57673 0.73177
 C708 C -0.14229 0.59734 0.73185
 C709 C -0.08059 0.55985 0.73135
 C710 C -0.05834 0.56164 0.74503
 H711 H -0.14608 0.66332 0.72073
 H712 H -0.10211 0.64769 0.72579
 H713 H -0.07142 0.61174 0.72616
 H714 H -0.13116 0.55695 0.73327
 H715 H -0.16202 0.59303 0.73300
 H716 H -0.08487 0.54208 0.72168
 H717 H -0.17974 0.62827 0.75504
 H718 H -0.05476 0.57946 0.75496
 C719 C -0.17139 0.34840 0.23275
 C720 C -0.15509 0.35394 0.25270
 C721 C -0.13596 0.37423 0.25086
 C722 C -0.12752 0.38518 0.27364
 C723 C -0.10884 0.40372 0.27290
 C724 C -0.09803 0.41160 0.24926
 C725 C -0.10619 0.40037 0.22648
 C726 C -0.12508 0.38195 0.22721
 C727 C -0.07743 0.43038 0.24802
 C728 C -0.07372 0.44858 0.26706
 H729 H -0.15724 0.34387 0.27109
 H730 H -0.13534 0.37928 0.29214
 H731 H -0.10249 0.41127 0.29095
 H732 H -0.09789 0.40578 0.20808
 H733 H -0.13061 0.37334 0.20936
 H734 H -0.06487 0.43014 0.23149
 H735 H -0.17122 0.35993 0.21507
 H736 H -0.08777 0.45154 0.28194
 C737 C 0.18193 0.33089 0.73292
 C738 C 0.17603 0.34887 0.75188
 C739 C 0.15468 0.36768 0.74955
 C740 C 0.14370 0.37769 0.77202
 C741 C 0.12313 0.39497 0.77058
 C742 C 0.11329 0.40291 0.74648
 C743 C 0.12462 0.39323 0.72403
 C744 C 0.14512 0.37594 0.72548
 C745 C 0.09128 0.42087 0.74367
 C746 C 0.07976 0.43412 0.76389
 H747 H 0.18643 0.34816 0.76972
 H748 H 0.15080 0.37176 0.79080
 H749 H 0.11500 0.40164 0.78845
 H750 H 0.11760 0.39913 0.70520
 H751 H 0.15353 0.36939 0.70766
 H752 H 0.08384 0.42427 0.72447
 H753 H 0.17055 0.33009 0.71582
 H754 H 0.08731 0.43304 0.78313
 C755 C 0.18380 0.64999 0.24170
 C756 C 0.16680 0.64359 0.26133
 C757 C 0.14658 0.62444 0.25915
 C758 C 0.13246 0.61835 0.28135
 C759 C 0.11277 0.60102 0.28039
 C760 C 0.10656 0.58947 0.25706
 C761 C 0.12090 0.59514 0.23494
 C762 C 0.14060 0.61254 0.23586
 C763 C 0.08569 0.57115 0.25525
 C764 C 0.06562 0.57061 0.27266
 H765 H 0.16825 0.65322 0.27956
 H766 H 0.13671 0.62704 0.29959
 H767 H 0.10274 0.59652 0.29807
 H768 H 0.11660 0.58633 0.21677
 H769 H 0.15071 0.61668 0.21820
 H770 H 0.08552 0.55820 0.23906
 H771 H 0.18348 0.64038 0.22341
 H772 H 0.06396 0.58504 0.28746
 C773 C 0.76418 -0.17266 0.66768
 C774 C 0.74561 -0.15390 0.66219
 C775 C 0.74804 -0.13390 0.64142
 C776 C 0.73323 -0.11111 0.64268
 C777 C 0.73459 -0.09196 0.62325
 C778 C 0.75060 -0.09543 0.60182
 C779 C 0.76548 -0.11820 0.60064
 C780 C 0.76416 -0.13732 0.62011
 C781 C 0.75242 -0.07602 0.58039
 C782 C 0.73499 -0.05581 0.57606
 H783 H 0.72891 -0.15315 0.67416
 H784 H 0.72067 -0.10801 0.65890
 H785 H 0.72320 -0.07453 0.62540
 H786 H 0.77794 -0.12142 0.58437
 H787 H 0.77539 -0.15490 0.61803
 H788 H 0.76775 -0.07824 0.56671
 H789 H 0.78180 -0.17252 0.65725
 H790 H 0.71961 -0.05251 0.58933
 C791 C 0.24615 -0.18561 0.34156
 C792 C 0.25131 -0.15921 0.33961
 C793 C 0.24791 -0.14119 0.36124
 C794 C 0.24386 -0.11467 0.35567
 C795 C 0.24062 -0.09698 0.37551
 C796 C 0.24157 -0.10550 0.40143
 C797 C 0.24635 -0.13191 0.40704
 C798 C 0.24937 -0.14966 0.38716
 C799 C 0.23862 -0.08722 0.42288
 C800 C 0.22436 -0.06422 0.42086
 H801 H 0.25668 -0.15099 0.32105
 H802 H 0.24310 -0.10761 0.33585
 H803 H 0.23792 -0.07662 0.37045
 H804 H 0.24761 -0.13884 0.42686
 H805 H 0.25331 -0.16983 0.39219
 H806 H 0.24756 -0.09227 0.44105
 H807 H 0.23872 -0.19377 0.35935
 H808 H 0.21495 -0.05923 0.40297
 C809 C 0.75563 0.18235 0.33480
 C810 C 0.73771 0.16377 0.34065
 C811 C 0.73928 0.14577 0.36335
 C812 C 0.72426 0.12375 0.36402
 C813 C 0.72507 0.10629 0.38504
 C814 C 0.74107 0.11047 0.40592
 C815 C 0.75563 0.13280 0.40552
 C816 C 0.75476 0.15030 0.38456
 C817 C 0.74275 0.09251 0.42862
 C818 C 0.73377 0.06726 0.42902
 H819 H 0.72208 0.16184 0.32772
 H820 H 0.71184 0.12000 0.34818
 H821 H 0.71285 0.08986 0.38486
 H822 H 0.76778 0.13676 0.42152
 H823 H 0.76597 0.16745 0.38542
 H824 H 0.75234 0.09906 0.44554
 H825 H 0.77202 0.18389 0.34670
 H826 H 0.72650 0.05919 0.41162
 C827 C 0.25725 0.15082 0.66995
 C828 C 0.24494 0.15242 0.64632
 C829 C 0.24400 0.13075 0.62805
 C830 C 0.22569 0.13180 0.60879
 C831 C 0.22429 0.11209 0.59082
 C832 C 0.24129 0.09081 0.59173
 C833 C 0.25991 0.08998 0.61067
 C834 C 0.26128 0.10969 0.62870
 C835 C 0.24082 0.06984 0.57269
 C836 C 0.21959 0.06396 0.55866
 H837 H 0.23472 0.17015 0.64119
 H838 H 0.21242 0.14802 0.60757
 H839 H 0.21023 0.11398 0.57597
 H840 H 0.27349 0.07402 0.61151
 H841 H 0.27619 0.10851 0.64267
 H842 H 0.25772 0.05812 0.56988
 H843 H 0.26634 0.13285 0.67629
 H844 H 0.20217 0.07473 0.56134
   
