data_POSCAR
  _audit_creation_date              2014-09-24
  _audit_creation_method            'ToBaCCo'
  _symmetry_space_group_name_H-M    'P1'
  _symmetry_Int_Tables_number       1
  _symmetry_cell_setting            triclinic
  loop_
  _symmetry_equiv_pos_as_xyz
 x,y,z
_cell_length_a 28.0828
_cell_length_b 27.9457
_cell_length_c 27.9136
_cell_angle_alpha 90.156500
_cell_angle_beta 89.928800
_cell_angle_gamma 89.807700
loop_
  _atom_site_label
  _atom_site_type_symbol
  _atom_site_fract_x
  _atom_site_fract_y
  _atom_site_fract_z
C1 C 0.17762 1.23967 0.18038
 N2 N 0.15792 1.21942 0.21982
 C3 C 0.17802 1.17994 0.23968
 N4 N 0.21776 1.16053 0.21975
 C5 C 0.23761 1.18070 0.18037
 N6 N 0.21736 1.22010 0.16060
 C7 C 0.81622 0.75803 0.18668
 N8 N 0.83613 0.77862 0.22591
 C9 C 0.81707 0.81915 0.24489
 N10 N 0.77831 0.83944 0.22412
 C11 C 0.75808 0.81882 0.18510
 N12 N 0.77716 0.77821 0.16633
 C13 C 0.82041 1.24356 -0.18121
 N14 N 0.83969 1.22449 -0.22161
 C15 C 0.81947 1.18573 -0.24270
 N16 N 0.77973 1.16613 -0.22328
 C17 C 0.76049 1.18492 -0.18275
 N18 N 0.78114 1.22333 -0.16153
 C19 C 0.18452 0.75719 -0.18357
 N20 N 0.22331 0.77770 -0.16322
 C21 C 0.24347 0.81679 -0.18348
 N22 N 0.22406 0.83608 -0.22353
 C23 C 0.18505 0.81591 -0.24386
 N24 N 0.16543 0.77634 -0.22387
 C25 C 0.57047 1.07129 -0.01594
 H26 H 0.56834 1.07435 0.02265
 C27 C 0.60418 1.09772 -0.04121
 H28 H 0.62785 1.12155 -0.02205
 C29 C 0.54345 1.03507 -0.08782
 H30 H 0.52035 1.00982 -0.10564
 C31 C 0.57724 1.06030 -0.11441
 H32 H 0.57946 1.05471 -0.15271
 N33 N 0.54103 1.04067 -0.03944
 C34 C 0.42892 1.01462 0.06552
 H35 H 0.43084 0.97602 0.06770
 C36 C 0.39445 1.03950 0.09169
 H37 H 0.37009 1.02002 0.11450
 C38 C 0.45698 1.08693 0.03156
 H39 H 0.48060 1.10514 0.00715
 C40 C 0.42248 1.11314 0.05656
 H41 H 0.42042 1.15148 0.05175
 Zn42 Zn 0.50119 1.00135 -0.00194
 N43 N 0.45950 1.03854 0.03640
 C44 C 0.53933 0.96296 0.08480
 N45 N 0.54182 0.96295 0.03610
 C46 C 0.57628 0.93796 0.01250
 C47 C 0.61011 0.91170 0.03796
 C48 C 0.57216 0.93663 0.11165
 C49 C 0.42787 0.98692 -0.06650
 C50 C 0.39405 0.96160 -0.09274
 C51 C 0.43210 0.88787 -0.06851
 C52 C 0.46497 0.91462 -0.04215
 N53 N 0.46212 0.96325 -0.04153
 H54 H 0.51272 0.98420 0.10305
 H55 H 0.57802 0.93934 -0.02620
 H56 H 0.63797 0.89275 0.01881
 H57 H 0.57022 0.93761 0.15035
 H58 H 0.42607 1.02557 -0.06477
 H59 H 0.36612 0.98081 -0.11135
 H60 H 0.43406 0.84920 -0.06787
 H61 H 0.49186 0.89648 -0.02126
 C62 C 0.39053 1.08919 0.08665
 C63 C 0.60842 1.09154 -0.09085
 C64 C 0.39587 0.91154 -0.09367
 C65 C 0.60815 0.91090 0.08807
 C66 C -0.01423 0.57091 1.07268
 H67 H 0.02409 0.56781 1.07536
 C68 C -0.03855 0.60439 1.10073
 H69 H -0.01867 0.62708 1.12490
 C70 C -0.08628 0.54667 1.03584
 H71 H -0.10453 0.52504 1.00955
 C72 C -0.11195 0.58014 1.06287
 H73 H -0.14997 0.58389 1.05754
 N74 N -0.03828 0.54268 1.04126
 C75 C 0.06622 0.42975 1.01553
 H76 H 0.06962 0.43228 0.97701
 C77 C 0.09195 0.39509 1.04046
 H78 H 0.11564 0.37121 1.02113
 C79 C 0.02976 0.45648 1.08748
 H80 H 0.00455 0.47963 1.10548
 C81 C 0.05426 0.42174 1.11371
 H82 H 0.04830 0.41905 1.15189
 Zn83 Zn -0.00125 0.50187 1.00182
 N84 N 0.03611 0.45980 1.03925
 C85 C 0.08557 0.54052 0.96469
 N86 N 0.03713 0.54197 0.96339
 C87 C 0.01362 0.57497 0.93653
 C88 C 0.03889 0.60841 0.90967
 C89 C 0.11225 0.57300 0.93782
 C90 C -0.07160 0.43363 0.98605
 C91 C -0.09739 0.39961 0.96034
 C92 C -0.05763 0.42532 0.88809
 C93 C -0.03308 0.45945 0.91507
 N94 N -0.04013 0.46259 0.96322
 H95 H 0.10366 0.51508 0.98736
 H96 H -0.02489 0.57583 0.93682
 H97 H 0.01975 0.63516 0.88925
 H98 H 0.15072 0.57201 0.93983
 H99 H -0.07573 0.43622 1.02451
 H100 H -0.12186 0.37627 0.97902
 H101 H -0.05085 0.42245 0.85003
 H102 H -0.00706 0.48205 0.89785
 C103 C 0.08543 0.39038 1.08996
 C104 C -0.08796 0.60933 1.09576
 C105 C -0.08966 0.39454 0.91102
 C106 C 0.08874 0.60751 0.91014
 C107 C 1.07142 -0.01592 0.57039
 H108 H 1.07468 0.02260 0.56861
 C109 C 1.09820 -0.04173 0.60360
 H110 H 1.12243 -0.02304 0.62724
 C111 C 1.03458 -0.08710 0.54295
 H112 H 1.00901 -0.10446 0.51985
 C113 C 1.06012 -0.11421 0.57624
 H114 H 1.05441 -0.15242 0.57811
 N115 N 1.04036 -0.03882 0.54095
 C116 C 1.01409 0.06658 0.42889
 H117 H 0.97570 0.06915 0.43100
 C118 C 1.03873 0.09261 0.39432
 H119 H 1.01929 0.11572 0.37011
 C120 C 1.08608 0.03183 0.45655
 H121 H 1.10426 0.00719 0.48005
 C122 C 1.11204 0.05665 0.42191
 H123 H 1.15017 0.05149 0.41964
 Zn124 Zn 1.00106 -0.00079 0.50130
 N125 N 1.03796 0.03717 0.45936
 C126 C 0.96298 0.08625 0.53989
 N127 N 0.96309 0.03760 0.54240
 C128 C 0.93816 0.01429 0.57695
 C129 C 0.91174 0.03997 0.61075
 C130 C 0.93649 0.11332 0.57267
 C131 C 0.98607 -0.06506 0.42727
 C132 C 0.96061 -0.09117 0.39332
 C133 C 0.88753 -0.06643 0.43204
 C134 C 0.91441 -0.04021 0.46503
 N135 N 0.96277 -0.03994 0.46192
 H136 H 0.98416 0.10429 0.51323
 H137 H 0.93960 -0.02436 0.57872
 H138 H 0.89280 0.02103 0.63866
 H139 H 0.93731 0.15197 0.57069
 H140 H 1.02451 -0.06362 0.42528
 H141 H 0.97952 -0.10996 0.36511
 H142 H 0.84907 -0.06556 0.43423
 H143 H 0.89656 -0.01921 0.49223
 C144 C 1.08814 0.08710 0.39012
 C145 C 1.09190 -0.09128 0.60738
 C146 C 0.91081 -0.09180 0.39543
 C147 C 0.91070 0.09002 0.60866
 C148 C 0.11074 0.29873 1.09750
 C149 C 0.16500 0.29627 1.10684
 C150 C 0.15475 0.27886 1.15803
 C151 C 0.10082 0.28080 1.14888
 C152 C 0.15431 0.33051 1.17696
 C153 C 0.16418 0.34855 1.12535
 C154 C 0.11021 0.35062 1.11619
 C155 C 0.10000 0.33308 1.16746
 H156 H 0.09253 0.28583 1.06466
 H157 H 0.19186 0.28090 1.08192
 H158 H 0.07492 0.25254 1.15870
 H159 H 0.17257 0.34317 1.20986
 H160 H 0.19000 0.37686 1.11548
 H161 H 0.07317 0.34784 1.19275
 C162 C -0.16387 0.64329 1.14553
 C163 C -0.14581 0.67213 1.18944
 C164 C -0.16092 0.71864 1.16442
 C165 C -0.17947 0.69047 1.12091
 C166 C -0.11154 0.72337 1.14117
 C167 C -0.09602 0.67637 1.16585
 C168 C -0.11438 0.64806 1.12222
 C169 C -0.12973 0.69471 1.09741
 H170 H -0.18513 0.60993 1.14720
 H171 H -0.15276 0.66322 1.22754
 H172 H -0.21401 0.69649 1.10255
 H173 H -0.09021 0.75671 1.13949
 H174 H -0.06181 0.67076 1.18490
 H175 H -0.12281 0.70373 1.05933
 C176 C -0.11406 0.30286 0.90279
 C177 C -0.16818 0.30020 0.89283
 C178 C -0.15718 0.28268 0.84171
 C179 C -0.10338 0.28483 0.85145
 C180 C -0.15704 0.33431 0.82296
 C181 C -0.16767 0.35244 0.87450
 C182 C -0.11382 0.35473 0.88427
 C183 C -0.10286 0.33708 0.83307
 H184 H -0.09609 0.29010 0.93580
 H185 H -0.19516 0.28479 0.91741
 H186 H -0.07710 0.25661 0.84185
 H187 H -0.17504 0.34684 0.78989
 H188 H -0.19389 0.38069 0.88415
 H189 H -0.07594 0.35189 0.80810
 C190 C 0.16955 0.64567 0.87190
 C191 C 0.15759 0.66474 0.82115
 C192 C 0.16053 0.71617 0.84051
 C193 C 0.17281 0.69767 0.89087
 C194 C 0.10711 0.71598 0.85260
 C195 C 0.10381 0.66403 0.83357
 C196 C 0.11602 0.64552 0.88401
 C197 C 0.11907 0.69708 0.90317
 H198 H 0.19546 0.61663 0.87958
 H199 H 0.17371 0.65189 0.78712
 H200 H 0.20138 0.71182 0.91437
 H201 H 0.08162 0.74529 0.84444
 H202 H 0.07525 0.64984 0.81010
 H203 H 0.10301 0.71009 0.93717
 C204 C 1.12221 0.16651 0.34827
 C205 C 1.17392 0.15735 0.33068
 C206 C 1.15574 0.15697 0.27881
 C207 C 1.10445 0.16651 0.29577
 C208 C 1.14770 0.10264 0.28087
 C209 C 1.16553 0.10263 0.33335
 C210 C 1.11416 0.11214 0.35045
 C211 C 1.09622 0.11186 0.29834
 H212 H 1.11153 0.19254 0.37644
 H213 H 1.20609 0.17640 0.34356
 H214 H 1.07935 0.19292 0.28007
 H215 H 1.15832 0.07652 0.25275
 H216 H 1.19101 0.07627 0.34843
 H217 H 1.06412 0.09284 0.28521
 C218 C 1.11775 -0.10070 0.69855
 C219 C 1.10821 -0.15236 0.71558
 C220 C 1.16221 -0.16143 0.71706
 C221 C 1.17205 -0.10994 0.70049
 C222 C 1.16182 -0.17937 0.66500
 C223 C 1.10742 -0.16994 0.66292
 C224 C 1.11723 -0.11837 0.64625
 C225 C 1.17128 -0.12744 0.64782
 H226 H 1.09934 -0.06820 0.71222
 H227 H 1.08238 -0.16274 0.74382
 H228 H 1.19877 -0.08524 0.71614
 H229 H 1.18027 -0.21196 0.65159
 H230 H 1.08075 -0.19499 0.64784
 H231 H 1.19699 -0.11699 0.61952
 C232 C 0.82979 -0.12818 0.35548
 C233 C 0.82716 -0.10826 0.30380
 C234 C 0.83943 -0.15834 0.28432
 C235 C 0.84166 -0.17866 0.33535
 C236 C 0.89291 -0.14689 0.28541
 C237 C 0.88099 -0.09659 0.30539
 C238 C 0.88338 -0.11670 0.35660
 C239 C 0.89550 -0.16685 0.33702
 H240 H 0.80361 -0.12074 0.38438
 H241 H 0.79892 -0.08416 0.28984
 H242 H 0.82522 -0.21270 0.34723
 H243 H 0.91870 -0.15473 0.25624
 H244 H 0.89740 -0.06257 0.29339
 H245 H 0.92378 -0.19084 0.35106
 C246 C 0.90459 0.12172 0.69813
 C247 C 0.89181 0.17565 0.69864
 C248 C 0.84211 0.16305 0.71798
 C249 C 0.85469 0.10946 0.71794
 C250 C 0.82222 0.15936 0.66688
 C251 C 0.87233 0.17157 0.64689
 C252 C 0.88494 0.11786 0.64685
 C253 C 0.83517 0.10540 0.66626
 H254 H 0.93870 0.10600 0.71069
 H255 H 0.91511 0.20470 0.71218
 H256 H 0.84726 0.08406 0.74752
 H257 H 0.78808 0.17512 0.65445
 H258 H 0.87934 0.19733 0.61756
 H259 H 0.81201 0.07630 0.65261
 C260 C 0.34763 1.12255 0.16627
 C261 C 0.33088 1.17487 0.15808
 C262 C 0.27912 1.15733 0.15636
 C263 C 0.29529 1.10542 0.16488
 C264 C 0.28234 1.15021 0.10183
 C265 C 0.33465 1.16744 0.10318
 C266 C 0.35091 1.11545 0.11170
 C267 C 0.29895 1.09811 0.11005
 H268 H 0.37493 1.11098 0.19256
 H269 H 0.34357 1.20667 0.17819
 H270 H 0.27877 1.08002 0.19044
 H271 H 0.25505 1.16175 0.07550
 H272 H 0.35045 1.19337 0.07772
 H273 H 0.28597 1.06638 0.09000
 C274 C 0.69962 1.11571 -0.09959
 C275 C 0.71665 1.10659 -0.15149
 C276 C 0.71913 1.16094 -0.15942
 C277 C 0.70253 1.17034 -0.10771
 C278 C 0.66744 1.16177 -0.17739
 C279 C 0.66440 1.10705 -0.16914
 C280 C 0.64773 1.11647 -0.11735
 C281 C 0.65027 1.17086 -0.12527
 H282 H 0.71272 1.09648 -0.06743
 H283 H 0.74439 1.08035 -0.16245
 H284 H 0.71851 1.19655 -0.08252
 H285 H 0.65464 1.18106 -0.20963
 H286 H 0.64909 1.08095 -0.19482
 H287 H 0.62253 1.19708 -0.11430
 C288 C 0.33755 0.89655 -0.16857
 C289 C 0.33571 0.84248 -0.18072
 C290 C 0.28499 0.84043 -0.16010
 C291 C 0.28631 0.89416 -0.14827
 C292 C 0.30450 0.82803 -0.11018
 C293 C 0.35581 0.83042 -0.13042
 C294 C 0.35710 0.88426 -0.11857
 C295 C 0.30625 0.88209 -0.09813
 H296 H 0.35151 0.92491 -0.19249
 H297 H 0.34736 0.82592 -0.21499
 H298 H 0.25733 0.92017 -0.15580
 H299 H 0.29055 0.79968 -0.08624
 H300 H 0.38448 0.80395 -0.12335
 H301 H 0.29444 0.89860 -0.06389
 C302 C 0.64659 0.87349 0.16953
 C303 C 0.66625 0.82291 0.15758
 C304 C 0.71715 0.84263 0.16072
 C305 C 0.69807 0.89284 0.17299
 C306 C 0.71690 0.85446 0.10696
 C307 C 0.66546 0.83507 0.10347
 C308 C 0.64635 0.88535 0.11567
 C309 C 0.69739 0.90489 0.11891
 H310 H 0.61762 0.88101 0.19558
 H311 H 0.65390 0.78889 0.17376
 H312 H 0.71182 0.91653 0.20177
 H313 H 0.74622 0.84641 0.08144
 H314 H 0.65168 0.81142 0.07467
 H315 H 0.70990 0.93887 0.10278
   
