data_POSCAR
  _audit_creation_date              2014-09-24
  _audit_creation_method            'ToBaCCo'
  _symmetry_space_group_name_H-M    'P1'
  _symmetry_Int_Tables_number       1
  _symmetry_cell_setting            triclinic
  loop_
  _symmetry_equiv_pos_as_xyz
 x,y,z
_cell_length_a 30.6549
_cell_length_b 30.1880
_cell_length_c 16.7183
_cell_angle_alpha 89.454200
_cell_angle_beta 90.275300
_cell_angle_gamma 118.259100
loop_
  _atom_site_label
  _atom_site_type_symbol
  _atom_site_fract_x
  _atom_site_fract_y
  _atom_site_fract_z
C1 C 0.39729 0.84289 0.55091
 C2 C 0.39955 0.84038 0.46953
 C3 C 0.42406 0.88957 0.44124
 N4 N 0.43557 0.92197 0.50277
 C5 C 0.41992 0.89348 0.56994
 C6 C 0.43419 0.90333 0.35949
 C7 C 0.45911 0.95378 0.33132
 C8 C 0.46080 0.96831 0.25188
 C9 C 0.48825 1.01976 0.24920
 C10 C 0.50379 1.03550 0.32675
 N11 N 0.48624 0.99497 0.37622
 C12 C 0.53507 1.08612 0.34885
 C13 C 0.54789 1.10200 0.42887
 C14 C 0.58720 1.14766 0.45083
 C15 C 0.58648 1.14937 0.53264
 C16 C 0.54571 1.10539 0.55812
 N17 N 0.52245 1.07629 0.49440
 C18 C 0.52899 1.09400 0.63860
 C19 C 0.49292 1.04499 0.66306
 C20 C 0.46822 1.03356 0.73590
 C21 C 0.43941 0.98231 0.73919
 C22 C 0.44597 0.96368 0.66738
 N23 N 0.47886 1.00205 0.62146
 C24 C 0.42366 0.91203 0.64824
 H25 H 0.38016 0.81097 0.59129
 H26 H 0.38448 0.80604 0.43533
 H27 H 0.49514 0.99843 0.56937
 H28 H 0.44407 0.94467 0.20061
 H29 H 0.49641 1.04286 0.19579
 H30 H 0.61396 1.17644 0.41184
 H31 H 0.61267 1.17991 0.56908
 H32 H 0.41612 0.96133 0.78893
 H33 H 0.49605 0.99508 0.43560
 H34 H 0.47095 1.05942 0.78246
 C35 C 0.15376 0.53191 0.45884
 C36 C 0.15416 0.53375 0.54077
 C37 C 0.10661 0.52240 0.56418
 N38 N 0.07714 0.51322 0.49926
 C39 C 0.10581 0.51869 0.43488
 C40 C 0.09131 0.52201 0.64414
 C41 C 0.04102 0.50494 0.66459
 C42 C 0.02486 0.51626 0.73518
 C43 C -0.02597 0.48945 0.73501
 C44 C -0.03943 0.46260 0.66433
 N45 N 0.00156 0.47228 0.62167
 C46 C -0.08831 0.42755 0.64328
 C47 C -0.10164 0.40903 0.56510
 C48 C -0.14680 0.36928 0.54342
 C49 C -0.14732 0.36808 0.46139
 C50 C -0.10262 0.40755 0.43601
 N51 N -0.07471 0.43226 0.49956
 C52 C -0.09025 0.42396 0.35585
 C53 C -0.04051 0.45614 0.33215
 C54 C -0.02623 0.48060 0.25864
 C55 C 0.02463 0.50595 0.25800
 C56 C 0.04022 0.49754 0.33188
 N57 N 0.00039 0.46680 0.37646
 C58 C 0.09023 0.51576 0.35459
 H59 H 0.18529 0.53968 0.42130
 H60 H 0.18593 0.54264 0.57865
 H61 H 0.00149 0.45019 0.43071
 H62 H 0.04745 0.54081 0.78239
 H63 H -0.05021 0.48926 0.78203
 H64 H -0.17670 0.34470 0.58258
 H65 H -0.17769 0.34224 0.42450
 H66 H 0.04739 0.52827 0.20869
 H67 H 0.00279 0.45306 0.57110
 H68 H -0.04990 0.48021 0.21013
 C69 C 0.63188 0.47505 0.46355
 C70 C 0.63571 0.48044 0.54515
 C71 C 0.59751 0.48960 0.56923
 N72 N 0.57036 0.48968 0.50546
 C73 C 0.59109 0.48047 0.44083
 C74 C 0.58572 0.49375 0.64949
 C75 C 0.55172 0.51118 0.67003
 C76 C 0.52738 0.50226 0.74292
 C77 C 0.49845 0.52569 0.73952
 C78 C 0.50609 0.54870 0.66487
 N79 N 0.53872 0.53968 0.62285
 C80 C 0.48363 0.57781 0.63790
 C81 C 0.48408 0.59080 0.55647
 C82 C 0.47366 0.62794 0.52736
 C83 C 0.47194 0.62393 0.44554
 C84 C 0.48097 0.58423 0.42780
 N85 N 0.48870 0.56432 0.49560
 C86 C 0.47527 0.56226 0.35178
 C87 C 0.49147 0.52658 0.33555
 C88 C 0.47759 0.49526 0.26971
 C89 C 0.50421 0.46919 0.27338
 C90 C 0.53370 0.48551 0.34122
 N91 N 0.52559 0.52039 0.37880
 C92 C 0.57008 0.47149 0.36338
 H93 H 0.65551 0.46667 0.42563
 H94 H 0.66304 0.47737 0.58270
 H95 H 0.54650 0.54309 0.42567
 H96 H 0.52972 0.48053 0.79305
 H97 H 0.47416 0.52537 0.78655
 H98 H 0.46673 0.65417 0.56172
 H99 H 0.46317 0.64634 0.40410
 H100 H 0.50259 0.44188 0.23035
 H101 H 0.55444 0.55550 0.56782
 H102 H 0.45141 0.49192 0.22344
 O103 O 0.40613 0.68052 -0.10126
 O104 O 0.39299 0.75731 -0.06320
 C105 C 0.35823 0.76155 -0.09850
 O106 O 0.31293 0.73190 -0.08465
 O107 O 0.23778 0.64201 -0.06557
 C108 C 0.23636 0.60678 -0.10866
 O109 O 0.26597 0.58884 -0.10038
 O110 O 0.35469 0.59872 -0.08201
 C111 C 0.38918 0.63485 -0.12037
 O112 O 0.41212 0.66079 0.05548
 O113 O 0.39533 0.73455 0.09155
 C114 C 0.36606 0.75040 0.11441
 O115 O 0.32669 0.74124 0.07618
 O116 O 0.25535 0.65054 0.09453
 C117 C 0.23879 0.60369 0.10458
 O118 O 0.24991 0.57789 0.05748
 O119 O 0.34000 0.59248 0.07819
 C120 C 0.38479 0.62140 0.09586
 Cr121 Cr 0.39896 0.70662 -0.00462
 Cr122 Cr 0.28477 0.69038 0.00460
 Cr123 Cr 0.30382 0.59218 -0.01152
 O124 O 0.32917 0.66314 -0.00487
 O125 O 0.60627 0.36055 -0.06775
 O126 O 0.59768 0.27202 -0.10022
 C127 C 0.61637 0.24354 -0.11636
 O128 O 0.65024 0.24198 -0.07386
 O129 O 0.73865 0.31819 -0.09071
 C130 C 0.76398 0.36463 -0.10714
 O131 O 0.76145 0.39929 -0.06791
 O132 O 0.68587 0.41522 -0.08559
 C133 C 0.64058 0.39913 -0.10128
 O134 O 0.60428 0.33956 0.08988
 O135 O 0.58935 0.24850 0.05658
 C136 C 0.61547 0.23542 0.09981
 O137 O 0.66136 0.25210 0.08749
 O138 O 0.75091 0.32478 0.06959
 C139 C 0.76235 0.36414 0.11001
 O140 O 0.74746 0.39551 0.09247
 O141 O 0.67326 0.41296 0.07366
 C142 C 0.63350 0.38440 0.11086
 Cr143 Cr 0.60217 0.30623 -0.00523
 Cr144 Cr 0.69918 0.28602 -0.00199
 Cr145 Cr 0.71544 0.40287 0.00292
 O146 O 0.67242 0.33193 -0.00213
 C147 C 0.35752 0.85921 -0.24925
 C148 C 0.40427 0.87473 -0.28512
 C149 C 0.43425 0.85441 -0.25833
 C150 C 0.41842 0.81841 -0.19789
 C151 C 0.37241 0.80212 -0.16010
 C152 C 0.34212 0.82420 -0.18396
 C153 C 0.32617 0.87854 -0.27633
 C154 C 0.28160 0.86576 -0.23764
 C155 C 0.26785 0.83420 -0.17093
 C156 C 0.29779 0.81391 -0.14380
 H157 H 0.33616 0.90410 -0.32696
 H158 H 0.25809 0.88120 -0.25854
 H159 H 0.23388 0.82560 -0.13965
 H160 H 0.28617 0.79164 -0.08985
 H161 H 0.47003 0.86593 -0.28575
 H162 H 0.44248 0.80266 -0.18135
 C163 C 0.12536 0.51089 -0.22646
 C164 C 0.12728 0.54072 -0.29424
 C165 C 0.16463 0.59108 -0.29839
 C166 C 0.19886 0.61230 -0.23672
 C167 C 0.19718 0.58381 -0.16933
 C168 C 0.16015 0.53288 -0.16322
 C169 C 0.09088 0.45908 -0.22151
 C170 C 0.08889 0.43062 -0.15416
 C171 C 0.12144 0.45277 -0.09090
 C172 C 0.15687 0.50329 -0.09522
 H173 H 0.06547 0.43991 -0.26980
 H174 H 0.06198 0.39114 -0.15110
 H175 H 0.11954 0.43059 -0.03848
 H176 H 0.18145 0.51884 -0.04473
 H177 H 0.16661 0.61459 -0.34911
 H178 H 0.22729 0.65116 -0.24203
 C179 C 0.40705 0.57831 -0.31325
 C180 C 0.45842 0.59252 -0.30618
 C181 C 0.48517 0.62158 -0.24057
 C182 C 0.46242 0.63650 -0.18283
 C183 C 0.41208 0.62270 -0.18822
 C184 C 0.38424 0.59470 -0.25475
 C185 C 0.37704 0.54601 -0.37446
 C186 C 0.32717 0.53352 -0.38116
 C187 C 0.30596 0.55242 -0.32708
 C188 C 0.33405 0.58259 -0.26429
 H189 H 0.39140 0.52951 -0.41709
 H190 H 0.30484 0.50897 -0.42852
 H191 H 0.26740 0.54319 -0.33321
 H192 H 0.31629 0.59669 -0.22381
 H193 H 0.52424 0.63291 -0.23400
 H194 H 0.48406 0.65794 -0.13217
 C195 C 0.55102 0.18024 -0.31227
 C196 C 0.54934 0.13249 -0.30273
 C197 C 0.57055 0.12368 -0.23368
 C198 C 0.59257 0.16028 -0.17538
 C199 C 0.59600 0.20803 -0.18454
 C200 C 0.57749 0.21911 -0.25584
 C201 C 0.52589 0.18995 -0.37557
 C202 C 0.53215 0.23818 -0.38912
 C203 C 0.56329 0.27752 -0.34006
 C204 C 0.58558 0.26819 -0.27364
 H205 H 0.50154 0.16051 -0.41546
 H206 H 0.51341 0.24516 -0.43876
 H207 H 0.56974 0.31528 -0.35325
 H208 H 0.61021 0.29981 -0.23777
 H209 H 0.57039 0.08798 -0.22485
 H210 H 0.60678 0.15087 -0.12205
 C211 C 0.83442 0.42633 -0.29938
 C212 C 0.87212 0.41178 -0.29516
 C213 C 0.87227 0.38109 -0.23192
 C214 C 0.83625 0.36527 -0.17245
 C215 C 0.79893 0.37948 -0.17476
 C216 C 0.79680 0.40891 -0.23981
 C217 C 0.83330 0.45789 -0.36146
 C218 C 0.79468 0.46990 -0.36676
 C219 C 0.75657 0.45077 -0.31078
 C220 C 0.75746 0.42050 -0.24797
 H221 H 0.86205 0.47349 -0.40639
 H222 H 0.79411 0.49383 -0.41493
 H223 H 0.72618 0.45942 -0.31595
 H224 H 0.72664 0.40544 -0.20703
 H225 H 0.90083 0.36966 -0.22836
 H226 H 0.83804 0.34249 -0.12335
 C227 C 0.63216 0.50272 -0.22401
 C228 C 0.60323 0.47361 -0.28933
 C229 C 0.58698 0.42168 -0.28966
 C230 C 0.59778 0.39834 -0.22640
 C231 C 0.62718 0.42613 -0.16253
 C232 C 0.64415 0.47874 -0.16007
 C233 C 0.65048 0.55534 -0.22183
 C234 C 0.67819 0.58330 -0.15687
 C235 C 0.68832 0.55961 -0.09313
 C236 C 0.67151 0.50787 -0.09437
 H237 H 0.64374 0.57529 -0.27037
 H238 H 0.69172 0.62355 -0.15584
 H239 H 0.70935 0.58145 -0.04242
 H240 H 0.67959 0.49102 -0.04294
 H241 H 0.56375 0.39856 -0.33777
 H242 H 0.58299 0.35807 -0.22721
 C243 C 0.82899 0.41631 0.30837
 C244 C 0.87127 0.40881 0.29811
 C245 C 0.87451 0.38440 0.22896
 C246 C 0.83793 0.36839 0.17040
 C247 C 0.79628 0.37545 0.17908
 C248 C 0.79032 0.39733 0.25029
 C249 C 0.82509 0.44416 0.37311
 C250 C 0.78222 0.44838 0.38489
 C251 C 0.74270 0.42580 0.33209
 C252 C 0.74661 0.40070 0.26525
 H253 H 0.85506 0.46319 0.41507
 H254 H 0.77955 0.46904 0.43552
 H255 H 0.70908 0.42831 0.34232
 H256 H 0.71480 0.38351 0.22625
 H257 H 0.90586 0.37762 0.22010
 H258 H 0.84292 0.35147 0.11670
 C259 C 0.53195 0.15585 0.27464
 C260 C 0.55279 0.12325 0.28802
 C261 C 0.59145 0.12733 0.23926
 C262 C 0.61079 0.16395 0.17957
 C263 C 0.59148 0.19718 0.16466
 C264 C 0.55092 0.19281 0.21213
 C265 C 0.49172 0.15156 0.32132
 C266 C 0.47089 0.18308 0.30780
 C267 C 0.48941 0.21932 0.24771
 C268 C 0.52896 0.22442 0.20063
 H269 H 0.47578 0.12362 0.36840
 H270 H 0.44026 0.17942 0.34427
 H271 H 0.47344 0.24416 0.23804
 H272 H 0.54212 0.25430 0.15711
 H273 H 0.60741 0.10240 0.24840
 H274 H 0.64110 0.16594 0.14391
 C275 C 0.58378 0.39888 0.31339
 C276 C 0.58695 0.44706 0.30215
 C277 C 0.60759 0.47383 0.23117
 C278 C 0.62305 0.45315 0.17069
 C279 C 0.61988 0.40558 0.17995
 C280 C 0.60277 0.37928 0.25353
 C281 C 0.56239 0.36973 0.38285
 C282 C 0.56453 0.32521 0.39686
 C283 C 0.58716 0.30848 0.34169
 C284 C 0.60552 0.33474 0.27008
 H285 H 0.54443 0.38127 0.42735
 H286 H 0.54907 0.30393 0.45123
 H287 H 0.58958 0.27440 0.35368
 H288 H 0.62253 0.32024 0.22861
 H289 H 0.61088 0.51087 0.22190
 H290 H 0.63693 0.47425 0.11547
 C291 C 0.15108 0.50751 0.26093
 C292 C 0.12878 0.53562 0.29109
 C293 C 0.14425 0.58442 0.26312
 C294 C 0.17995 0.60516 0.20381
 C295 C 0.20288 0.57853 0.17134
 C296 C 0.18960 0.52942 0.20249
 C297 C 0.13630 0.45822 0.28923
 C298 C 0.16010 0.43152 0.26336
 C299 C 0.19923 0.45346 0.20971
 C300 C 0.21410 0.50177 0.17981
 H301 H 0.10659 0.44014 0.33219
 H302 H 0.14870 0.39394 0.28615
 H303 H 0.21854 0.43306 0.19158
 H304 H 0.24619 0.51704 0.14183
 H305 H 0.12776 0.60641 0.28661
 H306 H 0.18918 0.64259 0.18259
 C307 C 0.43791 0.82922 0.29472
 C308 C 0.41685 0.86203 0.29965
 C309 C 0.37647 0.85363 0.25091
 C310 C 0.35946 0.81625 0.19323
 C311 C 0.38027 0.78388 0.18541
 C312 C 0.41718 0.78772 0.24139
 C313 C 0.47843 0.83614 0.34339
 C314 C 0.49536 0.80068 0.34471
 C315 C 0.47210 0.75764 0.29840
 C316 C 0.43329 0.75091 0.24759
 H317 H 0.49678 0.86849 0.38179
 H318 H 0.52587 0.80601 0.38336
 H319 H 0.48409 0.72921 0.30196
 H320 H 0.41516 0.71568 0.21613
 H321 H 0.35912 0.87752 0.25572
 H322 H 0.33044 0.81353 0.15314
 C323 C 0.40005 0.56701 0.29576
 C324 C 0.44953 0.57564 0.28755
 C325 C 0.47643 0.59989 0.21873
 C326 C 0.45509 0.61502 0.15794
 C327 C 0.40654 0.60757 0.16484
 C328 C 0.37940 0.58560 0.23614
 C329 C 0.37073 0.54064 0.36239
 C330 C 0.32390 0.53646 0.37344
 C331 C 0.30554 0.55858 0.31897
 C332 C 0.33282 0.58291 0.25095
 H333 H 0.38377 0.52329 0.40666
 H334 H 0.30205 0.51665 0.42514
 H335 H 0.26982 0.55661 0.32925
 H336 H 0.31737 0.60042 0.21149
 H337 H 0.51431 0.60693 0.21192
 H338 H 0.47661 0.63224 0.10456
   
