data_POSCAR
  _audit_creation_date              2014-09-24
  _audit_creation_method            'ToBaCCo'
  _symmetry_space_group_name_H-M    'P1'
  _symmetry_Int_Tables_number       1
  _symmetry_cell_setting            triclinic
  loop_
  _symmetry_equiv_pos_as_xyz
 x,y,z
_cell_length_a 15.7142
_cell_length_b 13.8843
_cell_length_c 34.7774
_cell_angle_alpha 85.018300
_cell_angle_beta 93.799700
_cell_angle_gamma 115.176700
loop_
  _atom_site_label
  _atom_site_type_symbol
  _atom_site_fract_x
  _atom_site_fract_y
  _atom_site_fract_z
C1 C -0.19896 -0.09503 0.46865
 C2 C -0.12315 -0.01362 0.48722
 C3 C -0.08769 -0.03759 0.52299
 C4 C -0.12453 -0.14114 0.54050
 C5 C -0.20241 -0.22020 0.52263
 C6 C -0.24161 -0.19899 0.48687
 C7 C -0.07352 0.09684 0.46983
 C8 C -0.05550 0.18232 0.49284
 C9 C 0.01594 0.28381 0.48397
 C10 C 0.06489 0.30163 0.44980
 C11 C 0.04791 0.21797 0.42607
 C12 C -0.02303 0.11564 0.43602
 H13 H -0.22548 -0.07668 0.44075
 H14 H -0.02699 0.02498 0.53576
 H15 H -0.09121 0.16663 0.51985
 H16 H -0.03402 0.04841 0.41963
 H17 H -0.22964 -0.29984 0.53631
 H18 H 0.12045 0.37937 0.44269
 C19 C 1.13160 -0.00797 0.15106
 C20 C 1.10432 0.06157 0.16837
 C21 C 1.17073 0.16311 0.17685
 C22 C 1.26451 0.19748 0.16729
 C23 C 1.29071 0.13057 0.14760
 C24 C 1.22487 0.02640 0.13982
 C25 C 1.00572 0.02797 0.17752
 C26 C 0.96354 -0.05653 0.20474
 C27 C 0.86722 -0.09568 0.21179
 C28 C 0.81333 -0.04908 0.19037
 C29 C 0.85640 0.03769 0.16339
 C30 C 0.95296 0.07694 0.15766
 H31 H 1.07861 -0.08642 0.14486
 H32 H 1.14947 0.21463 0.19160
 H33 H 1.00712 -0.09069 0.22026
 H34 H 0.98601 0.14132 0.13600
 H35 H 1.36364 0.15737 0.14038
 H36 H 0.73824 -0.08064 0.19430
 C37 C 0.07136 0.86642 0.88737
 C38 C -0.01432 0.86080 0.87014
 C39 C -0.07197 0.77255 0.84951
 C40 C -0.04176 0.69430 0.84333
 C41 C 0.04277 0.69963 0.86057
 C42 C 0.10073 0.78502 0.88305
 C43 C -0.02993 0.95785 0.86193
 C44 C 0.01072 1.02126 0.82870
 C45 C -0.01670 1.10063 0.81374
 C46 C -0.08172 1.12027 0.83355
 C47 C -0.12185 1.06008 0.86792
 C48 C -0.09706 0.97613 0.88133
 H49 H 0.11729 0.93720 0.90185
 H50 H -0.13411 0.77252 0.83392
 H51 H 0.05882 1.00301 0.81302
 H52 H -0.12998 0.92467 0.90638
 H53 H 0.06363 0.63786 0.85464
 H54 H -0.10186 1.18176 0.82109
 O55 O 0.43457 0.03038 0.03775
 O56 O 0.60418 0.09557 -0.03669
 O57 O 0.41894 -0.00661 -0.03435
 O58 O 0.61330 0.10928 0.03876
 O59 O 0.61224 -0.04995 0.05135
 O60 O 0.43495 -0.15743 -0.02499
 O61 O 0.61848 -0.05537 -0.02398
 O62 O 0.43006 -0.13116 0.04795
 Cu63 Cu 0.51834 0.07310 -0.00035
 Cu64 Cu 0.52471 -0.11397 0.01357
 C65 C 0.40272 -0.06064 0.05543
 C66 C 0.64178 0.03424 -0.04306
 C67 C 0.39408 -0.10331 -0.04177
 C68 C 0.64223 0.04690 0.05864
 O69 O 0.08984 0.51708 0.62499
 O70 O 0.01853 0.56134 0.71840
 O71 O 0.08640 0.43411 0.69597
 O72 O 0.04708 0.65937 0.65101
 O73 O -0.09817 0.55219 0.63336
 O74 O -0.06479 0.32901 0.68820
 O75 O -0.13037 0.46261 0.70258
 O76 O -0.05583 0.39905 0.61392
 Cu77 Cu 0.07521 0.55278 0.67392
 Cu78 Cu -0.10170 0.42408 0.65765
 C79 C 0.02835 0.45013 0.60348
 C80 C -0.06850 0.52176 0.72582
 C81 C 0.01702 0.34500 0.70182
 C82 C -0.03094 0.64504 0.63422
 O83 O 0.47757 0.40825 0.28330
 O84 O 0.54857 0.50054 0.38058
 O85 O 0.39500 0.35772 0.34787
 O86 O 0.62602 0.54512 0.31345
 O87 O 0.57122 0.66555 0.29589
 O88 O 0.34605 0.48574 0.34120
 O89 O 0.51217 0.63662 0.36572
 O90 O 0.41551 0.52447 0.27125
 Cu91 Cu 0.51692 0.44058 0.33343
 Cu92 Cu 0.45438 0.59001 0.31792
 C93 C 0.43468 0.45070 0.26074
 C94 C 0.54697 0.58668 0.38919
 C95 C 0.33083 0.38913 0.35026
 C96 C 0.63663 0.63448 0.29690
 C97 C 0.04714 0.36483 0.51332
 C98 C 0.13258 0.45374 0.51390
 C99 C 0.13708 0.49762 0.54797
 C100 C 0.05433 0.43288 0.56570
 O101 O -0.00033 0.35252 0.54487
 H102 H 0.18721 0.48173 0.49295
 H103 H 0.19417 0.56787 0.55876
 C104 C 0.82341 0.81364 0.24066
 C105 C 0.86572 0.74957 0.25693
 C106 C 0.80183 0.67612 0.28096
 C107 C 0.72517 0.70012 0.27782
 O108 O 0.73753 0.78320 0.25336
 H109 H 0.93392 0.75303 0.25151
 H110 H 0.80935 0.61114 0.29812
 C111 C 0.18819 -0.20857 -0.10114
 C112 C 0.22405 -0.28248 -0.10577
 C113 C 0.30670 -0.24901 -0.08538
 C114 C 0.31702 -0.15706 -0.06965
 O115 O 0.24561 -0.13150 -0.07911
 H116 H 0.19468 -0.35392 -0.12146
 H117 H 0.35329 -0.28858 -0.08162
 C118 C -0.08106 0.83177 0.57379
 C119 C -0.00621 0.90279 0.59502
 C120 C 0.01964 0.84147 0.62148
 C121 C -0.04114 0.73782 0.61493
 O122 O -0.10280 0.73136 0.58642
 H123 H 0.02788 0.98884 0.59163
 H124 H 0.07771 0.86891 0.64240
 C125 C 0.33519 0.29752 0.18220
 C126 C 0.42168 0.36020 0.16665
 C127 C 0.46827 0.43394 0.19306
 C128 C 0.40636 0.41112 0.22236
 O129 O 0.32618 0.32822 0.21602
 H130 H 0.44915 0.35020 0.14031
 H131 H 0.54072 0.49260 0.19234
 C132 C 0.81343 0.08262 -0.11237
 C133 C 0.79520 0.17165 -0.12102
 C134 C 0.72995 0.16364 -0.09603
 C135 C 0.71172 0.07082 -0.07359
 O136 O 0.76254 0.02115 -0.08311
 H137 H 0.82616 0.23719 -0.14231
 H138 H 0.69901 0.21945 -0.09436
 C139 C 0.25322 -0.03898 0.12026
 C140 C 0.20389 -0.14769 0.11614
 C141 C 0.25733 -0.17413 0.09321
 C142 C 0.33391 -0.07967 0.08470
 O143 O 0.33189 0.00128 0.10120
 H144 H 0.13695 -0.20159 0.12795
 H145 H 0.23989 -0.25113 0.08224
 C146 C 0.68089 0.71805 0.46940
 C147 C 0.62832 0.61866 0.48754
 C148 C 0.56820 0.55977 0.46002
 C149 C 0.58599 0.62647 0.42713
 O150 O 0.65373 0.72295 0.43250
 H151 H 0.63272 0.58993 0.51715
 H152 H 0.51904 0.47663 0.46317
 C153 C 0.01904 0.16126 0.77668
 C154 C 0.10387 0.17971 0.76128
 C155 C 0.11225 0.24731 0.72940
 C156 C 0.03120 0.26314 0.72729
 O157 O -0.02507 0.21175 0.75596
 H158 H 0.15580 0.15225 0.77297
 H159 H 0.17193 0.28432 0.71088
 C160 C 0.80026 0.07926 0.13741
 C161 C 0.82174 0.18606 0.12923
 C162 C 0.76232 0.18932 0.09911
 C163 C 0.71073 0.08440 0.09084
 O164 O 0.73335 0.01771 0.11406
 H165 H 0.87648 0.25336 0.14270
 H166 H 0.75966 0.25955 0.08401
 C167 C 0.11474 0.23626 0.39488
 C168 C 0.11851 0.15738 0.37426
 C169 C 0.19885 0.20570 0.35400
 C170 C 0.23792 0.31069 0.36312
 O171 O 0.18729 0.32978 0.38779
 H172 H 0.07159 0.07347 0.37509
 H173 H 0.22711 0.16829 0.33553
 C174 C -0.08641 0.62073 0.81256
 C175 C -0.18147 0.57292 0.80342
 C176 C -0.18859 0.52399 0.77015
 C177 C -0.09721 0.54721 0.76142
 O178 O -0.03542 0.60528 0.78712
 H179 H -0.23816 0.57612 0.81851
 H180 H -0.25215 0.48072 0.75341
   
