data_POSCAR
  _audit_creation_date              2014-09-24
  _audit_creation_method            'ToBaCCo'
  _symmetry_space_group_name_H-M    'P1'
  _symmetry_Int_Tables_number       1
  _symmetry_cell_setting            triclinic
  loop_
  _symmetry_equiv_pos_as_xyz
 x,y,z
_cell_length_a 57.2654
_cell_length_b 57.3464
_cell_length_c 57.4325
_cell_angle_alpha 91.585100
_cell_angle_beta 91.612000
_cell_angle_gamma 91.634600
loop_
  _atom_site_label
  _atom_site_type_symbol
  _atom_site_fract_x
  _atom_site_fract_y
  _atom_site_fract_z
N1 N 0.17182 0.22509 0.23244
 N2 N 0.17832 0.20653 0.24363
 C3 C 0.16393 0.20304 0.26145
 C4 C 0.14771 0.22030 0.26123
 C5 C 0.15308 0.23401 0.24271
 H6 H 0.16508 0.18902 0.27360
 H7 H 0.14399 0.24925 0.23709
 Cu8 Cu 0.20482 0.18871 0.23379
 Cu9 Cu 0.18795 0.23620 0.20538
 Cu10 Cu 0.23604 0.20551 0.18806
 N11 N 0.23221 0.17212 0.22420
 N12 N 0.24434 0.17878 0.20631
 C13 C 0.26219 0.16431 0.20338
 C14 C 0.26108 0.14786 0.22035
 C15 C 0.24197 0.15318 0.23330
 H16 H 0.27494 0.16558 0.18990
 H17 H 0.23566 0.14389 0.24812
 N18 N 0.22488 0.23302 0.17185
 N19 N 0.20654 0.24472 0.17845
 C20 C 0.20326 0.26244 0.16390
 C21 C 0.22034 0.26171 0.14754
 C22 C 0.23376 0.24298 0.15293
 H23 H 0.18949 0.27490 0.16504
 H24 H 0.24878 0.23705 0.14370
 H25 H 0.20080 0.20439 0.19489
 H26 H 0.22009 0.22321 0.21485
 N27 N 0.67172 0.72526 0.73260
 N28 N 0.67851 0.70697 0.74405
 C29 C 0.66406 0.70338 0.76179
 C30 C 0.64750 0.72033 0.76125
 C31 C 0.65274 0.73393 0.74262
 H32 H 0.66540 0.68954 0.77413
 H33 H 0.64344 0.74896 0.73681
 Cu34 Cu 0.70552 0.68969 0.73459
 Cu35 Cu 0.68787 0.73644 0.70556
 Cu36 Cu 0.73613 0.70587 0.68832
 N37 N 0.73259 0.67274 0.72475
 N38 N 0.74448 0.67918 0.70662
 C39 C 0.76219 0.66457 0.70353
 C40 C 0.76121 0.64825 0.72062
 C41 C 0.74234 0.65379 0.73382
 H42 H 0.77476 0.66569 0.68987
 H43 H 0.73620 0.64465 0.74880
 N44 N 0.72490 0.73336 0.67210
 N45 N 0.70652 0.74502 0.67867
 C46 C 0.70324 0.76275 0.66414
 C47 C 0.72036 0.76208 0.64782
 C48 C 0.73380 0.74337 0.65322
 H49 H 0.68944 0.77518 0.66526
 H50 H 0.74887 0.73750 0.64402
 H51 H 0.70097 0.70460 0.69545
 H52 H 0.72027 0.72396 0.71487
 N53 N 0.32646 0.77275 0.73658
 N54 N 0.31994 0.79174 0.74770
 C55 C 0.33397 0.79564 0.76674
 C56 C 0.34996 0.77813 0.76740
 C57 C 0.34483 0.76394 0.74810
 H58 H 0.33264 0.80996 0.77923
 H59 H 0.35372 0.74831 0.74293
 Cu60 Cu 0.29334 0.80898 0.73642
 Cu61 Cu 0.31037 0.76045 0.70838
 Cu62 Cu 0.26291 0.79098 0.68795
 N63 N 0.26669 0.82596 0.72485
 N64 N 0.25484 0.81885 0.70587
 C65 C 0.23696 0.83320 0.70217
 C66 C 0.23780 0.85005 0.71978
 C67 C 0.25675 0.84507 0.73390
 H68 H 0.22414 0.83129 0.68799
 H69 H 0.26256 0.85442 0.74972
 N70 N 0.27382 0.76235 0.67233
 N71 N 0.29189 0.75073 0.68017
 C72 C 0.29489 0.73202 0.66597
 C73 C 0.27792 0.73194 0.64851
 C74 C 0.26487 0.75131 0.65291
 H75 H 0.30841 0.71940 0.66808
 H76 H 0.25002 0.75692 0.64268
 H77 H 0.29796 0.79196 0.69750
 H78 H 0.27812 0.77394 0.71549
 N79 N 0.82772 0.27224 0.23682
 N80 N 0.82120 0.29122 0.24796
 C81 C 0.83522 0.29510 0.26702
 C82 C 0.85118 0.27758 0.26764
 C83 C 0.84609 0.26339 0.24833
 H84 H 0.83387 0.30943 0.27951
 H85 H 0.85497 0.24776 0.24313
 Cu86 Cu 0.79459 0.30848 0.23672
 Cu87 Cu 0.81164 0.25998 0.20859
 Cu88 Cu 0.76420 0.29055 0.18822
 N89 N 0.76793 0.32546 0.22517
 N90 N 0.75609 0.31837 0.20618
 C91 C 0.73818 0.33269 0.20252
 C92 C 0.73894 0.34951 0.22017
 C93 C 0.75792 0.34452 0.23425
 H94 H 0.72536 0.33079 0.18836
 H95 H 0.76370 0.35385 0.25009
 N96 N 0.77511 0.26197 0.17253
 N97 N 0.79317 0.25032 0.18034
 C98 C 0.79613 0.23161 0.16611
 C99 C 0.77914 0.23157 0.14867
 C100 C 0.76613 0.25096 0.15311
 H101 H 0.80961 0.21896 0.16821
 H102 H 0.75127 0.25658 0.14291
 H103 H 0.79925 0.29150 0.19779
 H104 H 0.77941 0.27344 0.21574
 N105 N 0.82641 0.72550 0.26721
 N106 N 0.81867 0.70663 0.25554
 C107 C 0.83274 0.70257 0.23752
 C108 C 0.85006 0.71981 0.23810
 C109 C 0.84562 0.73406 0.25706
 H110 H 0.83041 0.68843 0.22474
 H111 H 0.85540 0.74970 0.26278
 Cu112 Cu 0.79050 0.68986 0.26478
 Cu113 Cu 0.81048 0.73831 0.29399
 Cu114 Cu 0.76046 0.70846 0.31077
 N115 N 0.76261 0.67299 0.27459
 N116 N 0.75098 0.68042 0.29265
 C117 C 0.73248 0.66591 0.29568
 C118 C 0.73257 0.64859 0.27860
 C119 C 0.75185 0.65344 0.26550
 H120 H 0.71991 0.66780 0.30927
 H121 H 0.75754 0.64348 0.25055
 N122 N 0.77280 0.73716 0.32689
 N123 N 0.79189 0.74853 0.32058
 C124 C 0.79549 0.76754 0.33471
 C125 C 0.77781 0.76802 0.35046
 C126 C 0.76377 0.74862 0.34517
 H127 H 0.80978 0.78017 0.33358
 H128 H 0.74809 0.74337 0.35395
 H129 H 0.79564 0.70702 0.30395
 H130 H 0.77751 0.72522 0.28442
 N131 N 0.32680 0.22554 -0.23310
 N132 N 0.31925 0.20656 -0.24468
 C133 C 0.33341 0.20252 -0.26265
 C134 C 0.35057 0.21991 -0.26206
 C135 C 0.34598 0.23423 -0.24321
 H136 H 0.33124 0.18828 -0.27536
 H137 H 0.35560 0.24996 -0.23752
 Cu138 Cu 0.29120 0.18953 -0.23549
 Cu139 Cu 0.31074 0.23830 -0.20640
 Cu140 Cu 0.26070 0.20846 -0.18985
 N141 N 0.26309 0.17287 -0.22588
 N142 N 0.25128 0.18043 -0.20800
 C143 C 0.23269 0.16600 -0.20512
 C144 C 0.23291 0.14860 -0.22211
 C145 C 0.25237 0.15333 -0.23500
 H146 H 0.21999 0.16798 -0.19167
 H147 H 0.25821 0.14325 -0.24982
 N148 N 0.27296 0.23715 -0.17367
 N149 N 0.29208 0.24851 -0.17990
 C150 C 0.29567 0.26749 -0.16573
 C151 C 0.27795 0.26796 -0.15002
 C152 C 0.26389 0.24858 -0.15539
 H153 H 0.30999 0.28009 -0.16678
 H154 H 0.24820 0.24331 -0.14665
 H155 H 0.29592 0.20700 -0.19640
 H156 H 0.27791 0.22499 -0.21625
 N157 N 0.67176 0.27374 -0.23765
 N158 N 0.67966 0.29182 -0.24901
 C159 C 0.66545 0.29513 -0.26767
 C160 C 0.64790 0.27819 -0.26789
 C161 C 0.65226 0.26491 -0.24869
 H162 H 0.66766 0.30877 -0.28012
 H163 H 0.64205 0.25000 -0.24316
 Cu164 Cu 0.70788 0.30898 -0.23829
 Cu165 Cu 0.68749 0.26287 -0.20954
 Cu166 Cu 0.73778 0.29370 -0.19028
 N167 N 0.73605 0.32615 -0.22749
 N168 N 0.74767 0.32009 -0.20862
 C169 C 0.76660 0.33439 -0.20523
 C170 C 0.76674 0.35009 -0.22296
 C171 C 0.74721 0.34453 -0.23676
 H172 H 0.77937 0.33336 -0.19109
 H173 H 0.74169 0.35316 -0.25240
 N174 N 0.72499 0.26648 -0.17417
 N175 N 0.70590 0.25466 -0.18150
 C176 C 0.70217 0.23671 -0.16724
 C177 C 0.71973 0.23742 -0.15031
 C178 C 0.73388 0.25638 -0.15510
 H179 H 0.68798 0.22390 -0.16916
 H180 H 0.74965 0.26212 -0.14557
 H181 H 0.70260 0.29477 -0.19913
 H182 H 0.72061 0.27507 -0.21721
 N183 N 0.17235 0.77459 0.26281
 N184 N 0.18031 0.79266 0.25149
 C185 C 0.16618 0.79597 0.23277
 C186 C 0.14859 0.77906 0.23247
 C187 C 0.15289 0.76579 0.25170
 H188 H 0.16845 0.80958 0.22031
 H189 H 0.14265 0.75088 0.25716
 Cu190 Cu 0.20853 0.80976 0.26229
 Cu191 Cu 0.18801 0.76364 0.29094
 Cu192 Cu 0.23840 0.79431 0.31023
 N193 N 0.23676 0.82684 0.27306
 N194 N 0.24838 0.82071 0.29192
 C195 C 0.26735 0.83497 0.29533
 C196 C 0.26748 0.85069 0.27762
 C197 C 0.24793 0.84522 0.26381
 H198 H 0.28010 0.83387 0.30948
 H199 H 0.24240 0.85391 0.24820
 N200 N 0.22552 0.76709 0.32630
 N201 N 0.20639 0.75535 0.31897
 C202 C 0.20263 0.73737 0.33318
 C203 C 0.22022 0.73797 0.35008
 C204 C 0.23441 0.75690 0.34532
 H205 H 0.18841 0.72459 0.33122
 H206 H 0.25024 0.76256 0.35482
 H207 H 0.20319 0.79545 0.30142
 H208 H 0.22113 0.77575 0.28327
 N209 N 0.47731 0.42047 0.48029
 N210 N 0.45924 0.42604 0.49274
 C211 C 0.45713 0.41089 0.51015
 C212 C 0.47479 0.39513 0.50842
 C213 C 0.48730 0.40160 0.48935
 H214 H 0.44381 0.41123 0.52313
 H215 H 0.50248 0.39323 0.48259
 Cu216 Cu 0.44032 0.45263 0.48497
 Cu217 Cu 0.48655 0.43814 0.45333
 Cu218 Cu 0.45309 0.48550 0.43920
 N219 N 0.42162 0.47929 0.47690
 N220 N 0.42676 0.49205 0.45895
 C221 C 0.41135 0.50927 0.45720
 C222 C 0.39583 0.50715 0.47497
 C223 C 0.40272 0.48801 0.48719
 H224 H 0.41142 0.52236 0.44400
 H225 H 0.39457 0.48104 0.50238
 N226 N 0.48039 0.47616 0.42130
 N227 N 0.49313 0.45812 0.42670
 C228 C 0.51043 0.45626 0.41137
 C229 C 0.50841 0.47391 0.39572
 C230 C 0.48927 0.48623 0.40239
 H231 H 0.52354 0.44306 0.41152
 H232 H 0.48238 0.50136 0.39406
 H233 H 0.47312 0.46950 0.46431
 H234 H 0.45375 0.45011 0.44506
 N235 N -0.02253 -0.07897 0.97974
 N236 N -0.04057 -0.07339 0.99222
 C237 C -0.04269 -0.08858 1.00959
 C238 C -0.02506 -0.10436 1.00780
 C239 C -0.01257 -0.09787 0.98873
 H240 H -0.05600 -0.08827 1.02257
 H241 H 0.00259 -0.10626 0.98193
 Cu242 Cu -0.05946 -0.04677 0.98451
 Cu243 Cu -0.01332 -0.06128 0.95278
 Cu244 Cu -0.04674 -0.01386 0.93875
 N245 N -0.07814 -0.02008 0.97652
 N246 N -0.07302 -0.00730 0.95857
 C247 C -0.08844 0.00991 0.95686
 C248 C -0.10394 0.00776 0.97465
 C249 C -0.09703 -0.01138 0.98684
 H250 H -0.08841 0.02301 0.94366
 H251 H -0.10517 -0.01838 1.00201
 N252 N -0.01947 -0.02322 0.92079
 N253 N -0.00675 -0.04128 0.92617
 C254 C 0.01053 -0.04316 0.91082
 C255 C 0.00851 -0.02550 0.89517
 C256 C -0.01060 -0.01317 0.90187
 H257 H 0.02363 -0.05637 0.91094
 H258 H -0.01748 0.00197 0.89354
 H259 H -0.02671 -0.02987 0.96381
 H260 H -0.04612 -0.04923 0.94456
 N261 N 1.02934 0.58170 0.98017
 N262 N 1.04816 0.57636 0.99234
 C263 C 1.05193 0.59244 1.00972
 C264 C 1.03457 0.60855 1.00819
 C265 C 1.02051 0.60130 0.98937
 H266 H 1.06611 0.59243 1.02255
 H267 H 1.00498 0.60960 0.98293
 Cu268 Cu 1.06600 0.54900 0.98430
 Cu269 Cu 1.01761 0.56291 0.95339
 Cu270 Cu 1.04976 0.51520 0.93736
 N271 N 1.08428 0.52260 0.97422
 N272 N 1.07782 0.50958 0.95582
 C273 C 1.09338 0.49272 0.95267
 C274 C 1.11043 0.49540 0.96996
 C275 C 1.10426 0.51442 0.98342
 H276 H 1.09230 0.47941 0.93894
 H277 H 1.11354 0.52159 0.99877
 N278 N 1.02088 0.52357 0.92075
 N279 N 1.00858 0.54177 0.92683
 C280 C 0.99010 0.54309 0.91191
 C281 C 0.99097 0.52485 0.89588
 C282 C 1.01059 0.51281 0.90184
 H283 H 0.97714 0.55643 0.91246
 H284 H 1.01699 0.49756 0.89286
 H285 H 1.03165 0.53189 0.96343
 H286 H 1.04992 0.55082 0.94467
 N287 N 0.52916 0.08218 0.48026
 N288 N 0.54828 0.07714 0.49211
 C289 C 0.55204 0.09323 0.50948
 C290 C 0.53435 0.10901 0.50831
 C291 C 0.52010 0.10155 0.48969
 H292 H 0.56644 0.09343 0.52209
 H293 H 0.50427 0.10956 0.48359
 Cu294 Cu 0.56624 0.04995 0.48377
 Cu295 Cu 0.51738 0.06335 0.45349
 Cu296 Cu 0.54958 0.01565 0.43741
 N297 N 0.58446 0.02343 0.47393
 N298 N 0.57772 0.01010 0.45582
 C299 C 0.59309 -0.00696 0.45285
 C300 C 0.61035 -0.00407 0.46991
 C301 C 0.60448 0.01526 0.48308
 H302 H 0.59174 -0.02057 0.43942
 H303 H 0.61397 0.02266 0.49819
 N304 N 0.52066 0.02399 0.42084
 N305 N 0.50834 0.04219 0.42693
 C306 C 0.48986 0.04348 0.41201
 C307 C 0.49075 0.02525 0.39596
 C308 C 0.51037 0.01323 0.40193
 H309 H 0.47688 0.05680 0.41255
 H310 H 0.51678 -0.00202 0.39295
 H311 H 0.53172 0.03252 0.46351
 H312 H 0.54959 0.05136 0.44433
 N313 N -0.02548 0.08551 0.52286
 N314 N -0.04354 0.07819 0.50969
 C315 C -0.04688 0.09329 0.49244
 C316 C -0.03006 0.11086 0.49504
 C317 C -0.01668 0.10549 0.51439
 H318 H -0.06041 0.09164 0.47893
 H319 H -0.00168 0.11532 0.52168
 Cu320 Cu -0.06097 0.04969 0.51618
 Cu321 Cu -0.01495 0.06862 0.55003
 Cu322 Cu -0.04649 0.01822 0.56266
 N323 N -0.07866 0.02164 0.52369
 N324 N -0.07291 0.00936 0.54188
 C325 C -0.08812 -0.00886 0.54325
 C326 C -0.10412 -0.00781 0.52496
 C327 C -0.09776 0.01167 0.51288
 H328 H -0.08775 -0.02174 0.55665
 H329 H -0.10656 0.01817 0.49758
 N330 N -0.01922 0.03000 0.58161
 N331 N -0.00713 0.04915 0.57678
 C332 C 0.01035 0.05252 0.59286
 C333 C 0.00903 0.03469 0.60841
 C334 C -0.00977 0.02070 0.60087
 H335 H 0.02311 0.06680 0.59325
 H336 H -0.01601 0.00492 0.60882
 H337 H -0.02735 0.03606 0.53846
 H338 H -0.04722 0.05367 0.55670
 N339 N 0.47469 0.58521 0.02276
 N340 N 0.45647 0.57801 0.00976
 C341 C 0.45314 0.59305 -0.00754
 C342 C 0.47013 0.61048 -0.00514
 C343 C 0.48361 0.60508 0.01414
 H344 H 0.43945 0.59150 -0.02090
 H345 H 0.49872 0.61482 0.02131
 Cu346 Cu 0.43889 0.54978 0.01680
 Cu347 Cu 0.48523 0.56840 0.05004
 Cu348 Cu 0.45359 0.51797 0.06278
 N349 N 0.42131 0.52153 0.02385
 N350 N 0.42718 0.50911 0.04191
 C351 C 0.41206 0.49080 0.04317
 C352 C 0.39599 0.49195 0.02495
 C353 C 0.40222 0.51156 0.01301
 H354 H 0.41252 0.47783 0.05648
 H355 H 0.39331 0.51818 -0.00218
 N356 N 0.48086 0.52983 0.08174
 N357 N 0.49298 0.54896 0.07688
 C358 C 0.51043 0.55237 0.09299
 C359 C 0.50906 0.53459 0.10860
 C360 C 0.49027 0.52060 0.10105
 H361 H 0.52319 0.56664 0.09337
 H362 H 0.48400 0.50484 0.10905
 H363 H 0.47262 0.53588 0.03862
 H364 H 0.45309 0.55346 0.05720
 N365 N 0.52294 -0.07938 0.02139
 N366 N 0.54140 -0.07328 0.00959
 C367 C 0.54305 -0.08808 -0.00890
 C368 C 0.52467 -0.10410 -0.00848
 C369 C 0.51224 -0.09820 0.01087
 H370 H 0.55671 -0.08750 -0.02151
 H371 H 0.49680 -0.10714 0.01700
 Cu372 Cu 0.56166 -0.04696 0.01999
 Cu373 Cu 0.51448 -0.06295 0.04982
 Cu374 Cu 0.54964 -0.01535 0.06820
 N375 N 0.58111 -0.02003 0.03029
 N376 N 0.57626 -0.00767 0.04910
 C377 C 0.59236 0.00981 0.05229
 C378 C 0.60803 0.00817 0.03458
 C379 C 0.60048 -0.01083 0.02089
 H380 H 0.59265 0.02271 0.06640
 H381 H 0.60850 -0.01737 0.00529
 N382 N 0.52197 -0.02599 0.08514
 N383 N 0.50870 -0.04421 0.07813
 C384 C 0.49145 -0.04728 0.09330
 C385 C 0.49409 -0.03025 0.11057
 C386 C 0.51346 -0.01697 0.10499
 H387 H 0.47791 -0.06082 0.09192
 H388 H 0.52073 -0.00190 0.11466
 H389 H 0.52941 -0.03105 0.04154
 H390 H 0.54777 -0.05053 0.05952
 N391 N 1.02289 0.42068 0.52109
 N392 N 1.04093 0.42717 0.50888
 C393 C 1.04264 0.41227 0.49047
 C394 C 1.02469 0.39581 0.49135
 C395 C 1.01249 0.40152 0.51090
 H396 H 1.05601 0.41313 0.47757
 H397 H 0.99737 0.39229 0.51736
 Cu398 Cu 1.06065 0.45414 0.51852
 Cu399 Cu 1.01450 0.43715 0.54949
 Cu400 Cu 1.04964 0.48475 0.56773
 N401 N 1.08070 0.48041 0.52948
 N402 N 1.07624 0.49241 0.54862
 C403 C 1.09265 0.50956 0.55207
 C404 C 1.10815 0.50808 0.53419
 C405 C 1.10016 0.48950 0.52013
 H406 H 1.09325 0.52217 0.56645
 H407 H 1.10791 0.48320 0.50429
 N408 N 1.02199 0.47417 0.58471
 N409 N 1.00873 0.45593 0.57776
 C410 C 0.99149 0.45289 0.59295
 C411 C 0.99412 0.46998 0.61017
 C412 C 1.01349 0.48325 0.60454
 H413 H 0.97796 0.43934 0.59161
 H414 H 1.02075 0.49836 0.61417
 H415 H 1.02886 0.46932 0.54134
 H416 H 1.04798 0.44970 0.55836
 C417 C 0.35829 0.02233 0.24294
 C418 C 0.34439 -0.00045 0.24619
 C419 C 0.35810 -0.01907 0.25002
 C420 C 0.38452 -0.01332 0.25022
 C421 C 0.37422 0.02533 0.26474
 C422 C 0.38792 0.00667 0.26851
 C423 C 0.37472 0.01712 0.22301
 C424 C 0.38844 -0.00150 0.22686
 H425 H 0.32541 -0.00166 0.24606
 H426 H 0.39567 -0.02855 0.25329
 H427 H 0.37484 0.04089 0.27601
 H428 H 0.37585 0.02756 0.20755
 C429 C 0.13901 -0.02771 0.74723
 C430 C 0.15354 -0.00526 0.75244
 C431 C 0.14041 0.01379 0.75651
 C432 C 0.11385 0.00875 0.75507
 C433 C 0.12306 -0.03022 0.76805
 C434 C 0.10989 -0.01116 0.77213
 C435 C 0.12269 -0.02200 0.72670
 C436 C 0.10955 -0.00293 0.73082
 H437 H 0.17252 -0.00438 0.75231
 H438 H 0.10316 0.02430 0.75844
 H439 H 0.12206 -0.04576 0.77843
 H440 H 0.12172 -0.03202 0.71035
 C441 C 0.63880 0.47238 0.24772
 C442 C 0.65324 0.49486 0.25303
 C443 C 0.64003 0.51385 0.25710
 C444 C 0.61348 0.50873 0.25557
 C445 C 0.62279 0.46975 0.26847
 C446 C 0.60954 0.48875 0.27256
 C447 C 0.62253 0.47808 0.22715
 C448 C 0.60930 0.49709 0.23127
 H449 H 0.67222 0.49582 0.25298
 H450 H 0.60271 0.52422 0.25893
 H451 H 0.62186 0.45421 0.27885
 H452 H 0.62168 0.46812 0.21076
 C453 C 0.85863 0.52283 0.74284
 C454 C 0.84468 0.50005 0.74597
 C455 C 0.85835 0.48138 0.74971
 C456 C 0.88478 0.48709 0.74997
 C457 C 0.87454 0.52569 0.76468
 C458 C 0.88819 0.50698 0.76837
 C459 C 0.87508 0.51770 0.72291
 C460 C 0.88876 0.49902 0.72668
 H461 H 0.82570 0.49887 0.74580
 H462 H 0.89589 0.47182 0.75298
 H463 H 0.87515 0.54118 0.77604
 H464 H 0.87621 0.52819 0.70749
 C465 C 0.24267 0.35933 0.02243
 C466 C 0.24604 0.34542 -0.00028
 C467 C 0.24995 0.35909 -0.01888
 C468 C 0.25009 0.38548 -0.01320
 C469 C 0.26452 0.37528 0.02548
 C470 C 0.26836 0.38894 0.00683
 C471 C 0.22269 0.37571 0.01711
 C472 C 0.22662 0.38941 -0.00150
 H473 H 0.24597 0.32647 -0.00143
 H474 H 0.25323 0.39659 -0.02842
 H475 H 0.27573 0.37597 0.04109
 H476 H 0.20722 0.37695 0.02756
 C477 C 0.74760 0.13792 -0.02716
 C478 C 0.75298 0.15235 -0.00474
 C479 C 0.75709 0.13917 0.01424
 C480 C 0.75551 0.11266 0.00915
 C481 C 0.76839 0.12192 -0.02980
 C482 C 0.77251 0.10870 -0.01081
 C483 C 0.72697 0.12170 -0.02142
 C484 C 0.73112 0.10849 -0.00243
 H485 H 0.75296 0.17131 -0.00382
 H486 H 0.75890 0.10191 0.02463
 H487 H 0.77876 0.12097 -0.04533
 H488 H 0.71053 0.12081 -0.03137
 C489 C 0.24787 0.63787 0.47277
 C490 C 0.25311 0.65232 0.49521
 C491 C 0.25715 0.63915 0.51422
 C492 C 0.25566 0.61264 0.50914
 C493 C 0.26872 0.62192 0.47025
 C494 C 0.27278 0.60871 0.48928
 C495 C 0.22725 0.62159 0.47842
 C496 C 0.23134 0.60840 0.49744
 H497 H 0.25302 0.67127 0.49613
 H498 H 0.25900 0.60191 0.52465
 H499 H 0.27914 0.62094 0.45475
 H500 H 0.21086 0.62065 0.46838
 C501 C 0.74251 0.85967 0.52269
 C502 C 0.74583 0.84577 0.49997
 C503 C 0.74966 0.85944 0.48135
 C504 C 0.74977 0.88583 0.48704
 C505 C 0.76435 0.87565 0.52568
 C506 C 0.76811 0.88931 0.50701
 C507 C 0.72249 0.87602 0.51744
 C508 C 0.72633 0.88971 0.49882
 H509 H 0.74581 0.82682 0.49882
 H510 H 0.75283 0.89695 0.47181
 H511 H 0.77564 0.87631 0.54122
 H512 H 0.70704 0.87720 0.52792
 C513 C 0.02253 0.24262 0.35892
 C514 C -0.00018 0.24622 0.34498
 C515 C -0.01883 0.25021 0.35860
 C516 C -0.01319 0.25021 0.38495
 C517 C 0.02574 0.26436 0.37491
 C518 C 0.00704 0.26829 0.38851
 C519 C 0.01698 0.22264 0.37518
 C520 C -0.00168 0.22665 0.38881
 H521 H -0.00131 0.24617 0.32606
 H522 H -0.02846 0.25342 0.39602
 H523 H 0.04145 0.27547 0.37562
 H524 H 0.02731 0.20709 0.37637
 C525 C -0.02700 0.74729 0.13806
 C526 C -0.00452 0.75271 0.15248
 C527 C 0.01448 0.75700 0.13932
 C528 C 0.00937 0.75554 0.11286
 C529 C -0.02976 0.76812 0.12218
 C530 C -0.01075 0.77242 0.10899
 C531 C -0.02114 0.72681 0.12177
 C532 C -0.00213 0.73114 0.10860
 H533 H -0.00358 0.75260 0.17140
 H534 H 0.02487 0.75907 0.10214
 H535 H -0.04541 0.77838 0.12126
 H536 H -0.03103 0.71034 0.12082
 C537 C 0.47282 0.24719 0.63914
 C538 C 0.49532 0.25258 0.65353
 C539 C 0.51432 0.25677 0.64036
 C540 C 0.50919 0.25527 0.61390
 C541 C 0.47010 0.26800 0.62321
 C542 C 0.48912 0.27221 0.61000
 C543 C 0.47859 0.22666 0.62288
 C544 C 0.49762 0.23089 0.60970
 H545 H 0.49627 0.25248 0.67246
 H546 H 0.52469 0.25872 0.60315
 H547 H 0.45449 0.27830 0.62228
 H548 H 0.46863 0.21023 0.62196
 C549 C 0.52244 0.74270 0.85907
 C550 C 0.49968 0.74627 0.84521
 C551 C 0.48107 0.75025 0.85889
 C552 C 0.48680 0.75026 0.88522
 C553 C 0.52568 0.76446 0.87504
 C554 C 0.50702 0.76837 0.88870
 C555 C 0.51698 0.72273 0.87536
 C556 C 0.49836 0.72672 0.88906
 H557 H 0.49850 0.74625 0.82629
 H558 H 0.47158 0.75345 0.89635
 H559 H 0.54135 0.77563 0.87564
 H560 H 0.52731 0.70717 0.87648
 C561 C 0.12885 0.22323 0.27683
 C562 C 0.11290 0.22578 0.28978
 C563 C 0.09412 0.22892 0.30476
 C564 C 0.07796 0.23175 0.31738
 C565 C 0.05892 0.23527 0.33194
 C566 C 0.04255 0.23847 0.34421
 C567 C 0.62859 0.72318 0.77681
 C568 C 0.61263 0.72571 0.78974
 C569 C 0.59386 0.72886 0.80473
 C570 C 0.57773 0.73173 0.81737
 C571 C 0.55873 0.73530 0.83198
 C572 C 0.54241 0.73854 0.84429
 C573 C 0.36828 0.77507 0.78452
 C574 C 0.38403 0.77200 0.79835
 C575 C 0.40303 0.76794 0.81371
 C576 C 0.41986 0.76415 0.82593
 C577 C 0.44034 0.75944 0.83898
 C578 C 0.45852 0.75528 0.84884
 C579 C -0.13149 0.27468 0.28386
 C580 C -0.11577 0.27167 0.29775
 C581 C -0.09681 0.26767 0.31319
 C582 C -0.08001 0.26393 0.32546
 C583 C -0.05955 0.25929 0.33857
 C584 C -0.04137 0.25518 0.34848
 C585 C -0.13165 0.72307 0.22178
 C586 C -0.11621 0.72624 0.20827
 C587 C -0.09797 0.73035 0.19272
 C588 C -0.08222 0.73409 0.17971
 C589 C -0.06351 0.73864 0.16484
 C590 C -0.04724 0.74257 0.15251
 C591 C 0.36793 0.22306 0.72256
 C592 C 0.38342 0.22627 0.70912
 C593 C 0.40171 0.23043 0.69365
 C594 C 0.41751 0.23418 0.68071
 C595 C 0.43626 0.23871 0.66590
 C596 C 0.45256 0.24257 0.65359
 C597 C 0.62970 0.27543 0.71644
 C598 C 0.61336 0.27297 0.70280
 C599 C 0.59378 0.27000 0.68738
 C600 C 0.57656 0.26732 0.67491
 C601 C 0.55569 0.26397 0.66139
 C602 C 0.53722 0.26085 0.65102
 C603 C 0.12950 0.77609 0.21577
 C604 C 0.11325 0.77357 0.20203
 C605 C 0.09378 0.77052 0.18650
 C606 C 0.07662 0.76778 0.17397
 C607 C 0.05580 0.76435 0.16039
 C608 C 0.03735 0.76117 0.15000
 C609 C 0.27641 0.12883 0.22362
 C610 C 0.28920 0.11279 0.22636
 C611 C 0.30405 0.09392 0.22960
 C612 C 0.31662 0.07772 0.23244
 C613 C 0.33118 0.05867 0.23588
 C614 C 0.34349 0.04231 0.23896
 C615 C 0.77654 0.62922 0.72386
 C616 C 0.78935 0.61318 0.72658
 C617 C 0.80425 0.59435 0.72978
 C618 C 0.81687 0.57819 0.73257
 C619 C 0.83150 0.55918 0.73594
 C620 C 0.84385 0.54284 0.73896
 C621 C 0.78366 0.36850 0.77351
 C622 C 0.79741 0.38428 0.77026
 C623 C 0.81278 0.40328 0.76617
 C624 C 0.82507 0.42010 0.76251
 C625 C 0.83823 0.44058 0.75810
 C626 C 0.84820 0.45878 0.75428
 C627 C 0.28351 -0.13189 0.27431
 C628 C 0.29729 -0.11613 0.27106
 C629 C 0.31268 -0.09715 0.26692
 C630 C 0.32495 -0.08034 0.26319
 C631 C 0.33807 -0.05987 0.25866
 C632 C 0.34800 -0.04167 0.25472
 C633 C 0.22250 -0.13257 0.72324
 C634 C 0.20907 -0.11709 0.72659
 C635 C 0.19357 -0.09883 0.73079
 C636 C 0.18058 -0.08307 0.73452
 C637 C 0.16573 -0.06432 0.73896
 C638 C 0.15343 -0.04801 0.74274
 C639 C 0.72273 0.36783 0.22386
 C640 C 0.70926 0.38326 0.22724
 C641 C 0.69369 0.40146 0.23143
 C642 C 0.68064 0.41719 0.23512
 C643 C 0.66570 0.43588 0.23951
 C644 C 0.65332 0.45214 0.24325
 C645 C 0.71617 0.62925 0.27540
 C646 C 0.70261 0.61284 0.27283
 C647 C 0.68720 0.59324 0.26984
 C648 C 0.67472 0.57603 0.26722
 C649 C 0.66114 0.55519 0.26399
 C650 C 0.65073 0.53673 0.26101
 C651 C 0.21653 0.12925 0.77467
 C652 C 0.20299 0.11283 0.77210
 C653 C 0.18761 0.09320 0.76912
 C654 C 0.17516 0.07597 0.76653
 C655 C 0.16161 0.05510 0.76333
 C656 C 0.15119 0.03664 0.76037
 C657 C 0.22339 0.27715 0.12858
 C658 C 0.22601 0.29003 0.11260
 C659 C 0.22917 0.30497 0.09382
 C660 C 0.23198 0.31761 0.07769
 C661 C 0.23546 0.33223 0.05871
 C662 C 0.23860 0.34455 0.04239
 C663 C 0.72340 0.77753 0.62887
 C664 C 0.72600 0.79041 0.61290
 C665 C 0.72915 0.80534 0.59411
 C666 C 0.73196 0.81797 0.57797
 C667 C 0.73541 0.83257 0.55898
 C668 C 0.73852 0.84489 0.54266
 C669 C 0.77452 0.78505 0.36879
 C670 C 0.77133 0.79882 0.38452
 C671 C 0.76717 0.81416 0.40349
 C672 C 0.76336 0.82637 0.42028
 C673 C 0.75868 0.83944 0.44071
 C674 C 0.75458 0.84935 0.45885
 C675 C 0.27468 0.28493 -0.13164
 C676 C 0.27153 0.29865 -0.11585
 C677 C 0.26743 0.31392 -0.09682
 C678 C 0.26365 0.32610 -0.07999
 C679 C 0.25898 0.33912 -0.05953
 C680 C 0.25488 0.34900 -0.04138
 C681 C 0.72328 0.22124 -0.13196
 C682 C 0.72664 0.20785 -0.11648
 C683 C 0.73090 0.19241 -0.09820
 C684 C 0.73469 0.17948 -0.08243
 C685 C 0.73921 0.16468 -0.06368
 C686 C 0.74305 0.15238 -0.04740
 C687 C 0.22376 0.72169 0.36834
 C688 C 0.22711 0.70820 0.38374
 C689 C 0.23134 0.69264 0.40192
 C690 C 0.23510 0.67961 0.41762
 C691 C 0.23959 0.66471 0.43629
 C692 C 0.24339 0.65235 0.45253
 C693 C 0.27489 0.71540 0.62932
 C694 C 0.27244 0.70178 0.61300
 C695 C 0.26958 0.68635 0.59346
 C696 C 0.26706 0.67386 0.57629
 C697 C 0.26392 0.66028 0.55548
 C698 C 0.26100 0.64987 0.53705
 C699 C 0.77599 0.21504 0.12948
 C700 C 0.77339 0.20146 0.11314
 C701 C 0.77031 0.18610 0.09357
 C702 C 0.76759 0.17369 0.07636
 C703 C 0.76422 0.16020 0.05551
 C704 C 0.76113 0.14985 0.03707
 C705 C 0.47906 0.37588 0.52339
 C706 C 0.48223 0.35980 0.53612
 C707 C 0.48539 0.34102 0.55126
 C708 C 0.48749 0.32507 0.56437
 C709 C 0.48912 0.30649 0.57998
 C710 C 0.48966 0.29077 0.59353
 C711 C -0.02080 0.87633 0.02270
 C712 C -0.01763 0.86020 0.03537
 C713 C -0.01447 0.84138 0.05043
 C714 C -0.01238 0.82539 0.06350
 C715 C -0.01076 0.80677 0.07906
 C716 C -0.01023 0.79102 0.09256
 C717 C 0.03124 0.62841 0.02343
 C718 C 0.02790 0.64498 0.03617
 C719 C 0.02330 0.66419 0.05111
 C720 C 0.01870 0.68029 0.06397
 C721 C 0.01243 0.69868 0.07921
 C722 C 0.00627 0.71383 0.09244
 C723 C 0.53087 0.12868 0.52375
 C724 C 0.52745 0.14509 0.53668
 C725 C 0.52280 0.16412 0.55183
 C726 C 0.51820 0.18011 0.56483
 C727 C 0.51199 0.19842 0.58020
 C728 C 0.50590 0.21356 0.59351
 C729 C -0.02681 0.13022 0.48004
 C730 C -0.02417 0.14613 0.46701
 C731 C -0.02090 0.16432 0.45128
 C732 C -0.01769 0.17942 0.43746
 C733 C -0.01320 0.19653 0.42086
 C734 C -0.00850 0.21060 0.40639
 C735 C 0.47335 0.62985 0.97986
 C736 C 0.47597 0.64579 0.96687
 C737 C 0.47921 0.66405 0.95121
 C738 C 0.48240 0.67923 0.93747
 C739 C 0.48687 0.69645 0.92097
 C740 C 0.49155 0.71059 0.90657
 C741 C 0.52010 0.87632 0.97580
 C742 C 0.51648 0.85974 0.96273
 C743 C 0.51271 0.84025 0.94744
 C744 C 0.51008 0.82360 0.93429
 C745 C 0.50789 0.80417 0.91870
 C746 C 0.50694 0.78774 0.90517
 C747 C 0.02019 0.37614 0.47572
 C748 C 0.01660 0.35953 0.46269
 C749 C 0.01282 0.34003 0.44741
 C750 C 0.01018 0.32339 0.43425
 C751 C 0.00795 0.30400 0.41863
 C752 C 0.00697 0.28760 0.40504
 C753 C 0.37645 0.52189 0.47956
 C754 C 0.36030 0.53454 0.48286
 C755 C 0.34149 0.54967 0.48604
 C756 C 0.32553 0.56283 0.48807
 C757 C 0.30698 0.57853 0.48956
 C758 C 0.29130 0.59215 0.48997
 C759 C 0.87662 0.02244 -0.02077
 C760 C 0.86041 0.03500 -0.01745
 C761 C 0.84151 0.05001 -0.01425
 C762 C 0.82548 0.06307 -0.01218
 C763 C 0.80683 0.07865 -0.01063
 C764 C 0.79109 0.09220 -0.01017
 C765 C 0.62793 0.02333 0.03084
 C766 C 0.64454 0.03603 0.02731
 C767 C 0.66379 0.05095 0.02262
 C768 C 0.67995 0.06381 0.01803
 C769 C 0.69843 0.07907 0.01185
 C770 C 0.71368 0.09232 0.00581
 C771 C 0.12812 0.52315 0.53049
 C772 C 0.14476 0.53581 0.52699
 C773 C 0.16403 0.55073 0.52232
 C774 C 0.18018 0.56361 0.51774
 C775 C 0.19865 0.57890 0.51161
 C776 C 0.21389 0.59219 0.50561
 C777 C 0.12998 0.48066 -0.02646
 C778 C 0.14600 0.46778 -0.02364
 C779 C 0.16427 0.45212 -0.02027
 C780 C 0.17941 0.43831 -0.01706
 C781 C 0.19653 0.42166 -0.01266
 C782 C 0.21058 0.40710 -0.00811
 C783 C 0.62977 0.98106 0.47360
 C784 C 0.64569 0.96805 0.47650
 C785 C 0.66386 0.95230 0.47994
 C786 C 0.67896 0.93846 0.48319
 C787 C 0.69610 0.92183 0.48763
 C788 C 0.71020 0.90732 0.49220
 C789 C 0.87609 0.97673 0.52010
 C790 C 0.85941 0.96376 0.51633
 C791 C 0.83987 0.94847 0.51248
 C792 C 0.82321 0.93527 0.50984
 C793 C 0.80382 0.91957 0.50769
 C794 C 0.78742 0.90592 0.50680
 C795 C 0.37621 0.47649 0.02006
 C796 C 0.35955 0.46350 0.01627
 C797 C 0.34003 0.44820 0.01241
 C798 C 0.32340 0.43497 0.00976
 C799 C 0.30404 0.41924 0.00760
 C800 C 0.28766 0.40556 0.00669
 C801 C 0.52320 0.47835 0.37637
 C802 C 0.53580 0.48166 0.36022
 C803 C 0.55082 0.48495 0.34137
 C804 C 0.56387 0.48713 0.32538
 C805 C 0.57946 0.48882 0.30678
 C806 C 0.59301 0.48935 0.29108
 C807 C 0.02331 -0.02109 0.87582
 C808 C 0.03594 -0.01783 0.85967
 C809 C 0.05102 -0.01462 0.84085
 C810 C 0.06412 -0.01252 0.82489
 C811 C 0.07976 -0.01094 0.80632
 C812 C 0.09335 -0.01048 0.79064
 C813 C 0.02434 0.03099 0.62815
 C814 C 0.03712 0.02742 0.64464
 C815 C 0.05210 0.02260 0.66377
 C816 C 0.06496 0.01788 0.67984
 C817 C 0.08020 0.01155 0.69823
 C818 C 0.09343 0.00539 0.71342
 C819 C 0.52431 0.53095 0.12840
 C820 C 0.53703 0.52741 0.14494
 C821 C 0.55195 0.52261 0.16413
 C822 C 0.56477 0.51789 0.18023
 C823 C 0.57998 0.51156 0.19864
 C824 C 0.59319 0.50540 0.21385
 C825 C 0.47917 -0.02683 0.12996
 C826 C 0.46623 -0.02408 0.14592
 C827 C 0.45060 -0.02072 0.16417
 C828 C 0.43686 -0.01745 0.17934
 C829 C 0.42036 -0.01293 0.19655
 C830 C 0.40596 -0.00825 0.21069
 C831 C 0.97921 0.47345 0.62956
 C832 C 0.96628 0.47624 0.64552
 C833 C 0.95068 0.47966 0.66380
 C834 C 0.93698 0.48297 0.67899
 C835 C 0.92054 0.48754 0.69625
 C836 C 0.90620 0.49225 0.71044
 C837 C 0.97534 0.52003 0.87626
 C838 C 0.96231 0.51625 0.85968
 C839 C 0.94704 0.51235 0.84018
 C840 C 0.93389 0.50967 0.82353
 C841 C 0.91828 0.50751 0.80412
 C842 C 0.90471 0.50666 0.78770
 C843 C 0.47517 0.02046 0.37629
 C844 C 0.46220 0.01666 0.35966
 C845 C 0.44699 0.01268 0.34014
 C846 C 0.43384 0.00990 0.32349
 C847 C 0.41819 0.00756 0.30412
 C848 C 0.40455 0.00654 0.28776
   
