data_POSCAR
  _audit_creation_date              2014-09-24
  _audit_creation_method            'ToBaCCo'
  _symmetry_space_group_name_H-M    'P1'
  _symmetry_Int_Tables_number       1
  _symmetry_cell_setting            triclinic
  loop_
  _symmetry_equiv_pos_as_xyz
 x,y,z
_cell_length_a 31.1172
_cell_length_b 23.7666
_cell_length_c 27.9626
_cell_angle_alpha 90.500400
_cell_angle_beta 89.302300
_cell_angle_gamma 83.620300
loop_
  _atom_site_label
  _atom_site_type_symbol
  _atom_site_fract_x
  _atom_site_fract_y
  _atom_site_fract_z
C1 C 0.30583 0.33744 0.18708
 H2 H 0.30745 0.35680 0.22207
 C3 C 0.32928 0.35684 0.14863
 H4 H 0.34829 0.39171 0.15429
 C5 C 0.27858 0.26917 0.13714
 H6 H 0.25968 0.23412 0.13275
 C7 C 0.30155 0.28685 0.09803
 H8 H 0.29956 0.26507 0.06414
 N9 N 0.27941 0.29618 0.18013
 C10 C 0.17631 0.32637 0.28862
 H11 H 0.17202 0.28261 0.29555
 C12 C 0.15309 0.36931 0.31564
 H13 H 0.13101 0.35760 0.34299
 C14 C 0.21208 0.39336 0.24584
 H15 H 0.23493 0.40275 0.21854
 C16 C 0.18943 0.43779 0.27204
 H17 H 0.19536 0.48071 0.26412
 Zn18 Zn 0.24210 0.27531 0.23000
 N19 N 0.20656 0.33874 0.25603
 C20 C 0.27022 0.25966 0.32524
 N21 N 0.27596 0.23967 0.27960
 C22 C 0.30338 0.19223 0.26945
 C23 C 0.32401 0.16088 0.30644
 C24 C 0.28930 0.22907 0.36317
 C25 C 0.17948 0.24072 0.16757
 C26 C 0.15267 0.20377 0.14738
 C27 C 0.17437 0.13615 0.20891
 C28 C 0.20170 0.17372 0.22713
 N29 N 0.20434 0.22452 0.20584
 H30 H 0.24973 0.29843 0.33273
 H31 H 0.30770 0.17745 0.23282
 H32 H 0.34431 0.12192 0.29818
 H33 H 0.28296 0.24442 0.39944
 H34 H 0.18138 0.28189 0.15199
 H35 H 0.13388 0.21669 0.11622
 H36 H 0.17310 0.09557 0.22586
 H37 H 0.22066 0.16221 0.25836
 C38 C 0.16059 0.42592 0.30877
 C39 C 0.32605 0.33263 0.10296
 C40 C 0.15008 0.15071 0.16807
 C41 C 0.31568 0.17842 0.35400
 C42 C 0.82863 0.74931 0.24270
 H43 H 0.83459 0.73494 0.27883
 C44 C 0.86234 0.76743 0.21560
 H45 H 0.89366 0.76577 0.23201
 C46 C 0.77936 0.77185 0.18014
 H47 H 0.74668 0.77417 0.16695
 C48 C 0.81198 0.79109 0.15191
 H49 H 0.80353 0.80695 0.11678
 N50 N 0.78815 0.75173 0.22468
 C51 C 0.67961 0.80256 0.32072
 H52 H 0.66391 0.76433 0.32378
 C53 C 0.66257 0.85154 0.34530
 H54 H 0.63397 0.84994 0.36735
 C55 C 0.73650 0.84987 0.28905
 H56 H 0.76554 0.84908 0.26741
 C57 C 0.72049 0.89982 0.31285
 H58 H 0.73737 0.93683 0.30837
 Zn59 Zn 0.74192 0.73400 0.26431
 N60 N 0.71641 0.80220 0.29393
 C61 C 0.74858 0.68719 0.35766
 N62 N 0.76340 0.68136 0.31169
 C63 C 0.79387 0.63815 0.29869
 C64 C 0.81099 0.59929 0.33256
 C65 C 0.76406 0.64856 0.39237
 C66 C 0.66075 0.72807 0.21955
 C67 C 0.63027 0.70189 0.19360
 C68 C 0.68330 0.62066 0.18175
 C69 C 0.71269 0.64833 0.20792
 N70 N 0.70092 0.70076 0.22676
 H71 H 0.72484 0.72180 0.36785
 H72 H 0.80561 0.63445 0.26213
 H73 H 0.83558 0.56558 0.32175
 H74 H 0.75212 0.65432 0.42881
 H75 H 0.65228 0.77036 0.23359
 H76 H 0.59872 0.72472 0.18802
 H77 H 0.69338 0.57856 0.16789
 H78 H 0.74487 0.62763 0.21350
 C79 C 0.68346 0.90093 0.34220
 C80 C 0.85438 0.78978 0.16958
 C81 C 0.64132 0.64728 0.17452
 C82 C 0.79584 0.60423 0.37998
 C83 C 0.85037 0.27054 0.74964
 H84 H 0.85260 0.26940 0.78819
 C85 C 0.88033 0.29737 0.72304
 H86 H 0.90549 0.31629 0.74163
 C87 C 0.81287 0.25104 0.67928
 H88 H 0.78623 0.23372 0.66225
 C89 C 0.84198 0.27759 0.65137
 H90 H 0.83755 0.27958 0.61307
 N91 N 0.81715 0.24850 0.72759
 C92 C 0.71759 0.25898 0.84011
 H93 H 0.70878 0.21630 0.83987
 C94 C 0.69703 0.29889 0.87222
 H95 H 0.67301 0.28618 0.89701
 C96 C 0.75897 0.32763 0.80763
 H97 H 0.78206 0.33938 0.78149
 C98 C 0.73960 0.36866 0.83946
 H99 H 0.74849 0.41133 0.83755
 Zn100 Zn 0.77346 0.21819 0.76447
 N101 N 0.74812 0.27375 0.80878
 C102 C 0.76792 0.11778 0.81514
 N103 N 0.79624 0.15292 0.79870
 C104 C 0.83907 0.14308 0.80859
 C105 C 0.85446 0.09839 0.83815
 C106 C 0.78193 0.07213 0.84429
 C107 C 0.69305 0.23595 0.71959
 C108 C 0.66052 0.22492 0.68816
 C109 C 0.70358 0.13822 0.66407
 C110 C 0.73539 0.15094 0.69609
 N111 N 0.72953 0.19913 0.72307
 H112 H 0.73408 0.12576 0.80623
 H113 H 0.86146 0.17039 0.79449
 H114 H 0.88867 0.09264 0.84552
 H115 H 0.75787 0.04650 0.85745
 H116 H 0.68944 0.27461 0.74060
 H117 H 0.63225 0.25556 0.68558
 H118 H 0.70876 0.09948 0.64318
 H119 H 0.76491 0.12262 0.69927
 C120 C 0.70821 0.35447 0.87230
 C121 C 0.87592 0.30193 0.67327
 C122 C 0.66547 0.17552 0.65983
 C123 C 0.82571 0.06247 0.85750
 C124 C 0.33039 0.81117 0.70836
 H125 H 0.33763 0.79729 0.74440
 C126 C 0.36146 0.83508 0.68133
 H127 H 0.39252 0.83989 0.69694
 C128 C 0.28084 0.82191 0.64443
 H129 H 0.24940 0.81617 0.63030
 C130 C 0.31073 0.84721 0.61643
 H131 H 0.30224 0.86070 0.58055
 N132 N 0.29125 0.80440 0.68941
 C133 C 0.19429 0.80536 0.80318
 H134 H 0.18593 0.76239 0.80183
 C135 C 0.17344 0.84407 0.83610
 H136 H 0.14966 0.82985 0.86035
 C137 C 0.23546 0.87542 0.77285
 H138 H 0.25935 0.88772 0.74784
 C139 C 0.21534 0.91551 0.80505
 H140 H 0.22418 0.95819 0.80392
 Zn141 Zn 0.25247 0.76823 0.72765
 N142 N 0.22497 0.82138 0.77267
 C143 C 0.28266 0.70043 0.80730
 N144 N 0.28579 0.70795 0.75923
 C145 C 0.31642 0.67619 0.73244
 C146 C 0.34591 0.63592 0.75387
 C147 C 0.31124 0.66005 0.83014
 C148 C 0.16906 0.76605 0.68979
 C149 C 0.13693 0.74541 0.66244
 C150 C 0.19017 0.67233 0.63117
 C151 C 0.22134 0.69446 0.65912
 N152 N 0.21022 0.73993 0.68836
 H153 H 0.25897 0.72676 0.82838
 H154 H 0.31934 0.68399 0.69458
 H155 H 0.37041 0.61192 0.73187
 H156 H 0.30892 0.65580 0.86857
 H157 H 0.16101 0.80321 0.71202
 H158 H 0.10455 0.76724 0.66428
 H159 H 0.19965 0.63528 0.60914
 H160 H 0.25428 0.67475 0.65779
 C161 C 0.18404 0.90005 0.83757
 C162 C 0.35179 0.85327 0.63475
 C163 C 0.14712 0.69740 0.63311
 C164 C 0.34392 0.62801 0.80343
 C165 C -0.02699 -0.08294 0.04865
 C166 C -0.01744 -0.04622 0.01215
 C167 C -0.04827 -0.03063 -0.02276
 C168 C -0.08931 -0.05057 -0.02129
 C169 C -0.09795 -0.08817 0.01565
 C170 C -0.06729 -0.10451 0.05120
 C171 C 0.02439 -0.02211 0.01198
 C172 C 0.05195 -0.02837 -0.02827
 C173 C 0.09197 -0.00618 -0.02806
 C174 C 0.10359 0.02381 0.01245
 C175 C 0.07655 0.02975 0.05314
 C176 C 0.03713 0.00637 0.05273
 H177 H -0.00267 -0.09313 0.07536
 H178 H -0.03988 -0.00215 -0.05042
 H179 H 0.04241 -0.05126 -0.05937
 H180 H 0.01586 0.01112 0.08382
 H181 H -0.12889 -0.10417 0.01736
 H182 H 0.13476 0.03995 0.01341
 C183 C -0.02724 0.45030 0.53931
 C184 C -0.02439 0.48903 0.50222
 C185 C -0.06109 0.50749 0.47585
 C186 C -0.10114 0.48862 0.48703
 C187 C -0.10353 0.44916 0.52383
 C188 C -0.06679 0.42975 0.55045
 C189 C 0.01576 0.51524 0.49444
 C190 C 0.04055 0.50411 0.45264
 C191 C 0.07832 0.53043 0.44502
 C192 C 0.09050 0.56888 0.47959
 C193 C 0.06536 0.58087 0.52132
 C194 C 0.02827 0.55335 0.52857
 H195 H 0.00152 0.43688 0.55939
 H196 H -0.05870 0.53915 0.44862
 H197 H 0.03024 0.47507 0.42617
 H198 H 0.00883 0.56137 0.56082
 H199 H -0.13437 0.43467 0.53236
 H200 H 0.11951 0.58937 0.47422
 C201 C 0.47104 -0.01031 0.51840
 C202 C 0.48089 0.03275 0.48768
 C203 C 0.44825 0.06234 0.46088
 C204 C 0.40539 0.04999 0.46580
 C205 C 0.39582 0.00641 0.49648
 C206 C 0.42851 -0.02434 0.52296
 C207 C 0.52492 0.04950 0.48717
 C208 C 0.55498 0.02765 0.45234
 C209 C 0.59824 0.03909 0.45467
 C210 C 0.61086 0.07329 0.49217
 C211 C 0.58080 0.09543 0.52732
 C212 C 0.53781 0.08329 0.52440
 H213 H 0.49677 -0.03139 0.53952
 H214 H 0.45592 0.09676 0.43827
 H215 H 0.54466 0.00096 0.42407
 H216 H 0.51443 0.09822 0.55195
 H217 H 0.36275 -0.00323 0.49959
 H218 H 0.64422 0.08166 0.49468
 C219 C 0.45359 0.44563 0.00672
 C220 C 0.48266 0.47670 -0.01775
 C221 C 0.46986 0.50503 -0.05986
 C222 C 0.42796 0.50384 -0.07722
 C223 C 0.39927 0.47229 -0.05296
 C224 C 0.41206 0.44199 -0.01158
 C225 C 0.52658 0.48077 0.00015
 C226 C 0.56258 0.45774 -0.02702
 C227 C 0.60441 0.46802 -0.01406
 C228 C 0.60983 0.50152 0.02649
 C229 C 0.57411 0.52536 0.05402
 C230 C 0.53245 0.51382 0.04086
 H231 H 0.46386 0.42287 0.03874
 H232 H 0.49228 0.52955 -0.07815
 H233 H 0.55771 0.43369 -0.05922
 H234 H 0.50423 0.53192 0.06088
 H235 H 0.36702 0.47094 -0.06671
 H236 H 0.64211 0.50967 0.03595
 N237 N 0.15396 0.01580 -0.08008
 N238 N 0.17820 -0.00889 -0.11509
 C239 C 0.16322 -0.05831 -0.12685
 C240 C 0.12742 -0.06471 -0.09804
 C241 C 0.12280 -0.01703 -0.06872
 H242 H 0.10838 -0.10009 -0.09695
 H243 H 0.15927 0.05423 -0.06407
 H244 H 0.20532 0.00753 -0.12925
 N245 N 0.13273 0.55053 0.38214
 N246 N 0.15385 0.52338 0.34600
 C247 C 0.14057 0.47140 0.34155
 C248 C 0.10917 0.46590 0.37641
 C249 C 0.10538 0.51669 0.40160
 H250 H 0.09274 0.42920 0.38416
 H251 H 0.13758 0.59134 0.39334
 H252 H 0.17804 0.53997 0.32619
 N253 N 0.66834 0.03254 0.40862
 N254 N 0.69062 -0.00363 0.37900
 C255 C 0.66764 -0.04758 0.37057
 C256 C 0.62881 -0.03831 0.39583
 C257 C 0.63060 0.01268 0.41968
 H258 H 0.60342 -0.06577 0.39824
 H259 H 0.67930 0.06986 0.42114
 H260 H 0.72160 0.00147 0.36631
 N261 N 0.67869 0.47244 -0.04819
 N262 N 0.70571 0.44299 -0.07821
 C263 C 0.68739 0.39751 -0.09372
 C264 C 0.64669 0.39829 -0.07268
 C265 C 0.64240 0.44657 -0.04402
 H266 H 0.62343 0.36818 -0.07762
 H267 H 0.68502 0.51018 -0.03171
 H268 H 0.73635 0.45389 -0.08726
 N269 N -0.16056 -0.05120 -0.05827
 N270 N -0.18448 -0.01930 -0.09238
 C271 C -0.16000 0.01955 -0.10969
 C272 C -0.11993 0.01233 -0.08735
 C273 C -0.12154 -0.03163 -0.05479
 H274 H -0.09397 0.03845 -0.09193
 H275 H -0.17234 -0.08428 -0.03978
 H276 H -0.21586 -0.02600 -0.10173
 N277 N -0.18074 0.51899 0.48366
 N278 N -0.20777 0.54997 0.45581
 C279 C -0.18593 0.56479 0.41686
 C280 C -0.14314 0.54206 0.41997
 C281 C -0.14097 0.51370 0.46321
 H282 H -0.11693 0.54818 0.39547
 H283 H -0.18932 0.50440 0.51718
 H284 H -0.24037 0.56164 0.46409
 N285 N 0.33101 0.10062 0.46277
 N286 N 0.30793 0.13542 0.43399
 C287 C 0.33156 0.14264 0.39428
 C288 C 0.37166 0.11124 0.39799
 C289 C 0.36998 0.08537 0.44220
 H290 H 0.39834 0.10836 0.37259
 H291 H 0.32044 0.08891 0.49647
 H292 H 0.27640 0.15350 0.44148
 N293 N 0.44049 0.54484 -0.15758
 N294 N 0.41824 0.57673 -0.18918
 C295 C 0.37732 0.58914 -0.17271
 C296 C 0.37337 0.56339 -0.12879
 C297 C 0.41419 0.53584 -0.12048
 H298 H 0.34521 0.56569 -0.10547
 H299 H 0.47319 0.52983 -0.16153
 H300 H 0.43153 0.59112 -0.22065
 N301 N -0.04861 -0.16160 0.12229
 N302 N -0.07064 -0.19140 0.15557
 C303 C -0.11256 -0.18800 0.14287
 C304 C -0.11765 -0.15665 0.10098
 C305 C -0.07717 -0.14005 0.08938
 H306 H -0.14766 -0.14465 0.08289
 H307 H -0.01550 -0.15850 0.12384
 H308 H -0.05570 -0.21245 0.18454
 N309 N -0.04115 0.38114 0.62631
 N310 N -0.05616 0.34765 0.65853
 C311 C -0.09524 0.33466 0.64470
 C312 C -0.10531 0.36094 0.60160
 C313 C -0.07037 0.39050 0.59114
 H314 H -0.13484 0.36029 0.58176
 H315 H -0.01194 0.39843 0.62971
 H316 H -0.03982 0.33472 0.68963
 N317 N 0.44774 -0.10471 0.57957
 N318 N 0.42756 -0.13629 0.60911
 C319 C 0.38465 -0.12189 0.60569
 C320 C 0.37713 -0.07930 0.57238
 C321 C 0.41810 -0.06900 0.55680
 H322 H 0.34614 -0.05749 0.56269
 H323 H 0.48130 -0.10825 0.57554
 H324 H 0.44318 -0.16737 0.63096
 N325 N 0.35332 0.37888 -0.01452
 N326 N 0.33130 0.34979 0.01518
 C327 C 0.34565 0.35636 0.06000
 C328 C 0.37867 0.39135 0.05847
 C329 C 0.38234 0.40483 0.01044
 H330 H 0.39677 0.40595 0.08803
 H331 H 0.34838 0.38049 -0.05138
 H332 H 0.30602 0.32729 0.00456
 N333 N 0.08124 0.04303 0.14174
 N334 N 0.10106 0.07422 0.17196
 C335 C 0.12273 0.11038 0.14682
 C336 C 0.11667 0.10157 0.09844
 C337 C 0.09033 0.05823 0.09670
 H338 H 0.13045 0.12268 0.06874
 H339 H 0.06297 0.01076 0.15201
 H340 H 0.09973 0.07049 0.20912
 N341 N 0.04886 0.65224 0.58711
 N342 N 0.07017 0.68292 0.61618
 C343 C 0.11284 0.67298 0.60591
 C344 C 0.11870 0.63429 0.56819
 C345 C 0.07733 0.62202 0.55751
 H346 H 0.14878 0.61638 0.55161
 H347 H 0.01530 0.65232 0.58786
 H348 H 0.05538 0.70889 0.64333
 N349 N 0.56759 0.16634 0.59416
 N350 N 0.58966 0.18706 0.62895
 C351 C 0.63110 0.16339 0.62615
 C352 C 0.63543 0.12603 0.58750
 C353 C 0.59439 0.12906 0.56820
 H354 H 0.66419 0.09968 0.57552
 H355 H 0.53472 0.17803 0.58853
 H356 H 0.57592 0.21611 0.65452
 N357 N 0.54903 0.60061 0.11543
 N358 N 0.56669 0.63300 0.14661
 C359 C 0.60986 0.61871 0.14626
 C360 C 0.61987 0.57501 0.11357
 C361 C 0.58051 0.56481 0.09433
 H362 H 0.65174 0.55497 0.10406
 H363 H 0.51604 0.60467 0.10812
 H364 H 0.54913 0.66448 0.16738
   
