data_POSCAR
  _audit_creation_date              2014-09-24
  _audit_creation_method            'ToBaCCo'
  _symmetry_space_group_name_H-M    'P1'
  _symmetry_Int_Tables_number       1
  _symmetry_cell_setting            triclinic
  loop_
  _symmetry_equiv_pos_as_xyz
 x,y,z
_cell_length_a 63.6249
_cell_length_b 63.8829
_cell_length_c 63.6128
_cell_angle_alpha 91.037300
_cell_angle_beta 85.477900
_cell_angle_gamma 93.555200
loop_
  _atom_site_label
  _atom_site_type_symbol
  _atom_site_fract_x
  _atom_site_fract_y
  _atom_site_fract_z
C1 C 0.27234 0.48146 1.00068
 C2 C 0.26291 0.50064 0.99958
 C3 C 0.27549 0.51948 0.99888
 C4 C 0.29745 0.51914 0.99940
 C5 C 0.30682 0.49993 1.00039
 C6 C 0.29430 0.48111 1.00098
 C7 C 0.23987 0.50100 0.99922
 C8 C 0.22694 0.49961 1.01812
 C9 C 0.20497 0.49999 1.01780
 C10 C 0.19592 0.50157 0.99855
 C11 C 0.20878 0.50286 0.97966
 C12 C 0.23075 0.50267 0.98000
 H13 H 0.26262 0.46690 1.00118
 H14 H 0.26815 0.53429 0.99810
 H15 H 0.23403 0.49836 1.03297
 H16 H 0.24073 0.50366 0.96538
 H17 H 0.32383 0.49960 1.00071
 H18 H 0.17891 0.50178 0.99823
 C19 C 0.72693 0.48014 0.00182
 C20 C 0.73954 0.49891 -0.00020
 C21 C 0.73011 0.51789 -0.00271
 C22 C 0.70813 0.51811 -0.00304
 C23 C 0.69562 0.49932 -0.00118
 C24 C 0.70499 0.48033 0.00117
 C25 C 0.76259 0.49866 0.00026
 C26 C 0.77562 0.50040 -0.01855
 C27 C 0.79757 0.49986 -0.01815
 C28 C 0.80650 0.49790 0.00110
 C29 C 0.79355 0.49631 0.01992
 C30 C 0.77159 0.49654 0.01949
 H31 H 0.73421 0.46545 0.00365
 H32 H 0.73983 0.53242 -0.00419
 H33 H 0.76862 0.50192 -0.03341
 H34 H 0.76154 0.49527 0.03404
 H35 H 0.67861 0.49948 -0.00156
 H36 H 0.82351 0.49759 0.00149
 C37 C 0.01658 0.22964 0.50502
 C38 C -0.00181 0.23897 0.50009
 C39 C -0.01958 0.22621 0.49514
 C40 C -0.01903 0.20433 0.49538
 C41 C -0.00058 0.19515 0.50009
 C42 C 0.01726 0.20777 0.50480
 C43 C -0.00249 0.26201 0.50017
 C44 C -0.00729 0.27235 0.48200
 C45 C -0.00772 0.29427 0.48204
 C46 C -0.00380 0.30584 0.50038
 C47 C 0.00078 0.29559 0.51859
 C48 C 0.00166 0.27375 0.51843
 H49 H 0.03041 0.23940 0.50868
 H50 H -0.03389 0.23330 0.49151
 H51 H -0.01030 0.26336 0.46781
 H52 H 0.00521 0.26584 0.53255
 H53 H -0.00011 0.17821 0.50012
 H54 H -0.00427 0.32279 0.50052
 C55 C 1.01862 0.77521 0.50411
 C56 C 1.00058 0.76250 0.49991
 C57 C 0.98197 0.77186 0.49573
 C58 C 0.98135 0.79373 0.49596
 C59 C 0.99944 0.80633 0.49992
 C60 C 1.01812 0.79711 0.50388
 C61 C 1.00117 0.73945 0.49993
 C62 C 1.00639 0.72922 0.51800
 C63 C 1.00677 0.70731 0.51807
 C64 C 1.00236 0.69563 0.49992
 C65 C 0.99736 0.70576 0.48180
 C66 C 0.99654 0.72761 0.48186
 H67 H 1.03306 0.76803 0.50717
 H68 H 0.96794 0.76212 0.49266
 H69 H 1.00978 0.73830 0.53204
 H70 H 0.99268 0.73544 0.46781
 H71 H 0.99894 0.82328 0.49991
 H72 H 1.00281 0.67867 0.49987
 C73 C 0.49256 0.01798 0.22929
 C74 C 0.49720 -0.00030 0.23950
 C75 C 0.50133 -0.01850 0.22756
 C76 C 0.50058 -0.01849 0.20562
 C77 C 0.49618 -0.00016 0.19551
 C78 C 0.49228 0.01810 0.20729
 C79 C 0.49782 -0.00034 0.26263
 C80 C 0.47985 0.00428 0.27574
 C81 C 0.48039 0.00404 0.29770
 C82 C 0.49903 -0.00034 0.30661
 C83 C 0.51707 -0.00473 0.29363
 C84 C 0.51640 -0.00497 0.27168
 H85 H 0.48956 0.03214 0.23840
 H86 H 0.50479 -0.03270 0.23537
 H87 H 0.46540 0.00769 0.26885
 H88 H 0.53039 -0.00836 0.26164
 H89 H 0.49582 -0.00010 0.17849
 H90 H 0.49951 -0.00031 0.32362
 C91 C 0.49679 0.01570 0.77356
 C92 C 0.50078 -0.00233 0.76129
 C93 C 0.50589 -0.02067 0.77109
 C94 C 0.50675 -0.02105 0.79303
 C95 C 0.50299 -0.00293 0.80514
 C96 C 0.49812 0.01545 0.79542
 C97 C 0.49953 -0.00199 0.73825
 C98 C 0.51728 -0.00610 0.72459
 C99 C 0.51616 -0.00540 0.70272
 C100 C 0.49719 -0.00107 0.69444
 C101 C 0.47937 0.00280 0.70795
 C102 C 0.48059 0.00256 0.72983
 H103 H 0.49299 0.02995 0.76607
 H104 H 0.50876 -0.03468 0.76167
 H105 H 0.53200 -0.00942 0.73100
 H106 H 0.46678 0.00559 0.74029
 H107 H 0.50379 -0.00312 0.82212
 H108 H 0.49629 -0.00068 0.67749
 C109 C 0.28108 0.03460 0.49564
 H110 H 0.28162 0.04661 0.50783
 C111 C 0.29600 0.03548 0.47832
 H112 H 0.30805 0.04823 0.47708
 C113 C 0.26512 0.00292 0.48265
 H114 H 0.25336 -0.00998 0.48461
 C115 C 0.27975 0.00319 0.46506
 H116 H 0.27910 -0.00939 0.45344
 N117 N 0.26599 0.01854 0.49745
 C118 C 0.21572 0.04249 0.54017
 H119 H 0.21462 0.03079 0.55236
 C120 C 0.20163 0.05846 0.54119
 H121 H 0.18967 0.05914 0.55425
 C122 C 0.23204 0.05539 0.50775
 H123 H 0.24352 0.05383 0.49447
 C124 C 0.21823 0.07159 0.50815
 H125 H 0.21926 0.08256 0.49527
 Zn126 Zn 0.24745 0.01784 0.52225
 N127 N 0.23055 0.04125 0.52364
 C128 C 0.26409 0.03333 0.56032
 N129 N 0.26453 0.01788 0.54529
 C130 C 0.27835 0.00247 0.54539
 C131 C 0.29238 0.00208 0.56115
 C132 C 0.27789 0.03353 0.57639
 C133 C 0.21477 -0.00789 0.50725
 C134 C 0.19997 -0.02492 0.50678
 C135 C 0.21407 -0.03858 0.53758
 C136 C 0.22863 -0.02127 0.53749
 N137 N 0.22880 -0.00643 0.52236
 H138 H 0.25336 0.04571 0.55968
 H139 H 0.27861 -0.00939 0.53303
 H140 H 0.30344 -0.01016 0.56100
 H141 H 0.27763 0.04597 0.58819
 H142 H 0.21504 0.00431 0.49564
 H143 H 0.18882 -0.02592 0.49472
 H144 H 0.21395 -0.05030 0.54970
 H145 H 0.23956 -0.01959 0.54965
 C146 C 0.20282 0.07305 0.52496
 C147 C 0.29536 0.01959 0.46293
 C148 C 0.19961 -0.04040 0.52209
 C149 C 0.29220 0.01779 0.57674
 C150 C 0.71702 -0.00134 0.50344
 H151 H 0.71752 0.01028 0.49122
 C152 C 0.70174 -0.00087 0.52040
 H153 H 0.69045 0.01119 0.52132
 C154 C 0.73077 -0.03163 0.51691
 H155 H 0.74183 -0.04382 0.51527
 C156 C 0.71569 -0.03174 0.53415
 H157 H 0.71530 -0.04391 0.54583
 N158 N 0.73122 -0.01648 0.50207
 C159 C 0.78382 0.01011 0.46089
 H160 H 0.78476 -0.00193 0.44873
 C161 C 0.79854 0.02728 0.46018
 H162 H 0.81084 0.02854 0.44740
 C163 C 0.76714 0.02283 0.49285
 H164 H 0.75521 0.02081 0.50582
 C165 C 0.78156 0.04025 0.49275
 H166 H 0.78056 0.05167 0.50553
 Zn167 Zn 0.75038 -0.01645 0.47776
 N168 N 0.76848 0.00823 0.47702
 C169 C 0.73538 -0.00266 0.43962
 N170 N 0.73392 -0.01810 0.45423
 C171 C 0.71926 -0.03448 0.45351
 C172 C 0.70523 -0.03575 0.43767
 C173 C 0.72163 -0.00333 0.42350
 C174 C 0.78126 -0.03943 0.49353
 C175 C 0.79549 -0.05515 0.49408
 C176 C 0.78192 -0.07041 0.46244
 C177 C 0.76790 -0.05439 0.46248
 N178 N 0.76780 -0.03936 0.47794
 H179 H 0.74677 0.01049 0.44076
 H180 H 0.71819 -0.04631 0.46557
 H181 H 0.69335 -0.04864 0.43745
 H182 H 0.72259 0.00921 0.41217
 H183 H 0.78107 -0.02709 0.50540
 H184 H 0.80627 -0.05498 0.50645
 H185 H 0.78209 -0.08221 0.44999
 H186 H 0.75744 -0.05378 0.44997
 C187 C 0.79744 0.04243 0.47631
 C188 C 0.70105 -0.01623 0.53586
 C189 C 0.79587 -0.07072 0.47835
 C190 C 0.70632 -0.01995 0.42264
 C191 C 0.46502 0.21629 1.03216
 H192 H 0.45335 0.21544 1.02063
 C193 C 0.46336 0.20212 1.04875
 H194 H 0.45033 0.19035 1.05010
 C195 C 0.49678 0.23207 1.04401
 H196 H 0.51008 0.24337 1.04180
 C197 C 0.49572 0.21818 1.06083
 H198 H 0.50810 0.21898 1.07163
 N199 N 0.48153 0.23089 1.03010
 C200 C 0.46118 0.27911 0.98988
 H201 H 0.47398 0.27930 0.97762
 C202 C 0.44544 0.29333 0.98943
 H203 H 0.44605 0.30448 0.97674
 C204 C 0.44514 0.26482 1.02183
 H205 H 0.44534 0.25400 1.03465
 C206 C 0.42907 0.27880 1.02198
 H207 H 0.41683 0.27860 1.03483
 Zn208 Zn 0.48381 0.24792 1.00590
 N209 N 0.46074 0.26520 1.00588
 C210 C 0.46956 0.22944 0.96806
 N211 N 0.48455 0.22957 0.98221
 C212 C 0.49979 0.21547 0.98074
 C213 C 0.50042 0.20050 0.96448
 C214 C 0.46962 0.21470 0.95155
 C215 C 0.50946 0.28076 1.02109
 C216 C 0.52674 0.29530 1.02135
 C217 C 0.54172 0.27943 0.98925
 C218 C 0.52414 0.26515 0.98959
 N219 N 0.50852 0.26600 1.00545
 H220 H 0.45727 0.24041 0.96980
 H221 H 0.51127 0.21569 0.99243
 H222 H 0.51248 0.18919 0.96356
 H223 H 0.45749 0.21449 0.94050
 H224 H 0.49665 0.28129 1.03329
 H225 H 0.52731 0.30705 1.03382
 H226 H 0.55402 0.27878 0.97652
 H227 H 0.52286 0.25365 0.97704
 C228 C 0.42930 0.29323 1.00566
 C229 C 0.47892 0.20300 1.06313
 C230 C 0.54299 0.29465 1.00527
 C231 C 0.48514 0.20005 0.94982
 C232 C 0.50400 0.78253 -0.02991
 H233 H 0.49169 0.78279 -0.01718
 C234 C 0.50433 0.79667 -0.04641
 H235 H 0.49220 0.80784 -0.04645
 C236 C 0.53520 0.76801 -0.04515
 H237 H 0.54740 0.75709 -0.04438
 C238 C 0.53612 0.78193 -0.06196
 H239 H 0.54893 0.78157 -0.07421
 N240 N 0.51921 0.76849 -0.02963
 C241 C 0.49061 0.71851 0.01093
 H242 H 0.50216 0.71837 0.02253
 C243 C 0.47331 0.70391 0.01202
 H244 H 0.47145 0.69250 0.02452
 C245 C 0.47922 0.73314 -0.01994
 H246 H 0.48182 0.74424 -0.03262
 C247 C 0.46170 0.71878 -0.01944
 H248 H 0.45076 0.71900 -0.03163
 Zn249 Zn 0.51793 0.75092 -0.00589
 N250 N 0.49320 0.73279 -0.00482
 C251 C 0.50152 0.76788 0.03328
 N252 N 0.51798 0.76871 0.01822
 C253 C 0.53437 0.78335 0.01917
 C254 C 0.53469 0.79786 0.03584
 C255 C 0.50123 0.78212 0.05022
 C256 C 0.54241 0.71926 -0.02331
 C257 C 0.55822 0.70498 -0.02448
 C258 C 0.57113 0.72052 0.00733
 C259 C 0.55507 0.73453 0.00791
 N260 N 0.54113 0.73367 -0.00731
 H261 H 0.48839 0.75652 0.03197
 H262 H 0.54704 0.78390 0.00678
 H263 H 0.54769 0.80960 0.03637
 H264 H 0.48796 0.78154 0.06201
 H265 H 0.53088 0.71867 -0.03496
 H266 H 0.55896 0.69339 -0.03712
 H267 H 0.58197 0.72108 0.01966
 H268 H 0.55348 0.74572 0.02078
 C269 C 0.45878 0.70401 -0.00335
 C270 C 0.52055 0.79639 -0.06255
 C271 C 0.57263 0.70554 -0.00895
 C272 C 0.51792 0.79729 0.05145
 C273 C 1.00801 0.47842 0.21884
 H274 H 0.99553 0.46614 0.21859
 C275 C 1.02537 0.47823 0.20399
 H276 H 1.02633 0.46574 0.19228
 C277 C 1.02174 0.51008 0.23402
 H278 H 1.02006 0.52269 0.24545
 C279 C 1.03937 0.51049 0.21942
 H280 H 1.05131 0.52332 0.21978
 N281 N 1.00656 0.49413 0.23352
 C282 C 0.96331 0.46809 0.28435
 H283 H 0.95146 0.47957 0.28524
 C284 C 0.96182 0.45172 0.29875
 H285 H 0.94874 0.45050 0.31073
 C286 C 0.99533 0.45609 0.26821
 H287 H 1.00863 0.45813 0.25664
 C288 C 0.99445 0.43949 0.28231
 H289 H 1.00698 0.42869 0.28144
 Zn290 Zn 0.98174 0.49378 0.25200
 N291 N 0.97986 0.46996 0.26945
 C292 C 0.94337 0.47757 0.23579
 N293 N 0.95869 0.49346 0.23493
 C294 C 0.95883 0.50915 0.22073
 C295 C 0.94304 0.50936 0.20672
 C296 C 0.92726 0.47718 0.22203
 C297 C 0.99713 0.51932 0.28406
 C298 C 0.99767 0.53596 0.29857
 C299 C 0.96686 0.54873 0.28427
 C300 C 0.96689 0.53184 0.27000
 N301 N 0.98197 0.51763 0.27008
 H302 H 0.94381 0.46499 0.24683
 H303 H 0.97141 0.52137 0.22016
 H304 H 0.94338 0.52181 0.19534
 H305 H 0.91524 0.46439 0.22262
 H306 H 1.00869 0.50759 0.28402
 H307 H 1.00974 0.53713 0.30971
 H308 H 0.95474 0.55992 0.28423
 H309 H 0.95468 0.52994 0.25914
 C310 C 0.97760 0.43736 0.29778
 C311 C 1.04115 0.49445 0.20426
 C312 C 0.98238 0.55077 0.29870
 C313 C 0.92716 0.49319 0.20732
 C314 C -0.00618 0.49167 0.78076
 H315 H 0.00552 0.48008 0.78088
 C316 C -0.02345 0.49091 0.79575
 H317 H -0.02514 0.47866 0.80743
 C318 C -0.01796 0.52218 0.76580
 H319 H -0.01554 0.53459 0.75440
 C320 C -0.03546 0.52201 0.78054
 H321 H -0.04657 0.53417 0.78032
 N322 N -0.00381 0.50707 0.76612
 C323 C 0.03749 0.48218 0.71493
 H324 H 0.05001 0.49445 0.71395
 C325 C 0.03797 0.46537 0.70059
 H326 H 0.05093 0.46463 0.68855
 C327 C 0.00486 0.46850 0.73134
 H328 H -0.00825 0.47001 0.74301
 C329 C 0.00472 0.45143 0.71729
 H330 H -0.00840 0.43975 0.71831
 Zn331 Zn 0.02089 0.50767 0.74745
 N332 N 0.02113 0.48341 0.72994
 C333 C 0.05813 0.49381 0.76345
 N334 N 0.04412 0.50913 0.76434
 C335 C 0.04532 0.52523 0.77857
 C336 C 0.06111 0.52640 0.79266
 C337 C 0.07417 0.49438 0.77728
 C338 C 0.00671 0.53117 0.71559
 C339 C 0.00689 0.54735 0.70113
 C340 C 0.03854 0.56285 0.71521
 C341 C 0.03777 0.54635 0.72945
 N342 N 0.02193 0.53101 0.72945
 H343 H 0.05660 0.48087 0.75241
 H344 H 0.03372 0.53697 0.77920
 H345 H 0.06177 0.53911 0.80414
 H346 H 0.08507 0.48197 0.77672
 H347 H -0.00549 0.51858 0.71572
 H348 H -0.00525 0.54730 0.69010
 H349 H 0.05124 0.57496 0.71520
 H350 H 0.04999 0.54569 0.74025
 C351 C 0.02138 0.44992 0.70173
 C352 C -0.03818 0.50625 0.79567
 C353 C 0.02296 0.56331 0.70091
 C354 C 0.07559 0.51076 0.79208
 C355 C 0.03631 0.19812 0.50902
 C356 C 0.05208 0.18954 0.51221
 C357 C 0.07066 0.17871 0.51562
 C358 C 0.06913 0.16139 0.52893
 C359 C 0.08683 0.14998 0.53124
 C360 C 0.10633 0.15572 0.52023
 C361 C 0.10780 0.17339 0.50718
 C362 C 0.09007 0.18480 0.50490
 C363 C 0.12477 0.14277 0.52168
 C364 C 0.13786 0.13820 0.50351
 C365 C 0.15443 0.12497 0.50459
 C366 C 0.15818 0.11616 0.52383
 C367 C 0.14551 0.12091 0.54207
 C368 C 0.12892 0.13414 0.54103
 C369 C 0.17434 0.10145 0.52458
 C370 C 0.18752 0.08872 0.52492
 H371 H 0.05416 0.15647 0.53721
 H372 H 0.08509 0.13629 0.54116
 H373 H 0.12264 0.17836 0.49868
 H374 H 0.09142 0.19817 0.49455
 H375 H 0.13490 0.14433 0.48834
 H376 H 0.16405 0.12129 0.49035
 H377 H 0.14826 0.11415 0.55703
 H378 H 0.11928 0.13754 0.55533
 C379 C 0.69827 0.53759 -0.00497
 C380 C 0.68955 0.55368 -0.00635
 C381 C 0.67862 0.57261 -0.00772
 C382 C 0.66479 0.57456 -0.02352
 C383 C 0.65325 0.59243 -0.02421
 C384 C 0.65535 0.60858 -0.00904
 C385 C 0.66956 0.60661 0.00659
 C386 C 0.68110 0.58873 0.00723
 C387 C 0.64219 0.62699 -0.00908
 C388 C 0.63295 0.63504 0.00997
 C389 C 0.61967 0.65166 0.00990
 C390 C 0.61547 0.66051 -0.00918
 C391 C 0.62484 0.65286 -0.02819
 C392 C 0.63812 0.63621 -0.02816
 C393 C 0.60085 0.67682 -0.00925
 C394 C 0.58820 0.69012 -0.00918
 H395 H 0.66266 0.56212 -0.03511
 H396 H 0.64224 0.59333 -0.03626
 H397 H 0.67172 0.61888 0.01832
 H398 H 0.69176 0.58737 0.01954
 H399 H 0.63550 0.62809 0.02489
 H400 H 0.61239 0.65738 0.02470
 H401 H 0.62168 0.65958 -0.04305
 H402 H 0.64519 0.63054 -0.04306
 C403 C 0.96207 -0.19661 0.49263
 C404 C 0.94608 -0.18806 0.49021
 C405 C 0.92724 -0.17729 0.48775
 C406 C 0.92193 -0.17203 0.46766
 C407 C 0.90429 -0.16047 0.46543
 C408 C 0.89175 -0.15399 0.48330
 C409 C 0.89704 -0.15968 0.50341
 C410 C 0.91467 -0.17123 0.50559
 C411 C 0.87376 -0.14065 0.48111
 C412 C 0.85491 -0.14369 0.49412
 C413 C 0.83849 -0.13030 0.49288
 C414 C 0.84067 -0.11375 0.47861
 C415 C 0.85919 -0.11083 0.46534
 C416 C 0.87562 -0.12419 0.46655
 C417 C 0.82439 -0.09912 0.47826
 C418 C 0.81116 -0.08641 0.47819
 H419 H 0.93156 -0.17663 0.45374
 H420 H 0.90049 -0.15655 0.44973
 H421 H 0.88791 -0.15468 0.51749
 H422 H 0.91871 -0.17510 0.52123
 H423 H 0.85290 -0.15637 0.50531
 H424 H 0.82422 -0.13268 0.50325
 H425 H 0.86110 -0.09797 0.45434
 H426 H 0.89003 -0.12124 0.45654
 C427 C 0.30414 0.46148 1.00173
 C428 C 0.31285 0.44529 1.00221
 C429 C 0.32380 0.42627 1.00261
 C430 C 0.32202 0.41400 1.02074
 C431 C 0.33348 0.39606 1.02141
 C432 C 0.34688 0.39018 1.00392
 C433 C 0.34833 0.40249 0.98568
 C434 C 0.33688 0.42041 0.98505
 C435 C 0.35984 0.37172 1.00487
 C436 C 0.36290 0.35832 0.98723
 C437 C 0.37605 0.34163 0.98778
 C438 C 0.38628 0.33808 1.00594
 C439 C 0.38306 0.35108 1.02370
 C440 C 0.36991 0.36777 1.02319
 C441 C 0.40090 0.32177 1.00603
 C442 C 0.41360 0.30853 1.00595
 H443 H 0.31194 0.41841 1.03443
 H444 H 0.33184 0.38679 1.03559
 H445 H 0.35875 0.39859 0.97208
 H446 H 0.33847 0.42987 0.97098
 H447 H 0.35516 0.36078 0.97299
 H448 H 0.37846 0.33168 0.97393
 H449 H 0.39102 0.34855 1.03780
 H450 H 0.36812 0.37796 1.03693
 C451 C 0.96251 0.19117 0.49130
 C452 C 0.94720 0.17976 0.48827
 C453 C 0.92915 0.16568 0.48509
 C454 C 0.90905 0.17047 0.49366
 C455 C 0.89173 0.15622 0.49155
 C456 C 0.89430 0.13696 0.48084
 C457 C 0.91453 0.13244 0.47202
 C458 C 0.93182 0.14670 0.47416
 C459 C 0.87616 0.12134 0.47944
 C460 C 0.87367 0.10952 0.46081
 C461 C 0.85715 0.09413 0.45986
 C462 C 0.84290 0.09035 0.47747
 C463 C 0.84506 0.10221 0.49597
 C464 C 0.86155 0.11762 0.49696
 C465 C 0.82656 0.07378 0.47684
 C466 C 0.81314 0.05963 0.47649
 H467 H 0.90681 0.18510 0.50219
 H468 H 0.87632 0.16025 0.49830
 H469 H 0.91710 0.11764 0.46397
 H470 H 0.94734 0.14276 0.46761
 H471 H 0.88449 0.11219 0.44699
 H472 H 0.85562 0.08504 0.44545
 H473 H 0.83417 0.09934 0.50973
 H474 H 0.86320 0.12624 0.51161
 C475 C 0.30976 0.53737 -0.00084
 C476 C 0.32100 0.55328 -0.00091
 C477 C 0.33488 0.57193 -0.00083
 C478 C 0.34736 0.57606 0.01610
 C479 C 0.36154 0.59368 0.01590
 C480 C 0.36346 0.60741 -0.00129
 C481 C 0.35065 0.60326 -0.01813
 C482 C 0.33647 0.58562 -0.01788
 C483 C 0.37921 0.62559 -0.00189
 C484 C 0.39140 0.63077 -0.02071
 C485 C 0.40692 0.64727 -0.02107
 C486 C 0.41044 0.65884 -0.00265
 C487 C 0.39821 0.65402 0.01608
 C488 C 0.38268 0.63752 0.01648
 C489 C 0.42713 0.67513 -0.00284
 C490 C 0.44140 0.68846 -0.00305
 H491 H 0.34634 0.56550 0.02933
 H492 H 0.37138 0.59625 0.02894
 H493 H 0.35159 0.61366 -0.03146
 H494 H 0.32687 0.58257 -0.03107
 H495 H 0.38933 0.62171 -0.03503
 H496 H 0.41638 0.65079 -0.03563
 H497 H 0.40080 0.66288 0.03042
 H498 H 0.37339 0.63408 0.03114
 C499 C 0.03582 -0.19049 0.50704
 C500 C 0.05135 -0.17919 0.50950
 C501 C 0.06967 -0.16526 0.51198
 C502 C 0.07444 -0.15800 0.53205
 C503 C 0.09165 -0.14364 0.53429
 C504 C 0.10431 -0.13635 0.51645
 C505 C 0.09954 -0.14399 0.49638
 C506 C 0.08233 -0.15832 0.49418
 C507 C 0.12198 -0.12033 0.51864
 C508 C 0.14110 -0.12147 0.50605
 C509 C 0.15730 -0.10579 0.50738
 C510 C 0.15463 -0.08879 0.52132
 C511 C 0.13582 -0.08768 0.53414
 C512 C 0.11960 -0.10334 0.53284
 C513 C 0.17081 -0.07206 0.52187
 C514 C 0.18410 -0.05777 0.52209
 H515 H 0.06473 -0.16327 0.54593
 H516 H 0.09506 -0.13824 0.54996
 H517 H 0.10877 -0.13845 0.48232
 H518 H 0.07870 -0.16375 0.47857
 H519 H 0.14351 -0.13447 0.49515
 H520 H 0.17180 -0.10680 0.49737
 H521 H 0.13354 -0.07452 0.54490
 H522 H 0.10499 -0.10184 0.54253
 C523 C 0.69203 0.46106 1.00257
 C524 C 0.68084 0.44512 1.00349
 C525 C 0.66708 0.42636 1.00433
 C526 C 0.65185 0.42324 1.02125
 C527 C 0.63771 0.40559 1.02155
 C528 C 0.63859 0.39082 1.00486
 C529 C 0.65418 0.39395 0.98806
 C530 C 0.66831 0.41161 0.98781
 C531 C 0.62288 0.37264 1.00466
 C532 C 0.61383 0.36639 0.98587
 C533 C 0.59831 0.34992 0.98585
 C534 C 0.59165 0.33944 1.00456
 C535 C 0.60077 0.34532 1.02326
 C536 C 0.61629 0.36181 1.02333
 C537 C 0.57488 0.32325 1.00471
 C538 C 0.56051 0.31003 1.00491
 H539 H 0.65068 0.43463 1.03406
 H540 H 0.62572 0.40379 1.03455
 H541 H 0.65542 0.38274 0.97512
 H542 H 0.68004 0.41388 0.97462
 H543 H 0.61834 0.37460 0.97131
 H544 H 0.59127 0.34558 0.97131
 H545 H 0.59572 0.33733 1.03784
 H546 H 0.62313 0.36608 1.03797
 C547 C 0.48855 0.03704 1.19661
 C548 C 0.48582 0.05269 1.18714
 C549 C 0.48300 0.07112 1.17523
 C550 C 0.49250 0.09053 1.18091
 C551 C 0.49081 0.10814 1.16853
 C552 C 0.47962 0.10653 1.15029
 C553 C 0.46985 0.08701 1.14494
 C554 C 0.47156 0.06943 1.15731
 C555 C 0.47879 0.12488 1.13643
 C556 C 0.46018 0.12861 1.12689
 C557 C 0.45981 0.14518 1.11288
 C558 C 0.47800 0.15824 1.10825
 C559 C 0.49647 0.15491 1.11795
 C560 C 0.49688 0.13836 1.13197
 C561 C 0.47802 0.17444 1.09281
 C562 C 0.47829 0.18765 1.07948
 H563 H 0.50143 0.09200 1.19473
 H564 H 0.49831 0.12300 1.17320
 H565 H 0.46140 0.08517 1.13083
 H566 H 0.46428 0.05445 1.15269
 H567 H 0.44593 0.11868 1.13020
 H568 H 0.44542 0.14762 1.10545
 H569 H 0.51068 0.16485 1.11438
 H570 H 0.51152 0.13574 1.13881
 C571 C 0.01090 0.69722 0.53583
 C572 C 0.01416 0.68785 0.55142
 C573 C 0.01750 0.67610 0.56981
 C574 C 0.00738 0.68124 0.58939
 C575 C 0.00941 0.66888 0.60695
 C576 C 0.02158 0.65118 0.60514
 C577 C 0.03205 0.64642 0.58548
 C578 C 0.02999 0.65879 0.56794
 C579 C 0.02258 0.63718 0.62338
 C580 C 0.04154 0.62819 0.62720
 C581 C 0.04208 0.61404 0.64364
 C582 C 0.02371 0.60871 0.65648
 C583 C 0.00488 0.61785 0.65305
 C584 C 0.00430 0.63201 0.63664
 C585 C 0.02387 0.59314 0.67253
 C586 C 0.02364 0.57973 0.68565
 H587 H -0.00235 0.69459 0.59100
 H588 H 0.00136 0.67310 0.62192
 H589 H 0.04129 0.63274 0.58349
 H590 H 0.03778 0.65458 0.55283
 H591 H 0.05592 0.63205 0.61743
 H592 H 0.05675 0.60704 0.64615
 H593 H -0.00947 0.61373 0.66280
 H594 H -0.01060 0.63840 0.63393
 C595 C 0.51063 0.96093 -0.19722
 C596 C 0.51365 0.94517 -0.18806
 C597 C 0.51674 0.92663 -0.17645
 C598 C 0.50563 0.90768 -0.18091
 C599 C 0.50740 0.89008 -0.16856
 C600 C 0.52029 0.89123 -0.15152
 C601 C 0.53175 0.91024 -0.14747
 C602 C 0.52995 0.92781 -0.15984
 C603 C 0.52102 0.87305 -0.13742
 C604 C 0.54008 0.86817 -0.12935
 C605 C 0.54042 0.85183 -0.11507
 C606 C 0.52174 0.84014 -0.10868
 C607 C 0.50279 0.84462 -0.11690
 C608 C 0.50241 0.86094 -0.13118
 C609 C 0.52175 0.82428 -0.09291
 C610 C 0.52139 0.81136 -0.07928
 H611 H 0.49533 0.90660 -0.19372
 H612 H 0.49858 0.87562 -0.17223
 H613 H 0.54156 0.91174 -0.13431
 H614 H 0.53850 0.94244 -0.15616
 H615 H 0.55470 0.87705 -0.13402
 H616 H 0.55517 0.84851 -0.10878
 H617 H 0.48821 0.83577 -0.11196
 H618 H 0.48744 0.86449 -0.13683
 C619 C 0.98859 0.30445 0.46419
 C620 C 0.98568 0.31390 0.44854
 C621 C 0.98269 0.32573 0.43009
 C622 C 0.97034 0.34314 0.43181
 C623 C 0.96851 0.35550 0.41422
 C624 C 0.97908 0.35063 0.39463
 C625 C 0.99117 0.33286 0.39298
 C626 C 0.99296 0.32051 0.41060
 C627 C 0.97817 0.36452 0.37629
 C628 C 0.99648 0.36956 0.36302
 C629 C 0.99593 0.38354 0.34645
 C630 C 0.97711 0.39264 0.34287
 C631 C 0.95873 0.38745 0.35574
 C632 C 0.95923 0.37347 0.37234
 C633 C 0.97694 0.40797 0.32660
 C634 C 0.97709 0.42118 0.31328
 H635 H 0.96244 0.34740 0.44685
 H636 H 0.95934 0.36923 0.41609
 H637 H 0.99928 0.32856 0.37807
 H638 H 1.00259 0.30708 0.40910
 H639 H 1.01137 0.36318 0.36583
 H640 H 1.01029 0.38755 0.33667
 H641 H 0.94407 0.39442 0.35312
 H642 H 0.94483 0.36971 0.38211
 C643 C 0.50398 0.96270 0.19336
 C644 C 0.50651 0.94714 0.18268
 C645 C 0.50920 0.92884 0.16945
 C646 C 0.52290 0.93005 0.15115
 C647 C 0.52474 0.91264 0.13765
 C648 C 0.51283 0.89375 0.14228
 C649 C 0.49930 0.89260 0.16088
 C650 C 0.49751 0.91004 0.17436
 C651 C 0.51405 0.87559 0.12740
 C652 C 0.49563 0.86355 0.12287
 C653 C 0.49662 0.84708 0.10813
 C654 C 0.51601 0.84238 0.09775
 C655 C 0.53446 0.85404 0.10237
 C656 C 0.53351 0.87054 0.11710
 C657 C 0.51683 0.82613 0.08180
 C658 C 0.51740 0.81281 0.06812
 H659 H 0.53192 0.94457 0.14712
 H660 H 0.53505 0.91414 0.12332
 H661 H 0.49012 0.87822 0.16500
 H662 H 0.48682 0.90894 0.18848
 H663 H 0.48037 0.86722 0.13030
 H664 H 0.48222 0.83823 0.10458
 H665 H 0.54956 0.85053 0.09442
 H666 H 0.54799 0.87933 0.12044
 C667 C 0.00419 0.30760 0.53751
 C668 C 0.00671 0.31804 0.55319
 C669 C 0.00935 0.33096 0.57167
 C670 C -0.00839 0.33669 0.58437
 C671 C -0.00600 0.35017 0.60169
 C672 C 0.01419 0.35813 0.60652
 C673 C 0.03197 0.35200 0.59385
 C674 C 0.02954 0.33851 0.57653
 C675 C 0.01660 0.37336 0.62422
 C676 C 0.03105 0.39090 0.62190
 C677 C 0.03255 0.40583 0.63813
 C678 C 0.01969 0.40343 0.65691
 C679 C 0.00550 0.38587 0.65952
 C680 C 0.00396 0.37092 0.64330
 C681 C 0.02049 0.41942 0.67310
 C682 C 0.02098 0.43315 0.68634
 H683 H -0.02410 0.33103 0.58068
 H684 H -0.02001 0.35482 0.61093
 H685 H 0.04773 0.35767 0.59731
 H686 H 0.04338 0.33417 0.56680
 H687 H 0.04078 0.39340 0.60731
 H688 H 0.04350 0.41944 0.63589
 H689 H -0.00455 0.38387 0.67400
 H690 H -0.00713 0.35746 0.64567
 C691 C 0.49485 0.03410 0.80798
 C692 C 0.49244 0.04954 0.81886
 C693 C 0.48994 0.06773 0.83230
 C694 C 0.50440 0.08511 0.82994
 C695 C 0.50272 0.10228 0.84379
 C696 C 0.48656 0.10227 0.86022
 C697 C 0.47189 0.08486 0.86222
 C698 C 0.47360 0.06772 0.84835
 C699 C 0.48546 0.11999 0.87564
 C700 C 0.48078 0.11610 0.89726
 C701 C 0.48039 0.13266 0.91191
 C702 C 0.48466 0.15333 0.90519
 C703 C 0.48918 0.15741 0.88371
 C704 C 0.48959 0.14085 0.86901
 C705 C 0.48475 0.17021 0.92047
 C706 C 0.48491 0.18402 0.93365
 H707 H 0.51718 0.08523 0.81764
 H708 H 0.51442 0.11530 0.84199
 H709 H 0.45912 0.08449 0.87453
 H710 H 0.46232 0.05435 0.85032
 H711 H 0.47787 0.10022 0.90292
 H712 H 0.47696 0.12931 0.92851
 H713 H 0.49247 0.17336 0.87834
 H714 H 0.49302 0.14437 0.85246
 C715 C 0.99360 0.69362 0.46305
 C716 C 0.99087 0.68304 0.44750
 C717 C 0.98811 0.66993 0.42917
 C718 C 0.97409 0.65216 0.43051
 C719 C 0.97241 0.63863 0.41312
 C720 C 0.98480 0.64268 0.39415
 C721 C 0.99856 0.66081 0.39284
 C722 C 1.00020 0.67433 0.41025
 C723 C 0.98398 0.62762 0.37613
 C724 C 1.00269 0.62246 0.36441
 C725 C 1.00210 0.60753 0.34810
 C726 C 0.98284 0.59758 0.34324
 C727 C 0.96410 0.60281 0.35459
 C728 C 0.96465 0.61774 0.37093
 C729 C 0.98245 0.58143 0.32719
 C730 C 0.98232 0.56761 0.31403
 H731 H 0.96475 0.64854 0.44512
 H732 H 0.96188 0.62467 0.41473
 H733 H 1.00811 0.66449 0.37839
 H734 H 1.01112 0.68804 0.40905
 H735 H 1.01784 0.62954 0.36822
 H736 H 1.01671 0.60351 0.33950
 H737 H 0.94910 0.59519 0.35097
 H738 H 0.94997 0.62154 0.37951
 C739 C 1.19234 0.49895 0.03611
 C740 C 1.18085 0.49813 0.05212
 C741 C 1.16672 0.49728 0.07094
 C742 C 1.15260 0.47983 0.07462
 C743 C 1.13816 0.47939 0.09237
 C744 C 1.13763 0.49645 0.10667
 C745 C 1.15210 0.51381 0.10298
 C746 C 1.16653 0.51421 0.08521
 C747 C 1.12162 0.49637 0.12498
 C748 C 1.11114 0.51462 0.13074
 C749 C 1.09542 0.51434 0.14740
 C750 C 1.08999 0.49586 0.15854
 C751 C 1.10050 0.47769 0.15313
 C752 C 1.11623 0.47793 0.13647
 C753 C 1.07312 0.49537 0.17502
 C754 C 1.05870 0.49496 0.18851
 H755 H 1.15253 0.46670 0.06360
 H756 H 1.12704 0.46593 0.09459
 H757 H 1.15226 0.52706 0.11383
 H758 H 1.17740 0.52780 0.08251
 H759 H 1.11470 0.52898 0.12203
 H760 H 1.08729 0.52846 0.15137
 H761 H 1.09641 0.46330 0.16166
 H762 H 1.12418 0.46371 0.13259
 C763 C 0.53455 -0.00848 0.68860
 C764 C 0.54966 -0.01058 0.67623
 C765 C 0.56728 -0.01251 0.66084
 C766 C 0.58753 -0.01510 0.66715
 C767 C 0.60469 -0.01608 0.65204
 C768 C 0.60176 -0.01439 0.63045
 C769 C 0.58128 -0.01207 0.62430
 C770 C 0.56419 -0.01113 0.63939
 C771 C 0.61997 -0.01468 0.61435
 C772 C 0.62142 -0.00088 0.59724
 C773 C 0.63830 -0.00130 0.58184
 C774 C 0.65398 -0.01549 0.58330
 C775 C 0.65282 -0.02919 0.60035
 C776 C 0.63593 -0.02877 0.61581
 C777 C 0.67100 -0.01610 0.56704
 C778 C 0.68490 -0.01631 0.55302
 H779 H 0.59011 -0.01610 0.68373
 H780 H 0.62029 -0.01768 0.65727
 H781 H 0.57847 -0.01106 0.60779
 H782 H 0.54858 -0.00915 0.63434
 H783 H 0.60957 0.01037 0.59584
 H784 H 0.63907 0.00941 0.56875
 H785 H 0.66485 -0.04028 0.60159
 H786 H 0.63514 -0.03971 0.62869
 C787 C -0.18972 0.50096 0.96359
 C788 C -0.17816 0.50176 0.94763
 C789 C -0.16395 0.50252 0.92888
 C790 C -0.15553 0.48410 0.92063
 C791 C -0.14096 0.48489 0.90299
 C792 C -0.13458 0.50416 0.89336
 C793 C -0.14335 0.52256 0.90162
 C794 C -0.15793 0.52173 0.91927
 C795 C -0.11838 0.50511 0.87521
 C796 C -0.10239 0.52138 0.87392
 C797 C -0.08665 0.52184 0.85729
 C798 C -0.08665 0.50609 0.84173
 C799 C -0.10261 0.48996 0.84272
 C800 C -0.11838 0.48946 0.85934
 C801 C -0.06991 0.50616 0.82514
 C802 C -0.05559 0.50620 0.81154
 H803 H -0.15999 0.46916 0.92802
 H804 H -0.13428 0.47050 0.89721
 H805 H -0.13896 0.53759 0.89441
 H806 H -0.16436 0.53608 0.92553
 H807 H -0.10176 0.53348 0.88603
 H808 H -0.07430 0.53434 0.85674
 H809 H -0.10276 0.47768 0.83075
 H810 H -0.13060 0.47687 0.85976
 C811 C 0.46175 0.00781 0.31121
 C812 C 0.44629 0.01058 0.32291
 C813 C 0.42806 0.01345 0.33731
 C814 C 0.40828 0.00440 0.33287
 C815 C 0.39082 0.00618 0.34744
 C816 C 0.39294 0.01704 0.36668
 C817 C 0.41284 0.02637 0.37083
 C818 C 0.43027 0.02456 0.35625
 C819 C 0.37469 0.01807 0.38267
 C820 C 0.37139 0.03653 0.39456
 C821 C 0.35476 0.03713 0.41026
 C822 C 0.34119 0.01932 0.41426
 C823 C 0.34416 0.00097 0.40234
 C824 C 0.36078 0.00033 0.38664
 C825 C 0.32472 0.01961 0.43110
 C826 C 0.31119 0.01968 0.44547
 H827 H 0.40640 -0.00425 0.31826
 H828 H 0.37566 -0.00094 0.34368
 H829 H 0.41507 0.03457 0.38561
 H830 H 0.44554 0.03151 0.35990
 H831 H 0.38168 0.05051 0.39172
 H832 H 0.35260 0.05142 0.41940
 H833 H 0.33382 -0.01294 0.40539
 H834 H 0.36307 -0.01420 0.37799
 C835 C 0.19927 0.50413 0.95996
 C836 C 0.19083 0.50505 0.94372
 C837 C 0.18020 0.50597 0.92464
 C838 C 0.17973 0.52500 0.91419
 C839 C 0.16843 0.52608 0.89629
 C840 C 0.15742 0.50810 0.88863
 C841 C 0.15827 0.48897 0.89907
 C842 C 0.16957 0.48794 0.91696
 C843 C 0.14447 0.50939 0.87031
 C844 C 0.14386 0.49313 0.85510
 C845 C 0.13075 0.49385 0.83852
 C846 C 0.11812 0.51083 0.83689
 C847 C 0.11888 0.52725 0.85173
 C848 C 0.13198 0.52656 0.86831
 C849 C 0.10365 0.51098 0.82062
 C850 C 0.09109 0.51096 0.80739
 H851 H 0.18790 0.53906 0.92001
 H852 H 0.16828 0.54097 0.88846
 H853 H 0.14972 0.47493 0.89377
 H854 H 0.16972 0.47315 0.92501
 H855 H 0.15347 0.47983 0.85606
 H856 H 0.13027 0.48105 0.82713
 H857 H 0.10906 0.54040 0.85070
 H858 H 0.13186 0.53918 0.87991
 C859 C 0.53635 -0.00849 0.30297
 C860 C 0.55236 -0.01125 0.31121
 C861 C 0.57129 -0.01411 0.32153
 C862 C 0.57040 -0.02653 0.33951
 C863 C 0.58848 -0.02835 0.35032
 C864 C 0.60772 -0.01771 0.34331
 C865 C 0.60853 -0.00553 0.32501
 C866 C 0.59042 -0.00375 0.31421
 C867 C 0.62659 -0.01869 0.35552
 C868 C 0.63966 -0.00052 0.35879
 C869 C 0.65669 -0.00113 0.37134
 C870 C 0.66091 -0.01988 0.38075
 C871 C 0.64826 -0.03814 0.37727
 C872 C 0.63122 -0.03757 0.36473
 C873 C 0.67747 -0.02012 0.39489
 C874 C 0.69089 -0.02013 0.40726
 H875 H 0.55564 -0.03450 0.34540
 H876 H 0.58724 -0.03758 0.36452
 H877 H 0.62315 0.00265 0.31908
 H878 H 0.59128 0.00593 0.30032
 H879 H 0.63635 0.01431 0.35218
 H880 H 0.66628 0.01313 0.37405
 H881 H 0.65137 -0.05273 0.38452
 H882 H 0.62161 -0.05187 0.36231
 C883 C 0.80295 0.49470 0.03962
 C884 C 0.81132 0.49355 0.05588
 C885 C 0.82190 0.49241 0.07497
 C886 C 0.81877 0.50739 0.09106
 C887 C 0.83002 0.50699 0.10905
 C888 C 0.84458 0.49159 0.11117
 C889 C 0.84733 0.47639 0.09506
 C890 C 0.83607 0.47683 0.07708
 C891 C 0.85747 0.49182 0.12966
 C892 C 0.86188 0.47297 0.13907
 C893 C 0.87506 0.47318 0.15567
 C894 C 0.88397 0.49221 0.16310
 C895 C 0.87936 0.51107 0.15412
 C896 C 0.86619 0.51090 0.13753
 C897 C 0.89865 0.49238 0.17920
 C898 C 0.91140 0.49267 0.19226
 H899 H 0.80785 0.51953 0.08957
 H900 H 0.82738 0.51876 0.12129
 H901 H 0.85863 0.46453 0.09606
 H902 H 0.83872 0.46524 0.06466
 H903 H 0.85520 0.45807 0.13353
 H904 H 0.87854 0.45850 0.16250
 H905 H 0.88629 0.52587 0.15966
 H906 H 0.86335 0.52564 0.13045
 C907 C 0.45979 0.00656 0.69919
 C908 C 0.44360 0.00933 0.69127
 C909 C 0.42454 0.01217 0.68117
 C910 C 0.40642 -0.00090 0.68613
 C911 C 0.38841 0.00078 0.67516
 C912 C 0.38832 0.01555 0.65902
 C913 C 0.40646 0.02893 0.65448
 C914 C 0.42444 0.02721 0.66547
 C915 C 0.36980 0.01633 0.64627
 C916 C 0.36315 0.03564 0.63979
 C917 C 0.34654 0.03622 0.62668
 C918 C 0.33637 0.01754 0.61991
 C919 C 0.34261 -0.00172 0.62659
 C920 C 0.35918 -0.00234 0.63969
 C921 C 0.32030 0.01799 0.60525
 C922 C 0.30725 0.01806 0.59250
 H923 H 0.40633 -0.01263 0.69824
 H924 H 0.37461 -0.00957 0.67919
 H925 H 0.40700 0.04025 0.64196
 H926 H 0.43844 0.03731 0.66139
 H927 H 0.37085 0.05028 0.64478
 H928 H 0.34186 0.05122 0.62158
 H929 H 0.33495 -0.01628 0.62132
 H930 H 0.36412 -0.01746 0.64413
   
