data_POSCAR
  _audit_creation_date              2014-09-24
  _audit_creation_method            'ToBaCCo'
  _symmetry_space_group_name_H-M    'P1'
  _symmetry_Int_Tables_number       1
  _symmetry_cell_setting            triclinic
  loop_
  _symmetry_equiv_pos_as_xyz
 x,y,z
_cell_length_a 36.1751
_cell_length_b 35.8624
_cell_length_c 17.0978
_cell_angle_alpha 89.837600
_cell_angle_beta 90.293100
_cell_angle_gamma 118.959300
loop_
  _atom_site_label
  _atom_site_type_symbol
  _atom_site_fract_x
  _atom_site_fract_y
  _atom_site_fract_z
C1 C 0.50273 0.99947 0.46665
 C2 C 0.49983 1.00018 0.54585
 C3 C 0.47609 0.96012 0.59089
 C4 C 0.51867 1.04035 0.59186
 C5 C 0.52475 1.03875 0.41877
 C6 C 0.48204 0.95880 0.42265
 C7 C 0.44040 0.95335 0.63316
 C8 C 0.41748 0.91587 0.67576
 C9 C 0.42959 0.88374 0.67752
 C10 C 0.46648 0.89175 0.63586
 C11 C 0.48915 0.92922 0.59278
 C12 C 0.51034 1.07382 0.57351
 C13 C 0.52711 1.11053 0.61980
 C14 C 0.55106 1.11363 0.68682
 C15 C 0.55956 1.08036 0.70485
 C16 C 0.54347 1.04405 0.65788
 C17 C 0.56753 1.06853 0.43112
 C18 C 0.58770 1.10443 0.38274
 C19 C 0.56541 1.11051 0.32107
 C20 C 0.52261 1.08115 0.30968
 C21 C 0.50253 1.04551 0.35782
 C22 C 0.50679 0.94590 0.37963
 C23 C 0.48763 0.90871 0.33487
 C24 C 0.44348 0.88429 0.33191
 C25 C 0.41865 0.89712 0.37490
 C26 C 0.43783 0.93411 0.42033
 H27 H 0.42986 0.97694 0.63214
 H28 H 0.38906 0.91156 0.70441
 H29 H 0.47952 0.87027 0.63978
 H30 H 0.51743 0.93455 0.56212
 H31 H 0.49044 1.07133 0.52411
 H32 H 0.52061 1.13612 0.60450
 H33 H 0.55011 1.01857 0.67339
 H34 H 0.58534 1.06363 0.47730
 H35 H 0.62081 1.12685 0.39209
 H36 H 0.50498 1.08554 0.26249
 H37 H 0.46953 1.02302 0.34740
 H38 H 0.54091 0.96483 0.38041
 H39 H 0.50712 0.89941 0.30117
 H40 H 0.38451 0.87877 0.37240
 H41 H 0.41830 0.94401 0.45235
 H42 H 0.57814 1.08225 0.75608
 C43 C -0.00056 0.49055 0.46316
 C44 C -0.00401 0.49048 0.54226
 C45 C 0.03397 0.51078 0.59302
 C46 C -0.04549 0.47204 0.58222
 C47 C -0.03807 0.47074 0.41091
 C48 C 0.04112 0.51224 0.42362
 C49 C 0.06325 0.49570 0.59502
 C50 C 0.09938 0.51588 0.64204
 C51 C 0.10705 0.55184 0.68651
 C52 C 0.07731 0.56636 0.68528
 C53 C 0.04096 0.54585 0.63923
 C54 C -0.05458 0.44198 0.64199
 C55 C -0.09197 0.42664 0.68447
 C56 C -0.12067 0.44141 0.66827
 C57 C -0.11230 0.47061 0.60719
 C58 C -0.07476 0.48609 0.56475
 C59 C -0.04220 0.49529 0.35115
 C60 C -0.07566 0.47701 0.29818
 C61 C -0.10547 0.43335 0.30241
 C62 C -0.10229 0.40925 0.36491
 C63 C -0.06854 0.42763 0.41791
 C64 C 0.06820 0.55620 0.43312
 C65 C 0.10497 0.57710 0.38855
 C66 C 0.11471 0.55442 0.33313
 C67 C 0.08853 0.51033 0.32560
 C68 C 0.05188 0.48942 0.37031
 H69 H 0.05798 0.46830 0.56041
 H70 H 0.12138 0.50350 0.64382
 H71 H 0.08237 0.59370 0.71987
 H72 H 0.01857 0.55775 0.63849
 H73 H -0.03233 0.43092 0.65655
 H74 H -0.09791 0.40432 0.73181
 H75 H -0.06799 0.50988 0.51987
 H76 H -0.01940 0.52879 0.34555
 H77 H -0.07839 0.49728 0.25404
 H78 H -0.12466 0.37564 0.37062
 H79 H -0.06571 0.40805 0.46333
 H80 H 0.06002 0.57456 0.47269
 H81 H 0.12482 0.61123 0.39459
 H82 H 0.09556 0.49248 0.28276
 H83 H 0.03123 0.45558 0.36183
 H84 H -0.13407 0.48252 0.59451
 C85 C 0.50532 0.50834 0.46616
 C86 C 0.50064 0.50596 0.54545
 C87 C 0.47756 0.52564 0.58394
 C88 C 0.51772 0.48454 0.59858
 C89 C 0.52904 0.49089 0.42315
 C90 C 0.48469 0.52728 0.41724
 C91 C 0.49363 0.56990 0.58237
 C92 C 0.47314 0.58842 0.62272
 C93 C 0.43573 0.56299 0.66476
 C94 C 0.42001 0.51850 0.66605
 C95 C 0.44071 0.50011 0.62612
 C96 C 0.53312 0.50203 0.67286
 C97 C 0.54658 0.48156 0.72621
 C98 C 0.54650 0.44331 0.70656
 C99 C 0.53273 0.42695 0.63052
 C100 C 0.51665 0.44599 0.57910
 C101 C 0.50799 0.45977 0.36560
 C102 C 0.52891 0.44158 0.32602
 C103 C 0.57137 0.45440 0.34276
 C104 C 0.59303 0.48652 0.39845
 C105 C 0.57193 0.50464 0.43866
 C106 C 0.44049 0.50751 0.41141
 C107 C 0.42129 0.52527 0.36443
 C108 C 0.44600 0.56345 0.32372
 C109 C 0.49024 0.58296 0.32930
 C110 C 0.50943 0.56488 0.37540
 H111 H 0.52245 0.59012 0.55095
 H112 H 0.48632 0.62270 0.62001
 H113 H 0.39270 0.49795 0.70093
 H114 H 0.42838 0.46594 0.62907
 H115 H 0.53413 0.53147 0.69061
 H116 H 0.55586 0.49544 0.78389
 H117 H 0.50340 0.43020 0.52419
 H118 H 0.47502 0.44893 0.35244
 H119 H 0.51196 0.41731 0.28233
 H120 H 0.62598 0.49712 0.41129
 H121 H 0.58881 0.52903 0.48214
 H122 H 0.42100 0.47810 0.44254
 H123 H 0.38718 0.50909 0.35930
 H124 H 0.50988 0.61214 0.29765
 H125 H 0.54358 0.58035 0.37903
 H126 H 0.53484 0.39963 0.60946
 O127 O 0.38727 0.66987 -0.09579
 O128 O 0.38942 0.74211 -0.06880
 C129 C 0.36177 0.74822 -0.10374
 O130 O 0.32307 0.72924 -0.08567
 O131 O 0.25308 0.65907 -0.05779
 C132 C 0.24699 0.62636 -0.09656
 O133 O 0.26729 0.60635 -0.08479
 O134 O 0.33792 0.60395 -0.06600
 C135 C 0.36772 0.63020 -0.10926
 O136 O 0.39402 0.65842 0.05868
 O137 O 0.39218 0.72917 0.08621
 C138 C 0.37178 0.74825 0.10489
 O139 O 0.33851 0.74262 0.06919
 O140 O 0.26976 0.67112 0.09650
 C141 C 0.24985 0.63135 0.10871
 O142 O 0.25668 0.60489 0.07080
 O143 O 0.32945 0.60717 0.09059
 C144 C 0.36911 0.62702 0.10075
 Cr145 Cr 0.38842 0.69873 -0.00462
 Cr146 Cr 0.29739 0.69940 0.00539
 Cr147 Cr 0.29900 0.60791 0.00267
 O148 O 0.32822 0.66873 0.00133
 O149 O 0.60094 0.33388 -0.05995
 O150 O 0.60147 0.26125 -0.04558
 C151 C 0.62377 0.25653 -0.09764
 O152 O 0.66386 0.27740 -0.09562
 O153 O 0.73779 0.34547 -0.07662
 C154 C 0.74334 0.37985 -0.10824
 O155 O 0.72301 0.39858 -0.08772
 O156 O 0.65469 0.39974 -0.04527
 C157 C 0.62040 0.37299 -0.07866
 O158 O 0.60986 0.34584 0.09526
 O159 O 0.61484 0.27551 0.10864
 C160 C 0.63266 0.25263 0.10648
 O161 O 0.66180 0.25919 0.05818
 O162 O 0.73309 0.33040 0.07741
 C163 C 0.75387 0.36997 0.09245
 O164 O 0.74527 0.39769 0.06318
 O165 O 0.67617 0.39796 0.10681
 C166 C 0.63821 0.37869 0.12949
 Cr167 Cr 0.60908 0.30538 0.02410
 Cr168 Cr 0.69797 0.30423 -0.00851
 Cr169 Cr 0.69850 0.39617 0.00952
 O170 O 0.66871 0.33550 0.00877
 C171 C 0.37512 0.81819 -0.15132
 C172 C 0.39089 0.85123 -0.20544
 C173 C 0.40825 0.84790 -0.27745
 C174 C 0.40437 0.80722 -0.29684
 C175 C 0.38934 0.77407 -0.24002
 C176 C 0.37577 0.78036 -0.16632
 C177 C 0.38643 0.73473 -0.26010
 N178 N 0.39566 0.72811 -0.33370
 N179 N 0.40708 0.75799 -0.38864
 C180 C 0.41103 0.79683 -0.37325
 H181 H 0.36405 0.82299 -0.09541
 H182 H 0.39273 0.88084 -0.18648
 H183 H 0.37568 0.70876 -0.21873
 H184 H 0.41790 0.81857 -0.42170
 C185 C 0.17172 0.59459 -0.12992
 C186 C 0.13800 0.57627 -0.18214
 C187 C 0.14472 0.57290 -0.26192
 C188 C 0.18672 0.58958 -0.28976
 C189 C 0.22105 0.60771 -0.23613
 C190 C 0.21316 0.60965 -0.15566
 C191 C 0.26235 0.62448 -0.26530
 N192 N 0.26865 0.62310 -0.34310
 N193 N 0.23651 0.60650 -0.39359
 C194 C 0.19587 0.58996 -0.36975
 H195 H 0.16533 0.59610 -0.06847
 H196 H 0.10623 0.56394 -0.15981
 H197 H 0.28969 0.63911 -0.22720
 H198 H 0.17127 0.57793 -0.41376
 C199 C 0.42604 0.63336 -0.18819
 C200 C 0.44279 0.61783 -0.24421
 C201 C 0.41659 0.58183 -0.28950
 C202 C 0.37196 0.56437 -0.28301
 C203 C 0.35486 0.58002 -0.22502
 C204 C 0.38243 0.61391 -0.17518
 C205 C 0.31065 0.56231 -0.22149
 N206 N 0.28554 0.53196 -0.27333
 N207 N 0.30155 0.51832 -0.32915
 C208 C 0.34374 0.53375 -0.33632
 H209 H 0.44772 0.65979 -0.15200
 H210 H 0.47688 0.63240 -0.24754
 H211 H 0.29561 0.57297 -0.17991
 H212 H 0.35479 0.52284 -0.38518
 C213 C 0.62823 0.20968 -0.19914
 C214 C 0.61096 0.17497 -0.24954
 C215 C 0.56734 0.15145 -0.26135
 C216 C 0.54050 0.16397 -0.22283
 C217 C 0.55810 0.20070 -0.17386
 C218 C 0.60269 0.22282 -0.15889
 C219 C 0.52999 0.21356 -0.14251
 N220 N 0.48780 0.18977 -0.15451
 N221 N 0.47141 0.15401 -0.19609
 C222 C 0.49623 0.14023 -0.23036
 H223 H 0.66212 0.22562 -0.19011
 H224 H 0.63191 0.16586 -0.27871
 H225 H 0.54042 0.24265 -0.11049
 H226 H 0.48096 0.11072 -0.26275
 C227 C 0.77727 0.37201 -0.22756
 C228 C 0.81002 0.38670 -0.28168
 C229 C 0.84267 0.42893 -0.27971
 C230 C 0.84207 0.45719 -0.22268
 C231 C 0.80892 0.44224 -0.16702
 C232 C 0.77616 0.39904 -0.16958
 C233 C 0.81131 0.47064 -0.10799
 N234 N 0.84373 0.51115 -0.10648
 N235 N 0.87438 0.52525 -0.15941
 C236 C 0.87483 0.49965 -0.21706
 H237 H 0.75299 0.33886 -0.22984
 H238 H 0.81049 0.36465 -0.32434
 H239 H 0.78865 0.46098 -0.06160
 H240 H 0.90107 0.51272 -0.25724
 C241 C 0.61401 0.43260 -0.13906
 C242 C 0.59557 0.44953 -0.18916
 C243 C 0.56189 0.42347 -0.23950
 C244 C 0.54682 0.37854 -0.23662
 C245 C 0.56928 0.36213 -0.19265
 C246 C 0.60142 0.38900 -0.13906
 C247 C 0.55852 0.31922 -0.20471
 N248 N 0.52335 0.29310 -0.24603
 N249 N 0.49850 0.30712 -0.27679
 C250 C 0.50869 0.34873 -0.27254
 H251 H 0.63880 0.45428 -0.10011
 H252 H 0.60924 0.48386 -0.18961
 H253 H 0.57813 0.30631 -0.18378
 H254 H 0.48657 0.35790 -0.29646
 C255 C 0.78563 0.37290 0.22206
 C256 C 0.82008 0.38744 0.27289
 C257 C 0.86146 0.41473 0.24664
 C258 C 0.86796 0.42392 0.16495
 C259 C 0.83269 0.40959 0.11383
 C260 C 0.79131 0.38493 0.14339
 C261 C 0.84004 0.41886 0.03358
 N262 N 0.88007 0.44008 0.00610
 N263 N 0.91324 0.45210 0.05333
 C264 C 0.90861 0.44427 0.13127
 H265 H 0.75412 0.35312 0.24485
 H266 H 0.81381 0.37927 0.33423
 H267 H 0.81439 0.40849 -0.00780
 H268 H 0.93679 0.45290 0.16546
 C269 C 0.61298 0.22171 0.23932
 C270 C 0.59778 0.18763 0.29169
 C271 C 0.58665 0.14650 0.26588
 C272 C 0.59201 0.13970 0.18614
 C273 C 0.60679 0.17412 0.13247
 C274 C 0.61767 0.21563 0.15976
 C275 C 0.60859 0.16521 0.05271
 N276 N 0.59837 0.12519 0.02974
 N277 N 0.58609 0.09332 0.08073
 C278 C 0.58255 0.09917 0.15801
 H279 H 0.62087 0.25307 0.26097
 H280 H 0.59349 0.19315 0.35242
 H281 H 0.61739 0.18922 0.00795
 H282 H 0.57245 0.07209 0.19671
 C283 C 0.64077 0.44124 0.19509
 C284 C 0.62458 0.45972 0.24660
 C285 C 0.59283 0.43460 0.29966
 C286 C 0.57951 0.39046 0.30511
 C287 C 0.59611 0.37161 0.25296
 C288 C 0.62563 0.39706 0.19506
 C289 C 0.58295 0.32792 0.26155
 N290 N 0.55458 0.30482 0.31756
 N291 N 0.53866 0.32244 0.36585
 C292 C 0.55019 0.36443 0.36169
 H293 H 0.66355 0.46135 0.15183
 H294 H 0.63527 0.49357 0.24210
 H295 H 0.59560 0.31208 0.22568
 H296 H 0.53685 0.37719 0.40340
 C297 C 0.21741 0.58898 0.22780
 C298 C 0.18488 0.57055 0.28227
 C299 C 0.14977 0.57709 0.27751
 C300 C 0.14720 0.60249 0.21630
 C301 C 0.18025 0.62120 0.16082
 C302 C 0.21576 0.61454 0.16725
 C303 C 0.17559 0.64440 0.09853
 N304 N 0.14065 0.64907 0.09346
 N305 N 0.10979 0.63175 0.14587
 C306 C 0.11173 0.60848 0.20677
 H307 H 0.24400 0.58305 0.23263
 H308 H 0.18684 0.55064 0.32808
 H309 H 0.19889 0.65828 0.05304
 H310 H 0.08526 0.59453 0.24641
 C311 C 0.38714 0.81848 0.15624
 C312 C 0.40429 0.85125 0.21085
 C313 C 0.42336 0.84712 0.27919
 C314 C 0.42380 0.80852 0.29437
 C315 C 0.40593 0.77477 0.23908
 C316 C 0.38843 0.78041 0.16824
 C317 C 0.40519 0.73618 0.25811
 N318 N 0.42213 0.73235 0.32663
 N319 N 0.43947 0.76429 0.37773
 C320 C 0.44081 0.80217 0.36407
 H321 H 0.37371 0.82340 0.10298
 H322 H 0.40359 0.88059 0.19878
 H323 H 0.39066 0.70870 0.22032
 H324 H 0.45466 0.82677 0.40821
 C325 C 0.41985 0.60303 0.13870
 C326 C 0.43836 0.58778 0.19228
 C327 C 0.42592 0.58144 0.27085
 C328 C 0.39465 0.59183 0.29609
 C329 C 0.37517 0.60665 0.24097
 C330 C 0.38780 0.61187 0.16151
 C331 C 0.34467 0.61713 0.26803
 N332 N 0.33468 0.61319 0.34503
 N333 N 0.35327 0.59978 0.39682
 C334 C 0.38302 0.58920 0.37516
 H335 H 0.43005 0.60713 0.07830
 H336 H 0.46227 0.58020 0.17187
 H337 H 0.32917 0.62911 0.22919
 H338 H 0.39770 0.57956 0.42023
   
