data_POSCAR
  _audit_creation_date              2014-09-24
  _audit_creation_method            'ToBaCCo'
  _symmetry_space_group_name_H-M    'P1'
  _symmetry_Int_Tables_number       1
  _symmetry_cell_setting            triclinic
  loop_
  _symmetry_equiv_pos_as_xyz
 x,y,z
_cell_length_a 32.9280
_cell_length_b 32.4654
_cell_length_c 34.7304
_cell_angle_alpha 90.384200
_cell_angle_beta 89.215700
_cell_angle_gamma 87.467300
loop_
  _atom_site_label
  _atom_site_type_symbol
  _atom_site_fract_x
  _atom_site_fract_y
  _atom_site_fract_z
N1 N 0.57697 0.70168 0.60257
 N2 N 0.56045 0.68650 0.63378
 C3 C 0.52996 0.71244 0.64630
 C4 C 0.52683 0.74513 0.62108
 C5 C 0.55691 0.73725 0.59357
 H6 H 0.51111 0.70763 0.67148
 H7 H 0.56426 0.75658 0.56943
 Cu8 Cu 0.57928 0.63363 0.65428
 Cu9 Cu 0.62494 0.67576 0.57763
 Cu10 Cu 0.66802 0.58974 0.62224
 N11 N 0.60695 0.58917 0.68201
 N12 N 0.64256 0.57350 0.67045
 C13 C 0.65608 0.54555 0.69627
 C14 C 0.62699 0.54303 0.72537
 C15 C 0.59612 0.57111 0.71513
 H16 H 0.68463 0.52795 0.69360
 H17 H 0.56856 0.57902 0.73132
 N18 N 0.68899 0.61122 0.57323
 N19 N 0.67351 0.64503 0.55712
 C20 C 0.69596 0.65354 0.52570
 C21 C 0.72645 0.62323 0.52149
 C22 C 0.72109 0.59674 0.55191
 H23 H 0.69048 0.67965 0.50703
 H24 H 0.73998 0.56972 0.55859
 H25 H 0.61751 0.61575 0.59537
 H26 H 0.64552 0.64990 0.62846
 N27 N 0.91580 0.29146 0.11088
 N28 N 0.92251 0.30016 0.14716
 C29 C 0.95388 0.27609 0.15962
 C30 C 0.96830 0.25143 0.12918
 C31 C 0.94330 0.26220 0.09866
 H32 H 0.96620 0.27782 0.18821
 H33 H 0.94445 0.24935 0.06985
 Cu34 Cu 0.89207 0.34452 0.17371
 Cu35 Cu 0.87107 0.31793 0.08279
 Cu36 Cu 0.82427 0.40459 0.12547
 N37 N 0.87289 0.39806 0.19338
 N38 N 0.84490 0.42052 0.17550
 C39 C 0.83733 0.45584 0.19536
 C40 C 0.86258 0.45579 0.22683
 C41 C 0.88486 0.41875 0.22466
 H42 H 0.81670 0.48073 0.18650
 H43 H 0.90840 0.40795 0.24404
 N44 N 0.80831 0.38301 0.07493
 N45 N 0.82517 0.34909 0.05933
 C46 C 0.80700 0.34161 0.02565
 C47 C 0.77802 0.37279 0.01943
 C48 C 0.77968 0.39859 0.05109
 H49 H 0.81482 0.31597 0.00653
 H50 H 0.76105 0.42636 0.05646
 H51 H 0.87836 0.37351 0.11082
 H52 H 0.83613 0.34156 0.12866
 N53 N 0.42210 0.21109 -0.09957
 N54 N 0.43300 0.20069 -0.13500
 C55 C 0.46092 0.22671 -0.14774
 C56 C 0.46823 0.25438 -0.11847
 C57 C 0.44325 0.24347 -0.08828
 H58 H 0.47538 0.22533 -0.17588
 H59 H 0.44022 0.25851 -0.06045
 Cu60 Cu 0.41024 0.15349 -0.16038
 Cu61 Cu 0.38007 0.18316 -0.07127
 Cu62 Cu 0.33883 0.09919 -0.11607
 N63 N 0.38802 0.10535 -0.18462
 N64 N 0.35878 0.08545 -0.16782
 C65 C 0.34715 0.05531 -0.19151
 C66 C 0.37084 0.05596 -0.22461
 C67 C 0.39663 0.08788 -0.21924
 H68 H 0.32362 0.03411 -0.18499
 H69 H 0.41924 0.09807 -0.23950
 N70 N 0.32271 0.11798 -0.06376
 N71 N 0.33727 0.15094 -0.04737
 C72 C 0.31876 0.15720 -0.01287
 C73 C 0.29194 0.12628 -0.00703
 C74 C 0.29526 0.10185 -0.03971
 H75 H 0.32456 0.18210 0.00685
 H76 H 0.27816 0.07495 -0.04580
 H77 H 0.39080 0.12645 -0.09782
 H78 H 0.35019 0.16119 -0.11863
 N79 N 0.07720 0.79812 0.40310
 N80 N 0.06402 0.81189 0.36985
 C81 C 0.03727 0.78576 0.35566
 C82 C 0.03266 0.75425 0.38192
 C83 C 0.05841 0.76332 0.41180
 H84 H 0.02163 0.79008 0.32872
 H85 H 0.06413 0.74520 0.43732
 Cu86 Cu 0.08133 0.86368 0.34903
 Cu87 Cu 0.11972 0.82484 0.43113
 Cu88 Cu 0.16110 0.90937 0.38751
 N89 N 0.10847 0.90724 0.32241
 N90 N 0.14055 0.92407 0.33685
 C91 C 0.15416 0.95204 0.31188
 C92 C 0.12888 0.95306 0.28040
 C93 C 0.10013 0.92437 0.28808
 H94 H 0.18004 0.97074 0.31654
 H95 H 0.07545 0.91614 0.26972
 N96 N 0.17760 0.88949 0.43870
 N97 N 0.16302 0.85627 0.45458
 C98 C 0.18191 0.84911 0.48819
 C99 C 0.20897 0.87976 0.49402
 C100 C 0.20540 0.90494 0.46226
 H101 H 0.17621 0.82380 0.50731
 H102 H 0.22258 0.93187 0.45641
 H103 H 0.10967 0.88399 0.41053
 H104 H 0.14499 0.84877 0.38171
 C105 C 0.10337 0.13287 0.13217
 N106 N 0.10301 0.10150 0.15779
 C107 C 0.13487 0.07356 0.15936
 N108 N 0.16722 0.07727 0.13513
 C109 C 0.16786 0.10866 0.10950
 N110 N 0.13581 0.13636 0.10809
 C111 C 0.39893 0.87243 0.62842
 N112 N 0.36672 0.86831 0.60483
 C113 C 0.33458 0.89607 0.60654
 N114 N 0.33489 0.92798 0.63200
 C115 C 0.36692 0.93238 0.65562
 N116 N 0.39888 0.90455 0.65368
 C117 C 0.91404 0.63183 0.37563
 N118 N 0.88494 0.63481 0.40368
 C119 C 0.85269 0.61017 0.40281
 N120 N 0.84956 0.58246 0.37362
 C121 C 0.87860 0.57929 0.34545
 N122 N 0.91069 0.60413 0.34655
 C123 C 0.59463 0.37223 -0.12278
 N124 N 0.62575 0.36706 -0.09767
 C125 C 0.65775 0.39211 -0.09914
 N126 N 0.65851 0.42231 -0.12597
 C127 C 0.62760 0.42773 -0.15112
 N128 N 0.59570 0.40272 -0.14933
 C129 C 0.01944 0.20865 0.16305
 C130 C 0.00131 0.22253 0.12910
 C131 C 0.01865 0.20543 0.09446
 C132 C 0.05246 0.17668 0.09519
 C133 C 0.06884 0.16293 0.13051
 C134 C 0.05057 0.17971 0.16364
 C135 C 0.05271 0.17913 0.20633
 C136 C 0.01724 0.21164 0.20595
 H137 H 0.00703 0.21470 0.06672
 H138 H 0.06528 0.16480 0.06824
 H139 H 0.08158 0.19122 0.21698
 H140 H 0.04423 0.14909 0.21848
 H141 H 0.02573 0.24231 0.21684
 H142 H -0.01167 0.20023 0.21782
 C143 C 0.48052 0.79700 0.58944
 C144 C 0.49792 0.78098 0.62295
 C145 C 0.48649 0.79992 0.65831
 C146 C 0.45542 0.83121 0.65992
 C147 C 0.43417 0.84285 0.62643
 C148 C 0.44879 0.82659 0.59121
 C149 C 0.42703 0.80697 0.55896
 C150 C 0.46203 0.77490 0.55668
 H151 H 0.50057 0.78962 0.68476
 H152 H 0.44630 0.84432 0.68764
 H153 H 0.42498 0.82701 0.53318
 H154 H 0.39803 0.79379 0.56854
 H155 H 0.48053 0.77679 0.52979
 H156 H 0.45307 0.74335 0.56443
 C157 C 0.99908 0.69613 0.41107
 C158 C 1.00772 0.72042 0.37894
 C159 C 0.98995 0.70947 0.34365
 C160 C 0.96126 0.67858 0.34213
 C161 C 0.94852 0.65910 0.37601
 C162 C 0.96961 0.66688 0.40976
 C163 C 0.95460 0.67664 0.44961
 C164 C 0.98681 0.70869 0.45125
 H165 H 0.99713 0.72538 0.31731
 H166 H 0.94692 0.67218 0.31498
 H167 H 0.96041 0.65050 0.46959
 H168 H 0.92307 0.69040 0.45043
 H169 H 1.01106 0.70099 0.47230
 H170 H 0.97391 0.74091 0.45307
 C171 C 0.51586 0.30026 -0.08541
 C172 C 0.49650 0.28832 -0.11901
 C173 C 0.50547 0.30939 -0.15322
 C174 C 0.53620 0.33827 -0.15408
 C175 C 0.55943 0.34560 -0.12105
 C176 C 0.54704 0.32764 -0.08653
 C177 C 0.57088 0.30398 -0.05712
 C178 C 0.53653 0.27427 -0.05562
 H179 H 0.48984 0.30248 -0.17956
 H180 H 0.54344 0.35280 -0.18115
 H181 H 0.57392 0.32182 -0.02997
 H182 H 0.59963 0.28962 -0.06915
 H183 H 0.51953 0.27528 -0.02773
 H184 H 0.54555 0.24280 -0.06640
 C185 C 0.09649 -0.00791 0.22638
 C186 C 0.13153 -0.02078 0.24603
 C187 C 0.16910 -0.00728 0.23217
 C188 C 0.17046 0.02191 0.20235
 C189 C 0.13422 0.03907 0.18675
 C190 C 0.09771 0.02178 0.19792
 C191 C 0.05791 0.04152 0.21061
 C192 C 0.05647 0.00883 0.24169
 H193 H 0.19721 -0.01797 0.24536
 H194 H 0.19963 0.03306 0.19345
 H195 H 0.03406 0.03854 0.18855
 H196 H 0.06087 0.07312 0.22243
 H197 H 0.03190 -0.01308 0.23742
 H198 H 0.05848 0.02155 0.27138
 C199 C 0.59379 0.51305 -0.21866
 C200 C 0.62859 0.51832 -0.24159
 C201 C 0.66511 0.49782 -0.22980
 C202 C 0.66523 0.46997 -0.19883
 C203 C 0.62868 0.46078 -0.17989
 C204 C 0.59373 0.48446 -0.18914
 C205 C 0.55173 0.47201 -0.19767
 C206 C 0.55158 0.50330 -0.23001
 H207 H 0.69351 0.50231 -0.24490
 H208 H 0.69342 0.45362 -0.19147
 H209 H 0.52990 0.48055 -0.17394
 H210 H 0.55077 0.43965 -0.20819
 H211 H 0.52955 0.52976 -0.22487
 H212 H 0.55047 0.48906 -0.25917
 C213 C 0.40393 1.01643 0.72066
 C214 C 0.36876 1.02887 0.74138
 C215 C 0.33149 1.01405 0.72899
 C216 C 0.33059 0.98412 0.69945
 C217 C 0.36707 0.96750 0.68275
 C218 C 0.40320 0.98596 0.69252
 C219 C 0.44350 0.96745 0.70404
 C220 C 0.44436 1.00094 0.73481
 H221 H 0.30328 1.02434 0.74310
 H222 H 0.30168 0.97202 0.69166
 H223 H 0.46709 0.97051 0.68116
 H224 H 0.44140 0.93598 0.71615
 H225 H 0.46837 1.02333 0.72957
 H226 H 0.44281 0.98887 0.76466
 C227 C 0.83382 0.51409 0.26739
 C228 C 0.86741 0.48980 0.25436
 C229 C 0.90603 0.49944 0.26789
 C230 C 0.90988 0.52985 0.29658
 C231 C 0.87507 0.55009 0.31317
 C232 C 0.83747 0.54303 0.29660
 C233 C 0.79780 0.53290 0.31466
 C234 C 0.79369 0.50132 0.28256
 H235 H 0.93307 0.48273 0.25712
 H236 H 0.93982 0.53574 0.30731
 H237 H 0.77494 0.55906 0.31322
 H238 H 0.80134 0.51870 0.34352
 H239 H 0.76857 0.50940 0.26254
 H240 H 0.79469 0.46894 0.29286
 C241 C 0.24762 0.15553 0.04617
 C242 C 0.26494 0.12119 0.02659
 C243 C 0.25485 0.08181 0.03954
 C244 C 0.22475 0.07763 0.06835
 C245 C 0.20329 0.11271 0.08365
 C246 C 0.21702 0.15142 0.07352
 C247 C 0.19446 0.18967 0.06067
 C248 C 0.22810 0.19427 0.03076
 H249 H 0.26893 0.05435 0.02633
 H250 H 0.21629 0.04700 0.07653
 H251 H 0.19363 0.21427 0.08312
 H252 H 0.16461 0.18344 0.04775
 H253 H 0.24668 0.22145 0.03607
 H254 H 0.21772 0.19073 0.00063
 C255 C 0.77218 0.58333 0.47523
 C256 C 0.75865 0.62069 0.49172
 C257 C 0.77757 0.65622 0.47806
 C258 C 0.80885 0.65295 0.44946
 C259 C 0.82092 0.61424 0.43291
 C260 C 0.80098 0.58039 0.44681
 C261 C 0.79864 0.53486 0.44308
 C262 C 0.76574 0.53824 0.47509
 H263 H 0.76870 0.68631 0.48981
 H264 H 0.82299 0.68066 0.43992
 H265 H 0.82716 0.51825 0.45207
 H266 H 0.78677 0.52547 0.41470
 H267 H 0.77521 0.52336 0.50246
 H268 H 0.73492 0.53103 0.46505
 C269 C 0.73546 0.34336 -0.03199
 C270 C 0.75156 0.37766 -0.01420
 C271 C 0.74104 0.41689 -0.02911
 C272 C 0.71184 0.42141 -0.05824
 C273 C 0.69156 0.38696 -0.07194
 C274 C 0.70555 0.34795 -0.05962
 C275 C 0.68295 0.31263 -0.04423
 C276 C 0.71596 0.30730 -0.01429
 H277 H 0.75423 0.44413 -0.01731
 H278 H 0.70324 0.45209 -0.06813
 H279 H 0.68254 0.28653 -0.06507
 H280 H 0.65297 0.32252 -0.03141
 H281 H 0.73492 0.27835 -0.01814
 H282 H 0.70489 0.31364 0.01566
 C283 C 0.25563 0.84926 0.54327
 C284 C 0.23649 0.88398 0.52671
 C285 C 0.24558 0.92301 0.54140
 C286 C 0.27622 0.92683 0.56896
 C287 C 0.29934 0.89181 0.58124
 C288 C 0.28688 0.85312 0.56932
 C289 C 0.31070 0.81708 0.55235
 C290 C 0.27624 0.81255 0.52420
 H291 H 0.23020 0.95060 0.53047
 H292 H 0.28361 0.95736 0.57860
 H293 H 0.31394 0.79102 0.57283
 H294 H 0.33933 0.82612 0.53805
 H295 H 0.25925 0.78411 0.52876
 H296 H 0.28516 0.81844 0.49379
   
