data_POSCAR
  _audit_creation_date              2014-09-24
  _audit_creation_method            'ToBaCCo'
  _symmetry_space_group_name_H-M    'P1'
  _symmetry_Int_Tables_number       1
  _symmetry_cell_setting            triclinic
  loop_
  _symmetry_equiv_pos_as_xyz
 x,y,z
_cell_length_a 32.9855
_cell_length_b 33.0539
_cell_length_c 28.4702
_cell_angle_alpha 89.880400
_cell_angle_beta 90.037800
_cell_angle_gamma 88.092300
loop_
  _atom_site_label
  _atom_site_type_symbol
  _atom_site_fract_x
  _atom_site_fract_y
  _atom_site_fract_z
C1 C -0.08499 0.27837 0.04756
 C2 C -0.10707 0.27496 0.00596
 C3 C -0.08886 0.27913 -0.03808
 C4 C -0.04750 0.28923 -0.04079
 C5 C -0.02445 0.29209 0.00117
 C6 C -0.04316 0.28634 0.04550
 C7 C -0.01959 0.28857 0.08653
 C8 C 0.02178 0.29512 0.08406
 C9 C 0.04103 0.30023 0.04054
 C10 C 0.01775 0.29924 -0.00127
 C11 C -0.02812 0.29472 -0.08420
 C12 C 0.01294 0.30278 -0.08646
 C13 C 0.03683 0.30394 -0.04555
 C14 C 0.07911 0.31074 -0.04763
 C15 C 0.10141 0.31192 -0.00571
 C16 C 0.08329 0.30527 0.03780
 H17 H -0.03294 0.28480 0.12093
 H18 H 0.03864 0.29621 0.11665
 H19 H -0.04447 0.29283 -0.11702
 H20 H 0.02581 0.30789 -0.12082
 H21 H -0.13882 0.26732 0.00782
 H22 H 0.13411 0.31457 -0.00719
 C23 C 0.41768 0.80733 0.53702
 C24 C 0.39882 0.80973 0.49309
 C25 C 0.42128 0.80738 0.45152
 C26 C 0.46404 0.80307 0.45363
 C27 C 0.48358 0.80037 0.49799
 C28 C 0.46036 0.80269 0.53986
 C29 C 0.48036 0.80018 0.58344
 C30 C 0.52226 0.79397 0.58587
 C31 C 0.54571 0.79018 0.54482
 C32 C 0.52634 0.79435 0.50048
 C33 C 0.48771 0.80127 0.41261
 C34 C 0.52972 0.79581 0.41506
 C35 C 0.54954 0.79169 0.45862
 C36 C 0.59200 0.78490 0.46147
 C37 C 0.61058 0.77994 0.50536
 C38 C 0.58802 0.78180 0.54693
 H39 H 0.46374 0.80281 0.61611
 H40 H 0.53613 0.79197 0.62030
 H41 H 0.47392 0.80411 0.37819
 H42 H 0.54651 0.79456 0.38241
 H43 H 0.36596 0.81193 0.49122
 H44 H 0.64301 0.77352 0.50710
 C45 C 1.08930 0.71572 -0.04805
 C46 C 1.11257 0.71631 -0.00708
 C47 C 1.09490 0.71249 0.03736
 C48 C 1.05242 0.70759 0.04094
 C49 C 1.02872 0.70526 -0.00059
 C50 C 1.04736 0.70875 -0.04520
 C51 C 1.02373 0.70498 -0.08589
 C52 C 0.98234 0.69872 -0.08293
 C53 C 0.96267 0.69675 -0.03914
 C54 C 0.98631 0.69925 0.00245
 C55 C 1.03334 0.70300 0.08471
 C56 C 0.99182 0.69726 0.08770
 C57 C 0.96772 0.69561 0.04707
 C58 C 0.92554 0.68979 0.04995
 C59 C 0.90272 0.68676 0.00878
 C60 C 0.92037 0.69034 -0.03579
 H61 H 1.03721 0.70637 -0.12049
 H62 H 0.96604 0.69489 -0.11551
 H63 H 1.05043 0.70327 0.11716
 H64 H 0.97887 0.69351 0.12230
 H65 H 1.14481 0.72154 -0.00976
 H66 H 0.87016 0.68353 0.01162
 C67 C 0.41253 0.20876 0.54403
 C68 C 0.39272 0.21176 0.50076
 C69 C 0.41425 0.20953 0.45858
 C70 C 0.45679 0.20313 0.45925
 C71 C 0.47723 0.19934 0.50296
 C72 C 0.45499 0.20181 0.54554
 C73 C 0.47583 0.19863 0.58850
 C74 C 0.51794 0.19417 0.58965
 C75 C 0.54068 0.19325 0.54790
 C76 C 0.52015 0.19529 0.50414
 C77 C 0.47945 0.20175 0.41747
 C78 C 0.52161 0.19794 0.41864
 C79 C 0.54255 0.19532 0.46162
 C80 C 0.58541 0.19418 0.46327
 C81 C 0.60523 0.19127 0.50659
 C82 C 0.58352 0.19112 0.54873
 H83 H 0.45970 0.19986 0.62160
 H84 H 0.53257 0.19200 0.62365
 H85 H 0.46475 0.20416 0.38352
 H86 H 0.53776 0.19751 0.38554
 H87 H 0.36031 0.21853 0.49993
 H88 H 0.63810 0.19147 0.50767
 C89 C 0.71545 -0.10403 0.05079
 C90 C 0.70861 -0.12426 0.00848
 C91 C 0.70567 -0.10351 -0.03445
 C92 C 0.70736 -0.06065 -0.03483
 C93 C 0.71133 -0.03943 0.00816
 C94 C 0.71525 -0.06113 0.05109
 C95 C 0.71751 -0.03942 0.09342
 C96 C 0.71634 0.00268 0.09364
 C97 C 0.71308 0.02478 0.05153
 C98 C 0.71084 0.00363 0.00833
 C99 C 0.70253 -0.03833 -0.07669
 C100 C 0.70264 0.00374 -0.07660
 C101 C 0.70727 0.02545 -0.03460
 C102 C 0.70587 0.06847 -0.03404
 C103 C 0.70735 0.08864 0.00918
 C104 C 0.71106 0.06753 0.05160
 H105 H 0.71946 -0.05489 0.12693
 H106 H 0.71759 0.01776 0.12729
 H107 H 0.69757 -0.05313 -0.10996
 H108 H 0.69775 0.01909 -0.10982
 H109 H 0.70901 -0.15713 0.00840
 H110 H 0.70694 0.12149 0.00982
 C111 C 0.20464 0.43323 0.53446
 C112 C 0.20462 0.41215 0.49196
 C113 C 0.20605 0.43241 0.44887
 C114 C 0.20734 0.47511 0.44792
 C115 C 0.20712 0.49689 0.49080
 C116 C 0.20558 0.47593 0.53425
 C117 C 0.20486 0.49816 0.57630
 C118 C 0.20637 0.54020 0.57575
 C119 C 0.20873 0.56149 0.53313
 C120 C 0.20887 0.53971 0.49026
 C121 C 0.20861 0.49657 0.40528
 C122 C 0.21066 0.53857 0.40476
 C123 C 0.21111 0.56065 0.44686
 C124 C 0.21357 0.60321 0.44677
 C125 C 0.21316 0.62433 0.48920
 C126 C 0.21080 0.60409 0.53216
 H127 H 0.20296 0.48324 0.61007
 H128 H 0.20568 0.55588 0.60910
 H129 H 0.20800 0.48109 0.37184
 H130 H 0.21173 0.55363 0.37100
 H131 H 0.20462 0.37932 0.49247
 H132 H 0.21531 0.65702 0.48880
 C133 C 0.30369 1.10072 0.03824
 C134 C 0.30219 1.12282 -0.00389
 C135 C 0.29930 1.10357 -0.04749
 C136 C 0.30153 1.06074 -0.04969
 C137 C 0.30601 1.03793 -0.00767
 C138 C 0.30789 1.05787 0.03630
 C139 C 0.31415 1.03449 0.07723
 C140 C 0.31476 0.99242 0.07553
 C141 C 0.31020 0.97215 0.03267
 C142 C 0.30702 0.99500 -0.00945
 C143 C 0.29963 1.04019 -0.09287
 C144 C 0.30013 0.99811 -0.09453
 C145 C 0.30306 0.97500 -0.05314
 C146 C 0.30106 0.93237 -0.05414
 C147 C 0.30418 0.91029 -0.01234
 C148 C 0.30829 0.92958 0.03087
 H149 H 0.31799 1.04864 0.11113
 H150 H 0.31861 0.97588 0.10818
 H151 H 0.29732 1.05658 -0.12577
 H152 H 0.29790 0.98377 -0.12855
 H153 H 0.29857 1.15558 -0.00253
 H154 H 0.30122 0.87770 -0.01321
 C155 C 0.80577 0.39239 0.54937
 C156 C 0.80507 0.37334 0.50559
 C157 C 0.80752 0.39543 0.46379
 C158 C 0.81290 0.43769 0.46562
 C159 C 0.81319 0.45751 0.50977
 C160 C 0.80984 0.43478 0.55183
 C161 C 0.80932 0.45514 0.59515
 C162 C 0.81016 0.49722 0.59703
 C163 C 0.81162 0.52041 0.55568
 C164 C 0.81419 0.50038 0.51170
 C165 C 0.81612 0.46081 0.42437
 C166 C 0.81677 0.50286 0.42626
 C167 C 0.81480 0.52323 0.46950
 C168 C 0.81167 0.56591 0.47154
 C169 C 0.80951 0.58525 0.51509
 C170 C 0.80870 0.56318 0.55698
 H171 H 0.80750 0.43868 0.62796
 H172 H 0.80889 0.51154 0.63119
 H173 H 0.81711 0.44657 0.39017
 H174 H 0.81814 0.51939 0.39345
 H175 H 0.79980 0.34114 0.50398
 H176 H 0.80514 0.61792 0.51622
 O177 O 0.23158 0.29436 0.18491
 O178 O 0.31346 0.26963 0.26934
 O179 O 0.28873 0.23928 0.18995
 O180 O 0.25588 0.32511 0.26467
 O181 O 0.21504 0.28517 0.30303
 O182 O 0.24850 0.19974 0.22885
 O183 O 0.27246 0.23021 0.30828
 O184 O 0.19101 0.25422 0.22363
 Cu185 Cu 0.27653 0.28619 0.22345
 Cu186 Cu 0.22769 0.23841 0.26990
 C187 C 0.19784 0.27726 0.18899
 C188 C 0.30658 0.24645 0.30385
 C189 C 0.27347 0.20479 0.19577
 C190 C 0.23001 0.31966 0.29693
 O191 O 0.77150 0.79319 0.23815
 O192 O 0.79631 0.71120 0.32223
 O193 O 0.82592 0.73504 0.24131
 O194 O 0.74177 0.76920 0.31792
 O195 O 0.70037 0.72981 0.27970
 O196 O 0.78496 0.69437 0.20429
 O197 O 0.75498 0.67130 0.28467
 O198 O 0.73170 0.75267 0.19945
 Cu199 Cu 0.78806 0.75606 0.28374
 Cu200 Cu 0.73880 0.70797 0.23843
 C201 C 0.74866 0.78647 0.20334
 C202 C 0.77880 0.67769 0.31870
 C203 C 0.81963 0.70940 0.20914
 C204 C 0.70668 0.75539 0.31193
 O205 O 0.81558 0.22482 0.23514
 O206 O 0.73219 0.20296 0.31659
 O207 O 0.75926 0.17169 0.23717
 O208 O 0.78772 0.25608 0.31368
 O209 O 0.74819 0.29773 0.27276
 O210 O 0.71741 0.21317 0.19838
 O211 O 0.69153 0.24498 0.27705
 O212 O 0.77405 0.26490 0.19429
 Cu213 Cu 0.77780 0.20965 0.27957
 Cu214 Cu 0.72873 0.25938 0.23169
 C215 C 0.80868 0.24759 0.19989
 C216 C 0.69804 0.22143 0.31172
 C217 C 0.73354 0.17817 0.20452
 C218 C 0.77216 0.29135 0.30699
 O219 O 0.29946 0.78344 0.18017
 O220 O 0.26974 0.70304 0.26158
 O221 O 0.24536 0.72811 0.17909
 O222 O 0.32395 0.75807 0.26252
 O223 O 0.27999 0.80085 0.29573
 O224 O 0.20074 0.76917 0.21350
 O225 O 0.22606 0.74579 0.29545
 O226 O 0.25478 0.82560 0.21312
 Cu227 Cu 0.28905 0.73898 0.21735
 Cu228 Cu 0.23602 0.78982 0.25764
 C229 C 0.28225 0.81828 0.18278
 C230 C 0.24279 0.71076 0.29245
 C231 C 0.20938 0.74262 0.18252
 C232 C 0.31536 0.78452 0.29355
 O233 O 0.68544 0.23927 0.73555
 O234 O 0.76827 0.26604 0.81545
 O235 O 0.74176 0.29229 0.73359
 O236 O 0.71184 0.21375 0.81707
 O237 O 0.75102 0.16873 0.78055
 O238 O 0.78272 0.24801 0.69816
 O239 O 0.80863 0.22059 0.78072
 O240 O 0.72664 0.19538 0.69967
 Cu241 Cu 0.72288 0.25745 0.77891
 Cu242 Cu 0.77171 0.20394 0.73628
 C243 C 0.69194 0.21269 0.70399
 C244 C 0.80204 0.24666 0.81273
 C245 C 0.76624 0.28325 0.70060
 C246 C 0.72581 0.17768 0.81297
 O247 O 0.30855 0.76290 0.71893
 O248 O 0.22552 0.73627 0.79809
 O249 O 0.25393 0.70810 0.71843
 O250 O 0.27981 0.79049 0.79860
 O251 O 0.23819 0.83234 0.76013
 O252 O 0.21231 0.75003 0.67995
 O253 O 0.18359 0.77730 0.75943
 O254 O 0.26679 0.80475 0.68057
 Cu255 Cu 0.27119 0.74519 0.76225
 Cu256 Cu 0.22106 0.79530 0.71614
 C257 C 0.30183 0.78836 0.68615
 C258 C 0.19046 0.75286 0.79312
 C259 C 0.22873 0.71506 0.68540
 C260 C 0.26258 0.82520 0.79387
 O261 O 0.25086 0.33103 0.72413
 O262 O 0.27795 0.24940 0.80781
 O263 O 0.30715 0.27414 0.72709
 O264 O 0.22297 0.30620 0.80437
 O265 O 0.18243 0.26523 0.76734
 O266 O 0.26642 0.23424 0.68865
 O267 O 0.23865 0.20820 0.76936
 O268 O 0.20997 0.29019 0.68726
 Cu269 Cu 0.26901 0.29417 0.76950
 Cu270 Cu 0.22046 0.24516 0.72446
 C271 C 0.22556 0.32458 0.69152
 C272 C 0.26176 0.21524 0.80383
 C273 C 0.30077 0.24998 0.69351
 C274 C 0.18833 0.29117 0.79932
 O275 O 0.74218 0.66541 0.74279
 O276 O 0.71120 0.74888 0.82163
 O277 O 0.68480 0.72136 0.74164
 O278 O 0.76839 0.69352 0.82271
 O279 O 0.80854 0.73403 0.78441
 O280 O 0.72513 0.76119 0.70299
 O281 O 0.75034 0.79004 0.78292
 O282 O 0.78208 0.70619 0.70437
 Cu283 Cu 0.72269 0.70324 0.78604
 Cu284 Cu 0.77066 0.75204 0.74014
 C285 C 0.76641 0.67183 0.70916
 C286 C 0.72516 0.78383 0.81575
 C287 C 0.69084 0.74516 0.70752
 C288 C 0.80282 0.70894 0.81745
 C289 C 0.31541 0.17861 0.12999
 C290 C 0.32202 0.15454 0.09068
 C291 C 0.29703 0.12226 0.08063
 C292 C 0.26446 0.11419 0.11180
 C293 C 0.25919 0.13719 0.15380
 C294 C 0.28352 0.17167 0.16142
 C295 C 0.22878 0.12514 0.18536
 N296 N 0.20325 0.09559 0.17340
 N297 N 0.20585 0.07691 0.13219
 C298 C 0.23521 0.08543 0.10090
 H299 H 0.33497 0.20394 0.13491
 H300 H 0.34687 0.16153 0.06745
 H301 H 0.22500 0.13761 0.21988
 H302 H 0.23506 0.06977 0.06767
 C303 C 0.81622 0.63574 0.65809
 C304 C 0.82676 0.60932 0.62168
 C305 C 0.79750 0.58596 0.60018
 C306 C 0.75685 0.58863 0.61622
 C307 C 0.74595 0.61550 0.65335
 C308 C 0.77607 0.63965 0.67421
 C309 C 0.70475 0.61856 0.66637
 N310 N 0.67700 0.59589 0.64440
 N311 N 0.68738 0.57059 0.60985
 C312 C 0.72623 0.56633 0.59485
 H313 H 0.83956 0.65403 0.67318
 H314 H 0.85779 0.60799 0.60916
 H315 H 0.69389 0.63885 0.69329
 H316 H 0.73265 0.54573 0.56618
 C317 C 0.70382 0.81903 0.14392
 C318 C 0.69562 0.84524 0.10662
 C319 C 0.72462 0.87217 0.09089
 C320 C 0.76360 0.87133 0.11245
 C321 C 0.77242 0.84373 0.14989
 C322 C 0.74177 0.81769 0.16622
 C323 C 0.81245 0.84173 0.16753
 N324 N 0.84090 0.86614 0.14982
 N325 N 0.83254 0.89201 0.11507
 C326 C 0.79515 0.89516 0.09552
 H327 H 0.68021 0.79914 0.15513
 H328 H 0.66604 0.84475 0.09003
 H329 H 0.82224 0.82054 0.19424
 H330 H 0.79086 0.91576 0.06632
 C331 C 0.24840 0.37971 0.64043
 C332 C 0.24362 0.40547 0.60198
 C333 C 0.20646 0.40913 0.57842
 C334 C 0.17282 0.38806 0.59539
 C335 C 0.17750 0.36202 0.63485
 C336 C 0.21624 0.35654 0.65625
 C337 C 0.14292 0.34295 0.65191
 N338 N 0.10671 0.34873 0.62987
 N339 N 0.10262 0.37247 0.59221
 C340 C 0.13438 0.39239 0.57426
 H341 H 0.27810 0.37641 0.65646
 H342 H 0.26954 0.42163 0.58941
 H343 H 0.14394 0.32429 0.68310
 H344 H 0.12922 0.41176 0.54402
 C345 C 0.84126 0.29277 0.14344
 C346 C 0.86730 0.30071 0.10646
 C347 C 0.89457 0.27080 0.08976
 C348 C 0.89553 0.23186 0.11089
 C349 C 0.86808 0.22325 0.14785
 C350 C 0.84066 0.25431 0.16432
 C351 C 0.86780 0.18315 0.16488
 N352 N 0.89406 0.15459 0.14739
 N353 N 0.92028 0.16299 0.11355
 C354 C 0.92177 0.20050 0.09454
 H355 H 0.82048 0.31680 0.15504
 H356 H 0.86558 0.33033 0.09002
 H357 H 0.84671 0.17358 0.19116
 H358 H 0.94326 0.20535 0.06658
 C359 C 0.35904 0.76393 0.63717
 C360 C 0.38681 0.76831 0.60095
 C361 C 0.39117 0.80579 0.57896
 C362 C 0.36830 0.83997 0.59510
 C363 C 0.34015 0.83566 0.63233
 C364 C 0.33454 0.79684 0.65235
 C365 C 0.31920 0.87065 0.64866
 N366 N 0.32533 0.90697 0.62805
 N367 N 0.35115 0.91078 0.59250
 C368 C 0.37290 0.87856 0.57538
 H369 H 0.35537 0.73405 0.65199
 H370 H 0.40413 0.74192 0.58884
 H371 H 0.29869 0.86981 0.67818
 H372 H 0.39388 0.88348 0.54691
 C373 C 0.14484 0.75729 0.14014
 C374 C 0.11656 0.74996 0.10512
 C375 C 0.12041 0.71544 0.07682
 C376 C 0.15181 0.68620 0.08653
 C377 C 0.17953 0.69267 0.12382
 C378 C 0.17748 0.72992 0.14901
 C379 C 0.20748 0.66092 0.13518
 N380 N 0.20883 0.62646 0.10940
 N381 N 0.18377 0.62110 0.07349
 C382 C 0.15521 0.64960 0.06135
 H383 H 0.14196 0.78556 0.15922
 H384 H 0.09277 0.77264 0.09828
 H385 H 0.22734 0.66211 0.16516
 H386 H 0.13485 0.64298 0.03280
 C387 C 0.63577 0.23618 0.65246
 C388 C 0.60997 0.23113 0.61440
 C389 C 0.60703 0.19332 0.59291
 C390 C 0.62868 0.15941 0.61175
 C391 C 0.65471 0.16437 0.65084
 C392 C 0.65963 0.20360 0.66991
 C393 C 0.67446 0.12962 0.66980
 N394 N 0.66930 0.09292 0.64983
 N395 N 0.64558 0.08853 0.61244
 C396 C 0.62506 0.12049 0.59275
 H397 H 0.63868 0.26629 0.66672
 H398 H 0.59336 0.25728 0.60034
 H399 H 0.69319 0.13099 0.70086
 H400 H 0.60576 0.11514 0.56280
 C401 C 0.74312 0.11436 0.85626
 C402 C 0.73850 0.08771 0.89360
 C403 C 0.70563 0.09217 0.92458
 C404 C 0.67507 0.12243 0.91510
 C405 C 0.67910 0.14885 0.87598
 C406 C 0.71488 0.14632 0.84802
 C407 C 0.64644 0.17600 0.86561
 N408 N 0.61314 0.17756 0.89351
 N409 N 0.60981 0.15344 0.93068
 C410 C 0.63940 0.12580 0.94221
 H411 H 0.77027 0.11104 0.83505
 H412 H 0.76223 0.06488 0.90002
 H413 H 0.64603 0.19499 0.83477
 H414 H 0.63425 0.10605 0.97178
 C415 C 0.26414 0.65598 0.34688
 C416 C 0.25721 0.63022 0.38454
 C417 C 0.21822 0.62695 0.40312
 C418 C 0.18518 0.64834 0.38194
 C419 C 0.19207 0.67428 0.34323
 C420 C 0.23227 0.67930 0.32689
 C421 C 0.15824 0.69384 0.32189
 N422 N 0.12051 0.68857 0.33930
 N423 N 0.11425 0.66493 0.37636
 C424 C 0.14527 0.64462 0.39825
 H425 H 0.29502 0.65922 0.33479
 H426 H 0.28269 0.61384 0.40050
 H427 H 0.16118 0.71257 0.29102
 H428 H 0.13843 0.62544 0.42787
 C429 C 0.31097 0.85959 0.84503
 C430 C 0.32056 0.88559 0.88147
 C431 C 0.29045 0.90985 0.90289
 C432 C 0.24991 0.90864 0.88670
 C433 C 0.23995 0.88214 0.84955
 C434 C 0.27094 0.85701 0.82885
 C435 C 0.19886 0.88050 0.83631
 N436 N 0.17033 0.90420 0.85810
 N437 N 0.17985 0.92921 0.89264
 C438 C 0.21855 0.93211 0.90783
 H439 H 0.33497 0.84058 0.82996
 H440 H 0.35156 0.88592 0.89406
 H441 H 0.18871 0.86054 0.80935
 H442 H 0.22431 0.95257 0.93646
 C443 C 0.81834 0.31952 0.36594
 C444 C 0.82692 0.34399 0.40411
 C445 C 0.79900 0.37380 0.41927
 C446 C 0.76219 0.38025 0.39415
 C447 C 0.75400 0.35656 0.35370
 C448 C 0.78170 0.32419 0.34090
 C449 C 0.71768 0.36575 0.32902
 N450 N 0.69120 0.39478 0.34498
 N451 N 0.69819 0.41547 0.38396
 C452 C 0.73258 0.40908 0.40918
 H453 H 0.84026 0.29570 0.35679
 H454 H 0.85507 0.33864 0.42312
 H455 H 0.70956 0.35106 0.29700
 H456 H 0.73627 0.42661 0.44078
 C457 C 0.12801 0.27153 0.84423
 C458 C 0.10122 0.27615 0.88168
 C459 C 0.10107 0.31097 0.90981
 C460 C 0.12652 0.34311 0.89727
 C461 C 0.15299 0.33890 0.85810
 C462 C 0.15540 0.30167 0.83315
 C463 C 0.17545 0.37257 0.84480
 N464 N 0.17253 0.40730 0.87001
 N465 N 0.14834 0.41094 0.90724
 C466 C 0.12510 0.38021 0.92157
 H467 H 0.12891 0.24298 0.82557
 H468 H 0.08244 0.25100 0.89074
 H469 H 0.19429 0.37233 0.81382
 H470 H 0.10508 0.38538 0.95117
 C471 C 0.64770 0.73667 0.35976
 C472 C 0.62050 0.74343 0.39650
 C473 C 0.61807 0.78087 0.41926
 C474 C 0.64194 0.81283 0.40314
 C475 C 0.66945 0.80615 0.36541
 C476 C 0.67357 0.76705 0.34493
 C477 C 0.69135 0.83920 0.34910
 N478 N 0.68682 0.87578 0.37030
 N479 N 0.66173 0.88168 0.40644
 C480 C 0.63910 0.85150 0.42355
 H481 H 0.64986 0.70676 0.34435
 H482 H 0.60213 0.71883 0.40837
 H483 H 0.71129 0.83673 0.31909
 H484 H 0.61881 0.85809 0.45259
 C485 C 0.86304 0.73038 0.86142
 C486 C 0.89174 0.72605 0.89704
 C487 C 0.89438 0.69087 0.92468
 C488 C 0.86870 0.65840 0.91398
 C489 C 0.84008 0.66240 0.87669
 C490 C 0.83600 0.69962 0.85161
 C491 C 0.81752 0.62838 0.86498
 N492 N 0.82240 0.59354 0.88984
 N493 N 0.84871 0.59003 0.92517
 C494 C 0.87219 0.62105 0.93784
 H495 H 0.86086 0.75893 0.84269
 H496 H 0.91068 0.75140 0.90470
 H497 H 0.79703 0.62836 0.83546
 H498 H 0.89401 0.61584 0.96573
 C499 C 0.34356 0.19854 0.35627
 C500 C 0.36987 0.18929 0.39330
 C501 C 0.39148 0.21967 0.41510
 C502 C 0.38727 0.26007 0.39879
 C503 C 0.36023 0.26972 0.36132
 C504 C 0.33805 0.23846 0.34001
 C505 C 0.35504 0.31073 0.34831
 N506 N 0.37638 0.33946 0.37039
 N507 N 0.40227 0.33018 0.40494
 C508 C 0.40834 0.29155 0.42001
 H509 H 0.32668 0.17438 0.34073
 H510 H 0.37251 0.15839 0.40599
 H511 H 0.33401 0.32063 0.32136
 H512 H 0.42943 0.28586 0.44856
 C513 C 0.74255 0.84698 0.85672
 C514 C 0.73785 0.87472 0.89318
 C515 C 0.70489 0.87306 0.92414
 C516 C 0.67421 0.84489 0.91530
 C517 C 0.67818 0.81761 0.87691
 C518 C 0.71413 0.81696 0.84923
 C519 C 0.64540 0.79265 0.86709
 N520 N 0.61207 0.79386 0.89495
 N521 N 0.60886 0.81869 0.93157
 C522 C 0.63858 0.84436 0.94253
 H523 H 0.76995 0.84770 0.83582
 H524 H 0.76174 0.89585 0.89924
 H525 H 0.64502 0.77322 0.83672
 H526 H 0.63366 0.86479 0.97175
 C527 C 0.25114 0.37766 0.34447
 C528 C 0.24585 0.40435 0.38190
 C529 C 0.20881 0.40741 0.40573
 C530 C 0.17601 0.38470 0.39006
 C531 C 0.18104 0.35771 0.35175
 C532 C 0.21968 0.35288 0.33009
 C533 C 0.14688 0.33699 0.33636
 N534 N 0.11089 0.34225 0.35902
 N535 N 0.10666 0.36696 0.39574
 C536 C 0.13808 0.38843 0.41185
 H537 H 0.28080 0.37484 0.32831
 H538 H 0.27129 0.42169 0.39352
 H539 H 0.14806 0.31743 0.30601
 C540 C 0.30833 0.18238 0.86128
 C541 C 0.31765 0.15543 0.89757
 C542 C 0.28923 0.12797 0.91333
 C543 C 0.24970 0.12902 0.89324
 C544 C 0.23968 0.15750 0.85717
 C545 C 0.26980 0.18388 0.84036
 C546 C 0.19910 0.15998 0.84136
 N547 N 0.17133 0.13484 0.85916
 N548 N 0.18092 0.10781 0.89233
 C549 C 0.21890 0.10427 0.91024
 H550 H 0.33149 0.20265 0.84973
 H551 H 0.34757 0.15579 0.91333
 H552 H 0.18842 0.18216 0.81612
 H553 H 0.22433 0.08260 0.93818
 C554 C 0.82542 0.63965 0.37217
 C555 C 0.83368 0.61244 0.40870
 C556 C 0.80251 0.59106 0.42943
 C557 C 0.76221 0.59689 0.41297
 C558 C 0.75357 0.62492 0.37618
 C559 C 0.78573 0.64636 0.35541
 C560 C 0.71264 0.63171 0.36321
 N561 N 0.68306 0.61087 0.38451
 N562 N 0.69138 0.58399 0.41830
 C563 C 0.72984 0.57639 0.43338
 H564 H 0.85025 0.65599 0.35716
 H565 H 0.86450 0.60859 0.42151
 H566 H 0.70343 0.65369 0.33702
 H567 H 0.73466 0.55460 0.46137
 C568 C 0.16246 0.70599 0.85125
 C569 C 0.13864 0.69688 0.88984
 C570 C 0.10991 0.72501 0.90703
 C571 C 0.10376 0.76258 0.88361
 C572 C 0.12730 0.77175 0.84327
 C573 C 0.15840 0.74353 0.82811
 C574 C 0.11935 0.80945 0.82113
 N575 N 0.09103 0.83588 0.83882
 N576 N 0.06997 0.82755 0.87724
 C577 C 0.07546 0.79196 0.90031
 H578 H 0.18534 0.68370 0.84028
 H579 H 0.14364 0.66808 0.90752
 H580 H 0.13454 0.81871 0.78983
 H581 H 0.05765 0.78711 0.93152
 C582 C 0.66099 0.17691 0.36559
 C583 C 0.63369 0.17006 0.40187
 C584 C 0.61064 0.20208 0.42135
 C585 C 0.61494 0.24183 0.40383
 C586 C 0.64282 0.24899 0.36700
 C587 C 0.66612 0.21600 0.34768
 C588 C 0.64762 0.28935 0.35258
 N589 N 0.62543 0.31984 0.37281
 N590 N 0.59900 0.31296 0.40693
 C591 C 0.59313 0.27511 0.42328
 H592 H 0.67870 0.15145 0.35173
 H593 H 0.63106 0.13964 0.41553
 H594 H 0.66903 0.29739 0.32602
 H595 H 0.57169 0.27153 0.45155
 C596 C 0.84715 0.29206 0.85574
 C597 C 0.87454 0.29997 0.89166
 C598 C 0.88817 0.26906 0.92221
 C599 C 0.87487 0.22904 0.91531
 C600 C 0.84715 0.22103 0.87874
 C601 C 0.83313 0.25297 0.84894
 C602 C 0.83344 0.18131 0.87420
 N603 N 0.84776 0.15161 0.90328
 N604 N 0.87478 0.15886 0.93668
 C605 C 0.88891 0.19641 0.94362
 H606 H 0.83636 0.31675 0.83344
 H607 H 0.88392 0.33077 0.89680
 H608 H 0.81146 0.17346 0.84803
 H609 H 0.91118 0.20032 0.97099
 C610 C 0.37071 0.76210 0.34673
 C611 C 0.39626 0.76748 0.38493
 C612 C 0.39830 0.80519 0.40683
 C613 C 0.37567 0.83870 0.38834
 C614 C 0.34987 0.83341 0.34903
 C615 C 0.34619 0.79425 0.32930
 C616 C 0.32921 0.86781 0.33050
 N617 N 0.33330 0.90447 0.35100
 N618 N 0.35682 0.90916 0.38850
 C619 C 0.37819 0.87757 0.40782
 H620 H 0.36860 0.73198 0.33218
 H621 H 0.41337 0.74156 0.39882
 H622 H 0.31059 0.86627 0.29938
 H623 H 0.39732 0.88320 0.43783
 C624 C 0.26049 0.87464 0.13082
 C625 C 0.26667 0.90139 0.09396
 C626 C 0.30502 0.90443 0.07366
 C627 C 0.33830 0.88167 0.09232
 C628 C 0.33225 0.85476 0.13042
 C629 C 0.29249 0.85006 0.14847
 C630 C 0.36649 0.83412 0.14948
 N631 N 0.40367 0.83917 0.13041
 N632 N 0.40904 0.86361 0.09386
 C633 C 0.37764 0.88507 0.07419
 H634 H 0.22996 0.87183 0.14420
 H635 H 0.24099 0.91882 0.07995
 H636 H 0.36440 0.81476 0.17992
 H637 H 0.38374 0.90491 0.04494
 C638 C 0.81514 0.31550 0.64736
 C639 C 0.82512 0.34206 0.61129
 C640 C 0.79541 0.36768 0.59097
 C641 C 0.75508 0.36656 0.60712
 C642 C 0.74445 0.33928 0.64320
 C643 C 0.77511 0.31363 0.66391
 C644 C 0.70307 0.33765 0.65534
 N645 N 0.67523 0.36264 0.63397
 N646 N 0.68568 0.38880 0.60085
 C647 C 0.72468 0.39133 0.58660
 H648 H 0.83886 0.29595 0.66222
 H649 H 0.85608 0.34219 0.59863
 H650 H 0.69213 0.31651 0.68080
 C651 C 0.75708 0.12172 0.15374
 C652 C 0.75189 0.09539 0.11623
 C653 C 0.71380 0.09175 0.09527
 C654 C 0.67985 0.11346 0.11402
 C655 C 0.68503 0.14017 0.15235
 C656 C 0.72438 0.14545 0.17111
 C657 C 0.65037 0.16030 0.17091
 N658 N 0.61344 0.15467 0.15146
 N659 N 0.60875 0.13013 0.11496
 C660 C 0.64065 0.10930 0.09562
 H661 H 0.78736 0.12521 0.16757
 H662 H 0.77809 0.07888 0.10222
 H663 H 0.65204 0.17980 0.20122
 H664 H 0.63501 0.08936 0.06642
 C665 C 0.25355 0.65868 0.63551
 C666 C 0.24944 0.63211 0.59811
 C667 C 0.21213 0.62880 0.57536
 C668 C 0.17776 0.65105 0.59206
 C669 C 0.18174 0.67785 0.63050
 C670 C 0.22048 0.68282 0.65111
 C671 C 0.14655 0.69827 0.64728
 N672 N 0.11036 0.69297 0.62589
 N673 N 0.10688 0.66851 0.58911
 C674 C 0.13931 0.64734 0.57148
 H675 H 0.28336 0.66187 0.65083
 H676 H 0.27592 0.61510 0.58561
 H677 H 0.14716 0.71770 0.67772
 H678 H 0.13469 0.62751 0.54190
 C679 C 0.87480 0.73208 0.15822
 C680 C 0.89986 0.72766 0.11917
 C681 C 0.90321 0.69076 0.09525
 C682 C 0.88258 0.65698 0.11268
 C683 C 0.85703 0.66140 0.15259
 C684 C 0.85185 0.69987 0.17429
 C685 C 0.83796 0.62688 0.16965
 N686 N 0.84351 0.59084 0.14745
 N687 N 0.86698 0.58691 0.10959
 C688 C 0.88676 0.61869 0.09150
 H689 H 0.87150 0.76170 0.17422
 H690 H 0.91546 0.75378 0.10623
 H691 H 0.81946 0.62786 0.20095
 H692 H 0.90595 0.61364 0.06114
 C693 C 0.33798 0.20050 0.64323
 C694 C 0.36523 0.19020 0.60749
 C695 C 0.38845 0.21974 0.58627
 C696 C 0.38476 0.26036 0.60174
 C697 C 0.35670 0.27112 0.63773
 C698 C 0.33304 0.24067 0.65867
 C699 C 0.35207 0.31242 0.64959
 N700 N 0.37490 0.34029 0.62800
 N701 N 0.40179 0.32994 0.59497
 C702 C 0.40740 0.29102 0.58098
 H703 H 0.31996 0.17697 0.65839
 H704 H 0.36745 0.15915 0.59539
 H705 H 0.33029 0.32329 0.67513
 H706 H 0.42934 0.28450 0.55359
 C707 C 0.15635 0.32240 0.13720
 C708 C 0.12849 0.32931 0.10095
 C709 C 0.11053 0.29690 0.07836
 C710 C 0.12098 0.25668 0.09219
 C711 C 0.14939 0.24958 0.12890
 C712 C 0.16688 0.28292 0.15186
 C713 C 0.16060 0.20912 0.13986
 N714 N 0.14370 0.17829 0.11636
 N715 N 0.11661 0.18503 0.08234
 C716 C 0.10479 0.22308 0.06934
 H717 H 0.16991 0.34809 0.15390
 H718 H 0.12118 0.36012 0.09007
 H719 H 0.18301 0.20148 0.16625
 H720 H 0.08314 0.22661 0.04098
 C721 C 0.66171 0.79109 0.64690
 C722 C 0.63761 0.79998 0.60790
 C723 C 0.60971 0.77244 0.59166
 C724 C 0.60493 0.73561 0.61629
 C725 C 0.62865 0.72675 0.65714
 C726 C 0.65876 0.75437 0.67155
 C727 C 0.62178 0.68994 0.68061
 N728 N 0.59442 0.66397 0.66365
 N729 N 0.57329 0.67191 0.62476
 C730 C 0.57770 0.70670 0.60044
 H731 H 0.68379 0.81296 0.65717
 H732 H 0.64160 0.82822 0.58933
 H733 H 0.63707 0.68104 0.71240
 H734 H 0.55988 0.71130 0.56890
   
