data_POSCAR
  _audit_creation_date              2014-09-24
  _audit_creation_method            'ToBaCCo'
  _symmetry_space_group_name_H-M    'P1'
  _symmetry_Int_Tables_number       1
  _symmetry_cell_setting            triclinic
  loop_
  _symmetry_equiv_pos_as_xyz
 x,y,z
_cell_length_a 44.4369
_cell_length_b 44.5352
_cell_length_c 44.6340
_cell_angle_alpha 89.803400
_cell_angle_beta 89.976200
_cell_angle_gamma 89.425900
loop_
  _atom_site_label
  _atom_site_type_symbol
  _atom_site_fract_x
  _atom_site_fract_y
  _atom_site_fract_z
C1 C 0.17469 1.21102 0.21567
 C2 C 0.16146 1.23674 0.20280
 C3 C 0.17337 1.24995 0.17652
 C4 C 0.19948 1.23672 0.16382
 C5 C 0.21288 1.21100 0.17647
 C6 C 0.20037 1.19803 0.20241
 C7 C 0.16215 1.19784 0.24137
 C8 C 0.17462 1.17137 0.25411
 C9 C 0.20061 1.15886 0.24052
 C10 C 0.21336 1.17186 0.21488
 C11 C 0.23878 1.15880 0.20132
 C12 C 0.25121 1.17136 0.17522
 C13 C 0.23820 1.19759 0.16305
 H14 H 0.14234 1.24682 0.21407
 H15 H 0.20877 1.24526 0.14310
 H16 H 0.14161 1.20758 0.25023
 H17 H 0.21175 1.13940 0.25017
 H18 H 0.24887 1.13877 0.21106
 H19 H 0.24736 1.20717 0.14267
 C20 C 0.82450 0.78746 0.21628
 C21 C 0.83781 0.76181 0.20352
 C22 C 0.82608 0.74873 0.17720
 C23 C 0.80005 0.76201 0.16433
 C24 C 0.78656 0.78766 0.17685
 C25 C 0.79890 0.80051 0.20284
 C26 C 0.83687 0.80052 0.24201
 C27 C 0.82433 0.82694 0.25462
 C28 C 0.79841 0.83950 0.24086
 C29 C 0.78583 0.82662 0.21518
 C30 C 0.76050 0.83974 0.20146
 C31 C 0.74823 0.82731 0.17531
 C32 C 0.76133 0.80113 0.16326
 H33 H 0.85687 0.75168 0.21493
 H34 H 0.79090 0.75357 0.14357
 H35 H 0.85736 0.79075 0.25100
 H36 H 0.78721 0.85891 0.25042
 H37 H 0.75034 0.85972 0.21109
 H38 H 0.75231 0.79165 0.14285
 C39 C 0.82485 1.21808 -0.21539
 C40 C 0.83789 1.24347 -0.20238
 C41 C 0.82551 1.25641 -0.17640
 C42 C 0.79945 1.24395 -0.16376
 C43 C 0.78612 1.21863 -0.17657
 C44 C 0.79886 1.20564 -0.20249
 C45 C 0.83771 1.20479 -0.24086
 C46 C 0.82528 1.17875 -0.25384
 C47 C 0.79895 1.16683 -0.24070
 C48 C 0.78585 1.17997 -0.21525
 C49 C 0.76034 1.16728 -0.20188
 C50 C 0.74767 1.17989 -0.17586
 C51 C 0.76060 1.20573 -0.16349
 H52 H 0.85780 1.25313 -0.21244
 H53 H 0.79002 1.25345 -0.14346
 H54 H 0.85702 1.21551 -0.25087
 H55 H 0.78926 1.14631 -0.24907
 H56 H 0.75079 1.14709 -0.21128
 H57 H 0.75080 1.21580 -0.14363
 C58 C 0.17675 0.78249 -0.21311
 C59 C 0.16431 0.75694 -0.19967
 C60 C 0.17711 0.74401 -0.17355
 C61 C 0.20334 0.75728 -0.16172
 C62 C 0.21597 0.78283 -0.17497
 C63 C 0.20264 0.79552 -0.20073
 C64 C 0.16318 0.79564 -0.23841
 C65 C 0.17511 0.82172 -0.25147
 C66 C 0.20118 0.83438 -0.23916
 C67 C 0.21498 0.82151 -0.21388
 C68 C 0.24050 0.83462 -0.20112
 C69 C 0.25386 0.82218 -0.17530
 C70 C 0.24158 0.79611 -0.16254
 H71 H 0.14360 0.74835 -0.20890
 H72 H 0.21472 0.74744 -0.14258
 H73 H 0.14329 0.78555 -0.24797
 H74 H 0.21028 0.85475 -0.24879
 H75 H 0.24950 0.85498 -0.21085
 H76 H 0.25194 0.78620 -0.14282
 C77 C 0.54571 1.04295 -0.01365
 H78 H 0.54607 1.04262 0.01059
 C79 C 0.56615 1.06062 -0.02939
 H80 H 0.58226 1.07406 -0.01728
 C81 C 0.52496 1.02509 -0.05912
 H82 H 0.50931 1.01074 -0.07060
 C83 C 0.54505 1.04245 -0.07574
 H84 H 0.54465 1.04161 -0.09999
 N85 N 0.52559 1.02575 -0.02863
 C86 C 0.45394 1.00905 0.03587
 H87 H 0.45376 0.98476 0.03551
 C88 C 0.43302 1.02475 0.05330
 H89 H 0.41671 1.01256 0.06651
 C90 C 0.47486 1.05470 0.01843
 H91 H 0.49079 1.06628 0.00437
 C92 C 0.45430 1.07128 0.03555
 H93 H 0.45463 1.09559 0.03482
 Zn94 Zn 0.50049 1.00083 -0.00527
 N95 N 0.47441 1.02413 0.01903
 C96 C 0.52476 0.97730 0.04911
 N97 N 0.52611 0.97647 0.01865
 C98 C 0.54724 0.95954 0.00423
 C99 C 0.56798 0.94234 0.02054
 C100 C 0.54510 0.96042 0.06628
 C101 C 0.45505 0.99145 -0.04725
 C102 C 0.43474 0.97516 -0.06448
 C103 C 0.45743 0.92925 -0.04576
 C104 C 0.47735 0.94640 -0.02888
 N105 N 0.47584 0.97693 -0.02997
 H106 H 0.50833 0.99144 0.06017
 H107 H 0.54814 0.95973 -0.01999
 H108 H 0.58487 0.92912 0.00889
 H109 H 0.54410 0.96141 0.09051
 H110 H 0.45400 1.01573 -0.04725
 H111 H 0.41804 0.98690 -0.07791
 H112 H 0.45847 0.90496 -0.04449
 H113 H 0.49349 0.93527 -0.01445
 C114 C 0.43317 1.05614 0.05308
 C115 C 0.56588 1.06028 -0.06071
 C116 C 0.43585 0.94378 -0.06360
 C117 C 0.56695 0.94287 0.05185
 C118 C -0.00895 0.54607 1.04331
 H119 H 0.01540 0.54621 1.04327
 C120 C -0.02494 0.56680 1.06067
 H121 H -0.01291 0.58290 1.07416
 C122 C -0.05444 0.52554 1.02506
 H123 H -0.06584 0.50987 1.01068
 C124 C -0.07131 0.54592 1.04209
 H125 H -0.09566 0.54569 1.04099
 N126 N -0.02382 0.52591 1.02607
 C127 C 0.04103 0.45343 1.01088
 H128 H 0.04106 0.45293 0.98664
 C129 C 0.05812 0.43246 1.02701
 H130 H 0.07147 0.41580 1.01521
 C131 C 0.02286 0.47514 1.05594
 H132 H 0.00860 0.49137 1.06712
 C133 C 0.03961 0.45455 1.07294
 H134 H 0.03843 0.45516 1.09718
 Zn135 Zn -0.00015 0.50026 1.00169
 N136 N 0.02396 0.47429 1.02547
 C137 C 0.05470 0.52352 0.97851
 N138 N 0.02411 0.52521 0.97747
 C139 C 0.00973 0.54622 0.96033
 C140 C 0.02622 0.56646 0.94310
 C141 C 0.07205 0.54336 0.96160
 C142 C -0.04234 0.45529 0.99215
 C143 C -0.05972 0.43516 0.97584
 C144 C -0.04057 0.45702 0.93010
 C145 C -0.02354 0.47679 0.94727
 N146 N -0.02480 0.47563 0.97773
 H147 H 0.06572 0.50718 0.99281
 H148 H -0.01460 0.54740 0.96034
 H149 H 0.01459 0.58324 0.92969
 H150 H 0.09638 0.54208 0.96273
 H151 H -0.04249 0.45451 1.01638
 H152 H -0.07340 0.41886 0.98750
 H153 H -0.03920 0.45783 0.90587
 H154 H -0.00891 0.49256 0.93622
 C155 C 0.05732 0.43298 1.05832
 C156 C -0.05639 0.56677 1.05998
 C157 C -0.05872 0.43596 0.94453
 C158 C 0.05766 0.56506 0.94381
 C159 C 1.04043 -0.01035 0.54729
 H160 H 1.04039 0.01394 0.54777
 C161 C 1.05774 -0.02663 0.56790
 H162 H 1.07118 -0.01488 0.58428
 C163 C 1.02222 -0.05539 0.52600
 H164 H 1.00787 -0.06651 0.51007
 C165 C 1.03920 -0.07254 0.54625
 H166 H 1.03808 -0.09682 0.54568
 N167 N 1.02324 -0.02486 0.52681
 C168 C 1.00818 0.04046 0.45525
 H169 H 0.98384 0.04065 0.45455
 C170 C 1.02444 0.05754 0.43468
 H171 H 1.01262 0.07103 0.41812
 C172 C 1.05339 0.02191 0.47705
 H173 H 1.06459 0.00752 0.49315
 C174 C 1.07052 0.03865 0.45685
 H175 H 1.09486 0.03730 0.45764
 Zn176 Zn 0.99883 -0.00087 0.50134
 N177 N 1.02279 0.02321 0.47596
 C178 C 0.97539 0.05386 0.52513
 N179 N 0.97431 0.02333 0.52637
 C180 C 0.95699 0.00901 0.54699
 C181 C 0.93965 0.02547 0.56733
 C182 C 0.95839 0.07119 0.54509
 C183 C 0.98970 -0.04253 0.45580
 C184 C 0.97354 -0.05969 0.43535
 C185 C 0.92735 -0.04060 0.45705
 C186 C 0.94438 -0.02378 0.47713
 N187 N 0.97499 -0.02513 0.47621
 H188 H 0.98984 0.06483 0.50911
 H189 H 0.95698 -0.01528 0.54781
 H190 H 0.92613 0.01388 0.58384
 H191 H 0.95959 0.09546 0.54420
 H192 H 1.01404 -0.04275 0.45522
 H193 H 0.98544 -0.07328 0.41902
 H194 H 0.90301 -0.03920 0.45768
 H195 H 0.93311 -0.00927 0.49298
 C196 C 1.05588 0.05654 0.43543
 C197 C 1.05703 -0.05800 0.56743
 C198 C 0.94209 -0.05863 0.43592
 C199 C 0.94044 0.05684 0.56643
 C200 C 0.16126 0.31983 1.13052
 C201 C 0.13039 0.32466 1.13416
 C202 C 0.11383 0.30531 1.15234
 C203 C 0.12796 0.28101 1.16659
 C204 C 0.15916 0.27535 1.16289
 C205 C 0.17554 0.29553 1.14468
 C206 C 0.11545 0.34890 1.11856
 C207 C 0.10261 0.36880 1.10520
 C208 C 0.08722 0.39163 1.08922
 C209 C 0.07376 0.41071 1.07529
 H210 H 0.17437 0.33485 1.11664
 H211 H 0.08981 0.30868 1.15508
 H212 H 0.11378 0.26595 1.17920
 H213 H 0.19963 0.29339 1.14189
 C214 C -0.16144 0.67911 1.13134
 C215 C -0.13058 0.67430 1.13517
 C216 C -0.11417 0.69355 1.15343
 C217 C -0.12842 0.71776 1.16758
 C218 C -0.15960 0.72341 1.16369
 C219 C -0.17583 0.70332 1.14540
 C220 C -0.11551 0.65017 1.11967
 C221 C -0.10252 0.63039 1.10641
 C222 C -0.08689 0.60772 1.09056
 C223 C -0.07318 0.58880 1.07677
 H224 H -0.17444 0.66417 1.11741
 H225 H -0.09016 0.69019 1.15631
 H226 H -0.11434 0.73275 1.18025
 H227 H -0.19991 0.70546 1.14247
 C228 C -0.11402 0.30665 0.85547
 C229 C -0.13124 0.33014 0.86752
 C230 C -0.16261 0.32991 0.86470
 C231 C -0.17673 0.30613 0.85012
 C232 C -0.15960 0.28226 0.83817
 C233 C -0.12806 0.28288 0.84089
 C234 C -0.11666 0.35399 0.88343
 C235 C -0.10401 0.37350 0.89703
 C236 C -0.08873 0.39580 0.91326
 C237 C -0.07527 0.41437 0.92738
 H238 H -0.08973 0.30652 0.85766
 H239 H -0.17616 0.34800 0.87394
 H240 H -0.20101 0.30644 0.84810
 H241 H -0.11428 0.26463 0.83234
 C242 C 0.15290 0.68984 0.88620
 C243 C 0.13475 0.67040 0.86988
 C244 C 0.13122 0.67471 0.83907
 C245 C 0.14543 0.69861 0.82465
 C246 C 0.16357 0.71891 0.84079
 C247 C 0.16720 0.71375 0.87192
 C248 C 0.11898 0.64669 0.88499
 C249 C 0.10543 0.62728 0.89799
 C250 C 0.08918 0.60508 0.91358
 C251 C 0.07498 0.58658 0.92720
 H252 H 0.15556 0.68687 0.91016
 H253 H 0.11737 0.65962 0.82615
 H254 H 0.14272 0.70037 0.80063
 H255 H 0.17975 0.72892 0.88591
 C256 C 1.12900 0.15995 0.32405
 C257 C 1.13218 0.12901 0.32838
 C258 C 1.14995 0.11219 0.30869
 C259 C 1.16423 0.12610 0.28454
 C260 C 1.16099 0.15736 0.27938
 C261 C 1.14320 0.17401 0.29990
 C262 C 1.11650 0.11429 0.35244
 C263 C 1.10307 0.10159 0.37214
 C264 C 1.08700 0.08631 0.39470
 C265 C 1.07298 0.07292 0.41352
 H266 H 1.11545 0.17325 0.33933
 H267 H 1.15232 0.08812 0.31167
 H268 H 1.17648 0.11175 0.26921
 H269 H 1.14079 0.19813 0.29813
 C270 C 1.16208 -0.13730 0.67480
 C271 C 1.13068 -0.13454 0.67451
 C272 C 1.11380 -0.14653 0.69808
 C273 C 1.12823 -0.16103 0.72197
 C274 C 1.15980 -0.16372 0.72262
 C275 C 1.17658 -0.15180 0.69870
 C276 C 1.11570 -0.11877 0.65049
 C277 C 1.10279 -0.10528 0.63079
 C278 C 1.08727 -0.08916 0.60823
 C279 C 1.07367 -0.07511 0.58938
 H280 H 1.17536 -0.12811 0.65666
 H281 H 1.08949 -0.14439 0.69816
 H282 H 1.11472 -0.16956 0.74025
 H283 H 1.20088 -0.15380 0.69841
 C284 C 0.86955 -0.16190 0.32475
 C285 C 0.86633 -0.13098 0.32897
 C286 C 0.84867 -0.11409 0.30915
 C287 C 0.83452 -0.12791 0.28497
 C288 C 0.83780 -0.15915 0.27992
 C289 C 0.85548 -0.17588 0.30057
 C290 C 0.88189 -0.11634 0.35304
 C291 C 0.89523 -0.10369 0.37275
 C292 C 0.91118 -0.08843 0.39529
 C293 C 0.92511 -0.07504 0.41407
 H294 H 0.88303 -0.17526 0.34013
 H295 H 0.84627 -0.09004 0.31205
 H296 H 0.82236 -0.11350 0.26955
 H297 H 0.85792 -0.19999 0.29888
 C298 C 0.83657 0.13193 0.67712
 C299 C 0.86750 0.13472 0.67255
 C300 C 0.88436 0.15257 0.69180
 C301 C 0.87049 0.16736 0.71574
 C302 C 0.83923 0.16456 0.72112
 C303 C 0.82254 0.14664 0.70106
 C304 C 0.88221 0.11858 0.64870
 C305 C 0.89494 0.10481 0.62917
 C306 C 0.91033 0.08841 0.60680
 C307 C 0.92385 0.07415 0.58815
 H308 H 0.82323 0.11830 0.66218
 H309 H 0.90843 0.15465 0.68864
 H310 H 0.88490 0.17967 0.73074
 H311 H 0.79840 0.14451 0.70301
 C312 C 0.30223 1.11115 0.14228
 C313 C 0.32545 1.12836 0.13014
 C314 C 0.32472 1.15964 0.13315
 C315 C 0.30074 1.17367 0.14806
 C316 C 0.27718 1.15655 0.16015
 C317 C 0.27827 1.12511 0.15718
 C318 C 0.34959 1.11386 0.11407
 C319 C 0.36939 1.10128 0.10040
 C320 C 0.39209 1.08606 0.08416
 C321 C 0.41106 1.07264 0.07009
 H322 H 0.30250 1.08694 0.13995
 H323 H 0.34259 1.17318 0.12386
 H324 H 0.30069 1.19787 0.15026
 H325 H 0.26027 1.11136 0.16584
 C326 C 0.67366 1.13952 -0.16411
 C327 C 0.67309 1.13651 -0.13289
 C328 C 0.69654 1.14818 -0.11572
 C329 C 0.72060 1.16257 -0.12967
 C330 C 0.72155 1.16548 -0.16106
 C331 C 0.69773 1.15391 -0.17813
 C332 C 0.64892 1.12081 -0.11840
 C333 C 0.62915 1.10737 -0.10584
 C334 C 0.60654 1.09130 -0.09063
 C335 C 0.58773 1.07731 -0.07722
 H336 H 0.65561 1.13057 -0.17762
 H337 H 0.69640 1.14584 -0.09155
 H338 H 0.73879 1.17083 -0.11594
 H339 H 0.69766 1.15610 -0.20230
 C340 C 0.30556 0.85459 -0.11630
 C341 C 0.32851 0.86664 -0.13396
 C342 C 0.32741 0.86372 -0.16516
 C343 C 0.30331 0.84899 -0.17865
 C344 C 0.28000 0.83700 -0.16108
 C345 C 0.28148 0.83986 -0.12973
 C346 C 0.35271 0.88263 -0.11998
 C347 C 0.37252 0.89627 -0.10779
 C348 C 0.39515 0.91253 -0.09296
 C349 C 0.41399 0.92665 -0.07984
 H350 H 0.30611 0.85686 -0.09214
 H351 H 0.34507 0.87297 -0.17904
 H352 H 0.30296 0.84687 -0.20281
 H353 H 0.26368 0.83129 -0.11561
 C354 C 0.69744 0.88768 0.14194
 C355 C 0.67431 0.87052 0.12971
 C356 C 0.67501 0.83923 0.13279
 C357 C 0.69889 0.82513 0.14786
 C358 C 0.72237 0.84219 0.16005
 C359 C 0.72130 0.87364 0.15701
 C360 C 0.65027 0.88510 0.11348
 C361 C 0.63054 0.89773 0.09966
 C362 C 0.60792 0.91298 0.08325
 C363 C 0.58902 0.92639 0.06904
 H364 H 0.69719 0.91190 0.13956
 H365 H 0.65720 0.82574 0.12342
 H366 H 0.69892 0.80091 0.15012
 H367 H 0.73925 0.88736 0.16574
   
