data_POSCAR
  _audit_creation_date              2014-09-24
  _audit_creation_method            'ToBaCCo'
  _symmetry_space_group_name_H-M    'P1'
  _symmetry_Int_Tables_number       1
  _symmetry_cell_setting            triclinic
  loop_
  _symmetry_equiv_pos_as_xyz
 x,y,z
_cell_length_a 17.8965
_cell_length_b 17.8965
_cell_length_c 30.5580
_cell_angle_alpha 89.859700
_cell_angle_beta 90.140400
_cell_angle_gamma 90.000300
loop_
  _atom_site_label
  _atom_site_type_symbol
  _atom_site_fract_x
  _atom_site_fract_y
  _atom_site_fract_z
O1 O 0.06120 0.42612 0.95804
 O2 O 0.06131 0.57172 1.04303
 O3 O 0.06131 0.42587 1.04313
 O4 O 0.06120 0.57186 0.95795
 O5 O -0.06238 0.57186 0.95783
 O6 O -0.06225 0.42587 1.04301
 O7 O -0.06226 0.57172 1.04291
 O8 O -0.06238 0.42612 0.95792
 Cu9 Cu 0.07372 0.49889 1.00057
 Cu10 Cu -0.07479 0.49889 1.00042
 C11 C -0.00061 0.40133 0.94376
 C12 C -0.00045 0.59660 1.05714
 C13 C -0.00045 0.40093 1.05729
 C14 C -0.00061 0.59673 0.94365
 O15 O 0.57417 -0.06127 0.54313
 O16 O 0.42818 -0.06115 0.45795
 O17 O 0.57392 -0.06115 0.45804
 O18 O 0.42832 -0.06127 0.54303
 O19 O 0.42832 0.06230 0.54291
 O20 O 0.57392 0.06242 0.45792
 O21 O 0.42818 0.06243 0.45783
 O22 O 0.57417 0.06229 0.54301
 Cu23 Cu 0.50116 -0.07368 0.50057
 Cu24 Cu 0.50116 0.07483 0.50042
 C25 C 0.59911 0.00049 0.55729
 C26 C 0.40331 0.00066 0.44365
 C27 C 0.59871 0.00065 0.44376
 C28 C 0.40345 0.00050 0.55714
 C29 C 0.00014 0.00061 0.24955
 C30 C -0.00057 -0.00009 0.74955
 C31 C -0.00040 -0.34493 0.08917
 C32 C -0.00035 -0.29471 0.11537
 C33 C -0.00028 -0.23469 0.14526
 C34 C -0.00020 -0.18248 0.17009
 C35 C -0.00010 -0.12025 0.19837
 C36 C 0.00000 -0.06617 0.22185
 C37 C -0.00041 0.34554 0.08771
 C38 C -0.00035 0.29537 0.11410
 C39 C -0.00028 0.23545 0.14423
 C40 C -0.00020 0.18334 0.16928
 C41 C -0.00010 0.12123 0.19784
 C42 C 0.00000 0.06727 0.22156
 C43 C 0.34498 0.00045 0.58917
 C44 C 0.29475 0.00039 0.61537
 C45 C 0.23473 0.00032 0.64526
 C46 C 0.18252 0.00024 0.67009
 C47 C 0.12029 0.00014 0.69837
 C48 C 0.06622 0.00004 0.72185
 C49 C -0.34550 0.00045 0.58771
 C50 C -0.29532 0.00039 0.61410
 C51 C -0.23541 0.00032 0.64423
 C52 C -0.18329 0.00024 0.66928
 C53 C -0.12119 0.00014 0.69784
 C54 C -0.06722 0.00004 0.72156
 C55 C -0.00065 -0.34489 0.91141
 C56 C -0.00067 -0.29482 0.88496
 C57 C -0.00068 -0.23501 0.85476
 C58 C -0.00068 -0.18298 0.82966
 C59 C -0.00065 -0.12091 0.80108
 C60 C -0.00062 -0.06691 0.77739
 C61 C -0.00065 0.34317 0.91155
 C62 C -0.00067 0.29330 0.88511
 C63 C -0.00068 0.23377 0.85490
 C64 C -0.00067 0.18198 0.82977
 C65 C -0.00065 0.12020 0.80116
 C66 C -0.00062 0.06644 0.77743
 C67 C -0.34313 0.00069 0.41155
 C68 C -0.29326 0.00071 0.38511
 C69 C -0.23373 0.00072 0.35490
 C70 C -0.18194 0.00072 0.32977
 C71 C -0.12016 0.00069 0.30116
 C72 C -0.06640 0.00066 0.27743
 C73 C 0.34494 0.00070 0.41141
 C74 C 0.29486 0.00072 0.38496
 C75 C 0.23506 0.00072 0.35476
 C76 C 0.18302 0.00072 0.32966
 C77 C 0.12095 0.00070 0.30108
 C78 C 0.06695 0.00066 0.27739
   
