data_POSCAR
  _audit_creation_date              2014-09-24
  _audit_creation_method            'ToBaCCo'
  _symmetry_space_group_name_H-M    'P1'
  _symmetry_Int_Tables_number       1
  _symmetry_cell_setting            triclinic
  loop_
  _symmetry_equiv_pos_as_xyz
 x,y,z
_cell_length_a 44.7210
_cell_length_b 44.7026
_cell_length_c 44.6878
_cell_angle_alpha 89.995100
_cell_angle_beta 89.962900
_cell_angle_gamma 90.007000
loop_
  _atom_site_label
  _atom_site_type_symbol
  _atom_site_fract_x
  _atom_site_fract_y
  _atom_site_fract_z
C1 C 0.20378 0.52285 1.03686
 H2 H 0.20307 0.53997 1.01976
 C3 C 0.18343 0.52360 1.06055
 H4 H 0.16705 0.54143 1.06174
 C5 C 0.22540 0.47819 1.05566
 H6 H 0.24135 0.46021 1.05334
 C7 C 0.20544 0.47807 1.07974
 H8 H 0.20630 0.46010 1.09600
 N9 N 0.22430 0.50047 1.03491
 C10 C 0.29519 0.53615 0.97816
 H11 H 0.29592 0.51902 0.96107
 C12 C 0.31551 0.55984 0.97736
 H13 H 0.33192 0.56107 0.95956
 C14 C 0.27355 0.55502 1.02281
 H15 H 0.25759 0.55274 1.04082
 C16 C 0.29350 0.57910 1.02286
 H17 H 0.29268 0.59541 1.04076
 Zn18 Zn 0.24949 0.50021 1.00087
 N19 N 0.27466 0.53424 1.00057
 C20 C 0.22546 0.52215 0.94603
 N21 N 0.22432 0.49992 0.96684
 C22 C 0.20381 0.47752 0.96492
 C23 C 0.18355 0.47669 0.94118
 C24 C 0.20557 0.52217 0.92192
 C25 C 0.29518 0.46425 1.02352
 C26 C 0.31550 0.44056 1.02426
 C27 C 0.29351 0.42137 0.97875
 C28 C 0.27356 0.44544 0.97885
 N29 N 0.27467 0.46619 1.00112
 H30 H 0.24140 0.54015 0.94832
 H31 H 0.20307 0.46043 0.98205
 H32 H 0.16717 0.45888 0.93994
 H33 H 0.20641 0.54006 0.90558
 H34 H 0.29590 0.48135 1.04063
 H35 H 0.33190 0.43931 1.04205
 H36 H 0.29270 0.40508 0.96082
 H37 H 0.25763 0.44775 0.96086
 C38 C 0.31470 0.58145 0.99996
 C39 C 0.18421 0.50095 1.08215
 C40 C 0.31470 0.41898 1.00163
 C41 C 0.18440 0.49926 0.91954
 C42 C 0.79561 0.52293 -0.03550
 H43 H 0.79638 0.53998 -0.01834
 C44 C 0.81591 0.52373 -0.05923
 H45 H 0.83235 0.54149 -0.06045
 C46 C 0.77388 0.47837 -0.05443
 H47 H 0.75791 0.46040 -0.05215
 C48 C 0.79380 0.47832 -0.07854
 H49 H 0.79294 0.46045 -0.09489
 N50 N 0.77505 0.50057 -0.03360
 C51 C 0.70431 0.53618 0.02335
 H52 H 0.70358 0.51902 0.04042
 C53 C 0.68400 0.55988 0.02421
 H54 H 0.66761 0.56108 0.04204
 C55 C 0.72590 0.55511 -0.02130
 H56 H 0.74183 0.55284 -0.03934
 C57 C 0.70597 0.57919 -0.02129
 H58 H 0.70677 0.59553 -0.03918
 Zn59 Zn 0.74991 0.50022 0.00048
 N60 N 0.72480 0.53429 0.00091
 C61 C 0.77409 0.52194 0.05533
 N62 N 0.77513 0.49977 0.03446
 C63 C 0.79560 0.47733 0.03626
 C64 C 0.81595 0.47641 0.05991
 C65 C 0.79407 0.52187 0.07937
 C66 C 0.70413 0.46445 -0.02226
 C67 C 0.68379 0.44078 -0.02311
 C68 C 0.70581 0.42132 0.02227
 C69 C 0.72578 0.44538 0.02229
 N70 N 0.72467 0.46625 0.00012
 H71 H 0.75818 0.53997 0.05314
 H72 H 0.79627 0.46029 0.01907
 H73 H 0.83232 0.45858 0.06105
 H74 H 0.79332 0.53971 0.09576
 H75 H 0.70341 0.48164 -0.03929
 H76 H 0.66737 0.43963 -0.04090
 H77 H 0.70662 0.40493 0.04011
 H78 H 0.74174 0.44758 0.04027
 C79 C 0.68480 0.58152 0.00164
 C80 C 0.81504 0.50117 -0.08089
 C81 C 0.68460 0.41907 -0.00060
 C82 C 0.81522 0.49893 0.08161
 C83 C -0.02261 0.29618 0.46333
 H84 H -0.03969 0.29689 0.48047
 C85 C -0.02342 0.31652 0.43964
 H86 H -0.04125 0.33290 0.43849
 C87 C 0.02200 0.27456 0.44441
 H88 H 0.03999 0.25861 0.44669
 C89 C 0.02207 0.29451 0.42033
 H90 H 0.04000 0.29365 0.40403
 N91 N -0.00022 0.27566 0.46522
 C92 C -0.03574 0.20470 0.52200
 H93 H -0.01858 0.20397 0.53904
 C94 C -0.05943 0.18438 0.52285
 H95 H -0.06061 0.16796 0.54065
 C96 C -0.05473 0.22638 0.47743
 H97 H -0.05249 0.24235 0.45943
 C98 C -0.07879 0.20643 0.47744
 H99 H -0.09515 0.20725 0.45959
 Zn100 Zn 0.00011 0.25046 0.49925
 N101 N -0.03389 0.22525 0.49960
 C102 C -0.02177 0.27445 0.55414
 N103 N 0.00043 0.27562 0.53330
 C104 C 0.02282 0.29615 0.53521
 C105 C 0.02364 0.31641 0.55897
 C106 C -0.02179 0.29434 0.57827
 C107 C 0.03602 0.20475 0.47647
 C108 C 0.05970 0.18444 0.47565
 C109 C 0.07898 0.20645 0.52111
 C110 C 0.05492 0.22639 0.52110
 N111 N 0.03412 0.22528 0.49888
 H112 H -0.03975 0.25850 0.55185
 H113 H 0.03988 0.29692 0.51805
 H114 H 0.04143 0.33282 0.56020
 H115 H -0.03965 0.29347 0.59463
 H116 H 0.01888 0.20403 0.45941
 H117 H 0.06092 0.16803 0.45784
 H118 H 0.09531 0.20726 0.53899
 H119 H 0.05265 0.24234 0.53910
 C120 C -0.08110 0.18521 0.50033
 C121 C -0.00082 0.31573 0.41798
 C122 C 0.08133 0.18525 0.49821
 C123 C 0.00109 0.31553 0.58064
 C124 C 0.97725 0.70422 0.53575
 H125 H 0.96023 0.70345 0.51858
 C126 C 0.97641 0.68393 0.55949
 H127 H 0.95863 0.66751 0.56071
 C128 C 1.02180 0.72593 0.55470
 H129 H 1.03978 0.74189 0.55243
 C130 C 1.02179 0.70602 0.57882
 H131 H 1.03964 0.70687 0.59518
 N132 N 0.99963 0.72476 0.53386
 C133 C 0.96419 0.79554 0.47689
 H134 H 0.98137 0.79625 0.45985
 C135 C 0.94050 0.81586 0.47599
 H136 H 0.93934 0.83225 0.45817
 C137 C 0.94515 0.77396 0.52151
 H138 H 0.94737 0.75804 0.53954
 C139 C 0.92109 0.79391 0.52146
 H140 H 0.90471 0.79312 0.53932
 Zn141 Zn 1.00004 0.74989 0.49978
 N142 N 0.96602 0.77505 0.49933
 C143 C 0.97834 0.72571 0.44493
 N144 N 1.00049 0.72465 0.46580
 C145 C 1.02290 0.70414 0.46399
 C146 C 1.02379 0.68378 0.44032
 C147 C 0.97839 0.70572 0.42089
 C148 C 1.03580 0.79568 0.52254
 C149 C 1.05947 0.81601 0.52341
 C150 C 1.07897 0.79394 0.47805
 C151 C 1.05491 0.77397 0.47802
 N152 N 1.03402 0.77511 0.50017
 H153 H 0.96033 0.74165 0.44714
 H154 H 1.03992 0.70346 0.48117
 H155 H 1.04159 0.66738 0.43917
 H156 H 0.96055 0.70649 0.40451
 H157 H 1.01859 0.79642 0.53956
 H158 H 1.06060 0.83245 0.54119
 H159 H 1.09538 0.79310 0.46022
 H160 H 1.05273 0.75799 0.46004
 C161 C 0.91882 0.81508 0.49853
 C162 C 0.99893 0.68480 0.58116
 C163 C 1.08120 0.81517 0.50092
 C164 C 1.00129 0.68454 0.41863
 C165 C 0.46420 -0.02340 0.29524
 H166 H 0.48134 -0.04045 0.29598
 C167 C 0.44050 -0.02421 0.31557
 H168 H 0.43929 -0.04200 0.33200
 C169 C 0.44527 0.02119 0.27356
 H170 H 0.44754 0.03918 0.25760
 C171 C 0.42120 0.02122 0.29352
 H172 H 0.40486 0.03909 0.29270
 N173 N 0.46609 -0.00101 0.27469
 C174 C 0.52288 -0.03656 0.20377
 H175 H 0.53994 -0.01941 0.20305
 C176 C 0.52371 -0.06025 0.18343
 H177 H 0.54154 -0.06139 0.16703
 C178 C 0.47828 -0.05549 0.22544
 H179 H 0.46029 -0.05322 0.24140
 C180 C 0.47824 -0.07956 0.20548
 H181 H 0.46032 -0.09587 0.20636
 Zn182 Zn 0.50010 -0.00065 0.24949
 N183 N 0.50048 -0.03468 0.22431
 C184 C 0.55498 -0.02238 0.27356
 N185 N 0.53410 -0.00024 0.27469
 C186 C 0.53591 0.02217 0.29521
 C187 C 0.55959 0.02308 0.31552
 C188 C 0.57905 -0.02231 0.29349
 C189 C 0.47736 0.03524 0.20376
 C190 C 0.47650 0.05897 0.18347
 C191 C 0.52188 0.07834 0.20552
 C192 C 0.52190 0.05423 0.22543
 N193 N 0.49974 0.03337 0.22429
 H194 H 0.55277 -0.04038 0.25760
 H195 H 0.51871 0.03918 0.29595
 H196 H 0.56075 0.04088 0.33192
 H197 H 0.59544 -0.04013 0.29267
 H198 H 0.46033 0.01806 0.20301
 H199 H 0.45871 0.06017 0.16707
 H200 H 0.53972 0.09472 0.20637
 H201 H 0.53989 0.05198 0.24139
 C202 C 0.50113 -0.08191 0.18424
 C203 C 0.41886 -0.00166 0.31474
 C204 C 0.49900 0.08066 0.18433
 C205 C 0.58131 0.00059 0.31469
 C206 C 0.53598 -0.02290 0.70422
 H207 H 0.51883 -0.03996 0.70350
 C208 C 0.55968 -0.02375 0.68390
 H209 H 0.56090 -0.04156 0.66750
 C210 C 0.55490 0.02172 0.72583
 H211 H 0.55263 0.03973 0.74176
 C212 C 0.57898 0.02171 0.70588
 H213 H 0.59532 0.03959 0.70668
 N214 N 0.53408 -0.00048 0.72472
 C215 C 0.47721 -0.03592 0.79566
 H216 H 0.46017 -0.01876 0.79635
 C217 C 0.47634 -0.05959 0.81602
 H218 H 0.45854 -0.06076 0.83243
 C219 C 0.52181 -0.05491 0.77406
 H220 H 0.53982 -0.05268 0.75811
 C221 C 0.52179 -0.07896 0.79405
 H222 H 0.53965 -0.09531 0.79327
 Zn223 Zn 0.50004 -0.00009 0.74990
 N224 N 0.49962 -0.03408 0.77513
 C225 C 0.44519 -0.02187 0.72583
 N226 N 0.46607 0.00028 0.72468
 C227 C 0.46426 0.02266 0.70412
 C228 C 0.44057 0.02353 0.68381
 C229 C 0.42113 -0.02184 0.70589
 C230 C 0.52274 0.03588 0.79560
 C231 C 0.52354 0.05961 0.81588
 C232 C 0.47815 0.07890 0.79379
 C233 C 0.47819 0.05479 0.77388
 N234 N 0.50038 0.03397 0.77505
 H235 H 0.44740 -0.03985 0.74181
 H236 H 0.48145 0.03968 0.70337
 H237 H 0.43942 0.04132 0.66738
 H238 H 0.40473 -0.03966 0.70674
 H239 H 0.53979 0.01873 0.79637
 H240 H 0.54130 0.06084 0.83231
 H241 H 0.46028 0.09524 0.79293
 H242 H 0.46022 0.05250 0.75791
 C243 C 0.49888 -0.08125 0.81525
 C244 C 0.58133 -0.00120 0.68470
 C245 C 0.50100 0.08126 0.81501
 C246 C 0.41886 0.00104 0.68467
 Si247 Si 0.24999 0.00018 0.49981
 Si248 Si 0.75015 0.00016 0.49957
 Si249 Si 0.49966 0.25022 0.99992
 Si250 Si 0.49974 0.75021 0.00061
 Si251 Si 1.00051 0.49929 0.25000
 Si252 Si 0.00002 0.49992 0.75018
 C253 C 0.15363 0.07346 0.49983
 C254 C 0.15076 0.09822 0.52387
 C255 C 0.14750 0.12155 0.49884
 C256 C 0.15007 0.09712 0.47480
 C257 C 0.18761 0.07852 0.49922
 C258 C 0.18438 0.10184 0.47417
 C259 C 0.18507 0.10294 0.52328
 C260 C 0.18147 0.12668 0.49823
 C261 C 0.12456 0.14493 0.49862
 C262 C 0.10512 0.16359 0.49844
 C263 C 0.20920 0.05390 0.49942
 C264 C 0.22613 0.03295 0.49958
 H265 H 0.14242 0.05132 0.50049
 H266 H 0.13668 0.09697 0.54430
 H267 H 0.13543 0.09497 0.45486
 H268 H 0.19847 0.10305 0.45374
 H269 H 0.19973 0.10505 0.54321
 H270 H 0.19265 0.14884 0.49756
 C271 C 0.60179 0.68461 -0.02382
 C272 C 0.62618 0.68167 0.00066
 C273 C 0.62108 0.64768 0.00109
 C274 C 0.59709 0.65028 -0.02337
 C275 C 0.57803 0.68777 0.00082
 C276 C 0.57299 0.65377 0.00125
 C277 C 0.60200 0.68520 0.02530
 C278 C 0.59730 0.65086 0.02571
 C279 C 0.64446 0.62474 0.00127
 C280 C 0.66314 0.60531 0.00143
 C281 C 0.55341 0.70935 0.00069
 C282 C 0.53247 0.72630 0.00063
 H283 H 0.60336 0.69875 -0.04419
 H284 H 0.64834 0.69287 0.00042
 H285 H 0.59532 0.63567 -0.04338
 H286 H 0.55086 0.64253 0.00149
 H287 H 0.60373 0.69981 0.04530
 H288 H 0.59569 0.63673 0.04608
 C289 C 0.81629 -0.10111 0.47389
 C290 C 0.85059 -0.09642 0.47521
 C291 C 0.85267 -0.12119 0.49896
 C292 C 0.81872 -0.12628 0.49765
 C293 C 0.81259 -0.07814 0.49920
 C294 C 0.81464 -0.10289 0.52296
 C295 C 0.84655 -0.07311 0.50050
 C296 C 0.84895 -0.09820 0.52424
 C297 C 0.87561 -0.14458 0.49881
 C298 C 0.89503 -0.16325 0.49869
 C299 C 0.79101 -0.05351 0.49933
 C300 C 0.77407 -0.03257 0.49943
 H301 H 0.80261 -0.10202 0.45320
 H302 H 0.86562 -0.09401 0.45558
 H303 H 0.80755 -0.14842 0.49648
 H304 H 0.79960 -0.10526 0.54259
 H305 H 0.85776 -0.05099 0.50167
 H306 H 0.86263 -0.09726 0.54494
 C307 C 0.39800 0.31580 1.02538
 C308 C 0.40273 0.35013 1.02489
 C309 C 0.37837 0.35278 1.00081
 C310 C 0.37323 0.31880 1.00129
 C311 C 0.42137 0.31265 1.00036
 C312 C 0.39703 0.31527 0.97626
 C313 C 0.42644 0.34664 0.99989
 C314 C 0.40175 0.34960 0.97581
 C315 C 0.35501 0.37574 1.00108
 C316 C 0.33635 0.39518 1.00133
 C317 C 0.44598 0.29105 1.00015
 C318 C 0.46691 0.27410 1.00002
 H319 H 0.39674 0.30165 1.04575
 H320 H 0.40483 0.36472 1.04488
 H321 H 0.35107 0.30762 1.00187
 H322 H 0.39496 0.30067 0.95628
 H323 H 0.44858 0.35786 0.99931
 H324 H 0.40305 0.36375 0.95543
 C325 C 0.81628 0.10150 0.52507
 C326 C 0.85058 0.09679 0.52372
 C327 C 0.85269 0.12153 0.49994
 C328 C 0.81874 0.12664 0.50127
 C329 C 0.81257 0.07851 0.49980
 C330 C 0.81465 0.10322 0.47600
 C331 C 0.84653 0.07346 0.49847
 C332 C 0.84895 0.09851 0.47469
 C333 C 0.87565 0.14490 0.50005
 C334 C 0.89510 0.16356 0.50016
 C335 C 0.79097 0.05388 0.49972
 C336 C 0.77403 0.03294 0.49966
 H337 H 0.80259 0.10245 0.54577
 H338 H 0.86560 0.09440 0.54334
 H339 H 0.80759 0.14880 0.50242
 H340 H 0.79962 0.10558 0.45638
 H341 H 0.85772 0.05132 0.49732
 H342 H 0.86264 0.09753 0.45398
 C343 C 0.39746 0.68512 -0.02383
 C344 C 0.40217 0.65079 -0.02415
 C345 C 0.37839 0.64766 0.00048
 C346 C 0.37327 0.68164 0.00082
 C347 C 0.42142 0.68777 0.00064
 C348 C 0.39767 0.68466 0.02529
 C349 C 0.42647 0.65378 0.00030
 C350 C 0.40238 0.65033 0.02493
 C351 C 0.35501 0.62470 0.00035
 C352 C 0.33635 0.60526 0.00019
 C353 C 0.44605 0.70937 0.00069
 C354 C 0.46698 0.72631 0.00069
 H355 H 0.39571 0.69969 -0.04387
 H356 H 0.40377 0.63661 -0.04449
 H357 H 0.35112 0.69283 0.00104
 H358 H 0.39610 0.69885 0.04562
 H359 H 0.44861 0.64255 0.00008
 H360 H 0.40416 0.63577 0.04498
 C361 C 0.15353 -0.07303 0.49955
 C362 C 0.15074 -0.09777 0.47548
 C363 C 0.14738 -0.12112 0.50049
 C364 C 0.14985 -0.09671 0.52455
 C365 C 0.18750 -0.07810 0.50026
 C366 C 0.18416 -0.10143 0.52528
 C367 C 0.18506 -0.10249 0.47617
 C368 C 0.18134 -0.12625 0.50120
 C369 C 0.12443 -0.14450 0.50062
 C370 C 0.10499 -0.16317 0.50075
 C371 C 0.20910 -0.05348 0.50013
 C372 C 0.22606 -0.03256 0.50001
 H373 H 0.14232 -0.05088 0.49887
 H374 H 0.13675 -0.09651 0.45501
 H375 H 0.13512 -0.09457 0.54445
 H376 H 0.19816 -0.10266 0.54575
 H377 H 0.19980 -0.10459 0.45629
 H378 H 0.19251 -0.14842 0.50187
 C379 C 0.57285 0.34670 1.00083
 C380 C 0.59763 0.34936 1.02484
 C381 C 0.62091 0.35286 0.99978
 C382 C 0.59645 0.35052 0.97578
 C383 C 0.57792 0.31272 0.99990
 C384 C 0.60118 0.31620 0.97483
 C385 C 0.60236 0.31504 1.02393
 C386 C 0.62605 0.31889 0.99886
 C387 C 0.64428 0.37583 0.99969
 C388 C 0.66294 0.39527 0.99957
 C389 C 0.55331 0.29111 0.99994
 C390 C 0.53239 0.27414 0.99995
 H391 H 0.55071 0.35790 1.00164
 H392 H 0.59642 0.36325 1.04540
 H393 H 0.59427 0.36536 0.95598
 H394 H 0.60236 0.30230 0.95428
 H395 H 0.60450 0.30019 1.04372
 H396 H 0.64820 0.30773 0.99805
 C397 C 0.49977 0.15350 1.07279
 C398 C 0.52411 0.15028 1.09718
 C399 C 0.49939 0.14713 1.12087
 C400 C 0.47506 0.15003 1.09680
 C401 C 0.49956 0.18747 1.07802
 C402 C 0.47483 0.18434 1.10169
 C403 C 0.52392 0.18459 1.10208
 C404 C 0.49918 0.18109 1.12617
 C405 C 0.49928 0.12407 1.14415
 C406 C 0.49916 0.10454 1.16275
 C407 C 0.49963 0.20918 1.05349
 C408 C 0.49966 0.22621 1.03261
 H409 H 0.50001 0.14238 1.05058
 H410 H 0.54437 0.13602 1.09557
 H411 H 0.45497 0.13557 1.09487
 H412 H 0.45457 0.19861 1.10327
 H413 H 0.54400 0.19906 1.10396
 H414 H 0.49894 0.19216 1.14840
 C415 C -0.02496 0.60186 0.68473
 C416 C -0.00063 0.62638 0.68148
 C417 C -0.00050 0.62120 0.64749
 C418 C -0.02481 0.59709 0.65039
 C419 C -0.00020 0.57822 0.68769
 C420 C -0.00007 0.57311 0.65369
 C421 C 0.02413 0.60231 0.68481
 C422 C 0.02424 0.59754 0.65047
 C423 C -0.00069 0.64454 0.62449
 C424 C -0.00086 0.66318 0.60501
 C425 C -0.00007 0.55362 0.70932
 C426 C 0.00000 0.53268 0.72628
 H427 H -0.04517 0.60335 0.69907
 H428 H -0.00086 0.64856 0.69263
 H429 H -0.04494 0.59518 0.63598
 H430 H 0.00016 0.55094 0.64249
 H431 H 0.04425 0.60418 0.69923
 H432 H 0.04446 0.59602 0.63614
 C433 C 0.52384 0.81523 -0.10202
 C434 C 0.49903 0.81863 -0.12602
 C435 C 0.49935 0.85263 -0.12093
 C436 C 0.52413 0.84957 -0.09734
 C437 C 0.49956 0.81255 -0.07783
 C438 C 0.49987 0.84655 -0.07281
 C439 C 0.47475 0.81559 -0.10140
 C440 C 0.47508 0.84993 -0.09672
 C441 C 0.49920 0.87556 -0.14434
 C442 C 0.49906 0.89498 -0.16305
 C443 C 0.49966 0.79098 -0.05317
 C444 C 0.49971 0.77406 -0.03220
 H445 H 0.54388 0.80070 -0.10391
 H446 H 0.49868 0.80743 -0.14818
 H447 H 0.54443 0.86379 -0.09591
 H448 H 0.50022 0.85780 -0.05066
 H449 H 0.45446 0.80136 -0.10279
 H450 H 0.45504 0.86444 -0.09479
 C451 C 1.02321 0.39558 0.31401
 C452 C 1.02574 0.40031 0.34827
 C453 C 0.99987 0.37817 0.35289
 C454 C 0.99732 0.37303 0.31899
 C455 C 1.00023 0.42108 0.31262
 C456 C 0.97434 0.39896 0.31723
 C457 C 1.00278 0.42615 0.34653
 C458 C 0.97691 0.40369 0.35147
 C459 C 0.99964 0.35486 0.37593
 C460 C 0.99943 0.33624 0.39543
 C461 C 1.00039 0.44565 0.29095
 C462 C 1.00048 0.46656 0.27395
 H463 H 1.04225 0.39253 0.29835
 H464 H 1.04687 0.40062 0.36129
 H465 H 0.99507 0.35091 0.30794
 H466 H 0.95321 0.39868 0.30420
 H467 H 1.00503 0.44826 0.35762
 H468 H 0.95787 0.40678 0.36712
 C469 C 0.49958 0.84682 0.07367
 C470 C 0.47550 0.84980 0.09838
 C471 C 0.50046 0.85307 0.12176
 C472 C 0.52454 0.85039 0.09737
 C473 C 0.50009 0.81284 0.07881
 C474 C 0.52507 0.81608 0.10218
 C475 C 0.47599 0.81548 0.10318
 C476 C 0.50097 0.81909 0.12697
 C477 C 0.50069 0.87608 0.14509
 C478 C 0.50089 0.89557 0.16372
 C479 C 0.49991 0.79118 0.05423
 C480 C 0.49981 0.77418 0.03333
 H481 H 0.49901 0.85798 0.05149
 H482 H 0.45512 0.86392 0.09706
 H483 H 0.54450 0.86500 0.09522
 H484 H 0.54544 0.80195 0.10346
 H485 H 0.45603 0.80086 0.10529
 H486 H 0.50154 0.80797 0.14917
 C487 C 0.02510 0.39823 0.68432
 C488 C 0.00083 0.37365 0.68111
 C489 C 0.00056 0.37895 0.64714
 C490 C 0.02481 0.40312 0.65000
 C491 C 0.00029 0.42178 0.68748
 C492 C 0.00002 0.42701 0.65350
 C493 C -0.02399 0.39763 0.68465
 C494 C -0.02424 0.40252 0.65033
 C495 C 0.00073 0.35568 0.62406
 C496 C 0.00089 0.33710 0.60453
 C497 C 0.00017 0.44632 0.70919
 C498 C 0.00009 0.46720 0.72621
 H499 H 0.04538 0.39674 0.69856
 H500 H 0.00116 0.35143 0.69219
 H501 H 0.04488 0.40513 0.63550
 H502 H -0.00031 0.44922 0.64238
 H503 H -0.04404 0.39566 0.69917
 H504 H -0.04452 0.40405 0.63610
 C505 C 0.50018 0.15381 0.92669
 C506 C 0.47573 0.15038 0.90244
 C507 C 0.50033 0.14759 0.87859
 C508 C 0.52478 0.15071 0.90252
 C509 C 0.49997 0.18779 0.92156
 C510 C 0.52459 0.18503 0.89773
 C511 C 0.47550 0.18471 0.89765
 C512 C 0.50012 0.18157 0.87339
 C513 C 0.50055 0.12459 0.85526
 C514 C 0.50075 0.10510 0.83663
 C515 C 0.49981 0.20942 0.94617
 C516 C 0.49972 0.22637 0.96711
 H517 H 0.50021 0.14262 0.94888
 H518 H 0.45565 0.13588 0.90414
 H519 H 0.54505 0.13647 0.90428
 H520 H 0.54467 0.19954 0.89607
 H521 H 0.45524 0.19895 0.89593
 H522 H 0.50010 0.19271 0.85119
 C523 C 1.02526 0.60152 0.31515
 C524 C 1.00074 0.62583 0.31850
 C525 C 1.00089 0.62073 0.35251
 C526 C 1.02539 0.59683 0.34950
 C527 C 1.00070 0.57765 0.31242
 C528 C 1.00084 0.57263 0.34643
 C529 C 0.97617 0.60154 0.31539
 C530 C 0.97634 0.59685 0.34975
 C531 C 1.00101 0.64414 0.37544
 C532 C 1.00113 0.66284 0.39486
 C533 C 1.00061 0.55301 0.29084
 C534 C 1.00055 0.53206 0.27390
 H535 H 1.04537 0.60316 0.30067
 H536 H 1.00071 0.64798 0.30729
 H537 H 1.04562 0.59514 0.36378
 H538 H 1.00087 0.55048 0.35769
 H539 H 0.95594 0.60319 0.30111
 H540 H 0.95622 0.59517 0.36422
 C541 C 1.11093 0.48920 0.19329
 C542 C 1.11038 0.47188 0.16323
 C543 C 1.12171 0.50009 0.14718
 C544 C 1.12266 0.51743 0.17685
 C545 C 1.07874 0.49964 0.18739
 C546 C 1.09007 0.52784 0.17133
 C547 C 1.07784 0.48233 0.15770
 C548 C 1.08951 0.51052 0.14135
 C549 C 1.14505 0.50038 0.12417
 C550 C 1.16369 0.50064 0.10468
 C551 C 1.05415 0.49944 0.20904
 C552 C 1.03323 0.49933 0.22603
 H553 H 1.11944 0.48043 0.21491
 H554 H 1.11900 0.44887 0.15963
 H555 H 1.14137 0.53187 0.18446
 H556 H 1.08145 0.55085 0.17492
 H557 H 1.05914 0.46789 0.15007
 H558 H 1.08094 0.51929 0.11975
 C559 C 0.65373 0.00046 0.57288
 C560 C 0.65003 -0.02461 0.59648
 C561 C 0.64756 -0.00063 0.62098
 C562 C 0.65094 0.02444 0.59770
 C563 C 0.68770 -0.00030 0.57794
 C564 C 0.68526 0.02371 0.60242
 C565 C 0.68433 -0.02538 0.60120
 C566 C 0.68152 -0.00139 0.62611
 C567 C 0.62459 -0.00082 0.64436
 C568 C 0.60514 -0.00099 0.66303
 C569 C 0.70930 -0.00012 0.55330
 C570 C 0.72626 0.00000 0.53235
 H571 H 0.64253 0.00123 0.55072
 H572 H 0.63529 -0.04447 0.59428
 H573 H 0.63696 0.04493 0.59651
 H574 H 0.70000 0.04356 0.60458
 H575 H 0.69832 -0.04586 0.60235
 H576 H 0.69267 -0.00215 0.64828
 C577 C -0.07324 0.50011 0.84664
 C578 C -0.09724 0.52483 0.84987
 C579 C -0.12131 0.50048 0.85281
 C580 C -0.09763 0.47576 0.84989
 C581 C -0.07831 0.50014 0.81264
 C582 C -0.10236 0.47577 0.81555
 C583 C -0.10198 0.52488 0.81553
 C584 C -0.12645 0.50051 0.81882
 C585 C -0.14467 0.50071 0.87580
 C586 C -0.16332 0.50091 0.89527
 C587 C -0.05369 0.49999 0.79102
 C588 C -0.03275 0.49992 0.77407
 H589 H -0.05109 0.49994 0.85785
 H590 H -0.09538 0.54501 0.86424
 H591 H -0.09609 0.45557 0.86427
 H592 H -0.10418 0.45560 0.80117
 H593 H -0.10348 0.54507 0.80115
 H594 H -0.14862 0.50068 0.80765
 C595 C 0.34645 0.00046 0.42655
 C596 C 0.35028 -0.02477 0.40315
 C597 C 0.35264 -0.00096 0.37846
 C598 C 0.34912 0.02427 0.40155
 C599 C 0.31248 -0.00051 0.42149
 C600 C 0.31481 0.02332 0.39682
 C601 C 0.31598 -0.02575 0.39842
 C602 C 0.31868 -0.00193 0.37333
 C603 C 0.37561 -0.00121 0.35508
 C604 C 0.39506 -0.00142 0.33641
 C605 C 0.29087 -0.00027 0.44611
 C606 C 0.27391 -0.00008 0.46705
 H607 H 0.35763 0.00145 0.44870
 H608 H 0.36511 -0.04454 0.40550
 H609 H 0.36300 0.04483 0.40258
 H610 H 0.29997 0.04308 0.39451
 H611 H 0.30209 -0.04631 0.39742
 H612 H 0.30754 -0.00292 0.35117
 C613 C 0.07293 0.50006 0.84681
 C614 C 0.09691 0.47535 0.85024
 C615 C 0.12098 0.49970 0.85311
 C616 C 0.09732 0.52442 0.84999
 C617 C 0.07813 0.49985 0.81282
 C618 C 0.10218 0.52422 0.81566
 C619 C 0.10177 0.47511 0.81591
 C620 C 0.12625 0.49949 0.81913
 C621 C 0.14425 0.49959 0.87615
 C622 C 0.16284 0.49946 0.89567
 C623 C 0.05359 0.49990 0.79114
 C624 C 0.03272 0.49992 0.77413
 H625 H 0.05074 0.50030 0.85796
 H626 H 0.09498 0.45525 0.86471
 H627 H 0.09573 0.54469 0.86425
 H628 H 0.10407 0.54431 0.80118
 H629 H 0.10333 0.45485 0.80164
 H630 H 0.14846 0.49925 0.80802
 C631 C 0.65373 -0.00083 0.42640
 C632 C 0.64976 0.02428 0.40290
 C633 C 0.64755 0.00037 0.37831
 C634 C 0.65120 -0.02475 0.40149
 C635 C 0.68769 0.00031 0.42130
 C636 C 0.68550 -0.02362 0.39673
 C637 C 0.68406 0.02545 0.39814
 C638 C 0.68150 0.00152 0.37314
 C639 C 0.62458 0.00042 0.35496
 C640 C 0.60512 0.00048 0.33631
 C641 C 0.70929 0.00028 0.44591
 C642 C 0.72625 0.00025 0.46683
 H643 H 0.64254 -0.00180 0.44856
 H644 H 0.63482 0.04398 0.40519
 H645 H 0.63744 -0.04539 0.40262
 H646 H 0.70046 -0.04331 0.39448
 H647 H 0.69783 0.04608 0.39704
 H648 H 0.69264 0.00248 0.35096
 C649 C 0.89810 0.52368 0.18502
 C650 C 0.90275 0.52389 0.15066
 C651 C 0.87903 0.49920 0.14768
 C652 C 0.87397 0.49898 0.18169
 C653 C 0.92213 0.49927 0.18770
 C654 C 0.89843 0.47457 0.18474
 C655 C 0.92712 0.49950 0.15368
 C656 C 0.90308 0.47481 0.15039
 C657 C 0.85561 0.49914 0.12478
 C658 C 0.83691 0.49906 0.10537
 C659 C 0.94679 0.49930 0.20924
 C660 C 0.96774 0.49930 0.22615
 H661 H 0.89633 0.54377 0.19951
 H662 H 0.90428 0.54416 0.13639
 H663 H 0.85183 0.49876 0.19294
 H664 H 0.89693 0.45430 0.19902
 H665 H 0.94924 0.49971 0.14239
 H666 H 0.90488 0.45472 0.13590
 C667 C 0.31492 0.02483 0.60227
 C668 C 0.31865 0.00002 0.62626
 C669 C 0.35261 0.00069 0.62106
 C670 C 0.34923 0.02547 0.59748
 C671 C 0.31244 0.00053 0.57809
 C672 C 0.34641 0.00119 0.57296
 C673 C 0.31579 -0.02427 0.60165
 C674 C 0.35010 -0.02359 0.59686
 C675 C 0.37558 0.00079 0.64440
 C676 C 0.39504 0.00090 0.66304
 C677 C 0.29083 0.00043 0.55349
 C678 C 0.27388 0.00034 0.53257
 H679 H 0.30020 0.04472 0.60422
 H680 H 0.30750 -0.00046 0.64846
 H681 H 0.36324 0.04593 0.59602
 H682 H 0.35760 0.00168 0.55078
 H683 H 0.30178 -0.04472 0.60308
 H684 H 0.36481 -0.04349 0.59488
   
