data_POSCAR
  _audit_creation_date              2014-09-24
  _audit_creation_method            'ToBaCCo'
  _symmetry_space_group_name_H-M    'P1'
  _symmetry_Int_Tables_number       1
  _symmetry_cell_setting            triclinic
  loop_
  _symmetry_equiv_pos_as_xyz
 x,y,z
_cell_length_a 46.5795
_cell_length_b 48.8632
_cell_length_c 48.5650
_cell_angle_alpha 87.109800
_cell_angle_beta 90.458100
_cell_angle_gamma 89.560700
loop_
  _atom_site_label
  _atom_site_type_symbol
  _atom_site_fract_x
  _atom_site_fract_y
  _atom_site_fract_z
N1 N 0.15237 0.17175 0.23026
 N2 N 0.17050 0.15106 0.22922
 C3 C 0.16705 0.13400 0.25146
 C4 C 0.14567 0.14429 0.26743
 C5 C 0.13662 0.16840 0.25346
 H6 H 0.17926 0.11538 0.25593
 H7 H 0.12005 0.18239 0.25963
 Cu8 Cu 0.19759 0.14773 0.19957
 Cu9 Cu 0.15132 0.20117 0.20114
 Cu10 Cu 0.20058 0.19570 0.14819
 N11 N 0.22525 0.14547 0.17017
 N12 N 0.22637 0.16436 0.15002
 C13 C 0.24763 0.15817 0.13275
 C14 C 0.26054 0.13404 0.14279
 C15 C 0.24582 0.12655 0.16649
 H16 H 0.25334 0.17049 0.11453
 H17 H 0.25008 0.10878 0.18013
 N18 N 0.17297 0.22601 0.14956
 N19 N 0.15413 0.22850 0.16949
 C20 C 0.13857 0.25165 0.16400
 C21 C 0.14832 0.26400 0.13951
 C22 C 0.16997 0.24722 0.13106
 H23 H 0.12151 0.25892 0.17678
 H24 H 0.18261 0.25041 0.11262
 H25 H 0.16680 0.17792 0.17055
 H26 H 0.19363 0.19715 0.19057
 N27 N -0.13305 0.83257 0.22259
 N28 N -0.15433 0.85036 0.22312
 C29 C -0.15061 0.86623 0.24473
 C30 C -0.12567 0.85772 0.25845
 C31 C -0.11516 0.83635 0.24390
 H32 H -0.16484 0.88279 0.24980
 H33 H -0.09569 0.82466 0.24830
 Cu34 Cu -0.18437 0.85208 0.19497
 Cu35 Cu -0.12975 0.80692 0.19359
 Cu36 Cu -0.18858 0.79480 0.15577
 N37 N -0.21763 0.84453 0.17128
 N38 N -0.21944 0.82239 0.15690
 C39 C -0.24434 0.82314 0.14266
 C40 C -0.25889 0.84685 0.14830
 C41 C -0.24144 0.85998 0.16665
 H42 H -0.25120 0.80790 0.12867
 H43 H -0.24546 0.87938 0.17572
 N44 N -0.15560 0.77021 0.15718
 N45 N -0.13237 0.77504 0.17160
 C46 C -0.11279 0.75523 0.16773
 C47 C -0.12437 0.73718 0.14978
 C48 C -0.15161 0.74726 0.14351
 H49 H -0.09159 0.75417 0.17699
 H50 H -0.16725 0.73886 0.12979
 H51 H -0.16663 0.82959 0.16378
 H52 H -0.18177 0.81030 0.19436
 N53 N -0.13617 0.16513 -0.22090
 N54 N -0.15748 0.14768 -0.22136
 C55 C -0.15402 0.13173 -0.24305
 C56 C -0.12916 0.13983 -0.25664
 C57 C -0.11851 0.16098 -0.24201
 H58 H -0.16831 0.11546 -0.24839
 H59 H -0.09914 0.17243 -0.24634
 Cu60 Cu -0.18701 0.14741 -0.19291
 Cu61 Cu -0.13172 0.19134 -0.19261
 Cu62 Cu -0.19029 0.20037 -0.15069
 N63 N -0.21786 0.15078 -0.16622
 N64 N -0.21925 0.17188 -0.15048
 C65 C -0.24225 0.16926 -0.13402
 C66 C -0.25604 0.14524 -0.13957
 C67 C -0.24006 0.13396 -0.16024
 H68 H -0.24820 0.18348 -0.11865
 H69 H -0.24405 0.11494 -0.17000
 N70 N -0.15830 0.22649 -0.15354
 N71 N -0.13572 0.22256 -0.16910
 C72 C -0.11717 0.24322 -0.16624
 C73 C -0.12846 0.26088 -0.14783
 C74 C -0.15460 0.24972 -0.14012
 H75 H -0.09686 0.24530 -0.17675
 H76 H -0.16967 0.25774 -0.12570
 H77 H -0.15859 0.17457 -0.16164
 H78 H -0.17574 0.19574 -0.19052
 N79 N 0.15092 0.83158 -0.22754
 N80 N 0.16666 0.85341 -0.22416
 C81 C 0.16383 0.87085 -0.24623
 C82 C 0.14529 0.85963 -0.26460
 C83 C 0.13729 0.83460 -0.25221
 H84 H 0.17496 0.89013 -0.24902
 H85 H 0.12307 0.81966 -0.26056
 Cu86 Cu 0.19135 0.85684 -0.19266
 Cu87 Cu 0.15030 0.80125 -0.19927
 Cu88 Cu 0.19683 0.80767 -0.14327
 N89 N 0.22467 0.85408 -0.16888
 N90 N 0.22692 0.83467 -0.14928
 C91 C 0.25162 0.83786 -0.13527
 C92 C 0.26556 0.86049 -0.14708
 C93 C 0.24789 0.87019 -0.16837
 H94 H 0.25854 0.82483 -0.11779
 H95 H 0.25145 0.88787 -0.18219
 N96 N 0.17079 0.77654 -0.14658
 N97 N 0.15331 0.77356 -0.16779
 C98 C 0.13873 0.74994 -0.16345
 C99 C 0.14769 0.73771 -0.13840
 C100 C 0.16793 0.75509 -0.12843
 H101 H 0.12277 0.74232 -0.17735
 H102 H 0.17976 0.75224 -0.10923
 H103 H 0.16169 0.82346 -0.16650
 H104 H 0.19166 0.80743 -0.18521
 N105 N 0.16092 1.15169 0.77593
 N106 N 0.14028 1.17023 0.77544
 C107 C 0.12175 1.16538 0.75494
 C108 C 0.13114 1.14271 0.74174
 C109 C 0.15615 1.13440 0.75555
 H110 H 0.10271 1.17742 0.74979
 H111 H 0.16976 1.11714 0.75121
 Cu112 Cu 0.13931 1.19900 0.80156
 Cu113 Cu 0.19212 1.15173 0.80330
 Cu114 Cu 0.19026 1.20351 0.85009
 N115 N 0.13823 1.22784 0.82765
 N116 N 0.15821 1.22963 0.84673
 C117 C 0.15223 1.25124 0.86201
 C118 C 0.12712 1.26354 0.85185
 C119 C 0.11890 1.24816 0.83014
 H120 H 0.16515 1.25744 0.87918
 H121 H 0.10012 1.25162 0.81718
 N122 N 0.22085 1.17519 0.85018
 N123 N 0.22159 1.15543 0.83257
 C124 C 0.24487 1.13942 0.83828
 C125 C 0.25939 1.14966 0.86049
 C126 C 0.24359 1.17227 0.86743
 H127 H 0.25080 1.12167 0.82712
 H128 H 0.24840 1.18552 0.88400
 H129 H 0.16944 1.17086 0.83332
 H130 H 0.19092 1.19326 0.80923
 N131 N 0.83063 0.86073 0.77132
 N132 N 0.85070 0.84197 0.76925
 C133 C 0.86253 0.84461 0.74409
 C134 C 0.84907 0.86636 0.72976
 C135 C 0.82906 0.87619 0.74766
 H136 H 0.87964 0.83173 0.73698
 H137 H 0.81448 0.89332 0.74377
 Cu138 Cu 0.85938 0.81608 0.79966
 Cu139 Cu 0.80869 0.86370 0.80477
 Cu140 Cu 0.80814 0.80433 0.84742
 N141 N 0.85954 0.78318 0.82324
 N142 N 0.83909 0.77792 0.84122
 C143 C 0.84398 0.75293 0.85349
 C144 C 0.86880 0.74220 0.84245
 C145 C 0.87807 0.76196 0.82344
 H146 H 0.83057 0.74344 0.86926
 H147 H 0.89664 0.76073 0.81031
 N148 N 0.77944 0.83440 0.84997
 N149 N 0.78045 0.85700 0.83390
 C150 C 0.75861 0.87362 0.83998
 C151 C 0.74305 0.86120 0.86096
 C152 C 0.75673 0.83627 0.86697
 H153 H 0.75402 0.89329 0.82958
 H154 H 0.75049 0.82066 0.88228
 H155 H 0.83041 0.83815 0.83460
 H156 H 0.80849 0.82164 0.80790
 N157 N 0.15536 0.84624 1.22581
 N158 N 0.13535 0.82738 1.22695
 C159 C 0.11725 0.83246 1.24757
 C160 C 0.12633 0.85563 1.26007
 C161 C 0.15064 0.86394 1.24578
 H162 H 0.09869 0.82031 1.25316
 H163 H 0.16380 0.88153 1.24947
 Cu164 Cu 0.13442 0.79801 1.20134
 Cu165 Cu 0.18570 0.84635 1.19825
 Cu166 Cu 0.18391 0.79466 1.15174
 N167 N 0.13335 0.76958 1.17466
 N168 N 0.15278 0.76836 1.15527
 C169 C 0.14690 0.74713 1.13955
 C170 C 0.12242 0.73440 1.14965
 C171 C 0.11443 0.74916 1.17190
 H172 H 0.15943 0.74155 1.12203
 H173 H 0.09604 0.74531 1.18495
 N174 N 0.21376 0.82306 1.15132
 N175 N 0.21446 0.84286 1.16885
 C176 C 0.23723 0.85898 1.16297
 C177 C 0.25144 0.84874 1.14071
 C178 C 0.23602 0.82603 1.13394
 H179 H 0.24304 0.87677 1.17406
 H180 H 0.24075 0.81273 1.11741
 H181 H 0.16222 0.82675 1.16901
 H182 H 0.18549 0.80480 1.19266
 N183 N 0.82480 1.14770 1.22464
 N184 N 0.84754 1.16326 1.22663
 C185 C 0.86041 1.15791 1.25119
 C186 C 0.84490 1.13785 1.26542
 C187 C 0.82251 1.13174 1.24795
 H188 H 0.87959 1.16798 1.25802
 H189 H 0.80572 1.11694 1.25203
 Cu190 Cu 0.85819 1.18965 1.19760
 Cu191 Cu 0.79989 1.14992 1.19208
 Cu192 Cu 0.81128 1.20502 1.14606
 N193 N 0.86080 1.22343 1.17534
 N194 N 0.84197 1.22975 1.15569
 C195 C 0.84801 1.25473 1.14446
 C196 C 0.87190 1.26452 1.15787
 C197 C 0.87956 1.24408 1.17722
 H198 H 0.83597 1.26484 1.12771
 H199 H 0.89714 1.24441 1.19189
 N200 N 0.78156 1.17737 1.14023
 N201 N 0.77734 1.15626 1.15773
 C202 C 0.75594 1.14096 1.14808
 C203 C 0.74624 1.15306 1.12328
 C204 C 0.76293 1.17608 1.11897
 H205 H 0.74801 1.12248 1.15843
 H206 H 0.76155 1.19074 1.10157
 H207 H 0.82763 1.16861 1.16387
 H208 H 0.80733 1.19146 1.18690
 N209 N 0.47035 0.94398 0.98495
 N210 N 0.44936 0.92616 0.98365
 N211 N 0.53210 0.95657 0.96565
 N212 N 0.55385 0.94852 0.95075
 N213 N 0.53041 0.94142 0.98869
 N214 N 0.55094 0.92257 0.99004
 N215 N 0.47190 0.95920 0.96195
 N216 N 0.45195 0.95205 0.94427
 C217 C 0.43804 0.93152 0.95827
 C218 C 0.56542 0.92734 0.96624
 N219 N 0.53570 1.03661 0.96603
 N220 N 0.55774 1.05217 0.95880
 N221 N 0.47490 1.01747 0.94817
 N222 N 0.45344 1.01842 0.93019
 N223 N 0.47530 1.03980 0.96216
 N224 N 0.45402 1.05647 0.95413
 N225 N 0.53528 1.01448 0.95177
 N226 N 0.55704 1.01434 0.93453
 Mn227 Mn 0.50350 0.98689 0.95655
 C228 C 0.57091 1.03790 0.93922
 C229 C 0.44067 1.04289 0.93408
 N230 N 0.52715 0.95234 1.04643
 N231 N 0.54833 0.93583 1.05491
 N232 N 0.46649 0.97717 1.05626
 N233 N 0.44418 0.97740 1.07284
 N234 N 0.46681 0.95482 1.04237
 N235 N 0.44461 0.93924 1.04904
 N236 N 0.52669 0.97444 1.06068
 N237 N 0.54755 0.97363 1.07925
 Mn238 Mn 0.49872 0.94784 1.01569
 C239 C 0.56077 0.94942 1.07544
 C240 C 0.43068 0.95367 1.06803
 N241 N 0.47244 1.05062 1.01979
 N242 N 0.45157 1.06910 1.01793
 N243 N 0.52991 1.03196 1.04699
 N244 N 0.55108 1.03605 1.06433
 N245 N 0.53285 1.04726 1.02417
 N246 N 0.55629 1.06234 1.02551
 N247 N 0.46999 1.03504 1.04246
 N248 N 0.44752 1.04246 1.05667
 Mn249 Mn 0.50417 1.04396 0.99295
 Mn250 Mn 0.49818 1.00474 1.05184
 Cl251 Cl 0.50115 0.99586 1.00421
 C252 C 0.43626 1.06370 1.04111
 C253 C 0.56727 1.05504 1.05085
 N254 N 0.02510 0.47678 0.04974
 N255 N 0.02799 0.45752 0.06954
 N256 N 0.04483 0.53207 0.02234
 N257 N 0.06338 0.55227 0.02363
 N258 N 0.02508 0.53399 0.04130
 N259 N 0.02967 0.55556 0.05603
 N260 N 0.04499 0.47444 0.03097
 N261 N 0.06201 0.45324 0.03757
 C262 C 0.05106 0.44306 0.06179
 C263 C 0.05359 0.56678 0.04466
 N264 N 0.02404 0.52461 -0.05555
 N265 N 0.02662 0.54398 -0.07525
 N266 N 0.04472 0.46914 -0.02808
 N267 N 0.06346 0.44886 -0.02908
 N268 N 0.02478 0.46721 -0.04715
 N269 N 0.02950 0.44547 -0.06170
 N270 N 0.04419 0.52668 -0.03669
 N271 N 0.06102 0.54771 -0.04310
 Mn272 Mn 0.04508 0.50058 -0.00287
 C273 C 0.04975 0.55818 -0.06730
 C274 C 0.05370 0.43423 -0.05005
 N275 N -0.03672 0.53408 0.04115
 N276 N -0.04090 0.55579 0.05572
 N277 N -0.05652 0.47523 0.03053
 N278 N -0.07515 0.45596 0.03713
 N279 N -0.03661 0.47663 0.04965
 N280 N -0.04107 0.45799 0.06986
 N281 N -0.05683 0.53234 0.02226
 N282 N -0.07535 0.55283 0.02348
 Mn283 Mn -0.00576 0.50541 0.04576
 C284 C -0.06501 0.56729 0.04438
 C285 C -0.06523 0.44532 0.06155
 N286 N -0.03733 0.46737 -0.04701
 N287 N -0.04185 0.44567 -0.06156
 N288 N -0.05752 0.52631 -0.03617
 N289 N -0.07636 0.54586 -0.04233
 N290 N -0.03797 0.52505 -0.05539
 N291 N -0.04295 0.54417 -0.07522
 N292 N -0.05696 0.46927 -0.02793
 N293 N -0.07539 0.44897 -0.02898
 Mn294 Mn -0.00660 0.49602 -0.05165
 Mn295 Mn -0.05718 0.50078 -0.00284
 Cl296 Cl -0.00606 0.50069 -0.00293
 C297 C -0.06564 0.43440 -0.04996
 C298 C -0.06706 0.55688 -0.06658
 N299 N 0.96764 0.05667 0.48201
 N300 N 0.96426 0.07797 0.46440
 N301 N 0.94864 0.02268 0.53430
 N302 N 0.92960 0.02193 0.55433
 N303 N 0.96836 0.04108 0.53863
 N304 N 0.96323 0.05339 0.56169
 N305 N 0.94804 0.03814 0.47777
 N306 N 0.93082 0.04627 0.45723
 C307 C 0.94112 0.07121 0.44923
 C308 C 0.93910 0.04107 0.57133
 N309 N 0.96975 -0.05223 0.51672
 N310 N 0.96674 -0.07409 0.53352
 N311 N 0.94879 -0.01861 0.46447
 N312 N 0.92945 -0.01837 0.44441
 N313 N 0.96908 -0.03670 0.46030
 N314 N 0.96415 -0.04924 0.43735
 N315 N 0.94956 -0.03407 0.52092
 N316 N 0.93223 -0.04302 0.54065
 Mn317 Mn 0.94845 0.00204 0.49937
 C318 C 0.94319 -0.06803 0.54820
 C319 C 0.93948 -0.03745 0.42757
 N320 N 1.03044 0.04161 0.53853
 N321 N 1.03558 0.05399 0.56160
 N322 N 1.04958 0.03900 0.47738
 N323 N 1.06531 0.04732 0.45607
 N324 N 1.02943 0.05714 0.48196
 N325 N 1.03096 0.07826 0.46402
 N326 N 1.05068 0.02351 0.53415
 N327 N 1.07008 0.02306 0.55416
 Mn328 Mn 0.99898 0.04942 0.51040
 C329 C 1.06029 0.04204 0.57120
 C330 C 1.05351 0.07196 0.44815
 N331 N 1.03084 -0.03645 0.46027
 N332 N 1.03584 -0.04910 0.43740
 N333 N 1.05115 -0.03356 0.52127
 N334 N 1.06756 -0.04180 0.54249
 N335 N 1.03141 -0.05190 0.51674
 N336 N 1.03389 -0.07306 0.53455
 N337 N 1.05069 -0.01814 0.46440
 N338 N 1.06976 -0.01785 0.44437
 Mn339 Mn 1.00029 -0.04457 0.48843
 Mn340 Mn 1.05091 0.00272 0.49929
 Cl341 Cl 0.99968 0.00242 0.49939
 C342 C 1.06006 -0.03714 0.42759
 C343 C 1.05659 -0.06660 0.55034
 C344 C 1.13659 0.13163 0.29217
 C345 C 1.11502 0.14153 0.30884
 C346 C 1.10705 0.12616 0.33460
 N347 N 1.08585 0.13548 0.35081
 N348 N 1.07857 0.12141 0.37393
 C349 C 1.09224 0.09751 0.38170
 N350 N 1.11341 0.08827 0.36553
 N351 N 1.12067 0.10231 0.34247
 C352 C 1.08431 0.08129 0.40683
 C353 C 1.06248 0.08926 0.42416
 H354 H 1.10381 0.16047 0.30303
 H355 H 1.09567 0.06216 0.41148
 H356 H 1.14734 0.11260 0.29865
 H357 H 1.05096 0.10832 0.41965
 C358 C 0.88816 -0.13111 0.28271
 C359 C 0.87721 -0.10878 0.29609
 C360 C 0.89225 -0.09771 0.31980
 N361 N 0.88090 -0.07625 0.33283
 N362 N 0.89445 -0.06616 0.35433
 C363 C 0.91987 -0.07715 0.36350
 N364 N 0.93121 -0.09853 0.35044
 N365 N 0.91767 -0.10862 0.32899
 C366 C 0.93507 -0.06679 0.38740
 C367 C 0.92441 -0.04563 0.40265
 H368 H 0.85732 -0.09907 0.28905
 H369 H 0.95512 -0.07675 0.39359
 H370 H 0.90800 -0.14076 0.29000
 H371 H 0.90437 -0.03548 0.39680
 C372 C 0.88462 0.12902 0.71895
 C373 C 0.87429 0.10696 0.70482
 C374 C 0.88967 0.09701 0.68076
 N375 N 0.87928 0.07571 0.66690
 N376 N 0.89314 0.06676 0.64511
 C377 C 0.91793 0.07877 0.63643
 N378 N 0.92830 0.10000 0.65032
 N379 N 0.91446 0.10893 0.67205
 C380 C 0.93350 0.06964 0.61224
 C381 C 0.92390 0.04852 0.59636
 H382 H 0.85479 0.09679 0.71145
 H383 H 0.95297 0.08037 0.60641
 H384 H 0.90416 0.13899 0.71204
 H385 H 0.90445 0.03766 0.60191
 C386 C 1.13758 -0.12720 0.70847
 C387 C 1.11764 -0.13740 0.69021
 C388 C 1.11038 -0.12192 0.66419
 N389 N 1.08974 -0.13104 0.64712
 N390 N 1.08271 -0.11668 0.62393
 C391 C 1.09607 -0.09270 0.61694
 N392 N 1.11678 -0.08368 0.63393
 N393 N 1.12379 -0.09801 0.65708
 C394 C 1.08807 -0.07614 0.59185
 C395 C 1.06636 -0.08400 0.57417
 H396 H 1.10677 -0.15648 0.69531
 H397 H 1.09899 -0.05690 0.58765
 H398 H 1.14800 -0.10793 0.70314
 H399 H 1.05532 -0.10316 0.57836
 C400 C 0.28374 1.11990 1.13237
 C401 C 0.29814 1.12856 1.10844
 C402 C 0.32322 1.11352 1.09878
 N403 N 0.33685 1.12236 1.07544
 N404 N 0.35985 1.10900 1.06674
 C405 C 0.36998 1.08634 1.08113
 N406 N 0.35632 1.07751 1.10442
 N407 N 0.33337 1.09084 1.11308
 C408 C 0.39543 1.07145 1.07229
 C409 C 0.41053 1.07901 1.04854
 H410 H 0.29127 1.14683 1.09661
 H411 H 0.40261 1.05392 1.08516
 H412 H 0.29089 1.10140 1.14373
 H413 H 0.40350 1.09630 1.03528
 C414 C 0.29123 0.87239 0.86066
 C415 C 0.30757 0.86269 0.88329
 C416 C 0.33299 0.87742 0.89244
 N417 N 0.34597 0.86965 0.91669
 N418 N 0.36830 0.88352 0.92583
 C419 C 0.37849 0.90563 0.91102
 N420 N 0.36571 0.91323 0.88662
 N421 N 0.34332 0.89941 0.87751
 C422 C 0.40263 0.92148 0.92125
 C423 C 0.41414 0.91595 0.94744
 H424 H 0.30098 0.84472 0.89550
 H425 H 0.41110 0.93809 0.90819
 H426 H 0.29814 0.89055 0.84888
 H427 H 0.40538 0.89964 0.96069
 C428 C 0.71491 0.85526 1.13657
 C429 C 0.70135 0.87989 1.14214
 C430 C 0.67457 0.88871 1.12800
 N431 N 0.66211 0.91295 1.13364
 N432 N 0.63815 0.92138 1.12056
 C433 C 0.62579 0.90588 1.10133
 N434 N 0.63821 0.88162 1.09573
 N435 N 0.66216 0.87319 1.10882
 C436 C 0.59966 0.91507 1.08635
 C437 C 0.58614 0.93982 1.09126
 H438 H 0.71068 0.89339 1.15672
 H439 H 0.59108 0.90218 1.07080
 H440 H 0.70502 0.84201 1.12206
 H441 H 0.59454 0.95279 1.10681
 C442 C 0.71958 1.13523 0.87402
 C443 C 0.70659 1.11038 0.86862
 C444 C 0.68133 1.10041 0.88419
 N445 N 0.66947 1.07595 0.87876
 N446 N 0.64674 1.06671 0.89282
 C447 C 0.63503 1.08159 0.91286
 N448 N 0.64688 1.10604 0.91827
 N449 N 0.66959 1.11526 0.90423
 C450 C 0.60983 1.07186 0.92858
 C451 C 0.59660 1.04699 0.92400
 H452 H 0.71513 1.09771 0.85293
 H453 H 0.60131 1.08481 0.94408
 H454 H 0.71063 1.14751 0.88986
 H455 H 0.60498 1.03390 0.90857
 C456 C 0.13894 0.28933 0.12431
 C457 C 0.11710 0.30639 0.13296
 C458 C 0.10874 0.33145 0.11657
 N459 N 0.08730 0.34772 0.12531
 N460 N 0.07948 0.37031 0.11054
 C461 C 0.09279 0.37751 0.08645
 N462 N 0.11426 0.36127 0.07773
 N463 N 0.12208 0.33868 0.09251
 C464 C 0.08400 0.40226 0.06978
 C465 C 0.06164 0.41889 0.07805
 H466 H 0.10587 0.30132 0.15194
 H467 H 0.09491 0.40719 0.05058
 H468 H 0.14998 0.29469 0.10527
 H469 H 0.05068 0.41374 0.09719
 C470 C -0.11454 0.28582 -0.13865
 C471 C -0.12598 0.30164 -0.11827
 C472 C -0.11125 0.32602 -0.10878
 N473 N -0.12253 0.34004 -0.08796
 N474 N -0.10935 0.36205 -0.07902
 C475 C -0.08440 0.37088 -0.09058
 N476 N -0.07315 0.35690 -0.11144
 N477 N -0.08631 0.33487 -0.12036
 C478 C -0.06963 0.39520 -0.08100
 C479 C -0.07993 0.40976 -0.05917
 H480 H -0.14604 0.29584 -0.10861
 H481 H -0.05023 0.40182 -0.09143
 H482 H -0.09424 0.29150 -0.14796
 H483 H -0.09919 0.40311 -0.04853
 C484 C 0.13848 0.71201 -0.12407
 C485 C 0.11741 0.69499 -0.13416
 C486 C 0.10866 0.66972 -0.11863
 N487 N 0.08751 0.65396 -0.12862
 N488 N 0.07927 0.63123 -0.11462
 C489 C 0.09188 0.62337 -0.09011
 N490 N 0.11308 0.63909 -0.08017
 N491 N 0.12130 0.66182 -0.09415
 C492 C 0.08272 0.59846 -0.07423
 C493 C 0.06025 0.58243 -0.08318
 H494 H 0.10689 0.70036 -0.15366
 H495 H 0.09353 0.59293 -0.05489
 H496 H 0.14875 0.70648 -0.10446
 H497 H 0.04928 0.58811 -0.10240
 C498 C -0.10994 0.71303 0.13923
 C499 C -0.12230 0.69772 0.11888
 C500 C -0.10776 0.67398 0.10775
 N501 N -0.12033 0.66063 0.08707
 N502 N -0.10748 0.63905 0.07669
 C503 C -0.08158 0.63004 0.08665
 N504 N -0.06902 0.64337 0.10735
 N505 N -0.08185 0.66499 0.11770
 C506 C -0.06731 0.60606 0.07571
 C507 C -0.07895 0.59197 0.05409
 H508 H -0.14317 0.70342 0.11039
 H509 H -0.04720 0.59917 0.08515
 H510 H -0.08881 0.70759 0.14732
 H511 H -0.09886 0.59887 0.04429
 C512 C 1.11634 0.13107 0.71815
 C513 C 1.12640 0.10861 0.70436
 C514 C 1.11053 0.09836 0.68056
 N515 N 1.12110 0.07712 0.66665
 N516 N 1.10695 0.06804 0.64496
 C517 C 1.08167 0.07985 0.63641
 N518 N 1.07112 0.10102 0.65036
 N519 N 1.08525 0.11009 0.67199
 C520 C 1.06582 0.07060 0.61224
 C521 C 1.07570 0.04965 0.59624
 H522 H 1.14627 0.09854 0.71087
 H523 H 1.04593 0.08112 0.60652
 H524 H 1.09655 0.14107 0.71123
 H525 H 1.09559 0.03903 0.60169
 C526 C 0.85475 -0.12223 0.70184
 C527 C 0.87580 -0.13291 0.68516
 C528 C 0.88301 -0.11962 0.65839
 N529 N 0.90524 -0.12925 0.64372
 N530 N 0.91294 -0.11648 0.62009
 C531 C 0.89862 -0.09366 0.61028
 N532 N 0.87619 -0.08423 0.62477
 N533 N 0.86852 -0.09697 0.64840
 C534 C 0.90791 -0.07829 0.58529
 C535 C 0.93202 -0.08585 0.57068
 H536 H 0.88819 -0.15074 0.69228
 H537 H 0.89630 -0.05967 0.57909
 H538 H 0.84243 -0.10438 0.69457
 H539 H 0.94365 -0.10455 0.57649
 C540 C 1.11206 -0.13203 0.28346
 C541 C 1.12225 -0.10898 0.29614
 C542 C 1.10718 -0.09764 0.31971
 N543 N 1.11817 -0.07593 0.33255
 N544 N 1.10477 -0.06579 0.35402
 C545 C 1.07983 -0.07697 0.36339
 N546 N 1.06884 -0.09857 0.35049
 N547 N 1.08223 -0.10871 0.32909
 C548 C 1.06475 -0.06661 0.38733
 C549 C 1.07503 -0.04533 0.40267
 H550 H 1.14173 -0.09918 0.28891
 H551 H 1.04502 -0.07671 0.39351
 H552 H 1.09270 -0.14182 0.29108
 H553 H 1.09474 -0.03503 0.39684
 C554 C 0.85086 0.12514 0.29301
 C555 C 0.87266 0.13454 0.30987
 C556 C 0.88048 0.12076 0.33648
 N557 N 0.90227 0.13071 0.35164
 N558 N 0.91047 0.11791 0.37529
 C559 C 0.89715 0.09467 0.38464
 N560 N 0.87523 0.08482 0.36957
 N561 N 0.86703 0.09763 0.34591
 C562 C 0.90678 0.07959 0.41002
 C563 C 0.92989 0.08815 0.42571
 H564 H 0.88500 0.15229 0.30320
 H565 H 0.89602 0.06063 0.41591
 H566 H 0.83795 0.10785 0.30002
 H567 H 0.94071 0.10714 0.42012
 C568 C 0.11147 0.28764 -0.13870
 C569 C 0.12043 0.30237 -0.11637
 C570 C 0.10430 0.32638 -0.10734
 N571 N 0.11384 0.34001 -0.08545
 N572 N 0.09956 0.36177 -0.07706
 C573 C 0.07515 0.37075 -0.09024
 N574 N 0.06559 0.35713 -0.11215
 N575 N 0.07988 0.33535 -0.12054
 C576 C 0.05926 0.39495 -0.08126
 C577 C 0.06854 0.40957 -0.05900
 H578 H 0.13973 0.29619 -0.10510
 H579 H 0.04005 0.40150 -0.09254
 H580 H 0.09210 0.29392 -0.14986
 H581 H 0.08776 0.40303 -0.04774
 C582 C -0.11344 0.29081 0.15279
 C583 C -0.12585 0.31180 0.13623
 C584 C -0.11093 0.33729 0.12837
 N585 N -0.12441 0.35609 0.11129
 N586 N -0.11093 0.37868 0.10240
 C587 C -0.08344 0.38340 0.11024
 N588 N -0.07003 0.36479 0.12772
 N589 N -0.08354 0.34208 0.13661
 C590 C -0.06807 0.40750 0.09866
 C591 C -0.07999 0.42297 0.07655
 H592 H -0.14721 0.30928 0.12787
 H593 H -0.04675 0.41199 0.10619
 H594 H -0.09258 0.29361 0.16221
 H595 H -0.10075 0.41746 0.06838
 C596 C -0.11682 0.71570 -0.15120
 C597 C -0.12884 0.69533 -0.13403
 C598 C -0.11394 0.66924 -0.12702
 N599 N -0.12659 0.65049 -0.10970
 N600 N -0.11313 0.62716 -0.10221
 C601 C -0.08647 0.62160 -0.11176
 N602 N -0.07389 0.64022 -0.12938
 N603 N -0.08739 0.66364 -0.13688
 C604 C -0.07095 0.59649 -0.10196
 C605 C -0.08232 0.57985 -0.08075
 H606 H -0.14971 0.69863 -0.12507
 H607 H -0.04988 0.59212 -0.10999
 H608 H -0.09619 0.71216 -0.16057
 H609 H -0.10296 0.58508 -0.07226
 C610 C 0.10726 0.71051 0.13939
 C611 C 0.11644 0.69681 0.11650
 C612 C 0.10108 0.67305 0.10627
 N613 N 0.11111 0.66044 0.08397
 N614 N 0.09754 0.63890 0.07445
 C615 C 0.07339 0.62915 0.08686
 N616 N 0.06334 0.64177 0.10915
 N617 N 0.07692 0.66331 0.11868
 C618 C 0.05828 0.60520 0.07672
 C619 C 0.06803 0.59126 0.05421
 H620 H 0.13547 0.70361 0.10560
 H621 H 0.03920 0.59819 0.08746
 H622 H 0.08822 0.70362 0.15025
 H623 H 0.08713 0.59813 0.04344
 C624 C 0.28588 1.13949 0.87460
 C625 C 0.30049 1.11581 0.86757
 C626 C 0.32677 1.10595 0.88231
 N627 N 0.33971 1.08230 0.87536
 N628 N 0.36337 1.07311 0.88855
 C629 C 0.37505 1.08725 0.90922
 N630 N 0.36215 1.11092 0.91613
 N631 N 0.33848 1.12009 0.90296
 C632 C 0.40118 1.07740 0.92416
 C633 C 0.41493 1.05282 0.91867
 H634 H 0.29239 1.10394 0.85101
 H635 H 0.40966 1.08978 0.94018
 H636 H 0.29398 1.15109 0.89138
 H637 H 0.40643 1.04020 0.90288
 C638 C 0.27739 0.85892 1.12651
 C639 C 0.29148 0.88277 1.13329
 C640 C 0.31735 0.89246 1.11856
 N641 N 0.32991 0.91625 1.12519
 N642 N 0.35329 0.92521 1.11202
 C643 C 0.36503 0.91069 1.09172
 N644 N 0.35249 0.88690 1.08512
 N645 N 0.32910 0.87795 1.09826
 C646 C 0.39097 0.92014 1.07701
 C647 C 0.40444 0.94470 1.08240
 H648 H 0.28334 0.89482 1.14967
 H649 H 0.39973 0.90733 1.06152
 H650 H 0.28547 0.84717 1.10987
 H651 H 0.39569 0.95774 1.09770
 C652 C 0.72289 1.14413 1.10520
 C653 C 0.70776 1.12013 1.11118
 C654 C 0.68322 1.11136 1.09467
 N655 N 0.66893 1.08846 1.10311
 N656 N 0.64611 1.08033 1.08918
 C657 C 0.63662 1.09474 1.06620
 N658 N 0.65109 1.11758 1.05752
 N659 N 0.67398 1.12578 1.07154
 C660 C 0.61067 1.08600 1.05148
 C661 C 0.59390 1.06496 1.06297
 H662 H 0.71356 1.10728 1.12919
 H663 H 0.60429 1.09654 1.03222
 H664 H 0.71731 1.15693 1.08707
 H665 H 0.60016 1.05523 1.08266
 C666 C 0.71712 0.87320 0.87263
 C667 C 0.70223 0.86197 0.89520
 C668 C 0.67655 0.87606 0.90536
 N669 N 0.66334 0.86686 0.92885
 N670 N 0.64035 0.87997 0.93807
 C671 C 0.62977 0.90270 0.92405
 N672 N 0.64288 0.91174 0.90057
 N673 N 0.66581 0.89871 0.89143
 C674 C 0.60459 0.91779 0.93351
 C675 C 0.59046 0.91122 0.95808
 H676 H 0.70966 0.84313 0.90570
 H677 H 0.59709 0.93512 0.92053
 H678 H 0.70975 0.89245 0.86290
 H679 H 0.59783 0.89420 0.97151
   
