data_POSCAR
  _audit_creation_date              2014-09-24
  _audit_creation_method            'ToBaCCo'
  _symmetry_space_group_name_H-M    'P1'
  _symmetry_Int_Tables_number       1
  _symmetry_cell_setting            triclinic
  loop_
  _symmetry_equiv_pos_as_xyz
 x,y,z
_cell_length_a 58.6984
_cell_length_b 58.2912
_cell_length_c 20.9765
_cell_angle_alpha 90.451700
_cell_angle_beta 89.850400
_cell_angle_gamma 119.473500
loop_
  _atom_site_label
  _atom_site_type_symbol
  _atom_site_fract_x
  _atom_site_fract_y
  _atom_site_fract_z
C1 C 0.23051 0.45279 0.53229
 C2 C 0.22638 0.45159 0.46813
 C3 C 0.20390 0.45277 0.43936
 C4 C 0.24555 0.45081 0.42322
 C5 C 0.25521 0.45542 0.55809
 C6 C 0.21176 0.45326 0.57951
 C7 C 0.18871 0.43436 0.39242
 C8 C 0.16800 0.43562 0.36317
 C9 C 0.16200 0.45557 0.38025
 C10 C 0.17735 0.47389 0.42783
 C11 C 0.19826 0.47276 0.45622
 C12 C 0.24946 0.42893 0.42078
 C13 C 0.26907 0.42932 0.38196
 C14 C 0.28539 0.45181 0.34639
 C15 C 0.28094 0.47340 0.34759
 C16 C 0.26098 0.47277 0.38523
 C17 C 0.27935 0.47744 0.54305
 C18 C 0.30258 0.47975 0.56679
 C19 C 0.30209 0.46043 0.60714
 C20 C 0.27783 0.43839 0.62236
 C21 C 0.25458 0.43603 0.59826
 C22 C 0.22098 0.47301 0.62665
 C23 C 0.20377 0.47441 0.67042
 C24 C 0.17691 0.45617 0.66814
 C25 C 0.16768 0.43585 0.62202
 C26 C 0.18502 0.43437 0.57829
 H27 H 0.19283 0.41882 0.37853
 H28 H 0.15688 0.42060 0.32809
 H29 H 0.17359 0.48961 0.44241
 H30 H 0.21017 0.48766 0.49105
 H31 H 0.23760 0.41179 0.44966
 H32 H 0.27204 0.41239 0.38121
 H33 H 0.25813 0.48977 0.38649
 H34 H 0.28017 0.49285 0.51304
 H35 H 0.32098 0.49691 0.55441
 H36 H 0.27669 0.42277 0.65199
 H37 H 0.23609 0.41892 0.61024
 H38 H 0.24152 0.48772 0.62887
 H39 H 0.21147 0.49013 0.70565
 H40 H 0.14727 0.42096 0.61974
 H41 H 0.17756 0.41855 0.54334
 H42 H 0.29288 0.49075 0.31943
 C43 C 0.54442 -0.22575 0.52201
 C44 C 0.54297 -0.22396 0.45755
 C45 C 0.54203 -0.24444 0.41324
 C46 C 0.54115 -0.20168 0.42847
 C47 C 0.54738 -0.20405 0.56491
 C48 C 0.54017 -0.25027 0.55364
 C49 C 0.56057 -0.25299 0.41688
 C50 C 0.55999 -0.27155 0.37316
 C51 C 0.54082 -0.28184 0.32484
 C52 C 0.52248 -0.27305 0.32127
 C53 C 0.52308 -0.25457 0.36486
 C54 C 0.55928 -0.18588 0.38216
 C55 C 0.55784 -0.16467 0.35556
 C56 C 0.53803 -0.15909 0.37454
 C57 C 0.51983 -0.17510 0.42049
 C58 C 0.52116 -0.19637 0.44660
 C59 C 0.52830 -0.20906 0.61130
 C60 C 0.52936 -0.18851 0.64804
 C61 C 0.54984 -0.16249 0.63976
 C62 C 0.56934 -0.15767 0.59452
 C63 C 0.56824 -0.17828 0.55767
 C64 C 0.51693 -0.27411 0.54375
 C65 C 0.51121 -0.29613 0.58087
 C66 C 0.52859 -0.29489 0.62869
 C67 C 0.55230 -0.27100 0.63707
 C68 C 0.55784 -0.24899 0.60021
 H69 H 0.57576 -0.24497 0.45293
 H70 H 0.57483 -0.27731 0.37705
 H71 H 0.50755 -0.28053 0.28455
 H72 H 0.50865 -0.24819 0.36089
 H73 H 0.57480 -0.18971 0.36745
 H74 H 0.57255 -0.15246 0.32128
 H75 H 0.50663 -0.20866 0.48126
 H76 H 0.51194 -0.22876 0.61725
 H77 H 0.51347 -0.19315 0.68079
 H78 H 0.58525 -0.13783 0.58696
 H79 H 0.58328 -0.17408 0.52240
 H80 H 0.50271 -0.27538 0.50908
 H81 H 0.49280 -0.31406 0.57293
 H82 H 0.56636 -0.26851 0.67331
 H83 H 0.57570 -0.23062 0.60919
 H84 H 0.50436 -0.17129 0.43583
 C85 C 1.22599 0.77264 0.54877
 C86 C 1.22887 0.76724 0.48690
 C87 C 1.25130 0.78508 0.44621
 C88 C 1.21000 0.74185 0.45646
 C89 C 1.20497 0.75178 0.58750
 C90 C 1.24455 0.79787 0.58157
 C91 C 1.24641 0.79018 0.38399
 C92 C 1.26700 0.80460 0.34229
 C93 C 1.29308 0.81477 0.36201
 C94 C 1.29803 0.80987 0.42486
 C95 C 1.27728 0.79481 0.46613
 C96 C 1.18476 0.73667 0.44014
 C97 C 1.16817 0.71411 0.40475
 C98 C 1.17666 0.69637 0.38507
 C99 C 1.20181 0.70149 0.40275
 C100 C 1.21834 0.72404 0.43793
 C101 C 1.20863 0.73176 0.61328
 C102 C 1.18834 0.71085 0.64568
 C103 C 1.16363 0.70925 0.65185
 C104 C 1.16007 0.72933 0.62499
 C105 C 1.18069 0.75063 0.59402
 C106 C 1.25410 0.79729 0.64250
 C107 C 1.27294 0.82042 0.67216
 C108 C 1.28302 0.84495 0.64136
 C109 C 1.27283 0.84557 0.58114
 C110 C 1.25342 0.82244 0.55228
 H111 H 1.22653 0.78261 0.36726
 H112 H 1.26242 0.80786 0.29433
 H113 H 1.31767 0.81652 0.44192
 H114 H 1.28150 0.79030 0.51314
 H115 H 1.17829 0.75059 0.45278
 H116 H 1.14923 0.71135 0.39135
 H117 H 1.23790 0.72794 0.44958
 H118 H 1.22716 0.73214 0.60727
 H119 H 1.19200 0.69555 0.66296
 H120 H 1.14134 0.72868 0.62833
 H121 H 1.17751 0.76581 0.57346
 H122 H 1.24769 0.77878 0.66663
 H123 H 1.28032 0.81844 0.71770
 H124 H 1.27988 0.86404 0.55614
 H125 H 1.24581 0.82369 0.50627
 H126 H 1.20892 0.68828 0.38812
 C127 C 0.77968 0.55552 0.53302
 C128 C 0.77558 0.55076 0.46902
 C129 C 0.79470 0.54934 0.42450
 C130 C 0.75035 0.54560 0.44068
 C131 C 0.76004 0.55827 0.57293
 C132 C 0.80190 0.55574 0.56783
 C133 C 0.82140 0.56847 0.42496
 C134 C 0.83863 0.56723 0.38037
 C135 C 0.82932 0.54704 0.33395
 C136 C 0.80266 0.52822 0.33323
 C137 C 0.78562 0.52924 0.37809
 C138 C 0.74940 0.56421 0.40056
 C139 C 0.72532 0.56048 0.37879
 C140 C 0.70202 0.53769 0.39509
 C141 C 0.70311 0.51867 0.43376
 C142 C 0.72712 0.52267 0.45656
 C143 C 0.74792 0.54109 0.62390
 C144 C 0.72795 0.54197 0.65836
 C145 C 0.71945 0.56004 0.64211
 C146 C 0.73218 0.57765 0.59189
 C147 C 0.75258 0.57713 0.55859
 C148 C 0.80892 0.53620 0.55711
 C149 C 0.82777 0.53493 0.59533
 C150 C 0.83933 0.55263 0.64690
 C151 C 0.83218 0.57207 0.65746
 C152 C 0.81400 0.57382 0.61799
 H153 H 0.82881 0.58460 0.45903
 H154 H 0.85897 0.58244 0.38126
 H155 H 0.79498 0.51254 0.29789
 H156 H 0.76517 0.51425 0.37633
 H157 H 0.76719 0.58202 0.38809
 H158 H 0.72485 0.57537 0.34912
 H159 H 0.72761 0.50815 0.48759
 H160 H 0.75337 0.52638 0.63574
 H161 H 0.71861 0.52755 0.69541
 H162 H 0.72636 0.59192 0.57824
 H163 H 0.76212 0.59104 0.52046
 H164 H 0.79913 0.52122 0.52077
 H165 H 0.83186 0.51904 0.58630
 H166 H 0.84058 0.58597 0.69669
 H167 H 0.80877 0.58891 0.62786
 H168 H 0.68539 0.50113 0.44791
 C169 C 0.46170 0.23597 0.51438
 C170 C 0.45772 0.23589 0.45040
 C171 C 0.45294 0.25617 0.41967
 C172 C 0.46102 0.21738 0.40748
 C173 C 0.46337 0.21413 0.54664
 C174 C 0.46716 0.25920 0.55435
 C175 C 0.43442 0.26253 0.44442
 C176 C 0.43052 0.28192 0.41571
 C177 C 0.44446 0.29477 0.36068
 C178 C 0.46275 0.28819 0.33550
 C179 C 0.46691 0.26910 0.36466
 C180 C 0.44144 0.20171 0.36344
 C181 C 0.44542 0.18564 0.32014
 C182 C 0.46924 0.18532 0.31987
 C183 C 0.48884 0.20124 0.36360
 C184 C 0.48476 0.21706 0.40712
 C185 C 0.48377 0.21992 0.58975
 C186 C 0.48513 0.19984 0.62236
 C187 C 0.46593 0.17320 0.61283
 C188 C 0.44572 0.16750 0.56877
 C189 C 0.44432 0.18770 0.53652
 C190 C 0.48914 0.28369 0.54184
 C191 C 0.49567 0.30511 0.58247
 C192 C 0.48016 0.30265 0.63602
 C193 C 0.45796 0.27792 0.64811
 C194 C 0.45174 0.25640 0.60791
 H195 H 0.42299 0.25249 0.48601
 H196 H 0.41641 0.28674 0.43615
 H197 H 0.47442 0.29825 0.29427
 H198 H 0.48142 0.26476 0.34475
 H199 H 0.42320 0.20212 0.36232
 H200 H 0.43017 0.17414 0.28596
 H201 H 0.50036 0.22952 0.43967
 H202 H 0.49885 0.24013 0.59809
 H203 H 0.50153 0.20568 0.65409
 H204 H 0.43062 0.14733 0.55991
 H205 H 0.42813 0.18269 0.50427
 H206 H 0.50158 0.28603 0.50135
 H207 H 0.51295 0.32371 0.57180
 H208 H 0.44572 0.27459 0.68940
 H209 H 0.43498 0.23745 0.61877
 H210 H 0.50743 0.20152 0.36390
 C211 C 0.76972 0.22136 0.52870
 C212 C 0.76681 0.22026 0.46399
 C213 C 0.74499 0.19726 0.43132
 C214 C 0.78453 0.24228 0.42206
 C215 C 0.78911 0.24593 0.56210
 C216 C 0.75223 0.19842 0.56891
 C217 C 0.75049 0.18397 0.38300
 C218 C 0.73017 0.16288 0.35044
 C219 C 0.70396 0.15470 0.36537
 C220 C 0.69846 0.16823 0.41356
 C221 C 0.71882 0.18937 0.44606
 C222 C 0.81175 0.25264 0.42388
 C223 C 0.82802 0.27328 0.38353
 C224 C 0.81722 0.28364 0.34005
 C225 C 0.78997 0.27303 0.33829
 C226 C 0.77380 0.25252 0.37861
 C227 C 0.79012 0.27009 0.55038
 C228 C 0.80890 0.29318 0.58035
 C229 C 0.82674 0.29268 0.62427
 C230 C 0.82516 0.26818 0.63724
 C231 C 0.80651 0.24514 0.60650
 C232 C 0.73766 0.20159 0.61784
 C233 C 0.71824 0.17965 0.64952
 C234 C 0.71307 0.15411 0.63273
 C235 C 0.72847 0.15105 0.58590
 C236 C 0.74825 0.17305 0.55512
 H237 H 0.77056 0.18997 0.37052
 H238 H 0.73497 0.15302 0.31312
 H239 H 0.67860 0.16318 0.42526
 H240 H 0.71421 0.19985 0.48213
 H241 H 0.82037 0.24476 0.45658
 H242 H 0.84888 0.28104 0.38735
 H243 H 0.75283 0.24477 0.37635
 H244 H 0.77641 0.27113 0.51767
 H245 H 0.80930 0.31151 0.56936
 H246 H 0.83842 0.26643 0.66978
 H247 H 0.80595 0.22667 0.61658
 H248 H 0.74038 0.22094 0.62924
 H249 H 0.70641 0.18264 0.68466
 H250 H 0.72488 0.13158 0.57236
 H251 H 0.75963 0.17020 0.51839
 H252 H 0.78111 0.28065 0.30552
 O253 O 0.98671 0.51951 -0.10279
 O254 O 1.01458 0.52928 0.11528
 O255 O 0.95605 0.50503 0.04230
 O256 O 1.04541 0.54447 -0.02341
 O257 O 0.97016 0.49709 0.12767
 O258 O 1.03012 0.52727 -0.11435
 O259 O 1.04974 0.53202 0.08122
 O260 O 0.94979 0.49053 -0.06709
 C261 C 0.96305 0.51122 -0.09780
 C262 C 1.03852 0.54216 0.11124
 C263 C 0.95959 0.50835 0.10042
 C264 C 1.04363 0.54738 -0.08090
 O265 O 1.01110 0.47357 -0.10871
 O266 O 0.98311 0.45843 0.10872
 O267 O 0.95140 0.44667 -0.03139
 O268 O 1.04059 0.48420 0.03344
 O269 O 1.02770 0.49019 0.12317
 O270 O 0.96752 0.46665 -0.11864
 O271 O 1.04758 0.50238 -0.07124
 O272 O 0.94787 0.45643 0.07729
 Co273 Co 0.99890 0.49658 -0.09987
 Co274 Co 0.99889 0.49392 0.10750
 Co275 Co 0.95595 0.47675 0.00528
 Co276 Co 1.04112 0.51365 0.00509
 O277 O 0.99867 0.49526 0.00437
 C278 C 1.03466 0.48157 -0.10215
 C279 C 0.95918 0.44548 0.10273
 C280 C 0.95416 0.44552 -0.08939
 C281 C 1.03827 0.47991 0.09107
 O282 O 0.49136 0.47166 -0.11570
 O283 O 0.48532 0.51134 0.14802
 O284 O 0.50590 0.45773 0.04970
 O285 O 0.45256 0.49398 -0.03474
 O286 O 0.48127 0.46896 0.10182
 O287 O 0.47442 0.50335 -0.12162
 O288 O 0.45897 0.49529 0.07338
 O289 O 0.52079 0.46796 -0.06074
 C290 C 0.50193 0.45858 -0.09966
 C291 C 0.46245 0.50187 0.13020
 C292 C 0.48611 0.45144 0.08339
 C293 C 0.45297 0.49276 -0.09341
 O294 O 0.52152 0.54266 -0.10770
 O295 O 0.52091 0.49839 0.16847
 O296 O 0.55735 0.51675 -0.02185
 O297 O 0.50060 0.54710 0.06564
 O298 O 0.53045 0.53847 0.10197
 O299 O 0.53984 0.51171 -0.11448
 O300 O 0.49140 0.54485 -0.04983
 O301 O 0.54539 0.50616 0.08587
 Co302 Co 0.50656 0.50698 -0.10392
 Co303 Co 0.50632 0.50351 0.09800
 Co304 Co 0.52988 0.48845 0.01253
 Co305 Co 0.47816 0.51922 0.01325
 O306 O 0.50401 0.50454 0.00077
 C307 C 0.51032 0.55500 -0.08895
 C308 C 0.54114 0.49863 0.14311
 C309 C 0.55986 0.52024 -0.08009
 C310 C 0.52253 0.55466 0.09288
 O311 O 0.53228 0.02523 -0.12286
 O312 O 0.49822 -0.02407 0.11753
 O313 O 0.53977 0.03017 0.07407
 O314 O 0.47310 -0.05411 -0.07202
 O315 O 0.50981 0.02289 0.13727
 O316 O 0.50750 -0.02336 -0.11497
 O317 O 0.49849 -0.04295 0.02897
 O318 O 0.55169 0.04006 -0.03219
 C319 C 0.55280 0.03736 -0.09047
 C320 C 0.50530 -0.03789 0.08576
 C321 C 0.53317 0.03031 0.12927
 C322 C 0.49259 -0.04729 -0.10654
 O323 O 0.46196 -0.02159 -0.12274
 O324 O 0.46708 0.01501 0.08148
 O325 O 0.51737 0.05678 -0.05243
 O326 O 0.44947 -0.06718 0.04047
 O327 O 0.45036 -0.03253 0.08168
 O328 O 0.48979 0.02840 -0.12302
 O329 O 0.44461 -0.03497 -0.02963
 O330 O 0.50457 0.04987 0.06019
 Co331 Co 0.49740 0.00171 -0.11029
 Co332 Co 0.48288 -0.00431 0.09415
 Co333 Co 0.52566 0.04080 0.01224
 Co334 Co 0.47263 -0.03723 0.00070
 O335 O 0.49646 0.00194 -0.00596
 C336 C 0.44199 -0.03226 -0.08749
 C337 C 0.48064 0.03949 0.07583
 C338 C 0.50238 0.05143 -0.10031
 C339 C 0.44279 -0.05685 0.08745
 C340 C 1.14249 0.45812 0.35302
 C341 C 1.12711 0.44326 0.30118
 C342 C 1.10729 0.44859 0.27290
 N343 N 1.09825 0.43984 0.21310
 N344 N 1.08121 0.44559 0.18582
 C345 C 1.07241 0.46008 0.21766
 N346 N 1.08107 0.46839 0.27786
 N347 N 1.09825 0.46281 0.30494
 C348 C 1.05493 0.46807 0.18723
 C349 C 1.05100 0.46656 0.12151
 H350 H 1.13055 0.42884 0.27699
 H351 H 1.04708 0.47789 0.21671
 H352 H 1.13889 0.47355 0.37104
 H353 H 1.05968 0.45776 0.09133
 C354 C 0.53914 0.69859 0.27674
 C355 C 0.55277 0.68459 0.27974
 C356 C 0.54798 0.66365 0.23304
 N357 N 0.55946 0.64852 0.24052
 N358 N 0.55398 0.62851 0.20066
 C359 C 0.53689 0.62301 0.15171
 N360 N 0.52572 0.63835 0.14378
 N361 N 0.53118 0.65831 0.18357
 C362 C 0.52837 0.59950 0.11115
 C363 C 0.53722 0.58149 0.11951
 H364 H 0.56611 0.68776 0.31851
 H365 H 0.51265 0.59495 0.07765
 H366 H 0.52540 0.69413 0.23794
 H367 H 0.55348 0.58614 0.15121
 C368 C 0.31295 -0.17131 0.31738
 C369 C 0.33953 -0.15620 0.33180
 C370 C 0.35854 -0.14218 0.28115
 N371 N 0.38015 -0.11873 0.29379
 N372 N 0.39680 -0.10527 0.24731
 C373 C 0.39258 -0.11496 0.18676
 N374 N 0.37130 -0.13870 0.17443
 N375 N 0.35447 -0.15199 0.22074
 C376 C 0.41038 -0.09988 0.13499
 C377 C 0.42452 -0.07253 0.13766
 H378 H 0.34639 -0.15230 0.38056
 H379 H 0.41122 -0.11026 0.09277
 H380 H 0.30718 -0.17128 0.26829
 H381 H 0.42189 -0.06215 0.17755
 C382 C 0.84638 0.54519 0.28441
 C383 C 0.87307 0.55436 0.29276
 C384 C 0.88837 0.54883 0.24532
 N385 N 0.91213 0.55200 0.26134
 N386 N 0.92546 0.54554 0.22030
 C387 C 0.91563 0.53585 0.16145
 N388 N 0.89211 0.53317 0.14497
 N389 N 0.87870 0.53948 0.18616
 C390 C 0.92926 0.52678 0.11743
 C391 C 0.94923 0.52238 0.13872
 H392 H 0.88250 0.56375 0.33719
 H393 H 0.92174 0.52099 0.06940
 H394 H 0.83700 0.53402 0.24159
 H395 H 0.95565 0.52680 0.18787
 C396 C 0.44062 0.31579 0.33210
 C397 C 0.44425 0.32150 0.26717
 C398 C 0.44496 0.34496 0.23939
 N399 N 0.44959 0.34950 0.17613
 N400 N 0.45276 0.37171 0.15061
 C401 C 0.45139 0.39029 0.18733
 N402 N 0.44626 0.38555 0.25050
 N403 N 0.44310 0.36329 0.27610
 C404 C 0.45821 0.41628 0.16088
 C405 C 0.46980 0.42373 0.10099
 H406 H 0.44785 0.30890 0.23540
 H407 H 0.45779 0.43094 0.19221
 H408 H 0.43480 0.32699 0.36295
 H409 H 0.47145 0.40933 0.07129
 C410 C 0.68318 0.13314 0.32703
 C411 C 0.65678 0.11957 0.34403
 C412 C 0.63663 0.10053 0.30038
 N413 N 0.61098 0.08897 0.31676
 N414 N 0.59248 0.07285 0.27614
 C415 C 0.59898 0.06767 0.21769
 N416 N 0.62463 0.07899 0.20162
 N417 N 0.64311 0.09511 0.24218
 C418 C 0.57892 0.05162 0.17027
 C419 C 0.55226 0.04131 0.18151
 H420 H 0.65039 0.12328 0.38940
 H421 H 0.58549 0.04952 0.12336
 H422 H 0.68904 0.12784 0.28274
 H423 H 0.54540 0.04303 0.22833
 C424 C 0.46611 0.15216 -0.35475
 C425 C 0.48341 0.15508 -0.30539
 C426 C 0.48299 0.13249 -0.27334
 N427 N 0.49904 0.13682 -0.22283
 N428 N 0.49931 0.11679 -0.19347
 C429 C 0.48355 0.09160 -0.21354
 N430 N 0.46748 0.08723 -0.26410
 N431 N 0.46717 0.10729 -0.29344
 C432 C 0.48417 0.06936 -0.18234
 C433 C 0.49989 0.07300 -0.12922
 H434 H 0.49751 0.17431 -0.28752
 H435 H 0.47238 0.04979 -0.20236
 H436 H 0.45143 0.13227 -0.36786
 H437 H 0.51140 0.09254 -0.10883
 C438 C 0.69818 0.56044 -0.32775
 C439 C 0.68659 0.54718 -0.27133
 C440 C 0.66255 0.54560 -0.24549
 N441 N 0.65591 0.53846 -0.18397
 N442 N 0.63356 0.53551 -0.16039
 C443 C 0.61684 0.53936 -0.19756
 N444 N 0.62341 0.54642 -0.25927
 N445 N 0.64593 0.54960 -0.28277
 C446 C 0.59131 0.53429 -0.17248
 C447 C 0.58624 0.53144 -0.10728
 H448 H 0.69556 0.53827 -0.24336
 H449 H 0.57602 0.53144 -0.20568
 H450 H 0.69048 0.57215 -0.34892
 H451 H 0.60210 0.53567 -0.07451
 C452 C 0.84539 0.31666 -0.34733
 C453 C 0.86259 0.31914 -0.29818
 C454 C 0.88139 0.34496 -0.27046
 N455 N 0.89318 0.34609 -0.21406
 N456 N 0.90985 0.36922 -0.18766
 C457 C 0.91557 0.39215 -0.21693
 N458 N 0.90406 0.39103 -0.27380
 N459 N 0.88723 0.36788 -0.30000
 C460 C 0.93325 0.41786 -0.18704
 C461 C 0.93960 0.42000 -0.12248
 H462 H 0.86167 0.30200 -0.27635
 H463 H 0.93971 0.43555 -0.21499
 H464 H 0.84605 0.33460 -0.36356
 H465 H 0.93160 0.40239 -0.09367
 C466 C 0.55041 -0.13986 -0.32602
 C467 C 0.53553 -0.14265 -0.27171
 C468 C 0.53241 -0.12097 -0.24515
 N469 N 0.51466 -0.12612 -0.19823
 N470 N 0.51045 -0.10716 -0.17547
 C471 C 0.52385 -0.08231 -0.19871
 N472 N 0.54187 -0.07704 -0.24518
 N473 N 0.54600 -0.09606 -0.26821
 C474 C 0.51887 -0.06146 -0.17431
 C475 C 0.49764 -0.06744 -0.13464
 H476 H 0.52468 -0.16158 -0.24891
 H477 H 0.53186 -0.04126 -0.18821
 H478 H 0.56239 -0.12037 -0.34561
 H479 H 0.48424 -0.08778 -0.12258
 C480 C 0.32717 0.46406 -0.36763
 C481 C 0.32913 0.45293 -0.31075
 C482 C 0.35454 0.45964 -0.28234
 N483 N 0.35548 0.45188 -0.22212
 N484 N 0.37837 0.45896 -0.19422
 C485 C 0.40119 0.47398 -0.22561
 N486 N 0.40026 0.48141 -0.28625
 N487 N 0.37735 0.47440 -0.31409
 C488 C 0.42656 0.48328 -0.19374
 C489 C 0.42808 0.48049 -0.12828
 H490 H 0.31177 0.44057 -0.28331
 H491 H 0.44431 0.49413 -0.22129
 H492 H 0.34497 0.47782 -0.39194
 H493 H 0.41028 0.47045 -0.10054
 C494 C 1.14234 0.68798 -0.31799
 C495 C 1.14484 0.67025 -0.27809
 C496 C 1.12221 0.64735 -0.25007
 N497 N 1.12546 0.63684 -0.19580
 N498 N 1.10557 0.61545 -0.17071
 C499 C 1.08172 0.60353 -0.19935
 N500 N 1.07848 0.61387 -0.25411
 N501 N 1.09836 0.63552 -0.27887
 C502 C 1.06022 0.57918 -0.17264
 C503 C 1.06059 0.57336 -0.10857
 H504 H 1.16393 0.67395 -0.26277
 H505 H 1.04463 0.56548 -0.20361
 H506 H 1.12300 0.68579 -0.32361
 H507 H 1.07519 0.58823 -0.07742
 C508 C 0.85653 0.55070 -0.30974
 C509 C 0.86898 0.53586 -0.32025
 C510 C 0.88421 0.53224 -0.26981
 N511 N 0.90476 0.52879 -0.28531
 N512 N 0.91809 0.52449 -0.24013
 C513 C 0.91112 0.52310 -0.17788
 N514 N 0.89036 0.52625 -0.16241
 N515 N 0.87727 0.53096 -0.20753
 C516 C 0.92474 0.51658 -0.12867
 C517 C 0.95071 0.52293 -0.13658
 H518 H 0.86890 0.52780 -0.36692
 H519 H 0.91401 0.50596 -0.08679
 H520 H 0.86099 0.56193 -0.26560
 H521 H 0.96198 0.53569 -0.17535
 C522 C 0.48787 0.32478 -0.32419
 C523 C 0.47256 0.32665 -0.27548
 C524 C 0.48205 0.35069 -0.23662
 N525 N 0.46468 0.35654 -0.20856
 N526 N 0.47300 0.37873 -0.17503
 C527 C 0.49900 0.39571 -0.16765
 N528 N 0.51639 0.38960 -0.19454
 N529 N 0.50807 0.36753 -0.22870
 C530 C 0.50827 0.42076 -0.13317
 C531 C 0.49280 0.43269 -0.12941
 H532 H 0.45250 0.31145 -0.26860
 H533 H 0.52816 0.43096 -0.11525
 H534 H 0.50662 0.34209 -0.33344
 H535 H 0.47387 0.42350 -0.15272
 C536 C 0.69047 0.13051 -0.34034
 C537 C 0.68146 0.13021 -0.27875
 C538 C 0.65665 0.10859 -0.25493
 N539 N 0.65127 0.10737 -0.19183
 N540 N 0.62823 0.08909 -0.16956
 C541 C 0.60955 0.07141 -0.20951
 N542 N 0.61492 0.07259 -0.27278
 N543 N 0.63810 0.09081 -0.29508
 C544 C 0.58337 0.05259 -0.18502
 C545 C 0.57887 0.04982 -0.11961
 H546 H 0.69281 0.14660 -0.24677
 H547 H 0.56730 0.04237 -0.21822
 H548 H 0.68066 0.11296 -0.36988
 H549 H 0.59536 0.05960 -0.08733
 C550 C 1.15958 0.45929 -0.28518
 C551 C 1.13244 0.44784 -0.29144
 C552 C 1.11696 0.45458 -0.24730
 N553 N 1.09082 0.44428 -0.25641
 N554 N 1.07693 0.45125 -0.21849
 C555 C 1.08870 0.46879 -0.17005
 N556 N 1.11477 0.47891 -0.16071
 N557 N 1.12862 0.47193 -0.19852
 C558 C 1.07423 0.47808 -0.12990
 C559 C 1.04749 0.46894 -0.13663
 H560 H 1.12235 0.43487 -0.33116
 H561 H 1.08536 0.49357 -0.09550
 H562 H 1.16901 0.47283 -0.24579
 H563 H 1.03598 0.45300 -0.16962
 C564 C 0.52111 0.68284 -0.33255
 C565 C 0.53697 0.68055 -0.28614
 C566 C 0.52754 0.65732 -0.24480
 N567 N 0.54503 0.65337 -0.21131
 N568 N 0.53700 0.63239 -0.17409
 C569 C 0.51112 0.61469 -0.16830
 N570 N 0.49356 0.61884 -0.20099
 N571 N 0.50162 0.63975 -0.23866
 C572 C 0.50225 0.59070 -0.12990
 C573 C 0.51929 0.58131 -0.11527
 H574 H 0.55725 0.69541 -0.28068
 H575 H 0.48162 0.57886 -0.11899
 H576 H 0.50166 0.66614 -0.33928
 H577 H 0.53935 0.59202 -0.13184
 C578 C 0.30366 -0.13159 -0.33287
 C579 C 0.31248 -0.12883 -0.26986
 C580 C 0.33690 -0.10602 -0.24703
 N581 N 0.34199 -0.10287 -0.18359
 N582 N 0.36485 -0.08381 -0.16181
 C583 C 0.38364 -0.06719 -0.20262
 N584 N 0.37851 -0.07021 -0.26619
 N585 N 0.35553 -0.08923 -0.28802
 C586 C 0.40993 -0.04790 -0.17892
 C587 C 0.41532 -0.04428 -0.11374
 H588 H 0.30132 -0.14374 -0.23497
 H589 H 0.42570 -0.03832 -0.21299
 H590 H 0.31326 -0.11453 -0.36349
 H591 H 0.39932 -0.05353 -0.08013
 C592 C 0.53584 -0.13670 0.34852
 C593 C 0.54563 -0.12547 0.28913
 C594 C 0.54069 -0.10503 0.26234
 N595 N 0.54603 -0.09831 0.20010
 N596 N 0.54038 -0.08089 0.17429
 C597 C 0.52933 -0.06938 0.20989
 N598 N 0.52440 -0.07576 0.27240
 N599 N 0.52995 -0.09327 0.29814
 C600 C 0.52099 -0.05175 0.18098
 C601 C 0.52000 -0.04945 0.11510
 H602 H 0.55550 -0.13305 0.25924
 H603 H 0.51277 -0.04271 0.21189
 H604 H 0.52438 -0.13002 0.37540
 H605 H 0.52726 -0.05934 0.08404
 C606 C 0.30692 0.45247 0.30842
 C607 C 0.33132 0.47518 0.30470
 C608 C 0.35305 0.47626 0.26736
 N609 N 0.37782 0.49609 0.27779
 N610 N 0.39767 0.49775 0.24335
 C611 C 0.39345 0.47976 0.19680
 N612 N 0.36865 0.46002 0.18609
 N613 N 0.34882 0.45821 0.22094
 C614 C 0.41500 0.48205 0.15651
 C615 C 0.44117 0.49791 0.17354
 H616 H 0.33496 0.49251 0.33201
 H617 H 0.41014 0.47089 0.11229
 H618 H 0.30415 0.43430 0.28704
 H619 H 0.44620 0.50770 0.21959
 C620 C 1.16083 0.67326 0.34327
 C621 C 1.13459 0.66394 0.32773
 C622 C 1.12056 0.64197 0.28246
 N623 N 1.09467 0.63248 0.27144
 N624 N 1.08173 0.61261 0.23058
 C625 C 1.09423 0.60158 0.19900
 N626 N 1.12014 0.61117 0.20975
 N627 N 1.13307 0.63100 0.25068
 C628 C 1.08008 0.57907 0.15532
 C629 C 1.05304 0.56681 0.14759
 H630 H 1.12375 0.67254 0.34913
 H631 H 1.09105 0.57109 0.13134
 H632 H 1.17052 0.66314 0.32319
 H633 H 1.04193 0.57444 0.17240
 C634 C 0.47489 0.16962 0.27336
 C635 C 0.45567 0.14651 0.24460
 C636 C 0.46275 0.13061 0.20281
 N637 N 0.44478 0.10535 0.18810
 N638 N 0.45151 0.09036 0.15343
 C639 C 0.47642 0.10018 0.13183
 N640 N 0.49422 0.12556 0.14553
 N641 N 0.48753 0.14049 0.18041
 C642 C 0.48494 0.08350 0.09828
 C643 C 0.46941 0.05620 0.09430
 H644 H 0.43525 0.13884 0.25646
 H645 H 0.50505 0.09276 0.08210
 H646 H 0.49527 0.17561 0.26473
 H647 H 0.44936 0.04675 0.11092
 C648 C 0.67682 0.53453 0.37296
 C649 C 0.65598 0.51008 0.35557
 C650 C 0.63169 0.50757 0.32954
 N651 N 0.61742 0.48808 0.28707
 N652 N 0.59605 0.48638 0.26058
 C653 C 0.58795 0.50385 0.27645
 N654 N 0.60185 0.52295 0.32015
 N655 N 0.62344 0.52488 0.34598
 C656 C 0.56555 0.50322 0.24402
 C657 C 0.56081 0.49602 0.18009
 H658 H 0.65841 0.49284 0.35534
 H659 H 0.55476 0.51143 0.26788
 H660 H 0.67533 0.55211 0.36530
 H661 H 0.57376 0.49090 0.15450
 C662 C 0.83330 0.30575 0.29678
 C663 C 0.86003 0.31594 0.28622
 C664 C 0.87478 0.33868 0.24438
 N665 N 0.90111 0.34947 0.23888
 N666 N 0.91476 0.37062 0.20276
 C667 C 0.90255 0.38167 0.17066
 N668 N 0.87622 0.37074 0.17568
 N669 N 0.86259 0.34965 0.21187
 C670 C 0.91737 0.40577 0.13330
 C671 C 0.94459 0.41943 0.13204
 H672 H 0.87067 0.30754 0.30912
 H673 H 0.90655 0.41380 0.10924
 H674 H 0.82336 0.31442 0.27141
 H675 H 0.95554 0.41160 0.15624
   
