data_POSCAR
  _audit_creation_date              2014-09-24
  _audit_creation_method            'ToBaCCo'
  _symmetry_space_group_name_H-M    'P1'
  _symmetry_Int_Tables_number       1
  _symmetry_cell_setting            triclinic
  loop_
  _symmetry_equiv_pos_as_xyz
 x,y,z
_cell_length_a 39.5496
_cell_length_b 40.8014
_cell_length_c 42.0000
_cell_angle_alpha 89.531400
_cell_angle_beta 90.113300
_cell_angle_gamma 89.992100
loop_
  _atom_site_label
  _atom_site_type_symbol
  _atom_site_fract_x
  _atom_site_fract_y
  _atom_site_fract_z
O1 O 0.30550 0.35385 0.03338
 O2 O 0.35286 0.32103 -0.03456
 O3 O 0.30055 0.35303 -0.03068
 O4 O 0.36354 0.31918 0.02359
 O5 O 0.33158 0.27537 0.03102
 O6 O 0.26839 0.30915 -0.02534
 O7 O 0.32372 0.27494 -0.03007
 O8 O 0.27466 0.30896 0.03665
 Cu9 Cu 0.33253 0.34194 -0.00078
 Cu10 Cu 0.29642 0.28758 0.00383
 C11 C 0.28158 0.33761 0.04608
 C12 C 0.34643 0.29212 -0.04370
 C13 C 0.27456 0.33663 -0.03852
 C14 C 0.35911 0.29085 0.03541
 O15 O 0.63257 0.68621 -0.04588
 O16 O 0.65167 0.62947 0.02105
 O17 O 0.60960 0.68064 0.01126
 O18 O 0.66080 0.63041 -0.04084
 O19 O 0.70656 0.65792 -0.02708
 O20 O 0.65407 0.70908 0.02689
 O21 O 0.69478 0.66050 0.03522
 O22 O 0.67550 0.71702 -0.03076
 Cu23 Cu 0.63455 0.65366 -0.01395
 Cu24 Cu 0.68734 0.68852 0.00162
 C25 C 0.65099 0.71161 -0.04948
 C26 C 0.67689 0.63505 0.03918
 C27 C 0.62236 0.70334 0.02772
 C28 C 0.69231 0.63504 -0.04285
 O29 O 0.65925 0.38122 0.98174
 O30 O 0.62340 0.33069 1.04609
 O31 O 0.66984 0.37342 1.04309
 O32 O 0.61308 0.33384 0.98585
 O33 O 0.65258 0.29735 0.97507
 O34 O 0.70894 0.33611 1.03382
 O35 O 0.66095 0.29189 1.03649
 O36 O 0.69900 0.34438 0.97321
 Cu37 Cu 0.63764 0.35888 1.01445
 Cu38 Cu 0.68420 0.31367 1.00346
 C39 C 0.68576 0.37220 0.96727
 C40 C 0.63588 0.30274 1.05227
 C41 C 0.69879 0.36113 1.04880
 C42 C 0.62271 0.30822 0.97152
 O43 O 0.31597 0.64577 0.95812
 O44 O 0.37816 0.68059 1.01288
 O45 O 0.33214 0.63477 1.01724
 O46 O 0.36003 0.69181 0.95486
 O47 O 0.32356 0.72904 0.97121
 O48 O 0.29274 0.67018 1.03111
 O49 O 0.33991 0.71565 1.03013
 O50 O 0.27817 0.68277 0.97211
 Cu51 Cu 0.35039 0.65954 0.98439
 Cu52 Cu 0.30482 0.70309 1.00295
 C53 C 0.28680 0.65846 0.95523
 C54 C 0.36982 0.70414 1.03069
 C55 C 0.30687 0.64237 1.03420
 C56 C 0.34680 0.72009 0.95243
 O57 O 0.04027 0.32167 0.34842
 O58 O -0.01813 0.38412 0.31704
 O59 O -0.01990 0.34103 0.36327
 O60 O 0.04203 0.36405 0.30169
 O61 O 0.01893 0.32887 0.26845
 O62 O -0.04036 0.30321 0.33126
 O63 O -0.04181 0.34726 0.28590
 O64 O 0.01971 0.28528 0.31494
 Cu65 Cu 0.01330 0.35643 0.33575
 Cu66 Cu -0.01304 0.31257 0.29671
 C67 C 0.03980 0.29277 0.33739
 C68 C -0.04019 0.37635 0.29648
 C69 C -0.04013 0.31751 0.35805
 C70 C 0.04075 0.35077 0.27445
 O71 O 0.05540 0.68759 0.64647
 O72 O -0.00639 0.62771 0.67747
 O73 O -0.00637 0.67160 0.63168
 O74 O 0.05625 0.64255 0.68961
 O75 O 0.03876 0.67859 0.72491
 O76 O -0.02329 0.70894 0.66586
 O77 O -0.02400 0.66416 0.71227
 O78 O 0.03785 0.72414 0.68128
 Cu79 Cu 0.02629 0.65366 0.65784
 Cu80 Cu 0.00517 0.69749 0.69960
 C81 C 0.05725 0.71599 0.65865
 C82 C -0.02527 0.63554 0.70061
 C83 C -0.02475 0.69599 0.63840
 C84 C 0.05850 0.65556 0.71687
 O85 O 1.03763 0.61728 0.33787
 O86 O 0.97647 0.65755 0.38881
 O87 O 0.97352 0.61393 0.34364
 O88 O 1.03937 0.67161 0.37052
 O89 O 1.02712 0.70467 0.33027
 O90 O 0.95984 0.64898 0.30537
 O91 O 0.96523 0.69399 0.35113
 O92 O 1.02484 0.65062 0.29787
 Cu93 Cu 1.00805 0.63754 0.36412
 Cu94 Cu 0.99256 0.67787 0.31794
 C95 C 1.04145 0.62633 0.30926
 C96 C 0.96102 0.68295 0.37935
 C97 C 0.95579 0.62161 0.31933
 C98 C 1.04472 0.69793 0.35466
 O99 O 0.97001 0.36117 0.60668
 O100 O 1.02913 0.40196 0.66094
 O101 O 1.03543 0.36195 0.61259
 O102 O 0.96461 0.40084 0.65437
 O103 O 0.96342 0.35964 0.68881
 O104 O 1.03190 0.31878 0.64443
 O105 O 1.02901 0.35871 0.69296
 O106 O 0.96636 0.31936 0.64022
 Cu107 Cu 1.00023 0.38562 0.63026
 Cu108 Cu 0.99739 0.33481 0.66990
 C109 C 0.95799 0.33338 0.61422
 C110 C 1.03881 0.38760 0.68627
 C111 C 1.04521 0.33344 0.62074
 C112 C 0.95261 0.38739 0.67921
 O113 O 0.32197 -0.01640 0.36884
 O114 O 0.34818 0.05008 0.31493
 O115 O 0.30193 0.04391 0.35765
 O116 O 0.36787 -0.00910 0.32439
 O117 O 0.33115 -0.02910 0.28992
 O118 O 0.26597 0.02717 0.32097
 O119 O 0.31435 0.03050 0.27766
 O120 O 0.28445 -0.03344 0.33367
 Cu121 Cu 0.33839 0.01870 0.34534
 Cu122 Cu 0.29504 -0.00293 0.30208
 C123 C 0.29871 -0.03607 0.36071
 C124 C 0.33675 0.05076 0.28673
 C125 C 0.27294 0.04516 0.34463
 C126 C 0.36096 -0.02771 0.30120
 O127 O 0.62033 0.03134 0.67117
 O128 O 0.66726 -0.02989 0.62623
 O129 O 0.63321 -0.03132 0.67884
 O130 O 0.65908 0.03266 0.62133
 O131 O 0.70383 0.04283 0.65120
 O132 O 0.67858 -0.02149 0.70797
 O133 O 0.71308 -0.01994 0.65475
 O134 O 0.66491 0.04071 0.70155
 Cu135 Cu 0.64030 -0.00027 0.64668
 Cu136 Cu 0.69460 0.01153 0.68188
 C137 C 0.63431 0.04642 0.69390
 C138 C 0.69820 -0.03494 0.63223
 C139 C 0.65165 -0.03746 0.70306
 C140 C 0.68629 0.04835 0.62638
 O141 O 0.30016 1.03790 0.64232
 O142 O 0.35767 0.97249 0.66806
 O143 O 0.30081 0.97435 0.63755
 O144 O 0.35620 1.03547 0.67497
 O145 O 0.32772 1.02989 0.71987
 O146 O 0.27179 0.96916 0.68216
 O147 O 0.32914 0.96690 0.71295
 O148 O 0.27080 1.03287 0.68672
 Cu149 Cu 0.33145 1.00571 0.65122
 Cu150 Cu 0.29690 0.99936 0.70495
 C151 C 0.27552 1.04640 0.65972
 C152 C 0.35345 0.95866 0.69489
 C153 C 0.27700 0.96120 0.65345
 C154 C 0.35188 1.04247 0.70407
 O155 O 0.64887 1.03245 0.38989
 O156 O 0.61311 0.96114 0.34936
 O157 O 0.65575 0.96974 0.39543
 O158 O 0.60809 1.02478 0.34194
 O159 O 0.65074 1.02543 0.30807
 O160 O 0.69807 0.96959 0.36117
 O161 O 0.65487 0.96205 0.31450
 O162 O 0.69203 1.03270 0.35661
 Cu163 Cu 0.62706 0.99700 0.37238
 Cu164 Cu 0.67817 0.99753 0.33161
 C165 C 0.67689 1.04428 0.38079
 C166 C 0.62767 0.94947 0.32510
 C167 C 0.68519 0.96051 0.38749
 C168 C 0.62124 1.03448 0.31596
 C169 C 0.93237 0.78114 0.48928
 C170 C 0.93376 0.78186 0.52194
 C171 C 0.90420 0.79672 0.53204
 N172 N 0.88484 0.80511 0.50665
 C173 C 0.90202 0.79562 0.48047
 C174 C 0.89481 0.80146 0.56420
 C175 C 0.86867 0.82300 0.57326
 C176 C 0.85432 0.82399 0.60338
 C177 C 0.83235 0.85006 0.60346
 C178 C 0.83380 0.86421 0.57339
 N179 N 0.85600 0.84762 0.55511
 C180 C 0.81617 0.89276 0.56410
 C181 C 0.81223 0.90250 0.53198
 C182 C 0.79981 0.93259 0.52183
 C183 C 0.79749 0.93115 0.48929
 C184 C 0.80851 0.90021 0.48068
 N185 N 0.81753 0.88276 0.50681
 C186 C 0.80817 0.88773 0.44940
 C187 C 0.82595 0.85917 0.44060
 C188 C 0.82217 0.84324 0.41177
 C189 C 0.84530 0.81808 0.41160
 C190 C 0.86248 0.81924 0.44038
 N191 N 0.85062 0.84440 0.45788
 C192 C 0.88988 0.79873 0.44884
 H193 H 0.95172 0.77139 0.47384
 H194 H 0.95444 0.77286 0.53647
 H195 H 0.86143 0.85320 0.47870
 H196 H 0.85942 0.80783 0.62338
 H197 H 0.81721 0.85783 0.62347
 H198 H 0.79301 0.95336 0.53635
 H199 H 0.78866 0.95067 0.47378
 H200 H 0.84914 0.80100 0.39236
 H201 H 0.86497 0.85502 0.53295
 H202 H 0.80478 0.84926 0.39267
 C203 C 0.23652 0.10515 0.48095
 C204 C 0.23712 0.10396 0.51351
 C205 C 0.21956 0.13124 0.52398
 N206 N 0.20812 0.14901 0.49883
 C207 C 0.21856 0.13307 0.47249
 C208 C 0.21721 0.14072 0.55619
 C209 C 0.19542 0.16585 0.56682
 C210 C 0.19681 0.18023 0.59660
 C211 C 0.17111 0.20294 0.59762
 C212 C 0.15494 0.20206 0.56831
 N213 N 0.16964 0.17913 0.54983
 C214 C 0.12681 0.22156 0.55966
 C215 C 0.11589 0.22563 0.52773
 C216 C 0.08568 0.24017 0.51853
 C217 C 0.08636 0.24268 0.48600
 C218 C 0.11669 0.22909 0.47626
 N219 N 0.13476 0.21863 0.50179
 C220 C 0.12833 0.22924 0.44449
 C221 C 0.15551 0.20955 0.43399
 C222 C 0.17202 0.21310 0.40504
 C223 C 0.19639 0.18901 0.40396
 C224 C 0.19429 0.17163 0.43237
 N225 N 0.16899 0.18395 0.45031
 C226 C 0.21531 0.14500 0.44100
 H227 H 0.24854 0.08776 0.46527
 H228 H 0.24958 0.08537 0.52785
 H229 H 0.15979 0.17390 0.47141
 H230 H 0.21460 0.17514 0.61561
 H231 H 0.16530 0.21864 0.61752
 H232 H 0.06535 0.24852 0.53365
 H233 H 0.06679 0.25338 0.47116
 H234 H 0.21400 0.18510 0.38466
 H235 H 0.16065 0.17106 0.52797
 H236 H 0.16733 0.23132 0.38670
 C237 C 0.12073 0.73798 0.52533
 C238 C 0.11736 0.73537 0.49305
 C239 C 0.14107 0.75633 0.47959
 N240 N 0.15883 0.77169 0.50261
 C241 C 0.14636 0.76048 0.53060
 C242 C 0.14734 0.75913 0.44660
 C243 C 0.16771 0.78407 0.43304
 C244 C 0.18002 0.78420 0.40214
 C245 C 0.19741 0.81318 0.39805
 C246 C 0.19536 0.82987 0.42661
 N247 N 0.17699 0.81208 0.44769
 C248 C 0.20912 0.86126 0.43227
 C249 C 0.21223 0.87436 0.46326
 C250 C 0.21908 0.90691 0.47001
 C251 C 0.22399 0.90865 0.50224
 C252 C 0.21935 0.87725 0.51424
 N253 N 0.21212 0.85628 0.49042
 C254 C 0.22471 0.86803 0.54630
 C255 C 0.21239 0.83829 0.55943
 C256 C 0.22167 0.82502 0.58871
 C257 C 0.20268 0.79701 0.59303
 C258 C 0.18281 0.79371 0.56607
 N259 N 0.18858 0.81909 0.54590
 C260 C 0.15943 0.76820 0.56089
 H261 H 0.10618 0.72456 0.54292
 H262 H 0.09955 0.71965 0.48091
 H263 H 0.17477 0.82456 0.52543
 H264 H 0.17689 0.76537 0.38438
 H265 H 0.21021 0.82097 0.37653
 H266 H 0.22075 0.92730 0.45346
 H267 H 0.23028 0.93054 0.51538
 H268 H 0.20372 0.78072 0.61348
 H269 H 0.16846 0.82006 0.46971
 H270 H 0.24020 0.83437 0.60529
 C271 C 0.77432 0.09357 0.48051
 C272 C 0.77504 0.09433 0.51314
 C273 C 0.78570 0.12548 0.52146
 N274 N 0.79154 0.14372 0.49504
 C275 C 0.78457 0.12427 0.46998
 C276 C 0.78865 0.13722 0.55292
 C277 C 0.80743 0.16555 0.56051
 C278 C 0.80660 0.18128 0.58965
 C279 C 0.83082 0.20546 0.58853
 C280 C 0.84573 0.20384 0.55873
 N281 N 0.83127 0.17953 0.54178
 C282 C 0.87387 0.22262 0.54888
 C283 C 0.88402 0.22481 0.51667
 C284 C 0.91520 0.23591 0.50613
 C285 C 0.91413 0.23539 0.47348
 C286 C 0.88227 0.22414 0.46514
 N287 N 0.86395 0.21762 0.49159
 C288 C 0.86990 0.22103 0.43367
 C289 C 0.84127 0.20183 0.42624
 C290 C 0.82451 0.20228 0.39718
 C291 C 0.80087 0.17758 0.39825
 C292 C 0.80378 0.16281 0.42797
 N293 N 0.82835 0.17779 0.44491
 C294 C 0.78597 0.13455 0.43779
 H295 H 0.76738 0.07265 0.46623
 H296 H 0.76885 0.07407 0.52886
 H297 H 0.83870 0.16931 0.46621
 H298 H 0.79064 0.17557 0.60984
 H299 H 0.83709 0.22198 0.60769
 H300 H 0.93669 0.24314 0.52043
 H301 H 0.93472 0.24206 0.45780
 H302 H 0.78387 0.17091 0.37914
 H303 H 0.84015 0.17030 0.52037
 H304 H 0.82925 0.21831 0.37702
 C305 C 0.51511 0.90183 0.75702
 C306 C 0.48125 0.90440 0.76339
 C307 C 0.47133 0.87449 0.77616
 N308 N 0.49815 0.85399 0.77840
 C309 C 0.52494 0.87072 0.76681
 C310 C 0.43762 0.86552 0.78328
 C311 C 0.42937 0.83592 0.79892
 C312 C 0.39756 0.82168 0.79897
 C313 C 0.39999 0.79356 0.81707
 C314 C 0.43312 0.79168 0.82788
 N315 N 0.45082 0.81766 0.81679
 C316 C 0.44563 0.76738 0.84891
 C317 C 0.48027 0.76253 0.85549
 C318 C 0.49261 0.74238 0.87959
 C319 C 0.52707 0.74279 0.87707
 C320 C 0.53474 0.76315 0.85148
 N321 N 0.50605 0.77513 0.83824
 C322 C 0.56763 0.76801 0.83928
 C323 C 0.57490 0.79007 0.81409
 C324 C 0.60405 0.78972 0.79585
 C325 C 0.60093 0.81477 0.77375
 C326 C 0.57015 0.82995 0.77942
 N327 N 0.55473 0.81501 0.80432
 C328 C 0.55767 0.85769 0.76269
 H329 H 0.53078 0.92076 0.74650
 H330 H 0.46575 0.92575 0.75872
 H331 H 0.53304 0.82311 0.81574
 H332 H 0.37503 0.83044 0.78695
 H333 H 0.37959 0.77656 0.82183
 H334 H 0.47829 0.72866 0.89712
 H335 H 0.54442 0.72918 0.89211
 H336 H 0.61933 0.82117 0.75570
 H337 H 0.47504 0.82443 0.82379
 H338 H 0.62512 0.77291 0.79796
 C339 C 0.47972 0.06398 0.21882
 C340 C 0.51424 0.06477 0.22108
 C341 C 0.52547 0.08806 0.19922
 N342 N 0.49881 0.10087 0.18320
 C343 C 0.47083 0.08655 0.19548
 C344 C 0.55988 0.09559 0.19304
 C345 C 0.57020 0.11721 0.16840
 C346 C 0.60214 0.11784 0.15485
 C347 C 0.60231 0.14323 0.13304
 C348 C 0.57066 0.15787 0.13422
 N349 N 0.55134 0.14187 0.15595
 C350 C 0.56167 0.18715 0.11788
 C351 C 0.52847 0.20032 0.11814
 C352 C 0.51958 0.23192 0.10899
 C353 C 0.48511 0.23411 0.11170
 C354 C 0.47370 0.20338 0.12095
 N355 N 0.50029 0.18290 0.12512
 C356 C 0.43932 0.19372 0.12313
 C357 C 0.42934 0.16303 0.13573
 C358 C 0.39783 0.14884 0.13106
 C359 C 0.39735 0.12036 0.14865
 C360 C 0.42852 0.11792 0.16362
 N361 N 0.44791 0.14400 0.15561
 C362 C 0.43734 0.09292 0.18552
 H363 H 0.46313 0.04836 0.23268
 H364 H 0.52916 0.04919 0.23661
 H365 H 0.47072 0.15058 0.16607
 H366 H 0.62324 0.10181 0.16011
 H367 H 0.62374 0.15069 0.11874
 H368 H 0.53583 0.25173 0.10135
 H369 H 0.47033 0.25592 0.10701
 H370 H 0.37632 0.10347 0.15037
 H371 H 0.52819 0.14965 0.16468
 H372 H 0.37725 0.15803 0.11650
 C373 C 0.50903 0.24571 0.88927
 C374 C 0.47507 0.24057 0.89352
 C375 C 0.46865 0.20856 0.88448
 N376 N 0.49779 0.19376 0.87590
 C377 C 0.52262 0.21627 0.87914
 C378 C 0.43713 0.19235 0.88687
 C379 C 0.43016 0.16241 0.87152
 C380 C 0.40111 0.14392 0.87611
 C381 C 0.40195 0.11903 0.85429
 C382 C 0.43169 0.12273 0.83718
 N383 N 0.44858 0.14937 0.84766
 C384 C 0.44131 0.10311 0.81117
 C385 C 0.47507 0.10097 0.80019
 C386 C 0.48607 0.07998 0.77662
 C387 C 0.52052 0.08304 0.77525
 C388 C 0.52966 0.10609 0.79783
 N389 N 0.50181 0.11655 0.81337
 C390 C 0.56337 0.11506 0.80549
 C391 C 0.57183 0.13870 0.82865
 C392 C 0.60395 0.14302 0.84128
 C393 C 0.60236 0.16961 0.86108
 C394 C 0.56936 0.18109 0.85990
 N395 N 0.55094 0.16214 0.84000
 C396 C 0.55757 0.20942 0.87568
 H397 H 0.52213 0.26850 0.89366
 H398 H 0.45751 0.25861 0.90231
 H399 H 0.52668 0.16726 0.83182
 H400 H 0.38078 0.14840 0.89273
 H401 H 0.38259 0.10060 0.85128
 H402 H 0.47117 0.06309 0.76269
 H403 H 0.53680 0.06889 0.75995
 H404 H 0.62328 0.17940 0.87465
 H405 H 0.46915 0.16035 0.83653
 H406 H 0.62639 0.12869 0.83659
 C407 C 0.51894 0.74168 0.12976
 C408 C 0.48425 0.74033 0.13061
 C409 C 0.47325 0.77101 0.14001
 N410 N 0.49999 0.79092 0.14517
 C411 C 0.52795 0.77313 0.13869
 C412 C 0.43917 0.78134 0.14153
 C413 C 0.42933 0.80890 0.15941
 C414 C 0.39815 0.82434 0.15723
 C415 C 0.39765 0.84806 0.18027
 C416 C 0.42858 0.84655 0.19586
 N417 N 0.44777 0.82265 0.18296
 C418 C 0.43753 0.86556 0.22255
 C419 C 0.47154 0.86899 0.23264
 C420 C 0.48198 0.88252 0.26114
 C421 C 0.51650 0.88499 0.25972
 C422 C 0.52634 0.87163 0.23089
 N423 N 0.49871 0.86209 0.21434
 C424 C 0.55974 0.87117 0.21869
 C425 C 0.56892 0.85287 0.19160
 C426 C 0.59918 0.85606 0.17520
 C427 C 0.59968 0.83183 0.15259
 C428 C 0.56977 0.81441 0.15585
 N429 N 0.55123 0.82735 0.17971
 C430 C 0.56119 0.78600 0.13858
 H431 H 0.53558 0.72176 0.12332
 H432 H 0.46892 0.71919 0.12498
 H433 H 0.52966 0.81698 0.18972
 H434 H 0.37771 0.81899 0.14091
 H435 H 0.37680 0.86447 0.18503
 H436 H 0.46649 0.89029 0.28089
 H437 H 0.53206 0.89576 0.27801
 H438 H 0.61999 0.82733 0.13595
 H439 H 0.47049 0.81372 0.19208
 H440 H 0.61919 0.87359 0.17943
 C441 C 0.92346 0.48222 0.78307
 C442 C 0.92654 0.51564 0.78481
 C443 C 0.89717 0.52704 0.79882
 N444 N 0.87634 0.50167 0.80586
 C445 C 0.89236 0.47423 0.79621
 C446 C 0.88925 0.56041 0.80394
 C447 C 0.86327 0.57017 0.82493
 C448 C 0.85023 0.60166 0.82669
 C449 C 0.82763 0.60172 0.85151
 C450 C 0.82739 0.57024 0.86424
 N451 N 0.84920 0.55117 0.84794
 C452 C 0.80880 0.56054 0.89142
 C453 C 0.80338 0.52735 0.90018
 C454 C 0.79049 0.51687 0.92918
 C455 C 0.78743 0.48342 0.92753
 C456 C 0.79837 0.47448 0.89748
 N457 N 0.80810 0.50142 0.88081
 C458 C 0.79825 0.44211 0.88544
 C459 C 0.81550 0.43338 0.85722
 C460 C 0.81135 0.40393 0.84140
 C461 C 0.83395 0.40400 0.81652
 C462 C 0.85137 0.43346 0.81779
 N463 N 0.84001 0.45119 0.84269
 C464 C 0.87854 0.44223 0.79760
 H465 H 0.94221 0.46569 0.77353
 H466 H 0.94818 0.52976 0.77700
 H467 H 0.85109 0.47241 0.85135
 H468 H 0.85654 0.62256 0.81182
 H469 H 0.81320 0.62266 0.85941
 H470 H 0.78413 0.53175 0.94953
 H471 H 0.77845 0.46756 0.94646
 H472 H 0.83741 0.38440 0.79963
 H473 H 0.85689 0.52772 0.85455
 H474 H 0.79400 0.38429 0.84728
 C475 C 0.08138 0.51463 0.21678
 C476 C 0.08909 0.48225 0.22175
 C477 C 0.12013 0.47686 0.20741
 N478 N 0.13178 0.50492 0.19413
 C479 C 0.10817 0.52809 0.19995
 C480 C 0.13845 0.44723 0.20939
 C481 C 0.16730 0.44040 0.19082
 C482 C 0.18922 0.41436 0.19599
 C483 C 0.21315 0.41575 0.17221
 C484 C 0.20508 0.44254 0.15313
 N485 N 0.17694 0.45722 0.16449
 C486 C 0.22284 0.45245 0.12548
 C487 C 0.21901 0.48389 0.11163
 C488 C 0.23133 0.49302 0.08197
 C489 C 0.22502 0.52587 0.07853
 C490 C 0.20929 0.53581 0.10629
 N491 N 0.20546 0.51008 0.12645
 C492 C 0.20104 0.56859 0.11368
 C493 C 0.17807 0.57702 0.13793
 C494 C 0.17318 0.60851 0.14931
 C495 C 0.14766 0.60666 0.17138
 C496 C 0.13782 0.57408 0.17300
 N497 N 0.15623 0.55622 0.15232
 C498 C 0.11205 0.56183 0.19292
 H499 H 0.05894 0.52699 0.22521
 H500 H 0.07376 0.46475 0.23478
 H501 H 0.15192 0.53195 0.14615
 H502 H 0.18811 0.39626 0.21494
 H503 H 0.23419 0.39906 0.16947
 H504 H 0.24368 0.47765 0.06463
 H505 H 0.23143 0.54074 0.05796
 H506 H 0.13773 0.62696 0.18490
 H507 H 0.16333 0.47580 0.15322
 H508 H 0.18659 0.63058 0.14249
 C509 C 0.70202 0.53060 0.14885
 C510 C 0.69949 0.49706 0.14907
 C511 C 0.73069 0.48508 0.15886
 N512 N 0.75222 0.51014 0.16416
 C513 C 0.73488 0.53797 0.15775
 C514 C 0.74037 0.45180 0.15889
 C515 C 0.76957 0.44024 0.17502
 C516 C 0.78359 0.40921 0.17224
 C517 C 0.81008 0.40746 0.19351
 C518 C 0.81110 0.43720 0.20924
 N519 N 0.78625 0.45689 0.19790
 C520 C 0.83274 0.44475 0.23504
 C521 C 0.83455 0.47676 0.24752
 C522 C 0.84466 0.48457 0.27811
 C523 C 0.84492 0.51818 0.27966
 C524 C 0.83555 0.52974 0.24977
 N525 N 0.82878 0.50435 0.23031
 C526 C 0.83622 0.56288 0.23952
 C527 C 0.81779 0.57354 0.21241
 C528 C 0.82293 0.60280 0.19608
 C529 C 0.79853 0.60461 0.17266
 C530 C 0.77898 0.57649 0.17541
 N531 N 0.79095 0.55773 0.19972
 C532 C 0.74974 0.56948 0.15710
 H533 H 0.68205 0.54754 0.14241
 H534 H 0.67729 0.48324 0.14241
 H535 H 0.77943 0.53698 0.20937
 H536 H 0.77540 0.38942 0.15711
 H537 H 0.82616 0.38634 0.19733
 H538 H 0.85091 0.46780 0.29733
 H539 H 0.85143 0.53241 0.30042
 H540 H 0.79559 0.62448 0.15567
 H541 H 0.77866 0.47906 0.20763
 H542 H 0.84227 0.62098 0.20047
 C543 C 0.12780 0.48191 0.73679
 C544 C 0.13057 0.51523 0.73543
 C545 C 0.15367 0.52410 0.75866
 N546 N 0.16502 0.49709 0.77426
 C547 C 0.14870 0.47116 0.76134
 C548 C 0.16439 0.55673 0.76393
 C549 C 0.18758 0.56635 0.78770
 C550 C 0.20365 0.59656 0.78849
 C551 C 0.22428 0.59633 0.81485
 C552 C 0.22014 0.56605 0.82951
 N553 N 0.19733 0.54811 0.81307
 C554 C 0.23732 0.55579 0.85735
 C555 C 0.23775 0.52313 0.86853
 C556 C 0.25190 0.51325 0.89725
 C557 C 0.25024 0.47980 0.89802
 C558 C 0.23513 0.47026 0.86971
 N559 N 0.22747 0.49682 0.85172
 C560 C 0.23152 0.43739 0.86010
 C561 C 0.21234 0.42722 0.83352
 C562 C 0.21199 0.39563 0.82165
 C563 C 0.18976 0.39561 0.79643
 C564 C 0.17753 0.42736 0.79321
 N565 N 0.19099 0.44629 0.81629
 C566 C 0.15375 0.43772 0.77001
 H567 H 0.11267 0.46751 0.72066
 H568 H 0.11737 0.53101 0.71871
 H569 H 0.18363 0.46995 0.82185
 H570 H 0.20124 0.61652 0.77150
 H571 H 0.24075 0.61609 0.82213
 H572 H 0.26275 0.52855 0.91556
 H573 H 0.25954 0.46422 0.91709
 H574 H 0.18372 0.37458 0.78197
 H575 H 0.18689 0.52588 0.82008
 H576 H 0.22617 0.37467 0.83027
 C577 C 0.26052 0.35252 0.07104
 C578 C 0.26688 0.38248 0.08219
 C579 C 0.24254 0.39987 0.10257
 C580 C 0.24878 0.43075 0.11116
 H581 H 0.28941 0.39540 0.07444
 H582 H 0.21847 0.38858 0.10827
 H583 H 0.23812 0.33946 0.07887
 H584 H 0.27241 0.44201 0.10390
 C585 C 0.68626 0.61064 0.06375
 C586 C 0.70841 0.61694 0.08710
 C587 C 0.72096 0.59028 0.10791
 C588 C 0.73511 0.59605 0.13640
 H589 H 0.71803 0.64157 0.09036
 H590 H 0.71932 0.56548 0.09904
 H591 H 0.67560 0.58626 0.06175
 H592 H 0.73742 0.62121 0.14415
 C593 C 0.70133 0.39528 0.94427
 C594 C 0.73259 0.39150 0.93263
 C595 C 0.74859 0.41776 0.91333
 C596 C 0.78071 0.41541 0.90350
 H597 H 0.74712 0.36981 0.93874
 H598 H 0.73428 0.43977 0.90787
 H599 H 0.68744 0.41749 0.93861
 H600 H 0.79445 0.39281 0.90777
 C601 C 0.26261 0.64439 0.93234
 C602 C 0.27256 0.62167 0.91160
 C603 C 0.24873 0.60402 0.89096
 C604 C 0.26008 0.57898 0.87374
 H605 H 0.29899 0.61460 0.91083
 H606 H 0.22197 0.60973 0.89147
 H607 H 0.23639 0.65205 0.93309
 H608 H 0.28666 0.57249 0.87481
 C609 C 0.06182 0.26729 0.35159
 C610 C 0.08074 0.27343 0.37731
 C611 C 0.09911 0.24744 0.39480
 C612 C 0.11326 0.25431 0.42290
 H613 H 0.08120 0.29801 0.38694
 H614 H 0.09946 0.22261 0.38583
 H615 H 0.06078 0.24269 0.34209
 H616 H 0.11088 0.27893 0.43222
 C617 C 0.08123 0.74029 0.64574
 C618 C 0.10677 0.73160 0.62684
 C619 C 0.12641 0.75621 0.60886
 C620 C 0.14928 0.74652 0.58761
 H621 H 0.11152 0.70583 0.62252
 H622 H 0.11916 0.78181 0.60988
 H623 H 0.07687 0.76596 0.65077
 H624 H 0.15495 0.72063 0.58546
 C625 C 0.93905 0.69987 0.40214
 C626 C 0.92979 0.73113 0.39844
 C627 C 0.91218 0.74830 0.42429
 C628 C 0.90673 0.78058 0.42276
 H629 H 0.93703 0.74462 0.37717
 H630 H 0.90440 0.73463 0.44528
 H631 H 0.93284 0.68704 0.42408
 H632 H 0.91326 0.79398 0.40123
 C633 C 0.93470 0.31742 0.59181
 C634 C 0.92378 0.28669 0.59584
 C635 C 0.90300 0.27090 0.57121
 C636 C 0.89387 0.23948 0.57388
 H637 H 0.93122 0.27270 0.61677
 H638 H 0.89562 0.28491 0.55027
 H639 H 0.92754 0.33096 0.57052
 H640 H 0.89997 0.22596 0.59547
 C641 C 0.35142 0.07431 0.26421
 C642 C 0.36338 0.06427 0.23625
 C643 C 0.38633 0.08535 0.21775
 C644 C 0.41005 0.07228 0.19915
 H645 H 0.35975 0.03903 0.22905
 H646 H 0.38619 0.11158 0.22178
 H647 H 0.35803 0.09844 0.27287
 H648 H 0.41206 0.04587 0.19717
 C649 C 0.61407 0.07063 0.71108
 C650 C 0.61987 0.07856 0.74135
 C651 C 0.59549 0.09950 0.75800
 C652 C 0.59158 0.09772 0.78952
 H653 H 0.64065 0.06744 0.75440
 H654 H 0.57813 0.11440 0.74403
 H655 H 0.59173 0.08014 0.69915
 H656 H 0.60872 0.08298 0.80382
 C657 C 0.37778 0.93330 0.70476
 C658 C 0.37850 0.92041 0.73406
 C659 C 0.40567 0.89756 0.74328
 C660 C 0.40929 0.88724 0.77334
 H661 H 0.36005 0.92783 0.75165
 H662 H 0.42375 0.88986 0.72545
 H663 H 0.39689 0.92618 0.68766
 H664 H 0.39042 0.89360 0.79093
 C665 C 0.61214 0.92118 0.30941
 C666 C 0.61614 0.91518 0.27845
 C667 C 0.59557 0.88971 0.26319
 C668 C 0.58560 0.89297 0.23296
 H669 H 0.63177 0.93116 0.26390
 H670 H 0.58553 0.86985 0.27766
 H671 H 0.59429 0.90665 0.32310
 H672 H 0.59567 0.91272 0.21840
 C673 C 0.36633 0.27861 0.93005
 C674 C 0.37153 0.24648 0.92725
 C675 C 0.39561 0.23395 0.90372
 C676 C 0.41106 0.20532 0.90868
 H677 H 0.36026 0.22957 0.94422
 H678 H 0.40215 0.24892 0.88319
 H679 H 0.37965 0.29558 0.91452
 H680 H 0.40406 0.19031 0.92904
 C681 C 0.64301 0.73597 0.92549
 C682 C 0.62562 0.72829 0.89926
 C683 C 0.61164 0.75402 0.87810
 C684 C 0.59438 0.74602 0.85190
 H685 H 0.61927 0.70289 0.89474
 H686 H 0.61121 0.77915 0.88630
 H687 H 0.65057 0.76116 0.92937
 H688 H 0.59368 0.72066 0.84445
 C689 C 0.39603 0.71858 0.05106
 C690 C 0.38909 0.73711 0.07625
 C691 C 0.41683 0.75238 0.09423
 C692 C 0.41231 0.76346 0.12376
 H693 H 0.36314 0.74092 0.08360
 H694 H 0.44120 0.75509 0.08274
 H695 H 0.42218 0.71355 0.04510
 H696 H 0.38746 0.76138 0.13445
 C697 C 0.62031 0.28342 0.07812
 C698 C 0.62036 0.25068 0.07912
 C699 C 0.59922 0.23334 0.10280
 C700 C 0.58772 0.20310 0.09744
 H701 H 0.63318 0.23693 0.06076
 H702 H 0.59042 0.24650 0.12352
 H703 H 0.60527 0.29671 0.09530
 H704 H 0.59679 0.18967 0.07701
 C705 C 0.25151 0.07136 0.64776
 C706 C 0.25853 0.08904 0.62163
 C707 C 0.23322 0.10976 0.60532
 C708 C 0.24192 0.12542 0.57846
 H709 H 0.28321 0.08664 0.61066
 H710 H 0.20725 0.11005 0.61351
 H711 H 0.22728 0.07400 0.65945
 H712 H 0.26782 0.12354 0.57018
 C713 C 0.69110 0.06948 0.39859
 C714 C 0.72177 0.08200 0.39290
 C715 C 0.73706 0.10482 0.41576
 C716 C 0.76915 0.11459 0.41293
 H717 H 0.73654 0.07380 0.37274
 H718 H 0.72249 0.11239 0.43628
 H719 H 0.67714 0.07789 0.41919
 H720 H 0.78343 0.10826 0.39185
 C721 C 0.71649 0.94215 0.61175
 C722 C 0.74987 0.93770 0.61318
 C723 C 0.76658 0.91747 0.58907
 C724 C 0.79989 0.91244 0.58931
 H725 H 0.76490 0.95001 0.63109
 H726 H 0.75145 0.90696 0.57014
 H727 H 0.70199 0.92983 0.59345
 H728 H 0.81519 0.92131 0.60886
 C729 C 0.28845 0.93825 0.38352
 C730 C 0.26155 0.91889 0.37922
 C731 C 0.25125 0.89591 0.40463
 C732 C 0.22112 0.88096 0.40447
 H733 H 0.24620 0.92127 0.35791
 H734 H 0.26787 0.89260 0.42498
 H735 H 0.30289 0.93616 0.40542
 H736 H 0.20491 0.88305 0.38371
 C737 C 0.05992 0.40597 0.70864
 C738 C 0.08213 0.39197 0.72849
 C739 C 0.10094 0.41290 0.75059
 C740 C 0.13464 0.41196 0.75258
 H741 H 0.08742 0.36594 0.72741
 H742 H 0.08725 0.43238 0.76236
 H743 H 0.05739 0.43245 0.70833
 H744 H 0.14844 0.39283 0.74046
 C745 C 0.06517 0.60751 0.28978
 C746 C 0.06698 0.60978 0.25814
 C747 C 0.08910 0.58701 0.24093
 C748 C 0.09002 0.58588 0.20922
 H749 H 0.05125 0.62705 0.24511
 H750 H 0.10454 0.56994 0.25457
 H751 H 0.08054 0.58941 0.30215
 H752 H 0.07611 0.60367 0.19507
 C753 C 0.93668 0.40203 0.28469
 C754 C 0.90737 0.39562 0.27011
 C755 C 0.88595 0.42273 0.25826
 C756 C 0.85386 0.41796 0.24916
 H757 H 0.89907 0.37050 0.26714
 H758 H 0.89697 0.44700 0.25644
 H759 H 0.94381 0.42730 0.28887
 H760 H 0.84352 0.39339 0.25028
 C761 C 0.95177 0.61057 0.71416
 C762 C 0.93825 0.61331 0.74321
 C763 C 0.91792 0.58655 0.75733
 C764 C 0.90948 0.58683 0.78820
 H765 H 0.94348 0.63487 0.75733
 H766 H 0.91026 0.56622 0.74251
 H767 H 0.94770 0.58833 0.70073
 H768 H 0.91636 0.60791 0.80238
 C769 C 0.71051 0.61379 0.93785
 C770 C 0.74412 0.61390 0.93473
 C771 C 0.76025 0.58797 0.91579
 C772 C 0.79356 0.58680 0.91106
 H773 H 0.75953 0.63204 0.94666
 H774 H 0.74446 0.56908 0.90543
 H775 H 0.69612 0.59509 0.92552
 H776 H 0.80958 0.60637 0.91970
 C777 C 0.25294 0.34882 0.93788
 C778 C 0.26195 0.37472 0.92010
 C779 C 0.23968 0.39005 0.89628
 C780 C 0.25262 0.41335 0.87747
 H781 H 0.28672 0.38566 0.92343
 H782 H 0.21283 0.38475 0.89606
 H783 H 0.22909 0.33659 0.93340
 H784 H 0.27943 0.41884 0.87895
 C785 C 0.29419 0.61928 0.05562
 C786 C 0.26469 0.62338 0.07056
 C787 C 0.25009 0.59670 0.08961
 C788 C 0.21692 0.59579 0.09544
 H789 H 0.24991 0.64548 0.06680
 H790 H 0.26630 0.57692 0.09782
 H791 H 0.30766 0.59626 0.05842
 H792 H 0.20108 0.61606 0.08774
 C793 C 0.71987 0.37523 0.07153
 C794 C 0.70873 0.39806 0.09164
 C795 C 0.73166 0.41432 0.11402
 C796 C 0.71944 0.42916 0.13977
 H797 H 0.68226 0.40504 0.09176
 H798 H 0.75836 0.41577 0.10841
 H799 H 0.74582 0.36679 0.07333
 H800 H 0.69254 0.42810 0.14451
 C801 C 0.95434 0.70899 0.61469
 C802 C 0.93874 0.73787 0.61760
 C803 C 0.92067 0.75279 0.59047
 C804 C 0.91363 0.78479 0.59035
 H805 H 0.94126 0.75181 0.63937
 H806 H 0.91370 0.73778 0.57032
 H807 H 0.95293 0.69628 0.59213
 H808 H 0.92011 0.79919 0.61109
 C809 C 0.93852 0.30692 0.38245
 C810 C 0.91935 0.28004 0.37982
 C811 C 0.90020 0.26705 0.40710
 C812 C 0.88831 0.23640 0.40660
 H813 H 0.91938 0.26610 0.35792
 H814 H 0.89677 0.28212 0.42799
 H815 H 0.93907 0.31993 0.40487
 H816 H 0.89123 0.22211 0.38512
 C817 C 0.06998 0.31817 0.60243
 C818 C 0.08000 0.28715 0.60727
 C819 C 0.10210 0.27099 0.58396
 C820 C 0.10835 0.23879 0.58544
 H821 H 0.07004 0.27288 0.62704
 H822 H 0.11168 0.28519 0.56398
 H823 H 0.08000 0.33167 0.58219
 H824 H 0.10005 0.22463 0.60593
 C825 C 0.06931 0.72026 0.36438
 C826 C 0.09004 0.71430 0.38892
 C827 C 0.11186 0.74016 0.40199
 C828 C 0.13258 0.73328 0.42623
 H829 H 0.08959 0.69061 0.40084
 H830 H 0.10857 0.76531 0.39402
 H831 H 0.07090 0.74364 0.35198
 H832 H 0.13450 0.70813 0.43462
 C833 C 0.64156 0.93716 0.72626
 C834 C 0.61747 0.91534 0.71976
 C835 C 0.60436 0.89282 0.74436
 C836 C 0.57837 0.87329 0.73755
 H837 H 0.60587 0.91526 0.69633
 H838 H 0.61357 0.89440 0.76864
 H839 H 0.65377 0.93686 0.74940
 H840 H 0.56810 0.87331 0.71359
 C841 C 0.38853 0.95354 0.28658
 C842 C 0.38311 0.92876 0.26664
 C843 C 0.41171 0.91297 0.25049
 C844 C 0.40954 0.88225 0.23986
 H845 H 0.35764 0.92003 0.26228
 H846 H 0.43477 0.92691 0.24723
 H847 H 0.41426 0.96079 0.29205
 H848 H 0.38577 0.86927 0.24248
 C849 C 0.60149 0.05634 0.29504
 C850 C 0.60914 0.06148 0.26439
 C851 C 0.58642 0.08127 0.24421
 C852 C 0.58646 0.07901 0.21245
 H853 H 0.63079 0.04948 0.25381
 H854 H 0.56732 0.09619 0.25564
 H855 H 0.57874 0.06716 0.30480
 H856 H 0.60563 0.06457 0.20066
 C857 C 0.37591 0.06488 0.71946
 C858 C 0.38013 0.06543 0.75104
 C859 C 0.40660 0.08583 0.76556
 C860 C 0.41489 0.08236 0.79627
 H861 H 0.36497 0.04962 0.76620
 H862 H 0.42001 0.10353 0.75089
 H863 H 0.39227 0.07954 0.70433
 H864 H 0.40112 0.06512 0.81110
 C865 C 0.59917 0.72314 0.04701
 C866 C 0.60866 0.74106 0.07195
 C867 C 0.58266 0.75867 0.09025
 C868 C 0.58821 0.76959 0.11974
 H869 H 0.63487 0.74157 0.07950
 H870 H 0.55787 0.76189 0.07960
 H871 H 0.57251 0.72160 0.04109
 H872 H 0.61330 0.76744 0.12998
 C873 C 0.38739 0.27517 0.05227
 C874 C 0.38328 0.24928 0.07139
 C875 C 0.41284 0.23134 0.08351
 C876 C 0.41169 0.21548 0.11137
 H877 H 0.35813 0.24089 0.07766
 H878 H 0.43530 0.23037 0.06882
 H879 H 0.41263 0.28449 0.04779
 H880 H 0.38840 0.21616 0.12495
 C881 C 0.59785 0.29000 0.95254
 C882 C 0.60639 0.26654 0.93207
 C883 C 0.58001 0.24558 0.91823
 C884 C 0.58348 0.23184 0.88962
 H885 H 0.63267 0.26228 0.92610
 H886 H 0.55742 0.24118 0.93217
 H887 H 0.57132 0.29509 0.95676
 H888 H 0.60679 0.23580 0.87662
 C889 C 0.35926 0.74302 0.92807
 C890 C 0.38010 0.73280 0.90529
 C891 C 0.39767 0.75591 0.88423
 C892 C 0.42166 0.74490 0.86481
 H893 H 0.38624 0.70696 0.90354
 H894 H 0.39337 0.78203 0.88660
 H895 H 0.35253 0.76871 0.92970
 H896 H 0.42705 0.71884 0.86402
 C897 C 0.70446 0.93966 0.40974
 C898 C 0.73649 0.93091 0.40438
 C899 C 0.75571 0.91258 0.42868
 C900 C 0.78827 0.90511 0.42444
 H901 H 0.74900 0.93830 0.38253
 H902 H 0.74333 0.90572 0.45077
 H903 H 0.69233 0.93242 0.43183
 H904 H 0.80033 0.91057 0.40185
 C905 C 0.25497 0.93654 0.63856
 C906 C 0.26138 0.92495 0.60955
 C907 C 0.23907 0.90095 0.59405
 C908 C 0.24699 0.88975 0.56522
 H909 H 0.28350 0.93350 0.59672
 H910 H 0.21589 0.89323 0.60560
 H911 H 0.23320 0.92769 0.65171
 H912 H 0.26956 0.89902 0.55358
 C913 C 0.24691 0.06726 0.35760
 C914 C 0.25504 0.09080 0.37824
 C915 C 0.22930 0.11022 0.39505
 C916 C 0.23907 0.13142 0.41733
 H917 H 0.28140 0.09470 0.38430
 H918 H 0.20266 0.10518 0.39145
 H919 H 0.22076 0.06361 0.35076
 H920 H 0.26582 0.13498 0.42183
 C921 C 0.69793 0.07240 0.60252
 C922 C 0.72813 0.08689 0.60479
 C923 C 0.74138 0.10751 0.57879
 C924 C 0.77321 0.11848 0.57963
 H925 H 0.74416 0.08207 0.62527
 H926 H 0.72556 0.11266 0.55823
 H927 H 0.68224 0.07679 0.58173
 H928 H 0.78840 0.11428 0.60079
 C929 C 0.93168 0.59763 0.30652
 C930 C 0.90774 0.60591 0.28541
 C931 C 0.88710 0.58054 0.27003
 C932 C 0.85713 0.58757 0.25674
 H933 H 0.90366 0.63141 0.27904
 H934 H 0.89722 0.55591 0.26904
 H935 H 0.93435 0.57225 0.31396
 H936 H 0.84829 0.61272 0.25714
 C937 C 0.92700 0.40549 0.69735
 C938 C 0.91843 0.39762 0.72722
 C939 C 0.89848 0.42076 0.74628
 C940 C 0.89379 0.41627 0.77753
 H941 H 0.92860 0.37571 0.73845
 H942 H 0.88958 0.44325 0.73513
 H943 H 0.91743 0.42803 0.68685
 H944 H 0.90146 0.39345 0.78878
 C945 C 0.08369 0.64304 0.73966
 C946 C 0.10867 0.62349 0.73001
 C947 C 0.12980 0.60522 0.75274
 C948 C 0.15077 0.58215 0.74216
 H949 H 0.11182 0.61868 0.70482
 H950 H 0.12554 0.60786 0.77810
 H951 H 0.08072 0.64856 0.76470
 H952 H 0.15358 0.57848 0.71675
 C953 C 0.06379 0.36172 0.24900
 C954 C 0.08878 0.38294 0.25458
 C955 C 0.10707 0.39913 0.22833
 C956 C 0.12812 0.42380 0.23453
 H957 H 0.09393 0.39065 0.27877
 H958 H 0.10055 0.39354 0.20388
 H959 H 0.05874 0.35379 0.22488
 H960 H 0.13321 0.43055 0.25899
   
