data_POSCAR
  _audit_creation_date              2014-09-24
  _audit_creation_method            'ToBaCCo'
  _symmetry_space_group_name_H-M    'P1'
  _symmetry_Int_Tables_number       1
  _symmetry_cell_setting            triclinic
  loop_
  _symmetry_equiv_pos_as_xyz
 x,y,z
_cell_length_a 19.2915
_cell_length_b 19.3748
_cell_length_c 21.0487
_cell_angle_alpha 89.996600
_cell_angle_beta 90.265000
_cell_angle_gamma 120.157600
loop_
  _atom_site_label
  _atom_site_type_symbol
  _atom_site_fract_x
  _atom_site_fract_y
  _atom_site_fract_z
O1 O 0.35026 0.54583 0.30295
 O2 O 0.21831 0.54880 0.32160
 C3 C 0.18259 0.58699 0.33361
 O4 O 0.19344 0.64780 0.30258
 O5 O 0.32881 0.77954 0.32191
 C6 C 0.40311 0.81540 0.33421
 O7 O 0.45327 0.80451 0.30343
 O8 O 0.44991 0.66990 0.32238
 C9 C 0.41151 0.59592 0.33421
 O10 O 0.32864 0.54910 0.17635
 O11 O 0.19322 0.54527 0.19497
 C12 C 0.18206 0.59503 0.16386
 O13 O 0.21796 0.66900 0.17605
 O14 O 0.34997 0.80406 0.19542
 C15 C 0.41127 0.81533 0.16470
 O16 O 0.44977 0.77986 0.17687
 O17 O 0.45315 0.64861 0.19583
 C18 C 0.40293 0.58754 0.16463
 Cr19 Cr 0.27485 0.55173 0.24897
 Cr20 Cr 0.27479 0.72286 0.24899
 Cr21 Cr 0.44703 0.72347 0.24961
 O22 O 0.33223 0.66603 0.24920
 O23 O 0.54977 0.32989 0.67739
 O24 O 0.54640 0.19528 0.69631
 C25 C 0.59655 0.18437 0.66552
 O26 O 0.67085 0.22022 0.67782
 O27 O 0.80623 0.35193 0.69713
 C28 C 0.81712 0.41278 0.66613
 O29 O 0.78144 0.45100 0.67818
 O30 O 0.64948 0.45396 0.69677
 C31 C 0.58820 0.40387 0.66554
 O32 O 0.54654 0.35115 0.80394
 O33 O 0.54991 0.21989 0.82287
 C34 C 0.58842 0.18442 0.83504
 O35 O 0.64972 0.19570 0.80432
 O36 O 0.78178 0.33073 0.82366
 C37 C 0.81758 0.40469 0.83585
 O38 O 0.80644 0.45453 0.80483
 O39 O 0.67103 0.45071 0.82338
 C40 C 0.59674 0.41225 0.83511
 Cr41 Cr 0.55266 0.27631 0.75015
 Cr42 Cr 0.72490 0.27688 0.75073
 Cr43 Cr 0.72486 0.44806 0.75078
 O44 O 0.66747 0.33375 0.75057
 C45 C 0.43256 -0.12772 0.38526
 C46 C 0.45762 -0.07994 0.42817
 C47 C 0.48717 -0.02399 0.47841
 C48 C 0.51246 0.02377 0.52132
 C49 C 0.54202 0.07971 0.57157
 C50 C 0.56708 0.12749 0.61447
 C51 C 1.12606 0.55967 0.38473
 C52 C 1.07874 0.53712 0.42779
 C53 C 1.02345 0.51101 0.47830
 C54 C 0.97626 0.48878 0.52145
 C55 C 0.92097 0.46266 0.57196
 C56 C 0.87365 0.44011 0.61502
 C57 C 0.43918 0.56674 0.38526
 C58 C 0.46206 0.54186 0.42817
 C59 C 0.48857 0.51246 0.47841
 C60 C 0.51114 0.48730 0.52132
 C61 C 0.53765 0.45792 0.57157
 C62 C 0.56053 0.43304 0.61448
 C63 C 0.43892 -0.12781 1.11388
 C64 C 0.46185 -0.08001 1.07119
 C65 C 0.48850 -0.02403 1.02120
 C66 C 0.51119 0.02377 0.97853
 C67 C 0.53783 0.07975 0.92854
 C68 C 0.56077 0.12755 0.88585
 C69 C 1.13026 0.56831 1.11734
 C70 C 1.08237 0.54331 1.07424
 C71 C 1.02634 0.51384 1.02376
 C72 C 0.97852 0.48862 0.98065
 C73 C 0.92250 0.45913 0.93016
 C74 C 0.87463 0.43412 0.88708
 C75 C 0.43235 0.56011 1.11382
 C76 C 0.45746 0.53742 1.07114
 C77 C 0.48713 0.51110 1.02119
 C78 C 0.51254 0.48869 0.97854
 C79 C 0.54221 0.46237 0.92859
 C80 C 0.56732 0.43968 0.88592
   
