data_POSCAR
  _audit_creation_date              2014-09-24
  _audit_creation_method            'ToBaCCo'
  _symmetry_space_group_name_H-M    'P1'
  _symmetry_Int_Tables_number       1
  _symmetry_cell_setting            triclinic
  loop_
  _symmetry_equiv_pos_as_xyz
 x,y,z
_cell_length_a 27.2077
_cell_length_b 27.2077
_cell_length_c 27.1207
_cell_angle_alpha 90.206300
_cell_angle_beta 90.204800
_cell_angle_gamma 89.990200
loop_
  _atom_site_label
  _atom_site_type_symbol
  _atom_site_fract_x
  _atom_site_fract_y
  _atom_site_fract_z
O1 O 0.56922 0.12331 0.00391
 O2 O 0.62342 0.05865 0.00324
 C3 C 0.61324 0.10512 0.00427
 O4 O 0.43186 -0.00425 0.12635
 O5 O 0.37735 -0.00198 0.06151
 C6 C 0.38774 -0.00397 0.10810
 O7 O 0.56945 0.00190 0.12634
 O8 O 0.62364 -0.00096 0.06165
 C9 C 0.61354 0.00117 0.10826
 O10 O 0.43210 0.12337 -0.00364
 O11 O 0.37742 0.05920 0.00014
 C12 C 0.38793 0.10551 -0.00284
 Zr13 Zr 0.50043 0.08685 0.00297
 O14 O 0.49501 0.13721 0.06252
 O15 O 0.50335 0.14667 -0.04639
 Zr16 Zr 0.50048 -0.00075 0.08984
 O17 O 0.49517 0.05486 0.14439
 O18 O 0.50599 -0.05541 0.14495
 O19 O 0.54477 0.04971 0.05322
 O20 O 0.45724 0.04942 0.05257
 O21 O 0.43143 0.00250 -0.12284
 O22 O 0.37713 0.00073 -0.05824
 C23 C 0.38739 0.00257 -0.10478
 O24 O 0.56896 -0.12486 -0.00180
 O25 O 0.62345 -0.06040 0.00115
 C26 C 0.61308 -0.10681 -0.00117
 O27 O 0.43152 -0.12492 0.00435
 O28 O 0.37719 -0.06032 0.00256
 C29 C 0.38746 -0.10678 0.00418
 O30 O 0.56892 -0.00339 -0.12249
 O31 O 0.62344 -0.00102 -0.05765
 C32 C 0.61305 -0.00290 -0.10426
 Zr33 Zr 0.50018 -0.00081 -0.08610
 O34 O 0.49462 -0.05643 -0.14066
 O35 O 0.50512 0.05383 -0.14127
 Zr36 Zr 0.50018 -0.08842 0.00130
 O37 O 0.49443 -0.14273 -0.05455
 O38 O 0.50576 -0.14345 0.05604
 Zr39 Zr 0.57388 -0.00091 0.00189
 Zr40 Zr 0.42661 -0.00064 0.00171
 O41 O 0.45721 -0.05084 -0.04884
 O42 O 0.54424 -0.05152 -0.04925
 O43 O 0.45668 0.05006 -0.04865
 O44 O 0.54302 -0.05107 0.05199
 O45 O 0.54284 0.04948 -0.04805
 O46 O 0.45642 -0.05138 0.05232
 H47 H 0.43475 0.06977 0.07280
 H48 H 0.56499 -0.07172 0.07249
 H49 H 0.43500 -0.07124 -0.06947
 H50 H 0.56472 0.06997 -0.06863
 H51 H 0.47919 -0.07931 0.13914
 H52 H 0.47857 -0.13825 0.07960
 H53 H 0.52234 -0.13813 -0.07734
 H54 H 0.52313 -0.07864 -0.13660
 H55 H 0.47744 0.07694 -0.13638
 H56 H 0.50370 0.13256 -0.07997
 H57 H 0.52705 0.13783 0.07989
 H58 H 0.52330 0.07742 0.13994
 O59 O -0.00117 0.56777 -0.12585
 O60 O -0.00075 0.62216 -0.06090
 C61 C -0.00167 0.61185 -0.10754
 O62 O -0.12397 0.43047 0.00192
 O63 O -0.05941 0.37611 -0.00008
 C64 C -0.10585 0.38641 0.00185
 O65 O -0.12400 0.56772 -0.00455
 O66 O -0.05947 0.62213 -0.00238
 C67 C -0.10592 0.61181 -0.00421
 O68 O 0.00558 0.43027 -0.12584
 O69 O 0.00039 0.37585 -0.06154
 C70 C 0.00386 0.38612 -0.10800
 Zr71 Zr -0.00033 0.49895 -0.08942
 O72 O -0.05927 0.49348 -0.14046
 O73 O 0.04929 0.50105 -0.14915
 Zr74 Zr -0.08742 0.49905 -0.00163
 O75 O -0.14175 0.49337 -0.05746
 O76 O -0.14235 0.50468 0.05321
 O77 O -0.05065 0.54317 -0.05225
 O78 O -0.05016 0.45592 -0.05199
 O79 O 0.12456 0.43061 -0.00455
 O80 O 0.06011 0.37617 -0.00328
 C81 C 0.10652 0.38653 -0.00482
 O82 O 0.00374 0.56787 0.12324
 O83 O 0.00158 0.62226 0.05865
 C84 C 0.00347 0.61195 0.10520
 O85 O -0.00222 0.43022 0.12266
 O86 O 0.00076 0.37578 0.05777
 C87 C -0.00142 0.38612 0.10438
 O88 O 0.12441 0.56786 0.00182
 O89 O 0.05985 0.62221 0.00005
 C90 C 0.10630 0.61194 0.00180
 Zr91 Zr 0.08787 0.49918 -0.00136
 O92 O 0.14236 0.49391 0.05435
 O93 O 0.14264 0.50409 -0.05642
 Zr94 Zr 0.00029 0.49911 0.08648
 O95 O 0.05489 0.49380 0.14201
 O96 O -0.05530 0.50467 0.14069
 Zr97 Zr 0.00024 0.57274 -0.00126
 Zr98 Zr 0.00033 0.42545 -0.00168
 O99 O 0.05056 0.45640 0.04881
 O100 O 0.05094 0.54309 0.04958
 O101 O 0.05076 0.45529 -0.05244
 O102 O -0.04989 0.54198 0.04891
 O103 O 0.05023 0.54180 -0.05170
 O104 O -0.05031 0.45506 0.04915
 H105 H -0.07052 0.43345 -0.07239
 H106 H -0.07031 0.56410 0.06946
 H107 H 0.07125 0.43445 0.06928
 H108 H 0.07084 0.56384 -0.07198
 H109 H -0.13644 0.47816 0.07735
 H110 H -0.07719 0.47589 0.13682
 H111 H 0.07893 0.52042 0.13633
 H112 H 0.13790 0.52206 0.07708
 H113 H 0.13763 0.47633 -0.07958
 H114 H 0.08240 0.50603 -0.13503
 H115 H -0.07689 0.52529 -0.14066
 H116 H -0.13689 0.52108 -0.08044
 O117 O 0.12292 -0.00116 0.43157
 O118 O 0.05828 -0.00080 0.37696
 C119 C 0.10476 -0.00175 0.38735
 O120 O -0.00443 -0.12313 0.56916
 O121 O -0.00122 -0.05846 0.62386
 C122 C -0.00358 -0.10493 0.61343
 O123 O 0.00150 -0.12348 0.43101
 O124 O -0.00158 -0.05903 0.37654
 C125 C 0.00070 -0.10545 0.38680
 O126 O 0.12270 0.00595 0.56930
 O127 O 0.05851 0.00098 0.62390
 C128 C 0.10483 0.00437 0.61355
 Zr129 Zr 0.08640 -0.00021 0.50040
 O130 O 0.13694 -0.05926 0.50587
 O131 O 0.14624 0.04924 0.49813
 Zr132 Zr -0.00139 -0.08703 0.50011
 O133 O 0.05358 -0.14186 0.50557
 O134 O -0.05659 -0.14164 0.49446
 O135 O 0.04918 -0.05044 0.45588
 O136 O 0.04886 -0.04972 0.54343
 O137 O 0.00225 0.12513 0.56919
 O138 O 0.00047 0.06077 0.62367
 C139 C 0.00233 0.10716 0.61338
 O140 O -0.12534 0.00381 0.43096
 O141 O -0.06090 0.00112 0.37649
 C142 C -0.10732 0.00321 0.38675
 O143 O -0.12546 -0.00226 0.56878
 O144 O -0.06084 -0.00018 0.62344
 C145 C -0.10729 -0.00204 0.61302
 O146 O -0.00363 0.12457 0.43128
 O147 O -0.00134 0.05988 0.37666
 C148 C -0.00315 0.10635 0.38703
 Zr149 Zr -0.00100 0.08836 0.50032
 O150 O -0.05640 0.14279 0.50560
 O151 O 0.05391 0.14327 0.49556
 Zr152 Zr -0.08889 0.00086 0.50008
 O153 O -0.14323 0.05631 0.50561
 O154 O -0.14385 -0.05398 0.49434
 Zr155 Zr -0.00135 0.00058 0.42641
 Zr156 Zr -0.00112 0.00090 0.57411
 O157 O -0.05123 0.05112 0.54320
 O158 O -0.05188 0.05143 0.45603
 O159 O 0.04976 0.05117 0.54424
 O160 O -0.05159 -0.04949 0.45718
 O161 O 0.04914 0.05050 0.45763
 O162 O -0.05190 -0.04979 0.54422
 H163 H 0.06934 -0.07003 0.56574
 H164 H -0.07224 -0.07000 0.43509
 H165 H -0.07160 0.07162 0.56544
 H166 H 0.06963 0.07100 0.43568
 H167 H -0.07948 -0.13680 0.52230
 H168 H -0.13850 -0.07752 0.52153
 H169 H -0.13844 0.07916 0.47776
 H170 H -0.07890 0.13837 0.47721
 H171 H 0.07697 0.13837 0.52343
 H172 H 0.13220 0.08257 0.49543
 H173 H 0.13714 -0.07690 0.47390
 H174 H 0.07693 -0.13671 0.47821
 C175 C -0.20334 0.22659 0.03487
 C176 C -0.25735 0.23434 0.05119
 C177 C -0.27464 0.20580 0.00533
 C178 C -0.22128 0.19740 -0.01101
 C179 C -0.20641 0.27424 0.00479
 C180 C -0.22370 0.24569 -0.04107
 C181 C -0.25979 0.28255 0.02111
 C182 C -0.27761 0.25347 -0.02472
 C183 C -0.31361 0.16870 0.00533
 C184 C -0.34658 0.13916 0.00501
 C185 C -0.16940 0.31329 0.00417
 C186 C -0.13990 0.34628 0.00331
 H187 H -0.17235 0.21601 0.05937
 H188 H -0.27162 0.22923 0.08912
 H189 H -0.20591 0.16194 -0.02422
 H190 H -0.20945 0.25080 -0.07901
 H191 H -0.27524 0.31798 0.03430
 H192 H -0.30857 0.26412 -0.04922
 C193 C 0.20706 0.76930 -0.02952
 C194 C 0.22057 0.80207 0.01544
 C195 C 0.27526 0.79256 0.00518
 C196 C 0.26236 0.76044 -0.03974
 C197 C 0.20692 0.72419 0.00440
 C198 C 0.26162 0.71479 -0.00587
 C199 C 0.21977 0.75630 0.04934
 C200 C 0.27504 0.74742 0.03906
 C201 C 0.31429 0.82963 0.00530
 C202 C 0.34729 0.85915 0.00502
 C203 C 0.16990 0.68510 0.00385
 C204 C 0.14039 0.65209 0.00310
 H205 H 0.17870 0.77787 -0.05773
 H206 H 0.20416 0.83842 0.02419
 H207 H 0.28028 0.76257 -0.07638
 H208 H 0.27809 0.67849 -0.01470
 H209 H 0.20176 0.75417 0.08593
 H210 H 0.30339 0.73880 0.06727
 C211 C 0.23061 0.25234 -0.05362
 C212 C 0.28199 0.25762 -0.02940
 C213 C 0.27593 0.20635 -0.00667
 C214 C 0.22512 0.20043 -0.03088
 C215 C 0.20744 0.27457 -0.00703
 C216 C 0.20130 0.22332 0.01573
 C217 C 0.25826 0.28038 0.01716
 C218 C 0.25273 0.22859 0.03991
 C219 C 0.31498 0.16931 -0.00597
 C220 C 0.34793 0.13974 -0.00485
 C221 C 0.17029 0.31353 -0.00678
 C222 C 0.14069 0.34645 -0.00612
 H223 H 0.22106 0.26255 -0.09207
 H224 H 0.31558 0.27133 -0.04795
 H225 H 0.21196 0.16711 -0.05063
 H226 H 0.16769 0.20968 0.03429
 H227 H 0.27150 0.31366 0.03693
 H228 H 0.26225 0.21841 0.07838
 C229 C -0.24402 0.73123 0.03651
 C230 C -0.23428 0.78729 0.03494
 C231 C -0.27489 0.79240 -0.00422
 C232 C -0.28516 0.73691 -0.00261
 C233 C -0.20660 0.72399 -0.00517
 C234 C -0.24721 0.72914 -0.04430
 C235 C -0.19621 0.77946 -0.00678
 C236 C -0.23748 0.78522 -0.04593
 C237 C -0.31389 0.82948 -0.00342
 C238 C -0.34684 0.85904 -0.00251
 C239 C -0.16956 0.68492 -0.00536
 C240 C -0.14003 0.65193 -0.00509
 H241 H -0.24631 0.70863 0.07042
 H242 H -0.22941 0.81165 0.06752
 H243 H -0.32215 0.71980 -0.00088
 H244 H -0.25212 0.70480 -0.07689
 H245 H -0.15918 0.79650 -0.00849
 H246 H -0.23524 0.80788 -0.07981
 C247 C 0.03240 -0.25515 0.27853
 C248 C -0.01338 -0.28310 0.25927
 C249 C 0.00474 -0.27557 0.20624
 C250 C 0.05055 -0.24817 0.22494
 C251 C 0.00366 -0.20671 0.27451
 C252 C 0.02180 -0.19908 0.22151
 C253 C -0.04213 -0.23413 0.25579
 C254 C -0.02402 -0.22715 0.20216
 C255 C 0.00488 -0.31480 0.16914
 C256 C 0.00451 -0.34788 0.13952
 C257 C 0.00280 -0.16937 0.31351
 C258 C 0.00190 -0.13965 0.34653
 H259 H 0.05557 -0.26625 0.31037
 H260 H -0.02782 -0.31807 0.27441
 H261 H 0.08867 -0.25439 0.21184
 H262 H 0.03624 -0.16407 0.20645
 H263 H -0.08025 -0.22796 0.26887
 H264 H -0.04720 -0.21612 0.17031
 C265 C 0.04707 0.24591 0.73328
 C266 C 0.00812 0.28708 0.73848
 C267 C 0.00598 0.27722 0.79417
 C268 C 0.04496 0.23660 0.78958
 C269 C 0.00547 0.20841 0.72579
 C270 C 0.00333 0.19843 0.78147
 C271 C -0.03346 0.24905 0.73046
 C272 C -0.03562 0.23971 0.78671
 C273 C 0.00579 0.31649 0.83124
 C274 C 0.00511 0.34965 0.86081
 C275 C 0.00479 0.17110 0.68672
 C276 C 0.00385 0.14140 0.65366
 H277 H 0.08107 0.24805 0.71088
 H278 H 0.01009 0.32395 0.72118
 H279 H 0.07719 0.23193 0.81433
 H280 H 0.00134 0.16153 0.79868
 H281 H -0.06572 0.25378 0.70576
 H282 H -0.06962 0.23759 0.80911
 C283 C -0.03796 0.25183 0.27384
 C284 C 0.00679 0.28419 0.26041
 C285 C -0.00362 0.27441 0.20552
 C286 C -0.04839 0.24259 0.21838
 C287 C -0.00419 0.20657 0.27438
 C288 C -0.01461 0.19668 0.21951
 C289 C 0.04055 0.23841 0.26148
 C290 C 0.03017 0.22916 0.20601
 C291 C -0.00304 0.31320 0.16821
 C292 C -0.00238 0.34604 0.13853
 C293 C -0.00421 0.16974 0.31365
 C294 C -0.00391 0.14035 0.34678
 H295 H -0.06597 0.26076 0.30215
 H296 H 0.01560 0.32057 0.27684
 H297 H -0.08495 0.24473 0.20021
 H298 H -0.02342 0.16026 0.20316
 H299 H 0.07713 0.23630 0.27962
 H300 H 0.05818 0.22028 0.17768
 C301 C -0.00963 -0.19676 0.78060
 C302 C -0.04679 -0.23985 0.78358
 C303 C -0.00382 -0.27542 0.79248
 C304 C 0.03335 -0.23299 0.79013
 C305 C -0.00452 -0.20625 0.72498
 C306 C 0.03842 -0.24184 0.73392
 C307 C -0.04166 -0.24869 0.72737
 C308 C 0.00128 -0.28480 0.73684
 C309 C -0.00325 -0.31482 0.82913
 C310 C -0.00261 -0.34798 0.85844
 C311 C -0.00463 -0.16878 0.68635
 C312 C -0.00436 -0.13904 0.65356
 H313 H -0.01412 -0.16011 0.79813
 H314 H -0.08182 -0.23950 0.80444
 H315 H 0.06421 -0.22700 0.81636
 H316 H 0.07347 -0.24222 0.71308
 H317 H -0.07252 -0.25472 0.70114
 H318 H 0.00579 -0.32141 0.71921
 C319 C 0.19660 0.01405 0.78114
 C320 C 0.23115 -0.02985 0.79249
 C321 C 0.27492 0.00579 0.79422
 C322 C 0.24104 0.04969 0.78352
 C323 C 0.20615 0.00645 0.72584
 C324 C 0.24994 0.04206 0.72761
 C325 C 0.24005 -0.03742 0.73659
 C326 C 0.28436 -0.00181 0.73890
 C327 C 0.31414 0.00505 0.83133
 C328 C 0.34721 0.00410 0.86095
 C329 C 0.16884 0.00635 0.68679
 C330 C 0.13912 0.00576 0.65377
 H331 H 0.16007 0.02058 0.79804
 H332 H 0.22388 -0.05942 0.81959
 H333 H 0.24190 0.08549 0.80327
 H334 H 0.25725 0.07163 0.70051
 H335 H 0.23924 -0.07324 0.71688
 H336 H 0.32086 -0.00835 0.72192
 C337 C -0.25417 0.03761 0.27458
 C338 C -0.24582 0.04853 0.21922
 C339 C -0.27739 0.00354 0.20594
 C340 C -0.28628 -0.00735 0.26073
 C341 C -0.20857 0.00430 0.27431
 C342 C -0.24017 -0.04066 0.26099
 C343 C -0.19957 0.01520 0.21953
 C344 C -0.23181 -0.02980 0.20561
 C345 C -0.31669 0.00288 0.16888
 C346 C -0.34990 0.00213 0.13935
 C347 C -0.17125 0.00438 0.31339
 C348 C -0.14155 0.00407 0.34645
 H349 H -0.26297 0.06534 0.30336
 H350 H -0.24859 0.08520 0.20160
 H351 H -0.32234 -0.01664 0.27730
 H352 H -0.23744 -0.07735 0.27858
 H353 H -0.16347 0.02449 0.20305
 H354 H -0.22307 -0.05752 0.17682
 C355 C 0.19701 0.00508 0.22062
 C356 C 0.24251 0.03936 0.22003
 C357 C 0.27512 -0.00523 0.20819
 C358 C 0.23027 -0.03954 0.20814
 C359 C 0.20601 -0.00432 0.27574
 C360 C 0.23862 -0.04890 0.26389
 C361 C 0.25088 0.02995 0.27571
 C362 C 0.28402 -0.01461 0.26332
 C363 C 0.31449 -0.00537 0.17151
 C364 C 0.34762 -0.00502 0.14218
 C365 C 0.16858 -0.00360 0.31440
 C366 C 0.13886 -0.00283 0.34721
 H367 H 0.16079 0.01320 0.20353
 H368 H 0.24456 0.07565 0.20158
 H369 H 0.22227 -0.06812 0.17992
 H370 H 0.23658 -0.08519 0.28234
 H371 H 0.25895 0.05855 0.30389
 H372 H 0.32020 -0.02271 0.28050
 C373 C -0.26303 -0.00737 0.71560
 C374 C -0.26758 -0.04618 0.75693
 C375 C -0.27534 -0.00452 0.79449
 C376 C -0.27131 0.03428 0.75368
 C377 C -0.20750 -0.00437 0.72563
 C378 C -0.21523 0.03731 0.76319
 C379 C -0.21146 -0.04320 0.76642
 C380 C -0.21982 -0.00151 0.80464
 C381 C -0.31410 -0.00429 0.83183
 C382 C -0.34691 -0.00380 0.86154
 C383 C -0.17069 -0.00395 0.68636
 C384 C -0.14131 -0.00327 0.65324
 H385 H -0.28042 -0.00978 0.67857
 H386 H -0.28953 -0.08052 0.75478
 H387 H -0.29633 0.06615 0.74884
 H388 H -0.19328 0.07165 0.76532
 H389 H -0.18641 -0.07505 0.77121
 H390 H -0.20252 0.00091 0.84170
   
