data_POSCAR
  _audit_creation_date              2014-09-24
  _audit_creation_method            'ToBaCCo'
  _symmetry_space_group_name_H-M    'P1'
  _symmetry_Int_Tables_number       1
  _symmetry_cell_setting            triclinic
  loop_
  _symmetry_equiv_pos_as_xyz
 x,y,z
_cell_length_a 36.3754
_cell_length_b 35.6794
_cell_length_c 14.7909
_cell_angle_alpha 88.323500
_cell_angle_beta 91.090600
_cell_angle_gamma 116.110800
loop_
  _atom_site_label
  _atom_site_type_symbol
  _atom_site_fract_x
  _atom_site_fract_y
  _atom_site_fract_z
O1 O 0.27351 0.45889 0.58148
 O2 O 0.18823 0.40884 0.41940
 O3 O 0.26726 0.45036 0.40759
 O4 O 0.19415 0.41613 0.59613
 O5 O 0.18963 0.47582 0.58533
 O6 O 0.25703 0.50667 0.38641
 O7 O 0.17949 0.46635 0.41289
 O8 O 0.26919 0.51835 0.56002
 Cu9 Cu 0.23130 0.42755 0.50313
 Cu10 Cu 0.22334 0.49772 0.48580
 C11 C 0.28667 0.49759 0.59567
 C12 C 0.16931 0.42924 0.38869
 C13 C 0.27370 0.48371 0.36349
 C14 C 0.17956 0.44027 0.62294
 O15 O 0.62371 -0.14213 0.56704
 O16 O 0.61911 -0.23273 0.45027
 O17 O 0.62143 -0.16068 0.39768
 O18 O 0.62562 -0.20993 0.61521
 O19 O 0.55833 -0.24623 0.61282
 O20 O 0.55444 -0.18451 0.40976
 O21 O 0.55168 -0.25939 0.44144
 O22 O 0.55661 -0.17351 0.58396
 Cu23 Cu 0.62919 -0.18334 0.50540
 Cu24 Cu 0.54827 -0.21873 0.51219
 C25 C 0.59120 -0.14299 0.59895
 C26 C 0.58488 -0.26171 0.42675
 C27 C 0.58772 -0.16242 0.36874
 C28 C 0.59298 -0.23781 0.64930
 O29 O 1.27868 0.77905 0.38539
 O30 O 1.19335 0.72831 0.54356
 O31 O 1.26027 0.79368 0.54617
 O32 O 1.20829 0.71007 0.38337
 O33 O 1.24085 0.67554 0.44290
 O34 O 1.29143 0.75826 0.60875
 O35 O 1.22253 0.69038 0.60263
 O36 O 1.30986 0.74396 0.44897
 Cu37 Cu 1.23224 0.75632 0.45663
 Cu38 Cu 1.26934 0.71335 0.53124
 C39 C 1.30942 0.77121 0.39243
 C40 C 1.19359 0.70123 0.60091
 C41 C 1.28360 0.78962 0.60663
 C42 C 1.21511 0.67810 0.38692
 O43 O 0.80568 0.57263 0.41443
 O44 O 0.73154 0.54410 0.59979
 O45 O 0.81103 0.58020 0.59023
 O46 O 0.72638 0.53624 0.42570
 O47 O 0.72526 0.47420 0.44702
 O48 O 0.81391 0.51958 0.59950
 O49 O 0.73579 0.48460 0.62151
 O50 O 0.80521 0.51058 0.42675
 Cu51 Cu 0.76866 0.56455 0.50574
 Cu52 Cu 0.76997 0.49102 0.52443
 C53 C 0.81790 0.54639 0.38880
 C54 C 0.72170 0.50993 0.64358
 C55 C 0.82694 0.55727 0.62241
 C56 C 0.71082 0.49749 0.41025
 O57 O 0.41354 0.25349 0.41152
 O58 O 0.38906 0.18282 0.60966
 O59 O 0.42535 0.26383 0.58644
 O60 O 0.38778 0.17318 0.43398
 O61 O 0.44957 0.17548 0.43271
 O62 O 0.48655 0.26558 0.57774
 O63 O 0.44931 0.18216 0.60150
 O64 O 0.47326 0.25190 0.39876
 Cu65 Cu 0.39793 0.21820 0.51123
 Cu66 Cu 0.47134 0.22045 0.50465
 C67 C 0.44654 0.26329 0.36915
 C68 C 0.41435 0.16955 0.63820
 C69 C 0.46314 0.28012 0.60751
 C70 C 0.41257 0.15927 0.40728
 O71 O 0.78037 0.27703 0.62546
 O72 O 0.72155 0.19600 0.46269
 O73 O 0.78772 0.25714 0.46449
 O74 O 0.70243 0.21234 0.62530
 O75 O 0.67538 0.25193 0.56534
 O76 O 0.76261 0.29949 0.40962
 O77 O 0.69188 0.23428 0.40738
 O78 O 0.74922 0.31449 0.57510
 Cu79 Cu 0.74945 0.23151 0.55481
 Cu80 Cu 0.71713 0.27937 0.48474
 C81 C 0.77565 0.31018 0.62649
 C82 C 0.69806 0.20189 0.40536
 C83 C 0.78879 0.28497 0.40759
 C84 C 0.67338 0.22293 0.61943
 N85 N 0.96928 0.54752 0.10691
 N86 N 0.94663 0.56733 0.11924
 N87 N 1.04285 0.53321 0.17934
 N88 N 1.07327 0.53992 0.23649
 N89 N 1.05233 0.56519 0.12299
 N90 N 1.08914 0.59495 0.14155
 N91 N 0.95928 0.51587 0.16434
 N92 N 0.92940 0.51327 0.21751
 C93 C 0.92181 0.54553 0.18806
 C94 C 1.10164 0.57865 0.21270
 N95 N 1.01699 0.42064 0.09946
 N96 N 1.04025 0.40114 0.11411
 N97 N 0.93783 0.42784 0.15069
 N98 N 0.91004 0.40813 0.21345
 N99 N 0.93406 0.40263 0.08421
 N100 N 0.90407 0.36527 0.10097
 N101 N 1.02123 0.44607 0.16551
 N102 N 1.04783 0.44511 0.22610
 Mn103 Mn 0.99017 0.48077 0.16589
 C104 C 1.05927 0.41691 0.19345
 C105 C 0.88872 0.36942 0.18048
 N106 N 1.06022 0.57600 -0.07157
 N107 N 1.08810 0.61410 -0.09203
 N108 N 0.97298 0.53265 -0.15236
 N109 N 0.94715 0.53484 -0.21363
 N110 N 0.97751 0.55798 -0.08598
 N111 N 0.95531 0.57853 -0.10065
 N112 N 1.05637 0.55066 -0.13787
 N113 N 1.08216 0.57109 -0.20356
 Mn114 Mn 1.01493 0.56195 0.01844
 C115 C 1.10255 0.61031 -0.17292
 C116 C 0.93653 0.56360 -0.18045
 N117 N 0.94169 0.41326 -0.11072
 N118 N 0.90441 0.38411 -0.12908
 N119 N 1.03488 0.46282 -0.15157
 N120 N 1.06522 0.46629 -0.20411
 N121 N 1.02514 0.43104 -0.09458
 N122 N 1.04851 0.41195 -0.10680
 N123 N 0.95147 0.44547 -0.16660
 N124 N 0.92108 0.43949 -0.22317
 Mn125 Mn 0.97937 0.41647 -0.00570
 Mn126 Mn 1.00399 0.49781 -0.15286
 Cl127 Cl 0.99712 0.48923 0.00644
 C128 C 0.89221 0.40099 -0.19999
 C129 C 1.07340 0.43440 -0.17512
 N130 N 0.54800 0.49685 0.17592
 N131 N 0.55949 0.47506 0.23348
 N132 N 0.54943 0.58227 0.12830
 N133 N 0.56926 0.61934 0.16354
 N134 N 0.51870 0.55791 0.18005
 N135 N 0.51759 0.57818 0.25286
 N136 N 0.57879 0.52174 0.12527
 N137 N 0.61252 0.51858 0.14896
 C138 C 0.59968 0.48890 0.21562
 C139 C 0.54855 0.61695 0.23963
 N140 N 0.53886 0.58300 -0.13194
 N141 N 0.54081 0.61393 -0.18620
 N142 N 0.59180 0.53663 -0.06780
 N143 N 0.62596 0.53219 -0.07168
 N144 N 0.57035 0.52403 -0.14257
 N145 N 0.58937 0.51103 -0.19982
 N146 N 0.56243 0.59762 -0.06071
 N147 N 0.58094 0.63873 -0.06426
 Mn148 Mn 0.57101 0.55960 0.03128
 C149 C 0.56672 0.64849 -0.14206
 C150 C 0.62390 0.51637 -0.15477
 N151 N 0.43623 0.49219 0.14443
 N152 N 0.41483 0.50271 0.20078
 N153 N 0.44805 0.41665 0.06897
 N154 N 0.43850 0.37624 0.07023
 N155 N 0.46757 0.43374 0.14366
 N156 N 0.47123 0.40573 0.19810
 N157 N 0.41450 0.47515 0.07182
 N158 N 0.37818 0.47502 0.07553
 Mn159 Mn 0.49240 0.49535 0.16180
 C160 C 0.37895 0.49225 0.15631
 C161 C 0.45309 0.37014 0.15187
 N162 N 0.49020 0.45978 -0.17621
 N163 N 0.50387 0.44092 -0.23226
 N164 N 0.42713 0.48958 -0.11990
 N165 N 0.39193 0.48857 -0.14705
 N166 N 0.45756 0.51793 -0.16648
 N167 N 0.44400 0.53740 -0.22561
 N168 N 0.46072 0.43236 -0.12582
 N169 N 0.45299 0.39386 -0.14802
 Mn170 Mn 0.51411 0.52144 -0.15517
 Mn171 Mn 0.43709 0.45273 -0.02631
 Cl172 Cl 0.50355 0.50729 0.00291
 C173 C 0.48013 0.40000 -0.21513
 C174 C 0.40310 0.51896 -0.21200
 N175 N 0.41655 -0.06379 0.12347
 N176 N 0.38894 -0.10215 0.14376
 N177 N 0.45881 0.03041 0.16938
 N178 N 0.45641 0.05562 0.23046
 N179 N 0.42753 0.01898 0.11312
 N180 N 0.40309 0.03571 0.13445
 N181 N 0.44842 -0.05278 0.17778
 N182 N 0.44386 -0.08348 0.23502
 C183 C 0.40667 -0.11388 0.21328
 C184 C 0.42160 0.05878 0.20696
 N185 N 0.57094 0.06585 0.07981
 N186 N 0.60747 0.09626 0.09609
 N187 N 0.53474 -0.02500 0.15793
 N188 N 0.53706 -0.05419 0.21175
 N189 N 0.55903 -0.01742 0.08830
 N190 N 0.57856 -0.04097 0.09269
 N191 N 0.54706 0.05890 0.15032
 N192 N 0.56729 0.08475 0.21582
 Mn193 Mn 0.49724 0.00303 0.16489
 C194 C 0.60464 0.10859 0.17988
 C195 C 0.56468 -0.06364 0.17003
 N196 N 0.41765 0.01433 -0.08052
 N197 N 0.39885 0.03869 -0.08751
 N198 N 0.42975 -0.06256 -0.14009
 N199 N 0.41023 -0.08914 -0.20484
 N200 N 0.40540 -0.06914 -0.07062
 N201 N 0.36910 -0.09994 -0.08700
 N202 N 0.44238 0.02118 -0.14907
 N203 N 0.44155 0.05059 -0.20384
 Mn204 Mn 0.41647 -0.02501 0.02151
 C205 C 0.41415 0.06099 -0.16503
 C206 C 0.37274 -0.11291 -0.16961
 N207 N 0.54891 -0.02229 -0.10369
 N208 N 0.57510 -0.03612 -0.12888
 N209 N 0.52831 0.04924 -0.16906
 N210 N 0.53372 0.07959 -0.22819
 N211 N 0.55984 0.06036 -0.11386
 N212 N 0.58808 0.09820 -0.13522
 N213 N 0.51761 -0.03418 -0.15987
 N214 N 0.52185 -0.05675 -0.22485
 Mn215 Mn 0.55983 0.02176 -0.01240
 Mn216 Mn 0.47946 -0.00680 -0.15535
 Cl217 Cl 0.48824 -0.00173 0.00473
 C218 C 0.55760 -0.05820 -0.20313
 C219 C 0.57110 0.10977 -0.20626
 C220 C 1.13737 0.41166 0.32675
 C221 C 1.12557 0.37390 0.28501
 C222 C 1.09468 0.37074 0.22672
 C223 C 1.08976 0.40643 0.23883
 O224 O 1.11556 0.43120 0.29904
 H225 H 1.13838 0.35183 0.29457
 H226 H 1.07755 0.34538 0.18183
 C227 C 0.58453 0.70127 0.38531
 C228 C 0.61743 0.69187 0.39095
 C229 C 0.60633 0.65693 0.34210
 C230 C 0.56740 0.64734 0.31074
 O231 O 0.55388 0.67430 0.33639
 H232 H 0.64646 0.70910 0.42492
 H233 H 0.62507 0.64129 0.32728
 C234 C 0.34593 -0.20416 0.33830
 C235 C 0.38265 -0.20644 0.34917
 C236 C 0.41017 -0.17355 0.29988
 C237 C 0.38801 -0.15415 0.26175
 O238 O 0.34904 -0.17252 0.28490
 H239 H 0.38907 -0.22791 0.39230
 H240 H 0.44278 -0.16383 0.29512
 C241 C 0.84749 0.55781 0.31494
 C242 C 0.85839 0.59287 0.25990
 C243 C 0.88726 0.59237 0.20330
 C244 C 0.89194 0.55720 0.22858
 O245 O 0.86780 0.53604 0.29620
 H246 H 0.84687 0.61611 0.26142
 H247 H 0.90350 0.61525 0.15094
 C248 C 0.45269 0.28692 0.28339
 C249 C 0.45920 0.27359 0.20123
 C250 C 0.45807 0.30208 0.13854
 C251 C 0.45145 0.33071 0.18777
 O252 O 0.44800 0.32150 0.27541
 H253 H 0.46321 0.24590 0.18850
 H254 H 0.46274 0.30266 0.06638
 C255 C 0.68076 0.17237 0.33171
 C256 C 0.70402 0.15824 0.28372
 C257 C 0.67856 0.13379 0.21890
 C258 C 0.64135 0.13411 0.23310
 O259 O 0.64245 0.15775 0.30162
 H260 H 0.73602 0.16563 0.29394
 H261 H 0.68592 0.11685 0.16837
 C262 C 0.40322 0.14005 -0.29115
 C263 C 0.36801 0.12728 -0.24050
 C264 C 0.36816 0.09679 -0.18275
 C265 C 0.40301 0.09286 -0.20371
 O266 O 0.42448 0.11917 -0.26883
 H267 H 0.34481 0.13850 -0.24576
 H268 H 0.34499 0.07859 -0.13377
 C269 C 0.69533 0.50057 -0.28329
 C270 C 0.68650 0.46766 -0.22242
 C271 C 0.65998 0.47067 -0.16217
 C272 C 0.65435 0.50476 -0.19165
 O273 O 0.67556 0.52289 -0.26505
 H274 H 0.69801 0.44436 -0.22200
 H275 H 0.64527 0.44968 -0.10574
 C276 C 0.80079 0.34309 -0.31883
 C277 C 0.79744 0.38001 -0.31358
 C278 C 0.83058 0.40581 -0.26489
 C279 C 0.85136 0.38257 -0.24219
 O280 O 0.83338 0.34432 -0.27444
 H281 H 0.77430 0.38761 -0.34427
 H282 H 0.83932 0.43816 -0.24988
 C283 C 0.59436 -0.11026 -0.34760
 C284 C 0.63143 -0.07829 -0.32261
 C285 C 0.62193 -0.05484 -0.26568
 C286 C 0.57983 -0.07366 -0.26119
 O287 O 0.56271 -0.10743 -0.31086
 H288 H 0.66186 -0.07339 -0.34153
 H289 H 0.64317 -0.02730 -0.23098
 C290 C 0.32354 0.51886 -0.34874
 C291 C 0.34819 0.56133 -0.35238
 C292 C 0.38150 0.56725 -0.30009
 C293 C 0.37413 0.52807 -0.26728
 O294 O 0.33915 0.49859 -0.29688
 H295 H 0.34331 0.58482 -0.39176
 H296 H 0.40820 0.59641 -0.28827
 C297 C 1.16210 0.68404 -0.33647
 C298 C 1.13429 0.69982 -0.32125
 C299 C 1.11000 0.67544 -0.25349
 C300 C 1.12422 0.64616 -0.23372
 O301 O 1.15585 0.65112 -0.28383
 H302 H 1.13228 0.72622 -0.35486
 H303 H 1.08394 0.67760 -0.22436
 C304 C 0.86055 0.57372 -0.31196
 C305 C 0.87172 0.60968 -0.26376
 C306 C 0.90215 0.61095 -0.20647
 C307 C 0.90728 0.57594 -0.22532
 O308 O 0.88211 0.55332 -0.28893
 H309 H 0.85860 0.63164 -0.26833
 H310 H 0.91854 0.63441 -0.15701
 C311 C 0.48089 0.31673 -0.33437
 C312 C 0.52243 0.33843 -0.31863
 C313 C 0.52699 0.37163 -0.26904
 C314 C 0.48793 0.36743 -0.25669
 O315 O 0.45964 0.33421 -0.29658
 H316 H 0.54662 0.33162 -0.34326
 H317 H 0.55548 0.39661 -0.24629
 C318 C 0.63579 0.19927 -0.32891
 C319 C 0.59987 0.20287 -0.34350
 C320 C 0.57073 0.17015 -0.29671
 C321 C 0.59123 0.14954 -0.25614
 O322 O 0.63065 0.16698 -0.27551
 H323 H 0.59506 0.22510 -0.38752
 H324 H 0.53825 0.16152 -0.29468
 C325 C 1.15002 0.42681 -0.30270
 C326 C 1.14048 0.39154 -0.24900
 C327 C 1.11080 0.39005 -0.19197
 C328 C 1.10439 0.42438 -0.21574
 O329 O 1.12816 0.44680 -0.28271
 H330 H 1.15334 0.36941 -0.25179
 H331 H 1.09518 0.36644 -0.14043
 C332 C 0.59592 0.73998 -0.27434
 C333 C 0.63053 0.75262 -0.22043
 C334 C 0.62246 0.72092 -0.15914
 C335 C 0.58404 0.69084 -0.18163
 O336 O 0.56753 0.70236 -0.25101
 H337 H 0.65861 0.78120 -0.22634
 H338 H 0.64312 0.71883 -0.10778
 C339 C 0.29926 -0.17962 -0.32178
 C340 C 0.27492 -0.16521 -0.27876
 C341 C 0.29921 -0.13959 -0.21392
 C342 C 0.33682 -0.13963 -0.22334
 O343 O 0.33709 -0.16410 -0.28873
 H344 H 0.24300 -0.17317 -0.29215
 H345 H 0.29085 -0.12208 -0.16668
 C346 C 0.58812 -0.13731 0.28819
 C347 C 0.61625 -0.12767 0.21976
 C348 C 0.60990 -0.09992 0.16447
 C349 C 0.57880 -0.09419 0.20406
 O350 O 0.56529 -0.11697 0.27917
 H351 H 0.63935 -0.13875 0.21259
 H352 H 0.62691 -0.08449 0.10425
 C353 C 0.30015 0.49510 0.28384
 C354 C 0.29413 0.51428 0.20646
 C355 C 0.32275 0.51520 0.14683
 C356 C 0.34446 0.49737 0.19335
 O357 O 0.33075 0.48492 0.27623
 H358 H 0.27082 0.52495 0.19415
 H359 H 0.32747 0.52759 0.07813
 C360 C 1.19133 0.64244 0.32933
 C361 C 1.19802 0.60736 0.32590
 C362 C 1.16549 0.57896 0.27947
 C363 C 1.14186 0.59918 0.25640
 O364 O 1.15736 0.63773 0.28637
 H365 H 1.22294 0.60272 0.35659
 H366 H 1.15923 0.54707 0.26560
 C367 C 0.39970 0.12494 0.34398
 C368 C 0.36257 0.10740 0.29936
 C369 C 0.36570 0.07972 0.24181
 C370 C 0.40441 0.08245 0.25630
 O371 O 0.42507 0.10983 0.31817
 H372 H 0.33690 0.11475 0.30618
 H373 H 0.34274 0.06021 0.19426
 C374 C 0.67472 0.47940 0.35149
 C375 C 0.64755 0.43761 0.35135
 C376 C 0.61575 0.43534 0.29774
 C377 C 0.62653 0.47576 0.26804
 O378 O 0.66211 0.50261 0.30077
 H379 H 0.64969 0.41230 0.38955
 H380 H 0.58766 0.40783 0.28371
 C381 C 0.81908 0.29812 0.33501
 C382 C 0.82977 0.27068 0.29187
 C383 C 0.85599 0.29373 0.22550
 C384 C 0.85988 0.33367 0.23412
 O385 O 0.83733 0.33656 0.30038
 H386 H 0.81900 0.23761 0.30618
 H387 H 0.87137 0.28302 0.17798
   
