data_POSCAR
  _audit_creation_date              2014-09-24
  _audit_creation_method            'ToBaCCo'
  _symmetry_space_group_name_H-M    'P1'
  _symmetry_Int_Tables_number       1
  _symmetry_cell_setting            triclinic
  loop_
  _symmetry_equiv_pos_as_xyz
 x,y,z
_cell_length_a 44.8756
_cell_length_b 44.9542
_cell_length_c 7.0680
_cell_angle_alpha 90.181000
_cell_angle_beta 89.977900
_cell_angle_gamma 90.065700
loop_
  _atom_site_label
  _atom_site_type_symbol
  _atom_site_fract_x
  _atom_site_fract_y
  _atom_site_fract_z
O1 O 0.23044 0.27826 0.03303
 O2 O 0.28449 0.22056 0.16791
 O3 O 0.23026 0.22019 0.03571
 O4 O 0.28452 0.27823 0.16649
 O5 O 0.26809 0.27884 0.46133
 O6 O 0.21385 0.22082 0.33058
 O7 O 0.26807 0.22078 0.46271
 O8 O 0.21400 0.27849 0.32782
 Cu9 Cu 0.25931 0.24925 0.07203
 Cu10 Cu 0.23912 0.24977 0.42435
 C11 C 0.21288 0.28801 0.15955
 C12 C 0.28566 0.21106 0.33619
 C13 C 0.21264 0.21084 0.16286
 C14 C 0.28568 0.28822 0.33415
 O15 O 0.78509 0.27822 0.32789
 O16 O 0.73094 0.22038 0.46139
 O17 O 0.78507 0.22056 0.32814
 O18 O 0.73102 0.27846 0.46188
 O19 O 0.71450 0.27813 0.16735
 O20 O 0.76861 0.22022 0.03345
 O21 O 0.71445 0.22044 0.16684
 O22 O 0.76857 0.27828 0.03335
 Cu23 Cu 0.75992 0.24941 0.42354
 Cu24 Cu 0.73964 0.24924 0.07148
 C25 C 0.78620 0.28789 0.15987
 C26 C 0.71332 0.21073 0.33469
 C27 C 0.78621 0.21074 0.16016
 C28 C 0.71342 0.28797 0.33534
 O29 O 0.73159 0.77946 0.53565
 O30 O 0.78543 0.72147 0.66962
 O31 O 0.73136 0.72138 0.53600
 O32 O 0.78578 0.77916 0.66818
 O33 O 0.76938 0.77971 0.96305
 O34 O 0.71489 0.72195 0.83074
 O35 O 0.76893 0.72164 0.96429
 O36 O 0.71517 0.77964 0.83052
 Cu37 Cu 0.76043 0.75035 0.57365
 Cu38 Cu 0.74020 0.75078 0.92591
 C39 C 0.71406 0.78920 0.66232
 C40 C 0.78647 0.71187 0.83781
 C41 C 0.71374 0.71201 0.66303
 C42 C 0.78702 0.78907 0.83595
 O43 O 0.28514 0.77968 0.82997
 O44 O 0.23118 0.72182 0.96547
 O45 O 0.28524 0.72202 0.83158
 O46 O 0.23093 0.77990 0.96313
 O47 O 0.21449 0.77919 0.66845
 O48 O 0.26875 0.72132 0.53689
 O49 O 0.21468 0.72150 0.67090
 O50 O 0.26869 0.77936 0.53529
 Cu51 Cu 0.26001 0.75092 0.92635
 Cu52 Cu 0.23976 0.75031 0.57424
 C53 C 0.28628 0.78914 0.66156
 C54 C 0.21361 0.71199 0.83924
 C55 C 0.28638 0.71202 0.66387
 C56 C 0.21330 0.78919 0.83603
 C57 C 0.97318 -0.06356 -0.01990
 C58 C 1.00027 -0.07878 -0.02511
 C59 C 1.02738 -0.06353 -0.02039
 C60 C 1.02771 -0.03213 -0.01023
 C61 C 1.00031 -0.01641 -0.00485
 C62 C 0.97290 -0.03216 -0.00971
 C63 C 0.94602 -0.01614 -0.00439
 C64 C 0.94604 0.01481 0.00546
 C65 C 0.97295 0.03086 0.01030
 C66 C 1.00034 0.01514 0.00508
 C67 C 1.05461 -0.01607 -0.00575
 C68 C 1.05463 0.01488 0.00438
 C69 C 1.02774 0.03090 0.01002
 C70 C 1.02746 0.06230 0.02039
 C71 C 1.00037 0.07752 0.02570
 C72 C 0.97327 0.06226 0.02051
 H73 H 0.92469 -0.02742 -0.00759
 H74 H 0.92474 0.02608 0.00954
 H75 H 1.07591 -0.02734 -0.01009
 H76 H 1.07594 0.02618 0.00736
 H77 H 1.00025 -0.10290 -0.03391
 H78 H 1.00038 0.10164 0.03454
 C79 C 0.52700 0.56281 0.51972
 C80 C 0.49992 0.57804 0.52452
 C81 C 0.47281 0.56279 0.52013
 C82 C 0.47249 0.53140 0.51119
 C83 C 0.49987 0.51565 0.50651
 C84 C 0.52729 0.53142 0.51065
 C85 C 0.55416 0.51539 0.50578
 C86 C 0.55415 0.48443 0.49713
 C87 C 0.52724 0.46837 0.49319
 C88 C 0.49986 0.48411 0.49793
 C89 C 0.44558 0.51534 0.50719
 C90 C 0.44556 0.48438 0.49839
 C91 C 0.47244 0.46835 0.49360
 C92 C 0.47273 0.43695 0.48435
 C93 C 0.49981 0.42172 0.47970
 C94 C 0.52692 0.43697 0.48407
 H95 H 0.57548 0.52669 0.50828
 H96 H 0.57545 0.47316 0.49333
 H97 H 0.42428 0.52661 0.51101
 H98 H 0.42424 0.47309 0.49560
 H99 H 0.49994 0.60216 0.53253
 H100 H 0.49979 0.39759 0.47176
 C101 C -0.02740 0.43723 0.01227
 C102 C -0.00033 0.42197 0.01463
 C103 C 0.02678 0.43721 0.01183
 C104 C 0.02714 0.46862 0.00642
 C105 C -0.00024 0.48439 0.00422
 C106 C -0.02767 0.46864 0.00710
 C107 C -0.05454 0.48469 0.00519
 C108 C -0.05448 0.51567 0.00032
 C109 C -0.02756 0.53171 -0.00240
 C110 C -0.00019 0.51594 -0.00030
 C111 C 0.05406 0.48465 0.00337
 C112 C 0.05410 0.51562 -0.00139
 C113 C 0.02724 0.53169 -0.00314
 C114 C 0.02698 0.56310 -0.00817
 C115 C -0.00009 0.57836 -0.01040
 C116 C -0.02721 0.56312 -0.00757
 H117 H -0.07587 0.47342 0.00748
 H118 H -0.07578 0.52697 -0.00096
 H119 H 0.07535 0.47334 0.00455
 H120 H 0.07543 0.52690 -0.00349
 H121 H -0.00037 0.39784 0.01979
 H122 H -0.00006 0.60250 -0.01596
 C123 C 0.52736 1.06365 0.48658
 C124 C 0.50025 1.07885 0.48378
 C125 C 0.47317 1.06355 0.48744
 C126 C 0.47290 1.03215 0.49430
 C127 C 0.50031 1.01645 0.49719
 C128 C 0.52769 1.03225 0.49331
 C129 C 0.55460 1.01625 0.49583
 C130 C 0.55463 0.98529 0.50237
 C131 C 0.52775 0.96920 0.50633
 C132 C 0.50034 0.98490 0.50337
 C133 C 0.44601 1.01605 0.49796
 C134 C 0.44605 0.98508 0.50432
 C135 C 0.47295 0.96909 0.50701
 C136 C 0.47329 0.93769 0.51358
 C137 C 0.50039 0.92249 0.51677
 C138 C 0.52747 0.93780 0.51336
 H139 H 0.57591 1.02757 0.49297
 H140 H 0.57595 0.97404 0.50410
 H141 H 0.42469 1.02729 0.49621
 H142 H 0.42475 0.97375 0.50725
 H143 H 0.50023 1.10298 0.47716
 H144 H 0.50041 0.89836 0.52334
 C145 C 1.14688 0.15154 0.07663
 C146 C 1.14128 0.13330 0.25662
 C147 C 1.11770 0.11432 0.24251
 C148 C 1.10200 0.11544 0.04981
 C149 C 1.12661 0.10942 -0.09652
 C150 C 1.15025 0.12844 -0.08235
 C151 C 1.11719 0.16719 0.03652
 C152 C 1.09361 0.14823 0.02251
 C153 C 1.17191 0.17234 0.09544
 C154 C 1.19159 0.19015 0.12137
 C155 C 1.07627 0.09541 0.03624
 C156 C 1.05442 0.07984 0.02794
 H157 H 1.15460 0.13522 0.38431
 H158 H 1.11086 0.09998 0.35804
 H159 H 1.12559 0.09177 -0.20141
 H160 H 1.16948 0.12710 -0.17514
 H161 H 1.11489 0.19108 0.02002
 H162 H 1.07112 0.15589 -0.00596
 C163 C 0.64667 0.65168 0.57458
 C164 C 0.65405 0.62240 0.47249
 C165 C 0.63033 0.60347 0.45851
 C166 C 0.60166 0.61576 0.54810
 C167 C 0.59655 0.64586 0.45166
 C168 C 0.62021 0.66475 0.46563
 C169 C 0.63378 0.64230 0.76671
 C170 C 0.61014 0.62344 0.75278
 C171 C 0.67177 0.67241 0.59331
 C172 C 0.69149 0.69017 0.61884
 C173 C 0.57586 0.59584 0.53485
 C174 C 0.55398 0.58033 0.52681
 H175 H 0.67590 0.61702 0.41621
 H176 H 0.63186 0.58185 0.39032
 H177 H 0.57614 0.65183 0.37866
 H178 H 0.62007 0.68687 0.40455
 H179 H 0.64251 0.64979 0.90207
 H180 H 0.59861 0.61479 0.87611
 C181 C -0.14680 0.34811 0.06899
 C182 C -0.14835 0.36840 -0.10502
 C183 C -0.12471 0.38739 -0.11968
 C184 C -0.10192 0.38414 0.04105
 C185 C -0.09306 0.35118 0.03871
 C186 C -0.11663 0.33225 0.05344
 C187 C -0.14350 0.36929 0.23861
 C188 C -0.11991 0.38823 0.22390
 C189 C -0.17186 0.32739 0.08855
 C190 C -0.19158 0.30967 0.11483
 C191 C -0.07620 0.40414 0.02699
 C192 C -0.05436 0.41971 0.01884
 H193 H -0.16633 0.36786 -0.20768
 H194 H -0.12247 0.40317 -0.23475
 H195 H -0.07025 0.34338 0.02591
 H196 H -0.11401 0.30824 0.05354
 H197 H -0.15833 0.36932 0.36002
 H198 H -0.11453 0.40448 0.33263
 C199 C 0.35356 0.84897 0.56930
 C200 C 0.35214 0.86935 0.39564
 C201 C 0.37589 0.88821 0.38139
 C202 C 0.39865 0.88475 0.54213
 C203 C 0.40733 0.85175 0.53920
 C204 C 0.38364 0.83295 0.55358
 C205 C 0.35696 0.87008 0.73924
 C206 C 0.38067 0.88888 0.72496
 C207 C 0.32839 0.82839 0.58876
 C208 C 0.30858 0.81079 0.61548
 C209 C 0.42448 0.90462 0.52857
 C210 C 0.44635 0.92013 0.52048
 H211 H 0.33414 0.86900 0.29317
 H212 H 0.37821 0.90407 0.26688
 H213 H 0.43009 0.84382 0.52672
 H214 H 0.38613 0.80893 0.55355
 H215 H 0.34206 0.87023 0.86029
 H216 H 0.38606 0.90514 0.83360
 C217 C -0.14680 0.65165 -0.06843
 C218 C -0.12541 0.65995 0.09265
 C219 C -0.10175 0.64116 0.10842
 C220 C -0.10181 0.61590 -0.03833
 C221 C -0.10363 0.63148 -0.23077
 C222 C -0.12724 0.65025 -0.24656
 C223 C -0.15581 0.61926 -0.02997
 C224 C -0.13210 0.60043 -0.01403
 C225 C -0.17184 0.67229 -0.08940
 C226 C -0.19147 0.69002 -0.11660
 C227 C -0.07602 0.59608 -0.02319
 C228 C -0.05415 0.58062 -0.01442
 H229 H -0.12867 0.67879 0.18687
 H230 H -0.08469 0.64396 0.21588
 H231 H -0.08789 0.62792 -0.34532
 H232 H -0.13168 0.66277 -0.37464
 H233 H -0.17872 0.61179 -0.01643
 H234 H -0.13469 0.57682 0.01331
 C235 C 0.35302 1.15144 0.42906
 C236 C 0.35123 1.12422 0.29767
 C237 C 0.37505 1.10560 0.31271
 C238 C 0.39829 1.11601 0.45788
 C239 C 0.38093 1.11997 0.64364
 C240 C 0.35708 1.13864 0.62847
 C241 C 0.38293 1.16623 0.38167
 C242 C 0.40669 1.14763 0.39681
 C243 C 0.32777 1.17189 0.40872
 C244 C 0.30796 1.18943 0.38189
 C245 C 0.42423 1.09634 0.47220
 C246 C 0.44618 1.08097 0.48055
 H247 H 0.33282 1.11990 0.20187
 H248 H 0.37708 1.08536 0.22953
 H249 H 0.38682 1.10904 0.77516
 H250 H 0.34253 1.14371 0.74699
 H251 H 0.38523 1.18928 0.33859
 H252 H 0.42932 1.15477 0.36686
 C253 C 1.14726 -0.15193 -0.07698
 C254 C 1.14697 -0.12744 -0.22803
 C255 C 1.12323 -0.10869 -0.21386
 C256 C 1.10212 -0.11626 -0.05005
 C257 C 1.12193 -0.11658 0.12724
 C258 C 1.14570 -0.13537 0.11305
 C259 C 1.11701 -0.16759 -0.09667
 C260 C 1.09331 -0.14886 -0.08261
 C261 C 1.17243 -0.17254 -0.09609
 C262 C 1.19218 -0.19022 -0.12212
 C263 C 1.07625 -0.09646 -0.03648
 C264 C 1.05435 -0.08101 -0.02812
 H265 H 1.16392 -0.12504 -0.33658
 H266 H 1.11982 -0.09027 -0.31040
 H267 H 1.11763 -0.10330 0.25285
 H268 H 1.16176 -0.13820 0.22642
 H269 H 1.11442 -0.19133 -0.12036
 H270 H 1.07044 -0.15656 -0.09418
 C271 C 0.64653 0.34827 0.42651
 C272 C 0.64624 0.37275 0.27543
 C273 C 0.62258 0.39159 0.29006
 C274 C 0.60154 0.38411 0.45447
 C275 C 0.62145 0.38373 0.63132
 C276 C 0.64515 0.36486 0.61651
 C277 C 0.61621 0.33273 0.40761
 C278 C 0.59259 0.35154 0.42228
 C279 C 0.67160 0.32758 0.40680
 C280 C 0.69127 0.30983 0.38046
 C281 C 0.57574 0.40400 0.46836
 C282 C 0.55388 0.41948 0.47664
 H283 H 0.66316 0.37510 0.16666
 H284 H 0.61918 0.41001 0.19351
 H285 H 0.61726 0.39702 0.75706
 H286 H 0.66130 0.36200 0.72931
 H287 H 0.61352 0.30899 0.38438
 H288 H 0.56969 0.34391 0.41154
 C289 C 0.85317 -0.15207 -0.07660
 C290 C 0.88211 -0.16488 -0.15893
 C291 C 0.90582 -0.14613 -0.14469
 C292 C 0.89836 -0.11635 -0.04949
 C293 C 0.88462 -0.12470 0.14236
 C294 C 0.86084 -0.14350 0.12807
 C295 C 0.84868 -0.12239 -0.17970
 C296 C 0.87246 -0.10360 -0.16544
 C297 C 0.82797 -0.17268 -0.09582
 C298 C 0.80818 -0.19037 -0.12204
 C299 C 0.92425 -0.09652 -0.03583
 C300 C 0.94618 -0.08106 -0.02745
 H301 H 0.88382 -0.18677 -0.22335
 H302 H 0.92781 -0.15197 -0.19688
 H303 H 0.89282 -0.11652 0.27736
 H304 H 0.84865 -0.15143 0.25070
 H305 H 0.82862 -0.11664 -0.25718
 H306 H 0.87277 -0.08177 -0.23069
 C307 C 0.35282 0.34844 0.42400
 C308 C 0.34521 0.37815 0.52013
 C309 C 0.36899 0.39698 0.53541
 C310 C 0.39795 0.38418 0.45288
 C311 C 0.39031 0.37576 0.24804
 C312 C 0.36661 0.35699 0.23286
 C313 C 0.37870 0.33564 0.53969
 C314 C 0.40242 0.35441 0.55481
 C315 C 0.32767 0.32781 0.40398
 C316 C 0.30792 0.31008 0.37811
 C317 C 0.42382 0.40400 0.46750
 C318 C 0.44574 0.41945 0.47645
 H319 H 0.32317 0.38386 0.57206
 H320 H 0.36732 0.41883 0.60025
 H321 H 0.40242 0.38386 0.12550
 H322 H 0.35842 0.34905 0.09722
 H323 H 0.37844 0.31373 0.60380
 H324 H 0.42249 0.34857 0.63191
 C325 C 0.14670 0.65179 -0.06656
 C326 C 0.14784 0.62547 -0.20538
 C327 C 0.12415 0.60664 -0.19022
 C328 C 0.10168 0.61596 -0.03749
 C329 C 0.09290 0.64792 -0.08811
 C330 C 0.11654 0.66673 -0.10343
 C331 C 0.14373 0.63765 0.13004
 C332 C 0.12001 0.61877 0.14533
 C333 C 0.17179 0.67246 -0.08724
 C334 C 0.19147 0.69018 -0.11466
 C335 C 0.07586 0.59608 -0.02310
 C336 C 0.05397 0.58060 -0.01488
 H337 H 0.16569 0.62192 -0.30658
 H338 H 0.12167 0.58700 -0.27872
 H339 H 0.07010 0.65514 -0.11083
 H340 H 0.11397 0.69006 -0.13934
 H341 H 0.15885 0.64205 0.24672
 H342 H 0.11483 0.60698 0.27510
 C343 C 0.64739 1.15192 0.42590
 C344 C 0.62508 1.16126 0.57961
 C345 C 0.60131 1.14255 0.59513
 C346 C 0.60217 1.11633 0.45551
 C347 C 0.63227 1.10109 0.49102
 C348 C 0.65609 1.11985 0.47544
 C349 C 0.62887 1.14926 0.24398
 C350 C 0.60514 1.13058 0.25951
 C351 C 0.67255 1.17248 0.40510
 C352 C 0.69228 1.19018 0.37771
 C353 C 0.57626 1.09659 0.47031
 C354 C 0.55433 1.08116 0.47910
 H355 H 0.62781 1.18073 0.66917
 H356 H 0.58364 1.14603 0.69776
 H357 H 0.63466 1.07769 0.52506
 H358 H 0.67890 1.11252 0.49601
 H359 H 0.63410 1.16088 0.11363
 H360 H 0.59006 1.12622 0.14247
 C361 C 0.14607 0.34824 0.06773
 C362 C 0.11982 0.33526 -0.04454
 C363 C 0.09625 0.35416 -0.05938
 C364 C 0.10123 0.38421 0.03947
 C365 C 0.13013 0.39653 -0.04666
 C366 C 0.15376 0.37759 -0.03176
 C367 C 0.13277 0.35750 0.25927
 C368 C 0.10922 0.37639 0.24435
 C369 C 0.17108 0.32751 0.08752
 C370 C 0.19073 0.30979 0.11403
 C371 C 0.07552 0.40415 0.02564
 C372 C 0.05370 0.41969 0.01793
 H373 H 0.11979 0.31319 -0.10748
 H374 H 0.07601 0.34827 -0.13481
 H375 H 0.13188 0.41821 -0.11298
 H376 H 0.17576 0.38300 -0.08551
 H377 H 0.14114 0.34991 0.39497
 H378 H 0.09743 0.38495 0.36710
 C379 C 0.64709 0.84928 0.57102
 C380 C 0.63978 0.86587 0.75555
 C381 C 0.61614 0.88468 0.74064
 C382 C 0.60210 0.88506 0.54276
 C383 C 0.59434 0.85248 0.49988
 C384 C 0.61797 0.83368 0.51471
 C385 C 0.65153 0.87375 0.42253
 C386 C 0.62783 0.89261 0.40772
 C387 C 0.67218 0.82866 0.59080
 C388 C 0.69189 0.81098 0.61715
 C389 C 0.57631 0.90490 0.52873
 C390 C 0.55443 0.92035 0.52045
 H391 H 0.65208 0.86309 0.88662
 H392 H 0.60823 0.89801 0.85875
 H393 H 0.57221 0.84484 0.46081
 H394 H 0.61609 0.80995 0.48805
 H395 H 0.67148 0.87608 0.33695
 H396 H 0.62750 0.91117 0.30996
 C397 C 0.85340 0.15070 0.07200
 C398 C 0.85715 0.13044 0.24501
 C399 C 0.88088 0.11168 0.23199
 C400 C 0.89854 0.11499 0.04733
 C401 C 0.90711 0.14801 0.03868
 C402 C 0.88341 0.16676 0.05161
 C403 C 0.85173 0.12947 -0.09825
 C404 C 0.87550 0.11066 -0.11123
 C405 C 0.82822 0.17129 0.08999
 C406 C 0.80845 0.18896 0.11539
 C407 C 0.92440 0.09518 0.03496
 C408 C 0.94630 0.07974 0.02744
 H409 H 0.84248 0.13083 0.36723
 H410 H 0.88654 0.09602 0.34293
 H411 H 0.92984 0.15598 0.02348
 H412 H 0.88583 0.19079 0.04745
 H413 H 0.83354 0.12925 -0.19948
 H414 H 0.87766 0.09427 -0.22347
 C415 C 0.35341 0.65176 0.57596
 C416 C 0.38332 0.66761 0.54535
 C417 C 0.40690 0.64872 0.53121
 C418 C 0.39831 0.61580 0.54912
 C419 C 0.37441 0.61066 0.39690
 C420 C 0.35077 0.62961 0.41092
 C421 C 0.35809 0.63248 0.75249
 C422 C 0.38167 0.61356 0.73827
 C423 C 0.32834 0.67247 0.59459
 C424 C 0.30862 0.69020 0.61995
 C425 C 0.42404 0.59584 0.53561
 C426 C 0.44587 0.58031 0.52744
 H427 H 0.38575 0.69158 0.53488
 H428 H 0.42954 0.65652 0.50873
 H429 H 0.37594 0.59367 0.28792
 H430 H 0.33207 0.62892 0.31363
 H431 H 0.34418 0.63368 0.87804
 H432 H 0.38791 0.59852 0.85139
   
