data_POSCAR
  _audit_creation_date              2014-09-24
  _audit_creation_method            'ToBaCCo'
  _symmetry_space_group_name_H-M    'P1'
  _symmetry_Int_Tables_number       1
  _symmetry_cell_setting            triclinic
  loop_
  _symmetry_equiv_pos_as_xyz
 x,y,z
_cell_length_a 20.7653
_cell_length_b 20.7652
_cell_length_c 35.4910
_cell_angle_alpha 89.876000
_cell_angle_beta 89.877300
_cell_angle_gamma 89.995700
loop_
  _atom_site_label
  _atom_site_type_symbol
  _atom_site_fract_x
  _atom_site_fract_y
  _atom_site_fract_z
O1 O 0.05277 0.56375 1.03612
 O2 O 0.05284 0.43830 0.96290
 O3 O 0.05284 0.56393 0.96283
 O4 O 0.05277 0.43818 1.03618
 O5 O -0.05374 0.43818 1.03628
 O6 O -0.05365 0.56394 0.96292
 O7 O -0.05366 0.43830 0.96300
 O8 O -0.05374 0.56376 1.03621
 Cu9 Cu 0.06355 0.50104 0.99949
 Cu10 Cu -0.06444 0.50105 0.99960
 C11 C -0.00050 0.58508 1.04843
 C12 C -0.00039 0.41693 0.95071
 C13 C -0.00039 0.58536 0.95060
 C14 C -0.00050 0.41679 1.04852
 O15 O 0.43814 0.05281 0.53618
 O16 O 0.56389 0.05288 0.46283
 O17 O 0.43825 0.05288 0.46290
 O18 O 0.56371 0.05282 0.53611
 O19 O 0.56373 -0.05369 0.53621
 O20 O 0.43827 -0.05362 0.46300
 O21 O 0.56390 -0.05361 0.46292
 O22 O 0.43815 -0.05370 0.53628
 Cu23 Cu 0.50100 0.06359 0.49949
 Cu24 Cu 0.50102 -0.06440 0.49961
 C25 C 0.41676 -0.00046 0.54852
 C26 C 0.58532 -0.00035 0.45060
 C27 C 0.41688 -0.00036 0.45071
 C28 C 0.58505 -0.00045 0.54843
 Si29 Si -0.00047 0.00014 0.25037
 Si30 Si 0.00011 -0.00042 0.75037
 C31 C -0.00055 -0.27095 0.12624
 N32 N 0.05579 -0.24584 0.13871
 N33 N 0.05579 -0.19671 0.16281
 C34 C -0.00054 -0.17121 0.17516
 N35 N -0.05688 -0.19638 0.16273
 N36 N -0.05688 -0.24551 0.13863
 C37 C -0.00054 -0.32246 0.09935
 C38 C -0.00053 -0.36505 0.07633
 C39 C -0.00053 -0.11694 0.20011
 C40 C -0.00051 -0.07070 0.22056
 C41 C -0.00055 0.27232 0.12637
 N42 N -0.05688 0.24678 0.13875
 N43 N -0.05688 0.19745 0.16283
 C44 C -0.00054 0.17217 0.17526
 N45 N 0.05579 0.19776 0.16291
 N46 N 0.05579 0.24710 0.13883
 C47 C -0.00054 0.32403 0.09948
 C48 C -0.00053 0.36677 0.07645
 C49 C -0.00053 0.11768 0.20017
 C50 C -0.00051 0.07125 0.22059
 C51 C 0.27229 -0.00051 0.62637
 N52 N 0.24708 0.05583 0.63884
 N53 N 0.19774 0.05583 0.66292
 C54 C 0.17214 -0.00050 0.67526
 N55 N 0.19740 -0.05684 0.66282
 N56 N 0.24674 -0.05684 0.63874
 C57 C 0.32400 -0.00050 0.59948
 C58 C 0.36674 -0.00048 0.57645
 C59 C 0.11765 -0.00049 0.70017
 C60 C 0.07122 -0.00047 0.72059
 C61 C -0.27098 -0.00047 0.62624
 N62 N -0.24568 0.05586 0.63858
 N63 N -0.19655 0.05586 0.66268
 C64 C -0.17124 -0.00047 0.67516
 N65 N -0.19659 -0.05680 0.66286
 N66 N -0.24573 -0.05681 0.63876
 C67 C -0.32249 -0.00048 0.59935
 C68 C -0.36509 -0.00047 0.57633
 C69 C -0.11697 -0.00047 0.70011
 C70 C -0.07073 -0.00045 0.72056
 C71 C -0.00028 -0.27263 0.87439
 N72 N -0.05658 -0.24693 0.86220
 N73 N -0.05652 -0.19752 0.83817
 C74 C -0.00016 -0.17232 0.82560
 N75 N 0.05614 -0.19807 0.83775
 N76 N 0.05608 -0.24747 0.86178
 C77 C -0.00033 -0.32441 0.90122
 C78 C -0.00036 -0.36721 0.92423
 C79 C -0.00008 -0.11781 0.80070
 C80 C -0.00001 -0.07140 0.78025
 C81 C -0.00028 0.27221 0.87338
 N82 N -0.05658 0.24649 0.86128
 N83 N -0.05652 0.19701 0.83743
 C84 C -0.00016 0.17175 0.82495
 N85 N 0.05615 0.19752 0.83701
 N86 N 0.05609 0.24700 0.86087
 C87 C -0.00033 0.32405 0.90005
 C88 C -0.00036 0.36687 0.92292
 C89 C -0.00008 0.11715 0.80026
 C90 C -0.00001 0.07067 0.77999
 C91 C -0.27267 -0.00023 0.37439
 N92 N -0.24745 0.05613 0.36183
 N93 N -0.19804 0.05619 0.33779
 C94 C -0.17236 -0.00011 0.32560
 N95 N -0.19764 -0.05648 0.33812
 N96 N -0.24704 -0.05653 0.36216
 C97 C -0.32446 -0.00028 0.40122
 C98 C -0.36726 -0.00032 0.42423
 C99 C -0.11785 -0.00004 0.30070
 C100 C -0.07145 0.00003 0.28026
 C101 C 0.27216 -0.00025 0.37338
 N102 N 0.24696 0.05611 0.36086
 N103 N 0.19748 0.05617 0.33701
 C104 C 0.17170 -0.00013 0.32495
 N105 N 0.19696 -0.05649 0.33743
 N106 N 0.24644 -0.05655 0.36129
 C107 C 0.32401 -0.00030 0.40005
 C108 C 0.36683 -0.00033 0.42292
 C109 C 0.11710 -0.00006 0.30026
 C110 C 0.07062 0.00002 0.27999
   
