data_POSCAR
  _audit_creation_date              2014-09-24
  _audit_creation_method            'ToBaCCo'
  _symmetry_space_group_name_H-M    'P1'
  _symmetry_Int_Tables_number       1
  _symmetry_cell_setting            triclinic
  loop_
  _symmetry_equiv_pos_as_xyz
 x,y,z
_cell_length_a 20.8100
_cell_length_b 20.4438
_cell_length_c 53.1148
_cell_angle_alpha 90.247900
_cell_angle_beta 89.768400
_cell_angle_gamma 123.222600
loop_
  _atom_site_label
  _atom_site_type_symbol
  _atom_site_fract_x
  _atom_site_fract_y
  _atom_site_fract_z
C1 C -0.01579 -0.00449 0.50651
 C2 C 0.99755 -0.01452 0.15794
 C3 C 0.02378 1.02337 0.83631
 O4 O 0.60279 0.06194 -0.02673
 O5 O 0.47127 0.05428 0.02220
 O6 O 0.60201 0.06396 0.02232
 O7 O 0.48530 0.07622 -0.02625
 O8 O 0.41278 -0.05272 -0.02920
 O9 O 0.53245 -0.06510 0.01967
 O10 O 0.40185 -0.07472 0.01924
 O11 O 0.53041 -0.06706 -0.02941
 Cu12 Cu 0.54738 0.07678 -0.00183
 Cu13 Cu 0.46246 -0.07758 -0.00522
 C14 C 0.58843 -0.00203 -0.03623
 C15 C 0.41380 -0.01224 0.02880
 C16 C 0.58787 -0.00184 0.02916
 C17 C 0.42903 0.01456 -0.03578
 O18 O -0.05330 0.41080 0.69704
 O19 O -0.05947 0.53794 0.64880
 O20 O -0.07397 0.40236 0.64840
 O21 O -0.06506 0.53164 0.69784
 O22 O 0.06184 0.60279 0.69594
 O23 O 0.05282 0.47065 0.64602
 O24 O 0.06738 0.60624 0.64683
 O25 O 0.07352 0.48207 0.69457
 Cu26 Cu -0.07537 0.46383 0.67321
 Cu27 Cu 0.07629 0.54733 0.67059
 C28 C 0.01200 0.42553 0.70386
 C29 C 0.00376 0.59408 0.63979
 C30 C -0.01285 0.41363 0.63896
 C31 C -0.00091 0.58891 0.70529
 O32 O 0.45477 0.39714 0.30679
 O33 O 0.58116 0.53171 0.35730
 O34 O 0.45560 0.39013 0.35607
 O35 O 0.59072 0.52438 0.30870
 O36 O 0.53016 0.58561 0.30705
 O37 O 0.39279 0.44903 0.35518
 O38 O 0.51827 0.59050 0.35602
 O39 O 0.39388 0.45812 0.30627
 Cu40 Cu 0.52629 0.45464 0.33248
 Cu41 Cu 0.45288 0.52688 0.33115
 C42 C 0.40340 0.40610 0.29783
 C43 C 0.57123 0.58474 0.36490
 C44 C 0.40109 0.39578 0.36354
 C45 C 0.58343 0.57704 0.29965
 C46 C 0.02958 0.15226 0.55585
 C47 C -0.03866 0.14939 0.55783
 C48 C -0.10329 0.09335 0.54407
 C49 C -0.09867 0.04171 0.52777
 C50 C -0.02855 0.04693 0.52465
 C51 C 0.03443 0.10145 0.53974
 C52 C -0.04007 0.20490 0.57419
 C53 C -0.03556 0.25355 0.58832
 C54 C -0.02670 0.31113 0.60536
 C55 C -0.01904 0.35926 0.62040
 H56 H 0.07967 0.19452 0.56664
 H57 H -0.15707 0.08960 0.54592
 H58 H -0.14997 -0.00191 0.51792
 H59 H 0.08869 0.10598 0.53845
 C60 C 0.86483 0.78667 0.19254
 C61 C 0.84612 0.81140 0.21433
 C62 C 0.87997 0.89082 0.21871
 C63 C 0.93061 0.94553 0.20123
 C64 C 0.95123 0.92314 0.17886
 C65 C 0.91633 0.84168 0.17495
 C66 C 0.78828 0.75665 0.23161
 C67 C 0.73972 0.71443 0.24669
 C68 C 0.68358 0.66736 0.26485
 C69 C 0.63684 0.62708 0.28066
 H70 H 0.83735 0.72486 0.18864
 H71 H 0.86491 0.91069 0.23532
 H72 H 0.95041 1.00525 0.20525
 H73 H 0.92370 0.81942 0.15743
 C74 C 0.12113 0.00791 -0.10583
 C75 C 0.19852 0.05535 -0.11209
 C76 C 0.22045 0.10038 -0.13395
 C77 C 0.16465 0.09532 -0.15004
 C78 C 0.08462 0.04502 -0.14468
 C79 C 0.06538 0.00211 -0.12182
 C80 C 0.25349 0.05101 -0.09705
 C81 C 0.29592 0.04302 -0.08396
 C82 C 0.34282 0.03134 -0.06798
 C83 C 0.38199 0.02204 -0.05369
 H84 H 0.10330 -0.02805 -0.08906
 H85 H 0.28047 0.13629 -0.13929
 H86 H 0.18494 0.12527 -0.16786
 H87 H 0.00696 -0.04014 -0.11641
 C88 C -0.05594 0.84532 0.55741
 C89 C 0.01256 0.84857 0.55881
 C90 C 0.07574 0.90294 0.54416
 C91 C 0.06937 0.95240 0.52754
 C92 C -0.00116 0.94655 0.52497
 C93 C -0.06252 0.89400 0.54097
 C94 C 0.01585 0.79498 0.57539
 C95 C 0.01368 0.74808 0.58965
 C96 C 0.00840 0.69258 0.60672
 C97 C 0.00453 0.64625 0.62163
 H98 H -0.10490 0.80435 0.56887
 H99 H 0.12974 0.90703 0.54555
 H100 H 0.11968 0.99486 0.51702
 H101 H -0.11695 0.88922 0.54013
 C102 C 0.18351 0.12489 0.19533
 C103 C 0.17074 0.18034 0.20476
 C104 C 0.10534 0.17841 0.19739
 C105 C 0.05173 0.11946 0.18115
 C106 C 0.06241 0.06093 0.17171
 C107 C 0.13016 0.06588 0.17942
 C108 C 0.22122 0.23311 0.22399
 C109 C 0.26387 0.27367 0.24064
 C110 C 0.31355 0.31886 0.26050
 C111 C 0.35525 0.35763 0.27759
 H112 H 0.23330 0.12488 0.20126
 H113 H 0.09378 0.22007 0.20515
 H114 H -0.00111 0.11636 0.17797
 H115 H 0.14182 0.02244 0.17439
 C116 C 0.89019 0.06842 -0.12695
 C117 C 0.83165 -0.00461 -0.11835
 C118 C 0.83255 -0.07058 -0.12458
 C119 C 0.89203 -0.06314 -0.13949
 C120 C 0.95160 0.01051 -0.14911
 C121 C 0.94951 0.07612 -0.14159
 C122 C 0.77493 -0.00909 -0.10154
 C123 C 0.73058 -0.00823 -0.08709
 C124 C 0.68096 -0.00458 -0.06978
 C125 C 0.63910 -0.00190 -0.05465
 H126 H 0.89148 0.12039 -0.12163
 H127 H 0.78884 -0.12740 -0.11721
 H128 H 0.89355 -0.11477 -0.14187
 H129 H 0.99464 0.13503 -0.14613
 C130 C 0.11659 -0.09008 0.12805
 C131 C 0.14179 -0.04683 0.10578
 C132 C 0.11386 -0.00109 0.09914
 C133 C 0.06384 0.00455 0.11511
 C134 C 0.03854 -0.03667 0.13821
 C135 C 0.06583 -0.08504 0.14410
 C136 C 0.20123 -0.04298 0.09059
 C137 C 0.25189 -0.03590 0.07737
 C138 C 0.31080 -0.02570 0.06124
 C139 C 0.35943 -0.01787 0.04682
 H140 H 0.13916 -0.12460 0.13366
 H141 H 0.13361 0.03344 0.08206
 H142 H 0.04881 0.04503 0.10954
 H143 H 0.05442 -0.11330 0.16219
 C144 C 0.83965 0.81367 0.46715
 C145 C 0.80597 0.84233 0.45207
 C146 C 0.82719 0.91987 0.45502
 C147 C 0.88222 0.96836 0.47312
 C148 C 0.91579 0.93968 0.48901
 C149 C 0.89442 0.86155 0.48497
 C150 C 0.75321 0.79165 0.43284
 C151 C 0.71075 0.74533 0.41713
 C152 C 0.66232 0.68878 0.39904
 C153 C 0.62111 0.64044 0.38359
 H154 H 0.82529 0.75446 0.46461
 H155 H 0.80265 0.94334 0.44299
 H156 H 0.90002 1.02893 0.47433
 H157 H 0.92180 0.83693 0.49475
 C158 C 0.00311 0.11617 0.77771
 C159 C 0.04991 0.19555 0.78310
 C160 C 0.09525 0.22034 0.80474
 C161 C 0.09157 0.16539 0.82141
 C162 C 0.04256 0.08341 0.81684
 C163 C -0.00130 0.06131 0.79428
 C164 C 0.04514 0.24971 0.76727
 C165 C 0.03712 0.29145 0.75350
 C166 C 0.02589 0.33785 0.73681
 C167 C 0.01754 0.37721 0.72205
 H168 H -0.03318 0.09613 0.76115
 H169 H 0.13066 0.28197 0.80941
 H170 H 0.12214 0.18793 0.83899
 H171 H -0.04297 0.00133 0.78948
 C172 C 0.81392 -0.06848 0.12139
 C173 C 0.83230 0.00305 0.11183
 C174 C 0.90353 0.07075 0.11748
 C175 C 0.95607 0.06659 0.13271
 C176 C 0.93804 -0.00538 0.14316
 C177 C 0.86608 -0.07289 0.13641
 C178 C 0.77946 0.00461 0.09483
 C179 C 0.73406 0.00247 0.08026
 C180 C 0.68096 -0.00148 0.06284
 C181 C 0.63701 -0.00356 0.04764
 H182 H 0.75975 -0.12172 0.11661
 H183 H 0.91951 0.12638 0.10947
 H184 H 1.01247 0.11935 0.13493
 H185 H 0.84948 -0.13065 0.14194
 C186 C 0.12547 0.17232 0.46486
 C187 C 0.15864 0.14212 0.45005
 C188 C 0.13754 0.06492 0.45371
 C189 C 0.08342 0.01846 0.47233
 C190 C 0.05091 0.04899 0.48808
 C191 C 0.07170 0.12647 0.48321
 C192 C 0.21164 0.19119 0.43061
 C193 C 0.25486 0.23647 0.41484
 C194 C 0.30487 0.29219 0.39684
 C195 C 0.34805 0.34014 0.38165
 H196 H 0.13974 0.23125 0.46178
 H197 H 0.16169 0.04022 0.44191
 H198 H 0.06578 -0.04192 0.47413
 H199 H 0.04481 0.15212 0.49284
 C200 C 0.06812 0.88760 0.79950
 C201 C -0.00371 0.82773 0.79107
 C202 C -0.06876 0.82745 0.79791
 C203 C -0.06152 0.88755 0.81305
 C204 C 0.01112 0.94919 0.82219
 C205 C 0.07564 0.94761 0.81434
 C206 C -0.00792 0.77158 0.77357
 C207 C -0.00683 0.72813 0.75842
 C208 C -0.00302 0.67979 0.74025
 C209 C -0.00039 0.63890 0.72442
 H210 H 0.11929 0.88969 0.79378
 H211 H -0.12473 0.78262 0.79071
 H212 H -0.11257 0.88827 0.81577
 H213 H 0.13359 0.99389 0.81862
   
