data_POSCAR
  _audit_creation_date              2014-09-24
  _audit_creation_method            'ToBaCCo'
  _symmetry_space_group_name_H-M    'P1'
  _symmetry_Int_Tables_number       1
  _symmetry_cell_setting            triclinic
  loop_
  _symmetry_equiv_pos_as_xyz
 x,y,z
_cell_length_a 31.2623
_cell_length_b 31.2482
_cell_length_c 32.1542
_cell_angle_alpha 90.102300
_cell_angle_beta 89.918100
_cell_angle_gamma 89.961900
loop_
  _atom_site_label
  _atom_site_type_symbol
  _atom_site_fract_x
  _atom_site_fract_y
  _atom_site_fract_z
O1 O 0.23221 1.05099 0.03815
 O2 O 0.18280 0.98227 -0.04179
 O3 O 0.18291 0.98445 0.04020
 O4 O 0.22911 1.05044 -0.04341
 O5 O 0.28595 1.00838 -0.04471
 O6 O 0.24031 0.94312 0.03955
 O7 O 0.23980 0.94044 -0.04083
 O8 O 0.28949 1.00953 0.03762
 Cu9 Cu 0.20096 1.02119 -0.00156
 Cu10 Cu 0.26985 0.97151 -0.00206
 C11 C 0.26887 1.04118 0.05218
 C12 C 0.20345 0.95010 -0.05549
 C13 C 0.20404 0.95304 0.05452
 C14 C 0.26470 1.03966 -0.05926
 O15 O 0.73185 0.55262 0.53971
 O16 O 0.68373 0.48460 0.45858
 O17 O 0.68429 0.48461 0.54049
 O18 O 0.73103 0.55211 0.45815
 O19 O 0.78823 0.51053 0.45709
 O20 O 0.74189 0.44357 0.53948
 O21 O 0.74115 0.44326 0.45889
 O22 O 0.78935 0.51147 0.53929
 Cu23 Cu 0.70189 0.52259 0.49941
 Cu24 Cu 0.77112 0.47333 0.49879
 C25 C 0.76847 0.54300 0.55388
 C26 C 0.70474 0.45298 0.44434
 C27 C 0.70543 0.45293 0.55429
 C28 C 0.76698 0.54181 0.44269
 O29 O 0.76856 0.95350 1.04448
 O30 O 0.81485 1.01689 0.95876
 O31 O 0.81778 1.02023 1.04098
 O32 O 0.76795 0.94906 0.96352
 O33 O 0.71055 0.99037 0.96354
 O34 O 0.76105 1.06238 1.03937
 O35 O 0.75744 1.05819 0.95881
 O36 O 0.71226 0.99623 1.04525
 Cu37 Cu 0.79821 0.98090 1.00204
 Cu38 Cu 0.72950 1.03081 1.00170
 C39 C 0.73292 0.96477 1.06008
 C40 C 0.79339 1.04770 0.94361
 C41 C 0.79754 1.05293 1.05397
 C42 C 0.73101 0.95812 0.94986
 O43 O 0.26650 0.45075 0.53815
 O44 O 0.31604 0.51827 0.45756
 O45 O 0.31535 0.51760 0.53946
 O46 O 0.26811 0.45119 0.45659
 O47 O 0.21137 0.49340 0.45586
 O48 O 0.25834 0.55946 0.53870
 O49 O 0.25912 0.56029 0.45816
 O50 O 0.20961 0.49275 0.53815
 Cu51 Cu 0.29728 0.48024 0.49805
 Cu52 Cu 0.22868 0.53043 0.49776
 C53 C 0.23009 0.46099 0.55258
 C54 C 0.29548 0.55025 0.44360
 C55 C 0.29453 0.54941 0.55357
 C56 C 0.23233 0.46195 0.44122
 O57 O 1.05891 0.24173 0.03418
 O58 O 0.98895 0.29023 -0.04433
 O59 O 0.99221 0.28948 0.03765
 O60 O 1.05591 0.24143 -0.04646
 O61 O 1.01392 0.18457 -0.04619
 O62 O 0.95008 0.23270 0.03825
 O63 O 0.94695 0.23344 -0.04296
 O64 O 1.01712 0.18471 0.03587
 Cu65 Cu 1.02799 0.27159 -0.00503
 Cu66 Cu 0.97790 0.20301 -0.00375
 C67 C 1.04924 0.20551 0.04919
 C68 C 0.95657 0.26987 -0.05768
 C69 C 0.96112 0.26870 0.05308
 C70 C 1.04540 0.20520 -0.06105
 O71 O 0.55789 0.74320 0.54063
 O72 O 0.49156 0.79162 0.45923
 O73 O 0.48982 0.78951 0.54145
 O74 O 0.55826 0.74293 0.45993
 O75 O 0.51694 0.68559 0.45836
 O76 O 0.44836 0.73228 0.53998
 O77 O 0.45006 0.73440 0.45848
 O78 O 0.51658 0.68581 0.54037
 Cu79 Cu 0.52827 0.77275 0.50036
 Cu80 Cu 0.47889 0.70368 0.49912
 C81 C 0.54799 0.70677 0.55500
 C82 C 0.46031 0.77084 0.44420
 C83 C 0.45829 0.76828 0.55547
 C84 C 0.54874 0.70666 0.44476
 O85 O 0.05008 0.76753 -0.04118
 O86 O -0.01678 0.81768 0.03987
 O87 O 0.05023 0.76977 0.04029
 O88 O -0.01767 0.81575 -0.04208
 O89 O -0.05954 0.75890 -0.03944
 O90 O 0.00872 0.71258 0.04170
 O91 O -0.05815 0.76034 0.04090
 O92 O 0.00790 0.71088 -0.04069
 Cu93 Cu 0.02062 0.79848 -0.00110
 Cu94 Cu -0.02913 0.72970 0.00062
 C95 C 0.03969 0.73111 -0.05549
 C96 C -0.04818 0.79699 0.05484
 C97 C 0.04003 0.73392 0.05591
 C98 C -0.04998 0.79492 -0.05501
 O99 O 0.54927 0.26970 0.45438
 O100 O 0.48230 0.31705 0.53700
 O101 O 0.55076 0.27070 0.53575
 O102 O 0.48241 0.31861 0.45493
 O103 O 0.44118 0.26118 0.45533
 O104 O 0.50937 0.21340 0.53602
 O105 O 0.44106 0.25963 0.53601
 O106 O 0.50781 0.21244 0.45403
 Cu107 Cu 0.52025 0.29990 0.49547
 Cu108 Cu 0.47092 0.23076 0.49533
 C109 C 0.53920 0.23340 0.43954
 C110 C 0.45077 0.29585 0.55105
 C111 C 0.54097 0.23431 0.55034
 C112 C 0.45073 0.29770 0.44086
 O113 O 1.05128 0.02616 0.26393
 O114 O 0.94601 -0.02717 0.27060
 O115 O 0.97187 0.05307 0.26484
 O116 O 1.02476 -0.05205 0.26638
 O117 O 1.01743 -0.05342 0.33474
 O118 O 0.98489 0.06034 0.33199
 O119 O 0.94411 -0.01193 0.33760
 O120 O 1.05743 0.01982 0.33210
 Cu121 Cu 0.99786 0.00004 0.25936
 Cu122 Cu 1.00115 0.00379 0.34113
 C123 C 1.07301 0.03014 0.29708
 C124 C 0.92648 -0.02726 0.30530
 C125 C 0.97126 0.07541 0.29781
 C126 C 1.02853 -0.07130 0.30084
 O127 O 0.55257 0.52181 0.76113
 O128 O 0.44523 0.47318 0.76124
 O129 O 0.47436 0.55114 0.75979
 O130 O 0.52323 0.44397 0.75956
 O131 O 0.51474 0.44051 0.82772
 O132 O 0.48280 0.55450 0.82794
 O133 O 0.44214 0.48175 0.82943
 O134 O 0.55569 0.51314 0.82925
 Cu135 Cu 0.49886 0.49756 0.75339
 Cu136 Cu 0.49888 0.49752 0.83556
 C137 C 0.57291 0.52423 0.79521
 C138 C 0.42495 0.47058 0.79539
 C139 C 0.47149 0.57153 0.79381
 C140 C 0.52597 0.42349 0.79347
 O141 O 0.99226 1.05673 0.75863
 O142 O 1.02720 0.94519 0.74978
 O143 O 1.05938 1.01819 0.74738
 O144 O 0.94891 0.98165 0.76473
 O145 O 0.93638 0.97840 0.69717
 O146 O 1.04531 1.02043 0.68004
 O147 O 1.00654 0.94326 0.68410
 O148 O 0.96531 1.05329 0.69534
 Cu149 Cu 1.00601 0.99930 0.76227
 Cu150 Cu 0.98891 0.99994 0.68205
 C151 C 0.97238 1.07405 0.72866
 C152 C 1.02379 0.92551 0.71535
 C153 C 1.07072 1.02626 0.71041
 C154 C 0.92417 0.97341 0.73441
 O155 O 0.47487 0.55648 0.23102
 O156 O 0.52568 0.44997 0.23083
 O157 O 0.55321 0.52875 0.23300
 O158 O 0.44710 0.47772 0.23211
 O159 O 0.44399 0.48654 0.16401
 O160 O 0.55731 0.52051 0.16484
 O161 O 0.51749 0.44692 0.16264
 O162 O 0.48404 0.55997 0.16294
 Cu163 Cu 0.50013 0.50317 0.23876
 Cu164 Cu 0.50075 0.50346 0.15663
 C165 C 0.47239 0.57692 0.19700
 C166 C 0.52877 0.42978 0.19664
 C167 C 0.57383 0.53207 0.19917
 C168 C 0.42692 0.47481 0.19803
 O169 O 0.28506 0.13967 0.20370
 O170 O 0.33405 0.15089 0.25870
 O171 O 0.16405 0.16342 0.26739
 O172 O 0.13497 0.21783 0.30273
 O173 O 0.18617 0.21707 0.14587
 O174 O 0.22800 0.27551 0.12090
 O175 O 0.24083 0.32752 0.34301
 O176 O 0.21051 0.26237 0.36718
 O177 O 0.35662 0.29982 0.28939
 O178 O 0.38159 0.24562 0.23706
 O179 O 0.27045 0.37404 0.22327
 O180 O 0.20474 0.35952 0.18387
 O181 O 0.21768 0.36562 0.28714
 O182 O 0.16550 0.35355 0.23187
 O183 O 0.33548 0.34157 0.22635
 O184 O 0.36446 0.28029 0.18719
 O185 O 0.31309 0.28864 0.34504
 O186 O 0.27231 0.22936 0.37071
 O187 O 0.26171 0.17751 0.14764
 O188 O 0.28780 0.24525 0.12294
 O189 O 0.14231 0.20583 0.20133
 O190 O 0.11997 0.26211 0.25034
 O191 O 0.22903 0.13050 0.26890
 O192 O 0.29261 0.14507 0.30816
 Zr193 Zr 0.27305 0.17984 0.25512
 O194 O 0.30164 0.23334 0.28360
 Zr195 Zr 0.17802 0.22718 0.25268
 O196 O 0.20239 0.28261 0.28160
 Zr197 Zr 0.24425 0.23721 0.17267
 O198 O 0.27134 0.29326 0.19770
 Zr199 Zr 0.25566 0.26699 0.31833
 O200 O 0.22791 0.21052 0.29373
 Zr201 Zr 0.32158 0.27711 0.23810
 O202 O 0.29776 0.22106 0.20921
 Zr203 Zr 0.22648 0.32439 0.23597
 O204 O 0.19756 0.27088 0.20667
 O205 O 0.22185 0.19379 0.21642
 O206 O 0.27818 0.31107 0.27480
 C207 C 0.27827 0.14420 0.16451
 C208 C 0.18804 0.13058 0.27273
 C209 C 0.15050 0.20550 0.16221
 C210 C 0.22530 0.36132 0.32617
 C211 C 0.34848 0.30060 0.32852
 C212 C 0.31152 0.37434 0.22081
 H213 H 0.32579 0.22360 0.30096
 H214 H 0.28106 0.31172 0.17463
 H215 H 0.20966 0.16766 0.20366
 H216 H 0.17971 0.29617 0.29854
 H217 H 0.19543 0.23477 0.36346
 H218 H 0.13800 0.24238 0.32195
 H219 H 0.34974 0.29530 0.16424
 H220 H 0.31585 0.23474 0.13290
 H221 H 0.29827 0.21278 0.36367
 H222 H 0.27171 0.15166 0.33043
 H223 H 0.22638 0.35652 0.16158
 H224 H 0.20306 0.29300 0.12944
 H225 H 0.35240 0.16606 0.23842
 H226 H 0.38544 0.23096 0.26404
 H227 H 0.12020 0.27866 0.22410
 H228 H 0.14815 0.34322 0.25556
 O229 O 0.71707 0.86827 0.21083
 O230 O 0.66653 0.85573 0.26461
 O231 O 0.83669 0.84288 0.27367
 O232 O 0.86359 0.78199 0.31070
 O233 O 0.81547 0.78998 0.15208
 O234 O 0.77248 0.73312 0.12560
 O235 O 0.75903 0.67750 0.34654
 O236 O 0.78638 0.74578 0.37447
 O237 O 0.64348 0.70652 0.29338
 O238 O 0.61898 0.76178 0.24236
 O239 O 0.72960 0.63312 0.22636
 O240 O 0.79635 0.64984 0.18623
 O241 O 0.78250 0.64025 0.29009
 O242 O 0.83373 0.65107 0.23609
 O243 O 0.66470 0.66584 0.22961
 O244 O 0.63627 0.72813 0.19164
 O245 O 0.68675 0.71705 0.34921
 O246 O 0.73053 0.77654 0.37604
 O247 O 0.74055 0.83092 0.15431
 O248 O 0.71344 0.76404 0.12835
 O249 O 0.85916 0.80038 0.20775
 O250 O 0.88201 0.74691 0.25712
 O251 O 0.77159 0.87537 0.27815
 O252 O 0.70685 0.86093 0.31475
 Zr253 Zr 0.72763 0.82688 0.26155
 O254 O 0.69875 0.77303 0.28916
 Zr255 Zr 0.82255 0.77917 0.25857
 O256 O 0.79796 0.72328 0.28604
 Zr257 Zr 0.75687 0.77057 0.17830
 O258 O 0.72922 0.71428 0.20212
 Zr259 Zr 0.74462 0.73863 0.32313
 O260 O 0.77246 0.79542 0.29958
 Zr261 Zr 0.67887 0.73006 0.24273
 O262 O 0.70315 0.78640 0.21487
 Zr263 Zr 0.77378 0.68233 0.23979
 O264 O 0.80329 0.73613 0.21179
 O265 O 0.77912 0.81335 0.22285
 O266 O 0.72197 0.69532 0.27884
 C267 C 0.72429 0.86423 0.17162
 C268 C 0.81262 0.87520 0.28133
 C269 C 0.85124 0.80083 0.16859
 C270 C 0.77460 0.64393 0.32915
 C271 C 0.65143 0.70527 0.33249
 C272 C 0.68857 0.63302 0.22371
 H273 H 0.67471 0.78262 0.30685
 H274 H 0.71951 0.69627 0.17867
 H275 H 0.79178 0.83953 0.21068
 H276 H 0.82085 0.70939 0.30233
 H277 H 0.81377 0.73168 0.36740
 H278 H 0.84610 0.79270 0.33420
 H279 H 0.65100 0.71340 0.16844
 H280 H 0.68547 0.77471 0.13849
 H281 H 0.70276 0.79084 0.37112
 H282 H 0.72646 0.85296 0.33762
 H283 H 0.77339 0.65053 0.16510
 H284 H 0.79711 0.71503 0.13365
 H285 H 0.64873 0.84121 0.24343
 H286 H 0.61529 0.77629 0.26950
 H287 H 0.88157 0.72808 0.23232
 H288 H 0.85244 0.66378 0.25758
 O289 O 0.79645 0.14044 0.78924
 O290 O 0.74694 0.11750 0.73646
 O291 O 0.87401 0.23124 0.73320
 O292 O 0.86341 0.28874 0.69066
 O293 O 0.82069 0.25913 0.84802
 O294 O 0.75235 0.28260 0.87172
 O295 O 0.71609 0.31407 0.64811
 O296 O 0.77607 0.27742 0.62430
 O297 O 0.63851 0.21581 0.70231
 O298 O 0.64584 0.16493 0.75408
 O299 O 0.65901 0.33305 0.76589
 O300 O 0.71865 0.36214 0.80699
 O301 O 0.70177 0.35586 0.70441
 O302 O 0.75434 0.38067 0.75807
 O303 O 0.62741 0.26756 0.76704
 O304 O 0.64558 0.19909 0.80674
 O305 O 0.67732 0.24161 0.64794
 O306 O 0.74676 0.21396 0.62315
 O307 O 0.78195 0.18227 0.84562
 O308 O 0.72176 0.22372 0.87026
 O309 O 0.85901 0.28687 0.79415
 O310 O 0.84685 0.33697 0.73884
 O311 O 0.84199 0.16621 0.72586
 O312 O 0.78300 0.13879 0.68519
 Zr313 Zr 0.77699 0.17807 0.73849
 O314 O 0.72160 0.20195 0.70963
 Zr315 Zr 0.82224 0.27387 0.74085
 O316 O 0.76934 0.30187 0.71064
 Zr317 Zr 0.76223 0.24137 0.82041
 O318 O 0.70696 0.26893 0.79443
 Zr319 Zr 0.73738 0.25617 0.67417
 O320 O 0.79408 0.22948 0.69964
 Zr321 Zr 0.67800 0.22444 0.75446
 O322 O 0.73106 0.19501 0.78375
 Zr323 Zr 0.72387 0.32021 0.75546
 O324 O 0.77882 0.29628 0.78600
 O325 O 0.80756 0.22131 0.77757
 O326 O 0.69172 0.27719 0.71705
 C327 C 0.79463 0.14721 0.82862
 C328 C 0.87509 0.19043 0.72778
 C329 C 0.85364 0.27809 0.83283
 C330 C 0.70261 0.34875 0.66510
 C331 C 0.64349 0.22480 0.66365
 C332 C 0.62649 0.30857 0.77028
 H333 H 0.70877 0.17901 0.69256
 H334 H 0.68767 0.27790 0.81721
 H335 H 0.83289 0.20916 0.79170
 H336 H 0.77914 0.32623 0.69354
 H337 H 0.80478 0.26468 0.62837
 H338 H 0.84623 0.30436 0.66980
 H339 H 0.64224 0.22239 0.82737
 H340 H 0.70631 0.19766 0.86131
 H341 H 0.73148 0.18691 0.62887
 H342 H 0.79512 0.15702 0.66297
 H343 H 0.70318 0.34680 0.82929
 H344 H 0.76126 0.31150 0.86261
 H345 H 0.72683 0.11656 0.76026
 H346 H 0.66298 0.14521 0.73669
 H347 H 0.83264 0.35315 0.76146
 H348 H 0.76932 0.38531 0.73133
 O349 O 0.20167 0.85665 0.79517
 O350 O 0.25358 0.88036 0.74470
 O351 O 0.12587 0.76858 0.72782
 O352 O 0.13455 0.70813 0.69252
 O353 O 0.17466 0.73760 0.84987
 O354 O 0.24221 0.71155 0.87379
 O355 O 0.28377 0.68611 0.65068
 O356 O 0.22385 0.72399 0.62709
 O357 O 0.36074 0.78213 0.70865
 O358 O 0.35215 0.83184 0.76285
 O359 O 0.33754 0.66310 0.76873
 O360 O 0.27675 0.63389 0.80801
 O361 O 0.29572 0.64246 0.70599
 O362 O 0.24147 0.61719 0.75805
 O363 O 0.37007 0.72810 0.77134
 O364 O 0.35296 0.79480 0.81332
 O365 O 0.32268 0.75834 0.65294
 O366 O 0.25473 0.78675 0.62759
 O367 O 0.21408 0.81309 0.85054
 O368 O 0.27327 0.77060 0.87506
 O369 O 0.13602 0.71403 0.79436
 O370 O 0.15136 0.66185 0.73921
 O371 O 0.15808 0.83383 0.73130
 O372 O 0.21793 0.86114 0.69172
 Zr373 Zr 0.22238 0.82034 0.74392
 O374 O 0.27791 0.79651 0.71515
 Zr375 Zr 0.17552 0.72509 0.74216
 O376 O 0.22886 0.69724 0.71232
 Zr377 Zr 0.23396 0.75469 0.82387
 O378 O 0.28961 0.72722 0.79819
 Zr379 Zr 0.26220 0.74346 0.67786
 O380 O 0.20551 0.77029 0.70312
 Zr381 Zr 0.32020 0.77226 0.76003
 O382 O 0.26691 0.80151 0.78946
 Zr383 Zr 0.27300 0.67715 0.75756
 O384 O 0.21749 0.70096 0.78761
 O385 O 0.18979 0.77649 0.78063
 O386 O 0.30658 0.72070 0.72094
 C387 C 0.20203 0.84863 0.83429
 C388 C 0.12546 0.80971 0.72554
 C389 C 0.14108 0.72105 0.83347
 C390 C 0.29623 0.65076 0.66692
 C391 C 0.35633 0.77439 0.66963
 C392 C 0.37044 0.68702 0.77361
 H393 H 0.29131 0.81976 0.69897
 H394 H 0.30831 0.71736 0.82100
 H395 H 0.16385 0.78876 0.79371
 H396 H 0.21924 0.67347 0.69430
 H397 H 0.19540 0.73738 0.63102
 H398 H 0.15279 0.69648 0.67004
 H399 H 0.35441 0.77108 0.83360
 H400 H 0.28976 0.79627 0.86686
 H401 H 0.26839 0.81419 0.63515
 H402 H 0.20544 0.84388 0.66893
 H403 H 0.29160 0.64862 0.83108
 H404 H 0.23230 0.68327 0.86378
 H405 H 0.27280 0.88028 0.76915
 H406 H 0.33680 0.85165 0.74414
 H407 H 0.16278 0.64640 0.76365
 H408 H 0.22661 0.61368 0.73112
 O409 O 0.21351 0.36254 0.70405
 O410 O 0.16353 0.35094 0.75837
 O411 O 0.33326 0.33783 0.76889
 O412 O 0.36178 0.28322 0.80413
 O413 O 0.31324 0.28505 0.64680
 O414 O 0.27169 0.22723 0.62054
 O415 O 0.25493 0.17367 0.84230
 O416 O 0.28474 0.23869 0.86740
 O417 O 0.13969 0.20253 0.78698
 O418 O 0.11605 0.25652 0.73484
 O419 O 0.22719 0.12775 0.72194
 O420 O 0.29262 0.14103 0.68382
 O421 O 0.27891 0.13587 0.78637
 O422 O 0.33255 0.14941 0.73101
 O423 O 0.16239 0.16074 0.72449
 O424 O 0.13433 0.22242 0.68481
 O425 O 0.18246 0.21262 0.84329
 O426 O 0.22291 0.27158 0.87036
 O427 O 0.23750 0.32494 0.64789
 O428 O 0.21184 0.25712 0.62224
 O429 O 0.35621 0.29559 0.70295
 O430 O 0.37735 0.23902 0.75194
 O431 O 0.26843 0.37110 0.77003
 O432 O 0.20441 0.35650 0.80837
 Zr433 Zr 0.22458 0.32199 0.75521
 O434 O 0.19533 0.26843 0.78278
 Zr435 Zr 0.31941 0.27420 0.75357
 O436 O 0.29438 0.21872 0.78173
 Zr437 Zr 0.25458 0.26503 0.67257
 O438 O 0.22695 0.20891 0.69674
 Zr439 Zr 0.24052 0.23434 0.81785
 O440 O 0.26892 0.29083 0.79412
 Zr441 Zr 0.17608 0.22511 0.73654
 O442 O 0.20053 0.28123 0.70854
 Zr443 Zr 0.27098 0.17734 0.73536
 O444 O 0.30050 0.23091 0.70685
 O445 O 0.27638 0.30806 0.71703
 O446 O 0.21863 0.19068 0.77357
 C447 C 0.22074 0.35819 0.66488
 C448 C 0.30935 0.37075 0.77423
 C449 C 0.34873 0.29618 0.66373
 C450 C 0.27076 0.13996 0.82537
 C451 C 0.14717 0.20131 0.82618
 C452 C 0.18617 0.12776 0.71933
 H453 H 0.17090 0.27816 0.79987
 H454 H 0.21755 0.19056 0.67343
 H455 H 0.28888 0.33420 0.70463
 H456 H 0.31675 0.20505 0.79886
 H457 H 0.29993 0.26629 0.86410
 H458 H 0.35799 0.25887 0.82340
 H459 H 0.14902 0.20647 0.66235
 H460 H 0.18366 0.26773 0.63187
 H461 H 0.19723 0.28842 0.86303
 H462 H 0.22486 0.34954 0.83085
 H463 H 0.27253 0.14605 0.66060
 H464 H 0.29613 0.20927 0.62937
 H465 H 0.14567 0.33644 0.73723
 H466 H 0.11219 0.27196 0.76147
 H467 H 0.37769 0.22276 0.72548
 H468 H 0.34869 0.15754 0.75625
 O469 O 0.78404 0.63851 0.70684
 O470 O 0.83350 0.64811 0.76173
 O471 O 0.66359 0.65746 0.77247
 O472 O 0.63360 0.70931 0.81014
 O473 O 0.68308 0.71774 0.65314
 O474 O 0.72379 0.77662 0.63009
 O475 O 0.73850 0.81953 0.85423
 O476 O 0.71017 0.75266 0.87672
 O477 O 0.85392 0.79653 0.79754
 O478 O 0.87910 0.74406 0.74324
 O479 O 0.76687 0.87183 0.74656
 O480 O 0.70425 0.85873 0.69667
 O481 O 0.71031 0.85788 0.80077
 O482 O 0.66165 0.84871 0.74282
 O483 O 0.83128 0.83967 0.73642
 O484 O 0.86082 0.78041 0.69488
 O485 O 0.81162 0.78218 0.85344
 O486 O 0.77214 0.72002 0.87738
 O487 O 0.75929 0.67824 0.65259
 O488 O 0.78445 0.74812 0.63079
 O489 O 0.64036 0.70247 0.70851
 O490 O 0.61753 0.75583 0.76059
 O491 O 0.72903 0.62543 0.77230
 O492 O 0.79276 0.63945 0.81134
 Zr493 Zr 0.77198 0.67611 0.75999
 O494 O 0.80014 0.72877 0.79030
 Zr495 Zr 0.67625 0.72194 0.76047
 O496 O 0.69993 0.77622 0.79174
 Zr497 Zr 0.74133 0.73677 0.68026
 O498 O 0.76772 0.79229 0.70740
 Zr499 Zr 0.75406 0.75999 0.82713
 O500 O 0.72682 0.70430 0.80034
 Zr501 Zr 0.81867 0.77463 0.74615
 O502 O 0.79544 0.71956 0.71539
 Zr503 Zr 0.72294 0.82048 0.74787
 O504 O 0.69455 0.76807 0.71633
 O505 O 0.72015 0.69099 0.72234
 O506 O 0.77530 0.80579 0.78509
 C507 C 0.77672 0.64454 0.66795
 C508 C 0.68808 0.62482 0.77638
 C509 C 0.64790 0.70455 0.66932
 C510 C 0.72013 0.85290 0.83919
 C511 C 0.84635 0.79585 0.83675
 C512 C 0.80763 0.87281 0.74115
 H513 H 0.82474 0.71876 0.80689
 H514 H 0.77696 0.81232 0.68543
 H515 H 0.70818 0.66529 0.70859
 H516 H 0.67697 0.78832 0.80937
 H517 H 0.69495 0.72533 0.87183
 H518 H 0.63717 0.73229 0.83103
 H519 H 0.84565 0.79631 0.67278
 H520 H 0.81245 0.73638 0.63955
 H521 H 0.79907 0.70535 0.86975
 H522 H 0.77221 0.64499 0.83419
 H523 H 0.72993 0.86484 0.67968
 H524 H 0.70266 0.79722 0.64135
 H525 H 0.85134 0.66441 0.74185
 H526 H 0.88391 0.72915 0.76994
 H527 H 0.61653 0.77281 0.73464
 H528 H 0.64363 0.83638 0.76509
 O529 O 0.29774 0.64446 0.29209
 O530 O 0.24525 0.62117 0.24227
 O531 O 0.37213 0.73338 0.22308
 O532 O 0.36354 0.79482 0.19037
 O533 O 0.32566 0.76342 0.34752
 O534 O 0.25859 0.78889 0.37296
 O535 O 0.21399 0.81626 0.15080
 O536 O 0.27320 0.77816 0.12587
 O537 O 0.13738 0.71997 0.20921
 O538 O 0.14648 0.66965 0.26204
 O539 O 0.16154 0.83791 0.27049
 O540 O 0.22288 0.86719 0.30858
 O541 O 0.20257 0.85943 0.20675
 O542 O 0.25719 0.88432 0.25835
 O543 O 0.12934 0.77279 0.27383
 O544 O 0.14765 0.70515 0.31358
 O545 O 0.17466 0.74414 0.15314
 O546 O 0.24206 0.71574 0.12621
 O547 O 0.28635 0.68760 0.34813
 O548 O 0.22772 0.72987 0.37419
 O549 O 0.36359 0.78682 0.29150
 O550 O 0.34691 0.83996 0.23764
 O551 O 0.34035 0.66796 0.22707
 O552 O 0.27995 0.64067 0.18896
 Zr553 Zr 0.27640 0.68121 0.24157
 O554 O 0.22044 0.70523 0.21405
 Zr555 Zr 0.32309 0.77657 0.24003
 O556 O 0.26931 0.80460 0.21146
 Zr557 Zr 0.26611 0.74618 0.32240
 O558 O 0.21006 0.77380 0.29804
 Zr559 Zr 0.23550 0.75862 0.17710
 O560 O 0.29253 0.73165 0.20106
 Zr561 Zr 0.17886 0.72902 0.25996
 O562 O 0.23262 0.69962 0.28809
 Zr563 Zr 0.22586 0.82425 0.25766
 O564 O 0.28185 0.80025 0.28648
 O565 O 0.30966 0.72475 0.27816
 O566 O 0.19170 0.78099 0.22119
 C567 C 0.29788 0.65210 0.33131
 C568 C 0.37255 0.69230 0.22012
 C569 C 0.35902 0.77989 0.33067
 C570 C 0.20186 0.85153 0.16756
 C571 C 0.14124 0.72802 0.17022
 C572 C 0.12898 0.81382 0.27658
 H573 H 0.20677 0.68213 0.19783
 H574 H 0.19183 0.78337 0.32140
 H575 H 0.33587 0.71233 0.29049
 H576 H 0.27871 0.82851 0.19356
 H577 H 0.30171 0.76480 0.12933
 H578 H 0.34490 0.80565 0.16790
 H579 H 0.14654 0.72849 0.33439
 H580 H 0.21126 0.70411 0.36615
 H581 H 0.22800 0.68843 0.13348
 H582 H 0.29126 0.65830 0.16588
 H583 H 0.20864 0.85220 0.33185
 H584 H 0.26814 0.81730 0.36305
 H585 H 0.22616 0.62120 0.26688
 H586 H 0.16189 0.64984 0.24326
 H587 H 0.33612 0.85494 0.26270
 H588 H 0.27193 0.88797 0.23135
 O589 O 0.70389 0.36083 0.29124
 O590 O 0.75655 0.38485 0.24181
 O591 O 0.62942 0.27329 0.22063
 O592 O 0.63799 0.21246 0.18654
 O593 O 0.67543 0.24108 0.34427
 O594 O 0.74252 0.21499 0.36925
 O595 O 0.78759 0.19127 0.14664
 O596 O 0.72849 0.22981 0.12237
 O597 O 0.86439 0.28603 0.20676
 O598 O 0.85481 0.33596 0.26068
 O599 O 0.83955 0.16733 0.26594
 O600 O 0.77799 0.13760 0.30331
 O601 O 0.79932 0.14737 0.20181
 O602 O 0.74368 0.12157 0.25259
 O603 O 0.87204 0.23229 0.26986
 O604 O 0.85418 0.29905 0.31130
 O605 O 0.82705 0.26267 0.15042
 O606 O 0.75961 0.29227 0.12403
 O607 O 0.71501 0.31672 0.34644
 O608 O 0.77344 0.27401 0.37161
 O609 O 0.63767 0.21865 0.28778
 O610 O 0.65430 0.16643 0.23294
 O611 O 0.66133 0.33859 0.22569
 O612 O 0.72201 0.36636 0.18815
 Zr613 Zr 0.72525 0.32491 0.23995
 O614 O 0.78122 0.30119 0.21189
 Zr615 Zr 0.67833 0.22969 0.23658
 O616 O 0.73207 0.20195 0.20746
 Zr617 Zr 0.73517 0.25856 0.31953
 O618 O 0.79123 0.23121 0.29461
 Zr619 Zr 0.76601 0.24845 0.17401
 O620 O 0.70904 0.27520 0.19850
 Zr621 Zr 0.82263 0.27652 0.25732
 O622 O 0.76887 0.30558 0.28608
 Zr623 Zr 0.77534 0.18147 0.25330
 O624 O 0.71936 0.20514 0.28259
 O625 O 0.69181 0.28084 0.27570
 O626 O 0.80960 0.22528 0.21764
 C627 C 0.70358 0.35251 0.33031
 C628 C 0.62907 0.31442 0.21839
 C629 C 0.64208 0.22499 0.32705
 C630 C 0.80012 0.15593 0.16280
 C631 C 0.86061 0.27819 0.16769
 C632 C 0.87225 0.19121 0.27201
 H633 H 0.79501 0.32446 0.19605
 H634 H 0.80941 0.22117 0.31774
 H635 H 0.66560 0.29312 0.28828
 H636 H 0.72270 0.17835 0.18910
 H637 H 0.69997 0.24312 0.12608
 H638 H 0.65664 0.20179 0.16392
 H639 H 0.85499 0.27535 0.33165
 H640 H 0.79017 0.29969 0.36392
 H641 H 0.77448 0.31911 0.13148
 H642 H 0.71082 0.34913 0.16471
 H643 H 0.79194 0.15223 0.32698
 H644 H 0.73279 0.18680 0.35884
 H645 H 0.77564 0.38433 0.26635
 H646 H 0.83999 0.35582 0.24161
 H647 H 0.66515 0.15091 0.25758
 H648 H 0.72989 0.11806 0.22513
 C649 C 0.28635 0.06522 0.08749
 C650 C 0.31940 0.05093 0.11227
 C651 C 0.32102 0.07895 0.14479
 C652 C 0.28923 0.10844 0.13700
 O653 O 0.26808 0.10019 0.10235
 H654 H 0.33865 0.02244 0.10809
 H655 H 0.34239 0.07782 0.17122
 C656 C 0.78575 0.56720 0.58922
 C657 C 0.81991 0.55384 0.61302
 C658 C 0.82141 0.58155 0.64576
 C659 C 0.78839 0.60999 0.63916
 O660 O 0.76663 0.60140 0.60493
 H661 H 0.84005 0.52611 0.60804
 H662 H 0.84347 0.58081 0.67166
 C663 C 0.71723 0.94324 0.09474
 C664 C 0.68260 0.95639 0.11828
 C665 C 0.68094 0.92872 0.15104
 C666 C 0.71410 0.90041 0.14449
 O667 O 0.73619 0.90908 0.11046
 H668 H 0.66193 0.98363 0.11294
 H669 H 0.65820 0.92892 0.17645
 C670 C 0.21276 0.43723 0.58810
 C671 C 0.17995 0.45175 0.61319
 C672 C 0.17832 0.42375 0.64564
 C673 C 0.20991 0.39406 0.63756
 O674 O 0.23091 0.40215 0.60274
 H675 H 0.16084 0.48034 0.60921
 H676 H 0.15706 0.42501 0.67220
 C677 C 0.80876 0.07045 0.90664
 C678 C 0.83993 0.05542 0.87993
 C679 C 0.83929 0.08273 0.84683
 C680 C 0.80815 0.11252 0.85624
 O681 O 0.78957 0.10515 0.89241
 H682 H 0.85930 0.02691 0.88327
 H683 H 0.85867 0.08090 0.81896
 C684 C 0.31219 0.57464 0.40832
 C685 C 0.34395 0.56047 0.38184
 C686 C 0.34359 0.58844 0.34930
 C687 C 0.31210 0.61777 0.35887
 O688 O 0.29296 0.60949 0.39454
 H689 H 0.36319 0.53182 0.38470
 H690 H 0.36306 0.58707 0.32146
 C691 C 0.18767 0.92615 0.91153
 C692 C 0.15242 0.93684 0.88784
 C693 C 0.15274 0.90860 0.85538
 C694 C 0.18751 0.88243 0.86241
 O695 O 0.20868 0.89289 0.89635
 H696 H 0.13059 0.96334 0.89241
 H697 H 0.13079 0.90756 0.82939
 C698 C 0.68847 0.42876 0.40869
 C699 C 0.65645 0.44282 0.38257
 C700 C 0.65717 0.41532 0.34957
 C701 C 0.68912 0.38633 0.35851
 O702 O 0.70820 0.39439 0.39425
 H703 H 0.63678 0.47112 0.38600
 H704 H 0.63759 0.41675 0.32187
 C705 C 0.07404 0.18936 0.08445
 C706 C 0.06048 0.15731 0.11080
 C707 C 0.08816 0.15841 0.14355
 C708 C 0.11674 0.19060 0.13426
 O709 O 0.10828 0.20946 0.09853
 H710 H 0.03234 0.13740 0.10772
 H711 H 0.08705 0.13894 0.17134
 C712 C 0.57181 0.69040 0.59079
 C713 C 0.55756 0.65825 0.61667
 C714 C 0.58488 0.65869 0.64972
 C715 C 0.61395 0.69065 0.64108
 O716 O 0.60610 0.70998 0.60544
 H717 H 0.52933 0.63858 0.61299
 H718 H 0.58331 0.63883 0.67723
 C719 C 0.06240 0.71423 0.91099
 C720 C 0.05043 0.67837 0.88868
 C721 C 0.07836 0.67623 0.85608
 C722 C 0.10567 0.71038 0.86149
 O723 O 0.09615 0.73350 0.89471
 H724 H 0.02361 0.65732 0.89455
 H725 H 0.07883 0.65269 0.83136
 C726 C 0.56279 0.21663 0.40360
 C727 C 0.54814 0.18427 0.37809
 C728 C 0.57623 0.18286 0.34564
 C729 C 0.60608 0.21409 0.35418
 O730 O 0.59802 0.23471 0.38925
 H731 H 0.51945 0.16528 0.38183
 H732 H 0.57495 0.16195 0.31880
 C733 C 0.92804 0.81395 0.09053
 C734 C 0.94279 0.84570 0.11671
 C735 C 0.91523 0.84571 0.14968
 C736 C 0.88554 0.81447 0.14063
 O737 O 0.89323 0.79511 0.10490
 H738 H 0.97152 0.86469 0.11333
 H739 H 0.91707 0.86533 0.17740
 C740 C 0.42641 0.31168 0.58685
 C741 C 0.44033 0.34317 0.61373
 C742 C 0.41229 0.34223 0.64629
 C743 C 0.38319 0.31070 0.63635
 O744 O 0.39166 0.29208 0.60042
 H745 H 0.46879 0.36266 0.61102
 H746 H 0.41341 0.36145 0.67430
 C747 C 0.93242 0.28665 0.90989
 C748 C 0.94295 0.32315 0.88798
 C749 C 0.91434 0.32499 0.85609
 C750 C 0.88809 0.28999 0.86142
 O751 O 0.89887 0.26665 0.89402
 H752 H 0.96938 0.34477 0.89352
 H753 H 0.91302 0.34864 0.83157
 C754 C 0.43722 0.78788 0.40818
 C755 C 0.45230 0.82032 0.38306
 C756 C 0.42476 0.82182 0.35023
 C757 C 0.39477 0.79056 0.35818
 O758 O 0.40224 0.76985 0.39323
 H759 H 0.48093 0.83927 0.38730
 H760 H 0.42648 0.84283 0.32357
 C761 C 0.11635 0.04776 0.29508
 C762 C 0.15173 0.02969 0.31363
 C763 C 0.18455 0.05741 0.30580
 C764 C 0.16628 0.09064 0.28391
 O765 O 0.12497 0.08477 0.27724
 H766 H 0.15321 0.00013 0.33106
 H767 H 0.21732 0.05468 0.31629
 C768 C 0.61637 0.54153 0.79528
 C769 C 0.65084 0.52366 0.81555
 C770 C 0.68397 0.55144 0.80900
 C771 C 0.66665 0.58439 0.78604
 O772 O 0.62576 0.57835 0.77759
 H773 H 0.65152 0.49430 0.83334
 H774 H 0.71612 0.54909 0.82122
 C775 C 0.95745 0.11577 0.73311
 C776 C 0.97303 0.14467 0.76184
 C777 C 0.94700 0.17949 0.75893
 C778 C 0.91668 0.16880 0.72958
 O779 O 0.92317 0.13026 0.71354
 H780 H 0.99929 0.14027 0.78333
 H781 H 0.94731 0.20737 0.77898
 C782 C 0.45464 0.62024 0.19704
 C783 C 0.47106 0.65442 0.17516
 C784 C 0.44359 0.68759 0.18284
 C785 C 0.41221 0.67061 0.20806
 O786 O 0.41895 0.62988 0.21683
 H787 H 0.49934 0.65488 0.15572
 H788 H 0.44509 0.71957 0.17005
 C789 C 0.04168 0.88234 0.71145
 C790 C 0.02387 0.84917 0.68904
 C791 C 0.05206 0.81588 0.69291
 C792 C 0.08518 0.83184 0.71659
 O793 O 0.07883 0.87199 0.72798
 H794 H -0.00586 0.84938 0.67185
 H795 H 0.04967 0.78450 0.67883
 C796 C 0.54671 0.38653 0.19639
 C797 C 0.53003 0.35225 0.17480
 C798 C 0.55765 0.31915 0.18204
 C799 C 0.58939 0.33625 0.20672
 O800 O 0.58271 0.37702 0.21560
 H801 H 0.50144 0.35164 0.15587
 H802 H 0.55592 0.28708 0.16939
 C803 C 0.88594 0.95454 0.30816
 C804 C 0.85801 0.96031 0.34101
 C805 C 0.82402 0.93429 0.33267
 C806 C 0.83428 0.91390 0.29596
 O807 O 0.87168 0.92625 0.28090
 H808 H 0.86240 0.98025 0.36824
 H809 H 0.79677 0.92823 0.35261
 C810 C 0.38161 0.45307 0.79553
 C811 C 0.34717 0.47063 0.81626
 C812 C 0.31401 0.44304 0.80922
 C813 C 0.33128 0.41048 0.78553
 O814 O 0.37217 0.41660 0.77707
 H815 H 0.34649 0.49978 0.83448
 H816 H 0.28178 0.44536 0.82134
 C817 C 0.06897 0.18851 0.90297
 C818 C 0.05386 0.15755 0.87609
 C819 C 0.08202 0.15726 0.84358
 C820 C 0.11241 0.18754 0.85358
 O821 O 0.10452 0.20660 0.88943
 H822 H 0.02460 0.13925 0.87875
 H823 H 0.08010 0.13817 0.81552
 C824 C 0.57356 0.69044 0.40934
 C825 C 0.56008 0.65834 0.38293
 C826 C 0.58837 0.65876 0.35056
 C827 C 0.61725 0.69060 0.36014
 O828 O 0.60832 0.70994 0.39565
 H829 H 0.53169 0.63874 0.38576
 H830 H 0.58749 0.63909 0.32283
 C831 C 0.92551 0.81037 0.91223
 C832 C 0.93547 0.84571 0.88834
 C833 C 0.90629 0.84556 0.85676
 C834 C 0.88033 0.81079 0.86443
 O835 O 0.89185 0.78942 0.89795
 H836 H 0.96199 0.86760 0.89226
 H837 H 0.90457 0.86758 0.83086
 C838 C 0.42604 0.31442 0.40569
 C839 C 0.43965 0.34686 0.37979
 C840 C 0.41148 0.34687 0.34740
 C841 C 0.38254 0.31493 0.35645
 O842 O 0.39132 0.29513 0.39166
 H843 H 0.46804 0.36638 0.38295
 H844 H 0.41249 0.36687 0.31997
 C845 C 0.06305 0.71832 0.09263
 C846 C 0.04788 0.68671 0.11864
 C847 C 0.07518 0.68631 0.15164
 C848 C 0.10514 0.71742 0.14303
 O849 O 0.09790 0.73697 0.10728
 H850 H 0.01938 0.66748 0.11477
 H851 H 0.07347 0.66593 0.17877
 C852 C 0.56500 0.21733 0.58589
 C853 C 0.55110 0.18377 0.61020
 C854 C 0.57893 0.18211 0.64271
 C855 C 0.60799 0.21445 0.63554
 O856 O 0.59966 0.23598 0.60109
 H857 H 0.52305 0.16405 0.60562
 H858 H 0.57801 0.16022 0.66874
 C859 C 0.93908 0.28517 0.09008
 C860 C 0.95536 0.31638 0.11600
 C861 C 0.92809 0.31785 0.14912
 C862 C 0.89707 0.28776 0.14059
 O863 O 0.90365 0.26782 0.10486
 H864 H 0.98447 0.33463 0.11195
 H865 H 0.93052 0.33825 0.17625
 C866 C 0.43466 0.78421 0.59184
 C867 C 0.44913 0.81651 0.61750
 C868 C 0.42160 0.81703 0.65039
 C869 C 0.39215 0.78533 0.64208
 O870 O 0.39996 0.76528 0.60660
 H871 H 0.47737 0.83610 0.61350
 H872 H 0.42288 0.83782 0.67731
 C873 C 0.28008 0.06203 0.90347
 C874 C 0.31120 0.04619 0.87716
 C875 C 0.31161 0.07324 0.84395
 C876 C 0.28102 0.10378 0.85271
 O877 O 0.26176 0.09707 0.88877
 H878 H 0.33014 0.01747 0.88103
 H879 H 0.33171 0.07102 0.81659
 C880 C 0.78288 0.56479 0.40601
 C881 C 0.81430 0.54930 0.37982
 C882 C 0.81522 0.57692 0.34708
 C883 C 0.78462 0.60739 0.35601
 O884 O 0.76486 0.60012 0.39171
 H885 H 0.83306 0.52042 0.38342
 H886 H 0.83561 0.57510 0.31990
 C887 C 0.81397 0.07769 0.08615
 C888 C 0.84964 0.06751 0.10946
 C889 C 0.84986 0.09633 0.14146
 C890 C 0.81499 0.12237 0.13452
 O891 O 0.79322 0.11122 0.10111
 H892 H 0.87135 0.04088 0.10507
 H893 H 0.87207 0.09768 0.16721
 C894 C 0.31090 0.57372 0.58916
 C895 C 0.34302 0.55985 0.61526
 C896 C 0.34270 0.58782 0.64792
 C897 C 0.31089 0.61691 0.63879
 O898 O 0.29150 0.60842 0.60329
 H899 H 0.36254 0.53142 0.61203
 H900 H 0.36237 0.58654 0.67556
 C901 C 0.71279 0.93232 0.91611
 C902 C 0.67737 0.94418 0.89336
 C903 C 0.67508 0.91537 0.86163
 C904 C 0.70897 0.88783 0.86771
 O905 O 0.73200 0.89799 0.90073
 H906 H 0.65688 0.97168 0.89826
 H907 H 0.65196 0.91485 0.83660
 C908 C 0.21641 0.43933 0.40432
 C909 C 0.18505 0.45508 0.37837
 C910 C 0.18431 0.42788 0.34519
 C911 C 0.21498 0.39740 0.35365
 O912 O 0.23458 0.40424 0.38946
 H913 H 0.16624 0.48389 0.38239
 H914 H 0.16403 0.43002 0.31802
 C915 C 0.18783 0.92903 0.09038
 C916 C 0.15605 0.94328 0.11682
 C917 C 0.15621 0.91528 0.14937
 C918 C 0.18757 0.88579 0.13984
 O919 O 0.20687 0.89408 0.10421
 H920 H 0.13683 0.97193 0.11385
 H921 H 0.13667 0.91674 0.17715
 C922 C 0.68894 0.42779 0.58928
 C923 C 0.65611 0.44063 0.61518
 C924 C 0.65601 0.41180 0.64703
 C925 C 0.68832 0.38328 0.63768
 O926 O 0.70840 0.39292 0.60278
 H927 H 0.63624 0.46884 0.61233
 H928 H 0.63566 0.41208 0.67429
 C929 C 0.11291 0.04501 0.70370
 C930 C 0.14648 0.02598 0.68286
 C931 C 0.17996 0.05393 0.68705
 C932 C 0.16374 0.08784 0.70967
 O933 O 0.12325 0.08233 0.71991
 H934 H 0.14666 -0.00469 0.66718
 H935 H 0.21187 0.05054 0.67438
 C936 C 0.61692 0.55045 0.19987
 C937 C 0.65202 0.53335 0.17989
 C938 C 0.68481 0.56099 0.18819
 C939 C 0.66684 0.59317 0.21191
 O940 O 0.62570 0.58674 0.21915
 H941 H 0.65342 0.50438 0.16144
 H942 H 0.71736 0.55895 0.17686
 C943 C 0.04701 0.88568 0.30117
 C944 C 0.03061 0.85111 0.32243
 C945 C 0.05801 0.81808 0.31397
 C946 C 0.08928 0.83545 0.28883
 O947 O 0.08256 0.87637 0.28093
 H948 H 0.00223 0.85020 0.34172
 H949 H 0.05649 0.78584 0.32613
 C950 C 0.54369 0.38010 0.79293
 C951 C 0.52713 0.34557 0.81413
 C952 C 0.55463 0.31250 0.80602
 C953 C 0.58616 0.32983 0.78117
 O954 O 0.57950 0.37075 0.77314
 H955 H 0.49883 0.34481 0.83355
 H956 H 0.55324 0.28043 0.81858
 C957 C 0.95380 0.11886 0.29632
 C958 C 0.97140 0.15399 0.31581
 C959 C 0.94432 0.18713 0.30708
 C960 C 0.91198 0.16932 0.28360
 O961 O 0.91778 0.12798 0.27690
 H962 H 1.00027 0.15516 0.33432
 H963 H 0.94672 0.21978 0.31813
 C964 C 0.45367 0.61490 0.79359
 C965 C 0.47218 0.65007 0.81217
 C966 C 0.44438 0.68307 0.80513
 C967 C 0.41075 0.66514 0.78351
 O968 O 0.41643 0.62385 0.77634
 H969 H 0.50216 0.65136 0.82891
 H970 H 0.44735 0.71575 0.81594
 C971 C 0.88132 0.95658 0.74217
 C972 C 0.84980 0.97711 0.76459
 C973 C 0.81593 0.94943 0.76463
 C974 C 0.82988 0.91403 0.74272
 O975 O 0.86950 0.91839 0.72907
 H976 H 0.85155 1.00815 0.77945
 H977 H 0.78574 0.95348 0.78068
 C978 C 0.38369 0.45668 0.19811
 C979 C 0.34917 0.47346 0.17708
 C980 C 0.31609 0.44603 0.18499
 C981 C 0.33334 0.41427 0.20956
 O982 O 0.37429 0.42076 0.21765
 H983 H 0.34838 0.50201 0.15810
 H984 H 0.28394 0.44777 0.17268
   
