data_POSCAR
  _audit_creation_date              2014-09-24
  _audit_creation_method            'ToBaCCo'
  _symmetry_space_group_name_H-M    'P1'
  _symmetry_Int_Tables_number       1
  _symmetry_cell_setting            triclinic
  loop_
  _symmetry_equiv_pos_as_xyz
 x,y,z
_cell_length_a 53.9930
_cell_length_b 53.1645
_cell_length_c 54.0500
_cell_angle_alpha 89.959700
_cell_angle_beta 89.983800
_cell_angle_gamma 89.998800
loop_
  _atom_site_label
  _atom_site_type_symbol
  _atom_site_fract_x
  _atom_site_fract_y
  _atom_site_fract_z
C1 C 0.61454 0.64614 0.61532
 C2 C 0.63587 0.63554 0.60482
 C3 C 0.64658 0.61446 0.61546
 C4 C 0.63609 0.60373 0.63673
 C5 C 0.61501 0.61421 0.64711
 C6 C 0.60417 0.63554 0.63634
 C7 C 0.60019 0.66655 0.60894
 N8 N 0.58152 0.66843 0.62558
 C9 C 0.58368 0.64968 0.64241
 C10 C 0.60893 0.59996 0.66752
 N11 N 0.62584 0.58125 0.66960
 C12 C 0.64253 0.58326 0.65099
 C13 C 0.66697 0.60827 0.60141
 N14 N 0.66872 0.62509 0.58266
 C15 C 0.64991 0.64184 0.58446
 H16 H 0.60305 0.67909 0.59340
 H17 H 0.57126 0.64659 0.65785
 H18 H 0.59343 0.60294 0.67990
 H19 H 0.65812 0.57079 0.64806
 H20 H 0.67957 0.59275 0.60453
 H21 H 0.64673 0.65738 0.57190
 C22 C 0.88627 0.35348 0.11482
 C23 C 0.86498 0.36416 0.10431
 C24 C 0.85434 0.38528 0.11493
 C25 C 0.86486 0.39595 0.13619
 C26 C 0.88589 0.38539 0.14658
 C27 C 0.89667 0.36403 0.13583
 C28 C 0.90054 0.33300 0.10845
 N29 N 0.91918 0.33106 0.12511
 C30 C 0.91711 0.34982 0.14193
 C31 C 0.89198 0.39961 0.16698
 N32 N 0.87515 0.41838 0.16906
 C33 C 0.85849 0.41642 0.15044
 C34 C 0.83398 0.39154 0.10087
 N35 N 0.83218 0.37473 0.08214
 C36 C 0.85093 0.35792 0.08396
 H37 H 0.89761 0.32049 0.09291
 H38 H 0.92952 0.35287 0.15738
 H39 H 0.90745 0.39658 0.17938
 H40 H 0.84294 0.42895 0.14752
 H41 H 0.82143 0.40710 0.10398
 H42 H 0.85407 0.34237 0.07142
 C43 C 0.38553 0.14586 -0.11518
 C44 C 0.36422 0.13524 -0.10465
 C45 C 0.35347 0.11420 -0.11529
 C46 C 0.36392 0.10351 -0.13659
 C47 C 0.38499 0.11401 -0.14700
 C48 C 0.39585 0.13531 -0.13623
 C49 C 0.39990 0.16625 -0.10881
 N50 N 0.41853 0.16816 -0.12549
 C51 C 0.41634 0.14944 -0.14232
 C52 C 0.39102 0.09980 -0.16743
 N53 N 0.37411 0.08110 -0.16949
 C54 C 0.35745 0.08308 -0.15085
 C55 C 0.33312 0.10798 -0.10119
 N56 N 0.33141 0.12475 -0.08242
 C57 C 0.35022 0.14149 -0.08425
 H58 H 0.39707 0.17875 -0.09326
 H59 H 0.42873 0.14639 -0.15779
 H60 H 0.40650 0.10280 -0.17983
 H61 H 0.34186 0.07060 -0.14790
 H62 H 0.32051 0.09247 -0.10430
 H63 H 0.35345 0.15700 -0.07168
 C64 C 0.11391 0.85402 0.38503
 C65 C 0.13520 0.86469 0.39553
 C66 C 0.14586 0.88580 0.38489
 C67 C 0.13537 0.89649 0.36361
 C68 C 0.11432 0.88594 0.35322
 C69 C 0.10353 0.86459 0.36399
 C70 C 0.09961 0.83357 0.39142
 N71 N 0.08097 0.83165 0.37475
 C72 C 0.08308 0.85040 0.35790
 C73 C 0.10824 0.90016 0.33280
 N74 N 0.12509 0.91892 0.33072
 C75 C 0.14177 0.91696 0.34934
 C76 C 0.16622 0.89204 0.39895
 N77 N 0.16800 0.87523 0.41770
 C78 C 0.14924 0.85844 0.41590
 H79 H 0.10251 0.82105 0.40697
 H80 H 0.07068 0.85347 0.34244
 H81 H 0.09276 0.89712 0.32040
 H82 H 0.15733 0.92947 0.35227
 H83 H 0.17879 0.90759 0.39582
 H84 H 0.14608 0.84288 0.42845
 N85 N 0.09616 0.16493 0.11377
 N86 N 0.08648 0.15465 0.13365
 C87 C 0.06635 0.16793 0.14043
 C88 C 0.06322 0.18765 0.12393
 C89 C 0.08257 0.18509 0.10725
 H90 H 0.05497 0.16367 0.15633
 H91 H 0.08643 0.19685 0.09140
 Cu92 Cu 0.10122 0.12495 0.14870
 Cu93 Cu 0.12563 0.15146 0.09776
 Cu94 Cu 0.15214 0.09845 0.12422
 N95 N 0.11631 0.09526 0.16342
 N96 N 0.13619 0.08499 0.15372
 C97 C 0.14276 0.06485 0.16732
 C98 C 0.12609 0.06228 0.18667
 C99 C 0.10955 0.08198 0.18355
 H100 H 0.15862 0.05311 0.16343
 H101 H 0.09366 0.08624 0.19495
 N102 N 0.16553 0.11486 0.09436
 N103 N 0.15547 0.13504 0.08432
 C104 C 0.16881 0.14171 0.06430
 C105 C 0.18823 0.12492 0.06152
 C106 C 0.18551 0.10815 0.08097
 H107 H 0.16453 0.15752 0.05248
 H108 H 0.19732 0.09233 0.08522
 H109 H 0.12075 0.11472 0.10930
 H110 H 0.14063 0.13519 0.12910
 N111 N 0.40273 0.83469 0.61436
 N112 N 0.41205 0.84463 0.63456
 C113 C 0.43218 0.83136 0.64137
 C114 C 0.43569 0.81200 0.62455
 C115 C 0.41656 0.81476 0.60766
 H116 H 0.44333 0.83541 0.65747
 H117 H 0.41301 0.80331 0.59154
 Cu118 Cu 0.39699 0.87394 0.65000
 Cu119 Cu 0.37344 0.84831 0.59819
 Cu120 Cu 0.34685 0.90123 0.62457
 N121 N 0.38219 0.90402 0.66419
 N122 N 0.36258 0.91456 0.65420
 C123 C 0.35618 0.93488 0.66758
 C124 C 0.37268 0.93733 0.68708
 C125 C 0.38895 0.91735 0.68427
 H126 H 0.34076 0.94706 0.66324
 H127 H 0.40445 0.91272 0.69605
 N128 N 0.33365 0.88498 0.59459
 N129 N 0.34374 0.86482 0.58457
 C130 C 0.33052 0.85822 0.56448
 C131 C 0.31112 0.87503 0.56163
 C132 C 0.31375 0.89174 0.58112
 H133 H 0.33484 0.84242 0.55268
 H134 H 0.30191 0.90754 0.58534
 H135 H 0.37851 0.88485 0.61028
 H136 H 0.35792 0.86434 0.62939
 N137 N 0.90352 0.66600 0.38601
 N138 N 0.91289 0.65605 0.36584
 C139 C 0.93300 0.66934 0.35902
 C140 C 0.93645 0.68874 0.37581
 C141 C 0.91731 0.68596 0.39269
 H142 H 0.94418 0.66529 0.34293
 H143 H 0.91371 0.69743 0.40879
 Cu144 Cu 0.89790 0.62669 0.35042
 Cu145 Cu 0.87423 0.65236 0.40218
 Cu146 Cu 0.84778 0.59934 0.37586
 N147 N 0.88315 0.59657 0.33625
 N148 N 0.86356 0.58601 0.34625
 C149 C 0.85720 0.56566 0.33289
 C150 C 0.87371 0.56323 0.31340
 C151 C 0.88995 0.58324 0.31619
 H152 H 0.84180 0.55346 0.33724
 H153 H 0.90545 0.58788 0.30440
 N154 N 0.83451 0.61560 0.40582
 N155 N 0.84455 0.63581 0.41580
 C156 C 0.83128 0.64242 0.43587
 C157 C 0.81192 0.62556 0.43873
 C158 C 0.81462 0.60882 0.41929
 H159 H 0.83553 0.65825 0.44764
 H160 H 0.80282 0.59298 0.41508
 H161 H 0.87939 0.61581 0.39016
 H162 H 0.85879 0.63624 0.37100
 N163 N 0.59734 0.33439 -0.11438
 N164 N 0.58800 0.34437 -0.13456
 C165 C 0.56786 0.33113 -0.14135
 C166 C 0.56437 0.31172 -0.12455
 C167 C 0.58352 0.31445 -0.10768
 H168 H 0.55669 0.33521 -0.15744
 H169 H 0.58709 0.30296 -0.09157
 Cu170 Cu 0.60304 0.37372 -0.15000
 Cu171 Cu 0.62665 0.34798 -0.09823
 Cu172 Cu 0.65319 0.40097 -0.12460
 N173 N 0.61783 0.40383 -0.16419
 N174 N 0.63744 0.41435 -0.15421
 C175 C 0.64382 0.43469 -0.16759
 C176 C 0.62731 0.43717 -0.18707
 C177 C 0.61105 0.41718 -0.18426
 H178 H 0.65924 0.44687 -0.16325
 H179 H 0.59554 0.41258 -0.19603
 N180 N 0.66642 0.38467 -0.09463
 N181 N 0.65635 0.36447 -0.08463
 C182 C 0.66960 0.35783 -0.06456
 C183 C 0.68899 0.37465 -0.06171
 C184 C 0.68632 0.39141 -0.08117
 H185 H 0.66531 0.34200 -0.05277
 H186 H 0.69814 0.40724 -0.08538
 H187 H 0.62155 0.38454 -0.11028
 H188 H 0.64213 0.36409 -0.12943
 C189 C 0.02692 0.24697 0.10901
 C190 C 0.00626 0.24427 0.12440
 C191 C 0.00418 0.22310 0.13964
 C192 C 0.02267 0.20469 0.13951
 C193 C -0.06330 0.31357 0.12496
 C194 C 0.04543 0.22858 0.10883
 C195 C -0.01278 0.26321 0.12456
 C196 C -0.02873 0.27908 0.12469
 C197 C -0.04738 0.29768 0.12483
 C198 C 0.04356 0.20719 0.12409
 H199 H 0.02874 0.26331 0.09716
 H200 H -0.01177 0.22079 0.15160
 H201 H 0.02041 0.18846 0.15136
 H202 H 0.06125 0.23133 0.09686
 C203 C 0.49465 0.77655 0.64059
 C204 C 0.49302 0.75576 0.62483
 C205 C 0.47270 0.75332 0.60896
 C206 C 0.45407 0.77159 0.60884
 C207 C 0.56293 0.68682 0.62540
 C208 C 0.47604 0.79484 0.64051
 C209 C 0.51216 0.73692 0.62497
 C210 C 0.52818 0.72113 0.62509
 C211 C 0.54693 0.70263 0.62525
 C212 C 0.45549 0.79260 0.62463
 H213 H 0.51033 0.77864 0.65293
 H214 H 0.47123 0.73727 0.59671
 H215 H 0.43852 0.76905 0.59649
 H216 H 0.47795 0.81077 0.65279
 C217 C 0.97335 0.74749 0.39136
 C218 C 0.99368 0.74508 0.37550
 C219 C 0.99536 0.72428 0.35976
 C220 C 0.97679 0.70596 0.35984
 C221 C 1.06343 0.81419 0.37492
 C222 C 0.95475 0.72919 0.39149
 C223 C 1.01279 0.76396 0.37536
 C224 C 1.02877 0.77979 0.37523
 C225 C 1.04747 0.79833 0.37506
 C226 C 0.95622 0.70817 0.37572
 H227 H 0.97183 0.76355 0.40360
 H228 H 1.01106 0.72220 0.34743
 H229 H 0.97874 0.69002 0.34758
 H230 H 0.93918 0.73172 0.40383
 C231 C 0.52736 0.25303 -0.10895
 C232 C 0.50704 0.25549 -0.12480
 C233 C 0.50540 0.27630 -0.14056
 C234 C 0.52400 0.29460 -0.14049
 C235 C 0.43713 0.18655 -0.12533
 C236 C 0.54599 0.27129 -0.10883
 C237 C 0.48790 0.23665 -0.12493
 C238 C 0.47188 0.22086 -0.12505
 C239 C 0.45313 0.20236 -0.12520
 C240 C 0.54457 0.29233 -0.12462
 H241 H 0.52884 0.23696 -0.09670
 H242 H 0.48972 0.27842 -0.15289
 H243 H 0.52209 0.31054 -0.15276
 H244 H 0.56155 0.26873 -0.09649
 C245 C 0.11026 0.02669 0.24558
 C246 C 0.12575 0.00570 0.24366
 C247 C 0.14137 0.00317 0.22316
 C248 C 0.14150 0.02154 0.20464
 C249 C 0.12525 -0.06359 0.31322
 C250 C 0.11034 0.04508 0.22708
 C251 C 0.12563 -0.01324 0.26271
 C252 C 0.12552 -0.02911 0.27865
 C253 C 0.12538 -0.04770 0.29730
 C254 C 0.12598 0.04275 0.20635
 H255 H 0.09811 0.02886 0.26140
 H256 H 0.15342 -0.01304 0.22147
 H257 H 0.15366 0.01892 0.18895
 H258 H 0.09827 0.06116 0.22922
 C259 C 0.64712 0.49177 -0.22793
 C260 C 0.62669 0.49414 -0.24367
 C261 C 0.60646 0.47795 -0.24094
 C262 C 0.60663 0.45943 -0.22256
 C263 C 0.62600 0.56373 -0.31293
 C264 C 0.64734 0.47327 -0.20953
 C265 C 0.62649 0.51319 -0.26260
 C266 C 0.62634 0.52914 -0.27847
 C267 C 0.62616 0.54780 -0.29705
 C268 C 0.62709 0.45685 -0.20660
 H269 H 0.66291 0.50419 -0.22991
 H270 H 0.59052 0.47965 -0.25300
 H271 H 0.59063 0.44734 -0.22082
 H272 H 0.66349 0.47181 -0.19779
 C273 C 0.39343 0.97797 0.74102
 C274 C 0.37322 0.99419 0.74370
 C275 C 0.35283 0.99188 0.72790
 C276 C 0.35264 0.97342 0.70949
 C277 C 0.37390 1.06362 0.81303
 C278 C 0.39328 0.95948 0.72264
 C279 C 0.37339 1.01320 0.76265
 C280 C 0.37354 1.02910 0.77853
 C281 C 0.37373 1.04772 0.79713
 C282 C 0.37287 0.95697 0.70661
 H283 H 0.40934 0.97962 0.75314
 H284 H 0.33706 1.00432 0.72984
 H285 H 0.33652 0.97201 0.69770
 H286 H 0.40928 0.94736 0.72094
 C287 C 0.89456 0.52257 0.25948
 C288 C 0.87437 0.50632 0.25681
 C289 C 0.85397 0.50862 0.27260
 C290 C 0.85374 0.52709 0.29101
 C291 C 0.87499 0.43686 0.18753
 C292 C 0.89438 0.54107 0.27786
 C293 C 0.87456 0.48731 0.23787
 C294 C 0.87471 0.47139 0.22200
 C295 C 0.87487 0.45276 0.20341
 C296 C 0.87395 0.54357 0.29387
 H297 H 0.91047 0.52093 0.24738
 H298 H 0.83820 0.49617 0.27067
 H299 H 0.83760 0.52850 0.30278
 H300 H 0.91036 0.55320 0.27955
 C301 C 0.22891 0.14567 0.00789
 C302 C 0.24444 0.12482 0.00506
 C303 C 0.24165 0.10400 0.02064
 C304 C 0.22340 0.10401 0.03900
 C305 C 0.31312 0.12474 -0.06402
 C306 C 0.21064 0.14574 0.02623
 C307 C 0.26324 0.12478 -0.01384
 C308 C 0.27897 0.12476 -0.02966
 C309 C 0.29739 0.12475 -0.04819
 C310 C 0.20764 0.12489 0.04204
 H311 H 0.23095 0.16192 -0.00405
 H312 H 0.25355 0.08772 0.01858
 H313 H 0.22159 0.08754 0.05061
 H314 H 0.19907 0.16223 0.02806
 C315 C 0.75869 0.60449 0.47980
 C316 C 0.75579 0.62535 0.49528
 C317 C 0.77121 0.64628 0.49232
 C318 C 0.78946 0.64637 0.47397
 C319 C 0.68706 0.62513 0.56430
 C320 C 0.77691 0.60453 0.46142
 C321 C 0.73700 0.62529 0.51418
 C322 C 0.72126 0.62523 0.52999
 C323 C 0.70282 0.62518 0.54850
 C324 C 0.79255 0.62549 0.45826
 H325 H 0.74687 0.58816 0.48195
 H326 H 0.76910 0.66256 0.50418
 H327 H 0.80094 0.66293 0.47204
 H328 H 0.77880 0.58803 0.44988
 C329 C 0.74222 0.39561 -0.02066
 C330 C 0.74510 0.37472 -0.00518
 C331 C 0.72965 0.35382 -0.00812
 C332 C 0.71140 0.35377 -0.02647
 C333 C 0.81384 0.37474 0.06379
 C334 C 0.72400 0.39562 -0.03903
 C335 C 0.76389 0.37473 0.01371
 C336 C 0.77963 0.37474 0.02951
 C337 C 0.79808 0.37475 0.04801
 C338 C 0.70834 0.37468 -0.04218
 H339 H 0.75405 0.41193 -0.01851
 H340 H 0.73175 0.33751 0.00374
 H341 H 0.69991 0.33724 -0.02840
 H342 H 0.72213 0.41214 -0.05056
 C343 C 0.27064 0.85437 0.50786
 C344 C 0.25504 0.87518 0.50506
 C345 C 0.25775 0.89595 0.52069
 C346 C 0.27596 0.89593 0.53908
 C347 C 0.18633 0.87523 0.43606
 C348 C 0.28888 0.85430 0.52622
 C349 C 0.23626 0.87521 0.48617
 C350 C 0.22052 0.87522 0.47036
 C351 C 0.20208 0.87523 0.45185
 C352 C 0.29177 0.87509 0.54209
 H353 H 0.26868 0.83815 0.49588
 H354 H 0.24579 0.91219 0.51866
 H355 H 0.27769 0.91236 0.55073
 H356 H 0.30050 0.83783 0.52803
   
