data_POSCAR
  _audit_creation_date              2014-09-24
  _audit_creation_method            'ToBaCCo'
  _symmetry_space_group_name_H-M    'P1'
  _symmetry_Int_Tables_number       1
  _symmetry_cell_setting            triclinic
  loop_
  _symmetry_equiv_pos_as_xyz
 x,y,z
_cell_length_a 22.8431
_cell_length_b 22.0948
_cell_length_c 57.3331
_cell_angle_alpha 92.296200
_cell_angle_beta 90.476700
_cell_angle_gamma 119.662600
loop_
  _atom_site_label
  _atom_site_type_symbol
  _atom_site_fract_x
  _atom_site_fract_y
  _atom_site_fract_z
C1 C 0.00538 0.03882 0.51432
 C2 C -0.05445 -0.01819 0.49923
 C3 C -0.03770 -0.05765 0.48459
 C4 C 0.03760 -0.03640 0.48683
 C5 C 0.03322 -0.00138 0.52709
 C6 C 0.04946 -0.04127 0.51300
 C7 C 0.05825 0.08040 0.49668
 C8 C 0.07519 0.04186 0.48224
 H9 H -0.10568 -0.02901 0.50081
 H10 H 0.05405 -0.06622 0.47532
 H11 H 0.03076 -0.00581 0.54587
 H12 H 0.07910 0.13609 0.49534
 C13 C 0.94018 -0.08381 0.18074
 C14 C 0.99443 -0.08867 0.16599
 C15 C 1.03168 -0.03105 0.15337
 C16 C 1.01157 0.02567 0.15691
 C17 C 0.97707 -0.01946 0.19489
 C18 C 1.01831 0.04092 0.18214
 C19 C 0.89897 -0.06962 0.16292
 C20 C 0.93560 -0.01251 0.15048
 H21 H 1.00231 -0.13300 0.16505
 H22 H 1.04004 0.07233 0.14656
 H23 H 0.98322 -0.02050 0.21360
 H24 H 0.84504 -0.10303 0.16016
 C25 C 0.04769 1.04131 0.85733
 C26 C 0.05592 1.09696 0.84015
 C27 C 0.00060 1.07720 0.82565
 C28 C -0.05779 1.00337 0.82992
 C29 C -0.01624 1.02578 0.87020
 C30 C -0.07123 1.00615 0.85608
 C31 C 0.02818 0.97604 0.84180
 C32 C -0.02650 0.95587 0.82747
 H33 H 0.09872 1.14903 0.84070
 H34 H -0.10355 0.98456 0.81857
 H35 H -0.01628 1.03604 0.88885
 H36 H 0.05848 0.95073 0.84112
 O37 O 0.42932 0.00838 -0.01693
 O38 O 0.55070 0.00254 0.02456
 O39 O 0.43392 -0.00257 0.02799
 O40 O 0.53821 0.00019 -0.02046
 O41 O 0.59563 0.11549 -0.01759
 O42 O 0.48908 0.11266 0.03128
 O43 O 0.60639 0.11778 0.02783
 O44 O 0.48631 0.12366 -0.01369
 Cu45 Cu 0.48233 -0.00934 0.00360
 Cu46 Cu 0.55011 0.12896 0.00740
 C47 C 0.43778 0.06731 -0.02239
 C48 C 0.59971 0.05950 0.03292
 C49 C 0.44270 0.05399 0.03760
 C50 C 0.58432 0.05774 -0.02729
 O51 O 0.03049 0.46256 0.64883
 O52 O 0.02204 0.58817 0.69136
 O53 O 0.02652 0.47241 0.69406
 O54 O 0.03993 0.58404 0.64660
 O55 O -0.07102 0.52847 0.64166
 O56 O -0.08455 0.41505 0.68964
 O57 O -0.08895 0.53137 0.68673
 O58 O -0.08064 0.40713 0.64450
 Cu59 Cu 0.04078 0.53247 0.67077
 Cu60 Cu -0.09243 0.46525 0.66533
 C61 C -0.02402 0.41369 0.63945
 C62 C -0.03530 0.58090 0.69609
 C63 C -0.03065 0.42415 0.69964
 C64 C -0.01270 0.57490 0.63589
 O65 O 0.43883 0.42241 0.35222
 O66 O 0.55526 0.54195 0.30976
 O67 O 0.43538 0.43391 0.30739
 O68 O 0.55366 0.53987 0.35507
 O69 O 0.60494 0.47743 0.35213
 O70 O 0.48429 0.36921 0.30395
 O71 O 0.60456 0.47754 0.30680
 O72 O 0.48946 0.35935 0.34917
 Cu73 Cu 0.49088 0.49090 0.33153
 Cu74 Cu 0.55064 0.41430 0.32783
 C75 C 0.44425 0.37014 0.35766
 C76 C 0.59942 0.52947 0.30105
 C77 C 0.43968 0.38412 0.29749
 C78 C 0.59989 0.52781 0.36146
 C79 C 0.04413 0.18257 0.56089
 C80 C -0.01710 0.18179 0.56260
 C81 C -0.07283 0.13395 0.54864
 C82 C -0.06723 0.08688 0.53294
 C83 C -0.00557 0.08714 0.53115
 C84 C 0.04989 0.13595 0.54533
 C85 C -0.02153 0.23077 0.57873
 C86 C -0.02256 0.27281 0.59251
 C87 C -0.02222 0.32245 0.60882
 C88 C -0.02217 0.36458 0.62282
 H89 H 0.08765 0.21946 0.57155
 H90 H -0.12049 0.13322 0.54981
 H91 H -0.11105 0.05144 0.52231
 H92 H 0.09818 0.13804 0.54425
 C93 C 0.85890 0.74465 0.21327
 C94 C 0.80882 0.75103 0.22522
 C95 C 0.80127 0.80921 0.22241
 C96 C 0.84360 0.86106 0.20788
 C97 C 0.89453 0.85596 0.19570
 C98 C 0.90164 0.79679 0.19858
 C99 C 0.76545 0.69939 0.24086
 C100 C 0.72784 0.65864 0.25437
 C101 C 0.68304 0.61306 0.27049
 C102 C 0.64466 0.57492 0.28442
 H103 H 0.86527 0.69975 0.21546
 H104 H 0.76289 0.81487 0.23163
 H105 H 0.83704 0.90606 0.20626
 H106 H 0.94016 0.79046 0.18993
 C107 C 0.22345 0.12038 -0.11227
 C108 C 0.21061 0.07061 -0.09573
 C109 C 0.14576 0.01396 -0.09415
 C110 C 0.09403 0.00645 -0.10910
 C111 C 0.10575 0.05577 -0.12592
 C112 C 0.17141 0.11304 -0.12734
 C113 C 0.26350 0.07536 -0.08066
 C114 C 0.30538 0.07575 -0.06765
 C115 C 0.35231 0.07344 -0.05211
 C116 C 0.39144 0.07051 -0.03862
 H117 H 0.27380 0.16422 -0.11374
 H118 H 0.13530 -0.02512 -0.08153
 H119 H 0.04455 -0.03892 -0.10781
 H120 H 0.18362 0.15136 -0.14027
 C121 C 0.09693 0.86389 0.55546
 C122 C 0.04392 0.79550 0.55133
 C123 C -0.00085 0.77945 0.53227
 C124 C 0.00487 0.83229 0.51824
 C125 C 0.05555 0.90166 0.52309
 C126 C 0.10266 0.91678 0.54143
 C127 C 0.03062 0.74414 0.56824
 C128 C 0.01848 0.70276 0.58309
 C129 C 0.00470 0.65624 0.60110
 C130 C -0.00509 0.61816 0.61686
 H131 H 0.13154 0.87705 0.57029
 H132 H -0.04263 0.72693 0.52911
 H133 H -0.03388 0.81975 0.50502
 H134 H 0.14120 0.97018 0.54578
 C135 C 0.19248 0.18828 0.19561
 C136 C 0.18859 0.19976 0.21958
 C137 C 0.12637 0.16579 0.23018
 C138 C 0.06908 0.11690 0.21734
 C139 C 0.07286 0.10038 0.19356
 C140 C 0.13491 0.13958 0.18257
 C141 C 0.24833 0.24190 0.23395
 C142 C 0.29610 0.27476 0.24720
 C143 C 0.34920 0.31188 0.26388
 C144 C 0.39201 0.34397 0.27891
 H145 H 0.24049 0.21461 0.18720
 H146 H 0.12253 0.17514 0.24866
 H147 H 0.02203 0.09090 0.22632
 H148 H 0.14118 0.12903 0.16446
 C149 C 0.78664 -0.03583 -0.10341
 C150 C 0.77065 0.01593 -0.10838
 C151 C 0.80077 0.05874 -0.12703
 C152 C 0.84907 0.05194 -0.13995
 C153 C 0.86747 0.00223 -0.13433
 C154 C 0.83501 -0.04249 -0.11626
 C155 C 0.72876 0.02924 -0.09281
 C156 C 0.69549 0.03993 -0.07879
 C157 C 0.65749 0.05042 -0.06145
 C158 C 0.62472 0.05620 -0.04606
 H159 H 0.76405 -0.06888 -0.08890
 H160 H 0.78946 0.09958 -0.13083
 H161 H 0.87550 0.08889 -0.15308
 H162 H 0.84955 -0.08021 -0.11139
 C163 C 0.15522 0.02859 0.10441
 C164 C 0.19964 0.00565 0.11120
 C165 C 0.18766 -0.03197 0.13139
 C166 C 0.13200 -0.04566 0.14491
 C167 C 0.08780 -0.02169 0.13836
 C168 C 0.09973 0.01505 0.11787
 C169 C 0.25663 0.01997 0.09711
 C170 C 0.30301 0.03152 0.08467
 C171 C 0.35517 0.04326 0.06925
 C172 C 0.39706 0.05041 0.05528
 H173 H 0.16353 0.05711 0.08870
 H174 H 0.22156 -0.05024 0.13678
 H175 H 0.12457 -0.07333 0.16075
 H176 H 0.06600 0.03312 0.11214
 C177 C 0.80551 0.82443 0.44638
 C178 C 0.81947 0.77236 0.43839
 C179 C 0.87998 0.77605 0.44523
 C180 C 0.92625 0.83116 0.46005
 C181 C 0.91278 0.88374 0.46854
 C182 C 0.85173 0.87971 0.46128
 C183 C 0.77256 0.71597 0.42276
 C184 C 0.73363 0.66947 0.40939
 C185 C 0.68786 0.61672 0.39327
 C186 C 0.64817 0.57416 0.37904
 H187 H 0.75905 0.82257 0.44098
 H188 H 0.89155 0.73625 0.43906
 H189 H 0.97195 0.83115 0.46493
 H190 H 0.83974 0.91964 0.46672
 C191 C -0.07350 0.15734 0.78552
 C192 C -0.01557 0.21304 0.77704
 C193 C 0.04794 0.22398 0.78405
 C194 C 0.05342 0.17973 0.79966
 C195 C -0.00467 0.12384 0.80860
 C196 C -0.06822 0.11308 0.80107
 C197 C -0.02163 0.25838 0.76101
 C198 C -0.02681 0.29597 0.74744
 C199 C -0.03161 0.34003 0.73126
 C200 C -0.03322 0.37808 0.71707
 H201 H -0.12296 0.14816 0.78017
 H202 H 0.09324 0.26663 0.77741
 H203 H 0.10322 0.18906 0.80444
 H204 H -0.11447 0.07132 0.80729
 C205 C 0.81701 -0.03162 0.10103
 C206 C 0.82730 0.03610 0.10036
 C207 C 0.87811 0.08989 0.11462
 C208 C 0.91660 0.07513 0.13019
 C209 C 0.90374 0.00637 0.13174
 C210 C 0.85489 -0.04642 0.11657
 C211 C 0.78223 0.04800 0.08606
 C212 C 0.74162 0.05368 0.07415
 C213 C 0.69218 0.05687 0.06014
 C214 C 0.64959 0.05816 0.04794
 H215 H 0.77813 -0.07357 0.09003
 H216 H 0.88649 0.14257 0.11424
 H217 H 0.95383 0.11649 0.14178
 H218 H 0.84474 -0.09968 0.11721
 C219 C 0.22155 0.09705 0.44174
 C220 C 0.21673 0.14822 0.42948
 C221 C 0.16269 0.15992 0.43320
 C222 C 0.11520 0.12294 0.44970
 C223 C 0.12102 0.07361 0.46280
 C224 C 0.17351 0.05947 0.45827
 C225 C 0.26833 0.19202 0.41397
 C226 C 0.31021 0.23159 0.40116
 C227 C 0.35785 0.27985 0.38623
 C228 C 0.39763 0.32143 0.37335
 H229 H 0.26324 0.08757 0.43897
 H230 H 0.15820 0.19903 0.42377
 H231 H 0.07452 0.13396 0.45258
 H232 H 0.17902 0.02183 0.46821
 C233 C -0.05169 0.78893 0.79782
 C234 C -0.05977 0.79973 0.77443
 C235 C -0.06504 0.85799 0.76869
 C236 C -0.05898 0.90700 0.78624
 C237 C -0.04682 0.89833 0.80960
 C238 C -0.04527 0.83782 0.81529
 C239 C -0.05705 0.75367 0.75651
 C240 C -0.05239 0.71494 0.74216
 C241 C -0.04561 0.66916 0.72593
 C242 C -0.04010 0.62939 0.71230
 H243 H -0.04769 0.74404 0.80249
 H244 H -0.07117 0.86693 0.75062
 H245 H -0.05967 0.95355 0.78142
 H246 H -0.03646 0.82975 0.83319
   
