data_POSCAR
  _audit_creation_date              2014-09-24
  _audit_creation_method            'ToBaCCo'
  _symmetry_space_group_name_H-M    'P1'
  _symmetry_Int_Tables_number       1
  _symmetry_cell_setting            triclinic
  loop_
  _symmetry_equiv_pos_as_xyz
 x,y,z
_cell_length_a 32.3324
_cell_length_b 32.8949
_cell_length_c 32.7256
_cell_angle_alpha 92.712500
_cell_angle_beta 90.000400
_cell_angle_gamma 82.095900
loop_
  _atom_site_label
  _atom_site_type_symbol
  _atom_site_fract_x
  _atom_site_fract_y
  _atom_site_fract_z
C1 C 0.30373 0.22293 0.20614
 N2 N 0.27259 0.25548 0.20815
 C3 C 0.24400 0.25927 0.23916
 N4 N 0.24683 0.23056 0.26781
 C5 C 0.27771 0.19827 0.26608
 N6 N 0.30608 0.19458 0.23522
 C7 C 0.68961 -0.23951 0.21232
 N8 N 0.69029 -0.21169 0.24414
 C9 C 0.72141 -0.21584 0.27210
 N10 N 0.75247 -0.24822 0.26799
 C11 C 0.75232 -0.27630 0.23603
 N12 N 0.72071 -0.27168 0.20850
 C13 C 0.76197 0.26023 0.78115
 N14 N 0.76251 0.23059 0.75075
 C15 C 0.78835 0.23005 0.71798
 N16 N 0.81374 0.25952 0.71564
 C17 C 0.81346 0.28954 0.74574
 N18 N 0.78746 0.28966 0.77848
 C19 C 0.24680 -0.23242 0.77220
 N20 N 0.22120 -0.26201 0.77064
 C21 C 0.19458 -0.26492 0.73874
 N22 N 0.19375 -0.23813 0.70829
 C23 C 0.21929 -0.20866 0.70959
 N24 N 0.24560 -0.20599 0.74149
 C25 C 0.67567 -0.22949 0.77876
 N26 N 0.67745 -0.20103 0.75027
 C27 C 0.71169 -0.20271 0.72563
 N28 N 0.74451 -0.23295 0.73001
 C29 C 0.74316 -0.26121 0.75891
 N30 N 0.70860 -0.25920 0.78275
 C31 C 0.30961 0.26103 0.78062
 N32 N 0.27570 0.29055 0.78012
 C33 C 0.24553 0.28810 0.75158
 N34 N 0.24927 0.25587 0.72384
 C35 C 0.28271 0.22616 0.72408
 N36 N 0.31294 0.22880 0.75256
 C37 C 0.24968 -0.26690 0.22881
 N38 N 0.22184 -0.29404 0.23158
 C39 C 0.19415 -0.29092 0.26311
 N40 N 0.19442 -0.26012 0.29224
 C41 C 0.22192 -0.23257 0.28978
 N42 N 0.24947 -0.23606 0.25802
 C43 C 0.74745 0.24941 0.23452
 N44 N 0.74898 0.21976 0.26236
 C45 C 0.77858 0.21733 0.29215
 N46 N 0.80652 0.24475 0.29385
 C47 C 0.80531 0.27432 0.26610
 N48 N 0.77575 0.27631 0.23659
 O49 O 0.21775 0.04552 0.45926
 O50 O 0.22071 -0.03069 0.53762
 O51 O 0.21939 0.04872 0.53846
 O52 O 0.22145 -0.03415 0.45872
 O53 O 0.29038 -0.04115 0.45773
 O54 O 0.28830 0.04167 0.53792
 O55 O 0.28965 -0.03744 0.53765
 O56 O 0.28669 0.03809 0.45782
 Cu57 Cu 0.21290 0.00814 0.49860
 Cu58 Cu 0.29574 -0.00040 0.49771
 C59 C 0.25159 0.05469 0.44501
 C60 C 0.25557 -0.04702 0.55103
 C61 C 0.25342 0.05934 0.55183
 C62 C 0.25629 -0.05182 0.44467
 O63 O 0.78790 0.03717 0.54264
 O64 O 0.79060 -0.04652 0.46360
 O65 O 0.78627 0.03357 0.46299
 O66 O 0.78860 -0.04258 0.54314
 O67 O 0.71968 -0.03485 0.54329
 O68 O 0.71738 0.04052 0.46350
 O69 O 0.72168 -0.03890 0.46363
 O70 O 0.71900 0.04411 0.54369
 Cu71 Cu 0.79523 -0.00527 0.50307
 Cu72 Cu 0.71257 0.00353 0.50354
 C73 C 0.75312 0.05471 0.55685
 C74 C 0.75661 -0.05699 0.45012
 C75 C 0.75127 0.04988 0.44949
 C76 C 0.75434 -0.05172 0.55676
 O77 O 0.49695 0.20367 0.03291
 O78 O 0.58589 0.19539 -0.03953
 O79 O 0.57793 0.19417 0.04055
 O80 O 0.50604 0.19755 -0.04609
 O81 O 0.50026 0.26529 -0.04429
 O82 O 0.57419 0.26172 0.04259
 O83 O 0.58132 0.26304 -0.03722
 O84 O 0.49305 0.27127 0.03453
 Cu85 Cu 0.54239 0.19098 -0.00304
 Cu86 Cu 0.53705 0.27204 -0.00093
 C87 C 0.47955 0.23908 0.04564
 C88 C 0.59820 0.22810 -0.05127
 C89 C 0.58817 0.22711 0.05668
 C90 C 0.49055 0.23169 -0.05983
 O91 O 0.50255 0.77484 0.03644
 O92 O 0.41475 0.77664 -0.03592
 O93 O 0.42206 0.78207 0.04405
 O94 O 0.49484 0.77560 -0.04281
 O95 O 0.50140 0.70782 -0.04347
 O96 O 0.42742 0.71436 0.04310
 O97 O 0.42048 0.70895 -0.03591
 O98 O 0.50842 0.70705 0.03474
 Cu99 Cu 0.45775 0.78411 0.00052
 Cu100 Cu 0.46483 0.70278 -0.00055
 C101 C 0.52069 0.74035 0.04748
 C102 C 0.40277 0.74293 -0.04821
 C103 C 0.41251 0.74950 0.05857
 C104 C 0.51115 0.74070 -0.05745
 O105 O 0.03819 0.45148 0.19286
 O106 O -0.04871 0.53618 0.20776
 O107 O 0.03228 0.53052 0.19992
 O108 O -0.04302 0.45652 0.20138
 O109 O -0.03563 0.45288 0.26824
 O110 O 0.03792 0.52908 0.26715
 O111 O -0.04197 0.53350 0.27477
 O112 O 0.04514 0.44940 0.25988
 Cu113 Cu -0.00616 0.49388 0.19376
 Cu114 Cu 0.00190 0.49074 0.27425
 C115 C 0.05693 0.43647 0.22398
 C116 C -0.05980 0.54958 0.24370
 C117 C 0.04788 0.54243 0.23326
 C118 C -0.05211 0.44198 0.23498
 O119 O 0.03105 0.56063 0.80367
 O120 O -0.04299 0.48558 0.80343
 O121 O 0.03843 0.48179 0.80798
 O122 O -0.04949 0.56444 0.79414
 O123 O -0.04185 0.55584 0.72708
 O124 O 0.04395 0.47271 0.74080
 O125 O -0.03677 0.47622 0.73635
 O126 O 0.03792 0.55199 0.73654
 Cu127 Cu -0.00662 0.52395 0.80901
 Cu128 Cu 0.00133 0.51318 0.72847
 C129 C 0.04729 0.56904 0.77035
 C130 C -0.05249 0.46795 0.77011
 C131 C 0.05639 0.46345 0.77635
 C132 C -0.06008 0.57460 0.75820
 C133 C 0.37669 0.24978 0.12725
 C134 C 0.40069 0.21151 0.11797
 N135 N 0.39165 0.17774 0.13644
 C136 C 0.35998 0.18050 0.16415
 C137 C 0.33601 0.21881 0.17384
 N138 N 0.34485 0.25258 0.15481
 N139 N 0.38643 0.28368 0.10943
 C140 C 0.41920 0.28112 0.08293
 C141 C 0.44340 0.24283 0.07365
 N142 N 0.43326 0.20888 0.09136
 H143 H 0.35380 0.15305 0.17867
 H144 H 0.42626 0.30873 0.06928
 C145 C 0.62247 0.73469 0.12863
 C146 C 0.59191 0.76943 0.12923
 N147 N 0.59435 0.80072 0.15727
 C148 C 0.62592 0.79884 0.18488
 C149 C 0.65694 0.76415 0.18417
 N150 N 0.65431 0.73304 0.15572
 N151 N 0.61935 0.70274 0.10158
 C152 C 0.58689 0.70387 0.07513
 C153 C 0.55638 0.73875 0.07535
 N154 N 0.55978 0.77088 0.10237
 H155 H 0.62676 0.82431 0.20692
 H156 H 0.58508 0.67790 0.05393
 C157 C 0.68900 0.22505 -0.14480
 C158 C 0.67766 0.26069 -0.11984
 N159 N 0.69494 0.29511 -0.12676
 C160 C 0.72285 0.29565 -0.15777
 C161 C 0.73351 0.26032 -0.18358
 N162 N 0.71627 0.22578 -0.17624
 N163 N 0.67208 0.19049 -0.13756
 C164 C 0.64390 0.19007 -0.10673
 C165 C 0.63151 0.22608 -0.08237
 N166 N 0.64896 0.26052 -0.08957
 H167 H 0.73586 0.32364 -0.16272
 H168 H 0.63050 0.16224 -0.10205
 C169 C 0.30858 0.74131 -0.13730
 C170 C 0.33232 0.77396 -0.13368
 N171 N 0.32679 0.80411 -0.16076
 C172 C 0.29882 0.80303 -0.19161
 C173 C 0.27481 0.77032 -0.19553
 N174 N 0.28022 0.74039 -0.16782
 N175 N 0.31528 0.71036 -0.11108
 C176 C 0.34493 0.71041 -0.08161
 C177 C 0.36875 0.74310 -0.07794
 N178 N 0.36157 0.77427 -0.10400
 H179 H 0.29551 0.82757 -0.21277
 H180 H 0.34996 0.68514 -0.06136
 C181 C 0.16143 0.34375 0.21145
 C182 C 0.14281 0.35537 0.24977
 N183 N 0.15810 0.33640 0.28353
 C184 C 0.19104 0.30601 0.28078
 C185 C 0.20988 0.29401 0.24251
 N186 N 0.19468 0.31345 0.20862
 N187 N 0.14535 0.36244 0.17767
 C188 C 0.11154 0.39217 0.18051
 C189 C 0.09300 0.40393 0.21896
 N190 N 0.10937 0.38514 0.25263
 H191 H 0.20235 0.29130 0.30830
 H192 H 0.09948 0.40661 0.15311
 C193 C 0.13213 0.65604 0.77230
 C194 C 0.11283 0.64510 0.73573
 N195 N 0.12069 0.66352 0.70086
 C196 C 0.14690 0.69249 0.70090
 C197 C 0.16650 0.70338 0.73744
 N198 N 0.15864 0.68464 0.77228
 N199 N 0.12353 0.63835 0.80736
 C200 C 0.09639 0.61026 0.80758
 C201 C 0.07716 0.59902 0.77097
 N202 N 0.08605 0.61672 0.73581
 H203 H 0.15249 0.70670 0.67262
 H204 H 0.09008 0.59671 0.83603
 C205 C -0.15594 0.65036 0.25806
 C206 C -0.15298 0.62450 0.22252
 N207 N -0.18154 0.63166 0.19248
 C208 C -0.21300 0.66357 0.19622
 C209 C -0.21581 0.69026 0.23150
 N210 N -0.18690 0.68281 0.26157
 N211 N -0.12801 0.64237 0.28862
 C212 C -0.09716 0.60976 0.28515
 C213 C -0.09361 0.58429 0.24919
 N214 N -0.12173 0.59245 0.21870
 H215 H -0.23517 0.66821 0.17153
 H216 H -0.07521 0.60421 0.30991
 C217 C -0.13425 0.37814 0.77390
 C218 C -0.10892 0.38026 0.73945
 N219 N -0.10974 0.35231 0.70772
 C220 C -0.13468 0.32225 0.70881
 C221 C -0.16041 0.32004 0.74327
 N222 N -0.15943 0.34838 0.77492
 N223 N -0.13286 0.40550 0.80603
 C224 C -0.10711 0.43485 0.80541
 C225 C -0.08168 0.43723 0.77092
 N226 N -0.08340 0.40981 0.73862
 H227 H -0.13440 0.30048 0.68292
 H228 H -0.10656 0.45613 0.83160
 C229 C 0.24708 0.14022 0.35256
 C230 C 0.28344 0.11263 0.35871
 N231 N 0.31718 0.11300 0.33409
 C232 C 0.31624 0.13984 0.30362
 C233 C 0.28002 0.16790 0.29780
 N234 N 0.24633 0.16731 0.32258
 N235 N 0.21302 0.13937 0.37652
 C236 C 0.21360 0.11209 0.40646
 C237 C 0.25010 0.08468 0.41306
 N238 N 0.28425 0.08571 0.38896
 H239 H 0.34362 0.13958 0.28454
 H240 H 0.18596 0.11206 0.42512
 C241 C 0.75322 0.14805 0.65017
 C242 C 0.78783 0.13729 0.62408
 N243 N 0.82170 0.15727 0.62872
 C244 C 0.82260 0.18753 0.65838
 C245 C 0.78828 0.19792 0.68508
 N246 N 0.75437 0.17776 0.68023
 N247 N 0.71895 0.12877 0.64487
 C248 C 0.71775 0.09905 0.61470
 C249 C 0.75268 0.08762 0.58899
 N250 N 0.78695 0.10714 0.59443
 H251 H 0.85005 0.20288 0.66141
 H252 H 0.69009 0.08407 0.61127
 C253 C 0.25500 -0.13320 0.64225
 C254 C 0.22063 -0.12458 0.61640
 N255 N 0.18671 -0.14421 0.62076
 C256 C 0.18552 -0.17202 0.65005
 C257 C 0.21955 -0.18003 0.67658
 N258 N 0.25351 -0.16034 0.67190
 N259 N 0.28930 -0.11428 0.63733
 C260 C 0.29072 -0.08686 0.60774
 C261 C 0.25598 -0.07747 0.58238
 N262 N 0.22173 -0.09667 0.58738
 H263 H 0.15804 -0.18712 0.65303
 H264 H 0.31836 -0.07204 0.60456
 C265 C 0.75767 -0.15132 0.35754
 C266 C 0.72072 -0.12536 0.36833
 N267 N 0.68490 -0.12980 0.34813
 C268 C 0.68431 -0.15890 0.31738
 C269 C 0.72121 -0.18506 0.30635
 N270 N 0.75708 -0.18070 0.32697
 N271 N 0.79365 -0.14615 0.37730
 C272 C 0.79436 -0.11613 0.40728
 C273 C 0.75732 -0.09017 0.41821
 N274 N 0.72135 -0.09566 0.39841
 H275 H 0.65523 -0.16156 0.30175
 H276 H 0.82350 -0.11266 0.42245
 C277 C 0.60693 0.73769 -0.14537
 C278 C 0.57517 0.77127 -0.14185
 N279 N 0.57627 0.80355 -0.16607
 C280 C 0.60803 0.80399 -0.19336
 C281 C 0.64091 0.77103 -0.19572
 N282 N 0.63910 0.73864 -0.17162
 N283 N 0.60549 0.70488 -0.12207
 C284 C 0.57390 0.70432 -0.09482
 C285 C 0.54286 0.73858 -0.08993
 N286 N 0.54420 0.77129 -0.11378
 H287 H 0.60811 0.83028 -0.21203
 H288 H 0.57389 0.67804 -0.07614
 C289 C 0.40135 0.23025 -0.15413
 C290 C 0.40319 0.26605 -0.12945
 N291 N 0.37468 0.29971 -0.13475
 C292 C 0.34430 0.29916 -0.16350
 C293 C 0.34238 0.26331 -0.18830
 N294 N 0.37126 0.22977 -0.18298
 N295 N 0.42913 0.19625 -0.14831
 C296 C 0.45853 0.19622 -0.11865
 C297 C 0.46049 0.23193 -0.09369
 N298 N 0.43277 0.26618 -0.09992
 H299 H 0.32196 0.32645 -0.16693
 H300 H 0.48007 0.16850 -0.11452
 C301 C 0.32940 0.75781 0.15906
 C302 C 0.33349 0.72358 0.13134
 N303 N 0.30966 0.69331 0.13628
 C304 C 0.28182 0.69563 0.16769
 C305 C 0.27795 0.72964 0.19605
 N306 N 0.30215 0.75986 0.19088
 N307 N 0.35227 0.78873 0.15334
 C308 C 0.37908 0.78699 0.12109
 C309 C 0.38371 0.75244 0.09362
 N310 N 0.36079 0.72146 0.09957
 H311 H 0.26329 0.67088 0.17057
 H312 H 0.39695 0.81207 0.11722
 C313 C 0.67004 0.22069 0.15800
 C314 C 0.66078 0.25720 0.13720
 N315 N 0.67913 0.29046 0.14907
 C316 C 0.70658 0.28885 0.18061
 C317 C 0.71610 0.25232 0.20156
 N318 N 0.69728 0.21909 0.18976
 N319 N 0.65234 0.18717 0.14551
 C320 C 0.62592 0.18843 0.11309
 C321 C 0.61649 0.22498 0.09216
 N322 N 0.63415 0.25860 0.10500
 H323 H 0.72087 0.31587 0.18916
 H324 H 0.61234 0.16116 0.10386
 C325 C -0.15837 0.67111 0.74199
 C326 C -0.15771 0.64637 0.77588
 N327 N -0.18973 0.65255 0.80312
 C328 C -0.22254 0.68232 0.79811
 C329 C -0.22325 0.70785 0.76452
 N330 N -0.19077 0.70155 0.73732
 N331 N -0.12697 0.66372 0.71394
 C332 C -0.09502 0.63270 0.71825
 C333 C -0.09402 0.60836 0.75255
 N334 N -0.12545 0.61598 0.78064
 H335 H -0.24750 0.68618 0.82059
 H336 H -0.07041 0.62739 0.69542
 C337 C -0.13857 0.35668 0.23564
 C338 C -0.10982 0.35872 0.26752
 N339 N -0.10941 0.33244 0.29835
 C340 C -0.13649 0.30420 0.29880
 C341 C -0.16587 0.30245 0.26712
 N342 N -0.16596 0.32901 0.23638
 N343 N -0.13841 0.38210 0.20422
 C344 C -0.11074 0.40961 0.20318
 C345 C -0.08219 0.41223 0.23530
 N346 N -0.08253 0.38665 0.26686
 H347 H -0.13525 0.28372 0.32384
 H348 H -0.11136 0.42954 0.17773
 C349 C 0.16203 0.37293 0.78360
 C350 C 0.13945 0.37831 0.74718
 N351 N 0.15176 0.35447 0.71329
 C352 C 0.18574 0.32531 0.71406
 C353 C 0.20888 0.31996 0.75029
 N354 N 0.19644 0.34408 0.78432
 N355 N 0.14899 0.39652 0.81762
 C356 C 0.11452 0.42540 0.81674
 C357 C 0.09236 0.43125 0.78001
 N358 N 0.10556 0.40739 0.74618
 H359 H 0.19479 0.30675 0.68648
 H360 H 0.10499 0.44403 0.84416
 C361 C 0.13487 0.62683 0.23189
 C362 C 0.10912 0.62533 0.26613
 N363 N 0.11169 0.65191 0.29875
 C364 C 0.13893 0.67998 0.29873
 C365 C 0.16545 0.68108 0.26471
 N366 N 0.16259 0.65420 0.23218
 N367 N 0.13139 0.60128 0.19868
 C368 C 0.10327 0.57413 0.19814
 C369 C 0.07797 0.57196 0.23267
 N370 N 0.08161 0.59764 0.26597
 H371 H 0.14010 0.70077 0.32522
 H372 H 0.10115 0.55403 0.17129
 C373 C 0.75201 -0.13981 0.64683
 C374 C 0.71556 -0.11446 0.63598
 N375 N 0.67885 -0.11811 0.65456
 C376 C 0.67681 -0.14603 0.68356
 C377 C 0.71315 -0.17190 0.69437
 N378 N 0.74999 -0.16807 0.67555
 N379 N 0.78882 -0.13562 0.62852
 C380 C 0.79078 -0.10729 0.59976
 C381 C 0.75417 -0.08217 0.58847
 N382 N 0.71743 -0.08654 0.60704
 H383 H 0.64700 -0.14819 0.69774
 H384 H 0.82051 -0.10475 0.58560
 C385 C 0.25677 -0.14804 0.35435
 C386 C 0.22165 -0.13573 0.37944
 N387 N 0.18755 -0.15538 0.37514
 C388 C 0.18691 -0.18685 0.34680
 C389 C 0.22180 -0.19897 0.32117
 N390 N 0.25594 -0.17908 0.32561
 N391 N 0.29122 -0.12898 0.35936
 C392 C 0.29214 -0.09808 0.38835
 C393 C 0.25679 -0.08529 0.41316
 N394 N 0.22233 -0.10452 0.40795
 H395 H 0.15923 -0.20190 0.34402
 H396 H 0.32001 -0.08340 0.39168
 C397 C 0.74723 0.13736 0.35803
 C398 C 0.78364 0.12689 0.38079
 N399 N 0.81757 0.14582 0.37408
 C400 C 0.81677 0.17486 0.34575
 C401 C 0.78045 0.18535 0.32264
 N402 N 0.74651 0.16607 0.32936
 N403 N 0.71298 0.11910 0.36545
 C404 C 0.71342 0.09092 0.39465
 C405 C 0.74994 0.08011 0.41736
 N406 N 0.78428 0.09841 0.40965
 H407 H 0.84435 0.18944 0.34120
 H408 H 0.68559 0.07695 0.39989
 C409 C 0.25033 0.15521 0.64286
 C410 C 0.28736 0.12851 0.63454
 N411 N 0.32231 0.13358 0.65620
 C412 C 0.32193 0.16429 0.68570
 C413 C 0.28497 0.19149 0.69359
 N414 N 0.25011 0.18606 0.67182
 N415 N 0.21515 0.14996 0.62185
 C416 C 0.21525 0.11915 0.59269
 C417 C 0.25238 0.09258 0.58374
 N418 N 0.28766 0.09798 0.60500
 H419 H 0.35026 0.16774 0.70235
 H420 H 0.18671 0.11579 0.57637
   
