data_POSCAR
  _audit_creation_date              2014-09-24
  _audit_creation_method            'ToBaCCo'
  _symmetry_space_group_name_H-M    'P1'
  _symmetry_Int_Tables_number       1
  _symmetry_cell_setting            triclinic
  loop_
  _symmetry_equiv_pos_as_xyz
 x,y,z
_cell_length_a 48.1922
_cell_length_b 47.8993
_cell_length_c 48.1425
_cell_angle_alpha 87.707300
_cell_angle_beta 88.103400
_cell_angle_gamma 87.163800
loop_
  _atom_site_label
  _atom_site_type_symbol
  _atom_site_fract_x
  _atom_site_fract_y
  _atom_site_fract_z
Si1 Si 0.76604 0.61251 0.99796
 Si2 Si 0.74593 0.37105 0.51295
 Si3 Si 0.24501 -0.12588 0.01296
 Si4 Si 0.26521 0.11520 0.49522
 Si5 Si 0.11621 0.49123 0.26808
 Si6 Si -0.13105 0.00690 0.25181
 Si7 Si 0.36930 0.50963 0.75154
 Si8 Si 0.61291 0.99318 0.76829
 Si9 Si 0.01063 0.25083 -0.13094
 Si10 Si 0.49922 0.26657 0.10526
 Si11 Si 0.99794 0.76703 0.60626
 Si12 Si 0.51043 0.75031 0.37025
 C13 C 0.43400 -0.02359 0.26299
 H14 H 0.43576 -0.00365 0.27242
 C15 C 0.44951 -0.04717 0.27295
 H16 H 0.46336 -0.04505 0.28991
 C17 C 0.41247 -0.05084 0.23064
 H18 H 0.39747 -0.05252 0.21472
 C19 C 0.42747 -0.07485 0.23994
 H20 H 0.42396 -0.09455 0.23067
 N21 N 0.41565 -0.02590 0.24243
 C22 C 0.39153 0.05507 0.20382
 H23 H 0.36956 0.05150 0.20336
 C24 C 0.40148 0.07991 0.19245
 H25 H 0.38692 0.09513 0.18307
 C26 C 0.43671 0.03951 0.21737
 H27 H 0.45023 0.02373 0.22731
 C28 C 0.44762 0.06432 0.20627
 H29 H 0.46964 0.06736 0.20767
 Zn30 Zn 0.39081 0.00470 0.23286
 N31 N 0.40900 0.03563 0.21628
 C32 C 0.37413 0.04355 0.27281
 N33 N 0.37183 0.01655 0.26585
 C34 C 0.35813 -0.00179 0.28303
 C35 C 0.34603 0.00697 0.30831
 C36 C 0.36232 0.05315 0.29759
 C37 C 0.37768 -0.00942 0.18020
 C38 C 0.36179 -0.01740 0.15853
 C39 C 0.32212 -0.01947 0.19048
 C40 C 0.33881 -0.01103 0.21160
 N41 N 0.36614 -0.00654 0.20613
 H42 H 0.38564 0.05776 0.25947
 H43 H 0.35703 -0.02331 0.27732
 H44 H 0.33538 -0.00791 0.32183
 H45 H 0.36473 0.07474 0.30252
 H46 H 0.39945 -0.00558 0.17644
 H47 H 0.37164 -0.01981 0.13817
 H48 H 0.30049 -0.02332 0.19518
 H49 H 0.32999 -0.00831 0.23230
 C50 C 0.42980 0.08505 0.19386
 C51 C 0.44586 -0.07339 0.26179
 C52 C 0.33366 -0.02278 0.16352
 C53 C 0.34817 0.03482 0.31588
 C54 C 0.09329 1.02187 0.77899
 H55 H 0.08843 1.00161 0.78808
 C56 C 0.08003 1.04617 0.78930
 H57 H 0.06479 1.04434 0.80623
 C58 C 0.12002 1.04890 0.74678
 H59 H 0.13617 1.05005 0.73075
 C60 C 0.10747 1.07361 0.75655
 H61 H 0.11386 1.09341 0.74745
 N62 N 0.11289 1.02366 0.75809
 C63 C 0.12652 0.94112 0.72389
 H64 H 0.14897 0.94104 0.72392
 C65 C 0.11362 0.91891 0.71291
 H66 H 0.12648 0.90184 0.70461
 C67 C 0.08295 0.96400 0.73450
 H68 H 0.07121 0.98186 0.74260
 C69 C 0.06905 0.94200 0.72363
 H70 H 0.04656 0.94309 0.72356
 Zn71 Zn 0.13364 0.99118 0.74670
 N72 N 0.11123 0.96303 0.73445
 C73 C 0.14615 0.95177 0.78922
 N74 N 0.15409 0.97649 0.77742
 C75 C 0.17388 0.99125 0.78901
 C76 C 0.18645 0.98112 0.81353
 C77 C 0.15795 0.94105 0.81360
 C78 C 0.14095 1.00807 0.69264
 C79 C 0.15392 1.01535 0.66739
 C80 C 0.19843 1.00716 0.68875
 C81 C 0.18445 0.99981 0.71382
 N82 N 0.15617 1.00075 0.71526
 H83 H 0.12981 0.94069 0.78039
 H84 H 0.17938 1.01121 0.77963
 H85 H 0.20178 0.99332 0.82281
 H86 H 0.15084 0.92152 0.82267
 H87 H 0.11850 1.00835 0.69437
 H88 H 0.14111 1.02132 0.64988
 H89 H 0.22092 1.00666 0.68790
 H90 H 0.19613 0.99344 0.73197
 C91 C 0.08451 0.91912 0.71249
 C92 C 0.08739 1.07253 0.77829
 C93 C 0.18303 1.01517 0.66514
 C94 C 0.17811 0.95587 0.82635
 C95 C 0.59277 0.52034 0.28184
 H96 H 0.58828 0.50010 0.29122
 C97 C 0.57953 0.54464 0.29221
 H98 H 0.56466 0.54283 0.30946
 C99 C 0.61861 0.54735 0.24886
 H100 H 0.63442 0.54855 0.23250
 C101 C 0.60608 0.57205 0.25865
 H102 H 0.61213 0.59183 0.24923
 N103 N 0.61196 0.52213 0.26055
 C104 C 0.62645 0.44060 0.22430
 H105 H 0.64888 0.44117 0.22346
 C106 C 0.61375 0.41853 0.21287
 H107 H 0.62674 0.40224 0.20336
 C108 C 0.58275 0.46172 0.23749
 H109 H 0.57086 0.47886 0.24678
 C110 C 0.56903 0.43982 0.22620
 H111 H 0.54654 0.44024 0.22701
 Zn112 Zn 0.63304 0.48990 0.24897
 N113 N 0.61101 0.46154 0.23642
 C114 C 0.65026 0.44863 0.28869
 N115 N 0.65409 0.47538 0.27935
 C116 C 0.67090 0.49209 0.29276
 C117 C 0.68446 0.48199 0.31672
 C118 C 0.66365 0.43763 0.31213
 C119 C 0.64080 0.50659 0.19466
 C120 C 0.65423 0.51361 0.16956
 C121 C 0.69827 0.50684 0.19211
 C122 C 0.68385 0.49968 0.21697
 N123 N 0.65560 0.49996 0.21772
 H124 H 0.63623 0.43584 0.27846
 H125 H 0.67324 0.51344 0.28521
 H126 H 0.69744 0.49565 0.32740
 H127 H 0.65987 0.41638 0.31922
 H128 H 0.61835 0.50637 0.19587
 H129 H 0.64177 0.51897 0.15164
 H130 H 0.72074 0.50679 0.19178
 H131 H 0.69517 0.49394 0.23552
 C132 C 0.58465 0.41789 0.21356
 C133 C 0.58648 0.57098 0.28082
 C134 C 0.68334 0.51394 0.16798
 C135 C 0.68078 0.45440 0.32672
 C136 C 0.93171 0.47706 0.76340
 H137 H 0.93323 0.49696 0.77295
 C138 C 0.94735 0.45355 0.77335
 H139 H 0.96105 0.45570 0.79042
 C140 C 0.91070 0.44977 0.73072
 H141 H 0.89585 0.44805 0.71466
 C142 C 0.92583 0.42584 0.74001
 H143 H 0.92257 0.40616 0.73059
 N144 N 0.91356 0.47469 0.74267
 C145 C 0.88941 0.55563 0.70395
 H146 H 0.86748 0.55199 0.70320
 C147 C 0.89943 0.58052 0.69274
 H148 H 0.88495 0.59571 0.68318
 C149 C 0.93444 0.54018 0.71806
 H150 H 0.94788 0.52443 0.72814
 C151 C 0.94541 0.56503 0.70712
 H152 H 0.96739 0.56811 0.70880
 Zn153 Zn 0.88860 0.50516 0.73297
 N154 N 0.90677 0.53623 0.71663
 C155 C 0.87107 0.54389 0.77280
 N156 N 0.86932 0.51680 0.76590
 C157 C 0.85611 0.49818 0.78317
 C158 C 0.84409 0.50669 0.80858
 C159 C 0.85929 0.55326 0.79769
 C160 C 0.87602 0.49105 0.68016
 C161 C 0.86046 0.48270 0.65840
 C162 C 0.82064 0.47999 0.69008
 C163 C 0.83700 0.48879 0.71131
 N164 N 0.86425 0.49376 0.70601
 H165 H 0.88216 0.55835 0.75936
 H166 H 0.85543 0.47661 0.77749
 H167 H 0.83392 0.49157 0.82222
 H168 H 0.86132 0.57491 0.80261
 H169 H 0.89772 0.49525 0.67655
 H170 H 0.87052 0.48041 0.63812
 H171 H 0.79908 0.47572 0.69465
 H172 H 0.82801 0.49134 0.73197
 C173 C 0.92770 0.58572 0.69451
 C174 C 0.94404 0.42735 0.76200
 C175 C 0.83244 0.47677 0.66320
 C176 C 0.84577 0.53460 0.81616
 C177 C 0.25948 0.43485 -0.02764
 H178 H 0.26857 0.43732 -0.00769
 C179 C 0.26840 0.45082 -0.05089
 H180 H 0.28425 0.46572 -0.04851
 C181 C 0.22910 0.41106 -0.05518
 H182 H 0.21448 0.39492 -0.05703
 C183 C 0.23746 0.42649 -0.07893
 H184 H 0.22876 0.42220 -0.09868
 N185 N 0.24048 0.41514 -0.03027
 C186 C 0.21299 0.39011 0.05373
 H187 H 0.21655 0.36781 0.05155
 C188 C 0.20352 0.40035 0.07913
 H189 H 0.19959 0.38570 0.09636
 C190 C 0.21413 0.43606 0.03365
 H191 H 0.21847 0.44979 0.01583
 C192 C 0.20423 0.44728 0.05875
 H193 H 0.20105 0.46972 0.06011
 Zn194 Zn 0.23351 0.38987 0.00009
 N195 N 0.21864 0.40792 0.03184
 C196 C 0.27957 0.37977 0.03322
 N197 N 0.26814 0.37184 0.00948
 C198 C 0.28232 0.35399 -0.00783
 C199 C 0.30868 0.34262 -0.00090
 C200 C 0.30583 0.36934 0.04067
 C201 C 0.18071 0.37739 -0.01244
 C202 C 0.15864 0.36209 -0.02023
 C203 C 0.18971 0.32099 -0.02190
 C204 C 0.21126 0.33711 -0.01363
 N205 N 0.20647 0.36493 -0.00966
 H206 H 0.26875 0.39491 0.04616
 H207 H 0.27338 0.34888 -0.02719
 H208 H 0.31971 0.32841 -0.01481
 H209 H 0.31435 0.37610 0.05968
 H210 H 0.17746 0.39950 -0.00894
 H211 H 0.13848 0.37274 -0.02277
 H212 H 0.19391 0.29900 -0.02554
 H213 H 0.23172 0.32744 -0.01073
 C214 C 0.19924 0.42928 0.08200
 C215 C 0.25787 0.44621 -0.07713
 C216 C 0.16301 0.33358 -0.02548
 C217 C 0.32077 0.35050 0.02360
 C218 C 0.78709 0.09012 1.02049
 H219 H 0.79675 0.08498 1.00062
 C220 C 0.79689 0.07695 1.04500
 H221 H 0.81405 0.06155 1.04374
 C222 C 0.75370 0.11724 1.04631
 H223 H 0.73733 0.13345 1.04692
 C224 C 0.76293 0.10482 1.07121
 H225 H 0.75313 0.11138 1.09059
 N226 N 0.76580 0.10981 1.02158
 C227 C 0.73306 0.12032 0.93826
 H228 H 0.73286 0.14293 0.93699
 C229 C 0.72308 0.10591 0.91647
 H230 H 0.71520 0.11770 0.89850
 C231 C 0.74293 0.07787 0.96383
 H232 H 0.75033 0.06717 0.98254
 C233 C 0.73255 0.06253 0.94258
 H234 H 0.73232 0.03997 0.94497
 Zn235 Zn 0.75441 0.12987 0.98885
 N236 N 0.74312 0.10626 0.96114
 C237 C 0.79512 0.14571 0.94889
 N238 N 0.78445 0.15096 0.97477
 C239 C 0.79606 0.16962 0.99096
 C240 C 0.81923 0.18404 0.98105
 C241 C 0.81777 0.15992 0.93806
 C242 C 0.69987 0.13753 1.00427
 C243 C 0.67451 0.15093 1.01114
 C244 C 0.69571 0.19542 1.00363
 C245 C 0.72088 0.18101 0.99669
 N246 N 0.72245 0.15255 0.99751
 H247 H 0.78653 0.13006 0.93667
 H248 H 0.78755 0.17302 1.01169
 H249 H 0.82836 0.19871 0.99418
 H250 H 0.82588 0.15518 0.91744
 H251 H 0.70173 0.11492 1.00451
 H252 H 0.65701 0.13829 1.01672
 H253 H 0.69477 0.21805 1.00329
 H254 H 0.73906 0.19251 0.99086
 C255 C 0.72259 0.07665 0.91846
 C256 C 0.78494 0.08452 1.07084
 C257 C 0.67214 0.18026 1.01114
 C258 C 0.83024 0.17928 0.95417
 C259 C 0.28646 0.59225 0.52051
 H260 H 0.29622 0.58727 0.50064
 C261 C 0.29650 0.57932 0.54501
 H262 H 0.31394 0.56424 0.54376
 C263 C 0.25255 0.61878 0.54630
 H264 H 0.23587 0.63467 0.54688
 C265 C 0.26203 0.60659 0.57121
 H266 H 0.25211 0.61299 0.59060
 N267 N 0.26480 0.61152 0.52159
 C268 C 0.23201 0.62062 0.43825
 H269 H 0.23128 0.64325 0.43675
 C270 C 0.22266 0.60569 0.41652
 H271 H 0.21469 0.61707 0.39836
 C272 C 0.24271 0.57866 0.46431
 H273 H 0.25023 0.56833 0.48316
 C274 C 0.23296 0.56279 0.44314
 H275 H 0.23331 0.54022 0.44573
 Zn276 Zn 0.25311 0.63117 0.48877
 N277 N 0.24225 0.60705 0.46132
 C278 C 0.29356 0.64738 0.44865
 N279 N 0.28290 0.65253 0.47455
 C280 C 0.29446 0.67120 0.49077
 C281 C 0.31761 0.68565 0.48091
 C282 C 0.31619 0.66163 0.43786
 C283 C 0.19846 0.63838 0.50417
 C284 C 0.17304 0.65163 0.51113
 C285 C 0.19392 0.69625 0.50344
 C286 C 0.21915 0.68200 0.49642
 N287 N 0.22091 0.65355 0.49731
 H288 H 0.28502 0.63173 0.43639
 H289 H 0.28596 0.67451 0.51153
 H290 H 0.32674 0.70027 0.49410
 H291 H 0.32433 0.65693 0.41724
 H292 H 0.20047 0.61577 0.50445
 H293 H 0.15565 0.63888 0.51682
 H294 H 0.19285 0.71889 0.50308
 H295 H 0.23723 0.69361 0.49053
 C296 C 0.22297 0.57640 0.41879
 C297 C 0.28440 0.58671 0.57084
 C298 C 0.17049 0.68094 0.51111
 C299 C 0.32867 0.68093 0.45404
 C300 C 0.75819 0.93523 0.47336
 H301 H 0.76723 0.93796 0.49328
 C302 C 0.76726 0.95082 0.44991
 H303 H 0.78316 0.96570 0.45211
 C304 C 0.72782 0.91112 0.44609
 H305 H 0.71317 0.89498 0.44443
 C306 C 0.73634 0.92615 0.42215
 H307 H 0.72770 0.92158 0.40245
 N308 N 0.73913 0.91553 0.47097
 C309 C 0.71164 0.89124 0.55522
 H310 H 0.71525 0.86893 0.55322
 C311 C 0.70209 0.90168 0.58051
 H312 H 0.69816 0.88715 0.59784
 C313 C 0.71271 0.93705 0.53477
 H314 H 0.71705 0.95064 0.51684
 C315 C 0.70271 0.94845 0.55975
 H316 H 0.69945 0.97091 0.56092
 Zn317 Zn 0.73214 0.89056 0.50158
 N318 N 0.71729 0.90889 0.53319
 C319 C 0.77823 0.88049 0.53476
 N320 N 0.76676 0.87258 0.51103
 C321 C 0.78091 0.85473 0.49369
 C322 C 0.80728 0.84336 0.50058
 C323 C 0.80450 0.87005 0.54216
 C324 C 0.67934 0.87788 0.48916
 C325 C 0.65732 0.86246 0.48142
 C326 C 0.68850 0.82142 0.48007
 C327 C 0.70998 0.83766 0.48828
 N328 N 0.70512 0.86551 0.49205
 H329 H 0.76742 0.89562 0.54772
 H330 H 0.77195 0.84963 0.47435
 H331 H 0.81829 0.82916 0.48664
 H332 H 0.81306 0.87679 0.56116
 H333 H 0.67603 0.90001 0.49251
 H334 H 0.63716 0.87304 0.47877
 H335 H 0.69277 0.79942 0.47657
 H336 H 0.73046 0.82806 0.49127
 C337 C 0.69771 0.93063 0.58313
 C338 C 0.75683 0.94582 0.42372
 C339 C 0.66179 0.83392 0.47634
 C340 C 0.81942 0.85122 0.52506
 C341 C -0.03091 0.26428 0.43486
 H342 H -0.01148 0.27449 0.43594
 C343 C -0.05400 0.27370 0.45090
 H344 H -0.05188 0.29085 0.46453
 C345 C -0.05779 0.23107 0.41424
 H346 H -0.05955 0.21498 0.39943
 C347 C -0.08132 0.23986 0.42979
 H348 H -0.10073 0.23007 0.42685
 N349 N -0.03328 0.24361 0.41660
 C350 C 0.04735 0.20536 0.39230
 H351 H 0.04179 0.20076 0.37147
 C352 C 0.07313 0.19578 0.40192
 H353 H 0.08707 0.18397 0.38817
 C354 C 0.03562 0.22601 0.43526
 H355 H 0.02098 0.23784 0.44817
 C356 C 0.06137 0.21668 0.44584
 H357 H 0.06623 0.22150 0.46686
 Zn358 Zn -0.00361 0.23423 0.39093
 N359 N 0.02932 0.22058 0.40870
 C360 C 0.02803 0.26434 0.35115
 N361 N 0.00521 0.26633 0.36847
 C362 C -0.00959 0.29109 0.37112
 C363 C -0.00056 0.31540 0.35733
 C364 C 0.03787 0.28807 0.33715
 C365 C -0.01589 0.17959 0.38094
 C366 C -0.02396 0.15716 0.36606
 C367 C -0.02940 0.18838 0.32570
 C368 C -0.02096 0.21026 0.34136
 N369 N -0.01464 0.20549 0.36851
 H370 H 0.03921 0.24446 0.34881
 H371 H -0.02802 0.29224 0.38448
 H372 H -0.01208 0.33506 0.36047
 H373 H 0.05661 0.28605 0.32420
 H374 H -0.01071 0.17645 0.40257
 H375 H -0.02503 0.13681 0.37655
 H376 H -0.03468 0.19258 0.30420
 H377 H -0.01979 0.23107 0.33197
 C378 C 0.08066 0.20165 0.42890
 C379 C -0.07982 0.26188 0.44797
 C380 C -0.03106 0.16141 0.33810
 C381 C 0.02395 0.31419 0.34071
 C382 C 1.02089 0.78300 0.09920
 H383 H 1.00095 0.79440 0.09874
 C384 C 1.04416 0.79436 0.08578
 H385 H 1.04183 0.81443 0.07473
 C386 C 1.04833 0.74364 0.11536
 H387 H 1.05012 0.72426 0.12755
 C388 C 1.07203 0.75406 0.10202
 H389 H 1.09171 0.74235 0.10400
 N390 N 1.02345 0.75827 0.11398
 C391 C 0.94418 0.72006 0.12983
 H392 H 0.94579 0.71747 0.15216
 C393 C 0.92183 0.70946 0.11686
 H394 H 0.90642 0.69871 0.12954
 C395 C 0.96275 0.73718 0.08661
 H396 H 0.97891 0.74790 0.07502
 C397 C 0.94056 0.72681 0.07266
 H398 H 0.93982 0.72967 0.05027
 Zn399 Zn 0.99282 0.74621 0.13622
 N400 N 0.96396 0.73377 0.11475
 C401 C 0.95132 0.78438 0.15594
 N402 N 0.97874 0.77654 0.15757
 C403 C 0.99607 0.79114 0.17267
 C404 C 0.98588 0.81473 0.18680
 C405 C 0.94026 0.80740 0.16996
 C406 C 1.00790 0.69060 0.14594
 C407 C 1.01513 0.66593 0.16076
 C408 C 1.01540 0.69211 0.20264
 C409 C 1.00765 0.71636 0.18699
 N410 N 1.00431 0.71513 0.15912
 H411 H 0.93789 0.77318 0.14333
 H412 H 1.01791 0.78479 0.17327
 H413 H 0.99997 0.82634 0.19844
 H414 H 0.91840 0.81324 0.16800
 H415 H 1.00495 0.69023 0.12379
 H416 H 1.01796 0.64669 0.14972
 H417 H 1.01820 0.69336 0.22477
 H418 H 1.00435 0.73605 0.19709
 C419 C 0.91971 0.71273 0.08789
 C420 C 1.07028 0.78004 0.08748
 C421 C 1.01908 0.66646 0.18947
 C422 C 0.95758 0.82311 0.18546
 C423 C 0.51932 0.28452 0.59841
 H424 H 0.49943 0.29598 0.59771
 C425 C 0.54268 0.29556 0.58481
 H426 H 0.54045 0.31544 0.57340
 C427 C 0.54656 0.24531 0.61525
 H428 H 0.54824 0.22612 0.62775
 C429 C 0.57033 0.25541 0.60178
 H430 H 0.58994 0.24362 0.60397
 N431 N 0.52174 0.26000 0.61357
 C432 C 0.44214 0.22244 0.62912
 H433 H 0.44358 0.21990 0.65147
 C434 C 0.41987 0.21187 0.61601
 H435 H 0.40432 0.20120 0.62859
 C436 C 0.46110 0.23936 0.58599
 H437 H 0.47740 0.24995 0.57449
 C438 C 0.43898 0.22904 0.57190
 H439 H 0.43845 0.23179 0.54949
 Zn440 Zn 0.49097 0.24817 0.63573
 N441 N 0.46209 0.23601 0.61415
 C442 C 0.44978 0.28666 0.65543
 N443 N 0.47713 0.27856 0.65709
 C444 C 0.49460 0.29295 0.67223
 C445 C 0.48463 0.31661 0.68637
 C446 C 0.43893 0.30977 0.66946
 C447 C 0.50576 0.19246 0.64535
 C448 C 0.51266 0.16769 0.66015
 C449 C 0.51244 0.19366 0.70220
 C450 C 0.50506 0.21801 0.68656
 N451 N 0.50211 0.21694 0.65862
 H452 H 0.43625 0.27561 0.64279
 H453 H 0.51638 0.28638 0.67286
 H454 H 0.49883 0.32805 0.69805
 H455 H 0.41712 0.31582 0.66748
 H456 H 0.50309 0.19221 0.62314
 H457 H 0.51556 0.14850 0.64904
 H458 H 0.51492 0.19479 0.72439
 H459 H 0.50169 0.23766 0.69671
 C460 C 0.41800 0.21502 0.58701
 C461 C 0.56872 0.28113 0.58675
 C462 C 0.51619 0.16806 0.68894
 C463 C 0.45640 0.32528 0.68500
 C464 C 0.47014 0.76620 0.93585
 H465 H 0.48995 0.77561 0.93737
 C466 C 0.44677 0.77702 0.95065
 H467 H 0.44895 0.79457 0.96376
 C468 C 0.44289 0.73309 0.91555
 H469 H 0.44110 0.71651 0.90129
 C470 C 0.41911 0.74324 0.92985
 H471 H 0.39952 0.73393 0.92657
 N472 N 0.46774 0.74480 0.91846
 C473 C 0.54682 0.70184 0.89704
 H474 H 0.54199 0.69895 0.87560
 C475 C 0.57205 0.69116 0.90706
 H476 H 0.58612 0.67967 0.89317
 C477 C 0.53455 0.72143 0.94044
 H478 H 0.52002 0.73367 0.95314
 C479 C 0.55981 0.71104 0.95141
 H480 H 0.56442 0.71525 0.97265
 Zn481 Zn 0.49796 0.73358 0.89440
 N482 N 0.52883 0.71702 0.91351
 C483 C 0.53760 0.77065 0.87384
 N484 N 0.51009 0.76557 0.87375
 C485 C 0.49170 0.78371 0.86069
 C486 C 0.50088 0.80821 0.84716
 C487 C 0.54764 0.79449 0.86041
 C488 C 0.48288 0.68049 0.88319
 C489 C 0.47467 0.65845 0.86790
 C490 C 0.47318 0.68950 0.82709
 C491 C 0.48180 0.71100 0.84320
 N492 N 0.48617 0.70614 0.87078
 H493 H 0.55196 0.75646 0.88467
 H494 H 0.46986 0.77942 0.86121
 H495 H 0.48599 0.82259 0.83710
 H496 H 0.56963 0.79798 0.86110
 H497 H 0.48664 0.67722 0.90514
 H498 H 0.47201 0.63831 0.87841
 H499 H 0.46950 0.69370 0.80523
 H500 H 0.48481 0.73151 0.83373
 C501 C 0.57916 0.69609 0.93441
 C502 C 0.42068 0.76586 0.94728
 C503 C 0.46952 0.66279 0.83949
 C504 C 0.52925 0.81383 0.84701
 C505 C 0.49022 -0.17286 0.31452
 N506 N 0.50847 -0.17176 0.33528
 N507 N 0.51529 -0.19460 0.35074
 C508 C 0.50409 -0.21935 0.34605
 N509 N 0.48612 -0.22060 0.32509
 N510 N 0.47936 -0.19777 0.30955
 C511 C 0.48069 -0.14716 0.29923
 N512 N 0.46247 -0.14826 0.27846
 N513 N 0.45209 -0.12484 0.26609
 C514 C 0.45938 -0.09935 0.27403
 N515 N 0.47788 -0.09831 0.29462
 N516 N 0.48835 -0.12175 0.30695
 C517 C 0.98931 0.32796 0.81414
 N518 N 1.00764 0.32908 0.83483
 N519 N 1.01477 0.30618 0.85006
 C520 C 1.00381 0.28135 0.84521
 N521 N 0.98576 0.28009 0.82433
 N522 N 0.97869 0.30299 0.80901
 C523 C 0.97949 0.35369 0.79906
 N524 N 0.96131 0.35254 0.77827
 N525 N 0.95071 0.37593 0.76604
 C526 C 0.95775 0.40145 0.77414
 N527 N 0.97621 0.40254 0.79476
 N528 N 0.98689 0.37912 0.80695
 C529 C 0.04326 1.17252 0.82549
 N530 N 0.02030 1.17210 0.84256
 N531 N 0.01069 1.19520 0.85484
 C532 C 0.02367 1.21955 0.85057
 N533 N 0.04661 1.22009 0.83349
 N534 N 0.05620 1.19697 0.82110
 C535 C 0.05420 1.14673 0.81264
 N536 N 0.07599 1.14726 0.79409
 N537 N 0.08625 1.12374 0.78297
 C538 C 0.07522 1.09875 0.79001
 N539 N 0.05336 1.09830 0.80856
 N540 N 0.04302 1.12183 0.81960
 C541 C 0.54288 0.67135 0.32769
 N542 N 0.51996 0.67117 0.34482
 N543 N 0.51041 0.69445 0.35682
 C544 C 0.52344 0.71873 0.35223
 N545 N 0.54636 0.71903 0.33511
 N546 N 0.55587 0.69573 0.32298
 C547 C 0.55370 0.64542 0.31502
 N548 N 0.57526 0.64582 0.29620
 N549 N 0.58538 0.62222 0.28516
 C550 C 0.57445 0.59726 0.29255
 N551 N 0.55283 0.59693 0.31138
 N552 N 0.54262 0.62055 0.32235
 C553 C 0.53564 0.33080 0.15906
 N554 N 0.55226 0.31434 0.14253
 N555 N 0.54154 0.29517 0.12736
 C556 C 0.51382 0.29162 0.12826
 N557 N 0.49713 0.30777 0.14505
 N558 N 0.50785 0.32710 0.16017
 C559 C 0.54783 0.35282 0.17443
 N560 N 0.53172 0.37196 0.18852
 N561 N 0.54325 0.39257 0.20124
 C562 C 0.57131 0.39475 0.20034
 N563 N 0.58724 0.37542 0.18638
 N564 N 0.57577 0.35494 0.17367
 C565 C 0.03485 0.83151 0.65941
 N566 N 0.05139 0.81453 0.64333
 N567 N 0.04052 0.79526 0.62839
 C568 C 0.01273 0.79211 0.62912
 N569 N -0.00387 0.80877 0.64548
 N570 N 0.00699 0.82821 0.66035
 C571 C 0.04720 0.85368 0.67445
 N572 N 0.03119 0.87349 0.68773
 N573 N 0.04288 0.89422 0.70010
 C574 C 0.07099 0.89587 0.69966
 N575 N 0.08682 0.87587 0.68651
 N576 N 0.07520 0.85527 0.67414
 C577 C 0.96613 0.68932 0.65167
 N578 N 0.99302 0.69601 0.65370
 N579 N 1.00207 0.71942 0.64138
 C580 C 0.98453 0.73693 0.62666
 N581 N 0.95761 0.73046 0.62492
 N582 N 0.94855 0.70711 0.63727
 C583 C 0.95634 0.66272 0.66358
 N584 N 0.92947 0.65637 0.66101
 N585 N 0.92055 0.63195 0.67084
 C586 C 0.93810 0.61278 0.68356
 N587 N 0.96504 0.61918 0.68618
 N588 N 0.97400 0.64368 0.67634
 C589 C 0.46782 0.18865 0.15062
 N590 N 0.45015 0.20636 0.13624
 N591 N 0.45908 0.22976 0.12388
 C592 C 0.48597 0.23636 0.12560
 N593 N 0.50360 0.21893 0.14029
 N594 N 0.49468 0.19547 0.15261
 C595 C 0.45816 0.16203 0.16259
 N596 N 0.47593 0.14305 0.17529
 N597 N 0.46706 0.11855 0.18523
 C598 C 0.44012 0.11208 0.18276
 N599 N 0.42247 0.13118 0.17008
 N600 N 0.43130 0.15560 0.16015
 C601 C 0.31112 0.49045 -0.17455
 N602 N 0.33121 0.50911 -0.17268
 N603 N 0.34742 0.51557 -0.19470
 C604 C 0.34418 0.50359 -0.21936
 N605 N 0.32386 0.48524 -0.22142
 N606 N 0.30758 0.47881 -0.19939
 C607 C 0.29526 0.48116 -0.14955
 N608 N 0.27563 0.46200 -0.15119
 N609 N 0.26309 0.45165 -0.12823
 C610 C 0.26974 0.45994 -0.10270
 N611 N 0.28911 0.47944 -0.10116
 N612 N 0.30160 0.48987 -0.12413
 C613 C 0.81070 0.98836 0.32587
 N614 N 0.83074 1.00711 0.32753
 N615 N 0.84700 1.01332 0.30547
 C616 C 0.84385 1.00100 0.28097
 N617 N 0.82359 0.98255 0.27911
 N618 N 0.80727 0.97636 0.30118
 C619 C 0.79473 0.97945 0.35093
 N620 N 0.77508 0.96028 0.34952
 N621 N 0.76239 0.95034 0.37258
 C622 C 0.76889 0.95908 0.39798
 N623 N 0.78829 0.97859 0.39929
 N624 N 0.80093 0.98860 0.37622
 C625 C 0.82845 0.03969 1.17203
 N626 N 0.82301 0.05288 1.19624
 N627 N 0.83448 0.04319 1.21977
 C628 C 0.85165 0.01989 1.21989
 N629 N 0.85697 0.00663 1.19578
 N630 N 0.84561 0.01636 1.17227
 C631 C 0.81662 0.05082 1.14588
 N632 N 0.82463 0.03948 1.12129
 N633 N 0.81447 0.05002 1.09747
 C634 C 0.79582 0.07223 1.09730
 N635 N 0.78774 0.08342 1.12197
 N636 N 0.79797 0.07297 1.14578
 C637 C 0.32864 0.54248 0.67190
 N638 N 0.32320 0.55564 0.69612
 N639 N 0.33476 0.54596 0.71962
 C640 C 0.35202 0.52272 0.71967
 N641 N 0.35733 0.50951 0.69554
 N642 N 0.34588 0.51922 0.67207
 C643 C 0.31666 0.55351 0.64579
 N644 N 0.32468 0.54219 0.62121
 N645 N 0.31435 0.55259 0.59741
 C646 C 0.29550 0.57463 0.59728
 N647 N 0.28741 0.58581 0.62195
 N648 N 0.29782 0.57550 0.64573
 C649 C 0.17291 0.52176 0.33285
 N650 N 0.15823 0.49858 0.33840
 N651 N 0.14233 0.48891 0.31913
 C652 C 0.14065 0.50206 0.29371
 N653 N 0.15564 0.52489 0.28801
 N654 N 0.17145 0.53459 0.30724
 C655 C 0.18812 0.53440 0.35468
 N656 N 0.19847 0.56001 0.34989
 N657 N 0.21012 0.57293 0.37015
 C658 C 0.21203 0.56074 0.39601
 N659 N 0.20215 0.53481 0.40070
 N660 N 0.19031 0.52192 0.38042
 C661 C 0.66974 0.02402 0.83289
 N662 N 0.65540 0.00061 0.83834
 N663 N 0.63933 -0.00898 0.81918
 C664 C 0.63711 0.00449 0.79395
 N665 N 0.65170 0.02762 0.78837
 N666 N 0.66769 0.03724 0.80751
 C667 C 0.68546 0.03627 0.85460
 N668 N 0.69584 0.06190 0.85000
 N669 N 0.70820 0.07430 0.87016
 C670 C 0.71079 0.06158 0.89572
 N671 N 0.70084 0.03566 0.90020
 N672 N 0.68831 0.02327 0.88002
 C673 C 0.65700 0.96987 0.68684
 N674 N 0.64017 0.99338 0.68813
 N675 N 0.62787 1.00061 0.71215
 C676 C 0.63207 0.98468 0.73571
 N677 N 0.64919 0.96141 0.73455
 N678 N 0.66139 0.95410 0.71051
 C679 C 0.66885 0.96060 0.66008
 N680 N 0.68138 0.93473 0.65831
 N681 N 0.69074 0.92547 0.63389
 C682 C 0.68807 0.94169 0.61024
 N683 N 0.67583 0.96776 0.61206
 N684 N 0.66629 0.97699 0.63652
 C685 C 0.15942 0.46795 0.18621
 N686 N 0.14288 0.49164 0.18776
 N687 N 0.13082 0.49882 0.21191
 C688 C 0.13500 0.48267 0.23533
 N689 N 0.15184 0.45923 0.23391
 N690 N 0.16379 0.45196 0.20975
 C691 C 0.17102 0.45878 0.15932
 N692 N 0.18328 0.43283 0.15728
 N693 N 0.19242 0.42370 0.13274
 C694 C 0.18979 0.44015 0.10924
 N695 N 0.17781 0.46630 0.11133
 N696 N 0.16848 0.47540 0.13591
 C697 C -0.17813 0.31409 0.49342
 N698 N -0.17673 0.33493 0.51154
 N699 N -0.19932 0.35068 0.51826
 C700 C -0.22412 0.34620 0.50710
 N701 N -0.22568 0.32513 0.48929
 N702 N -0.20309 0.30930 0.48263
 C703 C -0.15269 0.29871 0.48377
 N704 N -0.15401 0.27797 0.46556
 N705 N -0.13085 0.26571 0.45490
 C706 C -0.10542 0.27376 0.46192
 N707 N -0.10416 0.29429 0.48045
 N708 N -0.12733 0.30650 0.49119
 C709 C 0.32201 0.81964 0.99053
 N710 N 0.32323 0.84023 1.00894
 N711 N 0.30042 0.85538 1.01622
 C712 C 0.27558 0.85056 1.00535
 N713 N 0.27421 0.82982 0.98714
 N714 N 0.29703 0.81457 0.97991
 C715 C 0.34755 0.80439 0.98091
 N716 N 0.34635 0.78340 0.96296
 N717 N 0.36957 0.77079 0.95287
 C718 C 0.39496 0.77868 0.96020
 N719 N 0.39610 0.79955 0.97837
 N720 N 0.37286 0.81213 0.98856
 C721 C 1.16834 0.83044 0.04664
 N722 N 1.16785 0.85855 0.04184
 N723 N 1.19060 0.87105 0.03260
 C724 C 1.21469 0.85595 0.02778
 N725 N 1.21536 0.82783 0.03264
 N726 N 1.19256 0.81528 0.04204
 C727 C 1.14290 0.81694 0.05651
 N728 N 1.14343 0.78942 0.06446
 N729 N 1.12031 0.77760 0.07391
 C730 C 1.09572 0.79276 0.07561
 N731 N 1.09525 0.82023 0.06740
 N732 N 1.11836 0.83208 0.05807
 C733 C 0.66734 0.32968 0.54479
 N734 N 0.66710 0.35747 0.53807
 N735 N 0.69029 0.36940 0.52912
 C736 C 0.71454 0.35400 0.52655
 N737 N 0.71490 0.32621 0.53323
 N738 N 0.69169 0.31426 0.54230
 C739 C 0.64166 0.31672 0.55480
 N740 N 0.64208 0.28960 0.56413
 N741 N 0.61885 0.27820 0.57387
 C742 C 0.59426 0.29339 0.57453
 N743 N 0.59388 0.32047 0.56494
 N744 N 0.61711 0.33191 0.55530
 C745 C 0.32960 0.16573 0.53522
 N746 N 0.31330 0.14848 0.55085
 N747 N 0.29398 0.13435 0.53915
 C748 C 0.29012 0.13707 0.51142
 N749 N 0.30612 0.15458 0.49574
 N750 N 0.32558 0.16867 0.50744
 C751 C 0.35192 0.17978 0.54830
 N752 N 0.37058 0.19476 0.53295
 N753 N 0.39149 0.20623 0.54513
 C754 C 0.39452 0.20312 0.57309
 N755 N 0.37567 0.18828 0.58830
 N756 N 0.35486 0.17681 0.57617
 C757 C 0.83064 0.66366 0.03693
 N758 N 0.82692 0.66577 0.00906
 N759 N 0.80737 0.65156 -0.00235
 C760 C 0.79097 0.63475 0.01371
 N761 N 0.79451 0.63290 0.04152
 N762 N 0.81393 0.64714 0.05293
 C763 C 0.85312 0.67772 0.04976
 N764 N 0.85593 0.67530 0.07768
 N765 N 0.87691 0.68669 0.08960
 C766 C 0.89604 0.70092 0.07416
 N767 N 0.89313 0.70351 0.04615
 N768 N 0.87206 0.69210 0.03417
 C769 C 0.68567 0.65720 0.97011
 N770 N 0.70350 0.64470 0.95148
 N771 N 0.72760 0.63277 0.95951
 C772 C 0.73484 0.63305 0.98644
 N773 N 0.71726 0.64587 1.00509
 N774 N 0.69308 0.65781 0.99705
 C775 C 0.65827 0.66829 0.96120
 N776 N 0.63945 0.68018 0.97936
 N777 N 0.61428 0.68910 0.97102
 C778 C 0.60695 0.68628 0.94426
 N779 N 0.62591 0.67444 0.92625
 N780 N 0.65100 0.66561 0.93452
 C781 C 0.18651 0.16180 0.46551
 N782 N 0.20422 0.14852 0.44730
 N783 N 0.22785 0.13596 0.45585
 C784 C 0.23470 0.13633 0.48290
 N785 N 0.21725 0.14994 0.50110
 N786 N 0.19355 0.16250 0.49255
 C787 C 0.15949 0.17350 0.45616
 N788 N 0.14071 0.18578 0.47410
 N789 N 0.11571 0.19498 0.46553
 C790 C 0.10852 0.19209 0.43875
 N791 N 0.12746 0.17994 0.42091
 N792 N 0.15238 0.17082 0.42942
 C793 C 0.55709 0.06829 0.74290
 N794 N 0.55504 0.04344 0.73066
 N795 N 0.57014 0.02090 0.73929
 C796 C 0.58783 0.02245 0.76041
 N797 N 0.58945 0.04708 0.77308
 N798 N 0.57429 0.06961 0.76453
 C799 C 0.54365 0.09386 0.73074
 N800 N 0.54598 0.11894 0.74245
 N801 N 0.53648 0.14252 0.72964
 C802 C 0.52453 0.14191 0.70452
 N803 N 0.52184 0.11674 0.69310
 N804 N 0.53119 0.09319 0.70595
 C805 C 1.06092 0.56693 0.24314
 N806 N 1.05833 0.54203 0.23117
 N807 N 1.07336 0.51940 0.23965
 C808 C 1.09155 0.52091 0.26035
 N809 N 1.09373 0.54560 0.27276
 N810 N 1.07863 0.56823 0.26434
 C811 C 1.04736 0.59250 0.23111
 N812 N 1.05010 0.61765 0.24254
 N813 N 1.04034 0.64117 0.22981
 C814 C 1.02773 0.64042 0.20504
 N815 N 1.02466 0.61518 0.19391
 N816 N 1.03425 0.59170 0.20668
 C817 C 0.91085 0.92312 0.22992
 N818 N 0.92657 0.94442 0.23689
 N819 N 0.91455 0.96895 0.24394
 C820 C 0.88645 0.97291 0.24418
 N821 N 0.87082 0.95161 0.23743
 N822 N 0.88278 0.92718 0.23044
 C823 C 0.92353 0.89656 0.22034
 N824 N 0.90698 0.87673 0.21176
 N825 N 0.91793 0.85324 0.20130
 C826 C 0.94590 0.84851 0.19902
 N827 N 0.96254 0.86820 0.20802
 N828 N 0.95155 0.89184 0.21845
 C829 C 0.41060 0.42564 0.72946
 N830 N 0.42650 0.44679 0.73646
 N831 N 0.41467 0.47139 0.74355
 C832 C 0.38659 0.47557 0.74379
 N833 N 0.37078 0.45443 0.73700
 N834 N 0.38256 0.42992 0.72997
 C835 C 0.42304 0.39899 0.71987
 N836 N 0.40630 0.37933 0.71128
 N837 N 0.41703 0.35576 0.70083
 C838 C 0.44496 0.35076 0.69856
 N839 N 0.46180 0.37028 0.70756
 N840 N 0.45103 0.39400 0.71799
 C841 C 0.42433 0.57506 0.78305
 N842 N 0.42380 0.54919 0.79560
 N843 N 0.40875 0.52959 0.78549
 C844 C 0.39373 0.53515 0.76244
 N845 N 0.39460 0.56081 0.74955
 N846 N 0.40968 0.58044 0.75966
 C847 C 0.43831 0.59743 0.79619
 N848 N 0.43795 0.62381 0.78471
 N849 N 0.44850 0.64452 0.79807
 C850 C 0.45964 0.63965 0.82349
 N851 N 0.46027 0.61315 0.83469
 N852 N 0.44983 0.59247 0.82133
 C853 C -0.07633 0.07279 0.28298
 N854 N -0.07678 0.04700 0.29572
 N855 N -0.09174 0.02725 0.28572
 C856 C -0.10673 0.03258 0.26261
 N857 N -0.10593 0.05816 0.24955
 N858 N -0.09096 0.07793 0.25954
 C859 C -0.06241 0.09534 0.29588
 N860 N -0.06309 0.12164 0.28420
 N861 N -0.05254 0.14254 0.29726
 C862 C -0.04105 0.13798 0.32254
 N863 N -0.04012 0.11156 0.33397
 N864 N -0.05059 0.09068 0.32092
 C865 C 0.07303 0.41307 0.29912
 N866 N 0.05819 0.43780 0.29595
 N867 N 0.07069 0.46085 0.28699
 C868 C 0.09845 0.45995 0.28113
 N869 N 0.11327 0.43533 0.28443
 N870 N 0.10078 0.41229 0.29322
 C871 C 0.05963 0.38747 0.30895
 N872 N 0.07422 0.36253 0.30881
 N873 N 0.06261 0.33926 0.31836
 C874 C 0.03598 0.33996 0.32853
 N875 N 0.02133 0.36497 0.32856
 N876 N 0.03290 0.38828 0.31885
 C877 C 0.57296 0.91373 0.80089
 N878 N 0.60096 0.91500 0.79793
 N879 N 0.61236 0.93838 0.78844
 C880 C 0.59620 0.96139 0.78163
 N881 N 0.56815 0.96028 0.78452
 N882 N 0.55669 0.93681 0.79402
 C883 C 0.56099 0.88777 0.81190
 N884 N 0.53307 0.88524 0.81483
 N885 N 0.52279 0.86163 0.82556
 C886 C 0.54006 0.83974 0.83378
 N887 N 0.56791 0.84238 0.83058
 N888 N 0.57815 0.86585 0.81985
 C889 C 0.73386 0.55529 0.06795
 N890 N 0.76119 0.56102 0.06614
 N891 N 0.77114 0.57627 0.04463
 C892 C 0.75413 0.58631 0.02425
 N893 N 0.72697 0.58018 0.02583
 N894 N 0.71704 0.56484 0.04722
 C895 C 0.72180 0.54176 0.09312
 N896 N 0.69422 0.53736 0.09468
 N897 N 0.68233 0.52788 0.11829
 C898 C 0.69743 0.52249 0.14137
 N899 N 0.72519 0.52645 0.13969
 N900 N 0.73715 0.53597 0.11600
 C901 C 0.23198 1.05833 0.56504
 N902 N 0.25976 1.06147 0.56171
 N903 N 0.26981 1.07676 0.54026
 C904 C 0.25242 1.08947 0.52152
 N905 N 0.22476 1.08594 0.52460
 N906 N 0.21474 1.07055 0.54589
 C907 C 0.22017 1.04444 0.59014
 N908 N 0.19234 1.04173 0.59264
 N909 N 0.18084 1.03179 0.61625
 C910 C 0.19661 1.02425 0.63843
 N911 N 0.22460 1.02657 0.63579
 N912 N 0.23617 1.03652 0.61208
 C913 C 0.21678 0.91429 0.93068
 N914 N 0.20054 0.89665 0.94586
 N915 N 0.20882 0.88549 0.97010
 C916 C 0.23369 0.89147 0.98008
 N917 N 0.25008 0.90912 0.96501
 N918 N 0.24171 0.92045 0.94071
 C919 C 0.20735 0.92557 0.90359
 N920 N 0.22114 0.94563 0.88880
 N921 N 0.21200 0.95542 0.86421
 C922 C 0.18889 0.94533 0.85347
 N923 N 0.17529 0.92529 0.86837
 N924 N 0.18428 0.91566 0.89290
 C925 C 0.72267 0.40996 0.42863
 N926 N 0.72197 0.38198 0.43402
 N927 N 0.72911 0.37087 0.45867
 C928 C 0.73717 0.38730 0.47887
 N929 N 0.73803 0.41531 0.47360
 N930 N 0.73088 0.42648 0.44885
 C931 C 0.71344 0.42183 0.40168
 N932 N 0.71373 0.44972 0.39533
 N933 N 0.70398 0.46015 0.37124
 C934 C 0.69352 0.44308 0.35267
 N935 N 0.69357 0.41521 0.35904
 N936 N 0.70336 0.40480 0.38299
 C937 C 0.77623 0.42882 0.57688
 N938 N 0.75351 0.41368 0.58261
 N939 N 0.74371 0.39783 0.56338
 C940 C 0.75625 0.39664 0.53778
 N941 N 0.77862 0.41214 0.53186
 N942 N 0.78843 0.42797 0.55107
 C943 C 0.78915 0.44363 0.59886
 N944 N 0.81367 0.45582 0.59356
 N945 N 0.82696 0.46693 0.61391
 C946 C 0.81632 0.46633 0.64041
 N947 N 0.79150 0.45453 0.64561
 N948 N 0.77821 0.44333 0.62523
 C949 C 0.27587 -0.06893 0.07731
 N950 N 0.25369 -0.08476 0.08332
 N951 N 0.24368 -0.10036 0.06401
 C952 C 0.25545 -0.10058 0.03802
 N953 N 0.27724 -0.08437 0.03182
 N954 N 0.28727 -0.06881 0.05112
 C955 C 0.28916 -0.05451 0.09930
 N956 N 0.31354 -0.04213 0.09379
 N957 N 0.32722 -0.03146 0.11413
 C958 C 0.31712 -0.03271 0.14080
 N959 N 0.29243 -0.04467 0.14623
 N960 N 0.27875 -0.05545 0.12588
 C961 C 0.30434 0.07626 0.41777
 N962 N 0.30464 0.10418 0.42145
 N963 N 0.29372 0.11519 0.44451
 C964 C 0.28225 0.09870 0.46483
 N965 N 0.28202 0.07072 0.46137
 N966 N 0.29292 0.05965 0.43820
 C967 C 0.31574 0.06484 0.39168
 N968 N 0.31453 0.03731 0.38626
 N969 N 0.32468 0.02761 0.36217
 C970 C 0.33637 0.04509 0.34265
 N971 N 0.33748 0.07256 0.34825
 N972 N 0.32736 0.08224 0.37220
 C973 C 0.80365 0.57476 0.91922
 N974 N 0.79312 0.55780 0.93987
 N975 N 0.78270 0.56852 0.96341
 C976 C 0.78255 0.59649 0.96702
 N977 N 0.79315 0.61333 0.94648
 N978 N 0.80358 0.60266 0.92306
 C979 C 0.81451 0.56370 0.89277
 N980 N 0.82519 0.58144 0.87304
 N981 N 0.83490 0.57207 0.84880
 C982 C 0.83428 0.54456 0.84317
 N983 N 0.82350 0.52673 0.86294
 N984 N 0.81377 0.53613 0.88730
 C985 C 0.07012 0.73155 0.55335
 N986 N 0.05118 0.71458 0.56560
 N987 N 0.02946 0.72519 0.58010
 C988 C 0.02575 0.75319 0.58270
 N989 N 0.04432 0.77030 0.57002
 N990 N 0.06621 0.75966 0.55562
 C991 C 0.09537 0.71921 0.53999
 N992 N 0.11697 0.73508 0.53172
 N993 N 0.14072 0.72312 0.52193
 C994 C 0.14373 0.69487 0.52010
 N995 N 0.12190 0.67920 0.52803
 N996 N 0.09826 0.69109 0.53781
 C997 C 0.57162 0.23124 1.05257
 N998 N 0.55241 0.21429 1.06437
 N999 N 0.53062 0.22489 1.07876
 C1000 C 0.52710 0.25285 1.08172
 N1001 N 0.54595 0.26996 1.06948
 N1002 N 0.56791 0.25933 1.05519
 C1003 C 0.59694 0.21885 1.03938
 N1004 N 0.61877 0.23461 1.03158
 N1005 N 0.64256 0.22256 1.02200
 C1006 C 0.64538 0.19432 1.01991
 N1007 N 0.62333 0.17878 1.02736
 N1008 N 0.59965 0.19076 1.03694
 C1009 C 0.92803 0.22656 0.90919
 N1010 N 0.94879 0.23403 0.92541
 N1011 N 0.97297 0.24173 0.91393
 C1012 C 0.97709 0.24219 0.88588
 N1013 N 0.95630 0.23501 0.86975
 N1014 N 0.93224 0.22730 0.88118
 C1015 C 0.90196 0.21614 0.92129
 N1016 N 0.88347 0.20551 0.90443
 N1017 N 0.86051 0.19437 0.91498
 C1018 C 0.85497 0.19349 0.94281
 N1019 N 0.87327 0.20455 0.95973
 N1020 N 0.89642 0.21561 0.94916
 C1021 C 0.42718 0.72721 0.40970
 N1022 N 0.44785 0.73459 0.42608
 N1023 N 0.47223 0.74193 0.41479
 C1024 C 0.47664 0.74212 0.38678
 N1025 N 0.45594 0.73503 0.37049
 N1026 N 0.43168 0.72767 0.38173
 C1027 C 0.40089 0.71715 0.42161
 N1028 N 0.38240 0.70671 0.40463
 N1029 N 0.35925 0.69582 0.41502
 C1030 C 0.35353 0.69500 0.44283
 N1031 N 0.37183 0.70589 0.45986
 N1032 N 0.39515 0.71671 0.44945
 C1033 C 0.57509 0.77911 0.42803
 N1034 N 0.58066 0.75632 0.41251
 N1035 N 0.56130 0.74699 0.39655
 C1036 C 0.53571 0.76010 0.39561
 N1037 N 0.52996 0.78253 0.41147
 N1038 N 0.54930 0.79186 0.42740
 C1039 C 0.59716 0.79156 0.44304
 N1040 N 0.59198 0.81627 0.45547
 N1041 N 0.61241 0.82922 0.46671
 C1042 C 0.63887 0.81802 0.46604
 N1043 N 0.64395 0.79299 0.45406
 N1044 N 0.62349 0.78003 0.44270
 C1045 C 0.07584 0.27927 -0.07357
 N1046 N 0.08128 0.25661 -0.08931
 N1047 N 0.06176 0.24740 -0.10516
 C1048 C 0.03616 0.26049 -0.10576
 N1049 N 0.03055 0.28278 -0.08969
 N1050 N 0.05004 0.29200 -0.07387
 C1051 C 0.09806 0.29159 -0.05865
 N1052 N 0.09301 0.31621 -0.04603
 N1053 N 0.11355 0.32905 -0.03484
 C1054 C 0.13999 0.31781 -0.03576
 N1055 N 0.14495 0.29286 -0.04795
 N1056 N 0.12438 0.28002 -0.05925
 C1057 C 0.42512 0.30711 0.06041
 N1058 N 0.43477 0.28086 0.05436
 N1059 N 0.45712 0.26932 0.06674
 C1060 C 0.47061 0.28368 0.08547
 N1061 N 0.46126 0.31002 0.09119
 N1062 N 0.43890 0.32152 0.07890
 C1063 C 0.39904 0.31905 0.04905
 N1064 N 0.38757 0.34322 0.05896
 N1065 N 0.36295 0.35330 0.05044
 C1066 C 0.34880 0.33970 0.03161
 N1067 N 0.36048 0.31569 0.02132
 N1068 N 0.38512 0.30548 0.02998
 C1069 C 0.92386 0.80774 0.56154
 N1070 N 0.93343 0.78147 0.55548
 N1071 N 0.95579 0.76989 0.56779
 C1072 C 0.96937 0.78422 0.58648
 N1073 N 0.96010 0.81059 0.59220
 N1074 N 0.93773 0.82214 0.57997
 C1075 C 0.89775 0.81972 0.55027
 N1076 N 0.88631 0.84387 0.56025
 N1077 N 0.86166 0.85397 0.55182
 C1078 C 0.84745 0.84040 0.53300
 N1079 N 0.85911 0.81641 0.52265
 N1080 N 0.88376 0.80618 0.53122
   
