data_POSCAR
  _audit_creation_date              2014-09-24
  _audit_creation_method            'ToBaCCo'
  _symmetry_space_group_name_H-M    'P1'
  _symmetry_Int_Tables_number       1
  _symmetry_cell_setting            triclinic
  loop_
  _symmetry_equiv_pos_as_xyz
 x,y,z
_cell_length_a 28.0872
_cell_length_b 27.9243
_cell_length_c 28.0792
_cell_angle_alpha 90.107500
_cell_angle_beta 90.184800
_cell_angle_gamma 89.892600
loop_
  _atom_site_label
  _atom_site_type_symbol
  _atom_site_fract_x
  _atom_site_fract_y
  _atom_site_fract_z
C1 C 0.52300 1.00005 -0.50149
 C2 C 0.47458 0.99985 -0.50153
 C3 C 0.44622 0.99971 -0.54631
 C4 C 0.44647 0.99978 -0.45677
 C5 C 0.55135 1.00005 -0.45671
 C6 C 0.55115 1.00024 -0.54622
 C7 C 0.44947 1.03728 -0.57938
 C8 C 0.41864 1.03891 -0.61870
 C9 C 0.38423 1.00305 -0.62520
 C10 C 0.38161 0.96511 -0.59273
 C11 C 0.41228 0.96355 -0.55354
 C12 C 0.41216 1.03569 -0.44955
 C13 C 0.38190 1.03398 -0.41027
 C14 C 0.38529 0.99621 -0.37776
 C15 C 0.41994 0.96058 -0.38422
 C16 C 0.45040 0.96230 -0.42362
 C17 C 0.58565 0.96410 -0.44962
 C18 C 0.61621 0.96580 -0.41036
 C19 C 0.61313 1.00361 -0.37776
 C20 C 0.57847 1.03927 -0.38407
 C21 C 0.54770 1.03756 -0.42344
 C22 C 0.54782 0.96266 -0.57944
 C23 C 0.57859 0.96104 -0.61863
 C24 C 0.61292 0.99688 -0.62481
 C25 C 0.61563 1.03480 -0.59229
 C26 C 0.58507 1.03641 -0.55322
 H27 H 0.47479 1.06598 -0.57394
 H28 H 0.42103 1.06869 -0.64330
 H29 H 0.35520 0.93713 -0.59701
 H30 H 0.40899 0.93451 -0.52825
 H31 H 0.40832 1.06466 -0.47488
 H32 H 0.35515 1.06163 -0.40579
 H33 H 0.47599 0.93377 -0.42903
 H34 H 0.58928 0.93511 -0.47505
 H35 H 0.64296 0.93812 -0.40600
 H36 H 0.57594 1.06888 -0.35922
 H37 H 0.52211 1.06612 -0.42875
 H38 H 0.52254 0.93394 -0.57420
 H39 H 0.57636 0.93134 -0.64341
 H40 H 0.64211 1.06262 -0.59655
 H41 H 0.58845 1.06547 -0.52782
 H42 H 0.42269 0.93101 -0.35945
 C43 C -0.50052 1.52527 0.00028
 C44 C -0.50048 1.47669 0.00019
 C45 C -0.54513 1.44852 0.00070
 C46 C -0.45578 1.44844 -0.00040
 C47 C -0.45586 1.55342 0.00073
 C48 C -0.54523 1.55353 -0.00010
 C49 C -0.57764 1.45252 0.03844
 C50 C -0.61724 1.42225 0.04042
 C51 C -0.62442 1.38780 0.00478
 C52 C -0.59254 1.38432 -0.03323
 C53 C -0.55305 1.41440 -0.03520
 C54 C -0.44776 1.41437 0.03543
 C55 C -0.40814 1.38431 0.03345
 C56 C -0.37621 1.38777 -0.00450
 C57 C -0.38351 1.42214 -0.04008
 C58 C -0.42324 1.45239 -0.03810
 C59 C -0.44825 1.58749 -0.03511
 C60 C -0.40862 1.61742 -0.03328
 C61 C -0.37628 1.61384 0.00453
 C62 C -0.38318 1.57947 0.04012
 C63 C -0.42292 1.54936 0.03829
 C64 C -0.57811 1.54955 -0.03771
 C65 C -0.61782 1.57985 -0.03956
 C66 C -0.62478 1.61433 -0.00388
 C67 C -0.59248 1.61777 0.03403
 C68 C -0.55288 1.58765 0.03583
 H69 H -0.57160 1.47804 0.06690
 H70 H -0.64156 1.42495 0.07016
 H71 H -0.59767 1.35764 -0.06084
 H72 H -0.52816 1.41061 -0.06436
 H73 H -0.47267 1.41063 0.06456
 H74 H -0.40292 1.35769 0.06101
 H75 H -0.42934 1.47788 -0.06650
 H76 H -0.47346 1.59133 -0.06414
 H77 H -0.40370 1.64404 -0.06086
 H78 H -0.35850 1.57668 0.06971
 H79 H -0.42870 1.52387 0.06670
 H80 H -0.57228 1.52402 -0.06619
 H81 H -0.64239 1.57704 -0.06927
 H82 H -0.59731 1.64440 0.06175
 H83 H -0.52771 1.59140 0.06490
 H84 H -0.35914 1.42483 -0.06978
 C85 C 0.00029 0.52343 0.50099
 C86 C 0.00038 0.47478 0.50098
 C87 C 0.00067 0.44642 0.45623
 C88 C 0.00018 0.44654 0.54570
 C89 C 0.00040 0.55181 0.54573
 C90 C 0.00009 0.55166 0.45627
 C91 C -0.03513 0.41222 0.44858
 C92 C -0.03339 0.38191 0.40907
 C93 C 0.00434 0.38519 0.37679
 C94 C 0.03989 0.41974 0.38374
 C95 C 0.03811 0.45022 0.42337
 C96 C -0.03731 0.45042 0.57852
 C97 C -0.03908 0.41995 0.61804
 C98 C -0.00346 0.38534 0.62491
 C99 C 0.03433 0.38202 0.59269
 C100 C 0.03606 0.41231 0.55329
 C101 C 0.03785 0.54809 0.57884
 C102 C 0.03957 0.57873 0.61835
 C103 C 0.00394 0.61336 0.62493
 C104 C -0.03384 0.61651 0.59243
 C105 C -0.03551 0.58604 0.55304
 C106 C 0.03590 0.58584 0.44896
 C107 C 0.03418 0.61608 0.40950
 C108 C -0.00350 0.61274 0.37698
 C109 C -0.03905 0.57823 0.38355
 C110 C -0.03732 0.54780 0.42312
 H111 H -0.06407 0.40855 0.47371
 H112 H -0.06104 0.35528 0.40430
 H113 H 0.06947 0.42248 0.35921
 H114 H 0.06651 0.47577 0.42916
 H115 H -0.06578 0.47599 0.57277
 H116 H -0.06871 0.42272 0.64253
 H117 H 0.06503 0.40858 0.52818
 H118 H 0.06634 0.52251 0.57331
 H119 H 0.06918 0.57609 0.64305
 H120 H -0.06155 0.64320 0.59693
 H121 H -0.06446 0.58965 0.52771
 H122 H 0.06481 0.58957 0.47431
 H123 H 0.06174 0.64276 0.40489
 H124 H -0.06855 0.57558 0.35875
 H125 H -0.06574 0.52227 0.42863
 H126 H 0.06203 0.35534 0.59741
 O127 O -0.12236 1.00190 -0.06450
 O128 O 0.12302 0.99812 -0.06404
 O129 O -0.00160 1.06500 -0.12260
 O130 O 0.00211 0.93490 -0.12272
 O131 O 0.00218 0.87684 -0.06425
 O132 O -0.00152 1.12318 -0.06401
 O133 O 0.06499 0.99810 -0.12257
 O134 O -0.06450 1.00182 -0.12282
 Zr135 Zr 0.00030 0.99999 -0.08410
 O136 O 0.04353 0.95668 -0.04316
 O137 O -0.04282 1.04338 -0.04324
 C138 C -0.10838 1.00282 -0.10843
 C139 C 0.10891 0.99713 -0.10803
 C140 C -0.00257 1.10910 -0.10799
 C141 C 0.00312 0.89083 -0.10819
 H142 H 0.06367 1.06362 -0.06316
 O143 O 0.04338 1.04315 -0.04297
 H144 H -0.06302 0.93638 -0.06354
 O145 O -0.04267 0.95690 -0.04323
 O146 O 0.12319 1.00167 0.06463
 O147 O -0.12219 0.99856 0.06414
 O148 O 0.06444 1.12311 0.00219
 O149 O 0.06456 0.87684 -0.00180
 O150 O -0.06362 0.87702 0.00171
 O151 O -0.06374 1.12328 -0.00181
 O152 O 0.00237 1.06520 0.12287
 O153 O -0.00124 0.93512 0.12273
 O154 O 0.00224 1.12328 0.06441
 O155 O -0.00125 0.87695 0.06414
 O156 O 0.12286 1.06483 0.00229
 O157 O -0.12210 1.06516 -0.00204
 O158 O -0.12203 0.93531 0.00170
 O159 O 0.12292 0.93496 -0.00169
 O160 O 0.06533 1.00184 0.12295
 O161 O -0.06420 0.99847 0.12269
 Zr162 Zr 0.08425 0.99995 0.00022
 Zr163 Zr -0.08342 1.00018 -0.00010
 Zr164 Zr 0.00037 1.08405 0.00016
 Zr165 Zr 0.00045 0.91608 -0.00002
 Zr166 Zr 0.00052 1.00013 0.08423
 O167 O -0.04266 0.95687 0.04321
 O168 O 0.04360 1.04333 0.04346
 C169 C 0.10920 1.00270 0.10857
 C170 C -0.10811 0.99759 0.10813
 C171 C 0.10833 1.10893 0.00331
 C172 C 0.10844 0.89091 -0.00276
 C173 C -0.10751 0.89122 0.00271
 C174 C -0.10762 1.10921 -0.00298
 C175 C 0.00330 1.10927 0.10836
 C176 C -0.00222 0.89103 0.10811
 H177 H -0.06291 1.06391 0.06343
 O178 O -0.04261 1.04335 0.04320
 H179 H 0.06389 0.93632 0.06354
 O180 O 0.04354 0.95686 0.04327
 C181 C 0.28674 1.00796 0.27310
 N182 N 0.28673 0.97515 0.23741
 N183 N 0.25164 0.97452 0.20534
 C184 C 0.21536 1.00654 0.20805
 N185 N 0.21538 1.03939 0.24371
 N186 N 0.25048 1.04002 0.27579
 C187 C 0.32338 1.00720 0.30896
 C188 C 0.35317 1.00567 0.34002
 C189 C 0.17736 1.00549 0.17365
 C190 C 0.14586 1.00431 0.14433
 C191 C -0.28597 0.99204 0.27112
 N192 N -0.24937 0.96042 0.27438
 N193 N -0.21412 0.96117 0.24269
 C194 C -0.21430 0.99368 0.20685
 N195 N -0.25093 1.02526 0.20357
 N196 N -0.28616 1.02452 0.23525
 C197 C -0.32284 0.99263 0.30650
 C198 C -0.35285 0.99401 0.33715
 C199 C -0.17622 0.99479 0.17280
 C200 C -0.14471 0.99599 0.14371
 C201 C -0.28607 1.00855 -0.27276
 N202 N -0.28641 0.97629 -0.23671
 N203 N -0.25126 0.97554 -0.20470
 C204 C -0.21458 1.00691 -0.20783
 N205 N -0.21425 1.03921 -0.24385
 N206 N -0.24941 1.03995 -0.27587
 C207 C -0.32282 1.00793 -0.30849
 C208 C -0.35273 1.00652 -0.33942
 C209 C -0.17655 1.00575 -0.17347
 C210 C -0.14504 1.00449 -0.14418
 C211 C 0.28546 0.99130 -0.27249
 N212 N 0.24899 0.95962 -0.27539
 N213 N 0.21412 0.96036 -0.24327
 C214 C 0.21456 0.99293 -0.20737
 N215 N 0.25105 1.02457 -0.20444
 N216 N 0.28591 1.02383 -0.23655
 C217 C 0.32187 0.99192 -0.30833
 C218 C 0.35149 0.99332 -0.33934
 C219 C 0.17679 0.99412 -0.17296
 C220 C 0.14544 0.99541 -0.14368
 C221 C 0.27074 1.28762 0.01038
 N222 N 0.23428 1.28832 -0.02137
 N223 N 0.20260 1.25288 -0.02231
 C224 C 0.20658 1.21560 0.00832
 N225 N 0.24300 1.21491 0.04013
 N226 N 0.27468 1.25036 0.04107
 C227 C 0.30626 1.32433 0.00963
 C228 C 0.33718 1.35407 0.00800
 C229 C 0.17275 1.17731 0.00686
 C230 C 0.14379 1.14562 0.00531
 C231 C 0.27167 0.71238 -0.00931
 N232 N 0.27453 0.74899 -0.04083
 N233 N 0.24262 0.78435 -0.04000
 C234 C 0.20706 0.78422 -0.00746
 N235 N 0.20416 0.74757 0.02401
 N236 N 0.23607 0.71222 0.02317
 C237 C 0.30749 0.67582 -0.00850
 C238 C 0.33869 0.64623 -0.00684
 C239 C 0.17302 0.82244 -0.00609
 C240 C 0.14395 0.85414 -0.00463
 C241 C -0.27068 0.71330 0.00969
 N242 N -0.23539 0.71305 -0.02314
 N243 N -0.20350 0.74829 -0.02410
 C244 C -0.20609 0.78490 0.00758
 N245 N -0.24134 0.78512 0.04046
 N246 N -0.27324 0.74988 0.04142
 C247 C -0.30648 0.67685 0.00906
 C248 C -0.33763 0.64732 0.00757
 C249 C -0.17206 0.82299 0.00610
 C250 C -0.14300 0.85457 0.00460
 C251 C -0.27074 1.28784 -0.01002
 N252 N -0.27395 1.25093 -0.04132
 N253 N -0.24207 1.21554 -0.04038
 C254 C -0.20620 1.21593 -0.00796
 N255 N -0.20295 1.25287 0.02329
 N256 N -0.23482 1.28825 0.02235
 C257 C -0.30649 1.32446 -0.00930
 C258 C -0.33760 1.35413 -0.00770
 C259 C -0.17220 1.17768 -0.00649
 C260 C -0.14314 1.14598 -0.00495
 C261 C 0.00946 1.28716 0.27287
 N262 N -0.02321 1.28745 0.23720
 N263 N -0.02397 1.25234 0.20500
 C264 C 0.00777 1.21577 0.20760
 N265 N 0.04048 1.21549 0.24324
 N266 N 0.04124 1.25061 0.27544
 C267 C 0.00872 1.32362 0.30893
 C268 C 0.00717 1.35321 0.34022
 C269 C 0.00648 1.17771 0.17322
 C270 C 0.00510 1.14610 0.14396
 C271 C -0.00864 1.28714 -0.27171
 N272 N -0.04035 1.25065 -0.27457
 N273 N -0.03960 1.21547 -0.24256
 C274 C -0.00699 1.21562 -0.20683
 N275 N 0.02467 1.25214 -0.20394
 N276 N 0.02393 1.28731 -0.23595
 C277 C -0.00788 1.32367 -0.30755
 C278 C -0.00631 1.35332 -0.33867
 C279 C -0.00573 1.17752 -0.17264
 C280 C -0.00437 1.14590 -0.14350
 C281 C 0.00904 0.71212 -0.27182
 N282 N 0.04088 0.74848 -0.27441
 N283 N 0.04014 0.78384 -0.24245
 C284 C 0.00738 0.78399 -0.20707
 N285 N -0.02441 0.74760 -0.20445
 N286 N -0.02367 0.71226 -0.23640
 C287 C 0.00830 0.67539 -0.30761
 C288 C 0.00675 0.64558 -0.33869
 C289 C 0.00617 0.82224 -0.17290
 C290 C 0.00485 0.85396 -0.14376
 C291 C -0.00846 0.71289 0.27164
 N292 N 0.02457 0.71295 0.23652
 N293 N 0.02541 0.74817 0.20457
 C294 C -0.00662 0.78450 0.20689
 N295 N -0.03970 0.78442 0.24198
 N296 N -0.04053 0.74919 0.27393
 C297 C -0.00785 0.67628 0.30742
 C298 C -0.00643 0.64656 0.33847
 C299 C -0.00533 0.82262 0.17273
 C300 C -0.00397 0.85424 0.14361
   
