data_POSCAR
  _audit_creation_date              2014-09-24
  _audit_creation_method            'ToBaCCo'
  _symmetry_space_group_name_H-M    'P1'
  _symmetry_Int_Tables_number       1
  _symmetry_cell_setting            triclinic
  loop_
  _symmetry_equiv_pos_as_xyz
 x,y,z
_cell_length_a 58.2152
_cell_length_b 58.1744
_cell_length_c 57.7033
_cell_angle_alpha 89.694000
_cell_angle_beta 89.956100
_cell_angle_gamma 89.810100
loop_
  _atom_site_label
  _atom_site_type_symbol
  _atom_site_fract_x
  _atom_site_fract_y
  _atom_site_fract_z
C1 C 0.60678 0.64210 0.62621
 N2 N 0.60679 0.62518 0.64254
 C3 C 0.62328 0.60856 0.64265
 N4 N 0.63986 0.60906 0.62604
 C5 C 0.64011 0.62582 0.60956
 N6 N 0.62351 0.64228 0.60978
 C7 C 0.89336 0.35826 0.12647
 N8 N 0.87641 0.35820 0.11026
 C9 C 0.85977 0.37463 0.11015
 N10 N 0.86015 0.39130 0.12655
 C11 C 0.87691 0.39166 0.14291
 N12 N 0.89343 0.37511 0.14272
 C13 C 0.39281 0.14212 -0.12592
 N14 N 0.37616 0.14201 -0.10941
 C15 C 0.35952 0.12568 -0.10936
 N16 N 0.35968 0.10933 -0.12609
 C17 C 0.37620 0.10917 -0.14274
 N18 N 0.39271 0.12564 -0.14252
 C19 C 0.10624 0.85715 0.37382
 N20 N 0.10618 0.87398 0.35737
 C21 C 0.12226 0.89089 0.35739
 N22 N 0.13858 0.89079 0.37425
 C23 C 0.13898 0.87411 0.39081
 N24 N 0.12277 0.85737 0.39045
 N25 N 0.09825 0.16259 0.11569
 N26 N 0.08849 0.15248 0.13355
 C27 C 0.06993 0.16478 0.13997
 C28 C 0.06795 0.18366 0.12536
 C29 C 0.08629 0.18169 0.11018
 H30 H 0.05880 0.16043 0.15431
 H31 H 0.09045 0.19307 0.09593
 Cu32 Cu 0.10100 0.12422 0.14669
 Cu33 Cu 0.12542 0.15004 0.10060
 Cu34 Cu 0.14832 0.09990 0.12384
 N35 N 0.11458 0.09657 0.16005
 N36 N 0.13289 0.08700 0.15086
 C37 C 0.13858 0.06817 0.16326
 C38 C 0.12306 0.06582 0.18131
 C39 C 0.10808 0.08421 0.17872
 H40 H 0.15316 0.05723 0.15961
 H41 H 0.09342 0.08816 0.18950
 N42 N 0.16149 0.11558 0.09657
 N43 N 0.15281 0.13469 0.08776
 C44 C 0.16555 0.14112 0.06936
 C45 C 0.18316 0.12533 0.06641
 C46 C 0.17999 0.10938 0.08403
 H47 H 0.16233 0.15630 0.05898
 H48 H 0.19028 0.09424 0.08738
 H49 H 0.11987 0.11616 0.10983
 H50 H 0.13820 0.13349 0.12968
 N51 N 0.40043 0.83807 0.61565
 N52 N 0.41000 0.84801 0.63359
 C53 C 0.42873 0.83586 0.63993
 C54 C 0.43101 0.81726 0.62519
 C55 C 0.41268 0.81925 0.61000
 H56 H 0.43974 0.84010 0.65434
 H57 H 0.40865 0.80803 0.59571
 Cu58 Cu 0.39687 0.87573 0.64699
 Cu59 Cu 0.37295 0.85033 0.60076
 Cu60 Cu 0.34939 0.89985 0.62421
 N61 N 0.38341 0.90345 0.66006
 N62 N 0.36486 0.91279 0.65104
 C63 C 0.35912 0.93156 0.66329
 C64 C 0.37489 0.93421 0.68105
 C65 C 0.39008 0.91599 0.67841
 H66 H 0.34436 0.94230 0.65965
 H67 H 0.40494 0.91219 0.68897
 N68 N 0.33625 0.88419 0.59709
 N69 N 0.34523 0.86536 0.58816
 C70 C 0.33252 0.85896 0.56982
 C71 C 0.31462 0.87448 0.56702
 C72 C 0.31758 0.89023 0.58468
 H73 H 0.33597 0.84399 0.55936
 H74 H 0.30706 0.90517 0.58810
 H75 H 0.37806 0.88416 0.61016
 H76 H 0.35984 0.86630 0.62984
 N77 N 0.90233 0.66182 0.38528
 N78 N 0.91234 0.65143 0.36780
 C79 C 0.93111 0.66342 0.36151
 C80 C 0.93295 0.68240 0.37579
 C81 C 0.91433 0.68079 0.39066
 H82 H 0.94242 0.65886 0.34739
 H83 H 0.90995 0.69238 0.40457
 Cu84 Cu 0.89979 0.62340 0.35467
 Cu85 Cu 0.87469 0.64989 0.39993
 Cu86 Cu 0.85109 0.60071 0.37637
 N87 N 0.88562 0.59638 0.34110
 N88 N 0.86665 0.58758 0.34966
 C89 C 0.86059 0.56921 0.33703
 C90 C 0.87659 0.56627 0.31949
 C91 C 0.89223 0.58390 0.32265
 H92 H 0.84547 0.55895 0.34024
 H93 H 0.90736 0.58734 0.31237
 N94 N 0.83783 0.61648 0.40340
 N95 N 0.84681 0.63521 0.41238
 C96 C 0.83404 0.64172 0.43069
 C97 C 0.81609 0.62636 0.43341
 C98 C 0.81909 0.61060 0.41575
 H99 H 0.83752 0.65662 0.44120
 H100 H 0.80858 0.59574 0.41229
 H101 H 0.87964 0.61587 0.39102
 H102 H 0.86240 0.63392 0.37052
 N103 N 0.59903 0.33711 -0.11499
 N104 N 0.59016 0.34643 -0.13375
 C105 C 0.57164 0.33420 -0.14018
 C106 C 0.56873 0.31619 -0.12462
 C107 C 0.58650 0.31865 -0.10886
 H108 H 0.56117 0.33805 -0.15516
 H109 H 0.59001 0.30796 -0.09390
 Cu110 Cu 0.60366 0.37363 -0.14797
 Cu111 Cu 0.62608 0.34960 -0.09983
 Cu112 Cu 0.64989 0.39868 -0.12408
 N113 N 0.61692 0.40152 -0.16101
 N114 N 0.63496 0.41121 -0.15157
 C115 C 0.64055 0.43009 -0.16387
 C116 C 0.62519 0.43246 -0.18209
 C117 C 0.61042 0.41394 -0.17966
 H118 H 0.65489 0.44114 -0.15990
 H119 H 0.59590 0.40989 -0.19053
 N120 N 0.66253 0.38345 -0.09629
 N121 N 0.65345 0.36479 -0.08703
 C122 C 0.66588 0.35860 -0.06832
 C123 C 0.68370 0.37408 -0.06563
 C124 C 0.68098 0.38959 -0.08373
 H125 H 0.66233 0.34377 -0.05758
 H126 H 0.69154 0.40441 -0.08740
 H127 H 0.62081 0.38312 -0.11072
 H128 H 0.64010 0.36492 -0.12894
 C129 C -0.05488 0.30675 0.12636
 C130 C -0.05449 0.32445 0.14279
 C131 C -0.07155 0.34140 0.14289
 C132 C -0.08945 0.34116 0.12643
 C133 C -0.08970 0.32337 0.10993
 C134 C -0.07267 0.30638 0.10996
 C135 C -0.03680 0.28871 0.12633
 C136 C -0.04259 0.26552 0.12308
 C137 C -0.02557 0.24852 0.12310
 C138 C -0.00238 0.25436 0.12623
 C139 C 0.00342 0.27756 0.12943
 C140 C -0.01362 0.29454 0.12955
 C141 C 0.01569 0.23631 0.12613
 C142 C 0.03650 0.23989 0.11432
 C143 C 0.05344 0.22282 0.11406
 C144 C 0.05001 0.20182 0.12571
 C145 C 0.02923 0.19831 0.13763
 C146 C 0.01224 0.21534 0.13777
 H147 H -0.04111 0.32502 0.15581
 H148 H -0.07063 0.35467 0.15594
 H149 H -0.10304 0.32246 0.09690
 H150 H -0.07326 0.29308 0.09691
 H151 H -0.06033 0.26049 0.12077
 H152 H -0.03053 0.23081 0.12038
 H153 H 0.02112 0.28254 0.13209
 H154 H -0.00863 0.31229 0.13190
 H155 H 0.03955 0.25581 0.10501
 H156 H 0.06927 0.22620 0.10484
 H157 H 0.02592 0.18233 0.14667
 H158 H -0.00353 0.21219 0.14721
 C159 C 0.55427 0.69453 0.62644
 C160 C 0.55337 0.67609 0.64224
 C161 C 0.57042 0.65911 0.64221
 C162 C 0.58871 0.66014 0.62630
 C163 C 0.58956 0.67859 0.61048
 C164 C 0.57256 0.69561 0.61059
 C165 C 0.53616 0.71255 0.62648
 C166 C 0.54199 0.73586 0.62396
 C167 C 0.52493 0.75283 0.62394
 C168 C 0.50168 0.74685 0.62632
 C169 C 0.49586 0.72354 0.62882
 C170 C 0.51292 0.70658 0.62896
 C171 C 0.48355 0.76486 0.62611
 C172 C 0.46303 0.76152 0.61380
 C173 C 0.44601 0.77852 0.61348
 C174 C 0.44908 0.79921 0.62555
 C175 C 0.46959 0.80250 0.63793
 C176 C 0.48665 0.78554 0.63815
 H177 H 0.53962 0.67494 0.65483
 H178 H 0.56922 0.64518 0.65466
 H179 H 0.60337 0.67993 0.59797
 H180 H 0.57356 0.70947 0.59803
 H181 H 0.55977 0.74099 0.62223
 H182 H 0.52992 0.77063 0.62177
 H183 H 0.47810 0.71844 0.63091
 H184 H 0.50789 0.68875 0.63071
 H185 H 0.46025 0.74585 0.60416
 H186 H 0.43041 0.77529 0.60389
 H187 H 0.47263 0.81825 0.64730
 H188 H 0.50220 0.78850 0.64798
 C189 C 1.05532 0.80514 0.37360
 C190 C 1.05504 0.82272 0.35684
 C191 C 1.07187 0.83979 0.35681
 C192 C 1.08939 0.83981 0.37367
 C193 C 1.08958 0.82209 0.39045
 C194 C 1.07280 0.80497 0.39035
 C195 C 1.03737 0.78708 0.37368
 C196 C 1.04325 0.76393 0.37754
 C197 C 1.02633 0.74695 0.37769
 C198 C 1.00315 0.75277 0.37411
 C199 C 0.99727 0.77593 0.37027
 C200 C 1.01420 0.79289 0.36998
 C201 C 0.98515 0.73477 0.37448
 C202 C 0.96420 0.73859 0.38594
 C203 C 0.94729 0.72159 0.38641
 C204 C 0.95090 0.70043 0.37530
 C205 C 0.97184 0.69667 0.36375
 C206 C 0.98880 0.71362 0.36341
 H207 H 1.04191 0.82313 0.34355
 H208 H 1.07101 0.85300 0.34353
 H209 H 1.10266 0.82136 0.40377
 H210 H 1.07329 0.79176 0.40363
 H211 H 1.06098 0.75893 0.38024
 H212 H 1.03134 0.72927 0.38090
 H213 H 0.97957 0.78089 0.36725
 H214 H 1.00914 0.81062 0.36717
 H215 H 0.96099 0.75464 0.39481
 H216 H 0.93133 0.72517 0.39533
 H217 H 0.97530 0.68054 0.35515
 H218 H 1.00470 0.71027 0.35426
 C219 C 0.44539 0.19417 -0.12561
 C220 C 0.42811 0.19400 -0.10859
 C221 C 0.41106 0.17714 -0.10869
 C222 C 0.41090 0.16003 -0.12582
 C223 C 0.42820 0.16022 -0.14285
 C224 C 0.44523 0.17710 -0.14274
 C225 C 0.46350 0.21209 -0.12548
 C226 C 0.47097 0.22226 -0.14630
 C227 C 0.48800 0.23914 -0.14618
 C228 C 0.49798 0.24621 -0.12523
 C229 C 0.49053 0.23602 -0.10441
 C230 C 0.47347 0.21917 -0.10453
 C231 C 0.51610 0.26412 -0.12509
 C232 C 0.53527 0.26196 -0.11045
 C233 C 0.55232 0.27882 -0.11030
 C234 C 0.55061 0.29827 -0.12479
 C235 C 0.53141 0.30040 -0.13943
 C236 C 0.51437 0.28353 -0.13958
 H237 H 0.42758 0.20710 -0.09534
 H238 H 0.39798 0.17758 -0.09535
 H239 H 0.42866 0.14729 -0.15627
 H240 H 0.45848 0.17659 -0.15591
 H241 H 0.46346 0.21735 -0.16270
 H242 H 0.49354 0.24649 -0.16252
 H243 H 0.49771 0.24127 -0.08797
 H244 H 0.46826 0.21150 -0.08823
 H245 H 0.53727 0.24704 -0.09933
 H246 H 0.56692 0.27639 -0.09897
 H247 H 0.52931 0.31520 -0.15066
 H248 H 0.49964 0.28586 -0.15081
 C249 C 0.12182 -0.05717 0.30551
 C250 C 0.13816 -0.05682 0.32337
 C251 C 0.13836 -0.07393 0.34046
 C252 C 0.12206 -0.09182 0.34021
 C253 C 0.10561 -0.09199 0.32228
 C254 C 0.10557 -0.07494 0.30513
 C255 C 0.12178 -0.03911 0.28727
 C256 C 0.11877 -0.04495 0.26387
 C257 C 0.11893 -0.02796 0.24666
 C258 C 0.12194 -0.00474 0.25250
 C259 C 0.12483 0.00112 0.27591
 C260 C 0.12483 -0.01590 0.29311
 C261 C 0.12214 0.01330 0.23424
 C262 C 0.11030 0.03411 0.23746
 C263 C 0.11050 0.05111 0.22025
 C264 C 0.12268 0.04772 0.19950
 C265 C 0.13457 0.02690 0.19631
 C266 C 0.13423 0.00985 0.21346
 H267 H 0.15105 -0.04345 0.32394
 H268 H 0.15135 -0.07305 0.35384
 H269 H 0.09272 -0.10534 0.32135
 H270 H 0.09261 -0.07549 0.29169
 H271 H 0.11658 -0.06272 0.25885
 H272 H 0.11647 -0.03294 0.22878
 H273 H 0.12738 0.01884 0.28090
 H274 H 0.12700 -0.01088 0.31102
 H275 H 0.10067 0.03716 0.25322
 H276 H 0.10129 0.06698 0.22337
 H277 H 0.14399 0.02364 0.18050
 H278 H 0.14368 -0.00595 0.21059
 C279 C 0.62333 0.55627 -0.30578
 C280 C 0.60618 0.57330 -0.30599
 C281 C 0.60612 0.59052 -0.32298
 C282 C 0.62323 0.59115 -0.34028
 C283 C 0.64035 0.57395 -0.34002
 C284 C 0.64039 0.55678 -0.32300
 C285 C 0.62350 0.53809 -0.28761
 C286 C 0.64425 0.53103 -0.27733
 C287 C 0.64443 0.51396 -0.26020
 C288 C 0.62387 0.50353 -0.25299
 C289 C 0.60312 0.51056 -0.26329
 C290 C 0.60293 0.52767 -0.28039
 C291 C 0.62409 0.48538 -0.23478
 C292 C 0.61016 0.46583 -0.23681
 C293 C 0.61048 0.44869 -0.21974
 C294 C 0.62474 0.45071 -0.20019
 C295 C 0.63862 0.47034 -0.19816
 C296 C 0.63830 0.48745 -0.21524
 H297 H 0.59296 0.57353 -0.29278
 H298 H 0.59262 0.60337 -0.32241
 H299 H 0.65382 0.57363 -0.35298
 H300 H 0.65366 0.54370 -0.32348
 H301 H 0.66035 0.53889 -0.28234
 H302 H 0.66072 0.50874 -0.25277
 H303 H 0.58698 0.50301 -0.25795
 H304 H 0.58670 0.53258 -0.28815
 H305 H 0.59926 0.46359 -0.25183
 H306 H 0.59971 0.43379 -0.22209
 H307 H 0.64964 0.47270 -0.18329
 H308 H 0.64898 0.50248 -0.21300
 C309 C 0.37616 1.05707 0.80438
 C310 C 0.39320 1.07412 0.80463
 C311 C 0.39323 1.09102 0.82176
 C312 C 0.37621 1.09124 0.83908
 C313 C 0.35918 1.07416 0.83883
 C314 C 0.35916 1.05728 0.82168
 C315 C 0.37609 1.03914 0.78615
 C316 C 0.35537 1.03209 0.77598
 C317 C 0.35528 1.01519 0.75886
 C318 C 0.37592 1.00493 0.75154
 C319 C 0.39665 1.01198 0.76170
 C320 C 0.39674 1.02891 0.77880
 C321 C 0.37580 0.98690 0.73340
 C322 C 0.39002 0.96744 0.73541
 C323 C 0.38978 0.95039 0.71843
 C324 C 0.37530 0.95240 0.69902
 C325 C 0.36113 0.97194 0.69700
 C326 C 0.36138 0.98897 0.71399
 H327 H 0.40636 1.07459 0.79137
 H328 H 0.40657 1.10393 0.82137
 H329 H 0.34585 1.07374 0.85192
 H330 H 0.34598 1.04420 0.82214
 H331 H 0.33921 1.03982 0.78109
 H332 H 0.33901 1.00996 0.75154
 H333 H 0.41285 1.00457 0.75626
 H334 H 0.41296 1.03381 0.78646
 H335 H 0.40109 0.96518 0.75033
 H336 H 0.40077 0.93554 0.72076
 H337 H 0.34994 0.97428 0.68222
 H338 H 0.35047 1.00393 0.71176
 C339 C 0.87724 0.44430 0.19525
 C340 C 0.89419 0.42705 0.19511
 C341 C 0.89413 0.41002 0.17811
 C342 C 0.87710 0.40984 0.16084
 C343 C 0.86018 0.42716 0.16095
 C344 C 0.86026 0.44418 0.17795
 C345 C 0.87720 0.46229 0.21343
 C346 C 0.85648 0.46962 0.22353
 C347 C 0.85643 0.48646 0.24070
 C348 C 0.87711 0.49638 0.24817
 C349 C 0.89783 0.48908 0.23803
 C350 C 0.89788 0.47222 0.22087
 C351 C 0.87705 0.51425 0.26646
 C352 C 0.89153 0.53346 0.26475
 C353 C 0.89141 0.55030 0.28194
 C354 C 0.87680 0.54834 0.30126
 C355 C 0.86236 0.52908 0.30297
 C356 C 0.86248 0.51225 0.28579
 H357 H 0.90733 0.42650 0.20837
 H358 H 0.90739 0.39693 0.17862
 H359 H 0.84685 0.42762 0.14788
 H360 H 0.84715 0.45741 0.17740
 H361 H 0.84028 0.46213 0.21835
 H362 H 0.84016 0.49189 0.24799
 H363 H 0.91407 0.49623 0.24357
 H364 H 0.91411 0.46711 0.21326
 H365 H 0.90271 0.53567 0.24990
 H366 H 0.90261 0.56496 0.27985
 H367 H 0.85107 0.52679 0.31769
 H368 H 0.85138 0.49747 0.28780
 C369 C 0.30686 0.12569 -0.05676
 C370 C 0.30702 0.10890 -0.07418
 C371 C 0.32408 0.10890 -0.09123
 C372 C 0.34140 0.12569 -0.09127
 C373 C 0.34123 0.14249 -0.07383
 C374 C 0.32415 0.14249 -0.05679
 C375 C 0.28873 0.12567 -0.03864
 C376 C 0.27876 0.14640 -0.03118
 C377 C 0.26167 0.14637 -0.01416
 C378 C 0.25418 0.12562 -0.00417
 C379 C 0.26416 0.10490 -0.01160
 C380 C 0.28123 0.10492 -0.02865
 C381 C 0.23602 0.12558 0.01393
 C382 C 0.23768 0.11089 0.03326
 C383 C 0.22057 0.11082 0.05026
 C384 C 0.20137 0.12544 0.04835
 C385 C 0.19974 0.14015 0.02900
 C386 C 0.21686 0.14022 0.01200
 H387 H 0.29376 0.09591 -0.07481
 H388 H 0.32362 0.09574 -0.10442
 H389 H 0.35432 0.15565 -0.07326
 H390 H 0.32467 0.15548 -0.04343
 H391 H 0.28400 0.16265 -0.03871
 H392 H 0.25449 0.16264 -0.00863
 H393 H 0.25859 0.08861 -0.00442
 H394 H 0.28873 0.08869 -0.03384
 H395 H 0.25240 0.09966 0.03542
 H396 H 0.22261 0.09943 0.06500
 H397 H 0.18514 0.15147 0.02674
 H398 H 0.21491 0.15150 -0.00286
 C399 C 0.69272 0.62643 0.55691
 C400 C 0.69249 0.60924 0.57412
 C401 C 0.67547 0.60907 0.59121
 C402 C 0.65826 0.62609 0.59149
 C403 C 0.65852 0.64330 0.57429
 C404 C 0.67556 0.64347 0.55721
 C405 C 0.71076 0.62653 0.53869
 C406 C 0.72088 0.64726 0.53142
 C407 C 0.73788 0.64733 0.51431
 C408 C 0.74513 0.62668 0.50404
 C409 C 0.73498 0.60596 0.51128
 C410 C 0.71801 0.60588 0.52842
 C411 C 0.76322 0.62673 0.48587
 C412 C 0.76134 0.61247 0.46640
 C413 C 0.77843 0.61240 0.44938
 C414 C 0.79784 0.62658 0.45142
 C415 C 0.79965 0.64090 0.47089
 C416 C 0.78255 0.64097 0.48790
 H417 H 0.70566 0.59606 0.57454
 H418 H 0.67586 0.59559 0.60421
 H419 H 0.64551 0.65664 0.57392
 H420 H 0.67511 0.65677 0.54402
 H421 H 0.71583 0.66342 0.53916
 H422 H 0.74520 0.66360 0.50893
 H423 H 0.74036 0.58974 0.50388
 H424 H 0.71037 0.58966 0.53346
 H425 H 0.74648 0.60157 0.46415
 H426 H 0.77624 0.60134 0.43454
 H427 H 0.81441 0.65188 0.47324
 H428 H 0.78466 0.65191 0.50287
 C429 C 0.80668 0.37419 0.05807
 C430 C 0.80707 0.39133 0.07514
 C431 C 0.82423 0.39144 0.09206
 C432 C 0.84145 0.37443 0.09229
 C433 C 0.84103 0.35726 0.07522
 C434 C 0.82384 0.35715 0.05833
 C435 C 0.78852 0.37416 0.04001
 C436 C 0.77835 0.35346 0.03298
 C437 C 0.76131 0.35343 0.01593
 C438 C 0.75408 0.37410 0.00549
 C439 C 0.76423 0.39481 0.01254
 C440 C 0.78124 0.39484 0.02961
 C441 C 0.73606 0.37408 -0.01272
 C442 C 0.73805 0.38831 -0.03235
 C443 C 0.72110 0.38831 -0.04949
 C444 C 0.70173 0.37406 -0.04742
 C445 C 0.69977 0.35981 -0.02775
 C446 C 0.71673 0.35982 -0.01062
 H447 H 0.79391 0.40452 0.07559
 H448 H 0.82397 0.40488 0.10496
 H449 H 0.85404 0.34392 0.07482
 H450 H 0.82419 0.34389 0.04523
 H451 H 0.78342 0.33727 0.04083
 H452 H 0.75399 0.33718 0.01071
 H453 H 0.75886 0.41104 0.00500
 H454 H 0.78890 0.41104 0.03448
 H455 H 0.75291 0.39924 -0.03465
 H456 H 0.72341 0.39933 -0.06446
 H457 H 0.68503 0.34878 -0.02537
 H458 H 0.71453 0.34889 0.00447
 C459 C 0.19119 0.87419 0.44378
 C460 C 0.17426 0.85704 0.44349
 C461 C 0.15732 0.85702 0.42634
 C462 C 0.15692 0.87415 0.40905
 C463 C 0.17388 0.89132 0.40937
 C464 C 0.19080 0.89133 0.42653
 C465 C 0.20922 0.87419 0.46198
 C466 C 0.21628 0.89487 0.47220
 C467 C 0.23328 0.89487 0.48929
 C468 C 0.24364 0.87419 0.49653
 C469 C 0.23657 0.85351 0.48632
 C470 C 0.21955 0.85350 0.46925
 C471 C 0.26177 0.87421 0.51463
 C472 C 0.28120 0.85997 0.51256
 C473 C 0.29831 0.86004 0.52954
 C474 C 0.29640 0.87434 0.54902
 C475 C 0.27693 0.88856 0.55108
 C476 C 0.25983 0.88849 0.53410
 H477 H 0.17392 0.84378 0.45672
 H478 H 0.14450 0.84357 0.42669
 H479 H 0.17416 0.90474 0.39630
 H480 H 0.20379 0.90460 0.42610
 H481 H 0.20849 0.91106 0.46715
 H482 H 0.23851 0.91112 0.49665
 H483 H 0.24405 0.83727 0.49170
 H484 H 0.21466 0.83731 0.46155
 H485 H 0.28337 0.84903 0.49759
 H486 H 0.31312 0.84904 0.52716
 H487 H 0.27467 0.89961 0.56593
 H488 H 0.24490 0.89939 0.53637
   
