data_POSCAR
  _audit_creation_date              2014-09-24
  _audit_creation_method            'ToBaCCo'
  _symmetry_space_group_name_H-M    'P1'
  _symmetry_Int_Tables_number       1
  _symmetry_cell_setting            triclinic
  loop_
  _symmetry_equiv_pos_as_xyz
 x,y,z
_cell_length_a 49.1769
_cell_length_b 48.3499
_cell_length_c 35.1462
_cell_angle_alpha 89.969800
_cell_angle_beta 89.309000
_cell_angle_gamma 89.914400
loop_
  _atom_site_label
  _atom_site_type_symbol
  _atom_site_fract_x
  _atom_site_fract_y
  _atom_site_fract_z
C1 C 1.24637 0.24815 0.24424
 C2 C 0.75321 -0.25443 0.25452
 C3 C 0.75009 0.24616 -0.24589
 C4 C 1.24679 -0.25012 -0.25284
 C5 C 0.24850 0.25135 0.75076
 C6 C 0.75508 0.75328 0.74897
 C7 C 0.75585 0.25355 0.24858
 C8 C 0.24695 0.75077 0.25313
 O9 O 1.04764 -0.03784 0.06845
 O10 O 1.02325 -0.06948 0.03428
 C11 C 1.04149 -0.06300 0.05921
 O12 O 0.94817 0.03866 0.06434
 O13 O 0.97442 0.06902 0.02986
 C14 C 0.95462 0.06348 0.05342
 O15 O 0.95210 -0.03805 0.07238
 O16 O 0.97611 -0.06952 0.03645
 C17 C 0.95829 -0.06319 0.06259
 O18 O 1.04997 0.03874 0.06178
 O19 O 1.02389 0.06909 0.02773
 C20 C 1.04352 0.06349 0.05092
 Zr21 Zr 1.03349 0.00016 0.04691
 O22 O 1.03237 0.00425 0.10691
 O23 O 1.07643 -0.00268 0.04759
 Zr24 Zr 0.96576 0.00010 0.05019
 O25 O 0.97175 0.00282 0.10949
 O26 O 0.92320 -0.00127 0.05915
 O27 O 0.99978 -0.02485 0.05685
 O28 O 0.99958 0.02494 0.05449
 O29 O 1.04837 0.03637 -0.06807
 O30 O 1.02258 0.06787 -0.03480
 C31 C 1.04186 0.06153 -0.05881
 O32 O 0.95036 -0.04081 -0.06489
 O33 O 0.97508 -0.07086 -0.02841
 C34 C 0.95676 -0.06555 -0.05374
 O35 O 0.94747 0.03613 -0.06382
 O36 O 0.97346 0.06779 -0.03215
 C37 C 0.95370 0.06127 -0.05459
 O38 O 1.04501 -0.04079 -0.06962
 O39 O 1.02166 -0.07088 -0.03075
 C40 C 1.03885 -0.06556 -0.05809
 Zr41 Zr 1.03202 -0.00175 -0.04947
 O42 O 1.02713 -0.00126 -0.10911
 O43 O 1.07479 -0.00459 -0.05554
 Zr44 Zr 0.96421 -0.00185 -0.04625
 O45 O 0.96519 -0.00021 -0.10648
 O46 O 0.92125 -0.00464 -0.04639
 Zr47 Zr 0.99898 -0.04227 0.00190
 Zr48 Zr 0.99874 0.04077 -0.00123
 O49 O 0.99795 0.02267 -0.05562
 O50 O 0.99809 -0.02697 -0.05423
 O51 O 1.03821 0.02364 -0.00245
 O52 O 0.95982 -0.02468 0.00310
 O53 O 1.03805 -0.02462 -0.00067
 O54 O 0.95940 0.02344 0.00126
 H55 H 0.99971 0.03834 0.07582
 H56 H 0.94357 -0.03674 0.00418
 H57 H 0.99757 0.03509 -0.07806
 H58 H 1.05437 -0.03666 -0.00114
 H59 H 0.91494 -0.00322 0.03383
 H60 H 0.91416 0.00918 -0.02801
 H61 H 0.97598 -0.01622 -0.11562
 H62 H 1.04574 -0.00149 -0.12023
 H63 H 1.08272 0.00711 -0.03549
 H64 H 1.08356 0.01022 0.02807
 H65 H 1.02238 -0.01186 0.11740
 H66 H 0.95334 0.00366 0.12118
 O67 O 1.04398 0.46024 0.57546
 O68 O 1.02086 0.42932 0.53847
 C69 C 1.03782 0.43523 0.56528
 O70 O 0.94671 0.53819 0.56388
 O71 O 0.97443 0.56846 0.53164
 C72 C 0.95380 0.56299 0.55378
 O73 O 0.94937 0.46119 0.57082
 O74 O 0.97453 0.42974 0.53645
 C75 C 0.95584 0.43607 0.56138
 O76 O 1.04738 0.53720 0.57026
 O77 O 1.02311 0.56793 0.53437
 C78 C 1.04147 0.56211 0.55934
 Zr79 Zr 1.03167 0.49869 0.55284
 O80 O 1.02820 0.50206 0.61277
 O81 O 1.07450 0.49542 0.55657
 Zr82 Zr 0.96374 0.49932 0.54961
 O83 O 0.96304 0.49891 0.60997
 O84 O 0.92082 0.49864 0.54654
 O85 O 0.99726 0.47414 0.55899
 O86 O 0.99765 0.52363 0.55761
 O87 O 1.05281 0.53534 0.44081
 O88 O 1.02592 0.56712 0.47179
 C89 C 1.04633 0.56053 0.44974
 O90 O 0.95318 0.45956 0.43330
 O91 O 0.97623 0.42897 0.47106
 C92 C 0.95889 0.43466 0.44459
 O93 O 0.95073 0.53647 0.43594
 O94 O 0.97611 0.56760 0.46961
 C95 C 0.95698 0.56148 0.44589
 O96 O 1.04857 0.45880 0.43722
 O97 O 1.02323 0.42844 0.47315
 C98 C 1.04182 0.43399 0.44770
 Zr99 Zr 1.03459 0.49760 0.45645
 O100 O 1.03157 0.49863 0.39654
 O101 O 1.07742 0.49516 0.45220
 Zr102 Zr 0.96690 0.49824 0.45343
 O103 O 0.97098 0.50048 0.39345
 O104 O 0.92409 0.49654 0.44910
 Zr105 Zr 0.99894 0.45699 0.50394
 Zr106 Zr 0.99972 0.54008 0.50226
 O107 O 1.00122 0.52257 0.44754
 O108 O 1.00079 0.47274 0.44805
 O109 O 1.03893 0.52249 0.50443
 O110 O 0.96000 0.47487 0.50186
 O111 O 1.03817 0.47423 0.50538
 O112 O 0.96024 0.52328 0.50080
 H113 H 0.99702 0.53679 0.57918
 H114 H 0.94362 0.46297 0.50152
 H115 H 1.00203 0.53534 0.42548
 H116 H 1.05429 0.46195 0.50643
 H117 H 0.91390 0.49872 0.57316
 H118 H 0.91657 0.50432 0.47304
 H119 H 0.98091 0.48374 0.38489
 H120 H 1.05050 0.49862 0.38658
 H121 H 1.08437 0.49754 0.47823
 H122 H 1.08252 0.50984 0.53992
 H123 H 1.01522 0.48772 0.62153
 H124 H 0.96658 0.51784 0.61933
 O125 O 0.53861 0.04654 0.56718
 O126 O 0.56938 0.02363 0.52902
 C127 C 0.56329 0.04055 0.55655
 O128 O 0.46335 -0.05123 0.55970
 O129 O 0.43288 -0.02494 0.52643
 C130 C 0.43878 -0.04458 0.55028
 O131 O 0.53878 -0.04894 0.56281
 O132 O 0.56946 -0.02390 0.52727
 C133 C 0.56345 -0.04237 0.55293
 O134 O 0.46322 0.04960 0.56397
 O135 O 0.43289 0.02504 0.52818
 C136 C 0.43870 0.04361 0.55362
 Zr137 Zr 0.50101 0.03441 0.54434
 O138 O 0.50091 0.03639 0.60454
 O139 O 0.50180 0.07803 0.54052
 Zr140 Zr 0.50111 -0.03492 0.54200
 O141 O 0.49822 -0.03509 0.60216
 O142 O 0.50408 -0.07862 0.54119
 O143 O 0.52544 -0.00043 0.55058
 O144 O 0.47702 -0.00043 0.55026
 O145 O 0.46398 0.05301 0.43216
 O146 O 0.43320 0.02604 0.46476
 C147 C 0.43928 0.04607 0.44142
 O148 O 0.53988 -0.04633 0.42440
 O149 O 0.56995 -0.02250 0.46146
 C150 C 0.56437 -0.04000 0.43464
 O151 O 0.46410 -0.04935 0.42849
 O152 O 0.43329 -0.02379 0.46319
 C153 C 0.43939 -0.04295 0.43854
 O154 O 0.53959 0.05056 0.42801
 O155 O 0.56984 0.02509 0.46286
 C156 C 0.56414 0.04382 0.43758
 Zr157 Zr 0.50163 0.03621 0.44861
 O158 O 0.49896 0.03602 0.38850
 O159 O 0.50398 0.07990 0.44897
 Zr160 Zr 0.50174 -0.03297 0.44589
 O161 O 0.49886 -0.02978 0.38595
 O162 O 0.50482 -0.07650 0.44159
 Zr163 Zr 0.54230 0.00061 0.49515
 Zr164 Zr 0.46036 0.00057 0.49548
 O165 O 0.47767 0.00174 0.44046
 O166 O 0.52634 0.00177 0.43970
 O167 O 0.47698 0.04073 0.49684
 O168 O 0.52501 -0.03917 0.49369
 O169 O 0.52510 0.04047 0.49668
 O170 O 0.47723 -0.03956 0.49388
 H171 H 0.46432 -0.00099 0.57233
 H172 H 0.53699 -0.05567 0.49310
 H173 H 0.46529 0.00215 0.41843
 H174 H 0.53718 0.05684 0.49742
 H175 H 0.48940 -0.08568 0.52487
 H176 H 0.49227 -0.08446 0.46084
 H177 H 0.51575 -0.02101 0.37630
 H178 H 0.51545 0.02678 0.37825
 H179 H 0.49211 0.08650 0.47002
 H180 H 0.50240 0.08495 0.56702
 H181 H 0.49063 0.02031 0.61435
 H182 H 0.51287 -0.02306 0.61181
 O183 O 0.53798 0.54821 0.07063
 O184 O 0.56873 0.52437 0.03355
 C185 C 0.56266 0.54179 0.06048
 O186 O 0.46216 0.44948 0.06219
 O187 O 0.43201 0.47650 0.02945
 C188 C 0.43765 0.45647 0.05281
 O189 O 0.53778 0.45149 0.06616
 O190 O 0.56865 0.47694 0.03149
 C191 C 0.56250 0.45817 0.05666
 O192 O 0.46240 0.55147 0.06653
 O193 O 0.43217 0.52630 0.03145
 C194 C 0.43787 0.54525 0.05637
 Zr195 Zr 0.50028 0.53515 0.04882
 O196 O 0.49634 0.53194 0.10875
 O197 O 0.50334 0.57869 0.05308
 Zr198 Zr 0.50017 0.46599 0.04560
 O199 O 0.49638 0.46595 0.10570
 O200 O 0.50301 0.42229 0.04520
 O201 O 0.52473 0.50029 0.05480
 O202 O 0.47611 0.50050 0.05397
 O203 O 0.46393 0.55424 -0.06443
 O204 O 0.43286 0.52762 -0.03186
 C205 C 0.43918 0.54750 -0.05529
 O206 O 0.53946 0.45509 -0.07191
 O207 O 0.56946 0.47868 -0.03447
 C208 C 0.56393 0.46132 -0.06149
 O209 O 0.46386 0.45242 -0.06881
 O210 O 0.43289 0.47759 -0.03382
 C211 C 0.43915 0.45870 -0.05880
 O212 O 0.53947 0.55170 -0.06755
 O213 O 0.56949 0.52617 -0.03245
 C214 C 0.56395 0.54489 -0.05780
 Zr215 Zr 0.50139 0.53753 -0.04725
 O216 O 0.49897 0.53768 -0.10739
 O217 O 0.50441 0.58121 -0.04665
 Zr218 Zr 0.50132 0.46840 -0.05048
 O219 O 0.49879 0.47157 -0.11046
 O220 O 0.50430 0.42482 -0.05452
 Zr221 Zr 0.54170 0.50163 -0.00061
 Zr222 Zr 0.45978 0.50191 -0.00106
 O223 O 0.47739 0.50319 -0.05589
 O224 O 0.52603 0.50307 -0.05619
 O225 O 0.47663 0.54200 0.00088
 O226 O 0.52431 0.46189 -0.00255
 O227 O 0.52442 0.54148 0.00116
 O228 O 0.47653 0.46171 -0.00282
 H229 H 0.46336 0.50007 0.07601
 H230 H 0.53625 0.44537 -0.00327
 H231 H 0.46517 0.50371 -0.07809
 H232 H 0.53641 0.55792 0.00197
 H233 H 0.48909 0.41530 0.02757
 H234 H 0.49084 0.41691 -0.03647
 H235 H 0.51556 0.48069 -0.11988
 H236 H 0.51539 0.52829 -0.11760
 H237 H 0.48999 0.58829 -0.02937
 H238 H 0.49055 0.58673 0.03461
 H239 H 0.51287 0.52271 0.11834
 H240 H 0.51273 0.47500 0.11608
 C241 C 1.21766 0.21513 0.15216
 C242 C 1.19755 0.19800 0.16781
 C243 C 1.19569 0.19458 0.20717
 C244 C 1.21254 0.20964 0.23099
 C245 C 1.23114 0.22921 0.21605
 C246 C 1.23474 0.23022 0.17605
 C247 C 1.17783 0.18460 0.14433
 C248 C 1.16015 0.17288 0.12732
 C249 C 1.13873 0.15813 0.11053
 C250 C 1.12039 0.14419 0.09881
 C251 C 1.09914 0.12556 0.08788
 C252 C 1.09583 0.10112 0.10860
 C253 C 1.07676 0.08159 0.09748
 C254 C 1.06058 0.08621 0.06536
 C255 C 1.06312 0.11139 0.04555
 C256 C 1.08247 0.13096 0.05667
 H257 H 1.21981 0.21724 0.12159
 H258 H 1.18056 0.18091 0.21959
 H259 H 1.20989 0.20728 0.26144
 H260 H 1.25026 0.24290 0.16286
 H261 H 1.10849 0.09682 0.13294
 H262 H 1.07517 0.06252 0.11354
 H263 H 1.05097 0.11544 0.02070
 H264 H 1.08483 0.14991 0.04052
 C265 C 1.20212 0.69171 0.70530
 C266 C 1.18652 0.70647 0.67929
 C267 C 1.19103 0.73470 0.67400
 C268 C 1.21106 0.74816 0.69485
 C269 C 1.22753 0.73354 0.72085
 C270 C 1.22212 0.70507 0.72624
 C271 C 1.16495 0.69263 0.65981
 C272 C 1.14702 0.67987 0.64486
 C273 C 1.12655 0.66333 0.62897
 C274 C 1.10981 0.64767 0.61671
 C275 C 1.09112 0.62707 0.60365
 C276 C 1.07137 0.63330 0.57659
 C277 C 1.05444 0.61237 0.56291
 C278 C 1.05733 0.58499 0.57600
 C279 C 1.07681 0.57925 0.60391
 C280 C 1.09353 0.60013 0.61757
 H281 H 1.19827 0.66993 0.71029
 H282 H 1.17865 0.74646 0.65445
 H283 H 1.21339 0.77027 0.69127
 H284 H 1.23230 0.69307 0.74775
 H285 H 1.06934 0.65415 0.56568
 H286 H 1.03953 0.61750 0.54163
 H287 H 1.07957 0.55848 0.61478
 H288 H 1.10874 0.59512 0.63858
 C289 C 0.69604 0.19124 0.73127
 C290 C 0.70259 0.18393 0.69381
 C291 C 0.72409 0.19715 0.67496
 C292 C 0.73903 0.21762 0.69340
 C293 C 0.73233 0.22588 0.73103
 C294 C 0.71092 0.21169 0.74981
 C295 C 0.68757 0.16248 0.67500
 C296 C 0.67464 0.14465 0.65954
 C297 C 0.65873 0.12414 0.64193
 C298 C 0.64414 0.10722 0.62749
 C299 C 0.62518 0.08805 0.61120
 C300 C 0.63144 0.07366 0.57760
 C301 C 0.61170 0.05707 0.56042
 C302 C 0.58546 0.05497 0.57658
 C303 C 0.57979 0.06878 0.61103
 C304 C 0.59949 0.08514 0.62814
 H305 H 0.67966 0.18086 0.74638
 H306 H 0.72971 0.19124 0.64618
 H307 H 0.75643 0.22596 0.67832
 H308 H 0.70594 0.21635 0.77922
 H309 H 0.65127 0.07582 0.56418
 H310 H 0.61664 0.04679 0.53387
 H311 H 0.55987 0.06748 0.62439
 H312 H 0.59442 0.09616 0.65413
 C313 C 0.69901 0.69070 0.23246
 C314 C 0.70525 0.68338 0.19491
 C315 C 0.72673 0.69645 0.17579
 C316 C 0.74190 0.71684 0.19403
 C317 C 0.73545 0.72515 0.23170
 C318 C 0.71411 0.71106 0.25078
 C319 C 0.68981 0.66217 0.17630
 C320 C 0.67640 0.64458 0.16113
 C321 C 0.65988 0.62440 0.14396
 C322 C 0.64477 0.60778 0.12991
 C323 C 0.62528 0.58900 0.11402
 C324 C 0.63150 0.57339 0.08147
 C325 C 0.61145 0.55701 0.06468
 C326 C 0.58493 0.55631 0.08017
 C327 C 0.57923 0.57141 0.11356
 C328 C 0.59925 0.58759 0.13030
 H329 H 0.68265 0.68043 0.24778
 H330 H 0.73209 0.69053 0.14692
 H331 H 0.75922 0.72515 0.17873
 H332 H 0.70930 0.71579 0.28022
 H333 H 0.65160 0.57439 0.06859
 H334 H 0.61645 0.54569 0.03896
 H335 H 0.55910 0.57122 0.12639
 H336 H 0.59421 0.59956 0.15548
 C337 C 0.81990 -0.22084 0.21738
 C338 C 0.81102 -0.20713 0.18495
 C339 C 0.78357 -0.20812 0.17510
 C340 C 0.76518 -0.22338 0.19739
 C341 C 0.77407 -0.23861 0.22929
 C342 C 0.80169 -0.23596 0.23964
 C343 C 0.83022 -0.19079 0.16370
 C344 C 0.84733 -0.17694 0.14815
 C345 C 0.86796 -0.16021 0.13238
 C346 C 0.88553 -0.14509 0.12058
 C347 C 0.90586 -0.12574 0.10811
 C348 C 0.90642 -0.09949 0.12467
 C349 C 0.92455 -0.07959 0.11113
 C350 C 0.94244 -0.08566 0.08071
 C351 C 0.94267 -0.11256 0.06540
 C352 C 0.92434 -0.13248 0.07895
 H353 H 0.84094 -0.21939 0.22600
 H354 H 0.77634 -0.19687 0.15054
 H355 H 0.74393 -0.22348 0.18968
 H356 H 0.80950 -0.24487 0.26550
 H357 H 0.89230 -0.09415 0.14742
 H358 H 0.92392 -0.05915 0.12372
 H359 H 0.95622 -0.11790 0.04205
 H360 H 0.92413 -0.15284 0.06609
 C361 C 0.78031 0.29248 0.67461
 C362 C 0.80782 0.29323 0.68414
 C363 C 0.81677 0.27957 0.71658
 C364 C 0.79856 0.26462 0.73908
 C365 C 0.77089 0.26211 0.72895
 C366 C 0.76192 0.27741 0.69716
 C367 C 0.82704 0.30923 0.66243
 C368 C 0.84417 0.32281 0.64645
 C369 C 0.86479 0.33929 0.63018
 C370 C 0.88237 0.35429 0.61810
 C371 C 0.90268 0.37363 0.60557
 C372 C 0.90328 0.39981 0.62231
 C373 C 0.92154 0.41968 0.60905
 C374 C 0.93954 0.41364 0.57876
 C375 C 0.93965 0.38684 0.56313
 C376 C 0.92118 0.36694 0.57641
 H377 H 0.77303 0.30370 0.65007
 H378 H 0.83787 0.28088 0.72496
 H379 H 0.80642 0.25568 0.76489
 H380 H 0.74064 0.27741 0.68963
 H381 H 0.88915 0.40511 0.64507
 H382 H 0.92101 0.44003 0.62190
 H383 H 0.95326 0.38157 0.53982
 H384 H 0.92093 0.34663 0.56341
 C385 C 0.28630 -0.21290 0.66570
 C386 C 0.29920 -0.19180 0.68573
 C387 C 0.29718 -0.19107 0.72543
 C388 C 0.28118 -0.21049 0.74483
 C389 C 0.26602 -0.23045 0.72483
 C390 C 0.27029 -0.23235 0.68503
 C391 C 0.31448 -0.17087 0.66562
 C392 C 0.32738 -0.15324 0.64918
 C393 C 0.34316 -0.13273 0.63073
 C394 C 0.35773 -0.11563 0.61605
 C395 C 0.37690 -0.09613 0.60026
 C396 C 0.37061 -0.07961 0.56872
 C397 C 0.39038 -0.06196 0.55286
 C398 C 0.41664 -0.06092 0.56828
 C399 C 0.42236 -0.07712 0.60052
 C400 C 0.40269 -0.09450 0.61629
 H401 H 0.28848 -0.21425 0.63504
 H402 H 0.30766 -0.17526 0.74139
 H403 H 0.27968 -0.20927 0.77555
 H404 H 0.26123 -0.24867 0.66848
 H405 H 0.35067 -0.08072 0.55606
 H406 H 0.38539 -0.04979 0.52804
 H407 H 0.44225 -0.07669 0.61339
 H408 H 0.40778 -0.10709 0.64073
 C409 C 0.26459 0.31077 0.18067
 C410 C 0.29221 0.31458 0.18781
 C411 C 0.30520 0.29749 0.21408
 C412 C 0.29089 0.27624 0.23245
 C413 C 0.26331 0.27102 0.22405
 C414 C 0.25023 0.28957 0.19899
 C415 C 0.30735 0.33594 0.16828
 C416 C 0.32074 0.35337 0.15214
 C417 C 0.33757 0.37312 0.13378
 C418 C 0.35320 0.38917 0.11891
 C419 C 0.37367 0.40706 0.10255
 C420 C 0.40063 0.40358 0.11367
 C421 C 0.42114 0.41989 0.09774
 C422 C 0.41515 0.44014 0.07023
 C423 C 0.38789 0.44384 0.05944
 C424 C 0.36725 0.42731 0.07549
 H425 H 0.25413 0.32417 0.16091
 H426 H 0.32645 0.30067 0.22057
 H427 H 0.30160 0.26440 0.25360
 H428 H 0.22878 0.28733 0.19315
 H429 H 0.40587 0.38802 0.13455
 H430 H 0.44180 0.41642 0.10694
 H431 H 0.38257 0.45922 0.03840
 H432 H 0.34642 0.43019 0.06663
 C433 C 0.77809 0.21301 -0.15342
 C434 C 0.79791 0.19541 -0.16892
 C435 C 0.79974 0.19179 -0.20822
 C436 C 0.78321 0.20710 -0.23218
 C437 C 0.76491 0.22708 -0.21744
 C438 C 0.76128 0.22833 -0.17747
 C439 C 0.81753 0.18184 -0.14547
 C440 C 0.83527 0.16992 -0.12880
 C441 C 0.85683 0.15496 -0.11271
 C442 C 0.87530 0.14090 -0.10161
 C443 C 0.89669 0.12226 -0.09120
 C444 C 0.89825 0.09665 -0.10946
 C445 C 0.91774 0.07737 -0.09872
 C446 C 0.93606 0.08342 -0.06948
 C447 C 0.93518 0.10971 -0.05231
 C448 C 0.91544 0.12903 -0.06303
 H449 H 0.77601 0.21532 -0.12287
 H450 H 0.81467 0.17779 -0.22050
 H451 H 0.78589 0.20460 -0.26261
 H452 H 0.74598 0.24141 -0.16445
 H453 H 0.88396 0.09132 -0.13152
 H454 H 0.91796 0.05741 -0.11271
 H455 H 0.94902 0.11494 -0.02974
 H456 H 0.91446 0.14892 -0.04889
 C457 C 0.78138 0.71305 0.34731
 C458 C 0.80111 0.69530 0.33194
 C459 C 0.80281 0.69137 0.29268
 C460 C 0.78624 0.70654 0.26862
 C461 C 0.76802 0.72666 0.28319
 C462 C 0.76452 0.72823 0.32315
 C463 C 0.82085 0.68190 0.35538
 C464 C 0.83872 0.67011 0.37193
 C465 C 0.86047 0.65529 0.38777
 C466 C 0.87910 0.64135 0.39862
 C467 C 0.90069 0.62288 0.40878
 C468 C 0.90318 0.59785 0.38918
 C469 C 0.92260 0.57851 0.40001
 C470 C 0.93991 0.58394 0.43065
 C471 C 0.93822 0.60974 0.44907
 C472 C 0.91855 0.62910 0.43828
 H473 H 0.77941 0.71559 0.37785
 H474 H 0.81768 0.67726 0.28050
 H475 H 0.78883 0.70382 0.23821
 H476 H 0.74929 0.74144 0.33608
 H477 H 0.88957 0.59295 0.36612
 H478 H 0.92346 0.55893 0.38509
 H479 H 0.95126 0.61447 0.47276
 H480 H 0.91684 0.64852 0.45350
 C481 C 0.30053 0.19306 0.26755
 C482 C 0.29434 0.18626 0.30534
 C483 C 0.27272 0.19950 0.32396
 C484 C 0.25750 0.21964 0.30513
 C485 C 0.26406 0.22765 0.26733
 C486 C 0.28535 0.21319 0.24862
 C487 C 0.31006 0.16559 0.32491
 C488 C 0.32368 0.14857 0.34114
 C489 C 0.34051 0.12916 0.35966
 C490 C 0.35601 0.11329 0.37470
 C491 C 0.37623 0.09551 0.39131
 C492 C 0.40341 0.09909 0.38052
 C493 C 0.42365 0.08279 0.39659
 C494 C 0.41712 0.06245 0.42392
 C495 C 0.38964 0.05868 0.43442
 C496 C 0.36930 0.07519 0.41822
 H497 H 0.31698 0.18264 0.25257
 H498 H 0.26732 0.19397 0.35295
 H499 H 0.24010 0.22805 0.32016
 H500 H 0.29018 0.21753 0.21907
 H501 H 0.40905 0.11471 0.35975
 H502 H 0.44449 0.08632 0.38762
 H503 H 0.38392 0.04322 0.45531
 H504 H 0.34828 0.07223 0.42682
 C505 C 0.29828 0.69207 -0.23086
 C506 C 0.29948 0.69282 -0.19115
 C507 C 0.28564 0.71360 -0.17118
 C508 C 0.26951 0.73267 -0.19060
 C509 C 0.26610 0.73069 -0.23042
 C510 C 0.28218 0.71112 -0.25034
 C511 C 0.31486 0.67222 -0.17097
 C512 C 0.32785 0.65487 -0.15446
 C513 C 0.34374 0.63471 -0.13590
 C514 C 0.35841 0.61794 -0.12109
 C515 C 0.37772 0.59889 -0.10509
 C516 C 0.40431 0.59898 -0.11941
 C517 C 0.42392 0.58178 -0.10364
 C518 C 0.41733 0.56405 -0.07310
 C519 C 0.39034 0.56351 -0.05932
 C520 C 0.37062 0.58096 -0.07519
 H521 H 0.30949 0.67651 -0.24677
 H522 H 0.28715 0.71497 -0.14051
 H523 H 0.25970 0.74876 -0.17409
 H524 H 0.28133 0.70988 -0.28107
 H525 H 0.41004 0.61267 -0.14258
 H526 H 0.44440 0.58265 -0.11526
 H527 H 0.38464 0.55011 -0.03587
 H528 H 0.35004 0.58071 -0.06389
 C529 C 1.19977 -0.19307 -0.21115
 C530 C 1.18408 -0.20822 -0.18517
 C531 C 1.18923 -0.23634 -0.17990
 C532 C 1.20999 -0.24930 -0.20071
 C533 C 1.22657 -0.23427 -0.22664
 C534 C 1.22050 -0.20594 -0.23203
 C535 C 1.16189 -0.19489 -0.16555
 C536 C 1.14349 -0.18254 -0.15035
 C537 C 1.12251 -0.16648 -0.13399
 C538 C 1.10538 -0.15121 -0.12117
 C539 C 1.08628 -0.13104 -0.10723
 C540 C 1.08579 -0.10496 -0.12436
 C541 C 1.06951 -0.08402 -0.10917
 C542 C 1.05339 -0.08885 -0.07652
 C543 C 1.05306 -0.11550 -0.06037
 C544 C 1.06959 -0.13647 -0.07555
 H545 H 1.19545 -0.17139 -0.21611
 H546 H 1.17682 -0.24840 -0.16036
 H547 H 1.21284 -0.27135 -0.19712
 H548 H 1.23078 -0.19369 -0.25350
 H549 H 1.09863 -0.10056 -0.14890
 H550 H 1.07010 -0.06383 -0.12251
 H551 H 1.04079 -0.11989 -0.03532
 H552 H 1.06987 -0.15662 -0.06206
 C553 C 1.18011 0.28180 0.28340
 C554 C 1.18932 0.29482 0.31617
 C555 C 1.21699 0.29410 0.32489
 C556 C 1.23520 0.27947 0.30144
 C557 C 1.22591 0.26446 0.26962
 C558 C 1.19815 0.26725 0.26004
 C559 C 1.17014 0.30984 0.33939
 C560 C 1.15302 0.32255 0.35684
 C561 C 1.13233 0.33809 0.37489
 C562 C 1.11464 0.35243 0.38832
 C563 C 1.09414 0.37128 0.40197
 C564 C 1.09038 0.39611 0.38239
 C565 C 1.07229 0.41589 0.39644
 C566 C 1.05758 0.41113 0.43037
 C567 C 1.06046 0.38557 0.44906
 C568 C 1.07882 0.36575 0.43497
 H569 H 1.15889 0.28312 0.27560
 H570 H 1.22449 0.30486 0.34965
 H571 H 1.25657 0.27933 0.30853
 H572 H 1.19005 0.25864 0.23420
 H573 H 1.10201 0.40053 0.35672
 H574 H 1.07037 0.43527 0.38122
 H575 H 1.04947 0.38141 0.47530
 H576 H 1.08156 0.34651 0.45028
 C577 C 0.69489 -0.20338 0.28063
 C578 C 0.70778 -0.18592 0.30642
 C579 C 0.73507 -0.19035 0.31516
 C580 C 0.74926 -0.21243 0.29864
 C581 C 0.73630 -0.23117 0.27382
 C582 C 0.70902 -0.22548 0.26406
 C583 C 0.69290 -0.16341 0.32359
 C584 C 0.67968 -0.14498 0.33769
 C585 C 0.66312 -0.12408 0.35379
 C586 C 0.64785 -0.10701 0.36708
 C587 C 0.62811 -0.08783 0.38226
 C588 C 0.63365 -0.07195 0.41458
 C589 C 0.61325 -0.05536 0.43094
 C590 C 0.58704 -0.05474 0.41528
 C591 C 0.58205 -0.07010 0.38209
 C592 C 0.60242 -0.08648 0.36577
 H593 H 0.67391 -0.19973 0.27296
 H594 H 0.74543 -0.17668 0.33460
 H595 H 0.77053 -0.21504 0.30540
 H596 H 0.69848 -0.23752 0.24300
 H597 H 0.65346 -0.07292 0.42766
 H598 H 0.61771 -0.04384 0.45652
 H599 H 0.56218 -0.06997 0.36914
 H600 H 0.59790 -0.09869 0.34079
 C601 C 0.69195 0.29714 -0.21848
 C602 C 0.70504 0.31439 -0.19260
 C603 C 0.73236 0.30983 -0.18426
 C604 C 0.74641 0.28786 -0.20126
 C605 C 0.73328 0.26934 -0.22621
 C606 C 0.70595 0.27512 -0.23554
 C607 C 0.69037 0.33687 -0.17494
 C608 C 0.67747 0.35535 -0.16037
 C609 C 0.66136 0.37641 -0.14372
 C610 C 0.64648 0.39367 -0.13001
 C611 C 0.62713 0.41313 -0.11448
 C612 C 0.63267 0.42809 -0.08132
 C613 C 0.61251 0.44488 -0.06473
 C614 C 0.58654 0.44661 -0.08101
 C615 C 0.58161 0.43222 -0.11502
 C616 C 0.60174 0.41565 -0.13157
 H617 H 0.67093 0.30088 -0.22582
 H618 H 0.74287 0.32333 -0.16474
 H619 H 0.76771 0.28515 -0.19474
 H620 H 0.69527 0.26322 -0.25662
 H621 H 0.65225 0.42621 -0.06778
 H622 H 0.61689 0.45562 -0.03849
 H623 H 0.56193 0.43323 -0.12847
 H624 H 0.59721 0.40418 -0.15721
 C625 C 1.19230 0.23524 -0.17500
 C626 C 1.18822 0.20694 -0.18027
 C627 C 1.20437 0.19245 -0.20643
 C628 C 1.22439 0.20613 -0.22761
 C629 C 1.22931 0.23471 -0.22241
 C630 C 1.21239 0.24903 -0.19610
 C631 C 1.16653 0.19271 -0.16073
 C632 C 1.14856 0.17956 -0.14582
 C633 C 1.12807 0.16262 -0.12995
 C634 C 1.11133 0.14673 -0.11759
 C635 C 1.09260 0.12602 -0.10416
 C636 C 1.09684 0.09854 -0.11500
 C637 C 1.07983 0.07776 -0.10108
 C638 C 1.05820 0.08413 -0.07598
 C639 C 1.05359 0.11197 -0.06599
 C640 C 1.07080 0.13280 -0.07993
 H641 H 1.17954 0.24679 -0.15531
 H642 H 1.20090 0.17062 -0.21138
 H643 H 1.23494 0.19426 -0.24922
 H644 H 1.21437 0.27117 -0.19255
 H645 H 1.11363 0.09308 -0.13381
 H646 H 1.08401 0.05661 -0.10948
 H647 H 1.03703 0.11759 -0.04694
 H648 H 1.06731 0.15406 -0.07145
 C649 C 1.22079 0.71287 0.34224
 C650 C 1.19851 0.69888 0.32718
 C651 C 1.19408 0.69948 0.28811
 C652 C 1.21066 0.71539 0.26442
 C653 C 1.23165 0.73225 0.27927
 C654 C 1.23764 0.72884 0.31845
 C655 C 1.17955 0.68407 0.35106
 C656 C 1.16244 0.67130 0.36846
 C657 C 1.14165 0.65552 0.38588
 C658 C 1.12382 0.64093 0.39838
 C659 C 1.10311 0.62179 0.41060
 C660 C 1.10257 0.59559 0.39392
 C661 C 1.08340 0.57616 0.40578
 C662 C 1.06431 0.58258 0.43462
 C663 C 1.06436 0.60931 0.45049
 C664 C 1.08377 0.62882 0.43859
 H665 H 1.22501 0.71166 0.37238
 H666 H 1.17735 0.68807 0.27592
 H667 H 1.20612 0.71567 0.23435
 H668 H 1.25504 0.73869 0.33114
 H669 H 1.11728 0.59001 0.37202
 H670 H 1.08388 0.55587 0.39273
 H671 H 1.04995 0.61485 0.47272
 H672 H 1.08392 0.64915 0.45153
 C673 C 0.73171 0.18241 0.28797
 C674 C 0.70928 0.19011 0.31033
 C675 C 0.70247 0.21810 0.31378
 C676 C 0.71754 0.23818 0.29406
 C677 C 0.73916 0.23067 0.26924
 C678 C 0.74677 0.20241 0.26824
 C679 C 0.69311 0.16920 0.32921
 C680 C 0.67922 0.15161 0.34416
 C681 C 0.66225 0.13115 0.36071
 C682 C 0.64689 0.11410 0.37395
 C683 C 0.62717 0.09461 0.38860
 C684 C 0.63309 0.07729 0.41944
 C685 C 0.61296 0.05980 0.43467
 C686 C 0.58663 0.05964 0.41933
 C687 C 0.58126 0.07656 0.38767
 C688 C 0.60134 0.09384 0.37250
 H689 H 0.73767 0.16087 0.28589
 H690 H 0.68548 0.22444 0.33164
 H691 H 0.71208 0.25973 0.29773
 H692 H 0.76467 0.19547 0.25288
 H693 H 0.65304 0.07770 0.43217
 H694 H 0.61773 0.04713 0.45910
 H695 H 0.56130 0.07689 0.37497
 H696 H 0.59650 0.10707 0.34861
 C697 C 0.70151 0.71813 -0.18583
 C698 C 0.70836 0.69012 -0.18892
 C699 C 0.73071 0.68230 -0.21135
 C700 C 0.74574 0.70219 -0.23135
 C701 C 0.73818 0.73048 -0.23053
 C702 C 0.71654 0.73810 -0.20581
 C703 C 0.69237 0.66934 -0.16945
 C704 C 0.67866 0.65185 -0.15392
 C705 C 0.66190 0.63150 -0.13667
 C706 C 0.64667 0.61456 -0.12287
 C707 C 0.62702 0.59519 -0.10770
 C708 C 0.60134 0.59383 -0.12418
 C709 C 0.58128 0.57671 -0.10863
 C710 C 0.58650 0.56053 -0.07620
 C711 C 0.61268 0.56125 -0.06044
 C712 C 0.63281 0.57859 -0.07605
 H713 H 0.68456 0.72457 -0.16795
 H714 H 0.73668 0.66076 -0.21320
 H715 H 0.76361 0.69516 -0.24667
 H716 H 0.71111 0.75967 -0.20230
 H717 H 0.59660 0.60648 -0.14870
 H718 H 0.56144 0.57657 -0.12170
 H719 H 0.61732 0.54914 -0.03541
 H720 H 0.65263 0.57947 -0.06301
 C721 C 0.78375 -0.19340 -0.17945
 C722 C 0.80607 -0.20799 -0.16540
 C723 C 0.80945 -0.23587 -0.17465
 C724 C 0.79184 -0.24849 -0.20019
 C725 C 0.77119 -0.23312 -0.21834
 C726 C 0.76609 -0.20599 -0.20506
 C727 C 0.82697 -0.19357 -0.14513
 C728 C 0.84501 -0.18071 -0.13047
 C729 C 0.86626 -0.16450 -0.11572
 C730 C 0.88407 -0.14944 -0.10490
 C731 C 0.90444 -0.12978 -0.09385
 C732 C 0.92216 -0.13523 -0.06383
 C733 C 0.94037 -0.11483 -0.05185
 C734 C 0.94080 -0.08870 -0.06958
 C735 C 0.92363 -0.08395 -0.10065
 C736 C 0.90564 -0.10432 -0.11264
 H737 H 0.78053 -0.17195 -0.17168
 H738 H 0.82641 -0.24753 -0.16349
 H739 H 0.79553 -0.26985 -0.20792
 H740 H 0.74904 -0.19403 -0.21506
 H741 H 0.92144 -0.15492 -0.04914
 H742 H 0.95333 -0.11913 -0.02789
 H743 H 0.92352 -0.06417 -0.11511
 H744 H 0.89212 -0.09993 -0.13601
 C745 C 0.78476 0.30720 0.31942
 C746 C 0.80733 0.29282 0.33307
 C747 C 0.81076 0.26491 0.32402
 C748 C 0.79294 0.25207 0.29896
 C749 C 0.77207 0.26726 0.28106
 C750 C 0.76691 0.29439 0.29429
 C751 C 0.82841 0.30747 0.35265
 C752 C 0.84657 0.32048 0.36677
 C753 C 0.86795 0.33676 0.38101
 C754 C 0.88588 0.35175 0.39161
 C755 C 0.90645 0.37116 0.40277
 C756 C 0.92405 0.36532 0.43277
 C757 C 0.94237 0.38547 0.44516
 C758 C 0.94304 0.41175 0.42787
 C759 C 0.92603 0.41690 0.39674
 C760 C 0.90791 0.39675 0.38434
 H761 H 0.78150 0.32867 0.32708
 H762 H 0.82791 0.25339 0.33490
 H763 H 0.79668 0.23070 0.29130
 H764 H 0.74969 0.30622 0.28455
 H765 H 0.92312 0.34554 0.44719
 H766 H 0.95518 0.38085 0.46917
 H767 H 0.92608 0.43682 0.38264
 H768 H 0.89446 0.40145 0.36100
 C769 C 0.30489 -0.19980 0.27765
 C770 C 0.29361 -0.18514 0.30823
 C771 C 0.26706 -0.19095 0.32023
 C772 C 0.25213 -0.21176 0.30240
 C773 C 0.26368 -0.22831 0.27291
 C774 C 0.29006 -0.22063 0.25974
 C775 C 0.30933 -0.16402 0.32692
 C776 C 0.32316 -0.14672 0.34218
 C777 C 0.34033 -0.12701 0.35948
 C778 C 0.35602 -0.11085 0.37352
 C779 C 0.37624 -0.09260 0.38917
 C780 C 0.36962 -0.07335 0.41767
 C781 C 0.38995 -0.05662 0.43336
 C782 C 0.41716 -0.05910 0.42082
 C783 C 0.42337 -0.07823 0.39175
 C784 C 0.40312 -0.09475 0.37614
 H785 H 0.32517 -0.19494 0.26730
 H786 H 0.25778 -0.17928 0.34328
 H787 H 0.23139 -0.21508 0.31199
 H788 H 0.29937 -0.23030 0.23508
 H789 H 0.34887 -0.07148 0.42803
 H790 H 0.38445 -0.04214 0.45564
 H791 H 0.44401 -0.08072 0.38121
 H792 H 0.40854 -0.10952 0.35412
 C793 C 0.28760 0.28922 -0.16915
 C794 C 0.30103 0.30985 -0.18996
 C795 C 0.29934 0.31006 -0.22964
 C796 C 0.28328 0.29059 -0.24826
 C797 C 0.26771 0.27104 -0.22753
 C798 C 0.27149 0.26972 -0.18772
 C799 C 0.31644 0.33088 -0.17072
 C800 C 0.32943 0.34866 -0.15512
 C801 C 0.34519 0.36944 -0.13764
 C802 C 0.35955 0.38682 -0.12366
 C803 C 0.37827 0.40679 -0.10843
 C804 C 0.40385 0.40962 -0.12570
 C805 C 0.42315 0.42727 -0.11017
 C806 C 0.41724 0.44254 -0.07697
 C807 C 0.39113 0.44038 -0.06039
 C808 C 0.37177 0.42247 -0.07599
 H809 H 0.28944 0.28830 -0.13849
 H810 H 0.31015 0.32553 -0.24620
 H811 H 0.28205 0.29145 -0.27898
 H812 H 0.26204 0.25378 -0.17057
 H813 H 0.40912 0.39768 -0.15083
 H814 H 0.44295 0.42855 -0.12387
 H815 H 0.38602 0.45176 -0.03476
 H816 H 0.35200 0.42045 -0.06234
 C817 C 1.21930 -0.20305 0.17431
 C818 C 1.19236 -0.19923 0.18643
 C819 C 1.18377 -0.21001 0.22129
 C820 C 1.20143 -0.22566 0.24321
 C821 C 1.22815 -0.23225 0.23011
 C822 C 1.23719 -0.21879 0.19633
 C823 C 1.17322 -0.18376 0.16422
 C824 C 1.15596 -0.17090 0.14775
 C825 C 1.13494 -0.15550 0.13081
 C826 C 1.11685 -0.14155 0.11813
 C827 C 1.09572 -0.12343 0.10496
 C828 C 1.08014 -0.13007 0.07312
 C829 C 1.06110 -0.11105 0.05926
 C830 C 1.05774 -0.08516 0.07699
 C831 C 1.07270 -0.07930 0.10988
 C832 C 1.09150 -0.09829 0.12371
 H833 H 1.22647 -0.19392 0.14790
 H834 H 1.16327 -0.20622 0.23173
 H835 H 1.19383 -0.23258 0.27060
 H836 H 1.25802 -0.22106 0.18645
 H837 H 1.08320 -0.14955 0.05845
 H838 H 1.04998 -0.11608 0.03381
 H839 H 1.07049 -0.05963 0.12433
 H840 H 1.10331 -0.09300 0.14850
 C841 C 1.20157 0.30885 0.71140
 C842 C 1.18534 0.29385 0.68650
 C843 C 1.19025 0.26569 0.68090
 C844 C 1.21123 0.25255 0.70042
 C845 C 1.22824 0.26739 0.72540
 C846 C 1.22250 0.29581 0.73100
 C847 C 1.16282 0.30736 0.66851
 C848 C 1.14416 0.31983 0.65469
 C849 C 1.12285 0.33590 0.63976
 C850 C 1.10541 0.35103 0.62790
 C851 C 1.08589 0.37085 0.61461
 C852 C 1.06873 0.36472 0.58426
 C853 C 1.05190 0.38531 0.56927
 C854 C 1.05233 0.41231 0.58427
 C855 C 1.06884 0.41784 0.61578
 C856 C 1.08547 0.39726 0.63078
 H857 H 1.19751 0.33056 0.71662
 H858 H 1.17746 0.25373 0.66219
 H859 H 1.21385 0.23047 0.69671
 H860 H 1.23314 0.30802 0.75178
 H861 H 1.06894 0.34433 0.57151
 H862 H 1.03937 0.38037 0.54510
 H863 H 1.06957 0.43831 0.62820
 H864 H 1.09866 0.40221 0.65429
 C865 C 0.69470 -0.21099 0.69775
 C866 C 0.70691 -0.18655 0.68484
 C867 C 0.73455 -0.18218 0.69117
 C868 C 0.74969 -0.20169 0.71130
 C869 C 0.73738 -0.22569 0.72683
 C870 C 0.70982 -0.23057 0.71794
 C871 C 0.69099 -0.16584 0.66552
 C872 C 0.67731 -0.14847 0.65003
 C873 C 0.66058 -0.12831 0.63274
 C874 C 0.64540 -0.11154 0.61883
 C875 C 0.62585 -0.09237 0.60343
 C876 C 0.63221 -0.07562 0.57197
 C877 C 0.61227 -0.05842 0.55615
 C878 C 0.58569 -0.05798 0.57151
 C879 C 0.57984 -0.07435 0.60373
 C880 C 0.59973 -0.09133 0.61948
 H881 H 0.67345 -0.21497 0.69217
 H882 H 0.74443 -0.16361 0.68072
 H883 H 0.77111 -0.19777 0.71550
 H884 H 0.69975 -0.24956 0.72601
 H885 H 0.65237 -0.07624 0.55925
 H886 H 0.61741 -0.04617 0.53130
 H887 H 0.55969 -0.07445 0.61649
 H888 H 0.59453 -0.10411 0.64384
 C889 C 0.73473 0.31801 0.19111
 C890 C 0.70706 0.31354 0.18518
 C891 C 0.69504 0.28901 0.19809
 C892 C 0.71036 0.26946 0.21799
 C893 C 0.73795 0.27447 0.22660
 C894 C 0.75008 0.29852 0.21095
 C895 C 0.69090 0.33428 0.16637
 C896 C 0.67701 0.35168 0.15136
 C897 C 0.66004 0.37187 0.13464
 C898 C 0.64468 0.38864 0.12118
 C899 C 0.62498 0.40780 0.10621
 C900 C 0.59863 0.40792 0.12157
 C901 C 0.57867 0.42498 0.10615
 C902 C 0.58468 0.44233 0.07498
 C903 C 0.61146 0.44276 0.06034
 C904 C 0.63148 0.42550 0.07582
 H905 H 0.74446 0.33665 0.18062
 H906 H 0.67376 0.28496 0.19276
 H907 H 0.70043 0.25040 0.22609
 H908 H 0.77151 0.30253 0.21489
 H909 H 0.59333 0.39438 0.14509
 H910 H 0.55835 0.42417 0.11832
 H911 H 0.61675 0.45579 0.03632
 H912 H 0.65182 0.42559 0.06366
 C913 C 0.78290 0.21019 0.16397
 C914 C 0.81063 0.21661 0.16385
 C915 C 0.82022 0.23737 0.18774
 C916 C 0.80264 0.25023 0.21366
 C917 C 0.77521 0.24171 0.21742
 C918 C 0.76520 0.22319 0.18984
 C919 C 0.82978 0.20010 0.14253
 C920 C 0.84639 0.18539 0.12720
 C921 C 0.86601 0.16709 0.11189
 C922 C 0.88249 0.15041 0.10076
 C923 C 0.90139 0.12914 0.08945
 C924 C 0.89662 0.10198 0.10135
 C925 C 0.91440 0.08085 0.09052
 C926 C 0.93734 0.08653 0.06749
 C927 C 0.94235 0.11405 0.05630
 C928 C 0.92441 0.13524 0.06717
 H929 H 0.77512 0.19447 0.14506
 H930 H 0.84153 0.24304 0.18719
 H931 H 0.81094 0.26646 0.23115
 H932 H 0.74389 0.21758 0.18985
 H933 H 0.87896 0.09707 0.11880
 H934 H 0.90983 0.05997 0.09968
 H935 H 0.95988 0.11916 0.03877
 H936 H 0.92839 0.15626 0.05801
 C937 C 0.78246 0.70995 0.66450
 C938 C 0.81020 0.71634 0.66460
 C939 C 0.81972 0.73701 0.68869
 C940 C 0.80205 0.74983 0.71454
 C941 C 0.77457 0.74138 0.71801
 C942 C 0.76468 0.72290 0.69030
 C943 C 0.82941 0.69995 0.64316
 C944 C 0.84603 0.68534 0.62766
 C945 C 0.86562 0.66711 0.61210
 C946 C 0.88202 0.65041 0.60075
 C947 C 0.90072 0.62900 0.58922
 C948 C 0.89498 0.60167 0.59939
 C949 C 0.91262 0.58042 0.58863
 C950 C 0.93644 0.58612 0.56743
 C951 C 0.94237 0.61377 0.55787
 C952 C 0.92455 0.63510 0.56867
 H953 H 0.77474 0.69429 0.64544
 H954 H 0.84103 0.74267 0.68832
 H955 H 0.81030 0.76602 0.73216
 H956 H 0.74336 0.71733 0.69012
 H957 H 0.87668 0.59673 0.61549
 H958 H 0.90731 0.55944 0.59651
 H959 H 0.96059 0.61889 0.54178
 H960 H 0.92929 0.65624 0.56088
 C961 C 0.28676 0.21412 0.66791
 C962 C 0.30117 0.19391 0.68781
 C963 C 0.30052 0.19396 0.72758
 C964 C 0.28445 0.21317 0.74730
 C965 C 0.26786 0.23219 0.72767
 C966 C 0.27065 0.23339 0.68758
 C967 C 0.31641 0.17291 0.66762
 C968 C 0.32923 0.15503 0.65143
 C969 C 0.34479 0.13404 0.63348
 C970 C 0.35900 0.11638 0.61923
 C971 C 0.37753 0.09600 0.60382
 C972 C 0.40227 0.09163 0.62202
 C973 C 0.42158 0.07370 0.60633
 C974 C 0.41650 0.05968 0.57205
 C975 C 0.39115 0.06329 0.55454
 C976 C 0.37179 0.08149 0.57030
 H977 H 0.28778 0.21485 0.63711
 H978 H 0.31208 0.17882 0.74340
 H979 H 0.28397 0.21244 0.77810
 H980 H 0.26035 0.24898 0.67107
 H981 H 0.40694 0.10264 0.64799
 H982 H 0.44079 0.07126 0.62072
 H983 H 0.38673 0.05291 0.52804
 H984 H 0.35269 0.08472 0.55592
 C985 C 0.30083 0.69715 0.22766
 C986 C 0.29341 0.68915 0.19105
 C987 C 0.27074 0.70129 0.17426
 C988 C 0.25573 0.72158 0.19367
 C989 C 0.26358 0.73114 0.23021
 C990 C 0.28593 0.71741 0.24719
 C991 C 0.30889 0.66816 0.17111
 C992 C 0.32240 0.65077 0.15498
 C993 C 0.33918 0.63077 0.13690
 C994 C 0.35458 0.61426 0.12239
 C995 C 0.37460 0.59554 0.10650
 C996 C 0.40094 0.59594 0.12095
 C997 C 0.42115 0.57910 0.10513
 C998 C 0.41545 0.56141 0.07441
 C999 C 0.38872 0.56058 0.06050
 C1000 C 0.36842 0.57765 0.07641
 H1001 H 0.31803 0.68749 0.24137
 H1002 H 0.26432 0.69473 0.14629
 H1003 H 0.23751 0.72900 0.18012
 H1004 H 0.29186 0.72238 0.27597
 H1005 H 0.40599 0.60962 0.14423
 H1006 H 0.44139 0.58025 0.11680
 H1007 H 0.38366 0.54723 0.03692
 H1008 H 0.34808 0.57714 0.06494
   
