data_POSCAR
  _audit_creation_date              2014-09-24
  _audit_creation_method            'ToBaCCo'
  _symmetry_space_group_name_H-M    'P1'
  _symmetry_Int_Tables_number       1
  _symmetry_cell_setting            triclinic
  loop_
  _symmetry_equiv_pos_as_xyz
 x,y,z
_cell_length_a 28.9753
_cell_length_b 27.7580
_cell_length_c 27.6191
_cell_angle_alpha 89.901000
_cell_angle_beta 90.002600
_cell_angle_gamma 89.904400
loop_
  _atom_site_label
  _atom_site_type_symbol
  _atom_site_fract_x
  _atom_site_fract_y
  _atom_site_fract_z
N1 N 0.18910 1.28669 0.15444
 N2 N 0.16006 1.28866 0.19102
 C3 C 0.12784 1.32253 0.18194
 C4 C 0.13764 1.34277 0.13750
 C5 C 0.17648 1.31934 0.12083
 H6 H 0.09867 1.33052 0.20505
 H7 H 0.19319 1.32433 0.08615
 Cu8 Cu 0.16513 1.24443 0.24525
 Cu9 Cu 0.23866 1.23924 0.15125
 Cu10 Cu 0.23835 1.15055 0.23961
 N11 N 0.15972 1.19012 0.28920
 N12 N 0.18864 1.15358 0.28706
 C13 C 0.17583 1.11995 0.31955
 C14 C 0.13699 1.13656 0.34306
 C15 C 0.12739 1.18100 0.32303
 H16 H 0.19243 1.08533 0.32439
 H17 H 0.09830 1.20411 0.33116
 N18 N 0.28555 1.15406 0.18831
 N19 N 0.28567 1.18790 0.15460
 C20 C 0.32004 1.17879 0.12304
 C21 C 0.34241 1.13749 0.13782
 C22 C 0.31984 1.12254 0.17906
 H23 H 0.32707 1.19936 0.09059
 H24 H 0.32668 1.09004 0.19949
 H25 H 0.20061 1.18860 0.18883
 H26 H 0.24440 1.22325 0.22422
 N27 N 0.81055 0.71367 0.15550
 N28 N 0.83958 0.71170 0.19208
 C29 C 0.87183 0.67787 0.18306
 C30 C 0.86212 0.65766 0.13865
 C31 C 0.82324 0.68108 0.12199
 H32 H 0.90099 0.66984 0.20619
 H33 H 0.80654 0.67606 0.08734
 Cu34 Cu 0.83447 0.75585 0.24622
 Cu35 Cu 0.76093 0.76105 0.15219
 Cu36 Cu 0.76114 0.84965 0.24033
 N37 N 0.83981 0.81012 0.29003
 N38 N 0.81086 0.84663 0.28779
 C39 C 0.82365 0.88026 0.32018
 C40 C 0.86251 0.86367 0.34372
 C41 C 0.87215 0.81925 0.32382
 H42 H 0.80702 0.91486 0.32491
 H43 H 0.90127 0.79618 0.33199
 N44 N 0.71394 0.84612 0.18905
 N45 N 0.71385 0.81232 0.15542
 C46 C 0.67949 0.82143 0.12381
 C47 C 0.65708 0.86270 0.13848
 C48 C 0.67963 0.87762 0.17970
 H49 H 0.67250 0.80089 0.09141
 H50 H 0.67276 0.91011 0.20004
 H51 H 0.79893 0.81169 0.18966
 H52 H 0.75517 0.77695 0.22512
 N53 N 0.81061 1.28587 -0.15480
 N54 N 0.83961 1.28790 -0.19139
 C55 C 0.87186 1.32158 -0.18226
 C56 C 0.86218 1.34164 -0.13775
 C57 C 0.82331 1.31830 -0.12116
 H58 H 0.90099 1.32962 -0.20538
 H59 H 0.80662 1.32324 -0.08649
 Cu60 Cu 0.83445 1.24400 -0.24571
 Cu61 Cu 0.76098 1.23867 -0.15167
 Cu62 Cu 0.76111 1.15044 -0.24018
 N63 N 0.83976 1.18989 -0.28975
 N64 N 0.81080 1.15348 -0.28765
 C65 C 0.82358 1.11993 -0.32018
 C66 C 0.86244 1.13648 -0.34367
 C67 C 0.87209 1.18078 -0.32359
 H68 H 0.80695 1.08541 -0.32505
 H69 H 0.90121 1.20378 -0.33167
 N70 N 0.71394 1.15393 -0.18886
 N71 N 0.71388 1.18760 -0.15508
 C72 C 0.67953 1.17848 -0.12351
 C73 C 0.65710 1.13737 -0.13834
 C74 C 0.67962 1.12253 -0.17964
 H75 H 0.67256 1.19892 -0.09101
 H76 H 0.67273 1.09016 -0.20011
 H77 H 0.79894 1.18805 -0.18937
 H78 H 0.75517 1.22310 -0.22466
 N79 N 0.18999 0.71373 -0.15485
 N80 N 0.16100 0.71174 -0.19144
 C81 C 0.12886 0.67791 -0.18233
 C82 C 0.13860 0.65772 -0.13783
 C83 C 0.17739 0.68115 -0.12122
 H84 H 0.09975 0.66986 -0.20545
 H85 H 0.19408 0.67614 -0.08654
 Cu86 Cu 0.16601 0.75587 -0.24574
 Cu87 Cu 0.23945 0.76113 -0.15168
 Cu88 Cu 0.23900 0.84970 -0.24015
 N89 N 0.16050 0.81014 -0.28975
 N90 N 0.18933 0.84666 -0.28763
 C91 C 0.17643 0.88028 -0.32014
 C92 C 0.13764 0.86367 -0.34365
 C93 C 0.12815 0.81926 -0.32360
 H94 H 0.19293 0.91488 -0.32499
 H95 H 0.09911 0.79617 -0.33170
 N96 N 0.28619 0.84619 -0.18882
 N97 N 0.28636 0.81240 -0.15506
 C98 C 0.32068 0.82152 -0.12347
 C99 C 0.34296 0.86278 -0.13829
 C100 C 0.32039 0.87769 -0.17958
 H101 H 0.32772 0.80098 -0.09099
 H102 H 0.32717 0.91017 -0.20004
 H103 H 0.20131 0.81174 -0.18937
 H104 H 0.24521 0.77700 -0.22466
 Si105 Si 0.49984 1.00012 -0.00014
 Si106 Si 0.00053 0.49936 1.00056
 Si107 Si 0.99985 0.00013 0.49981
 C108 C 0.11142 0.37503 1.11259
 C109 C 0.08800 0.40293 1.08981
 C110 C 0.06037 0.43473 1.06231
 C111 C 0.03662 0.46111 1.03816
 C112 C -0.11024 0.62350 1.11248
 C113 C -0.08686 0.59561 1.08974
 C114 C -0.05927 0.56385 1.06228
 C115 C -0.03554 0.53751 1.03815
 C116 C -0.11019 0.37565 0.88851
 C117 C -0.08682 0.40342 0.91131
 C118 C -0.05924 0.43506 0.93882
 C119 C -0.03552 0.46130 0.96297
 C120 C 0.11106 0.62355 0.88844
 C121 C 0.08774 0.59566 0.91124
 C122 C 0.06022 0.56389 0.93877
 C123 C 0.03654 0.53754 0.96294
 C124 C 1.11068 0.11172 0.37527
 C125 C 1.08721 0.08901 0.40316
 C126 C 1.05957 0.06161 0.43497
 C127 C 1.03583 0.03756 0.46140
 C128 C 1.11123 -0.11147 0.62416
 C129 C 1.08766 -0.08875 0.59630
 C130 C 1.05989 -0.06135 0.56453
 C131 C 1.03603 -0.03729 0.53814
 C132 C 0.88884 -0.11147 0.37582
 C133 C 0.91233 -0.08875 0.40360
 C134 C 0.94001 -0.06134 0.43528
 C135 C 0.96379 -0.03728 0.46159
 C136 C 0.88876 0.11164 0.62413
 C137 C 0.91226 0.08895 0.59627
 C138 C 0.93995 0.06157 0.56451
 C139 C 0.96374 0.03753 0.53812
 C140 C 0.37716 1.11140 0.11157
 C141 C 0.40529 1.08879 0.08884
 C142 C 0.43700 1.06150 0.06142
 C143 C 0.46296 1.03751 0.03734
 C144 C 0.62236 1.11130 -0.11209
 C145 C 0.59425 1.08871 -0.08933
 C146 C 0.56257 1.06144 -0.06187
 C147 C 0.53664 1.03748 -0.03774
 C148 C 0.37761 0.88888 -0.11203
 C149 C 0.40565 0.91149 -0.08927
 C150 C 0.43725 0.93878 -0.06181
 C151 C 0.46312 0.96275 -0.03770
 C152 C 0.62235 0.88880 0.11213
 C153 C 0.59425 0.91142 0.08930
 C154 C 0.56257 0.93872 0.06174
 C155 C 0.53665 0.96271 0.03755
   
