data_POSCAR
  _audit_creation_date              2014-09-24
  _audit_creation_method            'ToBaCCo'
  _symmetry_space_group_name_H-M    'P1'
  _symmetry_Int_Tables_number       1
  _symmetry_cell_setting            triclinic
  loop_
  _symmetry_equiv_pos_as_xyz
 x,y,z
_cell_length_a 52.0507
_cell_length_b 52.7309
_cell_length_c 52.2973
_cell_angle_alpha 89.951000
_cell_angle_beta 89.980900
_cell_angle_gamma 89.920300
loop_
  _atom_site_label
  _atom_site_type_symbol
  _atom_site_fract_x
  _atom_site_fract_y
  _atom_site_fract_z
C1 C 0.16470 0.18611 0.20103
 C2 C 0.16379 0.20390 0.18107
 C3 C 0.18198 0.20312 0.16174
 C4 C 0.20107 0.18432 0.16190
 C5 C 0.20196 0.16682 0.18159
 C6 C 0.18354 0.16759 0.20113
 C7 C 0.14938 0.18202 0.22212
 N8 N 0.15824 0.16119 0.23470
 C9 C 0.17913 0.15225 0.22194
 C10 C 0.22233 0.15085 0.17685
 N11 N 0.23359 0.15797 0.15452
 C12 C 0.22064 0.17839 0.14518
 C13 C 0.17637 0.22250 0.14499
 N14 N 0.15506 0.23472 0.15351
 C15 C 0.14715 0.22346 0.17549
 H16 H 0.13264 0.19301 0.22751
 H17 H 0.19025 0.13570 0.22730
 H18 H 0.22820 0.13493 0.18859
 H19 H 0.22513 0.18827 0.12758
 H20 H 0.18674 0.22711 0.12765
 H21 H 0.13057 0.22915 0.18660
 C22 C -0.16000 0.81783 0.20290
 C23 C -0.16276 0.79673 0.18687
 C24 C -0.18311 0.79547 0.16989
 C25 C -0.20076 0.81558 0.16845
 C26 C -0.19753 0.83677 0.18372
 C27 C -0.17708 0.83786 0.20114
 C28 C -0.14261 0.82366 0.22180
 N29 N -0.14865 0.84683 0.23150
 C30 C -0.16956 0.85579 0.21876
 C31 C -0.21679 0.85362 0.17761
 N32 N -0.23179 0.84309 0.15919
 C33 C -0.22214 0.81978 0.15351
 C34 C -0.18015 0.77347 0.15597
 N35 N -0.15829 0.76173 0.16384
 C36 C -0.14762 0.77573 0.18282
 H37 H -0.12685 0.81180 0.22814
 H38 H -0.17905 0.87370 0.22248
 H39 H -0.21968 0.87216 0.18604
 H40 H -0.22985 0.80695 0.13929
 H41 H -0.19222 0.76717 0.14037
 H42 H -0.12966 0.77140 0.19232
 C43 C -0.16347 0.18093 -0.20179
 C44 C -0.16620 0.20217 -0.18590
 C45 C -0.18565 0.20295 -0.16786
 C46 C -0.20236 0.18225 -0.16518
 C47 C -0.19912 0.16094 -0.18030
 C48 C -0.17962 0.16033 -0.19882
 C49 C -0.14697 0.17545 -0.22160
 N50 N -0.15265 0.15196 -0.23068
 C51 C -0.17242 0.14245 -0.21665
 C52 C -0.21742 0.14357 -0.17299
 N53 N -0.23187 0.15390 -0.15400
 C54 C -0.22279 0.17759 -0.14912
 C55 C -0.18289 0.22526 -0.15443
 N56 N -0.16199 0.23769 -0.16362
 C57 C -0.15176 0.22380 -0.18295
 H58 H -0.13208 0.18777 -0.22899
 H59 H -0.18142 0.12419 -0.21963
 H60 H -0.22010 0.12485 -0.18106
 H61 H -0.23029 0.19040 -0.13476
 H62 H -0.19435 0.23133 -0.13827
 H63 H -0.13451 0.22863 -0.19344
 C64 C 0.16389 0.81746 -0.20064
 C65 C 0.16315 0.79877 -0.18155
 C66 C 0.18164 0.79845 -0.16250
 C67 C 0.20090 0.81705 -0.16210
 C68 C 0.20161 0.83543 -0.18097
 C69 C 0.18286 0.83579 -0.20019
 C70 C 0.14837 0.82256 -0.22135
 N71 N 0.15722 0.84382 -0.23314
 C72 C 0.17830 0.85205 -0.22026
 C73 C 0.22226 0.85088 -0.17593
 N74 N 0.23387 0.84259 -0.15419
 C75 C 0.22086 0.82194 -0.14554
 C76 C 0.17614 0.77831 -0.14664
 N77 N 0.15460 0.76673 -0.15542
 C78 C 0.14646 0.77912 -0.17668
 H79 H 0.13155 0.81189 -0.22705
 H80 H 0.18952 0.86865 -0.22511
 H81 H 0.22810 0.86722 -0.18704
 H82 H 0.22561 0.81118 -0.12853
 H83 H 0.18673 0.77275 -0.12972
 H84 H 0.12967 0.77414 -0.18781
 C85 C 0.18239 1.16458 0.80195
 C86 C 0.20152 1.16538 0.82081
 C87 C 0.20151 1.18468 0.83874
 C88 C 0.18262 1.20365 0.83779
 C89 C 0.16375 1.20284 0.81918
 C90 C 0.16378 1.18330 0.80099
 C91 C 0.17720 1.14766 0.78260
 N92 N 0.15613 1.15591 0.76966
 C93 C 0.14786 1.17777 0.78074
 C94 C 0.14743 1.22295 0.82351
 N95 N 0.15616 1.23612 0.84409
 C96 C 0.17778 1.22452 0.85284
 C97 C 0.22164 1.18016 0.85520
 N98 N 0.23401 1.15885 0.84742
 C99 C 0.22193 1.14971 0.82637
 H100 H 0.18808 1.13069 0.77819
 H101 H 0.13125 1.18867 0.77477
 H102 H 0.13043 1.22759 0.81252
 H103 H 0.18887 1.23045 0.86930
 H104 H 0.22696 1.19154 0.87159
 H105 H 0.22734 1.13266 0.81616
 C106 C 0.81744 0.83560 0.79344
 C107 C 0.80085 0.83775 0.81440
 C108 C 0.80231 0.82050 0.83426
 C109 C 0.82010 0.80054 0.83314
 C110 C 0.83595 0.79790 0.81204
 C111 C 0.83472 0.81568 0.79207
 C112 C 0.82175 0.85100 0.77270
 N113 N 0.84125 0.84097 0.75869
 C114 C 0.84908 0.81914 0.77019
 C115 C 0.85128 0.77701 0.81631
 N116 N 0.84527 0.76714 0.83959
 C117 C 0.82623 0.78146 0.85000
 C118 C 0.78411 0.82739 0.85207
 N119 N 0.77144 0.84812 0.84319
 C120 C 0.78160 0.85467 0.82023
 H121 H 0.81194 0.86867 0.76859
 H122 H 0.86490 0.80734 0.76387
 H123 H 0.86607 0.76986 0.80364
 H124 H 0.81749 0.77830 0.86853
 H125 H 0.77992 0.81767 0.86983
 H126 H 0.77527 0.87045 0.80855
 C127 C 0.17976 0.83393 1.19951
 C128 C 0.19836 0.83334 1.18013
 C129 C 0.19792 0.81428 1.16196
 C130 C 0.17910 0.79531 1.16321
 C131 C 0.16075 0.79588 1.18238
 C132 C 0.16121 0.81522 1.20078
 C133 C 0.17507 0.85066 1.21913
 N134 N 0.15434 0.84235 1.23252
 C135 C 0.14580 0.82060 1.22149
 C136 C 0.14443 0.77577 1.17833
 N137 N 0.15267 0.76288 1.15743
 C138 C 0.17390 0.77459 1.14809
 C139 C 0.21772 0.81892 1.14512
 N140 N 0.23030 0.84007 1.15295
 C141 C 0.21866 0.84899 1.17435
 H142 H 0.18601 0.86760 1.22337
 H143 H 0.12933 0.80971 1.22775
 H144 H 0.12776 0.77088 1.18971
 H145 H 0.18443 0.76875 1.13123
 H146 H 0.22275 0.80768 1.12854
 H147 H 0.22438 0.86582 1.18474
 C148 C 0.82068 1.16385 1.20207
 C149 C 0.80236 1.16199 1.18255
 C150 C 0.80002 1.18123 1.16473
 C151 C 0.81634 1.20229 1.16586
 C152 C 0.83423 1.20433 1.18533
 C153 C 0.83630 1.18501 1.20371
 C154 C 0.82752 1.14773 1.22157
 N155 N 0.84677 1.15865 1.23521
 C156 C 0.85222 1.18153 1.22448
 C157 C 0.84815 1.22611 1.18087
 N158 N 0.83936 1.23692 1.15897
 C159 C 0.81985 1.22258 1.14974
 C160 C 0.78030 1.17476 1.14850
 N161 N 0.77075 1.15202 1.15603
 C162 C 0.78424 1.14391 1.17668
 H163 H 0.81909 1.12937 1.22550
 H164 H 0.86699 1.19446 1.23096
 H165 H 0.86429 1.23288 1.19197
 H166 H 0.80954 1.22622 1.13213
 H167 H 0.77323 1.18587 1.13256
 H168 H 0.78063 1.12652 1.18709
 O169 O 0.46515 0.95445 0.95452
 O170 O 0.43670 0.97717 0.97914
 C171 C 0.44204 0.96054 0.96167
 O172 O 0.53591 0.95141 1.04717
 O173 O 0.56456 0.97597 1.02476
 C174 C 0.55908 0.95862 1.04145
 O175 O 0.46376 0.95017 1.04419
 O176 O 0.43604 0.97517 1.02102
 C177 C 0.44086 0.95708 1.03715
 O178 O 0.53750 0.95668 0.95325
 O179 O 0.56519 0.97721 0.98040
 C180 C 0.56040 0.96230 0.96132
 Zr181 Zr 0.50117 0.96775 0.96798
 O182 O 0.50354 0.92771 0.96623
 O183 O 0.49899 0.96982 0.92761
 Zr184 Zr 0.50009 0.96403 1.03247
 O185 O 0.50055 0.92446 1.02618
 O186 O 0.49911 0.95839 1.07249
 O187 O 0.47769 0.96115 0.99963
 O188 O 0.52302 0.96112 1.00040
 O189 O 0.53794 1.04459 0.95887
 O190 O 0.56556 1.01931 0.98185
 C191 C 0.56082 1.03700 0.96526
 O192 O 0.46396 1.04174 1.04869
 O193 O 0.43614 1.01952 1.02304
 C194 C 0.44104 1.03596 1.04080
 O195 O 0.53615 1.03992 1.05125
 O196 O 0.56459 1.01780 1.02615
 C197 C 0.55925 1.03344 1.04448
 O198 O 0.46561 1.04657 0.95921
 O199 O 0.43695 1.02166 0.98121
 C200 C 0.44244 1.03986 0.96546
 Zr201 Zr 0.50144 1.03174 0.97150
 O202 O 0.50411 1.07173 0.97368
 O203 O 0.49957 1.03353 0.93109
 Zr204 Zr 0.50025 1.02822 1.03616
 O205 O 0.50279 1.06823 1.03839
 O206 O 0.49740 1.02568 1.07647
 Zr207 Zr 0.46262 0.99822 1.00149
 Zr208 Zr 0.53885 0.99771 1.00279
 O209 O 0.52310 1.03445 1.00445
 O210 O 0.47801 1.03510 1.00371
 O211 O 0.52432 0.99988 0.96520
 O212 O 0.47782 0.99603 1.03867
 O213 O 0.47903 1.00012 0.96476
 O214 O 0.52286 0.99575 1.03979
 H215 H 0.53473 0.94630 0.99987
 H216 H 0.46584 0.99544 1.05337
 H217 H 0.53473 1.04929 1.00534
 H218 H 0.46757 1.00092 0.94966
 H219 H 0.49477 0.97489 1.08030
 H220 H 0.51199 1.01523 1.08252
 H221 H 0.48869 1.07536 1.02793
 H222 H 0.48955 1.07777 0.98421
 H223 H 0.51471 1.02441 0.92426
 H224 H 0.51290 0.98120 0.92178
 H225 H 0.49008 0.92088 0.97768
 H226 H 0.50072 0.91653 1.04336
 O227 O 0.04129 0.53631 -0.04767
 O228 O 0.01749 0.56377 -0.02304
 C229 C 0.03443 0.55896 -0.04060
 O230 O -0.05179 0.46599 -0.04779
 O231 O -0.02666 0.43734 -0.02612
 C232 C -0.04476 0.44302 -0.04216
 O233 O -0.04734 0.53714 -0.04954
 O234 O -0.02513 0.56408 -0.02310
 C235 C -0.04093 0.55963 -0.04171
 O236 O 0.04337 0.46487 -0.04671
 O237 O 0.01746 0.43676 -0.02526
 C238 C 0.03592 0.44205 -0.04102
 Zr239 Zr 0.02857 0.50039 -0.03449
 O240 O 0.02827 0.49896 -0.07494
 O241 O 0.06915 0.50293 -0.03452
 Zr242 Zr -0.03633 0.50109 -0.03528
 O243 O -0.03313 0.50034 -0.07557
 O244 O -0.07680 0.50448 -0.03708
 O245 O -0.00364 0.52347 -0.03919
 O246 O -0.00405 0.47874 -0.04010
 O247 O 0.04235 0.46275 0.04091
 O248 O 0.01662 0.43572 0.01798
 C249 C 0.03487 0.44024 0.03421
 O250 O -0.04957 0.53481 0.04428
 O251 O -0.02517 0.56304 0.02128
 C252 C -0.04230 0.55765 0.03845
 O253 O -0.05139 0.46370 0.04120
 O254 O -0.02763 0.43609 0.01676
 C255 C -0.04502 0.44105 0.03382
 O256 O 0.04062 0.53394 0.04511
 O257 O 0.01705 0.56257 0.02171
 C258 C 0.03376 0.55689 0.03918
 Zr259 Zr 0.02785 0.49879 0.03006
 O260 O 0.02675 0.49490 0.07035
 O261 O 0.06843 0.50127 0.03104
 Zr262 Zr -0.03722 0.49947 0.02938
 O263 O -0.03807 0.49614 0.06970
 O264 O -0.07780 0.50231 0.02825
 Zr265 Zr -0.00402 0.53757 -0.00152
 Zr266 Zr -0.00471 0.46220 -0.00349
 O267 O -0.00492 0.47705 0.03387
 O268 O -0.00455 0.52154 0.03539
 O269 O 0.03298 0.47689 -0.00271
 O270 O -0.04132 0.52233 -0.00248
 O271 O 0.03305 0.52159 -0.00162
 O272 O -0.04206 0.47772 -0.00354
 H273 H -0.00395 0.46757 -0.05533
 H274 H -0.05627 0.53398 -0.00249
 H275 H -0.00507 0.46527 0.04863
 H276 H 0.04820 0.53293 -0.00121
 H277 H -0.08397 0.49239 -0.02453
 H278 H -0.08437 0.48734 0.01894
 H279 H -0.02679 0.50951 0.07671
 H280 H 0.01737 0.50972 0.07726
 H281 H 0.07528 0.48792 0.01965
 H282 H 0.07577 0.48908 -0.02358
 H283 H 0.01593 0.51197 -0.08091
 H284 H -0.05095 0.50077 -0.08224
 O285 O 0.96154 0.05018 0.46453
 O286 O 0.98324 0.02471 0.43623
 C287 C 0.96757 0.04307 0.44152
 O288 O 1.04975 0.04606 0.53763
 O289 O 1.02561 0.02146 0.56479
 C290 C 1.04298 0.03850 0.56030
 O291 O 1.04834 0.05020 0.46579
 O292 O 1.02696 0.02516 0.43690
 C293 C 1.04267 0.04332 0.44263
 O294 O 0.95719 0.04571 0.53627
 O295 O 0.98068 0.02108 0.56405
 C296 C 0.96329 0.03803 0.55912
 Zr297 Zr 0.97144 0.03361 0.50027
 O298 O 0.96809 0.07349 0.50250
 O299 O 0.93094 0.02944 0.50061
 Zr300 Zr 1.03630 0.03445 0.50118
 O301 O 1.03374 0.07440 0.50328
 O302 O 1.07691 0.03544 0.49931
 O303 O 1.00419 0.03940 0.47805
 O304 O 1.00352 0.03811 0.52309
 O305 O 0.95783 -0.04384 0.53408
 O306 O 0.98121 -0.02070 0.56313
 C307 C 0.96396 -0.03746 0.55727
 O308 O 1.04918 -0.04400 0.46375
 O309 O 1.02752 -0.01796 0.43590
 C310 C 1.04338 -0.03626 0.44089
 O311 O 1.05061 -0.04322 0.53562
 O312 O 1.02613 -0.02013 0.56378
 C313 C 1.04376 -0.03671 0.55857
 O314 O 0.96131 -0.04446 0.46223
 O315 O 0.98390 -0.01845 0.43514
 C316 C 0.96787 -0.03671 0.43957
 Zr317 Zr 0.97226 -0.03046 0.49867
 O318 O 0.97199 -0.07056 0.50059
 O319 O 0.93171 -0.02992 0.49558
 Zr320 Zr 1.03718 -0.02982 0.49975
 O321 O 1.03892 -0.06987 0.50177
 O322 O 1.07776 -0.02805 0.49749
 Zr323 Zr 1.00494 0.00278 0.46193
 Zr324 Zr 1.00378 0.00105 0.53790
 O325 O 1.00442 -0.03528 0.52128
 O326 O 1.00515 -0.03460 0.47632
 O327 O 0.96656 0.00098 0.52219
 O328 O 1.04184 0.00286 0.47838
 O329 O 0.96746 0.00213 0.47707
 O330 O 1.04149 0.00183 0.52327
 H331 H 1.00321 0.05277 0.53492
 H332 H 1.05709 0.00328 0.46705
 H333 H 1.00441 -0.05047 0.53245
 H334 H 0.95268 0.00232 0.46515
 H335 H 1.08347 0.02401 0.51283
 H336 H 1.08401 -0.01985 0.51332
 H337 H 1.02671 -0.07656 0.48897
 H338 H 0.98342 -0.07693 0.48691
 H339 H 0.92510 -0.01905 0.50953
 H340 H 0.92433 0.03256 0.48316
 H341 H 0.98495 0.08044 0.49733
 H342 H 1.05166 0.08073 0.50363
 C343 C 1.12599 0.12871 0.29774
 N344 N 1.11773 0.15167 0.28933
 N345 N 1.12825 0.16232 0.26871
 C346 C 1.14767 0.15056 0.25595
 N347 N 1.15608 0.12771 0.26464
 N348 N 1.14531 0.11691 0.28501
 C349 C 1.11385 0.11641 0.31982
 N350 N 1.11447 0.09079 0.32219
 N351 N 1.10309 0.07942 0.34191
 C352 C 1.09103 0.09327 0.36018
 N353 N 1.09059 0.11893 0.35796
 N354 N 1.10165 0.13029 0.33801
 C355 C 1.07837 0.08054 0.38171
 N356 N 1.07486 0.09263 0.40437
 N357 N 1.06363 0.08076 0.42392
 C358 C 1.05518 0.05654 0.42134
 N359 N 1.05851 0.04457 0.39862
 N360 N 1.07008 0.05628 0.37923
 C361 C 0.88717 -0.11855 0.29131
 N362 N 0.86908 -0.10602 0.27751
 N363 N 0.85737 -0.11731 0.25794
 C364 C 0.86358 -0.14145 0.25119
 N365 N 0.88193 -0.15383 0.26488
 N366 N 0.89336 -0.14266 0.28466
 C367 C 0.89958 -0.10638 0.31329
 N368 N 0.91006 -0.12062 0.33225
 N369 N 0.92095 -0.10960 0.35244
 C370 C 0.92206 -0.08395 0.35420
 N371 N 0.91176 -0.06971 0.33513
 N372 N 0.90055 -0.08072 0.31512
 C373 C 0.93411 -0.07179 0.37637
 N374 N 0.94331 -0.04778 0.37462
 N375 N 0.95428 -0.03672 0.39473
 C376 C 0.95612 -0.04913 0.41741
 N377 N 0.94677 -0.07309 0.41922
 N378 N 0.93613 -0.08429 0.39900
 C379 C 0.88106 0.11775 0.70796
 N380 N 0.86423 0.10482 0.72289
 N381 N 0.85320 0.11598 0.74295
 C382 C 0.85888 0.14039 0.74908
 N383 N 0.87597 0.15319 0.73424
 N384 N 0.88671 0.14214 0.71398
 C385 C 0.89282 0.10566 0.68554
 N386 N 0.90207 0.11997 0.66602
 N387 N 0.91262 0.10904 0.64558
 C388 C 0.91461 0.08342 0.64409
 N389 N 0.90550 0.06910 0.66368
 N390 N 0.89462 0.08002 0.68396
 C391 C 0.92674 0.07142 0.62182
 N392 N 0.93706 0.04784 0.62369
 N393 N 0.94866 0.03720 0.60368
 C394 C 0.95003 0.04959 0.58095
 N395 N 0.93948 0.07307 0.57899
 N396 N 0.92819 0.08386 0.59912
 C397 C 1.12512 -0.12166 0.70483
 N398 N 1.11688 -0.14486 0.71251
 N399 N 1.12728 -0.15612 0.73286
 C400 C 1.14660 -0.14477 0.74605
 N401 N 1.15497 -0.12164 0.73814
 N402 N 1.14430 -0.11023 0.71805
 C403 C 1.11336 -0.10900 0.68277
 N404 N 1.11346 -0.08332 0.68096
 N405 N 1.10249 -0.07175 0.66111
 C406 C 1.09141 -0.08547 0.64215
 N407 N 1.09150 -0.11116 0.64384
 N408 N 1.10211 -0.12272 0.66390
 C409 C 1.07932 -0.07270 0.62032
 N410 N 1.07725 -0.08462 0.59742
 N411 N 1.06622 -0.07301 0.57761
 C412 C 1.05653 -0.04922 0.58013
 N413 N 1.05846 -0.03737 0.60308
 N414 N 1.06985 -0.04883 0.62277
 C415 C 0.29484 1.12299 1.12104
 N416 N 0.28734 1.11654 1.14503
 N417 N 0.26724 1.12789 1.15590
 C418 C 0.25410 1.14640 1.14336
 N419 N 0.26180 1.15298 1.11942
 N420 N 0.28167 1.14136 1.10839
 C421 C 0.31676 1.11021 1.10900
 N422 N 0.31887 1.10914 1.08314
 N423 N 0.33860 1.09717 1.07224
 C424 C 0.35711 1.08617 1.08681
 N425 N 0.35510 1.08741 1.11266
 N426 N 0.33518 1.09906 1.12356
 C427 C 0.37891 1.07310 1.07485
 N428 N 0.40139 1.07022 1.08769
 N429 N 0.42125 1.05850 1.07678
 C430 C 0.41921 1.04888 1.05280
 N431 N 0.39667 1.05159 1.04003
 N432 N 0.37692 1.06365 1.05079
 C433 C 0.29612 0.87535 0.87954
 N434 N 0.28829 0.88284 0.85597
 N435 N 0.26788 0.87220 0.84501
 C436 C 0.25474 0.85338 0.85703
 N437 N 0.26279 0.84573 0.88054
 N438 N 0.28297 0.85665 0.89166
 C439 C 0.31824 0.88751 0.89179
 N440 N 0.32038 0.88800 0.91765
 N441 N 0.34017 0.89959 0.92877
 C442 C 0.35871 0.91077 0.91442
 N443 N 0.35670 0.91008 0.88855
 N444 N 0.33671 0.89882 0.87744
 C445 C 0.38042 0.92364 0.92667
 N446 N 0.40308 0.92648 0.91412
 N447 N 0.42281 0.93811 0.92532
 C448 C 0.42043 0.94768 0.94929
 N449 N 0.39771 0.94500 0.96176
 N450 N 0.37812 0.93304 0.95072
 C451 C 0.70577 0.87638 1.12606
 N452 N 0.72099 0.88966 1.14229
 N453 N 0.74125 0.87871 1.15328
 C454 C 0.74731 0.85414 1.14819
 N455 N 0.73210 0.84091 1.13182
 N456 N 0.71163 0.85177 1.12109
 C457 C 0.68354 0.88856 1.11387
 N458 N 0.66386 0.87445 1.10454
 N459 N 0.64371 0.88560 1.09349
 C460 C 0.64270 0.91122 1.09107
 N461 N 0.66246 0.92530 1.10027
 N462 N 0.68242 0.91419 1.11163
 C463 C 0.62082 0.92355 1.07842
 N464 N 0.62336 0.94710 1.06825
 N465 N 0.60367 0.95821 1.05642
 C466 C 0.58062 0.94633 1.05466
 N467 N 0.57800 0.92286 1.06502
 N468 N 0.59781 0.91159 1.07655
 C469 C 0.70784 1.11969 0.88189
 N470 N 0.71327 1.14447 0.88633
 N471 N 0.73310 1.15560 0.87477
 C472 C 0.74804 1.14248 0.85804
 N473 N 0.74245 1.11771 0.85352
 N474 N 0.72284 1.10649 0.86535
 C475 C 0.68602 1.10739 0.89464
 N476 N 0.68519 1.08178 0.89712
 N477 N 0.66539 1.07060 0.90868
 C478 C 0.64553 1.08462 0.91785
 N479 N 0.64629 1.11022 0.91524
 N480 N 0.66626 1.12143 0.90399
 C481 C 0.62354 1.07228 0.93026
 N482 N 0.60048 1.08424 0.93171
 N483 N 0.58044 1.07293 0.94272
 C484 C 0.58284 1.04939 0.95299
 N485 N 0.60596 1.03750 0.95171
 N486 N 0.62590 1.04867 0.94038
 C487 C 0.11955 0.29545 0.11751
 N488 N 0.14494 0.29079 0.11384
 N489 N 0.15632 0.27120 0.12531
 C490 C 0.14280 0.25576 0.14114
 N491 N 0.11744 0.26053 0.14495
 N492 N 0.10599 0.27992 0.13322
 C493 C 0.10698 0.31692 0.10473
 N494 N 0.08110 0.31732 0.10156
 N495 N 0.06971 0.33678 0.08987
 C496 C 0.08376 0.35668 0.08120
 N497 N 0.10963 0.35635 0.08450
 N498 N 0.12106 0.33674 0.09590
 C499 C 0.07118 0.37830 0.06870
 N500 N 0.08303 0.40119 0.06751
 N501 N 0.07144 0.42095 0.05655
 C502 C 0.04772 0.41843 0.04607
 N503 N 0.03596 0.39549 0.04706
 N504 N 0.04741 0.37582 0.05832
 C505 C -0.12888 0.30115 -0.13048
 N506 N -0.11464 0.28509 -0.14500
 N507 N -0.12543 0.26503 -0.15608
 C508 C -0.15082 0.26010 -0.15283
 N509 N -0.16510 0.27617 -0.13830
 N510 N -0.15435 0.29643 -0.12746
 C511 C -0.11666 0.32274 -0.11763
 N512 N -0.13084 0.34264 -0.10907
 N513 N -0.11960 0.36203 -0.09718
 C514 C -0.09382 0.36205 -0.09313
 N515 N -0.07969 0.34210 -0.10160
 N516 N -0.09088 0.32288 -0.11375
 C517 C -0.08133 0.38312 -0.07967
 N518 N -0.05786 0.37985 -0.06885
 N519 N -0.04637 0.39888 -0.05667
 C520 C -0.05780 0.42198 -0.05512
 N521 N -0.08123 0.42531 -0.06604
 N522 N -0.09287 0.40617 -0.07796
 C523 C 0.11890 0.70473 -0.12205
 N524 N 0.14441 0.70882 -0.11857
 N525 N 0.15586 0.72881 -0.12918
 C526 C 0.14229 0.74526 -0.14394
 N527 N 0.11681 0.74106 -0.14756
 N528 N 0.10530 0.72125 -0.13668
 C529 C 0.10621 0.68286 -0.11013
 N530 N 0.08040 0.68283 -0.10640
 N531 N 0.06891 0.66309 -0.09535
 C532 C 0.08277 0.64253 -0.08795
 N533 N 0.10856 0.64249 -0.09184
 N534 N 0.12010 0.66237 -0.10258
 C535 C 0.07011 0.62076 -0.07582
 N536 N 0.08156 0.59761 -0.07568
 N537 N 0.07006 0.57785 -0.06468
 C538 C 0.04687 0.58061 -0.05312
 N539 N 0.03549 0.60379 -0.05314
 N540 N 0.04683 0.62348 -0.06444
 C541 C -0.12461 0.69951 0.12879
 N542 N -0.11023 0.71602 0.14257
 N543 N -0.12116 0.73573 0.15420
 C544 C -0.14685 0.73982 0.15226
 N545 N -0.16125 0.72332 0.13844
 N546 N -0.15034 0.70342 0.12705
 C547 C -0.11236 0.67813 0.11557
 N548 N -0.12640 0.65785 0.10786
 N549 N -0.11519 0.63852 0.09579
 C550 C -0.08961 0.63894 0.09070
 N551 N -0.07561 0.65928 0.09829
 N552 N -0.08676 0.67845 0.11063
 C553 C -0.07728 0.61781 0.07716
 N554 N -0.05424 0.62103 0.06543
 N555 N -0.04313 0.60190 0.05296
 C556 C -0.05453 0.57877 0.05206
 N557 N -0.07749 0.57551 0.06393
 N558 N -0.08875 0.59473 0.07612
 C559 C 1.12323 0.12095 0.70840
 N560 N 1.14216 0.10930 0.72185
 N561 N 1.15305 0.12080 0.74176
 C562 C 1.14515 0.14424 0.74922
 N563 N 1.12604 0.15577 0.73583
 N564 N 1.11543 0.14443 0.71568
 C565 C 1.11145 0.10845 0.68629
 N566 N 1.10049 0.12239 0.66738
 N567 N 1.08996 0.11108 0.64718
 C568 C 1.08966 0.08540 0.64536
 N569 N 1.10045 0.07144 0.66436
 N570 N 1.11133 0.08277 0.68438
 C571 C 1.07784 0.07301 0.62320
 N572 N 1.06841 0.04909 0.62507
 N573 N 1.05723 0.03807 0.60503
 C574 C 1.05548 0.05044 0.58231
 N575 N 1.06513 0.07426 0.58039
 N576 N 1.07594 0.08542 0.60053
 C577 C 0.87545 -0.12486 0.69766
 N578 N 0.88194 -0.14892 0.70434
 N579 N 0.87066 -0.16021 0.72419
 C580 C 0.85219 -0.14798 0.73786
 N581 N 0.84548 -0.12405 0.73084
 N582 N 0.85701 -0.11265 0.71125
 C583 C 0.88855 -0.11193 0.67655
 N584 N 0.88977 -0.08623 0.67596
 N585 N 0.90198 -0.07436 0.65704
 C586 C 0.91309 -0.08778 0.63786
 N587 N 0.91170 -0.11349 0.63834
 N588 N 0.89981 -0.12537 0.65747
 C589 C 0.92633 -0.07468 0.61695
 N590 N 0.92894 -0.08594 0.59377
 N591 N 0.94076 -0.07395 0.57469
 C592 C 0.95072 -0.05043 0.57822
 N593 N 0.94829 -0.03924 0.60146
 N594 N 0.93612 -0.05109 0.62044
 C595 C 1.12252 -0.12247 0.29427
 N596 N 1.14135 -0.11099 0.28056
 N597 N 1.15192 -0.12260 0.26053
 C598 C 1.14378 -0.14598 0.25320
 N599 N 1.12481 -0.15736 0.26688
 N600 N 1.11451 -0.14590 0.28715
 C601 C 1.11093 -0.10964 0.31630
 N602 N 1.09949 -0.12321 0.33520
 N603 N 1.08906 -0.11152 0.35527
 C604 C 1.08938 -0.08583 0.35695
 N605 N 1.10067 -0.07226 0.33797
 N606 N 1.11142 -0.08397 0.31809
 C607 C 1.07760 -0.07292 0.37883
 N608 N 1.06932 -0.04859 0.37668
 N609 N 1.05832 -0.03694 0.39645
 C610 C 1.05558 -0.04907 0.41919
 N611 N 1.06405 -0.07333 0.42141
 N612 N 1.07471 -0.08511 0.40152
 C613 C 0.88276 0.12672 0.29650
 N614 N 0.88770 0.15111 0.28982
 N615 N 0.87602 0.16157 0.26972
 C616 C 0.85871 0.14812 0.25577
 N617 N 0.85366 0.12379 0.26269
 N618 N 0.86559 0.11324 0.28254
 C619 C 0.89592 0.11482 0.31820
 N620 N 0.89802 0.08920 0.31947
 N621 N 0.90995 0.07819 0.33907
 C622 C 0.91989 0.09237 0.35830
 N623 N 0.91766 0.11801 0.35714
 N624 N 0.90603 0.12906 0.33733
 C625 C 0.93276 0.07999 0.37990
 N626 N 0.93479 0.09177 0.40290
 N627 N 0.94588 0.08005 0.42263
 C628 C 0.95561 0.05629 0.41993
 N629 N 0.95377 0.04465 0.39687
 N630 N 0.94239 0.05622 0.37727
 C631 C 0.12191 0.29808 -0.12407
 N632 N 0.11002 0.28492 -0.14294
 N633 N 0.12136 0.26487 -0.15358
 C634 C 0.14486 0.25697 -0.14548
 N635 N 0.15669 0.27015 -0.12651
 N636 N 0.14550 0.29043 -0.11613
 C637 C 0.10925 0.31993 -0.11211
 N638 N 0.12327 0.33822 -0.10036
 N639 N 0.11169 0.35795 -0.08935
 C640 C 0.08568 0.35987 -0.08935
 N641 N 0.07167 0.34151 -0.10098
 N642 N 0.08326 0.32198 -0.11232
 C643 C 0.07285 0.38128 -0.07678
 N644 N 0.04834 0.37896 -0.06824
 N645 N 0.03668 0.39829 -0.05664
 C646 C 0.04898 0.42075 -0.05349
 N647 N 0.07344 0.42314 -0.06219
 N648 N 0.08524 0.40368 -0.07346
 C649 C -0.12764 0.29820 0.12180
 N650 N -0.12497 0.29536 0.14748
 N651 N -0.13562 0.27571 0.15949
 C652 C -0.14962 0.25839 0.14629
 N653 N -0.15245 0.26138 0.12065
 N654 N -0.14154 0.28085 0.10861
 C655 C -0.11552 0.31952 0.10845
 N656 N -0.11133 0.31849 0.08284
 N657 N -0.10013 0.33776 0.07071
 C658 C -0.09301 0.35887 0.08372
 N659 N -0.09734 0.35995 0.10930
 N660 N -0.10824 0.34056 0.12148
 C661 C -0.08085 0.38020 0.07043
 N662 N -0.08069 0.40358 0.08122
 N663 N -0.06955 0.42300 0.06931
 C664 C -0.05792 0.41969 0.04632
 N665 N -0.05797 0.39627 0.03555
 N666 N -0.06940 0.37690 0.04733
 C667 C -0.12066 0.70616 -0.12648
 N668 N -0.11528 0.71213 -0.15115
 N669 N -0.12631 0.73215 -0.16224
 C670 C -0.14341 0.74672 -0.14916
 N671 N -0.14889 0.74054 -0.12453
 N672 N -0.13761 0.72076 -0.11335
 C673 C -0.10836 0.68435 -0.11407
 N674 N -0.10671 0.68315 -0.08820
 N675 N -0.09555 0.66339 -0.07683
 C676 C -0.08598 0.64395 -0.09091
 N677 N -0.08775 0.64506 -0.11679
 N678 N -0.09860 0.66501 -0.12818
 C679 C -0.07404 0.62207 -0.07829
 N680 N -0.07239 0.59936 -0.09041
 N681 N -0.06195 0.57939 -0.07871
 C682 C -0.05249 0.58152 -0.05462
 N683 N -0.05395 0.60428 -0.04260
 N684 N -0.06470 0.62415 -0.05416
 C685 C 0.11735 0.70014 0.12530
 N686 N 0.14279 0.70440 0.12157
 N687 N 0.15415 0.72458 0.13188
 C688 C 0.14054 0.74104 0.14656
 N689 N 0.11514 0.73663 0.15048
 N690 N 0.10372 0.71664 0.13990
 C691 C 0.10470 0.67831 0.11336
 N692 N 0.07888 0.67826 0.10972
 N693 N 0.06744 0.65873 0.09831
 C694 C 0.08137 0.63840 0.09044
 N695 N 0.10716 0.63834 0.09429
 N696 N 0.11864 0.65802 0.10540
 C697 C 0.06881 0.61706 0.07755
 N698 N 0.08035 0.59398 0.07649
 N699 N 0.06904 0.57469 0.06453
 C700 C 0.04593 0.57790 0.05292
 N701 N 0.03444 0.60100 0.05390
 N702 N 0.04560 0.62019 0.06614
 C703 C 0.29689 1.12576 0.88289
 N704 N 0.28029 1.14042 0.89641
 N705 N 0.26023 1.15128 0.88496
 C706 C 0.25584 1.14758 0.85964
 N707 N 0.27237 1.13280 0.84615
 N708 N 0.29263 1.12223 0.85753
 C709 C 0.31892 1.11370 0.89549
 N710 N 0.33962 1.10613 0.88165
 N711 N 0.35956 1.09501 0.89306
 C712 C 0.35935 1.09075 0.91866
 N713 N 0.33860 1.09820 0.93249
 N714 N 0.31881 1.10963 0.92113
 C715 C 0.38106 1.07796 0.93109
 N716 N 0.37787 1.06589 0.95381
 N717 N 0.39744 1.05374 0.96478
 C718 C 0.42098 1.05352 0.95359
 N719 N 0.42423 1.06579 0.93099
 N720 N 0.40457 1.07765 0.91986
 C721 C 0.29330 0.87290 1.11760
 N722 N 0.28913 0.87618 1.14300
 N723 N 0.26883 0.86570 1.15432
 C724 C 0.25215 0.85126 1.14072
 N725 N 0.25642 0.84780 1.11534
 N726 N 0.27655 0.85858 1.10394
 C727 C 0.31550 0.88478 1.10517
 N728 N 0.31563 0.88905 1.07956
 N729 N 0.33564 0.90032 1.06844
 C730 C 0.35635 0.90741 1.08249
 N731 N 0.35629 0.90295 1.10805
 N732 N 0.33615 0.89199 1.11922
 C733 C 0.37837 0.91992 1.07038
 N734 N 0.40166 0.91992 1.08204
 N735 N 0.42164 0.93152 1.07127
 C736 C 0.41897 0.94382 1.04862
 N737 N 0.39564 0.94392 1.03699
 N738 N 0.37573 0.93203 1.04761
 C739 C 0.70766 1.11573 1.12468
 N740 N 0.71074 1.14114 1.12190
 N741 N 0.73120 1.15273 1.13170
 C742 C 0.74916 1.13939 1.14490
 N743 N 0.74601 1.11399 1.14779
 N744 N 0.72571 1.10234 1.13770
 C745 C 0.68515 1.10303 1.11380
 N746 N 0.68544 1.07767 1.10937
 N747 N 0.66513 1.06624 1.09905
 C748 C 0.64368 1.07971 1.09316
 N749 N 0.64331 1.10502 1.09781
 N750 N 0.66374 1.11650 1.10782
 C751 C 0.62152 1.06727 1.08133
 N752 N 0.59797 1.07836 1.08188
 N753 N 0.57797 1.06734 1.07056
 C754 C 0.58090 1.04500 1.05801
 N755 N 0.60445 1.03393 1.05744
 N756 N 0.62438 1.04478 1.06904
 C757 C 0.70911 0.88274 0.87805
 N758 N 0.72600 0.86882 0.89203
 N759 N 0.74604 0.85766 0.88085
 C760 C 0.75009 0.86032 0.85534
 N761 N 0.73330 0.87440 0.84141
 N762 N 0.71310 0.88530 0.85254
 C763 C 0.68686 0.89472 0.89029
 N764 N 0.66640 0.90235 0.87612
 N765 N 0.64609 0.91307 0.88727
 C766 C 0.64566 0.91680 0.91294
 N767 N 0.66618 0.90929 0.92708
 N768 N 0.68636 0.89831 0.91597
 C769 C 0.62347 0.92878 0.92528
 N770 N 0.62572 0.93883 0.94904
 N771 N 0.60563 0.94970 0.96036
 C772 C 0.58248 0.95067 0.94846
 N773 N 0.58017 0.94053 0.92472
 N774 N 0.60036 0.92990 0.91326
   
