data_POSCAR
  _audit_creation_date              2014-09-24
  _audit_creation_method            'ToBaCCo'
  _symmetry_space_group_name_H-M    'P1'
  _symmetry_Int_Tables_number       1
  _symmetry_cell_setting            triclinic
  loop_
  _symmetry_equiv_pos_as_xyz
 x,y,z
_cell_length_a 38.2725
_cell_length_b 38.3115
_cell_length_c 21.8187
_cell_angle_alpha 90.000000
_cell_angle_beta 89.927900
_cell_angle_gamma 120.040400
loop_
  _atom_site_label
  _atom_site_type_symbol
  _atom_site_fract_x
  _atom_site_fract_y
  _atom_site_fract_z
O1 O 0.45160 0.96096 0.55795
 O2 O 0.49116 1.04016 0.43982
 O3 O 0.45217 0.96171 0.43856
 O4 O 0.49109 1.03938 0.55920
 O5 O 0.54909 1.04015 0.55775
 O6 O 0.50948 0.96110 0.43954
 O7 O 0.54838 1.03951 0.43828
 O8 O 0.50959 0.96171 0.55892
 Cu9 Cu 0.46574 1.00055 0.49890
 Cu10 Cu 0.53492 1.00064 0.49860
 C11 C 0.47387 0.94794 0.57900
 C12 C 0.52645 1.05329 0.41832
 C13 C 0.47416 0.94802 0.41848
 C14 C 0.52681 1.05311 0.57908
 O15 O 0.03963 0.49076 0.56072
 O16 O -0.03967 0.45113 0.44289
 O17 O 0.03883 0.49065 0.44136
 O18 O -0.03888 0.45188 0.56236
 O19 O -0.03961 0.50900 0.56095
 O20 O 0.03962 0.54860 0.44267
 O21 O -0.03887 0.50908 0.44158
 O22 O 0.03889 0.54788 0.56214
 Cu23 Cu -0.00004 0.46534 0.50184
 Cu24 Cu 0.00002 0.53440 0.50184
 C25 C 0.05273 0.52601 0.58212
 C26 C -0.05265 0.47339 0.42167
 C27 C 0.05259 0.52633 0.42137
 C28 C -0.05271 0.47376 0.58242
 O29 O 0.45090 0.49104 0.44183
 O30 O 0.49053 0.45162 0.56004
 O31 O 0.45159 0.49108 0.56131
 O32 O 0.49040 0.45211 0.44067
 O33 O 0.54838 0.50937 0.44163
 O34 O 0.50880 0.54898 0.55977
 O35 O 0.54783 0.50956 0.56102
 O36 O 0.50889 0.54829 0.44039
 Cu37 Cu 0.46508 0.46570 0.50099
 Cu38 Cu 0.53425 0.53482 0.50069
 C39 C 0.47318 0.52629 0.42050
 C40 C 0.52586 0.47389 0.58110
 C41 C 0.47351 0.52680 0.58127
 C42 C 0.52611 0.47407 0.42058
 O43 O 0.39219 0.66821 -0.07109
 O44 O 0.39388 0.73623 -0.05272
 C45 C 0.36880 0.74189 -0.08310
 O46 O 0.33135 0.72354 -0.07125
 O47 O 0.26323 0.65725 -0.05260
 C48 C 0.25750 0.62644 -0.08285
 O49 O 0.27579 0.60735 -0.07097
 O50 O 0.34218 0.60572 -0.05265
 C51 C 0.37305 0.63082 -0.08295
 O52 O 0.39380 0.65732 0.05090
 O53 O 0.39207 0.72360 0.06932
 C54 C 0.37301 0.74194 0.08109
 O55 O 0.34225 0.73625 0.05071
 O56 O 0.27584 0.66821 0.06940
 C57 C 0.25753 0.63082 0.08140
 O58 O 0.26318 0.60572 0.05105
 O59 O 0.33124 0.60744 0.06943
 C60 C 0.36866 0.62655 0.08130
 Cr61 Cr 0.39073 0.69521 -0.00090
 Cr62 Cr 0.30429 0.69519 -0.00093
 Cr63 Cr 0.30423 0.60880 -0.00079
 O64 O 0.33308 0.66640 -0.00090
 O65 O 0.60797 0.33159 -0.06977
 O66 O 0.60620 0.26355 -0.05136
 C67 C 0.63134 0.25793 -0.08174
 O68 O 0.66875 0.27622 -0.06983
 O69 O 0.73682 0.34254 -0.05134
 C70 C 0.74256 0.37335 -0.08161
 O71 O 0.72426 0.39244 -0.06968
 O72 O 0.65783 0.39407 -0.05115
 C73 C 0.62706 0.36900 -0.08154
 O74 O 0.60610 0.34239 0.05225
 O75 O 0.60774 0.27604 0.07064
 C76 C 0.62686 0.25777 0.08252
 O77 O 0.65772 0.26352 0.05221
 O78 O 0.72408 0.33153 0.07071
 C79 C 0.74238 0.36890 0.08265
 O80 O 0.73675 0.39401 0.05230
 O81 O 0.66863 0.39221 0.07084
 C82 C 0.63118 0.37313 0.08265
 Cr83 Cr 0.60925 0.30452 0.00044
 Cr84 Cr 0.69572 0.30457 0.00044
 Cr85 Cr 0.69574 0.39093 0.00057
 O86 O 0.66690 0.33334 0.00049
 C87 C 0.42864 0.85868 -0.27885
 C88 C 0.40255 0.86956 -0.30713
 C89 C 0.41746 0.89864 -0.35382
 C90 C 0.45815 0.91672 -0.37242
 C91 C 0.48380 0.90515 -0.34380
 C92 C 0.46922 0.87624 -0.29683
 C93 C 0.41323 0.82849 -0.22917
 C94 C 0.43942 0.81793 -0.20041
 C95 C 0.42473 0.78953 -0.15275
 C96 C 0.38409 0.77163 -0.13388
 C97 C 0.35819 0.78244 -0.16369
 C98 C 0.37265 0.81094 -0.21119
 C99 C 0.49446 0.86470 -0.26722
 C100 C 0.47982 0.83607 -0.21979
 C101 C 0.36210 0.85127 -0.28798
 C102 C 0.34739 0.82241 -0.24088
 H103 H 0.52583 0.87802 -0.28067
 H104 H 0.50033 0.82813 -0.19803
 H105 H 0.34164 0.85937 -0.30951
 H106 H 0.31601 0.80909 -0.22744
 H107 H 0.39740 0.90719 -0.37556
 H108 H 0.51517 0.91888 -0.35758
 H109 H 0.44495 0.78139 -0.13047
 H110 H 0.32689 0.76897 -0.14967
 C111 C 0.14062 0.56930 -0.27821
 C112 C 0.12500 0.59346 -0.29878
 C113 C 0.09609 0.57915 -0.34569
 C114 C 0.08239 0.54069 -0.37179
 C115 C 0.09866 0.51698 -0.35038
 C116 C 0.12779 0.53118 -0.30383
 C117 C 0.17084 0.58411 -0.22862
 C118 C 0.18653 0.55997 -0.20817
 C119 C 0.21511 0.57409 -0.16083
 C120 C 0.22775 0.61193 -0.13352
 C121 C 0.21166 0.63574 -0.15477
 C122 C 0.18329 0.62201 -0.20242
 C123 C 0.14423 0.50792 -0.28220
 C124 C 0.17316 0.52210 -0.23527
 C125 C 0.13844 0.63137 -0.27173
 C126 C 0.16704 0.64538 -0.22431
 H127 H 0.13462 0.47846 -0.30166
 H128 H 0.18503 0.50319 -0.21990
 H129 H 0.12663 0.65032 -0.28717
 H130 H 0.17646 0.67472 -0.20456
 H131 H 0.08406 0.59790 -0.36129
 H132 H 0.08873 0.48741 -0.36976
 H133 H 0.22715 0.55543 -0.14487
 H134 H 0.22128 0.66499 -0.13446
 C135 C 0.43023 0.57126 -0.27871
 C136 C 0.46839 0.59660 -0.30443
 C137 C 0.48259 0.58172 -0.35111
 C138 C 0.45884 0.54174 -0.37253
 C139 C 0.42033 0.51693 -0.34632
 C140 C 0.40602 0.53149 -0.29929
 C141 C 0.41542 0.58662 -0.22900
 C142 C 0.37746 0.56112 -0.20270
 C143 C 0.36373 0.57571 -0.15495
 C144 C 0.38758 0.61561 -0.13369
 C145 C 0.42546 0.64086 -0.16109
 C146 C 0.43959 0.62645 -0.20854
 C147 C 0.36807 0.50696 -0.27214
 C148 C 0.35406 0.52150 -0.22460
 C149 C 0.49169 0.63630 -0.28279
 C150 C 0.47751 0.65100 -0.23574
 H151 H 0.34909 0.47619 -0.28759
 H152 H 0.32468 0.50153 -0.20477
 H153 H 0.52119 0.65619 -0.30233
 H154 H 0.49645 0.68179 -0.22036
 H155 H 0.51219 0.60140 -0.37057
 H156 H 0.40154 0.48614 -0.36193
 H157 H 0.33444 0.55605 -0.13456
 H158 H 0.44416 0.67157 -0.14513
 C159 C 0.57186 0.14187 -0.27823
 C160 C 0.53133 0.12445 -0.29626
 C161 C 0.51683 0.09573 -0.34342
 C162 C 0.54250 0.08420 -0.37221
 C163 C 0.58314 0.10215 -0.35358
 C164 C 0.59798 0.13104 -0.30668
 C165 C 0.58718 0.17184 -0.22832
 C166 C 0.62770 0.18925 -0.21029
 C167 C 0.64207 0.21757 -0.16259
 C168 C 0.61614 0.22833 -0.13264
 C169 C 0.57555 0.21055 -0.15156
 C170 C 0.56095 0.18235 -0.19942
 C171 C 0.63837 0.14919 -0.28747
 C172 C 0.65300 0.17785 -0.24014
 C173 C 0.50606 0.13592 -0.26649
 C174 C 0.52061 0.16436 -0.21885
 H175 H 0.65885 0.14113 -0.30912
 H176 H 0.68433 0.19107 -0.22667
 H177 H 0.47473 0.12271 -0.27997
 H178 H 0.50008 0.17226 -0.19698
 H179 H 0.48550 0.08209 -0.35722
 H180 H 0.60322 0.09363 -0.37544
 H181 H 0.67333 0.23095 -0.14853
 H182 H 0.55531 0.21866 -0.12919
 C183 C 0.85946 0.43051 -0.27745
 C184 C 0.87505 0.40634 -0.29811
 C185 C 0.90395 0.42063 -0.34517
 C186 C 0.91766 0.45910 -0.37133
 C187 C 0.90141 0.48282 -0.34982
 C188 C 0.87230 0.46863 -0.30312
 C189 C 0.82925 0.41570 -0.22772
 C190 C 0.81357 0.43985 -0.20718
 C191 C 0.78499 0.42573 -0.15971
 C192 C 0.77233 0.38788 -0.13237
 C193 C 0.78841 0.36406 -0.15371
 C194 C 0.81678 0.37779 -0.20147
 C195 C 0.85587 0.49190 -0.28140
 C196 C 0.82695 0.47772 -0.23432
 C197 C 0.86161 0.36842 -0.27101
 C198 C 0.83302 0.35442 -0.22345
 H199 H 0.86549 0.52136 -0.30090
 H200 H 0.81510 0.49664 -0.21889
 H201 H 0.87341 0.34946 -0.28652
 H202 H 0.82359 0.32507 -0.20367
 H203 H 0.91597 0.40187 -0.36084
 H204 H 0.91134 0.51238 -0.36925
 H205 H 0.77296 0.44440 -0.14369
 H206 H 0.77877 0.33481 -0.13336
 C207 C 0.56995 0.42876 -0.27690
 C208 C 0.59300 0.46930 -0.29486
 C209 C 0.57864 0.48385 -0.34176
 C210 C 0.54137 0.45821 -0.37035
 C211 C 0.51874 0.41757 -0.35176
 C212 C 0.53293 0.40269 -0.30514
 C213 C 0.58476 0.41338 -0.22731
 C214 C 0.56172 0.37284 -0.20937
 C215 C 0.57581 0.35840 -0.16196
 C216 C 0.61257 0.38428 -0.13221
 C217 C 0.63532 0.42488 -0.15104
 C218 C 0.62158 0.43955 -0.19861
 C219 C 0.51075 0.36228 -0.28602
 C220 C 0.52493 0.34759 -0.23900
 C221 C 0.62982 0.49452 -0.26530
 C222 C 0.64385 0.47991 -0.21795
 H223 H 0.48216 0.34184 -0.30751
 H224 H 0.50687 0.31625 -0.22558
 H225 H 0.64789 0.52586 -0.27873
 H226 H 0.67234 0.50040 -0.19623
 H227 H 0.59628 0.51518 -0.35554
 H228 H 0.49009 0.39752 -0.37347
 H229 H 0.55797 0.32714 -0.14797
 H230 H 0.66372 0.44508 -0.12880
 C231 C 0.85849 0.42836 0.27910
 C232 C 0.86931 0.40227 0.30753
 C233 C 0.89822 0.41710 0.35439
 C234 C 0.91621 0.45771 0.37302
 C235 C 0.90469 0.48336 0.34427
 C236 C 0.87594 0.46886 0.29714
 C237 C 0.82849 0.41305 0.22921
 C238 C 0.81800 0.43925 0.20032
 C239 C 0.78979 0.42466 0.15247
 C240 C 0.77199 0.38410 0.13354
 C241 C 0.78273 0.35820 0.16346
 C242 C 0.81106 0.37256 0.21116
 C243 C 0.86447 0.49410 0.26739
 C244 C 0.83602 0.47956 0.21977
 C245 C 0.85112 0.36191 0.28831
 C246 C 0.82245 0.34729 0.24100
 H247 H 0.87771 0.52541 0.28088
 H248 H 0.82813 0.50007 0.19790
 H249 H 0.85918 0.34145 0.30994
 H250 H 0.80921 0.31598 0.22751
 H251 H 0.90674 0.39704 0.37622
 H252 H 0.91835 0.51466 0.35808
 H253 H 0.78169 0.44487 0.13011
 H254 H 0.76933 0.32696 0.14941
 C255 C 0.56971 0.14105 0.27831
 C256 C 0.53154 0.12819 0.30401
 C257 C 0.51735 0.09911 0.35069
 C258 C 0.54112 0.08291 0.37212
 C259 C 0.57963 0.09664 0.34593
 C260 C 0.59393 0.12550 0.29890
 C261 C 0.58451 0.17122 0.22859
 C262 C 0.62247 0.18369 0.20230
 C263 C 0.63620 0.21202 0.15455
 C264 C 0.61233 0.22804 0.13327
 C265 C 0.57444 0.21538 0.16065
 C266 C 0.56032 0.18684 0.20811
 C267 C 0.63189 0.13896 0.27177
 C268 C 0.64589 0.16751 0.22422
 C269 C 0.50822 0.14456 0.28235
 C270 C 0.52240 0.17345 0.23529
 H271 H 0.65089 0.12720 0.28723
 H272 H 0.67528 0.17694 0.20441
 H273 H 0.47872 0.13493 0.30188
 H274 H 0.50344 0.18527 0.21990
 H275 H 0.48774 0.08916 0.37014
 H276 H 0.59843 0.08466 0.36155
 H277 H 0.66549 0.22166 0.13418
 H278 H 0.55573 0.22737 0.14467
 C279 C 0.57133 0.43006 0.27839
 C280 C 0.59742 0.46707 0.30663
 C281 C 0.58251 0.48122 0.35333
 C282 C 0.54183 0.45857 0.37199
 C283 C 0.51619 0.42133 0.34340
 C284 C 0.53076 0.40700 0.29643
 C285 C 0.58674 0.41529 0.22870
 C286 C 0.56056 0.37851 0.19999
 C287 C 0.57524 0.36481 0.15232
 C288 C 0.61588 0.38757 0.13341
 C289 C 0.64176 0.42431 0.16317
 C290 C 0.62731 0.43836 0.21067
 C291 C 0.50554 0.37021 0.26686
 C292 C 0.52017 0.35622 0.21941
 C293 C 0.63786 0.48925 0.28743
 C294 C 0.65256 0.47512 0.24031
 H295 H 0.47417 0.35213 0.28035
 H296 H 0.49967 0.32775 0.19769
 H297 H 0.65830 0.51783 0.30892
 H298 H 0.68393 0.49319 0.22683
 H299 H 0.60256 0.50985 0.37504
 H300 H 0.48484 0.40367 0.35723
 H301 H 0.55504 0.33642 0.13008
 H302 H 0.67305 0.44216 0.14911
 C303 C 0.14140 0.57135 0.27833
 C304 C 0.12399 0.53087 0.29651
 C305 C 0.09526 0.51637 0.34379
 C306 C 0.08371 0.54201 0.37255
 C307 C 0.10165 0.58260 0.35378
 C308 C 0.13054 0.59743 0.30676
 C309 C 0.17138 0.58666 0.22829
 C310 C 0.18877 0.62714 0.21012
 C311 C 0.21710 0.64150 0.16230
 C312 C 0.22790 0.61562 0.13239
 C313 C 0.21013 0.57507 0.15144
 C314 C 0.18192 0.56048 0.19942
 C315 C 0.14868 0.63778 0.28740
 C316 C 0.17734 0.65240 0.23995
 C317 C 0.13549 0.50564 0.26676
 C318 C 0.16394 0.52018 0.21899
 H319 H 0.14060 0.65822 0.30903
 H320 H 0.19055 0.68369 0.22636
 H321 H 0.12229 0.47434 0.28035
 H322 H 0.17186 0.49968 0.19714
 H323 H 0.08163 0.48508 0.35770
 H324 H 0.09310 0.60265 0.37561
 H325 H 0.23047 0.67273 0.14814
 H326 H 0.21827 0.55487 0.12910
 C327 C 0.43009 0.85880 0.27648
 C328 C 0.46715 0.86981 0.30465
 C329 C 0.48133 0.89888 0.35128
 C330 C 0.45866 0.91683 0.36993
 C331 C 0.42136 0.90514 0.34141
 C332 C 0.40701 0.87623 0.29451
 C333 C 0.41529 0.82860 0.22688
 C334 C 0.37844 0.81790 0.19824
 C335 C 0.36471 0.78950 0.15067
 C336 C 0.38750 0.77170 0.13177
 C337 C 0.42429 0.78265 0.16145
 C338 C 0.43838 0.81117 0.20886
 C339 C 0.37015 0.86457 0.26501
 C340 C 0.35613 0.83593 0.21766
 C341 C 0.48936 0.85164 0.28546
 C342 C 0.47519 0.82277 0.23843
 H343 H 0.35205 0.87779 0.27850
 H344 H 0.32762 0.82788 0.19599
 H345 H 0.51798 0.85984 0.30690
 H346 H 0.49329 0.80954 0.22496
 H347 H 0.51000 0.90753 0.37294
 H348 H 0.40368 0.91878 0.35523
 H349 H 0.33628 0.78124 0.12849
 H350 H 0.44216 0.76927 0.14740
 C351 C 0.42814 0.56998 0.27778
 C352 C 0.46866 0.59312 0.29586
 C353 C 0.48315 0.57890 0.34303
 C354 C 0.45749 0.54168 0.37178
 C355 C 0.41687 0.51896 0.35309
 C356 C 0.40203 0.53300 0.30618
 C357 C 0.41282 0.58463 0.22786
 C358 C 0.37231 0.56148 0.20978
 C359 C 0.35795 0.57543 0.16208
 C360 C 0.38386 0.61215 0.13218
 C361 C 0.42444 0.63499 0.15115
 C362 C 0.43904 0.62139 0.19901
 C363 C 0.36165 0.51072 0.28692
 C364 C 0.34703 0.52475 0.23958
 C365 C 0.49392 0.62989 0.26614
 C366 C 0.47937 0.64377 0.21849
 H367 H 0.34118 0.48217 0.30853
 H368 H 0.31570 0.50661 0.22607
 H369 H 0.52524 0.64803 0.27966
 H370 H 0.49989 0.67222 0.19666
 H371 H 0.51447 0.59662 0.35688
 H372 H 0.39680 0.49033 0.37491
 H373 H 0.32670 0.55752 0.14798
 H374 H 0.44467 0.66336 0.12882
   
