data_POSCAR
  _audit_creation_date              2014-09-24
  _audit_creation_method            'ToBaCCo'
  _symmetry_space_group_name_H-M    'P1'
  _symmetry_Int_Tables_number       1
  _symmetry_cell_setting            triclinic
  loop_
  _symmetry_equiv_pos_as_xyz
 x,y,z
_cell_length_a 29.7950
_cell_length_b 29.8049
_cell_length_c 36.9197
_cell_angle_alpha 90.075300
_cell_angle_beta 90.055800
_cell_angle_gamma 81.048500
loop_
  _atom_site_label
  _atom_site_type_symbol
  _atom_site_fract_x
  _atom_site_fract_y
  _atom_site_fract_z
C1 C 1.22406 0.21882 0.20542
 C2 C 1.25251 0.24713 0.18314
 C3 C 1.27713 0.27249 0.20366
 C4 C 1.27108 0.26727 0.24484
 C5 C 1.25777 0.19038 0.23089
 C6 C 1.28224 0.21578 0.25166
 C7 C 1.19476 0.25281 0.23016
 C8 C 1.21939 0.27801 0.25094
 H9 H 1.25326 0.24704 0.15370
 H10 H 1.29123 0.28805 0.26148
 H11 H 1.25907 0.15404 0.23463
 H12 H 1.15840 0.25370 0.23353
 C13 C 0.72247 -0.27470 0.20573
 C14 C 0.75039 -0.24621 0.18316
 C15 C 0.77581 -0.22139 0.20343
 C16 C 0.77107 -0.22729 0.24466
 C17 C 0.75681 -0.30375 0.23032
 C18 C 0.78210 -0.27892 0.25086
 C19 C 0.69415 -0.24101 0.23129
 C20 C 0.71962 -0.21633 0.25181
 H21 H 0.74990 -0.24548 0.15372
 H22 H 0.79192 -0.20697 0.26107
 H23 H 0.75768 -0.34006 0.23398
 H24 H 0.65790 -0.24002 0.23542
 C25 C 0.72050 0.22601 -0.29442
 C26 C 0.74705 0.25273 -0.31637
 C27 C 0.77394 0.27886 -0.29521
 C28 C 0.76916 0.27331 -0.25600
 C29 C 0.75308 0.19811 -0.27108
 C30 C 0.77996 0.22425 -0.24975
 C31 C 0.69336 0.25828 -0.27036
 C32 C 0.72026 0.28440 -0.24902
 H33 H 0.74678 0.25305 -0.34584
 H34 H 0.79017 0.29375 -0.23974
 H35 H 0.75352 0.16190 -0.26691
 H36 H 0.65721 0.25892 -0.26572
 C37 C 1.22333 -0.28148 -0.29455
 C38 C 1.25165 -0.25309 -0.31687
 C39 C 1.27594 -0.22751 -0.29628
 C40 C 1.26981 -0.23258 -0.25518
 C41 C 1.25705 -0.30965 -0.26899
 C42 C 1.28123 -0.28398 -0.24828
 C43 C 1.19373 -0.24756 -0.27000
 C44 C 1.21815 -0.22210 -0.24930
 H45 H 1.25242 -0.25316 -0.34630
 H46 H 1.28977 -0.21161 -0.23854
 H47 H 1.25852 -0.34600 -0.26511
 H48 H 1.15736 -0.24674 -0.26676
 C49 C 0.22286 0.22713 0.79470
 C50 C 0.24970 0.25373 0.81624
 C51 C 0.27663 0.27941 0.79506
 C52 C 0.27193 0.27393 0.75598
 C53 C 0.19467 0.26096 0.76907
 C54 C 0.22042 0.28538 0.74859
 C55 C 0.25673 0.19763 0.76987
 C56 C 0.28235 0.22220 0.74939
 H57 H 0.24944 0.25430 0.84569
 H58 H 0.29298 0.29401 0.73958
 H59 H 0.15839 0.26220 0.76489
 H60 H 0.25723 0.16137 0.76619
 C61 C 0.72417 0.71867 0.79542
 C62 C 0.75068 0.74585 0.81708
 C63 C 0.77632 0.77279 0.79564
 C64 C 0.77060 0.76742 0.75650
 C65 C 0.69577 0.75066 0.77194
 C66 C 0.72147 0.77758 0.75033
 C67 C 0.75655 0.69154 0.77144
 C68 C 0.78217 0.71851 0.74982
 H69 H 0.75120 0.74597 0.84656
 H70 H 0.79068 0.78849 0.74003
 H71 H 0.65959 0.75065 0.76790
 H72 H 0.75754 0.65529 0.76702
 C73 C 0.72271 0.21761 0.29533
 C74 C 0.75058 0.24633 0.31786
 C75 C 0.77468 0.27222 0.29749
 C76 C 0.76882 0.26708 0.25633
 C77 C 0.69292 0.25130 0.27070
 C78 C 0.71716 0.27705 0.25017
 C79 C 0.75679 0.18976 0.26983
 C80 C 0.78075 0.21573 0.24928
 H81 H 0.75116 0.24629 0.34729
 H82 H 0.78863 0.28830 0.23987
 H83 H 0.65666 0.25157 0.26715
 H84 H 0.75837 0.15344 0.26565
 C85 C 0.21872 0.72543 0.29343
 C86 C 0.24723 0.75350 0.31600
 C87 C 0.27298 0.77795 0.29577
 C88 C 0.26789 0.77215 0.25448
 C89 C 0.19069 0.75945 0.26797
 C90 C 0.21639 0.78375 0.24741
 C91 C 0.25267 0.69600 0.26871
 C92 C 0.27827 0.72044 0.24818
 H93 H 0.24717 0.75391 0.34544
 H94 H 0.28893 0.79218 0.23807
 H95 H 0.15434 0.76097 0.26399
 H96 H 0.25342 0.65967 0.26528
 O97 O 1.07197 0.01814 0.04256
 O98 O 0.91996 -0.01594 0.04184
 O99 O 0.96799 0.08046 0.04191
 O100 O 1.02619 -0.07852 0.04209
 O101 O 0.90676 0.06119 0.02218
 O102 O 1.08659 -0.05862 0.02185
 O103 O 0.95040 -0.08053 0.02198
 O104 O 1.04306 0.08282 0.02230
 C105 C 1.06473 0.05964 0.04644
 C106 C 0.92857 -0.05738 0.04614
 C107 C 0.92748 0.07854 0.04653
 C108 C 1.06658 -0.07561 0.04666
 O109 O 1.07576 -0.02838 -0.04763
 O110 O 0.91723 0.03202 -0.04820
 O111 O 1.01539 0.07615 -0.04797
 O112 O 0.97806 -0.07477 -0.04805
 O113 O 0.91370 -0.04357 -0.02825
 O114 O 1.07954 0.04628 -0.02728
 O115 O 1.05519 -0.08921 -0.02839
 O116 O 0.93845 0.09188 -0.02783
 Co117 Co 1.07045 -0.00497 -0.00260
 Co118 Co 0.92238 0.00778 -0.00313
 Co119 Co 0.99175 0.07487 -0.00298
 Co120 Co 1.00198 -0.07285 -0.00305
 O121 O 0.99660 0.00118 -0.00296
 C122 C 1.07323 -0.06874 -0.05244
 C123 C 0.92082 0.07227 -0.05262
 C124 C 1.05694 0.06849 -0.05144
 C125 C 0.93656 -0.06618 -0.05220
 O126 O 1.07364 0.51581 0.54370
 O127 O 0.92193 0.48105 0.54607
 O128 O 0.96881 0.57811 0.54532
 O129 O 1.02827 0.41931 0.54410
 O130 O 0.90728 0.55840 0.52665
 O131 O 1.08786 0.43934 0.52252
 O132 O 0.95211 0.41666 0.52558
 O133 O 1.04344 0.58058 0.52435
 C134 C 1.06576 0.55720 0.54803
 C135 C 0.93040 0.43953 0.54999
 C136 C 0.92834 0.57633 0.55049
 C137 C 1.06871 0.42244 0.54784
 O138 O 1.07470 0.47015 0.45332
 O139 O 0.91602 0.52950 0.45613
 O140 O 1.01408 0.57469 0.45458
 O141 O 0.97772 0.42346 0.45496
 O142 O 0.91385 0.45377 0.47615
 O143 O 1.07890 0.54479 0.47397
 O144 O 1.05523 0.40896 0.47289
 O145 O 0.93760 0.58937 0.47607
 Co146 Co 1.07076 0.49316 0.49856
 Co147 Co 0.92274 0.50509 0.50109
 Co148 Co 0.99157 0.57280 0.49998
 Co149 Co 1.00279 0.42503 0.49946
 O150 O 0.99693 0.49901 0.49977
 C151 C 1.07269 0.42966 0.44859
 C152 C 0.91988 0.56962 0.45144
 C153 C 1.05555 0.56723 0.45032
 C154 C 0.93617 0.43208 0.45151
 O155 O 0.58280 0.04203 0.52856
 O156 O 0.41734 -0.04772 0.52659
 O157 O 0.44155 0.08769 0.52628
 O158 O 0.55862 -0.09360 0.52911
 O159 O 0.41994 0.02801 0.54639
 O160 O 0.57845 -0.03263 0.54887
 O161 O 0.48125 -0.07846 0.54753
 O162 O 0.51807 0.07251 0.54785
 C163 C 0.55954 0.06484 0.55209
 C164 C 0.43974 -0.06948 0.55115
 C165 C 0.42366 0.06821 0.55091
 C166 C 0.57638 -0.07312 0.55344
 O167 O 0.59086 -0.06317 0.47941
 O168 O 0.41115 0.05645 0.47577
 O169 O 0.54748 0.07815 0.47824
 O170 O 0.45485 -0.08536 0.47710
 O171 O 0.42520 -0.02094 0.45652
 O172 O 0.57716 0.01336 0.45861
 O173 O 0.53089 -0.08306 0.45818
 O174 O 0.47274 0.07593 0.45711
 Co175 Co 0.57435 -0.00943 0.50370
 Co176 Co 0.42635 0.00332 0.50147
 Co177 Co 0.49550 0.07064 0.50246
 Co178 Co 0.50590 -0.07716 0.50292
 O179 O 0.50049 -0.00316 0.50265
 C180 C 0.57129 -0.07993 0.45417
 C181 C 0.43230 0.07404 0.45187
 C182 C 0.56942 0.05476 0.45438
 C183 C 0.43324 -0.06249 0.45266
 O184 O 0.58318 0.54329 0.02554
 O185 O 0.41811 0.45201 0.02496
 O186 O 0.44196 0.58777 0.02609
 O187 O 0.55961 0.40750 0.02585
 O188 O 0.42107 0.52747 0.04576
 O189 O 0.57984 0.46838 0.04551
 O190 O 0.48241 0.42123 0.04504
 O191 O 0.51882 0.57244 0.04622
 C192 C 0.56036 0.56509 0.04979
 C193 C 0.44091 0.42977 0.04908
 C194 C 0.42438 0.56773 0.05060
 C195 C 0.57722 0.42802 0.05020
 O196 O 0.59119 0.43850 -0.02403
 O197 O 0.41053 0.55740 -0.02430
 O198 O 0.54651 0.57986 -0.02396
 O199 O 0.45526 0.41573 -0.02534
 O200 O 0.42442 0.48044 -0.04472
 O201 O 0.57614 0.51544 -0.04446
 O202 O 0.53109 0.41838 -0.04480
 O203 O 0.47157 0.57714 -0.04375
 Co204 Co 0.57457 0.49202 0.00057
 Co205 Co 0.42651 0.50375 0.00047
 Co206 Co 0.49530 0.57135 0.00116
 Co207 Co 0.50655 0.42360 0.00020
 O208 O 0.50070 0.49764 0.00059
 C209 C 0.57148 0.42146 -0.04905
 C210 C 0.43109 0.57517 -0.04843
 C211 C 0.56852 0.55698 -0.04812
 C212 C 0.43308 0.43902 -0.04927
 C213 C 1.19759 0.19168 0.18321
 C214 C 1.17593 0.16971 0.16457
 C215 C 1.15088 0.14455 0.14203
 C216 C 1.12993 0.12369 0.12189
 C217 C 1.10615 0.10019 0.09707
 C218 C 1.08667 0.08106 0.07466
 C219 C 1.19722 0.69104 0.68346
 C220 C 1.17582 0.66861 0.66513
 C221 C 1.15109 0.64287 0.64302
 C222 C 1.13039 0.62155 0.62316
 C223 C 1.10689 0.59771 0.59858
 C224 C 1.08759 0.57847 0.57622
 C225 C 0.69441 0.20064 0.68497
 C226 C 0.67197 0.17873 0.66688
 C227 C 0.64616 0.15334 0.64510
 C228 C 0.62472 0.13202 0.62566
 C229 C 0.60060 0.10767 0.60164
 C230 C 0.58109 0.08760 0.57982
 C231 C 0.69515 0.69863 0.18390
 C232 C 0.67288 0.67682 0.16567
 C233 C 0.64724 0.65163 0.14368
 C234 C 0.62590 0.63057 0.12402
 C235 C 0.60182 0.60667 0.09973
 C236 C 0.58223 0.58711 0.07768
 C237 C 0.80373 -0.19205 0.18637
 C238 C 0.82575 -0.16866 0.16935
 C239 C 0.85004 -0.14260 0.14677
 C240 C 0.86958 -0.12149 0.12570
 C241 C 0.89120 -0.09801 0.09928
 C242 C 0.90871 -0.07896 0.07555
 C243 C 0.80109 0.30598 0.68856
 C244 C 0.82390 0.32885 0.67170
 C245 C 0.84915 0.35438 0.64936
 C246 C 0.86951 0.37517 0.62856
 C247 C 0.89203 0.39849 0.60251
 C248 C 0.91014 0.41761 0.57911
 C249 C 0.30456 -0.19857 0.68723
 C250 C 0.32754 -0.17551 0.67094
 C251 C 0.35329 -0.15000 0.64930
 C252 C 0.37434 -0.12953 0.62895
 C253 C 0.39796 -0.10712 0.60326
 C254 C 0.41738 -0.08926 0.58004
 C255 C 0.30616 0.30100 0.18688
 C256 C 0.32932 0.32358 0.17013
 C257 C 0.35517 0.34859 0.14793
 C258 C 0.37621 0.36877 0.12724
 C259 C 0.39974 0.39116 0.10130
 C260 C 0.41897 0.40929 0.07800
 C261 C 0.80416 0.20536 -0.22063
 C262 C 0.82420 0.18694 -0.19494
 C263 C 0.84624 0.16373 -0.16493
 C264 C 0.86412 0.14304 -0.13933
 C265 C 0.88425 0.11825 -0.10930
 C266 C 0.90102 0.09706 -0.08354
 C267 C 0.80798 0.70089 0.28130
 C268 C 0.82770 0.68245 0.30705
 C269 C 0.84897 0.65947 0.33740
 C270 C 0.86596 0.63911 0.36341
 C271 C 0.88495 0.61479 0.39397
 C272 C 0.90084 0.59400 0.42016
 C273 C 0.30829 0.19624 0.28225
 C274 C 0.32856 0.17861 0.30809
 C275 C 0.35101 0.15687 0.33849
 C276 C 0.36953 0.13780 0.36450
 C277 C 0.39094 0.11523 0.39499
 C278 C 0.40946 0.09614 0.42099
 C279 C 0.30707 0.69684 -0.21761
 C280 C 0.32714 0.67945 -0.19167
 C281 C 0.34930 0.65792 -0.16120
 C282 C 0.36764 0.63892 -0.13517
 C283 C 0.38898 0.61639 -0.10477
 C284 C 0.40769 0.59729 -0.07892
 C285 C 1.19759 -0.19553 -0.21946
 C286 C 1.17926 -0.17483 -0.19414
 C287 C 1.15690 -0.15198 -0.16429
 C288 C 1.13739 -0.13311 -0.13866
 C289 C 1.11451 -0.11127 -0.10860
 C290 C 1.09529 -0.09227 -0.08291
 C291 C 1.19890 0.30426 0.28111
 C292 C 1.18041 0.32464 0.30658
 C293 C 1.15766 0.34717 0.33655
 C294 C 1.13779 0.36579 0.36220
 C295 C 1.11446 0.38741 0.39229
 C296 C 1.09494 0.40624 0.41801
 C297 C 0.70029 -0.19079 0.28270
 C298 C 0.68257 -0.17125 0.30881
 C299 C 0.66037 -0.15013 0.33953
 C300 C 0.64053 -0.13323 0.36582
 C301 C 0.61662 -0.11437 0.39661
 C302 C 0.59592 -0.09865 0.42290
 C303 C 0.70217 0.30795 -0.21933
 C304 C 0.68438 0.32740 -0.19314
 C305 C 0.66178 0.34878 -0.16259
 C306 C 0.64152 0.36612 -0.13660
 C307 C 0.61711 0.38567 -0.10618
 C308 C 0.59614 0.40203 -0.08017
 C309 C 1.19511 0.20079 -0.18359
 C310 C 1.17234 0.17930 -0.16558
 C311 C 1.14601 0.15447 -0.14394
 C312 C 1.12405 0.13369 -0.12462
 C313 C 1.09927 0.11003 -0.10074
 C314 C 1.07919 0.09055 -0.07903
 C315 C 1.19100 0.69921 0.31538
 C316 C 1.16839 0.67792 0.33377
 C317 C 1.14235 0.65332 0.35597
 C318 C 1.12075 0.63270 0.37578
 C319 C 1.09649 0.60911 0.40020
 C320 C 1.07697 0.58957 0.42232
 C321 C 0.69694 0.18978 0.31726
 C322 C 0.67605 0.16706 0.33572
 C323 C 0.65209 0.14099 0.35815
 C324 C 0.63212 0.11943 0.37832
 C325 C 0.60945 0.09536 0.40329
 C326 C 0.59075 0.07603 0.42593
 C327 C 0.69932 0.69254 -0.18364
 C328 C 0.67799 0.67009 -0.16514
 C329 C 0.65341 0.64427 -0.14281
 C330 C 0.63287 0.62279 -0.12288
 C331 C 0.60950 0.59857 -0.09832
 C332 C 0.59029 0.57889 -0.07612
 C333 C 0.80322 -0.19951 -0.18847
 C334 C 0.82597 -0.17618 -0.17196
 C335 C 0.85142 -0.15024 -0.15006
 C336 C 0.87217 -0.12927 -0.12964
 C337 C 0.89550 -0.10600 -0.10401
 C338 C 0.91462 -0.08723 -0.08094
 C339 C 0.80279 0.30155 0.31429
 C340 C 0.82531 0.32486 0.33090
 C341 C 0.85055 0.35064 0.35290
 C342 C 0.87122 0.37131 0.37349
 C343 C 0.89451 0.39397 0.39936
 C344 C 0.91378 0.41204 0.42265
 C345 C 0.30216 -0.19385 0.31301
 C346 C 0.32525 -0.17146 0.33018
 C347 C 0.35082 -0.14649 0.35284
 C348 C 0.37144 -0.12613 0.37385
 C349 C 0.39428 -0.10320 0.40008
 C350 C 0.41266 -0.08432 0.42355
 C351 C 0.30380 0.30654 -0.18873
 C352 C 0.32660 0.32945 -0.17186
 C353 C 0.35180 0.35496 -0.14943
 C354 C 0.37211 0.37566 -0.12850
 C355 C 0.39457 0.39876 -0.10223
 C356 C 0.41269 0.41758 -0.07861
 C357 C 1.19693 -0.19027 0.21670
 C358 C 1.17886 -0.17031 0.19085
 C359 C 1.15613 -0.14858 0.16049
 C360 C 1.13590 -0.13109 0.13453
 C361 C 1.11165 -0.11146 0.10405
 C362 C 1.09091 -0.09508 0.07793
 C363 C 1.20117 0.31101 0.71772
 C364 C 1.18317 0.33062 0.69173
 C365 C 1.16036 0.35182 0.66127
 C366 C 1.13989 0.36879 0.63527
 C367 C 1.11519 0.38775 0.60484
 C368 C 1.09390 0.40357 0.57884
 C369 C 0.70230 -0.19862 0.72115
 C370 C 0.68404 -0.17872 0.69536
 C371 C 0.66147 -0.15639 0.66520
 C372 C 0.64169 -0.13772 0.63952
 C373 C 0.61836 -0.11587 0.60949
 C374 C 0.59879 -0.09679 0.58388
 C375 C 0.69673 0.30306 0.21999
 C376 C 0.67886 0.32330 0.19429
 C377 C 0.65731 0.34570 0.16390
 C378 C 0.63865 0.36424 0.13779
 C379 C 0.61681 0.38579 0.10717
 C380 C 0.59844 0.40461 0.08106
 C381 C 0.80611 0.19696 0.21822
 C382 C 0.82569 0.18000 0.19190
 C383 C 0.84725 0.15905 0.16093
 C384 C 0.86510 0.14060 0.13447
 C385 C 0.88593 0.11871 0.10358
 C386 C 0.90431 0.10012 0.07737
 C387 C 0.80569 0.70043 0.72013
 C388 C 0.82531 0.68295 0.69393
 C389 C 0.84725 0.66105 0.66333
 C390 C 0.86553 0.64165 0.63733
 C391 C 0.88684 0.61855 0.60697
 C392 C 0.90538 0.59898 0.58114
 C393 C 0.30853 0.20174 0.71917
 C394 C 0.32865 0.18300 0.69367
 C395 C 0.35049 0.15962 0.66367
 C396 C 0.36804 0.13889 0.63798
 C397 C 0.38770 0.11414 0.60779
 C398 C 0.40412 0.09299 0.58190
 C399 C 0.30503 0.69974 0.21826
 C400 C 0.32575 0.68096 0.19301
 C401 C 0.34843 0.65770 0.16323
 C402 C 0.36675 0.63720 0.13769
 C403 C 0.38728 0.61281 0.10758
 C404 C 0.40433 0.59203 0.08169
   
