data_POSCAR
  _audit_creation_date              2014-09-24
  _audit_creation_method            'ToBaCCo'
  _symmetry_space_group_name_H-M    'P1'
  _symmetry_Int_Tables_number       1
  _symmetry_cell_setting            triclinic
  loop_
  _symmetry_equiv_pos_as_xyz
 x,y,z
_cell_length_a 45.2578
_cell_length_b 45.2649
_cell_length_c 45.2838
_cell_angle_alpha 90.020900
_cell_angle_beta 90.017600
_cell_angle_gamma 90.024200
loop_
  _atom_site_label
  _atom_site_type_symbol
  _atom_site_fract_x
  _atom_site_fract_y
  _atom_site_fract_z
O1 O 0.38931 0.34943 -0.02938
 O2 O 0.34865 0.38992 0.02824
 O3 O 0.38940 0.34920 0.02811
 O4 O 0.34843 0.39006 -0.02924
 O5 O 0.31396 0.35542 -0.02925
 O6 O 0.35487 0.31461 0.02804
 O7 O 0.31416 0.35529 0.02818
 O8 O 0.35480 0.31483 -0.02940
 Cu9 Cu 0.37243 0.37315 -0.00057
 Cu10 Cu 0.33097 0.33155 -0.00062
 C11 C 0.37896 0.32525 -0.03904
 C12 C 0.32450 0.37946 0.03787
 C13 C 0.37907 0.32497 0.03770
 C14 C 0.32421 0.37967 -0.03885
 O15 O 0.65142 0.61008 0.02817
 O16 O 0.61073 0.65059 -0.02941
 O17 O 0.65156 0.60991 -0.02932
 O18 O 0.61073 0.65086 0.02807
 O19 O 0.64531 0.68540 0.02797
 O20 O 0.68608 0.64450 -0.02935
 O21 O 0.64530 0.68514 -0.02945
 O22 O 0.68596 0.64466 0.02809
 Cu23 Cu 0.62763 0.62687 -0.00062
 Cu24 Cu 0.66915 0.66840 -0.00070
 C25 C 0.67559 0.62051 0.03780
 C26 C 0.62111 0.67476 -0.03907
 C27 C 0.67577 0.62026 -0.03896
 C28 C 0.62111 0.67509 0.03765
 O29 O 0.65120 0.39020 0.97185
 O30 O 0.61046 0.34962 1.02936
 O31 O 0.65130 0.39031 1.02933
 O32 O 0.61044 0.34947 0.97187
 O33 O 0.64497 0.31492 0.97194
 O34 O 0.68578 0.35571 1.02934
 O35 O 0.64499 0.31506 1.02937
 O36 O 0.68569 0.35560 0.97191
 Cu37 Cu 0.62736 0.37339 1.00060
 Cu38 Cu 0.66884 0.33184 1.00065
 C39 C 0.67536 0.37977 0.96223
 C40 C 0.62082 0.32543 1.03899
 C41 C 0.67550 0.37994 1.03897
 C42 C 0.62079 0.32526 0.96226
 O43 O 0.38940 0.65065 1.02956
 O44 O 0.34857 0.61002 0.97207
 O45 O 0.38934 0.65076 0.97208
 O46 O 0.34854 0.60994 1.02956
 O47 O 0.31406 0.64453 1.02960
 O48 O 0.35481 0.68531 0.97218
 O49 O 0.31407 0.64462 0.97217
 O50 O 0.35487 0.68521 1.02961
 Cu51 Cu 0.37245 0.62685 1.00082
 Cu52 Cu 0.33098 0.66840 1.00090
 C53 C 0.37907 0.67484 1.03921
 C54 C 0.32439 0.62044 0.96248
 C55 C 0.37899 0.67498 0.96248
 C56 C 0.32435 0.62031 1.03922
 O57 O 0.02838 0.34889 0.38974
 O58 O -0.02924 0.38930 0.34898
 O59 O -0.02913 0.34848 0.38962
 O60 O 0.02828 0.38958 0.34894
 O61 O 0.02845 0.35501 0.31443
 O62 O -0.02890 0.31397 0.35506
 O63 O -0.02902 0.35474 0.31445
 O64 O 0.02856 0.31436 0.35518
 Cu65 Cu -0.00045 0.37255 0.37281
 Cu66 Cu -0.00021 0.33104 0.33129
 C67 C 0.03811 0.32475 0.37938
 C68 C -0.03880 0.37887 0.32480
 C69 C -0.03865 0.32423 0.37924
 C70 C 0.03799 0.37925 0.32476
 O71 O 0.02851 0.65081 0.61010
 O72 O -0.02919 0.61048 0.65084
 O73 O -0.02901 0.65122 0.61012
 O74 O 0.02832 0.61019 0.65096
 O75 O 0.02850 0.64482 0.68542
 O76 O -0.02877 0.68580 0.64463
 O77 O -0.02896 0.64510 0.68532
 O78 O 0.02870 0.68541 0.64460
 Cu79 Cu -0.00036 0.62718 0.62702
 Cu80 Cu -0.00011 0.66877 0.66847
 C81 C 0.03827 0.67496 0.62044
 C82 C -0.03874 0.62095 0.67500
 C83 C -0.03852 0.67549 0.62046
 C84 C 0.03801 0.62054 0.67515
 O85 O 1.02910 0.61032 0.34920
 O86 O 0.97157 0.65081 0.39001
 O87 O 0.97159 0.61012 0.34919
 O88 O 1.02908 0.65107 0.38993
 O89 O 1.02890 0.68561 0.35541
 O90 O 0.97147 0.64471 0.31472
 O91 O 0.97145 0.68536 0.35549
 O92 O 1.02893 0.64491 0.31472
 Cu93 Cu 1.00035 0.62708 0.37307
 Cu94 Cu 1.00017 0.66863 0.33161
 C95 C 1.03867 0.62075 0.32503
 C96 C 0.96187 0.67497 0.37967
 C97 C 0.96189 0.62048 0.32503
 C98 C 1.03864 0.67530 0.37957
 O99 O 0.97127 0.34884 0.60997
 O100 O 1.02884 0.38927 0.65091
 O101 O 1.02878 0.34854 0.61014
 O102 O 0.97132 0.38951 0.65084
 O103 O 0.97111 0.35488 0.68528
 O104 O 1.02852 0.31396 0.64462
 O105 O 1.02858 0.35465 0.68536
 O106 O 0.97105 0.31426 0.64446
 Cu107 Cu 1.00007 0.37253 0.62699
 Cu108 Cu 0.99979 0.33095 0.66840
 C109 C 0.96152 0.32467 0.62027
 C110 C 1.03836 0.37881 0.67509
 C111 C 1.03830 0.32428 0.62048
 C112 C 0.96159 0.37914 0.67499
 O113 O 0.34891 -0.02870 0.38971
 O114 O 0.38950 0.02910 0.34933
 O115 O 0.34869 0.02881 0.39000
 O116 O 0.38974 -0.02840 0.34907
 O117 O 0.35523 -0.02838 0.31449
 O118 O 0.31421 0.02879 0.35539
 O119 O 0.35498 0.02907 0.31476
 O120 O 0.31443 -0.02867 0.35508
 Cu121 Cu 0.37269 0.00021 0.37303
 Cu122 Cu 0.33123 0.00021 0.33145
 C123 C 0.32478 -0.03838 0.37923
 C124 C 0.37912 0.03876 0.32517
 C125 C 0.32447 0.03840 0.37964
 C126 C 0.37945 -0.03798 0.32482
 O127 O 0.61041 0.02893 0.65079
 O128 O 0.65102 -0.02887 0.61042
 O129 O 0.61024 -0.02859 0.65111
 O130 O 0.65114 0.02863 0.61004
 O131 O 0.68568 0.02876 0.64459
 O132 O 0.64480 -0.02842 0.68563
 O133 O 0.68555 -0.02868 0.64499
 O134 O 0.64499 0.02904 0.68531
 Cu135 Cu 0.62721 0.00001 0.62710
 Cu136 Cu 0.66873 0.00019 0.66862
 C137 C 0.62082 0.03867 0.67491
 C138 C 0.67519 -0.03846 0.62086
 C139 C 0.62059 -0.03811 0.67534
 C140 C 0.67537 0.03828 0.62034
 O141 O 0.38944 0.97102 0.65089
 O142 O 0.34876 1.02865 0.61037
 O143 O 0.38958 1.02853 0.65103
 O144 O 0.34870 0.97115 0.61013
 O145 O 0.31418 0.97112 0.64469
 O146 O 0.35504 1.02846 0.68556
 O147 O 0.31426 1.02857 0.64495
 O148 O 0.35488 0.97101 0.68541
 Cu149 Cu 0.37261 0.99984 0.62711
 Cu150 Cu 0.33111 0.99978 0.66864
 C151 C 0.37905 0.96136 0.67504
 C152 C 0.32460 1.03828 0.62080
 C153 C 0.37924 1.03813 0.67524
 C154 C 0.32449 0.96151 0.62048
 O155 O 0.65191 1.02922 0.38971
 O156 O 0.61118 0.97155 0.34917
 O157 O 0.65197 0.97170 0.38990
 O158 O 0.61104 1.02906 0.34907
 O159 O 0.64555 1.02901 0.31451
 O160 O 0.68646 0.97170 0.35532
 O161 O 0.64571 0.97156 0.31462
 O162 O 0.68638 1.02917 0.35512
 Cu163 Cu 0.62804 1.00038 0.37296
 Cu164 Cu 0.66950 1.00036 0.33141
 C165 C 0.67607 1.03887 0.37929
 C166 C 0.62155 0.96189 0.32500
 C167 C 0.67617 0.96208 0.37954
 C168 C 0.62134 1.03865 0.32484
 C169 C 0.82593 0.78723 0.48524
 C170 C 0.82594 0.78719 0.51635
 C171 C 0.80680 0.80608 0.53167
 C172 C 0.78793 0.82520 0.51630
 C173 C 0.78801 0.82530 0.48518
 C174 C 0.80690 0.80618 0.46987
 H175 H 0.80714 0.80640 0.44591
 H176 H 0.80695 0.80625 0.55563
 C177 C 0.17408 0.21280 0.48523
 C178 C 0.17400 0.21278 0.51635
 C179 C 0.19311 0.19389 0.53168
 C180 C 0.21204 0.17482 0.51632
 C181 C 0.21206 0.17479 0.48521
 C182 C 0.19319 0.19391 0.46988
 H183 H 0.19301 0.19373 0.44592
 H184 H 0.19289 0.19367 0.55564
 C185 C 0.17458 0.78671 0.51476
 C186 C 0.17452 0.78672 0.48365
 C187 C 0.19363 0.80562 0.46832
 C188 C 0.21254 0.82473 0.48369
 C189 C 0.21255 0.82477 0.51480
 C190 C 0.19368 0.80563 0.53012
 H191 H 0.19348 0.80583 0.55408
 H192 H 0.19341 0.80583 0.44436
 C193 C 0.82570 0.21239 0.51426
 C194 C 0.82579 0.21233 0.48315
 C195 C 0.80671 0.19338 0.46780
 C196 C 0.78777 0.17430 0.48316
 C197 C 0.78773 0.17432 0.51428
 C198 C 0.80659 0.19348 0.52961
 H199 H 0.80676 0.19334 0.55357
 H200 H 0.80693 0.19314 0.44385
 C201 C 0.48402 0.82511 0.78750
 C202 C 0.51515 0.82517 0.78746
 C203 C 0.53051 0.80604 0.80630
 C204 C 0.51517 0.78712 0.82538
 C205 C 0.48404 0.78712 0.82550
 C206 C 0.46867 0.80602 0.80642
 H207 H 0.44470 0.80622 0.80665
 H208 H 0.55448 0.80624 0.80646
 C209 C 0.48424 0.17501 0.21280
 C210 C 0.51537 0.17501 0.21282
 C211 C 0.53070 0.19413 0.19395
 C212 C 0.51532 0.21300 0.17484
 C213 C 0.48419 0.21294 0.17474
 C214 C 0.46885 0.19405 0.19385
 H215 H 0.44488 0.19381 0.19364
 H216 H 0.55467 0.19398 0.19377
 C217 C 0.51585 0.17521 0.78706
 C218 C 0.48472 0.17513 0.78704
 C219 C 0.46935 0.19425 0.80588
 C220 C 0.48469 0.21318 0.82498
 C221 C 0.51582 0.21320 0.82508
 C222 C 0.53119 0.19432 0.80598
 H223 H 0.55516 0.19413 0.80621
 H224 H 0.44538 0.19403 0.80606
 C225 C 0.51630 0.82565 0.21246
 C226 C 0.48517 0.82567 0.21253
 C227 C 0.46979 0.80652 0.19370
 C228 C 0.48510 0.78759 0.17460
 C229 C 0.51624 0.78763 0.17446
 C230 C 0.53163 0.80656 0.19352
 H231 H 0.55560 0.80678 0.19327
 H232 H 0.44581 0.80668 0.19357
 C233 C 0.78729 0.48470 0.82553
 C234 C 0.78723 0.51582 0.82555
 C235 C 0.80604 0.53118 0.80638
 C236 C 0.82511 0.51582 0.78745
 C237 C 0.82521 0.48470 0.78746
 C238 C 0.80617 0.46934 0.80641
 H239 H 0.80640 0.44538 0.80663
 H240 H 0.80621 0.55514 0.80656
 C241 C 0.21268 0.48461 0.17449
 C242 C 0.21278 0.51574 0.17450
 C243 C 0.19396 0.53110 0.19366
 C244 C 0.17485 0.51575 0.21255
 C245 C 0.17470 0.48462 0.21251
 C246 C 0.19375 0.46926 0.19357
 H247 H 0.19348 0.44530 0.19332
 H248 H 0.19383 0.55506 0.19351
 C249 C 0.78714 0.51535 0.17462
 C250 C 0.78701 0.48422 0.17458
 C251 C 0.80580 0.46882 0.19373
 C252 C 0.82493 0.48413 0.21266
 C253 C 0.82509 0.51526 0.21268
 C254 C 0.80607 0.53066 0.19375
 H255 H 0.80636 0.55462 0.19355
 H256 H 0.80592 0.44486 0.19353
 C257 C 0.21217 0.51519 0.82603
 C258 C 0.21226 0.48406 0.82603
 C259 C 0.19343 0.46868 0.80687
 C260 C 0.17433 0.48400 0.78794
 C261 C 0.17422 0.51513 0.78796
 C262 C 0.19326 0.53051 0.80691
 H263 H 0.19301 0.55448 0.80713
 H264 H 0.19330 0.44471 0.80704
 C265 C 0.30837 0.39544 0.05992
 C266 C 0.29450 0.40893 0.07818
 C267 C 0.27791 0.42478 0.09924
 C268 C 0.26343 0.43837 0.11694
 C269 C 0.24613 0.45434 0.13731
 C270 C 0.23105 0.46806 0.15441
 C271 C 0.69171 0.60454 0.05986
 C272 C 0.70555 0.59107 0.07815
 C273 C 0.72210 0.57523 0.09924
 C274 C 0.73654 0.56164 0.11698
 C275 C 0.75379 0.54567 0.13739
 C276 C 0.76882 0.53193 0.15452
 C277 C 0.69150 0.39575 0.94019
 C278 C 0.70539 0.40921 0.92193
 C279 C 0.72201 0.42501 0.90086
 C280 C 0.73651 0.43855 0.88314
 C281 C 0.75383 0.45447 0.86274
 C282 C 0.76891 0.46816 0.84563
 C283 C 0.30819 0.60442 0.94048
 C284 C 0.29426 0.59091 0.92225
 C285 C 0.27759 0.57505 0.90123
 C286 C 0.26305 0.56146 0.88355
 C287 C 0.24569 0.54549 0.86320
 C288 C 0.23058 0.53176 0.84611
 C289 C 0.06010 0.30867 0.39550
 C290 C 0.07828 0.29483 0.40912
 C291 C 0.09922 0.27824 0.42513
 C292 C 0.11682 0.26374 0.43883
 C293 C 0.13707 0.24640 0.45491
 C294 C 0.15408 0.23127 0.46868
 C295 C 0.06030 0.69100 0.60434
 C296 C 0.07853 0.70481 0.59074
 C297 C 0.09954 0.72137 0.57477
 C298 C 0.11718 0.73583 0.56109
 C299 C 0.13750 0.75315 0.54505
 C300 C 0.15455 0.76826 0.53130
 C301 C 0.93991 0.69109 0.39578
 C302 C 0.92174 0.70497 0.40937
 C303 C 0.90080 0.72162 0.42532
 C304 C 0.88321 0.73617 0.43897
 C305 C 0.86295 0.75357 0.45498
 C306 C 0.84593 0.76874 0.46871
 C307 C 0.93956 0.30857 0.60408
 C308 C 0.92141 0.29469 0.59042
 C309 C 0.90049 0.27805 0.57439
 C310 C 0.88292 0.26350 0.56067
 C311 C 0.86268 0.24609 0.54459
 C312 C 0.84569 0.23091 0.53082
 C313 C 0.39516 0.06081 0.30908
 C314 C 0.40867 0.07905 0.29519
 C315 C 0.42452 0.10005 0.27851
 C316 C 0.43809 0.11768 0.26393
 C317 C 0.45403 0.13797 0.24648
 C318 C 0.46772 0.15500 0.23130
 C319 C 0.60481 0.06075 0.69098
 C320 C 0.59133 0.07903 0.70485
 C321 C 0.57552 0.10008 0.72150
 C322 C 0.56199 0.11777 0.73605
 C323 C 0.54608 0.13812 0.75345
 C324 C 0.53239 0.15518 0.76861
 C325 C 0.39508 0.93934 0.69116
 C326 C 0.40856 0.92111 0.70509
 C327 C 0.42436 0.90011 0.72180
 C328 C 0.43789 0.88246 0.73639
 C329 C 0.45379 0.86215 0.75385
 C330 C 0.46747 0.84512 0.76903
 C331 C 0.60548 0.93988 0.30885
 C332 C 0.59197 0.92166 0.29491
 C333 C 0.57611 0.90067 0.27818
 C334 C 0.56254 0.88303 0.26357
 C335 C 0.54659 0.86272 0.24611
 C336 C 0.53288 0.84568 0.23093
 C337 C 0.39504 0.30914 0.93897
 C338 C 0.40863 0.29527 0.92078
 C339 C 0.42460 0.27865 0.89983
 C340 C 0.43827 0.26414 0.88223
 C341 C 0.45433 0.24677 0.86197
 C342 C 0.46811 0.23164 0.84497
 C343 C 0.60499 0.69090 0.93899
 C344 C 0.59137 0.70480 0.92086
 C345 C 0.57536 0.72147 0.89998
 C346 C 0.56165 0.73602 0.88245
 C347 C 0.54555 0.75344 0.86226
 C348 C 0.53176 0.76861 0.84532
 C349 C 0.39523 0.69103 0.06112
 C350 C 0.40887 0.70499 0.07922
 C351 C 0.42489 0.72172 0.10007
 C352 C 0.43860 0.73634 0.11758
 C353 C 0.45470 0.75382 0.13775
 C354 C 0.46850 0.76904 0.15468
 C355 C 0.60473 0.30929 0.06095
 C356 C 0.59116 0.29537 0.07911
 C357 C 0.57523 0.27869 0.10004
 C358 C 0.56159 0.26412 0.11762
 C359 C 0.54559 0.24669 0.13786
 C360 C 0.53186 0.23151 0.15486
 C361 C 0.30844 0.06033 0.60485
 C362 C 0.29450 0.07860 0.59145
 C363 C 0.27777 0.09966 0.57574
 C364 C 0.26317 0.11735 0.56228
 C365 C 0.24571 0.13771 0.54645
 C366 C 0.23052 0.15478 0.53282
 C367 C 0.69139 0.05972 0.39441
 C368 C 0.70534 0.07800 0.40786
 C369 C 0.72206 0.09906 0.42363
 C370 C 0.73666 0.11676 0.43713
 C371 C 0.75411 0.13713 0.45300
 C372 C 0.76929 0.15423 0.46665
 C373 C 0.69136 0.93948 0.60494
 C374 C 0.70532 0.92122 0.59152
 C375 C 0.72206 0.90020 0.57579
 C376 C 0.73670 0.88254 0.56230
 C377 C 0.75419 0.86223 0.54644
 C378 C 0.76941 0.84520 0.53280
 C379 C 0.30865 0.93950 0.39514
 C380 C 0.29475 0.92118 0.40853
 C381 C 0.27808 0.90007 0.42424
 C382 C 0.26353 0.88233 0.43771
 C383 C 0.24613 0.86192 0.45355
 C384 C 0.23099 0.84481 0.46718
 C385 C 0.06035 0.39478 0.69136
 C386 C 0.07854 0.40826 0.70536
 C387 C 0.09951 0.42412 0.72211
 C388 C 0.11711 0.43771 0.73673
 C389 C 0.13738 0.45369 0.75420
 C390 C 0.15437 0.46742 0.76941
 C391 C 0.06068 0.60479 0.30884
 C392 C 0.07890 0.59132 0.29490
 C393 C 0.09991 0.57550 0.27821
 C394 C 0.11755 0.56195 0.26364
 C395 C 0.13785 0.54601 0.24622
 C396 C 0.15487 0.53230 0.23105
 C397 C 0.93916 0.39482 0.30863
 C398 C 0.92092 0.40831 0.29473
 C399 C 0.89990 0.42417 0.27810
 C400 C 0.88224 0.43778 0.26359
 C401 C 0.86194 0.45378 0.24624
 C402 C 0.84491 0.46754 0.23111
 C403 C 0.93922 0.60501 0.69119
 C404 C 0.92099 0.59153 0.70512
 C405 C 0.89999 0.57568 0.72180
 C406 C 0.88237 0.56209 0.73636
 C407 C 0.86209 0.54611 0.75377
 C408 C 0.84508 0.53238 0.76894
 C409 C 0.69113 0.60499 0.94027
 C410 C 0.70507 0.59144 0.92205
 C411 C 0.72176 0.57555 0.90101
 C412 C 0.73631 0.56198 0.88330
 C413 C 0.75369 0.54603 0.86287
 C414 C 0.76880 0.53235 0.84571
 C415 C 0.30878 0.39492 0.94042
 C416 C 0.29478 0.40848 0.92225
 C417 C 0.27800 0.42436 0.90127
 C418 C 0.26339 0.43794 0.88362
 C419 C 0.24593 0.45388 0.86326
 C420 C 0.23076 0.46755 0.84615
 C421 C 0.30899 0.60505 0.05999
 C422 C 0.29504 0.59148 0.07819
 C423 C 0.27834 0.57557 0.09920
 C424 C 0.26379 0.56195 0.11688
 C425 C 0.24639 0.54597 0.13726
 C426 C 0.23125 0.53227 0.15438
 C427 C 0.69086 0.39517 0.05977
 C428 C 0.70480 0.40871 0.07800
 C429 C 0.72148 0.42458 0.09907
 C430 C 0.73603 0.43815 0.11679
 C431 C 0.75342 0.45408 0.13724
 C432 C 0.76855 0.46774 0.15441
 C433 C 0.94070 0.69089 0.60526
 C434 C 0.92246 0.70487 0.59177
 C435 C 0.90139 0.72160 0.57596
 C436 C 0.88366 0.73618 0.56244
 C437 C 0.86321 0.75359 0.54654
 C438 C 0.84607 0.76873 0.53288
 C439 C 0.94056 0.30879 0.39439
 C440 C 0.92233 0.29477 0.40785
 C441 C 0.90126 0.27800 0.42363
 C442 C 0.88354 0.26339 0.43713
 C443 C 0.86310 0.24594 0.45299
 C444 C 0.84595 0.23079 0.46663
 C445 C 0.05911 0.30889 0.60530
 C446 C 0.07736 0.29493 0.59181
 C447 C 0.09844 0.27823 0.57598
 C448 C 0.11618 0.26368 0.56244
 C449 C 0.13665 0.24631 0.54653
 C450 C 0.15382 0.23120 0.53287
 C451 C 0.05948 0.69067 0.39475
 C452 C 0.07777 0.70461 0.40823
 C453 C 0.09889 0.72129 0.42404
 C454 C 0.11666 0.73582 0.43756
 C455 C 0.13715 0.75319 0.45346
 C456 C 0.15434 0.76829 0.46712
 C457 C 0.60448 0.93995 0.69161
 C458 C 0.59091 0.92175 0.70555
 C459 C 0.57499 0.90070 0.72221
 C460 C 0.56137 0.88298 0.73670
 C461 C 0.54538 0.86253 0.75401
 C462 C 0.53167 0.84536 0.76907
 C463 C 0.39563 0.94012 0.30858
 C464 C 0.40926 0.92197 0.29463
 C465 C 0.42525 0.90099 0.27796
 C466 C 0.43891 0.88333 0.26343
 C467 C 0.45493 0.86294 0.24608
 C468 C 0.46865 0.84582 0.23098
 C469 C 0.60518 0.06058 0.30863
 C470 C 0.59154 0.07875 0.29472
 C471 C 0.57551 0.09974 0.27809
 C472 C 0.56181 0.11740 0.26361
 C473 C 0.54572 0.13777 0.24631
 C474 C 0.53195 0.15488 0.23124
 C475 C 0.39534 0.06013 0.69144
 C476 C 0.40891 0.07837 0.70533
 C477 C 0.42485 0.09947 0.72191
 C478 C 0.43847 0.11723 0.73636
 C479 C 0.45447 0.13772 0.75362
 C480 C 0.46819 0.15492 0.76866
 C481 C 0.60504 0.69135 0.05963
 C482 C 0.59155 0.70533 0.07786
 C483 C 0.57575 0.72206 0.09893
 C484 C 0.56223 0.73664 0.11666
 C485 C 0.54636 0.75404 0.13712
 C486 C 0.53272 0.76918 0.15429
 C487 C 0.39517 0.30877 0.05970
 C488 C 0.40869 0.29485 0.07795
 C489 C 0.42453 0.27819 0.09906
 C490 C 0.43807 0.26369 0.11683
 C491 C 0.45398 0.24637 0.13733
 C492 C 0.46765 0.23131 0.15454
 C493 C 0.60472 0.30907 0.94022
 C494 C 0.59122 0.29516 0.92194
 C495 C 0.57540 0.27852 0.90080
 C496 C 0.56187 0.26402 0.88301
 C497 C 0.54597 0.24669 0.86249
 C498 C 0.53232 0.23161 0.84528
 C499 C 0.39505 0.69118 0.94046
 C500 C 0.40856 0.70510 0.92220
 C501 C 0.42441 0.72176 0.90110
 C502 C 0.43795 0.73628 0.88335
 C503 C 0.45387 0.75362 0.86287
 C504 C 0.46753 0.76871 0.84568
 C505 C 0.69240 0.94011 0.39565
 C506 C 0.70631 0.92190 0.40923
 C507 C 0.72292 0.90086 0.42519
 C508 C 0.73737 0.88313 0.43885
 C509 C 0.75463 0.86268 0.45488
 C510 C 0.76966 0.84550 0.46862
 C511 C 0.30828 0.93953 0.60435
 C512 C 0.29437 0.92132 0.59075
 C513 C 0.27776 0.90027 0.57479
 C514 C 0.26329 0.88255 0.56113
 C515 C 0.24600 0.86211 0.54510
 C516 C 0.23094 0.84494 0.53135
 C517 C 0.30818 0.06031 0.39577
 C518 C 0.29421 0.07847 0.40936
 C519 C 0.27750 0.09946 0.42530
 C520 C 0.26296 0.11713 0.43893
 C521 C 0.24560 0.13753 0.45493
 C522 C 0.23050 0.15465 0.46866
 C523 C 0.69162 0.06015 0.60412
 C524 C 0.70558 0.07827 0.59045
 C525 C 0.72226 0.09919 0.57441
 C526 C 0.73680 0.11681 0.56069
 C527 C 0.75416 0.13713 0.54461
 C528 C 0.76927 0.15422 0.53084
 C529 C 0.93989 0.60434 0.30884
 C530 C 0.92166 0.59079 0.29490
 C531 C 0.90060 0.57490 0.27822
 C532 C 0.88288 0.56132 0.26367
 C533 C 0.86243 0.54540 0.24628
 C534 C 0.84527 0.53174 0.23114
 C535 C 0.93963 0.39531 0.69120
 C536 C 0.92145 0.40890 0.70515
 C537 C 0.90046 0.42485 0.72186
 C538 C 0.88280 0.43847 0.73643
 C539 C 0.86243 0.45446 0.75384
 C540 C 0.84533 0.46817 0.76898
 C541 C 0.05992 0.60437 0.69140
 C542 C 0.07807 0.59078 0.70541
 C543 C 0.09903 0.57486 0.72218
 C544 C 0.11666 0.56127 0.73680
 C545 C 0.13701 0.54531 0.75427
 C546 C 0.15411 0.53164 0.76945
 C547 C 0.05996 0.39543 0.30859
 C548 C 0.07817 0.40901 0.29466
 C549 C 0.09922 0.42491 0.27798
 C550 C 0.11693 0.43849 0.26343
 C551 C 0.13737 0.45443 0.24605
 C552 C 0.15453 0.46811 0.23094
   
