data_POSCAR
  _audit_creation_date              2014-09-24
  _audit_creation_method            'ToBaCCo'
  _symmetry_space_group_name_H-M    'P1'
  _symmetry_Int_Tables_number       1
  _symmetry_cell_setting            triclinic
  loop_
  _symmetry_equiv_pos_as_xyz
 x,y,z
_cell_length_a 46.9765
_cell_length_b 46.9602
_cell_length_c 22.3987
_cell_angle_alpha 89.893400
_cell_angle_beta 90.064600
_cell_angle_gamma 119.953700
loop_
  _atom_site_label
  _atom_site_type_symbol
  _atom_site_fract_x
  _atom_site_fract_y
  _atom_site_fract_z
C1 C 0.49991 0.99928 0.47104
 C2 C 0.49970 0.99931 0.53165
 C3 C 0.48410 0.96838 0.56664
 C4 C 0.51507 1.03023 0.56654
 C5 C 0.51541 1.03020 0.43597
 C6 C 0.48456 0.96832 0.43626
 C7 C 0.45775 0.96167 0.60432
 C8 C 0.44331 0.93330 0.63933
 C9 C 0.45530 0.91104 0.63841
 C10 C 0.48188 0.91803 0.59994
 C11 C 0.49604 0.94637 0.56444
 C12 C 0.50382 1.05279 0.56213
 C13 C 0.51797 1.08124 0.59717
 C14 C 0.54362 1.08759 0.63710
 C15 C 0.55485 1.06492 0.64093
 C16 C 0.54056 1.03646 0.60631
 C17 C 0.54919 1.05275 0.44026
 C18 C 0.56346 1.08120 0.40503
 C19 C 0.54415 1.08754 0.36504
 C20 C 0.51029 1.06488 0.36133
 C21 C 0.49616 1.03643 0.39613
 C22 C 0.50400 0.96201 0.39716
 C23 C 0.48996 0.93362 0.36231
 C24 C 0.45604 0.91113 0.36525
 C25 C 0.43656 0.91752 0.40462
 C26 C 0.45073 0.94589 0.43987
 H27 H 0.44830 0.97849 0.60658
 H28 H 0.42299 0.92928 0.66777
 H29 H 0.49204 0.90183 0.59728
 H30 H 0.51664 0.95142 0.53589
 H31 H 0.48385 1.04812 0.53214
 H32 H 0.50872 1.09817 0.59318
 H33 H 0.54944 1.01923 0.61044
 H34 H 0.56450 1.04809 0.47029
 H35 H 0.58960 1.09812 0.40894
 H36 H 0.49468 1.06885 0.33088
 H37 H 0.47008 1.01920 0.39208
 H38 H 0.53012 0.97915 0.39363
 H39 H 0.50570 0.92961 0.33237
 H40 H 0.41037 0.90073 0.40793
 H41 H 0.43529 0.95063 0.46929
 H42 H 0.57443 1.06889 0.67134
 C43 C -0.00036 0.49989 0.46806
 C44 C -0.00039 0.50006 0.52867
 C45 C 0.03051 0.51557 0.56369
 C46 C -0.03135 0.48468 0.56352
 C47 C -0.03127 0.48430 0.43312
 C48 C 0.03055 0.51530 0.43311
 C49 C 0.03675 0.49630 0.60351
 C50 C 0.06521 0.51043 0.63821
 C51 C 0.08786 0.54430 0.63442
 C52 C 0.08151 0.56363 0.59445
 C53 C 0.05305 0.54936 0.55932
 C54 C -0.05379 0.45085 0.55984
 C55 C -0.08222 0.43667 0.59501
 C56 C -0.08864 0.45612 0.63437
 C57 C -0.06611 0.49004 0.63741
 C58 C -0.03768 0.50410 0.60264
 C59 C -0.05337 0.49613 0.43560
 C60 C -0.08171 0.48194 0.40018
 C61 C -0.08852 0.45552 0.36168
 C62 C -0.06626 0.44363 0.36027
 C63 C -0.03789 0.45805 0.39518
 C64 C 0.03676 0.54080 0.39332
 C65 C 0.06520 0.55511 0.35860
 C66 C 0.08787 0.54389 0.36236
 C67 C 0.08156 0.51823 0.40233
 C68 C 0.05312 0.50406 0.43747
 H69 H 0.01953 0.47021 0.60761
 H70 H 0.06918 0.49481 0.66865
 H71 H 0.09842 0.58977 0.59048
 H72 H 0.04839 0.56468 0.52931
 H73 H -0.04905 0.43542 0.53041
 H74 H -0.09903 0.41048 0.59163
 H75 H -0.02053 0.53022 0.60621
 H76 H -0.04840 0.51665 0.46429
 H77 H -0.09809 0.49189 0.40283
 H78 H -0.07035 0.42342 0.33149
 H79 H -0.02100 0.44870 0.39266
 H80 H 0.01953 0.54967 0.38922
 H81 H 0.06915 0.57469 0.32817
 H82 H 0.09848 0.50899 0.40627
 H83 H 0.04847 0.48408 0.46747
 H84 H -0.07014 0.50576 0.66734
 C85 C 0.50003 0.50003 0.47132
 C86 C 0.50001 0.50006 0.53192
 C87 C 0.48466 0.51568 0.56667
 C88 C 0.51535 0.48451 0.56704
 C89 C 0.51562 0.48463 0.43659
 C90 C 0.48449 0.51542 0.43623
 C91 C 0.50424 0.54193 0.60462
 C92 C 0.49028 0.55641 0.63930
 C93 C 0.45616 0.54457 0.63764
 C94 C 0.43660 0.51813 0.59914
 C95 C 0.45076 0.50389 0.56394
 C96 C 0.54926 0.49630 0.56442
 C97 C 0.56343 0.48211 0.59996
 C98 C 0.54387 0.45575 0.63871
 C99 C 0.50974 0.44391 0.64027
 C100 C 0.49578 0.45833 0.60523
 C101 C 0.50435 0.45082 0.44060
 C102 C 0.51861 0.43662 0.40553
 C103 C 0.54440 0.45605 0.36596
 C104 C 0.55568 0.48996 0.36260
 C105 C 0.54128 0.50402 0.39726
 C106 C 0.45888 0.49603 0.39684
 C107 C 0.44454 0.51008 0.36183
 C108 C 0.45583 0.54399 0.36490
 C109 C 0.48157 0.56343 0.40452
 C110 C 0.49578 0.54924 0.43993
 H111 H 0.53046 0.55125 0.60731
 H112 H 0.50637 0.57663 0.66808
 H113 H 0.41030 0.50823 0.59631
 H114 H 0.43525 0.48338 0.53521
 H115 H 0.56477 0.51676 0.53551
 H116 H 0.58972 0.49201 0.59719
 H117 H 0.46956 0.44901 0.60785
 H118 H 0.48424 0.43541 0.47022
 H119 H 0.50932 0.41045 0.40917
 H120 H 0.57536 0.50566 0.33249
 H121 H 0.55016 0.53013 0.39343
 H122 H 0.44999 0.46991 0.39324
 H123 H 0.42489 0.49437 0.33169
 H124 H 0.49087 0.58961 0.40794
 H125 H 0.51585 0.56466 0.46958
 H126 H 0.49366 0.42374 0.66923
 O127 O 0.38309 0.65926 -0.05094
 O128 O 0.38162 0.71346 -0.07040
 C129 C 0.36642 0.72895 -0.08036
 O130 O 0.34135 0.72419 -0.05074
 O131 O 0.28719 0.66866 -0.07051
 C132 C 0.27183 0.63804 -0.08080
 O133 O 0.27658 0.61761 -0.05134
 O134 O 0.33214 0.61900 -0.07062
 C135 C 0.36278 0.63421 -0.08057
 O136 O 0.38162 0.66843 0.06749
 O137 O 0.38293 0.72400 0.04814
 C138 C 0.36253 0.72859 0.07784
 O139 O 0.33191 0.71318 0.06765
 O140 O 0.27642 0.65907 0.04791
 C141 C 0.27170 0.63392 0.07738
 O142 O 0.28712 0.61871 0.06719
 O143 O 0.34136 0.61743 0.04795
 C144 C 0.36639 0.63778 0.07763
 Cr145 Cr 0.38051 0.69039 -0.00145
 Cr146 Cr 0.31012 0.69037 -0.00143
 Cr147 Cr 0.31020 0.62000 -0.00170
 O148 O 0.33361 0.66691 -0.00153
 O149 O 0.61709 0.34116 -0.04857
 O150 O 0.61845 0.28697 -0.06823
 C151 C 0.63367 0.27154 -0.07851
 O152 O 0.65881 0.27625 -0.04911
 O153 O 0.71291 0.33178 -0.06891
 C154 C 0.72827 0.36242 -0.07914
 O155 O 0.72362 0.38280 -0.04948
 O156 O 0.66803 0.38145 -0.06841
 C157 C 0.63737 0.36625 -0.07826
 O158 O 0.61875 0.33176 0.06983
 O159 O 0.61738 0.27623 0.05023
 C160 C 0.63782 0.27151 0.07965
 O161 O 0.66843 0.28692 0.06932
 O162 O 0.72392 0.34111 0.04946
 C163 C 0.72869 0.36619 0.07905
 O164 O 0.71321 0.38141 0.06914
 O165 O 0.65898 0.38278 0.05020
 C166 C 0.63398 0.36240 0.07994
 Cr167 Cr 0.61973 0.30993 0.00079
 Cr168 Cr 0.69011 0.30992 0.00020
 Cr169 Cr 0.69005 0.38030 0.00037
 O170 O 0.66663 0.33339 0.00046
 C171 C 0.41601 0.83128 -0.25103
 N172 N 0.40349 0.85176 -0.25295
 N173 N 0.41621 0.87761 -0.28939
 C174 C 0.44197 0.88416 -0.32574
 N175 N 0.45422 0.86328 -0.32404
 N176 N 0.44158 0.83744 -0.28734
 C177 C 0.40254 0.80363 -0.20880
 N178 N 0.41685 0.78488 -0.20119
 N179 N 0.40517 0.76074 -0.16083
 C180 C 0.37872 0.75446 -0.12681
 N181 N 0.36432 0.77305 -0.13486
 N182 N 0.37603 0.79719 -0.17501
 C183 C 0.17013 0.58597 -0.25238
 N184 N 0.15104 0.55289 -0.25736
 N185 N 0.12522 0.53979 -0.29380
 C186 C 0.11742 0.55920 -0.32688
 N187 N 0.13674 0.59237 -0.32225
 N188 N 0.16257 0.60552 -0.28561
 C189 C 0.19766 0.60003 -0.20998
 N190 N 0.21553 0.63297 -0.20058
 N191 N 0.23954 0.64527 -0.16004
 C192 C 0.24652 0.62505 -0.12755
 N193 N 0.22879 0.59218 -0.13736
 N194 N 0.20482 0.57991 -0.17775
 C195 C 0.41531 0.58456 -0.25105
 N196 N 0.44830 0.59719 -0.25319
 N197 N 0.46139 0.58441 -0.28949
 C198 C 0.44211 0.55851 -0.32539
 N199 N 0.40902 0.54611 -0.32353
 N200 N 0.39587 0.55882 -0.28698
 C201 C 0.40119 0.59808 -0.20893
 N202 N 0.36817 0.58371 -0.20117
 N203 N 0.35576 0.59541 -0.16086
 C204 C 0.37594 0.62193 -0.12704
 N205 N 0.40889 0.63639 -0.13524
 N206 N 0.42127 0.62467 -0.17534
 C207 C 0.58409 0.16983 -0.24984
 N208 N 0.59810 0.15074 -0.25482
 N209 N 0.58542 0.12493 -0.29122
 C210 C 0.55824 0.11714 -0.32426
 N211 N 0.54438 0.13647 -0.31962
 N212 N 0.55702 0.16230 -0.28302
 C213 C 0.59753 0.19735 -0.20748
 N214 N 0.58248 0.21525 -0.19809
 N215 N 0.59417 0.23926 -0.15759
 C216 C 0.62134 0.24622 -0.12516
 N217 N 0.63646 0.22846 -0.13496
 N218 N 0.62478 0.20448 -0.17530
 C219 C 0.82944 0.41457 -0.25168
 N220 N 0.83690 0.39500 -0.28484
 N221 N 0.86262 0.40812 -0.32172
 C222 C 0.88191 0.44128 -0.32670
 N223 N 0.87419 0.46072 -0.29369
 N224 N 0.84849 0.44765 -0.25699
 C225 C 0.80206 0.40053 -0.20899
 N226 N 0.79503 0.42063 -0.17661
 N227 N 0.77118 0.40834 -0.13598
 C228 C 0.75346 0.37547 -0.12608
 N229 N 0.76031 0.35526 -0.15871
 N230 N 0.78419 0.36758 -0.19949
 C231 C 0.58473 0.41592 -0.24915
 N232 N 0.60417 0.44160 -0.28532
 N233 N 0.59101 0.45426 -0.32212
 C234 C 0.55792 0.44187 -0.32401
 N235 N 0.53865 0.41603 -0.28786
 N236 N 0.55175 0.40331 -0.25131
 C237 C 0.59887 0.40243 -0.20683
 N238 N 0.57880 0.37588 -0.17303
 N239 N 0.59121 0.36416 -0.13282
 C240 C 0.62417 0.37858 -0.12473
 N241 N 0.64433 0.40507 -0.15875
 N242 N 0.63189 0.41676 -0.19916
 C243 C 0.83085 0.41573 0.24976
 N244 N 0.85120 0.40308 0.25205
 N245 N 0.87700 0.41578 0.28854
 C246 C 0.88356 0.44165 0.32449
 N247 N 0.86288 0.45409 0.32246
 N248 N 0.83709 0.44145 0.28573
 C249 C 0.80326 0.40228 0.20749
 N250 N 0.78458 0.41665 0.19972
 N251 N 0.76048 0.40498 0.15935
 C252 C 0.75418 0.37849 0.12548
 N253 N 0.77270 0.36403 0.13367
 N254 N 0.79680 0.37572 0.17383
 C255 C 0.58581 0.16977 0.25149
 N256 N 0.60535 0.16223 0.28475
 N257 N 0.59220 0.13641 0.32150
 C258 C 0.55904 0.11709 0.32622
 N259 N 0.53964 0.12487 0.29311
 N260 N 0.55274 0.15068 0.25656
 C261 C 0.59986 0.19729 0.20899
 N262 N 0.57974 0.20442 0.17675
 N263 N 0.59200 0.22840 0.13629
 C264 C 0.62485 0.24616 0.12642
 N265 N 0.64507 0.23920 0.15891
 N266 N 0.63279 0.21519 0.19952
 C267 C 0.58485 0.41450 0.25227
 N268 N 0.59882 0.44758 0.25740
 N269 N 0.58616 0.46065 0.29403
 C270 C 0.55904 0.44120 0.32714
 N271 N 0.54523 0.40804 0.32235
 N272 N 0.55785 0.39492 0.28554
 C273 C 0.59822 0.40046 0.20965
 N274 N 0.58320 0.36752 0.20028
 N275 N 0.59478 0.35521 0.15955
 C276 C 0.62181 0.37543 0.12684
 N277 N 0.63691 0.40830 0.13660
 N278 N 0.62533 0.42058 0.17718
 C279 C 0.17002 0.58435 0.24895
 N280 N 0.15091 0.59834 0.25392
 N281 N 0.12513 0.58567 0.29043
 C282 C 0.11739 0.55851 0.32359
 N283 N 0.13674 0.54467 0.31896
 N284 N 0.16253 0.55731 0.28226
 C285 C 0.19751 0.59779 0.20649
 N286 N 0.21544 0.58275 0.19716
 N287 N 0.23943 0.59444 0.15661
 C288 C 0.24635 0.62159 0.12405
 N289 N 0.22857 0.63669 0.13377
 N290 N 0.20460 0.62501 0.17418
 C291 C 0.41454 0.82948 0.25077
 N292 N 0.39496 0.83688 0.28404
 N293 N 0.40806 0.86251 0.32109
 C294 C 0.44121 0.88175 0.32615
 N295 N 0.46065 0.87409 0.29304
 N296 N 0.44760 0.84848 0.25617
 C297 C 0.40052 0.80219 0.20792
 N298 N 0.42065 0.79524 0.17543
 N299 N 0.40839 0.77146 0.13470
 C300 C 0.37553 0.75375 0.12480
 N301 N 0.35531 0.76053 0.15753
 N302 N 0.36760 0.78434 0.19840
 C303 C 0.41553 0.58555 0.25034
 N304 N 0.44246 0.60512 0.28375
 N305 N 0.45504 0.59200 0.32081
 C306 C 0.44125 0.55884 0.32573
 N307 N 0.41420 0.53940 0.29247
 N308 N 0.40159 0.55247 0.25559
 C309 C 0.40219 0.59961 0.20752
 N310 N 0.37513 0.57951 0.17497
 N311 N 0.36355 0.59182 0.13429
 C312 C 0.37861 0.62470 0.12451
 N313 N 0.40560 0.64489 0.15730
 N314 N 0.41718 0.63256 0.19813
   
