data_POSCAR
  _audit_creation_date              2014-09-24
  _audit_creation_method            'ToBaCCo'
  _symmetry_space_group_name_H-M    'P1'
  _symmetry_Int_Tables_number       1
  _symmetry_cell_setting            triclinic
  loop_
  _symmetry_equiv_pos_as_xyz
 x,y,z
_cell_length_a 42.0259
_cell_length_b 41.9612
_cell_length_c 42.0352
_cell_angle_alpha 89.966500
_cell_angle_beta 89.999200
_cell_angle_gamma 89.875800
loop_
  _atom_site_label
  _atom_site_type_symbol
  _atom_site_fract_x
  _atom_site_fract_y
  _atom_site_fract_z
C1 C 0.27394 0.24996 0.22623
 C2 C 0.25030 0.27356 0.22622
 C3 C 0.22672 0.27360 0.24980
 C4 C 0.22680 0.25000 0.27340
 C5 C 0.25043 0.22638 0.27345
 C6 C 0.27398 0.22638 0.24985
 H7 H 0.25025 0.29182 0.20795
 H8 H 0.20856 0.25002 0.29165
 H9 H 0.29227 0.20810 0.24987
 C10 C 0.72576 -0.25039 0.22574
 C11 C 0.74950 -0.27394 0.22566
 C12 C 0.77317 -0.27395 0.24919
 C13 C 0.77305 -0.25036 0.27281
 C14 C 0.74935 -0.22682 0.27292
 C15 C 0.72573 -0.22684 0.24940
 H16 H 0.74956 -0.29218 0.20735
 H17 H 0.79131 -0.25028 0.29106
 H18 H 0.70741 -0.20857 0.24956
 C19 C 0.72755 0.25102 0.77308
 C20 C 0.72764 0.22742 0.74951
 C21 C 0.75122 0.22739 0.72594
 C22 C 0.77476 0.25101 0.72596
 C23 C 0.77473 0.27466 0.74952
 C24 C 0.75109 0.27463 0.77308
 H25 H 0.70943 0.20915 0.74950
 H26 H 0.79300 0.25093 0.70768
 H27 H 0.75096 0.29288 0.79136
 C28 C 0.27272 -0.25114 0.77455
 C29 C 0.27280 -0.22763 0.75087
 C30 C 0.24926 -0.22755 0.72727
 C31 C 0.22559 -0.25103 0.72736
 C32 C 0.22545 -0.27459 0.75104
 C33 C 0.24905 -0.27461 0.77463
 H34 H 0.29112 -0.20946 0.75080
 H35 H 0.20739 -0.25092 0.70905
 H36 H 0.24904 -0.29279 0.79300
 C37 C 0.72625 -0.25040 0.77415
 C38 C 0.72621 -0.22681 0.75055
 C39 C 0.74981 -0.22679 0.72701
 C40 C 0.77346 -0.25036 0.72707
 C41 C 0.77354 -0.27398 0.75067
 C42 C 0.74991 -0.27397 0.77421
 H43 H 0.70790 -0.20856 0.75050
 H44 H 0.79171 -0.25028 0.70880
 H45 H 0.74987 -0.29221 0.79253
 C46 C 0.27365 0.25007 0.77332
 C47 C 0.27360 0.22641 0.74982
 C48 C 0.24993 0.22633 0.72636
 C49 C 0.22630 0.24993 0.72640
 C50 C 0.22633 0.27360 0.74989
 C51 C 0.25001 0.27366 0.77335
 H52 H 0.29189 0.20814 0.74980
 H53 H 0.20798 0.24988 0.70823
 H54 H 0.25004 0.29198 0.79154
 C55 C 0.27443 -0.25034 0.22580
 C56 C 0.27447 -0.22681 0.24947
 C57 C 0.25083 -0.22672 0.27297
 C58 C 0.22713 -0.25014 0.27280
 C59 C 0.22705 -0.27366 0.24917
 C60 C 0.25069 -0.27376 0.22568
 H61 H 0.29280 -0.20864 0.24966
 H62 H 0.20882 -0.25006 0.29099
 H63 H 0.25056 -0.29202 0.20740
 C64 C 0.72674 0.25018 0.22621
 C65 C 0.75026 0.27379 0.22623
 C66 C 0.77381 0.27380 0.24981
 C67 C 0.77383 0.25019 0.27339
 C68 C 0.75031 0.22658 0.27339
 C69 C 0.72677 0.22658 0.24979
 H70 H 0.75024 0.29206 0.20797
 H71 H 0.79206 0.25019 0.29165
 H72 H 0.70857 0.20830 0.24978
 O73 O 0.22413 0.03038 0.46916
 O74 O 0.22394 -0.03175 0.53109
 O75 O 0.22397 0.03030 0.53109
 O76 O 0.22417 -0.03166 0.46914
 O77 O 0.27665 -0.03176 0.46931
 O78 O 0.27645 0.03019 0.53125
 O79 O 0.27642 -0.03187 0.53126
 O80 O 0.27661 0.03028 0.46931
 Cu81 Cu 0.21879 -0.00068 0.50011
 Cu82 Cu 0.28179 -0.00081 0.50030
 C83 C 0.25039 0.04098 0.45862
 C84 C 0.25015 -0.04246 0.54179
 C85 C 0.25017 0.04087 0.54178
 C86 C 0.25044 -0.04232 0.45860
 O87 O 0.72410 0.03096 0.53099
 O88 O 0.72370 -0.03118 0.46912
 O89 O 0.72380 -0.03109 0.53107
 O90 O 0.72394 0.03087 0.46906
 O91 O 0.77642 0.03053 0.46895
 O92 O 0.77628 -0.03143 0.53097
 O93 O 0.77618 -0.03151 0.46901
 O94 O 0.77657 0.03062 0.53088
 Cu95 Cu 0.71863 -0.00008 0.50007
 Cu96 Cu 0.78162 -0.00049 0.49995
 C97 C 0.75040 0.04146 0.54153
 C98 C 0.74988 -0.04198 0.45845
 C99 C 0.75002 -0.04188 0.54165
 C100 C 0.75021 0.04132 0.45838
 O101 O 0.46962 0.22402 0.03038
 O102 O 0.53163 0.22421 -0.03156
 O103 O 0.53157 0.22409 0.03038
 O104 O 0.46968 0.22409 -0.03156
 O105 O 0.46948 0.27665 -0.03152
 O106 O 0.53138 0.27665 0.03043
 O107 O 0.53144 0.27677 -0.03150
 O108 O 0.46943 0.27658 0.03042
 Cu109 Cu 0.50064 0.21883 -0.00060
 Cu110 Cu 0.50041 0.28193 -0.00054
 C111 C 0.45890 0.25026 0.04102
 C112 C 0.54217 0.25052 -0.04214
 C113 C 0.54208 0.25036 0.04102
 C114 C 0.45897 0.25037 -0.04215
 O115 O 0.53101 0.72315 0.03177
 O116 O 0.46893 0.72298 -0.03008
 O117 O 0.53088 0.72311 -0.03017
 O118 O 0.46905 0.72308 0.03185
 O119 O 0.46886 0.77564 0.03176
 O120 O 0.53068 0.77567 -0.03026
 O121 O 0.46873 0.77554 -0.03017
 O122 O 0.53082 0.77570 0.03169
 Cu123 Cu 0.49999 0.71781 0.00085
 Cu124 Cu 0.49976 0.78090 0.00075
 C125 C 0.54156 0.74945 0.04233
 C126 C 0.45818 0.74923 -0.04072
 C127 C 0.54138 0.74940 -0.04085
 C128 C 0.45835 0.74936 0.04243
 O129 O 0.03069 0.46973 0.22313
 O130 O -0.03139 0.53184 0.22300
 O131 O 0.03058 0.53177 0.22298
 O132 O -0.03126 0.46979 0.22316
 O133 O -0.03124 0.46989 0.27562
 O134 O 0.03060 0.53186 0.27545
 O135 O -0.03137 0.53193 0.27547
 O136 O 0.03070 0.46982 0.27559
 Cu137 Cu -0.00035 0.50078 0.21781
 Cu138 Cu -0.00033 0.50089 0.28079
 C139 C 0.04133 0.45913 0.24938
 C140 C -0.04203 0.54252 0.24922
 C141 C 0.04120 0.54242 0.24918
 C142 C -0.04184 0.45921 0.24942
 O143 O 0.03047 0.53175 0.72442
 O144 O -0.03142 0.46973 0.72411
 O145 O -0.03150 0.53178 0.72435
 O146 O 0.03052 0.46971 0.72419
 O147 O 0.03046 0.46949 0.77666
 O148 O -0.03156 0.53156 0.77681
 O149 O -0.03149 0.46950 0.77658
 O150 O 0.03041 0.53153 0.77689
 Cu151 Cu -0.00048 0.50077 0.71901
 Cu152 Cu -0.00056 0.50050 0.78199
 C153 C 0.04106 0.54226 0.75070
 C154 C -0.04206 0.45897 0.75029
 C155 C -0.04217 0.54230 0.75061
 C156 C 0.04111 0.45896 0.75040
 C157 C 0.39854 0.22125 0.10152
 C158 C 0.38663 0.25006 0.11336
 C159 C 0.39832 0.27895 0.10156
 C160 C 0.42184 0.27905 0.07801
 C161 C 0.29816 0.24994 0.20199
 C162 C 0.42205 0.22128 0.07798
 C163 C 0.36242 0.25000 0.13761
 C164 C 0.34216 0.24997 0.15792
 C165 C 0.31843 0.24995 0.18169
 C166 C 0.43398 0.25019 0.06595
 H167 H 0.38966 0.19875 0.11049
 H168 H 0.38927 0.30140 0.11055
 H169 H 0.43049 0.30171 0.06928
 H170 H 0.43088 0.19866 0.06922
 C171 C 0.60207 0.77842 0.10268
 C172 C 0.61401 0.74959 0.11450
 C173 C 0.60227 0.72072 0.10275
 C174 C 0.57870 0.72064 0.07927
 C175 C 0.70277 0.74961 0.20287
 C176 C 0.57850 0.77841 0.07920
 C177 C 0.63829 0.74962 0.13868
 C178 C 0.65862 0.74963 0.15893
 C179 C 0.68242 0.74962 0.18263
 C180 C 0.56653 0.74950 0.06721
 H181 H 0.61099 0.80091 0.11161
 H182 H 0.61134 0.69826 0.11173
 H183 H 0.57001 0.69798 0.07057
 H184 H 0.56966 0.80103 0.07045
 C185 C 0.60264 0.27957 -0.10252
 C186 C 0.61458 0.25076 -0.11434
 C187 C 0.60286 0.22187 -0.10258
 C188 C 0.57929 0.22176 -0.07909
 C189 C 0.70330 0.25100 -0.20272
 C190 C 0.57907 0.27953 -0.07903
 C191 C 0.63885 0.25084 -0.13852
 C192 C 0.65919 0.25090 -0.15876
 C193 C 0.68298 0.25096 -0.18247
 C194 C 0.56712 0.25061 -0.06704
 H195 H 0.61154 0.30208 -0.11145
 H196 H 0.61194 0.19943 -0.11156
 H197 H 0.57062 0.19909 -0.07039
 H198 H 0.57023 0.30214 -0.07028
 C199 C 0.39763 0.72019 -0.10100
 C200 C 0.38567 0.74900 -0.11283
 C201 C 0.39741 0.77789 -0.10111
 C202 C 0.42100 0.77800 -0.07765
 C203 C 0.29695 0.74883 -0.20122
 C204 C 0.42122 0.72023 -0.07754
 C205 C 0.36138 0.74893 -0.13700
 C206 C 0.34105 0.74887 -0.15724
 C207 C 0.31726 0.74884 -0.18095
 C208 C 0.43319 0.74915 -0.06559
 H209 H 0.38872 0.69768 -0.10990
 H210 H 0.38832 0.80034 -0.11011
 H211 H 0.42968 0.80067 -0.06898
 H212 H 0.43008 0.69762 -0.06877
 C213 C 0.10189 0.39842 0.22071
 C214 C 0.11372 0.38661 0.24953
 C215 C 0.10190 0.39850 0.27831
 C216 C 0.07834 0.42210 0.27829
 C217 C 0.20242 0.29786 0.24975
 C218 C 0.07834 0.42201 0.22062
 C219 C 0.13797 0.36232 0.24958
 C220 C 0.15829 0.34198 0.24963
 C221 C 0.18209 0.31818 0.24970
 C222 C 0.06629 0.43413 0.24943
 H223 H 0.11088 0.38938 0.19829
 H224 H 0.11088 0.38954 0.30076
 H225 H 0.06959 0.43090 0.30087
 H226 H 0.06959 0.43075 0.19801
 C227 C 0.10168 0.60274 0.72216
 C228 C 0.11351 0.61441 0.75101
 C229 C 0.10163 0.60252 0.77976
 C230 C 0.07804 0.57906 0.77970
 C231 C 0.20243 0.70257 0.75110
 C232 C 0.07809 0.57929 0.72203
 C233 C 0.13783 0.63853 0.75109
 C234 C 0.15820 0.65873 0.75113
 C235 C 0.18205 0.68237 0.75113
 C236 C 0.06600 0.56716 0.75081
 H237 H 0.11070 0.61177 0.69976
 H238 H 0.11061 0.61138 0.80223
 H239 H 0.06926 0.57025 0.80226
 H240 H 0.06936 0.57065 0.69939
 C241 C -0.10278 0.60304 0.27791
 C242 C -0.11467 0.61479 0.24909
 C243 C -0.10280 0.60295 0.22031
 C244 C -0.07916 0.57945 0.22032
 C245 C -0.20377 0.70316 0.24911
 C246 C -0.07913 0.57954 0.27798
 C247 C -0.13904 0.63897 0.24906
 C248 C -0.15946 0.65921 0.24905
 C249 C -0.18336 0.68291 0.24907
 C250 C -0.06705 0.56747 0.24917
 H251 H -0.11179 0.61204 0.30033
 H252 H -0.11184 0.61188 0.19786
 H253 H -0.07038 0.57068 0.19773
 H254 H -0.07034 0.57084 0.30060
 C255 C -0.10232 0.39843 0.72117
 C256 C -0.11413 0.38646 0.74990
 C257 C -0.10241 0.39819 0.77877
 C258 C -0.07897 0.42179 0.77893
 C259 C -0.20239 0.29763 0.74954
 C260 C -0.07887 0.42204 0.72126
 C261 C -0.13827 0.36215 0.74977
 C262 C -0.15848 0.34179 0.74968
 C263 C -0.18215 0.31797 0.74959
 C264 C -0.06692 0.43399 0.75016
 H265 H -0.11122 0.38953 0.69868
 H266 H -0.11139 0.38909 0.80115
 H267 H -0.07030 0.43047 0.80157
 H268 H -0.07012 0.43090 0.69871
 C269 C 0.22171 0.10167 0.39807
 C270 C 0.25053 0.11345 0.38632
 C271 C 0.27932 0.10156 0.39819
 C272 C 0.27931 0.07798 0.42172
 C273 C 0.25048 0.20213 0.29771
 C274 C 0.22163 0.07809 0.42160
 C275 C 0.25056 0.13771 0.36208
 C276 C 0.25056 0.15803 0.34178
 C277 C 0.25053 0.18182 0.31801
 C278 C 0.25045 0.06597 0.43370
 H279 H 0.19928 0.11070 0.38905
 H280 H 0.30177 0.11051 0.38926
 H281 H 0.30190 0.06918 0.43051
 H282 H 0.19901 0.06937 0.43030
 C283 C 0.77961 0.10206 0.60172
 C284 C 0.75088 0.11412 0.61354
 C285 C 0.72200 0.10243 0.60185
 C286 C 0.72181 0.07878 0.57843
 C287 C 0.75126 0.20311 0.70175
 C288 C 0.77949 0.07840 0.57830
 C289 C 0.75104 0.13849 0.63766
 C290 C 0.75115 0.15888 0.65786
 C291 C 0.75123 0.18274 0.68152
 C292 C 0.75057 0.06649 0.56637
 H293 H 0.80211 0.11093 0.61060
 H294 H 0.69962 0.11160 0.61084
 H295 H 0.69914 0.07014 0.56977
 H296 H 0.80204 0.06947 0.56954
 C297 C 0.22111 -0.10296 0.60223
 C298 C 0.24986 -0.11487 0.61416
 C299 C 0.27872 -0.10313 0.60242
 C300 C 0.27885 -0.07957 0.57887
 C301 C 0.24939 -0.20337 0.70294
 C302 C 0.22117 -0.07941 0.57868
 C303 C 0.24975 -0.13910 0.63843
 C304 C 0.24964 -0.15938 0.65877
 C305 C 0.24950 -0.18311 0.68259
 C306 C 0.25006 -0.06743 0.56672
 H307 H 0.19863 -0.11188 0.61114
 H308 H 0.30112 -0.11217 0.61149
 H309 H 0.30149 -0.07088 0.57020
 H310 H 0.19860 -0.07059 0.56985
 C311 C 0.77835 -0.10263 0.39783
 C312 C 0.74948 -0.11425 0.38603
 C313 C 0.72074 -0.10228 0.39791
 C314 C 0.72083 -0.07878 0.42149
 C315 C 0.74929 -0.20262 0.29721
 C316 C 0.77851 -0.07913 0.42141
 C317 C 0.74936 -0.13843 0.36173
 C318 C 0.74931 -0.15867 0.34138
 C319 C 0.74928 -0.18237 0.31755
 C320 C 0.74973 -0.06692 0.43351
 H321 H 0.80074 -0.11173 0.38881
 H322 H 0.69825 -0.11110 0.38895
 H323 H 0.69827 -0.06990 0.43028
 H324 H 0.80116 -0.07053 0.43013
 C325 C 0.60162 0.77831 -0.10144
 C326 C 0.61353 0.74947 -0.11321
 C327 C 0.60186 0.72060 -0.10135
 C328 C 0.57837 0.72054 -0.07780
 C329 C 0.70201 0.74959 -0.20168
 C330 C 0.57813 0.77832 -0.07789
 C331 C 0.63771 0.74950 -0.13743
 C332 C 0.65798 0.74953 -0.15770
 C333 C 0.68172 0.74957 -0.18143
 C334 C 0.56624 0.74942 -0.06580
 H335 H 0.61050 0.80080 -0.11046
 H336 H 0.61092 0.69814 -0.11030
 H337 H 0.56974 0.69789 -0.06901
 H338 H 0.56931 0.80095 -0.06917
 C339 C 0.39861 0.22148 -0.10260
 C340 C 0.38667 0.25032 -0.11435
 C341 C 0.39836 0.27919 -0.10255
 C342 C 0.42190 0.27924 -0.07905
 C343 C 0.29795 0.25013 -0.20258
 C344 C 0.42215 0.22146 -0.07910
 C345 C 0.36242 0.25029 -0.13850
 C346 C 0.34210 0.25025 -0.15872
 C347 C 0.31829 0.25019 -0.18238
 C348 C 0.43406 0.25036 -0.06706
 H349 H 0.38972 0.19900 -0.11158
 H350 H 0.38927 0.30165 -0.11149
 H351 H 0.43055 0.30189 -0.07029
 H352 H 0.43100 0.19882 -0.07038
 C353 C 0.39798 0.72052 0.10293
 C354 C 0.38608 0.74938 0.11466
 C355 C 0.39780 0.77823 0.10282
 C356 C 0.42133 0.77826 0.07932
 C357 C 0.29741 0.74957 0.20296
 C358 C 0.42152 0.72048 0.07943
 C359 C 0.36184 0.74940 0.13883
 C360 C 0.34153 0.74944 0.15906
 C361 C 0.31774 0.74950 0.18273
 C362 C 0.43346 0.74936 0.06735
 H363 H 0.38907 0.69805 0.11195
 H364 H 0.38874 0.80071 0.11174
 H365 H 0.43001 0.80089 0.07053
 H366 H 0.43034 0.69783 0.07073
 C367 C 0.60237 0.27917 0.10158
 C368 C 0.61424 0.25031 0.11336
 C369 C 0.60256 0.22146 0.10150
 C370 C 0.57907 0.22145 0.07795
 C371 C 0.70256 0.25018 0.20198
 C372 C 0.57888 0.27923 0.07803
 C373 C 0.63840 0.25027 0.13760
 C374 C 0.65864 0.25023 0.15791
 C375 C 0.68232 0.25020 0.18168
 C376 C 0.56696 0.25035 0.06595
 H377 H 0.61126 0.30164 0.11061
 H378 H 0.61160 0.19898 0.11045
 H379 H 0.57042 0.19882 0.06916
 H380 H 0.57007 0.30188 0.06931
 C381 C -0.10284 0.60271 0.77953
 C382 C -0.11463 0.61462 0.75075
 C383 C -0.10275 0.60294 0.72192
 C384 C -0.07915 0.57940 0.72184
 C385 C -0.20347 0.70310 0.75073
 C386 C -0.07924 0.57917 0.77952
 C387 C -0.13893 0.63883 0.75078
 C388 C -0.15928 0.65910 0.75078
 C389 C -0.18311 0.68283 0.75076
 C390 C -0.06713 0.56725 0.75066
 H391 H -0.11188 0.61160 0.80198
 H392 H -0.11172 0.61200 0.69950
 H393 H -0.07035 0.57074 0.69923
 H394 H -0.07051 0.57033 0.80210
 C395 C -0.10212 0.39855 0.22079
 C396 C -0.11386 0.38677 0.24962
 C397 C -0.10209 0.39865 0.27839
 C398 C -0.07865 0.42224 0.27836
 C399 C -0.20205 0.29805 0.24981
 C400 C -0.07868 0.42214 0.22068
 C401 C -0.13797 0.36248 0.24969
 C402 C -0.15817 0.34216 0.24974
 C403 C -0.18183 0.31836 0.24979
 C404 C -0.06668 0.43425 0.24949
 H405 H -0.11107 0.38951 0.19838
 H406 H -0.11103 0.38968 0.30085
 H407 H -0.06993 0.43105 0.30094
 H408 H -0.06997 0.43087 0.19806
 C409 C 0.10166 0.39847 0.72142
 C410 C 0.11345 0.38651 0.75019
 C411 C 0.10161 0.39821 0.77903
 C412 C 0.07807 0.42180 0.77913
 C413 C 0.20207 0.29784 0.74992
 C414 C 0.07811 0.42205 0.72145
 C415 C 0.13768 0.36224 0.75010
 C416 C 0.15798 0.34192 0.75003
 C417 C 0.18176 0.31814 0.74997
 C418 C 0.06605 0.43399 0.75033
 H419 H 0.11066 0.38956 0.69896
 H420 H 0.11058 0.38911 0.80143
 H421 H 0.06930 0.43047 0.80176
 H422 H 0.06938 0.43091 0.69888
 C423 C 0.10181 0.60264 0.22023
 C424 C 0.11367 0.61443 0.24901
 C425 C 0.10181 0.60274 0.27784
 C426 C 0.07820 0.57933 0.27793
 C427 C 0.20270 0.70230 0.24905
 C428 C 0.07820 0.57923 0.22025
 C429 C 0.13801 0.63848 0.24897
 C430 C 0.15841 0.65861 0.24896
 C431 C 0.18229 0.68217 0.24899
 C432 C 0.06614 0.56729 0.24912
 H433 H 0.11083 0.61154 0.19778
 H434 H 0.11083 0.61171 0.30025
 H435 H 0.06944 0.57065 0.30055
 H436 H 0.06943 0.57047 0.19767
 C437 C 0.72106 -0.10212 0.60231
 C438 C 0.74984 -0.11410 0.61409
 C439 C 0.77868 -0.10250 0.60220
 C440 C 0.77877 -0.07900 0.57862
 C441 C 0.74975 -0.20256 0.70278
 C442 C 0.72108 -0.07862 0.57873
 C443 C 0.74978 -0.13829 0.63836
 C444 C 0.74975 -0.15855 0.65868
 C445 C 0.74974 -0.18228 0.68247
 C446 C 0.74996 -0.06678 0.56662
 H447 H 0.69860 -0.11094 0.61136
 H448 H 0.80110 -0.11162 0.61116
 H449 H 0.80140 -0.07040 0.56981
 H450 H 0.69850 -0.06973 0.57001
 C451 C 0.27946 -0.10271 0.39806
 C452 C 0.25069 -0.11442 0.38613
 C453 C 0.22184 -0.10260 0.39788
 C454 C 0.22172 -0.07915 0.42148
 C455 C 0.25086 -0.20258 0.29726
 C456 C 0.27941 -0.07926 0.42167
 C457 C 0.25077 -0.13854 0.36182
 C458 C 0.25083 -0.15873 0.34145
 C459 C 0.25086 -0.18237 0.31761
 C460 C 0.25053 -0.06720 0.43364
 H461 H 0.30193 -0.11171 0.38912
 H462 H 0.19943 -0.11151 0.38880
 H463 H 0.19909 -0.07038 0.43018
 H464 H 0.30199 -0.07057 0.43051
 C465 C 0.72150 0.10204 0.39795
 C466 C 0.75033 0.11368 0.38609
 C467 C 0.77912 0.10169 0.39782
 C468 C 0.77912 0.07813 0.42135
 C469 C 0.75033 0.20234 0.29761
 C470 C 0.72143 0.07848 0.42148
 C471 C 0.75036 0.13793 0.36188
 C472 C 0.75037 0.15825 0.34161
 C473 C 0.75036 0.18203 0.31788
 C474 C 0.75025 0.06626 0.43345
 H475 H 0.69908 0.11116 0.38902
 H476 H 0.80157 0.11055 0.38879
 H477 H 0.80171 0.06924 0.43005
 H478 H 0.69881 0.06986 0.43027
 C479 C 0.27882 0.10136 0.60227
 C480 C 0.24998 0.11326 0.61396
 C481 C 0.22120 0.10150 0.60210
 C482 C 0.22123 0.07793 0.57861
 C483 C 0.24990 0.20204 0.70222
 C484 C 0.27892 0.07779 0.57878
 C485 C 0.24992 0.13754 0.63811
 C486 C 0.24990 0.15788 0.65834
 C487 C 0.24989 0.18169 0.68201
 C488 C 0.25010 0.06581 0.56668
 H489 H 0.30124 0.11030 0.61130
 H490 H 0.19874 0.11056 0.61100
 H491 H 0.19864 0.06923 0.56981
 H492 H 0.30155 0.06897 0.57011
   
