data_POSCAR
  _audit_creation_date              2014-09-24
  _audit_creation_method            'ToBaCCo'
  _symmetry_space_group_name_H-M    'P1'
  _symmetry_Int_Tables_number       1
  _symmetry_cell_setting            triclinic
  loop_
  _symmetry_equiv_pos_as_xyz
 x,y,z
_cell_length_a 39.3058
_cell_length_b 39.7552
_cell_length_c 38.7016
_cell_angle_alpha 90.755100
_cell_angle_beta 90.331700
_cell_angle_gamma 89.410200
loop_
  _atom_site_label
  _atom_site_type_symbol
  _atom_site_fract_x
  _atom_site_fract_y
  _atom_site_fract_z
N1 N 0.16835 0.24428 0.24837
 N2 N 0.18316 0.22395 0.27048
 C3 C 0.16209 0.21919 0.29729
 C4 C 0.13236 0.23730 0.29139
 C5 C 0.13741 0.25307 0.26020
 H6 H 0.16701 0.20198 0.31820
 H7 H 0.11937 0.26861 0.24634
 Cu8 Cu 0.22621 0.20179 0.25969
 Cu9 Cu 0.18870 0.25551 0.20443
 Cu10 Cu 0.25667 0.20626 0.17841
 N11 N 0.25896 0.16926 0.24163
 N12 N 0.26907 0.16972 0.20930
 C13 C 0.28847 0.14224 0.20285
 C14 C 0.29092 0.12394 0.23292
 C15 C 0.27210 0.14189 0.25705
 H16 H 0.29991 0.13602 0.17821
 H17 H 0.26706 0.13471 0.28338
 N18 N 0.23966 0.24471 0.15140
 N19 N 0.21306 0.26289 0.16106
 C20 C 0.20719 0.28694 0.13763
 C21 C 0.23169 0.28437 0.11213
 C22 C 0.25179 0.25710 0.12172
 H23 H 0.18680 0.30520 0.13949
 H24 H 0.27367 0.24699 0.10820
 H25 H 0.20905 0.20718 0.19999
 H26 H 0.23914 0.24119 0.21428
 N27 N 0.66681 0.73562 0.74864
 N28 N 0.68242 0.72075 0.77448
 C29 C 0.66201 0.72164 0.80234
 C30 C 0.63187 0.73756 0.79302
 C31 C 0.63582 0.74597 0.75880
 H32 H 0.66793 0.71018 0.82687
 H33 H 0.61737 0.75835 0.74233
 Cu34 Cu 0.72626 0.69888 0.76739
 Cu35 Cu 0.68685 0.73903 0.70322
 Cu36 Cu 0.77313 0.72126 0.69937
 N37 N 0.76455 0.67151 0.75180
 N38 N 0.78405 0.68123 0.72636
 C39 C 0.80815 0.65758 0.72055
 C40 C 0.80292 0.63132 0.74299
 C41 C 0.77503 0.64102 0.76249
 H42 H 0.82655 0.65832 0.69989
 H43 H 0.76266 0.62661 0.78223
 N44 N 0.74930 0.74882 0.66469
 N45 N 0.71616 0.75427 0.66571
 C46 C 0.70702 0.77407 0.63932
 C47 C 0.73574 0.78149 0.62056
 C48 C 0.76217 0.76486 0.63730
 H49 H 0.68140 0.78316 0.63481
 H50 H 0.78885 0.76509 0.63073
 H51 H 0.72592 0.70352 0.70449
 H52 H 0.73271 0.74484 0.72668
 N53 N 0.34538 0.76327 0.74467
 N54 N 0.33702 0.79053 0.76232
 C55 C 0.36013 0.79538 0.78774
 C56 C 0.38394 0.76944 0.78613
 C57 C 0.37368 0.74963 0.75842
 H58 H 0.35977 0.81635 0.80574
 H59 H 0.38655 0.72757 0.74813
 Cu60 Cu 0.29703 0.81714 0.74994
 Cu61 Cu 0.32076 0.74853 0.70370
 Cu62 Cu 0.25242 0.79762 0.67779
 N63 N 0.25846 0.84440 0.73480
 N64 N 0.24217 0.83734 0.70592
 C65 C 0.21708 0.86006 0.70130
 C66 C 0.21715 0.88257 0.72904
 C67 C 0.24388 0.87166 0.74984
 H68 H 0.19939 0.85927 0.67986
 H69 H 0.25189 0.88238 0.77430
 N70 N 0.26670 0.75631 0.65291
 N71 N 0.29284 0.73772 0.66286
 C72 C 0.29658 0.71161 0.64071
 C73 C 0.27137 0.71349 0.61569
 C74 C 0.25290 0.74227 0.62426
 H75 H 0.31651 0.69281 0.64244
 H76 H 0.23114 0.75239 0.61059
 H77 H 0.30343 0.79612 0.69084
 H78 H 0.27417 0.76975 0.71681
 N79 N 0.84723 0.26330 0.24502
 N80 N 0.83804 0.28821 0.26565
 C81 C 0.86066 0.29069 0.29181
 C82 C 0.88508 0.26541 0.28770
 C83 C 0.87550 0.24854 0.25761
 H84 H 0.85924 0.30941 0.31222
 H85 H 0.88889 0.22817 0.24463
 Cu86 Cu 0.79659 0.31379 0.25631
 Cu87 Cu 0.82448 0.25476 0.20103
 Cu88 Cu 0.74089 0.28342 0.19839
 N89 N 0.75618 0.33945 0.24331
 N90 N 0.73339 0.32632 0.22225
 C91 C 0.70685 0.34772 0.21934
 C92 C 0.71362 0.37615 0.23908
 C93 C 0.74529 0.37012 0.25383
 H94 H 0.68494 0.34351 0.20287
 H95 H 0.75928 0.38655 0.27108
 N96 N 0.75970 0.25029 0.16511
 N97 N 0.79180 0.24029 0.16543
 C98 C 0.79720 0.21902 0.13865
 C99 C 0.76703 0.21557 0.12037
 C100 C 0.74380 0.23573 0.13801
 H101 H 0.82129 0.20683 0.13314
 H102 H 0.71723 0.23953 0.13168
 H103 H 0.79088 0.29582 0.19638
 H104 H 0.78080 0.26133 0.22683
 N105 N 0.84075 0.73730 0.25192
 N106 N 0.83368 0.70903 0.23561
 C107 C 0.85537 0.70489 0.20900
 C108 C 0.87704 0.73219 0.20855
 C109 C 0.86677 0.75228 0.23612
 H110 H 0.85497 0.68399 0.19085
 H111 H 0.87754 0.77583 0.24461
 Cu112 Cu 0.79544 0.68182 0.24978
 Cu113 Cu 0.81752 0.75196 0.29375
 Cu114 Cu 0.75666 0.69827 0.32541
 N115 N 0.75700 0.65539 0.26499
 N116 N 0.74194 0.66219 0.29453
 C117 C 0.71674 0.64016 0.29926
 C118 C 0.71575 0.61829 0.27112
 C119 C 0.74169 0.62881 0.24982
 H120 H 0.70052 0.64010 0.32171
 H121 H 0.74920 0.61767 0.22540
 N122 N 0.76867 0.74104 0.34842
 N123 N 0.79156 0.76165 0.33608
 C124 C 0.79446 0.78832 0.35763
 C125 C 0.77220 0.78447 0.38479
 C126 C 0.75612 0.75426 0.37799
 H127 H 0.81157 0.80904 0.35386
 H128 H 0.73702 0.74252 0.39359
 H129 H 0.80642 0.70405 0.30792
 H130 H 0.77171 0.72737 0.28491
 N131 N 0.33530 0.22936 -0.25058
 N132 N 0.33858 0.19689 -0.25671
 C133 C 0.36440 0.19156 -0.27891
 C134 C 0.37729 0.22257 -0.28800
 C135 C 0.35780 0.24597 -0.26982
 H136 H 0.37249 0.16705 -0.28837
 H137 H 0.36111 0.27296 -0.26899
 Cu138 Cu 0.30698 0.16527 -0.23704
 Cu139 Cu 0.30476 0.24735 -0.21531
 Cu140 Cu 0.26312 0.18832 -0.16665
 N141 N 0.26674 0.14086 -0.22302
 N142 N 0.24993 0.14975 -0.19506
 C143 C 0.22345 0.12906 -0.19113
 C144 C 0.22337 0.10601 -0.21831
 C145 C 0.25133 0.11430 -0.23807
 H146 H 0.20523 0.13134 -0.17040
 H147 H 0.25978 0.10225 -0.26173
 N148 N 0.26849 0.23516 -0.15129
 N149 N 0.28428 0.25776 -0.16985
 C150 C 0.28590 0.28673 -0.15151
 C151 C 0.26989 0.28219 -0.12019
 C152 C 0.25897 0.24924 -0.12102
 H153 H 0.29840 0.30925 -0.16002
 H154 H 0.24628 0.23608 -0.10061
 H155 H 0.30988 0.20402 -0.18788
 H156 H 0.26946 0.20887 -0.21312
 N157 N 0.64408 0.28339 -0.23607
 N158 N 0.65763 0.30266 -0.25949
 C159 C 0.63820 0.30153 -0.28832
 C160 C 0.61070 0.28060 -0.28242
 C161 C 0.61550 0.26968 -0.24881
 H162 H 0.64343 0.31543 -0.31143
 H163 H 0.59962 0.25299 -0.23431
 Cu164 Cu 0.69793 0.32898 -0.24814
 Cu165 Cu 0.66389 0.27781 -0.19035
 Cu166 Cu 0.74807 0.30228 -0.18339
 N167 N 0.74023 0.35182 -0.23656
 N168 N 0.75940 0.34156 -0.21073
 C169 C 0.78655 0.36175 -0.20766
 C170 C 0.78433 0.38618 -0.23285
 C171 C 0.75457 0.37897 -0.25079
 H172 H 0.80633 0.35880 -0.18839
 H173 H 0.74380 0.39278 -0.27213
 N174 N 0.72686 0.27064 -0.15118
 N175 N 0.69465 0.26193 -0.15367
 C176 C 0.68807 0.23862 -0.12980
 C177 C 0.71747 0.23241 -0.11097
 C178 C 0.74155 0.25337 -0.12524
 H179 H 0.66398 0.22607 -0.12752
 H180 H 0.76819 0.25483 -0.11838
 H181 H 0.69914 0.31723 -0.18614
 H182 H 0.71004 0.27965 -0.21343
 N183 N 0.15263 0.76293 0.25297
 N184 N 0.16200 0.78942 0.23557
 C185 C 0.13975 0.79456 0.20954
 C186 C 0.11492 0.77021 0.21088
 C187 C 0.12390 0.75054 0.23882
 H188 H 0.14069 0.81520 0.19168
 H189 H 0.11034 0.72909 0.24840
 Cu190 Cu 0.20107 0.81586 0.25000
 Cu191 Cu 0.17804 0.74704 0.29308
 Cu192 Cu 0.25014 0.79175 0.31680
 N193 N 0.24075 0.84148 0.26425
 N194 N 0.26080 0.83107 0.28928
 C195 C 0.28687 0.85258 0.29299
 C196 C 0.28265 0.87829 0.26934
 C197 C 0.25300 0.87030 0.25160
 H198 H 0.30678 0.85013 0.31219
 H199 H 0.24163 0.88408 0.23053
 N200 N 0.23481 0.75150 0.34153
 N201 N 0.20715 0.73481 0.33275
 C202 C 0.20259 0.70982 0.35537
 C203 C 0.22857 0.71072 0.37964
 C204 C 0.24854 0.73751 0.37000
 H205 H 0.18144 0.69267 0.35478
 H206 H 0.27111 0.74651 0.38306
 H207 H 0.19825 0.79295 0.30806
 H208 H 0.22433 0.76613 0.27820
 N209 N 0.49865 0.41615 0.50620
 N210 N 0.47321 0.42757 0.52503
 C211 C 0.46652 0.40521 0.54987
 C212 C 0.48872 0.37820 0.54602
 C213 C 0.50879 0.38599 0.51809
 H214 H 0.44584 0.40752 0.56811
 H215 H 0.52877 0.37060 0.50677
 Cu216 Cu 0.44877 0.46868 0.51299
 Cu217 Cu 0.51620 0.44108 0.46740
 Cu218 Cu 0.45794 0.49673 0.43188
 N219 N 0.41602 0.49962 0.49246
 N220 N 0.41939 0.50983 0.46052
 C221 C 0.39316 0.53033 0.45254
 C222 C 0.37204 0.53310 0.48093
 C223 C 0.38734 0.51316 0.50585
 H224 H 0.38955 0.54215 0.42777
 H225 H 0.37834 0.50873 0.53173
 N226 N 0.49902 0.48084 0.40745
 N227 N 0.52206 0.46087 0.42161
 C228 C 0.54843 0.45699 0.39978
 C229 C 0.54150 0.47530 0.37037
 C230 C 0.50997 0.48998 0.37612
 H231 H 0.57103 0.44214 0.40503
 H232 H 0.49674 0.50725 0.35924
 H233 H 0.49130 0.48784 0.47143
 H234 H 0.46645 0.45097 0.45550
 N235 N -0.03394 -0.09471 0.98183
 N236 N -0.05250 -0.08039 1.00614
 C237 C -0.05182 -0.09991 1.03432
 C238 C -0.03202 -0.12814 1.02702
 C239 C -0.02123 -0.12400 0.99340
 H240 H -0.06521 -0.09439 1.05810
 H241 H -0.00493 -0.14069 0.97849
 Cu242 Cu -0.07709 -0.03859 0.99757
 Cu243 Cu -0.02753 -0.07439 0.93700
 Cu244 Cu -0.05157 0.00940 0.93226
 N245 N -0.10479 -0.00098 0.98149
 N246 N -0.09462 0.01791 0.95599
 C247 C -0.11792 0.04230 0.95050
 C248 C -0.14431 0.03843 0.97371
 C249 C -0.13499 0.01068 0.99305
 H250 H -0.11554 0.06152 0.93119
 H251 H -0.14904 -0.00030 1.01391
 N252 N -0.01834 -0.01161 0.90057
 N253 N -0.01058 -0.04394 0.90147
 C254 C 0.01252 -0.05104 0.87688
 C255 C 0.01995 -0.02173 0.85967
 C256 C -0.00034 0.00279 0.87532
 H257 H 0.02363 -0.07567 0.87243
 H258 H -0.00164 0.02923 0.86921
 H259 H -0.02760 -0.02866 0.96137
 H260 H -0.06653 -0.03835 0.93538
 N261 N 1.01972 0.60108 0.98587
 N262 N 1.04616 0.59213 1.00468
 C263 C 1.04817 0.61281 1.03252
 C264 C 1.02151 0.63593 1.03099
 C265 C 1.00403 0.62753 1.00099
 H266 H 1.06798 0.61163 1.05192
 H267 H 0.98224 0.64043 0.99010
 Cu268 Cu 1.07597 0.55517 0.98970
 Cu269 Cu 1.00935 0.58008 0.94152
 Cu270 Cu 1.06027 0.51349 0.91483
 N271 N 1.10511 0.51812 0.97380
 N272 N 1.09920 0.50271 0.94415
 C273 C 1.12183 0.47744 0.93993
 C274 C 1.14312 0.47660 0.96857
 C275 C 1.13170 0.50290 0.98955
 H276 H 1.12174 0.46011 0.91821
 H277 H 1.14119 0.50962 1.01493
 N278 N 1.01945 0.52828 0.88908
 N279 N 0.99908 0.55264 0.90022
 C280 C 0.97153 0.55425 0.87941
 C281 C 0.97500 0.53007 0.85367
 C282 C 1.00572 0.51420 0.86046
 H283 H 0.95026 0.57139 0.88295
 H284 H 1.01630 0.49283 0.84652
 H285 H 1.03010 0.53350 0.95356
 H286 H 1.05828 0.56275 0.92974
 N287 N 0.50826 0.09235 0.49734
 N288 N 0.53695 0.08570 0.51361
 C289 C 0.54160 0.10889 0.53883
 C290 C 0.51451 0.13147 0.53825
 C291 C 0.49382 0.12006 0.51153
 H292 H 0.56299 0.10918 0.55647
 H293 H 0.47006 0.13105 0.50289
 Cu294 Cu 0.56546 0.04742 0.50014
 Cu295 Cu 0.49186 0.06498 0.45865
 Cu296 Cu 0.54450 -0.00043 0.43134
 N297 N 0.59423 0.00988 0.48496
 N298 N 0.58592 -0.00829 0.45766
 C299 C 0.60858 -0.03354 0.45367
 C300 C 0.63255 -0.03130 0.47986
 C301 C 0.62267 -0.00330 0.49926
 H302 H 0.60673 -0.05309 0.43412
 H303 H 0.63461 0.00613 0.52262
 N304 N 0.50144 0.01100 0.40821
 N305 N 0.48025 0.03450 0.41975
 C306 C 0.45227 0.03480 0.39941
 C307 C 0.45650 0.01070 0.37370
 C308 C 0.48790 -0.00375 0.37993
 H309 H 0.43097 0.05204 0.40221
 H310 H 0.49982 -0.02369 0.36492
 H311 H 0.51690 0.02107 0.47162
 H312 H 0.53973 0.05059 0.44284
 N313 N -0.01800 0.08801 0.50250
 N314 N -0.04953 0.08558 0.49126
 C315 C -0.05411 0.10627 0.46432
 C316 C -0.02361 0.12197 0.45802
 C317 C -0.00121 0.10972 0.48257
 H318 H -0.07795 0.11017 0.45080
 H319 H 0.02463 0.11785 0.48704
 Cu320 Cu -0.08200 0.05630 0.51311
 Cu321 Cu -0.00269 0.06731 0.54531
 Cu322 Cu -0.05655 0.00919 0.58041
 N323 N -0.10761 0.01752 0.52787
 N324 N -0.09776 -0.00028 0.55453
 C325 C -0.11910 -0.02606 0.55853
 C326 C -0.14374 -0.02457 0.53293
 C327 C -0.13564 0.00349 0.51385
 H328 H -0.11603 -0.04521 0.57788
 H329 H -0.14864 0.01272 0.49115
 N330 N -0.01348 0.02209 0.60234
 N331 N 0.00755 0.04387 0.58882
 C332 C 0.03536 0.04622 0.60925
 C333 C 0.03163 0.02461 0.63672
 C334 C 0.00033 0.00984 0.63148
 H335 H 0.05711 0.06177 0.60410
 H336 H -0.01136 -0.00883 0.64746
 H337 H -0.03304 0.02629 0.53603
 H338 H -0.04957 0.05937 0.56684
 N339 N 0.47733 0.60445 0.01465
 N340 N 0.45087 0.59476 -0.00372
 C341 C 0.44855 0.61352 -0.03231
 C342 C 0.47528 0.63581 -0.03199
 C343 C 0.49306 0.62946 -0.00181
 H344 H 0.42950 0.61048 -0.05237
 H345 H 0.51571 0.64198 0.00748
 Cu346 Cu 0.42293 0.55746 0.01036
 Cu347 Cu 0.48888 0.58354 0.05840
 Cu348 Cu 0.46305 0.50064 0.06013
 N349 N 0.40308 0.51412 0.01954
 N350 N 0.41850 0.49208 0.03942
 C351 C 0.39928 0.46433 0.04114
 C352 C 0.37040 0.46923 0.02105
 C353 C 0.37373 0.50110 0.00766
 H354 H 0.40609 0.44209 0.05551
 H355 H 0.35606 0.51399 -0.00921
 N356 N 0.50015 0.51860 0.08953
 N357 N 0.50826 0.55074 0.09048
 C358 C 0.53182 0.55591 0.11529
 C359 C 0.53927 0.52540 0.13038
 C360 C 0.51885 0.50227 0.11340
 H361 H 0.54284 0.58002 0.12174
 H362 H 0.51669 0.47583 0.11914
 H363 H 0.47937 0.54100 0.03116
 H364 H 0.44902 0.54932 0.06726
 N365 N 0.51538 -0.09783 0.00816
 N366 N 0.53955 -0.08650 -0.01179
 C367 C 0.54507 -0.10887 -0.03767
 C368 C 0.52333 -0.13567 -0.03342
 C369 C 0.50493 -0.12782 -0.00406
 H370 H 0.56380 -0.10620 -0.05775
 H371 H 0.48496 -0.14253 0.00720
 Cu372 Cu 0.56190 -0.04428 -0.00048
 Cu373 Cu 0.49790 -0.07240 0.04763
 Cu374 Cu 0.53666 0.00370 0.06673
 N375 N 0.58489 -0.00244 0.01094
 N376 N 0.57490 0.01595 0.03755
 C377 C 0.59581 0.04229 0.04139
 C378 C 0.62037 0.04039 0.01588
 C379 C 0.61252 0.01171 -0.00312
 H380 H 0.59354 0.06116 0.06162
 H381 H 0.62656 0.00133 -0.02474
 N382 N 0.49767 -0.01348 0.09304
 N383 N 0.48367 -0.04289 0.08623
 C384 C 0.45825 -0.04787 0.10866
 C385 C 0.45593 -0.02027 0.13060
 C386 C 0.48129 0.00111 0.11995
 H387 H 0.44204 -0.06966 0.10867
 H388 H 0.48747 0.02536 0.13113
 H389 H 0.51131 -0.02533 0.03050
 H390 H 0.54251 -0.04732 0.05908
 N391 N 1.03180 0.38791 0.51276
 N392 N 1.05162 0.40115 0.48945
 C393 C 1.05268 0.38079 0.46141
 C394 C 1.03278 0.35306 0.46775
 C395 C 1.02005 0.35834 0.50067
 H396 H 1.06743 0.38544 0.43852
 H397 H 1.00297 0.34230 0.51459
 Cu398 Cu 1.07583 0.44249 0.49936
 Cu399 Cu 1.02210 0.41076 0.55653
 Cu400 Cu 1.03942 0.49631 0.55517
 N401 N 1.09604 0.48579 0.50969
 N402 N 1.08191 0.50698 0.53178
 C403 C 1.10132 0.53464 0.53447
 C404 C 1.12936 0.53038 0.51309
 C405 C 1.12494 0.49902 0.49776
 H406 H 1.09566 0.55591 0.55124
 H407 H 1.14154 0.48644 0.47953
 N408 N 1.00629 0.47627 0.58686
 N409 N 1.00122 0.44356 0.58872
 C410 C 0.97729 0.43779 0.61264
 C411 C 0.96650 0.46839 0.62619
 C412 C 0.98553 0.49222 0.60937
 H413 H 0.96717 0.41331 0.61837
 H414 H 0.98415 0.51921 0.61302
 H415 H 1.02220 0.45348 0.52860
 H416 H 1.05841 0.44932 0.55968
 C417 C 0.36749 -0.00279 0.25211
 C418 C 0.12484 -0.00277 0.75313
 C419 C 0.62860 0.49879 0.24979
 C420 C 0.87648 0.50080 0.74254
 C421 C 0.25402 0.37828 -0.00269
 C422 C 0.73825 0.13053 -0.00285
 C423 C 0.24966 0.61921 0.49765
 C424 C 0.74791 0.87597 0.50429
 C425 C 0.00543 0.23899 0.37236
 C426 C -0.00398 0.75706 0.11903
 C427 C 0.49441 0.25276 0.62564
 C428 C 0.50527 0.74630 0.87407
 C429 C 0.09939 0.22502 0.34503
 C430 C 0.10022 0.23562 0.31084
 C431 C 0.06882 0.24331 0.29501
 C432 C 0.03839 0.24336 0.31395
 C433 C 0.03786 0.23536 0.34971
 C434 C 0.06965 0.22623 0.36398
 C435 C 0.08795 0.23543 0.39662
 C436 C 0.12067 0.23421 0.37569
 H437 H 0.06765 0.25040 0.26814
 H438 H 0.01597 0.25197 0.30038
 H439 H 0.08662 0.21529 0.41620
 H440 H 0.08185 0.26118 0.40632
 H441 H 0.13813 0.21339 0.38332
 H442 H 0.13284 0.25918 0.37308
 C443 C 0.56906 0.74289 0.79716
 C444 C 0.60070 0.74216 0.81353
 C445 C 0.60145 0.74508 0.84963
 C446 C 0.57100 0.74598 0.86854
 C447 C 0.53852 0.74246 0.85230
 C448 C 0.53879 0.74248 0.81571
 C449 C 0.52406 0.71832 0.78946
 C450 C 0.55668 0.72011 0.76928
 H451 H 0.62552 0.74637 0.86331
 H452 H 0.57304 0.74969 0.89622
 H453 H 0.50225 0.72928 0.77490
 H454 H 0.51990 0.69282 0.80002
 H455 H 0.55371 0.73327 0.74426
 H456 H 0.57093 0.69581 0.76802
 C457 C 0.42960 0.79081 0.82650
 C458 C 0.41504 0.76457 0.80729
 C459 C 0.43181 0.73320 0.80783
 C460 C 0.46036 0.72792 0.82903
 C461 C 0.47427 0.75390 0.85002
 C462 C 0.45827 0.78578 0.84724
 C463 C 0.44454 0.80954 0.87434
 C464 C 0.41353 0.81473 0.85157
 H465 H 0.42200 0.71198 0.79325
 H466 H 0.47081 0.70270 0.83007
 H467 H 0.45983 0.83277 0.87712
 H468 H 0.43858 0.79708 0.89904
 H469 H 0.41148 0.84062 0.84120
 H470 H 0.38982 0.80479 0.86298
 C471 C -0.07393 0.28302 0.33227
 C472 C -0.08559 0.25946 0.30781
 C473 C -0.06544 0.23012 0.30304
 C474 C -0.03686 0.22378 0.32409
 C475 C -0.02600 0.24722 0.34962
 C476 C -0.04503 0.27735 0.35222
 C477 C -0.06006 0.29568 0.38264
 C478 C -0.09172 0.30149 0.36080
 H479 H -0.07244 0.21099 0.28427
 H480 H -0.02301 0.20032 0.32046
 H481 H -0.04648 0.31941 0.38882
 H482 H -0.06456 0.27938 0.40517
 H483 H -0.09612 0.32845 0.35475
 H484 H -0.11433 0.28787 0.37029
 C485 C -0.08328 0.77111 0.17827
 C486 C -0.09553 0.73879 0.18347
 C487 C -0.08048 0.71267 0.16402
 C488 C -0.05198 0.71858 0.14319
 C489 C -0.03803 0.75141 0.13914
 C490 C -0.05604 0.77752 0.15653
 C491 C -0.04480 0.80573 0.17992
 C492 C -0.07381 0.79770 0.20373
 H493 H -0.08903 0.68705 0.16677
 H494 H -0.04002 0.69641 0.13215
 H495 H -0.04935 0.83071 0.16825
 H496 H -0.01933 0.80166 0.19181
 H497 H -0.09331 0.81810 0.20549
 H498 H -0.06493 0.78735 0.22881
 C499 C 0.40901 0.26141 0.67685
 C500 C 0.40506 0.22939 0.69069
 C501 C 0.42973 0.20480 0.68250
 C502 C 0.45751 0.21247 0.66149
 C503 C 0.46179 0.24492 0.64707
 C504 C 0.43606 0.26888 0.65491
 C505 C 0.41187 0.28643 0.63058
 C506 C 0.38335 0.27907 0.65506
 H507 H 0.42818 0.17971 0.69286
 H508 H 0.47622 0.19276 0.65701
 H509 H 0.40946 0.27311 0.60524
 H510 H 0.41595 0.31393 0.62881
 H511 H 0.36393 0.26189 0.64383
 H512 H 0.37289 0.30192 0.66821
 C513 C 0.58077 0.28450 0.66160
 C514 C 0.58341 0.27266 0.69528
 C515 C 0.55608 0.25232 0.70590
 C516 C 0.52784 0.24581 0.68404
 C517 C 0.52528 0.25910 0.65008
 C518 C 0.55367 0.27805 0.64030
 C519 C 0.56727 0.29989 0.61244
 C520 C 0.59769 0.30671 0.63645
 H521 H 0.55572 0.24158 0.73140
 H522 H 0.50826 0.23055 0.69478
 H523 H 0.55159 0.32283 0.60810
 H524 H 0.57419 0.28579 0.58854
 H525 H 0.59885 0.33325 0.64573
 H526 H 0.62204 0.29576 0.62682
 C527 C 0.08205 0.78458 0.15753
 C528 C 0.08400 0.76808 0.18910
 C529 C 0.05464 0.75125 0.20008
 C530 C 0.02577 0.74865 0.17836
 C531 C 0.02533 0.76283 0.14486
 C532 C 0.05418 0.78129 0.13596
 C533 C 0.07520 0.78268 0.10399
 C534 C 0.10608 0.78572 0.12781
 H535 H 0.05416 0.73931 0.22503
 H536 H 0.00457 0.73414 0.18741
 H537 H 0.07023 0.80582 0.08892
 H538 H 0.07485 0.75908 0.08838
 H539 H 0.11882 0.81046 0.12603
 H540 H 0.12340 0.76344 0.12664
 C541 C 0.32436 0.08467 0.26958
 C542 C 0.30826 0.09140 0.23821
 C543 C 0.30939 0.06652 0.21220
 C544 C 0.32773 0.03641 0.21725
 C545 C 0.34564 0.02991 0.24851
 C546 C 0.34318 0.05516 0.27447
 C547 C 0.37075 0.07456 0.29273
 C548 C 0.34969 0.10615 0.28780
 H549 H 0.29666 0.07055 0.18770
 H550 H 0.32854 0.01824 0.19617
 H551 H 0.39503 0.07452 0.27811
 H552 H 0.37338 0.06823 0.32048
 H553 H 0.36180 0.12463 0.27053
 H554 H 0.33949 0.11686 0.31236
 C555 C 0.85370 0.59524 0.73091
 C556 C 0.82031 0.59829 0.74225
 C557 C 0.80340 0.56844 0.75057
 C558 C 0.82062 0.53708 0.74964
 C559 C 0.85559 0.53426 0.74027
 C560 C 0.87095 0.56488 0.73165
 C561 C 0.90401 0.58120 0.74033
 C562 C 0.88479 0.61468 0.74000
 H563 H 0.77701 0.56931 0.75843
 H564 H 0.80644 0.51565 0.75815
 H565 H 0.92261 0.57889 0.71892
 H566 H 0.91395 0.57483 0.76638
 H567 H 0.89268 0.63134 0.71870
 H568 H 0.88305 0.62704 0.76589
 C569 C 0.80628 0.43461 0.73250
 C570 C 0.80793 0.41446 0.76163
 C571 C 0.83377 0.42283 0.78583
 C572 C 0.85593 0.45026 0.78042
 C573 C 0.85293 0.47090 0.75063
 C574 C 0.82764 0.46077 0.72719
 C575 C 0.81260 0.46871 0.69281
 C576 C 0.78840 0.43918 0.69881
 H577 H 0.83709 0.40835 0.80909
 H578 H 0.87554 0.45442 0.79959
 H579 H 0.83085 0.46403 0.67140
 H580 H 0.79952 0.49361 0.69254
 H581 H 0.79267 0.41756 0.68080
 H582 H 0.76144 0.44722 0.70211
 C583 C 0.29290 -0.06687 0.24359
 C584 C 0.30369 -0.09382 0.26402
 C585 C 0.33622 -0.09158 0.27911
 C586 C 0.35596 -0.06263 0.27540
 C587 C 0.34407 -0.03398 0.25700
 C588 C 0.31222 -0.03769 0.24023
 C589 C 0.28049 -0.01635 0.24306
 C590 C 0.26008 -0.04808 0.24605
 H591 H 0.34673 -0.11209 0.29399
 H592 H 0.38093 -0.06307 0.28726
 H593 H 0.27413 -0.00291 0.21885
 H594 H 0.27997 -0.00044 0.26692
 H595 H 0.24334 -0.05287 0.22330
 H596 H 0.24764 -0.05064 0.27160
 C597 C 0.19406 -0.07212 0.76626
 C598 C 0.19390 -0.09089 0.73539
 C599 C 0.16846 -0.08235 0.71109
 C600 C 0.14649 -0.05464 0.71648
 C601 C 0.14795 -0.03439 0.74704
 C602 C 0.17262 -0.04465 0.77146
 C603 C 0.19870 -0.02665 0.79297
 C604 C 0.22202 -0.05695 0.78727
 H605 H 0.16617 -0.09584 0.68678
 H606 H 0.12975 -0.04882 0.69523
 H607 H 0.19094 -0.02324 0.82034
 H608 H 0.20904 -0.00385 0.78087
 H609 H 0.22714 -0.07110 0.81135
 H610 H 0.24482 -0.05128 0.77156
 C611 C 0.70711 0.43880 0.24353
 C612 C 0.69247 0.40701 0.24115
 C613 C 0.65681 0.40555 0.23829
 C614 C 0.63670 0.43495 0.24104
 C615 C 0.65151 0.46719 0.24487
 C616 C 0.68740 0.46797 0.24528
 C617 C 0.71200 0.48421 0.26995
 C618 C 0.73316 0.45216 0.26806
 H619 H 0.64429 0.38152 0.23554
 H620 H 0.60931 0.43246 0.24058
 H621 H 0.70116 0.48921 0.29595
 H622 H 0.72525 0.50590 0.25845
 H623 H 0.73391 0.43847 0.29293
 H624 H 0.75822 0.45557 0.25549
 C625 C 0.69158 0.57065 0.23530
 C626 C 0.69286 0.58927 0.26599
 C627 C 0.67084 0.57847 0.29236
 C628 C 0.64979 0.55002 0.28760
 C629 C 0.65031 0.53054 0.25638
 C630 C 0.67137 0.54329 0.23069
 C631 C 0.68293 0.53730 0.19451
 C632 C 0.70584 0.56809 0.19979
 H633 H 0.66976 0.59172 0.31691
 H634 H 0.63326 0.54399 0.30872
 H635 H 0.66214 0.54140 0.17538
 H636 H 0.69747 0.51337 0.19132
 H637 H 0.69836 0.58987 0.18362
 H638 H 0.73342 0.56164 0.19993
 C639 C 0.19765 0.06019 0.74455
 C640 C 0.19803 0.07938 0.77489
 C641 C 0.17255 0.07165 0.79917
 C642 C 0.14876 0.04571 0.79269
 C643 C 0.14881 0.02685 0.76109
 C644 C 0.17453 0.03559 0.73805
 C645 C 0.19120 0.02473 0.70519
 C646 C 0.21712 0.05273 0.71240
 H647 H 0.17129 0.08491 0.82371
 H648 H 0.13128 0.04025 0.81321
 H649 H 0.17505 0.02936 0.68207
 H650 H 0.20247 -0.00096 0.70681
 H651 H 0.21558 0.07370 0.69372
 H652 H 0.24315 0.04294 0.71791
 C653 C 0.21114 0.33035 0.07261
 C654 C 0.23580 0.30632 0.08168
 C655 C 0.26508 0.30434 0.06097
 C656 C 0.27068 0.32793 0.03489
 C657 C 0.24738 0.35473 0.02831
 C658 C 0.21657 0.35384 0.04682
 C659 C 0.19779 0.38028 0.06732
 C660 C 0.19145 0.35437 0.09464
 H661 H 0.28456 0.28554 0.06569
 H662 H 0.29394 0.32573 0.02012
 H663 H 0.17398 0.38877 0.05430
 H664 H 0.21458 0.40053 0.07714
 H665 H 0.16423 0.34734 0.09657
 H666 H 0.20437 0.36029 0.11960
 C667 C 0.76579 0.80581 0.56951
 C668 C 0.73761 0.80451 0.59095
 C669 C 0.71065 0.82703 0.58284
 C670 C 0.71313 0.84986 0.55513
 C671 C 0.74301 0.85149 0.53456
 C672 C 0.76809 0.82749 0.54273
 C673 C 0.80238 0.81476 0.53234
 C674 C 0.79979 0.79031 0.56270
 H675 H 0.68759 0.82748 0.59795
 H676 H 0.69123 0.86568 0.55019
 H677 H 0.82253 0.83389 0.53594
 H678 H 0.80197 0.80198 0.50663
 H679 H 0.81834 0.79563 0.58380
 H680 H 0.79796 0.76350 0.55446
 C681 C 0.73930 0.80532 0.43640
 C682 C 0.76718 0.80753 0.41466
 C683 C 0.79065 0.83319 0.42314
 C684 C 0.78530 0.85522 0.45183
 C685 C 0.75551 0.85329 0.47251
 C686 C 0.73378 0.82682 0.46345
 C687 C 0.70171 0.80996 0.47365
 C688 C 0.70784 0.78588 0.44285
 H689 H 0.81360 0.83597 0.40819
 H690 H 0.80507 0.87306 0.45762
 H691 H 0.67884 0.82628 0.47046
 H692 H 0.70404 0.79745 0.49908
 H693 H 0.68880 0.78870 0.42171
 H694 H 0.71344 0.75961 0.45073
 C695 C 0.24024 0.30573 -0.06807
 C696 C 0.26704 0.30644 -0.09120
 C697 C 0.29178 0.33133 -0.08471
 C698 C 0.28870 0.35413 -0.05627
 C699 C 0.25976 0.35403 -0.03407
 C700 C 0.23669 0.32810 -0.04144
 C701 C 0.20384 0.31327 -0.03023
 C702 C 0.20789 0.28824 -0.06060
 H703 H 0.31399 0.33272 -0.10103
 H704 H 0.30950 0.37115 -0.05207
 H705 H 0.18191 0.33085 -0.03331
 H706 H 0.20588 0.30109 -0.00461
 H707 H 0.18861 0.29174 -0.08140
 H708 H 0.21215 0.26187 -0.05229
 C709 C 0.69936 0.18062 -0.07943
 C710 C 0.72309 0.20606 -0.08463
 C711 C 0.75345 0.20435 -0.06518
 C712 C 0.75800 0.17993 -0.03948
 C713 C 0.73270 0.15570 -0.03256
 C714 C 0.70393 0.15619 -0.05444
 C715 C 0.66653 0.15523 -0.04727
 C716 C 0.66182 0.18228 -0.07421
 H717 H 0.77330 0.22261 -0.06871
 H718 H 0.78128 0.18031 -0.02438
 H719 H 0.65977 0.16371 -0.02081
 H720 H 0.65482 0.13108 -0.05544
 H721 H 0.65317 0.20684 -0.06312
 H722 H 0.64747 0.17339 -0.09736
 C723 C 0.21282 0.66025 0.41418
 C724 C 0.23276 0.68886 0.41019
 C725 C 0.25690 0.69585 0.43617
 C726 C 0.26253 0.67336 0.46340
 C727 C 0.24432 0.64277 0.46601
 C728 C 0.21865 0.63764 0.44096
 C729 C 0.21352 0.60843 0.41678
 C730 C 0.20594 0.63313 0.38834
 H731 H 0.27216 0.71830 0.43525
 H732 H 0.28161 0.67997 0.48250
 H733 H 0.19109 0.59311 0.42357
 H734 H 0.23756 0.59430 0.41196
 H735 H 0.17887 0.63301 0.37987
 H736 H 0.22487 0.63221 0.36709
 C737 C 0.28704 0.66180 0.58119
 C738 C 0.26632 0.69028 0.58578
 C739 C 0.24046 0.69568 0.56124
 C740 C 0.23449 0.67214 0.53456
 C741 C 0.25431 0.64213 0.53063
 C742 C 0.28140 0.63831 0.55456
 C743 C 0.28888 0.61018 0.57920
 C744 C 0.29577 0.63594 0.60718
 H745 H 0.22416 0.71771 0.56286
 H746 H 0.21420 0.67779 0.51643
 H747 H 0.31226 0.59568 0.57235
 H748 H 0.26613 0.59477 0.58472
 H749 H 0.32299 0.63680 0.61504
 H750 H 0.27729 0.63521 0.62881
 C751 C 0.72896 0.19448 0.07300
 C752 C 0.76038 0.19369 0.08988
 C753 C 0.78471 0.17026 0.07752
 C754 C 0.77816 0.15017 0.04798
 C755 C 0.74657 0.15205 0.02993
 C756 C 0.72267 0.17519 0.04373
 C757 C 0.70056 0.20187 0.02822
 C758 C 0.70795 0.22322 0.06021
 H759 H 0.80929 0.16789 0.08999
 H760 H 0.79871 0.13415 0.03907
 H761 H 0.67347 0.19437 0.02677
 H762 H 0.71107 0.21277 0.00432
 H763 H 0.68505 0.22792 0.07636
 H764 H 0.72341 0.24582 0.05483
 C765 C 0.47807 0.34515 0.59924
 C766 C 0.48805 0.34625 0.56485
 C767 C 0.49593 0.31533 0.54843
 C768 C 0.49641 0.28503 0.56710
 C769 C 0.48947 0.28454 0.60321
 C770 C 0.48056 0.31599 0.61789
 C771 C 0.48780 0.33442 0.65098
 C772 C 0.48563 0.36674 0.63010
 H773 H 0.50257 0.31458 0.52131
 H774 H 0.50444 0.26265 0.55317
 H775 H 0.51365 0.32973 0.66160
 H776 H 0.46686 0.33230 0.66996
 H777 H 0.51038 0.37983 0.62797
 H778 H 0.46363 0.38308 0.63738
 C779 C -0.02607 0.84713 0.08586
 C780 C -0.02453 0.84325 0.04995
 C781 C -0.01211 0.81262 0.03655
 C782 C -0.00267 0.78633 0.05845
 C783 C -0.00728 0.78850 0.09485
 C784 C -0.01601 0.82089 0.10789
 C785 C 0.00660 0.84542 0.12735
 C786 C -0.00742 0.87340 0.10562
 H787 H -0.00896 0.80898 0.00900
 H788 H 0.00856 0.76449 0.04607
 H789 H 0.03409 0.84163 0.12232
 H790 H 0.00098 0.84912 0.15512
 H791 H 0.01228 0.88619 0.09017
 H792 H -0.02505 0.89058 0.11988
 C793 C 0.03623 0.67472 0.08105
 C794 C 0.01460 0.66524 0.05407
 C795 C -0.01446 0.68602 0.04946
 C796 C -0.02021 0.71473 0.07068
 C797 C 0.00339 0.72496 0.09684
 C798 C 0.03108 0.70273 0.10132
 C799 C 0.06067 0.69413 0.12420
 C800 C 0.06653 0.66311 0.10085
 H801 H -0.03313 0.68025 0.02970
 H802 H -0.04316 0.72944 0.06637
 H803 H 0.05262 0.68744 0.15069
 H804 H 0.08177 0.71235 0.12308
 H805 H 0.06205 0.63894 0.11410
 H806 H 0.09025 0.66425 0.08544
 C807 C 0.53271 0.17028 0.58659
 C808 C 0.50862 0.16083 0.56162
 C809 C 0.47845 0.18023 0.55991
 C810 C 0.47454 0.20974 0.58006
 C811 C 0.50077 0.22130 0.60244
 C812 C 0.52909 0.19964 0.60624
 C813 C 0.56645 0.20624 0.60461
 C814 C 0.57025 0.17392 0.58372
 H815 H 0.45809 0.17333 0.54239
 H816 H 0.45113 0.22415 0.57766
 H817 H 0.57892 0.20505 0.63042
 H818 H 0.57250 0.22868 0.58921
 H819 H 0.58436 0.15394 0.59783
 H820 H 0.57864 0.17796 0.55671
 C821 C 0.01392 0.15263 0.41787
 C822 C -0.01733 0.14992 0.43447
 C823 C -0.04151 0.17568 0.42999
 C824 C -0.03447 0.20319 0.40896
 C825 C -0.00296 0.20604 0.39151
 C826 C 0.02083 0.17968 0.39638
 C827 C 0.03617 0.15631 0.36978
 C828 C 0.02924 0.12745 0.39365
 H829 H -0.06571 0.17484 0.44318
 H830 H -0.05362 0.22273 0.40696
 H831 H 0.06388 0.16005 0.36619
 H832 H 0.02106 0.15528 0.34542
 H833 H 0.05274 0.11581 0.40451
 H834 H 0.01036 0.10933 0.38305
 C835 C 0.45804 0.67546 0.92172
 C836 C 0.48360 0.66010 0.94112
 C837 C 0.51740 0.66868 0.93398
 C838 C 0.52473 0.69460 0.91076
 C839 C 0.49843 0.71354 0.89444
 C840 C 0.46510 0.70193 0.90018
 C841 C 0.43245 0.71963 0.90907
 C842 C 0.42483 0.69043 0.93267
 H843 H 0.53820 0.65614 0.94721
 H844 H 0.55114 0.70024 0.90752
 H845 H 0.41466 0.72115 0.88670
 H846 H 0.43619 0.74360 0.92348
 H847 H 0.40293 0.67510 0.92367
 H848 H 0.42449 0.69760 0.96054
 C849 C 0.52948 0.83342 0.91012
 C850 C 0.52007 0.83395 0.94464
 C851 C 0.50644 0.80373 0.95731
 C852 C 0.50211 0.77517 0.93539
 C853 C 0.51053 0.77602 0.89962
 C854 C 0.52459 0.80641 0.88884
 C855 C 0.53608 0.82476 0.85765
 C856 C 0.54126 0.85534 0.88182
 H857 H 0.49911 0.80199 0.98413
 H858 H 0.49172 0.75289 0.94680
 H859 H 0.51536 0.82854 0.83842
 H860 H 0.56025 0.81446 0.84696
 H861 H 0.52318 0.87640 0.87673
 H862 H 0.56836 0.86252 0.88494
 C863 C 0.03029 0.32554 0.40907
 C864 C 0.02656 0.32393 0.44470
 C865 C 0.01633 0.29255 0.45760
 C866 C 0.00996 0.26488 0.43508
 C867 C 0.01251 0.26780 0.39845
 C868 C 0.02342 0.29929 0.38732
 C869 C 0.03133 0.31894 0.35586
 C870 C 0.03874 0.34866 0.38052
 H871 H 0.01370 0.28906 0.48514
 H872 H 0.00332 0.24152 0.44703
 H873 H 0.00867 0.32311 0.33912
 H874 H 0.05438 0.30926 0.34235
 H875 H 0.02007 0.36972 0.37831
 H876 H 0.06594 0.35604 0.38092
 C877 C 0.33151 0.57724 0.45922
 C878 C 0.33988 0.55269 0.48345
 C879 C 0.31653 0.54746 0.51013
 C880 C 0.28779 0.56855 0.51401
 C881 C 0.28157 0.59631 0.49209
 C882 C 0.30360 0.59875 0.46356
 C883 C 0.32348 0.62772 0.45006
 C884 C 0.35328 0.60386 0.44467
 H885 H 0.32054 0.52742 0.52840
 H886 H 0.27006 0.56281 0.53428
 H887 H 0.32897 0.64711 0.47021
 H888 H 0.31290 0.63738 0.42536
 H889 H 0.37562 0.60978 0.46135
 H890 H 0.35912 0.59914 0.41695
 C891 C 0.80285 0.05762 0.00531
 C892 C 0.82485 0.05990 -0.02261
 C893 C 0.81613 0.08467 -0.04715
 C894 C 0.78792 0.10672 -0.04207
 C895 C 0.76774 0.10568 -0.01155
 C896 C 0.77601 0.07902 0.01043
 C897 C 0.76720 0.06417 0.04434
 C898 C 0.79768 0.04018 0.03867
 H899 H 0.83101 0.08729 -0.07036
 H900 H 0.78255 0.12431 -0.06241
 H901 H 0.74222 0.05132 0.04354
 H902 H 0.77088 0.08195 0.06638
 H903 H 0.79024 0.01348 0.03486
 H904 H 0.81895 0.04455 0.05718
 C905 C 0.66932 0.06359 -0.01816
 C906 C 0.64955 0.06318 0.01156
 C907 C 0.65968 0.08562 0.03822
 C908 C 0.68793 0.10705 0.03433
 C909 C 0.70666 0.10822 0.00285
 C910 C 0.69605 0.08475 -0.02226
 C911 C 0.70469 0.07056 -0.05701
 C912 C 0.67432 0.04692 -0.05244
 H913 H 0.64658 0.08605 0.06273
 H914 H 0.69507 0.12143 0.05691
 H915 H 0.72966 0.05718 -0.05709
 H916 H 0.70090 0.08893 -0.07808
 H917 H 0.68200 0.02005 -0.05012
 H918 H 0.65286 0.05202 -0.07051
 C919 C 0.18663 0.54463 0.48883
 C920 C 0.15845 0.55342 0.50866
 C921 C 0.15987 0.58538 0.52494
 C922 C 0.18864 0.60638 0.52146
 C923 C 0.21782 0.59637 0.50182
 C924 C 0.21469 0.56440 0.48575
 C925 C 0.23252 0.53780 0.46424
 C926 C 0.20070 0.51634 0.46785
 H927 H 0.13890 0.59438 0.54062
 H928 H 0.18735 0.63018 0.53486
 H929 H 0.25467 0.52581 0.47713
 H930 H 0.23725 0.54498 0.43721
 H931 H 0.20504 0.49333 0.48335
 H932 H 0.18658 0.51264 0.44315
 C933 C 0.18814 0.45153 0.00732
 C934 C 0.16961 0.45089 -0.02356
 C935 C 0.17662 0.42406 -0.04665
 C936 C 0.20301 0.40076 -0.04008
 C937 C 0.22352 0.40270 -0.00969
 C938 C 0.21474 0.42916 0.01343
 C939 C 0.23452 0.45544 0.03293
 C940 C 0.20503 0.47959 0.02637
 H941 H 0.16270 0.42149 -0.07068
 H942 H 0.20776 0.38242 -0.06025
 H943 H 0.25785 0.46379 0.01984
 H944 H 0.23805 0.44974 0.06071
 H945 H 0.21167 0.50077 0.00926
 H946 H 0.19118 0.48687 0.05034
 C947 C 0.66722 0.91758 0.46423
 C948 C 0.66012 0.94411 0.48724
 C949 C 0.67921 0.94540 0.51811
 C950 C 0.70650 0.92285 0.52363
 C951 C 0.71571 0.89798 0.49859
 C952 C 0.69414 0.89536 0.46948
 C953 C 0.70109 0.89296 0.43146
 C954 C 0.67183 0.91753 0.42604
 H955 H 0.67393 0.96441 0.53765
 H956 H 0.72122 0.92546 0.54723
 H957 H 0.69555 0.86766 0.42042
 H958 H 0.72609 0.90319 0.42407
 H959 H 0.64996 0.90607 0.41206
 H960 H 0.68003 0.94234 0.41629
 C961 C 0.80930 0.95044 0.49656
 C962 C 0.82893 0.95081 0.52655
 C963 C 0.82133 0.92566 0.55075
 C964 C 0.79570 0.90161 0.54411
 C965 C 0.77714 0.90080 0.51230
 C966 C 0.78501 0.92699 0.48983
 C967 C 0.77535 0.94251 0.45624
 C968 C 0.80295 0.96874 0.46385
 H969 H 0.83459 0.92470 0.57528
 H970 H 0.79045 0.88444 0.56470
 H971 H 0.74914 0.95330 0.45660
 H972 H 0.78146 0.92610 0.43363
 H973 H 0.79255 0.99450 0.46848
 H974 H 0.82497 0.96699 0.44600
 C975 C 0.32150 0.44650 -0.01391
 C976 C 0.34220 0.44555 0.01533
 C977 C 0.33415 0.42078 0.03976
 C978 C 0.30612 0.39903 0.03460
 C979 C 0.28566 0.40027 0.00401
 C980 C 0.29522 0.42502 -0.01941
 C981 C 0.28440 0.44175 -0.05202
 C982 C 0.31431 0.46581 -0.04588
 H983 H 0.34872 0.41888 0.06348
 H984 H 0.30055 0.38211 0.05532
 H985 H 0.25914 0.45438 -0.04965
 H986 H 0.28755 0.42528 -0.07520
 H987 H 0.30596 0.49209 -0.04022
 H988 H 0.33496 0.46294 -0.06523
 C989 C 0.54992 0.49312 0.30964
 C990 C 0.56370 0.48091 0.34040
 C991 C 0.59911 0.47574 0.34204
 C992 C 0.61953 0.48107 0.31291
 C993 C 0.60535 0.49201 0.28112
 C994 C 0.56995 0.49814 0.28068
 C995 C 0.54294 0.48387 0.25735
 C996 C 0.52122 0.47901 0.28900
 H997 H 0.61110 0.46733 0.36569
 H998 H 0.64660 0.47662 0.31527
 H999 H 0.55084 0.45978 0.24471
 H1000 H 0.53187 0.50284 0.23960
 H1001 H 0.51639 0.45214 0.29470
 H1002 H 0.49836 0.49570 0.28968
 C1003 C 0.06711 -0.04386 0.82191
 C1004 C 0.04489 -0.01767 0.83144
 C1005 C 0.04770 0.01271 0.81352
 C1006 C 0.07394 0.01731 0.78953
 C1007 C 0.09895 -0.00799 0.78278
 C1008 C 0.09347 -0.03928 0.79852
 C1009 C 0.11666 -0.06114 0.81969
 C1010 C 0.08756 -0.06659 0.84427
 H1011 H 0.03022 0.03337 0.81852
 H1012 H 0.07506 0.04113 0.77647
 H1013 H 0.13767 -0.04693 0.83216
 H1014 H 0.12441 -0.08456 0.80567
 H1015 H 0.09212 -0.05585 0.87055
 H1016 H 0.07802 -0.09281 0.84353
 C1017 C 0.08388 0.03815 0.67151
 C1018 C 0.05666 0.01683 0.66418
 C1019 C 0.05404 -0.01255 0.68378
 C1020 C 0.07619 -0.01853 0.71161
 C1021 C 0.10244 0.00426 0.72075
 C1022 C 0.10586 0.03240 0.69922
 C1023 C 0.10731 0.06931 0.70760
 C1024 C 0.08352 0.07525 0.67727
 H1025 H 0.03431 -0.03068 0.67835
 H1026 H 0.07258 -0.04109 0.72647
 H1027 H 0.13291 0.08005 0.70333
 H1028 H 0.09575 0.07603 0.73290
 H1029 H 0.09571 0.08877 0.65572
 H1030 H 0.05807 0.08513 0.68501
 C1031 C 0.57878 0.48814 0.16327
 C1032 C 0.56193 0.51901 0.16009
 C1033 C 0.56628 0.54308 0.18659
 C1034 C 0.58807 0.53655 0.21471
 C1035 C 0.60674 0.50588 0.21713
 C1036 C 0.60101 0.48183 0.19065
 C1037 C 0.62574 0.46440 0.16685
 C1038 C 0.60116 0.47108 0.13743
 H1039 H 0.55275 0.56691 0.18572
 H1040 H 0.59016 0.55555 0.23489
 H1041 H 0.62854 0.43710 0.17202
 H1042 H 0.65012 0.47803 0.16447
 H1043 H 0.58946 0.44785 0.12663
 H1044 H 0.61124 0.48863 0.11792
 C1045 C 0.41371 -0.04219 0.17254
 C1046 C 0.43109 -0.01504 0.15877
 C1047 C 0.42419 0.01705 0.17291
 C1048 C 0.40325 0.02086 0.20212
 C1049 C 0.38868 -0.00730 0.21856
 C1050 C 0.39337 -0.03862 0.20169
 C1051 C 0.40566 -0.07175 0.21524
 C1052 C 0.42738 -0.07555 0.18321
 H1053 H 0.43589 0.03912 0.16228
 H1054 H 0.39987 0.04593 0.21289
 H1055 H 0.38509 -0.09069 0.21608
 H1056 H 0.42104 -0.06913 0.23931
 H1057 H 0.41889 -0.09618 0.16564
 H1058 H 0.45517 -0.07514 0.18878
 C1059 C 0.92849 0.45051 0.67459
 C1060 C 0.93890 0.47466 0.65125
 C1061 C 0.92124 0.50566 0.65251
 C1062 C 0.89842 0.51332 0.67963
 C1063 C 0.89434 0.49116 0.70794
 C1064 C 0.90780 0.45855 0.70206
 C1065 C 0.92083 0.42970 0.72288
 C1066 C 0.94455 0.42145 0.69260
 H1067 H 0.92561 0.52445 0.63307
 H1068 H 0.88553 0.53717 0.67800
 H1069 H 0.90104 0.41033 0.72661
 H1070 H 0.93478 0.43711 0.74670
 H1071 H 0.93875 0.39706 0.67962
 H1072 H 0.97186 0.42571 0.69869
 C1073 C 0.96053 0.50576 0.79571
 C1074 C 0.95003 0.52072 0.82672
 C1075 C 0.91486 0.52540 0.83166
 C1076 C 0.89159 0.51796 0.80491
 C1077 C 0.90267 0.50615 0.77200
 C1078 C 0.93780 0.49931 0.76893
 C1079 C 0.96354 0.50859 0.74237
 C1080 C 0.98818 0.51566 0.77187
 H1081 H 0.90532 0.53540 0.85593
 H1082 H 0.86479 0.52246 0.80959
 H1083 H 0.95643 0.53138 0.72771
 H1084 H 0.97177 0.48680 0.72614
 H1085 H 0.99488 0.54267 0.77461
 H1086 H 1.01007 0.49776 0.77258
 C1087 C 0.44732 -0.00420 0.31179
 C1088 C 0.43383 0.00327 0.34427
 C1089 C 0.39825 0.00413 0.34743
 C1090 C 0.37732 0.00125 0.31787
 C1091 C 0.39135 -0.00034 0.28409
 C1092 C 0.42691 -0.00520 0.28243
 C1093 C 0.45394 0.01138 0.26165
 C1094 C 0.47624 0.01157 0.29372
 H1095 H 0.38665 0.00797 0.37249
 H1096 H 0.34999 0.00211 0.32121
 H1097 H 0.44679 0.03725 0.25365
 H1098 H 0.46398 -0.00535 0.24075
 H1099 H 0.48189 0.03728 0.30372
 H1100 H 0.49859 -0.00569 0.29166
   
