data_POSCAR
  _audit_creation_date              2014-09-24
  _audit_creation_method            'ToBaCCo'
  _symmetry_space_group_name_H-M    'P1'
  _symmetry_Int_Tables_number       1
  _symmetry_cell_setting            triclinic
  loop_
  _symmetry_equiv_pos_as_xyz
 x,y,z
_cell_length_a 17.3491
_cell_length_b 16.3465
_cell_length_c 26.5093
_cell_angle_alpha 97.228800
_cell_angle_beta 86.777100
_cell_angle_gamma 53.852000
loop_
  _atom_site_label
  _atom_site_type_symbol
  _atom_site_fract_x
  _atom_site_fract_y
  _atom_site_fract_z
C1 C -0.03973 0.36351 0.96889
 C2 C -0.06859 0.36010 1.01876
 C3 C -0.05220 0.40236 1.06216
 C4 C -0.00384 0.44677 1.05629
 C5 C 0.02215 0.45444 1.00646
 C6 C 0.00278 0.41413 0.96273
 C7 C 0.02902 0.42272 0.91366
 C8 C 0.07137 0.47244 0.90778
 C9 C 0.08990 0.51457 0.95076
 C10 C 0.06847 0.50158 1.00035
 C11 C 0.01926 0.48359 1.09915
 C12 C 0.06847 0.52569 1.09298
 C13 C 0.09364 0.53529 1.04393
 C14 C 0.14393 0.57726 1.03734
 C15 C 0.16219 0.59254 0.98893
 C16 C 0.13202 0.56657 0.94612
 H17 H 0.01681 0.39107 0.87934
 H18 H 0.09261 0.47356 0.86895
 H19 H 0.00086 0.47843 1.13775
 H20 H 0.08596 0.55160 1.12704
 H21 H -0.10378 0.32405 1.02398
 H22 H 0.19664 0.62975 0.98486
 C23 C 0.59315 0.10283 0.44738
 C24 C 0.64870 0.08816 0.48601
 C25 C 0.64078 0.05065 0.52912
 C26 C 0.57422 0.02631 0.53376
 C27 C 0.51958 0.03843 0.49336
 C28 C 0.53014 0.07576 0.44999
 C29 C 0.47739 0.08541 0.40989
 C30 C 0.41492 0.05894 0.41213
 C31 C 0.40198 0.02331 0.45485
 C32 C 0.45409 0.01320 0.49598
 C33 C 0.56136 -0.01160 0.57594
 C34 C 0.49397 -0.03259 0.57933
 C35 C 0.43965 -0.02059 0.53981
 C36 C 0.37211 -0.04271 0.54242
 C37 C 0.32221 -0.03291 0.50095
 C38 C 0.33606 0.00010 0.45757
 H39 H 0.48451 0.11301 0.37617
 H40 H 0.37609 0.06757 0.38018
 H41 H 0.60255 -0.02606 0.60696
 H42 H 0.48587 -0.06021 0.61282
 H43 H 0.69858 0.10750 0.48290
 H44 H 0.26945 -0.04822 0.50311
 C45 C 0.12937 0.02995 0.29320
 H46 H 0.15647 0.01960 0.25336
 C47 C 0.18467 0.02139 0.33140
 H48 H 0.25457 0.00446 0.32086
 C49 C 0.00527 0.06455 0.35562
 H50 H -0.06555 0.08414 0.36551
 C51 C 0.05855 0.05543 0.39478
 H52 H 0.02932 0.06608 0.43425
 N53 N 0.04248 0.04854 0.30569
 C54 C 0.00802 -0.09338 0.16621
 H55 H -0.06151 -0.02952 0.15907
 C56 C 0.05844 -0.19051 0.13380
 H57 H 0.02765 -0.20097 0.10146
 C58 C 0.13200 -0.15825 0.21773
 H59 H 0.15968 -0.14657 0.25110
 C60 C 0.18479 -0.25610 0.18626
 H61 H 0.25335 -0.31871 0.19510
 Zn62 Zn -0.02631 0.05216 0.25179
 N63 N 0.04573 -0.07890 0.20703
 C64 C -0.01952 0.14022 0.16580
 N65 N -0.04859 0.15720 0.21727
 C66 C -0.09529 0.25243 0.24755
 C67 C -0.11848 0.33632 0.22604
 C68 C -0.04010 0.22221 0.14273
 C69 C -0.14337 0.01946 0.30930
 C70 C -0.22746 0.05006 0.34019
 C71 C -0.31665 0.20757 0.30674
 C72 C -0.23077 0.17472 0.27710
 N73 N -0.14568 0.08436 0.28081
 H74 H 0.01921 0.06352 0.14259
 H75 H -0.11615 0.26337 0.28848
 H76 H -0.15736 0.41224 0.25035
 H77 H -0.01759 0.20830 0.10171
 H78 H -0.07492 -0.05289 0.31080
 H79 H -0.22377 0.00027 0.36486
 H80 H -0.38352 0.28166 0.30534
 H81 H -0.23196 0.22354 0.25278
 C82 C 0.14816 -0.27302 0.14395
 C83 C 0.14933 0.03268 0.38274
 C84 C -0.31466 0.14699 0.34016
 C85 C -0.09119 0.32180 0.17324
 C86 C -0.04850 0.13675 0.79158
 H87 H -0.04059 0.14843 0.75291
 C88 C -0.06325 0.20762 0.83393
 H89 H -0.06651 0.27373 0.82773
 C90 C -0.04947 0.03416 0.84691
 H91 H -0.04360 -0.03369 0.85205
 C92 C -0.06675 0.10420 0.89019
 H93 H -0.07250 0.08916 0.92833
 N94 N -0.03604 0.04883 0.79871
 C95 C 0.15791 -0.16561 0.65630
 H96 H 0.12821 -0.20747 0.64824
 C97 C 0.22711 -0.17918 0.61935
 H98 H 0.24962 -0.23043 0.58253
 C99 C 0.15951 -0.04185 0.71216
 H100 H 0.13372 0.01129 0.74843
 C101 C 0.22936 -0.05354 0.67633
 H102 H 0.25375 -0.00646 0.68464
 Zn103 Zn 0.00898 -0.06036 0.74171
 N104 N 0.12082 -0.09275 0.70019
 C105 C -0.07998 -0.01515 0.65194
 N106 N -0.09298 -0.01982 0.70231
 C107 C -0.17757 0.00273 0.72497
 C108 C -0.25029 0.02426 0.69586
 C109 C -0.15046 0.00588 0.62156
 C110 C 0.11947 -0.21528 0.79595
 C111 C 0.13754 -0.28570 0.82701
 C112 C 0.01042 -0.28837 0.79629
 C113 C -0.00500 -0.21808 0.76551
 N114 N 0.04596 -0.17907 0.76808
 H115 H -0.01474 -0.02835 0.63487
 H116 H -0.18755 0.00132 0.76542
 H117 H -0.31620 0.03936 0.71387
 H118 H -0.13751 0.00715 0.58134
 H119 H 0.15909 -0.18325 0.79709
 H120 H 0.19180 -0.30801 0.85170
 H121 H -0.03508 -0.31341 0.79702
 H122 H -0.06155 -0.19038 0.74220
 C123 C 0.26019 -0.11949 0.62834
 C124 C -0.06933 0.18920 0.88383
 C125 C 0.07937 -0.31917 0.82906
 C126 C -0.23622 0.02399 0.64333
 N127 N 0.17393 -0.39717 0.07616
 N128 N 0.20329 -0.37457 0.11259
 N129 N -0.08533 0.40393 0.10819
 N130 N -0.11755 0.40994 0.15221
 N131 N 0.34509 -0.06431 0.58842
 N132 N 0.30768 -0.11206 0.58523
 N133 N -0.29343 0.03465 0.56425
 N134 N -0.30842 0.04129 0.61263
 N135 N 0.13719 -0.39484 0.90134
 N136 N 0.07936 -0.37079 0.86891
 N137 N -0.04741 0.31028 0.92436
 N138 N -0.06908 0.24901 0.92805
 N139 N -0.40237 0.14547 0.40978
 N140 N -0.40115 0.18748 0.37462
 N141 N 0.28109 0.01345 0.41676
 N142 N 0.20407 0.02052 0.42325
   
