data_POSCAR
  _audit_creation_date              2014-09-24
  _audit_creation_method            'ToBaCCo'
  _symmetry_space_group_name_H-M    'P1'
  _symmetry_Int_Tables_number       1
  _symmetry_cell_setting            triclinic
  loop_
  _symmetry_equiv_pos_as_xyz
 x,y,z
_cell_length_a 36.2166
_cell_length_b 36.0561
_cell_length_c 35.5235
_cell_angle_alpha 89.803100
_cell_angle_beta 89.414800
_cell_angle_gamma 89.733600
loop_
  _atom_site_label
  _atom_site_type_symbol
  _atom_site_fract_x
  _atom_site_fract_y
  _atom_site_fract_z
N1 N 0.17046 1.25777 0.14797
 N2 N 0.14596 1.25864 0.17547
 C3 C 0.12314 1.28772 0.17026
 C4 C 0.13360 1.30611 0.13741
 C5 C 0.16397 1.28615 0.12418
 H6 H 0.09985 1.29404 0.18837
 H7 H 0.17983 1.29118 0.09877
 Cu8 Cu 0.14480 1.22006 0.21385
 Cu9 Cu 0.20757 1.21855 0.14370
 Cu10 Cu 0.20018 1.14583 0.20759
 N11 N 0.14396 1.18153 0.25234
 N12 N 0.16597 1.15259 0.24977
 C13 C 0.15865 1.12915 0.27839
 C14 C 0.13015 1.14398 0.30023
 C15 C 0.12178 1.17749 0.28272
 H16 H 0.17240 1.10276 0.28204
 H17 H 0.10048 1.19707 0.29072
 N18 N 0.23890 1.14805 0.16823
 N19 N 0.24195 1.17593 0.14425
 C20 C 0.27066 1.16930 0.12083
 C21 C 0.28659 1.13560 0.13046
 C22 C 0.26568 1.12302 0.16075
 H23 H 0.27886 1.18737 0.09796
 H24 H 0.26959 1.09749 0.17625
 H25 H 0.17433 1.17932 0.16767
 H26 H 0.20797 1.20182 0.19974
 N27 N 0.82833 0.75947 0.14486
 N28 N 0.85715 0.76504 0.16621
 C29 C 0.88313 0.73940 0.15827
 C30 C 0.87004 0.71640 0.13022
 C31 C 0.83505 0.73009 0.12246
 H32 H 0.90965 0.73790 0.17185
 H33 H 0.81589 0.71971 0.10194
 Cu34 Cu 0.85868 0.80523 0.20234
 Cu35 Cu 0.78500 0.79168 0.14671
 Cu36 Cu 0.78543 0.86122 0.21377
 N37 N 0.85289 0.83603 0.24682
 N38 N 0.82387 0.85753 0.25142
 C39 C 0.82769 0.87733 0.28312
 C40 C 0.86123 0.86799 0.29947
 C41 C 0.87628 0.84136 0.27549
 H42 H 0.80799 0.89799 0.29251
 H43 H 0.90269 0.82755 0.27790
 N44 N 0.74437 0.85403 0.17873
 N45 N 0.74412 0.82760 0.15314
 C46 C 0.71360 0.83146 0.13210
 C47 C 0.69358 0.86174 0.14514
 C48 C 0.71394 0.87519 0.17486
 H49 H 0.70695 0.81412 0.10839
 H50 H 0.70789 0.89961 0.19140
 H51 H 0.81082 0.83779 0.16645
 H52 H 0.79156 0.80562 0.20284
 N53 N 0.83002 1.24408 -0.13406
 N54 N 0.85225 1.24691 -0.16338
 C55 C 0.87177 1.27846 -0.16060
 C56 C 0.86128 1.29635 -0.12759
 C57 C 0.83469 1.27353 -0.11154
 H58 H 0.89256 1.28726 -0.18071
 H59 H 0.82047 1.27729 -0.08492
 Cu60 Cu 0.85539 1.20724 -0.20036
 Cu61 Cu 0.79856 1.20107 -0.12592
 Cu62 Cu 0.78265 1.15078 -0.20714
 N63 N 0.85377 1.16882 -0.23866
 N64 N 0.82526 1.14659 -0.24079
 C65 C 0.83082 1.12244 -0.26902
 C66 C 0.86497 1.12960 -0.28567
 C67 C 0.87862 1.15952 -0.26552
 H68 H 0.81119 1.10131 -0.27652
 H69 H 0.90479 1.17328 -0.26960
 N70 N 0.75063 1.14783 -0.16210
 N71 N 0.75737 1.16612 -0.13085
 C72 C 0.73157 1.15736 -0.10485
 C73 C 0.70739 1.13206 -0.12035
 C74 C 0.72047 1.12671 -0.15677
 H75 H 0.73073 1.16852 -0.07667
 H76 H 0.70914 1.10860 -0.17785
 H77 H 0.81832 1.16213 -0.16529
 H78 H 0.79054 1.20260 -0.18188
 N79 N 0.18717 0.73827 -0.16454
 N80 N 0.16480 0.73720 -0.19340
 C81 C 0.13956 0.71047 -0.18755
 C82 C 0.14644 0.69372 -0.15310
 C83 C 0.17700 0.71216 -0.13938
 H84 H 0.11767 0.70404 -0.20688
 H85 H 0.19040 0.70757 -0.11272
 Cu86 Cu 0.16979 0.77144 -0.23544
 Cu87 Cu 0.22708 0.77419 -0.16126
 Cu88 Cu 0.23005 0.84181 -0.23054
 N89 N 0.16692 0.81368 -0.26943
 N90 N 0.19084 0.84083 -0.26755
 C91 C 0.18213 0.86696 -0.29305
 C92 C 0.15077 0.85584 -0.31215
 C93 C 0.14205 0.82160 -0.29628
 H94 H 0.19727 0.89248 -0.29659
 H95 H 0.11899 0.80399 -0.30297
 N96 N 0.26693 0.83812 -0.19038
 N97 N 0.26532 0.81299 -0.16333
 C98 C 0.29255 0.81951 -0.13866
 C99 C 0.31233 0.85012 -0.15090
 C100 C 0.29533 0.86106 -0.18384
 H101 H 0.29735 0.80348 -0.11340
 H102 H 0.30218 0.88499 -0.20088
 H103 H 0.19807 0.81365 -0.19122
 H104 H 0.23315 0.78563 -0.21788
 C105 C 0.49466 0.99500 0.00209
 C106 C -0.00110 0.50506 0.99493
 C107 C 0.99868 -0.00030 0.50246
 C108 C 0.07826 0.39466 1.08391
 C109 C 0.06708 0.38334 1.12009
 C110 C 0.08568 0.35443 1.13797
 C111 C 0.11591 0.33672 1.12034
 C112 C 0.12725 0.35022 1.08478
 N113 N 0.10829 0.37815 1.06773
 C114 C 0.05803 0.42364 1.06264
 N115 N 0.07529 0.44132 1.03351
 C116 C 0.05818 0.46753 1.01214
 C117 C 0.02120 0.47780 1.01973
 C118 C 0.00266 0.45836 1.04871
 C119 C 0.02081 0.43181 1.07023
 H120 H 0.07607 0.34627 1.16567
 H121 H 0.15053 0.33824 1.06989
 H122 H 0.07336 0.47930 0.98870
 H123 H -0.02629 0.46372 1.05454
 H124 H 0.04434 0.39660 1.13478
 H125 H 0.00525 0.41718 1.09169
 C126 C -0.07387 0.62488 1.07774
 C127 C -0.05749 0.64321 1.10808
 C128 C -0.07584 0.67281 1.12523
 C129 C -0.11044 0.68464 1.11223
 C130 C -0.12571 0.66581 1.08153
 N131 N -0.10727 0.63696 1.06527
 C132 C -0.05544 0.59346 1.05827
 N133 N -0.06443 0.58592 1.02201
 C134 C -0.04831 0.55789 1.00218
 C135 C -0.02175 0.53450 1.01893
 C136 C -0.01157 0.54276 1.05622
 C137 C -0.02872 0.57143 1.07600
 H138 H -0.06265 0.68636 1.14858
 H139 H -0.15210 0.67397 1.07019
 H140 H -0.05602 0.55394 0.97313
 H141 H 0.01028 0.52782 1.07025
 H142 H -0.03046 0.63550 1.11819
 H143 H -0.02090 0.57605 1.10488
 C144 C -0.09032 0.39288 0.92144
 C145 C -0.12303 0.37829 0.93694
 C146 C -0.13922 0.34736 0.92046
 C147 C -0.12300 0.33065 0.88866
 C148 C -0.09070 0.34652 0.87364
 N149 N -0.07531 0.37649 0.89034
 C150 C -0.07003 0.42378 0.93916
 N151 N -0.03359 0.42783 0.93063
 C152 C -0.01229 0.45410 0.94678
 C153 C -0.02733 0.47909 0.97335
 C154 C -0.06505 0.47502 0.98271
 C155 C -0.08645 0.44804 0.96533
 H156 H -0.16420 0.33637 0.93307
 H157 H -0.07701 0.33471 0.84928
 H158 H 0.01677 0.45506 0.93947
 H159 H -0.07809 0.49162 1.00438
 H160 H -0.13556 0.38956 0.96217
 H161 H -0.11537 0.44621 0.97285
 C162 C 0.08419 0.60823 0.90232
 C163 C 0.07016 0.62530 0.86981
 C164 C 0.09061 0.65280 0.85156
 C165 C 0.12496 0.66375 0.86558
 C166 C 0.13799 0.64604 0.89817
 N167 N 0.11754 0.61929 0.91548
 C168 C 0.06312 0.57988 0.92385
 N169 N 0.07144 0.57404 0.96066
 C170 C 0.05259 0.54961 0.98275
 C171 C 0.02334 0.52856 0.96811
 C172 C 0.01422 0.53474 0.93006
 C173 C 0.03432 0.55957 0.90788
 H174 H 0.07902 0.66590 0.82690
 H175 H 0.16433 0.65332 0.91005
 H176 H 0.05990 0.54716 1.01212
 H177 H -0.00920 0.52144 0.91731
 H178 H 0.04328 0.61851 0.85892
 H179 H 0.02689 0.56282 0.87866
 C180 C 1.07494 0.09244 0.39155
 C181 C 1.06333 0.12763 0.37930
 C182 C 1.08202 0.14507 0.34961
 C183 C 1.11224 0.12761 0.33160
 C184 C 1.12327 0.09265 0.34536
 N185 N 1.10453 0.07628 0.37419
 C186 C 1.05527 0.07107 0.42130
 N187 N 1.06218 0.03408 0.42386
 C188 C 1.04518 0.01191 0.44955
 C189 C 1.01956 0.02660 0.47575
 C190 C 1.01140 0.06481 0.47290
 C191 C 1.02951 0.08707 0.44631
 H192 H 1.07205 0.17192 0.34057
 H193 H 1.14639 0.07778 0.33316
 H194 H 1.05156 -0.01745 0.44950
 H195 H 0.99044 0.07769 0.49037
 H196 H 1.03953 0.14140 0.39149
 H197 H 1.02305 0.11634 0.44560
 C198 C 1.09257 -0.08459 0.60464
 C199 C 1.12420 -0.06920 0.62075
 C200 C 1.14359 -0.08907 0.64786
 C201 C 1.13162 -0.12434 0.65971
 C202 C 1.09960 -0.13865 0.64292
 N203 N 1.08119 -0.11867 0.61642
 C204 C 1.07041 -0.06406 0.57641
 N205 N 1.03419 -0.07279 0.57207
 C206 C 1.01182 -0.05408 0.54793
 C207 C 1.02553 -0.02455 0.52575
 C208 C 1.06297 -0.01509 0.53042
 C209 C 1.08542 -0.03510 0.55480
 H210 H 1.16769 -0.07613 0.65964
 H211 H 1.08888 -0.16553 0.65076
 H212 H 0.98300 -0.06171 0.54658
 H213 H 1.07514 0.00853 0.51632
 H214 H 1.13365 -0.04169 0.61346
 H215 H 1.11415 -0.02743 0.55672
 C216 C 0.91245 -0.08015 0.39130
 C217 C 0.87612 -0.07048 0.38196
 C218 C 0.85886 -0.08820 0.35217
 C219 C 0.87746 -0.11591 0.33144
 C220 C 0.91322 -0.12604 0.34314
 N221 N 0.92956 -0.10803 0.37210
 C222 C 0.93294 -0.06010 0.42074
 N223 N 0.96143 -0.07729 0.43854
 C224 C 0.98210 -0.06003 0.46501
 C225 C 0.97455 -0.02292 0.47519
 C226 C 0.94622 -0.00447 0.45553
 C227 C 0.92527 -0.02286 0.42892
 H228 H 0.83106 -0.07966 0.34546
 H229 H 0.92878 -0.14757 0.32895
 H230 H 1.00500 -0.07514 0.47693
 H231 H 0.94046 0.02457 0.46077
 H232 H 0.86100 -0.04941 0.39740
 H233 H 0.90418 -0.00749 0.41411
 C234 C 0.91610 0.07252 0.62401
 C235 C 0.88231 0.05989 0.63885
 C236 C 0.86536 0.07891 0.66846
 C237 C 0.88194 0.11043 0.68414
 C238 C 0.91610 0.12180 0.66878
 N239 N 0.93191 0.10291 0.63965
 C240 C 0.93556 0.05357 0.59237
 N241 N 0.97154 0.06203 0.58516
 C242 C 0.99135 0.04594 0.55682
 C243 C 0.97497 0.01985 0.53272
 C244 C 0.93809 0.00992 0.54083
 C245 C 0.91828 0.02712 0.56971
 H246 H 0.83945 0.06824 0.67913
 H247 H 0.93036 0.14573 0.67950
 H248 H 1.02006 0.05343 0.55307
 H249 H 0.92428 -0.01174 0.52555
 H250 H 0.86898 0.03527 0.62854
 H251 H 0.88976 0.01938 0.57381
 C252 C 0.37628 1.07973 0.07461
 C253 C 0.36832 1.11684 0.06557
 C254 C 0.33932 1.13508 0.08394
 C255 C 0.31820 1.11669 0.11155
 C256 C 0.32766 1.07984 0.12039
 N257 N 0.35599 1.06260 0.10199
 C258 C 0.40638 1.05885 0.05556
 N259 N 0.42161 1.02901 0.07323
 C260 C 0.44945 1.00862 0.05758
 C261 C 0.46435 1.01825 0.02203
 C262 C 0.44702 1.04751 0.00248
 C263 C 0.41866 1.06804 0.01917
 H264 H 0.33374 1.16366 0.07654
 H265 H 0.31240 1.06444 0.14150
 H266 H 0.45938 0.98465 0.07282
 H267 H 0.45563 1.05461 -0.02590
 H268 H 0.38452 1.13199 0.04497
 H269 H 0.40603 1.09021 0.00318
 C270 C 0.61441 1.07979 -0.06703
 C271 C 0.63221 1.10924 -0.04897
 C272 C 0.66231 1.12638 -0.06643
 C273 C 0.67506 1.11428 -0.10179
 C274 C 0.65662 1.08460 -0.11878
 N275 N 0.62737 1.06830 -0.10117
 C276 C 0.58283 1.05994 -0.04954
 N277 N 0.57565 1.02464 -0.06060
 C278 C 0.54759 1.00434 -0.04555
 C279 C 0.52375 1.01960 -0.01798
 C280 C 0.53161 1.05582 -0.00556
 C281 C 0.56036 1.07615 -0.02166
 H282 H 0.67550 1.14904 -0.05205
 H283 H 0.66552 1.07397 -0.14581
 H284 H 0.54416 0.97603 -0.05481
 H285 H 0.51612 1.06846 0.01723
 H286 H 0.62374 1.11862 -0.02132
 H287 H 0.56473 1.10421 -0.01213
 C288 C 0.39743 0.90889 -0.09372
 C289 C 0.39382 0.91281 -0.13293
 C290 C 0.36643 0.89320 -0.15160
 C291 C 0.34290 0.86922 -0.13164
 C292 C 0.34830 0.86492 -0.09282
 N293 N 0.37480 0.88474 -0.07514
 C294 C 0.42437 0.93048 -0.07149
 N295 N 0.42918 0.92133 -0.03468
 C296 C 0.45198 0.94043 -0.01170
 C297 C 0.47253 0.97081 -0.02541
 C298 C 0.46674 0.98150 -0.06310
 C299 C 0.44324 0.96138 -0.08615
 H300 H 0.36378 0.89681 -0.18171
 H301 H 0.33085 0.84673 -0.07626
 H302 H 0.45361 0.93225 0.01757
 H303 H 0.47932 1.00623 -0.07469
 H304 H 0.41168 0.93061 -0.14939
 H305 H 0.43917 0.97114 -0.11457
 C306 C 0.60024 0.91453 0.09446
 C307 C 0.60941 0.92305 0.13178
 C308 C 0.63934 0.90525 0.14858
 C309 C 0.66002 0.87867 0.12860
 C310 C 0.64891 0.86975 0.09199
 N311 N 0.61994 0.88780 0.07606
 C312 C 0.57066 0.93437 0.07390
 N313 N 0.55723 0.91895 0.04197
 C314 C 0.53195 0.93632 0.01998
 C315 C 0.51823 0.97179 0.02959
 C316 C 0.53289 0.98852 0.06195
 C317 C 0.55846 0.96992 0.08427
 H318 H 0.64627 0.91245 0.17718
 H319 H 0.66381 0.84937 0.07548
 H320 H 0.52398 0.92289 -0.00582
 H321 H 0.52530 1.01665 0.06939
 H322 H 0.59384 0.94315 0.14802
 H323 H 0.56968 0.98422 0.10825
   
