data_POSCAR
  _audit_creation_date              2014-09-24
  _audit_creation_method            'ToBaCCo'
  _symmetry_space_group_name_H-M    'P1'
  _symmetry_Int_Tables_number       1
  _symmetry_cell_setting            triclinic
  loop_
  _symmetry_equiv_pos_as_xyz
 x,y,z
_cell_length_a 37.6247
_cell_length_b 38.8690
_cell_length_c 37.8666
_cell_angle_alpha 88.820900
_cell_angle_beta 92.523900
_cell_angle_gamma 88.293000
loop_
  _atom_site_label
  _atom_site_type_symbol
  _atom_site_fract_x
  _atom_site_fract_y
  _atom_site_fract_z
C1 C 0.12968 0.15889 0.18779
 C2 C 0.13374 0.18622 0.16390
 C3 C 0.16190 0.18603 0.14174
 C4 C 0.18632 0.15781 0.14297
 C5 C 0.18228 0.13083 0.16663
 C6 C 0.15376 0.13150 0.18939
 C7 C 0.10670 0.15440 0.21451
 N8 N 0.11613 0.12485 0.23309
 C9 C 0.14496 0.11063 0.21729
 C10 C 0.21057 0.10804 0.16325
 N11 N 0.23197 0.12010 0.13781
 C12 C 0.21695 0.15081 0.12553
 C13 C 0.16024 0.21726 0.12353
 N14 N 0.13175 0.23622 0.13428
 C15 C 0.11542 0.21703 0.15883
 H16 H 0.08608 0.17293 0.22081
 H17 H 0.15959 0.08731 0.22555
 H18 H 0.21457 0.08428 0.17840
 H19 H 0.22761 0.16789 0.10606
 H20 H 0.17926 0.22590 0.10492
 H21 H 0.09195 0.22479 0.17249
 C22 C -0.11364 0.83884 0.17445
 C23 C -0.11362 0.81605 0.14638
 C24 C -0.14102 0.81741 0.12068
 C25 C -0.16891 0.84234 0.12279
 C26 C -0.16833 0.86501 0.15038
 C27 C -0.14076 0.86304 0.17643
 C28 C -0.09270 0.84047 0.20501
 N29 N -0.10670 0.86502 0.22609
 C30 C -0.13608 0.87910 0.20814
 C31 C -0.19923 0.88458 0.14781
 N32 N -0.21947 0.87480 0.11920
 C33 C -0.20078 0.84871 0.10381
 C34 C -0.13513 0.78988 0.09887
 N35 N -0.10492 0.77221 0.11084
 C36 C -0.09189 0.78823 0.13995
 H37 H -0.07035 0.82316 0.21189
 H38 H -0.15381 0.89905 0.21724
 H39 H -0.20666 0.90335 0.16701
 H40 H -0.20938 0.83477 0.08073
 H41 H -0.15208 0.78288 0.07649
 H42 H -0.06920 0.77932 0.15658
 C43 C -0.13020 0.16256 -0.18502
 C44 C -0.13415 0.18761 -0.15931
 C45 C -0.16139 0.18577 -0.13611
 C46 C -0.18534 0.15876 -0.13852
 C47 C -0.18140 0.13415 -0.16385
 C48 C -0.15357 0.13605 -0.18721
 C49 C -0.10773 0.15935 -0.21254
 N50 N -0.11682 0.13138 -0.23185
 C51 C -0.14504 0.11713 -0.21601
 C52 C -0.20975 0.11280 -0.16206
 N53 N -0.23143 0.12370 -0.13625
 C54 C -0.21615 0.15195 -0.12173
 C55 C -0.16011 0.21482 -0.11591
 N56 N -0.13286 0.23440 -0.12643
 C57 C -0.11701 0.21769 -0.15310
 H58 H -0.08696 0.17702 -0.21805
 H59 H -0.15983 0.09535 -0.22496
 H60 H -0.21446 0.09184 -0.17978
 H61 H -0.22652 0.16742 -0.10095
 H62 H -0.17826 0.22129 -0.09553
 H63 H -0.09559 0.22723 -0.16831
 C64 C 0.10222 0.86205 -0.14895
 C65 C 0.10482 0.83647 -0.12230
 C66 C 0.13402 0.83469 -0.09882
 C67 C 0.16084 0.85880 -0.10147
 C68 C 0.15829 0.88399 -0.12770
 C69 C 0.12884 0.88546 -0.15181
 C70 C 0.08122 0.86466 -0.17954
 N71 N 0.09462 0.88870 -0.20163
 C72 C 0.12356 0.90186 -0.18419
 C73 C 0.19061 0.89965 -0.12790
 N74 N 0.21315 0.88469 -0.10237
 C75 C 0.19458 0.85963 -0.08616
 C76 C 0.13352 0.80333 -0.08131
 N77 N 0.10490 0.78590 -0.09375
 C78 C 0.08705 0.80635 -0.11857
 H79 H 0.06025 0.84723 -0.18630
 H80 H 0.14136 0.92042 -0.19464
 H81 H 0.19729 0.91898 -0.14718
 H82 H 0.20474 0.84164 -0.06581
 H83 H 0.15454 0.79269 -0.06356
 H84 H 0.06423 0.79906 -0.13477
 C85 C 0.12825 1.11819 0.83438
 C86 C 0.15224 1.11370 0.86369
 C87 C 0.15279 1.13778 0.89000
 C88 C 0.12993 1.16678 0.88724
 C89 C 0.10673 1.17161 0.85824
 C90 C 0.10559 1.14682 0.83166
 C91 C 0.12490 1.10113 0.80303
 N92 N 0.10046 1.11832 0.78090
 C93 C 0.08869 1.14646 0.79864
 C94 C 0.09275 1.20472 0.85982
 N95 N 0.10710 1.22026 0.88903
 C96 C 0.12967 1.19661 0.90590
 C97 C 0.18265 1.13098 0.91138
 N98 N 0.20075 1.10357 0.89860
 C99 C 0.18205 1.09256 0.86960
 H100 H 0.13999 1.07803 0.79720
 H101 H 0.07065 1.16664 0.78807
 H102 H 0.07459 1.21659 0.83996
 H103 H 0.14738 1.20119 0.92844
 H104 H 0.19255 1.14731 0.93220
 H105 H 0.19090 1.07255 0.85228
 C106 C 0.86278 0.89002 0.84339
 C107 C 0.83952 0.89145 0.87133
 C108 C 0.84038 0.86526 0.89655
 C109 C 0.86449 0.83736 0.89437
 C110 C 0.88709 0.83565 0.86674
 C111 C 0.88629 0.86232 0.84101
 C112 C 0.86406 0.90917 0.81257
 N113 N 0.88780 0.89400 0.79098
 C114 C 0.90151 0.86522 0.80873
 C115 C 0.90309 0.80327 0.86833
 N116 N 0.89075 0.78509 0.89634
 C117 C 0.86721 0.80633 0.91237
 C118 C 0.81089 0.86970 0.91627
 N119 N 0.79179 0.89791 0.90366
 C120 C 0.80956 0.91160 0.87639
 H121 H 0.84687 0.93134 0.80601
 H122 H 0.92023 0.84651 0.79895
 H123 H 0.92150 0.79379 0.84944
 H124 H 0.85072 0.79928 0.93387
 H125 H 0.80226 0.85154 0.93591
 H126 H 0.80033 0.93321 0.85965
 C127 C 0.16860 0.85710 1.19010
 C128 C 0.19513 0.85527 1.16543
 C129 C 0.19612 0.82870 1.14185
 C130 C 0.16999 0.80362 1.14246
 C131 C 0.14359 0.80556 1.16671
 C132 C 0.14309 0.83248 1.19104
 C133 C 0.16359 0.87859 1.21781
 N134 N 0.13560 0.86781 1.23643
 C135 C 0.12283 0.83950 1.21971
 C136 C 0.12281 0.77732 1.16188
 N137 N 0.13582 0.75803 1.13535
 C138 C 0.16488 0.77418 1.12356
 C139 C 0.22618 0.83266 1.12267
 N140 N 0.24331 0.86099 1.13425
 C141 C 0.22417 0.87492 1.16030
 H142 H 0.18091 0.89936 1.22454
 H143 H 0.10094 0.82423 1.22775
 H144 H 0.09987 0.77161 1.17691
 H145 H 0.18189 0.76514 1.10323
 H146 H 0.23543 0.81547 1.10268
 H147 H 0.23080 0.89772 1.17480
 C148 C 0.82899 1.15787 1.19080
 C149 C 0.80276 1.15674 1.16328
 C150 C 0.80275 1.18043 1.13568
 C151 C 0.82830 1.20578 1.13525
 C152 C 0.85381 1.20741 1.16245
 C153 C 0.85431 1.18291 1.19044
 C154 C 0.83542 1.13823 1.22113
 N155 N 0.86432 1.15027 1.23966
 C156 C 0.87570 1.17791 1.22070
 C157 C 0.87331 1.23627 1.15576
 N158 N 0.85999 1.25204 1.12525
 C159 C 0.83261 1.23312 1.11260
 C160 C 0.77362 1.17480 1.11377
 N161 N 0.75531 1.14839 1.12743
 C162 C 0.77321 1.13700 1.15771
 H163 H 0.81985 1.11651 1.22836
 H164 H 0.89776 1.19388 1.22793
 H165 H 0.89463 1.24571 1.17268
 H166 H 0.81650 1.23882 1.08872
 H167 H 0.76618 1.18943 1.08984
 H168 H 0.76463 1.11691 1.17531
 N169 N 0.53244 1.06302 0.95308
 N170 N 0.56041 1.08267 0.95436
 N171 N 0.45909 1.04178 0.92238
 N172 N 0.42917 1.04364 0.90295
 N173 N 0.45722 1.06206 0.94959
 N174 N 0.42553 1.07770 0.94960
 N175 N 0.53388 1.04199 0.92646
 N176 N 0.56307 1.04674 0.90902
 C177 C 0.57922 1.07242 0.92662
 C178 C 0.40860 1.06632 0.91996
 N179 N 0.46230 0.94177 0.93789
 N180 N 0.43244 0.92495 0.93552
 N181 N 0.53600 0.96855 0.91901
 N182 N 0.56611 0.97069 0.90270
 N183 N 0.53743 0.94234 0.94152
 N184 N 0.56887 0.92629 0.94134
 N185 N 0.46097 0.96825 0.91571
 N186 N 0.42996 0.96999 0.89779
 Mn187 Mn 0.49752 1.00516 0.92044
 C188 C 0.41263 0.94249 0.91015
 C189 C 0.58622 0.94400 0.91659
 N190 N 0.45798 1.05405 1.02505
 N191 N 0.42958 1.07408 1.02822
 N192 N 0.53363 1.02795 1.05084
 N193 N 0.56206 1.02866 1.07250
 N194 N 0.53254 1.05447 1.02874
 N195 N 0.56006 1.07407 1.03497
 N196 N 0.45817 1.02781 1.04746
 N197 N 0.42941 1.02944 1.06652
 Mn198 Mn 0.49504 1.05880 0.98911
 C199 C 0.41190 1.05869 1.05413
 C200 C 0.57818 1.05773 1.06243
 N201 N 0.53689 0.93314 1.01682
 N202 N 0.56620 0.91369 1.01785
 N203 N 0.46168 0.95381 1.04040
 N204 N 0.43411 0.94791 1.05973
 N205 N 0.46213 0.93308 1.01346
 N206 N 0.43473 0.91258 1.01372
 N207 N 0.53698 0.95425 1.04346
 N208 N 0.56683 0.94982 1.06312
 Mn209 Mn 0.49967 0.93718 0.97730
 Mn210 Mn 0.49761 0.99087 1.04611
 Cl211 Cl 0.49744 0.99801 0.98333
 C212 C 0.58463 0.92410 1.04688
 C213 C 0.41757 0.92206 1.04286
 N214 N 0.05307 0.46637 0.04122
 N215 N 0.05754 0.43834 0.06144
 N216 N 0.07383 0.53840 0.01388
 N217 N 0.09414 0.56553 0.01588
 N218 N 0.05074 0.53898 0.03887
 N219 N 0.05477 0.56635 0.05855
 N220 N 0.07545 0.46575 0.01558
 N221 N 0.09563 0.43736 0.01765
 C222 C 0.08439 0.42061 0.04657
 C223 C 0.08203 0.58268 0.04398
 N224 N 0.04115 0.53866 -0.08573
 N225 N 0.03878 0.56857 -0.10296
 N226 N 0.06922 0.46512 -0.06052
 N227 N 0.08714 0.43537 -0.06182
 N228 N 0.04326 0.46663 -0.08487
 N229 N 0.04322 0.43855 -0.10365
 N230 N 0.06767 0.53826 -0.06193
 N231 N 0.08359 0.56804 -0.06218
 Mn232 Mn 0.07206 0.50177 -0.02333
 C233 C 0.06567 0.58649 -0.08824
 C234 C 0.07081 0.41936 -0.08933
 N235 N -0.02589 0.53943 0.04083
 N236 N -0.02798 0.56837 0.05854
 N237 N -0.04958 0.46566 0.01989
 N238 N -0.06879 0.43826 0.02521
 N239 N -0.02310 0.46650 0.04362
 N240 N -0.02336 0.43960 0.06541
 N241 N -0.05282 0.53792 0.01769
 N242 N -0.07406 0.56533 0.01936
 Mn243 Mn 0.01372 0.50293 0.04163
 C244 C -0.05846 0.58405 0.04500
 C245 C -0.05208 0.42227 0.05378
 N246 N -0.03255 0.46593 -0.08191
 N247 N -0.03372 0.43721 -0.09976
 N248 N -0.05788 0.53855 -0.05808
 N249 N -0.07544 0.56857 -0.05821
 N250 N -0.03525 0.53816 -0.08352
 N251 N -0.03736 0.56736 -0.10184
 N252 N -0.05529 0.46544 -0.05657
 N253 N -0.07263 0.43636 -0.05674
 Mn254 Mn 0.00410 0.50241 -0.08436
 Mn255 Mn -0.05440 0.50177 -0.01931
 Cl256 Cl 0.00889 0.50221 -0.02126
 C257 C -0.05906 0.41916 -0.08408
 C258 C -0.06269 0.58603 -0.08607
 N259 N 0.93880 0.02452 0.53992
 N260 N 0.92044 0.02664 0.56856
 N261 N 0.95977 0.04676 0.46481
 N262 N 0.95477 0.06687 0.43640
 N263 N 0.93528 0.02342 0.46572
 N264 N 0.91289 0.02715 0.43791
 N265 N 0.96324 0.04793 0.53959
 N266 N 0.96206 0.06660 0.56842
 C267 C 0.93492 0.05303 0.58607
 C268 C 0.92535 0.05445 0.41986
 N269 N 1.06117 0.02018 0.46570
 N270 N 1.08016 0.02107 0.43738
 N271 N 1.03983 0.04617 0.53906
 N272 N 1.04182 0.06426 0.56818
 N273 N 1.06474 0.02170 0.53999
 N274 N 1.08430 0.02271 0.56978
 N275 N 1.03639 0.04472 0.46420
 N276 N 1.03784 0.06292 0.43438
 Mn277 Mn 0.99984 0.04694 0.50187
 C278 C 1.06557 0.04789 0.41809
 C279 C 1.06992 0.04960 0.58698
 N280 N 0.93583 -0.05072 0.46941
 N281 N 0.91544 -0.05178 0.44031
 N282 N 0.96437 -0.07398 0.54418
 N283 N 0.96476 -0.09217 0.57395
 N284 N 0.93979 -0.04929 0.54400
 N285 N 0.92309 -0.04990 0.57404
 N286 N 0.96082 -0.07504 0.46980
 N287 N 0.95818 -0.09313 0.44069
 Mn288 Mn 0.93698 -0.01303 0.50474
 C289 C 0.92942 -0.07854 0.42280
 C290 C 0.93877 -0.07711 0.59229
 N291 N 1.06552 -0.05234 0.54251
 N292 N 1.08465 -0.05170 0.57245
 N293 N 1.03711 -0.07714 0.46977
 N294 N 1.03748 -0.09682 0.44182
 N295 N 1.06139 -0.05369 0.46804
 N296 N 1.07882 -0.05677 0.43864
 N297 N 1.04071 -0.07529 0.54441
 N298 N 1.04220 -0.09046 0.57604
 Mn299 Mn 1.06364 -0.01605 0.50402
 Mn300 Mn 1.00078 -0.07581 0.50705
 Cl301 Cl 1.00029 -0.01444 0.50441
 C302 C 1.07014 -0.07579 0.59302
 C303 C 1.06376 -0.08402 0.42270
 C304 C 1.06999 0.12949 0.27603
 C305 C 1.10113 0.11334 0.26352
 C306 C 1.11701 0.08576 0.28405
 C307 C 1.10349 0.07593 0.31653
 C308 C 1.07320 0.09327 0.32907
 C309 C 1.05634 0.11963 0.30831
 C310 C 1.06052 0.08413 0.36226
 C311 C 1.07794 0.05781 0.38296
 C312 C 1.10768 0.04033 0.36985
 C313 C 1.12034 0.04929 0.33700
 H314 H 1.14067 0.07234 0.27584
 H315 H 1.03273 0.13291 0.31719
 H316 H 1.03738 0.09757 0.37199
 H317 H 1.14353 0.03557 0.32777
 H318 H 1.05567 0.14988 0.26119
 H319 H 1.12145 0.01976 0.38513
 C320 C 0.93779 -0.14144 0.27454
 C321 C 0.90499 -0.12767 0.25996
 C322 C 0.88411 -0.10676 0.28164
 C323 C 0.89514 -0.10039 0.31660
 C324 C 0.92772 -0.11477 0.33074
 C325 C 0.94895 -0.13506 0.30943
 C326 C 0.93859 -0.10836 0.36587
 C327 C 0.91730 -0.08743 0.38676
 C328 C 0.88492 -0.07329 0.37241
 C329 C 0.87386 -0.07982 0.33768
 H330 H 0.85867 -0.09586 0.27215
 H331 H 0.97425 -0.14600 0.31971
 H332 H 0.96382 -0.11905 0.37665
 H333 H 0.84877 -0.06856 0.32724
 H334 H 0.95546 -0.15690 0.25920
 H335 H 0.86816 -0.05699 0.38802
 C336 C 0.92548 0.13918 0.72180
 C337 C 0.89819 0.12064 0.73754
 C338 C 0.88617 0.09101 0.72023
 C339 C 0.89934 0.08132 0.68780
 C340 C 0.92578 0.10073 0.67203
 C341 C 0.93904 0.12930 0.68957
 C342 C 0.93804 0.09141 0.63885
 C343 C 0.92362 0.06315 0.62131
 C344 C 0.89769 0.04383 0.63766
 C345 C 0.88581 0.05270 0.67060
 H346 H 0.86619 0.07521 0.73130
 H347 H 0.95953 0.14441 0.67808
 H348 H 0.95823 0.10631 0.62657
 H349 H 0.86561 0.03742 0.68238
 H350 H 0.93635 0.16179 0.73366
 H351 H 0.88632 0.02178 0.62490
 C352 C 1.05193 -0.11869 0.74927
 C353 C 1.08400 -0.10542 0.76350
 C354 C 1.10574 -0.08756 0.74026
 C355 C 1.09690 -0.08483 0.70398
 C356 C 1.06544 -0.09942 0.69019
 C357 C 1.04289 -0.11578 0.71314
 C358 C 1.05709 -0.09729 0.65369
 C359 C 1.07979 -0.08047 0.63096
 C360 C 1.11091 -0.06589 0.64501
 C361 C 1.11946 -0.06813 0.68118
 H362 H 1.13049 -0.07685 0.74958
 H363 H 1.01836 -0.12666 0.70313
 H364 H 1.03273 -0.10816 0.64314
 H365 H 1.14370 -0.05675 0.69130
 H366 H 1.03342 -0.13137 0.76580
 H367 H 1.12864 -0.05254 0.62802
 C368 C 0.27865 1.07522 1.14504
 C369 C 0.26295 1.10453 1.12694
 C370 C 0.28028 1.11736 1.09725
 C371 C 0.31220 1.10209 1.08651
 C372 C 0.32765 1.07319 1.10523
 C373 C 0.31047 1.05988 1.13433
 C374 C 0.36010 1.05839 1.09463
 C375 C 0.37720 1.07251 1.06564
 C376 C 0.36112 1.10105 1.04708
 C377 C 0.32901 1.11560 1.05730
 H378 H 0.26913 1.13907 1.08183
 H379 H 0.32181 1.03771 1.14910
 H380 H 0.37215 1.03635 1.10910
 H381 H 0.31749 1.13766 1.04249
 H382 H 0.26712 1.06414 1.16808
 H383 H 0.37347 1.11243 1.02453
 C384 C 0.26992 0.87186 0.92902
 C385 C 0.24855 0.89166 0.90398
 C386 C 0.26502 0.91844 0.88533
 C387 C 0.30149 0.92441 0.89078
 C388 C 0.32215 0.90360 0.91527
 C389 C 0.30610 0.87767 0.93441
 C390 C 0.35854 0.90917 0.92057
 C391 C 0.37476 0.93572 0.90210
 C392 C 0.35410 0.95657 0.87787
 C393 C 0.31774 0.95088 0.87214
 H394 H 0.24998 0.93499 0.86653
 H395 H 0.32160 0.86170 0.95357
 H396 H 0.37414 0.89306 0.93954
 H397 H 0.30232 0.96730 0.85332
 H398 H 0.25939 0.85131 0.94456
 H399 H 0.36595 0.97744 0.86361
 C400 C 0.73279 0.91760 1.12551
 C401 C 0.74708 0.88804 1.10923
 C402 C 0.72553 0.87240 1.08293
 C403 C 0.69080 0.88517 1.07415
 C404 C 0.67700 0.91419 1.09144
 C405 C 0.69837 0.93033 1.11681
 C406 C 0.64212 0.92669 1.08299
 C407 C 0.62090 0.91061 1.05716
 C408 C 0.63499 0.88188 1.03993
 C409 C 0.66950 0.86920 1.04841
 H410 H 0.73501 0.84981 1.06964
 H411 H 0.68845 0.95292 1.13001
 H412 H 0.63169 0.94907 1.09620
 H413 H 0.67955 0.84696 1.03474
 H414 H 0.74799 0.93168 1.14488
 H415 H 0.61928 0.86909 1.01977
 C416 C 0.72439 1.07957 0.85599
 C417 C 0.73660 1.10985 0.87216
 C418 C 0.71448 1.12566 0.89683
 C419 C 0.68128 1.11237 0.90427
 C420 C 0.66944 1.08262 0.88716
 C421 C 0.69135 1.06628 0.86334
 C422 C 0.63591 1.06971 0.89419
 C423 C 0.61420 1.08613 0.91842
 C424 C 0.62643 1.11549 0.93561
 C425 C 0.65958 1.12857 0.92852
 H426 H 0.72230 1.14871 0.91014
 H427 H 0.68290 1.04316 0.85026
 H428 H 0.62689 1.04680 0.88108
 H429 H 0.66822 1.15139 0.94201
 H430 H 0.74005 1.06557 0.83756
 H431 H 0.61026 1.12850 0.95452
 C432 C 0.09968 0.29145 0.14459
 C433 C 0.12120 0.27102 0.12320
 C434 C 0.13187 0.28514 0.09091
 C435 C 0.12087 0.31878 0.08012
 C436 C 0.09863 0.33850 0.10162
 C437 C 0.08834 0.32464 0.13382
 C438 C 0.08698 0.37178 0.09062
 C439 C 0.09760 0.38593 0.05852
 C440 C 0.12021 0.36642 0.03752
 C441 C 0.13160 0.33306 0.04812
 H442 H 0.14823 0.26993 0.07392
 H443 H 0.07157 0.33951 0.15080
 H444 H 0.06965 0.38665 0.10708
 H445 H 0.14875 0.31844 0.03130
 H446 H 0.09168 0.28203 0.17000
 H447 H 0.12878 0.37680 0.01266
 C448 C -0.14770 0.28770 -0.09419
 C449 C -0.12365 0.26796 -0.11358
 C450 C -0.09077 0.28211 -0.12135
 C451 C -0.08273 0.31562 -0.11148
 C452 C -0.10721 0.33521 -0.09229
 C453 C -0.13943 0.32083 -0.08341
 C454 C -0.09923 0.36897 -0.08282
 C455 C -0.06752 0.38357 -0.09323
 C456 C -0.04343 0.36386 -0.11236
 C457 C -0.05078 0.33006 -0.12110
 H458 H -0.07135 0.26734 -0.13541
 H459 H -0.15857 0.33548 -0.06877
 H460 H -0.11794 0.38407 -0.06807
 H461 H -0.03168 0.31539 -0.13579
 H462 H -0.17334 0.27802 -0.08788
 H463 H -0.01865 0.37449 -0.12032
 C464 C 0.11248 0.73380 -0.05518
 C465 C 0.09860 0.75002 -0.08658
 C466 C 0.08018 0.73019 -0.11175
 C467 C 0.07644 0.69478 -0.10607
 C468 C 0.09149 0.67870 -0.07490
 C469 C 0.10909 0.69847 -0.04946
 C470 C 0.08865 0.64311 -0.06969
 C471 C 0.07036 0.62348 -0.09495
 C472 C 0.05494 0.63975 -0.12556
 C473 C 0.05819 0.67511 -0.13123
 H474 H 0.06961 0.74187 -0.13633
 H475 H 0.12045 0.68659 -0.02526
 H476 H 0.10010 0.63083 -0.04569
 H477 H 0.04632 0.68707 -0.15521
 H478 H 0.12621 0.74839 -0.03505
 H479 H 0.04044 0.62509 -0.14516
 C480 C -0.05426 0.73099 0.10479
 C481 C -0.09041 0.74032 0.09776
 C482 C -0.11238 0.71706 0.07991
 C483 C -0.09886 0.68454 0.07067
 C484 C -0.06289 0.67501 0.07932
 C485 C -0.04069 0.69867 0.09582
 C486 C -0.04978 0.64194 0.07146
 C487 C -0.07209 0.61848 0.05453
 C488 C -0.10755 0.62849 0.04529
 C489 C -0.12089 0.66113 0.05347
 H490 H -0.14025 0.72366 0.07433
 H491 H -0.01291 0.69207 0.10217
 H492 H -0.02221 0.63464 0.07812
 H493 H -0.14844 0.66800 0.04640
 H494 H -0.03639 0.74860 0.11765
 H495 H -0.12515 0.61089 0.03197
 C496 C 1.06193 0.12716 0.72797
 C497 C 1.09068 0.10975 0.74674
 C498 C 1.10916 0.08334 0.72910
 C499 C 1.09965 0.07510 0.69406
 C500 C 1.07108 0.09311 0.67589
 C501 C 1.05231 0.11892 0.69315
 C502 C 1.06171 0.08497 0.64078
 C503 C 1.08061 0.05896 0.62354
 C504 C 1.10897 0.04112 0.64189
 C505 C 1.11842 0.04912 0.67681
 H506 H 1.13156 0.06938 0.74188
 H507 H 1.03009 0.13281 0.67970
 H508 H 1.03958 0.09874 0.62701
 H509 H 1.14038 0.03490 0.69034
 H510 H 1.04611 0.14696 0.74000
 H511 H 1.12377 0.02081 0.62931
 C512 C 0.87955 -0.06444 0.74199
 C513 C 0.89454 -0.09561 0.75692
 C514 C 0.91607 -0.11605 0.73532
 C515 C 0.92138 -0.10640 0.70006
 C516 C 0.90546 -0.07561 0.68559
 C517 C 0.88490 -0.05470 0.70691
 C518 C 0.91051 -0.06625 0.65011
 C519 C 0.93164 -0.08726 0.62909
 C520 C 0.94747 -0.11775 0.64389
 C521 C 0.94228 -0.12731 0.67894
 H522 H 0.92845 -0.13996 0.74516
 H523 H 0.87280 -0.03076 0.69642
 H524 H 0.89844 -0.04252 0.63907
 H525 H 0.95473 -0.15104 0.68956
 H526 H 0.86366 -0.04703 0.75707
 H527 H 0.96402 -0.13431 0.62833
 C528 C 1.13857 -0.08744 0.28039
 C529 C 1.12434 -0.11832 0.26741
 C530 C 1.09904 -0.13485 0.28794
 C531 C 1.08967 -0.12190 0.32077
 C532 C 1.10532 -0.09176 0.33359
 C533 C 1.12928 -0.07451 0.31295
 C534 C 1.09688 -0.07944 0.36691
 C535 C 1.07280 -0.09685 0.38762
 C536 C 1.05681 -0.12646 0.37436
 C537 C 1.06522 -0.13892 0.34130
 H538 H 1.08713 -0.15836 0.27933
 H539 H 1.14111 -0.05102 0.32210
 H540 H 1.10906 -0.05634 0.37668
 H541 H 1.05273 -0.16198 0.33190
 H542 H 1.15696 -0.07267 0.26569
 H543 H 1.03790 -0.14018 0.38966
 C544 C 0.91060 0.15040 0.28678
 C545 C 0.87919 0.13694 0.27122
 C546 C 0.86373 0.10914 0.28922
 C547 C 0.87893 0.09549 0.32129
 C548 C 0.91015 0.10954 0.33617
 C549 C 0.92576 0.13690 0.31867
 C550 C 0.92523 0.09602 0.36833
 C551 C 0.90945 0.06852 0.38590
 C552 C 0.87848 0.05457 0.37074
 C553 C 0.86332 0.06795 0.33877
 H554 H 0.83967 0.09783 0.27892
 H555 H 0.94985 0.14791 0.32966
 H556 H 0.94922 0.10694 0.37966
 H557 H 0.83937 0.05675 0.32774
 H558 H 0.92415 0.17129 0.27457
 H559 H 0.86587 0.03332 0.38364
 C560 C 0.11623 0.26587 -0.06883
 C561 C 0.10270 0.25415 -0.10181
 C562 C 0.08561 0.27863 -0.12542
 C563 C 0.08317 0.31354 -0.11690
 C564 C 0.09761 0.32469 -0.08417
 C565 C 0.11379 0.30059 -0.06025
 C566 C 0.09506 0.35967 -0.07569
 C567 C 0.07767 0.38345 -0.09940
 C568 C 0.06362 0.37213 -0.13199
 C569 C 0.06648 0.33754 -0.14075
 H570 H 0.07492 0.27118 -0.15097
 H571 H 0.12452 0.30856 -0.03478
 H572 H 0.10548 0.36813 -0.05029
 H573 H 0.05522 0.32951 -0.16598
 H574 H 0.12845 0.24842 -0.04901
 H575 H 0.04992 0.39003 -0.15060
 C576 C -0.15225 0.30353 0.08645
 C577 C -0.12880 0.28400 0.10961
 C578 C -0.09444 0.29624 0.11697
 C579 C -0.08377 0.32721 0.10135
 C580 C -0.10753 0.34608 0.07774
 C581 C -0.14168 0.33402 0.07055
 C582 C -0.09692 0.37687 0.06191
 C583 C -0.06300 0.38948 0.06985
 C584 C -0.03957 0.37070 0.09350
 C585 C -0.04976 0.33973 0.10894
 H586 H -0.07588 0.28160 0.13449
 H587 H -0.16037 0.34831 0.05280
 H588 H -0.11523 0.39125 0.04383
 H589 H -0.03113 0.32569 0.12695
 H590 H -0.17915 0.29559 0.08076
 H591 H -0.01318 0.37983 0.09989
 C592 C -0.11293 0.73658 -0.06259
 C593 C -0.10208 0.75098 -0.09489
 C594 C -0.08472 0.72892 -0.11830
 C595 C -0.07973 0.69364 -0.11042
 C596 C -0.09165 0.67972 -0.07844
 C597 C -0.10779 0.70151 -0.05454
 C598 C -0.08703 0.64430 -0.07084
 C599 C -0.07031 0.62273 -0.09480
 C600 C -0.05838 0.63688 -0.12644
 C601 C -0.06317 0.67197 -0.13426
 H602 H -0.07604 0.73847 -0.14338
 H603 H -0.11657 0.69142 -0.02959
 H604 H -0.09574 0.63371 -0.04607
 H605 H -0.05376 0.68216 -0.15890
 H606 H -0.12511 0.75222 -0.04293
 H607 H -0.04512 0.62080 -0.14516
 C608 C 0.09532 0.70880 0.14070
 C609 C 0.12184 0.72590 0.12254
 C610 C 0.13460 0.71075 0.09175
 C611 C 0.12167 0.67927 0.07983
 C612 C 0.09505 0.66271 0.09837
 C613 C 0.08198 0.67776 0.12866
 C614 C 0.08211 0.63125 0.08646
 C615 C 0.09573 0.61586 0.05639
 C616 C 0.12232 0.63248 0.03819
 C617 C 0.13510 0.66395 0.04973
 H618 H 0.15455 0.72319 0.07677
 H619 H 0.06163 0.66535 0.14329
 H620 H 0.06157 0.61871 0.10074
 H621 H 0.15562 0.67620 0.03521
 H622 H 0.08485 0.71897 0.16457
 H623 H 0.13323 0.62119 0.01496
 C624 C 0.24986 1.09892 0.94405
 C625 C 0.23703 1.09407 0.90910
 C626 C 0.26097 1.08337 0.88377
 C627 C 0.29735 1.07910 0.89276
 C628 C 0.31014 1.08530 0.92767
 C629 C 0.28608 1.09458 0.95328
 C630 C 0.34676 1.08222 0.93627
 C631 C 0.37058 1.07247 0.91052
 C632 C 0.35756 1.06592 0.87607
 C633 C 0.32126 1.06941 0.86718
 H634 H 0.25167 1.07995 0.85664
 H635 H 0.29534 1.09905 0.98026
 H636 H 0.35659 1.08665 0.96308
 H637 H 0.31190 1.06447 0.84034
 H638 H 0.23187 1.10681 0.96411
 H639 H 0.37552 1.05805 0.85595
 C640 C 0.29798 0.89365 1.14494
 C641 C 0.27661 0.87361 1.12243
 C642 C 0.28817 0.86654 1.08835
 C643 C 0.32025 0.87969 1.07690
 C644 C 0.34088 0.90033 1.09970
 C645 C 0.32960 0.90700 1.13365
 C646 C 0.37253 0.91400 1.08829
 C647 C 0.38433 0.90702 1.05447
 C648 C 0.36400 0.88614 1.03201
 C649 C 0.33208 0.87274 1.04305
 H650 H 0.27204 0.85135 1.07056
 H651 H 0.34530 0.92250 1.15156
 H652 H 0.38809 0.92997 1.10587
 H653 H 0.31669 0.85697 1.02516
 H654 H 0.29050 0.89887 1.17158
 H655 H 0.37258 0.88050 1.00578
 C656 C 0.69957 1.15824 1.09103
 C657 C 0.72171 1.13644 1.11321
 C658 C 0.71039 1.10306 1.12124
 C659 C 0.67769 1.09168 1.10715
 C660 C 0.65618 1.11381 1.08448
 C661 C 0.66732 1.14700 1.07668
 C662 C 0.62378 1.10248 1.07001
 C663 C 0.61219 1.06941 1.07820
 C664 C 0.63348 1.04761 1.10103
 C665 C 0.66607 1.05858 1.11525
 H666 H 0.72709 1.08579 1.13805
 H667 H 0.65098 1.16439 1.05962
 H668 H 0.60750 1.11953 1.05251
 H669 H 0.68213 1.04122 1.13259
 H670 H 0.70683 1.18433 1.08497
 H671 H 0.62511 1.02191 1.10756
 C672 C 0.74292 0.89547 0.94537
 C673 C 0.75595 0.90703 0.91302
 C674 C 0.73255 0.92531 0.88885
 C675 C 0.69663 0.93054 0.89605
 C676 C 0.68357 0.91726 0.92782
 C677 C 0.70707 0.90036 0.95260
 C678 C 0.64722 0.92102 0.93415
 C679 C 0.62401 0.93853 0.90938
 C680 C 0.63743 0.95251 0.87838
 C681 C 0.67341 0.94833 0.87163
 H682 H 0.74167 0.93438 0.86374
 H683 H 0.69767 0.89052 0.97737
 H684 H 0.63715 0.91081 0.95849
 H685 H 0.68305 0.95899 0.84731
 H686 H 0.76029 0.88212 0.96499
 H687 H 0.62001 0.96650 0.85920
   
