data_POSCAR
  _audit_creation_date              2014-09-24
  _audit_creation_method            'ToBaCCo'
  _symmetry_space_group_name_H-M    'P1'
  _symmetry_Int_Tables_number       1
  _symmetry_cell_setting            triclinic
  loop_
  _symmetry_equiv_pos_as_xyz
 x,y,z
_cell_length_a 20.9322
_cell_length_b 21.1631
_cell_length_c 23.4140
_cell_angle_alpha 90.035900
_cell_angle_beta 90.026600
_cell_angle_gamma 89.856100
loop_
  _atom_site_label
  _atom_site_type_symbol
  _atom_site_fract_x
  _atom_site_fract_y
  _atom_site_fract_z
C1 C 1.16771 0.25763 0.34337
 H2 H 1.17471 0.20697 0.34309
 C3 C 1.13481 0.28623 0.38859
 H4 H 1.11551 0.25752 0.42271
 C5 C 1.18611 0.35713 0.29988
 H6 H 1.20739 0.38462 0.26603
 C7 C 1.15299 0.38741 0.34355
 H8 H 1.14841 0.43840 0.34232
 N9 N 1.19286 0.29341 0.30057
 C10 C 1.22891 0.17153 0.15602
 H11 H 1.28048 0.17448 0.15459
 C12 C 1.19629 0.13652 0.11516
 H13 H 1.22326 0.11232 0.08225
 C14 C 1.13135 0.20160 0.20004
 H15 H 1.10655 0.22799 0.23281
 C16 C 1.09658 0.16761 0.15944
 H17 H 1.04488 0.16772 0.16131
 Zn18 Zn 1.24519 0.25345 0.24610
 N19 N 1.19623 0.20312 0.19719
 C20 C 1.29915 0.13788 0.28645
 N21 N 1.30183 0.20211 0.28907
 C22 C 1.33771 0.23181 0.32919
 C23 C 1.37245 0.19702 0.36902
 C24 C 1.33228 0.10096 0.32626
 C25 C 1.25610 0.34508 0.15756
 C26 C 1.28819 0.38479 0.11897
 C27 C 1.38633 0.36144 0.16885
 C28 C 1.35291 0.32144 0.20532
 N29 N 1.28889 0.31373 0.19931
 H30 H 1.26868 0.11504 0.25551
 H31 H 1.33712 0.28285 0.33181
 H32 H 1.39955 0.22254 0.40099
 H33 H 1.32761 0.05001 0.32437
 H34 H 1.20523 0.33767 0.15306
 H35 H 1.26189 0.40764 0.08489
 H36 H 1.43754 0.36546 0.17431
 H37 H 1.37881 0.29536 0.23741
 C38 C 1.12928 0.13511 0.11604
 C39 C 1.12750 0.35197 0.38895
 C40 C 1.35444 0.39282 0.12409
 C41 C 1.36847 0.13049 0.36938
 C42 C 0.67438 -0.22882 0.33396
 H43 H 0.67333 -0.27993 0.33444
 C44 C 0.63399 -0.19457 0.36981
 H45 H 0.60207 -0.21995 0.39799
 C46 C 0.71883 -0.13414 0.29761
 H47 H 0.75291 -0.11080 0.27023
 C48 C 0.67950 -0.09789 0.33323
 H49 H 0.68362 -0.04688 0.33281
 N50 N 0.71550 -0.19842 0.29860
 C51 C 0.75268 -0.34425 0.16944
 H52 H 0.80415 -0.34826 0.17190
 C53 C 0.71883 -0.38063 0.12975
 H54 H 0.74436 -0.41263 0.10172
 C55 C 0.65708 -0.29518 0.20092
 H56 H 0.63321 -0.26074 0.22747
 C57 C 0.62171 -0.32941 0.16112
 H58 H 0.57067 -0.32146 0.15816
 Zn59 Zn 0.77001 -0.24983 0.25350
 N60 N 0.72144 -0.30291 0.20437
 C61 C 0.81503 -0.36221 0.30318
 N62 N 0.82126 -0.29837 0.30374
 C63 C 0.85908 -0.26901 0.34296
 C64 C 0.89107 -0.30430 0.38483
 C65 C 0.84632 -0.39905 0.34359
 C66 C 0.78550 -0.16458 0.16719
 C67 C 0.81658 -0.13003 0.12520
 C68 C 0.91772 -0.16735 0.16243
 C69 C 0.88448 -0.20101 0.20425
 N70 N 0.81955 -0.19932 0.20532
 H71 H 0.78353 -0.38479 0.27304
 H72 H 0.86251 -0.21801 0.34295
 H73 H 0.91903 -0.28021 0.41706
 H74 H 0.83894 -0.44969 0.34291
 H75 H 0.73385 -0.16507 0.16872
 H76 H 0.78839 -0.10356 0.09462
 H77 H 0.96935 -0.17021 0.16093
 H78 H 0.91034 -0.23002 0.23445
 C79 C 0.65263 -0.37240 0.12464
 C80 C 0.63671 -0.12823 0.37024
 C81 C 0.88340 -0.13221 0.12173
 C82 C 0.88355 -0.37017 0.38615
 C83 C 0.61867 0.27758 -0.18482
 H84 H 0.59411 0.24102 -0.20842
 C85 C 0.58608 0.31164 -0.14203
 H86 H 0.53613 0.30228 -0.13361
 C87 C 0.71410 0.33383 -0.16571
 H88 H 0.76431 0.34129 -0.17420
 C89 C 0.68345 0.36940 -0.12402
 H90 H 0.71048 0.40490 -0.10113
 N91 N 0.68150 0.28977 -0.19593
 C92 C 0.69815 0.12759 -0.30174
 H93 H 0.73481 0.10583 -0.27585
 C94 C 0.66794 0.09205 -0.34431
 H95 H 0.68093 0.04289 -0.35016
 C96 C 0.64002 0.21909 -0.32878
 H97 H 0.63075 0.26906 -0.32339
 C98 C 0.60912 0.18559 -0.37193
 H99 H 0.57530 0.21007 -0.39912
 Zn100 Zn 0.73338 0.24375 -0.24801
 N101 N 0.68432 0.19014 -0.29538
 C102 C 0.76537 0.15167 -0.16879
 N103 N 0.79155 0.19625 -0.20316
 C104 C 0.85535 0.20893 -0.20151
 C105 C 0.89543 0.17605 -0.16392
 C106 C 0.80349 0.11774 -0.13088
 C107 C 0.76908 0.36160 -0.30260
 C108 C 0.80428 0.39754 -0.34192
 C109 C 0.85997 0.30223 -0.36986
 C110 C 0.82279 0.26835 -0.33139
 N111 N 0.77933 0.29822 -0.29786
 H112 H 0.71441 0.14336 -0.17017
 H113 H 0.87505 0.24608 -0.22769
 H114 H 0.94572 0.18778 -0.16194
 H115 H 0.78127 0.08304 -0.10337
 H116 H 0.73302 0.38427 -0.27660
 H117 H 0.79493 0.44780 -0.34514
 H118 H 0.89454 0.27630 -0.39519
 H119 H 0.82897 0.21774 -0.32773
 C120 C 0.62410 0.12164 -0.38100
 C121 C 0.61873 0.35877 -0.11170
 C122 C 0.85109 0.36800 -0.37625
 C123 C 0.86923 0.13048 -0.12740
 C124 C 1.14922 -0.22959 -0.18386
 H125 H 1.13895 -0.27876 -0.19223
 C126 C 1.11037 -0.19570 -0.14632
 H127 H 1.06955 -0.21854 -0.12689
 C128 C 1.21900 -0.14224 -0.19314
 H129 H 1.26305 -0.12261 -0.20920
 C130 C 1.18290 -0.10751 -0.15435
 H131 H 1.19886 -0.06100 -0.14152
 N132 N 1.20077 -0.20152 -0.20855
 C133 C 1.24518 -0.34761 -0.33874
 H134 H 1.29677 -0.34944 -0.33656
 C135 C 1.21243 -0.38816 -0.37619
 H136 H 1.23880 -0.42113 -0.40262
 C137 C 1.14802 -0.30024 -0.30964
 H138 H 1.12284 -0.26323 -0.28745
 C139 C 1.11363 -0.34073 -0.34460
 H140 H 1.06223 -0.33535 -0.34635
 Zn141 Zn 1.25681 -0.24840 -0.25605
 N142 N 1.21247 -0.30563 -0.30533
 C143 C 1.31218 -0.35510 -0.20315
 N144 N 1.31181 -0.29099 -0.20467
 C145 C 1.34386 -0.25635 -0.16480
 C146 C 1.37664 -0.28636 -0.12015
 C147 C 1.34525 -0.38682 -0.16027
 C148 C 1.27386 -0.13918 -0.32302
 C149 C 1.30421 -0.10111 -0.36325
 C150 C 1.38970 -0.17796 -0.36774
 C151 C 1.35912 -0.21313 -0.32557
 N152 N 1.30221 -0.19333 -0.30420
 H153 H 1.28491 -0.38189 -0.23381
 H154 H 1.34206 -0.20533 -0.16648
 H155 H 1.40094 -0.25841 -0.08809
 H156 H 1.34415 -0.43800 -0.15962
 H157 H 1.22670 -0.12637 -0.30817
 H158 H 1.28086 -0.05850 -0.37827
 H159 H 1.43349 -0.19570 -0.38638
 H160 H 1.37936 -0.25755 -0.31149
 C161 C 1.14557 -0.38540 -0.37864
 C162 C 1.12760 -0.13407 -0.13111
 C163 C 1.36225 -0.12116 -0.38673
 C164 C 1.37699 -0.35246 -0.11744
 C165 C 0.27723 0.17167 0.66116
 H166 H 0.22567 0.17524 0.66198
 C167 C 0.30737 0.13772 0.61779
 H168 H 0.27855 0.11494 0.58538
 C169 C 0.37725 0.19904 0.70175
 H170 H 0.40405 0.22385 0.73422
 C171 C 0.40947 0.16590 0.65880
 H172 H 0.46121 0.16518 0.65866
 N173 N 0.31232 0.20166 0.70175
 C174 C 0.17796 0.23018 0.84051
 H175 H 0.18038 0.28107 0.84438
 C176 C 0.13992 0.19574 0.87796
 H177 H 0.11299 0.22115 0.91017
 C178 C 0.21254 0.13617 0.79499
 H179 H 0.24187 0.11312 0.76322
 C180 C 0.17610 0.09952 0.83257
 H181 H 0.17742 0.04857 0.82874
 Zn182 Zn 0.26709 0.25195 0.75446
 N183 N 0.21290 0.20032 0.79972
 C184 C 0.15302 0.31339 0.71686
 N185 N 0.21756 0.31131 0.71015
 C186 C 0.24622 0.34475 0.66746
 C187 C 0.20957 0.38028 0.62864
 C188 C 0.11488 0.34823 0.67938
 C189 C 0.34108 0.26279 0.85540
 C190 C 0.37739 0.29408 0.89712
 C191 C 0.38268 0.38419 0.83413
 C192 C 0.34597 0.35164 0.79416
 N193 N 0.32475 0.29250 0.80574
 H194 H 0.13018 0.28551 0.74943
 H195 H 0.29733 0.34109 0.66149
 H196 H 0.23302 0.40387 0.59341
 H197 H 0.06350 0.34685 0.68472
 H198 H 0.32396 0.21549 0.86362
 H199 H 0.38739 0.27098 0.93740
 H200 H 0.39720 0.43209 0.82442
 H201 H 0.33285 0.37450 0.75466
 C202 C 0.13949 0.12927 0.87523
 C203 C 0.37433 0.13538 0.61574
 C204 C 0.39723 0.35628 0.88721
 C205 C 0.14269 0.38081 0.63341
 C206 C 0.75173 0.66651 0.66464
 H207 H 0.70011 0.66888 0.66353
 C208 C 0.78440 0.62778 0.62595
 H209 H 0.75774 0.60006 0.59524
 C210 C 0.84945 0.70149 0.70470
 H211 H 0.87492 0.73164 0.73405
 C212 C 0.88387 0.66243 0.66777
 H213 H 0.93556 0.66247 0.66972
 N214 N 0.78452 0.70271 0.70271
 C215 C 0.63633 0.74345 0.82895
 H216 H 0.62493 0.79220 0.81949
 C217 C 0.60220 0.71147 0.87126
 H218 H 0.56377 0.73557 0.89340
 C219 C 0.70262 0.65410 0.81337
 H220 H 0.74243 0.63247 0.79132
 C221 C 0.67239 0.62175 0.85724
 H222 H 0.68885 0.57449 0.86742
 Zn223 Zn 0.73643 0.75886 0.74920
 N224 N 0.68460 0.71393 0.80037
 C225 C 0.62235 0.79845 0.69502
 N226 N 0.68649 0.80763 0.69936
 C227 C 0.71806 0.84657 0.66305
 C228 C 0.68491 0.87854 0.62038
 C229 C 0.58726 0.82969 0.65306
 C230 C 0.82729 0.77638 0.83286
 C231 C 0.86518 0.80833 0.87218
 C232 C 0.82637 0.90723 0.83371
 C233 C 0.78937 0.87320 0.79466
 N234 N 0.79053 0.80890 0.79504
 H235 H 0.59858 0.76472 0.72215
 H236 H 0.76938 0.85131 0.66634
 H237 H 0.71106 0.90866 0.59128
 H238 H 0.53658 0.82100 0.64953
 H239 H 0.82621 0.72529 0.83305
 H240 H 0.89342 0.78134 0.90236
 H241 H 0.82399 0.95837 0.83382
 H242 H 0.75833 0.89819 0.76549
 C243 C 0.62142 0.65034 0.88709
 C244 C 0.85133 0.62567 0.62725
 C245 C 0.86430 0.87455 0.87351
 C246 C 0.61883 0.86936 0.61452
 C247 C 0.79815 0.13063 0.19815
 H248 H 0.76188 0.10871 0.22418
 C249 C 0.83082 0.09441 0.15779
 H250 H 0.81992 0.04462 0.15349
 C251 C 0.85317 0.22299 0.16880
 H252 H 0.86026 0.27344 0.17263
 C253 C 0.88668 0.18875 0.12791
 H254 H 0.92021 0.21315 0.10051
 N255 N 0.80945 0.19378 0.20234
 C256 C 0.63751 0.20605 0.29041
 H257 H 0.61625 0.23997 0.26157
 C258 C 0.59880 0.17253 0.32849
 H259 H 0.54768 0.18061 0.32863
 C260 C 0.73038 0.15695 0.32814
 H261 H 0.78187 0.15231 0.32846
 C262 C 0.69381 0.12229 0.36624
 H263 H 0.71773 0.09064 0.39568
 Zn264 Zn 0.75927 0.24642 0.24838
 N265 N 0.70204 0.19793 0.29147
 C266 C 0.67871 0.27345 0.15844
 N267 N 0.71522 0.30173 0.19904
 C268 C 0.72175 0.36571 0.20123
 C269 C 0.68924 0.40397 0.16206
 C270 C 0.64574 0.30977 0.11852
 C271 C 0.87379 0.28011 0.30768
 C272 C 0.90743 0.30957 0.35195
 C273 C 0.80884 0.35939 0.38184
 C274 C 0.77732 0.32895 0.33748
 N275 N 0.80994 0.29051 0.30137
 H276 H 0.67541 0.22246 0.15715
 H277 H 0.75232 0.38709 0.23296
 H278 H 0.69384 0.45490 0.16423
 H279 H 0.61660 0.28674 0.08651
 H280 H 0.89840 0.24783 0.27942
 H281 H 0.95815 0.30079 0.35676
 H282 H 0.78156 0.38969 0.41009
 H283 H 0.72632 0.33502 0.33221
 C284 C 0.62732 0.13087 0.36762
 C285 C 0.87445 0.12400 0.12121
 C286 C 0.87466 0.34957 0.38984
 C287 C 0.65073 0.37560 0.12048
 C288 C 0.26327 0.62961 0.18886
 H289 H 0.22308 0.60713 0.20937
 C290 C 0.29925 0.59556 0.14814
 H291 H 0.28775 0.54674 0.13892
 C292 C 0.32521 0.72118 0.17260
 H293 H 0.33389 0.77077 0.18052
 C294 C 0.36288 0.68894 0.13322
 H295 H 0.40103 0.71417 0.11199
 N296 N 0.27809 0.69098 0.20149
 C297 C 0.12478 0.72881 0.32879
 H298 H 0.10982 0.77524 0.31478
 C299 C 0.09058 0.69783 0.37243
 H300 H 0.04873 0.71989 0.39098
 C301 C 0.19887 0.64438 0.32359
 H302 H 0.24291 0.62499 0.30704
 C303 C 0.16521 0.61120 0.36506
 H304 H 0.18285 0.56531 0.37786
 Zn305 Zn 0.23255 0.74577 0.25332
 N306 N 0.17768 0.70141 0.30502
 C307 C 0.14036 0.77550 0.17189
 N308 N 0.18579 0.80169 0.20581
 C309 C 0.20334 0.86328 0.19952
 C310 C 0.17590 0.90059 0.15665
 C311 C 0.11222 0.81082 0.12828
 C312 C 0.35450 0.78459 0.30100
 C313 C 0.39299 0.82143 0.33694
 C314 C 0.29776 0.87455 0.37036
 C315 C 0.26157 0.83733 0.33355
 N316 N 0.29000 0.79352 0.29959
 H317 H 0.12814 0.72620 0.17713
 H318 H 0.24098 0.88279 0.22564
 H319 H 0.19177 0.94886 0.15104
 H320 H 0.07743 0.78846 0.10069
 H321 H 0.37636 0.74815 0.27525
 H322 H 0.44405 0.81285 0.33762
 H323 H 0.27296 0.90863 0.39693
 H324 H 0.21028 0.84333 0.33204
 C325 C 0.11068 0.63785 0.39065
 C326 C 0.35075 0.62519 0.12080
 C327 C 0.36464 0.86673 0.37319
 C328 C 0.13101 0.87378 0.11941
 O329 O 1.12436 0.07357 0.03202
 O330 O 0.88455 -0.07384 0.03570
 O331 O 0.92864 0.11927 0.03332
 O332 O 1.07956 -0.11950 0.02975
 O333 O 0.89679 0.03215 0.06705
 O334 O 1.11539 -0.03376 0.06279
 O335 O 0.97361 -0.10749 0.06559
 O336 O 1.03636 0.10948 0.06375
 C337 C 1.09454 0.10273 0.06990
 C338 C 0.91585 -0.10119 0.07360
 C339 C 0.90319 0.08968 0.07310
 C340 C 1.10618 -0.09095 0.06955
 O341 O 1.12432 -0.07036 -0.04922
 O342 O 0.88014 0.07096 -0.04308
 O343 O 1.07468 0.12223 -0.04576
 O344 O 0.92931 -0.12100 -0.04369
 O345 O 0.89392 -0.03404 -0.07507
 O346 O 1.11184 0.03652 -0.07890
 O347 O 1.03567 -0.10836 -0.07797
 O348 O 0.96601 0.10768 -0.07760
 Co349 Co 1.10780 0.00123 -0.00812
 Co350 Co 0.90004 -0.00111 -0.00411
 Co351 Co 1.00154 0.10329 -0.00677
 Co352 Co 1.00420 -0.10292 -0.00647
 O353 O 1.00351 0.00013 -0.00656
 C354 C 1.09350 -0.10074 -0.08560
 C355 C 0.90767 0.09984 -0.08225
 C356 C 1.10604 0.09445 -0.08344
 C357 C 0.89934 -0.09157 -0.08124
 O358 O 1.12722 0.55434 0.53551
 O359 O 0.87543 0.45756 0.57477
 O360 O 0.94390 0.57518 0.59213
 O361 O 1.04440 0.38733 0.58540
 O362 O 0.86580 0.56944 0.53982
 O363 O 1.12310 0.43991 0.54649
 O364 O 0.92851 0.37175 0.55692
 O365 O 1.04971 0.57139 0.59016
 C366 C 1.10714 0.57554 0.58186
 C367 C 0.88588 0.40037 0.58474
 C368 C 0.88765 0.58751 0.58558
 C369 C 1.10100 0.40616 0.58721
 O370 O 1.07812 0.44007 0.42939
 O371 O 0.88859 0.53511 0.43739
 O372 O 1.05633 0.62091 0.48089
 O373 O 0.96481 0.37054 0.44880
 O374 O 0.87650 0.42050 0.46699
 O375 O 1.07501 0.54268 0.42822
 O376 O 1.07874 0.36334 0.48172
 O377 O 0.94121 0.61490 0.47428
 Co378 Co 1.09252 0.49309 0.48777
 Co379 Co 0.88894 0.49483 0.50546
 Co380 Co 0.99697 0.58715 0.53213
 Co381 Co 1.00300 0.38539 0.51757
 O382 O 0.99513 0.49017 0.51105
 C383 C 1.09319 0.38532 0.43495
 C384 C 0.90763 0.59104 0.43412
 C385 C 1.07616 0.59997 0.43416
 C386 C 0.90761 0.38180 0.43739
 O387 O 0.60383 0.03085 0.56180
 O388 O 0.38327 -0.02953 0.55848
 O389 O 0.46505 0.10832 0.56082
 O390 O 0.52666 -0.10924 0.55906
 O391 O 0.37583 0.07774 0.52862
 O392 O 0.61469 -0.07515 0.52755
 O393 O 0.41883 -0.11693 0.52687
 O394 O 0.57185 0.11860 0.52951
 C395 C 0.59711 0.08827 0.56908
 C396 C 0.39111 -0.08695 0.56530
 C397 C 0.40685 0.10392 0.56745
 C398 C 0.58458 -0.10202 0.56616
 O399 O 0.60519 -0.03456 0.41867
 O400 O 0.38850 0.03937 0.41693
 O401 O 0.53211 0.10784 0.41857
 O402 O 0.45765 -0.10729 0.41712
 O403 O 0.37144 -0.06682 0.44830
 O404 O 0.61856 0.07111 0.45186
 O405 O 0.56586 -0.12103 0.44852
 O406 O 0.42520 0.12417 0.45116
 Co407 Co 0.59933 -0.00142 0.48993
 Co408 Co 0.39120 0.00496 0.48796
 Co409 Co 0.49826 0.10355 0.48972
 Co410 Co 0.49271 -0.10234 0.48798
 O411 O 0.49534 0.00103 0.48873
 C412 C 0.59887 -0.09228 0.41261
 C413 C 0.39597 0.09700 0.41187
 C414 C 0.59022 0.09994 0.41307
 C415 C 0.39911 -0.10054 0.41207
 O416 O 0.63161 0.54273 0.06081
 O417 O 0.37288 0.44506 0.03343
 O418 O 0.45142 0.60748 0.08183
 O419 O 0.55739 0.42528 0.08883
 O420 O 0.37311 0.55969 0.03832
 O421 O 0.63342 0.42898 0.03318
 O422 O 0.45060 0.43200 0.08863
 O423 O 0.56794 0.62472 0.05970
 C424 C 0.61602 0.59640 0.07874
 C425 C 0.39301 0.42772 0.08121
 C426 C 0.39388 0.59277 0.07988
 C427 C 0.61355 0.41382 0.08047
 O428 O 0.60352 0.45719 -0.07057
 O429 O 0.42008 0.55665 -0.07634
 O430 O 0.53890 0.63428 -0.04897
 O431 O 0.44127 0.37722 -0.01871
 O432 O 0.42778 0.45300 -0.07461
 O433 O 0.62123 0.57139 -0.04755
 O434 O 0.55625 0.37915 -0.02676
 O435 O 0.42384 0.63496 -0.02411
 Co436 Co 0.61018 0.50118 -0.00469
 Co437 Co 0.40704 0.50435 -0.01712
 Co438 Co 0.49657 0.61334 0.01627
 Co439 Co 0.50201 0.41202 0.03054
 O440 O 0.50486 0.50884 0.00650
 C441 C 0.58799 0.40044 -0.06911
 C442 C 0.40944 0.61270 -0.07111
 C443 C 0.59258 0.61818 -0.06757
 C444 C 0.42584 0.39605 -0.06732
   
