data_POSCAR
  _audit_creation_date              2014-09-24
  _audit_creation_method            'ToBaCCo'
  _symmetry_space_group_name_H-M    'P1'
  _symmetry_Int_Tables_number       1
  _symmetry_cell_setting            triclinic
  loop_
  _symmetry_equiv_pos_as_xyz
 x,y,z
_cell_length_a 26.9263
_cell_length_b 28.1908
_cell_length_c 35.9233
_cell_angle_alpha 90.375600
_cell_angle_beta 89.894000
_cell_angle_gamma 122.941400
loop_
  _atom_site_label
  _atom_site_type_symbol
  _atom_site_fract_x
  _atom_site_fract_y
  _atom_site_fract_z
C1 C -0.05281 0.47927 1.17831
 C2 C 0.00042 0.51924 1.16055
 C3 C 0.05292 0.55478 1.18002
 C4 C 0.05272 0.55290 1.21922
 C5 C 0.00001 0.51312 1.23836
 C6 C -0.05260 0.47534 1.21790
 C7 C -0.10342 0.43550 1.23785
 C8 C -0.10257 0.43198 1.27636
 C9 C -0.05202 0.47002 1.29730
 C10 C 0.00042 0.51027 1.27804
 C11 C 0.10464 0.58809 1.23964
 C12 C 0.10531 0.58480 1.27810
 C13 C 0.05378 0.54659 1.29818
 C14 C 0.05518 0.54081 1.33740
 C15 C 0.00307 0.49939 1.35545
 C16 C -0.05095 0.46639 1.33675
 H17 H -0.14488 0.40586 1.22435
 H18 H -0.14201 0.39769 1.28933
 H19 H 0.14599 0.61792 1.22607
 H20 H 0.14775 0.61168 1.29139
 H21 H 0.00285 0.52120 1.13051
 H22 H 0.00270 0.49687 1.38557
 C23 C 0.46539 0.51238 1.33193
 C24 C 0.48138 0.47989 1.35109
 C25 C 0.50827 0.45514 1.33323
 C26 C 0.51133 0.45657 1.29350
 C27 C 0.49399 0.48892 1.27355
 C28 C 0.47281 0.51839 1.29304
 C29 C 0.45740 0.55128 1.27309
 C30 C 0.46203 0.55486 1.23451
 C31 C 0.48081 0.52453 1.21430
 C32 C 0.49612 0.49056 1.23395
 C33 C 0.52603 0.42321 1.27296
 C34 C 0.52712 0.42404 1.23416
 C35 C 0.51239 0.45739 1.21408
 C36 C 0.51337 0.45843 1.17466
 C37 C 0.49869 0.49260 1.15583
 C38 C 0.48268 0.52575 1.17491
 H39 H 0.44098 0.57417 1.28713
 H40 H 0.44898 0.58040 1.22065
 H41 H 0.53436 0.39406 1.28644
 H42 H 0.53929 0.39776 1.22010
 H43 H 0.47629 0.47727 1.38116
 H44 H 0.49964 0.49335 1.12565
 C45 C 0.39981 0.93357 1.32652
 C46 C 0.42044 0.98194 1.34845
 C47 C 0.44237 1.03540 1.33275
 C48 C 0.44452 1.04000 1.29321
 C49 C 0.42378 0.99098 1.27061
 C50 C 0.40020 0.93747 1.28741
 C51 C 0.37934 0.88943 1.26470
 C52 C 0.38308 0.89390 1.22614
 C53 C 0.40893 0.94672 1.20881
 C54 C 0.42858 0.99569 1.23111
 C55 C 0.47076 1.09274 1.27551
 C56 C 0.47547 1.09734 1.23711
 C57 C 0.45422 1.04949 1.21409
 C58 C 0.46181 1.05440 1.17484
 C59 C 0.44168 1.00514 1.15350
 C60 C 0.41523 0.95191 1.16974
 H61 H 0.36046 0.84786 1.27655
 H62 H 0.36634 0.85550 1.21009
 H63 H 0.49057 1.13202 1.29080
 H64 H 0.49816 1.13966 1.22613
 H65 H 0.41643 0.97658 1.37836
 H66 H 0.44426 1.00761 1.12337
 C67 C 1.05961 0.54288 0.81770
 C68 C 1.00577 0.52389 0.83623
 C69 C 0.95458 0.51137 0.81720
 C70 C 0.95607 0.51723 0.77817
 C71 C 1.00962 0.53685 0.75863
 C72 C 1.06154 0.55005 0.77835
 C73 C 1.11478 0.57364 0.75837
 C74 C 1.11675 0.58165 0.72020
 C75 C 1.06542 0.56580 0.69962
 C76 C 1.01137 0.54403 0.71925
 C77 C 0.90486 0.50281 0.75811
 C78 C 0.90620 0.50845 0.71968
 C79 C 0.95905 0.52971 0.69972
 C80 C 0.96057 0.53576 0.66064
 C81 C 1.01443 0.55880 0.64191
 C82 C 1.06724 0.57415 0.66045
 H83 H 1.15657 0.58844 0.77188
 H84 H 1.15997 0.60202 0.70761
 H85 H 0.86282 0.48633 0.77188
 H86 H 0.86518 0.49612 0.70586
 H87 H 1.00243 0.51687 0.86597
 H88 H 1.01398 0.56200 0.61190
 C89 C 0.50186 0.44765 0.67253
 C90 C 0.47344 0.46954 0.65331
 C91 C 0.44726 0.49414 0.67209
 C92 C 0.44759 0.49568 0.71138
 C93 C 0.47871 0.47644 0.73126
 C94 C 0.50649 0.45291 0.71180
 C95 C 0.53940 0.43662 0.73207
 C96 C 0.54529 0.44365 0.77055
 C97 C 0.51737 0.46604 0.79037
 C98 C 0.48261 0.48133 0.77068
 C99 C 0.41904 0.51736 0.73127
 C100 C 0.42052 0.51964 0.76998
 C101 C 0.45219 0.50200 0.79028
 C102 C 0.45561 0.50599 0.82958
 C103 C 0.49113 0.49175 0.84851
 C104 C 0.52252 0.47266 0.82944
 H105 H 0.56220 0.41954 0.71831
 H106 H 0.57154 0.43077 0.78466
 H107 H 0.39516 0.53284 0.71715
 H108 H 0.39779 0.53678 0.78377
 H109 H 0.46974 0.46576 0.62323
 H110 H 0.49434 0.49543 0.87861
 C111 C 0.56160 0.05665 0.67756
 C112 C 0.52679 0.00703 0.65697
 C113 C 0.49100 -0.04619 0.67391
 C114 C 0.48935 -0.04871 0.71367
 C115 C 0.52467 0.00172 0.73496
 C116 C 0.56120 0.05433 0.71670
 C117 C 0.59538 0.10373 0.73800
 C118 C 0.59445 0.10186 0.77656
 C119 C 0.55962 0.05042 0.79544
 C120 C 0.52400 -0.00029 0.77467
 C121 C 0.45609 -0.10025 0.73292
 C122 C 0.45550 -0.10223 0.77167
 C123 C 0.48812 -0.05280 0.79345
 C124 C 0.48841 -0.05432 0.83325
 C125 C 0.52349 -0.00285 0.85266
 C126 C 0.55842 0.04881 0.83462
 H127 H 0.62300 0.14461 0.72505
 H128 H 0.62126 0.14154 0.79133
 H129 H 0.43088 -0.14034 0.71855
 H130 H 0.42992 -0.14363 0.78401
 H131 H 0.52657 0.01102 0.62702
 H132 H 0.52240 -0.00176 0.88274
 O133 O 0.43739 0.67962 0.97103
 O134 O 0.44300 0.77208 0.99059
 C135 C 0.41384 0.78522 0.96984
 O136 O 0.35782 0.76095 0.97147
 O137 O 0.24937 0.67043 0.97395
 C138 C 0.23820 0.63310 0.94995
 O139 O 0.26346 0.60619 0.95013
 O140 O 0.35336 0.59562 0.96119
 C141 C 0.40718 0.63290 0.95374
 O142 O 0.41511 0.64312 1.04184
 O143 O 0.41911 0.73365 1.06206
 C144 C 0.39694 0.76245 1.06834
 O145 O 0.36096 0.76279 1.04601
 O146 O 0.25778 0.66581 1.04726
 C147 C 0.22609 0.61190 1.04681
 O148 O 0.23223 0.58155 1.02301
 O149 O 0.32175 0.57087 1.03311
 C150 C 0.37188 0.59328 1.04871
 Cr151 Cr 0.42542 0.70580 1.01592
 Cr152 Cr 0.30794 0.71338 1.00947
 Cr153 Cr 0.29462 0.59169 0.99234
 O154 O 0.34287 0.66990 1.00577
 O155 O 0.56576 0.31431 0.96744
 O156 O 0.57160 0.22756 0.98388
 C157 C 0.60389 0.21777 0.96331
 O158 O 0.66028 0.24640 0.96474
 O159 O 0.76341 0.34314 0.96532
 C160 C 0.76685 0.37692 0.94099
 O161 O 0.73732 0.39959 0.94308
 O162 O 0.64370 0.40193 0.95832
 C163 C 0.59110 0.36146 0.95116
 O164 O 0.58904 0.35083 1.03866
 O165 O 0.59433 0.26424 1.05574
 C166 C 0.61935 0.23761 1.05961
 O167 O 0.66035 0.24510 1.03845
 O168 O 0.75744 0.34751 1.03952
 C169 C 0.78503 0.40120 1.03848
 O170 O 0.77440 0.42789 1.01463
 O171 O 0.67949 0.42800 1.02939
 C172 C 0.62995 0.40185 1.04585
 Cr173 Cr 0.58345 0.29090 1.01098
 Cr174 Cr 0.70886 0.29706 1.00199
 Cr175 Cr 0.70712 0.41127 0.98683
 O176 O 0.66602 0.33318 0.99983
 O177 O 0.65421 0.41847 0.51673
 O178 O 0.74852 0.41528 0.52883
 C179 C 0.77316 0.38926 0.53769
 O180 O 0.75717 0.34109 0.52456
 O181 O 0.65512 0.25480 0.54816
 C182 C 0.60086 0.23138 0.55662
 O183 O 0.56494 0.23746 0.53768
 O184 O 0.57866 0.33673 0.53858
 C185 C 0.61121 0.39033 0.53894
 O186 O 0.65704 0.39465 0.44409
 O187 O 0.75282 0.39557 0.45531
 C188 C 0.75327 0.35457 0.44078
 O189 O 0.72485 0.30502 0.45410
 O190 O 0.62536 0.21650 0.47804
 C191 C 0.57898 0.20478 0.46071
 O192 O 0.55709 0.23479 0.46295
 O193 O 0.56559 0.33173 0.46373
 C194 C 0.60130 0.36789 0.44035
 Cr195 Cr 0.70133 0.40294 0.48669
 Cr196 Cr 0.68933 0.28113 0.50104
 Cr197 Cr 0.56981 0.28669 0.50061
 O198 O 0.65349 0.32363 0.49620
 O199 O 0.36977 0.60968 0.54795
 O200 O 0.26789 0.59927 0.54053
 C201 C 0.25965 0.63610 0.55409
 O202 O 0.28761 0.68680 0.54328
 O203 O 0.38554 0.77990 0.52495
 C204 C 0.43439 0.79234 0.53981
 O205 O 0.46034 0.76706 0.53223
 O206 O 0.45820 0.67314 0.52473
 C207 C 0.42554 0.63534 0.54828
 O208 O 0.37166 0.59022 0.47427
 O209 O 0.27264 0.58538 0.46738
 C210 C 0.24556 0.60888 0.45857
 O211 O 0.25898 0.65694 0.47112
 O212 O 0.35700 0.74928 0.45200
 C213 C 0.41072 0.77682 0.44246
 O214 O 0.44942 0.77224 0.45894
 O215 O 0.43899 0.67487 0.45122
 C216 C 0.41000 0.62135 0.44996
 Cr217 Cr 0.32234 0.59930 0.50729
 Cr218 Cr 0.32398 0.71690 0.49787
 Cr219 Cr 0.44846 0.72011 0.49207
 O220 O 0.36462 0.67886 0.49920
 C221 C 0.44149 0.53936 0.35443
 C222 C 0.47516 0.59436 0.36313
 C223 C 0.45921 0.62155 0.39187
 C224 C 0.42186 0.59313 0.41994
 H225 H 0.51739 0.62069 0.34934
 H226 H 0.48261 0.66721 0.39117
 H227 H 0.39894 0.51184 0.36741
 H228 H 0.40017 0.54779 0.42198
 C229 C 0.37850 0.87963 0.34581
 C230 C 0.41468 0.87417 0.36812
 C231 C 0.39272 0.82459 0.39209
 C232 C 0.43046 0.81861 0.41248
 H233 H 0.46086 0.90845 0.37014
 H234 H 0.34538 0.79499 0.39493
 H235 H 0.33276 0.84514 0.34234
 H236 H 0.47771 0.84785 0.40878
 C237 C 0.10642 0.57702 0.35898
 C238 C 0.11857 0.56061 0.39070
 C239 C 0.17208 0.59853 0.41266
 C240 C 0.19409 0.57596 0.43421
 H241 H 0.09114 0.51701 0.39958
 H242 H 0.19360 0.64398 0.41083
 H243 H 0.13882 0.61914 0.34934
 H244 H 0.17389 0.53054 0.43358
 C245 C 0.53060 0.43133 0.35718
 C246 C 0.58048 0.43215 0.35163
 C247 C 0.60705 0.41598 0.38119
 C248 C 0.57512 0.37952 0.40845
 H249 H 0.60722 0.45233 0.32720
 H250 H 0.65452 0.43546 0.38049
 H251 H 0.51151 0.42016 0.38480
 H252 H 0.52732 0.35722 0.40793
 C253 C 0.46136 0.08285 0.35633
 C254 C 0.48444 0.08803 0.39028
 C255 C 0.50914 0.14052 0.41222
 C256 C 0.54966 0.15265 0.43830
 H257 H 0.49110 0.05594 0.40075
 H258 H 0.49649 0.17013 0.40595
 H259 H 0.46102 0.11869 0.34623
 H260 H 0.56385 0.12372 0.44271
 C261 C 0.89900 0.43356 0.35963
 C262 C 0.84703 0.42863 0.35452
 C263 C 0.80210 0.40781 0.38424
 C264 C 0.79068 0.36629 0.40778
 H265 H 0.84141 0.44978 0.33141
 H266 H 0.77853 0.42886 0.38726
 H267 H 0.90624 0.42115 0.38660
 H268 H 0.80994 0.34154 0.40325
 C269 C 0.52765 0.42310 1.15212
 C270 C 0.56577 0.44505 1.12380
 C271 C 0.57597 0.40969 1.09872
 C272 C 0.61975 0.43396 1.07383
 H273 H 0.58921 0.49010 1.11858
 H274 H 0.54708 0.36404 1.10010
 H275 H 0.50603 0.37862 1.15855
 H276 H 0.64958 0.47960 1.07383
 C277 C 0.89672 0.44263 1.15603
 C278 C 0.88887 0.45663 1.12188
 C279 C 0.83961 0.41709 1.09732
 C280 C 0.83310 0.43591 1.06485
 H281 H 0.91827 0.49916 1.11165
 H282 H 0.80913 0.37359 1.10560
 H283 H 0.86246 0.40168 1.16627
 H284 H 0.86304 0.48012 1.05781
 C285 C 0.48792 0.10699 1.15662
 C286 C 0.52292 0.11971 1.12693
 C287 C 0.54981 0.17433 1.10791
 C288 C 0.59801 0.19245 1.08720
 H289 H 0.53439 0.09036 1.11717
 H290 H 0.52828 0.19749 1.10896
 H291 H 0.48304 0.13989 1.16793
 H292 H 0.61914 0.16885 1.08737
 C293 C 0.47005 0.56250 1.15288
 C294 C 0.43313 0.54253 1.12369
 C295 C 0.42445 0.57996 1.09992
 C296 C 0.38006 0.55830 1.07522
 H297 H 0.40935 0.49781 1.11697
 H298 H 0.45498 0.62536 1.10229
 H299 H 0.49161 0.60659 1.16079
 H300 H 0.34831 0.51298 1.07431
 C301 C 0.10749 0.59177 1.15792
 C302 C 0.12043 0.57067 1.12874
 C303 C 0.17027 0.60582 1.10351
 C304 C 0.17856 0.58137 1.07423
 H305 H 0.09233 0.52575 1.12275
 H306 H 0.19914 0.65092 1.10843
 H307 H 0.13622 0.63611 1.16517
 H308 H 0.14931 0.53603 1.07027
 C309 C 0.39035 0.90300 1.14399
 C310 C 0.41260 0.87079 1.14029
 C311 C 0.39119 0.82882 1.10981
 C312 C 0.41531 0.79904 1.10185
 H313 H 0.44818 0.87753 1.15830
 H314 H 0.35599 0.82405 1.09226
 H315 H 0.35718 0.89793 1.12438
 H316 H 0.45031 0.80321 1.11928
 C317 C 0.52269 0.41637 0.65112
 C318 C 0.55011 0.43473 0.61836
 C319 C 0.56433 0.40037 0.59514
 C320 C 0.59832 0.42279 0.56500
 H321 H 0.56135 0.47552 0.60810
 H322 H 0.54621 0.35660 0.60228
 H323 H 0.51398 0.37685 0.66215
 H324 H 0.61798 0.46723 0.55912
 C325 C 0.59742 0.11037 0.65682
 C326 C 0.57120 0.12735 0.63389
 C327 C 0.60473 0.17588 0.60871
 C328 C 0.57535 0.19228 0.58823
 H329 H 0.52321 0.10295 0.63246
 H330 H 0.65187 0.19511 0.60500
 H331 H 0.64512 0.13506 0.65996
 H332 H 0.52822 0.17227 0.59278
 C333 C 0.90630 0.51595 0.63807
 C334 C 0.89328 0.48058 0.60936
 C335 C 0.83993 0.45859 0.58603
 C336 C 0.82442 0.41520 0.56302
 H337 H 0.92250 0.46613 0.60336
 H338 H 0.81362 0.47700 0.58786
 H339 H 0.87624 0.52868 0.64575
 H340 H 0.85035 0.39626 0.56313
 C341 C 0.41950 0.51747 0.64975
 C342 C 0.45046 0.55670 0.62400
 C343 C 0.42233 0.57797 0.60044
 C344 C 0.45386 0.61878 0.57563
 H345 H 0.49687 0.57245 0.61988
 H346 H 0.37486 0.55835 0.60241
 H347 H 0.37370 0.50297 0.65496
 H348 H 0.50136 0.63841 0.57400
 C349 C 0.45694 0.90526 0.65092
 C350 C 0.47380 0.90136 0.61639
 C351 C 0.43828 0.85137 0.59229
 C352 C 0.46532 0.84063 0.56547
 H353 H 0.51690 0.93403 0.60605
 H354 H 0.39108 0.82320 0.59679
 H355 H 0.41684 0.86859 0.66146
 H356 H 0.51318 0.86678 0.56338
 C357 C 0.11967 0.59479 0.63950
 C358 C 0.13094 0.62413 0.60791
 C359 C 0.18491 0.64524 0.58564
 C360 C 0.21299 0.61813 0.58216
 H361 H 0.10200 0.63742 0.59894
 H362 H 0.19802 0.68157 0.56834
 H363 H 0.15366 0.58892 0.64965
 H364 H 0.19686 0.57870 0.59655
 C365 C 0.42095 0.52283 0.85169
 C366 C 0.44629 0.56289 0.87801
 C367 C 0.41114 0.57601 0.90240
 C368 C 0.43817 0.62132 0.92481
 H369 H 0.49380 0.58563 0.88213
 H370 H 0.36341 0.54744 0.90304
 H371 H 0.37398 0.50187 0.84617
 H372 H 0.48581 0.65018 0.92301
 C373 C 0.10972 0.55325 0.83829
 C374 C 0.11966 0.57098 0.87383
 C375 C 0.17311 0.58403 0.89462
 C376 C 0.19084 0.62013 0.92329
 H377 H 0.09030 0.58070 0.88750
 H378 H 0.19671 0.56421 0.88704
 H379 H 0.14359 0.54992 0.82473
 H380 H 0.16718 0.64064 0.92884
 C381 C 0.45290 0.89516 0.85402
 C382 C 0.46674 0.88880 0.88886
 C383 C 0.42762 0.83912 0.91216
 C384 C 0.44853 0.83264 0.94421
 H385 H 0.50923 0.92028 0.90076
 H386 H 0.38259 0.80847 0.90339
 H387 H 0.41319 0.85971 0.84182
 H388 H 0.49461 0.86236 0.95144
 C389 C 0.56143 0.46120 0.85109
 C390 C 0.53990 0.42354 0.87849
 C391 C 0.57884 0.41434 0.90162
 C392 C 0.55577 0.36953 0.92388
 H393 H 0.49275 0.39948 0.88414
 H394 H 0.62621 0.44503 0.90115
 H395 H 0.60790 0.48325 0.84384
 H396 H 0.50852 0.33825 0.92302
 C397 C 0.90023 0.49296 0.83910
 C398 C 0.87912 0.45022 0.86303
 C399 C 0.82826 0.43403 0.88746
 C400 C 0.80958 0.39089 0.91081
 H401 H 0.90114 0.42759 0.86538
 H402 H 0.80891 0.45915 0.88805
 H403 H 0.87749 0.51461 0.83533
 H404 H 0.83048 0.36710 0.90991
 C405 C 0.59281 0.10050 0.85790
 C406 C 0.56720 0.11063 0.88599
 C407 C 0.60093 0.15993 0.91064
 C408 C 0.57306 0.16980 0.93735
 H409 H 0.52021 0.08167 0.89099
 H410 H 0.64838 0.18789 0.90706
 H411 H 0.63923 0.13031 0.85189
 H412 H 0.52539 0.14208 0.93997
   
