data_POSCAR
  _audit_creation_date              2014-09-24
  _audit_creation_method            'ToBaCCo'
  _symmetry_space_group_name_H-M    'P1'
  _symmetry_Int_Tables_number       1
  _symmetry_cell_setting            triclinic
  loop_
  _symmetry_equiv_pos_as_xyz
 x,y,z
_cell_length_a 38.4526
_cell_length_b 37.3579
_cell_length_c 38.7987
_cell_angle_alpha 89.898200
_cell_angle_beta 89.547800
_cell_angle_gamma 89.999800
loop_
  _atom_site_label
  _atom_site_type_symbol
  _atom_site_fract_x
  _atom_site_fract_y
  _atom_site_fract_z
C1 C 0.13498 0.17003 0.21541
 C2 C 0.12893 0.20464 0.20237
 C3 C 0.15246 0.22068 0.17929
 C4 C 0.18214 0.20183 0.16856
 C5 C 0.18820 0.16653 0.17976
 C6 C 0.16452 0.15118 0.20347
 H7 H 0.10647 0.21983 0.21086
 H8 H 0.19946 0.21428 0.14995
 H9 H 0.16909 0.12425 0.21270
 C10 C -0.14845 0.84221 0.18009
 C11 C -0.13977 0.80640 0.17252
 C12 C -0.15578 0.78820 0.14528
 C13 C -0.18186 0.80542 0.12631
 C14 C -0.19158 0.84053 0.13424
 C15 C -0.17430 0.85899 0.16037
 H16 H -0.11892 0.79328 0.18625
 H17 H -0.19518 0.79121 0.10597
 H18 H -0.18266 0.88596 0.16645
 C19 C -0.15794 0.14980 -0.20192
 C20 C -0.18523 0.13221 -0.18440
 C21 C -0.20242 0.14869 -0.15667
 C22 C -0.19312 0.18343 -0.14676
 C23 C -0.16606 0.20149 -0.16378
 C24 C -0.14871 0.18453 -0.19121
 H25 H -0.19242 0.10511 -0.19124
 H26 H -0.20611 0.19578 -0.12493
 H27 H -0.12892 0.19932 -0.20523
 C28 C 0.16553 0.87882 -0.20101
 C29 C 0.15100 0.84830 -0.18473
 C30 C 0.15884 0.83952 -0.15060
 C31 C 0.18245 0.86047 -0.13245
 C32 C 0.19856 0.88991 -0.14820
 C33 C 0.18971 0.89937 -0.18209
 H34 H 0.13403 0.83033 -0.19849
 H35 H 0.18892 0.85331 -0.10618
 H36 H 0.20156 0.92307 -0.19305
 C37 C 0.18029 1.14563 0.76686
 C38 C 0.21376 1.13755 0.77968
 C39 C 0.22609 1.15382 0.80989
 C40 C 0.20589 1.18019 0.82607
 C41 C 0.17303 1.18918 0.81360
 C42 C 0.16001 1.17135 0.78467
 H43 H 0.22931 1.11672 0.76780
 H44 H 0.21558 1.19351 0.84887
 H45 H 0.13482 1.17933 0.77501
 C46 C 0.79840 0.82489 0.78914
 C47 C 0.76813 0.83684 0.80625
 C48 C 0.75130 0.81544 0.83096
 C49 C 0.76527 0.78198 0.83967
 C50 C 0.79684 0.77008 0.82481
 C51 C 0.81249 0.79151 0.79893
 H52 H 0.75622 0.86207 0.79926
 H53 H 0.75275 0.76682 0.86007
 H54 H 0.83616 0.78232 0.78659
 C55 C 0.19055 0.80269 1.24044
 C56 C 0.17279 0.77593 1.22179
 C57 C 0.18791 0.76044 1.19227
 C58 C 0.22032 0.77252 1.18032
 C59 C 0.23790 0.79980 1.19772
 C60 C 0.22331 0.81414 1.22796
 H61 H 0.14803 0.76572 1.23100
 H62 H 0.23160 0.76097 1.15718
 H63 H 0.23705 0.83559 1.24077
 C64 C 0.84693 1.18572 1.21384
 C65 C 0.81192 1.17798 1.20542
 C66 C 0.79346 1.19907 1.18160
 C67 C 0.80996 1.22869 1.16640
 C68 C 0.84438 1.23710 1.17443
 C69 C 0.86274 1.21573 1.19781
 H70 H 0.79909 1.15473 1.21625
 H71 H 0.79625 1.24497 1.14777
 H72 H 0.88893 1.22372 1.20430
 O73 O 0.45248 1.08979 1.08653
 O74 O 0.41286 1.05240 1.06127
 C75 C 0.42083 1.07961 1.08038
 O76 O 0.54177 1.07845 0.96007
 O77 O 0.58232 1.04810 0.99186
 C78 C 0.57357 1.07025 0.96754
 O79 O 0.44472 1.07887 0.96722
 O80 O 0.40900 1.04743 1.00396
 C81 C 0.41418 1.06981 0.97891
 O82 O 0.55089 1.08306 1.08699
 O83 O 0.58636 1.04884 1.05249
 C84 C 0.58142 1.07170 1.07704
 Zr85 Zr 0.50026 1.06707 1.07000
 O86 O 0.50539 1.12338 1.06677
 O87 O 0.49805 1.07040 1.12445
 Zr88 Zr 0.49484 1.06176 0.98324
 O89 O 0.49742 1.11837 0.98145
 O90 O 0.48889 1.05935 0.92910
 O91 O 0.46652 1.07130 1.02813
 O92 O 0.52779 1.07103 1.02437
 O93 O 0.55001 0.96164 1.09288
 O94 O 0.58606 0.99072 1.05457
 C95 C 0.58053 0.96969 1.08061
 O96 O 0.44659 0.94926 0.97734
 O97 O 0.40962 0.98656 1.00721
 C98 C 0.41578 0.95990 0.98670
 O99 O 0.54435 0.95324 0.96679
 O100 O 0.58306 0.98889 0.99525
 C101 C 0.57581 0.96419 0.97313
 O102 O 0.45233 0.95648 1.09509
 O103 O 0.41279 0.98976 1.06486
 C104 C 0.42073 0.96591 1.08774
 Zr105 Zr 0.50015 0.97645 1.07504
 O106 O 0.50496 0.92003 1.07762
 O107 O 0.49863 0.97945 1.12951
 Zr108 Zr 0.49605 0.97122 0.98822
 O109 O 0.50061 0.91481 0.99025
 O110 O 0.48888 0.96876 0.93422
 Zr111 Zr 0.44619 1.01904 1.03231
 Zr112 Zr 0.54925 1.01930 1.02579
 O113 O 0.52828 0.96743 1.03020
 O114 O 0.46714 0.96683 1.03385
 O115 O 0.53128 1.02203 1.07724
 O116 O 0.46510 1.01583 0.98132
 O117 O 0.47032 1.02220 1.08070
 O118 O 0.52594 1.01635 0.97695
 H119 H 0.54377 1.09178 1.02272
 H120 H 0.44845 1.01421 0.96202
 H121 H 0.54420 0.94658 1.03029
 H122 H 0.45546 1.02352 1.10164
 H123 H 0.50663 1.04255 0.92011
 H124 H 0.50868 0.98133 0.92316
 H125 H 0.48407 0.90621 1.00805
 H126 H 0.48429 0.90954 1.06647
 H127 H 0.51804 0.99502 1.13672
 H128 H 0.51731 1.05570 1.13354
 H129 H 0.48717 1.13202 1.05095
 H130 H 0.47618 1.12779 0.99277
 O131 O 0.09314 0.45687 -0.08751
 O132 O 0.05945 0.41585 -0.05857
 C133 C 0.08501 0.42423 -0.07906
 O134 O 0.07547 0.55751 0.03405
 O135 O 0.04452 0.59475 -0.00136
 C136 C 0.06538 0.58914 0.02425
 O137 O 0.08503 0.45687 0.03113
 O138 O 0.05627 0.41619 -0.00262
 C139 C 0.07866 0.42445 0.02077
 O140 O 0.08350 0.55693 -0.09321
 O141 O 0.04851 0.59420 -0.06139
 C142 C 0.07228 0.58848 -0.08456
 Zr143 Zr 0.06927 0.50597 -0.07356
 O144 O 0.12370 0.51367 -0.07067
 O145 O 0.07303 0.50126 -0.12782
 Zr146 Zr 0.06385 0.50626 0.01362
 O147 O 0.11835 0.51381 0.01598
 O148 O 0.06117 0.50229 0.06799
 O149 O 0.07503 0.47481 -0.02939
 O150 O 0.07129 0.53753 -0.02986
 O151 O -0.03780 0.55022 -0.09773
 O152 O -0.00845 0.59107 -0.06469
 C153 C -0.03014 0.58279 -0.08877
 O154 O -0.04145 0.44980 0.02490
 O155 O -0.00455 0.41262 -0.00497
 C156 C -0.03020 0.41821 0.01628
 O157 O -0.04551 0.55085 0.02564
 O158 O -0.01365 0.59097 -0.00647
 C159 C -0.03810 0.58312 0.01530
 O160 O -0.03506 0.44917 -0.09440
 O161 O 0.00020 0.41265 -0.06232
 C162 C -0.02346 0.41791 -0.08529
 Zr163 Zr -0.01844 0.50078 -0.07837
 O164 O -0.07318 0.50113 -0.08347
 O165 O -0.01257 0.49696 -0.13256
 Zr166 Zr -0.02378 0.50120 0.00908
 O167 O -0.07878 0.50120 0.00749
 O168 O -0.02508 0.49816 0.06359
 Zr169 Zr 0.02555 0.45067 -0.03200
 Zr170 Zr 0.01992 0.55649 -0.03277
 O171 O -0.02905 0.53131 -0.03531
 O172 O -0.02624 0.46887 -0.03473
 O173 O 0.02407 0.53518 -0.08292
 O174 O 0.02135 0.47263 0.01776
 O175 O 0.02754 0.47237 -0.08204
 O176 O 0.01782 0.53572 0.01777
 H177 H 0.09051 0.55515 -0.02889
 H178 H 0.02112 0.45627 0.03789
 H179 H -0.05059 0.54576 -0.03679
 H180 H 0.02985 0.45595 -0.10196
 H181 H 0.04344 0.51963 0.07599
 H182 H -0.01648 0.52125 0.07263
 H183 H -0.08583 0.48186 -0.00836
 H184 H -0.08260 0.48359 -0.06673
 H185 H -0.00274 0.51990 -0.14089
 H186 H 0.05734 0.51938 -0.13791
 H187 H 0.13295 0.49515 -0.05497
 H188 H 0.12948 0.49347 0.00389
 O189 O 1.04399 -0.08077 0.54769
 O190 O 1.00540 -0.05365 0.58488
 C191 C 1.03164 -0.07422 0.57832
 O192 O 1.03887 0.04890 0.45650
 O193 O 1.00997 0.01635 0.41550
 C194 C 1.03211 0.04059 0.42479
 O195 O 1.03737 0.04098 0.55261
 O196 O 1.00237 0.00639 0.58724
 C197 C 1.02652 0.03019 0.58267
 O198 O 1.04509 -0.08039 0.45007
 O199 O 1.01254 -0.04684 0.41258
 C200 C 1.03568 -0.07111 0.41918
 Zr201 Zr 1.02589 -0.06287 0.49886
 O202 O 1.08070 -0.05731 0.49719
 O203 O 1.03097 -0.11926 0.50047
 Zr204 Zr 1.01882 0.02715 0.50298
 O205 O 1.07313 0.03590 0.50266
 O206 O 1.01040 0.08284 0.50887
 O207 O 1.02748 -0.01906 0.53188
 O208 O 1.03015 -0.01594 0.47124
 O209 O 0.92774 -0.09018 0.44549
 O210 O 0.95613 -0.05000 0.41050
 C211 C 0.93707 -0.07817 0.41543
 O212 O 0.90654 0.03128 0.54689
 O213 O 0.94186 0.00142 0.58481
 C214 C 0.91560 0.02179 0.57775
 O215 O 0.91445 0.04032 0.45085
 O216 O 0.95139 0.01243 0.41258
 C217 C 0.92566 0.03381 0.41982
 O218 O 0.91910 -0.09201 0.54175
 O219 O 0.94693 -0.05828 0.58252
 C220 C 0.92574 -0.08348 0.57347
 Zr221 Zr 0.93813 -0.06957 0.49499
 O222 O 0.88347 -0.07096 0.48868
 O223 O 0.93929 -0.12617 0.49600
 Zr224 Zr 0.93129 0.02036 0.49898
 O225 O 0.87668 0.01853 0.49310
 O226 O 0.92905 0.07659 0.50543
 Zr227 Zr 0.97581 -0.02402 0.55006
 Zr228 Zr 0.98105 -0.01837 0.44762
 O229 O 0.92990 -0.02359 0.46669
 O230 O 0.92629 -0.02688 0.52736
 O231 O 0.98401 -0.07146 0.46617
 O232 O 0.97306 0.02874 0.53134
 O233 O 0.98103 -0.07440 0.52627
 O234 O 0.97611 0.03256 0.47042
 H235 H 1.05133 -0.01435 0.45661
 H236 H 0.97076 0.04844 0.54829
 H237 H 0.91042 -0.02479 0.45016
 H238 H 0.98200 -0.09641 0.54053
 H239 H 1.00270 0.09235 0.48636
 H240 H 0.94099 0.08761 0.48537
 H241 H 0.86813 -0.00211 0.50672
 H242 H 0.87266 -0.06360 0.51079
 H243 H 0.95905 -0.13382 0.48132
 H244 H 1.01716 -0.12911 0.48129
 H245 H 1.08795 -0.04591 0.51899
 H246 H 1.08385 0.01439 0.51293
 C247 C 1.12577 0.13267 0.26665
 C248 C 1.10399 0.11845 0.29232
 C249 C 1.06780 0.12476 0.29128
 C250 C 1.05420 0.14629 0.26502
 C251 C 1.07627 0.16164 0.24025
 C252 C 1.11239 0.15472 0.24038
 C253 C 1.04598 0.10992 0.31678
 C254 C 1.06022 0.09011 0.34405
 C255 C 1.09669 0.08518 0.34568
 C256 C 1.11819 0.09874 0.31951
 C257 C 1.11120 0.06697 0.37366
 C258 C 1.08984 0.05357 0.39980
 C259 C 1.05364 0.05732 0.39793
 C260 C 1.03878 0.07547 0.37000
 H261 H 1.15353 0.12814 0.26848
 H262 H 1.02652 0.15153 0.26380
 H263 H 1.06467 0.17775 0.22017
 H264 H 1.01813 0.11432 0.31574
 H265 H 1.14607 0.09445 0.32061
 H266 H 1.13907 0.06319 0.37539
 H267 H 1.10152 0.03938 0.42116
 H268 H 1.01082 0.07862 0.36882
 C269 C 0.87673 -0.15748 0.23787
 C270 C 0.88930 -0.13864 0.26635
 C271 C 0.89467 -0.10129 0.26400
 C272 C 0.88702 -0.08334 0.23332
 C273 C 0.87309 -0.10198 0.20557
 C274 C 0.86751 -0.13930 0.20743
 C275 C 0.90665 -0.08231 0.29264
 C276 C 0.91190 -0.10001 0.32402
 C277 C 0.90582 -0.13728 0.32658
 C278 C 0.89523 -0.15647 0.29755
 C279 C 0.90980 -0.15463 0.35833
 C280 C 0.91942 -0.13519 0.38739
 C281 C 0.92588 -0.09827 0.38496
 C282 C 0.92237 -0.08086 0.35312
 H283 H 0.87175 -0.18591 0.24054
 H284 H 0.89113 -0.05474 0.23101
 H285 H 0.86754 -0.08712 0.18227
 H286 H 0.91090 -0.05366 0.29078
 H287 H 0.89065 -0.18506 0.29951
 H288 H 0.90515 -0.18313 0.36078
 H289 H 0.92234 -0.14915 0.41169
 H290 H 0.92713 -0.05231 0.35116
 C291 C 0.84269 0.11020 0.74744
 C292 C 0.86027 0.09562 0.71889
 C293 C 0.89613 0.10262 0.71417
 C294 C 0.91368 0.12432 0.73761
 C295 C 0.89580 0.13984 0.76511
 C296 C 0.86005 0.13319 0.77052
 C297 C 0.91384 0.08844 0.68571
 C298 C 0.89593 0.06838 0.66116
 C299 C 0.85993 0.06176 0.66529
 C300 C 0.84238 0.07502 0.69445
 C301 C 0.84217 0.04242 0.63984
 C302 C 0.86002 0.02983 0.61068
 C303 C 0.89582 0.03598 0.60704
 C304 C 0.91352 0.05531 0.63219
 H305 H 0.81503 0.10536 0.75032
 H306 H 0.94122 0.12970 0.73444
 H307 H 0.91051 0.15615 0.78284
 H308 H 0.94143 0.09362 0.68231
 H309 H 0.81478 0.06995 0.69776
 H310 H 0.81456 0.03718 0.64244
 H311 H 0.84612 0.01479 0.59132
 H312 H 0.94091 0.06086 0.62867
 C313 C 1.12364 -0.12296 0.75127
 C314 C 1.11382 -0.11434 0.71764
 C315 C 1.13600 -0.09351 0.69657
 C316 C 1.16800 -0.08207 0.70955
 C317 C 1.17786 -0.09103 0.74313
 C318 C 1.15591 -0.11178 0.76475
 C319 C 1.12550 -0.08397 0.66318
 C320 C 1.09279 -0.09463 0.65100
 C321 C 1.07083 -0.11586 0.67222
 C322 C 1.08162 -0.12580 0.70519
 C323 C 1.03780 -0.12576 0.66067
 C324 C 1.02589 -0.11340 0.62903
 C325 C 1.04715 -0.09185 0.60810
 C326 C 1.08091 -0.08317 0.61864
 H327 H 1.10490 -0.13703 0.76721
 H328 H 1.18551 -0.06622 0.69370
 H329 H 1.20336 -0.08256 0.75131
 H330 H 1.14234 -0.06759 0.64707
 H331 H 1.06457 -0.14180 0.72146
 H332 H 1.02068 -0.14191 0.67667
 H333 H 0.99961 -0.11979 0.62123
 H334 H 1.09694 -0.06583 0.60267
 C335 C 0.24862 1.16345 1.15827
 C336 C 0.27661 1.14375 1.14463
 C337 C 0.27247 1.10686 1.13782
 C338 C 0.24104 1.08998 1.14622
 C339 C 0.21374 1.10942 1.16092
 C340 C 0.21674 1.14661 1.16664
 C341 C 0.29984 1.08738 1.12289
 C342 C 0.33181 1.10401 1.11587
 C343 C 0.33659 1.14048 1.12422
 C344 C 0.30878 1.16029 1.13801
 C345 C 0.36918 1.15645 1.11871
 C346 C 0.39676 1.13647 1.10506
 C347 C 0.39198 1.10046 1.09580
 C348 C 0.35923 1.08457 1.10097
 H349 H 0.25230 1.19166 1.16360
 H350 H 0.23750 1.06167 1.14131
 H351 H 0.18959 1.09542 1.16598
 H352 H 0.29641 1.05919 1.11712
 H353 H 0.31227 1.18844 1.14387
 H354 H 0.37340 1.18432 1.12514
 H355 H 0.42169 1.14940 1.10110
 H356 H 0.35514 1.05698 1.09369
 C357 C 0.25252 0.89003 0.88660
 C358 C 0.27846 0.90763 0.90508
 C359 C 0.27777 0.94536 0.90793
 C360 C 0.25126 0.96479 0.89169
 C361 C 0.22562 0.94695 0.87292
 C362 C 0.22593 0.90945 0.87056
 C363 C 0.30376 0.96293 0.92662
 C364 C 0.33082 0.94326 0.94167
 C365 C 0.33167 0.90555 0.93826
 C366 C 0.30525 0.88798 0.92040
 C367 C 0.35939 0.88604 0.95213
 C368 C 0.38662 0.90378 0.96839
 C369 C 0.38594 0.94112 0.97194
 C370 C 0.35769 0.96073 0.95916
 H371 H 0.25318 0.86110 0.88433
 H372 H 0.25039 0.99372 0.89345
 H373 H 0.20523 0.96234 0.86077
 H374 H 0.30328 0.99187 0.92893
 H375 H 0.30588 0.85906 0.91786
 H376 H 0.36042 0.85716 0.94971
 H377 H 0.40831 0.88839 0.97814
 H378 H 0.35748 0.98967 0.96143
 C379 C 0.75169 0.87181 1.13752
 C380 C 0.72348 0.88902 1.12223
 C381 C 0.72221 0.89243 1.08596
 C382 C 0.74898 0.87774 1.06562
 C383 C 0.77688 0.86012 1.08116
 C384 C 0.77856 0.85751 1.11718
 C385 C 0.69417 0.91028 1.07072
 C386 C 0.66713 0.92396 1.09133
 C387 C 0.66812 0.91972 1.12756
 C388 C 0.69650 0.90266 1.14278
 C389 C 0.64047 0.93224 1.14798
 C390 C 0.61181 0.94844 1.13264
 C391 C 0.61087 0.95317 1.09680
 C392 C 0.63873 0.94127 1.07626
 H393 H 0.75275 0.86930 1.16535
 H394 H 0.74835 0.87991 1.03778
 H395 H 0.79749 0.84915 1.06518
 H396 H 0.69321 0.91318 1.04292
 H397 H 0.69741 0.89965 1.17058
 H398 H 0.64084 0.92911 1.17575
 H399 H 0.59048 0.95761 1.14877
 H400 H 0.63776 0.94456 1.04850
 C401 C 0.73739 1.14436 0.86670
 C402 C 0.71166 1.12652 0.88580
 C403 C 0.71935 1.09341 0.90181
 C404 C 0.75250 1.07831 0.89760
 C405 C 0.77783 1.09601 0.87797
 C406 C 0.77049 1.12925 0.86275
 C407 C 0.69381 1.07603 0.92170
 C408 C 0.66053 1.09105 0.92519
 C409 C 0.65269 1.12363 0.90827
 C410 C 0.67837 1.14130 0.88900
 C411 C 0.61921 1.13805 0.91084
 C412 C 0.59362 1.12040 0.92995
 C413 C 0.60115 1.08830 0.94736
 C414 C 0.63482 1.07393 0.94509
 H415 H 0.73169 1.16991 0.85467
 H416 H 0.75885 1.05291 0.90953
 H417 H 0.80340 1.08415 0.87519
 H418 H 0.69975 1.05081 0.93426
 H419 H 0.67240 1.16647 0.87637
 H420 H 0.61274 1.16289 0.89793
 H421 H 0.56793 1.13222 0.93143
 H422 H 0.64091 1.04932 0.95842
 C423 C 0.14684 0.26209 0.12922
 C424 C 0.13770 0.29522 0.11499
 C425 C 0.12727 0.32360 0.13682
 C426 C 0.12648 0.31832 0.17263
 C427 C 0.13505 0.28496 0.18656
 C428 C 0.14509 0.25658 0.16496
 C429 C 0.11678 0.35634 0.12245
 C430 C 0.11541 0.36052 0.08653
 C431 C 0.12603 0.33203 0.06482
 C432 C 0.13769 0.29986 0.07919
 C433 C 0.12349 0.33559 0.02901
 C434 C 0.10903 0.36639 0.01482
 C435 C 0.09780 0.39451 0.03612
 C436 C 0.10202 0.39201 0.07191
 H437 H 0.15406 0.24013 0.11238
 H438 H 0.11858 0.33974 0.18978
 H439 H 0.13378 0.28124 0.21423
 H440 H 0.10847 0.37803 0.13915
 H441 H 0.14550 0.27798 0.06249
 H442 H 0.13152 0.31406 0.01203
 H443 H 0.10604 0.36805 -0.01289
 H444 H 0.09296 0.41358 0.08836
 C445 C -0.11913 0.24551 -0.15104
 C446 C -0.10775 0.27927 -0.14049
 C447 C -0.13221 0.30565 -0.13064
 C448 C -0.16785 0.29765 -0.13184
 C449 C -0.17902 0.26383 -0.14258
 C450 C -0.15474 0.23748 -0.15231
 C451 C -0.12059 0.33933 -0.11949
 C452 C -0.08480 0.34669 -0.11789
 C453 C -0.06053 0.32014 -0.12809
 C454 C -0.07215 0.28677 -0.13943
 C455 C -0.02485 0.32708 -0.12621
 C456 C -0.01320 0.35960 -0.11330
 C457 C -0.03688 0.38584 -0.10240
 C458 C -0.07274 0.37973 -0.10542
 H459 H -0.10012 0.22522 -0.15780
 H460 H -0.18704 0.31751 -0.12448
 H461 H -0.20665 0.25839 -0.14366
 H462 H -0.13928 0.35953 -0.11164
 H463 H -0.05345 0.26645 -0.14701
 H464 H -0.00595 0.30712 -0.13409
 H465 H 0.01447 0.36430 -0.11159
 H466 H -0.09103 0.39992 -0.09670
 C467 C 0.14401 0.77446 -0.15050
 C468 C 0.12899 0.74431 -0.13481
 C469 C 0.11198 0.74783 -0.10253
 C470 C 0.11066 0.78132 -0.08633
 C471 C 0.12617 0.81108 -0.10190
 C472 C 0.14277 0.80789 -0.13409
 C473 C 0.09684 0.71779 -0.08682
 C474 C 0.09909 0.68416 -0.10264
 C475 C 0.11650 0.68051 -0.13468
 C476 C 0.13106 0.71069 -0.15074
 C477 C 0.11931 0.64664 -0.14996
 C478 C 0.10517 0.61659 -0.13357
 C479 C 0.08757 0.62003 -0.10188
 C480 C 0.08450 0.65401 -0.08666
 H481 H 0.15717 0.77187 -0.17519
 H482 H 0.09778 0.78447 -0.06158
 H483 H 0.12486 0.83675 -0.08903
 H484 H 0.08366 0.72051 -0.06213
 H485 H 0.14429 0.70796 -0.17539
 H486 H 0.13260 0.64335 -0.17448
 H487 H 0.10770 0.59071 -0.14587
 H488 H 0.07121 0.65696 -0.06208
 C489 C -0.13685 0.74486 0.10038
 C490 C -0.12215 0.71222 0.09043
 C491 C -0.11456 0.68591 0.11553
 C492 C -0.12231 0.69279 0.15029
 C493 C -0.13648 0.72577 0.16008
 C494 C -0.14356 0.75214 0.13520
 C495 C -0.09852 0.65373 0.10551
 C496 C -0.08921 0.64811 0.07086
 C497 C -0.09705 0.67464 0.04596
 C498 C -0.11387 0.70617 0.05582
 C499 C -0.08706 0.66980 0.01158
 C500 C -0.06842 0.63951 0.00201
 C501 C -0.05997 0.61319 0.02645
 C502 C -0.07113 0.61705 0.06076
 H503 H -0.14167 0.76529 0.08110
 H504 H -0.11674 0.67300 0.16994
 H505 H -0.14170 0.73082 0.18711
 H506 H -0.09239 0.63363 0.12474
 H507 H -0.11955 0.72652 0.03667
 H508 H -0.09292 0.68983 -0.00777
 H509 H -0.06036 0.63671 -0.02469
 H510 H -0.06446 0.59682 0.07965
 C511 C 1.13125 0.12122 0.73389
 C512 C 1.11801 0.10431 0.70449
 C513 C 1.14050 0.09552 0.67683
 C514 C 1.17622 0.10218 0.67990
 C515 C 1.18947 0.11774 0.70986
 C516 C 1.16716 0.12831 0.73710
 C517 C 1.12691 0.08002 0.64676
 C518 C 1.09130 0.07182 0.64468
 C519 C 1.06933 0.07870 0.67334
 C520 C 1.08263 0.09556 0.70267
 C521 C 1.03440 0.06821 0.67243
 C522 C 1.02116 0.05141 0.64329
 C523 C 1.04198 0.04631 0.61382
 C524 C 1.07724 0.05645 0.61469
 H525 H 1.11353 0.12734 0.75492
 H526 H 1.19397 0.09533 0.65911
 H527 H 1.21712 0.12308 0.71076
 H528 H 1.14408 0.07393 0.62523
 H529 H 1.06549 0.10149 0.72426
 H530 H 1.01738 0.07264 0.69441
 H531 H 0.99437 0.04280 0.64364
 H532 H 1.09376 0.05171 0.59239
 C533 C 0.83156 -0.17054 0.73466
 C534 C 0.84703 -0.14993 0.70840
 C535 C 0.84657 -0.11220 0.71056
 C536 C 0.82959 -0.09573 0.73838
 C537 C 0.81331 -0.11636 0.76391
 C538 C 0.81436 -0.15415 0.76284
 C539 C 0.86281 -0.09157 0.68475
 C540 C 0.87856 -0.10823 0.65623
 C541 C 0.87776 -0.14599 0.65343
 C542 C 0.86248 -0.16658 0.67974
 C543 C 0.89208 -0.16257 0.62420
 C544 C 0.90711 -0.14200 0.59797
 C545 C 0.90888 -0.10463 0.60092
 C546 C 0.89474 -0.08781 0.63020
 H547 H 0.83156 -0.19941 0.73205
 H548 H 0.82887 -0.06681 0.74042
 H549 H 0.80127 -0.10241 0.78531
 H550 H 0.86283 -0.06260 0.68666
 H551 H 0.86230 -0.19554 0.67773
 H552 H 0.89150 -0.19143 0.62155
 H553 H 0.91802 -0.15534 0.57559
 H554 H 0.89573 -0.05888 0.63230
 C555 C 1.13993 -0.17572 0.27398
 C556 C 1.12617 -0.15768 0.30288
 C557 C 1.14835 -0.14751 0.33004
 C558 C 1.18400 -0.15466 0.32745
 C559 C 1.19775 -0.17095 0.29799
 C560 C 1.17608 -0.18183 0.27071
 C561 C 1.13473 -0.12970 0.35903
 C562 C 1.09939 -0.12039 0.36056
 C563 C 1.07743 -0.12940 0.33278
 C564 C 1.09077 -0.14859 0.30450
 C565 C 1.04253 -0.11863 0.33351
 C566 C 1.02950 -0.09900 0.36135
 C567 C 1.05079 -0.09056 0.38946
 C568 C 1.08573 -0.10165 0.38910
 H569 H 1.12268 -0.18279 0.25311
 H570 H 1.20141 -0.14711 0.34803
 H571 H 1.22545 -0.17608 0.29723
 H572 H 1.15179 -0.12233 0.37999
 H573 H 1.07377 -0.15570 0.28341
 H574 H 1.02534 -0.12516 0.31244
 H575 H 1.00242 -0.09104 0.36124
 H576 H 1.10234 -0.09507 0.41062
 C577 C 0.84850 0.14542 0.26458
 C578 C 0.86714 0.12463 0.28843
 C579 C 0.90359 0.12122 0.28509
 C580 C 0.92081 0.13908 0.25818
 C581 C 0.90227 0.16040 0.23502
 C582 C 0.86571 0.16399 0.23758
 C583 C 0.92228 0.10055 0.30901
 C584 C 0.90507 0.08425 0.33701
 C585 C 0.86861 0.08827 0.34059
 C586 C 0.84988 0.10789 0.31606
 C587 C 0.85148 0.07326 0.36913
 C588 C 0.87030 0.05533 0.39444
 C589 C 0.90651 0.05114 0.39136
 C590 C 0.92372 0.06493 0.36209
 H591 H 0.82075 0.14847 0.26845
 H592 H 0.94875 0.13671 0.25510
 H593 H 0.91680 0.17287 0.21426
 H594 H 0.95025 0.09789 0.30631
 H595 H 0.82193 0.11078 0.31894
 H596 H 0.82359 0.07606 0.37229
 H597 H 0.85646 0.04462 0.41660
 H598 H 0.95161 0.06183 0.35956
 C599 C 0.16762 0.25152 -0.16396
 C600 C 0.14892 0.27859 -0.14700
 C601 C 0.11504 0.27149 -0.13429
 C602 C 0.10013 0.23767 -0.13966
 C603 C 0.11870 0.21108 -0.15727
 C604 C 0.15266 0.21769 -0.16918
 C605 C 0.09657 0.29836 -0.11671
 C606 C 0.11113 0.33257 -0.11269
 C607 C 0.14460 0.33989 -0.12634
 C608 C 0.16350 0.31272 -0.14288
 C609 C 0.15845 0.37447 -0.12362
 C610 C 0.13910 0.40177 -0.10813
 C611 C 0.10590 0.39483 -0.09424
 C612 C 0.09245 0.35985 -0.09592
 H613 H 0.19372 0.25680 -0.17347
 H614 H 0.07412 0.23181 -0.13031
 H615 H 0.10685 0.18509 -0.16101
 H616 H 0.07068 0.29286 -0.10672
 H617 H 0.18931 0.31828 -0.15302
 H618 H 0.18401 0.38055 -0.13401
 H619 H 0.15021 0.42838 -0.10694
 H620 H 0.06713 0.35399 -0.08491
 C621 C -0.12325 0.26639 0.12597
 C622 C -0.10849 0.29690 0.11039
 C623 C -0.10989 0.33021 0.12767
 C624 C -0.12564 0.33231 0.16037
 C625 C -0.14005 0.30178 0.17573
 C626 C -0.13907 0.26879 0.15860
 C627 C -0.09554 0.36084 0.11205
 C628 C -0.07937 0.35856 0.07955
 C629 C -0.07759 0.32517 0.06248
 C630 C -0.09236 0.29464 0.07789
 C631 C -0.06080 0.32281 0.03035
 C632 C -0.04556 0.35310 0.01539
 C633 C -0.04725 0.38649 0.03199
 C634 C -0.06454 0.38906 0.06400
 H635 H -0.12258 0.24083 0.11278
 H636 H -0.12688 0.35756 0.17402
 H637 H -0.15229 0.30391 0.20088
 H638 H -0.09676 0.38637 0.12527
 H639 H -0.09110 0.26909 0.06468
 H640 H -0.05919 0.29746 0.01690
 H641 H -0.03259 0.35044 -0.00936
 H642 H -0.06577 0.41460 0.07718
 C643 C -0.15007 0.73548 -0.16304
 C644 C -0.13354 0.70475 -0.15028
 C645 C -0.15364 0.67545 -0.13862
 C646 C -0.19000 0.67780 -0.13920
 C647 C -0.20634 0.70891 -0.15101
 C648 C -0.18674 0.73825 -0.16348
 C649 C -0.13706 0.64457 -0.12608
 C650 C -0.10061 0.64315 -0.12401
 C651 C -0.08061 0.67301 -0.13476
 C652 C -0.09715 0.70333 -0.14828
 C653 C -0.04436 0.67237 -0.13119
 C654 C -0.02805 0.64267 -0.11661
 C655 C -0.04754 0.61270 -0.10634
 C656 C -0.08381 0.61282 -0.11048
 H657 H -0.13403 0.75800 -0.17074
 H658 H -0.20588 0.65562 -0.13029
 H659 H -0.23448 0.70925 -0.15150
 H660 H -0.15251 0.62198 -0.11731
 H661 H -0.08172 0.72609 -0.15666
 H662 H -0.02870 0.69513 -0.13901
 H663 H -0.00009 0.64306 -0.11331
 H664 H -0.09897 0.58998 -0.10184
 C665 C 0.15150 0.73522 0.14484
 C666 C 0.13749 0.70568 0.12722
 C667 C 0.14349 0.67064 0.13980
 C668 C 0.16290 0.66576 0.16991
 C669 C 0.17653 0.69524 0.18729
 C670 C 0.17108 0.73001 0.17486
 C671 C 0.13029 0.64100 0.12198
 C672 C 0.11100 0.64581 0.09177
 C673 C 0.10458 0.68078 0.07938
 C674 C 0.11790 0.71050 0.09714
 C675 C 0.08501 0.68538 0.04932
 C676 C 0.07214 0.65568 0.03157
 C677 C 0.07867 0.62070 0.04341
 C678 C 0.09812 0.61610 0.07371
 H679 H 0.14756 0.76213 0.13513
 H680 H 0.16782 0.63912 0.17983
 H681 H 0.19193 0.69093 0.21019
 H682 H 0.13515 0.61418 0.13156
 H683 H 0.11314 0.73731 0.08749
 H684 H 0.07972 0.71197 0.03947
 H685 H 0.05724 0.66017 0.00839
 H686 H 0.10325 0.58938 0.08336
 C687 C 0.25978 1.13550 0.86177
 C688 C 0.29061 1.12496 0.87790
 C689 C 0.32143 1.12094 0.85819
 C690 C 0.32060 1.12717 0.82248
 C691 C 0.28958 1.13745 0.80654
 C692 C 0.25901 1.14202 0.82610
 C693 C 0.35240 1.11066 0.87450
 C694 C 0.35271 1.10390 0.91017
 C695 C 0.32163 1.10751 0.92963
 C696 C 0.29091 1.11824 0.91343
 C697 C 0.32161 1.09991 0.96500
 C698 C 0.35195 1.08829 0.98099
 C699 C 0.38304 1.08467 0.96206
 C700 C 0.38338 1.09292 0.92666
 H701 H 0.23617 1.13833 0.87699
 H702 H 0.34392 1.12414 0.80691
 H703 H 0.28959 1.14244 0.77903
 H704 H 0.37609 1.10762 0.85944
 H705 H 0.26716 1.12110 0.92846
 H706 H 0.29800 1.10245 0.98023
 H707 H 0.35110 1.08204 1.00826
 H708 H 0.40714 1.08963 0.91177
 C709 C 0.27309 0.85225 1.17848
 C710 C 0.30295 0.86731 1.16347
 C711 C 0.33114 0.84509 1.15380
 C712 C 0.32864 0.80797 1.15908
 C713 C 0.29836 0.79306 1.17338
 C714 C 0.27043 0.81512 1.18326
 C715 C 0.36096 0.86030 1.13847
 C716 C 0.36240 0.89729 1.13183
 C717 C 0.33379 0.91921 1.14112
 C718 C 0.30459 0.90419 1.15733
 C719 C 0.33447 0.95581 1.13345
 C720 C 0.36295 0.97060 1.11622
 C721 C 0.39165 0.94939 1.10701
 C722 C 0.39154 0.91273 1.11532
 H723 H 0.25140 0.86933 1.18560
 H724 H 0.34990 0.79045 1.15176
 H725 H 0.29678 0.76435 1.17695
 H726 H 0.38265 0.84333 1.13110
 H727 H 0.28279 0.92113 1.16448
 H728 H 0.31274 0.97293 1.14030
 H729 H 0.36268 0.99883 1.11022
 H730 H 0.41348 0.89615 1.10789
 C731 C 0.74937 1.15366 1.16303
 C732 C 0.71629 1.14458 1.15066
 C733 C 0.69055 1.17130 1.14683
 C734 C 0.69844 1.20674 1.15583
 C735 C 0.73164 1.21566 1.16769
 C736 C 0.75750 1.18928 1.17120
 C737 C 0.65775 1.16226 1.13341
 C738 C 0.65070 1.12693 1.12305
 C739 C 0.67669 1.10040 1.12712
 C740 C 0.70899 1.10928 1.14120
 C741 C 0.67041 1.06538 1.11630
 C742 C 0.63916 1.05673 1.10060
 C743 C 0.61309 1.08263 1.09579
 C744 C 0.61861 1.11770 1.10782
 H745 H 0.76922 1.13317 1.16508
 H746 H 0.67913 1.22766 1.15317
 H747 H 0.73718 1.24328 1.17405
 H748 H 0.63809 1.18280 1.13030
 H749 H 0.72879 1.08880 1.14401
 H750 H 0.68996 1.04474 1.11935
 H751 H 0.63543 1.02945 1.09201
 H752 H 0.59870 1.13786 1.10417
 C753 C 0.72121 0.86209 0.86603
 C754 C 0.69177 0.87552 0.88319
 C755 C 0.66014 0.85620 0.88255
 C756 C 0.65893 0.82319 0.86532
 C757 C 0.68870 0.80958 0.84894
 C758 C 0.71990 0.82910 0.84890
 C759 C 0.63049 0.87010 0.89933
 C760 C 0.63241 0.90256 0.91754
 C761 C 0.66450 0.92108 0.91884
 C762 C 0.69370 0.90778 0.90131
 C763 C 0.66714 0.95250 0.93808
 C764 C 0.63838 0.96563 0.95594
 C765 C 0.60586 0.94842 0.95421
 C766 C 0.60304 0.91669 0.93484
 H767 H 0.74540 0.87702 0.86638
 H768 H 0.63503 0.80785 0.86466
 H769 H 0.68728 0.78407 0.83580
 H770 H 0.60614 0.85549 0.89857
 H771 H 0.71810 0.92234 0.90214
 H772 H 0.69161 0.96679 0.93967
 H773 H 0.64177 0.98952 0.97119
 H774 H 0.57834 0.90278 0.93368
   
