data_POSCAR
  _audit_creation_date              2014-09-24
  _audit_creation_method            'ToBaCCo'
  _symmetry_space_group_name_H-M    'P1'
  _symmetry_Int_Tables_number       1
  _symmetry_cell_setting            triclinic
  loop_
  _symmetry_equiv_pos_as_xyz
 x,y,z
_cell_length_a 29.4757
_cell_length_b 29.6330
_cell_length_c 37.0736
_cell_angle_alpha 89.963300
_cell_angle_beta 90.031100
_cell_angle_gamma 89.981300
loop_
  _atom_site_label
  _atom_site_type_symbol
  _atom_site_fract_x
  _atom_site_fract_y
  _atom_site_fract_z
B1 B 0.26611 0.23035 0.21336
 B2 B 0.27392 0.28477 0.22469
 B3 B 0.22135 0.26570 0.21628
 B4 B 0.21738 0.21242 0.23237
 B5 B 0.26879 0.19910 0.25110
 B6 B 0.30380 0.24433 0.24591
 B7 B 0.23264 0.27046 0.28849
 B8 B 0.22508 0.21594 0.27709
 B9 B 0.27753 0.23548 0.28574
 B10 B 0.28150 0.28830 0.26966
 B11 B 0.23048 0.30188 0.25089
 B12 B 0.19512 0.25681 0.25567
 B13 B 0.73226 0.77196 0.21215
 B14 B 0.72457 0.71751 0.22360
 B15 B 0.77707 0.73690 0.21492
 B16 B 0.78117 0.78971 0.23095
 B17 B 0.73018 0.80337 0.24972
 B18 B 0.69477 0.75841 0.24499
 B19 B 0.76574 0.73173 0.28728
 B20 B 0.77360 0.78619 0.27593
 B21 B 0.72106 0.76712 0.28433
 B22 B 0.71697 0.71392 0.26826
 B23 B 0.76830 0.70051 0.24955
 B24 B 0.80342 0.74570 0.25476
 B25 B 0.73503 0.22114 -0.21822
 B26 B 0.71751 0.27403 -0.22665
 B27 B 0.77180 0.26472 -0.21509
 B28 B 0.78826 0.21565 -0.23387
 B29 B 0.74347 0.19469 -0.25770
 B30 B 0.69918 0.23130 -0.25295
 B31 B 0.76768 0.27620 -0.28727
 B32 B 0.78534 0.22334 -0.27876
 B33 B 0.73100 0.23264 -0.29041
 B34 B 0.71444 0.28174 -0.27153
 B35 B 0.75930 0.30268 -0.24779
 B36 B 0.80356 0.26611 -0.25253
 B37 B 0.26433 0.77740 -0.21344
 B38 B 0.28353 0.72518 -0.22200
 B39 B 0.22882 0.73290 -0.21048
 B40 B 0.21070 0.78141 -0.22942
 B41 B 0.25523 0.80364 -0.25277
 B42 B 0.30057 0.76850 -0.24818
 B43 B 0.23376 0.72171 -0.28287
 B44 B 0.21408 0.77387 -0.27413
 B45 B 0.26881 0.76644 -0.28568
 B46 B 0.28687 0.71782 -0.26697
 B47 B 0.24282 0.69552 -0.24308
 B48 B 0.19727 0.73032 -0.24817
 B49 B 1.23397 1.27216 0.71251
 B50 B 1.22408 1.21826 0.72419
 B51 B 1.27744 1.23523 0.71604
 B52 B 1.28324 1.28824 0.73161
 B53 B 1.23241 1.30392 0.74986
 B54 B 1.19538 1.26014 0.74496
 B55 B 1.26520 1.23172 0.78818
 B56 B 1.27499 1.28562 0.77646
 B57 B 1.22162 1.26845 0.78460
 B58 B 1.21593 1.21549 0.76903
 B59 B 1.26670 1.19987 0.75085
 B60 B 1.30376 1.24365 0.75569
 B61 B 0.76594 0.73015 0.71277
 B62 B 0.77345 0.78461 0.72411
 B63 B 0.72100 0.76524 0.71570
 B64 B 0.71732 0.71194 0.73179
 B65 B 0.76881 0.69891 0.75050
 B66 B 0.80356 0.74434 0.74531
 B67 B 0.73225 0.77007 0.78789
 B68 B 0.72502 0.71552 0.77649
 B69 B 0.77734 0.73536 0.78513
 B70 B 0.78100 0.78817 0.76907
 B71 B 0.72992 0.80147 0.75030
 B72 B 0.69481 0.75622 0.75507
 B73 B 1.23496 0.72047 0.28153
 B74 B 1.21702 0.77328 0.27339
 B75 B 1.27133 0.76435 0.28505
 B76 B 1.28828 0.71559 0.26603
 B77 B 1.24377 0.69447 0.24193
 B78 B 1.19917 0.73068 0.24678
 B79 B 1.26745 0.77644 0.21294
 B80 B 1.28550 0.72364 0.22119
 B81 B 1.23113 0.73265 0.20942
 B82 B 1.21409 0.78142 0.22856
 B83 B 1.25866 0.80249 0.25254
 B84 B 1.30325 0.76633 0.24771
 B85 B 0.76936 1.26493 0.21432
 B86 B 0.71505 1.27402 0.22596
 B87 B 0.73284 1.22119 0.21770
 B88 B 0.78609 1.21602 0.23326
 B89 B 0.80130 1.26658 0.25168
 B90 B 0.75686 1.30298 0.24690
 B91 B 0.72906 1.23302 0.28986
 B92 B 0.78334 1.22383 0.27809
 B93 B 0.76563 1.27670 0.28648
 B94 B 0.71222 1.28198 0.27085
 B95 B 0.69707 1.23136 0.25247
 B96 B 0.74149 1.19498 0.25724
 O97 O 0.56551 1.07943 0.06480
 O98 O 0.61568 1.03724 0.03146
 C99 C 0.60606 1.06672 0.05636
 O100 O 0.43459 0.92177 0.06232
 O101 O 0.38416 0.96534 0.03013
 C102 C 0.39392 0.93414 0.05369
 O103 O 0.55992 0.92051 0.06488
 O104 O 0.61284 0.95863 0.03096
 C105 C 0.60128 0.92968 0.05574
 O106 O 0.44117 1.08878 0.06140
 O107 O 0.38764 1.04652 0.03153
 C108 C 0.39965 1.07828 0.05388
 Zr109 Zr 0.50215 1.05819 0.04515
 O110 O 0.49694 1.05237 0.10201
 O111 O 0.50757 1.12897 0.05050
 Zr112 Zr 0.49800 0.94561 0.04472
 O113 O 0.49343 0.94683 0.10173
 O114 O 0.50014 0.87417 0.04484
 O115 O 0.54128 1.00038 0.05193
 O116 O 0.45996 1.00338 0.05161
 O117 O 0.43975 1.08719 -0.06300
 O118 O 0.38681 1.04749 -0.03029
 C119 C 0.39841 1.07799 -0.05386
 O120 O 0.55940 0.92095 -0.06634
 O121 O 0.61261 0.95907 -0.03274
 C122 C 0.60084 0.93009 -0.05741
 O123 O 0.43420 0.92262 -0.06379
 O124 O 0.38415 0.96694 -0.03205
 C125 C 0.39361 0.93551 -0.05544
 O126 O 0.56473 1.07895 -0.06665
 O127 O 0.61525 1.03751 -0.03290
 C128 C 0.60540 1.06663 -0.05805
 Zr129 Zr 0.50165 1.05900 -0.04557
 O130 O 0.49625 1.05893 -0.10254
 O131 O 0.50902 1.13013 -0.04521
 Zr132 Zr 0.49768 0.94608 -0.04587
 O133 O 0.49278 0.94780 -0.10288
 O134 O 0.49967 0.87463 -0.04608
 Zr135 Zr 0.56888 0.99977 -0.00064
 Zr136 Zr 0.43100 1.00481 -0.00028
 O137 O 0.45977 1.00406 -0.05225
 O138 O 0.54064 1.00108 -0.05299
 O139 O 0.46163 1.06926 -0.00009
 O140 O 0.53722 0.93604 -0.00070
 O141 O 0.54195 1.06565 -0.00034
 O142 O 0.45667 0.93830 -0.00054
 H143 H 0.43951 1.00410 0.07281
 H144 H 0.55612 0.90840 -0.00081
 H145 H 0.43954 1.00508 -0.07358
 H146 H 0.56298 1.09172 -0.00045
 H147 H 0.47492 0.86326 0.02957
 H148 H 0.47390 0.86366 -0.03143
 H149 H 0.52013 0.96313 -0.11229
 H150 H 0.52087 1.03971 -0.11215
 H151 H 0.48315 1.14298 -0.03165
 H152 H 0.50762 1.14160 0.02587
 H153 H 0.52600 1.04036 0.11133
 H154 H 0.52047 0.96276 0.11106
 O155 O 1.06572 0.58175 0.56414
 O156 O 1.11604 0.53852 0.53176
 C157 C 1.10633 0.56887 0.55599
 O158 O 0.93504 0.42314 0.56331
 O159 O 0.88470 0.46586 0.53031
 C160 C 0.89439 0.43508 0.55426
 O161 O 1.06012 0.42199 0.56640
 O162 O 1.11325 0.45959 0.53233
 C163 C 1.10151 0.43097 0.55732
 O164 O 0.94122 0.58980 0.56066
 O165 O 0.88796 0.54714 0.53081
 C166 C 0.89977 0.57913 0.55302
 Zr167 Zr 1.00246 0.55942 0.54479
 O168 O 0.99748 0.55436 0.60171
 O169 O 1.00602 0.63049 0.54927
 Zr170 Zr 0.99846 0.44685 0.54569
 O171 O 0.99348 0.44930 0.60266
 O172 O 1.00070 0.37541 0.54674
 O173 O 1.04167 0.50181 0.55243
 O174 O 0.96029 0.50467 0.55170
 O175 O 0.94097 0.58666 0.43619
 O176 O 0.88777 0.54739 0.46896
 C177 C 0.89958 0.57764 0.44522
 O178 O 1.06063 0.42035 0.43505
 O179 O 1.11359 0.45899 0.46851
 C180 C 1.10201 0.42972 0.44400
 O181 O 0.93554 0.42170 0.43704
 O182 O 0.88514 0.46641 0.46807
 C183 C 0.89488 0.43466 0.44500
 O184 O 1.06575 0.57802 0.43299
 O185 O 1.11613 0.53731 0.46744
 C186 C 1.10639 0.56592 0.44189
 Zr187 Zr 1.00258 0.55848 0.45410
 O188 O 0.99751 0.55744 0.39711
 O189 O 1.00951 0.62962 0.45388
 Zr190 Zr 0.99875 0.44556 0.45511
 O191 O 0.99412 0.44594 0.39808
 O192 O 1.00089 0.37411 0.45607
 Zr193 Zr 1.06958 0.50021 0.49997
 Zr194 Zr 0.93164 0.50503 0.49968
 O195 O 0.96079 0.50338 0.44787
 O196 O 1.04166 0.50048 0.44751
 O197 O 0.96222 0.56947 0.49928
 O198 O 1.03801 0.43645 0.50055
 O199 O 1.04260 0.56601 0.49935
 O200 O 0.95744 0.43857 0.50035
 H201 H 0.93971 0.50568 0.57282
 H202 H 1.05697 0.40885 0.50082
 H203 H 0.94070 0.50407 0.42644
 H204 H 1.06375 0.59196 0.49884
 H205 H 0.97562 0.36412 0.53149
 H206 H 0.97481 0.36347 0.47053
 H207 H 1.02124 0.46155 0.38855
 H208 H 1.02213 0.53800 0.38781
 H209 H 0.98490 0.64223 0.46899
 H210 H 1.01550 0.64235 0.52556
 H211 H 1.02675 0.54295 0.61111
 H212 H 1.02056 0.46525 0.61191
 O213 O 1.08304 0.55865 0.06248
 O214 O 1.04213 0.61159 0.03076
 C215 C 1.07345 0.59986 0.05376
 O216 O 1.07450 0.43489 -0.06516
 O217 O 1.03274 0.38461 -0.03157
 C218 C 1.06219 0.39444 -0.05658
 O219 O 1.08276 0.55878 -0.06173
 O220 O 1.04209 0.61168 -0.02987
 C221 C 1.07319 0.59997 -0.05304
 O222 O 1.07392 0.43468 0.06682
 O223 O 1.03236 0.38451 0.03294
 C224 C 1.06171 0.39421 0.05809
 Zr225 Zr 1.05291 0.49750 0.04638
 O226 O 1.12429 0.49451 0.05206
 O227 O 1.04448 0.49949 0.10296
 Zr228 Zr 1.05405 0.49751 -0.04430
 O229 O 1.12558 0.49082 -0.04325
 O230 O 1.05428 0.50262 -0.10130
 O231 O 1.06395 0.53748 0.00103
 O232 O 1.06064 0.45759 0.00105
 O233 O 0.91498 0.44007 0.06625
 O234 O 0.95313 0.38733 0.03231
 C235 C 0.92424 0.39891 0.05722
 O236 O 0.91661 0.56458 -0.06299
 O237 O 0.96007 0.61450 -0.03039
 C238 C 0.92896 0.60500 -0.05420
 O239 O 0.91589 0.43996 -0.06581
 O240 O 0.95394 0.38720 -0.03175
 C241 C 0.92526 0.39879 -0.05684
 O242 O 0.91572 0.56439 0.06357
 O243 O 0.96029 0.61419 0.03183
 C244 C 0.92853 0.60477 0.05510
 Zr245 Zr 0.93984 0.50146 0.04562
 O246 O 0.86799 0.49920 0.04513
 O247 O 0.94099 0.50560 0.10264
 Zr248 Zr 0.94048 0.50143 -0.04507
 O249 O 0.86866 0.49904 -0.04516
 O250 O 0.94198 0.50645 -0.10206
 Zr251 Zr 0.99922 0.56790 0.00045
 Zr252 Zr 0.99455 0.43079 0.00053
 O253 O 0.93042 0.46220 0.00023
 O254 O 0.93242 0.54235 0.00019
 O255 O 0.99495 0.45851 0.05297
 O256 O 0.99872 0.53915 -0.05142
 O257 O 0.99788 0.53953 0.05249
 O258 O 0.99592 0.45873 -0.05187
 H259 H 1.08666 0.43645 0.00104
 H260 H 0.99968 0.55937 -0.07270
 H261 H 0.90278 0.44318 0.00009
 H262 H 0.99884 0.55991 0.07366
 H263 H 1.03508 0.47805 -0.11092
 H264 H 0.95831 0.47978 -0.11146
 H265 H 0.85757 0.52464 -0.03051
 H266 H 0.85702 0.52499 0.03058
 H267 H 0.96044 0.48080 0.11165
 H268 H 1.07544 0.49984 0.11337
 H269 H 1.13675 0.48224 0.02937
 H270 H 1.13763 0.51460 -0.02714
 O271 O 0.57470 0.93336 0.56586
 O272 O 0.53283 0.88353 0.53192
 C273 C 0.56229 0.89300 0.55702
 O274 O 0.41622 1.06359 0.56278
 O275 O 0.46103 1.11363 0.53145
 C276 C 0.42938 1.10403 0.55475
 O277 O 0.41503 0.93884 0.56542
 O278 O 0.45388 0.88621 0.53196
 C279 C 0.42458 0.89769 0.55656
 O280 O 0.58356 1.05767 0.56251
 O281 O 0.54295 1.11061 0.53056
 C282 C 0.57409 1.09888 0.55370
 Zr283 Zr 0.55462 0.99637 0.54520
 O284 O 0.55478 1.00139 0.60219
 O285 O 0.62605 0.98851 0.54444
 Zr286 Zr 0.44145 1.00051 0.54630
 O287 O 0.44840 1.00464 0.60313
 O288 O 0.37015 1.00135 0.55223
 O289 O 0.49652 0.95745 0.55270
 O290 O 0.49956 1.03834 0.55238
 O291 O 0.58218 1.05811 0.43715
 O292 O 0.54223 1.11080 0.46978
 C293 C 0.57290 1.09925 0.44623
 O294 O 0.41458 0.93976 0.43486
 O295 O 0.45309 0.88680 0.46835
 C296 C 0.42401 0.89854 0.44360
 O297 O 0.41619 1.06437 0.43778
 O298 O 0.46027 1.11394 0.47020
 C299 C 0.42881 1.10469 0.44660
 O300 O 0.57323 0.93387 0.43351
 O301 O 0.53187 0.88374 0.46756
 C302 C 0.56099 0.89344 0.44231
 Zr303 Zr 0.55342 0.99675 0.45449
 O304 O 0.55156 1.00236 0.39753
 O305 O 0.62482 0.98890 0.45362
 Zr306 Zr 0.43996 1.00105 0.45535
 O307 O 0.44071 1.00613 0.39835
 O308 O 0.36811 0.99953 0.45579
 Zr309 Zr 0.49466 0.93009 0.50010
 Zr310 Zr 0.49983 1.06696 0.50042
 O311 O 0.49814 1.03867 0.44841
 O312 O 0.49504 0.95812 0.44771
 O313 O 0.56461 1.03665 0.49985
 O314 O 0.43065 0.96176 0.50073
 O315 O 0.56092 0.95669 0.49969
 O316 O 0.43296 1.04142 0.50098
 H317 H 0.50059 1.05880 0.57350
 H318 H 0.40288 0.94296 0.50068
 H319 H 0.49879 1.05906 0.42723
 H320 H 0.58705 0.93565 0.49947
 H321 H 0.35712 0.99903 0.52778
 H322 H 0.35748 1.02536 0.47044
 H323 H 0.45652 0.97924 0.38878
 H324 H 0.53357 0.97679 0.38810
 H325 H 0.63801 1.01280 0.46899
 H326 H 0.63886 1.01345 0.52993
 H327 H 0.53554 0.97680 0.61175
 H328 H 0.45715 0.97448 0.61226
 O329 O 0.90073 0.94637 0.44976
 O330 O 0.95418 0.97241 0.40978
 C331 C 0.91597 0.95330 0.41755
 O332 O 0.95103 1.09926 0.54953
 O333 O 0.97739 1.04631 0.58966
 C334 C 0.95799 1.08420 0.58178
 O335 O 0.94606 1.09563 0.44918
 O336 O 0.97581 1.04416 0.40930
 C337 C 0.95362 1.08056 0.41703
 O338 O 0.90387 0.94166 0.55021
 O339 O 0.95543 0.97143 0.59018
 C340 C 0.91883 0.94941 0.58241
 Zr341 Zr 0.93115 0.96007 0.49989
 O342 O 0.86289 0.98183 0.50396
 O343 O 0.90928 0.89220 0.49606
 Zr344 Zr 0.96488 1.06884 0.49952
 O345 O 0.89676 1.09097 0.50335
 O346 O 0.98698 1.13664 0.49514
 O347 O 0.93940 1.01690 0.46757
 O348 O 0.93988 1.01698 0.53097
 O349 O 1.05375 0.89634 0.55051
 O350 O 1.02730 0.94987 0.59007
 C351 C 1.04638 0.91171 0.58264
 O352 O 1.10439 1.04929 0.44943
 O353 O 1.05094 1.02270 0.40967
 C354 C 1.08899 1.04223 0.41724
 O355 O 1.10092 1.05479 0.55009
 O356 O 1.04945 1.02497 0.59012
 C357 C 1.08579 1.04738 0.58231
 O358 O 1.05928 0.89926 0.44972
 O359 O 1.02948 0.95054 0.40963
 C360 C 1.05157 0.91414 0.41747
 Zr361 Zr 1.04063 0.92651 0.50004
 O362 O 1.10895 0.90510 0.50426
 O363 O 1.01917 0.85850 0.49600
 Zr364 Zr 1.07432 1.03520 0.49977
 O365 O 1.14212 1.01209 0.50411
 O366 O 1.09770 1.10251 0.49578
 Zr367 Zr 1.00270 0.99747 0.44619
 Zr368 Zr 1.00259 0.99792 0.55338
 O369 O 1.06544 0.97863 0.53133
 O370 O 1.06606 0.97819 0.46771
 O371 O 0.98325 0.93485 0.53208
 O372 O 1.02198 1.05995 0.46837
 O373 O 0.98350 0.93514 0.46870
 O374 O 1.02212 1.06076 0.53170
 H375 H 0.91423 1.02457 0.54713
 H376 H 1.02946 1.08547 0.45214
 H377 H 1.09086 0.97123 0.54780
 H378 H 0.97592 0.90962 0.45253
 H379 H 1.00580 1.14343 0.51655
 H380 H 1.07941 1.12081 0.51267
 H381 H 1.14915 0.99463 0.48207
 H382 H 1.12628 0.92072 0.48515
 H383 H 0.99896 0.85228 0.51670
 H384 H 0.92514 0.87493 0.51510
 H385 H 0.85638 1.00117 0.48283
 H386 H 0.87914 1.07456 0.48484
 O387 O 0.60165 0.55474 0.05035
 O388 O 0.54996 0.52488 0.09017
 C389 C 0.58652 0.54700 0.08253
 O390 O 0.44605 0.59675 -0.05033
 O391 O 0.47578 0.54557 -0.09045
 C392 C 0.45354 0.58189 -0.08255
 O393 O 0.45146 0.59980 0.05001
 O394 O 0.47769 0.54654 0.08996
 C395 C 0.45842 0.58455 0.08220
 O396 O 0.60468 0.55002 -0.05039
 O397 O 0.55115 0.52364 -0.09020
 C398 C 0.58929 0.54298 -0.08258
 Zr399 Zr 0.57444 0.53612 -0.00008
 O400 O 0.59666 0.60387 -0.00391
 O401 O 0.64256 0.51391 0.00403
 Zr402 Zr 0.46505 0.56966 -0.00012
 O403 O 0.48719 0.63747 -0.00430
 O404 O 0.39697 0.59181 0.00391
 O405 O 0.52232 0.56139 0.03205
 O406 O 0.52209 0.56099 -0.03140
 O407 O 0.55956 0.40057 -0.05071
 O408 O 0.52955 0.45200 -0.09057
 C409 C 0.55182 0.41565 -0.08290
 O410 O 0.40414 0.44201 0.05016
 O411 O 0.45572 0.47160 0.09018
 C412 C 0.41915 0.44954 0.08238
 O413 O 0.40085 0.44740 -0.05030
 O414 O 0.45421 0.47377 -0.09022
 C415 C 0.41606 0.45451 -0.08250
 O416 O 0.55417 0.39701 0.05000
 O417 O 0.52770 0.45011 0.08991
 C418 C 0.54696 0.41214 0.08221
 Zr419 Zr 0.54069 0.42733 -0.00027
 O420 O 0.51881 0.35948 -0.00462
 O421 O 0.60884 0.40536 0.00376
 Zr422 Zr 0.43130 0.46088 -0.00013
 O423 O 0.40927 0.39308 -0.00418
 O424 O 0.36309 0.48277 0.00411
 Zr425 Zr 0.50283 0.49839 0.05345
 Zr426 Zr 0.50276 0.49865 -0.05375
 O427 O 0.48357 0.43616 -0.03152
 O428 O 0.48344 0.43546 0.03191
 O429 O 0.56612 0.47926 -0.03232
 O430 O 0.44009 0.51761 0.03116
 O431 O 0.56560 0.47926 0.03115
 O432 O 0.43949 0.51791 -0.03224
 H433 H 0.52958 0.58650 -0.04764
 H434 H 0.41449 0.52509 0.04741
 H435 H 0.47602 0.41074 -0.04780
 H436 H 0.59117 0.47167 0.04743
 H437 H 0.37926 0.57538 -0.01455
 H438 H 0.35647 0.50196 -0.01709
 H439 H 0.42559 0.37557 0.01446
 H440 H 0.49945 0.35287 0.01652
 H441 H 0.62643 0.42168 -0.01482
 H442 H 0.64920 0.49526 -0.01745
 H443 H 0.58025 0.62133 0.01468
 H444 H 0.50638 0.64400 0.01696
 C445 C 0.32122 1.15649 0.11901
 C446 C 0.34676 1.19029 0.13590
 C447 C 0.32858 1.21505 0.16458
 C448 C 0.28408 1.20699 0.17683
 C449 C 0.25822 1.17368 0.15895
 C450 C 0.27663 1.14869 0.13034
 C451 C 0.34315 1.12728 0.09299
 C452 C 0.36600 1.10375 0.07343
 H453 H 0.38154 1.19637 0.12779
 H454 H 0.35009 1.23952 0.17790
 H455 H 0.22441 1.16527 0.16799
 H456 H 0.25664 1.12221 0.11798
 C457 C 0.82101 0.65697 0.61809
 C458 C 0.77654 0.64884 0.62955
 C459 C 0.75816 0.67356 0.65832
 C460 C 0.78393 0.70695 0.67619
 C461 C 0.82831 0.71531 0.66383
 C462 C 0.84646 0.69081 0.63500
 C463 C 0.84300 0.62795 0.59198
 C464 C 0.86596 0.60454 0.57242
 H465 H 0.75664 0.62230 0.61718
 H466 H 0.72447 0.66487 0.66745
 H467 H 0.84975 0.73983 0.67716
 H468 H 0.88117 0.69711 0.62680
 C469 C 0.67891 0.84919 0.11921
 C470 C 0.65063 0.82026 0.13877
 C471 C 0.66804 0.79387 0.16672
 C472 C 0.71440 0.79539 0.17568
 C473 C 0.74313 0.82307 0.15467
 C474 C 0.72546 0.84991 0.12674
 C475 C 0.65817 0.88006 0.09386
 C476 C 0.63532 0.90436 0.07493
 H477 H 0.61448 0.81950 0.13342
 H478 H 0.64442 0.77415 0.18235
 H479 H 0.77900 0.82539 0.16065
 H480 H 0.74780 0.87220 0.11190
 C481 C 1.18032 0.35042 0.62015
 C482 C 1.22474 0.35768 0.63206
 C483 C 1.24294 0.33100 0.65978
 C484 C 1.21702 0.29646 0.67609
 C485 C 1.17278 0.28885 0.66308
 C486 C 1.15483 0.31532 0.63529
 C487 C 1.15839 0.38124 0.59540
 C488 C 1.13537 0.40558 0.57664
 H489 H 1.24467 0.38510 0.62101
 H490 H 1.27647 0.33924 0.66956
 H491 H 1.15113 0.26368 0.67537
 H492 H 1.12017 0.30964 0.62668
 C493 C 0.68294 1.13761 -0.12783
 C494 C 0.65340 1.16226 -0.14985
 C495 C 0.67008 1.18879 -0.17793
 C496 C 0.71703 1.19189 -0.18457
 C497 C 0.74669 1.16693 -0.16227
 C498 C 0.72976 1.14005 -0.13403
 C499 C 0.66332 1.10944 -0.10001
 C500 C 0.64049 1.08801 -0.07899
 H501 H 0.61707 1.16060 -0.14553
 H502 H 0.64586 1.20689 -0.19446
 H503 H 0.78286 1.16741 -0.16693
 H504 H 0.75307 1.12088 -0.11742
 C505 C 1.18365 0.63626 0.37172
 C506 C 1.15385 0.66031 0.34950
 C507 C 1.17027 0.68695 0.32140
 C508 C 1.21720 0.69078 0.31498
 C509 C 1.24712 0.66631 0.33741
 C510 C 1.23045 0.63931 0.36566
 C511 C 1.16430 0.60825 0.39971
 C512 C 1.14154 0.58699 0.42087
 H513 H 1.11752 0.65817 0.35372
 H514 H 1.14588 0.70466 0.30477
 H515 H 1.28330 0.66732 0.33288
 H516 H 1.25395 0.62060 0.38244
 C517 C 0.31558 0.86204 -0.12330
 C518 C 0.26888 0.86047 -0.13040
 C519 C 0.25214 0.83315 -0.15847
 C520 C 0.28185 0.80688 -0.17971
 C521 C 0.32865 0.80923 -0.17221
 C522 C 0.34513 0.83611 -0.14428
 C523 C 0.33523 0.89101 -0.09598
 C524 C 0.35824 0.91315 -0.07552
 H525 H 0.24557 0.88075 -0.11470
 H526 H 0.21613 0.83347 -0.16395
 H527 H 0.35299 0.79044 -0.18808
 H528 H 0.38137 0.83718 -0.13938
 C529 C 0.81761 0.36101 0.37659
 C530 C 0.84713 0.33562 0.35512
 C531 C 0.83050 0.30878 0.32717
 C532 C 0.78361 0.30606 0.32014
 C533 C 0.75397 0.33172 0.34191
 C534 C 0.77085 0.35894 0.36997
 C535 C 0.83716 0.38987 0.40405
 C536 C 0.85983 0.41210 0.42470
 H537 H 0.88343 0.33703 0.35968
 H538 H 0.85470 0.29026 0.31097
 H539 H 0.71786 0.33161 0.33691
 H540 H 0.74755 0.37874 0.38608
 C541 C 1.13519 0.31682 0.12665
 C542 C 1.16138 0.34619 0.14756
 C543 C 1.18878 0.32975 0.17529
 C544 C 1.19139 0.28316 0.18266
 C545 C 1.16488 0.25363 0.16148
 C546 C 1.13704 0.27034 0.13361
 C547 C 1.10594 0.33638 0.09935
 C548 C 1.08376 0.35918 0.07871
 H549 H 1.16018 0.38226 0.14274
 H550 H 1.20779 0.35395 0.19107
 H551 H 1.16477 0.21779 0.16685
 H552 H 1.11664 0.24715 0.11792
 C553 C 0.63506 0.81565 0.62581
 C554 C 0.63709 0.76920 0.63283
 C555 C 0.66479 0.75272 0.66085
 C556 C 0.69102 0.78245 0.68206
 C557 C 0.68817 0.82901 0.67466
 C558 C 0.66089 0.84523 0.64681
 C559 C 0.60601 0.83500 0.59833
 C560 C 0.58404 0.85782 0.57760
 H561 H 0.61692 0.74587 0.61708
 H562 H 0.66483 0.71689 0.66627
 H563 H 0.70695 0.85335 0.69050
 H564 H 0.65950 0.88128 0.64194
 C565 C 1.15345 0.67818 -0.11670
 C566 C 1.14594 0.72260 -0.12803
 C567 C 1.17155 0.74091 -0.15635
 C568 C 1.20524 0.71513 -0.17396
 C569 C 1.21314 0.67085 -0.16163
 C570 C 1.18771 0.65275 -0.13322
 C571 C 1.12343 0.65636 -0.09116
 C572 C 1.09923 0.63359 -0.07205
 H573 H 1.11913 0.74252 -0.11594
 H574 H 1.16324 0.77457 -0.16543
 H575 H 1.23790 0.64945 -0.17474
 H576 H 1.19358 0.61810 -0.12511
 C577 C 0.65323 1.17845 0.38339
 C578 C 0.64522 1.22265 0.37169
 C579 C 0.67104 1.24108 0.34351
 C580 C 0.70540 1.21561 0.32645
 C581 C 0.71373 1.17158 0.33918
 C582 C 0.68816 1.15340 0.36744
 C583 C 0.62306 1.15624 0.40860
 C584 C 0.59889 1.13310 0.42744
 H585 H 0.61788 1.24224 0.38333
 H586 H 0.66235 1.27449 0.33404
 H587 H 0.73885 1.15029 0.32639
 H588 H 0.69441 1.11891 0.37582
 C589 C 0.86030 0.68933 0.12239
 C590 C 0.87983 0.69584 0.15636
 C591 C 0.85379 0.71200 0.18510
 C592 C 0.80731 0.72203 0.18063
 C593 C 0.78838 0.71705 0.14589
 C594 C 0.81455 0.70051 0.11714
 C595 C 0.88557 0.66491 0.09515
 C596 C 0.90623 0.64021 0.07499
 H597 H 0.91493 0.68669 0.16108
 H598 H 0.87016 0.71527 0.21108
 H599 H 0.75285 0.72395 0.14115
 H600 H 0.79861 0.69489 0.09119
 C601 C 0.35882 1.18197 0.62463
 C602 C 0.33476 1.15295 0.64741
 C603 C 0.30923 1.16998 0.67599
 C604 C 0.30649 1.21677 0.68236
 C605 C 0.33102 1.24589 0.65939
 C606 C 0.35694 1.22861 0.63067
 C607 C 0.38618 1.16201 0.59638
 C608 C 0.40738 1.13906 0.57528
 H609 H 0.33608 1.11676 0.64330
 H610 H 0.29144 1.14615 0.69300
 H611 H 0.33084 1.28191 0.66383
 H612 H 0.37577 1.25152 0.61353
 C613 C 0.84782 0.31961 -0.12180
 C614 C 0.81300 0.34466 -0.13793
 C615 C 0.78752 0.32644 -0.16619
 C616 C 0.79578 0.28233 -0.17871
 C617 C 0.83019 0.25692 -0.16160
 C618 C 0.85594 0.27541 -0.13340
 C619 C 0.87742 0.34174 -0.09619
 C620 C 0.90075 0.36492 -0.07676
 H621 H 0.80669 0.37914 -0.12961
 H622 H 0.76242 0.34771 -0.17906
 H623 H 0.83890 0.22350 -0.17099
 H624 H 0.88322 0.25584 -0.12161
 C625 C 0.34647 0.81925 0.37876
 C626 C 0.31128 0.84397 0.36282
 C627 C 0.28607 0.82570 0.33443
 C628 C 0.29497 0.78186 0.32159
 C629 C 0.32973 0.75676 0.33853
 C630 C 0.35520 0.77530 0.36686
 C631 C 0.37593 0.84155 0.40438
 C632 C 0.39927 0.86476 0.42377
 H633 H 0.30449 0.87828 0.37137
 H634 H 0.26070 0.84678 0.32168
 H635 H 0.33896 0.72358 0.32888
 H636 H 0.38278 0.75599 0.37850
 C637 C 1.15602 1.11233 0.34128
 C638 C 1.13085 1.14639 0.32463
 C639 C 1.15272 1.17932 0.30433
 C640 C 1.20026 1.17913 0.30106
 C641 C 1.22496 1.14329 0.31656
 C642 C 1.20300 1.11045 0.33701
 C643 C 1.13385 1.08277 0.36593
 C644 C 1.11393 1.06173 0.38847
 H645 H 1.09434 1.14795 0.32789
 H646 H 1.13212 1.20462 0.29113
 H647 H 1.26128 1.14052 0.31308
 H648 H 1.22268 1.08412 0.34993
 C649 C 0.65646 0.61202 -0.15899
 C650 C 0.63112 0.64574 -0.17590
 C651 C 0.65285 0.67859 -0.19635
 C652 C 0.70039 0.67864 -0.19953
 C653 C 0.72526 0.64305 -0.18385
 C654 C 0.70344 0.61029 -0.16322
 C655 C 0.63438 0.58277 -0.13408
 C656 C 0.61441 0.56209 -0.11138
 H657 H 0.59460 0.64715 -0.17269
 H658 H 0.63213 0.70367 -0.20969
 H659 H 0.76161 0.64045 -0.18727
 H660 H 0.72324 0.58419 -0.15011
 C661 C 0.88693 1.15591 0.65384
 C662 C 0.88848 1.15075 0.69115
 C663 C 0.85598 1.17184 0.71251
 C664 C 0.82137 1.19817 0.69666
 C665 C 0.82049 1.20304 0.65896
 C666 C 0.85308 1.18203 0.63773
 C667 C 0.91703 1.13117 0.63134
 C668 C 0.93848 1.10974 0.61004
 H669 H 0.91434 1.12997 0.70367
 H670 H 0.85822 1.16722 0.74140
 H671 H 0.79473 1.22304 0.64569
 H672 H 0.85146 1.18558 0.60866
 C673 C 0.38768 0.65668 0.15410
 C674 C 0.38916 0.65166 0.19141
 C675 C 0.35655 0.67270 0.21266
 C676 C 0.32187 0.69884 0.19669
 C677 C 0.32112 0.70370 0.15900
 C678 C 0.35385 0.68273 0.13787
 C679 C 0.41774 0.63173 0.13173
 C680 C 0.43909 0.61012 0.11050
 H681 H 0.41502 0.63096 0.20401
 H682 H 0.35872 0.66811 0.24155
 H683 H 0.29534 0.72360 0.14566
 H684 H 0.35231 0.68618 0.10879
 C685 C 1.11180 0.84347 0.66053
 C686 C 1.10970 0.79668 0.66435
 C687 C 1.14182 0.77452 0.68550
 C688 C 1.17721 0.79887 0.70203
 C689 C 1.17721 0.84624 0.69952
 C690 C 1.14498 0.86830 0.67858
 C691 C 1.08385 0.86592 0.63485
 C692 C 1.06435 0.88624 0.61169
 H693 H 1.08393 0.77730 0.65042
 H694 H 1.13904 0.73833 0.68854
 H695 H 1.20202 0.86656 0.71358
 H696 H 1.14662 0.90467 0.67576
 C697 C 0.61498 0.34048 0.15638
 C698 C 0.64872 0.31354 0.14116
 C699 C 0.68069 0.29280 0.16312
 C700 C 0.67928 0.29864 0.20073
 C701 C 0.64470 0.32563 0.21577
 C702 C 0.61281 0.34658 0.19362
 C703 C 0.58595 0.36517 0.13292
 C704 C 0.56556 0.38650 0.11087
 H705 H 0.65087 0.30927 0.11217
 H706 H 0.70651 0.27238 0.15040
 H707 H 0.64218 0.33095 0.24456
 H708 H 0.58703 0.36803 0.20544
 C709 C 0.84225 0.88534 0.34465
 C710 C 0.84668 0.88815 0.30731
 C711 C 0.82478 0.85673 0.28549
 C712 C 0.79844 0.82195 0.30091
 C713 C 0.79402 0.82002 0.33862
 C714 C 0.81579 0.85153 0.36030
 C715 C 0.86795 0.91414 0.36756
 C716 C 0.88999 0.93458 0.38912
 H717 H 0.86763 0.91404 0.29512
 H718 H 0.82903 0.85974 0.25661
 H719 H 0.77396 0.79415 0.35157
 H720 H 0.81271 0.84898 0.38936
 C721 C 0.34325 0.38567 -0.15539
 C722 C 0.34936 0.38688 -0.19264
 C723 C 0.32787 0.35498 -0.21425
 C724 C 0.30023 0.32129 -0.19872
 C725 C 0.29433 0.32082 -0.16111
 C726 C 0.31569 0.35283 -0.13963
 C727 C 0.36851 0.41490 -0.13253
 C728 C 0.39026 0.43563 -0.11096
 H729 H 0.37124 0.41195 -0.20488
 H730 H 0.33331 0.35684 -0.24306
 H731 H 0.27341 0.29570 -0.14805
 H732 H 0.31139 0.35144 -0.11062
 C733 C 1.13564 0.31873 -0.12576
 C734 C 1.16074 0.34858 -0.14715
 C735 C 1.18818 0.33252 -0.17499
 C736 C 1.19174 0.28595 -0.18192
 C737 C 1.16633 0.25602 -0.16022
 C738 C 1.13857 0.27229 -0.13229
 C739 C 1.10647 0.33755 -0.09823
 C740 C 1.08421 0.35973 -0.07734
 H741 H 1.15869 0.38464 -0.14257
 H742 H 1.20652 0.35687 -0.19114
 H743 H 1.16705 0.22011 -0.16517
 H744 H 1.11907 0.24876 -0.11619
 C745 C 0.63453 0.81684 0.37383
 C746 C 0.63686 0.77044 0.36682
 C747 C 0.66488 0.75421 0.33898
 C748 C 0.69110 0.78415 0.31793
 C749 C 0.68805 0.83065 0.32538
 C750 C 0.66045 0.84664 0.35308
 C751 C 0.60510 0.83589 0.40108
 C752 C 0.58285 0.85847 0.42171
 H753 H 0.61667 0.74697 0.38242
 H754 H 0.66512 0.71840 0.33354
 H755 H 0.70684 0.85511 0.30966
 H756 H 0.65884 0.88266 0.35799
 C757 C 0.86088 0.68900 -0.12203
 C758 C 0.81504 0.69984 -0.11692
 C759 C 0.78877 0.71594 -0.14579
 C760 C 0.80769 0.72084 -0.18052
 C761 C 0.85425 0.71116 -0.18489
 C762 C 0.88040 0.69540 -0.15602
 C763 C 0.88617 0.66492 -0.09460
 C764 C 0.90676 0.64038 -0.07424
 H765 H 0.79913 0.69425 -0.09097
 H766 H 0.75320 0.72260 -0.14113
 H767 H 0.87060 0.71441 -0.21087
 H768 H 0.91558 0.68648 -0.16063
 C769 C 0.36077 1.18885 0.37877
 C770 C 0.31491 1.19968 0.38377
 C771 C 0.28873 1.21581 0.35484
 C772 C 0.30775 1.22078 0.32015
 C773 C 0.35431 1.21106 0.31589
 C774 C 0.38038 1.19527 0.34481
 C775 C 0.38602 1.16478 0.40628
 C776 C 0.40661 1.14022 0.42666
 H777 H 0.29892 1.19411 0.40969
 H778 H 0.25314 1.22248 0.35945
 H779 H 0.37074 1.21434 0.28993
 H780 H 0.41557 1.18637 0.34026
 C781 C 1.15493 0.67868 0.11590
 C782 C 1.19040 0.65380 0.13134
 C783 C 1.21612 0.67182 0.15959
 C784 C 1.20737 0.71552 0.17280
 C785 C 1.17245 0.74082 0.15624
 C786 C 1.14654 0.72256 0.12806
 C787 C 1.12448 0.65653 0.09089
 C788 C 1.09994 0.63354 0.07226
 H789 H 1.19692 0.61951 0.12260
 H790 H 1.24165 0.65065 0.17202
 H791 H 1.16335 0.77391 0.16613
 H792 H 1.11877 0.74200 0.11684
 C793 C 0.65471 1.17798 0.61633
 C794 C 0.64629 1.22195 0.62831
 C795 C 0.67215 1.24039 0.65646
 C796 C 0.70703 1.21518 0.67316
 C797 C 0.71569 1.17135 0.66021
 C798 C 0.69005 1.15315 0.63199
 C799 C 0.62452 1.15572 0.59120
 C800 C 0.60026 1.13261 0.57242
 H801 H 0.61859 1.24133 0.61694
 H802 H 0.66310 1.27357 0.66618
 H803 H 0.74114 1.15022 0.67279
 H804 H 0.69656 1.11880 0.62343
 C805 C 0.84564 0.31962 0.12118
 C806 C 0.85429 0.27576 0.13332
 C807 C 0.82843 0.25728 0.16143
 C808 C 0.79330 0.28233 0.17789
 C809 C 0.78445 0.32608 0.16478
 C810 C 0.81009 0.34431 0.13661
 C811 C 0.87558 0.34190 0.09592
 C812 C 0.89928 0.36508 0.07680
 H813 H 0.88215 0.25649 0.12209
 H814 H 0.83770 0.22422 0.17132
 H815 H 0.75885 0.34713 0.17721
 H816 H 0.80338 0.37857 0.12787
 C817 C 0.34499 0.82003 0.62078
 C818 C 0.31561 0.84784 0.64035
 C819 C 0.28963 0.83032 0.66854
 C820 C 0.29203 0.78432 0.67775
 C821 C 0.32023 0.75604 0.65680
 C822 C 0.34664 0.77382 0.62862
 C823 C 0.37543 0.84093 0.59512
 C824 C 0.39942 0.86378 0.57594
 H825 H 0.31414 0.88372 0.63479
 H826 H 0.26950 0.85360 0.68413
 H827 H 0.32325 0.72046 0.66298
 H828 H 0.36932 0.75184 0.61382
 C829 C 0.31898 1.15706 -0.11744
 C830 C 0.27496 1.14843 -0.12979
 C831 C 0.25679 1.17372 -0.15836
 C832 C 0.28233 1.20818 -0.17512
 C833 C 0.32622 1.21699 -0.16184
 C834 C 0.34413 1.19195 -0.13320
 C835 C 0.34113 1.12743 -0.09186
 C836 C 0.36436 1.10365 -0.07278
 H837 H 0.25536 1.12102 -0.11835
 H838 H 0.22358 1.16459 -0.16833
 H839 H 0.34763 1.24212 -0.17445
 H840 H 0.37853 1.19859 -0.12437
 C841 C 0.82078 0.65688 0.38117
 C842 C 0.77633 0.64894 0.36957
 C843 C 0.75790 0.67430 0.34116
 C844 C 0.78360 0.70815 0.32376
 C845 C 0.82793 0.71639 0.33632
 C846 C 0.84614 0.69123 0.36480
 C847 C 0.84281 0.62724 0.40682
 C848 C 0.86577 0.60336 0.42605
 H849 H 0.75651 0.62204 0.38151
 H850 H 0.72425 0.66571 0.33186
 H851 H 0.84931 0.74126 0.32333
 H852 H 0.88084 0.69739 0.37311
 C853 C 0.68250 1.13741 0.12687
 C854 C 0.72923 1.14069 0.13320
 C855 C 0.74553 1.16753 0.16166
 C856 C 0.71533 1.19165 0.18406
 C857 C 0.66848 1.18760 0.17740
 C858 C 0.65240 1.16109 0.14906
 C859 C 0.66358 1.10940 0.09865
 C860 C 0.64114 1.08802 0.07734
 H861 H 0.75296 1.12224 0.11648
 H862 H 0.78168 1.16866 0.16636
 H863 H 0.64391 1.20500 0.19403
 H864 H 0.61612 1.15873 0.14466
 C865 C 1.18917 0.63744 0.62437
 C866 C 1.19891 0.68329 0.61919
 C867 C 1.21425 0.70990 0.64806
 C868 C 1.21937 0.69130 0.68286
 C869 C 1.21071 0.64477 0.68730
 C870 C 1.19578 0.61830 0.65844
 C871 C 1.16580 0.61160 0.59691
 C872 C 1.14165 0.59076 0.57641
 H873 H 1.19312 0.69890 0.59317
 H874 H 1.22026 0.74540 0.64332
 H875 H 1.21426 0.62860 0.71331
 H876 H 1.18771 0.58310 0.66311
 C877 C 0.67837 0.84849 -0.12012
 C878 C 0.72496 0.84913 -0.12747
 C879 C 0.74283 0.82179 -0.15498
 C880 C 0.71427 0.79365 -0.17575
 C881 C 0.66787 0.79213 -0.16690
 C882 C 0.65026 0.81907 -0.13938
 C883 C 0.65750 0.87985 -0.09523
 C884 C 0.63472 0.90449 -0.07654
 H885 H 0.74719 0.87175 -0.11284
 H886 H 0.77871 0.82413 -0.16087
 H887 H 0.64440 0.77201 -0.18236
 H888 H 0.61409 0.81830 -0.13414
 C889 C 1.17944 0.34854 0.38096
 C890 C 1.22603 0.34892 0.37356
 C891 C 1.24365 0.32174 0.34585
 C892 C 1.21485 0.29403 0.32491
 C893 C 1.16846 0.29280 0.33377
 C894 C 1.15109 0.31956 0.36149
 C895 C 1.15879 0.37973 0.40610
 C896 C 1.13602 0.40423 0.42491
 H897 H 1.24845 0.37121 0.38833
 H898 H 1.27955 0.32383 0.33995
 H899 H 1.14480 0.27302 0.31820
 H900 H 1.11492 0.31904 0.36674
 C901 C 0.31752 0.86053 0.12222
 C902 C 0.27087 0.85800 0.12906
 C903 C 0.25463 0.83097 0.15743
 C904 C 0.28482 0.80596 0.17926
 C905 C 0.33159 0.80927 0.17209
 C906 C 0.34760 0.83592 0.14382
 C907 C 0.33644 0.88924 0.09449
 C908 C 0.35888 0.91147 0.07375
 H909 H 0.24717 0.87728 0.11288
 H910 H 0.21857 0.83047 0.16258
 H911 H 0.35617 0.79129 0.18836
 H912 H 0.38384 0.83781 0.13908
 C913 C 0.81791 0.36033 0.62204
 C914 C 0.77123 0.35757 0.62872
 C915 C 0.75495 0.33035 0.65696
 C916 C 0.78511 0.30541 0.67887
 C917 C 0.83190 0.30872 0.67173
 C918 C 0.84796 0.33557 0.64358
 C919 C 0.83687 0.38951 0.59460
 C920 C 0.85930 0.41212 0.57409
 H921 H 0.74755 0.37688 0.61255
 H922 H 0.71887 0.32973 0.66201
 H923 H 0.85645 0.29070 0.68800
 H924 H 0.88421 0.33758 0.63894
 C925 C 1.15521 1.11948 0.65540
 C926 C 1.18221 1.15288 0.63981
 C927 C 1.20379 1.18446 0.66152
 C928 C 1.19865 1.18299 0.69919
 C929 C 1.17150 1.14880 0.71454
 C930 C 1.14980 1.11730 0.69269
 C931 C 1.13071 1.08986 0.63239
 C932 C 1.11001 1.06824 0.61074
 H933 H 1.18611 1.15488 0.61079
 H934 H 1.22444 1.20989 0.64860
 H935 H 1.16671 1.14618 0.74339
 H936 H 1.12849 1.09165 0.70479
 C937 C 0.65373 0.61582 0.15906
 C938 C 0.70075 0.61333 0.16292
 C939 C 0.72332 0.64543 0.18365
 C940 C 0.69915 0.68111 0.19977
 C941 C 0.65153 0.68166 0.19709
 C942 C 0.62907 0.64949 0.17653
 C943 C 0.63099 0.58731 0.13407
 C944 C 0.61096 0.56682 0.11134
 H945 H 0.71998 0.58715 0.14942
 H946 H 0.75967 0.64229 0.18679
 H947 H 0.63130 0.70673 0.21086
 H948 H 0.59252 0.65141 0.17366
 C949 C 1.11942 0.84229 0.34333
 C950 C 1.15214 0.81398 0.35840
 C951 C 1.18304 0.79203 0.33628
 C952 C 1.18156 0.79807 0.29869
 C953 C 1.14781 0.82623 0.28379
 C954 C 1.11699 0.84836 0.30609
 C955 C 1.09133 0.86777 0.36687
 C956 C 1.07111 0.88920 0.38890
 H957 H 1.15439 0.80959 0.38737
 H958 H 1.20831 0.77082 0.34890
 H959 H 1.14528 0.83175 0.25502
 H960 H 1.09187 0.87070 0.29438
 C961 C 0.62050 0.34437 -0.15697
 C962 C 0.61800 0.35007 -0.19424
 C963 C 0.64871 0.32761 -0.21644
 C964 C 0.68238 0.29945 -0.20143
 C965 C 0.68401 0.29389 -0.16379
 C966 C 0.65325 0.31619 -0.14177
 C967 C 0.59216 0.36979 -0.13354
 C968 C 0.57166 0.39103 -0.11155
 H969 H 0.59286 0.37229 -0.20606
 H970 H 0.64608 0.33279 -0.24525
 H971 H 0.70920 0.27267 -0.15108
 H972 H 0.65554 0.31207 -0.11277
 C973 C 0.88286 1.15298 0.34515
 C974 C 0.85019 1.18037 0.36137
 C975 C 0.81853 1.20292 0.34022
 C976 C 0.81923 1.19828 0.30252
 C977 C 0.85289 1.17092 0.28655
 C978 C 0.88444 1.14832 0.30782
 C979 C 0.91212 1.12708 0.36748
 C980 C 0.93338 1.10534 0.38869
 H981 H 0.84870 1.18368 0.39047
 H982 H 0.79345 1.22366 0.35356
 H983 H 0.85499 1.16643 0.25765
 H984 H 0.90952 1.12673 0.29522
 C985 C 0.38273 0.65452 -0.15443
 C986 C 0.34919 0.68097 -0.13832
 C987 C 0.31778 0.70362 -0.15964
 C988 C 0.31957 0.70003 -0.19740
 C989 C 0.35417 0.67373 -0.21324
 C990 C 0.38547 0.65100 -0.19181
 C991 C 0.41191 0.62858 -0.13201
 C992 C 0.43317 0.60679 -0.11081
 H993 H 0.34684 0.68346 -0.10922
 H994 H 0.29207 0.72367 -0.14639
 H995 H 0.35714 0.67012 -0.24217
 H996 H 0.41127 0.63019 -0.20433
 C997 C 0.84477 0.88176 0.65536
 C998 C 0.81713 0.84891 0.63972
 C999 C 0.79413 0.81831 0.66144
 C1000 C 0.79851 0.82023 0.69916
 C1001 C 0.82587 0.85423 0.71455
 C1002 C 0.84898 0.88472 0.69270
 C1003 C 0.87132 0.90973 0.63245
 C1004 C 0.89351 0.92997 0.61088
 H1005 H 0.81409 0.84635 0.61066
 H1006 H 0.77341 0.79296 0.64849
 H1007 H 0.83014 0.85719 0.74343
 H1008 H 0.87070 0.90998 0.70487
 C1009 C 0.34553 0.38142 0.15553
 C1010 C 0.31773 0.34859 0.14004
 C1011 C 0.29468 0.31816 0.16188
 C1012 C 0.29915 0.32018 0.19960
 C1013 C 0.32673 0.35410 0.21485
 C1014 C 0.34988 0.38445 0.19287
 C1015 C 0.37193 0.40943 0.13248
 C1016 C 0.39396 0.42980 0.11085
 H1017 H 0.31454 0.34596 0.11099
 H1018 H 0.27380 0.29286 0.14902
 H1019 H 0.33108 0.35712 0.24372
 H1020 H 0.37171 0.40970 0.20495
   
