data_POSCAR
  _audit_creation_date              2014-09-24
  _audit_creation_method            'ToBaCCo'
  _symmetry_space_group_name_H-M    'P1'
  _symmetry_Int_Tables_number       1
  _symmetry_cell_setting            triclinic
  loop_
  _symmetry_equiv_pos_as_xyz
 x,y,z
_cell_length_a 40.9786
_cell_length_b 34.5322
_cell_length_c 27.7050
_cell_angle_alpha 89.864700
_cell_angle_beta 90.266600
_cell_angle_gamma 89.957600
loop_
  _atom_site_label
  _atom_site_type_symbol
  _atom_site_fract_x
  _atom_site_fract_y
  _atom_site_fract_z
C1 C 1.25329 0.25030 0.25480
 C2 C 0.74592 -0.24811 0.25127
 C3 C 0.74596 0.25224 -0.25793
 C4 C 1.25204 -0.24724 -0.24676
 C5 C 0.25384 0.24850 0.74576
 C6 C 0.74700 0.74995 0.74945
 C7 C 0.74625 0.24963 0.25929
 C8 C 0.25228 0.75027 0.24646
 O9 O 1.04461 0.06945 0.09056
 O10 O 1.08097 0.03615 0.04349
 C11 C 1.07411 0.06058 0.07764
 O12 O 0.95376 -0.06867 0.08341
 O13 O 0.91709 -0.03156 0.04083
 C14 C 0.92418 -0.05902 0.07136
 O15 O 1.04457 -0.06509 0.08877
 O16 O 1.08099 -0.03079 0.04281
 C17 C 1.07410 -0.05612 0.07606
 O18 O 0.95384 0.07365 0.08534
 O19 O 0.91714 0.03776 0.04148
 C20 C 0.92425 0.06444 0.07291
 Zr21 Zr 0.99914 0.05155 0.06202
 O22 O 0.99671 0.05297 0.13827
 O23 O 1.00051 0.11259 0.05636
 Zr24 Zr 0.99911 -0.04552 0.06174
 O25 O 0.99777 -0.04131 0.13779
 O26 O 1.00137 -0.10669 0.06421
 O27 O 1.02856 0.00284 0.07136
 O28 O 0.97035 0.00295 0.07064
 O29 O 0.95351 0.07471 -0.08249
 O30 O 0.91696 0.03815 -0.03955
 C31 C 0.92396 0.06525 -0.07054
 O32 O 1.04436 -0.06366 -0.08727
 O33 O 1.08092 -0.03004 -0.04056
 C34 C 1.07391 -0.05475 -0.07434
 O35 O 0.95343 -0.06741 -0.08285
 O36 O 0.91692 -0.03109 -0.03972
 C37 C 0.92390 -0.05808 -0.07069
 O38 O 1.04434 0.07071 -0.08707
 O39 O 1.08089 0.03649 -0.04067
 C40 C 1.07390 0.06146 -0.07440
 Zr41 Zr 0.99891 0.05235 -0.05921
 O42 O 0.99560 0.05523 -0.13539
 O43 O 1.00032 0.11329 -0.05243
 Zr44 Zr 0.99883 -0.04499 -0.06003
 O45 O 0.99525 -0.04501 -0.13632
 O46 O 1.00038 -0.10613 -0.05680
 Zr47 Zr 1.04815 0.00308 0.00116
 Zr48 Zr 0.94985 0.00331 0.00090
 O49 O 0.97023 0.00377 -0.06862
 O50 O 1.02817 0.00365 -0.06916
 O51 O 0.96974 0.05954 0.00137
 O52 O 1.02738 -0.05259 0.00084
 O53 O 1.02775 0.05895 0.00153
 O54 O 0.96987 -0.05287 0.00069
 H55 H 0.95562 0.00276 0.09892
 H56 H 1.04174 -0.07568 0.00076
 H57 H 0.95550 0.00391 -0.09708
 H58 H 1.04245 0.08172 0.00173
 H59 H 0.99025 -0.11622 0.03478
 H60 H 1.00035 -0.11528 -0.09068
 H61 H 1.01350 -0.02929 -0.14890
 H62 H 1.01143 0.03637 -0.14841
 H63 H 1.00062 0.12372 -0.08578
 H64 H 1.00096 0.12251 0.08989
 H65 H 1.01013 0.03116 0.15039
 H66 H 0.99751 -0.06827 0.15011
 O67 O 1.04725 0.56925 0.58839
 O68 O 1.08360 0.53593 0.54131
 C69 C 1.07668 0.56059 0.57512
 O70 O 0.95686 0.43038 0.58120
 O71 O 0.92004 0.46767 0.53923
 C72 C 0.92729 0.43976 0.56898
 O73 O 1.04739 0.43468 0.58665
 O74 O 1.08368 0.46919 0.54071
 C75 C 1.07682 0.44362 0.57363
 O76 O 0.95670 0.57367 0.58323
 O77 O 0.91996 0.53748 0.53987
 C78 C 0.92715 0.56463 0.57058
 Zr79 Zr 1.00183 0.55116 0.56037
 O80 O 0.99934 0.55226 0.63663
 O81 O 1.00321 0.61223 0.55506
 Zr82 Zr 1.00196 0.45423 0.56010
 O83 O 1.00062 0.45872 0.63612
 O84 O 1.00433 0.39309 0.56310
 O85 O 1.03137 0.50259 0.56961
 O86 O 0.97306 0.50256 0.56918
 O87 O 0.95603 0.57472 0.41685
 O88 O 0.91964 0.53788 0.45971
 C89 C 0.92659 0.56545 0.42943
 O90 O 1.04690 0.43590 0.41132
 O91 O 1.08348 0.46991 0.45754
 C92 C 1.07641 0.44475 0.42437
 O93 O 0.95615 0.43163 0.41655
 O94 O 0.91970 0.46813 0.45951
 C95 C 0.92670 0.44067 0.42928
 O96 O 1.04664 0.57069 0.41149
 O97 O 1.08335 0.53631 0.45741
 C98 C 1.07620 0.56167 0.42425
 Zr99 Zr 1.00137 0.55192 0.43908
 O100 O 0.99773 0.55403 0.36288
 O101 O 1.00278 0.61292 0.44513
 Zr102 Zr 1.00145 0.45476 0.43826
 O103 O 0.99757 0.45548 0.36199
 O104 O 1.00324 0.39358 0.44057
 Zr105 Zr 1.05073 0.50288 0.49928
 Zr106 Zr 0.95254 0.50286 0.49951
 O107 O 0.97263 0.50335 0.42983
 O108 O 1.03074 0.50338 0.42900
 O109 O 0.97242 0.55905 0.49982
 O110 O 1.03006 0.44718 0.49906
 O111 O 1.03023 0.55866 0.49972
 O112 O 0.97274 0.44680 0.49916
 H113 H 0.95826 0.50234 0.59738
 H114 H 1.04436 0.42403 0.49896
 H115 H 0.95767 0.50347 0.40163
 H116 H 1.04481 0.58154 0.49988
 H117 H 0.99461 0.38347 0.53266
 H118 H 1.00309 0.38470 0.40656
 H119 H 1.01644 0.47013 0.34937
 H120 H 1.01436 0.53614 0.34990
 H121 H 1.00297 0.62314 0.41167
 H122 H 1.00376 0.62205 0.58863
 H123 H 1.01353 0.53113 0.64871
 H124 H 1.00042 0.43180 0.64858
 O125 O 0.55590 -0.06000 0.58634
 O126 O 0.52676 -0.10347 0.54069
 C127 C 0.54813 -0.09493 0.57399
 O128 O 0.44015 0.04798 0.58474
 O129 O 0.46997 0.09212 0.54116
 C130 C 0.44762 0.08312 0.57267
 O131 O 0.44278 -0.05844 0.58915
 O132 O 0.46968 -0.10262 0.54185
 C133 C 0.44941 -0.09356 0.57612
 O134 O 0.56111 0.04599 0.58026
 O135 O 0.53043 0.09129 0.53971
 C136 C 0.55391 0.08145 0.56926
 Zr137 Zr 0.53970 -0.00647 0.55972
 O138 O 0.53415 -0.00512 0.63552
 O139 O 0.59103 -0.00942 0.56676
 Zr140 Zr 0.45892 -0.00526 0.56144
 O141 O 0.46458 -0.00419 0.63731
 O142 O 0.40742 -0.00741 0.56566
 O143 O 0.49908 -0.04125 0.56946
 O144 O 0.49985 0.02890 0.56957
 O145 O 0.55765 0.04749 0.41470
 O146 O 0.52918 0.09181 0.45965
 C147 C 0.55115 0.08262 0.42780
 O148 O 0.44054 -0.05714 0.41155
 O149 O 0.46877 -0.10208 0.45645
 C150 C 0.44752 -0.09248 0.42340
 O151 O 0.43862 0.04932 0.41743
 O152 O 0.46946 0.09287 0.46039
 C153 C 0.44658 0.08430 0.42934
 O154 O 0.55340 -0.05927 0.41000
 O155 O 0.52588 -0.10334 0.45682
 C156 C 0.54626 -0.09439 0.42262
 Zr157 Zr 0.53845 -0.00567 0.43799
 O158 O 0.53644 -0.00063 0.36179
 O159 O 0.58995 -0.01046 0.43600
 Zr160 Zr 0.45705 -0.00433 0.44009
 O161 O 0.45469 0.00031 0.36392
 O162 O 0.40564 -0.00534 0.44619
 Zr163 Zr 0.49799 -0.06422 0.49898
 Zr164 Zr 0.49929 0.05337 0.50007
 O165 O 0.49802 0.02932 0.43041
 O166 O 0.49725 -0.03996 0.42902
 O167 O 0.54621 0.02820 0.49894
 O168 O 0.45142 -0.03864 0.50053
 O169 O 0.54504 -0.03985 0.49847
 O170 O 0.45183 0.02995 0.50110
 H171 H 0.50052 0.04662 0.59765
 H172 H 0.43182 -0.05544 0.50082
 H173 H 0.49785 0.04693 0.40213
 H174 H 0.56436 -0.05711 0.49805
 H175 H 0.39884 0.00670 0.53719
 H176 H 0.39689 -0.00506 0.41278
 H177 H 0.46952 -0.01946 0.35044
 H178 H 0.52463 -0.02342 0.34904
 H179 H 0.59908 0.01043 0.45638
 H180 H 0.59991 -0.01060 0.53373
 H181 H 0.55652 -0.00422 0.64919
 H182 H 0.44224 -0.00346 0.65083
 O183 O 0.54595 0.56670 0.08866
 O184 O 0.58189 0.53229 0.04213
 C185 C 0.57531 0.55755 0.07525
 O186 O 0.45487 0.42763 0.08292
 O187 O 0.41838 0.46510 0.04067
 C188 C 0.42540 0.43718 0.07036
 O189 O 0.54556 0.43215 0.08901
 O190 O 0.58164 0.46672 0.04288
 C191 C 0.57494 0.44137 0.07601
 O192 O 0.45478 0.57155 0.08322
 O193 O 0.41837 0.53448 0.04051
 C194 C 0.42531 0.56223 0.07035
 Zr195 Zr 0.50011 0.54846 0.06154
 O196 O 0.49750 0.54948 0.13779
 O197 O 0.50171 0.60954 0.05650
 Zr198 Zr 0.50008 0.45136 0.06210
 O199 O 0.49843 0.45644 0.13804
 O200 O 0.50248 0.39024 0.06588
 O201 O 0.52946 0.49980 0.07126
 O202 O 0.47128 0.49989 0.07063
 O203 O 0.45433 0.57149 -0.08189
 O204 O 0.41819 0.53432 -0.03913
 C205 C 0.42495 0.56210 -0.06903
 O206 O 0.54540 0.43244 -0.08660
 O207 O 0.58171 0.46674 -0.04027
 C208 C 0.57484 0.44156 -0.07346
 O209 O 0.45446 0.42806 -0.08146
 O210 O 0.41815 0.46514 -0.03908
 C211 C 0.42504 0.43745 -0.06895
 O212 O 0.54544 0.56709 -0.08694
 O213 O 0.58161 0.53230 -0.04063
 C214 C 0.57487 0.55778 -0.07366
 Zr215 Zr 0.49980 0.54849 -0.05997
 O216 O 0.49621 0.54991 -0.13620
 O217 O 0.50135 0.60956 -0.05500
 Zr218 Zr 0.49980 0.45112 -0.05985
 O219 O 0.49607 0.45100 -0.13612
 O220 O 0.50164 0.38997 -0.05665
 Zr221 Zr 0.54871 0.49958 0.00091
 Zr222 Zr 0.45097 0.49974 0.00082
 O223 O 0.47110 0.49982 -0.06884
 O224 O 0.52904 0.49975 -0.06951
 O225 O 0.47087 0.55595 0.00072
 O226 O 0.52825 0.44384 0.00117
 O227 O 0.52846 0.55550 0.00080
 O228 O 0.47101 0.44360 0.00105
 H229 H 0.45634 0.49992 0.09865
 H230 H 0.54269 0.42081 0.00134
 H231 H 0.45615 0.49988 -0.09706
 H232 H 0.54306 0.57836 0.00080
 H233 H 0.49275 0.38035 0.03558
 H234 H 0.50154 0.38081 -0.09052
 H235 H 0.51440 0.46655 -0.14880
 H236 H 0.51350 0.53281 -0.14894
 H237 H 0.50157 0.61939 -0.08863
 H238 H 0.50226 0.61930 0.09012
 H239 H 0.51255 0.52921 0.14991
 H240 H 0.49828 0.42962 0.15081
 C241 C 1.11947 0.12479 0.16610
 C242 C 1.15121 0.12398 0.14783
 C243 C 1.15823 0.10089 0.10762
 C244 C 1.13342 0.07928 0.08533
 C245 C 1.23352 0.22039 0.23088
 C246 C 1.09472 0.10342 0.14391
 C247 C 1.17581 0.14835 0.16952
 C248 C 1.19509 0.17003 0.18846
 C249 C 1.21635 0.19669 0.21122
 C250 C 1.10124 0.08073 0.10289
 H251 H 1.11369 0.14253 0.19713
 H252 H 1.18270 0.10010 0.09303
 H253 H 1.13925 0.06225 0.05375
 H254 H 1.07032 0.10517 0.15860
 C255 C 1.12109 0.62729 0.66078
 C256 C 1.15165 0.63025 0.63895
 C257 C 1.15868 0.60812 0.59797
 C258 C 1.13475 0.58392 0.57808
 C259 C 1.23113 0.72814 0.72334
 C260 C 1.09721 0.60336 0.64098
 C261 C 1.17508 0.65690 0.65858
 C262 C 1.19346 0.67976 0.67696
 C263 C 1.21396 0.70632 0.70084
 C264 C 1.10354 0.58190 0.59893
 H265 H 1.11549 0.64411 0.69267
 H266 H 1.18235 0.61016 0.58090
 H267 H 1.14028 0.56790 0.54558
 H268 H 1.07352 0.60235 0.65811
 C269 C 0.60110 0.17468 0.59320
 C270 C 0.62283 0.16181 0.62919
 C271 C 0.61971 0.12453 0.64796
 C272 C 0.59617 0.09953 0.62978
 C273 C 0.72078 0.23372 0.71218
 C274 C 0.57710 0.14946 0.57490
 C275 C 0.64914 0.18540 0.64731
 C276 C 0.67197 0.20206 0.66541
 C277 C 0.69869 0.21935 0.68949
 C278 C 0.57512 0.11114 0.59203
 H279 H 0.60307 0.20376 0.57879
 H280 H 0.63608 0.11435 0.67611
 H281 H 0.59515 0.07054 0.64469
 H282 H 0.56083 0.15949 0.54669
 C283 C 0.62176 0.62738 0.15434
 C284 C 0.65276 0.62632 0.13356
 C285 C 0.65920 0.60078 0.09566
 C286 C 0.63429 0.57707 0.07772
 C287 C 0.73049 0.72514 0.21739
 C288 C 0.59689 0.60392 0.13645
 C289 C 0.67732 0.65226 0.15133
 C290 C 0.69607 0.67503 0.16891
 C291 C 0.71571 0.70216 0.19314
 C292 C 0.60271 0.57892 0.09746
 H293 H 0.61663 0.64690 0.18393
 H294 H 0.68321 0.59968 0.07952
 H295 H 0.63952 0.55821 0.04755
 H296 H 0.57293 0.60600 0.15256
 C297 C 0.87969 -0.13039 0.15180
 C298 C 0.84719 -0.12504 0.13778
 C299 C 0.83955 -0.09753 0.10214
 C300 C 0.86442 -0.07563 0.08056
 C301 C 0.76505 -0.21881 0.22519
 C302 C 0.90446 -0.10872 0.13037
 C303 C 0.82228 -0.14861 0.15994
 C304 C 0.80295 -0.16967 0.17975
 C305 C 0.78188 -0.19565 0.20399
 C306 C 0.89724 -0.08113 0.09433
 H307 H 0.88596 -0.15156 0.17925
 H308 H 0.81446 -0.09316 0.09088
 H309 H 0.85800 -0.05473 0.05290
 H310 H 0.92934 -0.11378 0.14210
 C311 C 0.84364 0.39613 0.59230
 C312 C 0.85141 0.36787 0.62688
 C313 C 0.88351 0.36411 0.64337
 C314 C 0.90791 0.38801 0.62509
 C315 C 0.76771 0.27556 0.71191
 C316 C 0.86812 0.42027 0.57390
 C317 C 0.82682 0.34274 0.64650
 C318 C 0.80743 0.32121 0.66505
 C319 C 0.78576 0.29617 0.68919
 C320 C 0.90061 0.41624 0.58989
 H321 H 0.81877 0.39938 0.57947
 H322 H 0.88976 0.34252 0.67033
 H323 H 0.93258 0.38410 0.63843
 H324 H 0.86170 0.44166 0.54684
 C325 C 0.39441 -0.17960 0.59685
 C326 C 0.38159 -0.17008 0.64215
 C327 C 0.39498 -0.13942 0.66838
 C328 C 0.41933 -0.11655 0.64815
 C329 C 0.27792 -0.23004 0.72385
 C330 C 0.41917 -0.15677 0.57662
 C331 C 0.35303 -0.18901 0.66082
 C332 C 0.32882 -0.20263 0.67858
 C333 C 0.30085 -0.21727 0.70183
 C334 C 0.43074 -0.12400 0.60127
 H335 H 0.38432 -0.20346 0.57634
 H336 H 0.38543 -0.13195 0.70357
 H337 H 0.42798 -0.09165 0.66818
 H338 H 0.42761 -0.16312 0.54062
 C339 C 0.38044 0.36130 0.14232
 C340 C 0.34840 0.36631 0.12603
 C341 C 0.34111 0.39529 0.09225
 C342 C 0.36604 0.41903 0.07452
 C343 C 0.26956 0.27447 0.21886
 C344 C 0.40527 0.38482 0.12475
 C345 C 0.32347 0.34189 0.14572
 C346 C 0.30453 0.32060 0.16548
 C347 C 0.28469 0.29547 0.19246
 C348 C 0.39844 0.41388 0.09050
 H349 H 0.38626 0.33910 0.16871
 H350 H 0.31629 0.39949 0.07963
 H351 H 0.36002 0.44106 0.04806
 H352 H 0.42987 0.38001 0.13791
 C353 C 0.87950 0.13541 -0.15343
 C354 C 0.84698 0.13044 -0.13976
 C355 C 0.83931 0.10358 -0.10347
 C356 C 0.86417 0.08195 -0.08093
 C357 C 0.76511 0.22323 -0.23097
 C358 C 0.90423 0.11404 -0.13106
 C359 C 0.82213 0.15376 -0.16297
 C360 C 0.80288 0.17460 -0.18368
 C361 C 0.78189 0.20031 -0.20896
 C362 C 0.89700 0.08707 -0.09440
 H363 H 0.88582 0.15609 -0.18134
 H364 H 0.81422 0.09951 -0.09243
 H365 H 0.85773 0.06158 -0.05277
 H366 H 0.92913 0.11884 -0.14256
 C367 C 0.84299 0.60988 0.40659
 C368 C 0.85044 0.63706 0.37067
 C369 C 0.88224 0.63971 0.35307
 C370 C 0.90667 0.61582 0.37160
 C371 C 0.76739 0.72917 0.28287
 C372 C 0.86753 0.58574 0.42527
 C373 C 0.82588 0.66226 0.35074
 C374 C 0.80662 0.68382 0.33165
 C375 C 0.78520 0.70879 0.30659
 C376 C 0.89974 0.58871 0.40818
 H377 H 0.81835 0.60749 0.42027
 H378 H 0.88822 0.66044 0.32505
 H379 H 0.93111 0.61888 0.35738
 H380 H 0.86142 0.56524 0.45344
 C381 C 0.39730 0.17606 0.40825
 C382 C 0.37929 0.16512 0.36726
 C383 C 0.38671 0.13059 0.34369
 C384 C 0.41035 0.10583 0.36245
 C385 C 0.27872 0.23282 0.28529
 C386 C 0.42150 0.15124 0.42691
 C387 C 0.35195 0.18731 0.34964
 C388 C 0.32846 0.20299 0.33192
 C389 C 0.30117 0.21927 0.30809
 C390 C 0.42713 0.11505 0.40538
 H391 H 0.39201 0.20303 0.42650
 H392 H 0.37328 0.12201 0.31166
 H393 H 0.41452 0.07856 0.34423
 H394 H 0.43466 0.15948 0.45910
 C395 C 0.37908 0.63877 -0.13913
 C396 C 0.34735 0.63395 -0.12193
 C397 C 0.34051 0.60463 -0.08855
 C398 C 0.36561 0.58044 -0.07199
 C399 C 0.26785 0.72803 -0.21077
 C400 C 0.40411 0.61480 -0.12270
 C401 C 0.32220 0.65895 -0.14018
 C402 C 0.30301 0.68074 -0.15881
 C403 C 0.28295 0.70649 -0.18479
 C404 C 0.39776 0.58550 -0.08870
 H405 H 0.38453 0.66124 -0.16526
 H406 H 0.31592 0.60057 -0.07528
 H407 H 0.35993 0.55821 -0.04573
 H408 H 0.42850 0.61952 -0.13637
 C409 C 1.11890 -0.11998 -0.16142
 C410 C 1.15062 -0.11935 -0.14266
 C411 C 1.15778 -0.09601 -0.10267
 C412 C 1.13310 -0.07397 -0.08103
 C413 C 1.23239 -0.21720 -0.22318
 C414 C 1.09427 -0.09819 -0.13987
 C415 C 1.17506 -0.14418 -0.16359
 C416 C 1.19422 -0.16623 -0.18189
 C417 C 1.21534 -0.19326 -0.20398
 C418 C 1.10092 -0.07526 -0.09903
 H419 H 1.11303 -0.13792 -0.19230
 H420 H 1.18225 -0.09537 -0.08771
 H421 H 1.13903 -0.05675 -0.04957
 H422 H 1.06986 -0.09981 -0.15487
 C423 C 1.15886 0.39809 0.40268
 C424 C 1.15160 0.37412 0.36337
 C425 C 1.12062 0.37542 0.34214
 C426 C 1.09661 0.39959 0.36093
 C427 C 1.23227 0.27545 0.28360
 C428 C 1.13481 0.42254 0.42152
 C429 C 1.17530 0.34737 0.34487
 C430 C 1.19397 0.32439 0.32757
 C431 C 1.21485 0.29759 0.30502
 C432 C 1.10322 0.42297 0.40134
 H433 H 1.18284 0.39736 0.41928
 H434 H 1.11481 0.35714 0.31154
 H435 H 1.07262 0.39930 0.34435
 H436 H 1.14063 0.44010 0.45272
 C437 C 0.60153 -0.13945 0.33108
 C438 C 0.61441 -0.17061 0.35716
 C439 C 0.60064 -0.18094 0.40163
 C440 C 0.57556 -0.15833 0.42137
 C441 C 0.71970 -0.23024 0.27936
 C442 C 0.57690 -0.11677 0.35088
 C443 C 0.64338 -0.18924 0.33932
 C444 C 0.66797 -0.20266 0.32243
 C445 C 0.69640 -0.21726 0.30033
 C446 C 0.56471 -0.12488 0.39721
 H447 H 0.61173 -0.13139 0.29646
 H448 H 0.61025 -0.20527 0.42196
 H449 H 0.56631 -0.16541 0.45671
 H450 H 0.56873 -0.09143 0.33111
 C451 C 0.65855 0.39881 -0.09698
 C452 C 0.65163 0.37440 -0.13597
 C453 C 0.62029 0.37371 -0.15601
 C454 C 0.59562 0.39651 -0.13653
 C455 C 0.72947 0.27839 -0.22452
 C456 C 0.63383 0.42188 -0.07743
 C457 C 0.67603 0.34921 -0.15562
 C458 C 0.69466 0.32710 -0.17460
 C459 C 0.71433 0.30074 -0.19996
 C460 C 0.60196 0.42047 -0.09661
 H461 H 0.68282 0.39959 -0.08135
 H462 H 0.61477 0.35505 -0.18637
 H463 H 0.57144 0.39482 -0.15232
 H464 H 0.63944 0.43998 -0.04664
 C465 C 1.11890 0.12626 -0.16251
 C466 C 1.15091 0.12457 -0.14490
 C467 C 1.15816 0.10087 -0.10509
 C468 C 1.13336 0.07948 -0.08260
 C469 C 1.23382 0.21912 -0.22975
 C470 C 1.09417 0.10511 -0.14013
 C471 C 1.17561 0.14849 -0.16701
 C472 C 1.19502 0.16975 -0.18635
 C473 C 1.21646 0.19588 -0.20963
 C474 C 1.10095 0.08172 -0.09957
 H475 H 1.11293 0.14446 -0.19322
 H476 H 1.18283 0.09938 -0.09100
 H477 H 1.13942 0.06192 -0.05139
 H478 H 1.06959 0.10751 -0.15437
 C479 C 1.15884 0.60745 0.39993
 C480 C 1.15140 0.63105 0.36015
 C481 C 1.12014 0.63000 0.33982
 C482 C 1.09613 0.60637 0.35977
 C483 C 1.23236 0.72693 0.27472
 C484 C 1.13476 0.58355 0.41997
 C485 C 1.17523 0.65706 0.34007
 C486 C 1.19398 0.67937 0.32141
 C487 C 1.21492 0.70541 0.29734
 C488 C 1.10296 0.58326 0.40052
 H489 H 1.18301 0.60798 0.41589
 H490 H 1.11415 0.64797 0.30890
 H491 H 1.07199 0.60677 0.34367
 H492 H 1.14076 0.56624 0.45142
 C493 C 0.60505 0.17083 0.41123
 C494 C 0.62054 0.16131 0.36776
 C495 C 0.61018 0.12899 0.34169
 C496 C 0.58586 0.10504 0.36000
 C497 C 0.72111 0.23051 0.28842
 C498 C 0.58034 0.14683 0.42957
 C499 C 0.64823 0.18275 0.35023
 C500 C 0.67172 0.19858 0.33304
 C501 C 0.69886 0.21578 0.31018
 C502 C 0.57138 0.11293 0.40488
 H503 H 0.61279 0.19594 0.43165
 H504 H 0.62178 0.12142 0.30792
 H505 H 0.57931 0.07931 0.33986
 H506 H 0.56959 0.15357 0.46406
 C507 C 0.62115 0.62773 -0.15287
 C508 C 0.65242 0.62593 -0.13259
 C509 C 0.65897 0.60006 -0.09483
 C510 C 0.63398 0.57668 -0.07663
 C511 C 0.73120 0.72338 -0.21680
 C512 C 0.59620 0.60457 -0.13473
 C513 C 0.67715 0.65147 -0.15068
 C514 C 0.69612 0.67389 -0.16839
 C515 C 0.71609 0.70067 -0.19264
 C516 C 0.60219 0.57916 -0.09596
 H517 H 0.61591 0.64755 -0.18230
 H518 H 0.68316 0.59839 -0.07900
 H519 H 0.63937 0.55751 -0.04665
 H520 H 0.57207 0.60716 -0.15056
 C521 C 0.83951 -0.09828 -0.10092
 C522 C 0.84718 -0.12499 -0.13724
 C523 C 0.87953 -0.12895 -0.15217
 C524 C 0.90415 -0.10686 -0.13085
 C525 C 0.76602 -0.22066 -0.22426
 C526 C 0.86425 -0.07593 -0.07943
 C527 C 0.82251 -0.14923 -0.15914
 C528 C 0.80343 -0.17080 -0.17882
 C529 C 0.78265 -0.19726 -0.20302
 C530 C 0.89696 -0.08017 -0.09399
 H531 H 0.81454 -0.09495 -0.08898
 H532 H 0.88583 -0.14945 -0.18019
 H533 H 0.92894 -0.11096 -0.14320
 H534 H 0.85785 -0.05577 -0.05112
 C535 C 0.84337 0.39516 0.40834
 C536 C 0.85085 0.36761 0.37300
 C537 C 0.88255 0.36521 0.35494
 C538 C 0.90687 0.38966 0.37251
 C539 C 0.76778 0.27302 0.28991
 C540 C 0.86778 0.41985 0.42603
 C541 C 0.82640 0.34172 0.35429
 C542 C 0.80716 0.31959 0.33634
 C543 C 0.78567 0.29395 0.31260
 C544 C 0.89991 0.41709 0.40857
 H545 H 0.81882 0.39736 0.42241
 H546 H 0.88857 0.34418 0.32740
 H547 H 0.93125 0.38671 0.35807
 H548 H 0.86164 0.44056 0.45383
 C549 C 0.39066 -0.13687 0.33232
 C550 C 0.37864 -0.16875 0.35775
 C551 C 0.39289 -0.17916 0.40208
 C552 C 0.41781 -0.15625 0.42209
 C553 C 0.27635 -0.23258 0.27483
 C554 C 0.41516 -0.11394 0.35234
 C555 C 0.35036 -0.18855 0.33895
 C556 C 0.32643 -0.20304 0.32098
 C557 C 0.29886 -0.21884 0.29734
 C558 C 0.42817 -0.12250 0.39824
 H559 H 0.38008 -0.12869 0.29785
 H560 H 0.38390 -0.20396 0.42198
 H561 H 0.42747 -0.16353 0.45730
 H562 H 0.42282 -0.08828 0.33288
 C563 C 0.34087 0.39491 -0.09162
 C564 C 0.34821 0.36648 -0.12587
 C565 C 0.38018 0.36216 -0.14224
 C566 C 0.40490 0.38576 -0.12429
 C567 C 0.27013 0.27314 -0.21868
 C568 C 0.36571 0.41874 -0.07349
 C569 C 0.32344 0.34174 -0.14572
 C570 C 0.30472 0.32011 -0.16555
 C571 C 0.28512 0.29453 -0.19247
 C572 C 0.39806 0.41423 -0.08952
 H573 H 0.31611 0.39857 -0.07889
 H574 H 0.38605 0.34038 -0.16895
 H575 H 0.42945 0.38142 -0.13753
 H576 H 0.35968 0.44030 -0.04664
 C577 C 1.15802 -0.09884 0.10323
 C578 C 1.15102 -0.12305 0.14255
 C579 C 1.11937 -0.12380 0.16124
 C580 C 1.09472 -0.10128 0.14034
 C581 C 1.23344 -0.22160 0.22316
 C582 C 1.13331 -0.07607 0.08224
 C583 C 1.17558 -0.14835 0.16312
 C584 C 1.19488 -0.17062 0.18128
 C585 C 1.21621 -0.19774 0.20351
 C586 C 1.10122 -0.07743 0.10019
 H587 H 1.18240 -0.09800 0.08832
 H588 H 1.11359 -0.14234 0.19163
 H589 H 1.07041 -0.10302 0.15532
 H590 H 1.13915 -0.05818 0.05131
 C591 C 1.15932 0.39632 0.59501
 C592 C 1.15225 0.37215 0.63428
 C593 C 1.12140 0.37347 0.65548
 C594 C 1.09735 0.39788 0.63678
 C595 C 1.23296 0.27344 0.71590
 C596 C 1.13521 0.42100 0.57624
 C597 C 1.17604 0.34531 0.65297
 C598 C 1.19475 0.32230 0.67063
 C599 C 1.21561 0.29550 0.69379
 C600 C 1.10375 0.42149 0.59645
 H601 H 1.18320 0.39561 0.57843
 H602 H 1.11573 0.35508 0.68606
 H603 H 1.07349 0.39764 0.65343
 H604 H 1.14087 0.43873 0.54511
 C605 C 0.60309 -0.14116 0.66602
 C606 C 0.61648 -0.17164 0.63962
 C607 C 0.60331 -0.18111 0.59431
 C608 C 0.57826 -0.15835 0.57426
 C609 C 0.72103 -0.23209 0.72045
 C610 C 0.57845 -0.11838 0.64595
 C611 C 0.64531 -0.19048 0.65814
 C612 C 0.66973 -0.20411 0.67574
 C613 C 0.69794 -0.21895 0.69872
 C614 C 0.56674 -0.12569 0.59903
 H615 H 0.61287 -0.13372 0.70121
 H616 H 0.61337 -0.20484 0.57365
 H617 H 0.56957 -0.16463 0.53831
 H618 H 0.56985 -0.09355 0.66608
 C619 C 0.65852 0.39767 0.09875
 C620 C 0.65190 0.37345 0.13809
 C621 C 0.62083 0.37329 0.15867
 C622 C 0.59613 0.39639 0.13938
 C623 C 0.72963 0.27592 0.22581
 C624 C 0.63377 0.42105 0.07939
 C625 C 0.67624 0.34778 0.15743
 C626 C 0.69481 0.32528 0.17618
 C627 C 0.71445 0.29852 0.20133
 C628 C 0.60216 0.42014 0.09911
 H629 H 0.68255 0.39798 0.08259
 H630 H 0.61551 0.35471 0.18922
 H631 H 0.57214 0.39509 0.15553
 H632 H 0.63912 0.43890 0.04824
 C633 C 0.83973 0.10258 0.10521
 C634 C 0.84750 0.12919 0.14167
 C635 C 0.88003 0.13405 0.15571
 C636 C 0.90471 0.11278 0.13351
 C637 C 0.76561 0.22107 0.23241
 C638 C 0.86452 0.08108 0.08284
 C639 C 0.82270 0.15234 0.16472
 C640 C 0.80348 0.17299 0.18532
 C641 C 0.78247 0.19844 0.21047
 C642 C 0.89737 0.08608 0.09666
 H643 H 0.81461 0.09861 0.09391
 H644 H 0.88641 0.15454 0.18378
 H645 H 0.92962 0.11748 0.14528
 H646 H 0.85801 0.06089 0.05454
 C647 C 0.84367 0.60854 0.59478
 C648 C 0.85146 0.63552 0.63074
 C649 C 0.88347 0.63817 0.64792
 C650 C 0.90776 0.61451 0.62895
 C651 C 0.76860 0.72709 0.71858
 C652 C 0.86806 0.58463 0.57565
 C653 C 0.82704 0.66052 0.65103
 C654 C 0.80785 0.68191 0.67023
 C655 C 0.78645 0.70674 0.69519
 C656 C 0.90047 0.58763 0.59231
 H657 H 0.81887 0.60612 0.58141
 H658 H 0.88973 0.65875 0.67596
 H659 H 0.93236 0.61759 0.64286
 H660 H 0.86166 0.56429 0.54748
 C661 C 0.38931 0.12898 0.66005
 C662 C 0.37981 0.16240 0.63524
 C663 C 0.39594 0.17288 0.59257
 C664 C 0.42031 0.14869 0.57361
 C665 C 0.27924 0.23031 0.71622
 C666 C 0.41318 0.10482 0.64102
 C667 C 0.35228 0.18393 0.65319
 C668 C 0.32882 0.19955 0.67077
 C669 C 0.30161 0.21622 0.69409
 C670 C 0.42813 0.11359 0.59667
 H671 H 0.37732 0.12074 0.69332
 H672 H 0.38899 0.19892 0.57322
 H673 H 0.43174 0.15637 0.53995
 H674 H 0.41898 0.07827 0.66014
 C675 C 0.34084 0.60445 0.09086
 C676 C 0.34793 0.63374 0.12414
 C677 C 0.37990 0.63873 0.14076
 C678 C 0.40484 0.61496 0.12393
 C679 C 0.26783 0.72686 0.21300
 C680 C 0.36586 0.58047 0.07390
 C681 C 0.32281 0.65854 0.14278
 C682 C 0.30356 0.68007 0.16149
 C683 C 0.28324 0.70552 0.18730
 C684 C 0.39821 0.58564 0.09011
 H685 H 0.31610 0.60022 0.07799
 H686 H 0.38560 0.66116 0.16676
 H687 H 0.42939 0.61984 0.13721
 H688 H 0.35995 0.55825 0.04778
   
