data_POSCAR
  _audit_creation_date              2014-09-24
  _audit_creation_method            'ToBaCCo'
  _symmetry_space_group_name_H-M    'P1'
  _symmetry_Int_Tables_number       1
  _symmetry_cell_setting            triclinic
  loop_
  _symmetry_equiv_pos_as_xyz
 x,y,z
_cell_length_a 25.4533
_cell_length_b 26.5903
_cell_length_c 26.4119
_cell_angle_alpha 88.960200
_cell_angle_beta 88.576900
_cell_angle_gamma 90.441700
loop_
  _atom_site_label
  _atom_site_type_symbol
  _atom_site_fract_x
  _atom_site_fract_y
  _atom_site_fract_z
C1 C 0.29069 0.37322 1.35225
 N2 N 0.30698 0.33393 1.38138
 C3 C 0.35006 0.30742 1.36778
 N4 N 0.37686 0.32005 1.32426
 C5 C 0.36128 0.35912 1.29482
 N6 N 0.31806 0.38583 1.30888
 C7 C 1.17764 0.63338 0.86649
 N8 N 1.14522 0.61861 0.82948
 C9 C 1.09994 0.64361 0.82034
 N10 N 1.08705 0.68425 0.84880
 C11 C 1.11912 0.69936 0.88645
 N12 N 1.16431 0.67378 0.89482
 C13 C 0.65926 -0.13095 0.10786
 N14 N 0.63287 -0.17017 0.08809
 C15 C 0.58847 -0.18863 0.11134
 N16 N 0.57042 -0.16764 0.15448
 C17 C 0.59676 -0.12921 0.17537
 N18 N 0.64147 -0.11076 0.15217
 C19 C -0.15009 1.10147 -0.36359
 N20 N -0.13374 1.14969 -0.37336
 C21 C -0.09749 1.17148 -0.34318
 N22 N -0.07946 1.14517 -0.30255
 C23 C -0.09628 1.09723 -0.29284
 N24 N -0.13087 1.07567 -0.32374
 C25 C 0.64141 0.60761 0.58999
 N26 N 0.61485 0.59404 0.63307
 C27 C 0.57809 0.62483 0.65358
 N28 N 0.56797 0.66979 0.63043
 C29 C 0.59411 0.68323 0.58645
 N30 N 0.63072 0.65198 0.56661
 C31 C 0.81925 0.38826 0.12927
 N32 N 0.83520 0.34379 0.10927
 C33 C 0.87808 0.31965 0.12733
 N34 N 0.90502 0.34036 0.16566
 C35 C 0.88973 0.38452 0.18607
 N36 N 0.84690 0.40851 0.16765
 C37 C 0.29602 0.14492 0.86712
 N38 N 0.30751 0.11915 0.82435
 C39 C 0.35345 0.12834 0.79832
 N40 N 0.38809 0.16281 0.81587
 C41 C 0.37637 0.18872 0.85837
 N42 N 0.32998 0.18005 0.88340
 C43 C 0.23749 0.82858 0.37679
 N44 N 0.22643 0.85601 0.33440
 C45 C 0.18900 0.84029 0.30261
 N46 N 0.16249 0.79678 0.31303
 C47 C 0.17254 0.76912 0.35522
 N48 N 0.21039 0.78501 0.38711
 Zn49 Zn 0.05649 0.95891 0.03960
 Zn50 Zn -0.05022 0.97574 -0.00220
 Zn51 Zn -0.02547 1.00963 0.10304
 Zn52 Zn 0.02187 1.06366 0.01540
 O53 O 0.00046 1.00172 0.03875
 O54 O 0.04705 0.90379 0.00210
 O55 O -0.11232 0.96559 0.03200
 O56 O 0.00859 0.97296 0.14865
 O57 O -0.03166 0.91602 -0.02935
 O58 O 0.07097 0.93681 0.10223
 O59 O -0.09197 0.99034 0.10892
 O60 O 0.00753 1.11438 0.05724
 O61 O -0.06251 1.01705 -0.05583
 O62 O -0.02593 1.07360 0.12424
 O63 O -0.00975 1.08136 -0.04036
 O64 O 0.08995 1.06559 -0.00237
 O65 O 0.11513 0.98743 0.01357
 C66 C 0.00969 0.88980 -0.02553
 C67 C -0.12475 0.97316 0.07828
 C68 C 0.04794 0.94427 0.14462
 C69 C -0.01344 1.11437 0.10125
 C70 C -0.04301 1.06006 -0.06755
 C71 C 0.12455 1.03144 -0.00371
 Zn72 Zn 0.46187 0.05032 0.50475
 Zn73 Zn 0.56546 0.05983 0.44921
 Zn74 Zn 0.56042 0.01230 0.55085
 Zn75 Zn 0.51489 -0.04114 0.46425
 O76 O 0.52533 0.02027 0.49226
 O77 O 0.45582 0.10850 0.46991
 O78 O 0.62381 0.08335 0.47605
 O79 O 0.52733 0.04121 0.60236
 O80 O 0.53161 0.11331 0.42704
 O81 O 0.45130 0.06503 0.57084
 O82 O 0.62469 0.04057 0.54858
 O83 O 0.53377 -0.09206 0.50509
 O84 O 0.58715 0.02797 0.39426
 O85 O 0.56645 -0.05222 0.57030
 O86 O 0.55014 -0.04729 0.40478
 O87 O 0.44712 -0.05330 0.45170
 O88 O 0.40736 0.01302 0.48424
 C89 C 0.48662 0.13045 0.43787
 C90 C 0.64591 0.07146 0.51681
 C91 C 0.48253 0.06107 0.60758
 C92 C 0.55323 -0.09255 0.54892
 C93 C 0.57873 -0.01614 0.37916
 C94 C 0.40571 -0.02860 0.46147
 Zn95 Zn 1.02001 0.50438 0.45248
 Zn96 Zn 1.01691 0.44958 0.55439
 Zn97 Zn 0.98252 0.55613 0.54616
 Zn98 Zn 0.91808 0.47476 0.50186
 O99 O 0.98463 0.49604 0.51369
 O100 O 1.07486 0.46346 0.44834
 O101 O 1.03646 0.47518 0.61442
 O102 O 1.02277 0.60299 0.51514
 O103 O 1.07515 0.42554 0.52392
 O104 O 1.04895 0.56637 0.44432
 O105 O 1.00712 0.55315 0.60906
 O106 O 0.86990 0.51741 0.52422
 O107 O 0.97603 0.39492 0.56894
 O108 O 0.91760 0.58102 0.55145
 O109 O 0.90298 0.41411 0.52938
 O110 O 0.90493 0.46977 0.43614
 O111 O 0.98010 0.49160 0.39773
 C112 C 1.09519 0.43323 0.47989
 C113 C 1.03002 0.51845 0.63336
 C114 C 1.04928 0.60358 0.47391
 C115 C 0.87350 0.56121 0.54210
 C116 C 0.92962 0.38386 0.55590
 C117 C 0.93232 0.47735 0.39602
 Zn118 Zn 0.46209 0.49801 0.92666
 Zn119 Zn 0.47146 0.54600 1.02522
 Zn120 Zn 0.49855 0.43708 1.01634
 Zn121 Zn 0.56901 0.51400 0.96884
 O122 O 0.50022 0.49859 0.98435
 O123 O 0.40617 0.53912 0.92691
 O124 O 0.45067 0.52110 1.08563
 O125 O 0.46420 0.39115 0.98031
 O126 O 0.41360 0.57487 1.00100
 O127 O 0.43531 0.43741 0.91600
 O128 O 0.46514 0.43951 1.07715
 O129 O 0.61585 0.47140 0.99657
 O130 O 0.51552 0.59687 1.03404
 O131 O 0.56297 0.41213 1.02902
 O132 O 0.58673 0.57468 0.99020
 O133 O 0.58170 0.51745 0.90180
 O134 O 0.50109 0.51489 0.87160
 C135 C 0.38938 0.56920 0.96019
 C136 C 0.44756 0.47624 1.10256
 C137 C 0.43847 0.39584 0.93988
 C138 C 0.60887 0.43009 1.02083
 C139 C 0.56151 0.60616 1.01647
 C140 C 0.55038 0.52083 0.86521
 C141 C 1.24578 0.39999 0.36613
 C142 C 1.21763 0.38892 0.40852
 C143 C 1.16972 0.41658 0.42192
 C144 C 1.14337 0.40641 0.46540
 H145 H 1.22966 0.35884 0.43389
 H146 H 1.15600 0.44547 0.39605
 H147 H 1.23336 0.43049 0.34148
 H148 H 1.15786 0.37804 0.49143
 C149 C 0.22446 0.60714 0.87386
 C150 C 0.25928 0.61874 0.90921
 C151 C 0.30822 0.58965 0.91454
 C152 C 0.34099 0.59839 0.95232
 H153 H 0.25179 0.64958 0.93464
 H154 H 0.31704 0.56025 0.88779
 H155 H 0.23279 0.57579 0.84928
 H156 H 0.33122 0.62705 0.97960
 C157 C -0.29479 0.88608 0.08294
 C158 C -0.26379 0.92199 0.10083
 C159 C -0.21339 0.93500 0.07498
 C160 C -0.17794 0.96241 0.09873
 H161 H -0.27406 0.94015 0.13613
 H162 H -0.20414 0.91995 0.03797
 H163 H -0.28304 0.86781 0.04809
 H164 H -0.18721 0.97549 0.13656
 C165 C 0.80809 0.07701 0.60854
 C166 C 0.77663 0.10086 0.57678
 C167 C 0.72858 0.07500 0.56123
 C168 C 0.69662 0.09517 0.52752
 H169 H 0.78389 0.13982 0.56578
 H170 H 0.71807 0.03920 0.57927
 H171 H 0.79939 0.03811 0.61900
 H172 H 0.70763 0.12986 0.50768
 C173 C 0.36574 0.26730 0.39834
 C174 C 0.40937 0.24144 0.38820
 C175 C 0.42439 0.19823 0.41976
 C176 C 0.47046 0.17619 0.41104
 H177 H 0.43460 0.25189 0.35593
 H178 H 0.39753 0.18390 0.44919
 H179 H 0.34169 0.25715 0.43150
 H180 H 0.49709 0.19148 0.38187
 C181 C 0.92176 0.22034 0.64723
 C182 C 0.90432 0.25080 0.61040
 C183 C 0.92814 0.30115 0.60096
 C184 C 0.90578 0.33451 0.56984
 H185 H 0.87244 0.23875 0.58685
 H186 H 0.96451 0.31072 0.61915
 H187 H 0.95244 0.23411 0.67130
 H188 H 0.86871 0.32495 0.55293
 C189 C 0.10774 0.74121 -0.08355
 C190 C 0.06443 0.76960 -0.08692
 C191 C 0.05785 0.81429 -0.05443
 C192 C 0.01467 0.84301 -0.05517
 H193 H 0.03437 0.76056 -0.11374
 H194 H 0.08973 0.82443 -0.03003
 H195 H 0.13651 0.75118 -0.05573
 H196 H -0.01729 0.83289 -0.07945
 C197 C 0.56320 0.76882 1.09418
 C198 C 0.58427 0.73954 1.05878
 C199 C 0.55930 0.69133 1.04843
 C200 C 0.58606 0.65494 1.02571
 H201 H 0.62182 0.74891 1.04053
 H202 H 0.51903 0.68488 1.06151
 H203 H 0.52701 0.75693 1.11364
 H204 H 0.62645 0.66130 1.01303
 C205 C 0.39077 0.37015 1.24731
 C206 C 0.38739 0.41373 1.22187
 C207 C 0.41748 0.42182 1.17404
 C208 C 0.42119 0.46737 1.15218
 H209 H 0.36273 0.44352 1.23641
 H210 H 0.43640 0.38999 1.15633
 H211 H 0.41732 0.34154 1.23342
 H212 H 0.40306 0.49918 1.17065
 C213 C 0.57752 -0.11164 0.22467
 C214 C 0.60340 -0.07921 0.25285
 C215 C 0.58243 -0.06766 0.30361
 C216 C 0.60210 -0.03019 0.33013
 H217 H 0.63976 -0.06185 0.23892
 H218 H 0.54906 -0.08915 0.31887
 H219 H 0.54112 -0.12830 0.23951
 H220 H 0.63380 -0.00711 0.31398
 C221 C -0.08179 1.06925 -0.24709
 C222 C -0.07309 1.09234 -0.20385
 C223 C -0.06655 1.06319 -0.15668
 C224 C -0.05736 1.08689 -0.11390
 H225 H -0.07284 1.13311 -0.20283
 H226 H -0.06718 1.02241 -0.15724
 H227 H -0.08461 1.02854 -0.24741
 H228 H -0.05403 1.12760 -0.11437
 C229 C 1.06657 0.62843 0.77788
 C230 C 1.07412 0.58525 0.75310
 C231 C 1.04531 0.57323 0.70677
 C232 C 1.05186 0.52903 0.68358
 H233 H 1.10357 0.55902 0.76592
 H234 H 1.02047 0.60176 0.69024
 H235 H 1.03620 0.65401 0.76582
 H236 H 1.07619 0.50049 0.70079
 C237 C 0.68565 0.57718 0.57267
 C238 C 0.73083 0.59927 0.55807
 C239 C 0.77794 0.56941 0.54845
 C240 C 0.82563 0.59023 0.55143
 H241 H 0.73411 0.63999 0.55695
 H242 H 0.77355 0.52970 0.54069
 H243 H 0.68353 0.53671 0.57823
 H244 H 0.82965 0.62944 0.56134
 C245 C 0.77546 0.41401 1.11057
 C246 C 0.74213 0.39465 1.07711
 C247 C 0.69734 0.42420 1.05774
 C248 C 0.65456 0.40164 1.03954
 H249 H 0.74693 0.35635 1.06449
 H250 H 0.69877 0.46487 1.05980
 H251 H 0.76770 0.45126 1.12493
 H252 H 0.65149 0.36097 1.04129
 C253 C 0.24673 1.13647 -0.10446
 C254 C 0.23335 1.09107 -0.08619
 C255 C 0.18535 1.08436 -0.05477
 C256 C 0.17576 1.04160 -0.02884
 H257 H 0.25853 1.05915 -0.09349
 H258 H 0.15679 1.11441 -0.05411
 H259 H 0.22378 1.16901 -0.09396
 H260 H 0.20452 1.01173 -0.02958
 C261 C 0.27732 -0.15583 0.40879
 C262 C 0.29896 -0.10969 0.40498
 C263 C 0.34524 -0.09515 0.43392
 C264 C 0.35493 -0.04667 0.44309
 H265 H 0.28309 -0.08179 0.37921
 H266 H 0.37288 -0.12383 0.44518
 H267 H 0.29068 -0.18185 0.43772
 H268 H 0.32550 -0.01875 0.43445
 C269 C 0.58567 -0.27100 0.56153
 C270 C 0.56076 -0.23235 0.58262
 C271 C 0.55612 -0.18480 0.55384
 C272 C 0.55913 -0.14057 0.57670
 H273 H 0.54680 -0.23445 0.62173
 H274 H 0.55242 -0.18615 0.51307
 H275 H 0.60342 -0.26565 0.52400
 H276 H 0.56619 -0.13950 0.61698
 C277 C 1.14288 0.72540 0.36478
 C278 C 1.14103 0.70090 0.40938
 C279 C 1.10595 0.65694 0.41731
 C280 C 1.08279 0.64795 0.46247
 H281 H 1.16248 0.71504 0.44119
 H282 H 1.09778 0.63290 0.38568
 H283 H 1.11741 0.71266 0.33517
 H284 H 1.08903 0.67411 0.49282
 C285 C -0.10562 1.27435 0.10580
 C286 C -0.06689 1.24601 0.12465
 C287 C -0.05032 1.19913 0.09991
 C288 C -0.02582 1.16251 0.12540
 H289 H -0.04785 1.25655 0.15920
 H290 H -0.06040 1.19351 0.06074
 H291 H -0.12598 1.26139 0.07282
 H292 H -0.01981 1.16596 0.16567
 C293 C 0.41256 0.22746 0.87623
 C294 C 0.39395 0.26614 0.90245
 C295 C 0.42785 0.30687 0.91950
 C296 C 0.40864 0.35324 0.92122
 H297 H 0.35193 0.26959 0.90929
 H298 H 0.46811 0.29937 0.92958
 H299 H 0.45390 0.22579 0.86561
 H300 H 0.36992 0.36077 0.90673
 C301 C 0.55135 0.61038 0.70188
 C302 C 0.57002 0.57335 0.73124
 C303 C 0.54537 0.55936 0.78043
 C304 C 0.57222 0.53279 0.81446
 H305 H 0.60555 0.55391 0.71978
 H306 H 0.50612 0.57249 0.78966
 H307 H 0.51732 0.63151 0.71438
 H308 H 0.61275 0.52287 0.80626
 C309 C 0.36356 0.10362 0.74957
 C310 C 0.40996 0.10787 0.72511
 C311 C 0.41939 0.08634 0.67479
 C312 C 0.46866 0.08094 0.65756
 H313 H 0.44205 0.12769 0.74249
 H314 H 0.38657 0.07467 0.65227
 H315 H 0.33201 0.08231 0.73307
 H316 H 0.50090 0.09011 0.68197
 C317 C 0.17666 0.87064 0.25755
 C318 C 0.12787 0.87164 0.24032
 C319 C 0.11434 0.90153 0.19536
 C320 C 0.06525 0.91766 0.19023
 H321 H 0.09671 0.85109 0.26064
 H322 H 0.14436 0.91044 0.16669
 H323 H 0.20714 0.89417 0.23989
 H324 H 0.03659 0.91143 0.22082
 C325 C 0.92041 0.40509 0.22794
 C326 C 0.90110 0.43803 0.26112
 C327 C 0.93132 0.45239 0.30597
 C328 C 0.90641 0.46926 0.34739
 H329 H 0.86129 0.45155 0.25737
 H330 H 0.97320 0.44534 0.30663
 H331 H 0.95906 0.38952 0.23389
 H332 H 0.86396 0.47249 0.34734
   
