data_POSCAR
  _audit_creation_date              2014-09-24
  _audit_creation_method            'ToBaCCo'
  _symmetry_space_group_name_H-M    'P1'
  _symmetry_Int_Tables_number       1
  _symmetry_cell_setting            triclinic
  loop_
  _symmetry_equiv_pos_as_xyz
 x,y,z
_cell_length_a 28.9081
_cell_length_b 28.8835
_cell_length_c 53.1041
_cell_angle_alpha 85.517000
_cell_angle_beta 89.546100
_cell_angle_gamma 90.136200
loop_
  _atom_site_label
  _atom_site_type_symbol
  _atom_site_fract_x
  _atom_site_fract_y
  _atom_site_fract_z
C1 C -0.00966 0.62333 1.00136
 C2 C 0.00091 0.59666 1.02388
 C3 C 0.00711 0.54851 1.02285
 C4 C -0.00230 0.52642 1.00066
 C5 C -0.01462 0.55426 0.97872
 C6 C -0.01667 0.60306 0.97839
 C7 C -0.00133 0.47437 1.00064
 C8 C 0.00559 0.45259 0.97798
 C9 C 0.00250 0.40417 0.97760
 C10 C -0.00392 0.37683 1.00030
 C11 C -0.00894 0.39725 1.02322
 C12 C -0.00894 0.44584 1.02316
 H13 H -0.00847 0.66070 1.00155
 H14 H 0.01694 0.52790 1.03976
 H15 H -0.02490 0.53782 0.96207
 H16 H 0.01244 0.47291 0.96037
 H17 H -0.00414 0.33934 1.00011
 H18 H -0.01613 0.46082 1.04079
 C19 C 0.38336 -0.02259 0.50302
 C20 C 0.40807 -0.01287 0.52455
 C21 C 0.45657 -0.01191 0.52352
 C22 C 0.48095 -0.02302 0.50161
 C23 C 0.45497 -0.03509 0.48063
 C24 C 0.40648 -0.03296 0.48090
 C25 C 0.53285 -0.01910 0.50016
 C26 C 0.55558 -0.01002 0.47663
 C27 C 0.60373 -0.00301 0.47497
 C28 C 0.62874 -0.00287 0.49757
 C29 C 0.60741 -0.01092 0.52142
 C30 C 0.55978 -0.02144 0.52232
 H31 H 0.34586 -0.02251 0.50347
 H32 H 0.47464 -0.00073 0.53971
 H33 H 0.47195 -0.04474 0.46362
 H34 H 0.53567 -0.00561 0.45951
 H35 H 0.66606 -0.00040 0.49666
 H36 H 0.54323 -0.02909 0.54043
 C37 C 0.09599 -0.00030 0.26682
 H38 H 0.08724 0.02833 0.25343
 C39 C 0.13400 0.00360 0.28258
 H40 H 0.15432 0.03526 0.28105
 C41 C 0.07967 -0.07575 0.28561
 H42 H 0.05745 -0.10605 0.28710
 C43 C 0.11744 -0.07336 0.30171
 H44 H 0.12393 -0.10196 0.31564
 N45 N 0.06870 -0.03883 0.26928
 C46 C -0.03398 -0.12012 0.23600
 H47 H -0.06321 -0.10934 0.24685
 C48 C -0.03934 -0.15611 0.22016
 H49 H -0.07274 -0.17285 0.21903
 C50 C 0.04438 -0.11014 0.22317
 H51 H 0.07641 -0.09084 0.22379
 C52 C 0.04065 -0.14623 0.20726
 H53 H 0.07000 -0.15450 0.19565
 Zn54 Zn 0.01144 -0.04039 0.25219
 N55 N 0.00692 -0.09685 0.23647
 C56 C 0.00436 0.00090 0.20237
 N57 N 0.00670 0.00979 0.22710
 C58 C 0.00211 0.05375 0.23431
 C59 C -0.00503 0.09091 0.21627
 C60 C -0.00276 0.03691 0.18378
 C61 C -0.08147 -0.02661 0.26698
 C62 C -0.11732 -0.01720 0.28368
 C63 C -0.06228 -0.02261 0.31775
 C64 C -0.02767 -0.03198 0.30049
 N65 N -0.03764 -0.03380 0.27561
 H66 H 0.00730 -0.03421 0.19695
 H67 H 0.00313 0.05977 0.25415
 H68 H -0.00943 0.12555 0.22236
 H69 H -0.00422 0.02904 0.16419
 H70 H -0.08834 -0.02695 0.24700
 H71 H -0.15180 -0.01060 0.27646
 H72 H -0.05348 -0.02133 0.33747
 H73 H 0.00733 -0.03669 0.30705
 C74 C -0.00213 -0.16846 0.20493
 C75 C 0.14418 -0.03262 0.30089
 C76 C -0.10768 -0.01447 0.30939
 C77 C -0.00799 0.08258 0.19062
 C78 C -0.04248 0.11008 0.76941
 H79 H -0.07182 0.09937 0.75888
 C80 C -0.04793 0.14529 0.78578
 H81 H -0.08150 0.16134 0.78753
 C82 C 0.03659 0.10234 0.78021
 H83 H 0.06949 0.08530 0.77804
 C84 C 0.03271 0.13743 0.79674
 H85 H 0.06258 0.14644 0.80754
 N86 N -0.00100 0.08841 0.76748
 C87 C 0.08535 -0.00015 0.72612
 H88 H 0.07305 -0.03337 0.73438
 C89 C 0.12256 0.00176 0.70909
 H90 H 0.13875 -0.03025 0.70439
 C91 C 0.07637 0.08156 0.72043
 H92 H 0.05711 0.11231 0.72429
 C93 C 0.11334 0.08506 0.70334
 H94 H 0.12297 0.11883 0.69456
 Zn95 Zn 0.00545 0.03545 0.74856
 N96 N 0.06260 0.03934 0.73101
 C97 C -0.03075 0.03876 0.69951
 N98 N -0.04269 0.03333 0.72439
 C99 C -0.08763 0.02652 0.73170
 C100 C -0.12267 0.02643 0.71365
 C101 C -0.06449 0.03896 0.68094
 C102 C 0.02841 -0.01831 0.79292
 C103 C 0.02337 -0.05406 0.81194
 C104 C -0.02983 -0.09221 0.78542
 C105 C -0.02431 -0.05523 0.76697
 N106 N 0.00357 -0.01865 0.77130
 H107 H 0.00502 0.04330 0.69388
 H108 H -0.09632 0.02143 0.75158
 H109 H -0.15833 0.02200 0.71978
 H110 H -0.05404 0.04333 0.66127
 H111 H 0.05099 0.01051 0.79587
 H112 H 0.04217 -0.05243 0.82942
 H113 H -0.05330 -0.12037 0.78215
 H114 H -0.04316 -0.05531 0.74949
 C115 C 0.13607 0.04467 0.69690
 C116 C -0.01030 0.15858 0.80017
 C117 C -0.00681 -0.09103 0.80850
 C118 C -0.11122 0.03339 0.68788
 C119 C 0.03697 -0.37583 0.08884
 C120 C 0.00956 -0.33646 0.09287
 C121 C -0.02216 -0.32154 0.07377
 C122 C -0.02403 -0.34333 0.05114
 C123 C 0.00408 -0.38176 0.04694
 C124 C 0.03386 -0.39824 0.06646
 C125 C -0.05218 -0.28488 0.07724
 C126 C -0.05170 -0.26254 0.09938
 C127 C -0.02008 -0.27518 0.11882
 C128 C 0.01220 -0.31162 0.11515
 C129 C 0.04689 -0.32082 0.13343
 C130 C 0.05019 -0.29512 0.15444
 C131 C 0.01815 -0.26043 0.15860
 C132 C -0.01849 -0.25118 0.14135
 C133 C -0.05198 -0.21801 0.14733
 C134 C -0.04728 -0.19283 0.16849
 C135 C -0.00932 -0.19981 0.18451
 C136 C 0.02291 -0.23430 0.17972
 H137 H 0.06072 -0.39062 0.10277
 H138 H -0.04935 -0.33130 0.03718
 H139 H 0.05658 -0.42737 0.06420
 H140 H -0.07652 -0.27332 0.06266
 H141 H -0.07551 -0.23408 0.10023
 H142 H 0.07332 -0.34657 0.13151
 H143 H 0.07818 -0.30254 0.16760
 H144 H -0.08238 -0.21076 0.13612
 H145 H -0.07278 -0.16653 0.17185
 H146 H 0.05192 -0.24048 0.19235
 C147 C 0.01371 0.34631 0.08986
 C148 C -0.01200 0.30431 0.09114
 C149 C -0.03997 0.29589 0.07014
 C150 C -0.04042 0.32729 0.04859
 C151 C -0.01296 0.36741 0.04720
 C152 C 0.01320 0.37713 0.06823
 C153 C -0.06658 0.25562 0.07039
 C154 C -0.06480 0.22226 0.09058
 C155 C -0.03595 0.22770 0.11150
 C156 C -0.00999 0.26992 0.11210
 C157 C 0.01788 0.27584 0.13335
 C158 C 0.02179 0.24118 0.15285
 C159 C -0.00181 0.19919 0.15209
 C160 C -0.03152 0.19195 0.13161
 C161 C -0.05466 0.14862 0.13189
 C162 C -0.04746 0.11391 0.15119
 C163 C -0.01720 0.12088 0.17100
 C164 C 0.00491 0.16401 0.17155
 H165 H 0.03548 0.35605 0.10493
 H166 H -0.06153 0.31997 0.03257
 H167 H 0.03481 0.40790 0.06760
 H168 H -0.08851 0.24937 0.05452
 H169 H -0.08630 0.19220 0.08897
 H170 H 0.03773 0.30684 0.13546
 H171 H 0.04418 0.24710 0.16857
 H172 H -0.07814 0.13992 0.11735
 H173 H -0.06577 0.08125 0.15058
 H174 H 0.02859 0.16971 0.18674
 C175 C 0.37055 -0.01989 0.59325
 C176 C 0.33010 0.00784 0.59261
 C177 C 0.31810 0.03144 0.56915
 C178 C 0.34424 0.02548 0.54725
 C179 C 0.38294 -0.00361 0.54809
 C180 C 0.39637 -0.02542 0.57133
 C181 C 0.27960 0.06034 0.56746
 C182 C 0.25182 0.06579 0.58841
 C183 C 0.26106 0.04190 0.61206
 C184 C 0.30088 0.01244 0.61423
 C185 C 0.30939 -0.01239 0.63771
 C186 C 0.27964 -0.00952 0.65819
 C187 C 0.24050 0.01856 0.65632
 C188 C 0.23109 0.04549 0.63344
 C189 C 0.19150 0.07433 0.63286
 C190 C 0.16178 0.07471 0.65365
 C191 C 0.17034 0.04675 0.67585
 C192 C 0.21023 0.01922 0.67716
 H193 H 0.38313 -0.03813 0.61027
 H194 H 0.33423 0.04328 0.52940
 H195 H 0.42629 -0.04797 0.57245
 H196 H 0.27051 0.07872 0.54960
 H197 H 0.22259 0.08838 0.58516
 H198 H 0.33836 -0.03541 0.64083
 H199 H 0.28719 -0.02995 0.67567
 H200 H 0.18202 0.09681 0.61662
 H201 H 0.13104 0.09607 0.65199
 H202 H 0.21754 -0.00203 0.69441
 C203 C -0.34892 -0.03143 0.58781
 C204 C -0.30982 -0.00169 0.58744
 C205 C -0.30092 0.02660 0.56494
 C206 C -0.32847 0.02333 0.54359
 C207 C -0.36622 -0.00757 0.54370
 C208 C -0.37666 -0.03401 0.56644
 C209 C -0.26430 0.05810 0.56361
 C210 C -0.23556 0.06196 0.58405
 C211 C -0.24188 0.03384 0.60678
 C212 C -0.27922 0.00098 0.60843
 C213 C -0.28380 -0.02888 0.63068
 C214 C -0.25268 -0.02731 0.65044
 C215 C -0.21629 0.00461 0.64913
 C216 C -0.21108 0.03649 0.62758
 C217 C -0.17483 0.06951 0.62768
 C218 C -0.14357 0.06882 0.64750
 C219 C -0.14727 0.03566 0.66808
 C220 C -0.18450 0.00432 0.66910
 H221 H -0.35913 -0.05323 0.60431
 H222 H -0.32106 0.04651 0.52699
 H223 H -0.40498 -0.05865 0.56764
 H224 H -0.25748 0.07993 0.54642
 H225 H -0.20773 0.08661 0.58103
 H226 H -0.31046 -0.05497 0.63317
 H227 H -0.25703 -0.05163 0.66690
 H228 H -0.16954 0.09656 0.61281
 H229 H -0.11612 0.09451 0.64667
 H230 H -0.18791 -0.02129 0.68505
 C231 C -0.01261 -0.35361 0.90993
 C232 C -0.02788 -0.30721 0.91057
 C233 C -0.04318 -0.29286 0.93412
 C234 C -0.04221 -0.32345 0.95595
 C235 C -0.02400 -0.36862 0.95557
 C236 C -0.01068 -0.38352 0.93192
 C237 C -0.05842 -0.24752 0.93604
 C238 C -0.05580 -0.21496 0.91548
 C239 C -0.03838 -0.22671 0.89192
 C240 C -0.02698 -0.27417 0.88897
 C241 C -0.01475 -0.28673 0.86462
 C242 C -0.01145 -0.25372 0.84415
 C243 C -0.01883 -0.20678 0.84723
 C244 C -0.03202 -0.19251 0.87122
 C245 C -0.03652 -0.14430 0.87375
 C246 C -0.02850 -0.11196 0.85332
 C247 C -0.01625 -0.12629 0.82963
 C248 C -0.01209 -0.17382 0.82656
 H249 H 0.00019 -0.36736 0.89294
 H250 H -0.05593 -0.31146 0.97331
 H251 H 0.00436 -0.41742 0.93031
 H252 H -0.07126 -0.23663 0.95388
 H253 H -0.06826 -0.18075 0.91862
 H254 H -0.00796 -0.32210 0.86065
 H255 H -0.00180 -0.26497 0.82583
 H256 H -0.04459 -0.13023 0.89145
 H257 H -0.03186 -0.07533 0.85606
 H258 H -0.00200 -0.18497 0.80827
 C259 C 0.04064 0.36856 0.91337
 C260 C 0.00733 0.33422 0.90852
 C261 C -0.02883 0.32568 0.92650
 C262 C -0.03011 0.34898 0.94866
 C263 C 0.00386 0.38162 0.95350
 C264 C 0.03871 0.39186 0.93549
 C265 C -0.06344 0.29355 0.92250
 C266 C -0.06291 0.26887 0.90117
 C267 C -0.02713 0.27485 0.88294
 C268 C 0.00878 0.30786 0.88673
 C269 C 0.04546 0.31246 0.86898
 C270 C 0.04763 0.28525 0.84856
 C271 C 0.01311 0.25284 0.84469
 C272 C -0.02536 0.24789 0.86143
 C273 C -0.06017 0.21555 0.85608
 C274 C -0.05562 0.18787 0.83585
 C275 C -0.01659 0.19148 0.82005
 C276 C 0.01730 0.22471 0.82434
 H277 H 0.06861 0.37830 0.90052
 H278 H -0.05781 0.34170 0.96232
 H279 H 0.06515 0.41728 0.93880
 H280 H -0.09124 0.28712 0.93617
 H281 H -0.09076 0.24440 0.89992
 H282 H 0.07391 0.33612 0.87063
 H283 H 0.07698 0.28940 0.83573
 H284 H -0.09129 0.21032 0.86719
 H285 H -0.08228 0.16240 0.83306
 H286 H 0.04725 0.22840 0.81192
 C287 C -0.36122 -0.02010 0.40833
 C288 C -0.31762 0.00247 0.40637
 C289 C -0.30421 0.02840 0.42667
 C290 C -0.33150 0.02841 0.44859
 C291 C -0.37278 0.00252 0.45131
 C292 C -0.38825 -0.01984 0.43031
 C293 C -0.26290 0.05337 0.42542
 C294 C -0.23299 0.05121 0.40506
 C295 C -0.24289 0.02326 0.38510
 C296 C -0.28639 -0.00071 0.38544
 C297 C -0.29634 -0.02840 0.36537
 C298 C -0.26427 -0.03419 0.34624
 C299 C -0.22108 -0.01259 0.34619
 C300 C -0.21008 0.01727 0.36528
 C301 C -0.16594 0.03876 0.36413
 C302 C -0.13366 0.02912 0.34567
 C303 C -0.14399 -0.00190 0.32753
 C304 C -0.18829 -0.02171 0.32748
 H305 H -0.37507 -0.03926 0.39350
 H306 H -0.32019 0.04895 0.46364
 H307 H -0.41983 -0.04014 0.43126
 H308 H -0.25298 0.07408 0.44068
 H309 H -0.20169 0.07120 0.40597
 H310 H -0.32834 -0.04718 0.36416
 H311 H -0.27308 -0.05668 0.33157
 H312 H -0.15470 0.06273 0.37736
 H313 H -0.10012 0.04592 0.34569
 H314 H -0.19665 -0.04570 0.31346
 C315 C 0.35985 -0.08025 0.42138
 C316 C 0.32643 -0.04641 0.41338
 C317 C 0.32167 -0.00735 0.42780
 C318 C 0.34767 -0.00375 0.44972
 C319 C 0.37969 -0.03796 0.45762
 C320 C 0.38614 -0.07582 0.44309
 C321 C 0.29089 0.02802 0.42040
 C322 C 0.26441 0.02582 0.39891
 C323 C 0.26699 -0.01255 0.38404
 C324 C 0.29770 -0.04980 0.39170
 C325 C 0.29766 -0.08962 0.37786
 C326 C 0.26845 -0.09320 0.35742
 C327 C 0.23890 -0.05693 0.34951
 C328 C 0.23868 -0.01553 0.36222
 C329 C 0.20978 0.02111 0.35261
 C330 C 0.18053 0.01570 0.33231
 C331 C 0.17909 -0.02610 0.32067
 C332 C 0.20900 -0.06208 0.32912
 H333 H 0.36693 -0.11025 0.41116
 H334 H 0.34338 0.02623 0.46061
 H335 H 0.41116 -0.10241 0.44876
 H336 H 0.28716 0.05791 0.43140
 H337 H 0.24109 0.05440 0.39492
 H338 H 0.31892 -0.11946 0.38282
 H339 H 0.26894 -0.12488 0.34774
 H340 H 0.20881 0.05451 0.36028
 H341 H 0.15778 0.04408 0.32622
 H342 H 0.20875 -0.09429 0.31991
   
