data_POSCAR
  _audit_creation_date              2014-09-24
  _audit_creation_method            'ToBaCCo'
  _symmetry_space_group_name_H-M    'P1'
  _symmetry_Int_Tables_number       1
  _symmetry_cell_setting            triclinic
  loop_
  _symmetry_equiv_pos_as_xyz
 x,y,z
_cell_length_a 14.8277
_cell_length_b 14.5497
_cell_length_c 13.4064
_cell_angle_alpha 86.308000
_cell_angle_beta 90.727200
_cell_angle_gamma 88.698600
loop_
  _atom_site_label
  _atom_site_type_symbol
  _atom_site_fract_x
  _atom_site_fract_y
  _atom_site_fract_z
C1 C 0.40757 1.08888 -0.68620
 C2 C 0.48431 1.10320 -0.74461
 C3 C 0.56814 1.06571 -0.71121
 C4 C 0.57446 1.00984 -0.62175
 C5 C 0.49860 1.00055 -0.55975
 C6 C 0.41497 1.04032 -0.59219
 C7 C 0.34150 1.03578 -0.52728
 C8 C 0.35154 0.99689 -0.43061
 C9 C 0.43431 0.95619 -0.39620
 C10 C 0.50825 0.95809 -0.46207
 C11 C 0.65745 0.96945 -0.58909
 C12 C 0.66689 0.92687 -0.49396
 C13 C 0.59375 0.92401 -0.42805
 C14 C 0.60574 0.89174 -0.32775
 C15 C 0.53327 0.88954 -0.26260
 C16 C 0.44733 0.91930 -0.29622
 H17 H 0.27638 1.06649 -0.54890
 H18 H 0.29380 1.00364 -0.38364
 H19 H 0.71635 0.97278 -0.63605
 H20 H 0.73293 0.89912 -0.47136
 H21 H 0.47980 1.14769 -0.81266
 H22 H 0.54379 0.86563 -0.18494
 C23 C -0.41488 1.68404 0.06274
 C24 C -0.49626 1.72776 0.08624
 C25 C -0.57836 1.68359 0.08180
 C26 C -0.58090 1.59370 0.04813
 C27 C -0.49925 1.54661 0.02540
 C28 C -0.41521 1.59109 0.03428
 C29 C -0.33576 1.54172 0.01267
 C30 C -0.33850 1.45017 -0.01494
 C31 C -0.42109 1.40580 -0.02679
 C32 C -0.50222 1.45512 -0.00683
 C33 C -0.66345 1.54982 0.03683
 C34 C -0.66648 1.46185 0.00231
 C35 C -0.58691 1.41326 -0.01954
 C36 C -0.59063 1.32415 -0.05507
 C37 C -0.51095 1.27492 -0.07020
 C38 C -0.42639 1.31334 -0.05637
 H39 H -0.27055 1.57285 0.01806
 H40 H -0.27516 1.41519 -0.02834
 H41 H -0.72671 1.58410 0.05304
 H42 H -0.73194 1.43141 -0.00591
 H43 H -0.49519 1.79775 0.10960
 H44 H -0.51447 1.20569 -0.09536
 C45 C -0.01989 0.37102 0.32961
 C46 C -0.00818 0.28975 0.39061
 C47 C -0.00201 0.29163 0.49499
 C48 C -0.00328 0.37675 0.53942
 C49 C -0.01863 0.45881 0.47834
 C50 C -0.02944 0.45531 0.37350
 C51 C -0.04887 0.53633 0.31450
 C52 C -0.05539 0.61988 0.35760
 C53 C -0.03933 0.62601 0.46075
 C54 C -0.02133 0.54488 0.52166
 C55 C 0.01157 0.38249 0.64233
 C56 C 0.01123 0.46739 0.68452
 C57 C -0.00477 0.54961 0.62508
 C58 C -0.00327 0.63611 0.66666
 C59 C -0.01904 0.71789 0.60446
 C60 C -0.03839 0.71242 0.50168
 H61 H -0.05965 0.53568 0.23447
 H62 H -0.07150 0.67980 0.30818
 H63 H 0.02614 0.32183 0.69054
 H64 H 0.02434 0.46807 0.76411
 H65 H -0.00326 0.22414 0.35694
 H66 H -0.01747 0.78461 0.63561
 O67 O -0.21626 0.93982 -0.13817
 O68 O 0.24626 0.95838 -0.09871
 O69 O 0.01636 1.01905 -0.28902
 O70 O 0.02998 0.79979 -0.16897
 O71 O 0.02349 0.73516 -0.00787
 O72 O -0.00003 1.16754 -0.24219
 O73 O 0.14473 0.90817 -0.21315
 O74 O -0.09528 0.89694 -0.23248
 Zr75 Zr 0.01750 0.93985 -0.15370
 O76 O 0.09552 0.89552 -0.03173
 O77 O -0.07607 1.04335 -0.13026
 C78 C -0.18021 0.89965 -0.21261
 C79 C 0.22576 0.92108 -0.18073
 C80 C 0.00887 1.10666 -0.30890
 C81 C 0.02822 0.73039 -0.10459
 H82 H 0.12963 1.07066 -0.17065
 O83 O 0.08996 1.04994 -0.11531
 H84 H -0.09854 0.83759 -0.06411
 O85 O -0.06598 0.89149 -0.04320
 O86 O 0.22754 1.06768 0.13185
 O87 O -0.23728 1.04322 0.10205
 O88 O 0.11591 1.22474 -0.11042
 O89 O 0.13371 0.78725 0.12527
 O90 O -0.11045 0.77576 0.10528
 O91 O -0.12726 1.21970 -0.12001
 O92 O -0.01322 1.20516 0.16756
 O93 O -0.00471 0.98153 0.29358
 O94 O -0.00763 1.26828 0.00546
 O95 O -0.00090 0.83490 0.23826
 O96 O 0.23121 1.12965 -0.04329
 O97 O -0.23191 1.11110 -0.07165
 O98 O -0.22256 0.87687 0.04226
 O99 O 0.24090 0.89305 0.07580
 O100 O 0.10853 1.11300 0.22725
 O101 O -0.13451 1.09511 0.21501
 Zr102 Zr 0.16363 1.00846 0.01191
 Zr103 Zr -0.15439 0.99550 -0.01196
 Zr104 Zr -0.00222 1.15124 -0.08221
 Zr105 Zr 0.00964 0.85175 0.08089
 Zr106 Zr -0.00682 1.06322 0.15615
 O107 O -0.08223 0.95306 0.11727
 O108 O 0.07561 1.11343 0.04365
 C109 C 0.19332 1.10962 0.20525
 C110 C -0.21589 1.08536 0.18114
 C111 C 0.20003 1.20579 -0.08955
 C112 C 0.21632 0.81374 0.11633
 C113 C -0.19424 0.79721 0.08189
 C114 C -0.20942 1.19376 -0.10395
 C115 C -0.01182 1.27409 0.10186
 C116 C -0.00333 0.89246 0.30858
 H117 H -0.12340 1.15629 0.04920
 O118 O -0.08310 1.10512 0.03230
 H119 H 0.12127 0.94323 0.18789
 O120 O 0.08371 0.96027 0.12774
 N121 N 0.32967 1.12605 0.28546
 N122 N 0.25331 1.15731 0.26607
 N123 N -0.35769 1.09993 0.25232
 N124 N -0.28536 1.13419 0.22915
 N125 N -0.31361 0.86779 -0.29500
 N126 N -0.23526 0.84605 -0.27271
 N127 N 0.37740 0.92285 -0.22439
 N128 N 0.29755 0.89964 -0.24470
 N129 N 0.33304 1.29353 -0.08903
 N130 N 0.26107 1.27352 -0.12815
 N131 N 0.34997 0.72203 0.12011
 N132 N 0.28350 0.75246 0.16282
 N133 N -0.33837 0.74292 0.05556
 N134 N -0.26064 0.72709 0.09553
 N135 N -0.35039 1.25060 -0.06000
 N136 N -0.27955 1.26368 -0.11129
 N137 N -0.01870 1.36803 0.23201
 N138 N -0.01647 1.36289 0.14055
 N139 N 0.00579 1.21279 -0.45220
 N140 N 0.01316 1.13398 -0.41319
 N141 N 0.01237 0.63985 -0.23689
 N142 N 0.02630 0.64288 -0.14602
 N143 N -0.05590 0.79058 0.43256
 N144 N 0.00141 0.85160 0.40896
   
