data_POSCAR
  _audit_creation_date              2014-09-24
  _audit_creation_method            'ToBaCCo'
  _symmetry_space_group_name_H-M    'P1'
  _symmetry_Int_Tables_number       1
  _symmetry_cell_setting            triclinic
  loop_
  _symmetry_equiv_pos_as_xyz
 x,y,z
_cell_length_a 41.8528
_cell_length_b 41.8217
_cell_length_c 41.8504
_cell_angle_alpha 89.965700
_cell_angle_beta 89.978900
_cell_angle_gamma 89.951000
loop_
  _atom_site_label
  _atom_site_type_symbol
  _atom_site_fract_x
  _atom_site_fract_y
  _atom_site_fract_z
C1 C 0.27274 0.25019 0.22698
 N2 N 0.24981 0.27315 0.22697
 C3 C 0.22680 0.27308 0.24982
 N4 N 0.22671 0.25005 0.27267
 C5 C 0.24964 0.22709 0.27268
 N6 N 0.27265 0.22716 0.24983
 C7 C 0.72635 -0.25065 0.22635
 N8 N 0.74941 -0.27349 0.22626
 C9 C 0.77242 -0.27341 0.24910
 N10 N 0.77236 -0.25049 0.27204
 C11 C 0.74931 -0.22765 0.27214
 N12 N 0.72630 -0.22773 0.24930
 C13 C 0.72804 0.25073 0.77237
 N14 N 0.72814 0.22775 0.74949
 C15 C 0.75110 0.22777 0.72658
 N16 N 0.77395 0.25077 0.72655
 C17 C 0.77385 0.27375 0.74943
 N18 N 0.75089 0.27372 0.77234
 C19 C 0.27383 -0.25042 0.77440
 N20 N 0.25074 -0.27318 0.77456
 C21 C 0.22776 -0.27309 0.75169
 N22 N 0.22788 -0.25024 0.72865
 C23 C 0.25097 -0.22748 0.72849
 N24 N 0.27395 -0.22757 0.75136
 C25 C 0.72640 -0.25036 0.77418
 N26 N 0.72635 -0.22748 0.75117
 C27 C 0.74929 -0.22748 0.72824
 N28 N 0.77229 -0.25038 0.72833
 C29 C 0.77236 -0.27327 0.75133
 N30 N 0.74941 -0.27325 0.77425
 C31 C 0.27285 0.25008 0.77260
 N32 N 0.27284 0.22713 0.74968
 C33 C 0.24986 0.22710 0.72681
 N34 N 0.22689 0.25002 0.72686
 C35 C 0.22689 0.27297 0.74978
 N36 N 0.24988 0.27299 0.77265
 C37 C 0.27307 -0.25123 0.22605
 N38 N 0.24997 -0.27400 0.22592
 C39 C 0.22696 -0.27391 0.24879
 N40 N 0.22707 -0.25104 0.27179
 C41 C 0.25015 -0.22827 0.27193
 N42 N 0.27315 -0.22837 0.24906
 C43 C 0.72827 0.25107 0.22716
 N44 N 0.72836 0.22806 0.25003
 C45 C 0.75129 0.22804 0.27296
 N46 N 0.77414 0.25105 0.27300
 C47 C 0.77406 0.27407 0.25012
 N48 N 0.75112 0.27408 0.22721
 O49 O 0.27643 0.03016 0.46858
 O50 O 0.27676 -0.03200 0.53089
 O51 O 0.27661 -0.03210 0.46866
 O52 O 0.27652 0.03025 0.53078
 O53 O 0.22382 0.03011 0.53089
 O54 O 0.22392 -0.03223 0.46878
 O55 O 0.22406 -0.03213 0.53101
 O56 O 0.22373 0.03003 0.46869
 Cu57 Cu 0.28186 -0.00092 0.49971
 Cu58 Cu 0.21860 -0.00108 0.49985
 C59 C 0.25002 0.04076 0.45796
 C60 C 0.25047 -0.04271 0.54165
 C61 C 0.25028 -0.04284 0.45807
 C62 C 0.25015 0.04087 0.54148
 O63 O 0.72413 0.03088 0.53094
 O64 O 0.72374 -0.03137 0.46878
 O65 O 0.72372 -0.03137 0.53102
 O66 O 0.72415 0.03089 0.46875
 O67 O 0.77685 0.03051 0.46874
 O68 O 0.77642 -0.03176 0.53101
 O69 O 0.77643 -0.03175 0.46878
 O70 O 0.77683 0.03050 0.53094
 Cu71 Cu 0.71866 -0.00021 0.49987
 Cu72 Cu 0.78191 -0.00067 0.49987
 C73 C 0.75055 0.04137 0.54158
 C74 C 0.75002 -0.04222 0.45812
 C75 C 0.75000 -0.04223 0.54170
 C76 C 0.75057 0.04139 0.45809
 O77 O 0.46941 0.27700 0.03093
 O78 O 0.53160 0.27706 -0.03130
 O79 O 0.46940 0.27694 -0.03128
 O80 O 0.53162 0.27712 0.03091
 O81 O 0.53177 0.22439 0.03100
 O82 O 0.46954 0.22421 -0.03119
 O83 O 0.53174 0.22432 -0.03121
 O84 O 0.46956 0.22427 0.03101
 Cu85 Cu 0.50049 0.28232 -0.00019
 Cu86 Cu 0.50067 0.21901 -0.00009
 C87 C 0.45882 0.25062 0.04163
 C88 C 0.54233 0.25069 -0.04192
 C89 C 0.45880 0.25054 -0.04190
 C90 C 0.54236 0.25079 0.04161
 O91 O 0.53116 0.72273 0.03152
 O92 O 0.46903 0.72276 -0.03074
 O93 O 0.53124 0.72283 -0.03070
 O94 O 0.46894 0.72262 0.03147
 O95 O 0.46882 0.77536 0.03154
 O96 O 0.53113 0.77557 -0.03063
 O97 O 0.46892 0.77550 -0.03066
 O98 O 0.53104 0.77546 0.03158
 Cu99 Cu 0.50011 0.71745 0.00038
 Cu100 Cu 0.49997 0.78075 0.00047
 C101 C 0.54175 0.74909 0.04222
 C102 C 0.45832 0.74914 -0.04137
 C103 C 0.54186 0.74923 -0.04133
 C104 C 0.45819 0.74896 0.04215
 O105 O 0.03066 0.47000 0.27572
 O106 O -0.03156 0.53227 0.27555
 O107 O -0.03153 0.47002 0.27580
 O108 O 0.03067 0.53225 0.27548
 O109 O 0.03063 0.53208 0.22278
 O110 O -0.03158 0.46984 0.22310
 O111 O -0.03160 0.53210 0.22285
 O112 O 0.03062 0.46983 0.22302
 Cu113 Cu -0.00044 0.50116 0.28092
 Cu114 Cu -0.00049 0.50096 0.21766
 C115 C 0.04130 0.45924 0.24940
 C116 C -0.04226 0.54285 0.24917
 C117 C -0.04220 0.45925 0.24950
 C118 C 0.04133 0.54281 0.24908
 O119 O 0.03030 0.53195 0.72471
 O120 O -0.03186 0.46974 0.72422
 O121 O -0.03192 0.53200 0.72461
 O122 O 0.03033 0.46972 0.72432
 O123 O 0.03024 0.46935 0.77701
 O124 O -0.03202 0.53164 0.77731
 O125 O -0.03196 0.46938 0.77691
 O126 O 0.03021 0.53160 0.77741
 Cu127 Cu -0.00078 0.50090 0.71918
 Cu128 Cu -0.00090 0.50046 0.78244
 C129 C 0.04093 0.54242 0.75114
 C130 C -0.04255 0.45888 0.75048
 C131 C -0.04265 0.54249 0.75101
 C132 C 0.04096 0.45886 0.75061
 C133 C 0.39813 0.22159 0.10235
 C134 C 0.38617 0.25052 0.11415
 C135 C 0.39796 0.27949 0.10228
 C136 C 0.42161 0.27956 0.07869
 C137 C 0.29706 0.25026 0.20282
 C138 C 0.42178 0.22159 0.07876
 C139 C 0.36181 0.25047 0.13842
 C140 C 0.34140 0.25042 0.15874
 C141 C 0.31749 0.25033 0.18252
 C142 C 0.43379 0.25059 0.06665
 H143 H 0.38917 0.19903 0.11138
 H144 H 0.38886 0.30202 0.11126
 H145 H 0.43033 0.30229 0.06988
 H146 H 0.43064 0.19889 0.07001
 C147 C 0.60239 0.77805 0.10296
 C148 C 0.61432 0.74911 0.11478
 C149 C 0.60254 0.72015 0.10291
 C150 C 0.57892 0.72011 0.07930
 C151 C 0.70335 0.74927 0.20348
 C152 C 0.57876 0.77808 0.07935
 C153 C 0.63866 0.74913 0.13906
 C154 C 0.65905 0.74916 0.15939
 C155 C 0.68293 0.74922 0.18317
 C156 C 0.56676 0.74909 0.06724
 H157 H 0.61134 0.80061 0.11199
 H158 H 0.61162 0.69761 0.11190
 H159 H 0.57020 0.69739 0.07050
 H160 H 0.56992 0.80079 0.07059
 C161 C 0.60310 0.22176 -0.10262
 C162 C 0.61489 0.25071 -0.11453
 C163 C 0.60298 0.27966 -0.10272
 C164 C 0.57936 0.27969 -0.07909
 C165 C 0.70378 0.25070 -0.20341
 C166 C 0.57949 0.22172 -0.07899
 C167 C 0.63920 0.25071 -0.13885
 C168 C 0.65956 0.25069 -0.15922
 C169 C 0.68340 0.25069 -0.18306
 C170 C 0.56734 0.25071 -0.06695
 H171 H 0.61217 0.19921 -0.11160
 H172 H 0.61195 0.30221 -0.11178
 H173 H 0.57053 0.30241 -0.07034
 H174 H 0.57076 0.19900 -0.07016
 C175 C 0.39768 0.72027 -0.10215
 C176 C 0.38578 0.74924 -0.11395
 C177 C 0.39758 0.77817 -0.10205
 C178 C 0.42120 0.77817 -0.07844
 C179 C 0.29682 0.74948 -0.20272
 C180 C 0.42129 0.72020 -0.07853
 C181 C 0.36145 0.74928 -0.13824
 C182 C 0.34108 0.74933 -0.15858
 C183 C 0.31721 0.74941 -0.18239
 C184 C 0.43333 0.74917 -0.06640
 H185 H 0.38870 0.69773 -0.11119
 H186 H 0.38853 0.80073 -0.11103
 H187 H 0.42994 0.80087 -0.06962
 H188 H 0.43011 0.69747 -0.06978
 C189 C 0.10198 0.39845 0.27850
 C190 C 0.11380 0.38648 0.24960
 C191 C 0.10195 0.39828 0.22064
 C192 C 0.07836 0.42197 0.22054
 C193 C 0.20256 0.29736 0.24980
 C194 C 0.07838 0.42214 0.27847
 C195 C 0.13807 0.36209 0.24967
 C196 C 0.15840 0.34167 0.24971
 C197 C 0.18221 0.31777 0.24977
 C198 C 0.06630 0.43417 0.24947
 H199 H 0.11099 0.38948 0.30106
 H200 H 0.11094 0.38917 0.19813
 H201 H 0.06957 0.43070 0.19781
 H202 H 0.06962 0.43101 0.30114
 C203 C 0.10186 0.60270 0.78051
 C204 C 0.11382 0.61466 0.75166
 C205 C 0.10193 0.60307 0.72265
 C206 C 0.07819 0.57959 0.72245
 C207 C 0.20336 0.70284 0.75183
 C208 C 0.07811 0.57921 0.78038
 C209 C 0.13831 0.63879 0.75181
 C210 C 0.15882 0.65899 0.75187
 C211 C 0.18285 0.68264 0.75188
 C212 C 0.06601 0.56737 0.75133
 H213 H 0.11089 0.61151 0.80310
 H214 H 0.11103 0.61218 0.70018
 H215 H 0.06940 0.57099 0.69969
 H216 H 0.06925 0.57032 0.80302
 C217 C -0.10322 0.60337 0.22010
 C218 C -0.11511 0.61527 0.24900
 C219 C -0.10317 0.60354 0.27796
 C220 C -0.07944 0.57999 0.27805
 C221 C -0.20452 0.70374 0.24901
 C222 C -0.07949 0.57982 0.22012
 C223 C -0.13956 0.63948 0.24896
 C224 C -0.16004 0.65974 0.24895
 C225 C -0.18403 0.68347 0.24897
 C226 C -0.06734 0.56785 0.24911
 H227 H -0.11230 0.61229 0.19755
 H228 H -0.11221 0.61259 0.30047
 H229 H -0.07061 0.57129 0.30077
 H230 H -0.07070 0.57099 0.19744
 C231 C -0.10300 0.39816 0.72106
 C232 C -0.11485 0.38605 0.74990
 C233 C -0.10312 0.39776 0.77892
 C234 C -0.07960 0.42148 0.77915
 C235 C -0.20329 0.29676 0.74942
 C236 C -0.07948 0.42188 0.72122
 C237 C -0.13904 0.36162 0.74971
 C238 C -0.15930 0.34116 0.74958
 C239 C -0.18302 0.31721 0.74947
 C240 C -0.06750 0.43380 0.75028
 H241 H -0.11192 0.38926 0.69846
 H242 H -0.11214 0.38855 0.80138
 H243 H -0.07090 0.43014 0.80192
 H244 H -0.07068 0.43084 0.69859
 C245 C 0.22082 0.10155 0.39734
 C246 C 0.24969 0.11349 0.38545
 C247 C 0.27867 0.10166 0.39722
 C248 C 0.27881 0.07797 0.42081
 C249 C 0.24956 0.20275 0.29685
 C250 C 0.22089 0.07786 0.42093
 C251 C 0.24960 0.13790 0.36121
 C252 C 0.24955 0.15835 0.34090
 C253 C 0.24954 0.18230 0.31714
 C254 C 0.24990 0.06581 0.43294
 H255 H 0.19824 0.11055 0.38839
 H256 H 0.30116 0.11074 0.38818
 H257 H 0.30155 0.06921 0.42953
 H258 H 0.19823 0.06902 0.42976
 C259 C 0.77984 0.10210 0.60210
 C260 C 0.75098 0.11421 0.61390
 C261 C 0.72198 0.10250 0.60211
 C262 C 0.72181 0.07878 0.57858
 C263 C 0.75119 0.20347 0.70240
 C264 C 0.77973 0.07838 0.57857
 C265 C 0.75111 0.13863 0.63810
 C266 C 0.75118 0.15909 0.65837
 C267 C 0.75121 0.18303 0.68211
 C268 C 0.75070 0.06645 0.56654
 H269 H 0.80242 0.11100 0.61107
 H270 H 0.69950 0.11171 0.61109
 H271 H 0.69906 0.07012 0.56984
 H272 H 0.80238 0.06941 0.56982
 C273 C 0.22187 -0.10325 0.60277
 C274 C 0.25086 -0.11497 0.61463
 C275 C 0.27973 -0.10311 0.60262
 C276 C 0.27963 -0.07961 0.57885
 C277 C 0.25107 -0.20334 0.70412
 C278 C 0.22171 -0.07975 0.57900
 C279 C 0.25099 -0.13913 0.63912
 C280 C 0.25106 -0.15937 0.65963
 C281 C 0.25109 -0.18308 0.68364
 C282 C 0.25060 -0.06765 0.56677
 H283 H 0.19939 -0.11228 0.61190
 H284 H 0.30231 -0.11202 0.61164
 H285 H 0.30228 -0.07081 0.56997
 H286 H 0.19896 -0.07107 0.57022
 C287 C 0.72072 -0.10267 0.39732
 C288 C 0.74957 -0.11470 0.38544
 C289 C 0.77857 -0.10308 0.39731
 C290 C 0.77875 -0.07950 0.42098
 C291 C 0.74927 -0.20343 0.29640
 C292 C 0.72083 -0.07908 0.42098
 C293 C 0.74944 -0.13897 0.36108
 C294 C 0.74935 -0.15929 0.34067
 C295 C 0.74929 -0.18309 0.31679
 C296 C 0.74986 -0.06722 0.43308
 H297 H 0.69813 -0.11151 0.38829
 H298 H 0.80105 -0.11224 0.38828
 H299 H 0.80150 -0.07089 0.42976
 H300 H 0.69818 -0.07015 0.42978
 C301 C 0.60256 0.77837 -0.10205
 C302 C 0.61449 0.74946 -0.11394
 C303 C 0.60270 0.72048 -0.10211
 C304 C 0.57906 0.72037 -0.07848
 C305 C 0.70343 0.74964 -0.20288
 C306 C 0.57893 0.77833 -0.07842
 C307 C 0.63882 0.74953 -0.13827
 C308 C 0.65919 0.74958 -0.15865
 C309 C 0.68305 0.74962 -0.18251
 C310 C 0.56690 0.74931 -0.06635
 H311 H 0.61152 0.80095 -0.11104
 H312 H 0.61176 0.69795 -0.11114
 H313 H 0.57033 0.69762 -0.06972
 H314 H 0.57009 0.80102 -0.06961
 C315 C 0.39794 0.27930 -0.10263
 C316 C 0.38617 0.25032 -0.11444
 C317 C 0.39813 0.22141 -0.10256
 C318 C 0.42177 0.22145 -0.07895
 C319 C 0.29715 0.25009 -0.20321
 C320 C 0.42158 0.27941 -0.07903
 C321 C 0.36183 0.25024 -0.13874
 C322 C 0.34144 0.25018 -0.15908
 C323 C 0.31756 0.25012 -0.18288
 C324 C 0.43377 0.25047 -0.06691
 H325 H 0.38885 0.30182 -0.11167
 H326 H 0.38919 0.19883 -0.11153
 H327 H 0.43063 0.19876 -0.07015
 H328 H 0.43029 0.30216 -0.07028
 C329 C 0.39732 0.71982 0.10270
 C330 C 0.38535 0.74873 0.11455
 C331 C 0.39720 0.77771 0.10277
 C332 C 0.42091 0.77782 0.07922
 C333 C 0.29608 0.74869 0.20316
 C334 C 0.42103 0.71986 0.07915
 C335 C 0.36092 0.74867 0.13879
 C336 C 0.34047 0.74864 0.15908
 C337 C 0.31653 0.74865 0.18285
 C338 C 0.43310 0.74888 0.06713
 H339 H 0.38832 0.69724 0.11165
 H340 H 0.38810 0.80024 0.11177
 H341 H 0.42967 0.80056 0.07049
 H342 H 0.42989 0.69717 0.07037
 C343 C 0.60307 0.27989 0.10226
 C344 C 0.61502 0.25097 0.11413
 C345 C 0.60323 0.22200 0.10232
 C346 C 0.57959 0.22190 0.07873
 C347 C 0.70402 0.25108 0.20292
 C348 C 0.57942 0.27987 0.07866
 C349 C 0.63937 0.25103 0.13842
 C350 C 0.65976 0.25106 0.15876
 C351 C 0.68364 0.25107 0.18257
 C352 C 0.56740 0.25085 0.06662
 H353 H 0.61203 0.30247 0.11123
 H354 H 0.61232 0.19947 0.11135
 H355 H 0.57086 0.19916 0.06998
 H356 H 0.57057 0.30256 0.06986
 C357 C -0.10359 0.60302 0.78018
 C358 C -0.11542 0.61505 0.75130
 C359 C -0.10346 0.60339 0.72233
 C360 C -0.07977 0.57979 0.72220
 C361 C -0.20463 0.70381 0.75140
 C362 C -0.07990 0.57942 0.78013
 C363 C -0.13982 0.63933 0.75139
 C364 C -0.16026 0.65966 0.75142
 C365 C -0.18419 0.68347 0.75143
 C366 C -0.06772 0.56752 0.75112
 H367 H -0.11267 0.61188 0.80275
 H368 H -0.11245 0.61253 0.69983
 H369 H -0.07092 0.57116 0.69947
 H370 H -0.07115 0.57050 0.80279
 C371 C -0.10279 0.39823 0.22089
 C372 C -0.11457 0.38642 0.24988
 C373 C -0.10273 0.39842 0.27875
 C374 C -0.07920 0.42213 0.27866
 C375 C -0.20307 0.29710 0.25015
 C376 C -0.07925 0.42195 0.22073
 C377 C -0.13878 0.36198 0.25000
 C378 C -0.15905 0.34152 0.25008
 C379 C -0.18278 0.31756 0.25014
 C380 C -0.06718 0.43417 0.24963
 H381 H -0.11178 0.38911 0.19840
 H382 H -0.11168 0.38944 0.30133
 H383 H -0.07042 0.43101 0.30131
 H384 H -0.07052 0.43068 0.19799
 C385 C 0.10176 0.39824 0.72137
 C386 C 0.11359 0.38617 0.75023
 C387 C 0.10169 0.39785 0.77922
 C388 C 0.07805 0.42150 0.77938
 C389 C 0.20259 0.29721 0.74984
 C390 C 0.07813 0.42190 0.72146
 C391 C 0.13793 0.36182 0.75010
 C392 C 0.15831 0.34144 0.75001
 C393 C 0.18219 0.31758 0.74991
 C394 C 0.06599 0.43380 0.75049
 H395 H 0.11081 0.38938 0.69879
 H396 H 0.11067 0.38867 0.80171
 H397 H 0.06923 0.43014 0.80213
 H398 H 0.06938 0.43084 0.69881
 C399 C 0.10234 0.60338 0.27773
 C400 C 0.11426 0.61508 0.24875
 C401 C 0.10232 0.60321 0.21988
 C402 C 0.07856 0.57971 0.21995
 C403 C 0.20385 0.70330 0.24868
 C404 C 0.07859 0.57989 0.27787
 C405 C 0.13877 0.63922 0.24866
 C406 C 0.15929 0.65943 0.24862
 C407 C 0.18333 0.68309 0.24863
 C408 C 0.06643 0.56777 0.24896
 H409 H 0.11142 0.61240 0.30023
 H410 H 0.11138 0.61209 0.19730
 H411 H 0.06973 0.57091 0.19729
 H412 H 0.06978 0.57122 0.30061
 C413 C 0.72068 -0.10264 0.60266
 C414 C 0.74953 -0.11467 0.61456
 C415 C 0.77853 -0.10306 0.60264
 C416 C 0.77872 -0.07950 0.57891
 C417 C 0.74925 -0.20328 0.70390
 C418 C 0.72080 -0.07908 0.57894
 C419 C 0.74939 -0.13891 0.63901
 C420 C 0.74931 -0.15921 0.65948
 C421 C 0.74925 -0.18298 0.68344
 C422 C 0.74984 -0.06722 0.56679
 H423 H 0.69809 -0.11146 0.61172
 H424 H 0.80101 -0.11220 0.61168
 H425 H 0.80147 -0.07090 0.57009
 H426 H 0.69816 -0.07015 0.57013
 C427 C 0.22141 -0.10362 0.39736
 C428 C 0.25034 -0.11541 0.38542
 C429 C 0.27926 -0.10351 0.39723
 C430 C 0.27928 -0.07991 0.42088
 C431 C 0.25024 -0.20409 0.29626
 C432 C 0.22136 -0.08002 0.42102
 C433 C 0.25035 -0.13968 0.36103
 C434 C 0.25034 -0.16000 0.34061
 C435 C 0.25030 -0.18378 0.31669
 C436 C 0.25031 -0.06788 0.43305
 H437 H 0.19888 -0.11266 0.38839
 H438 H 0.30180 -0.11247 0.38815
 H439 H 0.30197 -0.07109 0.42962
 H440 H 0.19865 -0.07129 0.42985
 C441 C 0.77990 0.10216 0.39750
 C442 C 0.75105 0.11429 0.38569
 C443 C 0.72205 0.10257 0.39750
 C444 C 0.72186 0.07884 0.42105
 C445 C 0.75135 0.20369 0.29714
 C446 C 0.77978 0.07842 0.42104
 C447 C 0.75121 0.13875 0.36147
 C448 C 0.75130 0.15924 0.34119
 C449 C 0.75135 0.18322 0.31744
 C450 C 0.75074 0.06649 0.43310
 H451 H 0.80249 0.11106 0.38851
 H452 H 0.69958 0.11180 0.38853
 H453 H 0.69910 0.07018 0.42980
 H454 H 0.80242 0.06944 0.42979
 C455 C 0.27895 0.10186 0.60201
 C456 C 0.24999 0.11369 0.61388
 C457 C 0.22109 0.10172 0.60209
 C458 C 0.22111 0.07802 0.57854
 C459 C 0.24986 0.20282 0.70258
 C460 C 0.27903 0.07816 0.57845
 C461 C 0.24994 0.13809 0.63813
 C462 C 0.24990 0.15851 0.65845
 C463 C 0.24987 0.18242 0.68225
 C464 C 0.25010 0.06597 0.56644
 H465 H 0.30146 0.11096 0.61096
 H466 H 0.19854 0.11071 0.61111
 H467 H 0.19843 0.06916 0.56982
 H468 H 0.30175 0.06941 0.56966
   
