data_POSCAR
  _audit_creation_date              2014-09-24
  _audit_creation_method            'ToBaCCo'
  _symmetry_space_group_name_H-M    'P1'
  _symmetry_Int_Tables_number       1
  _symmetry_cell_setting            triclinic
  loop_
  _symmetry_equiv_pos_as_xyz
 x,y,z
_cell_length_a 47.5071
_cell_length_b 47.5407
_cell_length_c 47.5561
_cell_angle_alpha 90.090100
_cell_angle_beta 90.094900
_cell_angle_gamma 89.923600
loop_
  _atom_site_label
  _atom_site_type_symbol
  _atom_site_fract_x
  _atom_site_fract_y
  _atom_site_fract_z
N1 N 0.18150 0.18304 0.18083
 N2 N -0.17987 0.81862 0.18302
 N3 N -0.18413 0.18052 -0.18212
 N4 N 0.18150 0.81750 -0.18171
 N5 N 0.18216 1.18093 0.82075
 N6 N 0.81877 0.82012 0.81672
 N7 N 0.18052 0.81688 1.18176
 N8 N 0.81882 1.18159 1.18135
 O9 O 0.46022 0.94649 0.95303
 O10 O 0.42944 0.97396 0.97804
 C11 C 0.43492 0.95414 0.96010
 O12 O 0.53976 0.94970 1.05327
 O13 O 0.57035 0.97513 1.02608
 C14 C 0.56501 0.95708 1.04577
 O15 O 0.46045 0.94680 1.05084
 O16 O 0.42956 0.97405 1.02571
 C17 C 0.43512 0.95436 1.04372
 O18 O 0.53935 0.94907 0.95045
 O19 O 0.57009 0.97427 0.97779
 C20 C 0.56464 0.95625 0.95804
 Zr21 Zr 0.49978 0.96232 0.96636
 O22 O 0.50307 0.91790 0.96682
 O23 O 0.49656 0.96195 0.92197
 Zr24 Zr 0.49997 0.96267 1.03748
 O25 O 0.50330 0.91826 1.03757
 O26 O 0.49696 0.96290 1.08190
 O27 O 0.47476 0.95690 1.00196
 O28 O 0.52431 0.95740 1.00191
 O29 O 0.53898 1.04688 0.95025
 O30 O 0.56991 1.02199 0.97766
 C31 C 0.56432 1.03986 0.95785
 O32 O 0.46016 1.04950 1.05063
 O33 O 0.42942 1.02193 1.02566
 C34 C 0.43487 1.04177 1.04359
 O35 O 0.53946 1.04700 1.05308
 O36 O 0.57020 1.02148 1.02601
 C37 C 0.56476 1.03966 1.04563
 O38 O 0.45977 1.04929 0.95311
 O39 O 0.42916 1.02231 0.97871
 C40 C 0.43451 1.04187 0.96053
 Zr41 Zr 0.49953 1.03362 0.96625
 O42 O 0.50256 1.07804 0.96644
 O43 O 0.49621 1.03365 0.92185
 Zr44 Zr 0.49978 1.03377 1.03729
 O45 O 0.50280 1.07820 1.03703
 O46 O 0.49679 1.03401 1.08170
 Zr47 Zr 0.45798 0.99797 1.00183
 Zr48 Zr 0.54153 0.99816 1.00168
 O49 O 0.52408 1.03887 1.00172
 O50 O 0.47451 1.03912 1.00181
 O51 O 0.52471 0.99800 0.96066
 O52 O 0.47549 0.99819 1.04253
 O53 O 0.47528 0.99791 0.96113
 O54 O 0.52497 0.99828 1.04281
 H55 H 0.53712 0.94094 1.00199
 H56 H 0.46289 0.99821 1.05911
 H57 H 0.53678 1.05538 1.00174
 H58 H 0.46250 0.99792 0.94465
 H59 H 0.51272 0.97436 1.08921
 H60 H 0.51245 1.02243 1.08907
 H61 H 0.48683 1.08549 1.02584
 H62 H 0.48666 1.08538 0.97769
 H63 H 0.51171 1.02188 0.91446
 H64 H 0.51197 0.97377 0.91456
 H65 H 0.48706 0.91059 0.97789
 H66 H 0.48761 0.91082 1.02608
 O67 O 0.04686 0.53919 -0.05344
 O68 O 0.02125 0.57003 -0.02657
 C69 C 0.03946 0.56450 -0.04610
 O70 O -0.05338 0.46031 -0.05127
 O71 O -0.02603 0.42955 -0.02613
 C72 C -0.04578 0.43503 -0.04415
 O73 O -0.05076 0.53945 -0.05366
 O74 O -0.02571 0.57009 -0.02607
 C75 C -0.04365 0.56471 -0.04594
 O76 O 0.04953 0.45992 -0.05066
 O77 O 0.02235 0.42931 -0.02529
 C78 C 0.04205 0.43467 -0.04333
 Zr79 Zr 0.03375 0.49963 -0.03755
 O80 O 0.03410 0.49638 -0.08194
 O81 O 0.07821 0.50273 -0.03710
 Zr82 Zr -0.03748 0.49983 -0.03792
 O83 O -0.03710 0.49666 -0.08233
 O84 O -0.08192 0.50307 -0.03819
 O85 O -0.00182 0.52479 -0.04324
 O86 O -0.00188 0.47534 -0.04289
 O87 O 0.04933 0.46006 0.04664
 O88 O 0.02222 0.42936 0.02110
 C89 C 0.04187 0.43479 0.03926
 O90 O -0.05068 0.53960 0.04916
 O91 O -0.02499 0.57023 0.02229
 C92 C -0.04320 0.56484 0.04183
 O93 O -0.05355 0.46041 0.04657
 O94 O -0.02616 0.42959 0.02153
 C95 C -0.04594 0.43510 0.03947
 O96 O 0.04692 0.53925 0.04937
 O97 O 0.02196 0.57001 0.02186
 C98 C 0.03989 0.56454 0.04170
 Zr99 Zr 0.03355 0.49971 0.03351
 O100 O 0.03334 0.49658 0.07792
 O101 O 0.07800 0.50271 0.03370
 Zr102 Zr -0.03768 0.49991 0.03328
 O103 O -0.03792 0.49681 0.07767
 O104 O -0.08213 0.50325 0.03288
 Zr105 Zr -0.00191 0.54149 -0.00214
 Zr106 Zr -0.00211 0.45803 -0.00218
 O107 O -0.00211 0.47543 0.03854
 O108 O -0.00202 0.52488 0.03893
 O109 O 0.03906 0.47458 -0.00200
 O110 O -0.04269 0.52426 -0.00230
 O111 O 0.03883 0.52407 -0.00201
 O112 O -0.04320 0.47480 -0.00235
 H113 H -0.00180 0.46258 -0.05938
 H114 H -0.05917 0.53707 -0.00227
 H115 H -0.00209 0.46271 0.05502
 H116 H 0.05534 0.53678 -0.00203
 H117 H -0.08934 0.48759 -0.02649
 H118 H -0.08949 0.48733 0.02168
 H119 H -0.02605 0.51221 0.08509
 H120 H 0.02210 0.51250 0.08525
 H121 H 0.08537 0.48706 0.02212
 H122 H 0.08553 0.48676 -0.02596
 H123 H 0.02216 0.51173 -0.08938
 H124 H -0.02599 0.51265 -0.08960
 O125 O 1.05393 -0.04645 0.53986
 O126 O 1.02638 -0.02146 0.57056
 C127 C 1.04621 -0.03941 0.56512
 O128 O 1.05081 0.05396 0.46080
 O129 O 1.02547 0.02675 0.43000
 C130 C 1.04349 0.04648 0.43551
 O131 O 1.05354 0.05145 0.54004
 O132 O 1.02622 0.02623 0.57064
 C133 C 1.04592 0.04429 0.56528
 O134 O 1.05154 -0.04893 0.46078
 O135 O 1.02639 -0.02157 0.43005
 C136 C 1.04441 -0.04133 0.43551
 Zr137 Zr 1.03822 -0.03303 0.50030
 O138 O 1.08268 -0.03240 0.49726
 O139 O 1.03874 -0.07745 0.50333
 Zr140 Zr 1.03777 0.03811 0.50041
 O141 O 1.08222 0.03825 0.49732
 O142 O 1.03748 0.08253 0.50361
 O143 O 1.04353 0.00255 0.52549
 O144 O 1.04315 0.00255 0.47597
 O145 O 0.95371 -0.04925 0.46063
 O146 O 0.97865 -0.02177 0.42997
 C147 C 0.96079 -0.04162 0.43538
 O148 O 0.95071 0.05103 0.53976
 O149 O 0.97830 0.02611 0.57052
 C150 C 0.95839 0.04396 0.56504
 O151 O 0.95345 0.05361 0.46057
 O152 O 0.97910 0.02660 0.42989
 C153 C 0.96087 0.04619 0.43531
 O154 O 0.95111 -0.04648 0.53975
 O155 O 0.97799 -0.02085 0.57058
 C156 C 0.95846 -0.03907 0.56505
 Zr157 Zr 0.96686 -0.03327 0.50017
 O158 O 0.92241 -0.03312 0.49690
 O159 O 0.96685 -0.07768 0.50330
 Zr160 Zr 0.96662 0.03781 0.50022
 O161 O 0.92217 0.03757 0.49694
 O162 O 0.96639 0.08223 0.50341
 Zr163 Zr 1.00238 0.00234 0.54202
 Zr164 Zr 1.00239 0.00227 0.45855
 O165 O 0.96162 0.00224 0.47577
 O166 O 0.96125 0.00227 0.52528
 O167 O 1.00258 -0.03878 0.47519
 O168 O 1.00216 0.04307 0.52470
 O169 O 1.00254 -0.03835 0.52455
 O170 O 1.00218 0.04340 0.47526
 H171 H 1.05964 0.00266 0.46325
 H172 H 1.00207 0.05964 0.53737
 H173 H 0.94513 0.00224 0.46299
 H174 H 1.00252 -0.05486 0.53724
 H175 H 1.02601 0.08984 0.48786
 H176 H 0.97791 0.08963 0.48778
 H177 H 0.91484 0.02620 0.51270
 H178 H 0.91501 -0.02196 0.51283
 H179 H 0.97868 -0.08505 0.48785
 H180 H 1.02681 -0.08488 0.48797
 H181 H 1.08992 -0.02149 0.51345
 H182 H 1.08964 0.02674 0.51298
 C183 C 1.17277 0.15027 0.25210
 C184 C 1.14344 0.14795 0.25374
 C185 C 1.12666 0.15736 0.23143
 C186 C 1.13914 0.16897 0.20753
 C187 C 1.16858 0.17131 0.20566
 C188 C 1.18528 0.16189 0.22821
 C189 C 1.13054 0.13560 0.27813
 C190 C 1.11962 0.12508 0.29840
 C191 C 1.10671 0.11251 0.32193
 C192 C 1.09560 0.10154 0.34186
 C193 C 1.08226 0.08812 0.36543
 C194 C 1.06172 0.06755 0.36084
 C195 C 1.04900 0.05413 0.38363
 C196 C 1.05668 0.06110 0.41140
 C197 C 1.07724 0.08196 0.41578
 C198 C 1.08994 0.09535 0.39292
 H199 H 1.18595 0.14306 0.26925
 H200 H 1.10395 0.15559 0.23244
 H201 H 1.12587 0.17585 0.19033
 H202 H 1.20798 0.16365 0.22730
 H203 H 1.05561 0.06180 0.33964
 H204 H 1.03323 0.03822 0.37944
 H205 H 1.08365 0.08785 0.43684
 H206 H 1.10583 0.11125 0.39669
 C207 C 0.82999 -0.14698 0.25348
 C208 C 0.85934 -0.14467 0.25472
 C209 C 0.87576 -0.15463 0.23241
 C210 C 0.86291 -0.16677 0.20890
 C211 C 0.83344 -0.16910 0.20744
 C212 C 0.81710 -0.15913 0.22999
 C213 C 0.87261 -0.13185 0.27873
 C214 C 0.88379 -0.12097 0.29873
 C215 C 0.89695 -0.10806 0.32201
 C216 C 0.90820 -0.09687 0.34180
 C217 C 0.92164 -0.08330 0.36531
 C218 C 0.94184 -0.06244 0.36070
 C219 C 0.95467 -0.04896 0.38348
 C220 C 0.94744 -0.05618 0.41125
 C221 C 0.92719 -0.07731 0.41564
 C222 C 0.91438 -0.09075 0.39280
 H223 H 0.81708 -0.13935 0.27064
 H224 H 0.89849 -0.15288 0.23312
 H225 H 0.87590 -0.17408 0.19169
 H226 H 0.79438 -0.16088 0.22938
 H227 H 0.94762 -0.05652 0.33949
 H228 H 0.97020 -0.03284 0.37929
 H229 H 0.92112 -0.08341 0.43671
 H230 H 0.89875 -0.10688 0.39659
 C231 C 0.84406 0.12611 0.76798
 C232 C 0.85355 0.14299 0.74586
 C233 C 0.85046 0.17224 0.74740
 C234 C 0.83800 0.18458 0.77100
 C235 C 0.82848 0.16778 0.79335
 C236 C 0.83160 0.13841 0.79159
 C237 C 0.86669 0.13028 0.72174
 C238 C 0.87783 0.11951 0.70167
 C239 C 0.89103 0.10680 0.67833
 C240 C 0.90245 0.09585 0.65852
 C241 C 0.91629 0.08272 0.63502
 C242 C 0.90886 0.09006 0.60751
 C243 C 0.92247 0.07743 0.58469
 C244 C 0.94375 0.05726 0.58913
 C245 C 0.95097 0.04997 0.61692
 C246 C 0.93732 0.06263 0.63967
 H247 H 0.84642 0.10346 0.76703
 H248 H 0.85773 0.18550 0.73038
 H249 H 0.83565 0.20722 0.77185
 H250 H 0.82465 0.12508 0.80865
 H251 H 0.89259 0.10559 0.60369
 H252 H 0.91637 0.08352 0.56362
 H253 H 0.96719 0.03451 0.62114
 H254 H 0.94322 0.05678 0.66089
 C255 C 1.17501 -0.14655 0.74831
 C256 C 1.14578 -0.14343 0.74608
 C257 C 1.12833 -0.15342 0.76753
 C258 C 1.14003 -0.16637 0.79118
 C259 C 1.16937 -0.16950 0.79365
 C260 C 1.18674 -0.15951 0.77195
 C261 C 1.13367 -0.12978 0.72193
 C262 C 1.12334 -0.11828 0.70184
 C263 C 1.11100 -0.10475 0.67848
 C264 C 1.10024 -0.09318 0.65866
 C265 C 1.08709 -0.07936 0.63516
 C266 C 1.06634 -0.05897 0.63978
 C267 C 1.05317 -0.04585 0.61701
 C268 C 1.06058 -0.05297 0.58923
 C269 C 1.08162 -0.07338 0.58482
 C270 C 1.09476 -0.08648 0.60766
 H271 H 1.18871 -0.13891 0.73181
 H272 H 1.10569 -0.15106 0.76604
 H273 H 1.12625 -0.17368 0.80773
 H274 H 1.20938 -0.16185 0.77333
 H275 H 1.06025 -0.05331 0.66100
 H276 H 1.03710 -0.03022 0.62122
 H277 H 1.08785 -0.07936 0.56375
 H278 H 1.11080 -0.10225 0.60385
 C279 C 0.25213 1.17394 1.14666
 C280 C 0.25382 1.14462 1.14455
 C281 C 0.23184 1.12794 1.15475
 C282 C 0.20817 1.14053 1.16686
 C283 C 0.20622 1.16998 1.16890
 C284 C 0.22848 1.18656 1.15877
 C285 C 0.27793 1.13164 1.13160
 C286 C 0.29799 1.12071 1.12060
 C287 C 0.32135 1.10779 1.10759
 C288 C 0.34118 1.09663 1.09640
 C289 C 0.36473 1.08312 1.08297
 C290 C 0.39226 1.09072 1.09018
 C291 C 0.41512 1.07739 1.07731
 C292 C 0.41072 1.05622 1.05704
 C293 C 0.38291 1.04884 1.04986
 C294 C 0.36011 1.06221 1.06276
 H295 H 0.26904 1.18704 1.13885
 H296 H 0.23291 1.10523 1.15316
 H297 H 0.19118 1.12735 1.17429
 H298 H 0.22750 1.20927 1.16029
 H299 H 0.39605 1.10689 1.10580
 H300 H 0.43621 1.08360 1.08332
 H301 H 0.37871 1.03269 1.03434
 H302 H 0.33888 1.05618 1.05701
 C303 C 0.25160 0.82418 0.85430
 C304 C 0.25366 0.85339 0.85743
 C305 C 0.23201 0.87076 0.84752
 C306 C 0.20836 0.85900 0.83459
 C307 C 0.20608 0.82968 0.83140
 C308 C 0.22794 0.81238 0.84136
 C309 C 0.27787 0.86558 0.87094
 C310 C 0.29801 0.87603 0.88229
 C311 C 0.32143 0.88853 0.89561
 C312 C 0.34129 0.89945 0.90700
 C313 C 0.36483 0.91279 0.92060
 C314 C 0.39236 0.90527 0.91336
 C315 C 0.41522 0.91858 0.92629
 C316 C 0.41079 0.93965 0.94665
 C317 C 0.38298 0.94693 0.95388
 C318 C 0.36019 0.93359 0.94093
 H319 H 0.26824 0.81054 0.86187
 H320 H 0.23337 0.89339 0.84990
 H321 H 0.19167 0.87272 0.82732
 H322 H 0.22670 0.78976 0.83897
 H323 H 0.39618 0.88920 0.89763
 H324 H 0.43631 0.91245 0.92022
 H325 H 0.37876 0.96301 0.96948
 H326 H 0.33895 0.93957 0.94669
 C327 C 0.74895 0.82760 1.14969
 C328 C 0.74738 0.85691 1.14728
 C329 C 0.76973 0.87359 1.15678
 C330 C 0.79358 0.86103 1.16858
 C331 C 0.79537 0.83161 1.17104
 C332 C 0.77280 0.81502 1.16150
 C333 C 0.72301 0.86989 1.13481
 C334 C 0.70273 0.88087 1.12421
 C335 C 0.67915 0.89383 1.11160
 C336 C 0.65916 0.90496 1.10063
 C337 C 0.63548 0.91831 1.08724
 C338 C 0.60801 0.91065 1.09453
 C339 C 0.58503 0.92335 1.08119
 C340 C 0.58926 0.94389 1.06033
 C341 C 0.61700 0.95155 1.05330
 C342 C 0.63991 0.93882 1.06667
 H343 H 0.73178 0.81450 1.14240
 H344 H 0.76876 0.89628 1.15494
 H345 H 0.81080 0.87423 1.17555
 H346 H 0.77365 0.79233 1.16334
 H347 H 0.60436 0.89478 1.11043
 H348 H 0.56400 0.91696 1.08713
 H349 H 0.62106 0.96730 1.03739
 H350 H 0.66109 0.94491 1.06088
 C351 C 0.74591 1.14483 0.82613
 C352 C 0.74426 1.14228 0.85540
 C353 C 0.76608 1.15258 0.87231
 C354 C 0.78953 1.16528 0.86002
 C355 C 0.79142 1.16783 0.83063
 C356 C 0.76935 1.15754 0.81380
 C357 C 0.72032 1.12887 0.86810
 C358 C 0.70039 1.11756 0.87888
 C359 C 0.67720 1.10426 0.89169
 C360 C 0.65749 1.09289 0.90280
 C361 C 0.63408 1.07932 0.91628
 C362 C 0.63889 1.05910 0.93709
 C363 C 0.61621 1.04615 0.95052
 C364 C 0.58834 1.05330 0.94331
 C365 C 0.58375 1.07356 0.92223
 C366 C 0.60649 1.08648 0.90884
 H367 H 0.72912 1.13694 0.81285
 H368 H 0.76504 1.15066 0.89499
 H369 H 0.80639 1.17283 0.87338
 H370 H 0.77029 1.15943 0.79114
 H371 H 0.66018 1.05340 0.94300
 H372 H 0.62055 1.03062 0.96660
 H373 H 0.56260 1.07956 0.91615
 H374 H 0.60254 1.10212 0.89276
 C375 C 0.15443 0.23182 0.12493
 C376 C 0.14471 0.25439 0.14117
 C377 C 0.14724 0.25351 0.17049
 C378 C 0.15941 0.23012 0.18353
 C379 C 0.16917 0.20733 0.16737
 C380 C 0.16659 0.20843 0.13793
 C381 C 0.13190 0.27831 0.12776
 C382 C 0.12105 0.29825 0.11646
 C383 C 0.10819 0.32148 0.10319
 C384 C 0.09705 0.34123 0.09186
 C385 C 0.08354 0.36473 0.07838
 C386 C 0.09076 0.39224 0.08596
 C387 C 0.07734 0.41508 0.07315
 C388 C 0.05646 0.41066 0.05257
 C389 C 0.04949 0.38288 0.04499
 C390 C 0.06295 0.36010 0.05783
 H391 H 0.15250 0.23226 0.10223
 H392 H 0.13979 0.27088 0.18326
 H393 H 0.16134 0.22980 0.20621
 H394 H 0.17374 0.19101 0.12508
 H395 H 0.10668 0.39605 0.10185
 H396 H 0.08325 0.43615 0.07948
 H397 H 0.03357 0.37868 0.02922
 H398 H 0.05721 0.33888 0.05181
 C399 C -0.17679 0.25127 -0.14764
 C400 C -0.14751 0.25335 -0.14500
 C401 C -0.13031 0.23153 -0.15480
 C402 C -0.14231 0.20767 -0.16711
 C403 C -0.17170 0.20535 -0.16976
 C404 C -0.18883 0.22741 -0.15995
 C405 C -0.13509 0.27771 -0.13199
 C406 C -0.12448 0.29795 -0.12099
 C407 C -0.11181 0.32146 -0.10802
 C408 C -0.10076 0.34137 -0.09686
 C409 C -0.08727 0.36493 -0.08345
 C410 C -0.09470 0.39244 -0.09084
 C411 C -0.08132 0.41530 -0.07800
 C412 C -0.06027 0.41091 -0.05759
 C413 C -0.05307 0.38312 -0.05024
 C414 C -0.06648 0.36034 -0.06309
 H415 H -0.19030 0.26805 -0.14013
 H416 H -0.10763 0.23289 -0.15279
 H417 H -0.12871 0.19084 -0.17428
 H418 H -0.21149 0.22615 -0.16194
 H419 H -0.11077 0.39622 -0.10658
 H420 H -0.08740 0.43637 -0.08416
 H421 H -0.03702 0.37893 -0.03459
 H422 H -0.06057 0.33912 -0.05721
 C423 C 0.15230 0.76698 -0.12866
 C424 C 0.14246 0.74537 -0.14610
 C425 C 0.14568 0.74744 -0.17528
 C426 C 0.15862 0.77106 -0.18699
 C427 C 0.16848 0.79290 -0.16962
 C428 C 0.16524 0.79061 -0.14033
 C429 C 0.12887 0.72122 -0.13402
 C430 C 0.11744 0.70113 -0.12370
 C431 C 0.10401 0.67777 -0.11136
 C432 C 0.09254 0.65795 -0.10057
 C433 C 0.07885 0.63445 -0.08737
 C434 C 0.08648 0.60692 -0.09453
 C435 C 0.07354 0.58411 -0.08128
 C436 C 0.05280 0.58857 -0.06064
 C437 C 0.04516 0.61638 -0.05375
 C438 C 0.05812 0.63912 -0.06704
 H439 H 0.14986 0.76562 -0.10606
 H440 H 0.13815 0.73082 -0.18897
 H441 H 0.16106 0.77232 -0.20958
 H442 H 0.17244 0.80728 -0.12657
 H443 H 0.10252 0.60308 -0.11025
 H444 H 0.07993 0.56302 -0.08710
 H445 H 0.02925 0.62062 -0.03801
 H446 H 0.05206 0.66035 -0.06134
 C447 C -0.15345 0.76823 0.12817
 C448 C -0.14345 0.74618 0.14492
 C449 C -0.14577 0.74785 0.17421
 C450 C -0.15793 0.77155 0.18673
 C451 C -0.16788 0.79387 0.17007
 C452 C -0.16560 0.79194 0.14065
 C453 C -0.13048 0.72202 0.13205
 C454 C -0.11950 0.70192 0.12116
 C455 C -0.10652 0.67852 0.10827
 C456 C -0.09538 0.65865 0.09711
 C457 C -0.08204 0.63507 0.08356
 C458 C -0.08977 0.60759 0.09065
 C459 C -0.07705 0.58470 0.07722
 C460 C -0.05642 0.58902 0.05645
 C461 C -0.04870 0.61677 0.04961
 C462 C -0.06145 0.63960 0.06308
 H463 H -0.15169 0.76718 0.10548
 H464 H -0.13812 0.73090 0.18737
 H465 H -0.15963 0.77252 0.20941
 H466 H -0.17290 0.80897 0.12742
 H467 H -0.10569 0.60386 0.10649
 H468 H -0.08349 0.56365 0.08302
 H469 H -0.03288 0.62090 0.03378
 H470 H -0.05530 0.66079 0.05745
 C471 C 1.14744 0.17330 0.75115
 C472 C 1.14717 0.14404 0.74813
 C473 C 1.15872 0.12710 0.76920
 C474 C 1.17044 0.13929 0.79327
 C475 C 1.17083 0.16883 0.79681
 C476 C 1.15913 0.18561 0.77520
 C477 C 1.13472 0.13135 0.72357
 C478 C 1.12412 0.12059 0.70317
 C479 C 1.11150 0.10783 0.67948
 C480 C 1.10051 0.09681 0.65943
 C481 C 1.08708 0.08350 0.63573
 C482 C 1.06631 0.06317 0.64014
 C483 C 1.05300 0.05035 0.61724
 C484 C 1.06030 0.05772 0.58952
 C485 C 1.08133 0.07812 0.58531
 C486 C 1.09460 0.09092 0.60828
 H487 H 1.13863 0.18663 0.73490
 H488 H 1.15847 0.10440 0.76714
 H489 H 1.17855 0.12553 0.80951
 H490 H 1.15950 0.20833 0.77666
 H491 H 1.06033 0.05726 0.66129
 H492 H 1.03696 0.03472 0.62131
 H493 H 1.08748 0.08429 0.56429
 H494 H 1.11067 0.10664 0.60463
 C495 C 0.84571 -0.12421 0.76772
 C496 C 0.85562 -0.14059 0.74533
 C497 C 0.85326 -0.16992 0.74641
 C498 C 0.84107 -0.18283 0.76981
 C499 C 0.83113 -0.16655 0.79242
 C500 C 0.83354 -0.13710 0.79112
 C501 C 0.86844 -0.12729 0.72139
 C502 C 0.87929 -0.11608 0.70144
 C503 C 0.89216 -0.10291 0.67820
 C504 C 0.90330 -0.09165 0.65844
 C505 C 0.91682 -0.07820 0.63497
 C506 C 0.90967 -0.08581 0.60744
 C507 C 0.92308 -0.07300 0.58465
 C508 C 0.94387 -0.05240 0.58913
 C509 C 0.95078 -0.04480 0.61693
 C510 C 0.93734 -0.05763 0.63966
 H511 H 0.84750 -0.10150 0.76713
 H512 H 0.86085 -0.18279 0.72920
 H513 H 0.83927 -0.20553 0.77027
 H514 H 0.82625 -0.12414 0.80838
 H515 H 0.89381 -0.10172 0.60357
 H516 H 0.91723 -0.07936 0.56356
 H517 H 0.96664 -0.02900 0.62119
 H518 H 0.94302 -0.05158 0.66089
 C519 C 1.12633 -0.15504 0.23197
 C520 C 1.14334 -0.14552 0.25408
 C521 C 1.17261 -0.14853 0.25241
 C522 C 1.18484 -0.16095 0.22871
 C523 C 1.16791 -0.17051 0.20638
 C524 C 1.13852 -0.16745 0.20826
 C525 C 1.13074 -0.13245 0.27832
 C526 C 1.12005 -0.12139 0.29848
 C527 C 1.10740 -0.10828 0.32194
 C528 C 1.09649 -0.09692 0.34182
 C529 C 1.08334 -0.08316 0.36538
 C530 C 1.09081 -0.09052 0.39289
 C531 C 1.07813 -0.07699 0.41575
 C532 C 1.05779 -0.05587 0.41137
 C533 C 1.05039 -0.04871 0.38359
 C534 C 1.06309 -0.06226 0.36080
 H535 H 1.10366 -0.15275 0.23300
 H536 H 1.18598 -0.14125 0.26940
 H537 H 1.20749 -0.16326 0.22779
 H538 H 1.12508 -0.17443 0.19123
 H539 H 1.10646 -0.10667 0.39667
 H540 H 1.08432 -0.08305 0.43681
 H541 H 1.03480 -0.03260 0.37941
 H542 H 1.05714 -0.05641 0.33960
 C543 C 0.85485 0.17524 0.25145
 C544 C 0.85798 0.14604 0.25366
 C545 C 0.84804 0.12856 0.23212
 C546 C 0.83509 0.14021 0.20842
 C547 C 0.83192 0.16952 0.20599
 C548 C 0.84189 0.18692 0.22776
 C549 C 0.87155 0.13396 0.27791
 C550 C 0.88295 0.12365 0.29809
 C551 C 0.89633 0.11131 0.32156
 C552 C 0.90778 0.10054 0.34147
 C553 C 0.92144 0.08736 0.36507
 C554 C 0.91377 0.09459 0.39255
 C555 C 0.92671 0.08137 0.41545
 C556 C 0.94749 0.06068 0.41114
 C557 C 0.95517 0.05372 0.38339
 C558 C 0.94222 0.06697 0.36056
 H559 H 0.86244 0.18896 0.26801
 H560 H 0.85041 0.10594 0.23358
 H561 H 0.82781 0.12641 0.19182
 H562 H 0.83951 0.20953 0.22642
 H563 H 0.89770 0.11034 0.39629
 H564 H 0.92029 0.08726 0.43649
 H565 H 0.97111 0.03794 0.37925
 H566 H 0.94832 0.06121 0.33937
 C567 C 0.17405 0.24974 -0.14315
 C568 C 0.14478 0.25282 -0.14332
 C569 C 0.12798 0.23211 -0.15576
 C570 C 0.14034 0.20831 -0.16786
 C571 C 0.16989 0.20469 -0.16774
 C572 C 0.18651 0.22598 -0.15521
 C573 C 0.13195 0.27707 -0.13043
 C574 C 0.12111 0.29725 -0.11951
 C575 C 0.10828 0.32074 -0.10660
 C576 C 0.09716 0.34067 -0.09550
 C577 C 0.08365 0.36431 -0.08218
 C578 C 0.06303 0.35984 -0.06171
 C579 C 0.04960 0.38271 -0.04897
 C580 C 0.05663 0.41045 -0.05656
 C581 C 0.07753 0.41472 -0.07707
 C582 C 0.09092 0.39178 -0.08978
 H583 H 0.18727 0.26572 -0.13367
 H584 H 0.10527 0.23423 -0.15587
 H585 H 0.12669 0.19231 -0.17662
 H586 H 0.20926 0.22445 -0.15518
 H587 H 0.05725 0.33866 -0.05565
 H588 H 0.03367 0.37861 -0.03324
 H589 H 0.08347 0.43575 -0.08341
 H590 H 0.10687 0.39547 -0.10561
 C591 C -0.12818 0.23237 0.15234
 C592 C -0.14569 0.25387 0.14238
 C593 C -0.17491 0.25163 0.14544
 C594 C -0.18657 0.22795 0.15833
 C595 C -0.16913 0.20622 0.16832
 C596 C -0.13981 0.20868 0.16522
 C597 C -0.13364 0.27810 0.12887
 C598 C -0.12333 0.29825 0.11751
 C599 C -0.11100 0.32169 0.10415
 C600 C -0.10022 0.34155 0.09272
 C601 C -0.08703 0.36508 0.07904
 C602 C -0.09456 0.39261 0.08631
 C603 C -0.08136 0.41544 0.07334
 C604 C -0.06038 0.41100 0.05291
 C605 C -0.05311 0.38319 0.04565
 C606 C -0.06635 0.36044 0.05864
 H607 H -0.10554 0.23385 0.15003
 H608 H -0.18866 0.26816 0.13783
 H609 H -0.20920 0.22659 0.16065
 H610 H -0.12597 0.19210 0.17252
 H611 H -0.11054 0.39644 0.10209
 H612 H -0.08748 0.43653 0.07943
 H613 H -0.03711 0.37896 0.03000
 H614 H -0.06036 0.33921 0.05285
 C615 C -0.17266 0.74884 -0.15031
 C616 C -0.14335 0.74709 -0.14776
 C617 C -0.12652 0.76934 -0.15710
 C618 C -0.13894 0.79327 -0.16886
 C619 C -0.16837 0.79524 -0.17143
 C620 C -0.18511 0.77276 -0.16208
 C621 C -0.13052 0.72266 -0.13524
 C622 C -0.11968 0.70235 -0.12459
 C623 C -0.10688 0.67874 -0.11190
 C624 C -0.09586 0.65874 -0.10084
 C625 C -0.08259 0.63508 -0.08735
 C626 C -0.09007 0.60761 -0.09487
 C627 C -0.07735 0.58466 -0.08151
 C628 C -0.05698 0.58892 -0.06040
 C629 C -0.04955 0.61666 -0.05311
 C630 C -0.06228 0.63954 -0.06650
 H631 H -0.18589 0.73175 -0.14315
 H632 H -0.10382 0.76825 -0.15515
 H633 H -0.12563 0.81041 -0.17569
 H634 H -0.20780 0.77374 -0.16401
 H635 H -0.10578 0.60392 -0.11100
 H636 H -0.08357 0.56362 -0.08766
 H637 H -0.03393 0.62076 -0.03700
 H638 H -0.05632 0.66071 -0.06052
 C639 C 0.14490 0.74686 0.17340
 C640 C 0.14220 0.74517 0.14413
 C641 C 0.15233 0.76701 0.12726
 C642 C 0.16503 0.79051 0.13959
 C643 C 0.16776 0.79243 0.16898
 C644 C 0.15761 0.77034 0.18577
 C645 C 0.12883 0.72115 0.13139
 C646 C 0.11757 0.70115 0.12058
 C647 C 0.10433 0.67785 0.10776
 C648 C 0.09298 0.65806 0.09665
 C649 C 0.07943 0.63456 0.08317
 C650 C 0.05911 0.63921 0.06236
 C651 C 0.04615 0.61646 0.04896
 C652 C 0.05337 0.58865 0.05620
 C653 C 0.07374 0.58420 0.07728
 C654 C 0.08667 0.60702 0.09064
 H655 H 0.13715 0.73006 0.18666
 H656 H 0.15030 0.76595 0.10459
 H657 H 0.17246 0.80736 0.12625
 H658 H 0.15964 0.77129 0.20843
 H659 H 0.05333 0.66045 0.05641
 H660 H 0.03054 0.62069 0.03288
 H661 H 0.07980 0.56311 0.08339
 H662 H 0.10238 0.60319 0.10673
 C663 C 0.23190 1.15640 0.87577
 C664 C 0.25315 1.14444 0.85933
 C665 C 0.25082 1.14475 0.83002
 C666 C 0.22731 1.15691 0.81715
 C667 C 0.20554 1.16906 0.83340
 C668 C 0.20835 1.16859 0.86301
 C669 C 0.27723 1.13163 0.87257
 C670 C 0.29729 1.12080 0.88373
 C671 C 0.32067 1.10796 0.89686
 C672 C 0.34054 1.09685 0.90810
 C673 C 0.36415 1.08338 0.92151
 C674 C 0.35964 1.06283 0.94203
 C675 C 0.38251 1.04943 0.95483
 C676 C 0.41028 1.05641 0.94725
 C677 C 0.41458 1.07724 0.92668
 C678 C 0.39165 1.09060 0.91391
 H679 H 0.23342 1.15613 0.89850
 H680 H 0.26723 1.13563 0.81708
 H681 H 0.22639 1.15732 0.79440
 H682 H 0.19194 1.17704 0.87637
 H683 H 0.33844 1.05708 0.94808
 H684 H 0.37839 1.03354 0.97059
 H685 H 0.43563 1.08315 0.92034
 H686 H 0.39538 1.10649 0.89805
 C687 C 0.23168 0.87053 1.15463
 C688 C 0.25339 0.85328 1.14468
 C689 C 0.25119 0.82402 1.14716
 C690 C 0.22733 0.81206 1.15946
 C691 C 0.20537 0.82924 1.16942
 C692 C 0.20781 0.85861 1.16693
 C693 C 0.27777 0.86562 1.13167
 C694 C 0.29802 0.87615 1.12068
 C695 C 0.32155 0.88872 1.10769
 C696 C 0.34148 0.89968 1.09652
 C697 C 0.36504 0.91308 1.08307
 C698 C 0.39260 0.90561 1.09040
 C699 C 0.41545 0.91891 1.07754
 C700 C 0.41100 0.93991 1.05717
 C701 C 0.38318 0.94715 1.04987
 C702 C 0.36040 0.93382 1.06275
 H703 H 0.23312 0.89320 1.15276
 H704 H 0.26788 0.81047 1.13954
 H705 H 0.22599 0.78941 1.16132
 H706 H 0.19107 0.87225 1.17421
 H707 H 0.39643 0.88958 1.10612
 H708 H 0.43655 0.91281 1.08366
 H709 H 0.37894 0.96318 1.03426
 H710 H 0.33915 0.93976 1.05691
 C711 C 0.74868 1.14573 1.17484
 C712 C 0.74647 1.14252 1.14565
 C713 C 0.76804 1.15235 1.12823
 C714 C 0.79175 1.16527 1.13993
 C715 C 0.79417 1.16852 1.16923
 C716 C 0.77238 1.15865 1.18658
 C717 C 0.72221 1.12900 1.13353
 C718 C 0.70202 1.11762 1.12318
 C719 C 0.67854 1.10426 1.11082
 C720 C 0.65862 1.09282 1.10002
 C721 C 0.63501 1.07915 1.08680
 C722 C 0.63957 1.05846 1.06636
 C723 C 0.61673 1.04548 1.05310
 C724 C 0.58894 1.05306 1.06011
 C725 C 0.58459 1.07378 1.08086
 C726 C 0.60749 1.08673 1.09408
 H727 H 0.73210 1.13822 1.18852
 H728 H 0.76659 1.14993 1.10562
 H729 H 0.80837 1.17247 1.12618
 H730 H 0.77372 1.16109 1.20918
 H731 H 0.66078 1.05243 1.06056
 H732 H 0.62089 1.02961 1.03728
 H733 H 0.56352 1.08012 1.08678
 H734 H 0.60373 1.10274 1.10987
 C735 C 0.76827 0.84630 0.87157
 C736 C 0.74623 0.85642 0.85481
 C737 C 0.74798 0.85431 0.82549
 C738 C 0.77173 0.84224 0.81298
 C739 C 0.79402 0.83215 0.82966
 C740 C 0.79202 0.83424 0.85908
 C741 C 0.72199 0.86923 0.86770
 C742 C 0.70182 0.88008 0.87862
 C743 C 0.67835 0.89290 0.89157
 C744 C 0.65845 0.90394 0.90280
 C745 C 0.63486 0.91721 0.91642
 C746 C 0.60733 0.90976 0.90902
 C747 C 0.58444 0.92250 0.92245
 C748 C 0.58881 0.94288 0.94353
 C749 C 0.61661 0.95027 0.95072
 C750 C 0.63943 0.93751 0.93725
 H751 H 0.76717 0.84789 0.89427
 H752 H 0.73104 0.86205 0.81232
 H753 H 0.77273 0.84069 0.79029
 H754 H 0.80903 0.82683 0.87234
 H755 H 0.60356 0.89407 0.89291
 H756 H 0.56336 0.91631 0.91638
 H757 H 0.62079 0.96588 0.96680
 H758 H 0.66066 0.94344 0.94314
   
