data_POSCAR
  _audit_creation_date              2014-09-24
  _audit_creation_method            'ToBaCCo'
  _symmetry_space_group_name_H-M    'P1'
  _symmetry_Int_Tables_number       1
  _symmetry_cell_setting            triclinic
  loop_
  _symmetry_equiv_pos_as_xyz
 x,y,z
_cell_length_a 18.7713
_cell_length_b 19.3621
_cell_length_c 18.1568
_cell_angle_alpha 90.246600
_cell_angle_beta 90.925500
_cell_angle_gamma 91.662100
loop_
  _atom_site_label
  _atom_site_type_symbol
  _atom_site_fract_x
  _atom_site_fract_y
  _atom_site_fract_z
O1 O 0.54041 0.14645 0.01813
 O2 O 0.43452 -0.04211 -0.12755
 O3 O 0.63625 0.02281 -0.08037
 O4 O 0.32296 0.06315 0.03358
 O5 O 0.56610 -0.06307 -0.12234
 O6 O 0.41892 0.12785 0.02925
 O7 O 0.39904 0.05323 -0.07819
 O8 O 0.63893 0.09744 0.03525
 C9 C 0.60576 0.14936 0.01796
 C10 C 0.40489 0.01556 -0.13387
 C11 C 0.61734 -0.01933 -0.13064
 C12 C 0.35263 0.12429 0.03942
 O13 O 0.43891 0.05091 0.15406
 O14 O 0.54399 -0.14404 -0.00289
 O15 O 0.62681 -0.01365 0.11468
 O16 O 0.34124 -0.05698 -0.02907
 O17 O 0.42222 -0.12530 -0.00360
 O18 O 0.56748 0.07624 0.14728
 O19 O 0.38920 -0.03496 0.09798
 O20 O 0.64075 -0.08318 0.00114
 Co21 Co 0.49275 0.09141 0.08130
 Co22 Co 0.49203 -0.08545 -0.05832
 Co23 Co 0.62295 0.00590 0.01768
 Co24 Co 0.39884 0.01119 0.01204
 O25 O 0.50607 0.00132 0.01250
 C26 C 0.40037 -0.00274 0.15609
 C27 C 0.60958 -0.14008 0.00194
 C28 C 0.61050 0.02908 0.16237
 C29 C 0.35841 -0.11710 -0.01763
 O30 O -0.15144 0.45960 -0.01926
 O31 O 0.03816 0.55836 0.13268
 O32 O -0.02628 0.36078 0.06956
 O33 O -0.06572 0.67055 -0.03157
 O34 O 0.05825 0.42688 0.12432
 O35 O -0.13435 0.57853 -0.02867
 O36 O -0.05805 0.59376 0.07830
 O37 O -0.10134 0.36662 -0.04594
 C38 C -0.15375 0.39626 -0.02244
 C39 C -0.02000 0.58989 0.13510
 C40 C 0.01511 0.37451 0.12342
 C41 C -0.12945 0.64314 -0.03729
 O42 O -0.05447 0.56380 -0.15199
 O43 O 0.14862 0.45313 0.01455
 O44 O 0.01557 0.38738 -0.12134
 O45 O 0.05604 0.65033 0.03320
 O46 O 0.12971 0.57262 0.01568
 O47 O -0.08106 0.43967 -0.15044
 O48 O 0.03597 0.60705 -0.09429
 O49 O 0.08398 0.36255 -0.00862
 Co50 Co -0.09592 0.50866 -0.08149
 Co51 Co 0.08460 0.50269 0.06540
 Co52 Co -0.00721 0.38124 -0.02597
 Co53 Co -0.01325 0.59586 -0.01052
 O54 O -0.00264 0.49256 -0.01193
 C55 C 0.00197 0.59961 -0.15259
 C56 C 0.14304 0.39046 0.00195
 C57 C -0.03024 0.40210 -0.16784
 C58 C 0.11869 0.63464 0.02581
 O59 O -0.00731 -0.13556 0.42152
 O60 O 0.14114 0.07476 0.56646
 O61 O 0.09626 -0.05723 0.39801
 O62 O 0.00560 -0.09298 0.65060
 O63 O 0.14161 0.04252 0.43375
 O64 O 0.01024 -0.14991 0.54934
 O65 O 0.11133 -0.01060 0.64012
 O66 O -0.01684 -0.07607 0.32168
 C67 C -0.02409 -0.13532 0.35383
 C68 C 0.15620 0.03323 0.61792
 C69 C 0.14902 -0.01620 0.40414
 C70 C 0.01664 -0.14791 0.61708
 O71 O -0.11192 -0.08233 0.57950
 O72 O 0.01584 0.11487 0.41883
 O73 O -0.07697 0.02154 0.38912
 O74 O 0.02700 0.09252 0.64448
 O75 O 0.01635 0.14113 0.53986
 O76 O -0.12751 -0.06224 0.44654
 O77 O -0.07914 0.01146 0.64011
 O78 O 0.04344 0.04765 0.33545
 Co79 Co -0.05331 -0.09845 0.49988
 Co80 Co 0.07413 0.08526 0.49077
 Co81 Co 0.00819 -0.01940 0.39826
 Co82 Co 0.01567 -0.00054 0.63079
 O83 O 0.01225 -0.00470 0.50954
 C84 C -0.12510 -0.03420 0.62426
 C85 C 0.03157 0.10772 0.35380
 C86 C -0.13224 -0.01081 0.40552
 C87 C 0.01135 0.14360 0.60711
 C88 C -0.35630 0.21319 0.00796
 C89 C -0.31844 0.26372 0.00227
 C90 C -0.26716 0.31727 -0.00355
 C91 C -0.21769 0.35711 -0.01024
 C92 C 0.31120 0.83301 -0.01026
 C93 C 0.26807 0.78659 -0.00180
 C94 C 0.21750 0.73251 0.00898
 C95 C 0.17332 0.68708 0.01762
 C96 C 0.31239 0.18567 0.03328
 C97 C 0.28098 0.23847 0.02531
 C98 C 0.24194 0.29872 0.01485
 C99 C 0.20185 0.34555 0.00711
 C100 C -0.34715 0.80079 -0.00103
 C101 C -0.30197 0.75881 -0.00838
 C102 C -0.24327 0.71694 -0.01974
 C103 C -0.19111 0.68374 -0.02915
 C104 C -0.03177 -0.36239 0.19417
 C105 C -0.03589 -0.31423 0.23621
 C106 C -0.03538 -0.25284 0.27892
 C107 C -0.03159 -0.19902 0.31288
 C108 C -0.03182 0.36156 0.76631
 C109 C -0.02794 0.31776 0.71959
 C110 C -0.01810 0.25959 0.67464
 C111 C -0.00615 0.20705 0.64212
 C112 C 0.01809 0.32399 0.18079
 C113 C 0.02171 0.27562 0.22214
 C114 C 0.02622 0.21586 0.26615
 C115 C 0.02943 0.16503 0.30407
 C116 C 0.01708 -0.36106 0.79143
 C117 C 0.02588 -0.31802 0.74436
 C118 C 0.02931 -0.26158 0.69535
 C119 C 0.02658 -0.21044 0.65779
 C120 C 0.36884 0.02913 0.80593
 C121 C 0.32893 0.03676 0.75378
 C122 C 0.27482 0.04009 0.69854
 C123 C 0.22330 0.03890 0.65758
 C124 C -0.34923 0.02903 0.23044
 C125 C -0.30741 0.02516 0.28143
 C126 C -0.25130 0.01649 0.33332
 C127 C -0.19884 0.00580 0.37049
 C128 C 0.35989 -0.01984 0.22084
 C129 C 0.31880 -0.02852 0.27096
 C130 C 0.26423 -0.03204 0.32433
 C131 C 0.21347 -0.02877 0.36444
 C132 C -0.33966 -0.02238 0.80447
 C133 C -0.29756 -0.02639 0.75503
 C134 C -0.24238 -0.03125 0.70299
 C135 C -0.19100 -0.03405 0.66386
   
