data_POSCAR
  _audit_creation_date              2014-09-24
  _audit_creation_method            'ToBaCCo'
  _symmetry_space_group_name_H-M    'P1'
  _symmetry_Int_Tables_number       1
  _symmetry_cell_setting            triclinic
  loop_
  _symmetry_equiv_pos_as_xyz
 x,y,z
_cell_length_a 46.8358
_cell_length_b 27.9604
_cell_length_c 15.3869
_cell_angle_alpha 89.741800
_cell_angle_beta 90.036200
_cell_angle_gamma 90.011400
loop_
  _atom_site_label
  _atom_site_type_symbol
  _atom_site_fract_x
  _atom_site_fract_y
  _atom_site_fract_z
C1 C 0.72655 0.27058 0.54428
 C2 C 0.72878 0.27141 0.45229
 C3 C 0.75210 0.24927 0.41193
 C4 C 0.77342 0.22512 0.45966
 C5 C 0.77151 0.22501 0.55260
 C6 C 0.74741 0.24580 0.59231
 H7 H 0.74648 0.24753 0.66263
 H8 H 0.75223 0.24777 0.34155
 C9 C 0.22744 0.77202 0.54048
 C10 C 0.22832 0.76951 0.44880
 C11 C 0.25129 0.74665 0.40842
 C12 C 0.27402 0.72718 0.45657
 C13 C 0.27381 0.73072 0.54916
 C14 C 0.24998 0.75237 0.58905
 H15 H 0.24929 0.75583 0.65911
 H16 H 0.25139 0.74384 0.33814
 C17 C 0.27202 0.26953 -0.55013
 C18 C 0.27251 0.27229 -0.45842
 C19 C 0.25011 0.25183 -0.41062
 C20 C 0.22651 0.22963 -0.45092
 C21 C 0.22614 0.22658 -0.54399
 C22 C 0.24881 0.24748 -0.59112
 H23 H 0.24962 0.24370 -0.66117
 H24 H 0.25024 0.25649 -0.34072
 C25 C -0.22754 0.76854 -0.54619
 C26 C -0.23063 0.78145 -0.45781
 C27 C -0.25465 0.76548 -0.41166
 C28 C -0.27540 0.73592 -0.45022
 C29 C -0.27294 0.72471 -0.54045
 C30 C -0.24858 0.74040 -0.58595
 H31 H -0.24645 0.73262 -0.65461
 H32 H -0.25621 0.77398 -0.34313
 O33 O -0.03879 0.90691 0.14500
 O34 O -0.07072 0.95515 0.07343
 C35 C -0.06458 0.92079 0.12711
 O36 O 0.04091 1.07638 0.16716
 O37 O 0.07172 1.03712 0.07586
 C38 C 0.06641 1.06580 0.13981
 O39 O -0.03975 1.07219 0.17713
 O40 O -0.07135 1.03500 0.08553
 C41 C -0.06551 1.06193 0.15143
 O42 O 0.04112 0.90470 0.13265
 O43 O 0.07175 0.95540 0.06147
 C44 C 0.06662 0.91936 0.11239
 Zr45 Zr 0.00063 0.93293 0.09731
 O46 O 0.00447 0.92288 0.23322
 O47 O -0.00240 0.85809 0.07859
 Zr48 Zr 0.00039 1.05314 0.12204
 O49 O 0.00419 1.04500 0.25842
 O50 O -0.00262 1.12828 0.13580
 O51 O -0.02484 0.99179 0.12814
 O52 O 0.02530 0.99223 0.12408
 O53 O 0.03886 0.92127 -0.16629
 O54 O 0.07082 0.96383 -0.08385
 C55 C 0.06467 0.93303 -0.14385
 O56 O -0.04089 1.09311 -0.13789
 O57 O -0.07174 1.04418 -0.06353
 C58 C -0.06638 1.07888 -0.11720
 O59 O 0.03898 1.09679 -0.13391
 O60 O 0.07069 1.04608 -0.06742
 C61 C 0.06477 1.08266 -0.11629
 O62 O -0.04156 0.92834 -0.17285
 O63 O -0.07219 0.96498 -0.07779
 C64 C -0.06704 0.93882 -0.14525
 Zr65 Zr -0.00098 0.94683 -0.12074
 O66 O 0.00191 0.95609 -0.25709
 O67 O -0.00469 0.87197 -0.13707
 Zr68 Zr -0.00076 1.06692 -0.09626
 O69 O 0.00158 1.07477 -0.23300
 O70 O -0.00383 1.14197 -0.08118
 Zr71 Zr -0.04272 0.99975 0.00308
 Zr72 Zr 0.04222 1.00020 -0.00188
 O73 O 0.02384 1.00790 -0.12589
 O74 O -0.02645 1.00793 -0.12390
 O75 O 0.02533 0.93070 -0.01498
 O76 O -0.02498 1.06856 0.01587
 O77 O -0.02507 0.93109 -0.01194
 O78 O 0.02528 1.06948 0.01345
 H79 H 0.03837 0.98914 0.17444
 H80 H -0.03783 1.09649 0.02204
 H81 H 0.03655 1.01099 -0.17705
 H82 H -0.03809 0.90330 -0.01690
 H83 H 0.01389 1.14263 0.10523
 H84 H 0.01198 1.15206 -0.04277
 H85 H -0.01491 1.05764 -0.25827
 H86 H -0.01430 0.97646 -0.27537
 H87 H 0.01016 0.85681 -0.10049
 H88 H 0.01489 0.84770 0.04696
 H89 H -0.00996 0.94354 0.26118
 H90 H -0.01169 1.02430 0.27807
 O91 O 0.54011 0.42525 -0.17574
 O92 O 0.57174 0.46366 -0.08582
 C93 C 0.56585 0.43584 -0.15072
 O94 O 0.46052 0.59636 -0.13362
 O95 O 0.42913 0.54532 -0.06634
 C96 C 0.43483 0.58205 -0.11515
 O97 O 0.54040 0.59287 -0.14224
 O98 O 0.57153 0.54369 -0.06978
 C99 C 0.56600 0.57870 -0.12263
 O100 O 0.45983 0.42322 -0.17103
 O101 O 0.42871 0.46260 -0.08096
 C102 C 0.43426 0.43379 -0.14454
 Zr103 Zr 0.50012 0.44632 -0.12406
 O104 O 0.49733 0.45611 -0.26032
 O105 O 0.50259 0.37127 -0.14017
 Zr106 Zr 0.50050 0.56634 -0.09895
 O107 O 0.49730 0.57405 -0.23558
 O108 O 0.50367 0.64139 -0.08446
 O109 O 0.52585 0.50722 -0.12865
 O110 O 0.47550 0.50754 -0.12719
 O111 O 0.46016 0.40277 0.13006
 O112 O 0.42900 0.45440 0.06307
 C113 C 0.43455 0.41774 0.11217
 O114 O 0.54071 0.57080 0.17319
 O115 O 0.57184 0.53432 0.07952
 C116 C 0.56631 0.56080 0.14637
 O117 O 0.46038 0.57509 0.16745
 O118 O 0.42902 0.53661 0.07678
 C119 C 0.43474 0.56501 0.14075
 O120 O 0.54058 0.40618 0.13725
 O121 O 0.57196 0.45521 0.06461
 C122 C 0.56624 0.42059 0.11811
 Zr123 Zr 0.50030 0.43199 0.09422
 O124 O 0.49733 0.42338 0.23070
 O125 O 0.50320 0.35693 0.07906
 Zr126 Zr 0.50057 0.55199 0.11946
 O127 O 0.49771 0.54388 0.25604
 O128 O 0.50371 0.62715 0.13277
 Zr129 Zr 0.54290 0.49882 -0.00268
 Zr130 Zr 0.45797 0.49944 -0.00215
 O131 O 0.47569 0.49111 0.12274
 O132 O 0.52594 0.49072 0.12354
 O133 O 0.47471 0.42997 -0.01669
 O134 O 0.52533 0.56762 0.01196
 O135 O 0.52497 0.43026 -0.01676
 O136 O 0.47510 0.56868 0.01231
 H137 H 0.46252 0.51094 -0.17770
 H138 H 0.53820 0.59555 0.01779
 H139 H 0.46289 0.48789 0.17367
 H140 H 0.53776 0.40220 -0.02211
 H141 H 0.48875 0.65126 -0.04280
 H142 H 0.48664 0.64147 0.10512
 H143 H 0.51303 0.52167 0.27430
 H144 H 0.51362 0.44060 0.25695
 H145 H 0.48744 0.34702 0.04031
 H146 H 0.48659 0.35683 -0.10733
 H147 H 0.51387 0.47578 -0.27842
 H148 H 0.51388 0.55757 -0.26165
 C149 C 0.34072 0.32567 0.29261
 C150 C 0.34650 0.29491 0.36316
 C151 C 0.32427 0.27563 0.41274
 C152 C 0.29577 0.28775 0.39462
 C153 C 0.28988 0.31748 0.32309
 C154 C 0.31205 0.33598 0.27239
 C155 C 0.36442 0.34809 0.24216
 C156 C 0.36162 0.39488 0.20913
 C157 C 0.38409 0.41676 0.16460
 C158 C 0.41016 0.39280 0.15324
 C159 C 0.41302 0.34594 0.18531
 C160 C 0.39033 0.32368 0.22861
 H161 H 0.32935 0.25190 0.46636
 H162 H 0.26807 0.32699 0.30716
 H163 H 0.38135 0.45315 0.14159
 H164 H 0.43282 0.32650 0.17699
 H165 H 0.30665 0.35851 0.21742
 H166 H 0.34232 0.41531 0.21976
 H167 H 0.36824 0.28652 0.38159
 H168 H 0.39315 0.28732 0.25146
 C169 C -0.15770 0.82525 0.30405
 C170 C -0.18609 0.83136 0.27632
 C171 C -0.20862 0.81186 0.32402
 C172 C -0.20327 0.78544 0.40000
 C173 C -0.17493 0.77704 0.42547
 C174 C -0.15236 0.79726 0.37861
 C175 C -0.13390 0.84917 0.25687
 C176 C -0.10708 0.82698 0.24932
 C177 C -0.08455 0.85022 0.20719
 C178 C -0.08845 0.89589 0.17067
 C179 C -0.11530 0.91789 0.17714
 C180 C -0.13770 0.89496 0.22030
 H181 H -0.23033 0.81842 0.30278
 H182 H -0.17033 0.75615 0.48323
 H183 H -0.06414 0.83223 0.20257
 H184 H -0.11886 0.95331 0.15043
 H185 H -0.13083 0.79210 0.40241
 H186 H -0.10350 0.79146 0.27538
 H187 H -0.19097 0.85159 0.21804
 H188 H -0.15783 0.91365 0.22649
 C189 C 0.66010 0.65398 0.32391
 C190 C 0.65406 0.69067 0.38327
 C191 C 0.67604 0.71423 0.42692
 C192 C 0.70483 0.70203 0.41243
 C193 C 0.71092 0.66679 0.34994
 C194 C 0.68885 0.64261 0.30732
 C195 C 0.63645 0.62807 0.27941
 C196 C 0.63948 0.61223 0.19321
 C197 C 0.61694 0.58922 0.15089
 C198 C 0.59070 0.58218 0.19325
 C199 C 0.58770 0.59737 0.27956
 C200 C 0.61039 0.61961 0.32241
 H201 H 0.67043 0.74279 0.47106
 H202 H 0.73272 0.65599 0.33724
 H203 H 0.61979 0.57824 0.08403
 H204 H 0.56782 0.59192 0.31413
 H205 H 0.69438 0.61417 0.26294
 H206 H 0.65900 0.61864 0.15744
 H207 H 0.63229 0.70172 0.39552
 H208 H 0.60746 0.63008 0.38945
 C209 C 0.16205 1.15150 0.31638
 C210 C 0.17289 1.13255 0.39416
 C211 C 0.19468 1.15621 0.43876
 C212 C 0.20534 1.20047 0.40844
 C213 C 0.19499 1.21813 0.32824
 C214 C 0.17367 1.19387 0.28285
 C215 C 0.13795 1.12815 0.27164
 C216 C 0.13992 1.11634 0.18330
 C217 C 0.11673 1.09549 0.14060
 C218 C 0.09099 1.08725 0.18510
 C219 C 0.08902 1.09933 0.27339
 C220 C 0.11243 1.11915 0.31654
 H221 H 0.20313 1.13978 0.49719
 H222 H 0.20231 1.25206 0.30235
 H223 H 0.11875 1.08657 0.07243
 H224 H 0.06948 1.09299 0.30926
 H225 H 0.16547 1.20915 0.22301
 H226 H 0.15944 1.12307 0.14759
 H227 H 0.16454 1.09932 0.42016
 H228 H 0.11046 1.12839 0.38457
 C229 C 0.66021 0.34384 -0.32379
 C230 C 0.66838 0.29776 -0.29749
 C231 C 0.69081 0.27422 -0.33920
 C232 C 0.70486 0.29557 -0.41051
 C233 C 0.69686 0.34236 -0.43523
 C234 C 0.67491 0.36629 -0.39193
 C235 C 0.63605 0.36807 -0.28100
 C236 C 0.63986 0.41258 -0.24089
 C237 C 0.61705 0.43473 -0.19835
 C238 C 0.58990 0.41332 -0.19736
 C239 C 0.58607 0.36916 -0.23910
 C240 C 0.60902 0.34650 -0.27970
 H241 H 0.69620 0.23830 -0.31825
 H242 H 0.70794 0.36091 -0.48710
 H243 H 0.62062 0.46861 -0.16651
 H244 H 0.56545 0.35159 -0.23867
 H245 H 0.66906 0.40206 -0.41258
 H246 H 0.66062 0.42968 -0.24109
 H247 H 0.65734 0.28000 -0.24456
 H248 H 0.60567 0.31222 -0.31062
 C249 C 0.15794 0.84010 -0.32351
 C250 C 0.18652 0.85094 -0.30317
 C251 C 0.20894 0.82899 -0.34759
 C252 C 0.20340 0.79507 -0.41243
 C253 C 0.17495 0.78310 -0.43120
 C254 C 0.15250 0.80590 -0.38839
 C255 C 0.13397 0.86413 -0.27712
 C256 C 0.10806 0.83992 -0.26208
 C257 C 0.08548 0.86260 -0.21976
 C258 C 0.08847 0.90957 -0.18950
 C259 C 0.11434 0.93372 -0.20305
 C260 C 0.13672 0.91150 -0.24733
 H261 H 0.23069 0.83870 -0.33152
 H262 H 0.17006 0.75624 -0.47941
 H263 H 0.06582 0.84302 -0.20910
 H264 H 0.11705 0.97015 -0.18095
 H265 H 0.13088 0.79694 -0.40706
 H266 H 0.10525 0.80313 -0.28181
 H267 H 0.19170 0.87608 -0.25230
 H268 H 0.15601 0.93182 -0.25912
 C269 C 0.34174 0.67727 -0.29354
 C270 C 0.34754 0.70141 -0.37187
 C271 C 0.32538 0.72016 -0.42241
 C272 C 0.29661 0.71425 -0.39746
 C273 C 0.29105 0.69187 -0.31682
 C274 C 0.31325 0.67363 -0.26585
 C275 C 0.36518 0.65457 -0.24257
 C276 C 0.36091 0.61018 -0.20112
 C277 C 0.38329 0.58741 -0.15741
 C278 C 0.41059 0.60819 -0.15488
 C279 C 0.41476 0.65301 -0.19459
 C280 C 0.39229 0.67604 -0.23755
 H281 H 0.33093 0.73973 -0.48082
 H282 H 0.26938 0.68623 -0.29448
 H283 H 0.37939 0.55275 -0.12799
 H284 H 0.43548 0.67019 -0.19311
 H285 H 0.30802 0.65623 -0.20491
 H286 H 0.34048 0.59217 -0.20473
 H287 H 0.36922 0.70505 -0.39532
 H288 H 0.39621 0.71061 -0.26715
 C289 C -0.16069 1.17283 -0.28976
 C290 C -0.18925 1.16566 -0.26493
 C291 C -0.21155 1.18381 -0.31553
 C292 C -0.20589 1.20941 -0.39278
 C293 C -0.17720 1.21922 -0.41399
 C294 C -0.15496 1.20057 -0.36405
 C295 C -0.13699 1.14993 -0.24066
 C296 C -0.11056 1.17324 -0.23143
 C297 C -0.08767 1.15027 -0.19083
 C298 C -0.09083 1.10379 -0.15736
 C299 C -0.11742 1.08091 -0.16421
 C300 C -0.14020 1.10360 -0.20598
 H301 H -0.23325 1.17554 -0.29629
 H302 H -0.17186 1.24098 -0.47007
 H303 H -0.06749 1.16897 -0.18544
 H304 H -0.12039 1.04490 -0.13952
 H305 H -0.13325 1.20687 -0.38529
 H306 H -0.10750 1.20926 -0.25579
 H307 H -0.19441 1.14542 -0.20689
 H308 H -0.16005 1.08421 -0.21331
 C309 C 0.66059 0.67188 -0.29365
 C310 C 0.66731 0.72044 -0.28360
 C311 C 0.68910 0.74131 -0.33302
 C312 C 0.70383 0.71438 -0.39591
 C313 C 0.69744 0.66530 -0.40359
 C314 C 0.67615 0.64434 -0.35291
 C315 C 0.63682 0.64992 -0.24477
 C316 C 0.64094 0.60683 -0.19950
 C317 C 0.61806 0.58437 -0.15799
 C318 C 0.59046 0.60400 -0.16268
 C319 C 0.58648 0.64760 -0.20699
 C320 C 0.60952 0.67054 -0.24708
 H321 H 0.69334 0.77914 -0.32524
 H322 H 0.70911 0.64288 -0.44846
 H323 H 0.62193 0.55120 -0.12350
 H324 H 0.56554 0.66386 -0.21117
 H325 H 0.67135 0.60675 -0.36146
 H326 H 0.66189 0.59048 -0.19659
 H327 H 0.65560 0.74222 -0.23778
 H328 H 0.60588 0.70365 -0.28219
 C329 C 0.15796 1.17870 -0.29357
 C330 C 0.15241 1.20329 -0.37171
 C331 C 0.17478 1.22170 -0.42184
 C332 C 0.20348 1.21462 -0.39703
 C333 C 0.20880 1.19225 -0.31625
 C334 C 0.18641 1.17463 -0.26544
 C335 C 0.13435 1.15575 -0.24348
 C336 C 0.13876 1.11180 -0.20058
 C337 C 0.11640 1.08893 -0.15708
 C338 C 0.08888 1.10893 -0.15659
 C339 C 0.08449 1.15321 -0.19808
 C340 C 0.10699 1.17648 -0.24056
 H341 H 0.16951 1.24113 -0.48072
 H342 H 0.23041 1.18603 -0.29388
 H343 H 0.12054 1.05486 -0.12584
 H344 H 0.06362 1.16985 -0.19816
 H345 H 0.19151 1.15715 -0.20447
 H346 H 0.15932 1.09418 -0.20262
 H347 H 0.13082 1.20728 -0.39569
 H348 H 0.10288 1.21069 -0.27128
 C349 C 0.33968 0.34503 -0.32085
 C350 C 0.33063 0.29951 -0.29399
 C351 C 0.30883 0.27599 -0.33874
 C352 C 0.29541 0.29794 -0.41028
 C353 C 0.30384 0.34435 -0.43490
 C354 C 0.32615 0.36733 -0.39153
 C355 C 0.36359 0.36878 -0.27603
 C356 C 0.38835 0.38117 -0.32218
 C357 C 0.41150 0.40196 -0.27920
 C358 C 0.40991 0.41177 -0.18990
 C359 C 0.38488 0.40019 -0.14414
 C360 C 0.36203 0.37825 -0.18670
 H361 H 0.30271 0.24031 -0.31832
 H362 H 0.29334 0.36261 -0.48826
 H363 H 0.43052 0.41085 -0.31587
 H364 H 0.38324 0.40724 -0.07514
 H365 H 0.33272 0.40268 -0.41257
 H366 H 0.38992 0.37392 -0.39111
 H367 H 0.34091 0.28176 -0.23965
 H368 H 0.34305 0.36891 -0.15016
 C369 C -0.16365 0.85671 -0.32385
 C370 C -0.17482 0.81399 -0.28998
 C371 C -0.19685 0.79021 -0.33304
 C372 C -0.20844 0.80903 -0.41017
 C373 C -0.19807 0.85296 -0.44203
 C374 C -0.17548 0.87618 -0.40003
 C375 C -0.13937 0.88016 -0.27987
 C376 C -0.11381 0.88904 -0.32478
 C377 C -0.09014 0.90794 -0.28113
 C378 C -0.09191 0.91923 -0.19239
 C379 C -0.11779 0.91143 -0.14827
 C380 C -0.14117 0.89156 -0.19138
 H381 H -0.20442 0.75642 -0.30717
 H382 H -0.20704 0.86873 -0.50035
 H383 H -0.07051 0.91390 -0.31676
 H384 H -0.11975 0.91967 -0.07980
 H385 H -0.16731 0.90939 -0.42664
 H386 H -0.11196 0.88016 -0.39300
 H387 H -0.16593 0.79834 -0.23140
 H388 H -0.16071 0.88497 -0.15563
 C389 C 0.34009 0.65293 0.31741
 C390 C 0.33130 0.69864 0.29078
 C391 C 0.30974 0.72249 0.33578
 C392 C 0.29630 0.70073 0.40739
 C393 C 0.30429 0.65404 0.43152
 C394 C 0.32640 0.63068 0.38787
 C395 C 0.36397 0.62912 0.27267
 C396 C 0.38850 0.61573 0.31919
 C397 C 0.41174 0.59534 0.27609
 C398 C 0.41045 0.58697 0.18628
 C399 C 0.38565 0.59950 0.14013
 C400 C 0.36273 0.62104 0.18284
 H401 H 0.30392 0.75837 0.31575
 H402 H 0.29382 0.63612 0.48529
 H403 H 0.43057 0.58558 0.31301
 H404 H 0.38423 0.59348 0.07074
 H405 H 0.33275 0.59519 0.40871
 H406 H 0.38984 0.62194 0.38851
 H407 H 0.34168 0.71633 0.23657
 H408 H 0.34396 0.63120 0.14599
 C409 C -0.16094 1.15020 0.32576
 C410 C -0.17173 1.19329 0.29241
 C411 C -0.19366 1.21743 0.33542
 C412 C -0.20548 1.19895 0.41304
 C413 C -0.19564 1.15396 0.44272
 C414 C -0.17324 1.13046 0.40070
 C415 C -0.13675 1.12618 0.28242
 C416 C -0.11162 1.11565 0.32857
 C417 C -0.08824 1.09496 0.28622
 C418 C -0.08996 1.08343 0.19763
 C419 C -0.11537 1.09319 0.15214
 C420 C -0.13841 1.11487 0.19390
 H421 H -0.20024 1.25187 0.30996
 H422 H -0.20521 1.13676 0.49873
 H423 H -0.06893 1.08767 0.32273
 H424 H -0.11722 1.08498 0.08361
 H425 H -0.16568 1.09658 0.42623
 H426 H -0.10990 1.12440 0.39689
 H427 H -0.16251 1.20907 0.23444
 H428 H -0.15761 1.12269 0.15720
 C429 C 0.66054 0.32850 0.29498
 C430 C 0.65484 0.29525 0.36166
 C431 C 0.67704 0.27555 0.41053
 C432 C 0.70540 0.28973 0.39584
 C433 C 0.71131 0.32177 0.32778
 C434 C 0.68914 0.34078 0.27759
 C435 C 0.63670 0.35135 0.24599
 C436 C 0.63877 0.39927 0.21827
 C437 C 0.61605 0.42136 0.17526
 C438 C 0.59052 0.39640 0.16045
 C439 C 0.58833 0.34858 0.18760
 C440 C 0.61129 0.32612 0.22904
 H441 H 0.67201 0.25006 0.46147
 H442 H 0.73306 0.33278 0.31460
 H443 H 0.61817 0.45848 0.15572
 H444 H 0.56896 0.32843 0.17605
 H445 H 0.69446 0.36531 0.22545
 H446 H 0.65768 0.42024 0.23165
 H447 H 0.63316 0.28528 0.37794
 H448 H 0.60909 0.28892 0.24753
 C449 C 0.16173 0.83136 0.29201
 C450 C 0.16771 0.78219 0.28743
 C451 C 0.18975 0.76230 0.33713
 C452 C 0.20588 0.79111 0.39321
 C453 C 0.20023 0.84033 0.39701
 C454 C 0.17839 0.86031 0.34671
 C455 C 0.13781 0.85234 0.24148
 C456 C 0.14135 0.89582 0.19676
 C457 C 0.11844 0.91676 0.15256
 C458 C 0.09137 0.89493 0.15295
 C459 C 0.08797 0.85099 0.19650
 C460 C 0.11100 0.82979 0.23990
 H461 H 0.19388 0.72426 0.33324
 H462 H 0.21258 0.86314 0.43957
 H463 H 0.12179 0.95071 0.11996
 H464 H 0.06742 0.83324 0.19799
 H465 H 0.17408 0.89824 0.35200
 H466 H 0.16186 0.91372 0.19626
 H467 H 0.15539 0.75919 0.24516
 H468 H 0.10764 0.79642 0.27442
   
