data_POSCAR
  _audit_creation_date              2014-09-24
  _audit_creation_method            'ToBaCCo'
  _symmetry_space_group_name_H-M    'P1'
  _symmetry_Int_Tables_number       1
  _symmetry_cell_setting            triclinic
  loop_
  _symmetry_equiv_pos_as_xyz
 x,y,z
_cell_length_a 35.1266
_cell_length_b 36.2296
_cell_length_c 33.5877
_cell_angle_alpha 88.153300
_cell_angle_beta 88.552700
_cell_angle_gamma 87.922900
loop_
  _atom_site_label
  _atom_site_type_symbol
  _atom_site_fract_x
  _atom_site_fract_y
  _atom_site_fract_z
C1 C 0.19984 0.21009 0.23866
 C2 C 0.23673 0.19904 0.22467
 C3 C 0.25442 0.21630 0.19090
 C4 C 0.23413 0.24567 0.17143
 C5 C 0.19714 0.25620 0.18374
 C6 C 0.18071 0.23922 0.21764
 H7 H 0.24994 0.17425 0.23749
 H8 H 0.24646 0.26050 0.14612
 H9 H 0.15301 0.24974 0.22755
 C10 C -0.18920 0.79171 0.27647
 C11 C -0.22498 0.80670 0.26425
 C12 C -0.24695 0.78821 0.23735
 C13 C -0.23479 0.75288 0.22583
 C14 C -0.19808 0.73864 0.23426
 C15 C -0.17562 0.75814 0.25995
 H16 H -0.23415 0.83426 0.27273
 H17 H -0.25333 0.73760 0.20765
 H18 H -0.14766 0.74695 0.26724
 C19 C -0.18251 0.19293 -0.24268
 C20 C -0.21699 0.17880 -0.22701
 C21 C -0.23679 0.19570 -0.19487
 C22 C -0.22387 0.22952 -0.18190
 C23 C -0.19032 0.24483 -0.19762
 C24 C -0.16933 0.22564 -0.22702
 H25 H -0.22593 0.15237 -0.23682
 H26 H -0.24089 0.24459 -0.16014
 H27 H -0.14303 0.23686 -0.23860
 C28 C 0.20963 0.80747 -0.20865
 C29 C 0.19465 0.77622 -0.18922
 C30 C 0.20838 0.76325 -0.15258
 C31 C 0.23867 0.78051 -0.13543
 C32 C 0.25598 0.81102 -0.15501
 C33 C 0.24070 0.82428 -0.19175
 H34 H 0.17142 0.76216 -0.20209
 H35 H 0.24930 0.76888 -0.10762
 H36 H 0.25106 0.84929 -0.20599
 C37 C 0.19323 1.19198 0.76298
 C38 C 0.17441 1.22126 0.78227
 C39 C 0.19261 1.24010 0.81181
 C40 C 0.23013 1.22949 0.82179
 C41 C 0.24880 1.19867 0.80416
 C42 C 0.23003 1.18063 0.77425
 H43 H 0.14549 1.22936 0.77437
 H44 H 0.24385 1.24430 0.84461
 H45 H 0.24281 1.15611 0.76113
 C46 C 0.77511 0.78567 0.72242
 C47 C 0.74225 0.80165 0.74051
 C48 C 0.72083 0.78224 0.76937
 C49 C 0.73183 0.74558 0.77966
 C50 C 0.76559 0.72867 0.76365
 C51 C 0.78594 0.74900 0.73388
 H52 H 0.73524 0.83069 0.73528
 H53 H 0.71372 0.73079 0.80062
 H54 H 0.81129 0.73702 0.72026
 C55 C 0.18432 0.80474 1.21068
 C56 C 0.16429 0.78096 1.18691
 C57 C 0.18091 0.76711 1.15169
 C58 C 0.21680 0.77885 1.13863
 C59 C 0.23657 0.80329 1.16122
 C60 C 0.22111 0.81481 1.19779
 H61 H 0.13639 0.77183 1.19648
 H62 H 0.22879 0.76988 1.11034
 H63 H 0.23629 0.83488 1.21392
 C64 C 0.80266 1.20404 1.25203
 C65 C 0.81694 1.23817 1.23803
 C66 C 0.80430 1.25602 1.20239
 C67 C 0.77525 1.23935 1.18160
 C68 C 0.75940 1.20655 1.19614
 C69 C 0.77297 1.18926 1.23101
 H70 H 0.83664 1.25181 1.25630
 H71 H 0.76558 1.25062 1.15326
 H72 H 0.76193 1.16257 1.23951
 O73 O 0.54986 0.98642 0.92455
 O74 O 0.47784 0.96599 1.08559
 O75 O 0.56932 0.94401 1.04120
 O76 O 0.43979 0.98289 0.98309
 O77 O 0.54843 0.96902 1.09425
 O78 O 0.48975 0.96096 0.95346
 O79 O 0.43566 0.99848 1.05245
 O80 O 0.56207 0.95132 0.97337
 C81 C 0.56583 0.95748 0.93711
 C82 C 0.44458 0.97030 1.07356
 C83 C 0.56702 0.94379 1.07790
 C84 C 0.45564 0.95814 0.96279
 O85 O 0.48258 1.02170 0.91226
 O86 O 0.54541 1.03905 1.08671
 O87 O 0.58598 1.02349 0.97456
 O88 O 0.46625 1.06528 1.03268
 O89 O 0.47386 1.03869 1.08922
 O90 O 0.53419 1.04992 0.95126
 O91 O 0.46691 1.05142 0.96502
 O92 O 0.59144 1.01505 1.04818
 Co93 Co 0.51045 1.00580 0.95523
 Co94 Co 0.51132 1.00308 1.08184
 Co95 Co 0.57226 0.98522 1.00951
 Co96 Co 0.45712 1.02257 1.00893
 O97 O 0.51465 1.00254 1.01630
 C98 C 0.45971 1.04591 0.92906
 C99 C 0.57971 1.03765 1.07456
 C100 C 0.56947 1.04996 0.95559
 C101 C 0.46359 1.06671 1.06929
 O102 O 0.03980 0.47131 0.03374
 O103 O 0.03366 0.53567 -0.07623
 O104 O -0.00552 0.42940 -0.05103
 O105 O 0.00037 0.58384 0.00775
 O106 O 0.03426 0.47016 -0.06774
 O107 O 0.03667 0.54225 0.03884
 O108 O -0.00692 0.57873 -0.06462
 O109 O -0.00019 0.42950 0.02018
 C110 C 0.03245 0.43810 0.03088
 C111 C 0.02671 0.56904 -0.07248
 C112 C 0.02730 0.43709 -0.06281
 C113 C 0.02945 0.57508 0.02774
 O114 O -0.03408 0.53872 0.06627
 O115 O -0.03826 0.46899 -0.09576
 O116 O -0.07187 0.46021 0.02618
 O117 O -0.07661 0.55318 -0.05199
 O118 O -0.04040 0.53616 -0.10138
 O119 O -0.02923 0.46977 0.06828
 O120 O -0.07010 0.56645 0.02110
 O121 O -0.07515 0.46454 -0.04502
 Co122 Co 0.00145 0.50526 0.04496
 Co123 Co -0.00416 0.50305 -0.07969
 Co124 Co -0.03655 0.45082 -0.01297
 Co125 Co -0.03661 0.56441 -0.02197
 O126 O -0.01846 0.50611 -0.01696
 C127 C -0.06266 0.55919 0.05679
 C128 C -0.06986 0.46006 -0.08100
 C129 C -0.06179 0.45901 0.06111
 C130 C -0.07226 0.54852 -0.08830
 O131 O 1.09031 0.02313 0.45876
 O132 O 0.96161 0.04295 0.52354
 O133 O 0.97114 0.03967 0.45212
 O134 O 1.05218 0.00485 0.58245
 O135 O 0.92022 0.01350 0.47405
 O136 O 1.08865 0.02754 0.53392
 O137 O 0.98324 0.01726 0.57821
 O138 O 1.03653 0.04972 0.44671
 C139 C 1.07162 0.04998 0.44418
 C140 C 0.96656 0.04426 0.56021
 C141 C 0.93587 0.03573 0.44791
 C142 C 1.07721 0.02708 0.56973
 O143 O 1.09376 -0.04291 0.54108
 O144 O 0.95670 -0.04840 0.48375
 O145 O 1.05105 -0.02033 0.42130
 O146 O 0.97699 -0.05562 0.55608
 O147 O 0.93230 -0.01773 0.54512
 O148 O 1.08628 -0.04847 0.46662
 O149 O 1.04156 -0.06600 0.56042
 O150 O 0.98336 -0.03169 0.42874
 Co151 Co 1.08286 -0.01013 0.50026
 Co152 Co 0.96169 -0.00262 0.50202
 Co153 Co 1.01120 0.00766 0.44273
 Co154 Co 1.01369 -0.02349 0.56434
 O155 O 1.01977 -0.00860 0.50403
 C156 C 1.07660 -0.06685 0.56099
 C157 C 0.96302 -0.05387 0.44806
 C158 C 1.07466 -0.04581 0.43163
 C159 C 0.94304 -0.04690 0.56215
 C160 C 1.14544 0.14967 0.33327
 C161 C 1.18532 0.14987 0.33099
 C162 C 1.20322 0.17081 0.30049
 C163 C 1.18167 0.19095 0.27134
 C164 C 1.14134 0.19047 0.27498
 C165 C 1.12329 0.17016 0.30574
 C166 C 1.12649 0.12657 0.36429
 C167 C 1.08656 0.12578 0.36590
 C168 C 1.06871 0.10230 0.39394
 C169 C 1.09053 0.07890 0.41958
 C170 C 1.13055 0.08080 0.41837
 C171 C 1.14869 0.10466 0.39075
 C172 C 1.08335 0.16914 0.30874
 C173 C 1.06530 0.14743 0.33840
 C174 C 1.20659 0.12856 0.35888
 C175 C 1.18859 0.10620 0.38811
 H176 H 1.06588 0.18492 0.28768
 H177 H 1.03447 0.14703 0.33929
 H178 H 1.23744 0.12857 0.35759
 H179 H 1.20608 0.08959 0.40844
 H180 H 1.23399 0.17164 0.30023
 H181 H 1.12340 0.20394 0.25280
 H182 H 1.03793 0.10094 0.39442
 H183 H 1.14756 0.06293 0.43800
 C184 C 0.87728 -0.14944 0.35488
 C185 C 0.83746 -0.14842 0.35959
 C186 C 0.81564 -0.16770 0.33332
 C187 C 0.83325 -0.18900 0.30294
 C188 C 0.87358 -0.19026 0.29955
 C189 C 0.89557 -0.17006 0.32490
 C190 C 0.90020 -0.12768 0.38121
 C191 C 0.93987 -0.12672 0.37488
 C192 C 0.96112 -0.10377 0.39814
 C193 C 0.94293 -0.08267 0.42795
 C194 C 0.90350 -0.08543 0.43523
 C195 C 0.88184 -0.10727 0.41138
 C196 C 0.93546 -0.16941 0.32031
 C197 C 0.95720 -0.14792 0.34468
 C198 C 0.82018 -0.12795 0.39040
 C199 C 0.84201 -0.10793 0.41604
 H200 H 0.94997 -0.18518 0.29724
 H201 H 0.98777 -0.14772 0.33968
 H202 H 0.78947 -0.12717 0.39457
 H203 H 0.82752 -0.09222 0.43917
 H204 H 0.78494 -0.16707 0.33757
 H205 H 0.88807 -0.20510 0.27578
 H206 H 0.99148 -0.10191 0.39280
 H207 H 0.88935 -0.06872 0.45780
 C208 C 0.88214 0.13657 0.66835
 C209 C 0.90100 0.15424 0.69827
 C210 C 0.87949 0.17358 0.72713
 C211 C 0.83910 0.17413 0.72744
 C212 C 0.82085 0.15542 0.69734
 C213 C 0.84219 0.13733 0.66737
 C214 C 0.90465 0.11605 0.63803
 C215 C 0.88573 0.09881 0.60776
 C216 C 0.90708 0.07809 0.57998
 C217 C 0.94677 0.07310 0.58354
 C218 C 0.96546 0.09081 0.61372
 C219 C 0.94452 0.11289 0.64075
 C220 C 0.82433 0.11990 0.63645
 C221 C 0.84574 0.10125 0.60695
 C222 C 0.94103 0.15156 0.69924
 C223 C 0.96239 0.13092 0.67124
 H224 H 0.79353 0.12052 0.63512
 H225 H 0.83081 0.08792 0.58383
 H226 H 0.95596 0.16497 0.72229
 H227 H 0.99310 0.12891 0.67359
 H228 H 0.89441 0.18640 0.75060
 H229 H 0.79003 0.15615 0.69612
 H230 H 0.89257 0.06366 0.55733
 H231 H 0.99597 0.08669 0.61660
 C232 C 1.15436 -0.14607 0.68728
 C233 C 1.13264 -0.16274 0.71803
 C234 C 1.15095 -0.17747 0.75182
 C235 C 1.19093 -0.17647 0.75494
 C236 C 1.21234 -0.15986 0.72352
 C237 C 1.19411 -0.14433 0.68976
 C238 C 1.13490 -0.12913 0.65240
 C239 C 1.15630 -0.11080 0.62249
 C240 C 1.13730 -0.09239 0.59087
 C241 C 1.09719 -0.09225 0.58919
 C242 C 1.07645 -0.11241 0.61846
 C243 C 1.09507 -0.13038 0.65042
 C244 C 1.21469 -0.12669 0.65863
 C245 C 1.19611 -0.11006 0.62569
 C246 C 1.09292 -0.16394 0.71468
 C247 C 1.07446 -0.14817 0.68136
 H248 H 1.24538 -0.12518 0.66004
 H249 H 1.21301 -0.09609 0.60278
 H250 H 1.07589 -0.17689 0.73818
 H251 H 1.04372 -0.14928 0.68020
 H252 H 1.13381 -0.18909 0.77604
 H253 H 1.24305 -0.15909 0.72523
 H254 H 1.15354 -0.07687 0.56861
 H255 H 1.04561 -0.11234 0.61770
 C256 C 0.35580 1.16691 1.14200
 C257 C 0.33234 1.18939 1.11751
 C258 C 0.29975 1.20697 1.13407
 C259 C 0.29004 1.20232 1.17518
 C260 C 0.31579 1.18134 1.19953
 C261 C 0.34806 1.16308 1.18303
 C262 C 0.38775 1.14524 1.12394
 C263 C 0.40958 1.12074 1.14809
 C264 C 0.43697 1.09709 1.13019
 C265 C 0.44207 1.09747 1.08841
 C266 C 0.42185 1.12407 1.06493
 C267 C 0.39425 1.14769 1.08253
 C268 C 0.37193 1.13985 1.20658
 C269 C 0.40207 1.11889 1.18937
 C270 C 0.34087 1.19248 1.07645
 C271 C 0.37146 1.17215 1.05930
 H272 H 0.36647 1.13685 1.23840
 H273 H 0.41892 1.10030 1.20838
 H274 H 0.32320 1.21009 1.05722
 H275 H 0.37658 1.17481 1.02746
 H276 H 0.28082 1.22173 1.11374
 H277 H 0.31097 1.17879 1.23144
 H278 H 0.45259 1.07688 1.14853
 H279 H 0.42561 1.12466 1.03279
 C280 C 0.34783 0.86488 0.89572
 C281 C 0.34458 0.86506 0.85419
 C282 C 0.31434 0.84703 0.83759
 C283 C 0.28716 0.82846 0.86205
 C284 C 0.29178 0.82808 0.90392
 C285 C 0.32171 0.84645 0.92078
 C286 C 0.37853 0.88536 0.91334
 C287 C 0.38058 0.88682 0.95498
 C288 C 0.40781 0.90891 0.97150
 C289 C 0.43294 0.92899 0.94665
 C290 C 0.43198 0.92556 0.90509
 C291 C 0.40435 0.90426 0.88821
 C292 C 0.32554 0.84744 0.96232
 C293 C 0.35447 0.86725 0.97911
 C294 C 0.37149 0.88362 0.83001
 C295 C 0.40090 0.90281 0.84671
 H296 H 0.30567 0.83320 0.98208
 H297 H 0.35616 0.86754 1.01123
 H298 H 0.36948 0.88376 0.79786
 H299 H 0.42063 0.91726 0.82699
 H300 H 0.31290 0.84670 0.80544
 H301 H 0.27107 0.81539 0.92389
 H302 H 0.40893 0.91125 1.00344
 H303 H 0.45099 0.94150 0.88591
 C304 C 0.66576 0.84764 1.17162
 C305 C 0.69103 0.82299 1.15216
 C306 C 0.71858 0.80318 1.17427
 C307 C 0.72121 0.80762 1.21574
 C308 C 0.69526 0.83220 1.23494
 C309 C 0.66747 0.85235 1.21293
 C310 C 0.63794 0.86996 1.14798
 C311 C 0.61352 0.89563 1.16711
 C312 C 0.58873 0.91833 1.14416
 C313 C 0.58868 0.91586 1.10229
 C314 C 0.61251 0.88905 1.08379
 C315 C 0.63735 0.86619 1.10647
 C316 C 0.64188 0.87772 1.23112
 C317 C 0.61537 0.89898 1.20862
 C318 C 0.68899 0.81933 1.11075
 C319 C 0.66259 0.84056 1.08828
 H320 H 0.64272 0.88161 1.26293
 H321 H 0.59662 0.91867 1.22376
 H322 H 0.70837 0.80028 1.09547
 H323 H 0.66239 0.83734 1.05633
 H324 H 0.73896 0.78525 1.15877
 H325 H 0.69697 0.83588 1.26673
 H326 H 0.57061 0.93892 1.15876
 H327 H 0.61284 0.88697 1.05165
 C328 C 0.67468 1.14079 0.86842
 C329 C 0.69936 1.16254 0.88895
 C330 C 0.72754 1.18178 0.86750
 C331 C 0.73257 1.17825 0.82574
 C332 C 0.70746 1.15581 0.80584
 C333 C 0.67814 1.13763 0.82692
 C334 C 0.64533 1.12005 0.89100
 C335 C 0.62034 1.09857 0.87038
 C336 C 0.59340 1.07788 0.89204
 C337 C 0.59254 1.07741 0.93395
 C338 C 0.61759 1.09912 0.95428
 C339 C 0.64373 1.12103 0.93284
 C340 C 0.65240 1.11602 0.80736
 C341 C 0.62381 1.09708 0.82868
 C342 C 0.69609 1.16381 0.93073
 C343 C 0.66903 1.14312 0.95233
 H344 H 0.65452 1.11353 0.77532
 H345 H 0.60477 1.08050 0.81245
 H346 H 0.71513 1.18039 0.94696
 H347 H 0.66803 1.14428 0.98454
 H348 H 0.74710 1.19756 0.88400
 H349 H 0.70984 1.15330 0.77381
 H350 H 0.57464 1.06039 0.87651
 H351 H 0.61707 1.09840 0.98657
 C352 C 0.13029 0.33164 0.11129
 C353 C 0.16667 0.34171 0.12254
 C354 C 0.18870 0.31698 0.14626
 C355 C 0.17416 0.28281 0.15916
 C356 C 0.13769 0.27319 0.14753
 C357 C 0.11568 0.29743 0.12348
 C358 C 0.10667 0.35776 0.08709
 C359 C 0.07011 0.34783 0.07640
 C360 C 0.04691 0.37351 0.05536
 C361 C 0.05962 0.40925 0.04603
 C362 C 0.09690 0.41830 0.05570
 C363 C 0.12055 0.39262 0.07631
 C364 C 0.07926 0.28821 0.11159
 C365 C 0.05687 0.31298 0.08836
 C366 C 0.18001 0.37645 0.11022
 C367 C 0.15728 0.40154 0.08762
 H368 H 0.06780 0.26179 0.12067
 H369 H 0.02871 0.30504 0.08030
 H370 H 0.20802 0.38453 0.11860
 H371 H 0.16836 0.42832 0.07938
 H372 H 0.21677 0.32444 0.15521
 H373 H 0.12670 0.24662 0.15689
 H374 H 0.01822 0.36632 0.04823
 H375 H 0.10694 0.44572 0.04851
 C376 C -0.14918 0.34561 -0.15262
 C377 C -0.14107 0.33689 -0.19239
 C378 C -0.15567 0.30471 -0.20744
 C379 C -0.17677 0.28033 -0.18248
 C380 C -0.18431 0.28974 -0.14251
 C381 C -0.17124 0.32253 -0.12771
 C382 C -0.13291 0.37867 -0.13619
 C383 C -0.14081 0.38701 -0.09627
 C384 C -0.12309 0.41669 -0.07986
 C385 C -0.09583 0.43671 -0.10228
 C386 C -0.08944 0.42913 -0.14283
 C387 C -0.10816 0.40014 -0.16003
 C388 C -0.17909 0.33222 -0.08812
 C389 C -0.16442 0.36414 -0.07277
 C390 C -0.11774 0.36007 -0.21598
 C391 C -0.10124 0.39092 -0.19996
 H392 H -0.19634 0.31476 -0.06870
 H393 H -0.17062 0.37031 -0.04187
 H394 H -0.11130 0.35371 -0.24677
 H395 H -0.08242 0.40733 -0.21879
 H396 H -0.15025 0.29866 -0.23847
 H397 H -0.19949 0.27119 -0.12236
 H398 H -0.12826 0.42219 -0.04861
 H399 H -0.06856 0.44441 -0.16028
 C400 C 0.13992 0.67719 -0.10598
 C401 C 0.13399 0.71308 -0.09185
 C402 C 0.15888 0.74071 -0.10463
 C403 C 0.18884 0.73266 -0.13187
 C404 C 0.19528 0.69638 -0.14466
 C405 C 0.17087 0.66840 -0.13171
 C406 C 0.11194 0.64885 -0.09556
 C407 C 0.11722 0.61328 -0.11068
 C408 C 0.08965 0.58693 -0.10219
 C409 C 0.05643 0.59637 -0.07991
 C410 C 0.05171 0.63207 -0.06474
 C411 C 0.07959 0.65832 -0.07211
 C412 C 0.17568 0.63228 -0.14545
 C413 C 0.14943 0.60512 -0.13491
 C414 C 0.10218 0.72103 -0.06696
 C415 C 0.07538 0.69412 -0.05732
 H416 H 0.19954 0.62513 -0.16514
 H417 H 0.15388 0.57775 -0.14665
 H418 H 0.09741 0.74854 -0.05570
 H419 H 0.05080 0.70160 -0.03876
 H420 H 0.15361 0.76892 -0.09552
 H421 H 0.21804 0.69050 -0.16619
 H422 H 0.09345 0.55949 -0.11396
 H423 H 0.02632 0.63941 -0.04733
 C424 C -0.14810 0.65051 0.16524
 C425 C -0.13531 0.65499 0.20398
 C426 C -0.15290 0.68246 0.22760
 C427 C -0.18199 0.70633 0.21195
 C428 C -0.19411 0.70101 0.17284
 C429 C -0.17790 0.67295 0.14981
 C430 C -0.12865 0.62320 0.13946
 C431 C -0.14114 0.61967 0.10048
 C432 C -0.12099 0.59601 0.07501
 C433 C -0.08743 0.57700 0.08740
 C434 C -0.07609 0.57939 0.12719
 C435 C -0.09674 0.60265 0.15345
 C436 C -0.19017 0.66789 0.11099
 C437 C -0.17229 0.64141 0.08682
 C438 C -0.10440 0.63270 0.21768
 C439 C -0.08526 0.60720 0.19276
 H440 H -0.21339 0.68494 0.09896
 H441 H -0.18212 0.63881 0.05675
 H442 H -0.09422 0.63574 0.24754
 H443 H -0.06087 0.59142 0.20411
 H444 H -0.14335 0.68560 0.25766
 H445 H -0.21507 0.71968 0.15919
 H446 H -0.13033 0.59413 0.04463
 H447 H -0.05032 0.56485 0.13701
 C448 C 1.14059 0.12643 0.67816
 C449 C 1.17561 0.14235 0.66834
 C450 C 1.19222 0.16462 0.69591
 C451 C 1.17385 0.17126 0.73280
 C452 C 1.13825 0.15605 0.74180
 C453 C 1.12165 0.13319 0.71469
 C454 C 1.12394 0.10151 0.65008
 C455 C 1.08972 0.08438 0.66055
 C456 C 1.07469 0.05973 0.63428
 C457 C 1.09324 0.05284 0.59745
 C458 C 1.12722 0.07069 0.58720
 C459 C 1.14292 0.09475 0.61360
 C460 C 1.08702 0.11620 0.72373
 C461 C 1.07140 0.09206 0.69718
 C462 C 1.19364 0.13511 0.63147
 C463 C 1.17746 0.11184 0.60445
 H464 H 1.07213 0.12120 0.75180
 H465 H 1.04487 0.07918 0.70547
 H466 H 1.22059 0.14735 0.62354
 H467 H 1.19234 0.10684 0.57639
 H468 H 1.21961 0.17648 0.68902
 H469 H 1.12433 0.16085 0.77044
 H470 H 1.04853 0.04609 0.64241
 H471 H 1.14179 0.06538 0.55901
 C472 C 0.84544 -0.14555 0.65017
 C473 C 0.80591 -0.13887 0.65073
 C474 C 0.78259 -0.16254 0.67345
 C475 C 0.79844 -0.19262 0.69633
 C476 C 0.83846 -0.19906 0.69435
 C477 C 0.86190 -0.17570 0.67152
 C478 C 0.87019 -0.12011 0.62738
 C479 C 0.90980 -0.12669 0.62729
 C480 C 0.93324 -0.10239 0.60590
 C481 C 0.91744 -0.07152 0.58486
 C482 C 0.87768 -0.06510 0.58530
 C483 C 0.85385 -0.08950 0.60649
 C484 C 0.90168 -0.18142 0.67054
 C485 C 0.92524 -0.15735 0.64872
 C486 C 0.79048 -0.10828 0.62901
 C487 C 0.81405 -0.08397 0.60732
 H488 H 0.91474 -0.20459 0.68697
 H489 H 0.95580 -0.16265 0.64883
 H490 H 0.75994 -0.10286 0.62911
 H491 H 0.80103 -0.06058 0.59124
 H492 H 0.75203 -0.15757 0.67271
 H493 H 0.85216 -0.22062 0.71250
 H494 H 0.96386 -0.10746 0.60576
 H495 H 0.86540 -0.04143 0.56902
 C496 C 1.13526 -0.14008 0.30923
 C497 C 1.11237 -0.14802 0.27716
 C498 C 1.12810 -0.16870 0.24579
 C499 C 1.16722 -0.17945 0.24501
 C500 C 1.18949 -0.17150 0.27799
 C501 C 1.17353 -0.15239 0.31034
 C502 C 1.11924 -0.11728 0.34161
 C503 C 1.14195 -0.10981 0.37404
 C504 C 1.12676 -0.08752 0.40439
 C505 C 1.08983 -0.07141 0.40136
 C506 C 1.06774 -0.07871 0.36830
 C507 C 1.08195 -0.10234 0.33882
 C508 C 1.19533 -0.14459 0.34337
 C509 C 1.17968 -0.12400 0.37490
 C510 C 1.07464 -0.13375 0.27625
 C511 C 1.05985 -0.11088 0.30629
 H512 H 1.22485 -0.15422 0.34471
 H513 H 1.19754 -0.11842 0.39969
 H514 H 1.05670 -0.13952 0.25159
 H515 H 1.03095 -0.09966 0.30394
 H516 H 1.11055 -0.17359 0.22055
 H517 H 1.21922 -0.18058 0.27879
 H518 H 1.14410 -0.08152 0.42947
 H519 H 1.03956 -0.06588 0.36549
 C520 C 0.85599 0.13745 0.34194
 C521 C 0.87669 0.16464 0.32117
 C522 C 0.85840 0.18776 0.29288
 C523 C 0.81949 0.18377 0.28447
 C524 C 0.79893 0.15705 0.30721
 C525 C 0.81711 0.13370 0.33556
 C526 C 0.87574 0.11176 0.37012
 C527 C 0.85534 0.08395 0.39048
 C528 C 0.87471 0.05892 0.41647
 C529 C 0.91413 0.06172 0.42164
 C530 C 0.93384 0.09003 0.40118
 C531 C 0.91488 0.11504 0.37549
 C532 C 0.79736 0.10607 0.35700
 C533 C 0.81615 0.08161 0.38397
 C534 C 0.91574 0.16740 0.32798
 C535 C 0.93453 0.14301 0.35473
 H536 H 0.76723 0.10296 0.35247
 H537 H 0.79996 0.06046 0.39950
 H538 H 0.93205 0.18829 0.31212
 H539 H 0.96475 0.14583 0.35890
 H540 H 0.87564 0.20688 0.27556
 H541 H 0.76869 0.15432 0.30331
 H542 H 0.85940 0.03721 0.43215
 H543 H 0.96416 0.09262 0.40508
 C544 C 0.12695 0.32289 -0.12622
 C545 C 0.11345 0.28699 -0.12805
 C546 C 0.13550 0.26006 -0.14792
 C547 C 0.17093 0.26867 -0.16566
 C548 C 0.18470 0.30446 -0.16260
 C549 C 0.16250 0.33190 -0.14326
 C550 C 0.10283 0.35182 -0.10717
 C551 C 0.11541 0.38817 -0.10689
 C552 C 0.09126 0.41603 -0.09090
 C553 C 0.05482 0.40756 -0.07539
 C554 C 0.04343 0.37065 -0.07452
 C555 C 0.06708 0.34279 -0.09078
 C556 C 0.17461 0.36836 -0.14139
 C557 C 0.15142 0.39603 -0.12366
 C558 C 0.07784 0.27888 -0.11061
 C559 C 0.05510 0.30630 -0.09215
 H560 H 0.20197 0.37572 -0.15434
 H561 H 0.16157 0.42391 -0.12352
 H562 H 0.06726 0.25122 -0.11166
 H563 H 0.02758 0.29902 -0.07953
 H564 H 0.12508 0.23238 -0.14988
 H565 H 0.21196 0.31112 -0.17633
 H566 H 0.10033 0.44433 -0.09156
 H567 H 0.01553 0.36378 -0.06256
 C568 C -0.14316 0.35188 0.15385
 C569 C -0.18081 0.34507 0.14418
 C570 C -0.19849 0.31401 0.16118
 C571 C -0.17869 0.28899 0.18732
 C572 C -0.14085 0.29714 0.19703
 C573 C -0.12312 0.32832 0.18046
 C574 C -0.12373 0.38330 0.13428
 C575 C -0.08543 0.38911 0.14260
 C576 C -0.06606 0.41692 0.12123
 C577 C -0.08449 0.43788 0.09089
 C578 C -0.12341 0.43294 0.08436
 C579 C -0.14314 0.40556 0.10586
 C580 C -0.08517 0.33566 0.18895
 C581 C -0.06667 0.36557 0.17039
 C582 C -0.19983 0.36900 0.11689
 C583 C -0.18126 0.39864 0.09792
 H584 H -0.06938 0.31771 0.20955
 H585 H -0.03714 0.36969 0.17708
 H586 H -0.22900 0.36421 0.10932
 H587 H -0.19658 0.41573 0.07616
 H588 H -0.22794 0.30999 0.15423
 H589 H -0.12385 0.27828 0.21550
 H590 H -0.03596 0.42017 0.12595
 H591 H -0.13767 0.44892 0.06091
 C592 C -0.17825 0.63516 -0.18159
 C593 C -0.16881 0.64497 -0.22114
 C594 C -0.18994 0.67353 -0.24061
 C595 C -0.21897 0.69436 -0.22009
 C596 C -0.22924 0.68196 -0.18085
 C597 C -0.20909 0.65269 -0.16169
 C598 C -0.15390 0.60774 -0.15971
 C599 C -0.16256 0.59931 -0.11955
 C600 C -0.13726 0.57654 -0.09762
 C601 C -0.10252 0.56347 -0.11492
 C602 C -0.09531 0.57019 -0.15594
 C603 C -0.12100 0.59253 -0.17849
 C604 C -0.21779 0.64218 -0.12195
 C605 C -0.19504 0.61577 -0.10130
 C606 C -0.13711 0.62733 -0.23985
 C607 C -0.11343 0.60181 -0.21879
 H608 H -0.24172 0.65528 -0.10627
 H609 H -0.20206 0.60932 -0.07031
 H610 H -0.12959 0.63446 -0.27055
 H611 H -0.08841 0.59009 -0.23387
 H612 H -0.18279 0.67953 -0.27156
 H613 H -0.25056 0.69666 -0.16318
 H614 H -0.14340 0.57125 -0.06619
 H615 H -0.06877 0.56020 -0.16957
 C616 C 0.12048 0.68787 0.08900
 C617 C 0.10392 0.72334 0.09421
 C618 C 0.12405 0.74945 0.11436
 C619 C 0.16065 0.74038 0.12852
 C620 C 0.17740 0.70518 0.12192
 C621 C 0.15716 0.67856 0.10266
 C622 C 0.09843 0.65954 0.07024
 C623 C 0.11404 0.62346 0.06722
 C624 C 0.09185 0.59597 0.05202
 C625 C 0.05445 0.60453 0.03967
 C626 C 0.03989 0.64122 0.04138
 C627 C 0.06155 0.66872 0.05715
 C628 C 0.17238 0.64254 0.09779
 C629 C 0.15110 0.61539 0.08055
 C630 C 0.06727 0.73168 0.07991
 C631 C 0.04652 0.70488 0.06148
 H632 H 0.20067 0.63504 0.10814
 H633 H 0.16357 0.58774 0.07817
 H634 H 0.05432 0.75901 0.08346
 H635 H 0.01814 0.71230 0.05135
 H636 H 0.11132 0.77668 0.11930
 H637 H 0.20554 0.69822 0.13308
 H638 H 0.10332 0.56785 0.05055
 H639 H 0.01107 0.64803 0.03214
 C640 C 0.34675 1.14136 0.85346
 C641 C 0.34064 1.13959 0.81253
 C642 C 0.31049 1.16084 0.79576
 C643 C 0.28523 1.18221 0.82007
 C644 C 0.29271 1.18418 0.86098
 C645 C 0.32351 1.16420 0.87766
 C646 C 0.37714 1.11784 0.87170
 C647 C 0.38301 1.11986 0.91263
 C648 C 0.41114 1.09714 0.93013
 C649 C 0.43238 1.07098 0.90773
 C650 C 0.42651 1.06930 0.86650
 C651 C 0.39900 1.09312 0.84820
 C652 C 0.33056 1.16553 0.91852
 C653 C 0.36004 1.14393 0.93564
 C654 C 0.36391 1.11555 0.78955
 C655 C 0.39236 1.09250 0.80713
 H656 H 0.31288 1.18309 0.93750
 H657 H 0.36428 1.14535 0.96734
 H658 H 0.35948 1.11388 0.75786
 H659 H 0.40906 1.07384 0.78848
 H660 H 0.30605 1.15966 0.76405
 H661 H 0.27353 1.19959 0.88054
 H662 H 0.41593 1.09954 0.96164
 H663 H 0.44299 1.04955 0.84895
 C664 C 0.32855 0.86812 1.11906
 C665 C 0.29384 0.87026 1.09909
 C666 C 0.26487 0.84662 1.11132
 C667 C 0.26996 0.82203 1.14411
 C668 C 0.30499 0.81973 1.16355
 C669 C 0.33468 0.84253 1.15078
 C670 C 0.35850 0.89408 1.10747
 C671 C 0.39335 0.89189 1.12717
 C672 C 0.42174 0.91674 1.11595
 C673 C 0.41491 0.94417 1.08604
 C674 C 0.37944 0.94638 1.06729
 C675 C 0.35139 0.92110 1.07743
 C676 C 0.36991 0.84111 1.16979
 C677 C 0.39889 0.86515 1.15793
 C678 C 0.28821 0.89702 1.06843
 C679 C 0.31639 0.92226 1.05802
 H680 H 0.37505 0.82141 1.19418
 H681 H 0.42561 0.86318 1.17340
 H682 H 0.26154 0.89892 1.05286
 H683 H 0.31079 0.94278 1.03451
 H684 H 0.23752 0.84883 1.09697
 H685 H 0.30861 0.80101 1.18912
 H686 H 0.44885 0.91501 1.13074
 H687 H 0.37398 0.96723 1.04406
 C688 C 0.67948 1.14182 1.13903
 C689 C 0.71369 1.15026 1.11874
 C690 C 0.73887 1.17388 1.13626
 C691 C 0.73015 1.18810 1.17404
 C692 C 0.69531 1.18022 1.19337
 C693 C 0.66980 1.15713 1.17599
 C694 C 0.65394 1.11536 1.12203
 C695 C 0.62007 1.10663 1.14271
 C696 C 0.59617 1.08111 1.12688
 C697 C 0.60608 1.06382 1.09092
 C698 C 0.64031 1.07263 1.07060
 C699 C 0.66425 1.09871 1.08592
 C700 C 0.63545 1.14802 1.19552
 C701 C 0.61089 1.12330 1.17905
 C702 C 0.72262 1.13376 1.08219
 C703 C 0.69836 1.10837 1.06609
 H704 H 0.62768 1.15977 1.22398
 H705 H 0.58477 1.11678 1.19519
 H706 H 0.74888 1.14006 1.06620
 H707 H 0.70653 1.09597 1.03808
 H708 H 0.76604 1.17954 1.12173
 H709 H 0.68885 1.19104 1.22261
 H710 H 0.56997 1.07441 1.14283
 H711 H 0.64802 1.05961 1.04279
 C712 C 0.64531 0.85061 0.83952
 C713 C 0.66669 0.82176 0.85816
 C714 C 0.68930 0.79782 0.83477
 C715 C 0.69086 0.80262 0.79295
 C716 C 0.66759 0.83057 0.77468
 C717 C 0.64520 0.85498 0.79787
 C718 C 0.62393 0.87764 0.86417
 C719 C 0.60382 0.90748 0.84568
 C720 C 0.58469 0.93389 0.86944
 C721 C 0.58559 0.93027 0.91128
 C722 C 0.60555 0.89989 0.92915
 C723 C 0.62492 0.87366 0.90582
 C724 C 0.62396 0.88461 0.78037
 C725 C 0.60369 0.91045 0.80386
 C726 C 0.66639 0.81839 0.89994
 C727 C 0.64574 0.84385 0.92338
 H728 H 0.62361 0.88828 0.74823
 H729 H 0.58817 0.93318 0.78916
 H730 H 0.68272 0.79622 0.91466
 H731 H 0.64660 0.84051 0.95552
 H732 H 0.70747 0.77696 0.84933
 H733 H 0.66821 0.83429 0.74252
 H734 H 0.56925 0.95711 0.85550
 H735 H 0.60645 0.89687 0.96134
   
