data_POSCAR
  _audit_creation_date              2014-09-24
  _audit_creation_method            'ToBaCCo'
  _symmetry_space_group_name_H-M    'P1'
  _symmetry_Int_Tables_number       1
  _symmetry_cell_setting            triclinic
  loop_
  _symmetry_equiv_pos_as_xyz
 x,y,z
_cell_length_a 24.7725
_cell_length_b 24.7483
_cell_length_c 24.8403
_cell_angle_alpha 89.857600
_cell_angle_beta 89.730200
_cell_angle_gamma 89.955900
loop_
  _atom_site_label
  _atom_site_type_symbol
  _atom_site_fract_x
  _atom_site_fract_y
  _atom_site_fract_z
N1 N 0.20788 1.20886 0.20804
 N2 N 0.79799 0.79049 0.20643
 N3 N 0.79400 1.20233 -0.19894
 N4 N 0.20628 0.79868 -0.21024
 C5 C 0.58180 1.07008 -0.00754
 H6 H 0.57938 1.07125 0.03594
 C7 C 0.62088 1.10053 -0.03451
 H8 H 0.64815 1.12533 -0.01129
 C9 C 0.55024 1.03444 -0.09003
 H10 H 0.52378 1.00741 -0.11143
 C11 C 0.58888 1.06410 -0.11866
 H12 H 0.59094 1.06011 -0.16201
 N13 N 0.54730 1.03808 -0.03546
 C14 C 0.41906 1.00999 0.08220
 H15 H 0.41960 0.96628 0.08331
 C16 C 0.38102 1.03837 0.11261
 H17 H 0.35262 1.01597 0.13727
 C18 C 0.45429 1.09170 0.04675
 H19 H 0.48193 1.11225 0.01990
 C20 C 0.41678 1.12174 0.07639
 H21 H 0.41657 1.16531 0.07243
 Zn22 Zn 0.49981 0.99428 0.00560
 N23 N 0.45463 1.03683 0.05007
 C24 C 0.54609 0.95093 0.10161
 N25 N 0.54412 0.94817 0.04697
 C26 C 0.57811 0.91554 0.01884
 C27 C 0.61664 0.88450 0.04553
 C28 C 0.58418 0.92055 0.13002
 C29 C 0.42297 0.98149 -0.07516
 C30 C 0.38548 0.95447 -0.10701
 C31 C 0.41008 0.87096 -0.06283
 C32 C 0.44807 0.89944 -0.03265
 N33 N 0.45371 0.95373 -0.03930
 H34 H 0.51954 0.97808 0.12311
 H35 H 0.57614 0.91481 -0.02466
 H36 H 0.64392 0.85968 0.02204
 H37 H 0.58602 0.92428 0.17339
 H38 H 0.42723 1.02487 -0.07855
 H39 H 0.36111 0.97738 -0.13505
 H40 H 0.40541 0.82791 -0.05649
 H41 H 0.47181 0.87840 -0.00282
 C42 C 0.37904 1.09502 0.10943
 C43 C 0.62513 1.09745 -0.09083
 C44 C 0.37823 0.89860 -0.10053
 C45 C 0.62073 0.88744 0.10184
 C46 C -0.00839 0.58189 1.06746
 H47 H 0.03527 0.58041 1.06735
 C48 C -0.03526 0.62066 1.09823
 H49 H -0.01178 0.64863 1.12200
 C50 C -0.09148 0.54805 1.03496
 H51 H -0.11322 0.52082 1.00902
 C52 C -0.12006 0.58616 1.06523
 H53 H -0.16367 0.58712 1.06272
 N54 N -0.03662 0.54643 1.03684
 C55 C 0.08143 0.41870 1.00892
 H56 H 0.08237 0.41894 0.96537
 C57 C 0.11195 0.38088 1.03734
 H58 H 0.13653 0.35234 1.01513
 C59 C 0.04627 0.45448 1.09023
 H60 H 0.01951 0.48227 1.11061
 C61 C 0.07602 0.41720 1.12030
 H62 H 0.07222 0.41730 1.16374
 Zn63 Zn 0.00460 0.49918 0.99308
 N64 N 0.04936 0.45441 1.03554
 C65 C 0.10077 0.54593 0.94955
 N66 N 0.04598 0.54377 0.94693
 C67 C 0.01779 0.57771 0.91444
 C68 C 0.04459 0.61642 0.88344
 C69 C 0.12929 0.58417 0.91920
 C70 C -0.07598 0.42140 0.98056
 C71 C -0.10736 0.38332 0.95371
 C72 C -0.06263 0.40811 0.87059
 C73 C -0.03303 0.44675 0.89885
 N74 N -0.04013 0.45256 0.95288
 H75 H 0.12231 0.51939 0.97657
 H76 H -0.02582 0.57558 0.91380
 H77 H 0.02106 0.64368 0.85874
 H78 H 0.17277 0.58615 0.92283
 H79 H -0.07963 0.42570 1.02375
 H80 H -0.13536 0.35858 0.97653
 H81 H -0.05585 0.40321 0.82778
 H82 H -0.00316 0.47079 0.87790
 C83 C 0.10895 0.37928 1.09382
 C84 C -0.09188 0.62340 1.09716
 C85 C -0.10030 0.37584 0.89816
 C86 C 0.10106 0.62070 0.88625
 C87 C 1.06835 -0.00704 0.58186
 H88 H 1.06854 0.03665 0.58032
 C89 C 1.09908 -0.03404 0.62042
 H90 H 1.12312 -0.01061 0.64816
 C91 C 1.03510 -0.09012 0.54844
 H92 H 1.00888 -0.11180 0.52146
 C93 C 1.06532 -0.11881 0.58634
 H94 H 1.06248 -0.16245 0.58738
 N95 N 1.03735 -0.03521 0.54673
 C96 C 1.00930 0.08347 0.41992
 H97 H 0.96564 0.08461 0.42068
 C98 C 1.03769 0.11400 0.38194
 H99 H 1.01536 0.13879 0.35381
 C100 C 1.09088 0.04777 0.45455
 H101 H 1.11134 0.02078 0.48195
 C102 C 1.12093 0.07753 0.41708
 H103 H 1.16445 0.07350 0.41664
 Zn104 Zn 0.99350 0.00614 0.49988
 N105 N 1.03607 0.05109 0.45510
 C106 C 0.95135 0.10214 0.54773
 N107 N 0.94749 0.04742 0.54455
 C108 C 0.91396 0.01916 0.57762
 C109 C 0.88302 0.04580 0.61636
 C110 C 0.92130 0.13048 0.58623
 C111 C 0.98076 -0.07432 0.42242
 C112 C 0.95377 -0.10611 0.38488
 C113 C 0.87032 -0.06219 0.41021
 C114 C 0.89876 -0.03207 0.44823
 N115 N 0.95301 -0.03866 0.45359
 H116 H 0.97921 0.12369 0.52189
 H117 H 0.91244 -0.02443 0.57478
 H118 H 0.85751 0.02217 0.64294
 H119 H 0.92594 0.17387 0.58909
 H120 H 1.02412 -0.07758 0.42638
 H121 H 0.97667 -0.13402 0.36020
 H122 H 0.82729 -0.05592 0.40580
 H123 H 0.87773 -0.00233 0.47222
 C124 C 1.09428 0.11070 0.37963
 C125 C 1.09758 -0.09072 0.62328
 C126 C 0.89794 -0.09976 0.37801
 C127 C 0.88718 0.10214 0.62178
 N128 N 0.19218 0.25942 1.12543
 C129 C 0.18536 0.25439 1.17950
 N130 N 0.15471 0.29168 1.20560
 N131 N 0.13136 0.33195 1.17863
 C132 C 0.13767 0.33661 1.12444
 N133 N 0.16883 0.29965 1.09851
 N134 N -0.11916 0.74401 1.18042
 C135 C -0.17393 0.74640 1.18054
 N136 N -0.20173 0.70768 1.15367
 N137 N -0.17580 0.66829 1.12774
 C138 C -0.12099 0.66599 1.12756
 N139 N -0.09327 0.70461 1.15459
 N140 N -0.13281 0.26557 0.80416
 C141 C -0.18127 0.24738 0.82301
 N142 N -0.20366 0.27411 0.86550
 N143 N -0.17850 0.31538 0.88874
 C144 C -0.12993 0.33258 0.87009
 N145 N -0.10782 0.30723 0.82696
 N146 N 0.12605 0.74480 0.80713
 C147 C 0.18030 0.75112 0.81153
 N148 N 0.20882 0.71300 0.83878
 N149 N 0.18394 0.67092 0.86148
 C150 C 0.12954 0.66510 0.85774
 N151 N 0.10124 0.70275 0.82973
 N152 N 1.12544 0.19363 0.25951
 C153 C 1.17954 0.18657 0.25386
 N154 N 1.20586 0.15590 0.29084
 N155 N 1.17904 0.13275 0.33139
 C156 C 1.12480 0.13928 0.33667
 N157 N 1.09866 0.17047 0.30003
 N158 N 1.18081 -0.11830 0.74336
 C159 C 1.18052 -0.17312 0.74584
 N160 N 1.15340 -0.20086 0.70735
 N161 N 1.12762 -0.17481 0.66810
 C162 C 1.12784 -0.11995 0.66571
 N163 N 1.15512 -0.09229 0.70410
 N164 N 0.80124 -0.13545 0.27128
 C165 C 0.82143 -0.18302 0.25270
 N166 N 0.86571 -0.20396 0.27724
 N167 N 0.88946 -0.17800 0.31759
 C168 C 0.86955 -0.13021 0.33562
 N169 N 0.82465 -0.10969 0.31201
 N170 N 0.80416 0.12614 0.74318
 C171 C 0.81389 0.17907 0.75438
 N172 N 0.84604 0.20710 0.71952
 N173 N 0.86811 0.18326 0.67668
 C174 C 0.85902 0.13017 0.66652
 N175 N 0.82618 0.10229 0.70044
 N176 N 0.29073 1.20676 0.15486
 C177 C 0.25361 1.18044 0.18564
 N178 N 0.25899 1.12626 0.19267
 N179 N 0.29939 1.09943 0.16938
 C180 C 0.33617 1.12557 0.13807
 N181 N 0.33116 1.17988 0.13158
 N182 N 0.74318 1.18454 -0.11865
 C183 C 0.75107 1.17801 -0.17252
 N184 N 0.71590 1.14560 -0.19938
 N185 N 0.67560 1.12071 -0.17374
 C186 C 0.66842 1.12702 -0.11992
 N187 N 0.70295 1.15965 -0.09298
 N188 N 0.27759 0.86642 -0.20463
 C189 C 0.25266 0.82212 -0.18376
 N190 N 0.27096 0.80189 -0.13628
 N191 N 0.31177 0.82528 -0.11054
 C192 C 0.33578 0.87021 -0.13099
 N193 N 0.31803 0.89015 -0.17868
 N194 N 0.74436 0.80785 0.12655
 C195 C 0.75062 0.81244 0.18063
 N196 N 0.71262 0.83998 0.20914
 N197 N 0.67071 0.86279 0.18442
 C198 C 0.66494 0.85885 0.13018
 N199 N 0.70247 0.83056 0.10189
   
