data_POSCAR
  _audit_creation_date              2014-09-24
  _audit_creation_method            'ToBaCCo'
  _symmetry_space_group_name_H-M    'P1'
  _symmetry_Int_Tables_number       1
  _symmetry_cell_setting            triclinic
  loop_
  _symmetry_equiv_pos_as_xyz
 x,y,z
_cell_length_a 25.5335
_cell_length_b 25.5178
_cell_length_c 25.5364
_cell_angle_alpha 80.262200
_cell_angle_beta 97.940800
_cell_angle_gamma 78.957500
loop_
  _atom_site_label
  _atom_site_type_symbol
  _atom_site_fract_x
  _atom_site_fract_y
  _atom_site_fract_z
O1 O 0.58842 0.47617 0.05313
 O2 O 0.44141 0.48727 0.04772
 O3 O 0.52335 0.40822 0.05248
 O4 O 0.50647 0.55464 0.05086
 O5 O 0.49443 0.57203 -0.03830
 O6 O 0.51051 0.42526 -0.03673
 O7 O 0.42887 0.50463 -0.04144
 O8 O 0.57543 0.49256 -0.03606
 Cu9 Cu 0.51623 0.47987 0.06004
 Cu10 Cu 0.50103 0.50040 -0.04712
 C11 C 0.60665 0.48307 0.00924
 C12 C 0.41034 0.49709 0.00219
 C13 C 0.51888 0.39204 0.00812
 C14 C 0.49834 0.58806 0.00622
 O15 O -0.05352 0.59303 0.47872
 O16 O -0.05002 0.44656 0.49281
 O17 O -0.04760 0.51395 0.55899
 O18 O -0.05339 0.52504 0.41248
 O19 O 0.03617 0.50799 0.42522
 O20 O 0.04195 0.49600 0.57116
 O21 O 0.03949 0.42851 0.50456
 O22 O 0.03601 0.57538 0.49121
 Cu23 Cu -0.06018 0.52141 0.48446
 Cu24 Cu 0.04743 0.50013 0.49927
 C25 C -0.00932 0.60900 0.48341
 C26 C -0.00489 0.41277 0.50049
 C27 C -0.00182 0.50378 0.58974
 C28 C -0.00934 0.51787 0.39423
 O29 O 0.49150 0.04134 0.56943
 O30 O 0.48254 0.04671 0.42316
 O31 O 0.41468 0.04373 0.49093
 O32 O 0.55897 0.04591 0.50163
 O33 O 0.58026 -0.04411 0.51611
 O34 O 0.43556 -0.04635 0.50607
 O35 O 0.50279 -0.04337 0.43853
 O36 O 0.51252 -0.04868 0.58446
 Cu37 Cu 0.48487 0.05351 0.49482
 Cu38 Cu 0.51003 -0.05473 0.51293
 C39 C 0.50277 -0.00459 0.60164
 C40 C 0.49147 0.00241 0.40617
 C41 C 0.40071 -0.00169 0.49713
 C42 C 0.59396 0.00149 0.50979
 C43 C 0.49963 -0.02736 0.02517
 C44 C 0.50372 0.01216 -0.01608
 C45 C 0.50406 0.00334 -0.07214
 C46 C 0.50759 0.06735 -0.00749
 C47 C 0.49790 -0.01683 0.08039
 C48 C 0.49661 -0.08325 0.01796
 C49 C 0.54496 0.01786 -0.09934
 C50 C 0.54431 0.01349 -0.15315
 C51 C 0.50285 -0.00558 -0.18076
 C52 C 0.46203 -0.02052 -0.15369
 C53 C 0.46239 -0.01570 -0.09985
 C54 C 0.55212 0.07545 0.02662
 C55 C 0.55657 0.12823 0.03167
 C56 C 0.51652 0.17331 0.00268
 C57 C 0.47182 0.16502 -0.03085
 C58 C 0.46757 0.11246 -0.03621
 C59 C 0.45441 0.02032 0.09100
 C60 C 0.45170 0.02699 0.14395
 C61 C 0.49255 -0.00327 0.18679
 C62 C 0.53647 -0.03953 0.17589
 C63 C 0.53887 -0.04664 0.12319
 C64 C 0.45385 -0.10548 0.03422
 C65 C 0.45131 -0.15880 0.03016
 C66 C 0.49170 -0.19092 0.01001
 C67 C 0.53429 -0.16868 -0.00672
 C68 C 0.53695 -0.11528 -0.00250
 H69 H 0.57724 0.03307 -0.07895
 H70 H 0.57593 0.02552 -0.17351
 H71 H 0.42924 -0.03475 -0.17434
 H72 H 0.42965 -0.02580 -0.08018
 H73 H 0.58372 0.04103 0.04850
 H74 H 0.59134 0.13371 0.05786
 H75 H 0.43312 0.10688 -0.06289
 H76 H 0.42215 0.04323 0.05846
 H77 H 0.41751 0.05531 0.15134
 H78 H 0.56840 -0.06312 0.20843
 H79 H 0.57259 -0.07561 0.11573
 H80 H 0.42245 -0.08149 0.05028
 H81 H 0.41807 -0.17488 0.04338
 H82 H 0.56597 -0.19308 -0.02208
 H83 H 0.57081 -0.09925 -0.01438
 H84 H 0.44051 0.19941 -0.05338
 C85 C -0.01401 0.49834 0.97660
 C86 C 0.02590 0.50183 1.01621
 C87 C 0.08240 0.50198 1.00776
 C88 C 0.01501 0.50539 1.07113
 C89 C -0.06913 0.49529 0.98746
 C90 C -0.00577 0.49822 0.92021
 C91 C 0.11234 0.46074 0.98674
 C92 C 0.16662 0.45978 0.98256
 C93 C 0.19191 0.49963 0.99995
 C94 C 0.16200 0.54081 1.02074
 C95 C 0.10780 0.54198 1.02463
 C96 C 0.04327 0.46447 1.11511
 C97 C 0.03515 0.46831 1.16733
 C98 C -0.00062 0.51355 1.17641
 C99 C -0.02921 0.55443 1.13243
 C100 C -0.02147 0.55034 1.08000
 C101 C -0.11384 0.53600 0.95931
 C102 C -0.16623 0.53234 0.96684
 C103 C -0.17486 0.48748 1.00195
 C104 C -0.13015 0.44686 1.03053
 C105 C -0.07756 0.45078 1.02337
 C106 C 0.01401 0.53972 0.89102
 C107 C 0.01805 0.54072 0.83681
 C108 C 0.00171 0.50065 0.81096
 C109 C -0.01786 0.45921 0.84012
 C110 C -0.02159 0.45799 0.89427
 H111 H 0.09407 0.42871 0.97466
 H112 H 0.18895 0.42729 0.96680
 H113 H 0.18089 0.57174 1.03456
 H114 H 0.08570 0.57395 1.04132
 H115 H 0.07167 0.42964 1.10890
 H116 H 0.05747 0.43640 1.20089
 H117 H -0.04315 0.58255 1.04643
 H118 H -0.10809 0.57050 0.93130
 H119 H -0.20026 0.56409 0.94453
 H120 H -0.13581 0.41193 1.05789
 H121 H -0.04351 0.41866 1.04495
 H122 H 0.02522 0.57189 0.90985
 H123 H 0.03282 0.57340 0.81499
 H124 H -0.03088 0.42815 0.82069
 H125 H -0.03733 0.42586 0.91590
 H126 H -0.05705 0.58965 1.13852
 C127 C 0.01509 -0.01359 0.49642
 C128 C -0.02497 0.02818 0.50066
 C129 C -0.08117 0.02124 0.50123
 C130 C -0.01578 0.08341 0.50387
 C131 C 0.07133 -0.00742 0.49421
 C132 C 0.00511 -0.06852 0.49361
 C133 C -0.12288 0.05321 0.46031
 C134 C -0.17639 0.04872 0.46066
 C135 C -0.18912 0.01253 0.50232
 C136 C -0.14744 -0.01937 0.54348
 C137 C -0.09369 -0.01512 0.54294
 C138 C 0.00463 0.11371 0.46332
 C139 C 0.00934 0.16708 0.46563
 C140 C -0.00685 0.19107 0.50808
 C141 C -0.02659 0.16051 0.54884
 C142 C -0.03115 0.10726 0.54664
 C143 C 0.10161 0.01004 0.53546
 C144 C 0.15562 0.01244 0.53371
 C145 C 0.18013 -0.00332 0.49122
 C146 C 0.14973 -0.02037 0.44991
 C147 C 0.09582 -0.02248 0.45147
 C148 C 0.03359 -0.11320 0.53388
 C149 C 0.02785 -0.16580 0.53027
 C150 C -0.00581 -0.17470 0.48595
 C151 C -0.03482 -0.13002 0.44579
 C152 C -0.02940 -0.07715 0.44961
 H153 H -0.11389 0.08170 0.42804
 H154 H -0.20765 0.07419 0.42869
 H155 H -0.15665 -0.04720 0.57613
 H156 H -0.06200 -0.03954 0.57527
 H157 H 0.01576 0.09650 0.42941
 H158 H 0.02442 0.19018 0.43367
 H159 H -0.04724 0.08469 0.57816
 H160 H 0.08378 0.02084 0.56932
 H161 H 0.17866 0.02558 0.56599
 H162 H 0.16752 -0.03254 0.41660
 H163 H 0.07316 -0.03624 0.41938
 H164 H 0.06063 -0.10727 0.56792
 H165 H 0.05043 -0.19981 0.56166
 H166 H -0.06112 -0.13591 0.41128
 H167 H -0.05111 -0.04315 0.41780
 H168 H -0.03936 0.17783 0.58204
 C169 C -0.25157 0.43576 1.03823
 C170 C -0.29126 0.47735 1.06001
 C171 C -0.33454 0.48179 1.01023
 C172 C -0.29577 0.44025 0.98850
 C173 C -0.31487 0.52919 0.97912
 C174 C -0.27089 0.52479 1.02875
 C175 C -0.23196 0.48330 1.00697
 C176 C -0.27550 0.48766 0.95733
 H177 H -0.22574 0.39699 1.06271
 H178 H -0.29828 0.47311 1.10231
 H179 H -0.30661 0.40546 0.97194
 H180 H -0.34144 0.56769 0.95481
 H181 H -0.26019 0.55964 1.04530
 H182 H -0.26866 0.49192 0.91497
 C183 C 0.29321 0.48997 1.05014
 C184 C 0.33310 0.44992 1.02712
 C185 C 0.35444 0.49823 1.00023
 C186 C 0.31537 0.53824 1.02325
 C187 C 0.31241 0.50622 0.94858
 C188 C 0.29025 0.45790 0.97554
 C189 C 0.25093 0.49795 0.99860
 C190 C 0.27247 0.54625 0.97165
 H191 H 0.28485 0.48314 1.09200
 H192 H 0.35861 0.41025 1.05003
 H193 H 0.32618 0.57131 1.04286
 H194 H 0.32063 0.51305 0.90667
 H195 H 0.28057 0.42462 0.95568
 H196 H 0.24699 0.58589 0.94869
 C197 C -0.03948 -0.25231 0.43576
 C198 C 0.01126 -0.29831 0.43969
 C199 C -0.01027 -0.33516 0.48173
 C200 C -0.06106 -0.29014 0.47781
 C201 C 0.01995 -0.31501 0.52799
 C202 C 0.04151 -0.27740 0.48598
 C203 C -0.00915 -0.23211 0.48215
 C204 C -0.03069 -0.26925 0.52409
 H205 H -0.06409 -0.22673 0.39755
 H206 H 0.02854 -0.31088 0.40499
 H207 H -0.10335 -0.29578 0.47448
 H208 H 0.04441 -0.34129 0.56598
 H209 H 0.08378 -0.27169 0.48934
 H210 H -0.04798 -0.25682 0.55883
 C211 C 0.04596 0.27315 0.50983
 C212 C 0.01573 0.32049 0.46265
 C213 C -0.00435 0.35368 0.50376
 C214 C 0.02590 0.30725 0.55092
 C215 C -0.05563 0.33031 0.50196
 C216 C -0.03558 0.29645 0.46093
 C217 C -0.00539 0.24976 0.50808
 C218 C -0.02545 0.28321 0.54921
 H219 H 0.08780 0.24908 0.51312
 H220 H 0.03261 0.33649 0.42698
 H221 H 0.05123 0.31230 0.58793
 H222 H -0.09758 0.35415 0.49866
 H223 H -0.06097 0.29164 0.42385
 H224 H -0.04263 0.26896 0.58524
 C225 C 0.49380 0.04436 -0.28313
 C226 C 0.54234 0.01655 -0.30627
 C227 C 0.50321 -0.00645 -0.34263
 C228 C 0.45463 0.02135 -0.32031
 C229 C 0.51127 -0.05838 -0.29917
 C230 C 0.55040 -0.03533 -0.26192
 C231 C 0.50184 -0.00745 -0.23940
 C232 C 0.46268 -0.03050 -0.27600
 H233 H 0.48646 0.08669 -0.27605
 H234 H 0.57512 0.03587 -0.31922
 H235 H 0.41520 0.04476 -0.34492
 H236 H 0.51860 -0.10076 -0.30612
 H237 H 0.58981 -0.05879 -0.23734
 H238 H 0.42974 -0.05011 -0.26408
 C239 C 0.49533 -0.04922 0.28920
 C240 C 0.53673 -0.02769 0.32521
 C241 C 0.48981 0.00361 0.34730
 C242 C 0.44842 -0.01788 0.31191
 C243 C 0.48398 0.05415 0.30270
 C244 C 0.53095 0.02271 0.27988
 C245 C 0.48958 0.00118 0.24433
 C246 C 0.44253 0.03261 0.26641
 H247 H 0.49997 -0.09188 0.28330
 H248 H 0.57554 -0.05248 0.34993
 H249 H 0.41446 -0.03459 0.32568
 H250 H 0.47935 0.09674 0.30878
 H251 H 0.56494 0.03943 0.26623
 H252 H 0.40344 0.05756 0.24250
 C253 C 0.48890 -0.27333 -0.04312
 C254 C 0.53620 -0.32131 -0.01349
 C255 C 0.49484 -0.35301 0.00639
 C256 C 0.44755 -0.30594 -0.02327
 C257 C 0.49708 -0.32908 0.05779
 C258 C 0.53836 -0.29671 0.03792
 C259 C 0.49110 -0.24936 0.00834
 C260 C 0.44970 -0.28127 0.02821
 H261 H 0.48550 -0.24980 -0.08465
 H262 H 0.57183 -0.33849 -0.03060
 H263 H 0.41023 -0.31040 -0.04846
 H264 H 0.50049 -0.35240 0.09942
 H265 H 0.57577 -0.29249 0.06317
 H266 H 0.41371 -0.26573 0.04557
 C267 C 0.56728 0.24994 0.03673
 C268 C 0.56323 0.29524 -0.01347
 C269 C 0.52115 0.33326 0.00841
 C270 C 0.52517 0.28891 0.05863
 C271 C 0.47462 0.31374 -0.02188
 C272 C 0.51667 0.27501 -0.04381
 C273 C 0.52060 0.23046 0.00632
 C274 C 0.47860 0.26873 0.02821
 H275 H 0.60570 0.22388 0.06101
 H276 H 0.59800 0.30686 -0.03061
 H277 H 0.52864 0.29516 0.10083
 H278 H 0.43647 0.34058 -0.04597
 H279 H 0.51316 0.26880 -0.08603
 H280 H 0.44376 0.25733 0.04539
 C281 C -0.26770 -0.04410 0.51012
 C282 C -0.29929 -0.02573 0.55394
 C283 C -0.34812 0.00333 0.50954
 C284 C -0.31744 -0.01514 0.46583
 C285 C -0.32733 0.05634 0.50349
 C286 C -0.27770 0.02736 0.54784
 C287 C -0.24693 0.00902 0.50402
 C288 C -0.29612 0.03796 0.45968
 H289 H -0.24263 -0.08541 0.51266
 H290 H -0.30127 -0.05188 0.59272
 H291 H -0.33443 -0.03272 0.43211
 H292 H -0.35218 0.09776 0.50093
 H293 H -0.26083 0.04500 0.58155
 H294 H -0.29624 0.06420 0.42029
 C295 C 0.28425 -0.03356 0.53867
 C296 C 0.31915 -0.05400 0.49817
 C297 C 0.34234 -0.00248 0.49467
 C298 C 0.30822 0.01796 0.53524
 C299 C 0.29716 0.02793 0.44715
 C300 C 0.27320 -0.02362 0.45054
 C301 C 0.23884 -0.00315 0.49113
 C302 C 0.26217 0.04836 0.48770
 H303 H 0.27844 -0.05890 0.57637
 H304 H 0.34307 -0.09617 0.50254
 H305 H 0.32339 0.03498 0.57014
 H306 H 0.30316 0.05323 0.40951
 H307 H 0.25978 -0.04100 0.41533
 H308 H 0.23814 0.09048 0.48334
 C309 C 0.04326 0.51301 1.27707
 C310 C 0.01128 0.56059 1.29810
 C311 C -0.01028 0.51927 1.33561
 C312 C 0.02164 0.47171 1.31518
 C313 C -0.05998 0.52420 1.29211
 C314 C -0.03836 0.56556 1.25364
 C315 C -0.00628 0.51784 1.23328
 C316 C -0.02790 0.47658 1.27095
 H317 H 0.08584 0.50840 1.27046
 H318 H 0.02737 0.59514 1.30995
 H319 H 0.04629 0.43306 1.34108
 H320 H -0.10248 0.52879 1.29892
 H321 H -0.06319 0.60448 1.22849
 H322 H -0.04400 0.44198 1.25925
 C323 C 0.02474 0.54262 0.71345
 C324 C 0.05243 0.49441 0.69013
 C325 C 0.00044 0.50241 0.64855
 C326 C -0.02721 0.55061 0.67110
 C327 C -0.02152 0.46230 0.68700
 C328 C 0.03045 0.45426 0.72941
 C329 C 0.00273 0.50246 0.75208
 C330 C -0.04919 0.51047 0.71029
 H331 H 0.04401 0.57589 0.72370
 H332 H 0.09431 0.48766 0.68134
 H333 H -0.05102 0.59024 0.64642
 H334 H -0.04052 0.42929 0.67552
 H335 H 0.05433 0.41461 0.75399
 H336 H -0.09106 0.51722 0.71911
   
