data_POSCAR
  _audit_creation_date              2014-09-24
  _audit_creation_method            'ToBaCCo'
  _symmetry_space_group_name_H-M    'P1'
  _symmetry_Int_Tables_number       1
  _symmetry_cell_setting            triclinic
  loop_
  _symmetry_equiv_pos_as_xyz
 x,y,z
_cell_length_a 12.3216
_cell_length_b 12.4593
_cell_length_c 22.2625
_cell_angle_alpha 87.090900
_cell_angle_beta 89.418500
_cell_angle_gamma 92.159600
loop_
  _atom_site_label
  _atom_site_type_symbol
  _atom_site_fract_x
  _atom_site_fract_y
  _atom_site_fract_z
O1 O 0.08257 0.59235 1.05045
 O2 O 0.07974 0.41287 0.92351
 O3 O 0.07702 0.62235 0.93524
 O4 O 0.09104 0.38698 1.04013
 O5 O -0.08804 0.38061 1.04933
 O6 O -0.10137 0.60135 0.93290
 O7 O -0.09829 0.39189 0.93340
 O8 O -0.09666 0.58814 1.05064
 Cu9 Cu 0.10072 0.50478 0.98642
 Cu10 Cu -0.11422 0.48970 0.99185
 C11 C -0.00702 0.62202 1.07160
 C12 C -0.00993 0.36888 0.90824
 C13 C -0.01406 0.65189 0.91559
 C14 C 0.00412 0.34545 1.06355
 O15 O 0.39512 0.08462 0.54053
 O16 O 0.60552 0.07220 0.42310
 O17 O 0.39636 0.07182 0.42468
 O18 O 0.60684 0.08419 0.54066
 O19 O 0.60208 -0.09322 0.55021
 O20 O 0.38853 -0.10536 0.43633
 O21 O 0.60138 -0.10473 0.43532
 O22 O 0.39049 -0.09240 0.55292
 Cu23 Cu 0.50196 0.09605 0.48126
 Cu24 Cu 0.49454 -0.11678 0.49468
 C25 C 0.35664 -0.00166 0.56671
 C26 C 0.63999 -0.01829 0.40926
 C27 C 0.35609 -0.01888 0.41101
 C28 C 0.64089 -0.00259 0.56488
 C29 C -0.00174 -0.02746 0.23667
 C30 C -0.00569 0.01892 0.74052
 C31 C 0.08942 -0.26408 0.14540
 C32 C -0.00721 -0.30335 0.12094
 C33 C -0.10500 -0.26617 0.14417
 C34 C -0.10390 -0.18157 0.18383
 C35 C -0.00473 -0.13197 0.20201
 C36 C 0.09073 -0.18064 0.18404
 C37 C 0.19723 -0.13568 0.15955
 C38 C 0.19523 -0.22719 0.11679
 H39 H -0.18252 -0.29679 0.12850
 H40 H -0.18106 -0.14976 0.19617
 H41 H 0.26283 -0.14166 0.19333
 H42 H 0.19171 -0.05575 0.13574
 H43 H 0.25993 -0.28545 0.12586
 H44 H 0.18679 -0.19961 0.06881
 C45 C 0.01909 0.15068 0.08751
 C46 C 0.01084 0.25429 0.10697
 C47 C 0.01048 0.26840 0.16899
 C48 C 0.00769 0.17861 0.21009
 C49 C 0.00354 0.07145 0.19065
 C50 C 0.01305 0.06185 0.12779
 C51 C -0.05295 -0.00087 0.08430
 C52 C -0.04351 0.09614 0.04036
 H53 H 0.00879 0.34847 0.18570
 H54 H 0.00576 0.19354 0.25754
 H55 H -0.13789 -0.01847 0.10018
 H56 H -0.00962 -0.07084 0.06825
 H57 H -0.12251 0.13344 0.03080
 H58 H 0.00741 0.08279 0.00010
 C59 C 0.21837 0.09901 0.62148
 C60 C 0.27258 0.00429 0.61402
 C61 C 0.24377 -0.08442 0.65332
 C62 C 0.15759 -0.07945 0.69514
 C63 C 0.09779 0.01544 0.70032
 C64 C 0.13200 0.10303 0.66146
 C65 C 0.07284 0.17812 0.62021
 C66 C 0.16758 0.17321 0.57626
 H67 H 0.28460 -0.15941 0.65012
 H68 H 0.13482 -0.15313 0.72053
 H69 H 0.06663 0.25894 0.63858
 H70 H -0.00372 0.14190 0.60291
 H71 H 0.21460 0.25088 0.56962
 H72 H 0.14579 0.13330 0.53423
 C73 C -0.26771 0.08224 0.65161
 C74 C -0.27443 0.00068 0.61104
 C75 C -0.20038 -0.08221 0.61810
 C76 C -0.11528 -0.07524 0.65970
 C77 C -0.10274 0.01342 0.69707
 C78 C -0.18590 0.08835 0.69356
 C79 C -0.18769 0.20884 0.69101
 C80 C -0.27648 0.20082 0.64417
 H81 H -0.20491 -0.14999 0.58952
 H82 H -0.05785 -0.13888 0.66208
 H83 H -0.11171 0.24918 0.67315
 H84 H -0.21791 0.24040 0.73361
 H85 H -0.25003 0.23331 0.59870
 H86 H -0.35629 0.22771 0.66012
 C87 C 0.07148 -0.18793 0.86569
 C88 C -0.01723 -0.25949 0.87458
 C89 C -0.10970 -0.23578 0.83982
 C90 C -0.10751 -0.14745 0.79672
 C91 C -0.01312 -0.07794 0.78727
 C92 C 0.07186 -0.10020 0.82677
 C93 C 0.18137 -0.06144 0.84638
 C94 C 0.18024 -0.16083 0.89020
 H95 H -0.18308 -0.28625 0.84479
 H96 H -0.18111 -0.13378 0.77199
 H97 H 0.17769 0.01482 0.87000
 H98 H 0.24452 -0.06301 0.81050
 H99 H 0.17597 -0.14099 0.93828
 H100 H 0.24130 -0.22035 0.87899
 C101 C 0.06870 0.28575 0.81764
 C102 C -0.01299 0.28948 0.86125
 C103 C -0.09991 0.21341 0.85887
 C104 C -0.09692 0.12961 0.81898
 C105 C -0.00849 0.11985 0.77837
 C106 C 0.07096 0.20499 0.77695
 C107 C 0.19309 0.21104 0.77581
 C108 C 0.18877 0.29769 0.82133
 H109 H -0.16737 0.21437 0.89038
 H110 H -0.16300 0.06972 0.82123
 H111 H 0.22718 0.24380 0.73196
 H112 H 0.23075 0.13674 0.79327
 H113 H 0.22003 0.37786 0.80324
 H114 H 0.21973 0.27144 0.86625
 C115 C -0.24842 0.06797 0.32849
 C116 C -0.27702 -0.02217 0.36613
 C117 C -0.21905 -0.11584 0.35933
 C118 C -0.13454 -0.11779 0.31679
 C119 C -0.10388 -0.02655 0.27868
 C120 C -0.16581 0.06530 0.28506
 C121 C -0.23517 0.12097 0.23890
 C122 C -0.32255 0.12554 0.28655
 H123 H -0.23852 -0.18824 0.38695
 H124 H -0.09642 -0.19347 0.31257
 H125 H -0.25818 0.06859 0.20170
 H126 H -0.20323 0.20259 0.22402
 H127 H -0.39715 0.07686 0.27674
 H128 H -0.33692 0.20845 0.30021
 C129 C 0.24963 0.06684 0.32838
 C130 C 0.26890 -0.02282 0.36627
 C131 C 0.20226 -0.11538 0.36068
 C132 C 0.12021 -0.11770 0.31742
 C133 C 0.09927 -0.02689 0.27857
 C134 C 0.16830 0.06492 0.28517
 C135 C 0.24377 0.12314 0.23978
 C136 C 0.32983 0.12609 0.28749
 H137 H 0.21456 -0.18699 0.38905
 H138 H 0.07590 -0.19312 0.31348
 H139 H 0.21828 0.20522 0.22609
 H140 H 0.26537 0.07337 0.20179
 H141 H 0.34965 0.20836 0.30227
 H142 H 0.40114 0.07786 0.27717
   
