data_POSCAR
  _audit_creation_date              2014-09-24
  _audit_creation_method            'ToBaCCo'
  _symmetry_space_group_name_H-M    'P1'
  _symmetry_Int_Tables_number       1
  _symmetry_cell_setting            triclinic
  loop_
  _symmetry_equiv_pos_as_xyz
 x,y,z
_cell_length_a 30.3735
_cell_length_b 28.9611
_cell_length_c 14.0534
_cell_angle_alpha 90.995800
_cell_angle_beta 90.742200
_cell_angle_gamma 88.958200
loop_
  _atom_site_label
  _atom_site_type_symbol
  _atom_site_fract_x
  _atom_site_fract_y
  _atom_site_fract_z
C1 C 0.72547 0.21263 0.44055
 C2 C 0.71893 0.21109 0.53584
 C3 C 0.68417 0.23924 0.58316
 C4 C 0.74330 0.17737 0.59510
 C5 C 0.76597 0.19233 0.39741
 C6 C 0.69296 0.23575 0.37744
 C7 C 0.69532 0.27932 0.63447
 C8 C 0.66284 0.30594 0.68038
 C9 C 0.61815 0.29367 0.67372
 C10 C 0.60750 0.25277 0.62296
 C11 C 0.64024 0.22560 0.57947
 C12 C 0.77422 0.19173 0.66385
 C13 C 0.79630 0.15914 0.72017
 C14 C 0.78692 0.11195 0.70991
 C15 C 0.75577 0.09782 0.64127
 C16 C 0.73438 0.13027 0.58387
 C17 C 0.76360 0.15961 0.32285
 C18 C 0.80215 0.13929 0.28602
 C19 C 0.84378 0.15164 0.32271
 C20 C 0.84586 0.18586 0.39475
 C21 C 0.80744 0.20593 0.43155
 C22 C 0.65473 0.21266 0.34876
 C23 C 0.62193 0.23550 0.29606
 C24 C 0.62710 0.28169 0.27018
 C25 C 0.66636 0.30413 0.29609
 C26 C 0.69899 0.28132 0.34954
 H27 H 0.72919 0.29030 0.63828
 H28 H 0.67292 0.33702 0.71772
 H29 H 0.57406 0.24073 0.61809
 H30 H 0.63126 0.19395 0.54256
 H31 H 0.78159 0.22795 0.67325
 H32 H 0.82011 0.17088 0.77281
 H33 H 0.71048 0.11874 0.53112
 H34 H 0.73193 0.14888 0.29494
 H35 H 0.79914 0.11309 0.23064
 H36 H 0.87712 0.19732 0.42323
 H37 H 0.81005 0.23207 0.48729
 H38 H 0.64991 0.17722 0.36912
 H39 H 0.59246 0.21704 0.27611
 H40 H 0.67131 0.33981 0.27812
 H41 H 0.72838 0.29954 0.37132
 H42 H 0.74837 0.06164 0.63096
 C43 C 0.30147 0.79461 0.42438
 C44 C 0.29330 0.79925 0.51935
 C45 C 0.25721 0.83044 0.55521
 C46 C 0.31763 0.77015 0.58926
 C47 C 0.34000 0.76796 0.38697
 C48 C 0.26925 0.81147 0.35240
 C49 C 0.25063 0.87485 0.51770
 C50 C 0.21377 0.90170 0.54257
 C51 C 0.18409 0.88581 0.60944
 C52 C 0.19213 0.84302 0.65234
 C53 C 0.22813 0.81531 0.62469
 C54 C 0.34424 0.79048 0.65996
 C55 C 0.36951 0.76279 0.72128
 C56 C 0.36766 0.71435 0.71448
 C57 C 0.33929 0.69413 0.64661
 C58 C 0.31473 0.72181 0.58409
 C59 C 0.33378 0.73560 0.31276
 C60 C 0.36937 0.71065 0.27559
 C61 C 0.41209 0.71724 0.31216
 C62 C 0.41858 0.75003 0.38556
 C63 C 0.38286 0.77559 0.42198
 C64 C 0.22711 0.79261 0.34760
 C65 C 0.19714 0.80673 0.27761
 C66 C 0.20865 0.84038 0.21213
 C67 C 0.25075 0.85949 0.21714
 C68 C 0.28122 0.84445 0.28590
 H69 H 0.27357 0.88842 0.46745
 H70 H 0.20870 0.93515 0.51049
 H71 H 0.16972 0.83041 0.70489
 H72 H 0.23255 0.78154 0.65570
 H73 H 0.34657 0.82771 0.66543
 H74 H 0.39083 0.77926 0.77350
 H75 H 0.29395 0.70556 0.53049
 H76 H 0.30113 0.72898 0.28441
 H77 H 0.36296 0.68499 0.22052
 H78 H 0.45121 0.75588 0.41474
 H79 H 0.38868 0.80128 0.47737
 H80 H 0.21765 0.76668 0.39769
 H81 H 0.16462 0.79201 0.27600
 H82 H 0.26014 0.88553 0.16727
 H83 H 0.31386 0.85890 0.28831
 H84 H 0.33744 0.65694 0.63928
 C85 C 0.20836 0.30171 -0.45504
 C86 C 0.21542 0.29851 -0.55061
 C87 C 0.23813 0.33593 -0.60064
 C88 C 0.20175 0.25639 -0.60435
 C89 C 0.17472 0.27289 -0.40955
 C90 C 0.23535 0.33190 -0.39163
 C91 C 0.22353 0.38180 -0.58847
 C92 C 0.24731 0.41805 -0.62518
 C93 C 0.28677 0.40957 -0.67500
 C94 C 0.30047 0.36307 -0.68956
 C95 C 0.27613 0.32671 -0.65366
 C96 C 0.17347 0.25871 -0.68396
 C97 C 0.15444 0.21833 -0.72156
 C98 C 0.16269 0.17535 -0.67822
 C99 C 0.19408 0.17325 -0.60374
 C100 C 0.21380 0.21306 -0.56857
 C101 C 0.18617 0.24419 -0.33355
 C102 C 0.15456 0.21653 -0.29238
 C103 C 0.11039 0.21757 -0.32510
 C104 C 0.09918 0.24739 -0.40044
 C105 C 0.13098 0.27444 -0.44220
 C106 C 0.28138 0.33248 -0.40068
 C107 C 0.30714 0.35770 -0.33628
 C108 C 0.28748 0.38164 -0.25988
 C109 C 0.24152 0.38130 -0.25080
 C110 C 0.21564 0.35680 -0.31640
 H111 H 0.19412 0.38963 -0.54802
 H112 H 0.23498 0.45262 -0.61075
 H113 H 0.33002 0.35430 -0.72843
 H114 H 0.28799 0.29150 -0.66379
 H115 H 0.16421 0.29185 -0.71340
 H116 H 0.13101 0.22148 -0.77984
 H117 H 0.23685 0.21034 -0.50934
 H118 H 0.21981 0.24268 -0.30706
 H119 H 0.16503 0.19488 -0.23412
 H120 H 0.06622 0.24950 -0.42985
 H121 H 0.12145 0.29670 -0.50040
 H122 H 0.29762 0.31219 -0.45577
 H123 H 0.34258 0.35684 -0.34393
 H124 H 0.22556 0.39985 -0.19286
 H125 H 0.18028 0.35665 -0.30755
 H126 H 0.20372 0.14090 -0.57162
 C127 C -0.22125 0.71393 -0.44238
 C128 C -0.23159 0.72324 -0.53528
 C129 C -0.20079 0.75006 -0.59224
 C130 C -0.27001 0.70154 -0.58468
 C131 C -0.24227 0.67530 -0.39314
 C132 C -0.18732 0.74064 -0.38879
 C133 C -0.21416 0.79122 -0.63569
 C134 C -0.18293 0.81931 -0.67732
 C135 C -0.13780 0.80667 -0.67513
 C136 C -0.12554 0.76354 -0.63703
 C137 C -0.15668 0.73556 -0.59694
 C138 C -0.31081 0.69988 -0.53918
 C139 C -0.34285 0.66924 -0.57130
 C140 C -0.33597 0.64144 -0.65318
 C141 C -0.29762 0.64820 -0.70631
 C142 C -0.26461 0.67741 -0.67142
 C143 C -0.24327 0.63139 -0.43657
 C144 C -0.27195 0.59831 -0.40440
 C145 C -0.29899 0.60778 -0.32553
 C146 C -0.29318 0.64961 -0.27427
 C147 C -0.26538 0.68335 -0.30864
 C148 C -0.15267 0.71763 -0.34151
 C149 C -0.12000 0.74263 -0.29360
 C150 C -0.12155 0.79125 -0.29103
 C151 C -0.15640 0.81419 -0.33847
 C152 C -0.18902 0.78915 -0.38643
 H153 H -0.24831 0.80258 -0.63342
 H154 H -0.19412 0.85181 -0.70663
 H155 H -0.09196 0.75067 -0.63772
 H156 H -0.14609 0.70310 -0.56611
 H157 H -0.31656 0.71975 -0.47439
 H158 H -0.37282 0.66725 -0.53091
 H159 H -0.23374 0.67865 -0.70889
 H160 H -0.22422 0.62395 -0.49983
 H161 H -0.27325 0.56571 -0.44295
 H162 H -0.31267 0.65816 -0.21235
 H163 H -0.26429 0.71681 -0.27310
 H164 H -0.15052 0.68025 -0.34307
 H165 H -0.09344 0.72367 -0.25921
 H166 H -0.15915 0.85148 -0.33712
 H167 H -0.21578 0.80762 -0.42151
 H168 H -0.29119 0.62812 -0.77044
 O169 O -0.01899 0.93093 0.12807
 O170 O 0.03154 0.99096 -0.22314
 O171 O -0.04055 0.92340 -0.03294
 O172 O 0.10533 0.97818 0.04252
 O173 O -0.03918 0.95455 -0.17265
 O174 O 0.05530 0.93199 0.08775
 O175 O 0.09105 0.98344 -0.13177
 O176 O -0.08645 0.95213 0.10621
 C177 C -0.05806 0.92891 0.15634
 C178 C 0.07121 0.97775 -0.21009
 C179 C -0.04264 0.91915 -0.12143
 C180 C 0.09387 0.93838 0.06454
 O181 O 0.06374 1.01601 0.16686
 O182 O -0.06517 1.04326 -0.11039
 O183 O -0.06487 1.03521 0.07601
 O184 O 0.06874 1.06973 -0.11450
 O185 O 0.00075 1.07285 -0.16226
 O186 O -0.01621 1.02183 0.18529
 O187 O 0.07487 1.06670 0.06135
 O188 O -0.09717 0.98633 -0.05878
 Co189 Co 0.01965 0.97801 0.12837
 Co190 Co -0.01619 1.01377 -0.15434
 Co191 Co -0.05032 0.97986 0.02309
 Co192 Co 0.07807 1.02246 -0.03258
 O193 O 0.00997 1.00151 -0.01565
 C194 C 0.07610 1.05533 0.14583
 C195 C -0.09989 1.02215 -0.10455
 C196 C -0.04866 1.04515 0.15538
 C197 C 0.03802 1.08957 -0.15825
 O198 O 0.43531 0.47476 0.15922
 O199 O 0.50163 0.43914 -0.17529
 O200 O 0.41635 0.47483 -0.00320
 O201 O 0.56812 0.43125 0.07611
 O202 O 0.43074 0.48415 -0.14957
 O203 O 0.50185 0.42432 0.13381
 O204 O 0.56701 0.43748 -0.10180
 O205 O 0.39836 0.53677 0.11277
 C206 C 0.40220 0.50205 0.17125
 C207 C 0.53892 0.42020 -0.16063
 C208 C 0.40766 0.46649 -0.08747
 C209 C 0.53919 0.40730 0.11554
 O210 O 0.55219 0.49044 0.19334
 O211 O 0.47881 0.56237 -0.14946
 O212 O 0.46713 0.58180 0.07204
 O213 O 0.58811 0.52773 -0.08027
 O214 O 0.54304 0.51374 -0.19525
 O215 O 0.48955 0.54641 0.19647
 O216 O 0.58550 0.52527 0.08740
 O217 O 0.42060 0.55966 -0.06598
 Co218 Co 0.49528 0.48598 0.15476
 Co219 Co 0.48901 0.50029 -0.15125
 Co220 Co 0.44438 0.52733 0.03437
 Co221 Co 0.57097 0.48171 -0.00262
 O222 O 0.50263 0.49938 0.00133
 C223 C 0.57775 0.52115 0.17238
 C224 C 0.44355 0.58071 -0.12369
 C225 C 0.48099 0.58363 0.15527
 C226 C 0.57865 0.52922 -0.16580
 N227 N 0.33069 0.51734 0.24989
 N228 N 0.29815 0.49143 0.29172
 C229 C 0.31183 0.44666 0.29156
 C230 C 0.35364 0.44374 0.25118
 C231 C 0.36394 0.48838 0.22628
 H232 H 0.37384 0.41320 0.23829
 H233 H 0.32829 0.55267 0.23664
 H234 H 0.26798 0.50546 0.31341
 N235 N -0.03978 0.86547 0.26449
 N236 N -0.06169 0.83037 0.30917
 C237 C -0.10530 0.83635 0.29190
 C238 C -0.11186 0.87574 0.23702
 C239 C -0.07011 0.89226 0.22079
 H240 H -0.14246 0.88930 0.20777
 H241 H -0.00559 0.86845 0.26247
 H242 H -0.04573 0.80547 0.35054
 N243 N 0.58472 0.55155 0.33745
 N244 N 0.60698 0.58691 0.38488
 C245 C 0.63440 0.60613 0.32245
 C246 C 0.62973 0.58373 0.23420
 C247 C 0.59794 0.55055 0.24653
 H248 H 0.64601 0.59146 0.16848
 H249 H 0.56059 0.53133 0.36748
 H250 H 0.60390 0.59441 0.45743
 N251 N 0.10976 1.06619 0.30469
 N252 N 0.13559 1.09856 0.35215
 C253 C 0.13918 1.13549 0.29548
 C254 C 0.11560 1.12727 0.21089
 C255 C 0.09840 1.08333 0.21937
 H256 H 0.11300 1.14915 0.14938
 H257 H 0.10269 1.03357 0.33045
 H258 H 0.14748 1.09450 0.42155
 N259 N 0.51955 0.35645 -0.26504
 N260 N 0.54168 0.31996 -0.31056
 C261 C 0.58479 0.32218 -0.28604
 C262 C 0.59048 0.35920 -0.22199
 C263 C 0.54911 0.37975 -0.21164
 H264 H 0.62082 0.37103 -0.18953
 H265 H 0.48604 0.36426 -0.27386
 H266 H 0.52688 0.29812 -0.36087
 N267 N 0.08761 0.95917 -0.38028
 N268 N 0.11825 0.93574 -0.42784
 C269 C 0.14510 0.91412 -0.36503
 C270 C 0.13131 0.92447 -0.27375
 C271 C 0.09497 0.95335 -0.28653
 H272 H 0.14654 0.91389 -0.20734
 H273 H 0.06316 0.97993 -0.41158
 H274 H 0.12077 0.93487 -0.50191
 N275 N 0.45960 0.66145 -0.16428
 N276 N 0.43952 0.69690 -0.20511
 C277 C 0.39781 0.68527 -0.22727
 C278 C 0.39086 0.64042 -0.19740
 C279 C 0.43099 0.62675 -0.15797
 H280 H 0.36172 0.61986 -0.20751
 H281 H 0.49268 0.66080 -0.14300
 H282 H 0.45501 0.72759 -0.22166
 N283 N -0.17835 1.01398 -0.15312
 N284 N -0.20806 1.03734 -0.20318
 C285 C -0.19042 1.07743 -0.22990
 C286 C -0.14758 1.07967 -0.19529
 C287 C -0.14126 1.03866 -0.14761
 H288 H -0.12383 1.10640 -0.20638
 H289 H -0.18321 0.98129 -0.12523
 H290 H -0.23977 1.02577 -0.21858
 N291 N 0.61407 0.52643 -0.32266
 N292 N 0.64986 0.54649 -0.36563
 C293 C 0.66704 0.57757 -0.30329
 C294 C 0.64315 0.57710 -0.21917
 C295 C 0.61064 0.54479 -0.23457
 H296 H 0.64856 0.59725 -0.15468
 H297 H 0.59456 0.50078 -0.35366
 H298 H 0.65853 0.54027 -0.43638
 N299 N 0.01443 1.15632 -0.25610
 N300 N 0.03474 1.19152 -0.30456
 C301 C 0.07844 1.18909 -0.28477
 C302 C 0.08636 1.15267 -0.22248
 C303 C 0.04580 1.13298 -0.20753
 H304 H 0.11773 1.13980 -0.19583
 H305 H -0.01898 1.14858 -0.26155
 H306 H 0.01768 1.21487 -0.34771
 N307 N 0.33716 0.42981 -0.04880
 N308 N 0.30490 0.40854 -0.09434
 C309 C 0.31499 0.40499 -0.18731
 C310 C 0.35545 0.42502 -0.20169
 C311 C 0.36821 0.44038 -0.11204
 H312 H 0.37286 0.42842 -0.26785
 H313 H 0.33754 0.43731 0.02419
 H314 H 0.27694 0.39610 -0.06154
 N315 N -0.04315 0.83375 -0.11840
 N316 N -0.06432 0.79997 -0.16229
 C317 C -0.08824 0.81762 -0.23513
 C318 C -0.08093 0.86491 -0.23848
 C319 C -0.05249 0.87360 -0.16277
 H320 H -0.09692 0.89017 -0.28371
 H321 H -0.02454 0.82983 -0.05593
 H322 H -0.06437 0.76611 -0.13809
 N323 N 0.49891 0.63336 0.29580
 N324 N 0.48009 0.66960 0.33800
 C325 C 0.44876 0.68700 0.27934
 C326 C 0.44926 0.66184 0.19450
 C327 C 0.48068 0.62751 0.20869
 H328 H 0.42547 0.66351 0.13658
 H329 H 0.52037 0.61050 0.33019
 H330 H 0.48530 0.67873 0.40943
 N331 N -0.04866 1.09888 0.29500
 N332 N -0.07693 1.12666 0.33934
 C333 C -0.11523 1.12788 0.28937
 C334 C -0.11059 1.09979 0.20865
 C335 C -0.06803 1.08197 0.21551
 H336 H -0.13522 1.09131 0.15518
 H337 H -0.01717 1.09048 0.32082
 H338 H -0.07032 1.14250 0.40512
 N339 N 0.52420 0.33126 0.18854
 N340 N 0.54767 0.29806 0.22967
 C341 C 0.59090 0.30702 0.22065
 C342 C 0.59488 0.34721 0.16967
 C343 C 0.55196 0.36165 0.15151
 H344 H 0.62463 0.36549 0.15418
 H345 H 0.48989 0.33407 0.19007
 H346 H 0.53403 0.27147 0.26820
 N347 N 0.11407 0.85565 0.06283
 N348 N 0.14450 0.82920 0.10322
 C349 C 0.17580 0.85638 0.14163
 C350 C 0.16537 0.90218 0.12282
 C351 C 0.12551 0.90011 0.07420
 H352 H 0.18086 0.93260 0.15282
 H353 H 0.08440 0.84355 0.03439
 H354 H 0.14219 0.79345 0.10956
   
