data_POSCAR
  _audit_creation_date              2014-09-24
  _audit_creation_method            'ToBaCCo'
  _symmetry_space_group_name_H-M    'P1'
  _symmetry_Int_Tables_number       1
  _symmetry_cell_setting            triclinic
  loop_
  _symmetry_equiv_pos_as_xyz
 x,y,z
_cell_length_a 31.7853
_cell_length_b 34.4697
_cell_length_c 16.0223
_cell_angle_alpha 89.070600
_cell_angle_beta 89.465000
_cell_angle_gamma 90.036200
loop_
  _atom_site_label
  _atom_site_type_symbol
  _atom_site_fract_x
  _atom_site_fract_y
  _atom_site_fract_z
C1 C 1.28633 0.21054 0.27041
 C2 C 1.25011 0.23019 0.24382
 C3 C 1.21543 0.20909 0.21605
 C4 C 1.21556 0.16875 0.21814
 C5 C 1.25198 0.14902 0.24480
 C6 C 1.28794 0.16991 0.26997
 C7 C 1.24706 0.27271 0.24855
 C8 C 1.28068 0.29678 0.22319
 C9 C 1.27675 0.33728 0.22745
 C10 C 1.23935 0.35322 0.25775
 C11 C 1.20520 0.32941 0.27956
 C12 C 1.20947 0.28937 0.27717
 H13 H 1.31301 0.22684 0.29283
 H14 H 1.18770 0.22414 0.19363
 H15 H 1.30945 0.28394 0.19983
 H16 H 1.18340 0.27124 0.29785
 H17 H 1.25209 0.11768 0.24616
 H18 H 1.23689 0.38437 0.26343
 C19 C 0.78850 -0.29105 0.27398
 C20 C 0.75069 -0.27485 0.24503
 C21 C 0.71707 -0.29947 0.22476
 C22 C 0.72114 -0.33977 0.23533
 C23 C 0.75884 -0.35517 0.26470
 C24 C 0.79308 -0.33105 0.28115
 C25 C 0.74741 -0.23227 0.23621
 C26 C 0.78272 -0.21097 0.20904
 C27 C 0.78334 -0.17069 0.21289
 C28 C 0.74663 -0.15104 0.23831
 C29 C 0.70990 -0.17197 0.26131
 C30 C 0.71087 -0.21260 0.26124
 H31 H 0.81442 -0.27255 0.29155
 H32 H 0.68820 -0.28750 0.19987
 H33 H 0.81069 -0.22587 0.18738
 H34 H 0.68356 -0.22877 0.28306
 H35 H 0.76199 -0.38622 0.27249
 H36 H 0.74684 -0.11975 0.24066
 C37 C 0.78201 0.20808 -0.21683
 C38 C 0.74771 0.22979 -0.24569
 C39 C 0.71183 0.21067 -0.27431
 C40 C 0.71062 0.17004 -0.27551
 C41 C 0.74644 0.14865 -0.25047
 C42 C 0.78240 0.16792 -0.22153
 C43 C 0.75142 0.27237 -0.24852
 C44 C 0.79031 0.28875 -0.27165
 C45 C 0.79736 0.32815 -0.26238
 C46 C 0.76495 0.35187 -0.23319
 C47 C 0.72488 0.33676 -0.21826
 C48 C 0.71809 0.29667 -0.22423
 H49 H 0.80935 0.22259 -0.19204
 H50 H 0.68523 0.22726 -0.29700
 H51 H 0.81544 0.27056 -0.29496
 H52 H 0.68772 0.28445 -0.20755
 H53 H 0.74649 0.11737 -0.25403
 H54 H 0.77053 0.38262 -0.22519
 C55 C 1.28180 -0.29765 -0.21580
 C56 C 1.24824 -0.27296 -0.23671
 C57 C 1.21077 -0.28873 -0.26674
 C58 C 1.20688 -0.32846 -0.27630
 C59 C 1.24109 -0.35277 -0.25982
 C60 C 1.27807 -0.33783 -0.22672
 C61 C 1.25176 -0.23064 -0.22906
 C62 C 1.28813 -0.21114 -0.25649
 C63 C 1.28949 -0.17062 -0.25841
 C64 C 1.25322 -0.14949 -0.23515
 C65 C 1.21656 -0.16910 -0.20759
 C66 C 1.21686 -0.20940 -0.20177
 H67 H 1.31043 -0.28551 -0.19111
 H68 H 1.18467 -0.27013 -0.28391
 H69 H 1.31501 -0.22739 -0.27893
 H70 H 1.18890 -0.22436 -0.17902
 H71 H 1.23862 -0.38362 -0.27056
 H72 H 1.25329 -0.11819 -0.23953
 C73 C 0.20502 0.28343 0.72424
 C74 C 0.22801 0.24980 0.74523
 C75 C 0.20599 0.21531 0.76445
 C76 C 0.16176 0.21448 0.76216
 C77 C 0.13972 0.24820 0.74020
 C78 C 0.16106 0.28288 0.72388
 C79 C 0.27469 0.25167 0.75095
 C80 C 0.29366 0.28535 0.78106
 C81 C 0.33735 0.28941 0.78322
 C82 C 0.36292 0.25770 0.75867
 C83 C 0.34443 0.22286 0.73063
 C84 C 0.30033 0.22059 0.72591
 H85 H 0.22131 0.31009 0.70797
 H86 H 0.22325 0.18959 0.78295
 H87 H 0.27422 0.30901 0.80289
 H88 H 0.28606 0.19460 0.70170
 H89 H 0.10561 0.24789 0.73874
 H90 H 0.39681 0.26005 0.76069
 C91 C 0.69903 0.78099 0.73071
 C92 C 0.72502 0.74968 0.75391
 C93 C 0.70646 0.71466 0.78055
 C94 C 0.66302 0.70906 0.77789
 C95 C 0.63706 0.74047 0.75208
 C96 C 0.65489 0.77698 0.72943
 C97 C 0.77168 0.75218 0.74795
 C98 C 0.79351 0.78620 0.76890
 C99 C 0.83768 0.78673 0.76704
 C100 C 0.85991 0.75325 0.74692
 C101 C 0.83882 0.71964 0.72475
 C102 C 0.79491 0.71940 0.72319
 H103 H 0.71323 0.80824 0.71093
 H104 H 0.72616 0.69101 0.80255
 H105 H 0.77647 0.81165 0.78886
 H106 H 0.77897 0.69341 0.70328
 H107 H 0.60330 0.73674 0.75049
 H108 H 0.89392 0.75365 0.74760
 C109 C 0.71111 0.28923 0.22376
 C110 C 0.72957 0.25422 0.24988
 C111 C 0.70351 0.22246 0.27125
 C112 C 0.65947 0.22533 0.26643
 C113 C 0.64151 0.26132 0.24231
 C114 C 0.66750 0.29358 0.22172
 C115 C 0.77615 0.25134 0.25452
 C116 C 0.80015 0.28322 0.28091
 C117 C 0.84415 0.28151 0.28095
 C118 C 0.86431 0.24729 0.25850
 C119 C 0.84113 0.21550 0.23197
 C120 C 0.79711 0.21747 0.22965
 H121 H 0.73078 0.31356 0.20487
 H122 H 0.71742 0.19541 0.29250
 H123 H 0.78478 0.30950 0.30134
 H124 H 0.77932 0.19300 0.20738
 H125 H 0.60767 0.26418 0.23983
 H126 H 0.89824 0.24529 0.26062
 C127 C 0.20366 0.78585 0.23359
 C128 C 0.22630 0.75178 0.25254
 C129 C 0.20401 0.71813 0.27750
 C130 C 0.16002 0.71774 0.27923
 C131 C 0.13809 0.75187 0.26121
 C132 C 0.15947 0.78607 0.23912
 C133 C 0.27284 0.75003 0.24217
 C134 C 0.29906 0.78111 0.26423
 C135 C 0.34314 0.77827 0.25690
 C136 C 0.36086 0.74304 0.22863
 C137 C 0.33463 0.71161 0.20652
 C138 C 0.29113 0.71607 0.21136
 H139 H 0.22021 0.81166 0.21204
 H140 H 0.22091 0.69203 0.29521
 H141 H 0.28529 0.80738 0.28867
 H142 H 0.27136 0.69233 0.19179
 H143 H 0.10404 0.75163 0.26324
 H144 H 0.39467 0.74003 0.22472
 O145 O 0.92547 -0.05423 -0.14954
 O146 O 0.96475 -0.09769 -0.07261
 C147 C 0.93595 -0.08907 -0.12659
 O148 O 1.07617 0.05444 -0.15126
 O149 O 1.03646 0.09762 -0.07612
 C150 C 1.06587 0.08923 -0.12946
 O151 O 1.07570 -0.05214 -0.15252
 O152 O 1.04054 -0.09684 -0.06933
 C153 C 1.06943 -0.08700 -0.12432
 O154 O 0.91997 0.05161 -0.14365
 O155 O 0.95744 0.09631 -0.06926
 C156 C 0.92697 0.08642 -0.11927
 Zr157 Zr 0.94739 -0.00044 -0.10610
 O158 O 0.95221 0.00134 -0.23789
 O159 O 0.88076 -0.00188 -0.09946
 Zr160 Zr 1.05142 0.00040 -0.11032
 O161 O 1.04218 0.00102 -0.24074
 O162 O 1.11768 -0.00102 -0.12381
 O163 O 0.99960 -0.03564 -0.12335
 O164 O 0.99910 0.03500 -0.12371
 O165 O 0.92377 0.05395 0.14312
 O166 O 0.96452 0.09728 0.06735
 C167 C 0.93467 0.08876 0.12019
 O168 O 1.07542 -0.05535 0.14484
 O169 O 1.03560 -0.09821 0.07069
 C170 C 1.06467 -0.09006 0.12374
 O171 O 1.08193 0.05046 0.13224
 O172 O 1.04305 0.09601 0.06037
 C173 C 1.07414 0.08567 0.10900
 O174 O 0.92423 -0.05294 0.15096
 O175 O 0.95924 -0.09723 0.06974
 C176 C 0.93045 -0.08770 0.12456
 Zr177 Zr 0.94794 -0.00009 0.10490
 O178 O 0.94903 -0.00296 0.23713
 O179 O 0.88146 0.00057 0.09912
 Zr180 Zr 1.05219 -0.00117 0.10219
 O181 O 1.04499 0.00255 0.23343
 O182 O 1.11813 -0.00451 0.11661
 Zr183 Zr 0.99985 -0.05899 -0.00092
 Zr184 Zr 1.00031 0.05843 -0.00362
 O185 O 1.00072 0.03428 0.11770
 O186 O 0.99980 -0.03626 0.12046
 O187 O 0.93964 0.03407 -0.00119
 O188 O 1.06002 -0.03332 -0.00352
 O189 O 0.93975 -0.03374 0.00026
 O190 O 1.06076 0.03351 -0.00509
 H191 H 0.99818 0.05312 -0.17236
 H192 H 1.08615 -0.04893 -0.00250
 H193 H 1.00202 0.05262 0.16457
 H194 H 0.91390 -0.04978 -0.00049
 H195 H 1.12943 0.01398 -0.07735
 H196 H 1.13065 -0.00114 0.06027
 H197 H 1.03444 -0.02284 0.25451
 H198 H 0.96049 0.02172 0.25788
 H199 H 0.87097 0.00012 0.15761
 H200 H 0.87018 -0.00369 -0.15728
 H201 H 0.92311 0.00125 -0.25942
 H202 H 1.07064 0.00258 -0.26633
 O203 O 1.07294 0.44741 0.66504
 O204 O 1.03476 0.40440 0.58809
 C205 C 1.06277 0.41261 0.64305
 O206 O 0.92030 0.55657 0.64322
 O207 O 0.96254 0.59858 0.56784
 C208 C 0.93154 0.59103 0.61837
 O209 O 0.92654 0.44952 0.66467
 O210 O 0.96247 0.40460 0.58726
 C211 C 0.93452 0.41445 0.64257
 O212 O 1.07508 0.55473 0.65086
 O213 O 1.03857 0.59793 0.56803
 C214 C 1.06747 0.58916 0.62175
 Zr215 Zr 1.05126 0.50112 0.61553
 O216 O 1.04443 0.50286 0.74687
 O217 O 1.11788 0.50028 0.61313
 Zr218 Zr 0.94666 0.50213 0.61291
 O219 O 0.95197 0.50611 0.74390
 O220 O 0.88027 0.49819 0.62083
 O221 O 0.99855 0.46654 0.63258
 O222 O 0.99895 0.53637 0.62634
 O223 O 1.07995 0.55464 0.36608
 O224 O 1.03657 0.59764 0.43318
 C225 C 1.06809 0.58948 0.38496
 O226 O 0.92632 0.44414 0.36313
 O227 O 0.96488 0.40244 0.44509
 C228 C 0.93667 0.40971 0.38939
 O229 O 0.92341 0.55163 0.36066
 O230 O 0.96072 0.59655 0.43428
 C231 C 0.93117 0.58665 0.38363
 O232 O 1.07373 0.44645 0.36104
 O233 O 1.03806 0.40298 0.44618
 C234 C 1.06595 0.41182 0.38934
 Zr235 Zr 1.05408 0.50044 0.40463
 O236 O 1.05754 0.50424 0.27276
 O237 O 1.12031 0.49844 0.41508
 Zr238 Zr 0.94915 0.49894 0.40061
 O239 O 0.95731 0.50134 0.26923
 O240 O 0.88336 0.49625 0.38408
 Zr241 Zr 0.99998 0.44249 0.51261
 Zr242 Zr 0.99981 0.55862 0.50372
 O243 O 1.00141 0.53396 0.38469
 O244 O 1.00202 0.46436 0.38888
 O245 O 1.06077 0.53504 0.50806
 O246 O 0.93956 0.46737 0.50974
 O247 O 1.06046 0.46715 0.51235
 O248 O 0.93900 0.53430 0.50358
 H249 H 0.99841 0.55491 0.67300
 H250 H 0.91410 0.45077 0.51121
 H251 H 1.00185 0.55169 0.33535
 H252 H 1.08574 0.45037 0.51432
 H253 H 0.86879 0.51473 0.57546
 H254 H 0.87047 0.50046 0.43950
 H255 H 0.96443 0.47491 0.25042
 H256 H 1.03800 0.48461 0.25086
 H257 H 1.13159 0.49744 0.35727
 H258 H 1.12737 0.50063 0.67184
 H259 H 1.07316 0.50396 0.77005
 H260 H 0.92279 0.50726 0.76607
 O261 O 0.57422 -0.05754 0.64346
 O262 O 0.53396 -0.09932 0.56786
 C263 C 0.56307 -0.09235 0.62156
 O264 O 0.42270 0.05556 0.63660
 O265 O 0.46490 0.09805 0.56264
 C266 C 0.43437 0.09062 0.61446
 O267 O 0.42355 -0.05262 0.64563
 O268 O 0.45897 -0.09730 0.56590
 C269 C 0.43045 -0.08758 0.62107
 O270 O 0.57931 0.05027 0.63481
 O271 O 0.54204 0.09539 0.55796
 C272 C 0.57209 0.08534 0.60912
 Zr273 Zr 0.55243 -0.00209 0.59865
 O274 O 0.54737 -0.00164 0.73034
 O275 O 0.61904 -0.00366 0.59296
 Zr276 Zr 0.44788 0.00021 0.60134
 O277 O 0.45739 0.00034 0.73164
 O278 O 0.38188 0.00103 0.61895
 O279 O 0.49949 -0.03658 0.61641
 O280 O 0.50073 0.03384 0.61413
 O281 O 0.57774 0.05666 0.35015
 O282 O 0.53591 0.09847 0.42376
 C283 C 0.56650 0.09149 0.37234
 O284 O 0.42539 -0.05596 0.34604
 O285 O 0.46487 -0.09863 0.42357
 C286 C 0.43612 -0.09104 0.36905
 O287 O 0.41971 0.05152 0.35404
 O288 O 0.45765 0.09611 0.42762
 C289 C 0.42707 0.08641 0.37817
 O290 O 0.57581 -0.05211 0.34369
 O291 O 0.53963 -0.09711 0.42468
 C292 C 0.56836 -0.08728 0.36927
 Zr293 Zr 0.55276 0.00083 0.38756
 O294 O 0.55177 -0.00042 0.25536
 O295 O 0.61921 0.00084 0.39319
 Zr296 Zr 0.44791 -0.00097 0.38843
 O297 O 0.45463 0.00358 0.25698
 O298 O 0.38182 -0.00478 0.37692
 Zr299 Zr 0.49961 -0.05931 0.49484
 Zr300 Zr 0.49988 0.05804 0.49294
 O301 O 0.49982 0.03482 0.37247
 O302 O 0.50066 -0.03546 0.37269
 O303 O 0.56060 0.03369 0.49295
 O304 O 0.43951 -0.03353 0.49580
 O305 O 0.56002 -0.03434 0.49316
 O306 O 0.43913 0.03345 0.49409
 H307 H 0.50132 0.05178 0.66184
 H308 H 0.41378 -0.04970 0.49458
 H309 H 0.49914 0.05364 0.32513
 H310 H 0.58559 -0.05074 0.49460
 H311 H 0.36929 -0.00705 0.56585
 H312 H 0.36954 0.00653 0.42796
 H313 H 0.46715 -0.02096 0.23735
 H314 H 0.54346 0.02553 0.23412
 H315 H 0.62955 0.00144 0.33461
 H316 H 0.62929 -0.00580 0.65107
 H317 H 0.57644 -0.00193 0.75199
 H318 H 0.42910 0.00318 0.75722
 O319 O 0.55739 0.56922 0.14366
 O320 O 0.60547 0.53418 0.06755
 C321 C 0.59543 0.56061 0.12091
 O322 O 0.44051 0.42874 0.14239
 O323 O 0.39299 0.46546 0.06801
 C324 C 0.40265 0.43766 0.11997
 O325 O 0.55494 0.43096 0.15196
 O326 O 0.60412 0.46199 0.06814
 C327 C 0.59279 0.43561 0.12403
 O328 O 0.44338 0.57385 0.13647
 O329 O 0.39482 0.54065 0.05934
 C330 C 0.40585 0.56872 0.10965
 Zr331 Zr 0.49927 0.54840 0.09983
 O332 O 0.49707 0.54374 0.23162
 O333 O 0.50028 0.60989 0.09255
 Zr334 Zr 0.49877 0.45313 0.10583
 O335 O 0.49662 0.46217 0.23591
 O336 O 0.50056 0.39214 0.12215
 O337 O 0.53791 0.50082 0.11921
 O338 O 0.46055 0.50081 0.11716
 O339 O 0.44081 0.57028 -0.14909
 O340 O 0.39322 0.53224 -0.07610
 C341 C 0.40292 0.56048 -0.12730
 O342 O 0.56079 0.43083 -0.14547
 O343 O 0.60719 0.46774 -0.07125
 C344 C 0.59833 0.44036 -0.12277
 O345 O 0.44732 0.42295 -0.13722
 O346 O 0.39643 0.45732 -0.06719
 C347 C 0.40895 0.42851 -0.11442
 O348 O 0.55563 0.56981 -0.15824
 O349 O 0.60423 0.54019 -0.07272
 C350 C 0.59310 0.56623 -0.12918
 Zr351 Zr 0.49925 0.54750 -0.11134
 O352 O 0.50226 0.54480 -0.24339
 O353 O 0.49832 0.60889 -0.10920
 Zr354 Zr 0.50169 0.45227 -0.10685
 O355 O 0.49818 0.46013 -0.23804
 O356 O 0.50597 0.39164 -0.12318
 Zr357 Zr 0.56376 0.50064 -0.00251
 Zr358 Zr 0.43553 0.49930 -0.00363
 O359 O 0.46216 0.49891 -0.12421
 O360 O 0.53960 0.50046 -0.12470
 O361 O 0.46211 0.55516 -0.00625
 O362 O 0.53588 0.44518 0.00036
 O363 O 0.53533 0.55564 -0.00584
 O364 O 0.46377 0.44409 -0.00047
 H365 H 0.44055 0.50150 0.16498
 H366 H 0.55259 0.42097 0.00066
 H367 H 0.44233 0.49755 -0.17144
 H368 H 0.55198 0.57991 -0.00510
 H369 H 0.48870 0.38092 0.07107
 H370 H 0.50430 0.37954 -0.06689
 H371 H 0.52677 0.46662 -0.25898
 H372 H 0.47398 0.53843 -0.26449
 H373 H 0.49859 0.61816 -0.16815
 H374 H 0.50275 0.61969 0.15014
 H375 H 0.49771 0.57052 0.25302
 H376 H 0.49413 0.43606 0.26224
 C377 C 1.15251 0.10578 0.10499
 C378 C 1.16061 0.14994 0.10035
 C379 C 1.17639 0.14800 0.19074
 C380 C 1.16842 0.10412 0.19558
 C381 C 1.13142 0.15617 0.22325
 C382 C 1.11505 0.15750 0.13205
 C383 C 1.10731 0.11347 0.13714
 C384 C 1.12325 0.11190 0.22783
 H385 H 1.16120 0.08516 0.05516
 H386 H 1.17679 0.16552 0.04802
 H387 H 1.18975 0.08153 0.22127
 H388 H 1.12313 0.17698 0.27293
 H389 H 1.09302 0.17942 0.10596
 H390 H 1.10749 0.09647 0.28085
 C391 C 1.14436 0.60493 0.63159
 C392 C 1.15640 0.64654 0.60516
 C393 C 1.16631 0.65470 0.69662
 C394 C 1.15405 0.61322 0.72324
 C395 C 1.12093 0.66880 0.71203
 C396 C 1.11029 0.65981 0.61961
 C397 C 1.09864 0.61821 0.64692
 C398 C 1.10850 0.62679 0.73826
 H399 H 1.15427 0.57854 0.59771
 H400 H 1.17707 0.65478 0.55155
 H401 H 1.17134 0.59348 0.76624
 H402 H 1.11196 0.69547 0.74577
 H403 H 1.09134 0.67861 0.57755
 H404 H 1.08827 0.61869 0.79265
 C405 C 0.65060 0.10301 0.61713
 C406 C 0.66069 0.14625 0.60071
 C407 C 0.67163 0.15010 0.69357
 C408 C 0.66159 0.10705 0.71002
 C409 C 0.62566 0.16130 0.71375
 C410 C 0.61415 0.15682 0.62013
 C411 C 0.60445 0.11368 0.63731
 C412 C 0.61548 0.11785 0.73005
 H413 H 0.66096 0.07898 0.57644
 H414 H 0.68030 0.15756 0.54807
 H415 H 0.68040 0.08588 0.74684
 H416 H 0.61571 0.18548 0.75436
 H417 H 0.59435 0.17714 0.58315
 H418 H 0.59649 0.10632 0.78341
 C419 C 0.63628 0.59432 0.24633
 C420 C 0.68420 0.58954 0.23183
 C421 C 0.68718 0.63311 0.20861
 C422 C 0.63969 0.63810 0.22356
 C423 C 0.67996 0.62412 0.11616
 C424 C 0.67668 0.58041 0.13890
 C425 C 0.62931 0.58541 0.15398
 C426 C 0.63213 0.62884 0.13073
 H427 H 0.61799 0.58159 0.29941
 H428 H 0.70492 0.57270 0.27435
 H429 H 0.62476 0.66209 0.25847
 H430 H 0.69836 0.63667 0.06307
 H431 H 0.69160 0.55645 0.10389
 H432 H 0.61031 0.64459 0.08840
 C433 C 0.85205 -0.10445 0.11533
 C434 C 0.84257 -0.14780 0.10214
 C435 C 0.82400 -0.15001 0.19113
 C436 C 0.83338 -0.10688 0.20437
 C437 C 0.86763 -0.16129 0.22571
 C438 C 0.88672 -0.15847 0.13597
 C439 C 0.89591 -0.11526 0.14981
 C440 C 0.87722 -0.11771 0.23877
 H441 H 0.84548 -0.08089 0.06918
 H442 H 0.82750 -0.16009 0.04624
 H443 H 0.81197 -0.08501 0.23183
 H444 H 0.87363 -0.18490 0.27202
 H445 H 0.90882 -0.17967 0.10811
 H446 H 0.89186 -0.10564 0.29537
 C447 C 0.87436 0.36609 0.61135
 C448 C 0.87432 0.32878 0.66648
 C449 C 0.83627 0.34508 0.71495
 C450 C 0.83615 0.38178 0.65963
 C451 C 0.86554 0.36418 0.77788
 C452 C 0.90439 0.34877 0.72882
 C453 C 0.90353 0.38564 0.67378
 C454 C 0.86517 0.40112 0.72269
 H455 H 0.87888 0.36790 0.54291
 H456 H 0.87789 0.29891 0.64261
 H457 H 0.80813 0.39541 0.63047
 H458 H 0.86129 0.36326 0.84672
 H459 H 0.93297 0.33564 0.75676
 H460 H 0.86066 0.43081 0.74715
 C461 C 0.35233 -0.10605 0.62615
 C462 C 0.34299 -0.14972 0.61789
 C463 C 0.32906 -0.15082 0.71024
 C464 C 0.33836 -0.10736 0.71850
 C465 C 0.37438 -0.16105 0.73661
 C466 C 0.38887 -0.15928 0.64347
 C467 C 0.39786 -0.11571 0.65245
 C468 C 0.38383 -0.11718 0.74471
 H469 H 0.34315 -0.08343 0.57967
 H470 H 0.32551 -0.16286 0.56578
 H471 H 0.31829 -0.08527 0.74890
 H472 H 0.38310 -0.18386 0.78299
 H473 H 0.40988 -0.18052 0.61265
 H474 H 0.40104 -0.10400 0.79719
 C475 C 0.33966 0.39019 0.09313
 C476 C 0.34720 0.35239 0.14403
 C477 C 0.30954 0.36265 0.20038
 C478 C 0.30165 0.40022 0.14933
 C479 C 0.33824 0.38469 0.26014
 C480 C 0.37634 0.37461 0.20350
 C481 C 0.36843 0.41209 0.15247
 C482 C 0.33090 0.42255 0.20857
 H483 H 0.34024 0.39424 0.02472
 H484 H 0.35434 0.32386 0.11609
 H485 H 0.27070 0.41046 0.12616
 H486 H 0.33741 0.38197 0.32927
 H487 H 0.40739 0.36435 0.22604
 H488 H 0.32461 0.45164 0.23461
 C489 C 0.84870 0.10527 -0.10994
 C490 C 0.83980 0.14923 -0.10689
 C491 C 0.82209 0.14726 -0.19576
 C492 C 0.83080 0.10358 -0.19899
 C493 C 0.86615 0.15638 -0.23249
 C494 C 0.88446 0.15775 -0.14291
 C495 C 0.89302 0.11392 -0.14640
 C496 C 0.87508 0.11229 -0.23549
 H497 H 0.84154 0.08437 -0.05825
 H498 H 0.82443 0.16427 -0.05397
 H499 H 0.80922 0.08079 -0.22149
 H500 H 0.87290 0.17749 -0.28394
 H501 H 0.90660 0.18004 -0.12018
 H502 H 0.89000 0.09735 -0.28902
 C503 C 0.89085 0.62694 0.26502
 C504 C 0.84533 0.61215 0.27595
 C505 C 0.83180 0.65241 0.30599
 C506 C 0.87710 0.66780 0.29447
 C507 C 0.84061 0.64108 0.39705
 C508 C 0.85388 0.60072 0.36726
 C509 C 0.89952 0.61530 0.35598
 C510 C 0.88657 0.65565 0.38647
 H511 H 0.91202 0.62112 0.21118
 H512 H 0.82913 0.59367 0.23008
 H513 H 0.88615 0.69575 0.26394
 H514 H 0.81926 0.64672 0.45069
 H515 H 0.84386 0.57305 0.39790
 H516 H 0.90451 0.67329 0.43122
 C517 C 0.34841 0.10415 0.37660
 C518 C 0.33860 0.14750 0.38957
 C519 C 0.32537 0.15063 0.29749
 C520 C 0.33511 0.10748 0.28449
 C521 C 0.37080 0.16182 0.27180
 C522 C 0.38463 0.15799 0.36461
 C523 C 0.39402 0.11475 0.35094
 C524 C 0.38068 0.11828 0.25901
 H525 H 0.33910 0.08042 0.42072
 H526 H 0.32046 0.15917 0.44307
 H527 H 0.31583 0.08569 0.25187
 H528 H 0.37976 0.18568 0.22778
 H529 H 0.40523 0.17861 0.39763
 H530 H 0.39839 0.10646 0.20507
 C531 C 0.33834 0.60561 -0.09775
 C532 C 0.34658 0.64491 -0.14269
 C533 C 0.31042 0.63611 -0.20251
 C534 C 0.30181 0.59699 -0.15742
 C535 C 0.34071 0.61630 -0.26381
 C536 C 0.37731 0.62495 -0.20370
 C537 C 0.36876 0.58593 -0.15856
 C538 C 0.33272 0.57685 -0.21817
 H539 H 0.33723 0.59943 -0.02995
 H540 H 0.35287 0.67254 -0.11047
 H541 H 0.27047 0.58576 -0.13755
 H542 H 0.34146 0.62122 -0.33245
 H543 H 0.40871 0.63625 -0.22300
 H544 H 0.32745 0.54861 -0.24871
 C545 C 1.12288 -0.11626 -0.23633
 C546 C 1.16662 -0.10536 -0.20220
 C547 C 1.17608 -0.14849 -0.18668
 C548 C 1.13255 -0.15983 -0.22094
 C549 C 1.15740 -0.14674 -0.09788
 C550 C 1.14780 -0.10338 -0.11335
 C551 C 1.10406 -0.11427 -0.14761
 C552 C 1.11334 -0.15748 -0.13144
 H553 H 1.10826 -0.10403 -0.29363
 H554 H 1.18807 -0.08333 -0.23061
 H555 H 1.12670 -0.18328 -0.26609
 H556 H 1.17257 -0.15902 -0.04127
 H557 H 1.15416 -0.08006 -0.06814
 H558 H 1.09124 -0.17886 -0.10263
 C559 C 1.10812 0.37711 0.26849
 C560 C 1.15368 0.38930 0.28698
 C561 C 1.16464 0.34685 0.30722
 C562 C 1.11924 0.33414 0.28836
 C563 C 1.15321 0.35200 0.39954
 C564 C 1.14247 0.39459 0.37944
 C565 C 1.09673 0.38275 0.36075
 C566 C 1.10711 0.34015 0.38174
 H567 H 1.08906 0.38737 0.21480
 H568 H 1.17164 0.41050 0.24783
 H569 H 1.11039 0.30891 0.25006
 H570 H 1.17254 0.34154 0.45267
 H571 H 1.15237 0.41952 0.41774
 H572 H 1.08732 0.32027 0.42060
 C573 C 0.61896 -0.11387 0.25067
 C574 C 0.66345 -0.10757 0.28593
 C575 C 0.67008 -0.15171 0.28926
 C576 C 0.62568 -0.15838 0.25393
 C577 C 0.65207 -0.15397 0.37885
 C578 C 0.64540 -0.10962 0.37547
 C579 C 0.60085 -0.11572 0.34017
 C580 C 0.60710 -0.15998 0.34425
 H581 H 0.60504 -0.09757 0.19739
 H582 H 0.68569 -0.08494 0.26278
 H583 H 0.61790 -0.17860 0.20310
 H584 H 0.66626 -0.17048 0.43146
 H585 H 0.65357 -0.08965 0.42659
 H586 H 0.58372 -0.18148 0.36805
 C587 C 0.63834 0.39920 -0.24013
 C588 C 0.68636 0.40546 -0.23256
 C589 C 0.69047 0.36415 -0.19502
 C590 C 0.64289 0.35762 -0.20316
 C591 C 0.68476 0.37986 -0.10648
 C592 C 0.68027 0.42139 -0.14339
 C593 C 0.63278 0.41481 -0.15153
 C594 C 0.63681 0.37356 -0.11428
 H595 H 0.61905 0.40772 -0.29482
 H596 H 0.70693 0.41838 -0.28203
 H597 H 0.62754 0.33125 -0.22757
 H598 H 0.70426 0.37154 -0.05198
 H599 H 0.69526 0.44793 -0.11893
 H600 H 0.61562 0.36075 -0.06586
 C601 C 1.12827 0.11908 -0.22671
 C602 C 1.11199 0.15622 -0.27210
 C603 C 1.13846 0.18094 -0.21304
 C604 C 1.15503 0.14429 -0.16816
 C605 C 1.10120 0.18344 -0.15109
 C606 C 1.07449 0.15832 -0.20961
 C607 C 1.09116 0.12186 -0.16483
 C608 C 1.11753 0.14661 -0.10642
 H609 H 1.13891 0.09222 -0.25779
 H610 H 1.11013 0.16048 -0.34079
 H611 H 1.18789 0.13796 -0.14959
 H612 H 1.09036 0.21002 -0.11910
 H613 H 1.04115 0.16363 -0.22635
 H614 H 1.11798 0.14188 -0.03836
 C615 C 1.07941 0.66514 0.36252
 C616 C 1.12403 0.67523 0.39286
 C617 C 1.13742 0.68354 0.30207
 C618 C 1.09298 0.67361 0.27115
 C619 C 1.15148 0.64113 0.29141
 C620 C 1.13769 0.63244 0.38282
 C621 C 1.09329 0.62275 0.35218
 C622 C 1.10664 0.63080 0.26125
 H623 H 1.04955 0.67489 0.39191
 H624 H 1.13156 0.69409 0.44617
 H625 H 1.07442 0.69029 0.22448
 H626 H 1.18128 0.63135 0.26186
 H627 H 1.15567 0.61477 0.42869
 H628 H 1.09913 0.61209 0.20765
 C629 C 0.58161 0.16819 0.36920
 C630 C 0.62928 0.17484 0.38118
 C631 C 0.63284 0.18993 0.29035
 C632 C 0.58531 0.18351 0.27800
 C633 C 0.64203 0.14835 0.26043
 C634 C 0.63826 0.13307 0.35176
 C635 C 0.59079 0.12658 0.33940
 C636 C 0.59420 0.14153 0.24847
 H637 H 0.55673 0.17654 0.41457
 H638 H 0.64344 0.18918 0.43563
 H639 H 0.56315 0.20414 0.24782
 H640 H 0.66705 0.14022 0.21522
 H641 H 0.66012 0.11225 0.38225
 H642 H 0.57980 0.12760 0.19366
 C643 C 0.66553 0.61509 -0.14293
 C644 C 0.66447 0.63270 -0.23315
 C645 C 0.64703 0.67127 -0.19886
 C646 C 0.64880 0.65427 -0.10936
 C647 C 0.60176 0.65682 -0.20892
 C648 C 0.61874 0.61808 -0.24310
 C649 C 0.62006 0.60070 -0.15370
 C650 C 0.60329 0.63968 -0.11945
 H651 H 0.69190 0.59800 -0.11622
 H652 H 0.68973 0.63003 -0.28105
 H653 H 0.66053 0.66979 -0.05406
 H654 H 0.57473 0.67311 -0.23524
 H655 H 0.60687 0.60301 -0.29890
 H656 H 0.57824 0.64302 -0.07135
 C657 C 0.92346 -0.16403 -0.15805
 C658 C 0.88007 -0.17475 -0.11996
 C659 C 0.86232 -0.17844 -0.20836
 C660 C 0.90555 -0.16788 -0.24698
 C661 C 0.84915 -0.13556 -0.20984
 C662 C 0.86722 -0.13150 -0.12105
 C663 C 0.91041 -0.12123 -0.15939
 C664 C 0.89272 -0.12459 -0.24781
 H665 H 0.95428 -0.17543 -0.13685
 H666 H 0.87441 -0.19555 -0.06742
 H667 H 0.92120 -0.18277 -0.29976
 H668 H 0.81837 -0.12410 -0.23111
 H669 H 0.85181 -0.11561 -0.06954
 H670 H 0.89850 -0.10364 -0.30003
 C671 C 0.86470 0.37185 0.36553
 C672 C 0.86317 0.35781 0.27432
 C673 C 0.86955 0.31589 0.30624
 C674 C 0.87077 0.32955 0.39681
 C675 C 0.91769 0.32031 0.29783
 C676 C 0.91156 0.36266 0.26649
 C677 C 0.91274 0.37612 0.35723
 C678 C 0.91906 0.33421 0.38895
 H679 H 0.84324 0.39347 0.39385
 H680 H 0.83986 0.36713 0.22691
 H681 H 0.85368 0.31542 0.44987
 H682 H 0.94028 0.29966 0.26967
 H683 H 0.92862 0.37669 0.21329
 H684 H 0.94219 0.32464 0.43651
 C685 C 0.36447 -0.13104 0.34310
 C686 C 0.36299 -0.14516 0.25179
 C687 C 0.37006 -0.18730 0.28291
 C688 C 0.37136 -0.17334 0.37382
 C689 C 0.41811 -0.18185 0.27437
 C690 C 0.41130 -0.13932 0.24362
 C691 C 0.41244 -0.12553 0.33456
 C692 C 0.41953 -0.16767 0.36563
 H693 H 0.34228 -0.11007 0.37149
 H694 H 0.33954 -0.13586 0.20462
 H695 H 0.35505 -0.18752 0.42774
 H696 H 0.44063 -0.20259 0.24626
 H697 H 0.42771 -0.12512 0.18984
 H698 H 0.44282 -0.17714 0.41298
 C699 C 0.39305 0.35509 -0.10088
 C700 C 0.34632 0.34281 -0.10288
 C701 C 0.35395 0.32606 -0.19038
 C702 C 0.40036 0.33817 -0.18849
 C703 C 0.34176 0.36558 -0.23031
 C704 C 0.33481 0.38296 -0.14218
 C705 C 0.38150 0.39497 -0.14043
 C706 C 0.38853 0.37782 -0.22821
 H707 H 0.41392 0.35058 -0.04635
 H708 H 0.32924 0.32790 -0.05079
 H709 H 0.42810 0.32063 -0.20680
 H710 H 0.32074 0.36974 -0.28467
 H711 H 0.30767 0.40124 -0.12362
 H712 H 0.40550 0.39235 -0.28095
 C713 C 1.13464 -0.13157 0.12848
 C714 C 1.14818 -0.13793 0.22029
 C715 C 1.13575 -0.18090 0.21393
 C716 C 1.12255 -0.17491 0.12259
 C717 C 1.09068 -0.17181 0.24438
 C718 C 1.10278 -0.12843 0.25002
 C719 C 1.08964 -0.12273 0.15868
 C720 C 1.07734 -0.16562 0.15251
 H721 H 1.15234 -0.11439 0.08068
 H722 H 1.17745 -0.12671 0.24845
 H723 H 1.13086 -0.19439 0.07046
 H724 H 1.07234 -0.18791 0.29304
 H725 H 1.09417 -0.10896 0.30196
 H726 H 1.04799 -0.17677 0.12451
 C727 C 1.07204 0.33777 0.68466
 C728 C 1.10870 0.32351 0.62915
 C729 C 1.13616 0.31896 0.70703
 C730 C 1.09977 0.33298 0.76314
 C731 C 1.15255 0.36081 0.69650
 C732 C 1.12480 0.36555 0.61842
 C733 C 1.08834 0.37953 0.67404
 C734 C 1.11577 0.37535 0.75197
 H735 H 1.03863 0.32868 0.68009
 H736 H 1.10628 0.30212 0.57837
 H737 H 1.08980 0.31908 0.82310
 H738 H 1.18568 0.37067 0.70082
 H739 H 1.13472 0.38011 0.55934
 H740 H 1.11810 0.39693 0.80238
 C741 C 0.57491 -0.15367 0.73019
 C742 C 0.58307 -0.19007 0.67649
 C743 C 0.62951 -0.19018 0.70365
 C744 C 0.62170 -0.15417 0.75768
 C745 C 0.64141 -0.16370 0.62833
 C746 C 0.59490 -0.16331 0.60118
 C747 C 0.58702 -0.12727 0.65523
 C748 C 0.63342 -0.12744 0.68209
 H749 H 0.54738 -0.14933 0.77211
 H750 H 0.56191 -0.21562 0.67298
 H751 H 0.63274 -0.15043 0.82259
 H752 H 0.66871 -0.16771 0.58564
 H753 H 0.58399 -0.16705 0.53618
 H754 H 0.65416 -0.10156 0.68452
 C755 C 0.62062 0.38600 0.24007
 C756 C 0.60461 0.34639 0.20929
 C757 C 0.65019 0.33303 0.19668
 C758 C 0.66669 0.37247 0.22757
 C759 C 0.65062 0.34892 0.10633
 C760 C 0.60480 0.36235 0.11893
 C761 C 0.62063 0.40219 0.14971
 C762 C 0.66643 0.38895 0.13639
 H763 H 0.60870 0.40144 0.29577
 H764 H 0.57856 0.32943 0.23861
 H765 H 0.69230 0.37637 0.27331
 H766 H 0.66250 0.33277 0.05163
 H767 H 0.57922 0.35773 0.07340
 H768 H 0.69196 0.40647 0.10677
 C769 C 0.87037 0.11783 0.20977
 C770 C 0.88700 0.15177 0.26266
 C771 C 0.86451 0.18047 0.20367
 C772 C 0.84765 0.14702 0.15119
 C773 C 0.90418 0.18371 0.14803
 C774 C 0.92690 0.15462 0.20652
 C775 C 0.90993 0.12132 0.15422
 C776 C 0.88756 0.15000 0.09562
 H777 H 0.85692 0.09028 0.23506
 H778 H 0.88627 0.15289 0.33185
 H779 H 0.81518 0.14381 0.12739
 H780 H 0.91776 0.21105 0.12195
 H781 H 0.95972 0.15727 0.22879
 H782 H 0.88972 0.14881 0.02701
 C783 C 0.85975 0.63100 0.63104
 C784 C 0.85308 0.64224 0.72346
 C785 C 0.86335 0.68464 0.69967
 C786 C 0.86964 0.67381 0.60783
 C787 C 0.91038 0.67780 0.71718
 C788 C 0.90039 0.63503 0.74048
 C789 C 0.90669 0.62442 0.64862
 C790 C 0.91685 0.66678 0.62491
 H791 H 0.83940 0.61124 0.59514
 H792 H 0.82656 0.63255 0.76429
 H793 H 0.85662 0.69046 0.55416
 H794 H 0.93186 0.69644 0.75322
 H795 H 0.91336 0.61861 0.79456
 H796 H 0.94325 0.67668 0.58401
 C797 C 0.42006 0.16758 0.61980
 C798 C 0.37223 0.17487 0.61141
 C799 C 0.37044 0.18800 0.70293
 C800 C 0.41812 0.18094 0.71166
 C801 C 0.36135 0.14583 0.73206
 C802 C 0.36333 0.13252 0.64011
 C803 C 0.41093 0.12541 0.64891
 C804 C 0.40928 0.13841 0.74044
 H805 H 0.44423 0.17670 0.57299
 H806 H 0.35724 0.19032 0.55820
 H807 H 0.44106 0.20071 0.74086
 H808 H 0.33705 0.13684 0.77870
 H809 H 0.34070 0.11256 0.61048
 H810 H 0.42449 0.12319 0.79374
 C811 C 0.38993 0.64169 0.09100
 C812 C 0.34332 0.65432 0.09389
 C813 C 0.35114 0.67233 0.17982
 C814 C 0.39737 0.65983 0.17705
 C815 C 0.33854 0.63350 0.22279
 C816 C 0.33144 0.61482 0.13625
 C817 C 0.37803 0.60245 0.13369
 C818 C 0.38514 0.62093 0.21996
 H819 H 0.41080 0.64527 0.03541
 H820 H 0.32623 0.66866 0.04179
 H821 H 0.42515 0.67762 0.19318
 H822 H 0.31745 0.63037 0.27812
 H823 H 0.30412 0.59647 0.11993
 H824 H 0.40193 0.60715 0.27319
   
