data_POSCAR
  _audit_creation_date              2014-09-24
  _audit_creation_method            'ToBaCCo'
  _symmetry_space_group_name_H-M    'P1'
  _symmetry_Int_Tables_number       1
  _symmetry_cell_setting            triclinic
  loop_
  _symmetry_equiv_pos_as_xyz
 x,y,z
_cell_length_a 38.2973
_cell_length_b 38.2939
_cell_length_c 38.2966
_cell_angle_alpha 89.816300
_cell_angle_beta 90.001600
_cell_angle_gamma 89.999400
loop_
  _atom_site_label
  _atom_site_type_symbol
  _atom_site_fract_x
  _atom_site_fract_y
  _atom_site_fract_z
N1 N 0.18630 0.18538 0.18538
 N2 N -0.18572 0.81341 0.18660
 N3 N -0.18568 0.18659 -0.18663
 N4 N 0.18627 0.81463 -0.18536
 N5 N 0.18636 1.18680 0.81317
 N6 N 0.81334 0.81380 0.81378
 N7 N 0.18636 0.81324 1.18675
 N8 N 0.81335 1.18622 1.18622
 N9 N 0.46384 1.03775 0.93804
 N10 N 0.43739 1.04227 0.91636
 N11 N 0.53733 1.06194 0.96225
 N12 N 0.56378 1.08360 0.95776
 N13 N 0.53732 1.03773 0.93804
 N14 N 0.56377 1.04221 0.91638
 N15 N 0.46385 1.06197 0.96225
 N16 N 0.43740 1.08366 0.95774
 C17 C 0.42126 1.07097 0.92905
 C18 C 0.57988 1.07088 0.92908
 N19 N 0.53742 1.03755 1.06178
 N20 N 0.56385 1.04201 1.08346
 N21 N 0.46394 1.06186 1.03748
 N22 N 0.43747 1.08348 1.04186
 N23 N 0.46393 1.03757 1.06177
 N24 N 0.43745 1.04197 1.08338
 N25 N 0.53743 1.06184 1.03748
 N26 N 0.56386 1.08352 1.04195
 Mn27 Mn 0.50064 1.06232 0.99986
 C28 C 0.57998 1.07075 1.07069
 C29 C 0.42134 1.07068 1.07056
 N30 N 0.53740 0.96250 0.93816
 N31 N 0.56383 0.95803 0.91649
 N32 N 0.46390 0.93823 0.96246
 N33 N 0.43742 0.91662 0.95807
 N34 N 0.46391 0.96252 0.93817
 N35 N 0.43743 0.95814 0.91655
 N36 N 0.53739 0.93820 0.96246
 N37 N 0.56382 0.91652 0.95800
 Mn38 Mn 0.50062 1.00012 0.93769
 C39 C 0.57995 0.92928 0.92926
 C40 C 0.42130 0.92944 0.92937
 N41 N 0.46382 0.96233 1.06190
 N42 N 0.43736 0.95784 1.08356
 N43 N 0.53730 0.93810 1.03769
 N44 N 0.56374 0.91644 1.04218
 N45 N 0.53730 0.96232 1.06190
 N46 N 0.56375 0.95783 1.08356
 N47 N 0.46381 0.93811 1.03769
 N48 N 0.43735 0.91645 1.04219
 Mn49 Mn 0.50062 0.99994 1.06225
 Mn50 Mn 0.50060 0.93775 1.00007
 Cl51 Cl 0.50062 1.00003 0.99997
 C52 C 0.42121 0.92915 1.07088
 C53 C 0.57986 0.92915 1.07085
 N54 N -0.03812 0.46373 -0.06199
 N55 N -0.04253 0.43739 -0.08370
 N56 N -0.06237 0.53706 -0.03748
 N57 N -0.08407 0.56351 -0.04191
 N58 N -0.03811 0.53722 -0.06174
 N59 N -0.04262 0.56378 -0.08334
 N60 N -0.06237 0.46356 -0.03774
 N61 N -0.08398 0.43710 -0.04225
 C62 C -0.07120 0.42117 -0.07099
 C63 C -0.07134 0.57982 -0.07058
 N64 N -0.03809 0.53630 0.06200
 N65 N -0.04250 0.56263 0.08371
 N66 N -0.06237 0.46296 0.03750
 N67 N -0.08406 0.43650 0.04193
 N68 N -0.03810 0.46281 0.06176
 N69 N -0.04260 0.43624 0.08336
 N70 N -0.06235 0.53646 0.03775
 N71 N -0.08396 0.56292 0.04227
 Mn72 Mn -0.06278 0.50001 0.00001
 C73 C -0.07118 0.57885 0.07100
 C74 C -0.07133 0.42020 0.07060
 N75 N 0.03712 0.53712 -0.06173
 N76 N 0.04159 0.56372 -0.08329
 N77 N 0.06136 0.46345 -0.03774
 N78 N 0.08300 0.43701 -0.04229
 N79 N 0.03711 0.46362 -0.06200
 N80 N 0.04157 0.43730 -0.08374
 N81 N 0.06137 0.53694 -0.03748
 N82 N 0.08304 0.56340 -0.04183
 Mn83 Mn -0.00050 0.50043 -0.06228
 C84 C 0.07030 0.57972 -0.07047
 C85 C 0.07027 0.42107 -0.07105
 N86 N 0.03712 0.46288 0.06174
 N87 N 0.04160 0.43631 0.08332
 N88 N 0.06138 0.53653 0.03773
 N89 N 0.08304 0.56296 0.04228
 N90 N 0.03713 0.53638 0.06199
 N91 N 0.04161 0.56271 0.08373
 N92 N 0.06136 0.46304 0.03748
 N93 N 0.08304 0.43658 0.04185
 Mn94 Mn -0.00049 0.49959 0.06229
 Mn95 Mn 0.06178 0.49999 -0.00000
 Cl96 Cl -0.00050 0.50000 0.00000
 C97 C 0.07030 0.42029 0.07050
 C98 C 0.07031 0.57892 0.07103
 N99 N 0.93766 -0.03776 0.46355
 N100 N 0.91606 -0.04227 0.43708
 N101 N 0.96192 -0.06175 0.53721
 N102 N 0.95741 -0.08336 0.56378
 N103 N 0.93766 -0.03749 0.53705
 N104 N 0.91597 -0.04191 0.56351
 N105 N 0.96191 -0.06202 0.46373
 N106 N 0.95751 -0.08373 0.43738
 C107 C 0.92884 -0.07101 0.42116
 C108 C 0.92869 -0.07059 0.57982
 N109 N 1.06140 -0.03751 0.53693
 N110 N 1.08308 -0.04188 0.56338
 N111 N 1.03713 -0.06204 0.46362
 N112 N 1.04160 -0.08379 0.43730
 N113 N 1.06139 -0.03778 0.46345
 N114 N 1.08304 -0.04234 0.43702
 N115 N 1.03714 -0.06176 0.53711
 N116 N 1.04163 -0.08333 0.56369
 Mn117 Mn 0.99952 -0.06231 0.50042
 C118 C 1.07034 -0.07052 0.57969
 C119 C 1.07030 -0.07110 0.42108
 N120 N 0.93769 0.03775 0.53644
 N121 N 0.91610 0.04227 0.56291
 N122 N 0.96193 0.06173 0.46277
 N123 N 0.95743 0.08333 0.43620
 N124 N 0.93767 0.03748 0.46294
 N125 N 0.91597 0.04190 0.43649
 N126 N 0.96195 0.06200 0.53625
 N127 N 0.95757 0.08371 0.56260
 Mn128 Mn 0.93725 -0.00001 0.50000
 C129 C 0.92890 0.07101 0.57883
 C130 C 0.92870 0.07056 0.42017
 N131 N 1.06140 0.03744 0.46302
 N132 N 1.08306 0.04178 0.43655
 N133 N 1.03717 0.06198 0.53634
 N134 N 1.04165 0.08373 0.56266
 N135 N 1.06142 0.03771 0.53650
 N136 N 1.08307 0.04226 0.56293
 N137 N 1.03716 0.06170 0.46285
 N138 N 1.04163 0.08325 0.43625
 Mn139 Mn 1.06181 -0.00004 0.49998
 Mn140 Mn 0.99955 0.06227 0.49955
 Cl141 Cl 0.99953 -0.00002 0.49999
 C142 C 1.07033 0.07042 0.42024
 C143 C 1.07035 0.07103 0.57888
 C144 C 1.11970 0.15169 0.24902
 C145 C 1.14110 0.14008 0.27631
 C146 C 1.17741 0.14325 0.27357
 C147 C 1.19228 0.15805 0.24367
 C148 C 1.17098 0.16984 0.21617
 C149 C 1.13454 0.16648 0.21910
 C150 C 1.12582 0.12505 0.30718
 C151 C 1.11304 0.11251 0.33307
 C152 C 1.09813 0.09786 0.36342
 C153 C 1.08542 0.08535 0.38936
 H154 H 1.09157 0.14930 0.25087
 H155 H 1.19420 0.13440 0.29458
 H156 H 1.22039 0.16063 0.24208
 H157 H 1.11766 0.17517 0.19812
 C158 C 0.84775 -0.12014 0.25022
 C159 C 0.85928 -0.14162 0.27752
 C160 C 0.85612 -0.17792 0.27480
 C161 C 0.84141 -0.19272 0.24491
 C162 C 0.82970 -0.17134 0.21739
 C163 C 0.83304 -0.13490 0.22031
 C164 C 0.87426 -0.12641 0.30836
 C165 C 0.88676 -0.11368 0.33422
 C166 C 0.90139 -0.09880 0.36451
 C167 C 0.91389 -0.08611 0.39038
 H168 H 0.85013 -0.09202 0.25205
 H169 H 0.86491 -0.19477 0.29581
 H170 H 0.83884 -0.22082 0.24333
 H171 H 0.82443 -0.11796 0.19933
 C172 C 0.85619 0.17793 0.72518
 C173 C 0.85936 0.14163 0.72246
 C174 C 0.84782 0.12015 0.74976
 C175 C 0.83311 0.13491 0.77966
 C176 C 0.82975 0.17134 0.78258
 C177 C 0.84147 0.19273 0.75507
 C178 C 0.87434 0.12643 0.69162
 C179 C 0.88685 0.11370 0.66577
 C180 C 0.90147 0.09881 0.63548
 C181 C 0.91397 0.08611 0.60961
 H182 H 0.86498 0.19478 0.70417
 H183 H 0.85021 0.09203 0.74793
 H184 H 0.82449 0.11797 0.80064
 H185 H 0.83889 0.22083 0.75664
 C186 C 1.14426 -0.17682 0.72647
 C187 C 1.14104 -0.14052 0.72349
 C188 C 1.15271 -0.11900 0.75056
 C189 C 1.16756 -0.13371 0.78052
 C190 C 1.17090 -0.17014 0.78372
 C191 C 1.15911 -0.19156 0.75640
 C192 C 1.12581 -0.12539 0.69265
 C193 C 1.11306 -0.11278 0.66677
 C194 C 1.09816 -0.09805 0.63645
 C195 C 1.08545 -0.08549 0.61054
 H196 H 1.13536 -0.19370 0.70564
 H197 H 1.15030 -0.09088 0.74853
 H198 H 1.17624 -0.11675 0.80135
 H199 H 1.16167 -0.21966 0.75820
 C200 C 0.25029 1.11914 1.15202
 C201 C 0.27746 1.14070 1.14043
 C202 C 0.27455 1.17699 1.14357
 C203 C 0.24460 1.19168 1.15830
 C204 C 0.21720 1.17022 1.17004
 C205 C 0.22032 1.13380 1.16674
 C206 C 0.30834 1.12561 1.12538
 C207 C 0.33424 1.11299 1.11280
 C208 C 0.36458 1.09824 1.09809
 C209 C 0.39050 1.08566 1.08553
 H210 H 0.25227 1.09102 1.14965
 H211 H 0.29546 1.19390 1.13474
 H212 H 0.24287 1.21978 1.16084
 H213 H 0.19943 1.11680 1.17538
 C214 C 0.25021 0.84804 0.88090
 C215 C 0.27740 0.85960 0.85935
 C216 C 0.27452 0.85642 0.82307
 C217 C 0.24458 0.84169 0.80836
 C218 C 0.21715 0.82998 0.82981
 C219 C 0.22025 0.83331 0.86623
 C220 C 0.30828 0.87464 0.87446
 C221 C 0.33418 0.88721 0.88708
 C222 C 0.36453 0.90191 0.90182
 C223 C 0.39045 0.91447 0.91439
 H224 H 0.25217 0.85042 0.90902
 H225 H 0.29545 0.86523 0.80617
 H226 H 0.24287 0.83913 0.78027
 H227 H 0.19934 0.82469 0.88322
 C228 C 0.72617 0.85548 1.17777
 C229 C 0.72340 0.85874 1.14146
 C230 C 0.75060 0.84713 1.12003
 C231 C 0.78049 0.83229 1.13485
 C232 C 0.78347 0.82888 1.17129
 C233 C 0.75603 0.84063 1.19262
 C234 C 0.69260 0.87391 1.12622
 C235 C 0.66677 0.88659 1.11348
 C236 C 0.63651 0.90141 1.09861
 C237 C 0.61064 0.91407 1.08593
 H238 H 0.70523 0.86433 1.19458
 H239 H 0.74872 0.84958 1.09190
 H240 H 0.80141 0.82363 1.11795
 H241 H 0.75767 0.83801 1.22072
 C242 C 0.75064 1.15285 0.87992
 C243 C 0.72344 1.14125 0.85848
 C244 C 0.72622 1.14452 0.82217
 C245 C 0.75608 1.15937 0.80734
 C246 C 0.78352 1.17112 0.82868
 C247 C 0.78053 1.16770 0.86511
 C248 C 0.69264 1.12608 0.87372
 C249 C 0.66681 1.11341 0.88645
 C250 C 0.63654 1.09860 0.90131
 C251 C 0.61067 1.08595 0.91399
 H252 H 0.74876 1.15040 0.90805
 H253 H 0.70528 1.13567 0.80536
 H254 H 0.75772 1.16199 0.77923
 H255 H 0.80145 1.17635 0.88202
 C256 C 0.15270 0.24943 0.11901
 C257 C 0.14103 0.27650 0.14053
 C258 C 0.14427 0.27354 0.17682
 C259 C 0.15913 0.24361 0.19156
 C260 C 0.17092 0.21629 0.17015
 C261 C 0.16756 0.21948 0.13372
 C262 C 0.12578 0.30734 0.12540
 C263 C 0.11303 0.33322 0.11278
 C264 C 0.09812 0.36353 0.09805
 C265 C 0.08541 0.38944 0.08548
 H266 H 0.15027 0.25146 0.09089
 H267 H 0.13537 0.29438 0.19370
 H268 H 0.16171 0.24183 0.21967
 H269 H 0.17624 0.19865 0.11676
 C270 C -0.17732 0.27473 -0.14482
 C271 C -0.14104 0.27766 -0.14160
 C272 C -0.11946 0.25058 -0.15321
 C273 C -0.13410 0.22065 -0.16800
 C274 C -0.17052 0.21749 -0.17134
 C275 C -0.19200 0.24482 -0.15961
 C276 C -0.12598 0.30847 -0.12640
 C277 C -0.11341 0.33430 -0.11368
 C278 C -0.09873 0.36456 -0.09880
 C279 C -0.08618 0.39041 -0.08610
 H280 H -0.19425 0.29557 -0.13597
 H281 H -0.09134 0.25258 -0.15078
 H282 H -0.11709 0.19981 -0.17662
 H283 H -0.22009 0.24306 -0.16218
 C284 C 0.11967 0.75095 -0.15172
 C285 C 0.14108 0.72367 -0.14010
 C286 C 0.17739 0.72643 -0.14324
 C287 C 0.19226 0.75633 -0.15803
 C288 C 0.17094 0.78383 -0.16983
 C289 C 0.13451 0.78088 -0.16650
 C290 C 0.12580 0.69279 -0.12508
 C291 C 0.11302 0.66689 -0.11254
 C292 C 0.09810 0.63654 -0.09790
 C293 C 0.08539 0.61060 -0.08540
 H294 H 0.09154 0.74909 -0.14936
 H295 H 0.19418 0.70542 -0.13438
 H296 H 0.22036 0.75794 -0.16059
 H297 H 0.11762 0.80185 -0.17520
 C298 C -0.11947 0.74945 0.15319
 C299 C -0.14104 0.72236 0.14159
 C300 C -0.17733 0.72528 0.14480
 C301 C -0.19202 0.75518 0.15959
 C302 C -0.17055 0.78252 0.17131
 C303 C -0.13413 0.77938 0.16798
 C304 C -0.12597 0.69155 0.12640
 C305 C -0.11339 0.66572 0.11369
 C306 C -0.09870 0.63546 0.09881
 C307 C -0.08615 0.60961 0.08612
 H308 H -0.09136 0.74746 0.15077
 H309 H -0.19424 0.70443 0.13595
 H310 H -0.22011 0.75693 0.16215
 H311 H -0.11713 0.80022 0.17660
 C312 C 1.11974 0.15334 0.74947
 C313 C 1.14114 0.14163 0.72228
 C314 C 1.17745 0.14476 0.72509
 C315 C 1.19232 0.15956 0.75493
 C316 C 1.17102 0.17141 0.78236
 C317 C 1.13457 0.16813 0.77934
 C318 C 1.12585 0.12646 0.69148
 C319 C 1.11308 0.11377 0.66568
 C320 C 1.09816 0.09891 0.63545
 C321 C 1.08546 0.08620 0.60963
 H322 H 1.09161 0.15100 0.74761
 H323 H 1.19427 0.13585 0.70418
 H324 H 1.22043 0.16206 0.75655
 H325 H 1.11766 0.17683 0.80023
 C326 C 0.85773 -0.17765 0.72798
 C327 C 0.85809 -0.14138 0.72370
 C328 C 0.84361 -0.12004 0.74947
 C329 C 0.82877 -0.13485 0.77940
 C330 C 0.82810 -0.17148 0.78423
 C331 C 0.84294 -0.19259 0.75787
 C332 C 0.87328 -0.12607 0.69281
 C333 C 0.88597 -0.11329 0.66693
 C334 C 0.90083 -0.09837 0.63660
 C335 C 0.91353 -0.08567 0.61069
 H336 H 0.86873 -0.19445 0.70810
 H337 H 0.84390 -0.09190 0.74650
 H338 H 0.81846 -0.11756 0.79920
 H339 H 0.84235 -0.22079 0.75999
 C340 C 1.14410 -0.17811 0.27486
 C341 C 1.14100 -0.14180 0.27768
 C342 C 1.15283 -0.12031 0.25050
 C343 C 1.16770 -0.13506 0.22063
 C344 C 1.17093 -0.17150 0.21759
 C345 C 1.15897 -0.19288 0.24501
 C346 C 1.12574 -0.12660 0.30848
 C347 C 1.11299 -0.11389 0.33428
 C348 C 1.09809 -0.09901 0.36451
 C349 C 1.08540 -0.08629 0.39033
 H350 H 1.13509 -0.19499 0.29576
 H351 H 1.15053 -0.09218 0.25237
 H352 H 1.17649 -0.11808 0.19975
 H353 H 1.16143 -0.22100 0.24338
 C354 C 0.82172 0.14159 0.27203
 C355 C 0.85797 0.14126 0.27630
 C356 C 0.87936 0.15586 0.25053
 C357 C 0.86462 0.17079 0.22060
 C358 C 0.82801 0.17141 0.21578
 C359 C 0.80684 0.15646 0.24215
 C360 C 0.87321 0.12598 0.30717
 C361 C 0.88594 0.11323 0.33305
 C362 C 0.90083 0.09833 0.36338
 C363 C 0.91354 0.08564 0.38930
 H364 H 0.80488 0.13050 0.29192
 H365 H 0.90750 0.15560 0.25349
 H366 H 0.88195 0.18119 0.20080
 H367 H 0.77866 0.15702 0.24004
 C368 C 0.15280 0.25049 -0.12034
 C369 C 0.14096 0.27769 -0.14180
 C370 C 0.14405 0.27489 -0.17811
 C371 C 0.15893 0.24506 -0.19291
 C372 C 0.17091 0.21762 -0.17155
 C373 C 0.16768 0.22064 -0.13510
 C374 C 0.12570 0.30847 -0.12658
 C375 C 0.11295 0.33427 -0.11385
 C376 C 0.09805 0.36450 -0.09896
 C377 C 0.08536 0.39032 -0.08624
 H378 H 0.15050 0.25234 -0.09221
 H379 H 0.13503 0.29579 -0.19497
 H380 H 0.16139 0.24344 -0.22102
 H381 H 0.17649 0.19974 -0.11815
 C382 C -0.15637 0.25052 0.12007
 C383 C -0.14189 0.27630 0.14140
 C384 C -0.14226 0.27203 0.17767
 C385 C -0.15705 0.24213 0.19261
 C386 C -0.17188 0.21577 0.17150
 C387 C -0.17121 0.22059 0.13487
 C388 C -0.12671 0.30718 0.12609
 C389 C -0.11402 0.33307 0.11331
 C390 C -0.09917 0.36341 0.09839
 C391 C -0.08648 0.38932 0.08569
 H392 H -0.15607 0.25348 0.09192
 H393 H -0.13127 0.29191 0.19446
 H394 H -0.15765 0.24002 0.22081
 H395 H -0.18152 0.20078 0.11759
 C396 C -0.17832 0.72797 -0.14161
 C397 C -0.14207 0.72370 -0.14127
 C398 C -0.12067 0.74947 -0.15587
 C399 C -0.13540 0.77941 -0.17079
 C400 C -0.17201 0.78423 -0.17142
 C401 C -0.19318 0.75786 -0.15648
 C402 C -0.12684 0.69282 -0.12600
 C403 C -0.11411 0.66694 -0.11325
 C404 C -0.09922 0.63660 -0.09835
 C405 C -0.08651 0.61069 -0.08566
 H406 H -0.19516 0.70809 -0.13053
 H407 H -0.09253 0.74650 -0.15561
 H408 H -0.11807 0.79921 -0.18119
 H409 H -0.22137 0.75998 -0.15704
 C410 C 0.11972 0.74953 0.15331
 C411 C 0.14112 0.72234 0.14159
 C412 C 0.17744 0.72516 0.14470
 C413 C 0.19230 0.75500 0.15949
 C414 C 0.17101 0.78243 0.17135
 C415 C 0.13456 0.77940 0.16809
 C416 C 0.12583 0.69154 0.12643
 C417 C 0.11306 0.66573 0.11375
 C418 C 0.09813 0.63549 0.09889
 C419 C 0.08542 0.60967 0.08620
 H420 H 0.09159 0.74767 0.15099
 H421 H 0.19425 0.70425 0.13577
 H422 H 0.22042 0.75663 0.16197
 H423 H 0.11765 0.80029 0.17681
 C424 C 0.27458 1.17804 0.85529
 C425 C 0.27751 1.14172 0.85843
 C426 C 0.25035 1.12027 0.84670
 C427 C 0.22041 1.13505 0.83187
 C428 C 0.21726 1.17151 0.82858
 C429 C 0.24465 1.19286 0.84046
 C430 C 0.30838 1.12648 0.87364
 C431 C 0.33424 1.11373 0.88635
 C432 C 0.36456 1.09883 0.90122
 C433 C 0.39044 1.08611 0.91391
 H434 H 0.29544 1.19489 0.86422
 H435 H 0.25231 1.09214 0.84904
 H436 H 0.19955 1.11811 0.82315
 H437 H 0.24294 1.22097 0.83796
 C438 C 0.25030 0.84680 1.12019
 C439 C 0.27746 0.85853 1.14163
 C440 C 0.27456 0.85537 1.17794
 C441 C 0.24465 0.84053 1.19277
 C442 C 0.21725 0.82866 1.17144
 C443 C 0.22037 0.83196 1.13499
 C444 C 0.30832 0.87375 1.12638
 C445 C 0.33418 0.88647 1.11363
 C446 C 0.36449 0.90134 1.09872
 C447 C 0.39038 0.91403 1.08600
 H448 H 0.25223 0.84916 1.09206
 H449 H 0.29544 0.86430 1.19479
 H450 H 0.24295 0.83802 1.22089
 H451 H 0.19950 0.82325 1.11805
 C452 C 0.72766 1.17779 1.14168
 C453 C 0.72348 1.14153 1.14137
 C454 C 0.74927 1.12015 1.15596
 C455 C 0.77913 1.13491 1.17084
 C456 C 0.78386 1.17154 1.17145
 C457 C 0.75748 1.19269 1.15651
 C458 C 0.69268 1.12626 1.12614
 C459 C 0.66686 1.11350 1.11341
 C460 C 0.63661 1.09859 1.09852
 C461 C 0.61077 1.08587 1.08582
 H462 H 0.70776 1.19462 1.13060
 H463 H 0.74637 1.09200 1.15572
 H464 H 0.79895 1.11760 1.18123
 H465 H 0.75953 1.22088 1.15705
 C466 C 0.72765 0.85835 0.82222
 C467 C 0.72347 0.85865 0.85849
 C468 C 0.74927 0.84407 0.87986
 C469 C 0.77913 0.82919 0.86509
 C470 C 0.78386 0.82858 0.82846
 C471 C 0.75747 0.84352 0.80732
 C472 C 0.69267 0.87387 0.87376
 C473 C 0.66685 0.88659 0.88652
 C474 C 0.63659 0.90146 0.90143
 C475 C 0.61074 0.91415 0.91414
 H476 H 0.70775 0.86942 0.80540
 H477 H 0.74638 0.84431 0.90800
 H478 H 0.79896 0.81880 0.88239
 H479 H 0.75951 0.84298 0.77913
   
