data_POSCAR
  _audit_creation_date              2014-09-24
  _audit_creation_method            'ToBaCCo'
  _symmetry_space_group_name_H-M    'P1'
  _symmetry_Int_Tables_number       1
  _symmetry_cell_setting            triclinic
  loop_
  _symmetry_equiv_pos_as_xyz
 x,y,z
_cell_length_a 37.2819
_cell_length_b 38.8254
_cell_length_c 38.9436
_cell_angle_alpha 90.006800
_cell_angle_beta 90.213100
_cell_angle_gamma 90.027100
loop_
  _atom_site_label
  _atom_site_type_symbol
  _atom_site_fract_x
  _atom_site_fract_y
  _atom_site_fract_z
O1 O 0.32799 0.37313 0.03246
 O2 O 0.37737 0.32353 -0.03151
 O3 O 0.33150 0.37258 -0.03408
 O4 O 0.37467 0.32404 0.03490
 O5 O 0.33199 0.28465 0.03272
 O6 O 0.28597 0.33633 -0.03453
 O7 O 0.33354 0.28530 -0.03409
 O8 O 0.28403 0.33500 0.03177
 Cu9 Cu 0.35720 0.35207 0.00069
 Cu10 Cu 0.30445 0.30636 -0.00123
 C11 C 0.29755 0.36295 0.04285
 C12 C 0.36414 0.29602 -0.04373
 C13 C 0.30107 0.36352 -0.04570
 C14 C 0.36135 0.29583 0.04519
 O15 O 0.67026 0.62666 0.03158
 O16 O 0.62373 0.67608 -0.03474
 O17 O 0.66952 0.62671 -0.03508
 O18 O 0.62400 0.67589 0.03172
 O19 O 0.66703 0.71499 0.03125
 O20 O 0.71517 0.66279 -0.03384
 O21 O 0.66775 0.71416 -0.03556
 O22 O 0.71447 0.66452 0.03255
 Cu23 Cu 0.64254 0.64760 -0.00163
 Cu24 Cu 0.69558 0.69305 -0.00152
 C25 C 0.70023 0.63682 0.04335
 C26 C 0.63744 0.70359 -0.04636
 C27 C 0.70045 0.63554 -0.04540
 C28 C 0.63720 0.70397 0.04260
 O29 O 0.62431 0.32424 1.03337
 O30 O 0.67311 0.37398 0.96902
 O31 O 0.62694 0.32452 0.96698
 O32 O 0.66922 0.37415 1.03562
 O33 O 0.71523 0.33854 1.03657
 O34 O 0.67013 0.28570 0.96949
 O35 O 0.71758 0.33645 0.97010
 O36 O 0.66866 0.28663 1.03625
 Cu37 Cu 0.64405 0.35293 1.00098
 Cu38 Cu 0.69742 0.30796 1.00335
 C39 C 0.63790 0.29697 1.04575
 C40 C 0.70363 0.36404 0.95864
 C41 C 0.64065 0.29644 0.95688
 C42 C 0.69967 0.36557 1.04752
 O43 O 0.37512 0.67641 1.03339
 O44 O 0.32879 0.62606 0.96760
 O45 O 0.37468 0.67578 0.96686
 O46 O 0.32964 0.62678 1.03419
 O47 O 0.28378 0.66256 1.03276
 O48 O 0.33140 0.71458 0.96717
 O49 O 0.28432 0.66359 0.96644
 O50 O 0.33086 0.71419 1.03404
 Cu51 Cu 0.35644 0.64758 1.00050
 Cu52 Cu 0.30311 0.69265 1.00017
 C53 C 0.36122 0.70386 1.04491
 C54 C 0.29865 0.63583 0.95594
 C55 C 0.36127 0.70370 0.95582
 C56 C 0.29867 0.63548 1.04449
 O57 O -0.03745 0.37543 0.33202
 O58 O 0.03946 0.32991 0.36939
 O59 O 0.03420 0.37579 0.32577
 O60 O -0.02482 0.32494 0.37967
 O61 O -0.04195 0.29332 0.33555
 O62 O 0.02829 0.33753 0.28418
 O63 O 0.02971 0.28745 0.33276
 O64 O -0.03961 0.33939 0.28827
 Cu65 Cu 0.00157 0.35632 0.35503
 Cu66 Cu -0.00571 0.30978 0.30640
 C67 C -0.05048 0.36648 0.30315
 C68 C 0.04647 0.29988 0.35852
 C69 C 0.04230 0.36500 0.29608
 C70 C -0.04314 0.30026 0.36745
 O71 O 0.03418 0.66972 0.62415
 O72 O -0.03353 0.62244 0.67285
 O73 O -0.03548 0.66789 0.62523
 O74 O 0.03583 0.62277 0.67113
 O75 O 0.03552 0.66232 0.71188
 O76 O -0.03354 0.71054 0.66256
 O77 O -0.03426 0.66343 0.71217
 O78 O 0.03563 0.71048 0.66371
 Cu79 Cu 0.00029 0.64170 0.64444
 Cu80 Cu 0.00083 0.69081 0.69169
 C81 C 0.04626 0.69822 0.63526
 C82 C -0.04543 0.63465 0.70079
 C83 C -0.04622 0.69722 0.63520
 C84 C 0.04736 0.63418 0.69960
 O85 O 1.03460 0.62240 0.32746
 O86 O 0.96844 0.67045 0.37728
 O87 O 0.96522 0.62422 0.32995
 O88 O 1.03802 0.66762 0.37554
 O89 O 1.03633 0.71062 0.33862
 O90 O 0.96582 0.66413 0.28955
 O91 O 0.96722 0.71154 0.33807
 O92 O 1.03569 0.66369 0.28849
 Cu93 Cu 1.00159 0.64212 0.35640
 Cu94 Cu 1.00143 0.69163 0.30958
 C95 C 1.04634 0.63456 0.29944
 C96 C 0.95659 0.69913 0.36647
 C97 C 0.95340 0.63623 0.30183
 C98 C 1.04897 0.69698 0.36582
 O99 O 0.96312 0.33355 0.62277
 O100 O 1.03520 0.37824 0.66870
 O101 O 1.03291 0.33319 0.62015
 O102 O 0.96579 0.37898 0.67093
 O103 O 0.96761 0.33848 0.71071
 O104 O 1.03253 0.29011 0.65699
 O105 O 1.03720 0.33664 0.70732
 O106 O 0.96334 0.29203 0.66153
 Cu107 Cu 0.99918 0.36006 0.64181
 Cu108 Cu 1.00046 0.31009 0.68809
 C109 C 0.95094 0.30521 0.63407
 C110 C 1.04826 0.36545 0.69598
 C111 C 1.04365 0.30349 0.62912
 C112 C 0.95555 0.36703 0.69959
 O113 O 0.37638 0.03300 0.32754
 O114 O 0.32994 -0.03406 0.37588
 O115 O 0.37654 -0.03369 0.32720
 O116 O 0.32932 0.03261 0.37603
 O117 O 0.28519 0.03249 0.33807
 O118 O 0.33363 -0.03386 0.28794
 O119 O 0.28583 -0.03443 0.33791
 O120 O 0.33352 0.03291 0.28825
 Cu121 Cu 0.35735 -0.00049 0.35547
 Cu122 Cu 0.30507 -0.00069 0.30912
 C123 C 0.36341 0.04408 0.29949
 C124 C 0.29991 -0.04552 0.36558
 C125 C 0.36358 -0.04485 0.29915
 C126 C 0.29905 0.04358 0.36584
 O127 O 0.62512 0.03330 0.67330
 O128 O 0.67086 -0.03427 0.62499
 O129 O 0.62403 -0.03338 0.67344
 O130 O 0.67154 0.03240 0.62435
 O131 O 0.71574 0.03243 0.66222
 O132 O 0.66704 -0.03378 0.71260
 O133 O 0.71512 -0.03462 0.66281
 O134 O 0.66811 0.03300 0.71247
 Cu135 Cu 0.64358 -0.00044 0.64523
 Cu136 Cu 0.69600 -0.00076 0.69142
 C137 C 0.63832 0.04439 0.70128
 C138 C 0.70086 -0.04581 0.63526
 C139 C 0.63696 -0.04460 0.70145
 C140 C 0.70180 0.04347 0.63445
 O141 O 0.32608 1.03636 0.62644
 O142 O 0.37264 0.96923 0.67495
 O143 O 0.32604 0.96958 0.62605
 O144 O 0.37334 1.03591 0.67487
 O145 O 0.33068 1.03607 0.71407
 O146 O 0.28194 0.96951 0.66374
 O147 O 0.32985 0.96923 0.71402
 O148 O 0.28209 1.03664 0.66424
 Cu149 Cu 0.35378 1.00278 0.64677
 Cu150 Cu 0.30166 1.00290 0.69290
 C151 C 0.29610 1.04782 0.63667
 C152 C 0.35962 0.95797 0.70283
 C153 C 0.29596 0.95829 0.63618
 C154 C 0.36059 1.04705 0.70289
 O155 O 0.67479 1.03391 0.37284
 O156 O 0.62809 0.96660 0.32475
 O157 O 0.67417 0.96700 0.37421
 O158 O 0.62801 1.03323 0.32440
 O159 O 0.67185 1.03365 0.28641
 O160 O 0.71799 0.96507 0.33624
 O161 O 0.67076 0.96662 0.28557
 O162 O 0.72040 1.03149 0.33706
 Cu163 Cu 0.64697 1.00024 0.35280
 Cu164 Cu 0.69969 0.99928 0.30736
 C165 C 0.70594 1.04365 0.36401
 C166 C 0.64094 0.95547 0.29675
 C167 C 0.70385 0.95476 0.36408
 C168 C 0.64168 1.04469 0.29692
 C169 C 0.87738 0.77019 0.47010
 C170 C 0.88973 0.75757 0.50154
 C171 C 0.87597 0.76900 0.53290
 C172 C 0.84969 0.79532 0.53298
 C173 C 0.83772 0.80945 0.50121
 C174 C 0.85126 0.79653 0.46965
 C175 C 0.83744 0.80941 0.43860
 C176 C 0.81147 0.83513 0.43837
 C177 C 0.79832 0.84896 0.46919
 C178 C 0.81121 0.83572 0.50096
 C179 C 0.83410 0.80700 0.56365
 C180 C 0.80840 0.83298 0.56341
 C181 C 0.79692 0.84800 0.53245
 C182 C 0.77048 0.87409 0.53194
 C183 C 0.75855 0.88710 0.50046
 C184 C 0.77164 0.87483 0.46920
 H185 H 0.84625 0.79946 0.41410
 H186 H 0.80148 0.84373 0.41372
 H187 H 0.84123 0.79589 0.58818
 H188 H 0.79717 0.84078 0.58777
 H189 H 0.91031 0.73779 0.50153
 H190 H 0.73849 0.90735 0.50029
 C191 C 0.22672 0.12577 0.53151
 C192 C 0.23951 0.11187 0.50080
 C193 C 0.22708 0.12301 0.46880
 C194 C 0.20013 0.14859 0.46723
 C195 C 0.18639 0.16277 0.49820
 C196 C 0.20003 0.15163 0.53045
 C197 C 0.18771 0.16757 0.56055
 C198 C 0.16190 0.19347 0.55922
 C199 C 0.14688 0.20406 0.52776
 C200 C 0.15975 0.18892 0.49685
 C201 C 0.18751 0.16121 0.43562
 C202 C 0.16138 0.18671 0.43428
 C203 C 0.14701 0.20072 0.46450
 C204 C 0.12109 0.22712 0.46324
 C205 C 0.10780 0.24086 0.49378
 C206 C 0.12042 0.23030 0.52604
 H207 H 0.19842 0.16059 0.58546
 H208 H 0.15436 0.20544 0.58317
 H209 H 0.19802 0.15183 0.41153
 H210 H 0.15281 0.19560 0.40923
 H211 H 0.25983 0.09187 0.50182
 H212 H 0.08742 0.26076 0.49227
 C213 C 0.12665 0.76817 0.46883
 C214 C 0.11324 0.75646 0.50024
 C215 C 0.12518 0.76957 0.53166
 C216 C 0.15049 0.79668 0.53202
 C217 C 0.16377 0.80974 0.50040
 C218 C 0.15231 0.79508 0.46870
 C219 C 0.16778 0.80688 0.43801
 C220 C 0.19278 0.83350 0.43816
 C221 C 0.20366 0.84909 0.46903
 C222 C 0.18949 0.83675 0.50056
 C223 C 0.16374 0.81026 0.56302
 C224 C 0.18886 0.83679 0.56314
 C225 C 0.20181 0.85064 0.53227
 C226 C 0.22779 0.87718 0.53214
 C227 C 0.24076 0.88947 0.50084
 C228 C 0.22942 0.87580 0.46944
 H229 H 0.16118 0.79534 0.41354
 H230 H 0.20395 0.84136 0.41379
 H231 H 0.15514 0.80026 0.58756
 H232 H 0.19837 0.84601 0.58775
 H233 H 0.09312 0.73626 0.50032
 H234 H 0.26045 0.91008 0.50094
 C235 C 0.77462 0.12090 0.53078
 C236 C 0.76528 0.10609 0.49935
 C237 C 0.77831 0.11870 0.46813
 C238 C 0.80376 0.14581 0.46843
 C239 C 0.81320 0.16159 0.50016
 C240 C 0.79829 0.14928 0.53142
 C241 C 0.80650 0.16630 0.56226
 C242 C 0.82916 0.19473 0.56263
 C243 C 0.84479 0.20699 0.53223
 C244 C 0.83673 0.19043 0.50057
 C245 C 0.81968 0.15791 0.43811
 C246 C 0.84468 0.18457 0.43883
 C247 C 0.85243 0.20235 0.46943
 C248 C 0.87562 0.23141 0.47021
 C249 C 0.88137 0.24825 0.50161
 C250 C 0.86765 0.23594 0.53253
 H251 H 0.79497 0.15816 0.58639
 H252 H 0.83389 0.20735 0.58701
 H253 H 0.81345 0.14664 0.41345
 H254 H 0.85746 0.19105 0.41491
 H255 H 0.74644 0.08477 0.49910
 H256 H 0.89861 0.27076 0.50233
 C257 C 0.53131 0.77683 0.87764
 C258 C 0.49863 0.76455 0.89012
 C259 C 0.46575 0.77699 0.87809
 C260 C 0.46527 0.80337 0.85307
 C261 C 0.49826 0.81657 0.84038
 C262 C 0.53142 0.80315 0.85260
 C263 C 0.56362 0.81547 0.83858
 C264 C 0.56346 0.84074 0.81324
 C265 C 0.53109 0.85465 0.80098
 C266 C 0.49809 0.84236 0.81453
 C267 C 0.43286 0.81598 0.83950
 C268 C 0.43270 0.84127 0.81415
 C269 C 0.46493 0.85491 0.80141
 C270 C 0.46508 0.87989 0.77500
 C271 C 0.49779 0.89200 0.76243
 C272 C 0.53063 0.87965 0.77461
 H273 H 0.58931 0.80532 0.84670
 H274 H 0.58903 0.84888 0.80299
 H275 H 0.40728 0.80604 0.84801
 H276 H 0.40700 0.84966 0.80426
 H277 H 0.49880 0.74442 0.90947
 H278 H 0.49768 0.91136 0.74231
 C279 C 0.53464 0.12069 0.22491
 C280 C 0.50217 0.10831 0.23779
 C281 C 0.46908 0.12028 0.22577
 C282 C 0.46813 0.14516 0.19928
 C283 C 0.50089 0.15780 0.18553
 C284 C 0.53428 0.14565 0.19850
 C285 C 0.56626 0.15970 0.18567
 C286 C 0.56564 0.18501 0.16038
 C287 C 0.53302 0.19715 0.14687
 C288 C 0.50026 0.18355 0.15964
 C289 C 0.43551 0.15865 0.18707
 C290 C 0.43490 0.18380 0.16160
 C291 C 0.46688 0.19653 0.14748
 C292 C 0.46656 0.22284 0.12241
 C293 C 0.49904 0.23550 0.10984
 C294 C 0.53210 0.22348 0.12182
 H295 H 0.59212 0.15164 0.19546
 H296 H 0.59107 0.19532 0.15190
 H297 H 0.41010 0.15025 0.19745
 H298 H 0.40906 0.19357 0.15345
 H299 H 0.50268 0.08906 0.25800
 H300 H 0.49856 0.25561 0.09048
 C301 C 0.53377 0.12175 0.77480
 C302 C 0.50072 0.11005 0.76243
 C303 C 0.46822 0.12233 0.77530
 C304 C 0.46851 0.14686 0.80210
 C305 C 0.50187 0.15872 0.81544
 C306 C 0.53466 0.14623 0.80167
 C307 C 0.56726 0.15944 0.81426
 C308 C 0.56781 0.18420 0.84012
 C309 C 0.53579 0.19677 0.85427
 C310 C 0.50244 0.18401 0.84178
 C311 C 0.43650 0.16077 0.81501
 C312 C 0.43706 0.18559 0.84078
 C313 C 0.46965 0.19743 0.85466
 C314 C 0.47051 0.22330 0.88017
 C315 C 0.50355 0.23515 0.89243
 C316 C 0.53605 0.22270 0.87972
 H317 H 0.59270 0.15112 0.80388
 H318 H 0.59364 0.19377 0.84859
 H319 H 0.41067 0.15298 0.80492
 H320 H 0.41163 0.19579 0.84933
 H321 H 0.50026 0.09103 0.74201
 H322 H 0.50400 0.25502 0.91204
 C323 C 0.53442 0.87877 0.22454
 C324 C 0.50187 0.89085 0.23748
 C325 C 0.46888 0.87879 0.22534
 C326 C 0.46811 0.85414 0.19863
 C327 C 0.50095 0.84190 0.18473
 C328 C 0.53426 0.85414 0.19782
 C329 C 0.56634 0.84055 0.18474
 C330 C 0.56589 0.81560 0.15906
 C331 C 0.53334 0.80332 0.14550
 C332 C 0.50049 0.81647 0.15853
 C333 C 0.43559 0.84052 0.18634
 C334 C 0.43514 0.81561 0.16064
 C335 C 0.46720 0.80333 0.14631
 C336 C 0.46706 0.77731 0.12096
 C337 C 0.49959 0.76509 0.10813
 C338 C 0.53259 0.77727 0.12015
 H339 H 0.59215 0.84870 0.19460
 H340 H 0.59137 0.80568 0.15029
 H341 H 0.41013 0.84861 0.19685
 H342 H 0.40936 0.80569 0.15247
 H343 H 0.50224 0.90998 0.25781
 H344 H 0.49923 0.74513 0.08860
 C345 C 0.77517 0.46847 0.88123
 C346 C 0.76239 0.49982 0.89375
 C347 C 0.77326 0.53145 0.88007
 C348 C 0.79916 0.53186 0.85356
 C349 C 0.81348 0.50018 0.84131
 C350 C 0.80116 0.46835 0.85494
 C351 C 0.81418 0.43737 0.84111
 C352 C 0.83927 0.43747 0.81473
 C353 C 0.85232 0.46855 0.80120
 C354 C 0.83913 0.50026 0.81442
 C355 C 0.81009 0.56279 0.83804
 C356 C 0.83551 0.56289 0.81197
 C357 C 0.85065 0.53202 0.80003
 C358 C 0.87597 0.53186 0.77312
 C359 C 0.88894 0.50047 0.76082
 C360 C 0.87726 0.46893 0.77394
 H361 H 0.80476 0.41268 0.85028
 H362 H 0.84801 0.41287 0.80477
 H363 H 0.79877 0.58728 0.84550
 H364 H 0.84269 0.58744 0.80080
 H365 H 0.74279 0.49952 0.91429
 H366 H 0.90850 0.50056 0.74024
 C367 C 0.11996 0.46821 0.22287
 C368 C 0.10841 0.49963 0.23636
 C369 C 0.12189 0.53111 0.22469
 C370 C 0.14753 0.53143 0.19802
 C371 C 0.15904 0.49977 0.18343
 C372 C 0.14539 0.46801 0.19606
 C373 C 0.15850 0.43698 0.18249
 C374 C 0.18425 0.43698 0.15673
 C375 C 0.19774 0.46801 0.14343
 C376 C 0.18522 0.49979 0.15701
 C377 C 0.16303 0.56233 0.18658
 C378 C 0.18880 0.56236 0.16081
 C379 C 0.19986 0.53151 0.14521
 C380 C 0.22621 0.53121 0.11909
 C381 C 0.23741 0.49962 0.10557
 C382 C 0.22438 0.46821 0.11774
 H383 H 0.14933 0.41233 0.19200
 H384 H 0.19376 0.41231 0.14764
 H385 H 0.15584 0.58682 0.19788
 H386 H 0.20037 0.58686 0.15371
 H387 H 0.08870 0.49954 0.25681
 H388 H 0.25741 0.49937 0.08539
 C389 C 0.76696 0.47007 0.12651
 C390 C 0.75646 0.50146 0.11199
 C391 C 0.76863 0.53304 0.12462
 C392 C 0.79366 0.53362 0.15191
 C393 C 0.80549 0.50204 0.16654
 C394 C 0.79168 0.47014 0.15421
 C395 C 0.80192 0.43952 0.17076
 C396 C 0.82638 0.43990 0.19785
 C397 C 0.84147 0.47094 0.20959
 C398 C 0.83033 0.50243 0.19429
 C399 C 0.80623 0.56484 0.16568
 C400 C 0.83069 0.56520 0.19274
 C401 C 0.84343 0.53435 0.20713
 C402 C 0.86813 0.53448 0.23475
 C403 C 0.87937 0.50322 0.24891
 C404 C 0.86655 0.47156 0.23696
 H405 H 0.79076 0.41492 0.16328
 H406 H 0.83288 0.41557 0.20989
 H407 H 0.79706 0.58937 0.15584
 H408 H 0.83918 0.58998 0.20254
 H409 H 0.73774 0.50141 0.09058
 H410 H 0.89914 0.50355 0.26943
 C411 C 0.22963 0.53008 0.87744
 C412 C 0.24215 0.49867 0.89012
 C413 C 0.23136 0.46709 0.87617
 C414 C 0.20588 0.46679 0.84909
 C415 C 0.19181 0.49853 0.83666
 C416 C 0.20403 0.53030 0.85063
 C417 C 0.19131 0.56134 0.83663
 C418 C 0.16640 0.56137 0.80997
 C419 C 0.15326 0.53036 0.79625
 C420 C 0.16640 0.49859 0.80938
 C421 C 0.19511 0.43594 0.83321
 C422 C 0.17000 0.43599 0.80665
 C423 C 0.15495 0.46691 0.79466
 C424 C 0.12972 0.46724 0.76744
 C425 C 0.11675 0.49876 0.75527
 C426 C 0.12824 0.53019 0.76889
 H427 H 0.20080 0.58599 0.84589
 H428 H 0.15793 0.58604 0.79993
 H429 H 0.20632 0.41142 0.84079
 H430 H 0.16296 0.41150 0.79521
 H431 H 0.26136 0.49889 0.91113
 H432 H 0.09704 0.49884 0.73468
 C433 C 0.29655 0.40721 0.08891
 C434 C 0.27759 0.38506 0.06690
 C435 C 0.24000 0.38751 0.06512
 C436 C 0.22201 0.41346 0.08323
 C437 C 0.24136 0.43665 0.10385
 C438 C 0.27859 0.43261 0.10734
 H439 H 0.32551 0.40576 0.09081
 H440 H 0.22487 0.37092 0.04803
 H441 H 0.19334 0.41652 0.07982
 H442 H 0.29398 0.45037 0.12302
 C443 C 0.75636 0.61264 0.06955
 C444 C 0.71874 0.61509 0.06889
 C445 C 0.69846 0.59343 0.09016
 C446 C 0.71523 0.56845 0.11022
 C447 C 0.75259 0.56436 0.10918
 C448 C 0.77319 0.58712 0.08933
 H449 H 0.77252 0.62888 0.05312
 H450 H 0.66944 0.59493 0.09024
 H451 H 0.69890 0.55102 0.12527
 H452 H 0.80201 0.58399 0.08781
 C453 C 0.70371 0.40769 0.91200
 C454 C 0.72313 0.38591 0.93399
 C455 C 0.76075 0.38834 0.93492
 C456 C 0.77837 0.41397 0.91604
 C457 C 0.75857 0.43690 0.89551
 C458 C 0.72128 0.43280 0.89283
 H459 H 0.67472 0.40622 0.91069
 H460 H 0.77625 0.37198 0.95192
 H461 H 0.80710 0.41710 0.91882
 H462 H 0.70555 0.45035 0.87725
 C463 C 0.30009 0.59137 0.91007
 C464 C 0.27996 0.61348 0.93101
 C465 C 0.24235 0.61084 0.93083
 C466 C 0.22539 0.58479 0.91184
 C467 C 0.24584 0.56165 0.89228
 C468 C 0.28317 0.56584 0.89078
 H469 H 0.32909 0.59297 0.90967
 H470 H 0.22632 0.62739 0.94706
 H471 H 0.19660 0.58161 0.91372
 H472 H 0.29939 0.54815 0.87594
 C473 C 0.09817 0.29553 0.39866
 C474 C 0.07213 0.27890 0.37844
 C475 C 0.06644 0.24337 0.38283
 C476 C 0.08428 0.22553 0.40912
 C477 C 0.10829 0.24298 0.43087
 C478 C 0.11609 0.27772 0.42460
 H479 H 0.10302 0.32290 0.39581
 H480 H 0.04613 0.23011 0.36790
 H481 H 0.07772 0.19878 0.41388
 H482 H 0.13447 0.29156 0.44123
 C483 C 0.06995 0.75365 0.61160
 C484 C 0.07169 0.71755 0.61371
 C485 C 0.09479 0.69958 0.59172
 C486 C 0.11435 0.71714 0.56681
 C487 C 0.11078 0.75293 0.56302
 C488 C 0.08905 0.77122 0.58608
 H489 H 0.05197 0.76797 0.62807
 H490 H 0.09662 0.67176 0.59292
 H491 H 0.13083 0.70255 0.54916
 H492 H 0.08542 0.79874 0.58318
 C493 C 0.93265 0.75450 0.39015
 C494 C 0.93128 0.71837 0.38821
 C495 C 0.90842 0.70028 0.41034
 C496 C 0.88876 0.71773 0.43522
 C497 C 0.89194 0.75357 0.43882
 C498 C 0.91340 0.77199 0.41562
 H499 H 0.95039 0.76894 0.37354
 H500 H 0.90681 0.67244 0.40925
 H501 H 0.87248 0.70306 0.45298
 H502 H 0.91667 0.79958 0.41836
 C503 C 0.90056 0.30565 0.59189
 C504 C 0.92338 0.28697 0.61378
 C505 C 0.92279 0.25082 0.61263
 C506 C 0.90216 0.23378 0.58779
 C507 C 0.88119 0.25264 0.56436
 C508 C 0.87945 0.28861 0.56759
 H509 H 0.90038 0.33354 0.59245
 H510 H 0.94037 0.23589 0.62908
 H511 H 0.90451 0.20609 0.58532
 H512 H 0.86363 0.30366 0.54966
 C513 C 0.38590 0.06720 0.24351
 C514 C 0.38470 0.06899 0.27954
 C515 C 0.40802 0.09150 0.29684
 C516 C 0.43360 0.11027 0.27875
 C517 C 0.43666 0.10662 0.24304
 C518 C 0.41203 0.08565 0.22537
 H519 H 0.36843 0.04969 0.22968
 H520 H 0.40755 0.09338 0.32460
 H521 H 0.45244 0.12621 0.29284
 H522 H 0.41434 0.08209 0.19789
 C523 C 0.61622 0.06781 0.75721
 C524 C 0.61748 0.06962 0.72120
 C525 C 0.59467 0.09256 0.70388
 C526 C 0.56945 0.11175 0.72197
 C527 C 0.56620 0.10802 0.75766
 C528 C 0.59040 0.08665 0.77534
 H529 H 0.63332 0.04999 0.77104
 H530 H 0.59524 0.09446 0.67614
 H531 H 0.55091 0.12799 0.70787
 H532 H 0.58791 0.08301 0.80280
 C533 C 0.38247 0.93413 0.75855
 C534 C 0.38058 0.93252 0.72253
 C535 C 0.40289 0.90947 0.70492
 C536 C 0.42830 0.89004 0.72268
 C537 C 0.43224 0.89361 0.75835
 C538 C 0.40847 0.91502 0.77636
 H539 H 0.36574 0.95201 0.77260
 H540 H 0.40182 0.90769 0.67717
 H541 H 0.44650 0.87378 0.70833
 H542 H 0.41148 0.91852 0.80381
 C543 C 0.61747 0.93243 0.24095
 C544 C 0.61968 0.93036 0.27692
 C545 C 0.59740 0.90720 0.29445
 C546 C 0.57170 0.88813 0.27667
 C547 C 0.56745 0.89217 0.24110
 C548 C 0.59118 0.91368 0.22314
 H549 H 0.63418 0.95041 0.22699
 H550 H 0.59872 0.90509 0.32216
 H551 H 0.55353 0.87178 0.29097
 H552 H 0.58793 0.91753 0.19576
 C553 C 0.40912 0.29403 0.90960
 C554 C 0.38576 0.27630 0.93156
 C555 C 0.38711 0.24016 0.93286
 C556 C 0.41344 0.22228 0.91442
 C557 C 0.43805 0.24036 0.89397
 C558 C 0.43485 0.27621 0.89083
 H559 H 0.40848 0.32189 0.90812
 H560 H 0.36959 0.22604 0.94994
 H561 H 0.41585 0.19466 0.91754
 H562 H 0.45367 0.29060 0.87528
 C563 C 0.61493 0.75970 0.93036
 C564 C 0.61652 0.72360 0.92845
 C565 C 0.59355 0.70615 0.90573
 C566 C 0.56778 0.72414 0.88698
 C567 C 0.56418 0.75988 0.89088
 C568 C 0.58860 0.77775 0.91190
 H569 H 0.63213 0.77362 0.94804
 H570 H 0.59435 0.67832 0.90379
 H571 H 0.54910 0.70991 0.87100
 H572 H 0.58587 0.80528 0.91560
 C573 C 0.38355 0.76011 0.06814
 C574 C 0.38193 0.72400 0.07016
 C575 C 0.40470 0.70665 0.09311
 C576 C 0.43038 0.72471 0.11193
 C577 C 0.43407 0.76042 0.10788
 C578 C 0.40979 0.77823 0.08669
 H579 H 0.36648 0.77394 0.05030
 H580 H 0.40387 0.67883 0.09515
 H581 H 0.44898 0.71054 0.12804
 H582 H 0.41259 0.80573 0.08289
 C583 C 0.61524 0.24093 0.06895
 C584 C 0.61651 0.27706 0.07050
 C585 C 0.59325 0.29458 0.09269
 C586 C 0.56769 0.27655 0.11149
 C587 C 0.56453 0.24070 0.10811
 C588 C 0.58906 0.22284 0.08739
 H589 H 0.63269 0.22698 0.05167
 H590 H 0.59382 0.32243 0.09434
 H591 H 0.54892 0.29078 0.12724
 H592 H 0.58666 0.19524 0.08405
 C593 C 0.29731 0.09462 0.59317
 C594 C 0.27730 0.07335 0.61508
 C595 C 0.23967 0.07371 0.61274
 C596 C 0.22258 0.09289 0.58692
 C597 C 0.24294 0.11237 0.56366
 C598 C 0.28029 0.11405 0.56783
 H599 H 0.32634 0.09498 0.59459
 H600 H 0.22370 0.05732 0.62920
 H601 H 0.19378 0.09088 0.58377
 H602 H 0.29645 0.12881 0.55005
 C603 C 0.76224 0.06880 0.38524
 C604 C 0.72447 0.06679 0.38534
 C605 C 0.70542 0.08601 0.40985
 C606 C 0.72348 0.10524 0.43458
 C607 C 0.76106 0.10472 0.43656
 C608 C 0.78040 0.08673 0.41138
 H609 H 0.77778 0.05419 0.36686
 H610 H 0.67636 0.08570 0.41043
 H611 H 0.70795 0.11901 0.45363
 H612 H 0.80937 0.08519 0.41283
 C613 C 0.75710 0.92758 0.61217
 C614 C 0.71946 0.92856 0.61376
 C615 C 0.69936 0.90768 0.59140
 C616 C 0.71639 0.88785 0.56651
 C617 C 0.75384 0.88871 0.56324
 C618 C 0.77420 0.90801 0.58680
 H619 H 0.77315 0.94368 0.62897
 H620 H 0.67032 0.90781 0.59223
 H621 H 0.70023 0.87322 0.54849
 H622 H 0.80309 0.90941 0.58434
 C623 C 0.30099 0.90856 0.41002
 C624 C 0.28109 0.92913 0.38723
 C625 C 0.24343 0.92822 0.38861
 C626 C 0.22613 0.90903 0.41415
 C627 C 0.24630 0.89009 0.43812
 C628 C 0.28375 0.88915 0.43512
 H629 H 0.33004 0.90864 0.40938
 H630 H 0.22754 0.94408 0.37148
 H631 H 0.19722 0.91045 0.41639
 H632 H 0.29975 0.87478 0.45345
 C633 C 0.07494 0.38670 0.75113
 C634 C 0.07524 0.38567 0.71507
 C635 C 0.09789 0.40816 0.69709
 C636 C 0.11808 0.43278 0.71464
 C637 C 0.11565 0.43574 0.75048
 C638 C 0.09475 0.41187 0.76874
 H639 H 0.05734 0.36986 0.76549
 H640 H 0.09863 0.40779 0.66929
 H641 H 0.13393 0.45101 0.70008
 H642 H 0.09204 0.41408 0.79633
 C643 C 0.06963 0.61264 0.24325
 C644 C 0.07144 0.61337 0.27929
 C645 C 0.09400 0.59003 0.29641
 C646 C 0.11266 0.56500 0.27810
 C647 C 0.10882 0.56253 0.24233
 C648 C 0.08795 0.58709 0.22487
 H649 H 0.05209 0.63017 0.22955
 H650 H 0.09594 0.59016 0.32418
 H651 H 0.12854 0.54623 0.29203
 H652 H 0.08425 0.58528 0.19733
 C653 C 0.90240 0.41205 0.30553
 C654 C 0.92300 0.38899 0.28610
 C655 C 0.92109 0.39042 0.25007
 C656 C 0.90096 0.41611 0.23381
 C657 C 0.88166 0.44017 0.25332
 C658 C 0.88172 0.43723 0.28928
 H659 H 0.90334 0.41143 0.33333
 H660 H 0.93704 0.37315 0.23451
 H661 H 0.90197 0.41834 0.20611
 H662 H 0.86719 0.45564 0.30483
 C663 C 0.93011 0.61257 0.75639
 C664 C 0.92863 0.61390 0.72036
 C665 C 0.90552 0.59147 0.70268
 C666 C 0.88602 0.56662 0.72044
 C667 C 0.88958 0.56343 0.75616
 C668 C 0.91095 0.58719 0.77420
 H669 H 0.94804 0.62941 0.77050
 H670 H 0.90383 0.59211 0.67491
 H671 H 0.86977 0.54846 0.70608
 H672 H 0.91444 0.58479 0.80172
 C673 C 0.75601 0.61559 0.92737
 C674 C 0.71849 0.61391 0.93148
 C675 C 0.69945 0.58773 0.91427
 C676 C 0.71742 0.56288 0.89521
 C677 C 0.75500 0.56267 0.89367
 C678 C 0.77419 0.58962 0.90937
 H679 H 0.77159 0.63533 0.94025
 H680 H 0.67052 0.58586 0.91616
 H681 H 0.70200 0.54251 0.88313
 H682 H 0.80324 0.58970 0.90907
 C683 C 0.30370 0.41070 0.91335
 C684 C 0.28395 0.38484 0.93016
 C685 C 0.24660 0.38320 0.92457
 C686 C 0.22916 0.40904 0.90561
 C687 C 0.24900 0.43577 0.89039
 C688 C 0.28651 0.43538 0.89330
 H689 H 0.33255 0.41248 0.91634
 H690 H 0.23050 0.36369 0.93708
 H691 H 0.20015 0.40910 0.90425
 H692 H 0.30244 0.45554 0.88162
 C693 C 0.24321 0.61539 0.07180
 C694 C 0.28073 0.61387 0.06772
 C695 C 0.29988 0.58786 0.08504
 C696 C 0.28199 0.56296 0.10414
 C697 C 0.24440 0.56254 0.10560
 C698 C 0.22512 0.58937 0.08983
 H699 H 0.22755 0.63499 0.05884
 H700 H 0.32881 0.58613 0.08319
 H701 H 0.29749 0.54271 0.11628
 H702 H 0.19607 0.58930 0.09006
 C703 C 0.69588 0.41297 0.08813
 C704 C 0.71618 0.38720 0.07181
 C705 C 0.75341 0.38586 0.07818
 C706 C 0.77022 0.41188 0.09746
 C707 C 0.74986 0.43854 0.11211
 C708 C 0.71243 0.43787 0.10841
 H709 H 0.66708 0.41453 0.08458
 H710 H 0.76992 0.36640 0.06610
 H711 H 0.79920 0.41213 0.09948
 H712 H 0.69611 0.45799 0.11965
 C713 C 0.92572 0.75123 0.61645
 C714 C 0.92907 0.71512 0.61462
 C715 C 0.90981 0.69731 0.58904
 C716 C 0.88976 0.71510 0.56466
 C717 C 0.88946 0.75122 0.56423
 C718 C 0.90691 0.76921 0.59081
 H719 H 0.94018 0.76580 0.63577
 H720 H 0.91098 0.66948 0.58720
 H721 H 0.87626 0.70063 0.54462
 H722 H 0.90760 0.79709 0.59073
 C723 C 0.95227 0.27189 0.42207
 C724 C 0.93705 0.28004 0.39012
 C725 C 0.90202 0.26881 0.38266
 C726 C 0.88141 0.25288 0.40835
 C727 C 0.89690 0.24453 0.44039
 C728 C 0.93313 0.25299 0.44606
 H729 H 0.97956 0.27945 0.42824
 H730 H 0.88958 0.27513 0.35828
 H731 H 0.85320 0.24828 0.40354
 H732 H 0.94623 0.24650 0.47009
 C733 C 0.07067 0.24928 0.60939
 C734 C 0.06681 0.28534 0.60717
 C735 C 0.08446 0.30284 0.58047
 C736 C 0.10412 0.28486 0.55597
 C737 C 0.10564 0.24873 0.55651
 C738 C 0.08902 0.23108 0.58370
 H739 H 0.05734 0.23487 0.62945
 H740 H 0.08274 0.33060 0.57811
 H741 H 0.11684 0.29918 0.53548
 H742 H 0.08901 0.20320 0.58435
 C743 C 0.09277 0.69667 0.41219
 C744 C 0.07373 0.71464 0.38659
 C745 C 0.07713 0.75076 0.38502
 C746 C 0.09579 0.76858 0.41087
 C747 C 0.11311 0.75045 0.43744
 C748 C 0.11272 0.71432 0.43681
 H749 H 0.09150 0.66884 0.41386
 H750 H 0.06280 0.76547 0.36573
 H751 H 0.09510 0.79646 0.41112
 H752 H 0.12610 0.69973 0.45681
 C753 C 0.61413 0.93240 0.75737
 C754 C 0.61551 0.93060 0.72136
 C755 C 0.59228 0.90808 0.70395
 C756 C 0.56659 0.88934 0.72191
 C757 C 0.56330 0.89305 0.75758
 C758 C 0.58786 0.91398 0.77539
 H759 H 0.63154 0.94990 0.77128
 H760 H 0.59292 0.90617 0.67620
 H761 H 0.54779 0.87344 0.70772
 H762 H 0.58538 0.91756 0.80285
 C763 C 0.40806 0.90766 0.29647
 C764 C 0.38484 0.93025 0.27919
 C765 C 0.38590 0.93194 0.24316
 C766 C 0.41185 0.91333 0.22497
 C767 C 0.43641 0.89229 0.24261
 C768 C 0.43342 0.88870 0.27833
 H769 H 0.40765 0.90583 0.32423
 H770 H 0.36847 0.94948 0.22935
 H771 H 0.41412 0.91686 0.19748
 H772 H 0.45223 0.87272 0.29240
 C773 C 0.59849 0.09315 0.29450
 C774 C 0.62079 0.07001 0.27698
 C775 C 0.61827 0.06765 0.24104
 C776 C 0.59166 0.08609 0.22331
 C777 C 0.56786 0.10749 0.24133
 C778 C 0.57242 0.11184 0.27682
 H779 H 0.59998 0.09542 0.32220
 H780 H 0.63492 0.04963 0.22709
 H781 H 0.58821 0.08206 0.19598
 H782 H 0.55424 0.12812 0.29117
 C783 C 0.38436 0.06975 0.75874
 C784 C 0.38214 0.07193 0.72277
 C785 C 0.40483 0.09475 0.70528
 C786 C 0.43090 0.11337 0.72307
 C787 C 0.43508 0.10923 0.75864
 C788 C 0.41099 0.08805 0.77657
 H789 H 0.36737 0.05200 0.77268
 H790 H 0.40355 0.09693 0.67757
 H791 H 0.44932 0.12946 0.70879
 H792 H 0.41416 0.08414 0.80394
 C793 C 0.59394 0.70656 0.09077
 C794 C 0.61639 0.72401 0.06774
 C795 C 0.61477 0.76013 0.06592
 C796 C 0.58895 0.77819 0.08486
 C797 C 0.56508 0.76032 0.10627
 C798 C 0.56869 0.72456 0.10998
 H799 H 0.59479 0.67873 0.09271
 H800 H 0.63161 0.77407 0.04807
 H801 H 0.58620 0.80573 0.08130
 H802 H 0.55042 0.71032 0.12625
 C803 C 0.38373 0.23961 0.06854
 C804 C 0.38173 0.27570 0.07077
 C805 C 0.40384 0.29306 0.09432
 C806 C 0.42932 0.27509 0.11347
 C807 C 0.43347 0.23945 0.10920
 C808 C 0.40975 0.22159 0.08745
 H809 H 0.36719 0.22574 0.05028
 H810 H 0.40271 0.32086 0.09658
 H811 H 0.44749 0.28932 0.12999
 H812 H 0.41291 0.19415 0.08346
 C813 C 0.61854 0.23994 0.93391
 C814 C 0.62061 0.27599 0.93131
 C815 C 0.59872 0.29311 0.90740
 C816 C 0.57333 0.27495 0.88829
 C817 C 0.56909 0.23938 0.89294
 C818 C 0.59262 0.22172 0.91501
 H819 H 0.63491 0.22627 0.95246
 H820 H 0.59991 0.32088 0.90486
 H821 H 0.55529 0.28901 0.87152
 H822 H 0.58938 0.19433 0.91926
 C823 C 0.40423 0.70631 0.90737
 C824 C 0.38191 0.72374 0.93051
 C825 C 0.38355 0.75987 0.93232
 C826 C 0.40931 0.77795 0.91330
 C827 C 0.43311 0.76010 0.89180
 C828 C 0.42941 0.72433 0.88806
 H829 H 0.40337 0.67849 0.90544
 H830 H 0.36681 0.77379 0.95026
 H831 H 0.41213 0.80547 0.91692
 H832 H 0.44762 0.71010 0.87174
 C833 C 0.70177 0.90811 0.40769
 C834 C 0.72219 0.92932 0.38608
 C835 C 0.75977 0.92894 0.38898
 C836 C 0.77642 0.90955 0.41488
 C837 C 0.75570 0.88975 0.43758
 C838 C 0.71838 0.88839 0.43304
 H839 H 0.67277 0.90787 0.40586
 H840 H 0.77602 0.94537 0.37282
 H841 H 0.80520 0.91138 0.41835
 H842 H 0.70193 0.87339 0.45038
 C843 C 0.29753 0.91078 0.59354
 C844 C 0.27727 0.93269 0.61458
 C845 C 0.23969 0.93261 0.61150
 C846 C 0.22295 0.91282 0.58591
 C847 C 0.24359 0.89241 0.56368
 C848 C 0.28084 0.89074 0.56847
 H849 H 0.32652 0.91022 0.59554
 H850 H 0.22356 0.94953 0.62726
 H851 H 0.19421 0.91481 0.58226
 H852 H 0.29722 0.87527 0.55149
 C853 C 0.29916 0.09003 0.40981
 C854 C 0.27969 0.06840 0.38766
 C855 C 0.24206 0.06794 0.38966
 C856 C 0.22442 0.08710 0.41502
 C857 C 0.24418 0.10754 0.43809
 C858 C 0.28156 0.10953 0.43463
 H859 H 0.32818 0.09093 0.40873
 H860 H 0.22651 0.05117 0.37310
 H861 H 0.19561 0.08477 0.41766
 H862 H 0.29729 0.12502 0.45227
 C863 C 0.70158 0.08793 0.58846
 C864 C 0.72102 0.06835 0.61248
 C865 C 0.75870 0.06994 0.61229
 C866 C 0.77655 0.08884 0.58685
 C867 C 0.75689 0.10675 0.56174
 C868 C 0.71934 0.10698 0.56342
 H869 H 0.67253 0.08738 0.58815
 H870 H 0.77429 0.05491 0.63038
 H871 H 0.80556 0.08806 0.58567
 H872 H 0.70373 0.12057 0.54420
 C873 C 0.92737 0.61270 0.24732
 C874 C 0.92598 0.61621 0.28319
 C875 C 0.90141 0.59634 0.30189
 C876 C 0.88027 0.57175 0.28539
 C877 C 0.88362 0.56622 0.24995
 C878 C 0.90657 0.58752 0.23082
 H879 H 0.94645 0.62750 0.23248
 H880 H 0.89982 0.59870 0.32956
 H881 H 0.86287 0.55547 0.30061
 H882 H 0.90998 0.58325 0.20354
 C883 C 0.90559 0.40910 0.70321
 C884 C 0.93029 0.38769 0.72012
 C885 C 0.93358 0.38976 0.75603
 C886 C 0.91445 0.41484 0.77433
 C887 C 0.89130 0.43752 0.75697
 C888 C 0.88614 0.43360 0.72148
 H889 H 0.90248 0.40789 0.67556
 H890 H 0.95275 0.37372 0.76954
 H891 H 0.91923 0.41783 0.80162
 H892 H 0.86855 0.45095 0.70760
 C893 C 0.09735 0.59197 0.70049
 C894 C 0.07357 0.61313 0.71872
 C895 C 0.07160 0.61001 0.75461
 C896 C 0.09110 0.58422 0.77160
 C897 C 0.11336 0.56185 0.75295
 C898 C 0.11719 0.56673 0.71747
 H899 H 0.09936 0.59393 0.67282
 H900 H 0.05308 0.62576 0.76912
 H901 H 0.08735 0.58050 0.79892
 H902 H 0.13410 0.54966 0.70262
 C903 C 0.09282 0.40648 0.29239
 C904 C 0.06739 0.38582 0.27546
 C905 C 0.06308 0.38911 0.23974
 C906 C 0.08195 0.41463 0.22178
 C907 C 0.10574 0.43660 0.23930
 C908 C 0.11187 0.43152 0.27447
 H909 H 0.09675 0.40435 0.31989
 H910 H 0.04336 0.37368 0.22622
 H911 H 0.07655 0.41850 0.19471
 H912 H 0.13001 0.44830 0.28842
   
