data_POSCAR
  _audit_creation_date              2014-09-24
  _audit_creation_method            'ToBaCCo'
  _symmetry_space_group_name_H-M    'P1'
  _symmetry_Int_Tables_number       1
  _symmetry_cell_setting            triclinic
  loop_
  _symmetry_equiv_pos_as_xyz
 x,y,z
_cell_length_a 21.3753
_cell_length_b 21.3752
_cell_length_c 21.4228
_cell_angle_alpha 90.144500
_cell_angle_beta 90.144500
_cell_angle_gamma 90.000000
loop_
  _atom_site_label
  _atom_site_type_symbol
  _atom_site_fract_x
  _atom_site_fract_y
  _atom_site_fract_z
O1 O 0.44043 0.94754 -0.55999
 O2 O 0.56228 0.94740 -0.43838
 O3 O 0.44041 0.94863 -0.43847
 O4 O 0.56218 0.94875 -0.56003
 O5 O 0.56208 1.05222 -0.55953
 O6 O 0.44055 1.05209 -0.43821
 O7 O 0.56241 1.05085 -0.43789
 O8 O 0.44033 1.05101 -0.55974
 Cu9 Cu 0.50136 0.93764 -0.49923
 Cu10 Cu 0.50137 1.06198 -0.49878
 C11 C 0.41982 0.99922 -0.58043
 C12 C 0.58293 0.99902 -0.41755
 C13 C 0.41990 1.00042 -0.41789
 C14 C 0.58257 1.00058 -0.58036
 O15 O -0.56309 1.43900 0.05083
 O16 O -0.44112 1.56097 0.05063
 O17 O -0.56297 1.56098 0.05196
 O18 O -0.44125 1.43925 0.05195
 O19 O -0.44147 1.43880 -0.05129
 O20 O -0.56344 1.56077 -0.05125
 O21 O -0.44161 1.56052 -0.05261
 O22 O -0.56333 1.43880 -0.05239
 Cu23 Cu -0.50213 1.50009 0.06175
 Cu24 Cu -0.50256 1.49969 -0.06229
 C25 C -0.58373 1.41825 -0.00083
 C26 C -0.42073 1.58124 -0.00110
 C27 C -0.58372 1.58153 0.00044
 C28 C -0.42073 1.41853 0.00040
 O29 O -0.05218 0.44019 0.44002
 O30 O -0.05232 0.56205 0.56161
 O31 O -0.05097 0.56193 0.43996
 O32 O -0.05109 0.44018 0.56155
 O33 O 0.05238 0.44032 0.56180
 O34 O 0.05250 0.56183 0.44046
 O35 O 0.05113 0.56218 0.56210
 O36 O 0.05128 0.44008 0.44027
 Cu37 Cu -0.06208 0.50112 0.50077
 Cu38 Cu 0.06226 0.50113 0.50122
 C39 C -0.00051 0.41957 0.41958
 C40 C -0.00070 0.58270 0.58243
 C41 C 0.00086 0.58232 0.41963
 C42 C 0.00070 0.41968 0.58212
 O43 O -0.08467 0.99771 -0.16085
 O44 O -0.08421 1.00210 0.16017
 O45 O -0.16079 0.91529 -0.00253
 O46 O -0.16079 1.08447 0.00169
 O47 O -0.08461 1.16076 0.00189
 O48 O -0.08462 0.83900 -0.00252
 O49 O -0.16064 1.00199 0.08411
 O50 O -0.16085 0.99777 -0.08492
 Zr51 Zr -0.10989 0.99988 -0.00036
 O52 O -0.05664 1.05677 0.05646
 O53 O -0.05676 0.94302 -0.05705
 C54 C -0.14259 0.99687 -0.14270
 C55 C -0.14218 1.00291 0.14193
 C56 C -0.14255 0.85735 -0.00341
 C57 C -0.14254 1.14241 0.00263
 H58 H -0.08296 0.91682 0.08256
 O59 O -0.05629 0.94348 0.05597
 H60 H -0.08316 1.08296 -0.08320
 O61 O -0.05643 1.05629 -0.05656
 O62 O 0.08493 0.99806 0.16037
 O63 O 0.08461 1.00173 -0.16060
 O64 O 0.00219 0.83911 0.08409
 O65 O -0.00183 1.16087 0.08447
 O66 O 0.00200 1.16069 -0.08441
 O67 O -0.00202 0.83891 -0.08493
 O68 O 0.16099 0.91516 0.00187
 O69 O 0.16099 1.08460 -0.00191
 O70 O 0.08469 0.83897 0.00168
 O71 O 0.08468 1.16078 -0.00191
 O72 O 0.00235 0.91553 0.16016
 O73 O -0.00206 0.91510 -0.16086
 O74 O 0.00196 1.08438 -0.16060
 O75 O -0.00169 1.08468 0.16038
 O76 O 0.16112 0.99797 0.08445
 O77 O 0.16092 1.00179 -0.08442
 Zr78 Zr 0.00028 1.00003 0.10946
 Zr79 Zr 0.00001 0.99978 -0.10995
 Zr80 Zr 0.00008 0.88986 -0.00036
 Zr81 Zr 0.00008 1.10989 -0.00006
 Zr82 Zr 0.11014 0.99988 -0.00007
 O83 O 0.05685 1.05663 -0.05672
 O84 O 0.05699 0.94313 0.05643
 C85 C 0.14285 0.99718 0.14222
 C86 C 0.14257 1.00259 -0.14225
 C87 C 0.00314 0.85756 0.14191
 C88 C -0.00259 1.14260 0.14224
 C89 C 0.00281 1.14234 -0.14224
 C90 C -0.00290 0.85718 -0.14271
 C91 C 0.14264 0.85723 0.00261
 C92 C 0.14263 1.14253 -0.00273
 H93 H 0.08318 0.91662 -0.08319
 O94 O 0.05651 0.94335 -0.05654
 H95 H 0.08340 1.08318 0.08298
 O96 O 0.05668 1.05645 0.05626
 C97 C 0.28503 0.99745 0.28454
 C98 C 0.22179 0.99693 0.30116
 C99 C 0.17551 0.99641 0.25495
 C100 C 0.37241 0.99896 0.37211
 C101 C 0.25575 0.99660 0.17515
 C102 C 0.30191 0.99713 0.22149
 C103 C 0.33259 0.99836 0.33219
 C104 C 0.19191 0.99643 0.19130
 H105 H 0.20822 0.99710 0.34986
 H106 H 0.12694 0.99626 0.26918
 H107 H 0.27017 0.99661 0.12673
 H108 H 0.35077 0.99744 0.20813
 C109 C -0.28361 1.00261 0.28431
 C110 C -0.22028 1.00345 0.30087
 C111 C -0.17427 1.00400 0.25463
 C112 C -0.37037 1.00094 0.37206
 C113 C -0.25495 1.00323 0.17487
 C114 C -0.30085 1.00268 0.22126
 C115 C -0.33085 1.00162 0.33203
 C116 C -0.19103 1.00370 0.19099
 H117 H -0.20643 1.00349 0.34956
 H118 H -0.12563 1.00439 0.26885
 H119 H -0.26963 1.00300 0.12646
 H120 H -0.34978 1.00212 0.20793
 C121 C -0.28482 0.99710 -0.28503
 C122 C -0.30168 0.99682 -0.22198
 C123 C -0.25552 0.99629 -0.17563
 C124 C -0.37222 0.99869 -0.37262
 C125 C -0.17529 0.99600 -0.25544
 C126 C -0.22157 0.99653 -0.30165
 C127 C -0.33238 0.99805 -0.33268
 C128 C -0.19167 0.99607 -0.19178
 H129 H -0.35053 0.99717 -0.20861
 H130 H -0.26993 0.99634 -0.12721
 H131 H -0.12671 0.99581 -0.26967
 H132 H -0.20801 0.99666 -0.35035
 C133 C 0.28484 1.00223 -0.28379
 C134 C 0.22160 1.00251 -0.30078
 C135 C 0.17527 1.00306 -0.25483
 C136 C 0.37241 1.00069 -0.37074
 C137 C 0.25546 1.00338 -0.17458
 C138 C 0.30165 1.00283 -0.22064
 C139 C 0.33248 1.00130 -0.33112
 C140 C 0.19162 1.00331 -0.19109
 H141 H 0.20808 1.00214 -0.34956
 H142 H 0.12670 1.00302 -0.26933
 H143 H 0.26985 1.00360 -0.12608
 H144 H 0.35050 1.00271 -0.20698
 C145 C 0.28448 1.28525 -0.00243
 C146 C 0.30153 1.22205 -0.00264
 C147 C 0.25549 1.17557 -0.00315
 C148 C 0.37158 1.37315 -0.00103
 C149 C 0.17504 1.25552 -0.00357
 C150 C 0.22118 1.30186 -0.00305
 C151 C 0.33190 1.33306 -0.00158
 C152 C 0.19160 1.19173 -0.00344
 H153 H 0.35042 1.20867 -0.00224
 H154 H 0.27004 1.12704 -0.00306
 H155 H 0.12643 1.26977 -0.00382
 H156 H 0.20747 1.35066 -0.00299
 C157 C 0.28450 0.71452 0.00227
 C158 C 0.30154 0.77772 0.00263
 C159 C 0.25550 0.82420 0.00318
 C160 C 0.37159 0.62662 0.00073
 C161 C 0.17505 0.74424 0.00334
 C162 C 0.22120 0.69791 0.00279
 C163 C 0.33191 0.66671 0.00135
 C164 C 0.19162 0.80804 0.00335
 H165 H 0.35043 0.79110 0.00232
 H166 H 0.27005 0.87273 0.00320
 H167 H 0.12644 0.72998 0.00349
 H168 H 0.20749 0.64911 0.00261
 C169 C -0.28522 0.71553 -0.00317
 C170 C -0.30185 0.77882 -0.00385
 C171 C -0.25552 0.82496 -0.00439
 C172 C -0.37309 0.62847 -0.00149
 C173 C -0.17556 0.74450 -0.00393
 C174 C -0.22203 0.69847 -0.00339
 C175 C -0.33301 0.66813 -0.00218
 C176 C -0.19173 0.80839 -0.00423
 H177 H -0.35065 0.79252 -0.00378
 H178 H -0.26978 0.87357 -0.00465
 H179 H -0.12703 0.72996 -0.00381
 H180 H -0.20865 0.64958 -0.00295
 C181 C -0.28521 1.28424 0.00230
 C182 C -0.22201 1.30129 0.00266
 C183 C -0.17554 1.25526 0.00321
 C184 C -0.37308 1.37131 0.00071
 C185 C -0.25551 1.17481 0.00337
 C186 C -0.30184 1.22095 0.00282
 C187 C -0.33300 1.33164 0.00135
 C188 C -0.19172 1.19138 0.00338
 H189 H -0.20864 1.35018 0.00234
 H190 H -0.12702 1.26980 0.00322
 H191 H -0.26977 1.12620 0.00352
 H192 H -0.35064 1.20724 0.00263
 C193 C -0.00229 1.28478 0.28456
 C194 C -0.00263 1.30166 0.22151
 C195 C -0.00316 1.25550 0.17516
 C196 C -0.00076 1.37216 0.37212
 C197 C -0.00334 1.17526 0.25496
 C198 C -0.00280 1.22154 0.30117
 C199 C -0.00137 1.33233 0.33220
 C200 C -0.00333 1.19166 0.19132
 H201 H -0.00231 1.35051 0.20814
 H202 H -0.00317 1.26992 0.12674
 H203 H -0.00349 1.12668 0.26919
 H204 H -0.00263 1.20797 0.34987
 C205 C 0.00250 1.28462 -0.28376
 C206 C 0.00274 1.22139 -0.30076
 C207 C 0.00327 1.17505 -0.25482
 C208 C 0.00097 1.37219 -0.37072
 C209 C 0.00367 1.25523 -0.17456
 C210 C 0.00313 1.30143 -0.22062
 C211 C 0.00158 1.33226 -0.33109
 C212 C 0.00355 1.19140 -0.19108
 H213 H 0.00234 1.20787 -0.34954
 H214 H 0.00319 1.12649 -0.26932
 H215 H 0.00391 1.26962 -0.12605
 H216 H 0.00305 1.35027 -0.20696
 C217 C -0.00262 0.71497 -0.28506
 C218 C -0.00325 0.77821 -0.30167
 C219 C -0.00379 0.82449 -0.25545
 C220 C -0.00103 0.62756 -0.37264
 C221 C -0.00342 0.74426 -0.17565
 C222 C -0.00288 0.69810 -0.22200
 C223 C -0.00167 0.66740 -0.33271
 C224 C -0.00369 0.80810 -0.19180
 H225 H -0.00314 0.79178 -0.35037
 H226 H -0.00401 0.87307 -0.26968
 H227 H -0.00335 0.72984 -0.12723
 H228 H -0.00249 0.64924 -0.20864
 C229 C 0.00288 0.71614 0.28429
 C230 C 0.00293 0.69890 0.22124
 C231 C 0.00347 0.74479 0.17486
 C232 C 0.00122 0.62938 0.37205
 C233 C 0.00426 0.82547 0.25462
 C234 C 0.00371 0.77947 0.30086
 C235 C 0.00190 0.66890 0.33202
 C236 C 0.00394 0.80872 0.19097
 H237 H 0.00237 0.64997 0.20792
 H238 H 0.00323 0.73012 0.12644
 H239 H 0.00465 0.87412 0.26883
 H240 H 0.00377 0.79332 0.34955
   
