data_POSCAR
  _audit_creation_date              2014-09-24
  _audit_creation_method            'ToBaCCo'
  _symmetry_space_group_name_H-M    'P1'
  _symmetry_Int_Tables_number       1
  _symmetry_cell_setting            triclinic
  loop_
  _symmetry_equiv_pos_as_xyz
 x,y,z
_cell_length_a 25.6127
_cell_length_b 25.6776
_cell_length_c 25.6437
_cell_angle_alpha 101.068200
_cell_angle_beta 79.482800
_cell_angle_gamma 80.424500
loop_
  _atom_site_label
  _atom_site_type_symbol
  _atom_site_fract_x
  _atom_site_fract_y
  _atom_site_fract_z
C1 C 0.52546 0.48519 0.00019
 C2 C 0.48522 0.52557 -0.00365
 C3 C 0.42891 0.51748 -0.00427
 C4 C 0.49387 0.58114 -0.00636
 C5 C 0.58177 0.49269 0.00187
 C6 C 0.51630 0.42980 0.00236
 C7 C 0.41820 0.47471 -0.04122
 C8 C 0.36463 0.46979 -0.04193
 C9 C 0.32033 0.50903 -0.00732
 C10 C 0.33178 0.55222 0.02899
 C11 C 0.38509 0.55590 0.03082
 C12 C 0.47470 0.60558 -0.04574
 C13 C 0.47710 0.65935 -0.04623
 C14 C 0.49991 0.68952 -0.00816
 C15 C 0.52035 0.66501 0.03053
 C16 C 0.51631 0.61160 0.03218
 C17 C 0.60687 0.47352 0.04093
 C18 C 0.66103 0.47519 0.04083
 C19 C 0.69104 0.49730 0.00250
 C20 C 0.66599 0.51760 -0.03598
 C21 C 0.61212 0.51425 -0.03707
 C22 C 0.47574 0.42090 0.04268
 C23 C 0.47055 0.36792 0.04532
 C24 C 0.50689 0.32320 0.00876
 C25 C 0.54731 0.33238 -0.03136
 C26 C 0.55173 0.38502 -0.03469
 H27 H 0.45122 0.44540 -0.06993
 H28 H 0.35824 0.43604 -0.07088
 H29 H 0.29964 0.58340 0.05676
 H30 H 0.39220 0.58944 0.05950
 H31 H 0.45683 0.58318 -0.07562
 H32 H 0.46122 0.67739 -0.07651
 H33 H 0.52978 0.59446 0.06407
 H34 H 0.58461 0.45635 0.07116
 H35 H 0.67945 0.45948 0.07100
 H36 H 0.68867 0.53427 -0.06635
 H37 H 0.59452 0.52767 -0.06875
 H38 H 0.44873 0.45483 0.07248
 H39 H 0.43930 0.36191 0.07689
 H40 H 0.57563 0.29874 -0.06035
 H41 H 0.58343 0.39091 -0.06593
 H42 H 0.53754 0.68786 0.06071
 C43 C 0.00096 0.51385 0.51633
 C44 C -0.00154 0.47251 0.47513
 C45 C -0.00324 0.41688 0.48336
 C46 C -0.00237 0.47972 0.41891
 C47 C 0.00245 0.56982 0.50897
 C48 C 0.00272 0.50612 0.57207
 C49 C 0.03360 0.37249 0.44714
 C50 C 0.03087 0.31962 0.45118
 C51 C -0.00850 0.30981 0.49192
 C52 C -0.04496 0.35419 0.52888
 C53 C -0.04283 0.40732 0.52417
 C54 C -0.04085 0.45972 0.39244
 C55 C -0.04104 0.46329 0.33888
 C56 C -0.00349 0.48800 0.31102
 C57 C 0.03483 0.50848 0.33734
 C58 C 0.03618 0.50329 0.39044
 C59 C -0.03633 0.59850 0.48676
 C60 C -0.03514 0.65195 0.48288
 C61 C 0.00338 0.67821 0.50321
 C62 C 0.04153 0.64987 0.52605
 C63 C 0.04144 0.59609 0.52835
 C64 C -0.03372 0.54244 0.61687
 C65 C -0.02967 0.54016 0.66984
 C66 C 0.01056 0.50103 0.67927
 C67 C 0.04632 0.46366 0.63455
 C68 C 0.04294 0.46668 0.58128
 H69 H 0.06430 0.37884 0.41522
 H70 H 0.05977 0.28634 0.42232
 H71 H -0.07600 0.34778 0.56040
 H72 H -0.07253 0.44084 0.55178
 H73 H -0.07068 0.44095 0.41326
 H74 H -0.07094 0.44721 0.31935
 H75 H 0.06748 0.51733 0.40911
 H76 H -0.06783 0.57981 0.47305
 H77 H -0.06537 0.67337 0.46567
 H78 H 0.07170 0.66926 0.54182
 H79 H 0.07154 0.57503 0.54597
 H80 H -0.06484 0.57336 0.61072
 H81 H -0.05809 0.56916 0.70350
 H82 H 0.07791 0.43330 0.64075
 H83 H 0.07237 0.43912 0.54737
 H84 H 0.06472 0.52696 0.31622
 C85 C 0.51364 0.00096 0.48467
 C86 C 0.47243 -0.00016 0.52637
 C87 C 0.47981 -0.00062 0.58282
 C88 C 0.41655 -0.00142 0.51808
 C89 C 0.50507 0.00160 0.42882
 C90 C 0.57015 0.00205 0.49127
 C91 C 0.50610 0.03595 0.61077
 C92 C 0.51191 0.03432 0.66375
 C93 C 0.48865 -0.00172 0.69128
 C94 C 0.46072 -0.03688 0.66370
 C95 C 0.45717 -0.03688 0.61008
 C96 C 0.40637 -0.04197 0.47819
 C97 C 0.35304 -0.04386 0.47354
 C98 C 0.30907 -0.00619 0.50971
 C99 C 0.31947 0.03417 0.54954
 C100 C 0.37259 0.03665 0.55348
 C101 C 0.46620 0.04212 0.41923
 C102 C 0.46282 0.04464 0.36581
 C103 C 0.49927 0.00768 0.32127
 C104 C 0.53768 -0.03298 0.33107
 C105 C 0.54029 -0.03617 0.38420
 C106 C 0.59726 0.03877 0.46915
 C107 C 0.65133 0.03859 0.47085
 C108 C 0.67947 0.00281 0.49647
 C109 C 0.65198 -0.03344 0.51956
 C110 C 0.59845 -0.03488 0.51553
 H111 H 0.52213 0.06584 0.59171
 H112 H 0.53301 0.06268 0.68369
 H113 H 0.44232 -0.06540 0.68304
 H114 H 0.43628 -0.06527 0.58981
 H115 H 0.43957 -0.07261 0.45131
 H116 H 0.34615 -0.07566 0.44276
 H117 H 0.37947 0.06805 0.58471
 H118 H 0.43948 0.07252 0.45294
 H119 H 0.43303 0.07658 0.35935
 H120 H 0.56597 -0.06231 0.29758
 H121 H 0.57076 -0.06755 0.39061
 H122 H 0.57658 0.06746 0.44985
 H123 H 0.67064 0.06735 0.45280
 H124 H 0.67234 -0.06216 0.53901
 H125 H 0.57928 -0.06497 0.53116
 H126 H 0.28646 0.06397 0.57776
 O127 O 0.45339 0.00994 -0.05769
 O128 O 0.45322 0.02433 0.08807
 O129 O 0.45428 0.09028 0.02188
 O130 O 0.45499 -0.05583 0.00770
 O131 O 0.54472 -0.07405 -0.01236
 O132 O 0.54400 0.07113 0.00244
 O133 O 0.54294 0.00446 0.06775
 O134 O 0.54310 -0.00616 -0.07767
 Cu135 Cu 0.44494 0.01912 0.01702
 Cu136 Cu 0.55268 -0.00304 -0.00701
 C137 C 0.49812 0.00035 -0.09227
 C138 C 0.49812 0.01571 0.10254
 C139 C 0.49935 0.10531 0.01387
 C140 C 0.50006 -0.08962 -0.00406
 O141 O -0.07301 0.54317 1.01025
 O142 O 0.07154 0.54403 1.00153
 O143 O 0.00702 0.54298 0.93309
 O144 O -0.00753 0.54148 1.07828
 O145 O 0.01178 0.45182 1.05625
 O146 O 0.02654 0.45332 0.91115
 O147 O 0.09204 0.45441 0.97811
 O148 O -0.05386 0.45350 0.98977
 Cu149 Cu -0.00245 0.55190 1.00797
 Cu150 Cu 0.02114 0.44424 0.98166
 C151 C -0.08804 0.49827 1.00104
 C152 C 0.10630 0.49969 0.98882
 C153 C 0.01844 0.49847 0.89756
 C154 C 0.00027 0.49625 1.09183
 O155 O 0.00682 -0.08754 0.45558
 O156 O 0.00114 0.05613 0.45503
 O157 O 0.07693 -0.02369 0.45693
 O158 O -0.06885 -0.00660 0.45585
 O159 O -0.08860 0.00741 0.54568
 O160 O 0.05512 0.00307 0.54673
 O161 O -0.02536 0.07834 0.54480
 O162 O -0.00736 -0.06732 0.54544
 Cu163 Cu 0.00615 -0.01763 0.44676
 Cu164 Cu -0.01869 0.00761 0.55476
 C165 C 0.00106 -0.10195 0.50057
 C166 C -0.01343 0.09175 0.49957
 C167 C 0.09055 -0.01147 0.50225
 C168 C -0.10319 0.00152 0.50061
 N169 N -0.21877 0.45493 1.01194
 C170 C -0.25140 0.49773 1.00214
 N171 N -0.23010 0.54085 0.99242
 N172 N -0.17821 0.54125 0.99285
 C173 C -0.14555 0.49829 1.00229
 N174 N -0.16669 0.45498 1.01156
 N175 N 0.25587 0.46249 0.96001
 C176 C 0.26825 0.50611 0.99109
 N177 N 0.22660 0.54723 1.02070
 N178 N 0.17535 0.54518 1.01919
 C179 C 0.16326 0.50154 0.98857
 N180 N 0.20439 0.46002 0.95913
 N181 N 0.01478 -0.23088 0.54417
 C182 C 0.00317 -0.26462 0.50213
 N183 N -0.00850 -0.24471 0.45928
 N184 N -0.00829 -0.19302 0.45844
 C185 C 0.00293 -0.15925 0.50069
 N186 N 0.01422 -0.17902 0.54369
 N187 N 0.00951 0.21245 0.44944
 C188 C -0.01166 0.25330 0.49443
 N189 N -0.03480 0.24086 0.54133
 N190 N -0.03599 0.18948 0.54319
 C191 C -0.01460 0.14878 0.49805
 N192 N 0.00795 0.16129 0.45117
 N193 N 0.52690 0.02384 -0.23070
 C194 C 0.49223 -0.00220 -0.25465
 N195 N 0.46048 -0.02836 -0.22477
 N196 N 0.46255 -0.02778 -0.17315
 C197 C 0.49746 -0.00211 -0.14966
 N198 N 0.52980 0.02348 -0.17938
 N199 N 0.54470 -0.00766 0.22489
 C200 C 0.49877 0.01184 0.26466
 N201 N 0.45272 0.03433 0.25107
 N202 N 0.45251 0.03635 0.19951
 C203 C 0.49851 0.01663 0.15984
 N204 N 0.54462 -0.00519 0.17354
 N205 N 0.54364 -0.23177 0.00230
 C206 C 0.50049 -0.25313 -0.00788
 N207 N 0.45749 -0.22060 -0.01757
 N208 N 0.45734 -0.16851 -0.01654
 C209 C 0.50064 -0.14727 -0.00673
 N210 N 0.54384 -0.17986 0.00251
 N211 N 0.45694 0.25358 0.03341
 C212 C 0.50433 0.26696 0.01257
 N213 N 0.54979 0.22717 -0.00613
 N214 N 0.54806 0.17604 -0.00449
 C215 C 0.50073 0.16249 0.01561
 N216 N 0.45510 0.20217 0.03461
 N217 N -0.24132 -0.02337 0.53113
 C218 C -0.26600 0.00299 0.49810
 N219 N -0.23648 0.02932 0.46625
 N220 N -0.18451 0.02877 0.46684
 C221 C -0.16035 0.00286 0.50026
 N222 N -0.18966 -0.02298 0.53257
 N223 N 0.23960 -0.03323 0.46062
 C224 C 0.25239 -0.00920 0.50732
 N225 N 0.21179 0.01279 0.55219
 N226 N 0.16049 0.01111 0.55053
 C227 C 0.14763 -0.01235 0.50383
 N228 N 0.18809 -0.03451 0.45881
 N229 N -0.01353 0.44883 1.21910
 C230 C -0.00351 0.49086 1.25420
 N231 N 0.00673 0.53517 1.23588
 N232 N 0.00680 0.53739 1.18436
 C233 C -0.00272 0.49511 1.14919
 N234 N -0.01267 0.45072 1.16742
 N235 N 0.03699 0.45397 0.74886
 C236 C 0.01523 0.50035 0.73568
 N237 N -0.00348 0.54629 0.77577
 N238 N -0.00103 0.54588 0.82708
 C239 C 0.01998 0.49942 0.84036
 N240 N 0.03900 0.45344 0.80035
   
