data_POSCAR
  _audit_creation_date              2014-09-24
  _audit_creation_method            'ToBaCCo'
  _symmetry_space_group_name_H-M    'P1'
  _symmetry_Int_Tables_number       1
  _symmetry_cell_setting            triclinic
  loop_
  _symmetry_equiv_pos_as_xyz
 x,y,z
_cell_length_a 57.8862
_cell_length_b 57.9322
_cell_length_c 15.9667
_cell_angle_alpha 90.076200
_cell_angle_beta 90.001200
_cell_angle_gamma 119.887000
loop_
  _atom_site_label
  _atom_site_type_symbol
  _atom_site_fract_x
  _atom_site_fract_y
  _atom_site_fract_z
C1 C 0.22706 0.49638 0.45754
 C2 C 0.22711 0.49621 0.54609
 C3 C 0.24832 0.49646 0.58942
 C4 C 0.26949 0.49686 0.54561
 C5 C 0.26941 0.49704 0.45727
 C6 C 0.24826 0.49680 0.41390
 H7 H 0.24835 0.49692 0.34591
 H8 H 0.24834 0.49634 0.65745
 C9 C 0.50332 -0.26949 0.45502
 C10 C 0.50319 -0.26951 0.54337
 C11 C 0.50346 -0.24842 0.58726
 C12 C 0.50392 -0.22716 0.54398
 C13 C 0.50405 -0.22714 0.45559
 C14 C 0.50374 -0.24827 0.41173
 H15 H 0.50385 -0.24813 0.34375
 H16 H 0.50335 -0.24857 0.65523
 C17 C 1.26834 0.77425 0.45221
 C18 C 1.26815 0.77418 0.54059
 C19 C 1.24715 0.75319 0.58388
 C20 C 1.22626 0.73223 0.54009
 C21 C 1.22644 0.73230 0.45186
 C22 C 1.24743 0.75326 0.40845
 H23 H 1.24745 0.75317 0.34046
 H24 H 1.24707 0.75316 0.65182
 C25 C 0.77271 0.50272 0.46026
 C26 C 0.77265 0.50265 0.54861
 C27 C 0.75172 0.50285 0.59217
 C28 C 0.73087 0.50316 0.54846
 C29 C 0.73097 0.50323 0.46007
 C30 C 0.75187 0.50299 0.41666
 H31 H 0.75193 0.50306 0.34872
 H32 H 0.75167 0.50279 0.66019
 C33 C 0.49644 0.26904 0.45998
 C34 C 0.49622 0.26901 0.54837
 C35 C 0.49648 0.24817 0.59215
 C36 C 0.49695 0.22736 0.54869
 C37 C 0.49719 0.22744 0.46034
 C38 C 0.49696 0.24827 0.41664
 H39 H 0.49713 0.24829 0.34869
 H40 H 0.49630 0.24813 0.66016
 C41 C 0.72975 0.22895 0.45678
 C42 C 0.72982 0.22883 0.54502
 C43 C 0.75079 0.24971 0.58893
 C44 C 0.77175 0.27074 0.54557
 C45 C 0.77167 0.27084 0.45719
 C46 C 0.75066 0.24996 0.41340
 H47 H 0.75063 0.25003 0.34545
 H48 H 0.75078 0.24952 0.65691
 O49 O 0.96353 0.44172 0.15476
 O50 O 0.93391 0.44712 0.07300
 C51 C 0.93959 0.43554 0.13229
 O52 O 1.03778 0.56042 0.14402
 O53 O 1.06710 0.55300 0.06757
 C54 C 1.06163 0.56620 0.12185
 O55 O 0.96315 0.52137 0.15199
 O56 O 0.93373 0.48578 0.07206
 C57 C 0.93927 0.50340 0.13013
 O58 O 1.03806 0.47678 0.14567
 O59 O 1.06724 0.51318 0.06838
 C60 C 1.06190 0.49478 0.12347
 Zr61 Zr 1.00059 0.47049 0.10365
 O62 O 1.00148 0.46771 0.23553
 O63 O 0.99975 0.43380 0.08983
 Zr64 Zr 1.00039 0.52885 0.10385
 O65 O 1.00309 0.53045 0.23619
 O66 O 0.99741 0.56384 0.10176
 O67 O 0.97683 0.48786 0.12056
 O68 O 1.02358 0.51126 0.11920
 O69 O 1.03771 0.47593 -0.14696
 O70 O 1.06707 0.51300 -0.07204
 C71 C 1.06157 0.49417 -0.12572
 O72 O 0.96285 0.52085 -0.15547
 O73 O 0.93359 0.48556 -0.07447
 C74 C 0.93902 0.50299 -0.13292
 O75 O 1.03747 0.56016 -0.14829
 O76 O 1.06696 0.55289 -0.07239
 C77 C 1.06139 0.56601 -0.12670
 O78 O 0.96302 0.44054 -0.15483
 O79 O 0.93368 0.44678 -0.07437
 C80 C 0.93916 0.43468 -0.13265
 Zr81 Zr 1.00030 0.47025 -0.10701
 O82 O 1.00314 0.47136 -0.23930
 O83 O 0.99783 0.43255 -0.10464
 Zr84 Zr 1.00016 0.52857 -0.10749
 O85 O 1.00299 0.53004 -0.23976
 O86 O 0.99712 0.56350 -0.10586
 Zr87 Zr 0.96045 0.47962 -0.00126
 Zr88 Zr 1.04003 0.51944 -0.00192
 O89 O 1.02333 0.51095 -0.12288
 O90 O 0.97642 0.48750 -0.12348
 O91 O 1.02436 0.47790 -0.00173
 O92 O 0.97702 0.52126 -0.00165
 O93 O 0.97703 0.45451 -0.00124
 O94 O 1.02408 0.54516 -0.00202
 H95 H 1.03566 0.51741 0.16829
 H96 H 0.96496 0.52880 -0.00167
 H97 H 1.03527 0.51688 -0.17225
 H98 H 0.96491 0.43497 -0.00082
 H99 H 1.01293 0.57756 0.07042
 H100 H 1.01233 0.57709 -0.07299
 H101 H 0.98858 0.51289 -0.26156
 H102 H 0.98843 0.47363 -0.26138
 H103 H 1.01192 0.43394 -0.06635
 H104 H 0.99962 0.42735 0.14735
 H105 H 1.00531 0.48509 0.25849
 H106 H 0.98852 0.51338 0.25791
 O107 O 0.52135 0.55807 -0.15535
 O108 O 0.48624 0.55259 -0.07400
 C109 C 0.50360 0.56426 -0.13289
 O110 O 0.47711 0.43929 -0.14672
 O111 O 0.51366 0.44650 -0.06967
 C112 C 0.49511 0.43341 -0.12435
 O113 O 0.44135 0.47839 -0.15421
 O114 O 0.44742 0.51393 -0.07398
 C115 C 0.43537 0.49634 -0.13216
 O116 O 0.56088 0.52320 -0.14681
 O117 O 0.55360 0.48666 -0.07017
 C118 C 0.56672 0.50518 -0.12475
 Zr119 Zr 0.52955 0.52916 -0.10469
 O120 O 0.53330 0.53201 -0.23654
 O121 O 0.56530 0.56582 -0.09030
 Zr122 Zr 0.47114 0.47084 -0.10625
 O123 O 0.47253 0.46955 -0.23861
 O124 O 0.43325 0.43588 -0.10526
 O125 O 0.48850 0.51187 -0.12228
 O126 O 0.51192 0.48841 -0.12085
 O127 O 0.56083 0.52320 0.14638
 O128 O 0.55333 0.48625 0.07097
 C129 C 0.56652 0.50497 0.12512
 O130 O 0.44129 0.47853 0.15302
 O131 O 0.44739 0.51396 0.07249
 C132 C 0.43537 0.49647 0.13070
 O133 O 0.47663 0.43919 0.14577
 O134 O 0.51348 0.44650 0.07041
 C135 C 0.49477 0.43338 0.12450
 O136 O 0.52151 0.55867 0.15428
 O137 O 0.48613 0.55269 0.07334
 C138 C 0.50358 0.56466 0.13198
 Zr139 Zr 0.52924 0.52907 0.10587
 O140 O 0.53100 0.52802 0.23816
 O141 O 0.56441 0.56675 0.10340
 Zr142 Zr 0.47088 0.47080 0.10499
 O143 O 0.47177 0.46886 0.23726
 O144 O 0.43298 0.43588 0.10187
 Zr145 Zr 0.48020 0.51994 -0.00039
 Zr146 Zr 0.52000 0.47999 0.00025
 O147 O 0.51158 0.48835 0.12112
 O148 O 0.48814 0.51183 0.12174
 O149 O 0.54579 0.52153 0.00073
 O150 O 0.45520 0.47830 -0.00083
 O151 O 0.52184 0.54501 0.00031
 O152 O 0.47838 0.45433 -0.00049
 H153 H 0.51793 0.48235 -0.16999
 H154 H 0.43562 0.47078 -0.00097
 H155 H 0.51749 0.48236 0.17062
 H156 H 0.52923 0.56456 0.00024
 H157 H 0.43502 0.42198 -0.07477
 H158 H 0.43476 0.42235 0.06903
 H159 H 0.47465 0.48603 0.25947
 H160 H 0.51374 0.52503 0.26005
 H161 H 0.57721 0.56525 0.06589
 H162 H 0.57151 0.57251 -0.14770
 H163 H 0.51951 0.51479 -0.25965
 H164 H 0.47455 0.48647 -0.26012
 O165 O 0.47886 0.03688 0.15515
 O166 O 0.51389 0.06636 0.07357
 C167 C 0.49658 0.06077 0.13267
 O168 O 0.52353 -0.03742 0.14555
 O169 O 0.48687 -0.06674 0.06928
 C170 C 0.50552 -0.06124 0.12355
 O171 O 0.55883 0.03698 0.15289
 O172 O 0.55267 0.06636 0.07277
 C173 C 0.56473 0.06084 0.13093
 O174 O 0.43943 -0.03763 0.14611
 O175 O 0.44666 -0.06701 0.06923
 C176 C 0.43359 -0.06151 0.12407
 Zr177 Zr 0.47062 -0.00025 0.10430
 O178 O 0.46690 -0.00107 0.23618
 O179 O 0.43481 0.00072 0.09050
 Zr180 Zr 0.52910 -0.00021 0.10477
 O181 O 0.52787 -0.00279 0.23712
 O182 O 0.56702 0.00264 0.10294
 O183 O 0.51168 0.02344 0.12133
 O184 O 0.48834 -0.02334 0.11998
 O185 O 0.43901 -0.03719 -0.14668
 O186 O 0.44653 -0.06663 -0.07171
 C187 C 0.43328 -0.06105 -0.12543
 O188 O 0.55865 0.03695 -0.15454
 O189 O 0.55259 0.06637 -0.07377
 C190 C 0.56459 0.06082 -0.13215
 O191 O 0.52327 -0.03768 -0.14743
 O192 O 0.48655 -0.06702 -0.07149
 C193 C 0.50520 -0.06156 -0.12586
 O194 O 0.47829 0.03716 -0.15409
 O195 O 0.51380 0.06646 -0.07363
 C196 C 0.49624 0.06100 -0.13187
 Zr197 Zr 0.47080 -0.00006 -0.10625
 O198 O 0.46924 -0.00300 -0.23856
 O199 O 0.43565 0.00262 -0.10414
 Zr200 Zr 0.52910 -0.00027 -0.10645
 O201 O 0.52798 -0.00317 -0.23872
 O202 O 0.56701 0.00258 -0.10400
 Zr203 Zr 0.51986 0.03968 -0.00052
 Zr204 Zr 0.48008 -0.03997 -0.00105
 O205 O 0.48837 -0.02329 -0.12193
 O206 O 0.51184 0.02361 -0.12268
 O207 O 0.45432 -0.02406 -0.00106
 O208 O 0.54490 0.02299 -0.00074
 O209 O 0.47823 0.02325 -0.00056
 O210 O 0.52173 -0.02409 -0.00094
 H211 H 0.48242 -0.03533 0.16917
 H212 H 0.56447 0.03499 -0.00071
 H213 H 0.48236 -0.03523 -0.17138
 H214 H 0.47079 0.03539 -0.00022
 H215 H 0.56533 -0.01276 0.07094
 H216 H 0.56522 -0.01290 -0.07239
 H217 H 0.52496 0.01107 -0.26061
 H218 H 0.48611 0.01178 -0.26056
 H219 H 0.42299 -0.01127 -0.06544
 H220 H 0.42864 0.00119 0.14804
 H221 H 0.48064 -0.00463 0.25918
 H222 H 0.52561 0.01198 0.25877
 C223 C 1.20670 0.49616 0.41310
 C224 C 1.18862 0.49597 0.37484
 C225 C 1.16690 0.49579 0.33016
 C226 C 1.15975 0.48433 0.25021
 C227 C 1.13852 0.48405 0.20724
 C228 C 1.12435 0.49521 0.24402
 C229 C 1.13152 0.50668 0.32393
 C230 C 1.15273 0.50697 0.36686
 C231 C 1.10240 0.49487 0.20023
 C232 C 1.08395 0.49473 0.16455
 H233 H 1.17054 0.47561 0.22123
 H234 H 1.13316 0.47511 0.14552
 H235 H 1.12071 0.51537 0.35303
 H236 H 1.15806 0.51587 0.42859
 C237 C 0.50310 0.71012 0.41093
 C238 C 0.50291 0.69185 0.37390
 C239 C 0.50272 0.66979 0.33146
 C240 C 0.48498 0.64363 0.35679
 C241 C 0.48509 0.62218 0.31672
 C242 C 0.50294 0.62678 0.25104
 C243 C 0.52065 0.65293 0.22563
 C244 C 0.52055 0.67438 0.26576
 C245 C 0.50308 0.60473 0.20962
 C246 C 0.50328 0.58637 0.17448
 H247 H 0.47112 0.63984 0.40756
 H248 H 0.47130 0.60206 0.33693
 H249 H 0.53453 0.65674 0.17493
 H250 H 0.53440 0.69451 0.24575
 C251 C 0.28864 -0.20555 0.40833
 C252 C 0.30673 -0.18759 0.37067
 C253 C 0.32853 -0.16600 0.32683
 C254 C 0.32381 -0.15566 0.25361
 C255 C 0.34502 -0.13453 0.21162
 C256 C 0.37104 -0.12363 0.24267
 C257 C 0.37575 -0.13399 0.31585
 C258 C 0.35455 -0.15512 0.35778
 C259 C 0.39291 -0.10178 0.19987
 C260 C 0.41138 -0.08342 0.16478
 H261 H 0.30377 -0.16389 0.22914
 H262 H 0.34114 -0.12667 0.15514
 H263 H 0.39577 -0.12572 0.34051
 H264 H 0.35844 -0.16295 0.41428
 C265 C 0.79403 0.50258 0.41345
 C266 C 0.81207 0.50249 0.37602
 C267 C 0.83382 0.50241 0.33270
 C268 C 0.84338 0.48572 0.35995
 C269 C 0.86477 0.48587 0.31872
 C270 C 0.87673 0.50274 0.25009
 C271 C 0.86714 0.51939 0.22273
 C272 C 0.84574 0.51923 0.26397
 C273 C 0.89884 0.50300 0.20796
 C274 C 0.91734 0.50320 0.17260
 H275 H 0.83434 0.47267 0.41310
 H276 H 0.87202 0.47291 0.34037
 H277 H 0.87624 0.53251 0.16973
 H278 H 0.83854 0.53225 0.24250
 C279 C 0.49607 0.29013 0.41274
 C280 C 0.49576 0.30792 0.37451
 C281 C 0.49548 0.32938 0.33006
 C282 C 0.47957 0.32414 0.25855
 C283 C 0.47922 0.34505 0.21587
 C284 C 0.49479 0.37128 0.24455
 C285 C 0.51066 0.37649 0.31612
 C286 C 0.51099 0.35559 0.35878
 C287 C 0.49448 0.39286 0.20097
 C288 C 0.49448 0.41121 0.16541
 H289 H 0.46743 0.30393 0.23593
 H290 H 0.46683 0.34079 0.16073
 H291 H 0.52273 0.39669 0.33897
 H292 H 0.52330 0.35986 0.41411
 C293 C 0.70844 0.20754 0.41017
 C294 C 0.69040 0.18934 0.37307
 C295 C 0.66867 0.16734 0.33040
 C296 C 0.67369 0.15498 0.26292
 C297 C 0.65256 0.13325 0.22267
 C298 C 0.62634 0.12377 0.24979
 C299 C 0.62131 0.13618 0.31711
 C300 C 0.64243 0.15791 0.35732
 C301 C 0.60460 0.10142 0.20837
 C302 C 0.58638 0.08279 0.17333
 H303 H 0.69390 0.16208 0.24167
 H304 H 0.65667 0.12382 0.17058
 H305 H 0.60111 0.12904 0.33851
 H306 H 0.63832 0.16732 0.40942
 C307 C 0.49708 0.20718 -0.40739
 C308 C 0.49718 0.18906 -0.37070
 C309 C 0.49729 0.16711 -0.32895
 C310 C 0.51040 0.15480 -0.36556
 C311 C 0.51021 0.13319 -0.32591
 C312 C 0.49689 0.12378 -0.24950
 C313 C 0.48381 0.13612 -0.21284
 C314 C 0.48400 0.15773 -0.25250
 C315 C 0.49666 0.10154 -0.20862
 C316 C 0.49646 0.08297 -0.17391
 H317 H 0.52071 0.16187 -0.42470
 H318 H 0.52040 0.12382 -0.35482
 H319 H 0.47346 0.12901 -0.15375
 H320 H 0.47375 0.16706 -0.22375
 C321 C 0.71075 0.50345 -0.40761
 C322 C 0.69281 0.50372 -0.37008
 C323 C 0.67119 0.50403 -0.32656
 C324 C 0.67585 0.51793 -0.25084
 C325 C 0.65482 0.51836 -0.20904
 C326 C 0.62906 0.50489 -0.24283
 C327 C 0.62441 0.49099 -0.31854
 C328 C 0.64543 0.49057 -0.36031
 C329 C 0.60735 0.50526 -0.20012
 C330 C 0.58893 0.50536 -0.16520
 H331 H 0.69571 0.52844 -0.22429
 H332 H 0.65865 0.52920 -0.15059
 H333 H 0.60457 0.48053 -0.34525
 H334 H 0.64161 0.47981 -0.41887
 C335 C 0.79210 0.29086 -0.41041
 C336 C 0.81037 0.30890 -0.37357
 C337 C 0.83249 0.33069 -0.33148
 C338 C 0.84276 0.32620 -0.25773
 C339 C 0.86453 0.34736 -0.21770
 C340 C 0.87613 0.37308 -0.25129
 C341 C 0.86583 0.37757 -0.32502
 C342 C 0.84407 0.35641 -0.36504
 C343 C 0.89850 0.39485 -0.20998
 C344 C 0.91715 0.41305 -0.17498
 H345 H 0.83400 0.30639 -0.23137
 H346 H 0.87232 0.34368 -0.16071
 H347 H 0.87462 0.39737 -0.35151
 H348 H 0.83632 0.36008 -0.42213
 C349 C 0.50425 -0.20675 -0.41170
 C350 C 0.50454 -0.18856 -0.37381
 C351 C 0.50480 -0.16667 -0.32991
 C352 C 0.49164 -0.15409 -0.36403
 C353 C 0.49190 -0.13277 -0.32186
 C354 C 0.50536 -0.12388 -0.24531
 C355 C 0.51857 -0.13642 -0.21120
 C356 C 0.51830 -0.15777 -0.25341
 C357 C 0.50555 -0.10192 -0.20208
 C358 C 0.50551 -0.08351 -0.16672
 H359 H 0.48118 -0.16075 -0.42318
 H360 H 0.48163 -0.12322 -0.34890
 H361 H 0.52907 -0.12971 -0.15213
 H362 H 0.52860 -0.16729 -0.22649
 C363 C 0.28991 0.49701 -0.41070
 C364 C 0.30817 0.49712 -0.37378
 C365 C 0.33020 0.49724 -0.33133
 C366 C 0.35584 0.51112 -0.36580
 C367 C 0.37722 0.51096 -0.32547
 C368 C 0.37308 0.49691 -0.25044
 C369 C 0.34745 0.48307 -0.21583
 C370 C 0.32606 0.48323 -0.25620
 C371 C 0.39510 0.49667 -0.20909
 C372 C 0.41352 0.49650 -0.17428
 H373 H 0.35929 0.52201 -0.42385
 H374 H 0.39694 0.52175 -0.35280
 H375 H 0.34400 0.47214 -0.15784
 H376 H 0.30632 0.47239 -0.22902
 C377 C 1.20486 0.71084 -0.41351
 C378 C 1.18685 0.69282 -0.37576
 C379 C 1.16522 0.67112 -0.33169
 C380 C 1.16197 0.67300 -0.24541
 C381 C 1.14097 0.65183 -0.20282
 C382 C 1.12311 0.62868 -0.24632
 C383 C 1.12635 0.62684 -0.33261
 C384 C 1.14733 0.64800 -0.37517
 C385 C 1.10148 0.60680 -0.20278
 C386 C 1.08325 0.58830 -0.16736
 H387 H 1.17566 0.69078 -0.21115
 H388 H 1.13866 0.65351 -0.13612
 H389 H 1.11267 0.60906 -0.36693
 H390 H 1.14961 0.64633 -0.44187
 C391 C 0.79281 0.50247 -0.40752
 C392 C 0.81093 0.50232 -0.37083
 C393 C 0.83286 0.50215 -0.32915
 C394 C 0.84428 0.48796 -0.36395
 C395 C 0.86589 0.48807 -0.32441
 C396 C 0.87617 0.50242 -0.24997
 C397 C 0.86474 0.51661 -0.21514
 C398 C 0.84313 0.51648 -0.25469
 C399 C 0.89842 0.50258 -0.20930
 C400 C 0.91701 0.50276 -0.17479
 H401 H 0.83653 0.47688 -0.42165
 H402 H 0.87459 0.47704 -0.35187
 H403 H 0.87258 0.52778 -0.15763
 H404 H 0.83449 0.52760 -0.22744
 C405 C 0.49585 0.28907 -0.40769
 C406 C 0.49559 0.30699 -0.37004
 C407 C 0.49542 0.32862 -0.32632
 C408 C 0.50973 0.35450 -0.35847
 C409 C 0.50955 0.37558 -0.31641
 C410 C 0.49503 0.37088 -0.24206
 C411 C 0.48071 0.34500 -0.20985
 C412 C 0.48090 0.32390 -0.25192
 C413 C 0.49482 0.39265 -0.19932
 C414 C 0.49482 0.41113 -0.16452
 H415 H 0.52100 0.35836 -0.41600
 H416 H 0.52069 0.39552 -0.34183
 H417 H 0.46941 0.34115 -0.15243
 H418 H 0.46974 0.30394 -0.22662
 C419 C 0.70855 0.20733 -0.40890
 C420 C 0.69050 0.18907 -0.37232
 C421 C 0.66870 0.16701 -0.33046
 C422 C 0.64400 0.15268 -0.37075
 C423 C 0.62282 0.13102 -0.33073
 C424 C 0.62628 0.12360 -0.25027
 C425 C 0.65097 0.13796 -0.20990
 C426 C 0.67215 0.15962 -0.24994
 C427 C 0.60449 0.10133 -0.20910
 C428 C 0.58625 0.08275 -0.17429
 H429 H 0.64114 0.15821 -0.43305
 H430 H 0.60381 0.12008 -0.36245
 H431 H 0.65383 0.13238 -0.14765
 H432 H 0.69118 0.17056 -0.21830
 C433 C 1.20681 0.49582 -0.40919
 C434 C 1.18872 0.49551 -0.37107
 C435 C 1.16693 0.49522 -0.32717
 C436 C 1.15645 0.47963 -0.25517
 C437 C 1.13502 0.47918 -0.21329
 C438 C 1.12402 0.49431 -0.24342
 C439 C 1.13453 0.50992 -0.31537
 C440 C 1.15595 0.51038 -0.35714
 C441 C 1.10196 0.49390 -0.20082
 C442 C 1.08349 0.49383 -0.16599
 H443 H 1.16480 0.46782 -0.23159
 H444 H 1.12701 0.46705 -0.15769
 H445 H 1.12615 0.52169 -0.33914
 H446 H 1.16394 0.52251 -0.41274
 C447 C 0.50293 0.70902 -0.41023
 C448 C 0.50278 0.69079 -0.37372
 C449 C 0.50269 0.66880 -0.33206
 C450 C 0.49533 0.64522 -0.37622
 C451 C 0.49545 0.62385 -0.33617
 C452 C 0.50296 0.62602 -0.25188
 C453 C 0.51033 0.64961 -0.20773
 C454 C 0.51019 0.67098 -0.24778
 C455 C 0.50314 0.60410 -0.21064
 C456 C 0.50333 0.58583 -0.17555
 H457 H 0.48958 0.64340 -0.44152
 H458 H 0.48974 0.60569 -0.37084
 H459 H 0.51619 0.65148 -0.14253
 H460 H 0.51599 0.68917 -0.21323
 C461 C 0.28931 -0.20458 -0.41210
 C462 C 0.30718 -0.18665 -0.37388
 C463 C 0.32875 -0.16510 -0.32959
 C464 C 0.32441 -0.15732 -0.25075
 C465 C 0.34545 -0.13621 -0.20813
 C466 C 0.37085 -0.12285 -0.24431
 C467 C 0.37517 -0.13064 -0.32315
 C468 C 0.35415 -0.15173 -0.36572
 C469 C 0.39255 -0.10112 -0.20096
 C470 C 0.41100 -0.08284 -0.16579
 H471 H 0.30481 -0.16753 -0.22240
 H472 H 0.34192 -0.13030 -0.14721
 H473 H 0.39474 -0.12041 -0.35167
 H474 H 0.35768 -0.15760 -0.42668
 C475 C 0.50444 -0.20568 0.40879
 C476 C 0.50470 -0.18761 0.37083
 C477 C 0.50491 -0.16595 0.32665
 C478 C 0.48934 -0.15528 0.35556
 C479 C 0.48963 -0.13407 0.31312
 C480 C 0.50550 -0.12345 0.24171
 C481 C 0.52105 -0.13412 0.21270
 C482 C 0.52076 -0.15536 0.25517
 C483 C 0.50584 -0.10152 0.19875
 C484 C 0.50587 -0.08312 0.16378
 H485 H 0.47704 -0.16334 0.41082
 H486 H 0.47753 -0.12594 0.33599
 H487 H 0.53340 -0.12602 0.15753
 H488 H 0.53289 -0.16347 0.23245
 C489 C 0.29087 0.49741 0.41021
 C490 C 0.30904 0.49769 0.37277
 C491 C 0.33095 0.49793 0.32985
 C492 C 0.35691 0.51357 0.36058
 C493 C 0.37822 0.51337 0.32016
 C494 C 0.37361 0.49753 0.24890
 C495 C 0.34766 0.48200 0.21790
 C496 C 0.32635 0.48218 0.25837
 C497 C 0.39547 0.49716 0.20766
 C498 C 0.41373 0.49682 0.17279
 H499 H 0.36064 0.52580 0.41584
 H500 H 0.39823 0.52548 0.34452
 H501 H 0.34392 0.46970 0.16274
 H502 H 0.30633 0.46999 0.23424
 C503 C 1.20527 0.71098 0.40499
 C504 C 1.18743 0.69296 0.36700
 C505 C 1.16600 0.67122 0.32293
 C506 C 1.15596 0.64515 0.35194
 C507 C 1.13487 0.62396 0.30995
 C508 C 1.12377 0.62879 0.23880
 C509 C 1.13385 0.65486 0.20960
 C510 C 1.15495 0.67606 0.25165
 C511 C 1.10191 0.60697 0.19637
 C512 C 1.08353 0.58847 0.16176
 H513 H 1.16438 0.64123 0.40702
 H514 H 1.12718 0.60386 0.33302
 H515 H 1.12536 0.65877 0.15464
 H516 H 1.16258 0.69617 0.22884
 C517 C 0.49749 0.20621 0.41371
 C518 C 0.49763 0.18815 0.37668
 C519 C 0.49770 0.16631 0.33402
 C520 C 0.51402 0.15650 0.36285
 C521 C 0.51380 0.13498 0.32231
 C522 C 0.49725 0.12321 0.25276
 C523 C 0.48095 0.13303 0.22388
 C524 C 0.48116 0.15454 0.26448
 C525 C 0.49704 0.10110 0.21097
 C526 C 0.49684 0.08263 0.17558
 H527 H 0.52686 0.16545 0.41663
 H528 H 0.52648 0.12753 0.34512
 H529 H 0.46808 0.12406 0.17014
 H530 H 0.46841 0.16193 0.24186
 C531 C 0.70985 0.50359 0.41291
 C532 C 0.69204 0.50387 0.37473
 C533 C 0.67056 0.50412 0.33032
 C534 C 0.67577 0.51990 0.25866
 C535 C 0.65482 0.52023 0.21601
 C536 C 0.62862 0.50481 0.24492
 C537 C 0.62343 0.48905 0.31660
 C538 C 0.64436 0.48871 0.35922
 C539 C 0.60702 0.50514 0.20147
 C540 C 0.58867 0.50520 0.16602
 H541 H 0.69597 0.53193 0.23590
 H542 H 0.65905 0.53252 0.16074
 H543 H 0.60324 0.47706 0.33954
 H544 H 0.64013 0.47648 0.41464
 C545 C 0.79310 0.29211 0.41073
 C546 C 0.81135 0.31015 0.37412
 C547 C 0.83344 0.33189 0.33221
 C548 C 0.84336 0.35799 0.36129
 C549 C 0.86509 0.37914 0.32141
 C550 C 0.87699 0.37426 0.25236
 C551 C 0.86706 0.34817 0.22332
 C552 C 0.84533 0.32701 0.26320
 C553 C 0.89923 0.39600 0.21090
 C554 C 0.91775 0.41412 0.17548
 H555 H 0.83434 0.36195 0.41474
 H556 H 0.87260 0.39924 0.34433
 H557 H 0.87612 0.34419 0.16996
 H558 H 0.83786 0.30690 0.24042
   
