data_POSCAR
  _audit_creation_date              2014-09-24
  _audit_creation_method            'ToBaCCo'
  _symmetry_space_group_name_H-M    'P1'
  _symmetry_Int_Tables_number       1
  _symmetry_cell_setting            triclinic
  loop_
  _symmetry_equiv_pos_as_xyz
 x,y,z
_cell_length_a 53.8086
_cell_length_b 53.9392
_cell_length_c 22.3542
_cell_angle_alpha 89.864600
_cell_angle_beta 90.000700
_cell_angle_gamma 120.241400
loop_
  _atom_site_label
  _atom_site_type_symbol
  _atom_site_fract_x
  _atom_site_fract_y
  _atom_site_fract_z
C1 C 0.17085 0.47833 0.48527
 C2 C 0.18433 0.47697 0.43245
 C3 C 0.20451 0.46771 0.43665
 C4 C 0.21048 0.45902 0.49194
 C5 C 0.19504 0.45901 0.54309
 C6 C 0.17620 0.46995 0.54116
 C7 C 0.23382 0.45151 0.49722
 C8 C 0.24802 0.45472 0.55230
 C9 C 0.26970 0.44778 0.55792
 C10 C 0.27915 0.43979 0.50725
 C11 C 0.26665 0.43782 0.45100
 C12 C 0.24311 0.44237 0.44708
 H13 H 0.15390 0.48347 0.48208
 H14 H 0.21665 0.46891 0.39720
 H15 H 0.19870 0.45167 0.58524
 H16 H 0.24276 0.46291 0.59140
 H17 H 0.29748 0.43676 0.51163
 H18 H 0.23236 0.43896 0.40453
 C19 C 0.52963 -0.30670 0.52315
 C20 C 0.53861 -0.29315 0.46700
 C21 C 0.54412 -0.26478 0.46140
 C22 C 0.54089 -0.25022 0.51058
 C23 C 0.53237 -0.26444 0.56630
 C24 C 0.52644 -0.29278 0.57312
 C25 C 0.54488 -0.22080 0.50346
 C26 C 0.55279 -0.20197 0.55281
 C27 C 0.55321 -0.17578 0.54843
 C28 C 0.54703 -0.16781 0.49313
 C29 C 0.54026 -0.18552 0.44295
 C30 C 0.53900 -0.21201 0.44829
 H31 H 0.52483 -0.32859 0.52822
 H32 H 0.55206 -0.25358 0.41935
 H33 H 0.52827 -0.25426 0.60359
 H34 H 0.55851 -0.20760 0.59501
 H35 H 0.54687 -0.14788 0.48907
 H36 H 0.53213 -0.22611 0.40993
 C37 C 1.30109 0.83627 0.51476
 C38 C 1.28759 0.82975 0.45845
 C39 C 1.25794 0.80922 0.45630
 C40 C 1.24281 0.79336 0.50768
 C41 C 1.25750 0.80019 0.56292
 C42 C 1.28633 0.82191 0.56669
 C43 C 1.21238 0.76880 0.50295
 C44 C 1.19387 0.75904 0.55325
 C45 C 1.16604 0.73448 0.55041
 C46 C 1.15604 0.72170 0.49383
 C47 C 1.17371 0.73139 0.44322
 C48 C 1.20198 0.75406 0.44843
 H49 H 1.32307 0.85363 0.51936
 H50 H 1.24694 0.80457 0.41399
 H51 H 1.24712 0.78828 0.60313
 H52 H 1.20093 0.77092 0.59451
 H53 H 1.13532 0.70247 0.48878
 H54 H 1.21569 0.75970 0.40949
 C55 C 0.82555 0.53821 0.50937
 C56 C 0.81374 0.53782 0.45348
 C57 C 0.78987 0.54162 0.45037
 C58 C 0.77863 0.54766 0.50204
 C59 C 0.79185 0.54904 0.55771
 C60 C 0.81438 0.54311 0.56163
 C61 C 0.75247 0.55096 0.49767
 C62 C 0.73448 0.54619 0.54782
 C63 C 0.70842 0.54643 0.54260
 C64 C 0.70064 0.55160 0.48574
 C65 C 0.71771 0.55582 0.43548
 C66 C 0.74391 0.55660 0.44194
 H67 H 0.84382 0.53495 0.51245
 H68 H 0.77982 0.53881 0.40722
 H69 H 0.78446 0.55393 0.59852
 H70 H 0.73939 0.53992 0.59005
 H71 H 0.68094 0.55209 0.47958
 H72 H 0.75703 0.56115 0.40239
 C73 C 0.45913 0.29121 0.48971
 C74 C 0.45365 0.27416 0.43914
 C75 C 0.45257 0.24790 0.44430
 C76 C 0.45873 0.23899 0.49894
 C77 C 0.46415 0.25649 0.54994
 C78 C 0.46465 0.28295 0.54584
 C79 C 0.46089 0.21230 0.50050
 C80 C 0.45562 0.19572 0.55324
 C81 C 0.45660 0.16988 0.55283
 C82 C 0.46046 0.16008 0.49676
 C83 C 0.46656 0.17662 0.44514
 C84 C 0.46811 0.20309 0.44769
 H85 H 0.45887 0.31104 0.48457
 H86 H 0.44713 0.23471 0.40469
 H87 H 0.47001 0.25059 0.59163
 H88 H 0.44985 0.20255 0.59358
 H89 H 0.46044 0.14007 0.49262
 H90 H 0.47448 0.21606 0.40750
 C91 C 0.72282 0.15801 0.51516
 C92 C 0.73395 0.16870 0.45819
 C93 C 0.75954 0.19525 0.45313
 C94 C 0.77244 0.21263 0.50404
 C95 C 0.75936 0.20205 0.56040
 C96 C 0.73524 0.17455 0.56622
 C97 C 0.79815 0.24233 0.49834
 C98 C 0.81618 0.25597 0.54810
 C99 C 0.83873 0.28484 0.54559
 C100 C 0.84401 0.29926 0.49029
 C101 C 0.82735 0.28585 0.43980
 C102 C 0.80430 0.25774 0.44401
 H103 H 0.70338 0.13728 0.51961
 H104 H 0.76845 0.20258 0.40902
 H105 H 0.76730 0.21511 0.60016
 H106 H 0.81322 0.24378 0.58848
 H107 H 0.86039 0.32160 0.48592
 H108 H 0.79084 0.24871 0.40506
 N109 N 0.96883 0.53630 0.07063
 N110 N 0.94790 0.54126 0.08519
 N111 N 1.03118 0.55185 0.10439
 N112 N 1.05221 0.56649 0.14251
 N113 N 1.02921 0.56907 0.06555
 N114 N 1.04868 0.59608 0.07691
 N115 N 0.97078 0.51936 0.11024
 N116 N 0.95122 0.51218 0.15241
 C117 C 0.93694 0.52577 0.13616
 C118 C 1.06310 0.59400 0.12466
 N119 N 1.03360 0.48271 0.06070
 N120 N 1.05528 0.47808 0.06919
 N121 N 0.97325 0.46763 0.10724
 N122 N 0.95279 0.45347 0.14691
 N123 N 0.97303 0.45024 0.06604
 N124 N 0.95246 0.42354 0.07708
 N125 N 1.03369 0.50015 0.10162
 N126 N 1.05545 0.50811 0.13854
 Mn127 Mn 1.00225 0.50974 0.10634
 C128 C 1.06889 0.49438 0.11775
 C129 C 0.93991 0.42603 0.12766
 N130 N 1.02670 0.56910 -0.06381
 N131 N 1.04335 0.59626 -0.07980
 N132 N 0.96634 0.51903 -0.09995
 N133 N 0.94592 0.51280 -0.13955
 N134 N 0.96633 0.53642 -0.05892
 N135 N 0.94597 0.54271 -0.07011
 N136 N 1.02655 0.55194 -0.10562
 N137 N 1.04281 0.56693 -0.15110
 Mn138 Mn 0.99774 0.55301 0.00343
 C139 C 1.05357 0.59450 -0.13410
 C140 C 0.93316 0.52743 -0.12022
 N141 N 0.97065 0.44999 -0.06356
 N142 N 0.95432 0.42290 -0.08013
 N143 N 1.02948 0.49993 -0.10786
 N144 N 1.04804 0.50561 -0.15155
 N145 N 1.03092 0.48258 -0.06847
 N146 N 1.05048 0.47593 -0.08463
 N147 N 0.96924 0.46724 -0.10330
 N148 N 0.95202 0.45238 -0.14751
 Mn149 Mn 1.00204 0.46606 -0.00124
 Mn150 Mn 0.99792 0.50955 -0.10447
 Cl151 Cl 0.99998 0.50959 0.00090
 C152 C 0.94243 0.42477 -0.13219
 C153 C 1.06125 0.49081 -0.13623
 N154 N 0.46404 0.42915 0.05382
 N155 N 0.45643 0.40209 0.06408
 N156 N 0.44942 0.47190 0.11105
 N157 N 0.43527 0.47337 0.15782
 N158 N 0.43138 0.45596 0.06898
 N159 N 0.40453 0.44646 0.08582
 N160 N 0.48295 0.44601 0.09367
 N161 N 0.48907 0.43096 0.13119
 C162 C 0.47276 0.40370 0.11166
 C163 C 0.40734 0.45772 0.14118
 N164 N 0.51681 0.54748 0.07335
 N165 N 0.52392 0.57326 0.09345
 N166 N 0.53462 0.50154 0.09608
 N167 N 0.55119 0.49777 0.13408
 N168 N 0.55035 0.52176 0.05719
 N169 N 0.57801 0.53257 0.06848
 N170 N 0.50122 0.52769 0.11315
 N171 N 0.49732 0.53950 0.16110
 Mn172 Mn 0.49208 0.48676 0.10392
 C173 C 0.51122 0.56786 0.14802
 C174 C 0.57817 0.51694 0.11579
 N175 N 0.42782 0.46022 -0.05956
 N176 N 0.40032 0.45132 -0.06932
 N177 N 0.47724 0.45378 -0.11380
 N178 N 0.48629 0.44309 -0.15571
 N179 N 0.46121 0.43393 -0.07463
 N180 N 0.45867 0.40899 -0.08934
 N181 N 0.44404 0.48032 -0.09806
 N182 N 0.42825 0.48610 -0.13408
 Mn183 Mn 0.44581 0.44453 -0.00288
 C184 C 0.40108 0.46814 -0.11536
 C185 C 0.47460 0.41518 -0.14007
 N186 N 0.54676 0.52591 -0.07125
 N187 N 0.57328 0.53251 -0.08577
 N188 N 0.49509 0.53515 -0.09551
 N189 N 0.48624 0.54915 -0.12940
 N190 N 0.51329 0.55217 -0.05501
 N191 N 0.51765 0.57849 -0.06091
 N192 N 0.52840 0.50888 -0.11155
 N193 N 0.54166 0.50316 -0.15401
 Mn194 Mn 0.53208 0.53716 0.00101
 Mn195 Mn 0.48619 0.49456 -0.10517
 Cl196 Cl 0.48903 0.49075 -0.00061
 C197 C 0.56958 0.51792 -0.13757
 C198 C 0.50024 0.57609 -0.10716
 N199 N 0.44991 -0.02979 0.06791
 N200 N 0.42281 -0.04827 0.08194
 N201 N 0.49934 0.02982 0.10968
 N202 N 0.50652 0.05020 0.14974
 N203 N 0.48169 0.03040 0.06990
 N204 N 0.47609 0.05104 0.08231
 N205 N 0.46733 -0.03057 0.10798
 N206 N 0.45271 -0.04977 0.14961
 C207 C 0.42501 -0.06091 0.13265
 C208 C 0.49204 0.06339 0.13193
 N209 N 0.56918 0.02732 0.06919
 N210 N 0.59625 0.04546 0.08382
 N211 N 0.51943 -0.03250 0.10704
 N212 N 0.51139 -0.05380 0.14524
 N213 N 0.53681 -0.03297 0.06645
 N214 N 0.54136 -0.05455 0.07654
 N215 N 0.55164 0.02780 0.10936
 N216 N 0.56617 0.04633 0.15192
 Mn217 Mn 0.50946 -0.00132 0.10894
 C218 C 0.59394 0.05747 0.13525
 C219 C 0.52505 -0.06751 0.12568
 N220 N 0.48196 0.03180 -0.05923
 N221 N 0.47353 0.05023 -0.07376
 N222 N 0.46820 -0.02836 -0.10270
 N223 N 0.45407 -0.04862 -0.14257
 N224 N 0.45057 -0.02857 -0.06180
 N225 N 0.42385 -0.04895 -0.07312
 N226 N 0.49963 0.03190 -0.09988
 N227 N 0.50359 0.05026 -0.14290
 Mn228 Mn 0.46571 0.00093 0.00418
 C229 C 0.48761 0.06193 -0.12575
 C230 C 0.42646 -0.06141 -0.12356
 N231 N 0.53758 -0.03131 -0.06315
 N232 N 0.54627 -0.04920 -0.08018
 N233 N 0.55252 0.03063 -0.09986
 N234 N 0.56739 0.05138 -0.13860
 N235 N 0.56966 0.02895 -0.06024
 N236 N 0.59676 0.04835 -0.07157
 N237 N 0.52108 -0.02957 -0.10430
 N238 N 0.51833 -0.04599 -0.15030
 Mn239 Mn 0.55358 -0.00206 0.00307
 Mn240 Mn 0.51036 0.00119 -0.10207
 Cl241 Cl 0.50978 -0.00032 0.00347
 C242 C 0.53366 -0.05853 -0.13429
 C243 C 0.59490 0.06240 -0.12018
 C244 C 1.15189 0.49170 0.27281
 C245 C 1.16332 0.47333 0.27154
 C246 C 1.17592 0.46974 0.32332
 C247 C 1.17664 0.48396 0.37678
 C248 C 1.16715 0.50397 0.37386
 N249 N 1.15505 0.50698 0.32331
 C250 C 1.13443 0.49387 0.22391
 N251 N 1.12813 0.51530 0.22761
 C252 C 1.10874 0.51678 0.19134
 C253 C 1.09356 0.49533 0.14884
 C254 C 1.10056 0.47373 0.14169
 C255 C 1.12097 0.47285 0.17928
 H256 H 1.18299 0.45418 0.32232
 H257 H 1.16897 0.51715 0.41191
 H258 H 1.10430 0.53407 0.19768
 H259 H 1.08920 0.45675 0.10942
 H260 H 1.16196 0.46124 0.23194
 H261 H 1.12473 0.45504 0.17534
 C262 C 0.53468 0.65403 0.32451
 C263 C 0.54367 0.65050 0.38094
 C264 C 0.54672 0.66906 0.42693
 C265 C 0.54062 0.69134 0.41769
 C266 C 0.53447 0.69581 0.35846
 N267 N 0.53115 0.67697 0.31427
 C268 C 0.52719 0.63192 0.27817
 N269 N 0.53527 0.63944 0.22014
 C270 C 0.52980 0.61942 0.17714
 C271 C 0.51536 0.59007 0.19190
 C272 C 0.50600 0.58202 0.25095
 C273 C 0.51191 0.60279 0.29404
 H274 H 0.55389 0.66574 0.46986
 H275 H 0.52987 0.71267 0.34797
 H276 H 0.53712 0.62644 0.13186
 H277 H 0.49462 0.55965 0.26427
 H278 H 0.54775 0.63312 0.38978
 H279 H 0.50465 0.59612 0.33954
 C280 C 0.33797 -0.13020 0.30395
 C281 C 0.30838 -0.13983 0.30267
 C282 C 0.29148 -0.15327 0.35330
 C283 C 0.30389 -0.15699 0.40583
 C284 C 0.33360 -0.14743 0.40392
 N285 N 0.34933 -0.13467 0.35425
 C286 C 0.35799 -0.11495 0.25373
 N287 N 0.38487 -0.11130 0.25729
 C288 C 0.40589 -0.09546 0.21721
 C289 C 0.40069 -0.08150 0.17015
 C290 C 0.37291 -0.08564 0.16378
 C291 C 0.35144 -0.10232 0.20560
 H292 H 0.26898 -0.15954 0.35149
 H293 H 0.34445 -0.15093 0.44082
 H294 H 0.42694 -0.09307 0.22346
 H295 H 0.36815 -0.07504 0.12813
 H296 H 0.29822 -0.13717 0.26344
 H297 H 0.33058 -0.10416 0.20128
 C298 C 0.85640 0.52935 0.29978
 C299 C 0.84599 0.54862 0.29806
 C300 C 0.83117 0.55067 0.34741
 C301 C 0.82666 0.53368 0.39842
 C302 C 0.83630 0.51391 0.39732
 N303 N 0.85083 0.51245 0.34910
 C304 C 0.87485 0.52767 0.25232
 N305 N 0.88502 0.50942 0.26150
 C306 C 0.90385 0.50774 0.22377
 C307 C 0.91409 0.52552 0.17320
 C308 C 0.90334 0.54390 0.16128
 C309 C 0.88371 0.54507 0.20063
 H310 H 0.82419 0.56632 0.34657
 H311 H 0.83277 0.49995 0.43518
 H312 H 0.91134 0.49300 0.23433
 H313 H 0.91067 0.55789 0.12252
 H314 H 0.84967 0.56255 0.26029
 H315 H 0.87635 0.55990 0.19072
 C316 C 0.45706 0.31609 0.27554
 C317 C 0.47507 0.30455 0.28365
 C318 C 0.47259 0.28914 0.33567
 C319 C 0.45252 0.28561 0.37974
 C320 C 0.43401 0.29632 0.36869
 N321 N 0.43675 0.31120 0.31754
 C322 C 0.46188 0.33613 0.22615
 N323 N 0.43898 0.33495 0.19751
 C324 C 0.44220 0.35515 0.15674
 C325 C 0.46953 0.37888 0.14556
 C326 C 0.49340 0.38031 0.17391
 C327 C 0.48973 0.35873 0.21353
 H328 H 0.48737 0.28133 0.34299
 H329 H 0.41817 0.29380 0.40168
 H330 H 0.42328 0.35364 0.13612
 H331 H 0.51475 0.39853 0.16671
 H332 H 0.49143 0.30818 0.25095
 H333 H 0.50825 0.36060 0.23681
 C334 C 0.68175 0.12610 0.30535
 C335 C 0.71155 0.13651 0.30224
 C336 C 0.72890 0.15042 0.35198
 C337 C 0.71659 0.15373 0.40457
 C338 C 0.68690 0.14338 0.40521
 N339 N 0.67063 0.13012 0.35659
 C340 C 0.66132 0.11071 0.25599
 N341 N 0.63418 0.10622 0.26161
 C342 C 0.61295 0.09049 0.22203
 C343 C 0.61823 0.07756 0.17322
 C344 C 0.64621 0.08247 0.16493
 C345 C 0.66787 0.09901 0.20632
 H346 H 0.75179 0.15833 0.34956
 H347 H 0.67658 0.14616 0.44411
 H348 H 0.59175 0.08747 0.22986
 H349 H 0.65105 0.07270 0.12786
 H350 H 0.72152 0.13431 0.26220
 H351 H 0.68896 0.10155 0.20029
 C352 C 0.46148 0.12623 -0.29314
 C353 C 0.46216 0.15220 -0.28571
 C354 C 0.45882 0.16597 -0.33579
 C355 C 0.45509 0.15426 -0.39414
 C356 C 0.45246 0.12703 -0.40115
 N357 N 0.45560 0.11383 -0.35067
 C358 C 0.46933 0.11223 -0.24614
 N359 N 0.48370 0.09876 -0.26364
 C360 C 0.49071 0.08382 -0.22523
 C361 C 0.48236 0.08089 -0.16508
 C362 C 0.46772 0.09482 -0.14540
 C363 C 0.46142 0.11087 -0.18584
 H364 H 0.46126 0.18686 -0.32844
 H365 H 0.45186 0.10884 -0.38046
 H366 H 0.50195 0.07342 -0.24247
 H367 H 0.46086 0.09297 -0.09926
 H368 H 0.46678 0.16256 -0.24245
 H369 H 0.44966 0.12110 -0.17075
 C370 C 0.65220 0.52830 -0.31053
 C371 C 0.64111 0.52078 -0.36850
 C372 C 0.65960 0.52660 -0.41652
 C373 C 0.68957 0.54002 -0.40786
 C374 C 0.69976 0.54682 -0.34843
 N375 N 0.68114 0.54130 -0.30214
 C376 C 0.63261 0.52319 -0.25966
 N377 N 0.64005 0.54346 -0.21627
 C378 C 0.62098 0.54141 -0.17355
 C379 C 0.59252 0.51842 -0.17459
 C380 C 0.58511 0.49659 -0.21666
 C381 C 0.60508 0.49876 -0.25877
 H382 H 0.64995 0.51947 -0.46016
 H383 H 0.72255 0.55770 -0.33878
 H384 H 0.62752 0.55851 -0.14126
 H385 H 0.56353 0.47822 -0.21826
 H386 H 0.61826 0.51087 -0.37703
 H387 H 0.59869 0.48190 -0.29164
 C388 C 0.88348 0.33482 -0.30399
 C389 C 0.85744 0.30920 -0.29507
 C390 C 0.84315 0.29173 -0.34424
 C391 C 0.85474 0.29969 -0.40262
 C392 C 0.88219 0.32452 -0.40778
 N393 N 0.89517 0.34133 -0.35963
 C394 C 0.89733 0.35664 -0.25682
 N395 N 0.91064 0.38467 -0.27363
 C396 C 0.92428 0.40644 -0.23413
 C397 C 0.92574 0.40065 -0.17348
 C398 C 0.91228 0.37189 -0.15473
 C399 C 0.89771 0.34973 -0.19631
 H400 H 0.82208 0.27329 -0.33641
 H401 H 0.89357 0.33096 -0.44990
 H402 H 0.93456 0.42828 -0.25065
 H403 H 0.91310 0.36661 -0.10827
 H404 H 0.84735 0.30361 -0.25141
 H405 H 0.88758 0.32760 -0.18166
 C406 C 0.55674 -0.12419 -0.30367
 C407 C 0.57093 -0.11091 -0.35698
 C408 C 0.57165 -0.12755 -0.40372
 C409 C 0.55774 -0.15754 -0.39811
 C410 C 0.54533 -0.16982 -0.34247
 N411 N 0.54487 -0.15310 -0.29741
 C412 C 0.55175 -0.10748 -0.25796
 N413 N 0.54647 -0.08651 -0.27634
 C414 C 0.54041 -0.07102 -0.23745
 C415 C 0.53986 -0.07593 -0.17577
 C416 C 0.54562 -0.09715 -0.15540
 C417 C 0.55109 -0.11338 -0.19660
 H418 H 0.58222 -0.11700 -0.44505
 H419 H 0.53440 -0.19282 -0.33598
 H420 H 0.53638 -0.05462 -0.25483
 H421 H 0.54539 -0.10145 -0.10799
 H422 H 0.58067 -0.08794 -0.36301
 H423 H 0.55507 -0.13007 -0.18084
 C424 C 0.31431 0.45519 -0.27933
 C425 C 0.31192 0.47858 -0.29954
 C426 C 0.29639 0.47590 -0.35155
 C427 C 0.28370 0.45016 -0.38379
 C428 C 0.28589 0.42704 -0.36124
 N429 N 0.30099 0.43010 -0.31037
 C430 C 0.33366 0.45847 -0.22926
 N431 N 0.35709 0.48469 -0.21863
 C432 C 0.37787 0.48845 -0.17914
 C433 C 0.37588 0.46492 -0.14804
 C434 C 0.35124 0.43793 -0.15571
 C435 C 0.33017 0.43457 -0.19683
 H436 H 0.29520 0.49420 -0.36786
 H437 H 0.27609 0.40678 -0.38479
 H438 H 0.39654 0.50964 -0.17395
 H439 H 0.34914 0.41926 -0.13278
 H440 H 0.32246 0.49888 -0.27607
 H441 H 0.31183 0.41341 -0.20460
 C442 C 1.11780 0.68679 -0.29943
 C443 C 1.14679 0.70761 -0.29173
 C444 C 1.16251 0.72478 -0.34033
 C445 C 1.14944 0.72137 -0.39701
 C446 C 1.11949 0.70198 -0.40017
 N447 N 1.10501 0.68506 -0.35282
 C448 C 1.10165 0.66427 -0.25435
 N449 N 1.08351 0.63720 -0.27417
 C450 C 1.06836 0.61482 -0.23638
 C451 C 1.07058 0.61909 -0.17435
 C452 C 1.08872 0.64690 -0.15254
 C453 C 1.10464 0.66957 -0.19250
 H454 H 1.18536 0.73884 -0.33394
 H455 H 1.10735 0.69966 -0.44032
 H456 H 1.05432 0.59377 -0.25502
 H457 H 1.09084 0.65097 -0.10487
 H458 H 1.15771 0.70924 -0.24999
 H459 H 1.11874 0.69094 -0.17540
 C460 C 0.85396 0.53606 -0.27877
 C461 C 0.85133 0.56055 -0.28710
 C462 C 0.83708 0.56251 -0.33786
 C463 C 0.82575 0.54031 -0.38005
 C464 C 0.82757 0.51575 -0.36849
 N465 N 0.84161 0.51442 -0.31940
 C466 C 0.87205 0.53358 -0.23166
 N467 N 0.87813 0.51208 -0.23759
 C468 C 0.89643 0.50907 -0.20072
 C469 C 0.91038 0.52873 -0.15448
 C470 C 0.90368 0.55044 -0.14536
 C471 C 0.88451 0.55299 -0.18390
 H472 H 0.83612 0.58184 -0.34562
 H473 H 0.81870 0.49801 -0.39966
 H474 H 0.90066 0.49176 -0.20884
 H475 H 0.91397 0.56596 -0.10988
 H476 H 0.86109 0.57854 -0.25677
 H477 H 0.88008 0.57018 -0.17659
 C478 C 0.47992 0.33820 -0.30764
 C479 C 0.48925 0.34960 -0.36501
 C480 C 0.48498 0.33143 -0.41262
 C481 C 0.47126 0.30149 -0.40429
 C482 C 0.46347 0.29102 -0.34524
 N483 N 0.46731 0.30930 -0.29941
 C484 C 0.48153 0.35708 -0.25794
 N485 N 0.45998 0.34725 -0.21654
 C486 C 0.45822 0.36495 -0.17541
 C487 C 0.47839 0.39445 -0.17616
 C488 C 0.50155 0.40460 -0.21611
 C489 C 0.50340 0.38600 -0.25639
 H490 H 0.49299 0.34122 -0.45594
 H491 H 0.45264 0.26825 -0.33588
 H492 H 0.44024 0.35630 -0.14463
 H493 H 0.51789 0.42712 -0.21722
 H494 H 0.49885 0.37234 -0.37391
 H495 H 0.52136 0.39445 -0.28724
 C496 C 0.68593 0.13825 -0.27575
 C497 C 0.69275 0.16600 -0.29334
 C498 C 0.71041 0.17872 -0.34309
 C499 C 0.72095 0.16371 -0.37537
 C500 C 0.71481 0.13666 -0.35461
 N501 N 0.69760 0.12470 -0.30606
 C502 C 0.66417 0.12219 -0.22925
 N503 N 0.66696 0.10310 -0.19399
 C504 C 0.64588 0.08511 -0.15561
 C505 C 0.61968 0.08480 -0.15359
 C506 C 0.61652 0.10456 -0.18877
 C507 C 0.63883 0.12352 -0.22611
 H508 H 0.71465 0.19960 -0.35814
 H509 H 0.72282 0.12462 -0.37832
 H510 H 0.64897 0.06999 -0.12934
 H511 H 0.59653 0.10483 -0.18850
 H512 H 0.68394 0.17738 -0.26985
 H513 H 0.63558 0.13786 -0.25475
 C514 C 1.13451 0.47862 -0.30606
 C515 C 1.14253 0.45753 -0.30617
 C516 C 1.15679 0.45483 -0.35596
 C517 C 1.16288 0.47282 -0.40639
 C518 C 1.15513 0.49417 -0.40298
 N519 N 1.14141 0.49631 -0.35420
 C520 C 1.11758 0.48200 -0.25762
 N521 N 1.10900 0.50155 -0.26650
 C522 C 1.09201 0.50536 -0.22731
 C523 C 1.08216 0.48863 -0.17531
 C524 C 1.09129 0.46889 -0.16380
 C525 C 1.10903 0.46548 -0.20477
 H526 H 1.16149 0.43756 -0.35562
 H527 H 1.16052 0.50984 -0.43823
 H528 H 1.08570 0.52103 -0.23771
 H529 H 1.08419 0.45563 -0.12395
 H530 H 1.13744 0.44271 -0.26940
 H531 H 1.11537 0.44983 -0.19504
 C532 C 0.50578 0.66112 -0.26473
 C533 C 0.52308 0.69114 -0.26323
 C534 C 0.52859 0.70688 -0.31645
 C535 C 0.51757 0.69265 -0.37132
 C536 C 0.49862 0.66278 -0.36936
 N537 N 0.49353 0.64815 -0.31728
 C538 C 0.50204 0.64228 -0.21333
 N539 N 0.47957 0.61487 -0.21521
 C540 C 0.47736 0.59411 -0.17765
 C541 C 0.49929 0.60010 -0.13648
 C542 C 0.52181 0.62855 -0.13071
 C543 C 0.52329 0.64980 -0.16918
 H544 H 0.54318 0.72983 -0.31495
 H545 H 0.48784 0.65082 -0.40917
 H546 H 0.45936 0.57251 -0.18273
 H547 H 0.53918 0.63394 -0.09949
 H548 H 0.53279 0.70229 -0.22200
 H549 H 0.54190 0.67116 -0.16717
 C550 C 0.33642 -0.14271 -0.27586
 C551 C 0.30806 -0.14775 -0.27738
 C552 C 0.29075 -0.16123 -0.32724
 C553 C 0.30164 -0.16952 -0.37533
 C554 C 0.32924 -0.16583 -0.37030
 N555 N 0.34574 -0.15243 -0.32191
 C556 C 0.35796 -0.12435 -0.23038
 N557 N 0.38601 -0.11583 -0.24165
 C558 C 0.40789 -0.09679 -0.20670
 C559 C 0.40228 -0.08457 -0.15706
 C560 C 0.37354 -0.09375 -0.14269
 C561 C 0.35127 -0.11368 -0.17915
 H562 H 0.26956 -0.16360 -0.32985
 H563 H 0.33823 -0.17231 -0.40623
 H564 H 0.42972 -0.09064 -0.21893
 H565 H 0.36835 -0.08495 -0.10437
 H566 H 0.29962 -0.14022 -0.24255
 H567 H 0.32938 -0.12002 -0.16749
 C568 C 0.52718 -0.14984 0.28387
 C569 C 0.54507 -0.16188 0.28162
 C570 C 0.54827 -0.17505 0.33280
 C571 C 0.53375 -0.17616 0.38574
 C572 C 0.51479 -0.16552 0.38489
 N573 N 0.51223 -0.15265 0.33501
 C574 C 0.52522 -0.13223 0.23507
 N575 N 0.50434 -0.12515 0.23953
 C576 C 0.50297 -0.10594 0.20254
 C577 C 0.52398 -0.09182 0.15837
 C578 C 0.54504 -0.09957 0.15067
 C579 C 0.54582 -0.11974 0.18905
 H580 H 0.56301 -0.18319 0.33187
 H581 H 0.50278 -0.16650 0.42457
 H582 H 0.48611 -0.10087 0.20943
 H583 H 0.56168 -0.08903 0.11711
 H584 H 0.55693 -0.16073 0.24170
 H585 H 0.56321 -0.12414 0.18435
 C586 C 0.31545 0.43581 0.30213
 C587 C 0.29927 0.44944 0.29564
 C588 C 0.28196 0.44876 0.34296
 C589 C 0.28029 0.43405 0.39626
 C590 C 0.29516 0.41882 0.39861
 N591 N 0.31266 0.42069 0.35291
 C592 C 0.33799 0.44042 0.25870
 N593 N 0.36396 0.44586 0.27989
 C594 C 0.38632 0.45163 0.24310
 C595 C 0.38304 0.45161 0.18091
 C596 C 0.35629 0.44544 0.15783
 C597 C 0.33376 0.44022 0.19671
 H598 H 0.27135 0.46123 0.33900
 H599 H 0.29391 0.40640 0.43773
 H600 H 0.40655 0.45594 0.26249
 H601 H 0.35301 0.44517 0.10999
 H602 H 0.30149 0.46209 0.25619
 H603 H 0.31326 0.43581 0.17866
 C604 C 1.13822 0.68231 0.28461
 C605 C 1.16545 0.68813 0.30413
 C606 C 1.17772 0.70520 0.35461
 C607 C 1.16279 0.71624 0.38569
 C608 C 1.13624 0.71097 0.36321
 N609 N 1.12472 0.69430 0.31401
 C610 C 1.12259 0.66146 0.23659
 N611 N 1.10371 0.66485 0.20175
 C612 C 1.08596 0.64449 0.16209
 C613 C 1.08567 0.61842 0.15824
 C614 C 1.10534 0.61474 0.19268
 C615 C 1.12403 0.63630 0.23142
 H616 H 1.19827 0.70884 0.37075
 H617 H 1.12434 0.71950 0.38568
 H618 H 1.07091 0.64796 0.13644
 H619 H 1.10561 0.59480 0.19102
 H620 H 1.17687 0.67916 0.28135
 H621 H 1.13815 0.63251 0.25960
 C622 C 0.48190 0.14054 0.29051
 C623 C 0.50426 0.16652 0.31326
 C624 C 0.49898 0.17923 0.36229
 C625 C 0.47164 0.16588 0.38862
 C626 C 0.44963 0.14062 0.36318
 N627 N 0.45523 0.12869 0.31540
 C628 C 0.48697 0.12434 0.24380
 N629 N 0.46542 0.10793 0.20486
 C630 C 0.46737 0.08970 0.16575
 C631 C 0.49152 0.08628 0.16662
 C632 C 0.51418 0.10334 0.20554
 C633 C 0.51213 0.12261 0.24376
 H634 H 0.51639 0.19877 0.38110
 H635 H 0.42824 0.12996 0.38240
 H636 H 0.44941 0.07677 0.13649
 H637 H 0.53313 0.10119 0.20751
 H638 H 0.52564 0.17658 0.29407
 H639 H 0.52932 0.13474 0.27526
 C640 C 0.67182 0.54456 0.27388
 C641 C 0.68482 0.52803 0.28443
 C642 C 0.70190 0.53338 0.33510
 C643 C 0.70572 0.55489 0.37544
 C644 C 0.69374 0.57204 0.36142
 N645 N 0.67716 0.56643 0.31175
 C646 C 0.64988 0.53661 0.22693
 N647 N 0.64868 0.55751 0.19502
 C648 C 0.62694 0.55145 0.15601
 C649 C 0.60406 0.52319 0.14994
 C650 C 0.60501 0.50133 0.18192
 C651 C 0.62809 0.50790 0.21981
 H652 H 0.71058 0.51954 0.34481
 H653 H 0.69639 0.58891 0.39148
 H654 H 0.62671 0.56888 0.13240
 H655 H 0.58760 0.47932 0.17857
 H656 H 0.68094 0.51053 0.25498
 H657 H 0.62809 0.49092 0.24578
 C658 C 0.85902 0.33823 0.28443
 C659 C 0.84795 0.34677 0.33198
 C660 C 0.83591 0.32879 0.38130
 C661 C 0.83436 0.30211 0.38306
 C662 C 0.84362 0.29333 0.33297
 N663 N 0.85605 0.31158 0.28591
 C664 C 0.87669 0.35916 0.23726
 N665 N 0.88289 0.38684 0.24225
 C666 C 0.90179 0.40801 0.20557
 C667 C 0.91634 0.40206 0.16099
 C668 C 0.90947 0.37353 0.15284
 C669 C 0.88967 0.35197 0.19105
 H670 H 0.82891 0.33618 0.41927
 H671 H 0.84273 0.27284 0.33303
 H672 H 0.90614 0.42968 0.21276
 H673 H 0.92026 0.36812 0.11880
 H674 H 0.84985 0.36772 0.33260
 H675 H 0.88539 0.33022 0.18583
   
