data_POSCAR
  _audit_creation_date              2014-09-24
  _audit_creation_method            'ToBaCCo'
  _symmetry_space_group_name_H-M    'P1'
  _symmetry_Int_Tables_number       1
  _symmetry_cell_setting            triclinic
  loop_
  _symmetry_equiv_pos_as_xyz
 x,y,z
_cell_length_a 25.0132
_cell_length_b 25.0137
_cell_length_c 25.0654
_cell_angle_alpha 90.123800
_cell_angle_beta 90.123100
_cell_angle_gamma 90.000500
loop_
  _atom_site_label
  _atom_site_type_symbol
  _atom_site_fract_x
  _atom_site_fract_y
  _atom_site_fract_z
O1 O 0.44914 0.95611 -0.55142
 O2 O 0.55333 0.95604 -0.44723
 O3 O 0.44920 0.95532 -0.44752
 O4 O 0.55322 0.95551 -0.55115
 O5 O 0.55325 1.04392 -0.55093
 O6 O 0.44908 1.04373 -0.44715
 O7 O 0.55322 1.04444 -0.44700
 O8 O 0.44916 1.04452 -0.55105
 Cu9 Cu 0.50123 0.94682 -0.49935
 Cu10 Cu 0.50118 1.05308 -0.49899
 C11 C 0.43159 1.00037 -0.56882
 C12 C 0.57086 1.00027 -0.42953
 C13 C 0.43155 0.99945 -0.42985
 C14 C 0.57077 0.99970 -0.56858
 O15 O -0.55419 1.44762 -0.04393
 O16 O -0.45006 1.55188 -0.04401
 O17 O -0.45007 1.44780 -0.04468
 O18 O -0.55420 1.55177 -0.04460
 O19 O -0.55402 1.55205 0.04362
 O20 O -0.44975 1.44793 0.04355
 O21 O -0.44989 1.55202 0.04422
 O22 O -0.55387 1.44789 0.04429
 Cu23 Cu -0.50218 1.49975 -0.05321
 Cu24 Cu -0.50188 1.49999 0.05282
 C25 C -0.57158 1.43013 0.00024
 C26 C -0.43239 1.56950 0.00013
 C27 C -0.43230 1.43033 -0.00062
 C28 C -0.57169 1.56950 -0.00053
 O29 O 0.04457 0.44885 0.44899
 O30 O 0.04458 0.55302 0.55294
 O31 O 0.04387 0.44889 0.55289
 O32 O 0.04402 0.55293 0.44900
 O33 O -0.04439 0.55293 0.44882
 O34 O -0.04455 0.44902 0.55257
 O35 O -0.04383 0.55315 0.55276
 O36 O -0.04385 0.44885 0.44867
 Cu37 Cu 0.05318 0.50093 0.50099
 Cu38 Cu -0.05308 0.50100 0.50069
 C39 C 0.00041 0.43127 0.43127
 C40 C 0.00042 0.57068 0.57042
 C41 C -0.00041 0.43139 0.57024
 C42 C -0.00020 0.57045 0.43136
 O43 O -0.13765 1.00158 -0.07249
 O44 O 0.13766 0.99802 -0.07236
 O45 O -0.00183 1.07210 -0.13751
 O46 O 0.00163 0.92739 -0.13767
 O47 O 0.00171 0.86216 -0.07258
 O48 O -0.00171 1.13746 -0.07227
 O49 O 0.07225 0.99798 -0.13756
 O50 O -0.07245 1.00151 -0.13762
 Zr51 Zr -0.00003 0.99979 -0.09416
 O52 O 0.04855 0.95129 -0.04867
 O53 O -0.04847 1.04837 -0.04862
 C54 C -0.12172 1.00232 -0.12167
 C55 C 0.12157 0.99719 -0.12156
 C56 C -0.00257 1.12141 -0.12147
 C57 C 0.00243 0.87812 -0.12175
 H58 H 0.07110 1.07087 -0.07105
 O59 O 0.04832 1.04808 -0.04831
 H60 H -0.07110 0.92874 -0.07127
 O61 O -0.04824 0.95158 -0.04846
 O62 O 0.13791 1.00168 0.07204
 O63 O -0.13740 0.99826 0.07193
 O64 O 0.07251 1.13752 0.00169
 O65 O 0.07241 0.86220 -0.00204
 O66 O -0.07229 0.86226 0.00135
 O67 O -0.07221 1.13755 -0.00187
 O68 O 0.00209 1.07238 0.13721
 O69 O -0.00141 0.92772 0.13707
 O70 O 0.00199 1.13762 0.07213
 O71 O -0.00156 0.86233 0.07186
 O72 O 0.13780 1.07222 0.00163
 O73 O -0.13752 1.07226 -0.00197
 O74 O -0.13756 0.92758 0.00139
 O75 O 0.13775 0.92747 -0.00196
 O76 O 0.07272 1.00178 0.13716
 O77 O -0.07196 0.99832 0.13710
 Zr78 Zr 0.09427 0.99986 -0.00018
 Zr79 Zr -0.09401 0.99991 -0.00027
 Zr80 Zr 0.00014 1.09402 -0.00012
 Zr81 Zr 0.00009 0.90575 -0.00032
 Zr82 Zr 0.00029 1.00000 0.09370
 O83 O -0.04833 0.95143 0.04813
 O84 O 0.04875 1.04846 0.04827
 C85 C 0.12198 1.00253 0.12122
 C86 C -0.12129 0.99753 0.12112
 C87 C 0.12180 1.12151 0.00245
 C88 C 0.12171 0.87818 -0.00278
 C89 C -0.12157 0.87829 0.00214
 C90 C -0.12151 1.12154 -0.00271
 C91 C 0.00283 1.12166 0.12130
 C92 C -0.00225 0.87841 0.12106
 H93 H -0.07083 1.07106 0.07074
 O94 O -0.04805 1.04822 0.04796
 H95 H 0.07130 0.92887 0.07067
 O96 O 0.04846 0.95166 0.04791
 C97 C 0.39110 1.00058 0.39059
 C98 C 0.35708 1.00098 0.35647
 C99 C 0.31646 1.00158 0.31573
 C100 C 0.30062 1.05008 0.29270
 C101 C 0.26111 1.05067 0.25312
 C102 C 0.23730 1.00276 0.23642
 C103 C 0.25316 0.95426 0.25944
 C104 C 0.29266 0.95368 0.29901
 C105 C 0.19665 1.00324 0.19574
 C106 C 0.16256 1.00322 0.16168
 H107 H 0.31877 1.08736 0.30534
 H108 H 0.24915 1.08838 0.23558
 H109 H 0.23502 0.91698 0.24681
 H110 H 0.30461 0.91596 0.31654
 C111 C -0.38884 0.99958 0.39091
 C112 C -0.35495 0.99922 0.35679
 C113 C -0.31454 0.99860 0.31602
 C114 C -0.30697 0.95274 0.28472
 C115 C -0.26772 0.95214 0.24506
 C116 C -0.23589 0.99740 0.23655
 C117 C -0.24346 1.04325 0.26785
 C118 C -0.28270 1.04385 0.30751
 C119 C -0.19555 0.99692 0.19572
 C120 C -0.16168 0.99691 0.16159
 H121 H -0.33138 0.91754 0.29097
 H122 H -0.26221 0.91649 0.22107
 H123 H -0.21907 1.07847 0.26159
 H124 H -0.28822 1.07952 0.33147
 C125 C -0.39080 1.00041 -0.39114
 C126 C -0.35676 1.00076 -0.35701
 C127 C -0.31616 1.00136 -0.31626
 C128 C -0.30827 0.95638 -0.28398
 C129 C -0.26882 0.95698 -0.24435
 C130 C -0.23710 1.00256 -0.23684
 C131 C -0.24499 1.04756 -0.26910
 C132 C -0.28445 1.04696 -0.30873
 C133 C -0.19640 1.00301 -0.19618
 C134 C -0.16230 1.00298 -0.16214
 H135 H -0.33257 0.92092 -0.28944
 H136 H -0.26303 0.92196 -0.21964
 H137 H -0.22067 1.08300 -0.26364
 H138 H -0.29022 1.08196 -0.33346
 C139 C 0.39097 0.99920 -0.38952
 C140 C 0.35686 0.99877 -0.35563
 C141 C 0.31613 0.99814 -0.31517
 C142 C 0.29113 0.94998 -0.30138
 C143 C 0.25156 0.94938 -0.26204
 C144 C 0.23683 0.99693 -0.23634
 C145 C 0.26182 1.04507 -0.25014
 C146 C 0.30139 1.04567 -0.28947
 C147 C 0.19611 0.99643 -0.19589
 C148 C 0.16204 0.99648 -0.16196
 H149 H 0.30223 0.91299 -0.32101
 H150 H 0.23248 0.91193 -0.25168
 H151 H 0.25073 1.08207 -0.23052
 H152 H 0.32045 1.08313 -0.29982
 C153 C 0.39018 1.39166 0.00042
 C154 C 0.35623 1.35744 0.00081
 C155 C 0.31573 1.31659 0.00142
 C156 C 0.29823 1.29533 0.05003
 C157 C 0.25886 1.25561 0.05063
 C158 C 0.23685 1.23700 0.00262
 C159 C 0.25436 1.25825 -0.04599
 C160 C 0.29371 1.29796 -0.04658
 C161 C 0.19631 1.19619 0.00312
 C162 C 0.16231 1.16205 0.00312
 H163 H 0.31499 1.30944 0.08738
 H164 H 0.24561 1.23945 0.08843
 H165 H 0.23759 1.24415 -0.08334
 H166 H 0.30695 1.31411 -0.08439
 C167 C 0.39000 0.60792 -0.00068
 C168 C 0.35600 0.64208 -0.00106
 C169 C 0.31546 0.68291 -0.00169
 C170 C 0.28628 0.69422 0.04463
 C171 C 0.24693 0.73393 0.04402
 C172 C 0.23659 0.76250 -0.00291
 C173 C 0.26575 0.75119 -0.04924
 C174 C 0.30511 0.71146 -0.04863
 C175 C 0.19613 0.80340 -0.00342
 C176 C 0.16218 0.83760 -0.00342
 H177 H 0.29395 0.67238 0.08113
 H178 H 0.22461 0.74237 0.08007
 H179 H 0.25808 0.77304 -0.08574
 H180 H 0.32744 0.70304 -0.08467
 C181 C -0.39175 0.60995 0.00028
 C182 C -0.35755 0.64391 0.00064
 C183 C -0.31668 0.68440 0.00123
 C184 C -0.28312 0.69085 -0.04297
 C185 C -0.24338 0.73018 -0.04238
 C186 C -0.23702 0.76321 0.00241
 C187 C -0.27057 0.75675 0.04662
 C188 C -0.31032 0.71741 0.04603
 C189 C -0.19626 0.80379 0.00283
 C190 C -0.16212 0.83780 0.00279
 H191 H -0.28768 0.66553 -0.07781
 H192 H -0.21767 0.73486 -0.07679
 H193 H -0.26602 0.78210 0.08144
 H194 H -0.33605 0.71276 0.08043
 C195 C -0.39164 1.38991 -0.00083
 C196 C -0.35743 1.35597 -0.00123
 C197 C -0.31658 1.31546 -0.00182
 C198 C -0.29786 1.29379 0.04621
 C199 C -0.25816 1.25443 0.04564
 C200 C -0.23700 1.23658 -0.00295
 C201 C -0.25571 1.25825 -0.05099
 C202 C -0.29542 1.29762 -0.05042
 C203 C -0.19619 1.19604 -0.00342
 C204 C -0.16205 1.16204 -0.00339
 H205 H -0.31394 1.30730 0.08401
 H206 H -0.24398 1.23793 0.08301
 H207 H -0.23963 1.24473 -0.08879
 H208 H -0.30961 1.31412 -0.08780
 C209 C 0.00059 1.39074 0.39072
 C210 C 0.00100 1.35668 0.35662
 C211 C 0.00166 1.31603 0.31592
 C212 C -0.04230 1.28189 0.30949
 C213 C -0.04164 1.24237 0.26994
 C214 C 0.00297 1.23682 0.23667
 C215 C 0.04694 1.27094 0.24311
 C216 C 0.04629 1.31047 0.28266
 C217 C 0.00349 1.19623 0.19592
 C218 C 0.00349 1.16219 0.16181
 H219 H -0.07700 1.28583 0.33499
 H220 H -0.07586 1.21620 0.26529
 H221 H 0.08163 1.26701 0.21759
 H222 H 0.08049 1.33666 0.28731
 C223 C -0.00063 1.39085 -0.38939
 C224 C -0.00105 1.35677 -0.35547
 C225 C -0.00168 1.31607 -0.31498
 C226 C -0.04740 1.28456 -0.30766
 C227 C -0.04800 1.24499 -0.26832
 C228 C -0.00288 1.23678 -0.23614
 C229 C 0.04282 1.26830 -0.24345
 C230 C 0.04342 1.30786 -0.28279
 C231 C -0.00334 1.19602 -0.19573
 C232 C -0.00329 1.16191 -0.16184
 H233 H -0.08249 1.29058 -0.33234
 H234 H -0.08354 1.22084 -0.26301
 H235 H 0.07793 1.26227 -0.21880
 H236 H 0.07898 1.33199 -0.28810
 C237 C 0.00058 0.60904 -0.39121
 C238 C 0.00094 0.64309 -0.35710
 C239 C 0.00152 0.68370 -0.31635
 C240 C -0.04263 0.69012 -0.28263
 C241 C -0.04205 0.72957 -0.24302
 C242 C 0.00268 0.76277 -0.23694
 C243 C 0.04685 0.75635 -0.27064
 C244 C 0.04627 0.71689 -0.31027
 C245 C 0.00311 0.80347 -0.19629
 C246 C 0.00307 0.83756 -0.16224
 H247 H -0.07743 0.66467 -0.28698
 H248 H -0.07642 0.73421 -0.21719
 H249 H 0.08162 0.78183 -0.26631
 H250 H 0.08062 0.71227 -0.33612
 C251 C -0.00032 0.61079 0.39079
 C252 C -0.00068 0.64464 0.35664
 C253 C -0.00128 0.68501 0.31582
 C254 C -0.04336 0.72190 0.31336
 C255 C -0.04398 0.76111 0.27365
 C256 C -0.00252 0.76355 0.23624
 C257 C 0.03955 0.72664 0.23868
 C258 C 0.04017 0.68744 0.27838
 C259 C -0.00294 0.80403 0.19554
 C260 C -0.00290 0.83797 0.16149
 H261 H -0.07562 0.72036 0.34210
 H262 H -0.07668 0.78948 0.27215
 H263 H 0.07183 0.72821 0.20997
 H264 H 0.07289 0.65910 0.27991
   
