data_POSCAR
  _audit_creation_date              2014-09-24
  _audit_creation_method            'ToBaCCo'
  _symmetry_space_group_name_H-M    'P1'
  _symmetry_Int_Tables_number       1
  _symmetry_cell_setting            triclinic
  loop_
  _symmetry_equiv_pos_as_xyz
 x,y,z
_cell_length_a 40.5440
_cell_length_b 40.7420
_cell_length_c 40.8249
_cell_angle_alpha 89.978000
_cell_angle_beta 89.962000
_cell_angle_gamma 89.971900
loop_
  _atom_site_label
  _atom_site_type_symbol
  _atom_site_fract_x
  _atom_site_fract_y
  _atom_site_fract_z
N1 N 0.27614 0.21150 0.18428
 N2 N 0.26201 0.23735 0.17112
 C3 C 0.27989 0.24715 0.14506
 C4 C 0.30667 0.22626 0.14165
 C5 C 0.30338 0.20392 0.16704
 H6 H 0.27395 0.26803 0.12985
 H7 H 0.32000 0.18409 0.17312
 Cu8 Cu 0.22220 0.25636 0.18984
 Cu9 Cu 0.25900 0.19031 0.22346
 Cu10 Cu 0.18930 0.22466 0.25867
 N11 N 0.18361 0.27577 0.21059
 N12 N 0.17096 0.26340 0.23752
 C13 C 0.14530 0.28204 0.24711
 C14 C 0.14155 0.30758 0.22498
 C15 C 0.16637 0.30271 0.20211
 H16 H 0.13065 0.27742 0.26875
 H17 H 0.17202 0.31810 0.18129
 N18 N 0.21139 0.18544 0.27647
 N19 N 0.23798 0.17240 0.26314
 C20 C 0.24769 0.14660 0.28140
 C21 C 0.22616 0.14316 0.30754
 C22 C 0.20345 0.16825 0.30351
 H23 H 0.26898 0.13154 0.27614
 H24 H 0.18309 0.17409 0.31956
 H25 H 0.21051 0.20445 0.21729
 H26 H 0.23713 0.23210 0.24242
 N27 N 0.72097 -0.21163 0.18612
 N28 N 0.73433 -0.23808 0.17343
 C29 C 0.71608 -0.24793 0.14769
 C30 C 0.68972 -0.22640 0.14387
 C31 C 0.69388 -0.20363 0.16888
 H32 H 0.72151 -0.26939 0.13313
 H33 H 0.67829 -0.18292 0.17461
 Cu34 Cu 0.77402 -0.25744 0.19206
 Cu35 Cu 0.73892 -0.19001 0.22468
 Cu36 Cu 0.80852 -0.22479 0.25959
 N37 N 0.81252 -0.27711 0.21272
 N38 N 0.82600 -0.26419 0.23894
 C39 C 0.85187 -0.28269 0.24820
 C40 C 0.85493 -0.30892 0.22663
 C41 C 0.82932 -0.30438 0.20442
 H42 H 0.86704 -0.27739 0.26927
 H43 H 0.82300 -0.31985 0.18390
 N44 N 0.78727 -0.18493 0.27695
 N45 N 0.76069 -0.17175 0.26376
 C46 C 0.75152 -0.14558 0.28175
 C47 C 0.77338 -0.14205 0.30757
 C48 C 0.79574 -0.16746 0.30363
 H49 H 0.73033 -0.13036 0.27657
 H50 H 0.81618 -0.17336 0.31954
 H51 H 0.78711 -0.20506 0.21799
 H52 H 0.76037 -0.23166 0.24418
 N53 N 0.72400 0.21156 0.81480
 N54 N 0.73749 0.23806 0.82728
 C55 C 0.71956 0.24791 0.85328
 C56 C 0.69340 0.22639 0.85738
 C57 C 0.69713 0.20359 0.83245
 H58 H 0.72497 0.26931 0.86794
 H59 H 0.68101 0.18322 0.82691
 Cu60 Cu 0.77641 0.25771 0.80745
 Cu61 Cu 0.74129 0.19020 0.77571
 Cu62 Cu 0.81063 0.22500 0.73996
 N63 N 0.81532 0.27697 0.78725
 N64 N 0.82854 0.26415 0.76081
 C65 C 0.85430 0.28271 0.75135
 C66 C 0.85754 0.30884 0.77302
 C67 C 0.83223 0.30414 0.79554
 H68 H 0.86914 0.27762 0.72997
 H69 H 0.82606 0.31955 0.81616
 N70 N 0.78886 0.18539 0.72258
 N71 N 0.76243 0.17222 0.73609
 C72 C 0.75294 0.14619 0.71808
 C73 C 0.77444 0.14273 0.69193
 C74 C 0.79691 0.16804 0.69567
 H75 H 0.73181 0.13098 0.72352
 H76 H 0.81717 0.17393 0.67951
 H77 H 0.78953 0.20539 0.78161
 H78 H 0.76254 0.23170 0.75547
 N79 N 0.27662 -0.21193 0.81398
 N80 N 0.26335 -0.23863 0.82631
 C81 C 0.28141 -0.24856 0.85219
 C82 C 0.30732 -0.22677 0.85644
 C83 C 0.30338 -0.20383 0.83168
 H84 H 0.27619 -0.27010 0.86674
 H85 H 0.31924 -0.18321 0.82633
 Cu86 Cu 0.22432 -0.25806 0.80648
 Cu87 Cu 0.25913 -0.19034 0.77507
 Cu88 Cu 0.18954 -0.22497 0.73959
 N89 N 0.18516 -0.27726 0.78669
 N90 N 0.17171 -0.26420 0.76050
 C91 C 0.14571 -0.28253 0.75129
 C92 C 0.14258 -0.30879 0.77284
 C93 C 0.16821 -0.30441 0.79504
 H94 H 0.13062 -0.27717 0.73017
 H95 H 0.17454 -0.32001 0.81547
 N96 N 0.21130 -0.18528 0.72220
 N97 N 0.23779 -0.17216 0.73564
 C98 C 0.24727 -0.14611 0.71762
 C99 C 0.22574 -0.14258 0.69153
 C100 C 0.20323 -0.16787 0.69533
 H101 H 0.26845 -0.13097 0.72298
 H102 H 0.18295 -0.17373 0.67921
 H103 H 0.21090 -0.20559 0.78105
 H104 H 0.23772 -0.23164 0.75454
 N105 N 0.72405 -0.21064 0.81550
 N106 N 0.73738 -0.23733 0.82782
 C107 C 0.71949 -0.24713 0.85387
 C108 C 0.69354 -0.22537 0.85817
 C109 C 0.69734 -0.20251 0.83331
 H110 H 0.72481 -0.26862 0.86846
 H111 H 0.68137 -0.18196 0.82793
 Cu112 Cu 0.77615 -0.25706 0.80776
 Cu113 Cu 0.74130 -0.18922 0.77639
 Cu114 Cu 0.81062 -0.22414 0.74061
 N115 N 0.81526 -0.27626 0.78781
 N116 N 0.82856 -0.26330 0.76148
 C117 C 0.85452 -0.28167 0.75216
 C118 C 0.85782 -0.30782 0.77381
 C119 C 0.83233 -0.30333 0.79619
 H120 H 0.86947 -0.27642 0.73089
 H121 H 0.82618 -0.31880 0.81678
 N122 N 0.78886 -0.18450 0.72321
 N123 N 0.76246 -0.17125 0.73674
 C124 C 0.75300 -0.14520 0.71870
 C125 C 0.77448 -0.14181 0.69252
 C126 C 0.79691 -0.16718 0.69627
 H127 H 0.73191 -0.12992 0.72413
 H128 H 0.81713 -0.17314 0.68009
 H129 H 0.76249 -0.23053 0.75600
 H130 H 0.78950 -0.20456 0.78237
 N131 N 0.27629 0.21161 0.81510
 N132 N 0.26276 0.23822 0.82735
 C133 C 0.28065 0.24829 0.85327
 C134 C 0.30679 0.22677 0.85756
 C135 C 0.30312 0.20377 0.83283
 H136 H 0.27517 0.26977 0.86781
 H137 H 0.31924 0.18333 0.82750
 Cu138 Cu 0.22368 0.25745 0.80744
 Cu139 Cu 0.25909 0.18981 0.77623
 Cu140 Cu 0.18912 0.22365 0.74081
 N141 N 0.18420 0.27602 0.78767
 N142 N 0.17086 0.26270 0.76155
 C143 C 0.14469 0.28075 0.75224
 C144 C 0.14134 0.30690 0.77368
 C145 C 0.16691 0.30301 0.79589
 H146 H 0.12945 0.27533 0.73122
 H147 H 0.17301 0.31910 0.81601
 N148 N 0.21124 0.18420 0.72348
 N149 N 0.23794 0.17140 0.73683
 C150 C 0.24765 0.14543 0.71881
 C151 C 0.22600 0.14163 0.69286
 C152 C 0.20323 0.16668 0.69670
 H153 H 0.26903 0.13051 0.72409
 H154 H 0.18281 0.17230 0.68066
 H155 H 0.23731 0.23081 0.75572
 H156 H 0.21081 0.20466 0.78250
 N157 N 0.27746 -0.21302 0.18647
 N158 N 0.26664 -0.24185 0.17692
 C159 C 0.28437 -0.25189 0.15088
 C160 C 0.30771 -0.22808 0.14368
 C161 C 0.30245 -0.20374 0.16686
 H162 H 0.28071 -0.27498 0.13840
 H163 H 0.31650 -0.18144 0.17006
 Cu164 Cu 0.23127 -0.26422 0.19994
 Cu165 Cu 0.26024 -0.19096 0.22524
 Cu166 Cu 0.19797 -0.23114 0.26753
 N167 N 0.18952 -0.27970 0.21752
 N168 N 0.17667 -0.26683 0.24410
 C169 C 0.14913 -0.28343 0.25210
 C170 C 0.14431 -0.30809 0.22919
 C171 C 0.17050 -0.30482 0.20754
 H172 H 0.13413 -0.27817 0.27336
 H173 H 0.17605 -0.32028 0.18674
 N174 N 0.21630 -0.18868 0.28146
 N175 N 0.23969 -0.17310 0.26525
 C176 C 0.24729 -0.14530 0.28145
 C177 C 0.22760 -0.14319 0.30914
 C178 C 0.20821 -0.17115 0.30820
 H179 H 0.26607 -0.12809 0.27387
 H180 H 0.19010 -0.17869 0.32611
 H181 H 0.24599 -0.23261 0.24907
 H182 H 0.21368 -0.21235 0.22360
 N183 N 0.72317 0.21158 0.18488
 N184 N 0.73676 0.23806 0.17241
 C185 C 0.71891 0.24800 0.14641
 C186 C 0.69273 0.22654 0.14228
 C187 C 0.69632 0.20371 0.16720
 H188 H 0.72446 0.26934 0.13169
 H189 H 0.68016 0.18335 0.17267
 Cu190 Cu 0.77588 0.25730 0.19215
 Cu191 Cu 0.74043 0.18995 0.22387
 Cu192 Cu 0.81039 0.22405 0.25909
 N193 N 0.81525 0.27609 0.21181
 N194 N 0.82856 0.26304 0.23810
 C195 C 0.85469 0.28121 0.24726
 C196 C 0.85805 0.30714 0.22552
 C197 C 0.83252 0.30300 0.20332
 H198 H 0.86993 0.27600 0.26834
 H199 H 0.82644 0.31888 0.18300
 N200 N 0.78833 0.18465 0.27663
 N201 N 0.76165 0.17174 0.26336
 C202 C 0.75204 0.14582 0.28150
 C203 C 0.77373 0.14215 0.30745
 C204 C 0.79642 0.16724 0.30347
 H205 H 0.73072 0.13081 0.27629
 H206 H 0.81686 0.17294 0.31945
 H207 H 0.76221 0.23106 0.24408
 H208 H 0.78874 0.20468 0.21756
 C209 C 0.23665 -0.01689 0.52949
 C210 C 0.23688 0.01766 0.52980
 C211 C 0.23721 0.03495 0.50013
 C212 C 0.23692 0.01822 0.47015
 C213 C 0.23675 -0.01632 0.46984
 C214 C 0.23680 -0.03361 0.49952
 H215 H 0.23636 -0.06024 0.49928
 H216 H 0.23707 0.06158 0.50037
 C217 C 0.76433 -0.01716 0.47017
 C218 C 0.76414 0.01739 0.47012
 C219 C 0.76391 0.03443 0.49992
 C220 C 0.76421 0.01746 0.52976
 C221 C 0.76437 -0.01709 0.52982
 C222 C 0.76428 -0.03413 0.50002
 H223 H 0.76471 -0.06077 0.50006
 H224 H 0.76405 0.06107 0.49987
 C225 C 0.47001 0.23899 -0.01767
 C226 C 0.46999 0.23887 0.01681
 C227 C 0.50000 0.23893 0.03378
 C228 C 0.53004 0.23868 0.01681
 C229 C 0.53007 0.23877 -0.01767
 C230 C 0.50005 0.23917 -0.03464
 H231 H 0.50007 0.23893 -0.06122
 H232 H 0.49998 0.23851 0.06036
 C233 C 0.46963 0.76267 0.01685
 C234 C 0.46992 0.76283 -0.01763
 C235 C 0.50011 0.76277 -0.03437
 C236 C 0.53000 0.76300 -0.01716
 C237 C 0.52969 0.76283 0.01732
 C238 C 0.49952 0.76242 0.03404
 H239 H 0.49929 0.76254 0.06062
 H240 H 0.50034 0.76316 -0.06094
 C241 C 0.01685 0.47136 0.23395
 C242 C -0.01787 0.47109 0.23390
 C243 C -0.03521 0.50083 0.23409
 C244 C -0.01838 0.53086 0.23412
 C245 C 0.01634 0.53113 0.23424
 C246 C 0.03368 0.50138 0.23427
 H247 H 0.06045 0.50158 0.23408
 H248 H -0.06198 0.50062 0.23375
 C249 C 0.01673 0.47046 0.76356
 C250 C -0.01799 0.47064 0.76351
 C251 C -0.03493 0.50061 0.76339
 C252 C -0.01770 0.53041 0.76362
 C253 C 0.01702 0.53024 0.76360
 C254 C 0.03396 0.50026 0.76342
 H255 H 0.06073 0.50011 0.76374
 H256 H -0.06170 0.50074 0.76370
 C257 C 0.38688 0.23269 0.07300
 C258 C 0.36487 0.25893 0.07635
 C259 C 0.33843 0.25670 0.09828
 C260 C 0.33376 0.22820 0.11726
 C261 C 0.35577 0.20178 0.11324
 C262 C 0.38212 0.20406 0.09129
 C263 C 0.41527 0.23549 0.05205
 C264 C 0.43980 0.23733 0.03545
 H265 H 0.36843 0.28128 0.06241
 H266 H 0.32217 0.27760 0.10080
 H267 H 0.35281 0.17933 0.12707
 H268 H 0.39904 0.18360 0.08890
 C269 C 0.61170 0.76872 0.07501
 C270 C 0.63679 0.74519 0.07443
 C271 C 0.66280 0.74693 0.09687
 C272 C 0.66411 0.77228 0.12046
 C273 C 0.63880 0.79610 0.12027
 C274 C 0.61291 0.79425 0.09780
 C275 C 0.58386 0.76610 0.05335
 C276 C 0.55966 0.76434 0.03629
 H277 H 0.63605 0.72526 0.05688
 H278 H 0.68152 0.72808 0.09571
 H279 H 0.63847 0.81617 0.13755
 H280 H 0.59355 0.81259 0.09850
 C281 C 0.61321 0.23260 -0.07388
 C282 C 0.61857 0.20369 -0.09155
 C283 C 0.64493 0.20148 -0.11350
 C284 C 0.66635 0.22825 -0.11816
 C285 C 0.66109 0.25705 -0.09980
 C286 C 0.63465 0.25920 -0.07787
 C287 C 0.58479 0.23532 -0.05294
 C288 C 0.56026 0.23717 -0.03633
 H289 H 0.60208 0.18295 -0.08869
 H290 H 0.64834 0.17881 -0.12685
 H291 H 0.67687 0.27823 -0.10281
 H292 H 0.63062 0.28178 -0.06443
 C293 C 0.38712 0.76807 -0.07435
 C294 C 0.36630 0.74104 -0.07872
 C295 C 0.33998 0.74283 -0.10080
 C296 C 0.33423 0.77168 -0.11894
 C297 C 0.35500 0.79888 -0.11387
 C298 C 0.38124 0.79704 -0.09177
 C299 C 0.41545 0.76574 -0.05326
 C300 C 0.43988 0.76418 -0.03651
 H301 H 0.37073 0.71843 -0.06545
 H302 H 0.32468 0.72135 -0.10411
 H303 H 0.35116 0.82162 -0.12701
 H304 H 0.39722 0.81811 -0.08860
 C305 C 0.07355 0.38856 0.22940
 C306 C 0.09149 0.38252 0.20076
 C307 C 0.11322 0.35594 0.19915
 C308 C 0.11741 0.33499 0.22626
 C309 C 0.09882 0.34099 0.25480
 C310 C 0.07710 0.36763 0.25635
 C311 C 0.05260 0.41700 0.23143
 C312 C 0.03586 0.44142 0.23278
 H313 H 0.08895 0.39859 0.17975
 H314 H 0.12674 0.35197 0.17665
 H315 H 0.10144 0.32558 0.27621
 H316 H 0.06343 0.37217 0.27871
 C317 C 0.07444 0.61243 0.76869
 C318 C 0.09769 0.61395 0.79388
 C319 C 0.11988 0.64012 0.79554
 C320 C 0.11934 0.66537 0.77184
 C321 C 0.09527 0.66374 0.74686
 C322 C 0.07312 0.63745 0.74532
 C323 C 0.05295 0.58442 0.76637
 C324 C 0.03599 0.56017 0.76487
 H325 H 0.09896 0.59465 0.81211
 H326 H 0.13751 0.64006 0.81536
 H327 H 0.09352 0.68241 0.72813
 H328 H 0.05521 0.63648 0.72565
 C329 C -0.07624 0.61282 0.22980
 C330 C -0.07506 0.63760 0.25342
 C331 C -0.09752 0.66367 0.25226
 C332 C -0.12171 0.66535 0.22740
 C333 C -0.12213 0.64032 0.20348
 C334 C -0.09964 0.61438 0.20475
 C335 C -0.05454 0.58493 0.23181
 C336 C -0.03745 0.56075 0.23309
 H337 H -0.05704 0.63660 0.27298
 H338 H -0.09589 0.68214 0.27118
 H339 H -0.13987 0.64029 0.18376
 H340 H -0.10078 0.59527 0.18633
 C341 C -0.07505 0.38820 0.76852
 C342 C -0.07385 0.36341 0.74490
 C343 C -0.09579 0.33694 0.74653
 C344 C -0.11948 0.33488 0.77185
 C345 C -0.11991 0.35993 0.79575
 C346 C -0.09795 0.38627 0.79401
 C347 C -0.05376 0.41635 0.76619
 C348 C -0.03692 0.44068 0.76471
 H349 H -0.05621 0.36470 0.72499
 H350 H -0.09417 0.31847 0.72760
 H351 H -0.13728 0.35969 0.81583
 H352 H -0.09911 0.40538 0.81243
 C353 C 0.23165 0.07498 0.38782
 C354 C 0.25847 0.07854 0.36653
 C355 C 0.25657 0.10034 0.34010
 C356 C 0.22782 0.11898 0.33470
 C357 C 0.20085 0.11480 0.35603
 C358 C 0.20280 0.09299 0.38237
 C359 C 0.23404 0.05396 0.41604
 C360 C 0.23561 0.03719 0.44032
 H361 H 0.28100 0.06484 0.37062
 H362 H 0.27791 0.10300 0.32441
 H363 H 0.17819 0.12837 0.35251
 H364 H 0.18190 0.09045 0.39873
 C365 C 0.76933 0.07392 0.61224
 C366 C 0.74248 0.07756 0.63346
 C367 C 0.74426 0.09954 0.65972
 C368 C 0.77294 0.11830 0.66500
 C369 C 0.79997 0.11401 0.64378
 C370 C 0.79813 0.09200 0.61761
 C371 C 0.76700 0.05289 0.58404
 C372 C 0.76547 0.03621 0.55971
 H373 H 0.71998 0.06379 0.62943
 H374 H 0.72289 0.10228 0.67535
 H375 H 0.82257 0.12766 0.64723
 H376 H 0.81907 0.08940 0.60130
 C377 C 0.23103 -0.07375 0.61175
 C378 C 0.20230 -0.09202 0.61696
 C379 C 0.20040 -0.11403 0.64315
 C380 C 0.22729 -0.11815 0.66455
 C381 C 0.25589 -0.09923 0.65941
 C382 C 0.25774 -0.07723 0.63315
 C383 C 0.23347 -0.05265 0.58359
 C384 C 0.23515 -0.03585 0.55932
 H385 H 0.18148 -0.08954 0.60052
 H386 H 0.17785 -0.12782 0.64647
 H387 H 0.27717 -0.10182 0.67517
 H388 H 0.28017 -0.06332 0.62925
 C389 C 0.76911 -0.07343 0.38751
 C390 C 0.74212 -0.07683 0.36645
 C391 C 0.74365 -0.09871 0.34009
 C392 C 0.77220 -0.11762 0.33454
 C393 C 0.79938 -0.11355 0.35558
 C394 C 0.79779 -0.09165 0.38186
 C395 C 0.76700 -0.05250 0.41581
 C396 C 0.76558 -0.03588 0.44020
 H397 H 0.71971 -0.06296 0.37070
 H398 H 0.72217 -0.10128 0.32461
 H399 H 0.82189 -0.12733 0.35193
 H400 H 0.81883 -0.08924 0.39805
 C401 C 0.61351 0.76892 -0.07289
 C402 C 0.61939 0.79802 -0.09010
 C403 C 0.64573 0.80006 -0.11210
 C404 C 0.66660 0.77293 -0.11725
 C405 C 0.66086 0.74396 -0.09931
 C406 C 0.63443 0.74197 -0.07734
 C407 C 0.58498 0.76634 -0.05205
 C408 C 0.56035 0.76458 -0.03559
 H409 H 0.60331 0.81903 -0.08688
 H410 H 0.64955 0.82287 -0.12512
 H411 H 0.67621 0.72251 -0.10274
 H412 H 0.63000 0.71925 -0.06427
 C413 C 0.38683 0.23315 -0.07371
 C414 C 0.36584 0.26002 -0.07831
 C415 C 0.33941 0.25783 -0.10023
 C416 C 0.33375 0.22872 -0.11795
 C417 C 0.35470 0.20168 -0.11265
 C418 C 0.38103 0.20392 -0.09071
 C419 C 0.41528 0.23583 -0.05285
 C420 C 0.43983 0.23757 -0.03631
 H421 H 0.37022 0.28282 -0.06539
 H422 H 0.32399 0.27920 -0.10378
 H423 H 0.35092 0.17878 -0.12549
 H424 H 0.39715 0.18297 -0.08735
 C425 C 0.38634 0.76750 0.07299
 C426 C 0.36706 0.73971 0.07913
 C427 C 0.34105 0.74125 0.10160
 C428 C 0.33403 0.77066 0.11837
 C429 C 0.35316 0.79864 0.11142
 C430 C 0.37912 0.79702 0.08894
 C431 C 0.41473 0.76538 0.05192
 C432 C 0.43930 0.76392 0.03533
 H433 H 0.37254 0.71667 0.06703
 H434 H 0.32706 0.71916 0.10632
 H435 H 0.34838 0.82178 0.12349
 H436 H 0.39393 0.81869 0.08442
 C437 C 0.61300 0.23263 0.07316
 C438 C 0.61864 0.20353 0.09046
 C439 C 0.64486 0.20138 0.11254
 C440 C 0.66585 0.22839 0.11770
 C441 C 0.66034 0.25737 0.09970
 C442 C 0.63402 0.25947 0.07764
 C443 C 0.58467 0.23528 0.05213
 C444 C 0.56020 0.23708 0.03548
 H445 H 0.60248 0.18261 0.08720
 H446 H 0.64852 0.17857 0.12560
 H447 H 0.67579 0.27872 0.10312
 H448 H 0.62977 0.28219 0.06450
 C449 C -0.07438 0.61310 0.76926
 C450 C -0.07319 0.63802 0.74576
 C451 C -0.09521 0.66443 0.74745
 C452 C -0.11901 0.66628 0.77270
 C453 C -0.11938 0.64115 0.79653
 C454 C -0.09733 0.61487 0.79473
 C455 C -0.05313 0.58492 0.76673
 C456 C -0.03638 0.56053 0.76505
 H457 H -0.05552 0.63685 0.72587
 H458 H -0.09361 0.68298 0.72860
 H459 H -0.13680 0.64127 0.81656
 H460 H -0.09848 0.59565 0.81306
 C461 C -0.07358 0.38770 0.22948
 C462 C -0.09198 0.38199 0.20110
 C463 C -0.11379 0.35549 0.19961
 C464 C -0.11757 0.33430 0.22659
 C465 C -0.09844 0.33989 0.25482
 C466 C -0.07664 0.36647 0.25625
 C467 C -0.05283 0.41627 0.23148
 C468 C -0.03638 0.44087 0.23278
 H469 H -0.08981 0.39829 0.18023
 H470 H -0.12771 0.35180 0.17733
 H471 H -0.10075 0.32426 0.27611
 H472 H -0.06261 0.37076 0.27841
 C473 C 0.07276 0.38731 0.76877
 C474 C 0.09144 0.38215 0.79709
 C475 C 0.11333 0.35573 0.79889
 C476 C 0.11693 0.33405 0.77229
 C477 C 0.09755 0.33911 0.74411
 C478 C 0.07566 0.36562 0.74237
 C479 C 0.05189 0.41577 0.76642
 C480 C 0.03535 0.44031 0.76487
 H481 H 0.08940 0.39883 0.81766
 H482 H 0.12747 0.35248 0.82111
 H483 H 0.09971 0.32312 0.72309
 H484 H 0.06141 0.36948 0.72026
 C485 C 0.07279 0.61404 0.23088
 C486 C 0.09167 0.61965 0.20276
 C487 C 0.11436 0.64543 0.20191
 C488 C 0.11859 0.66598 0.22929
 C489 C 0.09882 0.66064 0.25718
 C490 C 0.07615 0.63478 0.25797
 C491 C 0.05156 0.58580 0.23246
 C492 C 0.03489 0.56133 0.23346
 H493 H 0.08928 0.60369 0.18166
 H494 H 0.12875 0.64895 0.17988
 H495 H 0.10139 0.67580 0.27877
 H496 H 0.06175 0.63057 0.27994
 C497 C 0.76946 -0.07326 0.61255
 C498 C 0.74256 -0.07684 0.63372
 C499 C 0.74431 -0.09872 0.66009
 C500 C 0.77301 -0.11744 0.66552
 C501 C 0.80009 -0.11320 0.64435
 C502 C 0.79828 -0.09130 0.61807
 C503 C 0.76717 -0.05234 0.58424
 C504 C 0.76567 -0.03574 0.55984
 H505 H 0.72005 -0.06312 0.62955
 H506 H 0.72291 -0.10144 0.67567
 H507 H 0.82271 -0.12682 0.64791
 H508 H 0.81925 -0.08875 0.60179
 C509 C 0.23131 -0.07251 0.38722
 C510 C 0.25662 -0.07357 0.36392
 C511 C 0.25513 -0.09603 0.33803
 C512 C 0.22835 -0.11785 0.33525
 C513 C 0.20270 -0.11598 0.35841
 C514 C 0.20422 -0.09351 0.38419
 C515 C 0.23375 -0.05134 0.41531
 C516 C 0.23536 -0.03476 0.43970
 H517 H 0.27778 -0.05749 0.36612
 H518 H 0.27539 -0.09682 0.32080
 H519 H 0.18149 -0.13199 0.35687
 H520 H 0.18449 -0.09291 0.40210
 C521 C 0.76884 0.07361 0.38742
 C522 C 0.79779 0.09130 0.38155
 C523 C 0.79954 0.11320 0.35528
 C524 C 0.77227 0.11779 0.33445
 C525 C 0.74342 0.09943 0.34024
 C526 C 0.74172 0.07754 0.36661
 C527 C 0.76664 0.05267 0.41571
 C528 C 0.76525 0.03606 0.44011
 H529 H 0.81891 0.08848 0.39756
 H530 H 0.82227 0.12654 0.35143
 H531 H 0.72187 0.10243 0.32493
 H532 H 0.71911 0.06409 0.37105
 C533 C 0.23152 0.07321 0.61287
 C534 C 0.20239 0.09063 0.61877
 C535 C 0.20042 0.11245 0.64508
 C536 C 0.22764 0.11724 0.66591
 C537 C 0.25665 0.09910 0.66014
 C538 C 0.25857 0.07730 0.63374
 C539 C 0.23398 0.05248 0.58446
 C540 C 0.23557 0.03607 0.55995
 H541 H 0.18131 0.08767 0.60275
 H542 H 0.17756 0.12560 0.64893
 H543 H 0.27816 0.10225 0.67547
 H544 H 0.28132 0.06405 0.62929
   
