data_POSCAR
  _audit_creation_date              2014-09-24
  _audit_creation_method            'ToBaCCo'
  _symmetry_space_group_name_H-M    'P1'
  _symmetry_Int_Tables_number       1
  _symmetry_cell_setting            triclinic
  loop_
  _symmetry_equiv_pos_as_xyz
 x,y,z
_cell_length_a 43.4264
_cell_length_b 39.9399
_cell_length_c 22.9822
_cell_angle_alpha 90.000000
_cell_angle_beta 89.843600
_cell_angle_gamma 89.908400
loop_
  _atom_site_label
  _atom_site_type_symbol
  _atom_site_fract_x
  _atom_site_fract_y
  _atom_site_fract_z
C1 C 0.69144 0.31297 0.50417
 C2 C 0.70579 0.30413 0.55620
 C3 C 0.72936 0.28012 0.55610
 C4 C 0.73774 0.26323 0.50417
 C5 C 0.72223 0.27211 0.45225
 C6 C 0.69986 0.29739 0.45222
 C7 C 0.76230 0.23660 0.50425
 C8 C 0.77807 0.22765 0.45244
 C9 C 0.80042 0.20227 0.45264
 C10 C 0.80848 0.18673 0.50480
 C11 C 0.79383 0.19567 0.55657
 C12 C 0.77037 0.21971 0.55623
 H13 H 0.67359 0.33204 0.50401
 H14 H 0.74099 0.27507 0.59668
 H15 H 0.72705 0.25953 0.41161
 H16 H 0.77344 0.24029 0.41180
 H17 H 0.82627 0.16759 0.50524
 H18 H 0.75859 0.22476 0.59676
 C19 C 0.19129 0.81305 0.50700
 C20 C 0.20584 0.80431 0.55888
 C21 C 0.22939 0.78030 0.55865
 C22 C 0.23757 0.76329 0.50676
 C23 C 0.22187 0.77206 0.45496
 C24 C 0.19950 0.79736 0.45504
 C25 C 0.26220 0.73674 0.50674
 C26 C 0.27781 0.72782 0.45480
 C27 C 0.30023 0.70259 0.45478
 C28 C 0.30859 0.68710 0.50676
 C29 C 0.29413 0.69598 0.55881
 C30 C 0.27052 0.71994 0.55871
 H31 H 0.17345 0.83214 0.50697
 H32 H 0.24117 0.77533 0.59912
 H33 H 0.22656 0.75939 0.41435
 H34 H 0.27303 0.74032 0.41412
 H35 H 0.32647 0.66806 0.50660
 H36 H 0.25881 0.72503 0.59932
 C37 C 0.30774 0.31279 -0.50392
 C38 C 0.29335 0.30384 -0.55576
 C39 C 0.26992 0.27981 -0.55545
 C40 C 0.26166 0.26299 -0.50342
 C41 C 0.27719 0.27200 -0.45160
 C42 C 0.29947 0.29730 -0.45183
 C43 C 0.23723 0.23630 -0.50331
 C44 C 0.22158 0.22734 -0.45142
 C45 C 0.19933 0.20193 -0.45149
 C46 C 0.19127 0.18635 -0.50361
 C47 C 0.20581 0.19530 -0.55544
 C48 C 0.22917 0.21938 -0.55523
 H49 H 0.32551 0.33187 -0.50413
 H50 H 0.25834 0.27472 -0.59604
 H51 H 0.27247 0.25949 -0.41087
 H52 H 0.22621 0.24000 -0.41081
 H53 H 0.17356 0.16720 -0.50395
 H54 H 0.24087 0.22444 -0.59584
 C55 C -0.19109 0.81342 -0.50581
 C56 C -0.20554 0.80468 -0.55776
 C57 C -0.22897 0.78063 -0.55766
 C58 C -0.23716 0.76359 -0.50583
 C59 C -0.22157 0.77237 -0.45394
 C60 C -0.19930 0.79770 -0.45389
 C61 C -0.26165 0.73697 -0.50600
 C62 C -0.27728 0.72792 -0.45416
 C63 C -0.29961 0.70267 -0.45440
 C64 C -0.30782 0.68727 -0.50652
 C65 C -0.29332 0.69627 -0.55838
 C66 C -0.26985 0.72025 -0.55807
 H67 H -0.17332 0.83252 -0.50568
 H68 H -0.24068 0.77565 -0.59820
 H69 H -0.22626 0.75969 -0.41336
 H70 H -0.27260 0.74036 -0.41339
 H71 H -0.32561 0.66822 -0.50673
 H72 H -0.25819 0.72538 -0.59868
 N73 N -0.03208 0.94030 -0.06256
 N74 N -0.05226 0.91677 -0.07571
 N75 N 0.03269 0.96417 -0.10184
 N76 N 0.05495 0.95922 -0.13995
 N77 N 0.03265 0.94047 -0.06223
 N78 N 0.05487 0.91860 -0.07265
 N79 N -0.03205 0.96388 -0.10236
 N80 N -0.05227 0.95711 -0.14339
 C81 C -0.06499 0.92785 -0.12593
 C82 C 0.06875 0.93084 -0.12112
 N83 N 0.03230 1.05974 -0.06245
 N84 N 0.05251 1.08329 -0.07556
 N85 N -0.03231 1.03587 -0.10196
 N86 N -0.05446 1.04076 -0.14007
 N87 N -0.03242 1.05956 -0.06235
 N88 N -0.05466 1.08138 -0.07277
 N89 N 0.03243 1.03616 -0.10223
 N90 N 0.05280 1.04294 -0.14322
 Mn91 Mn 0.00019 1.00002 -0.10258
 C92 C 0.06543 1.07221 -0.12575
 C93 C -0.06836 1.06911 -0.12126
 N94 N 0.03213 0.94023 0.06352
 N95 N 0.05232 0.91666 0.07670
 N96 N -0.03267 0.96423 0.10279
 N97 N -0.05492 0.95934 0.14092
 N98 N -0.03260 0.94054 0.06319
 N99 N -0.05478 0.91870 0.07363
 N100 N 0.03207 0.96381 0.10331
 N101 N 0.05228 0.95700 0.14436
 Mn102 Mn 0.00002 0.93999 0.00048
 C103 C 0.06504 0.92771 0.12693
 C104 C -0.06867 0.93097 0.12211
 N105 N -0.03240 1.05981 0.06341
 N106 N -0.05262 1.08340 0.07655
 N107 N 0.03224 1.03580 0.10291
 N108 N 0.05438 1.04064 0.14104
 N109 N 0.03233 1.05950 0.06331
 N110 N 0.05453 1.08128 0.07375
 N111 N -0.03250 1.03622 0.10319
 N112 N -0.05286 1.04305 0.14419
 Mn113 Mn -0.00005 1.06004 0.00048
 Mn114 Mn -0.00022 1.00002 0.10354
 Cl115 Cl -0.00001 1.00002 0.00048
 C116 C -0.06552 1.07235 0.12675
 C117 C 0.06825 1.06898 0.12224
 N118 N 0.53207 0.55972 -0.06397
 N119 N 0.55239 0.58316 -0.07700
 N120 N 0.46735 0.53585 -0.10291
 N121 N 0.44525 0.54091 -0.14110
 N122 N 0.46734 0.55954 -0.06330
 N123 N 0.44525 0.58153 -0.07379
 N124 N 0.53209 0.53617 -0.10381
 N125 N 0.55249 0.54286 -0.14477
 C126 C 0.56525 0.57205 -0.12721
 C127 C 0.43149 0.56936 -0.12231
 N128 N 0.46777 0.44029 -0.06339
 N129 N 0.44744 0.41684 -0.07606
 N130 N 0.53240 0.46417 -0.10350
 N131 N 0.55443 0.45913 -0.14206
 N132 N 0.53249 0.44048 -0.06389
 N133 N 0.55459 0.41852 -0.07475
 N134 N 0.46765 0.46385 -0.10322
 N135 N 0.44718 0.45714 -0.14382
 Mn136 Mn 0.49987 0.50001 -0.10385
 C137 C 0.43447 0.42794 -0.12605
 C138 C 0.56824 0.43069 -0.12350
 N139 N 0.46774 0.55973 0.06245
 N140 N 0.44741 0.58321 0.07558
 N141 N 0.53253 0.53584 0.10135
 N142 N 0.55465 0.54086 0.13948
 N143 N 0.53247 0.55953 0.06175
 N144 N 0.55454 0.58148 0.07218
 N145 N 0.46779 0.53617 0.10226
 N146 N 0.44742 0.54289 0.14330
 Mn147 Mn 0.49990 0.56002 -0.00077
 C148 C 0.43461 0.57211 0.12583
 C149 C 0.56835 0.56928 0.12066
 N150 N 0.53238 0.44028 0.06186
 N151 N 0.55271 0.41679 0.07465
 N152 N 0.46768 0.46418 0.10195
 N153 N 0.44563 0.45918 0.14045
 N154 N 0.46765 0.44049 0.06234
 N155 N 0.44558 0.41857 0.07313
 N156 N 0.53242 0.46385 0.10167
 N157 N 0.55286 0.45711 0.14236
 Mn158 Mn 0.50007 0.44000 -0.00077
 Mn159 Mn 0.50011 0.50001 0.10230
 Cl160 Cl 0.49999 0.50001 -0.00077
 C161 C 0.56563 0.42788 0.12466
 C162 C 0.43187 0.43077 0.12185
 C163 C 0.37152 0.41354 0.23650
 C164 C 0.36325 0.38053 0.22367
 C165 C 0.37594 0.36457 0.17485
 C166 C 0.39751 0.38131 0.14001
 C167 C 0.30389 0.31885 0.39082
 C168 C 0.39311 0.43019 0.20202
 C169 C 0.34423 0.36242 0.26423
 C170 C 0.32979 0.34801 0.30141
 C171 C 0.31481 0.33196 0.34828
 C172 C 0.40677 0.41403 0.15412
 H173 H 0.36202 0.42606 0.27435
 H174 H 0.36989 0.33892 0.16479
 H175 H 0.40771 0.36829 0.10337
 H176 H 0.39969 0.45544 0.21380
 C177 C -0.12454 0.86476 0.17505
 C178 C -0.13746 0.88086 0.22350
 C179 C -0.12947 0.91400 0.23592
 C180 C -0.10786 0.93063 0.20148
 C181 C -0.19570 0.81906 0.39175
 C182 C -0.10295 0.88148 0.14023
 C183 C -0.15629 0.86274 0.26433
 C184 C -0.17049 0.84832 0.30178
 C185 C -0.18512 0.83223 0.34897
 C186 C -0.09391 0.91432 0.15405
 H187 H -0.13037 0.83900 0.16534
 H188 H -0.13915 0.92663 0.27350
 H189 H -0.10146 0.95597 0.21299
 H190 H -0.09252 0.86834 0.10395
 C191 C 0.62885 0.58658 0.23436
 C192 C 0.63700 0.61963 0.22151
 C193 C 0.62419 0.63560 0.17294
 C194 C 0.60261 0.61882 0.13838
 C195 C 0.69622 0.68132 0.38820
 C196 C 0.60726 0.56990 0.20017
 C197 C 0.65600 0.63778 0.26187
 C198 C 0.67042 0.65220 0.29892
 C199 C 0.68535 0.66824 0.34569
 C200 C 0.59347 0.58606 0.15255
 H201 H 0.63844 0.57405 0.27202
 H202 H 0.63015 0.66129 0.16287
 H203 H 0.59232 0.63185 0.10195
 H204 H 0.60077 0.54462 0.21198
 C205 C 0.12884 1.08572 0.23592
 C206 C 0.13701 1.11880 0.22342
 C207 C 0.12425 1.13495 0.17500
 C208 C 0.10266 1.11833 0.14027
 C209 C 0.19552 1.18024 0.39114
 C210 C 0.10723 1.06919 0.20157
 C211 C 0.15588 1.13682 0.26411
 C212 C 0.17014 1.15116 0.30145
 C213 C 0.18485 1.16715 0.34850
 C214 C 0.09345 1.08555 0.15414
 H215 H 0.13840 1.07305 0.27348
 H216 H 0.13023 1.16067 0.16522
 H217 H 0.09237 1.13150 0.10399
 H218 H 0.10070 1.04388 0.21312
 C219 C 0.62412 0.36433 -0.17680
 C220 C 0.63675 0.38026 -0.22566
 C221 C 0.62846 0.41330 -0.23841
 C222 C 0.60692 0.43002 -0.20382
 C223 C 0.69575 0.31841 -0.39331
 C224 C 0.60259 0.38113 -0.14184
 C225 C 0.65569 0.36209 -0.26635
 C226 C 0.67006 0.34763 -0.30364
 C227 C 0.68494 0.33154 -0.35064
 C228 C 0.59331 0.41389 -0.15588
 H229 H 0.63018 0.33865 -0.16679
 H230 H 0.63791 0.42581 -0.27630
 H231 H 0.60033 0.45529 -0.21555
 H232 H 0.59244 0.36813 -0.10517
 C233 C 0.12476 0.86454 -0.17393
 C234 C 0.13766 0.88060 -0.22239
 C235 C 0.12960 0.91374 -0.23487
 C236 C 0.10795 0.93041 -0.20048
 C237 C 0.19602 0.81868 -0.39058
 C238 C 0.10312 0.88130 -0.13916
 C239 C 0.15653 0.86244 -0.26317
 C240 C 0.17077 0.84798 -0.30061
 C241 C 0.18542 0.83186 -0.34779
 C242 C 0.09402 0.91413 -0.15303
 H243 H 0.13064 0.83878 -0.16417
 H244 H 0.13927 0.92634 -0.27246
 H245 H 0.10150 0.95575 -0.21203
 H246 H 0.09271 0.86819 -0.10287
 C247 C 0.37112 0.58682 -0.23627
 C248 C 0.36296 0.61991 -0.22350
 C249 C 0.37569 0.63584 -0.17489
 C250 C 0.39723 0.61900 -0.14021
 C251 C 0.30410 0.68176 -0.39070
 C252 C 0.39267 0.57007 -0.20197
 C253 C 0.34403 0.63811 -0.26399
 C254 C 0.32969 0.65257 -0.30116
 C255 C 0.31486 0.66866 -0.34807
 C256 C 0.40640 0.58620 -0.15430
 H257 H 0.36158 0.57431 -0.27397
 H258 H 0.36973 0.66155 -0.16487
 H259 H 0.40748 0.63200 -0.10375
 H260 H 0.39917 0.54476 -0.21372
 C261 C -0.12451 1.13518 -0.17388
 C262 C -0.13725 1.11907 -0.22231
 C263 C -0.12902 1.08598 -0.23487
 C264 C -0.10737 1.06941 -0.20056
 C265 C -0.19589 1.18062 -0.38997
 C266 C -0.10287 1.11852 -0.13919
 C267 C -0.15617 1.13713 -0.26296
 C268 C -0.17046 1.15151 -0.30027
 C269 C -0.18520 1.16752 -0.34731
 C270 C -0.09361 1.08573 -0.15312
 H271 H -0.13053 1.16091 -0.16406
 H272 H -0.13856 1.07335 -0.27243
 H273 H -0.10079 1.04410 -0.21216
 H274 H -0.09260 1.13166 -0.10291
 C275 C 0.61880 0.59600 -0.25002
 C276 C 0.62623 0.62903 -0.23548
 C277 C 0.61509 0.64291 -0.18356
 C278 C 0.59597 0.62401 -0.14702
 C279 C 0.68604 0.69141 -0.40137
 C280 C 0.59968 0.57717 -0.21378
 C281 C 0.64380 0.64879 -0.27602
 C282 C 0.65779 0.66395 -0.31289
 C283 C 0.67338 0.67979 -0.35925
 C284 C 0.58768 0.59114 -0.16238
 H285 H 0.62725 0.58502 -0.29014
 H286 H 0.62063 0.66849 -0.17196
 H287 H 0.58701 0.63539 -0.10769
 H288 H 0.59377 0.55190 -0.22665
 C289 C 0.11886 1.09625 -0.24876
 C290 C 0.12608 1.12937 -0.23453
 C291 C 0.11483 1.14332 -0.18274
 C292 C 0.09581 1.12439 -0.14603
 C293 C 0.18574 1.19135 -0.40122
 C294 C 0.09985 1.07738 -0.21235
 C295 C 0.14358 1.14913 -0.27525
 C296 C 0.15754 1.16422 -0.31229
 C297 C 0.17311 1.17992 -0.35887
 C298 C 0.08775 1.09140 -0.16107
 H299 H 0.12739 1.08520 -0.28876
 H300 H 0.12020 1.16898 -0.17138
 H301 H 0.08678 1.13582 -0.10681
 H302 H 0.09411 1.05203 -0.22499
 C303 C 0.38467 0.35700 -0.18171
 C304 C 0.37340 0.37090 -0.23341
 C305 C 0.38072 0.40396 -0.24798
 C306 C 0.39986 0.42282 -0.21201
 C307 C 0.31374 0.30851 -0.39883
 C308 C 0.40382 0.37592 -0.14545
 C309 C 0.35586 0.35111 -0.27376
 C310 C 0.34189 0.33594 -0.31051
 C311 C 0.32634 0.32010 -0.35676
 C312 C 0.41199 0.40883 -0.16086
 H313 H 0.37923 0.33140 -0.17011
 H314 H 0.37218 0.41495 -0.28793
 H315 H 0.40569 0.44811 -0.22490
 H316 H 0.41288 0.36453 -0.10630
 C317 C -0.11805 0.90384 -0.24901
 C318 C -0.12543 0.87077 -0.23465
 C319 C -0.11439 0.85684 -0.18279
 C320 C -0.09544 0.87575 -0.14612
 C321 C -0.18500 0.80873 -0.40077
 C322 C -0.09909 0.92269 -0.21264
 C323 C -0.14289 0.85103 -0.27527
 C324 C -0.15683 0.83594 -0.31220
 C325 C -0.17238 0.82021 -0.35860
 C326 C -0.08722 0.90869 -0.16127
 H327 H -0.12640 0.91487 -0.28907
 H328 H -0.11990 0.83123 -0.17132
 H329 H -0.08658 0.86435 -0.10682
 H330 H -0.09323 0.94800 -0.22537
 C331 C 0.38498 0.64313 0.18287
 C332 C 0.37387 0.62919 0.23473
 C333 C 0.38122 0.59608 0.24897
 C334 C 0.40025 0.57722 0.21250
 C335 C 0.31450 0.69142 0.40158
 C336 C 0.40401 0.62421 0.14610
 C337 C 0.35643 0.64896 0.27554
 C338 C 0.34254 0.66410 0.31265
 C339 C 0.32707 0.67988 0.35927
 C340 C 0.41223 0.59125 0.16117
 H341 H 0.37950 0.66878 0.17151
 H342 H 0.37279 0.58505 0.28904
 H343 H 0.40611 0.55188 0.22515
 H344 H 0.41296 0.63563 0.10683
 C345 C -0.11893 1.09648 0.24984
 C346 C -0.12617 1.12964 0.23567
 C347 C -0.11493 1.14359 0.18390
 C348 C -0.09592 1.12461 0.14714
 C349 C -0.18592 1.19167 0.40241
 C350 C -0.09992 1.07758 0.21338
 C351 C -0.14367 1.14942 0.27644
 C352 C -0.15765 1.16453 0.31350
 C353 C -0.17324 1.18023 0.36009
 C354 C -0.08784 1.09160 0.16212
 H355 H -0.12745 1.08545 0.28983
 H356 H -0.12031 1.16926 0.17258
 H357 H -0.08689 1.13603 0.10792
 H358 H -0.09417 1.05220 0.22598
 C359 C 0.61521 0.35678 0.18103
 C360 C 0.62645 0.37074 0.23267
 C361 C 0.61921 0.40389 0.24693
 C362 C 0.60016 0.42277 0.21073
 C363 C 0.68568 0.30850 0.39905
 C364 C 0.59616 0.37573 0.14453
 C365 C 0.64387 0.35094 0.27329
 C366 C 0.65774 0.33580 0.31027
 C367 C 0.67316 0.32002 0.35679
 C368 C 0.58805 0.40873 0.15965
 H369 H 0.62059 0.33110 0.16967
 H370 H 0.62774 0.41493 0.28683
 H371 H 0.59438 0.44814 0.22340
 H372 H 0.58711 0.36429 0.10544
 C373 C 0.11445 0.85658 0.18394
 C374 C 0.12546 0.87050 0.23579
 C375 C 0.11806 0.90361 0.25009
 C376 C 0.09912 0.92249 0.21367
 C377 C 0.18513 0.80840 0.40197
 C378 C 0.09550 0.87553 0.14722
 C379 C 0.14293 0.85074 0.27645
 C380 C 0.15688 0.83563 0.31340
 C381 C 0.17246 0.81989 0.35982
 C382 C 0.08727 0.90850 0.16231
 H383 H 0.11996 0.83094 0.17252
 H384 H 0.12641 0.91462 0.29013
 H385 H 0.09324 0.94782 0.22635
 H386 H 0.08665 0.86412 0.10794
   
