data_POSCAR
  _audit_creation_date              2014-09-24
  _audit_creation_method            'ToBaCCo'
  _symmetry_space_group_name_H-M    'P1'
  _symmetry_Int_Tables_number       1
  _symmetry_cell_setting            triclinic
  loop_
  _symmetry_equiv_pos_as_xyz
 x,y,z
_cell_length_a 27.4809
_cell_length_b 27.4382
_cell_length_c 71.5340
_cell_angle_alpha 82.452900
_cell_angle_beta 93.418900
_cell_angle_gamma 119.560600
loop_
  _atom_site_label
  _atom_site_type_symbol
  _atom_site_fract_x
  _atom_site_fract_y
  _atom_site_fract_z
C1 C 0.01209 0.12152 0.52235
 H2 H 0.05373 0.12663 0.52243
 C3 C 0.00023 0.15301 0.53322
 H4 H 0.03294 0.18186 0.54181
 C5 C -0.08141 0.07610 0.51146
 H6 H -0.11296 0.04613 0.50292
 C7 C -0.09524 0.10658 0.52225
 H8 H -0.13752 0.09993 0.52189
 N9 N -0.02863 0.08350 0.51196
 C10 C 0.01083 -0.05051 0.50851
 H11 H 0.01409 -0.04910 0.49343
 C12 C 0.01403 -0.09309 0.52068
 H13 H 0.02057 -0.12395 0.51488
 C14 C -0.00307 -0.01278 0.53436
 H15 H -0.01115 0.01760 0.53967
 C16 C 0.00013 -0.05433 0.54700
 H17 H -0.00566 -0.05533 0.56191
 Zn18 Zn -0.00754 0.04193 0.49848
 N19 N 0.00235 -0.01149 0.51550
 C20 C 0.10494 0.08605 0.48589
 N21 N 0.05979 0.09406 0.48543
 C22 C 0.06067 0.13998 0.47527
 C23 C 0.10744 0.17904 0.46443
 C24 C 0.15264 0.12406 0.47516
 C25 C -0.11236 -0.04329 0.48735
 C26 C -0.15159 -0.07724 0.47474
 C27 C -0.08933 -0.01658 0.44913
 C28 C -0.05147 0.01573 0.46224
 N29 N -0.06318 0.00179 0.48096
 H30 H 0.10375 0.04977 0.49429
 H31 H 0.02427 0.14543 0.47524
 H32 H 0.10639 0.21418 0.45593
 H33 H 0.18798 0.11675 0.47546
 H34 H -0.12029 -0.05417 0.50238
 H35 H -0.18822 -0.11425 0.48088
 H36 H -0.07811 -0.00131 0.43448
 H37 H -0.01223 0.05167 0.45733
 C38 C 0.00837 -0.09547 0.54022
 C39 C -0.05414 0.14542 0.53340
 C40 C -0.14038 -0.06549 0.45505
 C41 C 0.15400 0.17098 0.46408
 C42 C 1.17208 0.10308 0.13969
 H43 H 1.17743 0.14492 0.13954
 C44 C 1.20616 0.09449 0.12841
 H45 H 1.23820 0.13021 0.11976
 C46 C 1.12372 0.00590 0.15127
 H47 H 1.09134 -0.02848 0.16015
 C48 C 1.15689 -0.00466 0.14013
 H49 H 1.14913 -0.04744 0.14037
 N50 N 1.13109 0.05893 0.15051
 C51 C 0.99562 0.09660 0.15368
 H52 H 0.99226 0.09584 0.16872
 C53 C 0.95592 0.10130 0.14155
 H54 H 0.92254 0.10504 0.14733
 C55 C 1.04190 0.09031 0.12795
 H56 H 1.07427 0.08419 0.12270
 C57 C 1.00340 0.09516 0.11535
 H58 H 1.00680 0.09263 0.10055
 Zn59 Zn 1.08464 0.07540 0.16388
 N60 N 1.03728 0.09079 0.14674
 C61 C 1.12431 0.18386 0.17619
 N62 N 1.13172 0.13816 0.17686
 C63 C 1.17325 0.13489 0.18726
 C64 C 1.20822 0.17774 0.19810
 C65 C 1.15829 0.22771 0.18692
 C66 C 0.99605 -0.03398 0.17489
 C67 C 0.95677 -0.07764 0.18739
 C68 C 1.00496 -0.02333 0.21308
 C69 C 1.04311 0.01918 0.20014
 N70 N 1.03786 0.01345 0.18141
 H71 H 1.09154 0.18598 0.16762
 H72 H 1.17827 0.09811 0.18747
 H73 H 1.23975 0.17327 0.20678
 H74 H 1.15147 0.26349 0.18646
 H75 H 0.99213 -0.03702 0.15989
 H76 H 0.92268 -0.11424 0.18189
 H77 H 1.00974 -0.01764 0.22790
 H78 H 1.07590 0.05741 0.20509
 C79 C 0.95918 0.09992 0.12211
 C80 C 1.19810 0.03987 0.12824
 C81 C 0.96040 -0.07207 0.20674
 C82 C 1.20057 0.22465 0.19821
 C83 C 0.01126 0.86405 0.86184
 H84 H -0.02416 0.82209 0.86161
 C85 C 0.05727 0.87227 0.87308
 H86 H 0.05718 0.83619 0.88133
 C87 C 0.05407 0.96183 0.85122
 H88 H 0.05250 0.99659 0.84272
 C89 C 0.10103 0.97202 0.86234
 H90 H 0.13493 1.01489 0.86249
 N91 N 0.00990 0.90864 0.85152
 C92 C -0.16317 0.87234 0.84847
 H93 H -0.17003 0.87508 0.83340
 C94 C -0.20353 0.86726 0.86078
 H95 H -0.24192 0.86399 0.85477
 C96 C -0.10436 0.87314 0.87407
 H97 H -0.06489 0.87750 0.87925
 C98 C -0.14360 0.86747 0.88688
 H99 H -0.13195 0.86871 0.90158
 Zn100 Zn -0.05682 0.89260 0.83809
 N101 N -0.11443 0.87588 0.85525
 C102 C -0.12736 0.78625 0.82416
 N103 N -0.07478 0.83100 0.82463
 C104 C -0.03190 0.83451 0.81494
 C105 C -0.04117 0.79267 0.80385
 C106 C -0.13865 0.74348 0.81306
 C107 C -0.04032 1.00263 0.82755
 C108 C -0.03850 1.04737 0.81512
 C109 C -0.05153 0.99384 0.78922
 C110 C -0.05302 0.95033 0.80209
 N111 N -0.04765 0.95526 0.82087
 H112 H -0.16074 0.78416 0.83208
 H113 H 0.00945 0.87065 0.81556
 H114 H -0.00671 0.79724 0.79581
 H115 H -0.18080 0.70844 0.81258
 H116 H -0.03727 1.00504 0.84258
 H117 H -0.03401 1.08420 0.82070
 H118 H -0.05596 0.98895 0.77434
 H119 H -0.05970 0.91215 0.79701
 C120 C -0.19402 0.86564 0.88044
 C121 C 0.10253 0.92698 0.87374
 C122 C -0.04496 1.04287 0.79569
 C123 C -0.09521 0.74666 0.80264
 C124 C 0.38942 -0.01733 0.00103
 C125 C 0.41242 -0.01643 -0.01597
 C126 C 0.46374 -0.01562 -0.01609
 C127 C 0.49187 -0.01740 0.00096
 C128 C 0.46748 -0.01913 0.01804
 C129 C 0.41696 -0.01824 0.01800
 C130 C 0.54624 -0.01747 0.00091
 C131 C 0.58681 0.00692 0.01487
 C132 C 0.63732 0.00601 0.01497
 C133 C 0.64871 -0.01763 0.00084
 C134 C 0.60947 -0.04119 -0.01326
 C135 C 0.55818 -0.04194 -0.01309
 H136 H 0.34994 -0.01731 0.00105
 H137 H 0.48156 -0.01319 -0.02950
 H138 H 0.48718 -0.02158 0.03143
 H139 H 0.57968 0.02705 0.02563
 H140 H 0.68814 -0.01772 0.00082
 H141 H 0.52774 -0.06203 -0.02381
 C142 C -0.07724 0.57683 0.66872
 C143 C -0.09377 0.53690 0.68467
 C144 C -0.09593 0.48508 0.68403
 C145 C -0.07973 0.47335 0.66755
 C146 C -0.06235 0.51461 0.65167
 C147 C -0.06189 0.56566 0.65220
 C148 C -0.08010 0.41887 0.66703
 C149 C -0.08975 0.39472 0.64999
 C150 C -0.08841 0.34457 0.64945
 C151 C -0.07920 0.31702 0.66597
 C152 C -0.07040 0.33977 0.68301
 C153 C -0.07004 0.39077 0.68353
 H154 H -0.07581 0.61686 0.66923
 H155 H -0.11023 0.45425 0.69642
 H156 H -0.04832 0.50779 0.63893
 H157 H -0.09841 0.41453 0.63710
 H158 H -0.07851 0.27798 0.66554
 H159 H -0.06119 0.40856 0.69678
 C160 C 0.66545 0.68533 0.33162
 C161 C 0.65083 0.65573 0.31592
 C162 C 0.60056 0.60469 0.31590
 C163 C 0.56346 0.58358 0.33147
 C164 C 0.57868 0.61467 0.34711
 C165 C 0.62980 0.66479 0.34725
 C166 C 0.50928 0.52957 0.33137
 C167 C 0.48518 0.49476 0.34836
 C168 C 0.43402 0.44466 0.34827
 C169 C 0.40718 0.42778 0.33122
 C170 C 0.43077 0.46119 0.31424
 C171 C 0.48105 0.51221 0.31430
 H172 H 0.70471 0.72458 0.33167
 H173 H 0.59095 0.58165 0.30380
 H174 H 0.55094 0.60056 0.35914
 H175 H 0.50602 0.50601 0.36170
 H176 H 0.36789 0.38859 0.33116
 H177 H 0.49758 0.53821 0.30102
 C178 C -0.03954 0.26039 0.56116
 C179 C -0.08748 0.23135 0.57256
 C180 C -0.12671 0.17546 0.57014
 C181 C -0.11710 0.14810 0.55680
 C182 C -0.06786 0.17628 0.54583
 C183 C -0.02979 0.23311 0.54787
 C184 C -0.09333 0.25716 0.58792
 C185 C -0.09579 0.27832 0.60131
 C186 C -0.09592 0.30238 0.61756
 C187 C -0.09373 0.32213 0.63188
 H188 H -0.00877 0.30358 0.56296
 H189 H -0.16372 0.15241 0.57901
 H190 H -0.14686 0.10418 0.55569
 H191 H 0.00813 0.25609 0.53945
 C192 C 0.85221 0.78706 0.23188
 C193 C 0.83366 0.80495 0.24602
 C194 C 0.85611 0.86261 0.24715
 C195 C 0.89711 0.90231 0.23435
 C196 C 0.91650 0.88501 0.22018
 C197 C 0.89336 0.82690 0.21898
 C198 C 0.79215 0.76508 0.25967
 C199 C 0.75808 0.73480 0.27174
 C200 C 0.71928 0.70317 0.28654
 C201 C 0.68731 0.67958 0.29969
 H202 H 0.83515 0.74249 0.23089
 H203 H 0.84193 0.87695 0.25799
 H204 H 0.91321 0.94667 0.23543
 H205 H 0.90768 0.81234 0.20828
 C206 C 0.24900 -0.01387 -0.10568
 C207 C 0.23757 -0.04366 -0.08757
 C208 C 0.18242 -0.08307 -0.08225
 C209 C 0.13877 -0.09268 -0.09488
 C210 C 0.14959 -0.06304 -0.11311
 C211 C 0.20524 -0.02348 -0.11839
 C212 C 0.28155 -0.03356 -0.07408
 C213 C 0.31588 -0.02694 -0.06193
 C214 C 0.35293 -0.02129 -0.04679
 C215 C 0.38171 -0.01816 -0.03312
 H216 H 0.29158 0.01682 -0.10993
 H217 H 0.17305 -0.10608 -0.06823
 H218 H 0.09638 -0.12258 -0.09023
 H219 H 0.21492 -0.00035 -0.13237
 C220 C 0.02968 0.82456 0.58440
 C221 C -0.00136 0.76881 0.58025
 C222 C -0.02619 0.75768 0.56252
 C223 C -0.02132 0.80203 0.54919
 C224 C 0.00819 0.85806 0.55350
 C225 C 0.03451 0.86890 0.57113
 C226 C -0.01123 0.72314 0.59471
 C227 C -0.02090 0.68565 0.60728
 C228 C -0.03374 0.64275 0.62248
 C229 C -0.04593 0.60706 0.63584
 H230 H 0.04899 0.83366 0.59809
 H231 H -0.05065 0.71465 0.55920
 H232 H -0.04257 0.79230 0.53583
 H233 H 0.05810 0.91164 0.57476
 C234 C 0.24066 0.32601 0.23489
 C235 C 0.29713 0.34177 0.23773
 C236 C 0.32299 0.32248 0.22668
 C237 C 0.29211 0.28610 0.21328
 C238 C 0.23482 0.26836 0.21080
 C239 C 0.20969 0.28966 0.22147
 C240 C 0.32722 0.37345 0.25304
 C241 C 0.35195 0.39748 0.26638
 C242 C 0.38024 0.42269 0.28254
 C243 C 0.40371 0.44167 0.29677
 H244 H 0.22009 0.34031 0.24348
 H245 H 0.36662 0.33427 0.22878
 H246 H 0.31278 0.27097 0.20511
 H247 H 0.16555 0.27627 0.22004
 C248 C 0.73494 -0.14852 -0.07444
 C249 C 0.70282 -0.12282 -0.08037
 C250 C 0.70097 -0.10530 -0.09952
 C251 C 0.73290 -0.11139 -0.11261
 C252 C 0.76821 -0.13446 -0.10675
 C253 C 0.76707 -0.15452 -0.08742
 C254 C 0.67606 -0.10999 -0.06657
 C255 C 0.65657 -0.09716 -0.05468
 C256 C 0.63702 -0.07987 -0.04046
 C257 C 0.62303 -0.06323 -0.02813
 H258 H 0.73629 -0.16275 -0.05964
 H259 H 0.67650 -0.08492 -0.10426
 H260 H 0.73249 -0.09409 -0.12706
 H261 H 0.79058 -0.17541 -0.08211
 C262 C 0.28063 -0.01893 0.10790
 C263 C 0.29139 0.00936 0.08957
 C264 C 0.27203 0.04755 0.08400
 C265 C 0.24199 0.05749 0.09661
 C266 C 0.23084 0.02939 0.11507
 C267 C 0.25045 -0.00903 0.12059
 C268 C 0.32126 -0.00088 0.07612
 C269 C 0.34530 -0.00758 0.06400
 C270 C 0.37204 -0.01331 0.04886
 C271 C 0.39343 -0.01648 0.03518
 H272 H 0.29540 -0.04864 0.11235
 H273 H 0.27979 0.06939 0.06982
 H274 H 0.22660 0.08647 0.09179
 H275 H 0.24289 -0.03096 0.13475
 C276 C 0.80696 0.86528 0.41131
 C277 C 0.75185 0.82579 0.41631
 C278 C 0.73190 0.82298 0.43413
 C279 C 0.76721 0.85933 0.44700
 C280 C 0.82387 0.89972 0.44237
 C281 C 0.84243 0.90159 0.42402
 C282 C 0.71715 0.78760 0.40306
 C283 C 0.69153 0.75694 0.39122
 C284 C 0.66568 0.72281 0.37657
 C285 C 0.64725 0.69535 0.36348
 H286 H 0.82312 0.86733 0.39760
 H287 H 0.68896 0.79270 0.43810
 H288 H 0.74842 0.85633 0.46023
 H289 H 0.88528 0.92838 0.41942
 C290 C -0.01115 0.18704 0.77047
 C291 C -0.04980 0.17183 0.75571
 C292 C -0.08744 0.11488 0.75434
 C293 C -0.08613 0.07318 0.76746
 C294 C -0.04699 0.08779 0.78219
 C295 C -0.00984 0.14523 0.78370
 C296 C -0.05046 0.21384 0.74151
 C297 C -0.05269 0.24658 0.72896
 C298 C -0.05717 0.28200 0.71358
 C299 C -0.06245 0.30974 0.69991
 H300 H 0.01831 0.23103 0.77163
 H301 H -0.11762 0.10263 0.74300
 H302 H -0.11596 0.02942 0.76612
 H303 H 0.02096 0.15770 0.79483
 C304 C 0.88648 0.12142 0.07762
 C305 C 0.83019 0.08632 0.08271
 C306 C 0.81605 0.05931 0.10114
 C307 C 0.85806 0.06578 0.11425
 C308 C 0.91481 0.09914 0.10904
 C309 C 0.92854 0.12790 0.09069
 C310 C 0.78742 0.07385 0.06858
 C311 C 0.75210 0.06130 0.05652
 C312 C 0.71142 0.04428 0.04219
 C313 C 0.67730 0.02785 0.02983
 H314 H 0.89793 0.14239 0.06337
 H315 H 0.77263 0.03165 0.10519
 H316 H 0.84612 0.04252 0.12818
 H317 H 0.97184 0.15438 0.08633
 C318 C 0.26252 0.30410 0.43571
 C319 C 0.28546 0.28218 0.42454
 C320 C 0.26825 0.22448 0.42724
 C321 C 0.22699 0.18853 0.44064
 C322 C 0.20220 0.20988 0.45145
 C323 C 0.22124 0.26825 0.44910
 C324 C 0.32282 0.31801 0.40926
 C325 C 0.35186 0.34773 0.39595
 C326 C 0.38321 0.38208 0.37984
 C327 C 0.40767 0.41092 0.36566
 H328 H 0.27542 0.34867 0.43371
 H329 H 0.28540 0.20699 0.41856
 H330 H 0.21277 0.14373 0.44196
 H331 H 0.20346 0.28602 0.45738
 C332 C -0.07342 0.65115 0.77455
 C333 C -0.11830 0.63526 0.76200
 C334 C -0.15835 0.65183 0.76380
 C335 C -0.15239 0.68593 0.77766
 C336 C -0.10598 0.70421 0.78977
 C337 C -0.06730 0.68532 0.78836
 C338 C -0.11968 0.60711 0.74619
 C339 C -0.11793 0.58648 0.73255
 C340 C -0.11263 0.56575 0.71619
 C341 C -0.10545 0.55098 0.70194
 H342 H -0.04205 0.63876 0.77325
 H343 H -0.19300 0.64017 0.75405
 H344 H -0.18250 0.70029 0.77829
 H345 H -0.03153 0.69817 0.79764
   
