data_POSCAR
  _audit_creation_date              2014-09-24
  _audit_creation_method            'ToBaCCo'
  _symmetry_space_group_name_H-M    'P1'
  _symmetry_Int_Tables_number       1
  _symmetry_cell_setting            triclinic
  loop_
  _symmetry_equiv_pos_as_xyz
 x,y,z
_cell_length_a 19.8943
_cell_length_b 19.9048
_cell_length_c 10.0695
_cell_angle_alpha 89.854900
_cell_angle_beta 89.798100
_cell_angle_gamma 92.223100
loop_
  _atom_site_label
  _atom_site_type_symbol
  _atom_site_fract_x
  _atom_site_fract_y
  _atom_site_fract_z
C1 C 0.30300 0.18022 0.34083
 C2 C 0.24614 0.21398 0.31104
 C3 C 0.19049 0.18342 0.25121
 C4 C 0.18830 0.11610 0.22626
 C5 C 0.24985 0.07999 0.25056
 C6 C 0.31004 0.11527 0.30070
 C7 C 0.25060 0.28494 0.31294
 C8 C 0.30706 0.31623 0.25693
 C9 C 0.30787 0.38274 0.22613
 C10 C 0.24596 0.41849 0.24741
 C11 C 0.18617 0.38365 0.30182
 C12 C 0.19314 0.31820 0.34104
 H13 H 0.34426 0.20783 0.38856
 H14 H 0.14838 0.21313 0.22184
 H15 H 0.35026 0.28740 0.23037
 H16 H 0.15182 0.28981 0.38802
 H17 H 0.25152 0.02692 0.22858
 H18 H 0.24432 0.47132 0.22282
 C19 C 0.80336 0.67987 0.35192
 C20 C 0.74609 0.71369 0.32604
 C21 C 0.69032 0.68338 0.26504
 C22 C 0.69100 0.61800 0.22532
 C23 C 0.75360 0.58299 0.24223
 C24 C 0.81222 0.61705 0.30097
 C25 C 0.75150 0.78499 0.32682
 C26 C 0.80812 0.81580 0.26881
 C27 C 0.80848 0.88175 0.23222
 C28 C 0.74608 0.91721 0.25011
 C29 C 0.68643 0.88300 0.30655
 C30 C 0.69406 0.81866 0.35233
 H31 H 0.84399 0.70673 0.40314
 H32 H 0.64675 0.71216 0.24124
 H33 H 0.85168 0.78701 0.24468
 H34 H 0.65298 0.79099 0.40157
 H35 H 0.75685 0.53133 0.21087
 H36 H 0.74389 0.96943 0.22125
 C37 C 0.80536 0.18128 0.83868
 C38 C 0.74787 0.21462 0.81139
 C39 C 0.69169 0.18322 0.75510
 C40 C 0.69085 0.11652 0.72596
 C41 C 0.75257 0.08079 0.74802
 C42 C 0.81212 0.11589 0.80074
 C43 C 0.75158 0.28579 0.81300
 C44 C 0.80793 0.31791 0.75812
 C45 C 0.80806 0.38448 0.72733
 C46 C 0.74559 0.41943 0.74758
 C47 C 0.68610 0.38395 0.80185
 C48 C 0.69369 0.31851 0.84047
 H49 H 0.84686 0.20911 0.88516
 H50 H 0.64857 0.21194 0.72786
 H51 H 0.85156 0.28968 0.73192
 H52 H 0.65252 0.28979 0.88715
 H53 H 0.75438 0.02787 0.72488
 H54 H 0.74335 0.47214 0.72227
 C55 C 0.30697 0.68200 0.83407
 C56 C 0.24929 0.71472 0.80530
 C57 C 0.19288 0.68274 0.75254
 C58 C 0.19212 0.61592 0.72586
 C59 C 0.25401 0.58037 0.74839
 C60 C 0.31375 0.61587 0.80042
 C61 C 0.25288 0.78557 0.80202
 C62 C 0.30856 0.81665 0.74299
 C63 C 0.31141 0.88438 0.72266
 C64 C 0.25047 0.92073 0.75053
 C65 C 0.19005 0.88509 0.79947
 C66 C 0.19605 0.81908 0.83355
 H67 H 0.34844 0.71105 0.87813
 H68 H 0.14967 0.71131 0.72514
 H69 H 0.35034 0.78698 0.71132
 H70 H 0.15452 0.79103 0.88030
 H71 H 0.25561 0.52727 0.72662
 H72 H 0.24948 0.97425 0.73216
 C73 C 0.18136 0.30711 0.66178
 C74 C 0.21443 0.24971 0.69069
 C75 C 0.18290 0.19335 0.74615
 C76 C 0.11618 0.19250 0.77576
 C77 C 0.08047 0.25444 0.75367
 C78 C 0.11559 0.31416 0.69916
 C79 C 0.28540 0.25390 0.69228
 C80 C 0.31625 0.30948 0.75164
 C81 C 0.38383 0.31192 0.77423
 C82 C 0.42008 0.25073 0.74728
 C83 C 0.38464 0.19063 0.69699
 C84 C 0.31906 0.19723 0.66068
 H85 H 0.21009 0.34830 0.61519
 H86 H 0.21176 0.15025 0.77304
 H87 H 0.28651 0.35133 0.78244
 H88 H 0.29115 0.15593 0.61369
 H89 H 0.02754 0.25611 0.77788
 H90 H 0.47337 0.24927 0.76754
 C91 C 0.68187 0.80531 0.67446
 C92 C 0.71500 0.74841 0.70710
 C93 C 0.68320 0.69177 0.76000
 C94 C 0.61514 0.68828 0.77528
 C95 C 0.57886 0.74924 0.74702
 C96 C 0.61497 0.81033 0.70233
 C97 C 0.78569 0.75206 0.70864
 C98 C 0.81680 0.80771 0.76590
 C99 C 0.88480 0.81135 0.78129
 C100 C 0.92154 0.75094 0.74997
 C101 C 0.88590 0.69036 0.70223
 C102 C 0.81924 0.69577 0.67371
 H103 H 0.71068 0.84757 0.63201
 H104 H 0.71274 0.64994 0.79175
 H105 H 0.78686 0.84889 0.79951
 H106 H 0.79088 0.65420 0.62856
 H107 H 0.52500 0.74970 0.76197
 H108 H 0.97536 0.75052 0.76475
 C109 C 0.68106 0.30565 0.15593
 C110 C 0.71491 0.24827 0.18088
 C111 C 0.68394 0.19139 0.23701
 C112 C 0.61748 0.19034 0.26961
 C113 C 0.58161 0.25218 0.25109
 C114 C 0.61622 0.31214 0.19864
 C115 C 0.78616 0.25329 0.18026
 C116 C 0.81711 0.30967 0.23721
 C117 C 0.88314 0.30979 0.27193
 C118 C 0.91841 0.24741 0.25477
 C119 C 0.88376 0.18806 0.20055
 C120 C 0.81982 0.19584 0.15475
 H121 H 0.70840 0.34746 0.10871
 H122 H 0.71278 0.14806 0.26222
 H123 H 0.78847 0.35320 0.26192
 H124 H 0.79251 0.15459 0.10643
 H125 H 0.52886 0.25382 0.27640
 H126 H 0.97070 0.24491 0.28246
 C127 C 0.18184 0.80591 0.15076
 C128 C 0.21539 0.74839 0.17582
 C129 C 0.18448 0.69186 0.23331
 C130 C 0.11843 0.69142 0.26878
 C131 C 0.08288 0.75368 0.25073
 C132 C 0.11729 0.81338 0.19535
 C133 C 0.28663 0.75346 0.17579
 C134 C 0.31728 0.80957 0.23439
 C135 C 0.38299 0.80934 0.27126
 C136 C 0.41830 0.74706 0.25399
 C137 C 0.38393 0.68804 0.19800
 C138 C 0.32032 0.69607 0.15050
 H139 H 0.20959 0.84708 0.10206
 H140 H 0.21322 0.64834 0.25779
 H141 H 0.28858 0.85311 0.25878
 H142 H 0.29316 0.65501 0.10122
 H143 H 0.03045 0.75571 0.27843
 H144 H 0.47038 0.74437 0.28302
 O145 O 1.11733 0.03005 0.16391
 O146 O 0.88418 -0.03209 0.16454
 O147 O 0.97096 0.11176 0.17377
 O148 O 1.02996 -0.11521 0.17150
 O149 O 0.87723 0.07731 0.09779
 O150 O 1.12362 -0.07857 0.09543
 O151 O 0.91443 -0.12697 0.10153
 O152 O 1.08536 0.12478 0.10394
 C153 C 1.12701 0.08992 0.16942
 C154 C 0.87366 -0.09196 0.16920
 C155 C 0.91081 0.11971 0.16939
 C156 C 1.09029 -0.12259 0.16516
 O157 O 1.11455 -0.02763 -0.16703
 O158 O 0.88736 0.02827 -0.16598
 O159 O 1.03042 0.11619 -0.15743
 O160 O 0.97071 -0.11705 -0.15894
 O161 O 0.87603 -0.08607 -0.09628
 O162 O 1.12554 0.08697 -0.09490
 O163 O 1.07975 -0.12235 -0.09297
 O164 O 0.92152 0.12219 -0.09010
 Co165 Co 1.10951 0.00271 -0.00106
 Co166 Co 0.89188 -0.00314 -0.00028
 Co167 Co 1.00223 0.10808 0.00786
 Co168 Co 0.99855 -0.10963 0.00595
 O169 O 1.00053 -0.00049 0.00337
 C170 C 1.12233 -0.08786 -0.16395
 C171 C 0.87955 0.08843 -0.16239
 C172 C 1.09012 0.12725 -0.16235
 C173 C 0.91090 -0.12715 -0.16317
 O174 O 1.11635 0.53007 0.66120
 O175 O 0.88331 0.47111 0.66011
 O176 O 0.97302 0.61443 0.66634
 O177 O 1.02859 0.38572 0.66873
 O178 O 0.87856 0.58077 0.59169
 O179 O 1.12283 0.42114 0.59395
 O180 O 0.91375 0.37597 0.59826
 O181 O 1.08732 0.62497 0.59632
 C182 C 1.12711 0.58973 0.66519
 C183 C 0.87306 0.41122 0.66543
 C184 C 0.91294 0.62290 0.66292
 C185 C 1.08885 0.37779 0.66409
 O186 O 1.11542 0.47116 0.33034
 O187 O 0.88837 0.52990 0.32831
 O188 O 1.03251 0.61556 0.33556
 O189 O 0.96950 0.38441 0.33791
 O190 O 0.87465 0.41544 0.40047
 O191 O 1.12730 0.58600 0.39973
 O192 O 1.07874 0.37733 0.40520
 O193 O 0.92342 0.62374 0.40268
 Co194 Co 1.10973 0.50230 0.49594
 Co195 Co 0.89192 0.49921 0.49476
 Co196 Co 1.00403 0.60903 0.50075
 Co197 Co 0.99764 0.39160 0.50286
 O198 O 1.00080 0.50049 0.49878
 C199 C 1.12261 0.41081 0.33536
 C200 C 0.88074 0.59010 0.33168
 C201 C 1.09230 0.62627 0.33116
 C202 C 0.90962 0.37462 0.33321
 O203 O 0.61557 0.03027 0.66089
 O204 O 0.38259 -0.02948 0.66064
 O205 O 0.47158 0.11415 0.66593
 O206 O 0.52789 -0.11378 0.66891
 O207 O 0.37726 0.07977 0.59195
 O208 O 0.62245 -0.07941 0.59446
 O209 O 0.41403 -0.12431 0.59974
 O210 O 0.58604 0.12510 0.59567
 C211 C 0.62601 0.09008 0.66465
 C212 C 0.37274 -0.08937 0.66602
 C213 C 0.41148 0.12245 0.66220
 C214 C 0.58800 -0.12195 0.66532
 O215 O 0.61471 -0.02971 0.33044
 O216 O 0.38677 0.02844 0.32914
 O217 O 0.53128 0.11498 0.33515
 O218 O 0.46900 -0.11605 0.33863
 O219 O 0.37395 -0.08580 0.40173
 O220 O 0.62608 0.08512 0.39961
 O221 O 0.57817 -0.12320 0.40604
 O222 O 0.42159 0.12264 0.40239
 Co223 Co 0.60895 0.00174 0.49604
 Co224 Co 0.39090 -0.00187 0.49546
 Co225 Co 0.50264 0.10857 0.50026
 Co226 Co 0.49720 -0.10866 0.50340
 O227 O 0.49994 -0.00008 0.49889
 C228 C 0.62225 -0.08997 0.33650
 C229 C 0.37866 0.08853 0.33257
 C230 C 0.59115 0.12527 0.33082
 C231 C 0.40915 -0.12618 0.33401
 O232 O 0.61564 0.53197 0.15787
 O233 O 0.38416 0.46845 0.16048
 O234 O 0.47164 0.61299 0.16827
 O235 O 0.52782 0.38640 0.16863
 O236 O 0.37738 0.57738 0.09539
 O237 O 0.62200 0.42256 0.09414
 O238 O 0.41318 0.37375 0.09589
 O239 O 0.58614 0.62671 0.09351
 C240 C 0.62648 0.59175 0.16151
 C241 C 0.37307 0.40882 0.16437
 C242 C 0.41126 0.62004 0.16607
 C243 C 0.58828 0.37971 0.16551
 O244 O 0.61356 0.47030 -0.17128
 O245 O 0.38560 0.52918 -0.16969
 O246 O 0.52871 0.61709 -0.16421
 O247 O 0.47007 0.38247 -0.16239
 O248 O 0.37510 0.41450 -0.10215
 O249 O 0.62353 0.58500 -0.10458
 O250 O 0.57902 0.37664 -0.09341
 O251 O 0.42010 0.62293 -0.09350
 Co252 Co 0.60812 0.50254 -0.00640
 Co253 Co 0.39113 0.49727 -0.00450
 Co254 Co 0.50170 0.60903 0.00145
 Co255 Co 0.49744 0.39069 0.00250
 O256 O 0.49962 0.49988 -0.00239
 C257 C 0.62210 0.41027 -0.16457
 C258 C 0.37722 0.58925 -0.16409
 C259 C 0.58864 0.62656 -0.17021
 C260 C 0.41009 0.37299 -0.16812
   
