data_POSCAR
  _audit_creation_date              2014-09-24
  _audit_creation_method            'ToBaCCo'
  _symmetry_space_group_name_H-M    'P1'
  _symmetry_Int_Tables_number       1
  _symmetry_cell_setting            triclinic
  loop_
  _symmetry_equiv_pos_as_xyz
 x,y,z
_cell_length_a 20.5258
_cell_length_b 20.6272
_cell_length_c 34.6761
_cell_angle_alpha 88.789900
_cell_angle_beta 91.104500
_cell_angle_gamma 100.193000
loop_
  _atom_site_label
  _atom_site_type_symbol
  _atom_site_fract_x
  _atom_site_fract_y
  _atom_site_fract_z
O1 O -0.05430 0.55267 0.96160
 O2 O -0.05652 0.42163 1.03556
 O3 O -0.06127 0.54730 1.03628
 O4 O -0.04940 0.42712 0.96087
 O5 O 0.05986 0.45010 0.96536
 O6 O 0.04799 0.57025 1.04077
 O7 O 0.05273 0.44460 1.04005
 O8 O 0.05496 0.57566 0.96609
 Cu9 Cu -0.06641 0.48485 0.99813
 Cu10 Cu 0.06492 0.51247 1.00353
 C11 C 0.00067 0.58659 0.95157
 C12 C -0.00223 0.41065 1.05007
 C13 C -0.00861 0.57945 1.05102
 C14 C 0.00721 0.41799 0.95059
 O15 O 0.45063 0.05819 0.53528
 O16 O 0.57381 0.05183 0.46025
 O17 O 0.44732 0.05502 0.46032
 O18 O 0.57709 0.05531 0.53518
 O19 O 0.55530 -0.05358 0.53797
 O20 O 0.42552 -0.05387 0.46311
 O21 O 0.55200 -0.05705 0.46305
 O22 O 0.42884 -0.05070 0.53807
 Cu23 Cu 0.51441 0.06608 0.49746
 Cu24 Cu 0.48820 -0.06480 0.50082
 C25 C 0.41880 0.00481 0.54924
 C26 C 0.58392 -0.00368 0.44911
 C27 C 0.41433 0.00054 0.44920
 C28 C 0.58825 0.00090 0.54911
 C29 C -0.01134 -0.01055 0.24904
 C30 C 0.01145 0.01056 0.75095
 C31 C -0.02302 -0.17141 0.17940
 C32 C -0.04426 -0.16614 0.14056
 C33 C -0.04274 -0.21870 0.11495
 C34 C -0.02019 -0.27632 0.12839
 C35 C 0.00010 -0.28196 0.16740
 C36 C -0.00132 -0.22931 0.19299
 C37 C 0.01960 -0.23582 0.23180
 C38 C 0.04138 -0.29274 0.24495
 C39 C 0.04279 -0.34423 0.21993
 C40 C 0.02242 -0.33919 0.18157
 C41 C -0.06363 -0.21200 0.07613
 C42 C -0.08543 -0.15504 0.06304
 C43 C -0.08695 -0.10367 0.08811
 C44 C -0.06679 -0.10893 0.12646
 C45 C -0.01650 -0.32893 0.10181
 C46 C -0.01306 -0.37151 0.07904
 C47 C -0.02084 -0.11613 0.20483
 C48 C -0.01754 -0.06908 0.22525
 H49 H 0.01918 -0.19718 0.25237
 H50 H 0.05719 -0.29691 0.27473
 H51 H 0.05972 -0.38836 0.23029
 H52 H 0.02434 -0.38056 0.16321
 H53 H -0.06343 -0.25062 0.05552
 H54 H -0.10139 -0.15082 0.03330
 H55 H -0.10396 -0.05953 0.07782
 H56 H -0.06929 -0.06784 0.14492
 C57 C -0.00358 0.15090 0.17637
 C58 C -0.01124 0.21271 0.19084
 C59 C -0.01109 0.26728 0.16510
 C60 C -0.00355 0.25958 0.12504
 C61 C 0.00358 0.19755 0.11054
 C62 C 0.00379 0.14311 0.13631
 C63 C 0.01113 0.08161 0.12119
 C64 C 0.01747 0.07396 0.08169
 C65 C 0.01693 0.12711 0.05645
 C66 C 0.01028 0.18835 0.07054
 C67 C -0.01887 0.32860 0.18023
 C68 C -0.02683 0.33571 0.21966
 C69 C -0.02715 0.28229 0.24482
 C70 C -0.01938 0.22138 0.23075
 C71 C -0.00326 0.31521 0.09864
 C72 C -0.00285 0.36062 0.07613
 C73 C -0.00488 0.09489 0.20249
 C74 C -0.00700 0.04768 0.22379
 H75 H 0.01207 0.03888 0.13967
 H76 H 0.02281 0.02653 0.07062
 H77 H 0.02167 0.12087 0.02579
 H78 H 0.01025 0.22820 0.04975
 H79 H -0.01904 0.37156 0.16179
 H80 H -0.03282 0.38294 0.23074
 H81 H -0.03342 0.28803 0.27541
 H82 H -0.01985 0.18131 0.25145
 C83 C 0.17211 0.01483 0.68114
 C84 C 0.20294 0.07350 0.66233
 C85 C 0.25531 0.07184 0.63634
 C86 C 0.27648 0.01148 0.62933
 C87 C 0.24646 -0.04698 0.64875
 C88 C 0.19413 -0.04529 0.67475
 C89 C 0.16465 -0.10441 0.69371
 C90 C 0.18624 -0.16351 0.68716
 C91 C 0.23739 -0.16517 0.66170
 C92 C 0.26733 -0.10774 0.64264
 C93 C 0.28516 0.13110 0.61771
 C94 C 0.26391 0.19029 0.62459
 C95 C 0.21271 0.19188 0.65002
 C96 C 0.18236 0.13430 0.66874
 C97 C 0.32787 0.00922 0.60143
 C98 C 0.36980 0.00725 0.57783
 C99 C 0.11650 0.01566 0.70618
 C100 C 0.06947 0.01458 0.72661
 H101 H 0.12479 -0.10562 0.71383
 H102 H 0.16315 -0.20823 0.70192
 H103 H 0.25400 -0.21121 0.65670
 H104 H 0.30699 -0.11151 0.62315
 H105 H 0.32522 0.13237 0.59772
 H106 H 0.28733 0.23516 0.61012
 H107 H 0.19640 0.23798 0.65528
 H108 H 0.14279 0.13800 0.68831
 C109 C -0.15384 0.00206 0.68079
 C110 C -0.17949 -0.05591 0.66044
 C111 C -0.23395 -0.05657 0.63442
 C112 C -0.26240 0.00076 0.62892
 C113 C -0.23749 0.05836 0.64984
 C114 C -0.18306 0.05898 0.67588
 C115 C -0.15885 0.11717 0.69639
 C116 C -0.18757 0.17317 0.69131
 C117 C -0.24075 0.17258 0.66581
 C118 C -0.26562 0.11599 0.64523
 C119 C -0.25854 -0.11501 0.61425
 C120 C -0.23018 -0.17119 0.61967
 C121 C -0.17693 -0.17052 0.64512
 C122 C -0.15165 -0.11367 0.66535
 C123 C -0.31620 0.00090 0.60112
 C124 C -0.36021 0.00095 0.57760
 C125 C -0.09634 0.00378 0.70596
 C126 C -0.04795 0.00617 0.72649
 H127 H -0.11767 0.11998 0.71661
 H128 H -0.16849 0.21721 0.70726
 H129 H -0.26291 0.21621 0.66195
 H130 H -0.30712 0.11790 0.62577
 H131 H -0.29993 -0.11798 0.59417
 H132 H -0.24964 -0.21548 0.60402
 H133 H -0.15508 -0.21429 0.64924
 H134 H -0.11022 -0.11558 0.68487
 C135 C 0.00251 -0.15117 0.82350
 C136 C 0.01184 -0.21261 0.80924
 C137 C 0.01150 -0.26712 0.83504
 C138 C 0.00205 -0.25974 0.87496
 C139 C -0.00685 -0.19810 0.88924
 C140 C -0.00684 -0.14371 0.86340
 C141 C -0.01595 -0.08260 0.87830
 C142 C -0.02422 -0.07526 0.91765
 C143 C -0.02395 -0.12837 0.94296
 C144 C -0.01559 -0.18924 0.92908
 C145 C 0.02101 -0.32806 0.82014
 C146 C 0.03080 -0.33486 0.78086
 C147 C 0.03127 -0.28149 0.75564
 C148 C 0.02183 -0.22096 0.76950
 C149 C 0.00173 -0.31528 0.90142
 C150 C 0.00133 -0.36064 0.92395
 C151 C 0.00421 -0.09514 0.79735
 C152 C 0.00668 -0.04785 0.77608
 H153 H -0.01681 -0.03993 0.85974
 H154 H -0.03088 -0.02811 0.92856
 H155 H -0.03026 -0.12239 0.97352
 H156 H -0.01586 -0.22908 0.94991
 H157 H 0.02113 -0.37095 0.83863
 H158 H 0.03809 -0.38179 0.76995
 H159 H 0.03894 -0.28700 0.72517
 H160 H 0.02248 -0.18093 0.74875
 C161 C 0.02254 0.17056 0.82119
 C162 C 0.04251 0.16431 0.86020
 C163 C 0.04073 0.21646 0.88606
 C164 C 0.01918 0.27465 0.87270
 C165 C 0.00023 0.28129 0.83353
 C166 C 0.00189 0.22904 0.80769
 C167 C -0.01772 0.23654 0.76872
 C168 C -0.03838 0.29406 0.75565
 C169 C -0.03999 0.34518 0.78091
 C170 C -0.02096 0.33914 0.81944
 C171 C 0.06037 0.20881 0.92502
 C172 C 0.08124 0.15132 0.93802
 C173 C 0.08300 0.10034 0.91271
 C174 C 0.06403 0.10653 0.87421
 C175 C 0.01527 0.32689 0.89951
 C176 C 0.01171 0.36919 0.92243
 C177 C 0.02057 0.11569 0.79549
 C178 C 0.01745 0.06889 0.77488
 H179 H -0.01710 0.19820 0.74797
 H180 H -0.05316 0.29901 0.72575
 H181 H -0.05604 0.38979 0.77060
 H182 H -0.02301 0.38025 0.83799
 H183 H 0.05992 0.24709 0.94583
 H184 H 0.09630 0.14640 0.96786
 H185 H 0.09926 0.05578 0.92293
 H186 H 0.06668 0.06570 0.85558
 C187 C -0.17141 -0.01434 0.31926
 C188 C -0.19338 0.04586 0.32547
 C189 C -0.24579 0.04778 0.35138
 C190 C -0.27593 -0.01054 0.37090
 C191 C -0.25474 -0.07097 0.36411
 C192 C -0.20230 -0.07286 0.33821
 C193 C -0.18169 -0.13371 0.33202
 C194 C -0.21208 -0.19114 0.35089
 C195 C -0.26337 -0.18933 0.37622
 C196 C -0.28465 -0.13008 0.38288
 C197 C -0.26664 0.10861 0.35729
 C198 C -0.23657 0.16590 0.33814
 C199 C -0.18532 0.16402 0.31279
 C200 C -0.16377 0.10484 0.30642
 C201 C -0.32747 -0.00809 0.39866
 C202 C -0.36954 -0.00602 0.42217
 C203 C -0.11593 -0.01543 0.29415
 C204 C -0.06908 -0.01449 0.27361
 H205 H -0.14205 -0.13758 0.31254
 H206 H -0.19573 -0.23728 0.34582
 H207 H -0.28682 -0.23408 0.39081
 H208 H -0.32477 -0.13118 0.40280
 H209 H -0.30636 0.11255 0.37669
 H210 H -0.25315 0.21199 0.34299
 H211 H -0.16211 0.20864 0.29797
 H212 H -0.12381 0.10589 0.28638
 C213 C 0.15501 -0.00114 0.31842
 C214 C 0.18531 -0.05749 0.32260
 C215 C 0.24013 -0.05666 0.34838
 C216 C 0.26435 0.00058 0.36976
 C217 C 0.23487 0.05740 0.36495
 C218 C 0.18001 0.05651 0.33920
 C219 C 0.15111 0.11375 0.33500
 C220 C 0.17576 0.17030 0.35564
 C221 C 0.22940 0.17119 0.38083
 C222 C 0.25880 0.11553 0.38556
 C223 C 0.26933 -0.11374 0.35226
 C224 C 0.24512 -0.16999 0.33122
 C225 C 0.19158 -0.17076 0.30597
 C226 C 0.16181 -0.11531 0.30159
 C227 C 0.31845 0.00053 0.39738
 C228 C 0.36265 0.00050 0.42079
 C229 C 0.09709 -0.00317 0.29354
 C230 C 0.04838 -0.00584 0.27325
 H231 H 0.10936 0.11547 0.31570
 H232 H 0.15311 0.21367 0.35205
 H233 H 0.24837 0.21525 0.39680
 H234 H 0.30046 0.11866 0.40545
 H235 H 0.31116 -0.11548 0.37148
 H236 H 0.26809 -0.21320 0.33451
 H237 H 0.17303 -0.21452 0.28964
 H238 H 0.12040 -0.11823 0.28154
   
