data_POSCAR
  _audit_creation_date              2014-09-24
  _audit_creation_method            'ToBaCCo'
  _symmetry_space_group_name_H-M    'P1'
  _symmetry_Int_Tables_number       1
  _symmetry_cell_setting            triclinic
  loop_
  _symmetry_equiv_pos_as_xyz
 x,y,z
_cell_length_a 23.5975
_cell_length_b 41.0321
_cell_length_c 29.9869
_cell_angle_alpha 89.988200
_cell_angle_beta 90.008200
_cell_angle_gamma 89.725300
loop_
  _atom_site_label
  _atom_site_type_symbol
  _atom_site_fract_x
  _atom_site_fract_y
  _atom_site_fract_z
B1 B -0.03020 -0.02838 0.01272
 B2 B 0.03628 -0.02355 0.03172
 B3 B 0.02469 -0.03270 -0.02234
 B4 B -0.03479 -0.01317 -0.03921
 B5 B -0.05938 0.00870 0.00492
 B6 B -0.01541 0.00179 0.04914
 B7 B 0.04601 0.03155 -0.01636
 B8 B -0.02072 0.02702 -0.03498
 B9 B -0.00920 0.03597 0.01912
 B10 B 0.05031 0.01638 0.03595
 B11 B 0.07481 -0.00529 -0.00844
 B12 B 0.03029 0.00134 -0.05262
 B13 B 0.53823 0.48566 0.54665
 B14 B 0.46977 0.48134 0.53179
 B15 B 0.49430 0.51790 0.54886
 B16 B 0.56146 0.52206 0.52956
 B17 B 0.57750 0.48795 0.49981
 B18 B 0.52066 0.46271 0.50176
 B19 B 0.48842 0.51861 0.45897
 B20 B 0.55694 0.52189 0.47346
 B21 B 0.53157 0.48576 0.45657
 B22 B 0.46483 0.48167 0.47596
 B23 B 0.44880 0.51593 0.50540
 B24 B 0.50629 0.54108 0.50385
 B25 B 0.54133 0.02883 0.52214
 B26 B 0.47218 0.02513 0.53421
 B27 B 0.49201 0.03594 0.48245
 B28 B 0.55266 0.01572 0.46967
 B29 B 0.56931 -0.00831 0.51416
 B30 B 0.51883 -0.00236 0.55428
 B31 B 0.46661 -0.02787 0.48154
 B32 B 0.53576 -0.02417 0.46948
 B33 B 0.51572 -0.03499 0.52117
 B34 B 0.45521 -0.01471 0.53400
 B35 B 0.43852 0.00924 0.48951
 B36 B 0.48890 0.00327 0.44936
 B37 B -0.01163 0.51814 0.04175
 B38 B 0.05668 0.52133 0.02661
 B39 B 0.03138 0.48516 0.04347
 B40 B -0.03568 0.48131 0.02467
 B41 B -0.05196 0.51574 -0.00436
 B42 B 0.00568 0.54077 -0.00314
 B43 B 0.03668 0.48551 -0.04670
 B44 B -0.03159 0.48124 -0.03125
 B45 B -0.00713 0.51785 -0.04825
 B46 B 0.06031 0.52179 -0.02952
 B47 B 0.07660 0.48750 -0.00018
 B48 B 0.01965 0.46237 -0.00183
 B49 B 0.02982 0.46906 0.48162
 B50 B -0.03954 0.47287 0.47019
 B51 B -0.01874 0.46191 0.52169
 B52 B 0.04179 0.48206 0.53409
 B53 B 0.05743 0.50615 0.48953
 B54 B 0.00650 0.50037 0.44982
 B55 B -0.04515 0.52574 0.52317
 B56 B 0.02426 0.52197 0.53460
 B57 B 0.00342 0.53290 0.48313
 B58 B -0.05709 0.51276 0.47071
 B59 B -0.07274 0.48868 0.51525
 B60 B -0.02178 0.49449 0.55499
 B61 B 0.47887 -0.02048 -0.04227
 B62 B 0.54543 -0.01941 -0.02238
 B63 B 0.51489 0.01495 -0.04153
 B64 B 0.44537 0.01434 -0.02772
 B65 B 0.43326 -0.02084 0.00079
 B66 B 0.49573 -0.04185 0.00402
 B67 B 0.50929 0.01561 0.04835
 B68 B 0.44272 0.01451 0.02846
 B69 B 0.47330 -0.01982 0.04765
 B70 B 0.54282 -0.01924 0.03382
 B71 B 0.55489 0.01593 0.00532
 B72 B 0.49244 0.03693 0.00208
 B73 B 0.45839 0.52671 -0.02404
 B74 B 0.52765 0.52298 -0.03600
 B75 B 0.50746 0.53401 0.01559
 B76 B 0.44720 0.51382 0.02857
 B77 B 0.43103 0.48962 -0.01572
 B78 B 0.48143 0.49541 -0.05589
 B79 B 0.53413 0.47017 0.01713
 B80 B 0.46491 0.47394 0.02914
 B81 B 0.48498 0.46289 -0.02254
 B82 B 0.54533 0.48307 -0.03547
 B83 B 0.56146 0.50729 0.00885
 B84 B 0.51108 0.50153 0.04899
 B85 B 0.01329 0.01671 0.45151
 B86 B -0.05343 0.01544 0.47104
 B87 B -0.02254 -0.01877 0.45179
 B88 B 0.04684 -0.01814 0.46600
 B89 B 0.05854 0.01693 0.49480
 B90 B -0.00404 0.03784 0.49782
 B91 B -0.01770 -0.01976 0.54173
 B92 B 0.04901 -0.01853 0.52220
 B93 B 0.01814 0.01570 0.54141
 B94 B -0.05124 0.01505 0.52721
 B95 B -0.06295 -0.02004 0.49843
 B96 B -0.00038 -0.04093 0.49540
 B97 B 0.76312 0.27697 0.26852
 B98 B 0.69370 0.27199 0.27556
 B99 B 0.72049 0.27484 0.22434
 B100 B 0.78418 0.25651 0.22282
 B101 B 0.79644 0.24114 0.27507
 B102 B 0.73972 0.25119 0.30813
 B103 B 0.70190 0.21202 0.24128
 B104 B 0.77131 0.21733 0.23396
 B105 B 0.74463 0.21397 0.28524
 B106 B 0.68065 0.23263 0.28707
 B107 B 0.66851 0.24787 0.23471
 B108 B 0.72515 0.23780 0.20175
 B109 B 0.75004 0.78480 0.78763
 B110 B 0.72131 0.78104 0.73704
 B111 B 0.79085 0.78702 0.74254
 B112 B 0.81462 0.76677 0.78789
 B113 B 0.75705 0.74766 0.81061
 B114 B 0.69867 0.75708 0.77895
 B115 B 0.77340 0.72398 0.72651
 B116 B 0.80234 0.72722 0.77696
 B117 B 0.73279 0.72155 0.77175
 B118 B 0.70919 0.74169 0.72651
 B119 B 0.76671 0.76088 0.70381
 B120 B 0.82497 0.75147 0.73534
 B121 B 0.26336 0.22162 0.72868
 B122 B 0.19414 0.22727 0.72075
 B123 B 0.22003 0.22477 0.77233
 B124 B 0.28400 0.24239 0.77412
 B125 B 0.29742 0.25698 0.72171
 B126 B 0.24112 0.24718 0.68823
 B127 B 0.20286 0.28755 0.75376
 B128 B 0.27213 0.28157 0.76202
 B129 B 0.24631 0.28461 0.71038
 B130 B 0.18204 0.26666 0.70822
 B131 B 0.16871 0.25218 0.76079
 B132 B 0.22500 0.26203 0.79413
 B133 B 0.22200 0.78050 0.24118
 B134 B 0.29158 0.77420 0.23694
 B135 B 0.26174 0.77834 0.28696
 B136 B 0.19730 0.76119 0.28661
 B137 B 0.18773 0.74524 0.23436
 B138 B 0.24683 0.75376 0.20329
 B139 B 0.27880 0.71495 0.27257
 B140 B 0.20925 0.72162 0.27702
 B141 B 0.23908 0.71712 0.22700
 B142 B 0.30373 0.73449 0.22714
 B143 B 0.31323 0.75027 0.27944
 B144 B 0.25419 0.74173 0.31047
 B145 B 0.27161 0.72290 0.77205
 B146 B 0.30155 0.72617 0.72198
 B147 B 0.23190 0.72044 0.72628
 B148 B 0.20738 0.74059 0.77121
 B149 B 0.26443 0.75980 0.79463
 B150 B 0.32331 0.75042 0.76386
 B151 B 0.24945 0.78371 0.71060
 B152 B 0.21971 0.77993 0.76079
 B153 B 0.28934 0.78594 0.75620
 B154 B 0.31402 0.76571 0.71118
 B155 B 0.25694 0.74658 0.68772
 B156 B 0.19791 0.75598 0.71863
 B157 B 0.21055 0.21325 0.26098
 B158 B 0.28006 0.21881 0.26770
 B159 B 0.25266 0.21523 0.21665
 B160 B 0.18848 0.23367 0.21523
 B161 B 0.17687 0.24901 0.26757
 B162 B 0.23405 0.23922 0.30016
 B163 B 0.27067 0.27835 0.23287
 B164 B 0.20122 0.27312 0.22638
 B165 B 0.22865 0.27619 0.27738
 B166 B 0.29257 0.25810 0.27851
 B167 B 0.30431 0.24262 0.22624
 B168 B 0.24704 0.25237 0.19358
 B169 B 0.78223 0.71595 0.22763
 B170 B 0.71314 0.72357 0.22157
 B171 B 0.74090 0.71863 0.27227
 B172 B 0.80626 0.73513 0.27366
 B173 B 0.81833 0.75081 0.22164
 B174 B 0.76014 0.74311 0.18924
 B175 B 0.72699 0.78231 0.25783
 B176 B 0.79612 0.77502 0.26365
 B177 B 0.76838 0.77962 0.21299
 B178 B 0.70320 0.76334 0.21179
 B179 B 0.69103 0.74748 0.26377
 B180 B 0.74930 0.75517 0.29621
 B181 B 0.72025 0.22451 0.72942
 B182 B 0.69425 0.22700 0.78095
 B183 B 0.76360 0.22186 0.77307
 B184 B 0.78378 0.24259 0.72751
 B185 B 0.72441 0.26171 0.70731
 B186 B 0.66831 0.25159 0.74070
 B187 B 0.74514 0.28474 0.79092
 B188 B 0.77107 0.28169 0.73933
 B189 B 0.70171 0.28722 0.74747
 B190 B 0.68127 0.26636 0.79317
 B191 B 0.74076 0.24736 0.81335
 B192 B 0.79685 0.25746 0.77982
 C193 C 0.05325 0.44440 0.83645
 C194 C 0.10360 0.42674 0.84269
 C195 C 0.13641 0.43209 0.88064
 C196 C 0.11700 0.45275 0.91408
 C197 C 0.06407 0.46858 0.91026
 C198 C 0.03410 0.46578 0.86977
 C199 C 0.11902 0.39983 0.81448
 C200 C 0.13461 0.37551 0.79557
 C201 C 0.15544 0.34591 0.77815
 C202 C 0.17510 0.32024 0.76617
 H203 H 0.02747 0.44042 0.80709
 H204 H 0.17558 0.41869 0.88573
 H205 H 0.14251 0.45461 0.94392
 H206 H -0.00626 0.47797 0.86527
 C207 C 0.38707 0.54838 0.36343
 C208 C 0.40496 0.58075 0.35828
 C209 C 0.45237 0.59166 0.38138
 C210 C 0.48015 0.57127 0.41117
 C211 C 0.46237 0.53884 0.41795
 C212 C 0.41589 0.52742 0.39300
 C213 C 0.37278 0.60474 0.33389
 C214 C 0.34917 0.62771 0.31687
 C215 C 0.32449 0.65665 0.30011
 C216 C 0.30457 0.68215 0.28751
 H217 H 0.34982 0.53977 0.34603
 H218 H 0.46621 0.61671 0.37822
 H219 H 0.51389 0.58192 0.43057
 H220 H 0.40007 0.50297 0.39795
 C221 C 0.96183 0.90663 0.62158
 C222 C 0.91811 0.91739 0.64928
 C223 C 0.89924 0.94978 0.64646
 C224 C 0.92257 0.97085 0.61454
 C225 C 0.96453 0.95958 0.58478
 C226 C 0.98446 0.92730 0.58951
 C227 C 0.88912 0.89360 0.67607
 C228 C 0.86590 0.87149 0.69512
 C229 C 0.83983 0.84382 0.71396
 C230 C 0.81819 0.81924 0.72772
 H231 H 0.97648 0.88157 0.62314
 H232 H 0.86497 0.95831 0.66752
 H233 H 0.90563 0.99532 0.61170
 H234 H 1.01583 0.91723 0.56704
 C235 C 0.52871 0.08965 0.12752
 C236 C 0.57349 0.07955 0.15459
 C237 C 0.59330 0.04733 0.15190
 C238 C 0.56981 0.02579 0.12062
 C239 C 0.52682 0.03644 0.09134
 C240 C 0.50604 0.06856 0.09603
 C241 C 0.60265 0.10398 0.18015
 C242 C 0.62579 0.12666 0.19793
 C243 C 0.65174 0.15491 0.21518
 C244 C 0.67354 0.17980 0.22767
 H245 H 0.51337 0.11457 0.12891
 H246 H 0.62845 0.03933 0.17246
 H247 H 0.58754 0.00151 0.11772
 H248 H 0.47412 0.07831 0.07377
 C249 C 0.85846 0.05675 0.37658
 C250 C 0.82746 0.07997 0.40056
 C251 C 0.82750 0.07904 0.44716
 C252 C 0.86150 0.05643 0.46971
 C253 C 0.89647 0.03455 0.44590
 C254 C 0.89248 0.03412 0.39900
 C255 C 0.80263 0.10730 0.37752
 C256 C 0.78550 0.13100 0.35786
 C257 C 0.76899 0.15926 0.33428
 C258 C 0.75716 0.18346 0.31343
 H259 H 0.85916 0.05741 0.34046
 H260 H 0.80381 0.09699 0.46610
 H261 H 0.86299 0.05767 0.50573
 H262 H 0.91917 0.01828 0.37922
 C263 C 0.41269 0.40554 0.59548
 C264 C 0.35482 0.41194 0.59870
 C265 C 0.33252 0.44083 0.58082
 C266 C 0.36863 0.46336 0.56010
 C267 C 0.42754 0.45756 0.55807
 C268 C 0.44839 0.42771 0.57487
 C269 C 0.31999 0.38777 0.61979
 C270 C 0.29649 0.36561 0.63842
 C271 C 0.27485 0.33836 0.66130
 C272 C 0.26030 0.31465 0.68193
 H273 H 0.43033 0.38298 0.60836
 H274 H 0.28740 0.44570 0.58227
 H275 H 0.35016 0.48477 0.54475
 H276 H 0.49243 0.42082 0.57149
 C277 C 0.63410 0.94020 0.88271
 C278 C 0.66504 0.91674 0.90630
 C279 C 0.66444 0.91700 0.95293
 C280 C 0.63015 0.93930 0.97582
 C281 C 0.59547 0.96152 0.95233
 C282 C 0.59978 0.96247 0.90546
 C283 C 0.69060 0.88992 0.88261
 C284 C 0.70832 0.86670 0.86221
 C285 C 0.72544 0.83898 0.83771
 C286 C 0.73758 0.81514 0.81620
 H287 H 0.63377 0.94005 0.84658
 H288 H 0.68804 0.89884 0.97157
 H289 H 0.62830 0.93762 1.01181
 H290 H 0.57326 0.97854 0.88587
 C291 C 0.13461 0.56160 0.12671
 C292 C 0.16599 0.58573 0.10524
 C293 C 0.16813 0.58676 0.05872
 C294 C 0.13628 0.56485 0.03364
 C295 C 0.10150 0.54172 0.05487
 C296 C 0.10275 0.53966 0.10176
 C297 C 0.18868 0.61212 0.13071
 C298 C 0.20387 0.63521 0.15212
 C299 C 0.21799 0.66289 0.17720
 C300 C 0.22799 0.68678 0.19884
 H301 H 0.13213 0.56092 0.16278
 H302 H 0.19204 0.60556 0.04183
 H303 H 0.13680 0.56731 -0.00229
 H304 H 0.07597 0.52280 0.11955
 C305 C 0.47189 0.91589 0.14351
 C306 C 0.41426 0.90794 0.14535
 C307 C 0.37509 0.92686 0.12162
 C308 C 0.39354 0.95205 0.09389
 C309 C 0.45176 0.95895 0.08932
 C310 C 0.49051 0.94128 0.11589
 C311 C 0.39525 0.87880 0.16792
 C312 C 0.37702 0.85420 0.18480
 C313 C 0.35258 0.82563 0.20305
 C314 C 0.32852 0.80206 0.21798
 H315 H 0.50273 0.90149 0.16175
 H316 H 0.33035 0.92107 0.12273
 H317 H 0.36222 0.96479 0.07398
 H318 H 0.53560 0.94556 0.11330
 C319 C 0.52672 0.42139 0.36183
 C320 C 0.58398 0.41266 0.35866
 C321 C 0.62486 0.43205 0.37941
 C322 C 0.60839 0.45825 0.40636
 C323 C 0.55055 0.46538 0.41334
 C324 C 0.51010 0.44770 0.38867
 C325 C 0.60066 0.38205 0.33861
 C326 C 0.61642 0.35611 0.32390
 C327 C 0.63773 0.32595 0.30793
 C328 C 0.65932 0.30111 0.29431
 H329 H 0.49462 0.40673 0.34571
 H330 H 0.66940 0.42573 0.37700
 H331 H 0.64097 0.47129 0.42435
 H332 H 0.46524 0.45240 0.39274
 C333 C 0.89464 0.56814 0.87376
 C334 C 0.93274 0.59037 0.85529
 C335 C 0.99105 0.58490 0.86010
 C336 C 1.01088 0.55888 0.88628
 C337 C 0.97259 0.53823 0.90872
 C338 C 0.91431 0.54234 0.90008
 C339 C 0.91134 0.62040 0.83617
 C340 C 0.89111 0.64561 0.82232
 C341 C 0.86464 0.67476 0.80741
 C342 C 0.83943 0.69877 0.79471
 H343 H 0.84939 0.57196 0.87027
 H344 H 1.02115 0.60179 0.84581
 H345 H 1.05609 0.55666 0.89166
 H346 H 0.88324 0.52754 0.91669
 C347 C 0.01858 0.08164 0.63471
 C348 C 0.07621 0.08953 0.63657
 C349 C 0.11565 0.06972 0.61455
 C350 C 0.09745 0.04376 0.58809
 C351 C 0.03923 0.03703 0.58308
 C352 C 0.00021 0.05549 0.60838
 C353 C 0.09487 0.11957 0.65693
 C354 C 0.11256 0.14491 0.67197
 C355 C 0.13607 0.17431 0.68830
 C356 C 0.15908 0.19857 0.70209
 H357 H -0.01245 0.09672 0.65166
 H358 H 0.16040 0.07546 0.61575
 H359 H 0.12896 0.03045 0.56910
 H360 H -0.04490 0.05137 0.60543
 C361 C 0.10683 0.41979 0.38887
 C362 C 0.13333 0.39497 0.41282
 C363 C 0.12824 0.39375 0.45935
 C364 C 0.09604 0.41745 0.48175
 C365 C 0.06831 0.44226 0.45764
 C366 C 0.07472 0.44316 0.41087
 C367 C 0.16196 0.36998 0.38810
 C368 C 0.18241 0.34962 0.36415
 C369 C 0.20218 0.32590 0.33410
 C370 C 0.21582 0.30491 0.30829
 H371 H 0.11008 0.42075 0.35283
 H372 H 0.14841 0.37436 0.47814
 H373 H 0.09244 0.41613 0.51764
 H374 H 0.05420 0.46154 0.39059
 C375 C 0.38084 0.57609 0.88361
 C376 C 0.35627 0.60154 0.90757
 C377 C 0.36172 0.60275 0.95405
 C378 C 0.39287 0.57858 0.97637
 C379 C 0.41941 0.55338 0.95221
 C380 C 0.41202 0.55226 0.90555
 C381 C 0.33006 0.62736 0.88286
 C382 C 0.31184 0.64841 0.85895
 C383 C 0.29467 0.67279 0.82897
 C384 C 0.28295 0.69414 0.80316
 H385 H 0.37720 0.57510 0.84760
 H386 H 0.34293 0.62259 0.97283
 H387 H 0.39692 0.57999 1.01220
 H388 H 0.43138 0.53350 0.88525
 C389 C 0.62345 0.07620 0.61348
 C390 C 0.64046 0.10412 0.59089
 C391 C 0.62959 0.10745 0.54520
 C392 C 0.60001 0.08302 0.52249
 C393 C 0.58017 0.05549 0.54560
 C394 C 0.59373 0.05212 0.59120
 C395 C 0.66413 0.13007 0.61658
 C396 C 0.68073 0.15099 0.64123
 C397 C 0.69671 0.17504 0.67191
 C398 C 0.70813 0.19608 0.69814
 H399 H 0.63158 0.07348 0.64887
 H400 H 0.64264 0.12916 0.52749
 H401 H 0.59141 0.08616 0.48738
 H402 H 0.58034 0.03131 0.61057
 C403 C 0.92057 0.88670 0.05525
 C404 C 0.86733 0.89428 0.07296
 C405 C 0.84393 0.92521 0.06652
 C406 C 0.87505 0.94915 0.04460
 C407 C 0.93033 0.94249 0.02903
 C408 C 0.95179 0.91057 0.03321
 C409 C 0.83977 0.87149 0.10179
 C410 C 0.81918 0.85236 0.12731
 C411 C 0.79826 0.82932 0.15768
 C412 C 0.78318 0.80846 0.18305
 H413 H 0.93915 0.86279 0.06037
 H414 H 0.80271 0.93128 0.08021
 H415 H 0.85658 0.97326 0.04203
 H416 H 0.99418 0.90444 0.02236
 C417 C 0.89170 0.06235 0.86491
 C418 C 0.89835 0.09591 0.87086
 C419 C 0.93160 0.10749 0.90588
 C420 C 0.95751 0.08577 0.93526
 C421 C 0.95078 0.05192 0.93036
 C422 C 0.91788 0.04047 0.89434
 C423 C 0.86906 0.11900 0.84306
 C424 C 0.84482 0.14003 0.82246
 C425 C 0.81687 0.16637 0.80172
 C426 C 0.79331 0.19012 0.78701
 H427 H 0.86578 0.05311 0.83795
 H428 H 0.93667 0.13345 0.91104
 H429 H 0.98138 0.09586 0.96246
 H430 H 0.91167 0.01466 0.88898
 C431 C 0.06570 0.60205 0.59712
 C432 C 0.10895 0.59155 0.62550
 C433 C 0.12534 0.55870 0.62548
 C434 C 0.09850 0.53651 0.59693
 C435 C 0.05507 0.54696 0.56787
 C436 C 0.03914 0.58011 0.56866
 C437 C 0.13731 0.61533 0.65275
 C438 C 0.15953 0.63705 0.67332
 C439 C 0.18429 0.66416 0.69464
 C440 C 0.20504 0.68837 0.71034
 H441 H 0.05294 0.62746 0.59650
 H442 H 0.15909 0.55030 0.64718
 H443 H 0.11214 0.51129 0.59750
 H444 H 0.00689 0.58960 0.54662
 C445 C 0.57630 0.89648 0.40451
 C446 C 0.61487 0.90793 0.37294
 C447 C 0.62969 0.94092 0.37264
 C448 C 0.60545 0.96240 0.40364
 C449 C 0.56616 0.95113 0.43549
 C450 C 0.55223 0.91777 0.43543
 C451 C 0.63969 0.88518 0.34198
 C452 C 0.65944 0.86441 0.31810
 C453 C 0.68194 0.83823 0.29315
 C454 C 0.70128 0.81445 0.27502
 H455 H 0.56473 0.87096 0.40526
 H456 H 0.65981 0.95003 0.34847
 H457 H 0.61729 0.98783 0.40230
 H458 H 0.52237 0.90788 0.45908
 C459 C 0.42677 0.39448 0.09416
 C460 C 0.38698 0.40557 0.12511
 C461 C 0.37098 0.43847 0.12537
 C462 C 0.39513 0.46020 0.09476
 C463 C 0.43539 0.44922 0.06335
 C464 C 0.45066 0.41598 0.06366
 C465 C 0.36162 0.38235 0.15491
 C466 C 0.34148 0.36102 0.17743
 C467 C 0.31842 0.33425 0.20056
 C468 C 0.29828 0.31022 0.21716
 H469 H 0.43911 0.36901 0.09333
 H470 H 0.33981 0.44729 0.14904
 H471 H 0.38224 0.48554 0.09587
 H472 H 0.48072 0.40618 0.04003
 C473 C 0.50910 0.60595 0.10085
 C474 C 0.56367 0.61833 0.09447
 C475 C 0.59691 0.60666 0.05936
 C476 C 0.57715 0.58163 0.03217
 C477 C 0.52312 0.56794 0.03901
 C478 C 0.48894 0.58092 0.07335
 C479 C 0.58831 0.64095 0.12559
 C480 C 0.61254 0.65923 0.15058
 C481 C 0.64426 0.68041 0.17793
 C482 C 0.67347 0.69886 0.19904
 H483 H 0.48309 0.61463 0.12818
 H484 H 0.63941 0.61585 0.05429
 H485 H 0.60590 0.57181 0.00746
 H486 H 0.44794 0.57055 0.08080
 C487 C 0.02270 0.89142 0.89925
 C488 C 0.08073 0.88561 0.89342
 C489 C 0.12003 0.90304 0.91856
 C490 C 0.10193 0.92734 0.94771
 C491 C 0.04386 0.93457 0.95278
 C492 C 0.00433 0.91574 0.92879
 C493 C 0.10148 0.86317 0.86033
 C494 C 0.12316 0.84510 0.83360
 C495 C 0.15274 0.82405 0.80454
 C496 C 0.18081 0.80542 0.78265
 H497 H -0.00816 0.87798 0.87995
 H498 H 0.16507 0.89880 0.91424
 H499 H 0.13413 0.94160 0.96402
 H500 H -0.04065 0.92074 0.93131
 C501 C 0.48641 0.10506 0.39344
 C502 C 0.43154 0.11727 0.39979
 C503 C 0.39988 0.10707 0.43652
 C504 C 0.42135 0.08333 0.46527
 C505 C 0.47544 0.06950 0.45824
 C506 C 0.50825 0.08135 0.42243
 C507 C 0.40513 0.13812 0.36713
 C508 C 0.37986 0.15508 0.34090
 C509 C 0.34750 0.17517 0.31228
 C510 C 0.31834 0.19331 0.29040
 H511 H 0.51127 0.11271 0.36496
 H512 H 0.35721 0.11621 0.44165
 H513 H 0.39361 0.07432 0.49114
 H514 H 0.54939 0.07092 0.41500
 C515 C 0.97729 0.39275 0.61057
 C516 C 0.92195 0.38126 0.60525
 C517 C 0.88966 0.39163 0.56886
 C518 C 0.91087 0.41498 0.53962
 C519 C 0.96532 0.42830 0.54582
 C520 C 0.99893 0.41606 0.58102
 C521 C 0.89567 0.36102 0.63855
 C522 C 0.87033 0.34458 0.66520
 C523 C 0.83787 0.32502 0.69423
 C524 C 0.80878 0.30718 0.71640
 H525 H 1.00270 0.38491 0.63873
 H526 H 0.84669 0.38300 0.56444
 H527 H 0.88266 0.42420 0.51408
 H528 H 1.04042 0.42604 0.58774
 C529 C 0.88766 0.54843 0.13744
 C530 C 0.90617 0.58069 0.14267
 C531 C 0.95394 0.59125 0.11972
 C532 C 0.98141 0.57068 0.08998
 C533 C 0.96297 0.53839 0.08306
 C534 C 0.91618 0.52728 0.10792
 C535 C 0.87434 0.60493 0.16696
 C536 C 0.85109 0.62807 0.18392
 C537 C 0.82685 0.65718 0.20061
 C538 C 0.80736 0.68285 0.21308
 H539 H 0.85016 0.54006 0.15473
 H540 H 0.96830 0.61620 0.12292
 H541 H 1.01538 0.58114 0.07063
 H542 H 0.89987 0.50295 0.10289
 C543 C 0.63708 0.43100 0.61832
 C544 C 0.60486 0.42630 0.65675
 C545 C 0.55545 0.44470 0.66348
 C546 C 0.53655 0.46621 0.63025
 C547 C 0.56587 0.46850 0.58940
 C548 C 0.61792 0.45184 0.58497
 C549 C 0.61965 0.39938 0.68514
 C550 C 0.63449 0.37505 0.70438
 C551 C 0.65448 0.34542 0.72229
 C552 C 0.67373 0.31976 0.73468
 H553 H 0.67550 0.41697 0.61283
 H554 H 0.53010 0.44120 0.69319
 H555 H 0.49672 0.47888 0.63514
 H556 H 0.64276 0.45321 0.55472
 C557 C 0.03413 0.09101 0.37305
 C558 C 0.07966 0.08105 0.34665
 C559 C 0.09930 0.04880 0.34932
 C560 C 0.07502 0.02712 0.38002
 C561 C 0.03135 0.03764 0.40874
 C562 C 0.01059 0.06975 0.40396
 C563 C 0.10963 0.10555 0.32178
 C564 C 0.13349 0.12816 0.30441
 C565 C 0.16017 0.15627 0.28739
 C566 C 0.18235 0.18105 0.27490
 H567 H 0.01887 0.11595 0.37164
 H568 H 0.13496 0.04089 0.32926
 H569 H 0.09269 0.00282 0.38297
 H570 H -0.02191 0.07936 0.42580
 C571 C 0.39597 0.94903 0.85290
 C572 C 0.41506 0.91669 0.85001
 C573 C 0.45893 0.90602 0.87763
 C574 C 0.48147 0.92671 0.90971
 C575 C 0.46133 0.95894 0.91452
 C576 C 0.41923 0.97014 0.88483
 C577 C 0.38625 0.89282 0.82320
 C578 C 0.36329 0.87063 0.80413
 C579 C 0.33762 0.84285 0.78521
 C580 C 0.31633 0.81821 0.77131
 H581 H 0.36158 0.95750 0.83189
 H582 H 0.47377 0.88100 0.87603
 H583 H 0.51291 0.91666 0.93215
 H584 H 0.40212 0.99457 0.88773
 C585 C 0.16766 0.91766 0.54666
 C586 C 0.16775 0.91699 0.59327
 C587 C 0.13682 0.94037 0.61703
 C588 C 0.10288 0.96292 0.59440
 C589 C 0.09893 0.96230 0.54750
 C590 C 0.13374 0.94022 0.52390
 C591 C 0.19263 0.88982 0.61665
 C592 C 0.20973 0.86628 0.63670
 C593 C 0.22611 0.83822 0.66079
 C594 C 0.23765 0.81415 0.68205
 H595 H 0.19129 0.89959 0.52789
 H596 H 0.13614 0.93991 0.65315
 H597 H 0.07631 0.97891 0.61404
 H598 H 0.13221 0.93881 0.48788
 C599 C 0.63246 0.56311 0.37279
 C600 C 0.66327 0.58759 0.39404
 C601 C 0.66587 0.58860 0.44056
 C602 C 0.63510 0.56628 0.46585
 C603 C 0.60095 0.54272 0.44486
 C604 C 0.60170 0.54075 0.39795
 C605 C 0.68567 0.61404 0.36837
 C606 C 0.70115 0.63707 0.34688
 C607 C 0.71627 0.66463 0.32178
 C608 C 0.72759 0.68841 0.30022
 H609 H 0.62969 0.56239 0.33673
 H610 H 0.68940 0.60762 0.45731
 H611 H 0.63592 0.56873 0.50177
 H612 H 0.57533 0.52359 0.38033
 C613 C 0.35582 0.05600 0.12325
 C614 C 0.32669 0.08020 0.09963
 C615 C 0.32673 0.07969 0.05301
 C616 C 0.35925 0.05654 0.03013
 C617 C 0.39279 0.03375 0.05363
 C618 C 0.38839 0.03287 0.10050
 C619 C 0.30426 0.10799 0.12312
 C620 C 0.28920 0.13196 0.14320
 C621 C 0.27489 0.16039 0.16724
 C622 C 0.26448 0.18467 0.18837
 H623 H 0.35651 0.05632 0.15937
 H624 H 0.30444 0.09837 0.03434
 H625 H 0.36111 0.05816 -0.00586
 H626 H 0.41410 0.01641 0.12012
 C627 C 0.83045 0.44133 0.92008
 C628 C 0.85238 0.41238 0.90211
 C629 C 0.91019 0.40577 0.90517
 C630 C 0.94620 0.42779 0.92570
 C631 C 0.92575 0.45768 0.94261
 C632 C 0.86691 0.46372 0.94072
 C633 C 0.81729 0.38832 0.88111
 C634 C 0.79383 0.36614 0.86253
 C635 C 0.77252 0.33880 0.83972
 C636 C 0.75842 0.31497 0.81918
 H637 H 0.78538 0.44636 0.91875
 H638 H 0.92754 0.38317 0.89220
 H639 H 0.99022 0.42075 0.92888
 H640 H 0.84874 0.48516 0.95617
 C641 C 0.51709 0.08155 0.86594
 C642 C 0.57486 0.08920 0.86450
 C643 C 0.61380 0.06908 0.88655
 C644 C 0.59499 0.04303 0.91261
 C645 C 0.53663 0.03650 0.91717
 C646 C 0.49810 0.05531 0.89186
 C647 C 0.59421 0.11923 0.84443
 C648 C 0.61244 0.14453 0.82960
 C649 C 0.63643 0.17388 0.81344
 C650 C 0.65957 0.19814 0.79972
 H651 H 0.48643 0.09687 0.84895
 H652 H 0.65864 0.07462 0.88569
 H653 H 0.62616 0.02948 0.93164
 H654 H 0.45292 0.05135 0.89448
 C655 C 0.39670 0.56700 0.62846
 C656 C 0.43455 0.58973 0.64605
 C657 C 0.49287 0.58493 0.64031
 C658 C 0.51283 0.55909 0.61393
 C659 C 0.47461 0.53800 0.59222
 C660 C 0.41649 0.54138 0.60193
 C661 C 0.41269 0.61969 0.66488
 C662 C 0.39198 0.64484 0.67833
 C663 C 0.36489 0.67391 0.69266
 C664 C 0.33915 0.69784 0.70485
 H665 H 0.35143 0.57033 0.63270
 H666 H 0.52276 0.60224 0.65392
 H667 H 0.55793 0.55740 0.60776
 H668 H 0.38549 0.52618 0.58595
 C669 C 0.12674 0.43180 0.11990
 C670 C 0.08661 0.41211 0.14103
 C671 C 0.02907 0.42030 0.13799
 C672 C 0.01151 0.44643 0.11112
 C673 C 0.05126 0.46452 0.08631
 C674 C 0.10934 0.45780 0.09292
 C675 C 0.10447 0.38186 0.16164
 C676 C 0.12127 0.35627 0.17689
 C677 C 0.14374 0.32652 0.19349
 C678 C 0.16613 0.30199 0.20750
 H679 H 0.17147 0.42592 0.12216
 H680 H -0.00249 0.40541 0.15437
 H681 H -0.03350 0.45078 0.10728
 H682 H 0.14143 0.47111 0.07475
 C683 C 0.87995 0.92796 0.37741
 C684 C 0.91935 0.90871 0.35444
 C685 C 0.97698 0.91657 0.35660
 C686 C 0.99537 0.94217 0.38394
 C687 C 0.95636 0.96011 0.40992
 C688 C 0.89816 0.95335 0.40487
 C689 C 0.90049 0.87932 0.33245
 C690 C 0.88227 0.85457 0.31601
 C691 C 0.85772 0.82594 0.29812
 C692 C 0.83345 0.80245 0.28321
 H693 H 0.83519 0.92224 0.37601
 H694 H 1.00799 0.90192 0.33892
 H695 H 1.04046 0.94635 0.38689
 H696 H 0.86665 0.96628 0.42435
 C697 C 0.87869 0.57558 0.61569
 C698 C 0.85502 0.60136 0.59181
 C699 C 0.86025 0.60253 0.54532
 C700 C 0.89045 0.57803 0.52291
 C701 C 0.91632 0.55256 0.54700
 C702 C 0.90895 0.55142 0.59366
 C703 C 0.83005 0.62755 0.61654
 C704 C 0.81273 0.64891 0.64033
 C705 C 0.79637 0.67360 0.67007
 C706 C 0.78498 0.69514 0.69565
 H707 H 0.87515 0.57461 0.65171
 H708 H 0.84211 0.62260 0.52660
 H709 H 0.89442 0.57945 0.48709
 H710 H 0.92773 0.53240 0.61387
 C711 C 0.62415 0.39172 0.04092
 C712 C 0.63495 0.39519 0.08662
 C713 C 0.61689 0.42306 0.10904
 C714 C 0.58653 0.44699 0.08658
 C715 C 0.57333 0.44354 0.04092
 C716 C 0.59388 0.41598 0.01803
 C717 C 0.66009 0.36950 0.11236
 C718 C 0.67807 0.34873 0.13689
 C719 C 0.69562 0.32470 0.16733
 C720 C 0.70805 0.30357 0.19333
 H721 H 0.63795 0.37004 0.02331
 H722 H 0.62488 0.42590 0.14443
 H723 H 0.57246 0.46778 0.10582
 H724 H 0.58540 0.41272 -0.01708
 C725 C 0.39133 0.92073 0.39078
 C726 C 0.36007 0.89873 0.41605
 C727 C 0.36214 0.89984 0.46268
 C728 C 0.39591 0.92312 0.48395
 C729 C 0.42812 0.94518 0.45863
 C730 C 0.42494 0.94375 0.41172
 C731 C 0.32959 0.87392 0.39289
 C732 C 0.30802 0.85328 0.37031
 C733 C 0.28761 0.82895 0.34179
 C734 C 0.27396 0.80742 0.31704
 H735 H 0.39045 0.91978 0.35466
 H736 H 0.33824 0.88262 0.48247
 H737 H 0.39679 0.92375 0.51998
 H738 H 0.44903 0.96005 0.39073
 C739 C 0.15169 0.07625 0.90599
 C740 C 0.14697 0.10841 0.92028
 C741 C 0.11676 0.11580 0.95920
 C742 C 0.08806 0.09110 0.98206
 C743 C 0.08757 0.05914 0.96512
 C744 C 0.12263 0.05182 0.92823
 C745 C 0.16711 0.13358 0.89136
 C746 C 0.18163 0.15356 0.86447
 C747 C 0.19626 0.17649 0.83175
 C748 C 0.20735 0.19677 0.80428
 H749 H 0.17544 0.07023 0.87614
 H750 H 0.11325 0.14075 0.97068
 H751 H 0.06365 0.09763 1.01109
 H752 H 0.12592 0.02739 0.91489
 C753 C 0.14521 0.92053 0.09392
 C754 C 0.11268 0.90871 0.12934
 C755 C 0.05686 0.91942 0.13478
 C756 C 0.03316 0.94128 0.10431
 C757 C 0.06447 0.95218 0.06716
 C758 C 0.12149 0.94236 0.06330
 C759 C 0.13550 0.88421 0.15858
 C760 C 0.15424 0.86263 0.18150
 C761 C 0.17624 0.83607 0.20581
 C762 C 0.19565 0.81228 0.22374
 H763 H 0.18877 0.91264 0.08971
 H764 H 0.03137 0.91056 0.16223
 H765 H -0.01015 0.94915 0.10963
 H766 H 0.14810 0.95157 0.03692
 C767 C 0.86494 0.43707 0.37512
 C768 C 0.88100 0.40417 0.37539
 C769 C 0.92126 0.39318 0.40605
 C770 C 0.94560 0.41477 0.43622
 C771 C 0.93032 0.44802 0.43646
 C772 C 0.88954 0.45889 0.40538
 C773 C 0.85535 0.38088 0.34582
 C774 C 0.83499 0.35954 0.32343
 C775 C 0.81166 0.33279 0.30042
 C776 C 0.79123 0.30878 0.28394
 H777 H 0.83343 0.44582 0.35168
 H778 H 0.93370 0.36772 0.40687
 H779 H 0.97627 0.40507 0.45949
 H780 H 0.87662 0.48422 0.40425
 C781 C 0.37386 0.06087 0.62782
 C782 C 0.38926 0.09377 0.62779
 C783 C 0.43069 0.10471 0.59822
 C784 C 0.45655 0.08309 0.56870
 C785 C 0.44165 0.04988 0.56805
 C786 C 0.39998 0.03902 0.59824
 C787 C 0.36129 0.11714 0.65609
 C788 C 0.33890 0.13852 0.67738
 C789 C 0.31343 0.16533 0.69906
 C790 C 0.29175 0.18946 0.71446
 H791 H 0.34146 0.05216 0.65040
 H792 H 0.44256 0.13019 0.59753
 H793 H 0.48746 0.09281 0.54584
 H794 H 0.38722 0.01373 0.59901
 C795 C 0.56790 0.60298 0.90093
 C796 C 0.61070 0.59246 0.87218
 C797 C 0.62721 0.55963 0.87213
 C798 C 0.60088 0.53746 0.90099
 C799 C 0.55790 0.54792 0.93044
 C800 C 0.54186 0.58106 0.92971
 C801 C 0.63864 0.61624 0.84472
 C802 C 0.66056 0.63801 0.82408
 C803 C 0.68507 0.66520 0.80285
 C804 C 0.70574 0.68947 0.78733
 H805 H 0.55509 0.62837 0.90161
 H806 H 0.66065 0.55124 0.85015
 H807 H 0.61456 0.51225 0.90036
 H808 H 0.50989 0.59054 0.95201
 C809 C 0.39273 0.39229 0.93151
 C810 C 0.42410 0.38208 0.89454
 C811 C 0.47903 0.39394 0.88819
 C812 C 0.50115 0.41736 0.91736
 C813 C 0.46854 0.42930 0.95333
 C814 C 0.41446 0.41573 0.96042
 C815 C 0.39736 0.36154 0.86176
 C816 C 0.37186 0.34483 0.83548
 C817 C 0.33934 0.32499 0.80679
 C818 C 0.31019 0.30702 0.78482
 H819 H 0.35006 0.38341 0.93671
 H820 H 0.50373 0.38627 0.85958
 H821 H 0.54229 0.42756 0.90991
 H822 H 0.38687 0.42478 0.98647
 C823 C 0.89070 0.10336 0.06579
 C824 C 0.92100 0.11433 0.10286
 C825 C 0.97647 0.10340 0.10996
 C826 C 1.00062 0.08039 0.08120
 C827 C 0.96965 0.06803 0.04471
 C828 C 0.91461 0.08033 0.03709
 C829 C 0.89347 0.13523 0.13477
 C830 C 0.86832 0.15245 0.16069
 C831 C 0.83685 0.17297 0.18922
 C832 C 0.80863 0.19150 0.21115
 H833 H 0.84763 0.11161 0.06004
 H834 H 1.00031 0.11175 0.13861
 H835 H 1.04268 0.07133 0.08877
 H836 H 0.88868 0.07102 0.01024
 C837 C 0.60633 0.89377 0.56839
 C838 C 0.57289 0.88295 0.60380
 C839 C 0.51750 0.89476 0.60854
 C840 C 0.49685 0.91873 0.57941
 C841 C 0.53146 0.93128 0.54517
 C842 C 0.58604 0.91776 0.53951
 C843 C 0.59786 0.86186 0.63687
 C844 C 0.62207 0.84475 0.66352
 C845 C 0.65355 0.82455 0.69259
 C846 C 0.68243 0.80639 0.71467
 H847 H 0.64936 0.88487 0.56444
 H848 H 0.49125 0.88661 0.63596
 H849 H 0.45522 0.92885 0.58576
 H850 H 0.61480 0.92714 0.51457
 C851 C 0.00456 0.60431 0.39720
 C852 C 0.05919 0.61666 0.40327
 C853 C 0.09259 0.60524 0.43843
 C854 C 0.07293 0.58042 0.46598
 C855 C 0.01887 0.56672 0.45944
 C856 C -0.01551 0.57950 0.42506
 C857 C 0.08381 0.63896 0.37180
 C858 C 0.10821 0.65702 0.34667
 C859 C 0.14023 0.67805 0.31942
 C860 C 0.16967 0.69654 0.29866
 H861 H -0.02154 0.61283 0.36981
 H862 H 0.13514 0.61442 0.44324
 H863 H 0.10185 0.57071 0.49067
 H864 H -0.05655 0.56911 0.41785
   
