data_POSCAR
  _audit_creation_date              2014-09-24
  _audit_creation_method            'ToBaCCo'
  _symmetry_space_group_name_H-M    'P1'
  _symmetry_Int_Tables_number       1
  _symmetry_cell_setting            triclinic
  loop_
  _symmetry_equiv_pos_as_xyz
 x,y,z
_cell_length_a 43.6521
_cell_length_b 43.6347
_cell_length_c 43.6216
_cell_angle_alpha 89.996100
_cell_angle_beta 89.962700
_cell_angle_gamma 90.007800
loop_
  _atom_site_label
  _atom_site_type_symbol
  _atom_site_fract_x
  _atom_site_fract_y
  _atom_site_fract_z
C1 C 0.20268 0.52350 1.03771
 H2 H 0.20200 0.54101 1.02016
 C3 C 0.18178 0.52431 1.06192
 H4 H 0.16499 0.54257 1.06307
 C5 C 0.22475 0.47775 1.05707
 H6 H 0.24107 0.45930 1.05474
 C7 C 0.20423 0.47766 1.08168
 H8 H 0.20504 0.45925 1.09834
 N9 N 0.22368 0.50054 1.03577
 C10 C 0.29630 0.53693 0.97754
 H11 H 0.29701 0.51936 0.96006
 C12 C 0.31717 0.56116 0.97668
 H13 H 0.33398 0.56234 0.95844
 C14 C 0.27419 0.55638 1.02327
 H15 H 0.25786 0.55409 1.04173
 C16 C 0.29468 0.58099 1.02328
 H17 H 0.29391 0.59772 1.04161
 Zn18 Zn 0.24949 0.50018 1.00091
 N19 N 0.27529 0.53504 1.00052
 C20 C 0.22485 0.52253 0.94469
 N21 N 0.22372 0.49979 0.96604
 C22 C 0.20273 0.47682 0.96414
 C23 C 0.18193 0.47593 0.93986
 C24 C 0.20442 0.52251 0.92002
 C25 C 0.29628 0.46341 1.02424
 C26 C 0.31714 0.43918 1.02504
 C27 C 0.29470 0.41943 0.97842
 C28 C 0.27421 0.44404 0.97848
 N29 N 0.27529 0.46534 1.00127
 H30 H 0.24116 0.54099 0.94699
 H31 H 0.20200 0.45935 0.98172
 H32 H 0.16514 0.45768 0.93866
 H33 H 0.20522 0.54082 0.90327
 H34 H 0.29697 0.48095 1.04175
 H35 H 0.33395 0.43797 1.04327
 H36 H 0.29395 0.40274 0.96005
 H37 H 0.25790 0.44636 0.96002
 C38 C 0.31640 0.58333 0.99981
 C39 C 0.18249 0.50112 1.08407
 C40 C 0.31640 0.41706 1.00187
 C41 C 0.18274 0.49903 0.91767
 C42 C 0.79673 0.52361 -0.03635
 H43 H 0.79748 0.54105 -0.01874
 C44 C 0.81758 0.52446 -0.06062
 H45 H 0.83442 0.54266 -0.06180
 C46 C 0.77454 0.47796 -0.05583
 H47 H 0.75820 0.45952 -0.05354
 C48 C 0.79501 0.47795 -0.08049
 H49 H 0.79420 0.45964 -0.09724
 N50 N 0.77570 0.50067 -0.03446
 C51 C 0.70325 0.53700 0.02401
 H52 H 0.70255 0.51939 0.04147
 C53 C 0.68239 0.56123 0.02493
 H54 H 0.66560 0.56239 0.04319
 C55 C 0.72530 0.55649 -0.02173
 H56 H 0.74159 0.55422 -0.04023
 C57 C 0.70482 0.58112 -0.02168
 H58 H 0.70556 0.59786 -0.04000
 Zn59 Zn 0.74995 0.50023 0.00045
 N60 N 0.72422 0.53512 0.00099
 C61 C 0.77477 0.52235 0.05668
 N62 N 0.77579 0.49967 0.03526
 C63 C 0.79674 0.47665 0.03703
 C64 C 0.81764 0.47568 0.06121
 C65 C 0.79530 0.52223 0.08126
 C66 C 0.70306 0.46364 -0.02295
 C67 C 0.68217 0.43944 -0.02387
 C68 C 0.70466 0.41941 0.02262
 C69 C 0.72517 0.44400 0.02267
 N70 N 0.72409 0.46543 -0.00001
 H71 H 0.75849 0.54084 0.05449
 H72 H 0.79738 0.45924 0.01939
 H73 H 0.83442 0.45741 0.06230
 H74 H 0.79461 0.54051 0.09805
 H75 H 0.70237 0.48128 -0.04037
 H76 H 0.66535 0.43834 -0.04209
 H77 H 0.70543 0.40260 0.04089
 H78 H 0.74152 0.44621 0.04111
 C79 C 0.68313 0.58342 0.00182
 C80 C 0.81676 0.50137 -0.08282
 C81 C 0.68293 0.41718 -0.00083
 C82 C 0.81697 0.49873 0.08346
 C83 C -0.02328 0.29728 0.46248
 H84 H -0.04075 0.29796 0.48008
 C85 C -0.02415 0.31817 0.43826
 H86 H -0.04243 0.33495 0.43716
 C87 C 0.02242 0.27521 0.44299
 H88 H 0.04087 0.25889 0.44526
 C89 C 0.02243 0.29571 0.41837
 H90 H 0.04080 0.29489 0.40165
 N91 N -0.00032 0.27628 0.46435
 C92 C -0.03651 0.20361 0.52264
 H93 H -0.01889 0.20290 0.54006
 C94 C -0.06073 0.18273 0.52358
 H95 H -0.06186 0.16591 0.54181
 C96 C -0.05609 0.22574 0.47700
 H97 H -0.05386 0.24208 0.45855
 C98 C -0.08070 0.20524 0.47707
 H99 H -0.09749 0.20602 0.45881
 Zn100 Zn 0.00013 0.25046 0.49920
 N101 N -0.03469 0.22463 0.49968
 C102 C -0.02214 0.27508 0.55548
 N103 N 0.00057 0.27624 0.53409
 C104 C 0.02352 0.29725 0.53598
 C105 C 0.02441 0.31806 0.56027
 C106 C -0.02211 0.29551 0.58016
 C107 C 0.03685 0.20367 0.47574
 C108 C 0.06108 0.18281 0.47485
 C109 C 0.08094 0.20528 0.52141
 C110 C 0.05633 0.22577 0.52144
 N111 N 0.03498 0.22467 0.49872
 H112 H -0.04058 0.25875 0.55319
 H113 H 0.04096 0.29801 0.51836
 H114 H 0.04263 0.33487 0.56146
 H115 H -0.04040 0.29468 0.59694
 H116 H 0.01927 0.20296 0.45829
 H117 H 0.06225 0.16599 0.45661
 H118 H 0.09768 0.20605 0.53972
 H119 H 0.05405 0.24209 0.53991
 C120 C -0.08296 0.18351 0.50054
 C121 C -0.00103 0.31744 0.41604
 C122 C 0.08326 0.18357 0.49794
 C123 C 0.00134 0.31722 0.58250
 C124 C 0.97662 0.70312 0.53657
 H125 H 0.95920 0.70237 0.51895
 C126 C 0.97571 0.68228 0.56084
 H127 H 0.95751 0.66545 0.56201
 C128 C 1.02224 0.72529 0.55609
 H129 H 1.04068 0.74163 0.55380
 C130 C 1.02220 0.70484 0.58074
 H131 H 1.04048 0.70565 0.59751
 N132 N 0.99956 0.72414 0.53469
 C133 C 0.96341 0.79664 0.47622
 H134 H 0.98105 0.79732 0.45879
 C135 C 0.93919 0.81750 0.47526
 H136 H 0.93808 0.83429 0.45700
 C137 C 0.94380 0.77459 0.52191
 H138 H 0.94603 0.75829 0.54040
 C139 C 0.91919 0.79508 0.52182
 H140 H 0.90241 0.79434 0.54010
 Zn141 Zn 1.00007 0.74989 0.49979
 N142 N 0.96522 0.77566 0.49923
 C143 C 0.97798 0.72507 0.44356
 N144 N 1.00064 0.72404 0.46497
 C145 C 1.02362 0.70305 0.46318
 C146 C 1.02458 0.68214 0.43898
 C147 C 0.97807 0.70454 0.41897
 C148 C 1.03664 0.79677 0.52323
 C149 C 1.06085 0.81766 0.52417
 C150 C 1.08093 0.79512 0.47770
 C151 C 1.05633 0.77461 0.47763
 N152 N 1.03488 0.77573 0.50028
 H153 H 0.95951 0.74138 0.44577
 H154 H 1.04103 0.70239 0.48081
 H155 H 1.04282 0.66533 0.43788
 H156 H 0.95980 0.70526 0.40218
 H157 H 1.01898 0.79749 0.54063
 H158 H 1.06193 0.83450 0.54238
 H159 H 1.09775 0.79434 0.45945
 H160 H 1.05415 0.75826 0.45919
 C161 C 0.91695 0.81676 0.49832
 C162 C 0.99877 0.68310 0.58306
 C163 C 1.08313 0.81687 0.50115
 C164 C 1.00154 0.68284 0.41674
 C165 C 0.46344 -0.02411 0.29633
 H166 H 0.48103 -0.04155 0.29705
 C167 C 0.43920 -0.02499 0.31721
 H168 H 0.43804 -0.04320 0.33405
 C169 C 0.44394 0.02156 0.27419
 H170 H 0.44621 0.04000 0.25785
 C171 C 0.41932 0.02154 0.29469
 H172 H 0.40257 0.03984 0.29391
 N173 N 0.46530 -0.00115 0.27530
 C174 C 0.52362 -0.03741 0.20268
 H175 H 0.54106 -0.01981 0.20198
 C176 C 0.52451 -0.06163 0.18179
 H177 H 0.54278 -0.06272 0.16498
 C178 C 0.47793 -0.05690 0.22480
 H179 H 0.45948 -0.05463 0.24113
 C180 C 0.47793 -0.08152 0.20429
 H181 H 0.45958 -0.09823 0.20513
 Zn182 Zn 0.50016 -0.00068 0.24949
 N183 N 0.50065 -0.03554 0.22370
 C184 C 0.55641 -0.02280 0.27420
 N185 N 0.53497 -0.00016 0.27530
 C186 C 0.53675 0.02282 0.29631
 C187 C 0.56097 0.02380 0.31717
 C188 C 0.58102 -0.02268 0.29468
 C189 C 0.47674 0.03601 0.20266
 C190 C 0.47581 0.06028 0.18183
 C191 C 0.52229 0.08024 0.20435
 C192 C 0.52236 0.05558 0.22480
 N193 N 0.49969 0.03417 0.22367
 H194 H 0.55421 -0.04127 0.25787
 H195 H 0.51910 0.04021 0.29702
 H196 H 0.56207 0.04205 0.33398
 H197 H 0.59783 -0.04093 0.29391
 H198 H 0.45932 0.01838 0.20193
 H199 H 0.45759 0.06144 0.16502
 H200 H 0.54055 0.09703 0.20515
 H201 H 0.54080 0.05332 0.24113
 C202 C 0.50140 -0.08383 0.18253
 C203 C 0.41701 -0.00191 0.31643
 C204 C 0.49884 0.08254 0.18265
 C205 C 0.58324 0.00080 0.31639
 C206 C 0.53679 -0.02360 0.70315
 H207 H 0.51919 -0.04104 0.70245
 C208 C 0.56103 -0.02452 0.68228
 H209 H 0.56220 -0.04276 0.66547
 C210 C 0.55630 0.02210 0.72522
 H211 H 0.55402 0.04057 0.74153
 C212 C 0.58093 0.02204 0.70473
 H213 H 0.59768 0.04035 0.70549
 N214 N 0.53492 -0.00061 0.72414
 C215 C 0.47652 -0.03674 0.79677
 H216 H 0.45909 -0.01913 0.79745
 C217 C 0.47559 -0.06094 0.81769
 H218 H 0.45735 -0.06207 0.83450
 C219 C 0.52220 -0.05631 0.77472
 H220 H 0.54068 -0.05408 0.75840
 C221 C 0.52214 -0.08090 0.79526
 H222 H 0.54042 -0.09767 0.79452
 Zn223 Zn 0.50004 -0.00010 0.74992
 N224 N 0.49951 -0.03492 0.77577
 C225 C 0.44381 -0.02227 0.72521
 N226 N 0.46524 0.00038 0.72408
 C227 C 0.46347 0.02333 0.70304
 C228 C 0.43925 0.02428 0.68218
 C229 C 0.41920 -0.02218 0.70472
 C230 C 0.52342 0.03667 0.79672
 C231 C 0.52429 0.06094 0.81755
 C232 C 0.47780 0.08081 0.79499
 C233 C 0.47779 0.05616 0.77454
 N234 N 0.50049 0.03478 0.77569
 H235 H 0.44601 -0.04071 0.74156
 H236 H 0.48111 0.04073 0.70232
 H237 H 0.43815 0.04251 0.66535
 H238 H 0.40239 -0.04043 0.70552
 H239 H 0.54085 0.01907 0.79747
 H240 H 0.54248 0.06212 0.83439
 H241 H 0.45951 0.09757 0.79418
 H242 H 0.45936 0.05387 0.75820
 C243 C 0.49866 -0.08316 0.81697
 C244 C 0.58323 -0.00144 0.68303
 C245 C 0.50122 0.08314 0.81673
 C246 C 0.41698 0.00127 0.68299
 C247 C 0.25003 0.00019 0.49980
 C248 C 0.75017 0.00015 0.49961
 C249 C 0.49969 0.25021 0.99995
 C250 C 0.49975 0.75020 0.00064
 C251 C 1.00053 0.49929 0.25001
 C252 C 0.00007 0.49990 0.75017
 C253 C 0.15038 0.11756 0.49867
 C254 C 0.17153 0.11827 0.52678
 C255 C 0.19276 0.09534 0.52702
 C256 C 0.19073 0.07399 0.49912
 C257 C 0.19325 0.09519 0.47114
 C258 C 0.17202 0.11811 0.47090
 C259 C 0.13634 0.08533 0.49865
 C260 C 0.15752 0.06245 0.49889
 C261 C 0.12720 0.14189 0.49841
 C262 C 0.10748 0.16123 0.49820
 C263 C 0.21310 0.04894 0.49938
 C264 C 0.23043 0.02742 0.49957
 H265 H 0.17000 0.13529 0.54487
 H266 H 0.20942 0.09272 0.54530
 H267 H 0.21023 0.09246 0.45315
 H268 H 0.17081 0.13503 0.45270
 H269 H 0.11187 0.08085 0.49846
 H270 H 0.15119 0.03838 0.49890
 C271 C 0.61709 0.65052 0.00120
 C272 C 0.61773 0.67220 0.02893
 C273 C 0.59480 0.69341 0.02875
 C274 C 0.57351 0.69085 0.00087
 C275 C 0.56200 0.65762 0.00122
 C276 C 0.58488 0.63645 0.00139
 C277 C 0.61768 0.67165 -0.02695
 C278 C 0.59474 0.69287 -0.02712
 C279 C 0.64143 0.62735 0.00140
 C280 C 0.66078 0.60764 0.00158
 C281 C 0.54845 0.71321 0.00072
 C282 C 0.52695 0.73056 0.00065
 H283 H 0.63472 0.67101 0.04706
 H284 H 0.59213 0.71041 0.04673
 H285 H 0.53794 0.65127 0.00132
 H286 H 0.58043 0.61196 0.00164
 H287 H 0.63463 0.67011 -0.04511
 H288 H 0.59204 0.70952 -0.04542
 C289 C 0.84985 -0.11719 0.49884
 C290 C 0.82862 -0.11786 0.52691
 C291 C 0.80740 -0.09492 0.52708
 C292 C 0.80953 -0.07361 0.49915
 C293 C 0.80709 -0.09484 0.47120
 C294 C 0.82831 -0.11778 0.47104
 C295 C 0.86391 -0.08497 0.49880
 C296 C 0.84274 -0.06208 0.49896
 C297 C 0.87302 -0.14153 0.49867
 C298 C 0.89273 -0.16088 0.49851
 C299 C 0.78716 -0.04855 0.49932
 C300 C 0.76982 -0.02705 0.49945
 H301 H 0.83008 -0.13486 0.54503
 H302 H 0.79068 -0.09227 0.54532
 H303 H 0.79017 -0.09213 0.45317
 H304 H 0.82958 -0.13472 0.45286
 H305 H 0.88839 -0.08050 0.49865
 H306 H 0.84908 -0.03801 0.49896
 C307 C 0.38239 0.34991 1.00095
 C308 C 0.38174 0.32883 0.97277
 C309 C 0.40465 0.30759 0.97250
 C310 C 0.42594 0.30955 1.00044
 C311 C 0.40469 0.30696 1.02837
 C312 C 0.38177 0.32820 1.02864
 C313 C 0.41461 0.36396 1.00107
 C314 C 0.43748 0.34277 1.00080
 C315 C 0.35807 0.37311 1.00125
 C316 C 0.33874 0.39283 1.00153
 C317 C 0.45098 0.28717 1.00017
 C318 C 0.47248 0.26983 1.00003
 H319 H 0.36476 0.33042 0.95466
 H320 H 0.40732 0.29097 0.95417
 H321 H 0.40737 0.28993 1.04632
 H322 H 0.36482 0.32937 1.04683
 H323 H 0.41909 0.38844 1.00134
 H324 H 0.46154 0.34910 1.00084
 C325 C 0.84987 0.11751 0.50011
 C326 C 0.82838 0.11809 0.52799
 C327 C 0.80715 0.09517 0.52789
 C328 C 0.80951 0.07395 0.49991
 C329 C 0.84272 0.06240 0.49999
 C330 C 0.86391 0.08528 0.50009
 C331 C 0.82858 0.11820 0.47211
 C332 C 0.80734 0.09527 0.47201
 C333 C 0.87307 0.14184 0.50023
 C334 C 0.89279 0.16117 0.50035
 C335 C 0.78713 0.04889 0.49981
 C336 C 0.76979 0.02738 0.49972
 H337 H 0.82970 0.13503 0.54617
 H338 H 0.79026 0.09246 0.54597
 H339 H 0.84904 0.03833 0.49996
 H340 H 0.88837 0.08080 0.50015
 H341 H 0.83002 0.13521 0.45400
 H342 H 0.79058 0.09264 0.45382
 C343 C 0.38241 0.65049 0.00039
 C344 C 0.38173 0.67212 -0.02737
 C345 C 0.40466 0.69335 -0.02726
 C346 C 0.42598 0.69084 0.00061
 C347 C 0.43750 0.65762 0.00031
 C348 C 0.41462 0.63643 0.00020
 C349 C 0.38184 0.67166 0.02851
 C350 C 0.40477 0.69289 0.02862
 C351 C 0.35808 0.62730 0.00024
 C352 C 0.33874 0.60757 0.00007
 C353 C 0.45103 0.71322 0.00070
 C354 C 0.47254 0.73057 0.00071
 H355 H 0.36473 0.67089 -0.04548
 H356 H 0.40730 0.71032 -0.04526
 H357 H 0.46156 0.65128 0.00020
 H358 H 0.41909 0.61195 -0.00001
 H359 H 0.36491 0.67014 0.04668
 H360 H 0.40748 0.70957 0.04689
 C361 C 0.15027 -0.11711 0.50063
 C362 C 0.17178 -0.11768 0.52846
 C363 C 0.19301 -0.09476 0.52831
 C364 C 0.19063 -0.07355 0.50033
 C365 C 0.15742 -0.06200 0.50047
 C366 C 0.13623 -0.08487 0.50063
 C367 C 0.17154 -0.11780 0.47258
 C368 C 0.19277 -0.09488 0.47243
 C369 C 0.12708 -0.14144 0.50080
 C370 C 0.10736 -0.16078 0.50095
 C371 C 0.21301 -0.04850 0.50016
 C372 C 0.23037 -0.02700 0.50001
 H373 H 0.17047 -0.13461 0.54665
 H374 H 0.20991 -0.09205 0.54636
 H375 H 0.15110 -0.03793 0.50045
 H376 H 0.11176 -0.08040 0.50074
 H377 H 0.17008 -0.13482 0.45448
 H378 H 0.20952 -0.09225 0.45420
 C379 C 0.61695 0.35001 0.99965
 C380 C 0.58472 0.36405 0.99958
 C381 C 0.56186 0.34284 0.99969
 C382 C 0.57341 0.30963 0.99985
 C383 C 0.59465 0.30750 1.02780
 C384 C 0.61756 0.32875 1.02770
 C385 C 0.61760 0.32848 0.97182
 C386 C 0.59469 0.30723 0.97192
 C387 C 0.64126 0.37321 0.99952
 C388 C 0.66059 0.39294 0.99938
 C389 C 0.54837 0.28723 0.99994
 C390 C 0.52688 0.26987 0.99997
 H391 H 0.58024 0.38852 0.99946
 H392 H 0.53780 0.34916 0.99966
 H393 H 0.59197 0.29076 1.04602
 H394 H 0.63452 0.33022 1.04584
 H395 H 0.63458 0.32977 0.95367
 H396 H 0.59204 0.29031 0.95387
 C397 C 0.49931 0.14998 1.11690
 C398 C 0.49922 0.13609 1.08459
 C399 C 0.49934 0.15740 1.06181
 C400 C 0.49954 0.19056 1.07351
 C401 C 0.52748 0.19257 1.09478
 C402 C 0.52736 0.17122 1.11761
 C403 C 0.47152 0.17154 1.11766
 C404 C 0.47164 0.19289 1.09483
 C405 C 0.49917 0.12667 1.14112
 C406 C 0.49903 0.10686 1.16038
 C407 C 0.49965 0.21306 1.04856
 C408 C 0.49970 0.23049 1.02711
 H409 H 0.49907 0.11163 1.07999
 H410 H 0.49930 0.15119 1.03770
 H411 H 0.54570 0.20930 1.09217
 H412 H 0.54549 0.16965 1.13456
 H413 H 0.45338 0.17019 1.13465
 H414 H 0.45361 0.20984 1.09225
 C415 C -0.00056 0.61718 0.65033
 C416 C -0.02835 0.61775 0.67192
 C417 C -0.02816 0.59485 0.69319
 C418 C -0.00019 0.57366 0.69076
 C419 C 0.02768 0.59502 0.69283
 C420 C 0.02749 0.61792 0.67155
 C421 C -0.00055 0.58493 0.63632
 C422 C -0.00036 0.56208 0.65754
 C423 C -0.00078 0.64148 0.62710
 C424 C -0.00098 0.66079 0.60734
 C425 C -0.00001 0.54863 0.71318
 C426 C 0.00007 0.52713 0.73054
 H427 H -0.04654 0.63467 0.67064
 H428 H -0.04618 0.59214 0.71015
 H429 H 0.04591 0.59242 0.70954
 H430 H 0.04556 0.63495 0.67003
 H431 H -0.00068 0.58043 0.61184
 H432 H -0.00032 0.53800 0.65124
 C433 C 0.49921 0.84977 -0.11689
 C434 C 0.49924 0.86386 -0.08467
 C435 C 0.49939 0.84270 -0.06175
 C436 C 0.49950 0.80946 -0.07325
 C437 C 0.52737 0.80728 -0.09462
 C438 C 0.52722 0.82849 -0.11759
 C439 C 0.47138 0.82825 -0.11740
 C440 C 0.47153 0.80704 -0.09443
 C441 C 0.49904 0.87293 -0.14126
 C442 C 0.49887 0.89264 -0.16064
 C443 C 0.49964 0.78711 -0.04816
 C444 C 0.49972 0.76979 -0.02662
 H445 H 0.49915 0.88835 -0.08023
 H446 H 0.49943 0.84906 -0.03769
 H447 H 0.54557 0.79054 -0.09198
 H448 H 0.54530 0.82992 -0.13463
 H449 H 0.45319 0.82953 -0.13431
 H450 H 0.45348 0.79014 -0.09168
 C451 C 0.99975 0.38216 0.35003
 C452 C 0.97201 0.38152 0.32840
 C453 C 0.97224 0.40438 0.30709
 C454 C 1.00018 0.42561 0.30952
 C455 C 1.02808 0.40428 0.30753
 C456 C 1.02785 0.38141 0.32884
 C457 C 0.99970 0.41443 0.36399
 C458 C 0.99992 0.43724 0.34272
 C459 C 0.99949 0.35789 0.37330
 C460 C 0.99925 0.33860 0.39309
 C461 C 1.00040 0.45061 0.28707
 C462 C 1.00050 0.47208 0.26967
 H463 H 0.95383 0.36458 0.32969
 H464 H 0.95426 0.40704 0.29011
 H465 H 1.04635 0.40687 0.29084
 H466 H 1.04593 0.36441 0.33041
 H467 H 0.99949 0.41897 0.38846
 H468 H 0.99992 0.46133 0.34898
 C469 C 0.50061 0.85021 0.11778
 C470 C 0.47255 0.82900 0.11859
 C471 C 0.47231 0.80770 0.09571
 C472 C 0.50016 0.80973 0.07430
 C473 C 0.52815 0.80732 0.09546
 C474 C 0.52838 0.82862 0.11834
 C475 C 0.50059 0.86418 0.08551
 C476 C 0.50035 0.84293 0.06268
 C477 C 0.50088 0.87346 0.14206
 C478 C 0.50112 0.89323 0.16136
 C479 C 0.49993 0.78729 0.04930
 C480 C 0.49981 0.76989 0.02782
 H481 H 0.45449 0.83054 0.13565
 H482 H 0.45405 0.79100 0.09316
 H483 H 0.54614 0.79037 0.09275
 H484 H 0.54659 0.82991 0.13523
 H485 H 0.50074 0.88864 0.08097
 H486 H 0.50030 0.84920 0.03858
 C487 C 0.00072 0.38293 0.64998
 C488 C 0.00084 0.41523 0.63608
 C489 C 0.00066 0.43801 0.65739
 C490 C 0.00039 0.42631 0.69057
 C491 C 0.02829 0.40503 0.69295
 C492 C 0.02847 0.38220 0.67159
 C493 C -0.02737 0.38219 0.67117
 C494 C -0.02754 0.40502 0.69253
 C495 C 0.00092 0.35872 0.62666
 C496 C 0.00111 0.33947 0.60684
 C497 C 0.00022 0.45126 0.71307
 C498 C 0.00013 0.47271 0.73049
 H499 H 0.00104 0.41983 0.61162
 H500 H 0.00071 0.46211 0.65117
 H501 H 0.04628 0.40762 0.70993
 H502 H 0.04661 0.36524 0.67027
 H503 H -0.04549 0.36522 0.66958
 H504 H -0.04581 0.40761 0.70924
 C505 C 0.50046 0.15043 0.88263
 C506 C 0.50051 0.13643 0.91490
 C507 C 0.50029 0.15767 0.93774
 C508 C 0.50004 0.19087 0.92614
 C509 C 0.47215 0.19288 0.90482
 C510 C 0.47237 0.17160 0.88192
 C511 C 0.52821 0.17206 0.88200
 C512 C 0.52799 0.19333 0.90490
 C513 C 0.50071 0.12719 0.85834
 C514 C 0.50094 0.10743 0.83903
 C515 C 0.49983 0.21328 0.95117
 C516 C 0.49973 0.23062 0.97269
 H517 H 0.50069 0.11196 0.91941
 H518 H 0.50029 0.15137 0.96183
 H519 H 0.45388 0.20956 0.90744
 H520 H 0.45428 0.17005 0.86492
 H521 H 0.54639 0.17080 0.86505
 H522 H 0.54597 0.21031 0.90757
 C523 C 1.00104 0.61672 0.34967
 C524 C 1.00118 0.58450 0.36376
 C525 C 1.00103 0.56160 0.34259
 C526 C 1.00077 0.57310 0.30934
 C527 C 1.02866 0.59440 0.30681
 C528 C 1.02880 0.61735 0.32803
 C529 C 0.97296 0.61730 0.32849
 C530 C 0.97282 0.59434 0.30727
 C531 C 1.00120 0.64108 0.37283
 C532 C 1.00135 0.66045 0.39254
 C533 C 1.00064 0.54803 0.28698
 C534 C 1.00056 0.52651 0.26964
 H535 H 1.00137 0.58006 0.38825
 H536 H 1.00110 0.53754 0.34895
 H537 H 1.04666 0.59173 0.28984
 H538 H 1.04693 0.63434 0.32924
 H539 H 0.95482 0.63425 0.33000
 H540 H 0.95457 0.59163 0.29059
 C541 C 1.11771 0.50017 0.15002
 C542 C 1.11836 0.52784 0.17176
 C543 C 1.09548 0.52757 0.19305
 C544 C 1.07421 0.49966 0.19049
 C545 C 1.09549 0.47171 0.19239
 C546 C 1.11838 0.47198 0.17109
 C547 C 1.08547 0.50033 0.13604
 C548 C 1.06263 0.50006 0.15728
 C549 C 1.14200 0.50048 0.12678
 C550 C 1.16131 0.50077 0.10700
 C551 C 1.04920 0.49941 0.21293
 C552 C 1.02772 0.49930 0.23032
 H553 H 1.13532 0.54600 0.17057
 H554 H 1.09282 0.54550 0.21011
 H555 H 1.09284 0.45338 0.20900
 H556 H 1.13535 0.45387 0.16946
 H557 H 1.08097 0.50062 0.11156
 H558 H 1.03856 0.50012 0.15100
 C559 C 0.65042 -0.00077 0.61700
 C560 C 0.63640 -0.00087 0.58476
 C561 C 0.65760 -0.00066 0.56188
 C562 C 0.69080 -0.00038 0.57342
 C563 C 0.69330 -0.02831 0.59468
 C564 C 0.67205 -0.02852 0.61761
 C565 C 0.67157 0.02734 0.61766
 C566 C 0.69282 0.02755 0.59473
 C567 C 0.62721 -0.00100 0.64134
 C568 C 0.60748 -0.00120 0.66068
 C569 C 0.71319 -0.00016 0.54836
 C570 C 0.73054 -0.00001 0.52684
 H571 H 0.61193 -0.00108 0.58028
 H572 H 0.65129 -0.00069 0.53780
 H573 H 0.71027 -0.04629 0.59199
 H574 H 0.67082 -0.04669 0.63457
 H575 H 0.67003 0.04545 0.63465
 H576 H 0.70948 0.04583 0.59207
 C577 C -0.11727 0.50058 0.84995
 C578 C -0.11790 0.52829 0.82825
 C579 C -0.09498 0.52807 0.80699
 C580 C -0.07372 0.50017 0.80954
 C581 C -0.09498 0.47221 0.80757
 C582 C -0.11790 0.47243 0.82883
 C583 C -0.08505 0.50074 0.86398
 C584 C -0.06218 0.50052 0.84276
 C585 C -0.14158 0.50083 0.87316
 C586 C -0.16091 0.50107 0.89291
 C587 C -0.04867 0.49997 0.78714
 C588 C -0.02716 0.49989 0.76979
 H589 H -0.13487 0.54644 0.82945
 H590 H -0.09231 0.54603 0.78997
 H591 H -0.09230 0.45391 0.79093
 H592 H -0.13486 0.45430 0.83041
 H593 H -0.08057 0.50099 0.88846
 H594 H -0.03812 0.50059 0.84908
 C595 C 0.34983 -0.00109 0.38246
 C596 C 0.32870 0.02703 0.38172
 C597 C 0.30745 0.02731 0.40465
 C598 C 0.30944 -0.00057 0.42602
 C599 C 0.34264 -0.00083 0.43758
 C600 C 0.36384 -0.00111 0.41471
 C601 C 0.32818 -0.02883 0.38192
 C602 C 0.30693 -0.02855 0.40485
 C603 C 0.37304 -0.00139 0.35813
 C604 C 0.39277 -0.00163 0.33879
 C605 C 0.28704 -0.00028 0.45107
 C606 C 0.26968 -0.00006 0.47258
 H607 H 0.33026 0.04510 0.36468
 H608 H 0.29079 0.04560 0.40725
 H609 H 0.34894 -0.00080 0.46166
 H610 H 0.38831 -0.00132 0.41919
 H611 H 0.32941 -0.04704 0.36501
 H612 H 0.28994 -0.04652 0.40758
 C613 C 0.11702 0.49954 0.85026
 C614 C 0.08474 0.49937 0.86420
 C615 C 0.06197 0.49948 0.84291
 C616 C 0.07364 0.49976 0.80972
 C617 C 0.09497 0.47189 0.80732
 C618 C 0.11780 0.47177 0.82865
 C619 C 0.11769 0.52764 0.82906
 C620 C 0.09486 0.52775 0.80773
 C621 C 0.14124 0.49940 0.87355
 C622 C 0.16049 0.49925 0.89335
 C623 C 0.04869 0.49986 0.78725
 C624 C 0.02724 0.49990 0.76984
 H625 H 0.08017 0.49917 0.88866
 H626 H 0.03788 0.49938 0.84916
 H627 H 0.09240 0.45388 0.79034
 H628 H 0.13479 0.45366 0.82995
 H629 H 0.13461 0.54580 0.83064
 H630 H 0.09222 0.54600 0.79103
 C631 C 0.65042 0.00051 0.38234
 C632 C 0.63640 0.00045 0.41460
 C633 C 0.65759 0.00039 0.43746
 C634 C 0.69080 0.00039 0.42587
 C635 C 0.69308 0.02837 0.40465
 C636 C 0.67184 0.02842 0.38174
 C637 C 0.67179 -0.02744 0.38163
 C638 C 0.69304 -0.02750 0.40454
 C639 C 0.62722 0.00058 0.35803
 C640 C 0.60749 0.00066 0.33871
 C641 C 0.71318 0.00033 0.45091
 C642 C 0.73053 0.00026 0.47240
 H643 H 0.61193 0.00046 0.41910
 H644 H 0.65128 0.00035 0.46154
 H645 H 0.70992 0.04648 0.40734
 H646 H 0.67047 0.04660 0.36480
 H647 H 0.67039 -0.04554 0.36462
 H648 H 0.70984 -0.04565 0.40716
 C649 C 0.88308 0.49908 0.15048
 C650 C 0.88247 0.47123 0.17201
 C651 C 0.90543 0.47131 0.19319
 C652 C 0.92671 0.49921 0.19075
 C653 C 0.90547 0.52717 0.19297
 C654 C 0.88251 0.52710 0.17178
 C655 C 0.91528 0.49900 0.13635
 C656 C 0.93818 0.49907 0.15749
 C657 C 0.85872 0.49899 0.12734
 C658 C 0.83935 0.49888 0.10766
 C659 C 0.95179 0.49927 0.21309
 C660 C 0.97331 0.49930 0.23040
 H661 H 0.86549 0.45310 0.17075
 H662 H 0.90811 0.45324 0.21009
 H663 H 0.90819 0.54537 0.20971
 H664 H 0.86556 0.54524 0.17036
 H665 H 0.91970 0.49890 0.11185
 H666 H 0.96223 0.49903 0.15110
 C667 C 0.34978 0.00085 0.61706
 C668 C 0.36379 0.00085 0.58479
 C669 C 0.34258 0.00074 0.56195
 C670 C 0.30938 0.00063 0.57354
 C671 C 0.30703 0.02859 0.59478
 C672 C 0.32828 0.02870 0.61768
 C673 C 0.32849 -0.02716 0.61777
 C674 C 0.30724 -0.02728 0.59487
 C675 C 0.37299 0.00098 0.64136
 C676 C 0.39273 0.00110 0.66067
 C677 C 0.28699 0.00050 0.54852
 C678 C 0.26964 0.00037 0.52702
 H679 H 0.38826 0.00094 0.58028
 H680 H 0.34889 0.00072 0.53786
 H681 H 0.29014 0.04665 0.59210
 H682 H 0.32961 0.04687 0.63463
 H683 H 0.32995 -0.04527 0.63478
 H684 H 0.29048 -0.04548 0.59225
   
