data_POSCAR
  _audit_creation_date              2014-09-24
  _audit_creation_method            'ToBaCCo'
  _symmetry_space_group_name_H-M    'P1'
  _symmetry_Int_Tables_number       1
  _symmetry_cell_setting            triclinic
  loop_
  _symmetry_equiv_pos_as_xyz
 x,y,z
_cell_length_a 31.3096
_cell_length_b 31.3265
_cell_length_c 34.6286
_cell_angle_alpha 90.046100
_cell_angle_beta 89.950100
_cell_angle_gamma 120.240000
loop_
  _atom_site_label
  _atom_site_type_symbol
  _atom_site_fract_x
  _atom_site_fract_y
  _atom_site_fract_z
C1 C -0.00012 0.49992 1.35306
 C2 C 0.04440 0.51873 1.33305
 C3 C 0.04455 0.51767 1.29259
 C4 C 0.00014 0.50027 1.27126
 C5 C -0.04440 0.48271 1.29249
 C6 C -0.04451 0.48129 1.33294
 C7 C 0.00026 0.50043 1.22756
 C8 C -0.04419 0.47361 1.20622
 C9 C -0.04410 0.47500 1.16579
 C10 C 0.00045 0.50071 1.14575
 C11 C 0.04491 0.52628 1.16590
 C12 C 0.04482 0.52738 1.20633
 H13 H -0.00022 0.49978 1.38444
 H14 H 0.07965 0.53032 1.27848
 H15 H -0.07941 0.47021 1.27831
 H16 H -0.07938 0.45113 1.22021
 H17 H 0.00052 0.50082 1.11442
 H18 H 0.07994 0.54973 1.22043
 C19 C 0.49974 0.49994 1.35513
 C20 C 0.47384 0.51841 1.33509
 C21 C 0.47275 0.51728 1.29460
 C22 C 0.50000 0.50025 1.27331
 C23 C 0.52712 0.48307 1.29453
 C24 C 0.52576 0.48164 1.33501
 C25 C 0.50013 0.50040 1.22961
 C26 C 0.51696 0.47300 1.20828
 C27 C 0.51832 0.47436 1.16783
 C28 C 0.50039 0.50067 1.14782
 C29 C 0.48232 0.52684 1.16793
 C30 C 0.48342 0.52793 1.20838
 H31 H 0.49964 0.49982 1.38651
 H32 H 0.45019 0.52958 1.28038
 H33 H 0.54978 0.47089 1.28027
 H34 H 0.52894 0.45012 1.22234
 H35 H 0.50048 0.50076 1.11649
 H36 H 0.47133 0.55070 1.22253
 C37 C 0.49994 1.00067 1.35602
 C38 C 0.47432 0.95623 1.33585
 C39 C 0.47311 0.95626 1.29546
 C40 C 0.50011 1.00071 1.27425
 C41 C 0.52706 1.04517 1.29550
 C42 C 0.52568 1.04519 1.33593
 C43 C 0.50018 1.00069 1.23062
 C44 C 0.51736 1.04508 1.20937
 C45 C 0.51866 1.04499 1.16898
 C46 C 0.50032 1.00067 1.14892
 C47 C 0.48190 0.95636 1.16897
 C48 C 0.48306 0.95629 1.20937
 H49 H 0.49980 1.00051 1.38737
 H50 H 0.45065 0.92115 1.28135
 H51 H 0.54959 1.08022 1.28132
 H52 H 0.52967 1.08013 1.22340
 H53 H 0.50038 1.00066 1.11758
 H54 H 0.47067 0.92125 1.22340
 C55 C 1.00051 0.49971 0.64822
 C56 C 0.95620 0.47299 0.66837
 C57 C 0.95627 0.47188 0.70878
 C58 C 1.00064 0.49999 0.72990
 C59 C 1.04498 0.52797 0.70867
 C60 C 1.04495 0.52661 0.66821
 C61 C 1.00066 0.50014 0.77347
 C62 C 1.04487 0.51603 0.79465
 C63 C 1.04492 0.51740 0.83507
 C64 C 1.00065 0.50035 0.85517
 C65 C 0.95638 0.48320 0.83509
 C66 C 0.95645 0.48437 0.79466
 H67 H 1.00030 0.49953 0.61686
 H68 H 0.92141 0.44869 0.72308
 H69 H 1.07983 0.55126 0.72298
 H70 H 1.07962 0.52725 0.78039
 H71 H 1.00064 0.50043 0.88650
 H72 H 0.92170 0.47307 0.78041
 C73 C 0.49950 0.49943 0.64629
 C74 C 0.52673 0.48256 0.66633
 C75 C 0.52815 0.48400 0.70672
 C76 C 0.49984 0.49973 0.72792
 C77 C 0.47136 0.51530 0.70685
 C78 C 0.47245 0.51645 0.66645
 C79 C 0.50004 0.49991 0.77141
 C80 C 0.48436 0.52829 0.79257
 C81 C 0.48324 0.52719 0.83297
 C82 C 0.50039 0.50024 0.85303
 C83 C 0.51737 0.47313 0.83292
 C84 C 0.51590 0.47171 0.79253
 H85 H 0.49939 0.49933 0.61496
 H86 H 0.55174 0.47296 0.72094
 H87 H 0.44790 0.52646 0.72119
 H88 H 0.47311 0.55167 0.77830
 H89 H 0.50052 0.50036 0.88437
 H90 H 0.52703 0.44820 0.77824
 C91 C 0.49877 -0.00172 0.64343
 C92 C 0.51626 0.04261 0.66352
 C93 C 0.51516 0.04259 0.70397
 C94 C 0.49913 -0.00161 0.72521
 C95 C 0.48287 -0.04591 0.70400
 C96 C 0.48141 -0.04606 0.66351
 C97 C 0.49939 -0.00147 0.76887
 C98 C 0.47172 -0.04578 0.79022
 C99 C 0.47317 -0.04562 0.83070
 C100 C 0.49989 -0.00107 0.85061
 C101 C 0.52634 0.04321 0.83041
 C102 C 0.52731 0.04300 0.78997
 H103 H 0.49871 -0.00161 0.61208
 H104 H 0.52674 0.07741 0.71819
 H105 H 0.47148 -0.08062 0.71834
 H106 H 0.44858 -0.08071 0.77600
 H107 H 0.50015 -0.00076 0.88197
 H108 H 0.55028 0.07787 0.77566
 O109 O 0.40887 0.67333 0.95438
 O110 O 0.40938 0.75605 0.96625
 C111 C 0.37766 0.76194 0.94783
 O112 O 0.33180 0.73763 0.95481
 O113 O 0.24964 0.65489 0.96817
 C114 C 0.24274 0.61651 0.95024
 O115 O 0.26688 0.59485 0.95695
 O116 O 0.35016 0.59612 0.96858
 C117 C 0.38718 0.62716 0.94896
 O118 O 0.41346 0.66113 1.03097
 O119 O 0.40926 0.74122 1.04287
 C120 C 0.38550 0.76317 1.04978
 O121 O 0.34695 0.75501 1.03142
 O122 O 0.26648 0.67072 1.04460
 C123 C 0.24393 0.62486 1.05154
 O124 O 0.25225 0.59441 1.03359
 O125 O 0.33756 0.59984 1.04534
 C126 C 0.38383 0.62363 1.05076
 Cr127 Cr 0.40748 0.70651 0.99865
 Cr128 Cr 0.30017 0.70327 0.99974
 Cr129 Cr 0.30305 0.59905 1.00108
 O130 O 0.33684 0.66960 0.99979
 O131 O 0.59215 0.32757 0.95428
 O132 O 0.59163 0.24489 0.96633
 C133 C 0.62334 0.23891 0.94795
 O134 O 0.66921 0.26328 0.95487
 O135 O 0.75137 0.34608 0.96813
 C136 C 0.75829 0.38441 0.95014
 O137 O 0.73413 0.40607 0.95678
 O138 O 0.65083 0.40484 0.96838
 C139 C 0.61382 0.37373 0.94879
 O140 O 0.58750 0.34008 1.03083
 O141 O 0.59169 0.26004 1.04290
 C142 C 0.61543 0.23809 1.04985
 O143 O 0.65400 0.24619 1.03150
 O144 O 0.73446 0.33052 1.04457
 C145 C 0.75703 0.37641 1.05143
 O146 O 0.74871 0.40680 1.03342
 O147 O 0.66338 0.40140 1.04515
 C148 C 0.61711 0.37764 1.05058
 Cr149 Cr 0.59350 0.29457 0.99861
 Cr150 Cr 0.70080 0.29781 0.99976
 Cr151 Cr 0.69792 0.40204 1.00090
 O152 O 0.66414 0.33148 0.99972
 O153 O 0.67251 0.40772 0.54473
 O154 O 0.75507 0.40795 0.53253
 C155 C 0.76088 0.37618 0.55091
 O156 O 0.73647 0.33034 0.54397
 O157 O 0.65371 0.24820 0.53061
 C158 C 0.61543 0.24124 0.54879
 O159 O 0.59389 0.26558 0.54242
 O160 O 0.59513 0.34889 0.53103
 C161 C 0.62635 0.38605 0.55042
 O162 O 0.65989 0.41221 0.46824
 O163 O 0.74002 0.40794 0.45595
 C164 C 0.76220 0.38438 0.44914
 O165 O 0.75387 0.34574 0.46742
 O166 O 0.66933 0.26542 0.45424
 C167 C 0.62337 0.24280 0.44760
 O168 O 0.59300 0.25111 0.46573
 O169 O 0.59819 0.33639 0.45424
 C170 C 0.62198 0.38264 0.44881
 Cr171 Cr 0.70544 0.40619 0.50033
 Cr172 Cr 0.70205 0.29889 0.49907
 Cr173 Cr 0.59780 0.30183 0.49837
 O174 O 0.66841 0.33559 0.49927
 O175 O 0.32643 0.59118 0.54534
 O176 O 0.24383 0.59089 0.53326
 C177 C 0.23794 0.62256 0.55178
 O178 O 0.26231 0.66842 0.54497
 O179 O 0.34504 0.75068 0.53178
 C180 C 0.38331 0.75764 0.54991
 O181 O 0.40491 0.73337 0.54342
 O182 O 0.40380 0.65016 0.53176
 C183 C 0.37257 0.61290 0.55105
 O184 O 0.33920 0.58700 0.46881
 O185 O 0.25905 0.59120 0.45665
 C186 C 0.23686 0.61478 0.44994
 O187 O 0.24507 0.65330 0.46837
 O188 O 0.32958 0.73372 0.45537
 C189 C 0.37553 0.75637 0.44871
 O190 O 0.40591 0.74807 0.46676
 O191 O 0.40087 0.66290 0.45500
 C192 C 0.37714 0.61667 0.44943
 Cr193 Cr 0.29356 0.59283 0.50099
 Cr194 Cr 0.29679 0.70007 0.50013
 Cr195 Cr 0.40112 0.69728 0.49925
 O196 O 0.33051 0.66345 0.50014
 C197 C 0.45084 0.53850 0.35536
 C198 C 0.43207 0.55675 0.37468
 C199 C 0.41175 0.57822 0.39902
 C200 C 0.39548 0.59620 0.42124
 C201 C 0.45035 0.91044 0.35696
 C202 C 0.43176 0.87301 0.37579
 C203 C 0.41134 0.83053 0.39936
 C204 C 0.39470 0.79570 0.42100
 C205 C 0.08741 0.53898 0.35349
 C206 C 0.12403 0.55713 0.37330
 C207 C 0.16507 0.57815 0.39841
 C208 C 0.19863 0.59545 0.42127
 C209 C 0.54865 0.46140 0.35519
 C210 C 0.56732 0.44302 0.37441
 C211 C 0.58754 0.42137 0.39862
 C212 C 0.60372 0.40326 0.42073
 C213 C 0.54832 0.08853 0.35597
 C214 C 0.56700 0.12604 0.37474
 C215 C 0.58750 0.16859 0.39826
 C216 C 0.60419 0.20347 0.41987
 C217 C 0.91234 0.46087 0.35324
 C218 C 0.87557 0.44256 0.37290
 C219 C 0.83433 0.42133 0.39785
 C220 C 0.80060 0.40387 0.42058
 C221 C 0.53931 0.44995 1.14627
 C222 C 0.55738 0.43136 1.12657
 C223 C 0.57869 0.41138 1.10173
 C224 C 0.59659 0.39548 1.07912
 C225 C 0.91018 0.45103 1.14446
 C226 C 0.87294 0.43246 1.12533
 C227 C 0.83074 0.41207 1.10134
 C228 C 0.79615 0.39548 1.07941
 C229 C 0.53995 0.09029 1.14740
 C230 C 0.55808 0.12661 1.12736
 C231 C 0.57905 0.16718 1.10192
 C232 C 0.59627 0.20032 1.07877
 C233 C 0.46142 0.55134 1.14644
 C234 C 0.44342 0.56997 1.12678
 C235 C 0.42218 0.58998 1.10194
 C236 C 0.40433 0.60586 1.07932
 C237 C 0.09072 0.55033 1.14465
 C238 C 0.12800 0.56894 1.12553
 C239 C 0.17022 0.58933 1.10153
 C240 C 0.20481 0.60588 1.07956
 C241 C 0.46068 0.91105 1.14738
 C242 C 0.44263 0.87473 1.12731
 C243 C 0.42175 0.83415 1.10184
 C244 C 0.40459 0.80099 1.07869
 C245 C 0.55187 0.46236 0.64495
 C246 C 0.57106 0.44472 0.62556
 C247 C 0.59166 0.42378 0.60112
 C248 C 0.60802 0.40615 0.57877
 C249 C 0.53671 0.08824 0.64214
 C250 C 0.55457 0.12534 0.62284
 C251 C 0.57592 0.16739 0.59864
 C252 C 0.59414 0.20195 0.57664
 C253 C 0.91064 0.44809 0.64697
 C254 C 0.87389 0.42927 0.62730
 C255 C 0.83263 0.40926 0.60240
 C256 C 0.79897 0.39356 0.57965
 C257 C 0.44719 0.53658 0.64520
 C258 C 0.42794 0.55418 0.62590
 C259 C 0.40728 0.57511 0.60157
 C260 C 0.39090 0.59275 0.57930
 C261 C 0.46194 0.91071 0.64329
 C262 C 0.44407 0.87351 0.62406
 C263 C 0.42273 0.83142 0.59987
 C264 C 0.40454 0.79688 0.57784
 C265 C 0.08803 0.55012 0.64784
 C266 C 0.12483 0.56907 0.62820
 C267 C 0.16613 0.58922 0.60330
 C268 C 0.19982 0.60504 0.58053
 C269 C 0.46307 0.55235 0.85433
 C270 C 0.44548 0.57155 0.87376
 C271 C 0.42463 0.59219 0.89826
 C272 C 0.40712 0.60863 0.92064
 C273 C 0.09049 0.53777 0.85642
 C274 C 0.12752 0.55562 0.87577
 C275 C 0.16939 0.57698 0.90008
 C276 C 0.20373 0.59523 0.92223
 C277 C 0.44983 0.91137 0.85120
 C278 C 0.43100 0.87469 0.87099
 C279 C 0.41093 0.83354 0.89608
 C280 C 0.39515 0.79996 0.91896
 C281 C 0.53768 0.44810 0.85423
 C282 C 0.55536 0.42901 0.87362
 C283 C 0.57629 0.40849 0.89809
 C284 C 0.59385 0.39215 0.92046
 C285 C 0.91079 0.46291 0.85644
 C286 C 0.87372 0.44512 0.87577
 C287 C 0.83178 0.42382 0.90004
 C288 C 0.79737 0.40562 0.92215
 C289 C 0.55117 0.08886 0.85183
 C290 C 0.56998 0.12563 0.87152
 C291 C 0.59005 0.16696 0.89646
 C292 C 0.60585 0.20070 0.91921
   
