data_POSCAR
  _audit_creation_date              2014-09-24
  _audit_creation_method            'ToBaCCo'
  _symmetry_space_group_name_H-M    'P1'
  _symmetry_Int_Tables_number       1
  _symmetry_cell_setting            triclinic
  loop_
  _symmetry_equiv_pos_as_xyz
 x,y,z
_cell_length_a 58.9443
_cell_length_b 58.9839
_cell_length_c 17.0517
_cell_angle_alpha 90.078500
_cell_angle_beta 90.000900
_cell_angle_gamma 119.892000
loop_
  _atom_site_label
  _atom_site_type_symbol
  _atom_site_fract_x
  _atom_site_fract_y
  _atom_site_fract_z
C1 C 0.22203 0.48622 0.46059
 C2 C 0.22221 0.48630 0.54352
 C3 C 0.24293 0.48633 0.58409
 C4 C 0.26349 0.48626 0.54305
 C5 C 0.26331 0.48621 0.46030
 C6 C 0.24264 0.48620 0.41970
 H7 H 0.24262 0.48612 0.35603
 H8 H 0.24302 0.48635 0.64779
 C9 C 0.51367 -0.26385 0.45878
 C10 C 0.51358 -0.26369 0.54154
 C11 C 0.51357 -0.24301 0.58208
 C12 C 0.51367 -0.22240 0.54101
 C13 C 0.51372 -0.22258 0.45825
 C14 C 0.51372 -0.24327 0.41771
 H15 H 0.51380 -0.24327 0.35406
 H16 H 0.51354 -0.24297 0.64574
 C17 C 1.26404 0.77811 0.45564
 C18 C 1.26387 0.77793 0.53842
 C19 C 1.24324 0.75728 0.57885
 C20 C 1.22272 0.73675 0.53769
 C21 C 1.22289 0.73690 0.45505
 C22 C 1.24351 0.75752 0.41451
 H23 H 1.24349 0.75753 0.35085
 H24 H 1.24314 0.75721 0.64247
 C25 C 0.77743 0.51372 0.46234
 C26 C 0.77738 0.51355 0.54510
 C27 C 0.75672 0.51347 0.58609
 C28 C 0.73611 0.51358 0.54537
 C29 C 0.73618 0.51372 0.46260
 C30 C 0.75681 0.51378 0.42172
 H31 H 0.75686 0.51393 0.35810
 H32 H 0.75671 0.51339 0.64978
 C33 C 0.48603 0.26371 0.46286
 C34 C 0.48612 0.26377 0.54563
 C35 C 0.48617 0.24318 0.58647
 C36 C 0.48612 0.22251 0.54561
 C37 C 0.48606 0.22249 0.46284
 C38 C 0.48603 0.24308 0.42210
 H39 H 0.48594 0.24302 0.35847
 H40 H 0.48620 0.24321 0.65016
 C41 C 0.73692 0.22272 0.45971
 C42 C 0.73694 0.22276 0.54234
 C43 C 0.75753 0.24334 0.58328
 C44 C 0.77815 0.26392 0.54253
 C45 C 0.77810 0.26387 0.45974
 C46 C 0.75748 0.24328 0.41893
 H47 H 0.75747 0.24323 0.35531
 H48 H 0.75749 0.24327 0.64693
 N49 N 1.02757 0.48915 -0.14022
 N50 N 1.04704 0.49570 -0.18987
 N51 N 0.97265 0.44593 -0.08540
 N52 N 0.95329 0.42180 -0.09658
 N53 N 0.97255 0.46159 -0.13994
 N54 N 0.95314 0.44857 -0.18976
 N55 N 1.02769 0.47351 -0.08565
 N56 N 1.04725 0.46897 -0.09661
 C57 C 1.05907 0.48301 -0.16161
 C58 C 0.94133 0.42387 -0.16166
 N59 N 0.97286 0.46205 0.13786
 N60 N 0.95353 0.44920 0.18791
 N61 N 1.02794 0.47378 0.08337
 N62 N 1.04730 0.46897 0.09520
 N63 N 1.02792 0.48961 0.13758
 N64 N 1.04724 0.49602 0.18780
 N65 N 0.97285 0.44621 0.08362
 N66 N 0.95350 0.42213 0.09521
 Mn67 Mn 1.00028 0.45959 -0.00103
 C68 C 0.94167 0.42443 0.16024
 C69 C 1.05914 0.48307 0.16030
 N70 N 0.97240 0.51035 -0.14050
 N71 N 0.95291 0.50374 -0.19020
 N72 N 1.02748 0.55378 -0.08669
 N73 N 1.04677 0.57789 -0.09854
 N74 N 1.02747 0.53794 -0.14093
 N75 N 1.04675 0.55082 -0.19119
 N76 N 0.97239 0.52618 -0.08624
 N77 N 0.95289 0.53078 -0.09746
 Mn78 Mn 1.00000 0.49975 -0.14129
 C79 C 0.94097 0.51659 -0.16229
 C80 C 1.05859 0.57563 -0.16370
 N81 N 1.02766 0.53832 0.13687
 N82 N 1.04715 0.55130 0.18643
 N83 N 0.97252 0.52642 0.08278
 N84 N 0.95311 0.53117 0.09435
 N85 N 0.97265 0.51077 0.13730
 N86 N 0.95335 0.50443 0.18749
 N87 N 1.02756 0.55397 0.08232
 N88 N 1.04699 0.57807 0.09320
 Mn89 Mn 1.00027 0.50019 0.13828
 Mn90 Mn 0.99999 0.54035 -0.00195
 Cl91 Cl 1.00014 0.49997 -0.00150
 C92 C 1.05896 0.57596 0.15812
 C93 C 0.94137 0.51723 0.15963
 N94 N 0.47337 0.44606 0.08440
 N95 N 0.46863 0.42195 0.09597
 N96 N 0.46153 0.48937 0.13847
 N97 N 0.44858 0.49588 0.18820
 N98 N 0.44581 0.47362 0.08396
 N99 N 0.42169 0.46896 0.09503
 N100 N 0.48908 0.46184 0.13891
 N101 N 0.49547 0.44891 0.18909
 C102 C 0.48263 0.42416 0.16124
 C103 C 0.42386 0.48305 0.16001
 N104 N 0.52607 0.55392 0.08485
 N105 N 0.53085 0.57806 0.09653
 N106 N 0.53784 0.51061 0.13940
 N107 N 0.55073 0.50416 0.18953
 N108 N 0.55364 0.52634 0.08515
 N109 N 0.57776 0.53104 0.09681
 N110 N 0.51027 0.53817 0.13909
 N111 N 0.50387 0.55114 0.18920
 Mn112 Mn 0.49968 0.50000 0.13984
 C113 C 0.51678 0.57591 0.16159
 C114 C 0.57551 0.51700 0.16189
 N115 N 0.44585 0.47358 -0.08505
 N116 N 0.42172 0.46887 -0.09675
 N117 N 0.48924 0.46175 -0.13889
 N118 N 0.49580 0.44882 -0.18860
 N119 N 0.47346 0.44602 -0.08461
 N120 N 0.46882 0.42193 -0.09584
 N121 N 0.46165 0.48930 -0.13932
 N122 N 0.44873 0.49574 -0.18946
 Mn123 Mn 0.45936 0.45955 -0.00032
 C124 C 0.42393 0.48290 -0.16187
 C125 C 0.48296 0.42410 -0.16068
 N126 N 0.55378 0.52625 -0.08386
 N127 N 0.57791 0.53092 -0.09499
 N128 N 0.51049 0.53802 -0.13871
 N129 N 0.50393 0.55091 -0.18848
 N130 N 0.52619 0.55378 -0.08417
 N131 N 0.53077 0.57785 -0.09526
 N132 N 0.53806 0.51050 -0.13840
 N133 N 0.55105 0.50401 -0.18816
 Mn134 Mn 0.54019 0.54034 0.00048
 Mn135 Mn 0.49986 0.49990 -0.13972
 Cl136 Cl 0.49977 0.49995 0.00007
 C137 C 0.57578 0.51685 -0.16003
 C138 C 0.51669 0.57562 -0.16030
 N139 N 0.44607 -0.02747 0.08396
 N140 N 0.42194 -0.04679 0.09548
 N141 N 0.48941 0.02750 0.13876
 N142 N 0.49588 0.04682 0.18898
 N143 N 0.47363 0.02759 0.08453
 N144 N 0.46891 0.04698 0.09629
 N145 N 0.46187 -0.02753 0.13820
 N146 N 0.44894 -0.04687 0.18814
 C147 C 0.42415 -0.05869 0.16045
 C148 C 0.48300 0.05876 0.16141
 N149 N 0.55400 0.02746 0.08368
 N150 N 0.57812 0.04681 0.09520
 N151 N 0.51073 -0.02754 0.13754
 N152 N 0.50424 -0.04698 0.18712
 N153 N 0.52646 -0.02755 0.08300
 N154 N 0.53113 -0.04701 0.09392
 N155 N 0.53825 0.02744 0.13821
 N156 N 0.55120 0.04676 0.18836
 Mn157 Mn 0.50007 -0.00003 0.13906
 C158 C 0.57595 0.05863 0.16047
 C159 C 0.51706 -0.05889 0.15883
 N160 N 0.47361 0.02776 -0.08449
 N161 N 0.46891 0.04720 -0.09552
 N162 N 0.46185 -0.02723 -0.13960
 N163 N 0.44894 -0.04662 -0.18951
 N164 N 0.44610 -0.02725 -0.08506
 N165 N 0.42202 -0.04667 -0.09628
 N166 N 0.48935 0.02775 -0.13903
 N167 N 0.49580 0.04718 -0.18870
 Mn168 Mn 0.45959 0.00016 -0.00027
 C169 C 0.48295 0.05909 -0.16051
 C170 C 0.42423 -0.05851 -0.16141
 N171 N 0.52640 -0.02752 -0.08601
 N172 N 0.53113 -0.04693 -0.09784
 N173 N 0.53815 0.02760 -0.13958
 N174 N 0.55105 0.04700 -0.18930
 N175 N 0.55394 0.02753 -0.08534
 N176 N 0.57804 0.04690 -0.09658
 N177 N 0.51062 -0.02744 -0.14026
 N178 N 0.50417 -0.04676 -0.19052
 Mn179 Mn 0.54047 -0.00002 -0.00116
 Mn180 Mn 0.49999 0.00017 -0.14051
 Cl181 Cl 0.50003 0.00007 -0.00072
 C182 C 0.51706 -0.05872 -0.16302
 C183 C 0.57581 0.05882 -0.16140
 C184 C 1.16252 0.48551 0.34403
 N185 N 1.16052 0.48337 0.26477
 N186 N 1.14036 0.48295 0.22791
 C187 C 1.12158 0.48465 0.26918
 N188 N 1.12359 0.48679 0.34841
 N189 N 1.14374 0.48721 0.38525
 C190 C 1.18412 0.48582 0.38411
 C191 C 1.20202 0.48603 0.41915
 C192 C 1.09976 0.48410 0.22973
 C193 C 1.08130 0.48363 0.19752
 C194 C 0.51433 0.67712 0.34356
 N195 N 0.51638 0.67705 0.26432
 N196 N 0.51679 0.65724 0.22786
 C197 C 0.51517 0.63690 0.26954
 N198 N 0.51312 0.63698 0.34875
 N199 N 0.51271 0.65678 0.38519
 C200 C 0.51403 0.69849 0.38319
 C201 C 0.51384 0.71625 0.41784
 C202 C 0.51572 0.61556 0.23051
 C203 C 0.51620 0.59753 0.19858
 C204 C 0.32300 -0.16228 0.34101
 N205 N 0.34326 -0.14356 0.38294
 N206 N 0.36305 -0.12337 0.34680
 C207 C 0.36321 -0.12124 0.26758
 N208 N 0.34294 -0.13996 0.22560
 N209 N 0.32314 -0.16017 0.26177
 C210 C 0.30164 -0.18393 0.38034
 C211 C 0.28390 -0.20187 0.41482
 C212 C 0.38454 -0.09937 0.22887
 C213 C 0.40255 -0.08087 0.19719
 C214 C 0.83799 0.51460 0.34306
 N215 N 0.85677 0.51289 0.38422
 N216 N 0.87693 0.51337 0.34734
 C217 C 0.87893 0.51557 0.26815
 N218 N 0.86015 0.51727 0.22694
 N219 N 0.83998 0.51680 0.26384
 C220 C 0.81640 0.51423 0.38316
 C221 C 0.79852 0.51397 0.41827
 C222 C 0.90074 0.51616 0.22872
 C223 C 0.91921 0.51666 0.19662
 C224 C 0.48525 0.32343 0.34405
 N225 N 0.48305 0.32326 0.26483
 N226 N 0.48260 0.34297 0.22809
 C227 C 0.48433 0.36344 0.26948
 N228 N 0.48654 0.36360 0.34867
 N229 N 0.48699 0.34390 0.38539
 C230 C 0.48559 0.30220 0.38398
 C231 C 0.48582 0.28456 0.41895
 C232 C 0.48374 0.38465 0.23021
 C233 C 0.48323 0.40261 0.19820
 C234 C 0.67695 0.16213 0.34192
 N235 N 0.67695 0.15995 0.26271
 N236 N 0.65716 0.13975 0.22630
 C237 C 0.63680 0.12114 0.26802
 N238 N 0.63682 0.12334 0.34720
 N239 N 0.65659 0.14352 0.38359
 C240 C 0.69827 0.18374 0.38149
 C241 C 0.71599 0.20163 0.41617
 C242 C 0.61551 0.09929 0.22909
 C243 C 0.59752 0.08080 0.19729
 C244 C 0.48559 0.16300 -0.33960
 N245 N 0.48309 0.16057 -0.26051
 N246 N 0.48268 0.14031 -0.22453
 C247 C 0.48475 0.12188 -0.26657
 N248 N 0.48725 0.12432 -0.34562
 N249 N 0.48766 0.14457 -0.38158
 C250 C 0.48585 0.18465 -0.37876
 C251 C 0.48600 0.20256 -0.41330
 C252 C 0.48415 0.09994 -0.22814
 C253 C 0.48361 0.08137 -0.19679
 C254 C 0.67707 0.51408 -0.33952
 N255 N 0.65651 0.51189 -0.38140
 N256 N 0.63667 0.51231 -0.34538
 C257 C 0.63678 0.51495 -0.26634
 N258 N 0.65734 0.51714 -0.22439
 N259 N 0.67719 0.51672 -0.26045
 C260 C 0.69849 0.51383 -0.37877
 C261 C 0.71625 0.51368 -0.41341
 C262 C 0.61543 0.51558 -0.22784
 C263 C 0.59739 0.51614 -0.19641
 C264 C 0.83765 0.32274 -0.34208
 N265 N 0.83989 0.32279 -0.26289
 N266 N 0.86012 0.34259 -0.22662
 C267 C 0.87871 0.36292 -0.26846
 N268 N 0.87646 0.36286 -0.34762
 N269 N 0.85624 0.34307 -0.38387
 C270 C 0.81602 0.30141 -0.38153
 C271 C 0.79812 0.28371 -0.41626
 C272 C 0.90059 0.38422 -0.22972
 C273 C 0.91911 0.40225 -0.19813
 C274 C 0.51434 -0.16263 -0.34419
 N275 N 0.51640 -0.16043 -0.26495
 N276 N 0.51684 -0.14016 -0.22873
 C277 C 0.51523 -0.12147 -0.27064
 N278 N 0.51317 -0.12369 -0.34985
 N279 N 0.51273 -0.14394 -0.38605
 C280 C 0.51403 -0.18434 -0.38358
 C281 C 0.51383 -0.20232 -0.41810
 C282 C 0.51584 -0.09952 -0.23185
 C283 C 0.51638 -0.08097 -0.20003
 C284 C 0.32263 0.48562 -0.34231
 N285 N 0.32273 0.48345 -0.26312
 N286 N 0.34259 0.48302 -0.22704
 C287 C 0.36294 0.48474 -0.26904
 N288 N 0.36283 0.48692 -0.34820
 N289 N 0.34298 0.48735 -0.38426
 C290 C 0.30120 0.48592 -0.38158
 C291 C 0.28340 0.48611 -0.41605
 C292 C 0.38431 0.48414 -0.23040
 C293 C 0.40235 0.48359 -0.19872
 C294 C 1.16201 0.67666 -0.34530
 N295 N 1.14325 0.65639 -0.38711
 N296 N 1.12308 0.63661 -0.35082
 C297 C 1.12103 0.63647 -0.27157
 N298 N 1.13979 0.65674 -0.22971
 N299 N 1.15997 0.67653 -0.26602
 C300 C 1.18363 0.69800 -0.38475
 C301 C 1.20156 0.71575 -0.41918
 C302 C 1.09919 0.61517 -0.23267
 C303 C 1.08073 0.59718 -0.20078
 C304 C 0.83684 0.51380 -0.34056
 N305 N 0.85498 0.51128 -0.38265
 N306 N 0.87526 0.51165 -0.34690
 C307 C 0.87801 0.51455 -0.26798
 N308 N 0.85986 0.51706 -0.22583
 N309 N 0.83957 0.51669 -0.26160
 C310 C 0.81520 0.51364 -0.37950
 C311 C 0.79731 0.51357 -0.41391
 C312 C 0.90000 0.51518 -0.22982
 C313 C 0.91863 0.51578 -0.19859
 C314 C 0.48573 0.32284 -0.33958
 N315 N 0.48294 0.32270 -0.26060
 N316 N 0.48255 0.34259 -0.22466
 C317 C 0.48494 0.36319 -0.26667
 N318 N 0.48775 0.36331 -0.34561
 N319 N 0.48813 0.34343 -0.38152
 C320 C 0.48593 0.30140 -0.37868
 C321 C 0.48604 0.28362 -0.41324
 C322 C 0.48432 0.38453 -0.22834
 C323 C 0.48373 0.40255 -0.19701
 C324 C 0.67690 0.16235 -0.34069
 N325 N 0.67699 0.15994 -0.26161
 N326 N 0.65715 0.13975 -0.22560
 C327 C 0.63664 0.12139 -0.26762
 N328 N 0.63657 0.12382 -0.34667
 N329 N 0.65640 0.14399 -0.38266
 C330 C 0.69827 0.18391 -0.37983
 C331 C 0.71602 0.20176 -0.41428
 C332 C 0.61534 0.09954 -0.22920
 C333 C 0.59735 0.08102 -0.19779
 C334 C 1.16308 0.48603 -0.34049
 N335 N 1.15989 0.48205 -0.26198
 N336 N 1.13963 0.48164 -0.22590
 C337 C 1.12199 0.48518 -0.26730
 N338 N 1.12521 0.48916 -0.34577
 N339 N 1.14545 0.48958 -0.38182
 C340 C 1.18462 0.48619 -0.37982
 C341 C 1.20241 0.48626 -0.41475
 C342 C 1.10004 0.48448 -0.22895
 C343 C 1.08141 0.48383 -0.19771
 C344 C 0.51382 0.67644 -0.34000
 N345 N 0.51749 0.67715 -0.26132
 N346 N 0.51788 0.65734 -0.22509
 C347 C 0.51462 0.63627 -0.26652
 N348 N 0.51094 0.63557 -0.34515
 N349 N 0.51055 0.65537 -0.38136
 C350 C 0.51367 0.69777 -0.37944
 C351 C 0.51360 0.71547 -0.41433
 C352 C 0.51528 0.61505 -0.22798
 C353 C 0.51590 0.59710 -0.19658
 C354 C 0.32354 -0.16192 -0.34252
 N355 N 0.32304 -0.15932 -0.26360
 N356 N 0.34280 -0.13915 -0.22707
 C357 C 0.36360 -0.12102 -0.26843
 N358 N 0.36408 -0.12364 -0.34731
 N359 N 0.34434 -0.14379 -0.38382
 C360 C 0.30228 -0.18340 -0.38225
 C361 C 0.28465 -0.20117 -0.41732
 C362 C 0.38479 -0.09921 -0.22954
 C363 C 0.40273 -0.08070 -0.19789
 C364 C 0.51432 -0.16237 0.33937
 N365 N 0.51741 -0.15982 0.26047
 N366 N 0.51784 -0.13965 0.22398
 C367 C 0.51519 -0.12145 0.26537
 N368 N 0.51209 -0.12402 0.34424
 N369 N 0.51166 -0.14418 0.38070
 C370 C 0.51406 -0.18387 0.37905
 C371 C 0.51389 -0.20166 0.41407
 C372 C 0.51582 -0.09963 0.22656
 C373 C 0.51638 -0.08111 0.19504
 C374 C 0.32304 0.48570 0.34132
 N375 N 0.32254 0.48270 0.26236
 N376 N 0.34231 0.48230 0.22574
 C377 C 0.36314 0.48488 0.26706
 N378 N 0.36362 0.48789 0.34599
 N379 N 0.34386 0.48828 0.38258
 C380 C 0.30177 0.48593 0.38111
 C381 C 0.28412 0.48608 0.41617
 C382 C 0.38434 0.48428 0.22809
 C383 C 0.40232 0.48373 0.19643
 C384 C 1.16262 0.67699 0.33724
 N385 N 1.14460 0.65624 0.37890
 N386 N 1.12441 0.63642 0.34279
 C387 C 1.12163 0.63678 0.26396
 N388 N 1.13966 0.65753 0.22224
 N389 N 1.15987 0.67736 0.25837
 C390 C 1.18415 0.69834 0.37654
 C391 C 1.20196 0.71605 0.41126
 C392 C 1.09977 0.61551 0.22551
 C393 C 1.08121 0.59752 0.19421
 C394 C 0.48552 0.16210 0.34405
 N395 N 0.48310 0.15990 0.26490
 N396 N 0.48271 0.13974 0.22820
 C397 C 0.48474 0.12120 0.26958
 N398 N 0.48716 0.12342 0.34870
 N399 N 0.48754 0.14356 0.38538
 C400 C 0.48576 0.18363 0.38391
 C401 C 0.48592 0.20147 0.41888
 C402 C 0.48417 0.09940 0.23042
 C403 C 0.48365 0.08092 0.19842
 C404 C 0.67634 0.51439 0.34413
 N405 N 0.65580 0.51244 0.38553
 N406 N 0.63605 0.51285 0.34892
 C407 C 0.63623 0.51523 0.26981
 N408 N 0.65677 0.51718 0.22836
 N409 N 0.67654 0.51677 0.26499
 C410 C 0.69762 0.51411 0.38390
 C411 C 0.71530 0.51391 0.41879
 C412 C 0.61500 0.51582 0.23072
 C413 C 0.59703 0.51634 0.19880
 C414 C 0.83840 0.32367 0.34153
 N415 N 0.84063 0.32349 0.26239
 N416 N 0.86078 0.34326 0.22597
 C417 C 0.87927 0.36378 0.26764
 N418 N 0.87701 0.36394 0.34674
 N419 N 0.85688 0.34419 0.38314
 C420 C 0.81689 0.30239 0.38110
 C421 C 0.79907 0.28472 0.41590
 C422 C 0.90106 0.38500 0.22878
 C423 C 0.91953 0.40295 0.19702
   
