data_POSCAR
  _audit_creation_date              2014-09-24
  _audit_creation_method            'ToBaCCo'
  _symmetry_space_group_name_H-M    'P1'
  _symmetry_Int_Tables_number       1
  _symmetry_cell_setting            triclinic
  loop_
  _symmetry_equiv_pos_as_xyz
 x,y,z
_cell_length_a 42.2574
_cell_length_b 46.9740
_cell_length_c 41.9077
_cell_angle_alpha 88.815900
_cell_angle_beta 91.496600
_cell_angle_gamma 88.834300
loop_
  _atom_site_label
  _atom_site_type_symbol
  _atom_site_fract_x
  _atom_site_fract_y
  _atom_site_fract_z
N1 N 0.14590 0.18358 0.24924
 N2 N 0.16648 0.16221 0.24948
 C3 C 0.16247 0.14569 0.27561
 C4 C 0.13768 0.15722 0.29247
 C5 C 0.12778 0.18127 0.27508
 H6 H 0.17562 0.12613 0.28095
 H7 H 0.10821 0.19551 0.28025
 Cu8 Cu 0.19368 0.15608 0.21357
 Cu9 Cu 0.14267 0.21111 0.21376
 Cu10 Cu 0.21003 0.21291 0.16799
 N11 N 0.21991 0.15265 0.17651
 N12 N 0.22731 0.17512 0.15924
 C13 C 0.24670 0.16696 0.13598
 C14 C 0.25115 0.13766 0.13864
 C15 C 0.23377 0.12933 0.16453
 H16 H 0.25623 0.18129 0.11831
 H17 H 0.23171 0.10791 0.17412
 N18 N 0.17885 0.24466 0.16891
 N19 N 0.15236 0.24314 0.18485
 C20 C 0.13371 0.26584 0.17684
 C21 C 0.14922 0.28248 0.15499
 C22 C 0.17786 0.26856 0.15052
 H23 H 0.10998 0.26939 0.18520
 H24 H 0.19540 0.27409 0.13323
 H25 H 0.16958 0.19254 0.17806
 H26 H 0.19025 0.20811 0.21329
 N27 N -0.15925 0.78938 0.23290
 N28 N -0.18105 0.80964 0.23445
 C29 C -0.17331 0.82721 0.25817
 C30 C -0.14497 0.81756 0.27212
 C31 C -0.13665 0.79352 0.25551
 H32 H -0.18643 0.84645 0.26358
 H33 H -0.11534 0.78054 0.25897
 Cu34 Cu -0.21568 0.81349 0.20321
 Cu35 Cu -0.16183 0.76048 0.20016
 Cu36 Cu -0.19754 0.78897 0.13113
 N37 N -0.24060 0.82428 0.16531
 N38 N -0.23268 0.81549 0.13698
 C39 C -0.25164 0.82844 0.11462
 C40 C -0.27264 0.84617 0.12981
 C41 C -0.26511 0.84292 0.16209
 H42 H -0.24989 0.82556 0.08917
 H43 H -0.27545 0.85415 0.18166
 N44 N -0.17041 0.75433 0.13194
 N45 N -0.15804 0.74266 0.15846
 C46 C -0.14292 0.71817 0.15147
 C47 C -0.14600 0.71440 0.11888
 C48 C -0.16334 0.73771 0.10726
 H49 H -0.13036 0.70444 0.16875
 H50 H -0.17088 0.74188 0.08271
 H51 H -0.17148 0.79531 0.17282
 H52 H -0.20495 0.76994 0.17449
 N53 N -0.14012 0.17837 -0.22670
 N54 N -0.16554 0.16302 -0.23068
 C55 C -0.16019 0.14371 -0.25334
 C56 C -0.12965 0.14704 -0.26383
 C57 C -0.11756 0.16909 -0.24630
 H58 H -0.17670 0.12764 -0.26062
 H59 H -0.09397 0.17752 -0.24742
 Cu60 Cu -0.20132 0.16749 -0.20274
 Cu61 Cu -0.13782 0.20826 -0.19526
 Cu62 Cu -0.20973 0.22835 -0.16314
 N63 N -0.23618 0.17347 -0.17407
 N64 N -0.23907 0.19708 -0.15799
 C65 C -0.26451 0.19533 -0.13937
 C66 C -0.27823 0.16918 -0.14401
 C67 C -0.25961 0.15585 -0.16626
 H68 H -0.27233 0.21179 -0.12353
 H69 H -0.26237 0.13477 -0.17563
 N70 N -0.17207 0.25249 -0.16153
 N71 N -0.14473 0.24458 -0.17349
 C72 C -0.12395 0.26563 -0.16966
 C73 C -0.13872 0.28770 -0.15427
 C74 C -0.16924 0.27870 -0.14934
 H75 H -0.09991 0.26516 -0.17790
 H76 H -0.18812 0.29048 -0.13829
 H77 H -0.17494 0.19855 -0.16471
 H78 H -0.18468 0.21686 -0.20378
 N79 N 0.17694 0.79479 -0.23815
 N80 N 0.19787 0.81505 -0.24014
 C81 C 0.18584 0.83653 -0.25872
 C82 C 0.15566 0.82939 -0.26881
 C83 C 0.15071 0.80280 -0.25528
 H84 H 0.19786 0.85617 -0.26372
 H85 H 0.12960 0.79028 -0.25762
 Cu86 Cu 0.23841 0.81237 -0.21724
 Cu87 Cu 0.18607 0.75968 -0.21351
 Cu88 Cu 0.24016 0.77005 -0.15166
 N89 N 0.27200 0.81462 -0.18500
 N90 N 0.27242 0.79802 -0.15936
 C91 C 0.29632 0.80543 -0.13968
 C92 C 0.31155 0.82806 -0.15357
 C93 C 0.29565 0.83332 -0.18253
 H94 H 0.30140 0.79588 -0.11634
 H95 H 0.29983 0.85018 -0.19976
 N96 N 0.21215 0.73715 -0.15323
 N97 N 0.19213 0.73261 -0.17721
 C98 C 0.17715 0.70803 -0.17154
 C99 C 0.18846 0.69668 -0.14255
 C100 C 0.21049 0.71567 -0.13168
 H101 H 0.15903 0.69944 -0.18704
 H102 H 0.22436 0.71386 -0.10965
 H103 H 0.20387 0.78664 -0.18157
 H104 H 0.23418 0.76268 -0.19934
 N105 N 0.15646 1.16386 0.74030
 N106 N 0.13264 1.18084 0.74725
 C107 C 0.11020 1.17982 0.72397
 C108 C 0.12050 1.16124 0.70117
 C109 C 0.15001 1.15141 0.71227
 H110 H 0.08752 1.19091 0.72414
 H111 H 0.16497 1.13541 0.70170
 Cu112 Cu 0.13169 1.20055 0.78748
 Cu113 Cu 0.19186 1.15695 0.77041
 Cu114 Cu 0.20275 1.21269 0.82233
 N115 N 0.13630 1.22643 0.82258
 N116 N 0.16416 1.23250 0.83507
 C117 C 0.16038 1.25291 0.85689
 C118 C 0.12834 1.25944 0.85831
 C119 C 0.11381 1.24217 0.83643
 H120 H 0.17940 1.26197 0.87088
 H121 H 0.08879 1.24181 0.83037
 N122 N 0.23544 1.18270 0.81566
 N123 N 0.23074 1.16116 0.79644
 C124 C 0.25476 1.14214 0.80048
 C125 C 0.27562 1.15202 0.82334
 C126 C 0.26279 1.17788 0.83245
 H127 H 0.25598 1.12167 0.78918
 H128 H 0.27121 1.19092 0.85174
 H129 H 0.17786 1.17682 0.81270
 H130 H 0.18826 1.19911 0.77714
 N131 N 0.81989 0.84586 0.77499
 N132 N 0.83895 0.82379 0.77132
 C133 C 0.85104 0.82510 0.74193
 C134 C 0.83878 0.84936 0.72645
 C135 C 0.81908 0.86198 0.74807
 H136 H 0.86778 0.80980 0.73276
 H137 H 0.80587 0.88185 0.74482
 Cu138 Cu 0.84730 0.79671 0.80625
 Cu139 Cu 0.79987 0.85289 0.81548
 Cu140 Cu 0.79129 0.79110 0.86131
 N141 N 0.85078 0.76843 0.84046
 N142 N 0.82828 0.76512 0.86126
 C143 C 0.83654 0.74321 0.88136
 C144 C 0.86606 0.73294 0.87286
 C145 C 0.87437 0.74947 0.84704
 H146 H 0.82277 0.73614 0.90132
 H147 H 0.89609 0.74776 0.83404
 N148 N 0.76502 0.82617 0.86660
 N149 N 0.77006 0.84998 0.85036
 C150 C 0.75157 0.87096 0.86138
 C151 C 0.73362 0.85993 0.88541
 C152 C 0.74255 0.83141 0.88823
 H153 H 0.75128 0.89281 0.85267
 H154 H 0.73459 0.81611 0.90575
 H155 H 0.82060 0.82258 0.84792
 H156 H 0.79251 0.81065 0.81606
 N157 N 0.16641 0.82890 1.23481
 N158 N 0.14360 0.81331 1.22301
 C159 C 0.11768 0.81648 1.24068
 C160 C 0.12472 0.83473 1.26512
 C161 C 0.15586 0.84226 1.26076
 H162 H 0.09526 0.80646 1.23599
 H163 H 0.16924 0.85742 1.27439
 Cu164 Cu 0.14982 0.79027 1.18582
 Cu165 Cu 0.20632 0.83364 1.21293
 Cu166 Cu 0.21678 0.79347 1.14509
 N167 N 0.16269 0.75979 1.15808
 N168 N 0.18866 0.76121 1.14160
 C169 C 0.19094 0.73805 1.12327
 C170 C 0.16525 0.72107 1.12902
 C171 C 0.14777 0.73555 1.15123
 H172 H 0.20986 0.73387 1.10700
 H173 H 0.12554 0.72934 1.16119
 N174 N 0.24799 0.82105 1.16040
 N175 N 0.24445 0.83577 1.18664
 C176 C 0.26897 0.85348 1.18987
 C177 C 0.28885 0.84971 1.16459
 C178 C 0.27489 0.82888 1.14639
 H179 H 0.27162 0.86890 1.20851
 H180 H 0.28310 0.82064 1.12412
 H181 H 0.18968 0.82418 1.16822
 H182 H 0.20689 0.79371 1.19251
 N183 N 0.80442 1.19650 1.25256
 N184 N 0.82838 1.21390 1.25118
 C185 C 0.85098 1.20523 1.27261
 C186 C 0.84060 1.18130 1.28848
 C187 C 0.81085 1.17632 1.27529
 H188 H 0.87360 1.21523 1.27610
 H189 H 0.79544 1.15894 1.28099
 Cu190 Cu 0.82820 1.24570 1.22084
 Cu191 Cu 0.76729 1.20106 1.22379
 Cu192 Cu 0.77869 1.24549 1.15793
 N193 N 0.82492 1.27825 1.19142
 N194 N 0.80496 1.27799 1.16684
 C195 C 0.80856 1.30157 1.14874
 C196 C 0.83212 1.31744 1.16257
 C197 C 0.84206 1.30210 1.18973
 H198 H 0.79599 1.30617 1.12634
 H199 H 0.86101 1.30732 1.20628
 N200 N 0.74440 1.21809 1.15994
 N201 N 0.73917 1.20175 1.18519
 C202 C 0.71388 1.18554 1.17875
 C203 C 0.70289 1.19220 1.14797
 C204 C 0.72275 1.21283 1.13688
 H205 H 0.70486 1.16953 1.19483
 H206 H 0.72166 1.22308 1.11351
 H207 H 0.79685 1.21306 1.18909
 H208 H 0.77234 1.24253 1.20550
 O209 O 0.51952 0.97382 0.96157
 O210 O 0.46086 0.98646 1.06114
 O211 O 0.55975 1.00403 1.04130
 O212 O 0.46276 0.97468 0.96097
 O213 O 0.52043 0.98680 1.06914
 O214 O 0.48159 0.99759 0.92079
 O215 O 0.45811 0.96546 1.01639
 O216 O 0.56058 0.99347 0.98372
 C217 C 0.54810 0.97230 0.97039
 C218 C 0.45466 0.96474 1.04558
 C219 C 0.54941 0.98765 1.06301
 C220 C 0.46140 0.97951 0.93111
 O221 O 0.48294 1.04448 0.95058
 O222 O 0.51882 1.04136 1.06823
 O223 O 0.54057 1.04974 0.97178
 O224 O 0.42983 1.01752 1.02397
 O225 O 0.46126 1.04252 1.05343
 O226 O 0.53479 1.02019 0.93600
 O227 O 0.43934 1.02855 0.96802
 O228 O 0.54042 1.05803 1.02622
 Co229 Co 0.50005 1.00902 0.95775
 Co230 Co 0.49080 1.01413 1.05749
 Co231 Co 0.54623 1.02508 1.00543
 Co232 Co 0.45180 0.99807 0.99342
 O233 O 0.49847 1.01275 1.00582
 C234 C 0.45383 1.04751 0.95325
 C235 C 0.53477 1.05986 1.05491
 C236 C 0.54754 1.04219 0.94470
 C237 C 0.43487 1.03923 1.04037
 O238 O 0.06010 0.48058 0.03851
 O239 O 0.03591 0.52159 -0.06874
 O240 O 0.01670 0.43711 -0.03047
 O241 O 0.05721 0.53294 0.03032
 O242 O 0.03669 0.46786 -0.06424
 O243 O 0.03774 0.51842 0.07474
 O244 O 0.06253 0.53242 -0.02643
 O245 O 0.03429 0.44277 0.02489
 C246 C 0.05975 0.45417 0.03436
 C247 C 0.06030 0.53141 -0.05595
 C248 C 0.03530 0.44303 -0.05282
 C249 C 0.05413 0.53718 0.05989
 O250 O -0.01656 0.51522 0.04914
 O251 O -0.02424 0.46853 -0.06228
 O252 O -0.02613 0.46416 0.03711
 O253 O 0.00311 0.55420 -0.03580
 O254 O -0.02536 0.52232 -0.05992
 O255 O 0.01091 0.46984 0.06964
 O256 O -0.00392 0.55217 0.02183
 O257 O -0.04120 0.45973 -0.01576
 Co258 Co 0.02168 0.49865 0.04190
 Co259 Co 0.00629 0.49528 -0.05826
 Co260 Co -0.00272 0.45435 0.00345
 Co261 Co 0.02816 0.53898 -0.00263
 O262 O 0.01209 0.49572 -0.00581
 C263 C -0.02203 0.54041 0.04097
 C264 C -0.04499 0.45863 -0.04494
 C265 C -0.01529 0.45950 0.06447
 C266 C -0.02132 0.54753 -0.05181
 O267 O 1.05215 -0.00725 0.46246
 O268 O 0.93399 0.01767 0.52535
 O269 O 0.96170 0.02698 0.44235
 O270 O 1.00689 0.02285 0.54194
 O271 O 0.92172 0.01204 0.46818
 O272 O 1.04886 0.00959 0.51808
 O273 O 0.96099 -0.00173 0.56403
 O274 O 1.01648 0.02256 0.44988
 C275 C 1.04474 0.01633 0.45076
 C276 C 0.94088 0.01646 0.55432
 C277 C 0.93331 0.02896 0.44869
 C278 C 1.03417 0.02803 0.53346
 O279 O 1.03690 -0.04495 0.53595
 O280 O 0.92599 -0.04242 0.47274
 O281 O 1.01330 -0.03545 0.43553
 O282 O 0.98235 -0.05090 0.54510
 O283 O 0.93391 -0.03976 0.53251
 O284 O 1.03059 -0.05678 0.47952
 O285 O 1.01958 -0.02125 0.57651
 O286 O 0.95529 -0.02894 0.43221
 Co287 Co 1.03668 -0.02336 0.49881
 Co288 Co 0.93430 -0.01316 0.49974
 Co289 Co 0.98715 -0.00459 0.44447
 Co290 Co 0.99487 -0.01383 0.54138
 O291 O 0.98553 -0.01271 0.49412
 C292 C 1.04119 -0.03820 0.56495
 C293 C 0.93381 -0.04420 0.44402
 C294 C 1.02529 -0.05718 0.45004
 C295 C 0.95384 -0.05674 0.54554
 C296 C 1.12332 0.14613 0.31951
 C297 C 1.13396 0.12102 0.33511
 C298 C 1.11552 0.10680 0.35983
 N299 N 1.12633 0.08180 0.37327
 N300 N 1.10887 0.06755 0.39397
 C301 C 1.07992 0.07779 0.40196
 N302 N 1.06926 0.10292 0.38879
 N303 N 1.08673 0.11718 0.36811
 C304 C 1.05916 0.06128 0.42260
 C305 C 1.06804 0.03470 0.43572
 H306 H 1.15555 0.11044 0.32798
 H307 H 1.03535 0.06952 0.42584
 H308 H 1.10238 0.15706 0.32785
 H309 H 1.09200 0.02652 0.43338
 C310 C 0.87415 -0.16819 0.29662
 C311 C 0.86052 -0.14821 0.31645
 C312 C 0.87923 -0.13047 0.33796
 N313 N 0.86444 -0.11567 0.36088
 N314 N 0.88061 -0.09830 0.37963
 C315 C 0.91213 -0.09483 0.37592
 N316 N 0.92694 -0.10952 0.35287
 N317 N 0.91079 -0.12711 0.33427
 C318 C 0.92980 -0.07492 0.39589
 C319 C 0.91748 -0.06494 0.42415
 H320 H 0.83503 -0.14520 0.31608
 H321 H 0.95299 -0.06840 0.38856
 H322 H 0.89925 -0.17321 0.29878
 H323 H 0.89543 -0.07327 0.43263
 C324 C 0.88765 0.12967 0.71325
 C325 C 0.87213 0.11230 0.69159
 C326 C 0.88935 0.09416 0.66939
 N327 N 0.87378 0.08323 0.64387
 N328 N 0.88890 0.06646 0.62375
 C329 C 0.92010 0.05977 0.62857
 N330 N 0.93563 0.07048 0.65426
 N331 N 0.92057 0.08748 0.67424
 C332 C 0.93686 0.04087 0.60676
 C333 C 0.92483 0.03563 0.57623
 H334 H 0.84650 0.11257 0.69016
 H335 H 0.95955 0.03163 0.61448
 H336 H 0.91319 0.13115 0.71296
 H337 H 0.90342 0.04668 0.56762
 C338 C 1.13296 -0.15324 0.71148
 C339 C 1.14292 -0.13114 0.69172
 C340 C 1.12067 -0.11301 0.67248
 N341 N 1.13121 -0.09811 0.64695
 N342 N 1.11146 -0.08140 0.62934
 C343 C 1.08051 -0.07867 0.63690
 N344 N 1.07004 -0.09327 0.66270
 N345 N 1.08972 -0.11025 0.68011
 C346 C 1.05848 -0.06047 0.61742
 C347 C 1.06425 -0.05407 0.58555
 H348 H 1.16799 -0.12766 0.68921
 H349 H 1.03626 -0.05384 0.62756
 H350 H 1.10814 -0.15853 0.71181
 H351 H 1.08492 -0.06319 0.57452
 C352 C 0.26935 1.11957 1.12021
 C353 C 0.28916 1.12935 1.09645
 C354 C 0.31072 1.10976 1.08036
 N355 N 0.33777 1.11967 1.06794
 N356 N 0.35878 1.10182 1.05554
 C357 C 0.35330 1.07344 1.05476
 N358 N 0.32583 1.06361 1.06636
 N359 N 0.30498 1.08143 1.07910
 C360 C 0.37757 1.05339 1.04375
 C361 C 0.40947 1.05985 1.04669
 H362 H 0.29139 1.15195 1.09177
 H363 H 0.37065 1.03228 1.03676
 H364 H 0.26911 1.09696 1.12587
 H365 H 0.41621 1.08008 1.05653
 C366 C 0.33570 0.84326 0.86100
 C367 C 0.34888 0.86752 0.84741
 C368 C 0.37069 0.88517 0.86602
 N369 N 0.38346 0.90868 0.85255
 N370 N 0.40207 0.92543 0.86981
 C371 C 0.40842 0.91926 0.90118
 N372 N 0.39574 0.89574 0.91455
 N373 N 0.37726 0.87901 0.89731
 C374 C 0.42774 0.93779 0.92121
 C375 C 0.44347 0.96135 0.90935
 H376 H 0.34213 0.87452 0.82338
 H377 H 0.42953 0.93257 0.94651
 H378 H 0.34355 0.83629 0.88477
 H379 H 0.44282 0.96644 0.88402
 C380 C 0.70503 0.86444 1.11477
 C381 C 0.68397 0.88136 1.13152
 C382 C 0.66230 0.90195 1.11507
 N383 N 0.63790 0.91373 1.13094
 N384 N 0.61824 0.93263 1.11634
 C385 C 0.62249 0.94061 1.08544
 N386 N 0.64707 0.92905 1.06967
 N387 N 0.66658 0.90999 1.08420
 C388 C 0.60103 0.96134 1.06899
 C389 C 0.57152 0.96847 1.08086
 H390 H 0.68284 0.87935 1.15724
 H391 H 0.60793 0.97000 1.04610
 H392 H 0.70424 0.86543 1.08890
 H393 H 0.56359 0.95827 1.10256
 C394 C 0.69534 1.15874 0.87149
 C395 C 0.68231 1.13240 0.86453
 C396 C 0.65580 1.12043 0.88213
 N397 N 0.64278 1.09582 0.87235
 N398 N 0.61951 1.08402 0.88848
 C399 C 0.60840 1.09633 0.91512
 N400 N 0.62137 1.12099 0.92491
 N401 N 0.64461 1.13286 0.90869
 C402 C 0.58372 1.08273 0.93400
 C403 C 0.56895 1.05801 0.92411
 H404 H 0.69174 1.11978 0.84555
 H405 H 0.57784 1.09181 0.95671
 H406 H 0.68471 1.17172 0.88957
 H407 H 0.57432 1.04916 0.90117
 C408 C 0.13490 0.30637 0.13625
 C409 C 0.15245 0.32591 0.11905
 C410 C 0.13619 0.34685 0.09749
 N411 N 0.14825 0.37308 0.09222
 N412 N 0.13254 0.39226 0.07355
 C413 C 0.10457 0.38558 0.05910
 N414 N 0.09300 0.35919 0.06387
 N415 N 0.10841 0.34023 0.08279
 C416 C 0.08534 0.40641 0.04016
 C417 C 0.08726 0.43581 0.04366
 H418 H 0.17799 0.32616 0.12188
 H419 H 0.06546 0.39802 0.02675
 H420 H 0.10931 0.30848 0.13580
 H421 H 0.10689 0.44477 0.05690
 C422 C -0.12427 0.31503 -0.14646
 C423 C -0.13780 0.33457 -0.12595
 C424 C -0.12149 0.36091 -0.11743
 N425 N -0.13023 0.37572 -0.09149
 N426 N -0.11449 0.39873 -0.08271
 C427 C -0.08963 0.40794 -0.09979
 N428 N -0.08131 0.39344 -0.12604
 N429 N -0.09689 0.37035 -0.13467
 C430 C -0.07012 0.43176 -0.08920
 C431 C -0.07143 0.44246 -0.05846
 H432 H -0.15975 0.32972 -0.11445
 H433 H -0.05128 0.43836 -0.10458
 H434 H -0.10133 0.31928 -0.15626
 H435 H -0.08941 0.43511 -0.04246
 C436 C 0.17886 0.67086 -0.12521
 C437 C 0.15830 0.65118 -0.13828
 C438 C 0.14679 0.62697 -0.11930
 N439 N 0.12685 0.60819 -0.13291
 N440 N 0.11480 0.58716 -0.11553
 C441 C 0.12228 0.58410 -0.08389
 N442 N 0.14248 0.60271 -0.07037
 N443 N 0.15457 0.62370 -0.08775
 C444 C 0.10659 0.56292 -0.06372
 C445 C 0.08377 0.54495 -0.07620
 H446 H 0.14968 0.65392 -0.16272
 H447 H 0.11047 0.56377 -0.03810
 H448 H 0.18817 0.66751 -0.10106
 H449 H 0.08005 0.54401 -0.10182
 C450 C -0.13330 0.69122 0.09972
 C451 C -0.12212 0.66556 0.11335
 C452 C -0.10723 0.64346 0.09413
 N453 N -0.09901 0.61779 0.10764
 N454 N -0.08393 0.59816 0.09090
 C455 C -0.07650 0.60355 0.06005
 N456 N -0.08490 0.62914 0.04649
 N457 N -0.10009 0.64871 0.06318
 C458 C -0.05701 0.58347 0.04231
 C459 C -0.04845 0.55649 0.05437
 H460 H -0.12396 0.66162 0.13878
 H461 H -0.04708 0.59105 0.02019
 H462 H -0.13317 0.69442 0.07406
 H463 H -0.05963 0.54795 0.07537
 C464 C 1.10153 0.15151 0.67371
 C465 C 1.11409 0.13414 0.65046
 C466 C 1.09388 0.12037 0.62645
 N467 N 1.10726 0.10427 0.60372
 N468 N 1.08928 0.08974 0.58348
 C469 C 1.05721 0.09073 0.58523
 N470 N 1.04381 0.10709 0.60773
 N471 N 1.06179 0.12170 0.62791
 C472 C 1.03733 0.07204 0.56576
 C473 C 1.05035 0.05383 0.54355
 H474 H 1.13927 0.12936 0.65069
 H475 H 1.01268 0.07012 0.57182
 H476 H 1.07663 0.15745 0.67247
 H477 H 1.07479 0.05616 0.53695
 C478 C 0.84611 -0.13904 0.69472
 C479 C 0.87235 -0.14822 0.67795
 C480 C 0.88176 -0.13351 0.64849
 N481 N 0.91156 -0.13712 0.63772
 N482 N 0.92104 -0.12229 0.61237
 C483 C 0.90093 -0.10352 0.59673
 N484 N 0.87096 -0.10039 0.60711
 N485 N 0.86155 -0.11506 0.63255
 C486 C 0.91157 -0.08495 0.57069
 C487 C 0.94349 -0.08146 0.56431
 H488 H 0.88790 -0.16486 0.68800
 H489 H 0.89396 -0.07100 0.55891
 H490 H 0.83174 -0.12120 0.68549
 H491 H 0.96135 -0.09491 0.57641
 C492 C 1.10237 -0.15424 0.28845
 C493 C 1.11250 -0.14283 0.31727
 C494 C 1.09033 -0.12932 0.33915
 N495 N 1.09957 -0.12457 0.36979
 N496 N 1.08041 -0.11085 0.38932
 C497 C 1.05136 -0.10118 0.37886
 N498 N 1.04212 -0.10594 0.34821
 N499 N 1.06116 -0.11991 0.32877
 C500 C 1.03156 -0.08324 0.39906
 C501 C 1.03723 -0.08140 0.43185
 H502 H 1.13741 -0.14387 0.32407
 H503 H 1.01373 -0.06946 0.38740
 H504 H 1.07726 -0.15558 0.28295
 H505 H 1.05347 -0.09648 0.44388
 C506 C 0.85925 0.16435 0.31246
 C507 C 0.84698 0.14162 0.32972
 C508 C 0.86706 0.12393 0.35189
 N509 N 0.85396 0.10363 0.37057
 N510 N 0.87209 0.08697 0.38999
 C511 C 0.90401 0.08997 0.39136
 N512 N 0.91709 0.11027 0.37270
 N513 N 0.89896 0.12698 0.35340
 C514 C 0.92465 0.07081 0.41127
 C515 C 0.91277 0.05083 0.43264
 H516 H 0.82222 0.13651 0.32684
 H517 H 0.94998 0.07188 0.40818
 H518 H 0.88371 0.17005 0.31650
 H519 H 0.88756 0.05032 0.43663
 C520 C 0.11204 0.28038 -0.12208
 C521 C 0.12646 0.30496 -0.11152
 C522 C 0.10798 0.32738 -0.09601
 N523 N 0.11771 0.35473 -0.09697
 N524 N 0.10015 0.37541 -0.08454
 C525 C 0.07237 0.36942 -0.07050
 N526 N 0.06298 0.34201 -0.06900
 N527 N 0.08036 0.32139 -0.08169
 C528 C 0.05237 0.39199 -0.05726
 C529 C 0.05550 0.42055 -0.06596
 H530 H 0.15075 0.30904 -0.11752
 H531 H 0.03375 0.38578 -0.04141
 H532 H 0.08692 0.27776 -0.11871
 H533 H 0.07297 0.42661 -0.08316
 C534 C -0.15460 0.34324 0.14827
 C535 C -0.12645 0.35507 0.15920
 C536 C -0.11089 0.37742 0.14057
 N537 N -0.08168 0.38632 0.14956
 N538 N -0.06656 0.40512 0.13156
 C539 C -0.08015 0.41567 0.10393
 N540 N -0.10946 0.40703 0.09518
 N541 N -0.12454 0.38827 0.11314
 C542 C -0.06324 0.43480 0.08245
 C543 C -0.03264 0.44392 0.08891
 H544 H -0.11437 0.34642 0.18045
 H545 H -0.07487 0.44080 0.05988
 H546 H -0.16626 0.35181 0.12674
 H547 H -0.02084 0.43868 0.11159
 C548 C -0.11361 0.71072 -0.11168
 C549 C -0.12537 0.68677 -0.09631
 C550 C -0.10359 0.66382 -0.08451
 N551 N -0.11352 0.63657 -0.08207
 N552 N -0.09329 0.61556 -0.07307
 C553 C -0.06249 0.62113 -0.06597
 N554 N -0.05277 0.64842 -0.06783
 N555 N -0.07287 0.66934 -0.07711
 C556 C -0.03959 0.59841 -0.05631
 C557 C -0.04476 0.56971 -0.06199
 H558 H -0.15068 0.68373 -0.09556
 H559 H -0.01730 0.60468 -0.04551
 H560 H -0.08838 0.71199 -0.11531
 H561 H -0.06634 0.56339 -0.07416
 C562 C 0.15771 0.69405 0.11352
 C563 C 0.13464 0.67612 0.12526
 C564 C 0.12487 0.65004 0.10918
 N565 N 0.10442 0.63240 0.12369
 N566 N 0.09418 0.60927 0.10915
 C567 C 0.10391 0.60291 0.07945
 N568 N 0.12443 0.62053 0.06491
 N569 N 0.13479 0.64366 0.07953
 C570 C 0.09127 0.57822 0.06253
 C571 C 0.07130 0.55908 0.07739
 H572 H 0.12305 0.68131 0.14718
 H573 H 0.09678 0.57571 0.03764
 H574 H 0.17072 0.68814 0.09265
 H575 H 0.06662 0.56106 0.10253
 C576 C 0.30145 1.13491 0.83879
 C577 C 0.32402 1.14582 0.85983
 C578 C 0.34541 1.12636 0.87862
 N579 N 0.37357 1.13529 0.89079
 N580 N 0.39253 1.11747 0.90809
 C581 C 0.38370 1.09026 0.91414
 N582 N 0.35546 1.08156 0.90229
 N583 N 0.33676 1.09918 0.88475
 C584 C 0.40333 1.07000 0.93354
 C585 C 0.43609 1.07171 0.93800
 H586 H 0.32573 1.16858 0.86280
 H587 H 0.39155 1.05122 0.94229
 H588 H 0.30208 1.11233 0.83399
 H589 H 0.44877 1.08929 0.92764
 C590 C 0.31692 0.86672 1.15765
 C591 C 0.33484 0.86274 1.13054
 C592 C 0.36023 0.88215 1.12146
 N593 N 0.37533 0.87834 1.09364
 N594 N 0.39708 0.89659 1.08411
 C595 C 0.40463 0.91933 1.10209
 N596 N 0.38979 0.92297 1.13010
 N597 N 0.36800 0.90473 1.13962
 C598 C 0.42676 0.94093 1.09067
 C599 C 0.43945 0.94001 1.06030
 H600 H 0.32925 0.84567 1.11453
 H601 H 0.43082 0.95929 1.10534
 H602 H 0.32278 0.88366 1.17378
 H603 H 0.43497 0.92186 1.04542
 C604 C 0.67729 1.17946 1.12899
 C605 C 0.65629 1.15996 1.14148
 C606 C 0.63274 1.14599 1.12090
 N607 N 0.61143 1.12824 1.13389
 N608 N 0.59098 1.11452 1.11531
 C609 C 0.59110 1.11803 1.08304
 N610 N 0.61230 1.13588 1.07007
 N611 N 0.63266 1.14967 1.08864
 C612 C 0.57060 1.10118 1.06206
 C613 C 0.54854 1.08248 1.07422
 H614 H 0.65742 1.15442 1.16669
 H615 H 0.57486 1.10178 1.03668
 H616 H 0.67519 1.18565 1.10397
 H617 H 0.54388 1.08228 1.09952
 C618 C 0.71230 0.87683 0.90504
 C619 C 0.68499 0.86622 0.91842
 C620 C 0.66287 0.88568 0.93425
 N621 N 0.63138 0.88042 0.93449
 N622 N 0.61111 0.89929 0.94652
 C623 C 0.62171 0.92394 0.95899
 N624 N 0.65323 0.92881 0.95941
 N625 N 0.67339 0.91013 0.94716
 C626 C 0.60001 0.94609 0.97053
 C627 C 0.56753 0.94683 0.96363
 H628 H 0.67838 0.84440 0.91442
 H629 H 0.61062 0.96396 0.98241
 H630 H 0.71668 0.89944 0.90621
 H631 H 0.55665 0.92944 0.95114
   
