data_POSCAR
  _audit_creation_date              2014-09-24
  _audit_creation_method            'ToBaCCo'
  _symmetry_space_group_name_H-M    'P1'
  _symmetry_Int_Tables_number       1
  _symmetry_cell_setting            triclinic
  loop_
  _symmetry_equiv_pos_as_xyz
 x,y,z
_cell_length_a 45.5046
_cell_length_b 45.3750
_cell_length_c 45.3125
_cell_angle_alpha 90.005900
_cell_angle_beta 89.990500
_cell_angle_gamma 90.012800
loop_
  _atom_site_label
  _atom_site_type_symbol
  _atom_site_fract_x
  _atom_site_fract_y
  _atom_site_fract_z
C1 C 0.20937 1.23206 0.18797
 C2 C 0.23100 1.21006 0.18852
 C3 C 0.23061 1.18877 0.21044
 C4 C 0.20858 1.18921 0.23208
 C5 C 0.18718 1.21095 0.23154
 C6 C 0.18759 1.23250 0.20936
 C7 C 0.20338 1.25447 0.16838
 N8 N 0.17865 1.26832 0.17755
 C9 C 0.16869 1.25518 0.20245
 C10 C 0.16775 1.20501 0.25407
 N11 N 0.17702 1.18034 0.26808
 C12 C 0.20183 1.17038 0.25493
 C13 C 0.25311 1.16935 0.20456
 N14 N 0.26697 1.17849 0.17976
 C15 C 0.25375 1.20325 0.16966
 H16 H 0.21561 1.25982 0.14858
 H17 H 0.14882 1.26119 0.21417
 H18 H 0.14798 1.21721 0.25939
 H19 H 0.21360 1.15055 0.26105
 H20 H 0.25853 1.14964 0.21689
 H21 H 0.25977 1.21491 0.14971
 C22 C 0.79301 0.76712 0.18764
 C23 C 0.77097 0.78871 0.18788
 C24 C 0.77102 0.81039 0.20942
 C25 C 0.79311 0.81075 0.23099
 C26 C 0.81491 0.78941 0.23075
 C27 C 0.81486 0.76748 0.20895
 C28 C 0.79938 0.74448 0.16842
 N29 N 0.82440 0.73128 0.17774
 C30 C 0.83418 0.74505 0.20237
 C31 C 0.83431 0.79612 0.25308
 N32 N 0.82464 0.82085 0.26670
 C33 C 0.79960 0.83011 0.25349
 C34 C 0.74814 0.82929 0.20325
 N35 N 0.73442 0.81945 0.17864
 C36 C 0.74808 0.79477 0.16895
 H37 H 0.78720 0.73854 0.14876
 H38 H 0.85419 0.73965 0.21413
 H39 H 0.85433 0.78439 0.25851
 H40 H 0.78749 0.84983 0.25930
 H41 H 0.74238 0.84911 0.21524
 H42 H 0.74227 0.78266 0.14920
 C43 C 0.79018 1.23072 -0.18685
 C44 C 0.76836 1.20890 -0.18664
 C45 C 0.76804 1.18737 -0.20832
 C46 C 0.78955 1.18739 -0.23049
 C47 C 0.81113 1.20897 -0.23071
 C48 C 0.81145 1.23076 -0.20876
 C49 C 0.79680 1.25330 -0.16766
 N50 N 0.82142 1.26686 -0.17756
 C51 C 0.83069 1.25337 -0.20255
 C52 C 0.82997 1.20261 -0.25364
 N53 N 0.82016 1.17786 -0.26714
 C54 C 0.79559 1.16825 -0.25328
 C55 C 0.74549 1.16823 -0.20170
 N56 N 0.73230 1.17778 -0.17668
 C57 C 0.74600 1.20251 -0.16718
 H58 H 0.78509 1.25896 -0.14763
 H59 H 0.85031 1.25910 -0.21481
 H60 H 0.84970 1.21459 -0.25958
 H61 H 0.78353 1.14843 -0.25887
 H62 H 0.73957 1.14845 -0.21369
 H63 H 0.74055 1.21446 -0.14722
 C64 C 0.20794 0.76987 -0.18887
 C65 C 0.22974 0.79171 -0.18858
 C66 C 0.22972 0.81362 -0.20989
 C67 C 0.20791 0.81396 -0.23173
 C68 C 0.18635 0.79236 -0.23203
 C69 C 0.18636 0.77019 -0.21047
 C70 C 0.20160 0.74692 -0.17001
 N71 N 0.17687 0.73352 -0.17981
 C72 C 0.16724 0.74745 -0.20441
 C73 C 0.16723 0.79905 -0.25463
 N74 N 0.17685 0.82403 -0.26785
 C75 C 0.20157 0.83345 -0.25414
 C76 C 0.25234 0.83267 -0.20327
 N77 N 0.26590 0.82271 -0.17862
 C78 C 0.25238 0.79779 -0.16935
 H79 H 0.21360 0.74090 -0.15026
 H80 H 0.14746 0.74192 -0.21650
 H81 H 0.14747 0.78712 -0.26053
 H82 H 0.21357 0.85334 -0.25960
 H83 H 0.25805 0.85266 -0.21500
 H84 H 0.25813 0.78551 -0.14969
 C85 C 0.54480 1.03906 -0.00707
 H86 H 0.54559 1.03904 0.01679
 C87 C 0.56455 1.05632 -0.02312
 H88 H 0.58057 1.06975 -0.01163
 C89 C 0.52345 1.02105 -0.05131
 H90 H 0.50780 1.00686 -0.06222
 C91 C 0.54283 1.03797 -0.06820
 H92 H 0.54187 1.03697 -0.09207
 N93 N 0.52464 1.02206 -0.02130
 C94 C 0.45514 1.00776 0.04343
 H95 H 0.45430 0.98393 0.04350
 C96 C 0.43544 1.02388 0.06070
 H97 H 0.41943 1.01247 0.07422
 C98 C 0.47648 1.05184 0.02514
 H99 H 0.49207 1.06266 0.01082
 C100 C 0.45715 1.06880 0.04206
 H101 H 0.45812 1.09263 0.04094
 Zn102 Zn 0.49982 0.99826 0.00228
 N103 N 0.47525 1.02188 0.02627
 C104 C 0.52351 0.97528 0.05574
 N105 N 0.52450 0.97422 0.02573
 C106 C 0.54444 0.95706 0.01139
 C107 C 0.56420 0.93972 0.02732
 C108 C 0.54292 0.95829 0.07252
 C109 C 0.45492 0.98928 -0.03870
 C110 C 0.43508 0.97343 -0.05604
 C111 C 0.45637 0.92823 -0.03763
 C112 C 0.47585 0.94493 -0.02063
 N113 N 0.47491 0.97491 -0.02163
 H114 H 0.50804 0.98960 0.06674
 H115 H 0.54507 0.95704 -0.01248
 H116 H 0.58007 0.92619 0.01573
 H117 H 0.54216 0.95936 0.09640
 H118 H 0.45433 1.01312 -0.03866
 H119 H 0.41920 0.98505 -0.06952
 H120 H 0.45712 0.90438 -0.03664
 H121 H 0.49137 0.93390 -0.00639
 C122 C 0.43645 1.05466 0.05995
 C123 C 0.56355 1.05573 -0.05395
 C124 C 0.43582 0.94264 -0.05546
 C125 C 0.56344 0.94039 0.05815
 C126 C -0.00807 0.54461 1.03888
 H127 H 0.01570 0.54542 1.03883
 C128 C -0.02403 0.56440 1.05619
 H129 H -0.01258 0.58047 1.06963
 C130 C -0.05213 0.52318 1.02090
 H131 H -0.06300 0.50748 1.00670
 C132 C -0.06893 0.54261 1.03786
 H133 H -0.09270 0.54163 1.03690
 N134 N -0.02224 0.52439 1.02187
 C135 C 0.04226 0.45479 1.00741
 H136 H 0.04230 0.45398 0.98355
 C137 C 0.05954 0.43510 1.02351
 H138 H 0.07305 0.41911 1.01206
 C139 C 0.02404 0.47610 1.05159
 H140 H 0.00975 0.49169 1.06246
 C141 C 0.04097 0.45677 1.06853
 H142 H 0.03988 0.45772 1.09240
 Zn143 Zn 0.00121 0.49955 0.99798
 N144 N 0.02513 0.47490 1.02159
 C145 C 0.05443 0.52337 0.97499
 N146 N 0.02455 0.52434 0.97391
 C147 C 0.01028 0.54435 0.95674
 C148 C 0.02616 0.56420 0.93941
 C149 C 0.07116 0.54286 0.95802
 C150 C -0.03954 0.45446 0.98903
 C151 C -0.05685 0.43459 0.97317
 C152 C -0.03874 0.45611 0.92789
 C153 C -0.02177 0.47562 0.94459
 N154 N -0.02263 0.47458 0.97461
 H155 H 0.06537 0.50785 0.98932
 H156 H -0.01349 0.54498 0.95671
 H157 H 0.01464 0.58013 0.92587
 H158 H 0.09493 0.54211 0.95910
 H159 H -0.03941 0.45380 1.01289
 H160 H -0.07021 0.41860 0.98482
 H161 H -0.03788 0.45695 0.90401
 H162 H -0.00766 0.49124 0.93353
 C163 C 0.05884 0.43610 1.05434
 C164 C -0.05473 0.56339 1.05564
 C165 C -0.05641 0.43543 0.94234
 C166 C 0.05686 0.56346 0.94011
 C167 C 1.03938 -0.00722 0.54514
 H168 H 1.03917 0.01661 0.54601
 C169 C 1.05658 -0.02317 0.56503
 H170 H 1.06978 -0.01164 0.58124
 C171 C 1.02190 -0.05147 0.52344
 H172 H 1.00794 -0.06243 0.50761
 C173 C 1.03877 -0.06826 0.54296
 H174 H 1.03796 -0.09210 0.54192
 N175 N 1.02267 -0.02150 0.52474
 C176 C 1.00820 0.04308 0.45495
 H177 H 0.98445 0.04286 0.45396
 C178 C 1.02421 0.06053 0.43530
 H179 H 1.01279 0.07391 0.41917
 C180 C 1.05222 0.02532 0.47666
 H181 H 1.06306 0.01115 0.49239
 C182 C 1.06906 0.04243 0.45739
 H183 H 1.09283 0.04160 0.45851
 Zn184 Zn 0.99887 0.00188 0.49975
 N185 N 1.02234 0.02610 0.47523
 C186 C 0.97539 0.05506 0.52342
 N187 N 0.97456 0.02508 0.52443
 C188 C 0.95747 0.01065 0.54441
 C189 C 0.93998 0.02645 0.56417
 C190 C 0.95824 0.07170 0.54282
 C191 C 0.99057 -0.03890 0.45441
 C192 C 0.97506 -0.05631 0.43435
 C193 C 0.92968 -0.03871 0.45577
 C194 C 0.94605 -0.02161 0.47546
 N195 N 0.97595 -0.02217 0.47456
 H196 H 0.98965 0.06613 0.50793
 H197 H 0.95764 -0.01319 0.54507
 H198 H 0.92651 0.01479 0.58007
 H199 H 0.95913 0.09555 0.54203
 H200 H 1.01434 -0.03852 0.45386
 H201 H 0.98686 -0.06950 0.41833
 H202 H 0.90589 -0.03808 0.45649
 H203 H 0.93482 -0.00765 0.49112
 C204 C 1.05490 0.06015 0.43653
 C205 C 1.05624 -0.05396 0.56393
 C206 C 0.94434 -0.05618 0.43504
 C207 C 0.94042 0.05724 0.56338
 C208 C 0.10650 0.37622 1.10209
 C209 C 0.09942 0.37077 1.13202
 C210 C 0.11502 0.34887 1.14809
 C211 C 0.13762 0.33258 1.13412
 C212 C 0.14502 0.33836 1.10432
 C213 C 0.12941 0.36024 1.08825
 C214 C 0.13710 0.36553 1.05845
 C215 C 0.15960 0.34967 1.04491
 C216 C 0.17487 0.32829 1.06062
 C217 C 0.16776 0.32260 1.08998
 C218 C 0.10746 0.34372 1.17794
 C219 C 0.08513 0.35975 1.19156
 C220 C 0.06988 0.38116 1.17586
 C221 C 0.07684 0.38670 1.14643
 C222 C 0.15281 0.30945 1.15016
 C223 C 0.16520 0.28995 1.16328
 C224 C 0.08984 0.39780 1.08536
 C225 C 0.07581 0.41542 1.07130
 H226 H 0.12587 0.38195 1.04532
 H227 H 0.16520 0.35401 1.02210
 H228 H 0.19234 0.31604 1.05000
 H229 H 0.18030 0.30578 1.10129
 H230 H 0.11871 0.32731 1.19108
 H231 H 0.07964 0.35554 1.21442
 H232 H 0.05256 0.39356 1.18654
 H233 H 0.06438 0.40359 1.13514
 C234 C -0.10188 0.62338 1.10378
 C235 C -0.13114 0.63030 1.09573
 C236 C -0.14690 0.65221 1.11163
 C237 C -0.13330 0.66705 1.13549
 C238 C -0.10419 0.65980 1.14383
 C239 C -0.08843 0.63791 1.12792
 C240 C -0.05931 0.63115 1.13657
 C241 C -0.04615 0.64558 1.16028
 C242 C -0.06156 0.66697 1.17584
 C243 C -0.09025 0.67410 1.16781
 C244 C -0.17607 0.65886 1.10310
 C245 C -0.18932 0.64425 1.07954
 C246 C -0.17393 0.62283 1.06400
 C247 C -0.14516 0.61584 1.07190
 C248 C -0.14898 0.69018 1.15107
 C249 C -0.16175 0.70966 1.16383
 C250 C -0.08542 0.60176 1.08689
 C251 C -0.07154 0.58411 1.07272
 H252 H -0.04644 0.61465 1.12516
 H253 H -0.02386 0.64012 1.16661
 H254 H -0.05123 0.67812 1.19425
 H255 H -0.10134 0.69088 1.18061
 H256 H -0.18895 0.67534 1.11453
 H257 H -0.21166 0.64959 1.07331
 H258 H -0.18432 0.61154 1.04572
 H259 H -0.13409 0.59900 1.05916
 C260 C -0.10462 0.37519 0.89555
 C261 C -0.12825 0.36035 0.90944
 C262 C -0.14416 0.33836 0.89381
 C263 C -0.13634 0.33134 0.86439
 C264 C -0.11299 0.34649 0.85036
 C265 C -0.09709 0.36849 0.86598
 C266 C -0.07378 0.38327 0.85153
 C267 C -0.06639 0.37651 0.82246
 C268 C -0.08193 0.35499 0.80718
 C269 C -0.10498 0.34008 0.82086
 C270 C -0.16762 0.32375 0.90820
 C271 C -0.17516 0.33066 0.93719
 C272 C -0.15959 0.35215 0.95248
 C273 C -0.13638 0.36689 0.93888
 C274 C -0.15190 0.30812 0.84882
 C275 C -0.16466 0.28856 0.83616
 C276 C -0.08771 0.39690 0.91188
 C277 C -0.07352 0.41463 0.92565
 H278 H -0.06106 0.40019 0.86248
 H279 H -0.04851 0.38803 0.81173
 H280 H -0.07610 0.34982 0.78461
 H281 H -0.11644 0.32354 0.80807
 H282 H -0.18041 0.30689 0.89722
 H283 H -0.19318 0.31928 0.94785
 H284 H -0.16553 0.35744 0.97500
 H285 H -0.12495 0.38345 0.95167
 C286 C 0.10378 0.62400 0.89240
 C287 C 0.09031 0.63865 0.86835
 C288 C 0.10594 0.66084 0.85273
 C289 C 0.13495 0.66827 0.86127
 C290 C 0.14859 0.65329 0.88500
 C291 C 0.13296 0.63108 0.90061
 C292 C 0.14702 0.61648 0.92434
 C293 C 0.17570 0.62362 0.93241
 C294 C 0.19098 0.64534 0.91715
 C295 C 0.17769 0.66008 0.89371
 C296 C 0.09198 0.67525 0.82884
 C297 C 0.06338 0.66794 0.82061
 C298 C 0.04809 0.64625 0.83589
 C299 C 0.06128 0.63171 0.85951
 C300 C 0.15047 0.69176 0.84607
 C301 C 0.16313 0.71156 0.83367
 C302 C 0.08739 0.60216 0.90908
 C303 C 0.07358 0.58434 0.92312
 H304 H 0.13604 0.59941 0.93685
 H305 H 0.18612 0.61223 0.95060
 H306 H 0.21325 0.65080 0.92351
 H307 H 0.19047 0.67679 0.88250
 H308 H 0.10298 0.69225 0.81625
 H309 H 0.05304 0.67917 0.80228
 H310 H 0.02589 0.64065 0.82941
 H311 H 0.04850 0.61497 0.87069
 C312 C 1.10237 0.10814 0.37662
 C313 C 1.13194 0.10058 0.37055
 C314 C 1.14785 0.11622 0.34855
 C315 C 1.13409 0.13934 0.33277
 C316 C 1.10468 0.14724 0.33920
 C317 C 1.08876 0.13159 0.36118
 C318 C 1.05933 0.13979 0.36712
 C319 C 1.04602 0.16282 0.35178
 C320 C 1.06158 0.17812 0.33030
 C321 C 1.09057 0.17052 0.32398
 C322 C 1.17734 0.10815 0.34277
 C323 C 1.19075 0.08531 0.35829
 C324 C 1.17520 0.07003 0.37981
 C325 C 1.14613 0.07747 0.38596
 C326 C 1.14994 0.15454 0.30949
 C327 C 1.16291 0.16691 0.28986
 C328 C 1.08574 0.09139 0.39823
 C329 C 1.07177 0.07726 0.41587
 H330 H 1.04633 0.12856 0.38365
 H331 H 1.02350 0.16881 0.35661
 H332 H 1.05114 0.19600 0.31845
 H333 H 1.10178 0.18310 0.30709
 H334 H 1.19035 0.11941 0.32625
 H335 H 1.21333 0.07944 0.35360
 H336 H 1.18572 0.05231 0.39182
 H337 H 1.13495 0.06496 0.40292
 C338 C 1.10392 -0.10132 0.62412
 C339 C 1.09622 -0.13089 0.63047
 C340 C 1.11192 -0.14680 0.65241
 C341 C 1.13524 -0.13306 0.66787
 C342 C 1.14324 -0.10365 0.66120
 C343 C 1.12753 -0.08773 0.63927
 C344 C 1.13584 -0.05830 0.63308
 C345 C 1.15903 -0.04500 0.64811
 C346 C 1.17440 -0.06057 0.66954
 C347 C 1.16669 -0.08956 0.67611
 C348 C 1.10373 -0.17629 0.65846
 C349 C 1.08070 -0.18968 0.64325
 C350 C 1.06536 -0.17412 0.62179
 C351 C 1.07293 -0.14506 0.61538
 C352 C 1.15059 -0.14894 0.69102
 C353 C 1.16316 -0.16190 0.71052
 C354 C 1.08723 -0.08472 0.60246
 C355 C 1.07319 -0.07078 0.58474
 H356 H 1.12457 -0.04529 0.61658
 H357 H 1.16511 -0.02248 0.64309
 H358 H 1.19240 -0.05013 0.68115
 H359 H 1.17932 -0.10076 0.69294
 H360 H 1.11503 -0.18930 0.67494
 H361 H 1.07474 -0.21225 0.64815
 H362 H 1.04750 -0.18463 0.61003
 H363 H 1.06036 -0.13387 0.59849
 C364 C 0.89854 -0.10464 0.37423
 C365 C 0.86742 -0.10469 0.37428
 C366 C 0.85181 -0.12068 0.35232
 C367 C 0.86742 -0.13655 0.33044
 C368 C 0.89854 -0.13679 0.33060
 C369 C 0.91414 -0.12079 0.35255
 C370 C 0.94525 -0.12128 0.35218
 C371 C 0.96050 -0.13713 0.33076
 C372 C 0.94525 -0.15279 0.30930
 C373 C 0.91462 -0.15270 0.30911
 C374 C 0.82071 -0.12031 0.35277
 C375 C 0.80546 -0.10460 0.37431
 C376 C 0.82072 -0.08897 0.39578
 C377 C 0.85135 -0.08893 0.39588
 C378 C 0.85153 -0.15223 0.30750
 C379 C 0.83862 -0.16510 0.28817
 C380 C 0.91452 -0.08765 0.39613
 C381 C 0.92800 -0.07338 0.41403
 H382 H 0.95811 -0.10947 0.36843
 H383 H 0.98429 -0.13727 0.33081
 H384 H 0.95720 -0.16507 0.29271
 H385 H 0.90375 -0.16524 0.29198
 H386 H 0.80787 -0.13215 0.33653
 H387 H 0.78167 -0.10457 0.37434
 H388 H 0.80877 -0.07681 0.41247
 H389 H 0.86224 -0.07646 0.41305
 C390 C 0.89241 0.10418 0.62368
 C391 C 0.89969 0.13392 0.62975
 C392 C 0.88405 0.14967 0.65188
 C393 C 0.86123 0.13559 0.66778
 C394 C 0.85362 0.10602 0.66134
 C395 C 0.86926 0.09027 0.63924
 C396 C 0.86135 0.06068 0.63330
 C397 C 0.83862 0.04705 0.64875
 C398 C 0.82332 0.06245 0.67035
 C399 C 0.83064 0.09160 0.67668
 C400 C 0.89182 0.17932 0.65766
 C401 C 0.91436 0.19303 0.64202
 C402 C 0.92964 0.17764 0.62038
 C403 C 0.92249 0.14842 0.61423
 C404 C 0.84605 0.15127 0.69119
 C405 C 0.83365 0.16403 0.71094
 C406 C 0.90915 0.08773 0.60193
 C407 C 0.92329 0.07391 0.58418
 H408 H 0.87259 0.04779 0.61668
 H409 H 0.83284 0.02441 0.64391
 H410 H 0.80567 0.05177 0.68228
 H411 H 0.81807 0.10267 0.69366
 H412 H 0.88055 0.19221 0.67426
 H413 H 0.92001 0.21573 0.64671
 H414 H 0.94713 0.18840 0.60829
 H415 H 0.93498 0.13737 0.59718
 C416 C 0.37647 1.10247 0.10737
 C417 C 0.36080 1.08888 0.13069
 C418 C 0.33886 1.10494 0.14619
 C419 C 0.33271 1.13449 0.13826
 C420 C 0.34870 1.14822 0.11526
 C421 C 0.37066 1.13217 0.09977
 C422 C 0.38628 1.14633 0.07678
 C423 C 0.38039 1.17553 0.06930
 C424 C 0.35892 1.19122 0.08443
 C425 C 0.34318 1.17784 0.10716
 C426 C 0.32340 1.09084 0.16935
 C427 C 0.32945 1.06172 0.17698
 C428 C 0.35089 1.04602 0.16181
 C429 C 0.36645 1.05932 0.13891
 C430 C 0.30950 1.15050 0.15333
 C431 C 0.28994 1.16355 0.16563
 C432 C 0.39809 1.08571 0.09082
 C433 C 0.41575 1.07164 0.07686
 H434 H 0.40321 1.13505 0.06438
 H435 H 0.39256 1.18603 0.05166
 H436 H 0.35443 1.21390 0.07854
 H437 H 0.32672 1.19096 0.11831
 H438 H 0.30655 1.10216 0.18181
 H439 H 0.31744 1.05129 0.19475
 H440 H 0.35551 1.02340 0.16782
 H441 H 0.38294 1.04620 0.12779
 C442 C 0.62339 1.10374 -0.10137
 C443 C 0.63914 1.12675 -0.08738
 C444 C 0.66099 1.14255 -0.10327
 C445 C 0.66697 1.13524 -0.13306
 C446 C 0.65090 1.11253 -0.14718
 C447 C 0.62904 1.09674 -0.13129
 C448 C 0.61333 1.07407 -0.14584
 C449 C 0.61906 1.06719 -0.17526
 C450 C 0.64044 1.08262 -0.19079
 C451 C 0.65626 1.10505 -0.17703
 C452 C 0.67652 1.16539 -0.08879
 C453 C 0.67063 1.17242 -0.05944
 C454 C 0.64928 1.15697 -0.04390
 C455 C 0.63365 1.13437 -0.05759
 C456 C 0.69005 1.15065 -0.14893
 C457 C 0.70948 1.16327 -0.16187
 C458 C 0.60183 1.08691 -0.08480
 C459 C 0.58422 1.07277 -0.07084
 H460 H 0.59647 1.06146 -0.13469
 H461 H 0.60683 1.04980 -0.18606
 H462 H 0.64481 1.07719 -0.21364
 H463 H 0.67265 1.11644 -0.19003
 H464 H 0.69332 1.17807 -0.09996
 H465 H 0.68271 1.18996 -0.04871
 H466 H 0.64479 1.16251 -0.02110
 H467 H 0.61723 1.12300 -0.04458
 C468 C 0.37564 0.89599 -0.10379
 C469 C 0.36091 0.90989 -0.12753
 C470 C 0.33892 0.89436 -0.14349
 C471 C 0.33176 0.86503 -0.13559
 C472 C 0.34680 0.85098 -0.11214
 C473 C 0.36882 0.86650 -0.09620
 C474 C 0.38349 0.85203 -0.07278
 C475 C 0.37661 0.82304 -0.06532
 C476 C 0.35508 0.80787 -0.08090
 C477 C 0.34027 0.82156 -0.10406
 C478 C 0.32442 0.90876 -0.16707
 C479 C 0.33147 0.93767 -0.17468
 C480 C 0.35297 0.95285 -0.15908
 C481 C 0.36759 0.93924 -0.13575
 C482 C 0.30850 0.84959 -0.15116
 C483 C 0.28891 0.83704 -0.16393
 C484 C 0.39733 0.91223 -0.08682
 C485 C 0.41505 0.92596 -0.07259
 H486 H 0.40042 0.86291 -0.06003
 H487 H 0.38805 0.81230 -0.04736
 H488 H 0.34982 0.78535 -0.07503
 H489 H 0.32372 0.80885 -0.11554
 H490 H 0.30756 0.89786 -0.17989
 H491 H 0.32018 0.94834 -0.19279
 H492 H 0.35836 0.97530 -0.16507
 H493 H 0.38416 0.95195 -0.12430
 C494 C 0.62379 0.89255 0.10505
 C495 C 0.63024 0.90004 0.13468
 C496 C 0.65241 0.88440 0.15028
 C497 C 0.66797 0.86135 0.13615
 C498 C 0.66116 0.85352 0.10668
 C499 C 0.63901 0.86918 0.09108
 C500 C 0.63270 0.86106 0.06159
 C501 C 0.64781 0.83811 0.04791
 C502 C 0.66946 0.82280 0.06316
 C503 C 0.67615 0.83032 0.09221
 C504 C 0.65858 0.89238 0.17984
 C505 C 0.64327 0.91515 0.19360
 C506 C 0.62160 0.93044 0.17836
 C507 C 0.61507 0.92307 0.14923
 C508 C 0.69142 0.84614 0.15165
 C509 C 0.71119 0.83372 0.16425
 C510 C 0.60200 0.90930 0.08871
 C511 C 0.58424 0.92339 0.07491
 H512 H 0.61602 0.87230 0.04881
 H513 H 0.64269 0.83218 0.02534
 H514 H 0.68113 0.80498 0.05244
 H515 H 0.69315 0.81773 0.10317
 H516 H 0.67523 0.88111 0.19261
 H517 H 0.64826 0.92096 0.21623
 H518 H 0.60977 0.94811 0.18916
 H519 H 0.59800 0.93559 0.13830
   
