data_POSCAR
  _audit_creation_date              2014-09-24
  _audit_creation_method            'ToBaCCo'
  _symmetry_space_group_name_H-M    'P1'
  _symmetry_Int_Tables_number       1
  _symmetry_cell_setting            triclinic
  loop_
  _symmetry_equiv_pos_as_xyz
 x,y,z
_cell_length_a 61.8971
_cell_length_b 61.8920
_cell_length_c 61.8844
_cell_angle_alpha 89.869100
_cell_angle_beta 90.011600
_cell_angle_gamma 90.014700
loop_
  _atom_site_label
  _atom_site_type_symbol
  _atom_site_fract_x
  _atom_site_fract_y
  _atom_site_fract_z
O1 O 0.34098 0.37103 0.02033
 O2 O 0.37130 0.34223 -0.02198
 O3 O 0.34166 0.37204 -0.02172
 O4 O 0.37078 0.34114 0.02007
 O5 O 0.34546 0.31595 0.01914
 O6 O 0.31635 0.34683 -0.02262
 O7 O 0.34596 0.31704 -0.02288
 O8 O 0.31568 0.34581 0.01939
 Cu9 Cu 0.35874 0.35915 -0.00069
 Cu10 Cu 0.32831 0.32887 -0.00180
 C11 C 0.32315 0.36333 0.02691
 C12 C 0.36373 0.32477 -0.02958
 C13 C 0.32409 0.36464 -0.02924
 C14 C 0.36310 0.32327 0.02658
 O15 O 0.65777 0.62836 0.02080
 O16 O 0.62914 0.65735 -0.02264
 O17 O 0.65901 0.62766 -0.02125
 O18 O 0.62819 0.65833 0.01940
 O19 O 0.65354 0.68352 0.01946
 O20 O 0.68428 0.65291 -0.02112
 O21 O 0.65445 0.68259 -0.02254
 O22 O 0.68309 0.65358 0.02090
 Cu23 Cu 0.64097 0.64038 -0.00093
 Cu24 Cu 0.67139 0.67069 -0.00081
 C25 C 0.67528 0.63605 0.02815
 C26 C 0.63693 0.67489 -0.02988
 C27 C 0.67688 0.63510 -0.02801
 C28 C 0.63566 0.67614 0.02625
 O29 O 0.65748 0.37182 0.97893
 O30 O 0.62875 0.34290 1.02236
 O31 O 0.65870 0.37250 1.02098
 O32 O 0.62777 0.34197 0.98031
 O33 O 0.65301 0.31669 0.98023
 O34 O 0.68388 0.34716 1.02084
 O35 O 0.65396 0.31758 1.02224
 O36 O 0.68270 0.34651 0.97883
 Cu37 Cu 0.64063 0.35985 1.00066
 Cu38 Cu 0.67093 0.32943 1.00053
 C39 C 0.67496 0.36407 0.97159
 C40 C 0.63647 0.32533 1.02959
 C41 C 0.67655 0.36499 1.02774
 C42 C 0.63517 0.32414 0.97345
 O43 O 0.37143 0.65793 1.02225
 O44 O 0.34060 0.62917 0.98023
 O45 O 0.37061 0.65889 0.98019
 O46 O 0.34162 0.62825 1.02227
 O47 O 0.31647 0.65360 1.02329
 O48 O 0.34545 0.68422 0.98123
 O49 O 0.31546 0.65454 0.98129
 O50 O 0.34625 0.68325 1.02325
 Cu51 Cu 0.35861 0.64101 1.00109
 Cu52 Cu 0.32838 0.67146 1.00233
 C53 C 0.36402 0.67545 1.02985
 C54 C 0.32276 0.63694 0.97377
 C55 C 0.36298 0.67678 0.97369
 C56 C 0.32415 0.63577 1.02989
 O57 O -0.02127 0.37461 0.34482
 O58 O 0.02070 0.34469 0.37474
 O59 O 0.02085 0.37457 0.34500
 O60 O -0.02142 0.34474 0.37457
 O61 O -0.02132 0.31958 0.34926
 O62 O 0.02088 0.34937 0.31973
 O63 O 0.02074 0.31952 0.34943
 O64 O -0.02118 0.34940 0.31954
 Cu65 Cu -0.00029 0.36220 0.36234
 Cu66 Cu -0.00021 0.33193 0.33194
 C67 C -0.02831 0.36704 0.32712
 C68 C 0.02779 0.32705 0.36712
 C69 C 0.02799 0.36699 0.32736
 C70 C -0.02850 0.32711 0.36690
 O71 O 0.02082 0.65503 0.62505
 O72 O -0.02116 0.62521 0.65505
 O73 O -0.02130 0.65501 0.62523
 O74 O 0.02095 0.62523 0.65488
 O75 O 0.02102 0.65050 0.68009
 O76 O -0.02117 0.68023 0.65047
 O77 O -0.02104 0.65048 0.68026
 O78 O 0.02089 0.68026 0.65030
 Cu79 Cu -0.00018 0.63757 0.63750
 Cu80 Cu -0.00006 0.66791 0.66782
 C81 C 0.02794 0.67269 0.63262
 C82 C -0.02818 0.63282 0.67273
 C83 C -0.02836 0.67265 0.63286
 C84 C 0.02810 0.63286 0.67250
 O85 O 1.02082 0.63179 0.33840
 O86 O 0.97911 0.66176 0.36839
 O87 O 0.97882 0.63205 0.33854
 O88 O 1.02111 0.66151 0.36823
 O89 O 1.02117 0.68685 0.34298
 O90 O 0.97889 0.65740 0.31330
 O91 O 0.97918 0.68711 0.34314
 O92 O 1.02088 0.65714 0.31315
 Cu93 Cu 0.99996 0.64422 0.35594
 Cu94 Cu 1.00004 0.67468 0.32560
 C95 C 1.02782 0.63936 0.32066
 C96 C 0.97219 0.67955 0.36088
 C97 C 0.97180 0.63970 0.32086
 C98 C 1.02821 0.67921 0.36067
 O99 O 0.97934 0.33798 0.63171
 O100 O 1.02114 0.36787 0.66171
 O101 O 1.02134 0.33815 0.63187
 O102 O 0.97913 0.36769 0.66157
 O103 O 0.97916 0.34233 0.68681
 O104 O 1.02136 0.31281 0.65712
 O105 O 1.02116 0.34252 0.68695
 O106 O 0.97937 0.31262 0.65695
 Cu107 Cu 1.00023 0.35548 0.64417
 Cu108 Cu 1.00026 0.32501 0.67450
 C109 C 0.97238 0.32020 0.63921
 C110 C 1.02813 0.36028 0.67944
 C111 C 1.02840 0.32044 0.63943
 C112 C 0.97210 0.36004 0.67926
 O113 O 0.37112 0.02201 0.34252
 O114 O 0.34247 -0.02151 0.37139
 O115 O 0.37224 -0.02002 0.34159
 O116 O 0.34111 0.02053 0.37206
 O117 O 0.31598 0.02029 0.34665
 O118 O 0.34704 -0.02020 0.31625
 O119 O 0.31731 -0.02171 0.34602
 O120 O 0.34596 0.02181 0.31714
 Cu121 Cu 0.35927 0.00027 0.35945
 Cu122 Cu 0.32903 0.00003 0.32896
 C123 C 0.36341 0.02921 0.32493
 C124 C 0.32503 -0.02892 0.36361
 C125 C 0.36490 -0.02691 0.32374
 C126 C 0.32325 0.02722 0.36450
 O127 O 0.65863 -0.02038 0.62905
 O128 O 0.62832 0.02201 0.65776
 O129 O 0.65804 0.02166 0.62802
 O130 O 0.62869 -0.02004 0.65882
 O131 O 0.65393 -0.01919 0.68411
 O132 O 0.68327 0.02249 0.65331
 O133 O 0.65358 0.02283 0.68303
 O134 O 0.68384 -0.01952 0.65436
 Cu135 Cu 0.64087 0.00068 0.64086
 Cu136 Cu 0.67120 0.00170 0.67125
 C137 C 0.67642 -0.02702 0.63680
 C138 C 0.63586 0.02958 0.67524
 C139 C 0.67561 0.02912 0.63548
 C140 C 0.63629 -0.02656 0.67672
 O141 O 0.37097 0.97786 0.65746
 O142 O 0.34230 1.02127 0.62848
 O143 O 0.37201 1.01990 0.65833
 O144 O 0.34102 0.97923 0.62785
 O145 O 0.31584 0.97944 0.65320
 O146 O 0.34677 1.02004 0.68362
 O147 O 0.31708 1.02145 0.65379
 O148 O 0.34576 0.97804 0.68278
 Cu149 Cu 0.35912 0.99955 0.64048
 Cu150 Cu 0.32882 0.99976 0.67090
 C151 C 0.36324 0.97065 0.67504
 C152 C 0.32483 1.02865 0.63621
 C153 C 0.36462 1.02679 0.67615
 C154 C 0.32317 0.97252 0.63538
 O155 O 0.62919 0.97869 0.34211
 O156 O 0.65953 1.02093 0.37107
 O157 O 0.62969 1.02075 0.34118
 O158 O 0.65878 0.97888 0.37201
 O159 O 0.68411 0.97804 0.34682
 O160 O 0.65503 1.01989 0.31601
 O161 O 0.68483 1.02006 0.34588
 O162 O 0.65455 0.97787 0.31695
 Cu163 Cu 0.64174 0.99994 0.35914
 Cu164 Cu 0.67218 0.99892 0.32888
 C165 C 0.63677 0.97115 0.32464
 C166 C 0.67737 1.02754 0.36342
 C167 C 0.63739 1.02730 0.32334
 C168 C 0.67635 0.97139 0.36461
 C169 C 0.81296 0.81245 0.51266
 C170 C 0.81312 0.81257 0.49063
 C171 C 0.82860 0.79924 0.47807
 C172 C 0.79825 0.82655 0.47794
 C173 C 0.79963 0.82796 0.52520
 C174 C 0.82661 0.79725 0.52531
 C175 C 0.85098 0.80099 0.48155
 C176 C 0.86539 0.78846 0.46952
 C177 C 0.85761 0.77424 0.45377
 C178 C 0.83536 0.77264 0.45003
 C179 C 0.82093 0.78514 0.46206
 C180 C 0.80672 0.84082 0.46243
 C181 C 0.79304 0.85446 0.45075
 C182 C 0.77072 0.85389 0.45433
 C183 C 0.76209 0.83941 0.46947
 C184 C 0.77578 0.82571 0.48115
 C185 C 0.78508 0.82030 0.54084
 C186 C 0.77230 0.83475 0.55255
 C187 C 0.77408 0.85701 0.54887
 C188 C 0.78885 0.86478 0.53358
 C189 C 0.80165 0.85035 0.52187
 C190 C 0.82562 0.77484 0.52173
 C191 C 0.83924 0.76084 0.53313
 C192 C 0.85379 0.76908 0.54836
 C193 C 0.85444 0.79132 0.55239
 C194 C 0.84086 0.80532 0.54099
 H195 H 0.85725 0.81210 0.49350
 H196 H 0.88259 0.78992 0.47245
 H197 H 0.82917 0.76175 0.43783
 H198 H 0.80375 0.78371 0.45903
 H199 H 0.82398 0.84164 0.45965
 H200 H 0.79987 0.86558 0.43906
 H201 H 0.76890 0.81456 0.49277
 H202 H 0.78343 0.80311 0.54376
 H203 H 0.76098 0.82857 0.56441
 H204 H 0.79045 0.88198 0.53069
 H205 H 0.81310 0.85661 0.51021
 H206 H 0.81447 0.76825 0.50997
 H207 H 0.83856 0.74365 0.52994
 H208 H 0.86561 0.79786 0.56416
 H209 H 0.84180 0.82252 0.54406
 H210 H 0.74483 0.83878 0.47230
 C211 C 0.18708 0.18756 0.51155
 C212 C 0.18701 0.18736 0.48951
 C213 C 0.17324 0.20238 0.47677
 C214 C 0.20023 0.17167 0.47708
 C215 C 0.20209 0.17379 0.52430
 C216 C 0.17167 0.20102 0.52405
 C217 C 0.15890 0.19409 0.46128
 C218 C 0.14527 0.20793 0.44975
 C219 C 0.14594 0.23023 0.45345
 C220 C 0.16056 0.23867 0.46850
 C221 C 0.17423 0.22484 0.48004
 C222 C 0.19829 0.14934 0.48077
 C223 C 0.21098 0.13475 0.46914
 C224 C 0.22555 0.14231 0.45356
 C225 C 0.22726 0.16452 0.44953
 C226 C 0.21459 0.17912 0.46116
 C227 C 0.22453 0.17460 0.52084
 C228 C 0.23836 0.16109 0.53259
 C229 C 0.22991 0.14684 0.54803
 C230 C 0.20763 0.14631 0.55186
 C231 C 0.19381 0.15976 0.54013
 C232 C 0.17944 0.21539 0.53977
 C233 C 0.16507 0.22804 0.55171
 C234 C 0.14280 0.22633 0.54818
 C235 C 0.13492 0.21183 0.53273
 C236 C 0.14927 0.19915 0.52079
 H237 H 0.15795 0.17685 0.45845
 H238 H 0.13405 0.20123 0.43811
 H239 H 0.16127 0.25591 0.47143
 H240 H 0.18545 0.23159 0.49163
 H241 H 0.18698 0.14324 0.49266
 H242 H 0.20943 0.11759 0.47230
 H243 H 0.21618 0.19627 0.45797
 H244 H 0.23128 0.18557 0.50898
 H245 H 0.25558 0.16168 0.52955
 H246 H 0.20093 0.13536 0.56379
 H247 H 0.17658 0.15896 0.54311
 H248 H 0.19663 0.21692 0.54263
 H249 H 0.17133 0.23915 0.56369
 H250 H 0.11771 0.21027 0.52997
 H251 H 0.14293 0.18783 0.50907
 H252 H 0.23842 0.17053 0.43744
 C253 C 0.18742 0.81191 0.48814
 C254 C 0.18738 0.81209 0.51017
 C255 C 0.17360 0.79707 0.52292
 C256 C 0.20060 0.82777 0.52261
 C257 C 0.20243 0.82568 0.47538
 C258 C 0.17197 0.79846 0.47565
 C259 C 0.15927 0.80536 0.53841
 C260 C 0.14562 0.79153 0.54992
 C261 C 0.14626 0.76924 0.54621
 C262 C 0.16087 0.76078 0.53116
 C263 C 0.17456 0.77461 0.51964
 C264 C 0.19862 0.85011 0.51894
 C265 C 0.21129 0.86471 0.53059
 C266 C 0.22588 0.85716 0.54616
 C267 C 0.22763 0.83496 0.55016
 C268 C 0.21499 0.82033 0.53851
 C269 C 0.22487 0.82490 0.47883
 C270 C 0.23868 0.83842 0.46709
 C271 C 0.23022 0.85267 0.45164
 C272 C 0.20793 0.85318 0.44782
 C273 C 0.19412 0.83971 0.45956
 C274 C 0.17969 0.78408 0.45994
 C275 C 0.16528 0.77143 0.44803
 C276 C 0.14302 0.77317 0.45160
 C277 C 0.13520 0.78770 0.46704
 C278 C 0.14959 0.80037 0.47894
 H279 H 0.15834 0.82260 0.54124
 H280 H 0.13441 0.79824 0.56155
 H281 H 0.16156 0.74355 0.52822
 H282 H 0.18577 0.76785 0.50804
 H283 H 0.18729 0.85620 0.50706
 H284 H 0.20970 0.88187 0.52745
 H285 H 0.21661 0.80319 0.54168
 H286 H 0.23163 0.81393 0.49069
 H287 H 0.25591 0.83785 0.47011
 H288 H 0.20122 0.86412 0.43590
 H289 H 0.17689 0.84049 0.45658
 H290 H 0.19688 0.78252 0.45706
 H291 H 0.17150 0.76030 0.43606
 H292 H 0.11799 0.78928 0.46982
 H293 H 0.14329 0.81171 0.49066
 H294 H 0.23881 0.82895 0.56224
 C295 C 0.81303 0.18727 0.48734
 C296 C 0.81318 0.18721 0.50938
 C297 C 0.82868 0.20056 0.52192
 C298 C 0.79827 0.17329 0.52208
 C299 C 0.79969 0.17173 0.47483
 C300 C 0.82667 0.20246 0.47467
 C301 C 0.85106 0.19880 0.51845
 C302 C 0.86548 0.21134 0.53047
 C303 C 0.85772 0.22558 0.54621
 C304 C 0.83547 0.22718 0.54994
 C305 C 0.82103 0.21467 0.53792
 C306 C 0.80668 0.15906 0.53765
 C307 C 0.79295 0.14548 0.54935
 C308 C 0.77063 0.14609 0.54573
 C309 C 0.76206 0.16054 0.53054
 C310 C 0.77580 0.17417 0.51884
 C311 C 0.78518 0.17936 0.45912
 C312 C 0.77242 0.16488 0.44741
 C313 C 0.77416 0.14263 0.45116
 C314 C 0.78888 0.13490 0.46653
 C315 C 0.80167 0.14935 0.47823
 C316 C 0.82568 0.22487 0.47821
 C317 C 0.83928 0.23886 0.46678
 C318 C 0.85382 0.23061 0.45155
 C319 C 0.85447 0.20836 0.44756
 C320 C 0.84091 0.19437 0.45899
 H321 H 0.85731 0.18768 0.50651
 H322 H 0.88268 0.20987 0.52754
 H323 H 0.82929 0.23808 0.56214
 H324 H 0.80385 0.21612 0.54095
 H325 H 0.82394 0.15820 0.54046
 H326 H 0.79974 0.13438 0.56109
 H327 H 0.76896 0.18531 0.50718
 H328 H 0.78356 0.19654 0.45615
 H329 H 0.76114 0.17103 0.43550
 H330 H 0.79046 0.11770 0.46946
 H331 H 0.81308 0.14312 0.48994
 H332 H 0.81454 0.23147 0.48996
 H333 H 0.83859 0.25606 0.46993
 H334 H 0.86563 0.20181 0.43579
 H335 H 0.84186 0.17717 0.45596
 H336 H 0.74481 0.16120 0.52768
 C337 C 0.51068 0.81247 0.81227
 C338 C 0.48865 0.81209 0.81257
 C339 C 0.47560 0.82572 0.79769
 C340 C 0.47648 0.79855 0.82826
 C341 C 0.52375 0.79759 0.82589
 C342 C 0.52284 0.82822 0.79879
 C343 C 0.45983 0.83965 0.80614
 C344 C 0.44787 0.85302 0.79242
 C345 C 0.45142 0.85252 0.77009
 C346 C 0.46680 0.83836 0.76149
 C347 C 0.47876 0.82492 0.77520
 C348 C 0.48013 0.80044 0.85060
 C349 C 0.46847 0.78771 0.86520
 C350 C 0.45291 0.77314 0.85765
 C351 C 0.44899 0.77140 0.83543
 C352 C 0.46065 0.78411 0.82082
 C353 C 0.52065 0.77510 0.82502
 C354 C 0.53269 0.76139 0.83839
 C355 C 0.54808 0.77001 0.85256
 C356 C 0.55154 0.79234 0.85314
 C357 C 0.53951 0.80606 0.83983
 C358 C 0.53869 0.82085 0.78434
 C359 C 0.55030 0.83553 0.77166
 C360 C 0.54630 0.85772 0.77342
 C361 C 0.53073 0.86519 0.78801
 C362 C 0.51913 0.85054 0.80072
 H363 H 0.45708 0.84044 0.82340
 H364 H 0.43599 0.86391 0.79925
 H365 H 0.46962 0.83779 0.74422
 H366 H 0.49058 0.81402 0.76833
 H367 H 0.49194 0.81181 0.85669
 H368 H 0.47154 0.78929 0.88236
 H369 H 0.45749 0.78255 0.80368
 H370 H 0.50885 0.76822 0.81411
 H371 H 0.52993 0.74412 0.83775
 H372 H 0.56342 0.79918 0.86403
 H373 H 0.54221 0.82333 0.84068
 H374 H 0.54190 0.80373 0.78276
 H375 H 0.56237 0.82957 0.76049
 H376 H 0.52761 0.88234 0.78960
 H377 H 0.50731 0.85658 0.81210
 H378 H 0.43693 0.76025 0.82942
 C379 C 0.51091 0.18765 0.18790
 C380 C 0.48888 0.18789 0.18756
 C381 C 0.47587 0.17422 0.20245
 C382 C 0.47666 0.20135 0.17184
 C383 C 0.52390 0.20256 0.17425
 C384 C 0.52315 0.17202 0.20145
 C385 C 0.46017 0.16021 0.19399
 C386 C 0.44822 0.14682 0.20771
 C387 C 0.45171 0.14740 0.23005
 C388 C 0.46703 0.16164 0.23866
 C389 C 0.47899 0.17508 0.22494
 C390 C 0.48032 0.19942 0.14951
 C391 C 0.46864 0.21209 0.13487
 C392 C 0.45305 0.22664 0.14239
 C393 C 0.44912 0.22841 0.16459
 C394 C 0.46080 0.21576 0.17924
 C395 C 0.52071 0.22503 0.17506
 C396 C 0.53267 0.23877 0.16165
 C397 C 0.54806 0.23019 0.14747
 C398 C 0.55163 0.20787 0.14695
 C399 C 0.53968 0.19413 0.16031
 C400 C 0.53897 0.17953 0.21586
 C401 C 0.55070 0.16496 0.22855
 C402 C 0.54687 0.14274 0.22683
 C403 C 0.53131 0.13512 0.21229
 C404 C 0.51958 0.14967 0.19958
 H405 H 0.45745 0.15937 0.17672
 H406 H 0.43639 0.13588 0.20088
 H407 H 0.46981 0.16227 0.25593
 H408 H 0.49075 0.18605 0.23182
 H409 H 0.49216 0.18807 0.14344
 H410 H 0.47172 0.21050 0.11772
 H411 H 0.45763 0.21735 0.19638
 H412 H 0.50889 0.23188 0.18597
 H413 H 0.52983 0.25603 0.16223
 H414 H 0.56352 0.20107 0.13606
 H415 H 0.54245 0.17687 0.15951
 H416 H 0.54208 0.19668 0.21739
 H417 H 0.56276 0.17103 0.23969
 H418 H 0.52831 0.11795 0.21073
 H419 H 0.50778 0.14352 0.18822
 H420 H 0.43703 0.23955 0.17057
 C421 C 0.48898 0.18784 0.81194
 C422 C 0.51101 0.18823 0.81232
 C423 C 0.52410 0.17471 0.79744
 C424 C 0.52310 0.20168 0.82809
 C425 C 0.47589 0.20270 0.82548
 C426 C 0.47690 0.17208 0.79850
 C427 C 0.53978 0.16065 0.80590
 C428 C 0.55160 0.14721 0.79219
 C429 C 0.54800 0.14780 0.76987
 C430 C 0.53276 0.16216 0.76125
 C431 C 0.52094 0.17564 0.77496
 C432 C 0.51930 0.19964 0.85040
 C433 C 0.53067 0.21246 0.86508
 C434 C 0.54610 0.22726 0.85765
 C435 C 0.55021 0.22910 0.83547
 C436 C 0.53883 0.21631 0.82077
 C437 C 0.47904 0.22519 0.82457
 C438 C 0.46718 0.23887 0.83805
 C439 C 0.45192 0.23024 0.85236
 C440 C 0.44833 0.20792 0.85294
 C441 C 0.46019 0.19422 0.83951
 C442 C 0.46115 0.17940 0.78389
 C443 C 0.44975 0.16470 0.77110
 C444 C 0.45387 0.14253 0.77293
 C445 C 0.46931 0.13509 0.78771
 C446 C 0.48070 0.14977 0.80052
 H447 H 0.54252 0.15976 0.82317
 H448 H 0.56337 0.13619 0.79902
 H449 H 0.52991 0.16280 0.74399
 H450 H 0.50918 0.18664 0.76809
 H451 H 0.50756 0.18813 0.85640
 H452 H 0.52746 0.21081 0.88222
 H453 H 0.54210 0.21798 0.80365
 H454 H 0.49081 0.23208 0.81359
 H455 H 0.47002 0.25614 0.83742
 H456 H 0.43655 0.20107 0.86394
 H457 H 0.45746 0.17696 0.84039
 H458 H 0.45787 0.19652 0.78223
 H459 H 0.43777 0.17061 0.75978
 H460 H 0.47253 0.11796 0.78936
 H461 H 0.49245 0.14377 0.81202
 H462 H 0.56217 0.24044 0.82956
 C463 C 0.48988 0.81291 0.18756
 C464 C 0.51191 0.81263 0.18715
 C465 C 0.52498 0.82620 0.20201
 C466 C 0.52402 0.79921 0.17138
 C467 C 0.47682 0.79799 0.17405
 C468 C 0.47775 0.82860 0.20106
 C469 C 0.54060 0.84033 0.19354
 C470 C 0.55242 0.85379 0.20724
 C471 C 0.54887 0.85317 0.22957
 C472 C 0.53369 0.83877 0.23820
 C473 C 0.52187 0.82525 0.22450
 C474 C 0.52018 0.80119 0.14907
 C475 C 0.53153 0.78835 0.13440
 C476 C 0.54699 0.77359 0.14184
 C477 C 0.55116 0.77183 0.16401
 C478 C 0.53980 0.78464 0.17871
 C479 C 0.48006 0.77552 0.17496
 C480 C 0.46821 0.76177 0.16152
 C481 C 0.45289 0.77033 0.14722
 C482 C 0.44923 0.79264 0.14664
 C483 C 0.46107 0.80639 0.16003
 C484 C 0.46205 0.82118 0.21567
 C485 C 0.45061 0.83580 0.22849
 C486 C 0.45463 0.85799 0.22671
 C487 C 0.47002 0.86553 0.21193
 C488 C 0.48145 0.85093 0.19907
 H489 H 0.54331 0.84124 0.17627
 H490 H 0.56415 0.86486 0.20040
 H491 H 0.53088 0.83810 0.25547
 H492 H 0.51016 0.81420 0.23139
 H493 H 0.50839 0.81265 0.14306
 H494 H 0.52827 0.78995 0.11726
 H495 H 0.54310 0.78301 0.19582
 H496 H 0.49186 0.76869 0.18594
 H497 H 0.47112 0.74452 0.16216
 H498 H 0.43739 0.79942 0.13565
 H499 H 0.45827 0.82365 0.15915
 H500 H 0.45885 0.80404 0.21730
 H501 H 0.43868 0.82980 0.23982
 H502 H 0.47316 0.88268 0.21031
 H503 H 0.49317 0.85701 0.18758
 H504 H 0.56315 0.76052 0.16993
 C505 C 0.81250 0.51082 0.81265
 C506 C 0.81250 0.48879 0.81251
 C507 C 0.79752 0.47603 0.82631
 C508 C 0.82795 0.47629 0.79908
 C509 C 0.82624 0.52357 0.79760
 C510 C 0.79924 0.52325 0.82830
 C511 C 0.80585 0.46025 0.84037
 C512 C 0.79206 0.44849 0.85383
 C513 C 0.76977 0.45224 0.85329
 C514 C 0.76128 0.46765 0.83901
 C515 C 0.77508 0.47942 0.82550
 C516 C 0.85034 0.47964 0.80092
 C517 C 0.86472 0.46766 0.78832
 C518 C 0.85689 0.45208 0.77393
 C519 C 0.83463 0.44847 0.77224
 C520 C 0.82023 0.46045 0.78482
 C521 C 0.82528 0.52022 0.77515
 C522 C 0.83896 0.53172 0.76129
 C523 C 0.85354 0.54683 0.76970
 C524 C 0.85416 0.55062 0.79198
 C525 C 0.84053 0.53912 0.80585
 C526 C 0.78476 0.53904 0.82081
 C527 C 0.77202 0.55062 0.83540
 C528 C 0.77377 0.54667 0.85762
 C529 C 0.78846 0.53123 0.86522
 C530 C 0.80122 0.51964 0.85065
 H531 H 0.82309 0.45732 0.84117
 H532 H 0.79879 0.43659 0.86479
 H533 H 0.74404 0.47063 0.83841
 H534 H 0.76829 0.49124 0.81449
 H535 H 0.85665 0.49145 0.81216
 H536 H 0.88193 0.47048 0.78985
 H537 H 0.80304 0.45751 0.78332
 H538 H 0.81410 0.50858 0.76842
 H539 H 0.83828 0.52873 0.74406
 H540 H 0.86536 0.56229 0.79866
 H541 H 0.84146 0.54201 0.82308
 H542 H 0.78313 0.54216 0.80366
 H543 H 0.76076 0.56260 0.82935
 H544 H 0.79005 0.52814 0.88238
 H545 H 0.81262 0.50785 0.85678
 H546 H 0.82841 0.43640 0.76122
 C547 C 0.18741 0.51050 0.18740
 C548 C 0.18753 0.48847 0.18747
 C549 C 0.20084 0.47593 0.17194
 C550 C 0.17383 0.47581 0.20262
 C551 C 0.17188 0.52304 0.20071
 C552 C 0.20235 0.52320 0.17351
 C553 C 0.19889 0.47933 0.14956
 C554 C 0.21160 0.46754 0.13511
 C555 C 0.22621 0.45210 0.14287
 C556 C 0.22796 0.44837 0.16512
 C557 C 0.21527 0.46017 0.17959
 C558 C 0.15957 0.46017 0.19449
 C559 C 0.14598 0.44874 0.20845
 C560 C 0.14662 0.45269 0.23070
 C561 C 0.16117 0.46789 0.23900
 C562 C 0.17480 0.47933 0.22504
 C563 C 0.17952 0.53897 0.21491
 C564 C 0.16505 0.55093 0.22744
 C565 C 0.14280 0.54718 0.22577
 C566 C 0.13506 0.53152 0.21143
 C567 C 0.14951 0.51957 0.19888
 C568 C 0.22481 0.51990 0.17438
 C569 C 0.23858 0.53160 0.16077
 C570 C 0.23004 0.54683 0.14635
 C571 C 0.20774 0.55050 0.14574
 C572 C 0.19397 0.53881 0.15930
 H573 H 0.18753 0.49109 0.14331
 H574 H 0.21002 0.47046 0.11792
 H575 H 0.23916 0.43641 0.17129
 H576 H 0.21688 0.45720 0.19677
 H577 H 0.15863 0.45715 0.17728
 H578 H 0.13481 0.43699 0.20187
 H579 H 0.18596 0.49105 0.23167
 H580 H 0.19669 0.54199 0.21642
 H581 H 0.17120 0.56307 0.23843
 H582 H 0.11787 0.52858 0.20992
 H583 H 0.14328 0.50767 0.18769
 H584 H 0.23162 0.50821 0.18550
 H585 H 0.25582 0.52870 0.16143
 H586 H 0.20097 0.56227 0.13466
 H587 H 0.17673 0.54166 0.15844
 H588 H 0.16185 0.47102 0.25620
 C589 C 0.81215 0.48897 0.18740
 C590 C 0.81216 0.51100 0.18754
 C591 C 0.79723 0.52377 0.17370
 C592 C 0.82760 0.52349 0.20100
 C593 C 0.82589 0.47622 0.20245
 C594 C 0.79892 0.47655 0.17172
 C595 C 0.80561 0.53957 0.15970
 C596 C 0.79187 0.55135 0.14620
 C597 C 0.76958 0.54759 0.14665
 C598 C 0.76103 0.53216 0.16086
 C599 C 0.77478 0.52037 0.17442
 C600 C 0.84999 0.52017 0.19917
 C601 C 0.86436 0.53214 0.21179
 C602 C 0.85652 0.54769 0.22619
 C603 C 0.83426 0.55128 0.22787
 C604 C 0.81987 0.53930 0.21528
 C605 C 0.82494 0.47955 0.22490
 C606 C 0.83864 0.46806 0.23876
 C607 C 0.85324 0.45299 0.23033
 C608 C 0.85385 0.44921 0.20805
 C609 C 0.84020 0.46070 0.19419
 C610 C 0.78441 0.46076 0.17918
 C611 C 0.77169 0.44918 0.16456
 C612 C 0.77349 0.45314 0.14235
 C613 C 0.78821 0.46858 0.13478
 C614 C 0.80095 0.48015 0.14938
 H615 H 0.82285 0.54250 0.15896
 H616 H 0.79865 0.56326 0.13528
 H617 H 0.74380 0.52917 0.16139
 H618 H 0.76795 0.50854 0.18538
 H619 H 0.85630 0.50838 0.18791
 H620 H 0.88157 0.52934 0.21026
 H621 H 0.80268 0.54221 0.21677
 H622 H 0.81375 0.49118 0.23164
 H623 H 0.83797 0.47105 0.25598
 H624 H 0.86506 0.43756 0.20136
 H625 H 0.84112 0.45782 0.17695
 H626 H 0.78275 0.45764 0.19632
 H627 H 0.76041 0.43721 0.17058
 H628 H 0.78983 0.47167 0.11762
 H629 H 0.81236 0.49195 0.14328
 H630 H 0.82803 0.56334 0.23890
 C631 C 0.18719 0.48958 0.81310
 C632 C 0.18722 0.51162 0.81309
 C633 C 0.20041 0.52417 0.82872
 C634 C 0.17356 0.52425 0.79788
 C635 C 0.17177 0.47700 0.79969
 C636 C 0.20213 0.47693 0.82703
 C637 C 0.19835 0.52072 0.85108
 C638 C 0.21094 0.53252 0.86563
 C639 C 0.22554 0.54805 0.85800
 C640 C 0.22739 0.55183 0.83576
 C641 C 0.21482 0.54002 0.82119
 C642 C 0.15920 0.53982 0.80596
 C643 C 0.14566 0.55123 0.79194
 C644 C 0.14643 0.54732 0.76968
 C645 C 0.16106 0.53218 0.76145
 C646 C 0.17466 0.52077 0.77546
 C647 C 0.17952 0.46110 0.78552
 C648 C 0.16515 0.44908 0.77293
 C649 C 0.14288 0.45272 0.77449
 C650 C 0.13503 0.46836 0.78879
 C651 C 0.14938 0.48037 0.80142
 C652 C 0.22458 0.48034 0.82626
 C653 C 0.23834 0.46871 0.83992
 C654 C 0.22982 0.45342 0.85431
 C655 C 0.20754 0.44964 0.85480
 C656 C 0.19377 0.46126 0.84119
 H657 H 0.18700 0.50889 0.85724
 H658 H 0.20928 0.52956 0.88281
 H659 H 0.23857 0.56387 0.82968
 H660 H 0.21650 0.54303 0.80403
 H661 H 0.15817 0.54281 0.82317
 H662 H 0.13441 0.56293 0.79848
 H663 H 0.18589 0.50910 0.76887
 H664 H 0.19671 0.45815 0.78410
 H665 H 0.17140 0.43697 0.76197
 H666 H 0.11782 0.47121 0.79023
 H667 H 0.14305 0.49224 0.81258
 H668 H 0.23138 0.49208 0.81518
 H669 H 0.25558 0.47170 0.83935
 H670 H 0.20078 0.43782 0.86584
 H671 H 0.17653 0.45832 0.84197
 H672 H 0.16185 0.52909 0.74424
 C673 C 0.28800 0.39618 0.07178
 N674 N 0.27272 0.38586 0.08365
 N675 N 0.26071 0.39677 0.09779
 C676 C 0.26360 0.41832 0.10046
 N677 N 0.27889 0.42863 0.08859
 N678 N 0.29090 0.41773 0.07446
 C679 C 0.30062 0.38453 0.05623
 C680 C 0.31103 0.37481 0.04296
 C681 C 0.25048 0.43013 0.11546
 C682 C 0.23942 0.44011 0.12798
 C683 C 0.70810 0.60317 0.07487
 N684 N 0.70682 0.58132 0.07595
 N685 N 0.71828 0.57041 0.09059
 C686 C 0.73135 0.58103 0.10459
 N687 N 0.73261 0.60288 0.10352
 N688 N 0.72115 0.61379 0.08889
 C689 C 0.69631 0.61484 0.05865
 C690 C 0.68661 0.62458 0.04482
 C691 C 0.74435 0.56924 0.11976
 C692 C 0.75564 0.55935 0.13220
 C693 C 0.70796 0.39684 0.92491
 N694 N 0.70664 0.41868 0.92371
 N695 N 0.71817 0.42955 0.90910
 C696 C 0.73135 0.41890 0.89524
 N697 N 0.73265 0.39705 0.89643
 N698 N 0.72112 0.38618 0.91104
 C699 C 0.69609 0.38521 0.94111
 C700 C 0.68634 0.37551 0.95492
 C701 C 0.74443 0.43065 0.88011
 C702 C 0.75577 0.44051 0.86770
 C703 C 0.28683 0.60413 0.92946
 N704 N 0.26619 0.59861 0.93435
 N705 N 0.25418 0.58771 0.92022
 C706 C 0.26243 0.58198 0.90076
 N707 N 0.28307 0.58751 0.89585
 N708 N 0.29509 0.59842 0.90999
 C709 C 0.29976 0.61576 0.94478
 C710 C 0.31040 0.62547 0.95788
 C711 C 0.24951 0.57012 0.88562
 C712 C 0.23859 0.56009 0.87299
 C713 C 0.07375 0.29299 0.39982
 N714 N 0.07331 0.29170 0.42170
 N715 N 0.08792 0.27990 0.43225
 C716 C 0.10343 0.26904 0.42125
 N717 N 0.10389 0.27034 0.39937
 N718 N 0.08927 0.28215 0.38882
 C719 C 0.05768 0.30523 0.38841
 C720 C 0.04407 0.31530 0.37875
 C721 C 0.11872 0.25575 0.43257
 C722 C 0.13130 0.24429 0.44207
 C723 C 0.07393 0.70662 0.59983
 N724 N 0.07302 0.70851 0.57801
 N725 N 0.08766 0.72027 0.56745
 C726 C 0.10366 0.73049 0.57838
 N727 N 0.10458 0.72858 0.60020
 N728 N 0.08994 0.71681 0.61076
 C729 C 0.05784 0.69442 0.61127
 C730 C 0.04422 0.68439 0.62097
 C731 C 0.11898 0.74374 0.56707
 C732 C 0.13159 0.75519 0.55757
 C733 C 0.92801 0.71407 0.39528
 N734 N 0.92549 0.71041 0.41675
 N735 N 0.91155 0.72212 0.42821
 C736 C 0.89973 0.73786 0.41856
 N737 N 0.90224 0.74152 0.39709
 N738 N 0.91618 0.72981 0.38562
 C739 C 0.94332 0.70173 0.38303
 C740 C 0.95637 0.69151 0.37284
 C741 C 0.88488 0.75061 0.43095
 C742 C 0.87245 0.76137 0.44136
 C743 C 0.92816 0.28571 0.60477
 N744 N 0.92549 0.28953 0.58335
 N745 N 0.91155 0.27782 0.57186
 C746 C 0.89987 0.26193 0.58146
 N747 N 0.90252 0.25813 0.60289
 N748 N 0.91647 0.26983 0.61437
 C749 C 0.94348 0.29804 0.61704
 C750 C 0.95655 0.30825 0.62724
 C751 C 0.88502 0.24919 0.56905
 C752 C 0.87257 0.23844 0.55863
 C753 C 0.39600 0.07590 0.29177
 N754 N 0.41766 0.07808 0.29424
 N755 N 0.42854 0.09267 0.28269
 C756 C 0.41807 0.10553 0.26833
 N757 N 0.39640 0.10337 0.26588
 N758 N 0.38553 0.08878 0.27744
 C759 C 0.38441 0.05971 0.30369
 C760 C 0.37477 0.04589 0.31349
 C761 C 0.42989 0.12064 0.25528
 C762 C 0.43984 0.13302 0.24397
 C763 C 0.60268 0.07585 0.70813
 N764 N 0.58079 0.07543 0.70895
 N765 N 0.57004 0.09005 0.72050
 C766 C 0.58086 0.10556 0.73155
 N767 N 0.60275 0.10601 0.73070
 N768 N 0.61350 0.09138 0.71915
 C769 C 0.61428 0.05971 0.69625
 C770 C 0.62409 0.04601 0.68653
 C771 C 0.56933 0.12079 0.74463
 C772 C 0.55963 0.13329 0.75595
 C773 C 0.39580 0.92403 0.70830
 N774 N 0.38532 0.91123 0.72271
 N775 N 0.39617 0.89664 0.73428
 C776 C 0.41782 0.89441 0.73180
 N777 N 0.42830 0.90719 0.71737
 N778 N 0.41745 0.92177 0.70579
 C779 C 0.38423 0.94020 0.69635
 C780 C 0.37459 0.95400 0.68652
 C781 C 0.42962 0.87929 0.74486
 C782 C 0.43955 0.86691 0.75617
 C783 C 0.60358 0.92503 0.29149
 N784 N 0.58168 0.92543 0.29068
 N785 N 0.57093 0.91084 0.27907
 C786 C 0.58175 0.89541 0.26794
 N787 N 0.60365 0.89499 0.26877
 N788 N 0.61439 0.90958 0.28037
 C789 C 0.61518 0.94113 0.30345
 C790 C 0.62500 0.95478 0.31325
 C791 C 0.57022 0.88019 0.25482
 C792 C 0.56051 0.86770 0.24348
 C793 C 0.39698 0.29186 0.92422
 N794 N 0.41889 0.29149 0.92437
 N795 N 0.42968 0.27996 0.90975
 C796 C 0.41889 0.26848 0.89454
 N797 N 0.39698 0.26888 0.89437
 N798 N 0.38619 0.28040 0.90899
 C799 C 0.38534 0.30373 0.94034
 C800 C 0.37551 0.31346 0.95402
 C801 C 0.43049 0.25543 0.87933
 C802 C 0.44024 0.24413 0.86686
 C803 C 0.60424 0.70819 0.92361
 N804 N 0.61451 0.72312 0.91126
 N805 N 0.60356 0.73471 0.89675
 C806 C 0.58202 0.73170 0.89415
 N807 N 0.57174 0.71674 0.90648
 N808 N 0.58269 0.70516 0.92099
 C809 C 0.61588 0.69623 0.93973
 C810 C 0.62556 0.68639 0.95349
 C811 C 0.57009 0.74477 0.87914
 C812 C 0.56006 0.75608 0.86684
 C813 C 0.39771 0.70840 0.07575
 N814 N 0.41957 0.70965 0.07483
 N815 N 0.43044 0.72123 0.08935
 C816 C 0.41978 0.73189 0.10523
 N817 N 0.39793 0.73062 0.10617
 N818 N 0.38706 0.71904 0.09165
 C819 C 0.38595 0.69650 0.05973
 C820 C 0.37598 0.68675 0.04614
 C821 C 0.43143 0.74501 0.12036
 C822 C 0.44120 0.75637 0.13279
 C823 C 0.60381 0.29208 0.07616
 N824 N 0.61429 0.27783 0.08912
 N825 N 0.60341 0.26624 0.10367
 C826 C 0.58172 0.26856 0.10571
 N827 N 0.57124 0.28284 0.09277
 N828 N 0.58212 0.29443 0.07822
 C829 C 0.61542 0.30404 0.06001
 C830 C 0.62508 0.31386 0.04623
 C831 C 0.56989 0.25547 0.12078
 C832 C 0.55994 0.24414 0.13313
 C833 C 0.29183 0.07528 0.60339
 N834 N 0.29305 0.07639 0.58154
 N835 N 0.28150 0.09098 0.57067
 C836 C 0.26840 0.10491 0.58133
 N837 N 0.26721 0.10382 0.60319
 N838 N 0.27876 0.08923 0.61406
 C839 C 0.30371 0.05910 0.61503
 C840 C 0.31346 0.04530 0.62475
 C841 C 0.25530 0.12003 0.56959
 C842 C 0.24394 0.13243 0.55974
 C843 C 0.71193 0.07148 0.39572
 N844 N 0.71205 0.07143 0.41764
 N845 N 0.72414 0.08557 0.42847
 C846 C 0.73648 0.10016 0.41772
 N847 N 0.73635 0.10021 0.39580
 N848 N 0.72426 0.08608 0.38497
 C849 C 0.69927 0.05594 0.38407
 C850 C 0.68885 0.04269 0.37433
 C851 C 0.74970 0.11519 0.42940
 C852 C 0.76085 0.12773 0.43928
 C853 C 0.71167 0.92812 0.60407
 N854 N 0.72343 0.91308 0.61487
 N855 N 0.73555 0.89894 0.60409
 C856 C 0.73629 0.89944 0.58218
 N857 N 0.72453 0.91447 0.57139
 N858 N 0.71241 0.92861 0.58217
 C859 C 0.69900 0.94366 0.61568
 C860 C 0.68855 0.95692 0.62536
 C861 C 0.74955 0.88441 0.57057
 C862 C 0.76073 0.87188 0.56072
 C863 C 0.29206 0.92435 0.39633
 N864 N 0.27878 0.91058 0.38567
 N865 N 0.26724 0.89597 0.39652
 C866 C 0.26866 0.89467 0.41836
 N867 N 0.28196 0.90841 0.42901
 N868 N 0.29350 0.92303 0.41816
 C869 C 0.30393 0.94056 0.38472
 C870 C 0.31367 0.95440 0.37503
 C871 C 0.25558 0.87952 0.43009
 C872 C 0.24422 0.86710 0.43994
 C873 C 0.07247 0.39454 0.71397
 N874 N 0.08559 0.38452 0.72840
 N875 N 0.09956 0.39591 0.74015
 C876 C 0.10082 0.41768 0.73783
 N877 N 0.08771 0.42769 0.72339
 N878 N 0.07374 0.41629 0.71164
 C879 C 0.05711 0.38233 0.70162
 C880 C 0.04400 0.37219 0.69140
 C881 C 0.11568 0.42998 0.75067
 C882 C 0.12810 0.44035 0.76151
 C883 C 0.07200 0.60498 0.28613
 N884 N 0.06868 0.58363 0.28252
 N885 N 0.08269 0.57228 0.27079
 C886 C 0.10044 0.58194 0.26230
 N887 N 0.10377 0.60329 0.26592
 N888 N 0.08975 0.61465 0.27765
 C889 C 0.05670 0.61724 0.29847
 C890 C 0.04364 0.62742 0.30870
 C891 C 0.11541 0.56975 0.24950
 C892 C 0.12792 0.55947 0.23870
 C893 C 0.92569 0.39971 0.29310
 N894 N 0.90917 0.38883 0.28368
 N895 N 0.89451 0.39933 0.27188
 C896 C 0.89593 0.42104 0.26916
 N897 N 0.91244 0.43192 0.27859
 N898 N 0.92709 0.42141 0.29039
 C899 C 0.94178 0.38831 0.30533
 C900 C 0.95540 0.37865 0.31539
 C901 C 0.88057 0.43226 0.25587
 C902 C 0.86794 0.44169 0.24440
 C903 C 0.92585 0.60019 0.70684
 N904 N 0.90959 0.61112 0.71664
 N905 N 0.89496 0.60060 0.72846
 C906 C 0.89614 0.57884 0.73083
 N907 N 0.91238 0.56792 0.72101
 N908 N 0.92701 0.57843 0.70919
 C909 C 0.94192 0.61159 0.69458
 C910 C 0.95553 0.62124 0.68450
 C911 C 0.88081 0.56760 0.74414
 C912 C 0.86821 0.55815 0.75562
 C913 C 0.71158 0.60196 0.92885
 N914 N 0.71638 0.58086 0.93235
 N915 N 0.72848 0.56999 0.91826
 C916 C 0.73616 0.57990 0.90026
 N917 N 0.73135 0.60099 0.89675
 N918 N 0.71925 0.61187 0.91084
 C919 C 0.69888 0.61377 0.94421
 C920 C 0.68842 0.62376 0.95722
 C921 C 0.74935 0.56824 0.88521
 C922 C 0.76048 0.55843 0.87261
 C923 C 0.29161 0.39800 0.92594
 N924 N 0.28925 0.41971 0.92776
 N925 N 0.27771 0.43070 0.91325
 C926 C 0.26821 0.42032 0.89647
 N927 N 0.27060 0.39862 0.89463
 N928 N 0.28213 0.38763 0.90914
 C929 C 0.30350 0.38609 0.94190
 C930 C 0.31328 0.37602 0.95543
 C931 C 0.25513 0.43203 0.88131
 C932 C 0.24379 0.44181 0.86883
 C933 C 0.29176 0.60250 0.07485
 N934 N 0.28148 0.61297 0.09110
 N935 N 0.26997 0.60195 0.10561
 C936 C 0.26841 0.58013 0.10432
 N937 N 0.27872 0.56966 0.08809
 N938 N 0.29023 0.58068 0.07358
 C939 C 0.30362 0.61442 0.05887
 C940 C 0.31337 0.62445 0.04529
 C941 C 0.25535 0.56836 0.11944
 C942 C 0.24402 0.55852 0.13188
 C943 C 0.71133 0.39803 0.07092
 N944 N 0.71754 0.38861 0.08973
 N945 N 0.72964 0.39945 0.10386
 C946 C 0.73591 0.42002 0.09958
 N947 N 0.72968 0.42944 0.08077
 N948 N 0.71759 0.41860 0.06665
 C949 C 0.69862 0.38625 0.05555
 C950 C 0.68813 0.37628 0.04252
 C951 C 0.74909 0.43162 0.11468
 C952 C 0.76021 0.44140 0.12732
 C953 C 0.92624 0.70594 0.60111
 N954 N 0.92722 0.70825 0.57934
 N955 N 0.91252 0.72008 0.56893
 C956 C 0.89640 0.72995 0.57999
 N957 N 0.89541 0.72761 0.60177
 N958 N 0.91010 0.71578 0.61217
 C959 C 0.94242 0.69373 0.61239
 C960 C 0.95613 0.68371 0.62196
 C961 C 0.88105 0.74332 0.56888
 C962 C 0.86844 0.75488 0.55954
 C963 C 0.92614 0.29377 0.39863
 N964 N 0.92689 0.29183 0.42045
 N965 N 0.91222 0.27999 0.43087
 C966 C 0.89634 0.26974 0.41979
 N967 N 0.89557 0.27171 0.39797
 N968 N 0.91024 0.28355 0.38755
 C969 C 0.94230 0.30600 0.38734
 C970 C 0.95600 0.31603 0.37777
 C971 C 0.88102 0.25636 0.43094
 C972 C 0.86844 0.24480 0.44032
 C973 C 0.07225 0.28686 0.60607
 N974 N 0.07441 0.28999 0.58448
 N975 N 0.08845 0.27827 0.57315
 C976 C 0.10072 0.26304 0.58306
 N977 N 0.09857 0.25992 0.60466
 N978 N 0.08453 0.27165 0.61599
 C979 C 0.05677 0.29913 0.61816
 C980 C 0.04355 0.30926 0.62822
 C981 C 0.11560 0.25020 0.57081
 C982 C 0.12802 0.23934 0.56050
 C983 C 0.07215 0.71267 0.39404
 N984 N 0.07197 0.71212 0.41595
 N985 N 0.08607 0.72383 0.42723
 C986 C 0.10076 0.73645 0.41694
 N987 N 0.10094 0.73698 0.39503
 N988 N 0.08684 0.72527 0.38374
 C989 C 0.05664 0.70044 0.38193
 C990 C 0.04339 0.69035 0.37186
 C991 C 0.11571 0.74929 0.42910
 C992 C 0.12819 0.76015 0.43934
 C993 C 0.60262 0.92921 0.71211
 N994 N 0.58203 0.93357 0.71817
 N995 N 0.57095 0.91946 0.73012
 C996 C 0.58014 0.90057 0.73638
 N997 N 0.60074 0.89620 0.73033
 N998 N 0.61182 0.91031 0.71837
 C999 C 0.61461 0.94455 0.69948
 C1000 C 0.62457 0.95762 0.68900
 C1001 C 0.56825 0.88546 0.74938
 C1002 C 0.55825 0.87281 0.76033
 C1003 C 0.39918 0.92928 0.28866
 N1004 N 0.39123 0.90917 0.28514
 N1005 N 0.40219 0.89510 0.27311
 C1006 C 0.42142 0.90072 0.26423
 N1007 N 0.42938 0.92082 0.26775
 N1008 N 0.41842 0.93489 0.27978
 C1009 C 0.38721 0.94457 0.30128
 C1010 C 0.37707 0.95753 0.31167
 C1011 C 0.43311 0.88565 0.25108
 C1012 C 0.44292 0.87303 0.23999
 C1013 C 0.60405 0.07173 0.28789
 N1014 N 0.61102 0.07737 0.26788
 N1015 N 0.59983 0.09142 0.25596
 C1016 C 0.58133 0.10023 0.26369
 N1017 N 0.57436 0.09459 0.28370
 N1018 N 0.58555 0.08055 0.29562
 C1019 C 0.61591 0.05631 0.30055
 C1020 C 0.62578 0.04318 0.31105
 C1021 C 0.56919 0.11521 0.25077
 C1022 C 0.55900 0.12776 0.23988
 C1023 C 0.39871 0.07083 0.71117
 N1024 N 0.39053 0.09080 0.71489
 N1025 N 0.40142 0.10496 0.72688
 C1026 C 0.42082 0.09956 0.73553
 N1027 N 0.42901 0.07959 0.73181
 N1028 N 0.41811 0.06543 0.71981
 C1029 C 0.38680 0.05545 0.69859
 C1030 C 0.37672 0.04242 0.68822
 C1031 C 0.43246 0.11471 0.74863
 C1032 C 0.44222 0.12740 0.75969
 C1033 C 0.60179 0.71143 0.07022
 N1034 N 0.61001 0.71515 0.09019
 N1035 N 0.59919 0.72724 0.10432
 C1036 C 0.57984 0.73598 0.09891
 N1037 N 0.57161 0.73225 0.07894
 N1038 N 0.58243 0.72017 0.06481
 C1039 C 0.61361 0.69874 0.05487
 C1040 C 0.62363 0.68829 0.04186
 C1041 C 0.56828 0.74917 0.11404
 C1042 C 0.55858 0.76029 0.12672
 C1043 C 0.39630 0.28769 0.07101
 N1044 N 0.41310 0.29637 0.08206
 N1045 N 0.42421 0.28444 0.09617
 C1046 C 0.41886 0.26346 0.09963
 N1047 N 0.40205 0.25478 0.08858
 N1048 N 0.39094 0.26671 0.07448
 C1049 C 0.38452 0.30041 0.05558
 C1050 C 0.37470 0.31095 0.04245
 C1051 C 0.43090 0.25055 0.11469
 C1052 C 0.44100 0.23967 0.12732
 C1053 C 0.60116 0.28908 0.92939
 N1054 N 0.58159 0.28071 0.93464
 N1055 N 0.57072 0.26871 0.92048
 C1056 C 0.57909 0.26469 0.90064
 N1057 N 0.59865 0.27307 0.89538
 N1058 N 0.60952 0.28507 0.90954
 C1059 C 0.61303 0.30167 0.94478
 C1060 C 0.62309 0.31206 0.95781
 C1061 C 0.56748 0.25158 0.88547
 C1062 C 0.55773 0.24051 0.87277
 C1063 C 0.39618 0.71205 0.92900
 N1064 N 0.41604 0.70566 0.92232
 N1065 N 0.42714 0.71757 0.90820
 C1066 C 0.41873 0.73623 0.90034
 N1067 N 0.39887 0.74262 0.90702
 N1068 N 0.38777 0.73071 0.92115
 C1069 C 0.38438 0.69944 0.94451
 C1070 C 0.37456 0.68900 0.95772
 C1071 C 0.43076 0.74916 0.88529
 C1072 C 0.44087 0.76008 0.87268
 C1073 C 0.70931 0.92564 0.39865
 N1074 N 0.71865 0.90873 0.38833
 N1075 N 0.73011 0.89420 0.39936
 C1076 C 0.73256 0.89612 0.42105
 N1077 N 0.72320 0.91300 0.43138
 N1078 N 0.71174 0.92754 0.42034
 C1079 C 0.69748 0.94161 0.38669
 C1080 C 0.68774 0.95515 0.37662
 C1081 C 0.74555 0.88093 0.43282
 C1082 C 0.75682 0.86844 0.44265
 C1083 C 0.28767 0.92848 0.60180
 N1084 N 0.27427 0.91476 0.61244
 N1085 N 0.26221 0.90066 0.60152
 C1086 C 0.26318 0.89987 0.57965
 N1087 N 0.27659 0.91358 0.56901
 N1088 N 0.28865 0.92768 0.57992
 C1089 C 0.30040 0.94386 0.61354
 C1090 C 0.31091 0.95689 0.62347
 C1091 C 0.25008 0.88481 0.56789
 C1092 C 0.23905 0.87220 0.55800
 C1093 C 0.28759 0.07114 0.39804
 N1094 N 0.28832 0.07174 0.41994
 N1095 N 0.27621 0.08581 0.43082
 C1096 C 0.26299 0.09967 0.42015
 N1097 N 0.26227 0.09907 0.39825
 N1098 N 0.27438 0.08501 0.38736
 C1099 C 0.30038 0.05580 0.38632
 C1100 C 0.31094 0.04281 0.37640
 C1101 C 0.24984 0.11470 0.43187
 C1102 C 0.23876 0.12730 0.44174
 C1103 C 0.70887 0.07468 0.60146
 N1104 N 0.71096 0.07297 0.57972
 N1105 N 0.72251 0.08744 0.56868
 C1106 C 0.73229 0.10407 0.57906
 N1107 N 0.73017 0.10579 0.60080
 N1108 N 0.71862 0.09132 0.61183
 C1109 C 0.69693 0.05878 0.61341
 C1110 C 0.68711 0.04529 0.62348
 C1111 C 0.74536 0.11918 0.56728
 C1112 C 0.75668 0.13161 0.55743
 C1113 C 0.92708 0.60593 0.28643
 N1114 N 0.91989 0.58648 0.29356
 N1115 N 0.90587 0.57510 0.28185
 C1116 C 0.89863 0.58283 0.26265
 N1117 N 0.90580 0.60229 0.25552
 N1118 N 0.91982 0.61366 0.26723
 C1119 C 0.94255 0.61795 0.29878
 C1120 C 0.95577 0.62795 0.30898
 C1121 C 0.88376 0.57047 0.24990
 C1122 C 0.87133 0.56008 0.23912
 C1123 C 0.92744 0.39387 0.71370
 N1124 N 0.92062 0.41353 0.70679
 N1125 N 0.90660 0.42490 0.71850
 C1126 C 0.89901 0.41696 0.73748
 N1127 N 0.90582 0.39730 0.74438
 N1128 N 0.91983 0.38592 0.73267
 C1129 C 0.94290 0.38183 0.70134
 C1130 C 0.95610 0.37182 0.69114
 C1131 C 0.88414 0.42931 0.75023
 C1132 C 0.87170 0.43970 0.76101
 C1133 C 0.07426 0.60033 0.70642
 N1134 N 0.09036 0.61134 0.71639
 N1135 N 0.10500 0.60088 0.72825
 C1136 C 0.10399 0.57910 0.73047
 N1137 N 0.08790 0.56809 0.72048
 N1138 N 0.07326 0.57855 0.70862
 C1139 C 0.05813 0.61167 0.69419
 C1140 C 0.04447 0.62129 0.68416
 C1141 C 0.11928 0.56792 0.74387
 C1142 C 0.13183 0.55854 0.75546
 C1143 C 0.07424 0.39957 0.29362
 N1144 N 0.07328 0.42136 0.29148
 N1145 N 0.08796 0.43184 0.27970
 C1146 C 0.10405 0.42084 0.26971
 N1147 N 0.10503 0.39905 0.27187
 N1148 N 0.09034 0.38857 0.28365
 C1149 C 0.05807 0.38821 0.30578
 C1150 C 0.04438 0.37858 0.31575
 C1151 C 0.11939 0.43204 0.25639
 C1152 C 0.13198 0.44144 0.24486
   
