data_POSCAR
  _audit_creation_date              2014-09-24
  _audit_creation_method            'ToBaCCo'
  _symmetry_space_group_name_H-M    'P1'
  _symmetry_Int_Tables_number       1
  _symmetry_cell_setting            triclinic
  loop_
  _symmetry_equiv_pos_as_xyz
 x,y,z
_cell_length_a 35.9861
_cell_length_b 36.8957
_cell_length_c 37.9216
_cell_angle_alpha 91.861700
_cell_angle_beta 87.100800
_cell_angle_gamma 91.193000
loop_
  _atom_site_label
  _atom_site_type_symbol
  _atom_site_fract_x
  _atom_site_fract_y
  _atom_site_fract_z
C1 C 1.27375 0.21345 0.27454
 C2 C 1.25457 0.23417 0.25155
 C3 C 1.22758 0.21808 0.23083
 C4 C 1.21890 0.18107 0.23313
 C5 C 1.23860 0.16010 0.25601
 C6 C 1.26671 0.17573 0.27690
 C7 C 1.26147 0.27334 0.25000
 C8 C 1.28737 0.28723 0.22508
 C9 C 1.29272 0.32503 0.22163
 C10 C 1.27000 0.34822 0.24378
 C11 C 1.24336 0.33422 0.26853
 C12 C 1.24004 0.29659 0.27183
 H13 H 1.29299 0.22764 0.29136
 H14 H 1.21353 0.23464 0.21276
 H15 H 1.30172 0.26795 0.20746
 H16 H 1.22053 0.28501 0.29125
 H17 H 1.23235 0.13140 0.25650
 H18 H 1.27308 0.37728 0.24255
 C19 C 0.77339 -0.32607 0.28595
 C20 C 0.75806 -0.30655 0.25939
 C21 C 0.74123 -0.32500 0.23148
 C22 C 0.73764 -0.36298 0.23053
 C23 C 0.75308 -0.38236 0.25755
 C24 C 0.77222 -0.36440 0.28509
 C25 C 0.75925 -0.26655 0.26061
 C26 C 0.77755 -0.24789 0.23316
 C27 C 0.77677 -0.20988 0.23232
 C28 C 0.75723 -0.19054 0.25982
 C29 C 0.73857 -0.20910 0.28772
 C30 C 0.74010 -0.24718 0.28787
 H31 H 0.78551 -0.31088 0.30754
 H32 H 0.73077 -0.30935 0.21058
 H33 H 0.79264 -0.26325 0.21242
 H34 H 0.72502 -0.26203 0.30842
 H35 H 0.75119 -0.41157 0.25618
 H36 H 0.75618 -0.16125 0.25928
 C37 C 0.77003 0.17444 -0.20843
 C38 C 0.75485 0.19307 -0.23567
 C39 C 0.73823 0.17363 -0.26319
 C40 C 0.73497 0.13556 -0.26320
 C41 C 0.75084 0.11715 -0.23578
 C42 C 0.76918 0.13632 -0.20871
 C43 C 0.75685 0.23303 -0.23611
 C44 C 0.77539 0.25008 -0.26443
 C45 C 0.77663 0.28825 -0.26672
 C46 C 0.75819 0.30897 -0.23916
 C47 C 0.73907 0.29187 -0.21058
 C48 C 0.73905 0.25388 -0.20922
 H49 H 0.78300 0.18975 -0.18733
 H50 H 0.72786 0.18858 -0.28461
 H51 H 0.79029 0.23295 -0.28381
 H52 H 0.72386 0.24030 -0.18788
 H53 H 0.74927 0.08787 -0.23555
 H54 H 0.75745 0.33821 -0.24025
 C55 C 1.27140 -0.28853 -0.22790
 C56 C 1.25223 -0.26723 -0.25039
 C57 C 1.22475 -0.28265 -0.27094
 C58 C 1.21569 -0.31962 -0.26904
 C59 C 1.23529 -0.34117 -0.24657
 C60 C 1.26387 -0.32619 -0.22589
 C61 C 1.25993 -0.22819 -0.25164
 C62 C 1.28617 -0.21456 -0.27641
 C63 C 1.29255 -0.17700 -0.27868
 C64 C 1.27142 -0.15336 -0.25600
 C65 C 1.24429 -0.16693 -0.23155
 C66 C 1.23942 -0.20461 -0.22916
 H67 H 1.29107 -0.27483 -0.21117
 H68 H 1.21071 -0.26568 -0.28867
 H69 H 1.30086 -0.23337 -0.29438
 H70 H 1.21952 -0.21591 -0.20992
 H71 H 1.22869 -0.36982 -0.24633
 H72 H 1.27575 -0.12437 -0.25763
 C73 C 0.19572 0.27632 0.73830
 C74 C 0.21692 0.26074 0.76360
 C75 C 0.19918 0.24499 0.79320
 C76 C 0.16011 0.24514 0.79841
 C77 C 0.13959 0.26357 0.77402
 C78 C 0.15677 0.27813 0.74328
 C79 C 0.25760 0.25801 0.75785
 C80 C 0.28163 0.27798 0.77941
 C81 C 0.32066 0.27389 0.77564
 C82 C 0.33442 0.24788 0.75010
 C83 C 0.31043 0.22758 0.72834
 C84 C 0.27206 0.23358 0.73211
 H85 H 0.20978 0.28631 0.71453
 H86 H 0.21624 0.23267 0.81206
 H87 H 0.26925 0.29557 0.79994
 H88 H 0.25303 0.21886 0.71536
 H89 H 0.10971 0.26468 0.77761
 H90 H 0.36394 0.24373 0.74628
 C91 C 0.71151 0.80737 0.72447
 C92 C 0.72393 0.78078 0.74597
 C93 C 0.69866 0.75825 0.76395
 C94 C 0.66010 0.76049 0.76006
 C95 C 0.64761 0.78816 0.73852
 C96 C 0.67313 0.81205 0.72043
 C97 C 0.76361 0.77301 0.74686
 C98 C 0.78478 0.78760 0.77390
 C99 C 0.82176 0.77688 0.77714
 C100 C 0.83625 0.74975 0.75337
 C101 C 0.81430 0.73361 0.72717
 C102 C 0.77847 0.74662 0.72343
 H103 H 0.73235 0.82272 0.70938
 H104 H 0.70993 0.73923 0.78152
 H105 H 0.77160 0.80629 0.79299
 H106 H 0.76126 0.73536 0.70298
 H107 H 0.61816 0.79091 0.73562
 H108 H 0.86427 0.74049 0.75562
 C109 C 0.70772 0.29563 0.21234
 C110 C 0.72043 0.27755 0.24102
 C111 C 0.69526 0.25876 0.26316
 C112 C 0.65745 0.25575 0.25582
 C113 C 0.64450 0.27504 0.22743
 C114 C 0.66973 0.29505 0.20552
 C115 C 0.76025 0.27110 0.24360
 C116 C 0.77970 0.28469 0.27234
 C117 C 0.81669 0.27446 0.27664
 C118 C 0.83270 0.24841 0.25257
 C119 C 0.81237 0.23310 0.22486
 C120 C 0.77689 0.24616 0.21969
 H121 H 0.72767 0.30950 0.19486
 H122 H 0.70584 0.24452 0.28499
 H123 H 0.76543 0.30244 0.29161
 H124 H 0.76107 0.23548 0.19797
 H125 H 0.61548 0.27298 0.22120
 H126 H 0.86064 0.23934 0.25574
 C127 C 0.19731 0.78376 0.24386
 C128 C 0.21626 0.76014 0.26444
 C129 C 0.19658 0.73863 0.28899
 C130 C 0.15747 0.74003 0.29322
 C131 C 0.13892 0.76381 0.27188
 C132 C 0.15819 0.78609 0.24717
 C133 C 0.25685 0.75663 0.25916
 C134 C 0.28098 0.77692 0.28027
 C135 C 0.31976 0.77307 0.27560
 C136 C 0.33379 0.74779 0.24981
 C137 C 0.30976 0.72698 0.22855
 C138 C 0.27122 0.73218 0.23326
 H139 H 0.21368 0.80075 0.22601
 H140 H 0.21235 0.72156 0.30517
 H141 H 0.26935 0.79526 0.30060
 H142 H 0.25205 0.71733 0.21677
 H143 H 0.10892 0.76233 0.27205
 H144 H 0.36351 0.74426 0.24640
 O145 O 1.07529 -0.00572 0.04462
 O146 O 0.94470 -0.02158 0.06345
 O147 O 0.99731 0.05047 0.05771
 O148 O 1.02397 -0.07626 0.04582
 O149 O 0.94249 0.04044 0.04310
 O150 O 1.07215 -0.06447 0.01486
 O151 O 0.95869 -0.07419 0.04140
 O152 O 1.05824 0.04835 0.03588
 C153 C 1.07536 0.02667 0.05381
 C154 C 0.94545 -0.05483 0.06674
 C155 C 0.96407 0.05513 0.06406
 C156 C 1.05797 -0.07817 0.04183
 O157 O 1.06004 -0.03198 -0.04508
 O158 O 0.93899 0.01425 -0.02303
 O159 O 1.03246 0.04785 -0.03271
 O160 O 0.96988 -0.06869 -0.03092
 O161 O 0.92499 -0.04538 -0.00104
 O162 O 1.08182 0.02460 -0.01829
 O163 O 1.03220 -0.08113 -0.02877
 O164 O 0.97260 0.06090 -0.00975
 Co165 Co 1.06525 -0.01851 0.00013
 Co166 Co 0.94484 -0.00396 0.01962
 Co167 Co 1.01428 0.04616 0.01243
 Co168 Co 0.99714 -0.06933 0.00732
 O169 O 1.00525 -0.01136 0.00983
 C170 C 1.05072 -0.06377 -0.05199
 C171 C 0.94899 0.04582 -0.02905
 C172 C 1.06608 0.04454 -0.03832
 C173 C 0.93645 -0.06290 -0.02786
 O174 O 1.07051 0.49452 0.54311
 O175 O 0.93971 0.47756 0.56179
 O176 O 0.99369 0.54932 0.55606
 O177 O 1.01804 0.42189 0.54553
 O178 O 0.93842 0.53941 0.54233
 O179 O 1.06684 0.43506 0.51574
 O180 O 0.95271 0.42468 0.54005
 O181 O 1.05439 0.54819 0.53248
 C182 C 1.07143 0.52715 0.55102
 C183 C 0.93966 0.44433 0.56528
 C184 C 0.96050 0.55403 0.56295
 C185 C 1.05224 0.42183 0.54281
 O186 O 1.05517 0.46506 0.45425
 O187 O 0.93499 0.51353 0.47520
 O188 O 1.02656 0.54625 0.46503
 O189 O 0.96516 0.42923 0.46797
 O190 O 0.92037 0.45413 0.49695
 O191 O 1.07615 0.52256 0.47859
 O192 O 1.02790 0.41611 0.47163
 O193 O 0.96746 0.56016 0.48970
 Co194 Co 1.06032 0.48020 0.49902
 Co195 Co 0.94031 0.49528 0.51805
 Co196 Co 1.00962 0.54504 0.51054
 Co197 Co 0.99194 0.42891 0.50662
 O198 O 1.00048 0.48736 0.50856
 C199 C 1.04660 0.43295 0.44817
 C200 C 0.94476 0.54518 0.46957
 C201 C 1.05986 0.54176 0.45824
 C202 C 0.93184 0.43586 0.47055
 O203 O 0.57134 0.02868 0.52501
 O204 O 0.43956 0.00526 0.53030
 O205 O 0.49743 0.08063 0.53016
 O206 O 0.51207 -0.04712 0.52700
 O207 O 0.44254 0.06637 0.51549
 O208 O 0.56757 -0.03339 0.50883
 O209 O 0.45000 -0.04710 0.50826
 O210 O 0.55979 0.07944 0.50479
 C211 C 0.57258 0.06187 0.52871
 C212 C 0.43541 -0.02767 0.53245
 C213 C 0.46361 0.08229 0.53663
 C214 C 0.54571 -0.04893 0.53082
 O215 O 0.56449 -0.01335 0.43846
 O216 O 0.44634 0.04388 0.44481
 O217 O 0.53188 0.07405 0.44023
 O218 O 0.47746 -0.04416 0.44043
 O219 O 0.42979 -0.01527 0.46063
 O220 O 0.58057 0.04678 0.45404
 O221 O 0.53812 -0.05978 0.45995
 O222 O 0.47242 0.09105 0.46529
 Co223 Co 0.56483 0.00802 0.48187
 Co224 Co 0.44584 0.02423 0.48750
 Co225 Co 0.51434 0.07469 0.48511
 Co226 Co 0.49550 -0.04285 0.48389
 O227 O 0.50513 0.01601 0.48467
 C228 C 0.55748 -0.04593 0.43556
 C229 C 0.45302 0.07643 0.44238
 C230 C 0.56458 0.06638 0.43308
 C231 C 0.44471 -0.03597 0.43737
 O232 O 0.57193 0.53224 0.02045
 O233 O 0.44058 0.50803 0.03183
 O234 O 0.49663 0.58438 0.02656
 O235 O 0.51440 0.45744 0.02821
 O236 O 0.44149 0.56838 0.01397
 O237 O 0.56839 0.46997 0.00584
 O238 O 0.45136 0.45496 0.01188
 O239 O 0.55845 0.58257 0.00013
 C240 C 0.57259 0.56548 0.02371
 C241 C 0.43732 0.47524 0.03572
 C242 C 0.46291 0.58532 0.03406
 C243 C 0.54828 0.45852 0.03127
 O244 O 0.56142 0.48782 -0.06441
 O245 O 0.44234 0.54283 -0.05539
 O246 O 0.52899 0.57455 -0.06403
 O247 O 0.47563 0.45525 -0.05720
 O248 O 0.42819 0.48391 -0.03620
 O249 O 0.57836 0.54861 -0.05041
 O250 O 0.53743 0.44167 -0.04006
 O251 O 0.46974 0.59085 -0.03811
 Co252 Co 0.56383 0.51039 -0.02173
 Co253 Co 0.44451 0.52499 -0.01197
 Co254 Co 0.51257 0.57654 -0.01866
 Co255 Co 0.49572 0.45891 -0.01459
 O256 O 0.50415 0.51775 -0.01676
 C257 C 0.55543 0.45496 -0.06570
 C258 C 0.44969 0.57506 -0.05983
 C259 C 0.56177 0.56747 -0.07145
 C260 C 0.44257 0.46287 -0.05944
 C261 C 1.19431 0.12953 0.19553
 C262 C 1.16807 0.11482 0.17277
 C263 C 1.13722 0.13552 0.16454
 C264 C 1.13220 0.16990 0.18057
 C265 C 1.15808 0.18409 0.20373
 C266 C 1.18986 0.16447 0.21086
 C267 C 1.11223 0.12178 0.14005
 C268 C 1.11752 0.08740 0.12401
 C269 C 1.14739 0.06600 0.13354
 C270 C 1.17262 0.07994 0.15767
 C271 C 1.15187 0.03117 0.11835
 C272 C 1.12761 0.01801 0.09321
 C273 C 1.09886 0.03971 0.08242
 C274 C 1.09372 0.07426 0.09819
 H275 H 1.21878 0.11415 0.20031
 H276 H 1.10841 0.18592 0.17499
 H277 H 1.15330 0.21065 0.21589
 H278 H 1.08899 0.13797 0.13317
 H279 H 1.19598 0.06383 0.16437
 H280 H 1.17437 0.01428 0.12559
 H281 H 1.13202 -0.00880 0.08144
 H282 H 1.07149 0.09102 0.09012
 C283 C 1.19145 0.62983 0.69220
 C284 C 1.16534 0.61552 0.66914
 C285 C 1.13422 0.63614 0.66148
 C286 C 1.12898 0.67015 0.67824
 C287 C 1.15483 0.68399 0.70166
 C288 C 1.18669 0.66431 0.70838
 C289 C 1.10918 0.62262 0.63690
 C290 C 1.11470 0.58853 0.62025
 C291 C 1.14504 0.56737 0.62908
 C292 C 1.17028 0.58109 0.65324
 C293 C 1.14994 0.53292 0.61327
 C294 C 1.12540 0.51973 0.58846
 C295 C 1.09583 0.54090 0.57865
 C296 C 1.09058 0.57533 0.59468
 H297 H 1.21606 0.61450 0.69660
 H298 H 1.10505 0.68616 0.67307
 H299 H 1.14996 0.71029 0.71437
 H300 H 1.08565 0.63868 0.63054
 H301 H 1.19391 0.56509 0.65947
 H302 H 1.17292 0.51628 0.61985
 H303 H 1.13022 0.49330 0.57622
 H304 H 1.06788 0.59180 0.58719
 C305 C 0.68589 0.13184 0.69148
 C306 C 0.66845 0.11419 0.66328
 C307 C 0.67890 0.07873 0.65239
 C308 C 0.70738 0.06196 0.66935
 C309 C 0.72568 0.08031 0.69652
 C310 C 0.71520 0.11550 0.70809
 C311 C 0.66109 0.06087 0.62443
 C312 C 0.63395 0.07864 0.60640
 C313 C 0.62447 0.11462 0.61662
 C314 C 0.64120 0.13186 0.64542
 C315 C 0.59876 0.13300 0.59753
 C316 C 0.58258 0.11597 0.56853
 C317 C 0.59086 0.07991 0.55875
 C318 C 0.61653 0.06128 0.57792
 H319 H 0.67646 0.15844 0.70036
 H320 H 0.71606 0.03491 0.66111
 H321 H 0.74852 0.06702 0.70793
 H322 H 0.66881 0.03347 0.61630
 H323 H 0.63360 0.15933 0.65343
 H324 H 0.59148 0.16070 0.60480
 H325 H 0.56322 0.13089 0.55392
 H326 H 0.62344 0.03357 0.57026
 C327 C 0.68865 0.63460 0.18500
 C328 C 0.67118 0.61755 0.15646
 C329 C 0.68192 0.58242 0.14468
 C330 C 0.71075 0.56547 0.16093
 C331 C 0.72898 0.58320 0.18846
 C332 C 0.71809 0.61790 0.20113
 C333 C 0.66397 0.56499 0.11662
 C334 C 0.63626 0.58277 0.09942
 C335 C 0.62647 0.61846 0.11038
 C336 C 0.64351 0.63537 0.13923
 C337 C 0.60002 0.63676 0.09208
 C338 C 0.58323 0.61982 0.06330
 C339 C 0.59180 0.58397 0.05295
 C340 C 0.61840 0.56557 0.07118
 H341 H 0.67908 0.66092 0.19461
 H342 H 0.71969 0.53872 0.15192
 H343 H 0.75207 0.56978 0.19931
 H344 H 0.67190 0.53782 0.10788
 H345 H 0.63566 0.66258 0.14789
 H346 H 0.59245 0.66425 0.09990
 H347 H 0.56306 0.63454 0.04945
 H348 H 0.62551 0.53801 0.06310
 C349 C 0.81841 -0.15996 0.20739
 C350 C 0.83961 -0.14508 0.17892
 C351 C 0.83831 -0.16177 0.14485
 C352 C 0.81505 -0.19210 0.13951
 C353 C 0.79407 -0.20656 0.16777
 C354 C 0.79609 -0.19129 0.20212
 C355 C 0.86037 -0.14806 0.11662
 C356 C 0.88330 -0.11739 0.12168
 C357 C 0.88392 -0.09992 0.15542
 C358 C 0.86239 -0.11411 0.18393
 C359 C 0.90574 -0.06827 0.15986
 C360 C 0.92622 -0.05381 0.13108
 C361 C 0.92615 -0.07136 0.09766
 C362 C 0.90501 -0.10343 0.09326
 H363 H 0.82027 -0.14796 0.23373
 H364 H 0.81336 -0.20490 0.11350
 H365 H 0.77648 -0.23015 0.16278
 H366 H 0.85951 -0.16116 0.09063
 H367 H 0.86320 -0.10097 0.20989
 H368 H 0.90642 -0.05434 0.18543
 H369 H 0.94214 -0.02887 0.13486
 H370 H 0.90424 -0.11666 0.06733
 C371 C 0.81328 0.33940 0.70704
 C372 C 0.83554 0.35348 0.67879
 C373 C 0.84034 0.33295 0.64683
 C374 C 0.82226 0.29931 0.64320
 C375 C 0.80051 0.28540 0.67121
 C376 C 0.79626 0.30454 0.70409
 C377 C 0.86315 0.34623 0.61887
 C378 C 0.88114 0.38010 0.62218
 C379 C 0.87610 0.40106 0.65390
 C380 C 0.85354 0.38753 0.68209
 C381 C 0.89335 0.43541 0.65664
 C382 C 0.91470 0.44912 0.62804
 C383 C 0.91989 0.42844 0.59644
 C384 C 0.90347 0.39365 0.59392
 H385 H 0.81119 0.35489 0.73178
 H386 H 0.82499 0.28357 0.61860
 H387 H 0.78630 0.25974 0.66641
 H388 H 0.86675 0.33025 0.59445
 H389 H 0.84988 0.40355 0.70646
 H390 H 0.88977 0.45195 0.68066
 H391 H 0.92698 0.47608 0.63052
 H392 H 0.90684 0.37772 0.56948
 C393 C 0.31385 -0.12988 0.67803
 C394 C 0.33951 -0.11633 0.65253
 C395 C 0.37160 -0.13624 0.64221
 C396 C 0.37805 -0.16886 0.65858
 C397 C 0.35282 -0.18171 0.68472
 C398 C 0.32021 -0.16260 0.69450
 C399 C 0.39668 -0.12315 0.61582
 C400 C 0.39047 -0.08991 0.60037
 C401 C 0.35900 -0.06944 0.61182
 C402 C 0.33348 -0.08303 0.63736
 C403 C 0.35359 -0.03551 0.59768
 C404 C 0.37900 -0.02194 0.57229
 C405 C 0.40972 -0.04244 0.55993
 C406 C 0.41534 -0.07652 0.57391
 H407 H 0.28862 -0.11505 0.68454
 H408 H 0.40272 -0.18430 0.65136
 H409 H 0.35905 -0.20658 0.69740
 H410 H 0.42108 -0.13864 0.60754
 H411 H 0.30912 -0.06751 0.64569
 H412 H 0.32981 -0.01939 0.60637
 H413 H 0.37423 0.00442 0.56178
 H414 H 0.43929 -0.09216 0.56469
 C415 C 0.31651 0.37426 0.18313
 C416 C 0.34221 0.38754 0.15743
 C417 C 0.37118 0.36533 0.14343
 C418 C 0.37475 0.33063 0.15638
 C419 C 0.34958 0.31777 0.18252
 C420 C 0.31939 0.33896 0.19612
 C421 C 0.39598 0.37813 0.11666
 C422 C 0.39243 0.41318 0.10412
 C423 C 0.36414 0.43582 0.11913
 C424 C 0.33905 0.42277 0.14536
 C425 C 0.36122 0.47121 0.10756
 C426 C 0.38571 0.48398 0.08099
 C427 C 0.41318 0.46143 0.06503
 C428 C 0.41657 0.42601 0.07679
 H429 H 0.29345 0.39134 0.19140
 H430 H 0.39726 0.31343 0.14649
 H431 H 0.35492 0.29139 0.19252
 H432 H 0.41792 0.36083 0.10558
 H433 H 0.31707 0.44005 0.15639
 H434 H 0.33989 0.48899 0.11895
 H435 H 0.38254 0.51137 0.07231
 H436 H 0.43798 0.40865 0.06483
 C437 C 0.82281 0.12939 -0.16948
 C438 C 0.84134 0.11055 -0.14420
 C439 C 0.82530 0.07822 -0.13073
 C440 C 0.79087 0.06559 -0.14238
 C441 C 0.77248 0.08465 -0.16730
 C442 C 0.78825 0.11662 -0.18131
 C443 C 0.84388 0.05903 -0.10583
 C444 C 0.87812 0.07195 -0.09390
 C445 C 0.89403 0.10451 -0.10696
 C446 C 0.87564 0.12350 -0.13222
 C447 C 0.92798 0.11756 -0.09433
 C448 C 0.94592 0.09860 -0.06891
 C449 C 0.93047 0.06604 -0.05606
 C450 C 0.89656 0.05289 -0.06882
 H451 H 0.83565 0.15367 -0.18037
 H452 H 0.77809 0.04098 -0.13213
 H453 H 0.74570 0.07448 -0.17539
 H454 H 0.83162 0.03412 -0.09565
 H455 H 0.88790 0.14840 -0.14239
 H456 H 0.94055 0.14252 -0.10397
 H457 H 0.97199 0.10927 -0.05946
 H458 H 0.88410 0.02809 -0.05877
 C459 C 0.82172 0.63063 0.32760
 C460 C 0.84045 0.61077 0.35200
 C461 C 0.82781 0.57541 0.36016
 C462 C 0.79666 0.56059 0.34392
 C463 C 0.77822 0.58038 0.31960
 C464 C 0.79034 0.61579 0.31072
 C465 C 0.84648 0.55541 0.38440
 C466 C 0.87767 0.57038 0.40069
 C467 C 0.89046 0.60575 0.39255
 C468 C 0.87184 0.62569 0.36817
 C469 C 0.92153 0.62062 0.40915
 C470 C 0.93946 0.60083 0.43394
 C471 C 0.92681 0.56573 0.44237
 C472 C 0.89605 0.55060 0.42530
 H473 H 0.83304 0.65703 0.32074
 H474 H 0.78637 0.53362 0.35018
 H475 H 0.75355 0.56800 0.30890
 H476 H 0.83668 0.52824 0.39065
 H477 H 0.88166 0.65284 0.36192
 H478 H 0.93177 0.64768 0.40319
 H479 H 0.96315 0.61306 0.44662
 H480 H 0.88595 0.52362 0.43159
 C481 C 0.32276 0.16604 0.31040
 C482 C 0.34275 0.14550 0.33316
 C483 C 0.32793 0.11196 0.34466
 C484 C 0.29315 0.09987 0.33381
 C485 C 0.27292 0.12085 0.31190
 C486 C 0.28723 0.15439 0.29952
 C487 C 0.34787 0.09120 0.36718
 C488 C 0.38204 0.10409 0.37916
 C489 C 0.39671 0.13799 0.36826
 C490 C 0.37724 0.15823 0.34483
 C491 C 0.43027 0.15126 0.38153
 C492 C 0.44880 0.13132 0.40576
 C493 C 0.43452 0.09746 0.41628
 C494 C 0.40134 0.08386 0.40255
 H495 H 0.33595 0.19055 0.30054
 H496 H 0.28116 0.07441 0.34284
 H497 H 0.24539 0.11090 0.30614
 H498 H 0.33651 0.06533 0.37587
 H499 H 0.38853 0.18417 0.33629
 H500 H 0.44185 0.17727 0.37359
 H501 H 0.47432 0.14225 0.41619
 H502 H 0.38988 0.05794 0.41094
 C503 C 0.32037 0.66296 -0.19359
 C504 C 0.34030 0.64225 -0.17098
 C505 C 0.32507 0.60906 -0.15897
 C506 C 0.29000 0.59738 -0.16947
 C507 C 0.26983 0.61856 -0.19130
 C508 C 0.28444 0.65193 -0.20383
 C509 C 0.34487 0.58836 -0.13623
 C510 C 0.37925 0.60104 -0.12452
 C511 C 0.39435 0.63452 -0.13616
 C512 C 0.37508 0.65461 -0.15982
 C513 C 0.42807 0.64773 -0.12328
 C514 C 0.44626 0.62829 -0.09850
 C515 C 0.43153 0.59494 -0.08700
 C516 C 0.39829 0.58119 -0.10055
 H517 H 0.33383 0.68720 -0.20379
 H518 H 0.27772 0.57216 -0.16016
 H519 H 0.24208 0.60902 -0.19679
 H520 H 0.33316 0.56281 -0.12704
 H521 H 0.38668 0.68027 -0.16881
 H522 H 0.43996 0.67340 -0.13182
 H523 H 0.47181 0.63934 -0.08826
 H524 H 0.38654 0.55563 -0.09148
 C525 C 1.18339 -0.15187 -0.19971
 C526 C 1.16172 -0.13016 -0.17608
 C527 C 1.17687 -0.09726 -0.16249
 C528 C 1.21341 -0.08677 -0.17261
 C529 C 1.23525 -0.10921 -0.19518
 C530 C 1.22065 -0.14214 -0.20877
 C531 C 1.15573 -0.07597 -0.13810
 C532 C 1.12036 -0.08803 -0.12585
 C533 C 1.10521 -0.12109 -0.13911
 C534 C 1.12566 -0.14153 -0.16486
 C535 C 1.07057 -0.13378 -0.12528
 C536 C 1.05194 -0.11468 -0.09745
 C537 C 1.06714 -0.08208 -0.08397
 C538 C 1.10078 -0.06838 -0.09911
 H539 H 1.17129 -0.17667 -0.21059
 H540 H 1.22549 -0.06173 -0.16223
 H541 H 1.26390 -0.10114 -0.20119
 H542 H 1.16743 -0.05078 -0.12754
 H543 H 1.11420 -0.16699 -0.17501
 H544 H 1.05858 -0.15910 -0.13508
 H545 H 1.02602 -0.12563 -0.08609
 H546 H 1.11299 -0.04344 -0.08856
 C547 C 1.18202 0.34738 0.30068
 C548 C 1.15975 0.36841 0.32445
 C549 C 1.17366 0.40204 0.33752
 C550 C 1.20961 0.41389 0.32683
 C551 C 1.23214 0.39212 0.30423
 C552 C 1.21879 0.35849 0.29107
 C553 C 1.15194 0.42274 0.36195
 C554 C 1.11723 0.40942 0.37475
 C555 C 1.10336 0.37559 0.36211
 C556 C 1.12436 0.35567 0.33632
 C557 C 1.06940 0.36176 0.37648
 C558 C 1.05012 0.38065 0.40409
 C559 C 1.06397 0.41413 0.41684
 C560 C 1.09704 0.42875 0.40131
 H561 H 1.17081 0.32202 0.29017
 H562 H 1.22076 0.43951 0.33684
 H563 H 1.26039 0.40127 0.29794
 H564 H 1.16267 0.44853 0.37206
 H565 H 1.11386 0.32964 0.32660
 H566 H 1.05839 0.33581 0.36718
 H567 H 1.02469 0.36897 0.41573
 H568 H 1.10826 0.45439 0.41126
 C569 C 0.69222 -0.16147 0.30795
 C570 C 0.66848 -0.14538 0.33439
 C571 C 0.66856 -0.15744 0.36941
 C572 C 0.69284 -0.18481 0.37755
 C573 C 0.71633 -0.20060 0.35119
 C574 C 0.71599 -0.18954 0.31604
 C575 C 0.64447 -0.14196 0.39578
 C576 C 0.62074 -0.11399 0.38780
 C577 C 0.62106 -0.10150 0.35288
 C578 C 0.64456 -0.11755 0.32634
 C579 C 0.59851 -0.07250 0.34527
 C580 C 0.57679 -0.05527 0.37216
 C581 C 0.57621 -0.06752 0.40683
 C582 C 0.59764 -0.09740 0.41443
 H583 H 0.69137 -0.15290 0.28094
 H584 H 0.69352 -0.19419 0.40429
 H585 H 0.73469 -0.22178 0.35829
 H586 H 0.64458 -0.15133 0.42259
 H587 H 0.64462 -0.10803 0.29957
 H588 H 0.59853 -0.06241 0.31875
 H589 H 0.56079 -0.03194 0.36604
 H590 H 0.59794 -0.10630 0.44138
 C591 C 0.69242 0.33955 -0.19137
 C592 C 0.66879 0.35607 -0.16505
 C593 C 0.67051 0.34599 -0.12950
 C594 C 0.69626 0.32019 -0.12075
 C595 C 0.71944 0.30381 -0.14700
 C596 C 0.71747 0.31285 -0.18260
 C597 C 0.64644 0.36170 -0.10325
 C598 C 0.62093 0.38785 -0.11191
 C599 C 0.61955 0.39837 -0.14738
 C600 C 0.64319 0.38217 -0.17374
 C601 C 0.59510 0.42556 -0.15575
 C602 C 0.57314 0.44298 -0.12914
 C603 C 0.57424 0.43270 -0.09392
 C604 C 0.59765 0.40459 -0.08549
 H605 H 0.69036 0.34647 -0.21875
 H606 H 0.69817 0.31232 -0.09363
 H607 H 0.73869 0.28357 -0.13953
 H608 H 0.64781 0.35384 -0.07603
 H609 H 0.64193 0.39015 -0.20093
 H610 H 0.59379 0.43413 -0.18271
 H611 H 0.55565 0.46501 -0.13594
 H612 H 0.59929 0.39728 -0.05815
 C613 C 1.15677 0.19251 -0.16311
 C614 C 1.13627 0.16973 -0.14008
 C615 C 1.10028 0.17968 -0.12722
 C616 C 1.08580 0.21260 -0.13683
 C617 C 1.10605 0.23488 -0.16016
 C618 C 1.14154 0.22492 -0.17449
 C619 C 1.07912 0.15637 -0.10533
 C620 C 1.09351 0.12315 -0.09614
 C621 C 1.12973 0.11331 -0.10858
 C622 C 1.15086 0.13663 -0.13054
 C623 C 1.14424 0.08035 -0.09868
 C624 C 1.12325 0.05759 -0.07626
 C625 C 1.08723 0.06715 -0.06391
 C626 C 1.07235 0.09979 -0.07431
 H627 H 1.18343 0.18327 -0.17404
 H628 H 1.05849 0.22095 -0.12669
 H629 H 1.09379 0.26026 -0.16641
 H630 H 1.05140 0.16398 -0.09562
 H631 H 1.17853 0.12895 -0.14032
 H632 H 1.17196 0.07239 -0.10793
 H633 H 1.13521 0.03255 -0.06844
 H634 H 1.04473 0.10756 -0.06451
 C635 C 1.15062 0.68386 0.32721
 C636 C 1.12946 0.66124 0.34994
 C637 C 1.09393 0.67216 0.36326
 C638 C 1.08039 0.70561 0.35415
 C639 C 1.10154 0.72803 0.33172
 C640 C 1.13689 0.71755 0.31732
 C641 C 1.07254 0.64963 0.38572
 C642 C 1.08646 0.61647 0.39555
 C643 C 1.12214 0.60550 0.38253
 C644 C 1.14326 0.62779 0.35950
 C645 C 1.13630 0.57272 0.39332
 C646 C 1.11570 0.55151 0.41748
 C647 C 1.08034 0.56237 0.43061
 C648 C 1.06559 0.59455 0.41898
 H649 H 1.17699 0.67408 0.31615
 H650 H 1.05344 0.71464 0.36461
 H651 H 1.09027 0.75422 0.32674
 H652 H 1.04526 0.65812 0.39590
 H653 H 1.17060 0.61936 0.34945
 H654 H 1.16358 0.56387 0.38365
 H655 H 1.12751 0.52674 0.42614
 H656 H 1.03845 0.60330 0.42929
 C657 C 0.64753 0.19756 0.28777
 C658 C 0.62692 0.17535 0.31112
 C659 C 0.59035 0.18497 0.32241
 C660 C 0.57502 0.21648 0.30979
 C661 C 0.59628 0.23913 0.28733
 C662 C 0.63304 0.23035 0.27672
 C663 C 0.57018 0.16350 0.34685
 C664 C 0.58665 0.13333 0.36099
 C665 C 0.62323 0.12370 0.34972
 C666 C 0.64291 0.14442 0.32433
 C667 C 0.63984 0.09413 0.36482
 C668 C 0.62076 0.07490 0.39161
 C669 C 0.58456 0.08452 0.40322
 C670 C 0.56748 0.11337 0.38716
 H671 H 0.67539 0.18967 0.27889
 H672 H 0.54697 0.22420 0.31816
 H673 H 0.58440 0.26408 0.27925
 H674 H 0.54215 0.17094 0.35572
 H675 H 0.67110 0.13723 0.31578
 H676 H 0.66789 0.08642 0.35646
 H677 H 0.63440 0.05276 0.40347
 H678 H 0.53959 0.12126 0.39593
 C679 C 0.64818 0.70126 -0.21248
 C680 C 0.62653 0.67857 -0.19041
 C681 C 0.59027 0.68882 -0.17898
 C682 C 0.57612 0.72128 -0.19058
 C683 C 0.59838 0.74443 -0.21173
 C684 C 0.63544 0.73555 -0.22205
 C685 C 0.56926 0.66696 -0.15542
 C686 C 0.58472 0.63570 -0.14229
 C687 C 0.62096 0.62533 -0.15400
 C688 C 0.64133 0.64644 -0.17857
 C689 C 0.63670 0.59473 -0.13998
 C690 C 0.61725 0.57528 -0.11361
 C691 C 0.58146 0.58565 -0.10142
 C692 C 0.56505 0.61543 -0.11658
 H693 H 0.67519 0.69171 -0.22209
 H694 H 0.54823 0.72948 -0.18216
 H695 H 0.58691 0.77017 -0.21791
 H696 H 0.54147 0.67495 -0.14633
 H697 H 0.66930 0.63868 -0.18731
 H698 H 0.66447 0.58646 -0.14869
 H699 H 0.63037 0.55243 -0.10244
 H700 H 0.53752 0.62389 -0.10727
 C701 C 0.83706 -0.17201 -0.17955
 C702 C 0.85715 -0.15746 -0.15147
 C703 C 0.88651 -0.17730 -0.13869
 C704 C 0.89408 -0.21197 -0.15297
 C705 C 0.87282 -0.22697 -0.17974
 C706 C 0.84433 -0.20712 -0.19389
 C707 C 0.90769 -0.16232 -0.11168
 C708 C 0.89902 -0.12825 -0.09639
 C709 C 0.86843 -0.10911 -0.10778
 C710 C 0.84808 -0.12354 -0.13576
 C711 C 0.85884 -0.07587 -0.09095
 C712 C 0.87993 -0.06139 -0.06364
 C713 C 0.91146 -0.07942 -0.05363
 C714 C 0.92062 -0.11300 -0.06987
 H715 H 0.81592 -0.15566 -0.19018
 H716 H 0.91607 -0.22780 -0.14299
 H717 H 0.87860 -0.25445 -0.18880
 H718 H 0.93074 -0.17726 -0.10239
 H719 H 0.82505 -0.10859 -0.14504
 H720 H 0.83519 -0.06102 -0.09901
 H721 H 0.87237 -0.03563 -0.05114
 H722 H 0.94468 -0.12728 -0.06181
 C723 C 0.83050 0.32510 0.32095
 C724 C 0.85062 0.33982 0.34897
 C725 C 0.87984 0.31994 0.36200
 C726 C 0.88712 0.28504 0.34818
 C727 C 0.86604 0.27002 0.32130
 C728 C 0.83798 0.29002 0.30666
 C729 C 0.90133 0.33519 0.38865
 C730 C 0.89323 0.36965 0.40329
 C731 C 0.86272 0.38884 0.39177
 C732 C 0.84196 0.37405 0.36421
 C733 C 0.85367 0.42249 0.40803
 C734 C 0.87518 0.43729 0.43489
 C735 C 0.90668 0.41922 0.44495
 C736 C 0.91531 0.38524 0.42929
 H737 H 0.80944 0.34137 0.31007
 H738 H 0.90893 0.26916 0.35841
 H739 H 0.87178 0.24250 0.31233
 H740 H 0.92429 0.32021 0.39806
 H741 H 0.81904 0.38906 0.35477
 H742 H 0.83008 0.43738 0.39991
 H743 H 0.86790 0.46328 0.44707
 H744 H 0.93927 0.37088 0.43745
 C745 C 0.33745 -0.16882 0.30825
 C746 C 0.36143 -0.14837 0.32970
 C747 C 0.39441 -0.16400 0.34041
 C748 C 0.40259 -0.19983 0.32990
 C749 C 0.37830 -0.22016 0.30914
 C750 C 0.34551 -0.20499 0.29789
 C751 C 0.41841 -0.14382 0.36189
 C752 C 0.40941 -0.10847 0.37363
 C753 C 0.37622 -0.09291 0.36332
 C754 C 0.35271 -0.11276 0.34100
 C755 C 0.36672 -0.05804 0.37622
 C756 C 0.38935 -0.03918 0.39983
 C757 C 0.42235 -0.05444 0.41022
 C758 C 0.43256 -0.08887 0.39645
 H759 H 0.31261 -0.15644 0.29953
 H760 H 0.42759 -0.21233 0.33814
 H761 H 0.38501 -0.24807 0.30239
 H762 H 0.44370 -0.15589 0.37006
 H763 H 0.32728 -0.10079 0.33306
 H764 H 0.34136 -0.04570 0.36869
 H765 H 0.38094 -0.01274 0.41019
 H766 H 0.45772 -0.10110 0.40469
 C767 C 0.33479 0.32936 -0.18818
 C768 C 0.35901 0.35020 -0.16725
 C769 C 0.39449 0.33700 -0.16087
 C770 C 0.40513 0.30323 -0.17540
 C771 C 0.38096 0.28256 -0.19602
 C772 C 0.34521 0.29503 -0.20302
 C773 C 0.41867 0.35754 -0.13979
 C774 C 0.40763 0.39107 -0.12459
 C775 C 0.37212 0.40440 -0.13099
 C776 C 0.34818 0.38406 -0.15251
 C777 C 0.36090 0.43759 -0.11522
 C778 C 0.38418 0.45694 -0.09258
 C779 C 0.41938 0.44380 -0.08571
 C780 C 0.43120 0.41108 -0.10239
 H781 H 0.30840 0.34089 -0.19375
 H782 H 0.43211 0.29250 -0.17044
 H783 H 0.39025 0.25603 -0.20505
 H784 H 0.44586 0.34721 -0.13483
 H785 H 0.32092 0.39431 -0.15732
 H786 H 0.33380 0.44826 -0.11985
 H787 H 0.37449 0.48208 -0.08014
 H788 H 0.45819 0.40052 -0.09710
 C789 C 1.15280 -0.18144 0.19162
 C790 C 1.13182 -0.16130 0.16925
 C791 C 1.09571 -0.15021 0.18055
 C792 C 1.08165 -0.15842 0.21443
 C793 C 1.10260 -0.17841 0.23659
 C794 C 1.13827 -0.19114 0.22544
 C795 C 1.07406 -0.13142 0.15772
 C796 C 1.08814 -0.12351 0.12363
 C797 C 1.12466 -0.13383 0.11260
 C798 C 1.14620 -0.15273 0.13541
 C799 C 1.13898 -0.12526 0.07880
 C800 C 1.11724 -0.10693 0.05598
 C801 C 1.08065 -0.09727 0.06638
 C802 C 1.06625 -0.10554 0.10033
 H803 H 1.17950 -0.19120 0.18141
 H804 H 1.05429 -0.14951 0.22382
 H805 H 1.09076 -0.18304 0.26288
 H806 H 1.04618 -0.12326 0.16634
 H807 H 1.17402 -0.16101 0.12672
 H808 H 1.16696 -0.13278 0.06997
 H809 H 1.12896 -0.10067 0.02997
 H810 H 1.03819 -0.09777 0.10868
 C811 C 1.14771 0.32186 0.69458
 C812 C 1.12596 0.33619 0.66883
 C813 C 1.08902 0.32336 0.66526
 C814 C 1.07507 0.29523 0.68626
 C815 C 1.09734 0.28009 0.71077
 C816 C 1.13368 0.29365 0.71594
 C817 C 1.06675 0.33851 0.64045
 C818 C 1.08148 0.36530 0.61810
 C819 C 1.11905 0.37683 0.62047
 C820 C 1.14078 0.36282 0.64631
 C821 C 1.13444 0.40185 0.59660
 C822 C 1.11279 0.41547 0.57077
 C823 C 1.07499 0.40559 0.56924
 C824 C 1.05943 0.38039 0.59300
 H825 H 1.17541 0.33299 0.69804
 H826 H 1.04709 0.28450 0.68336
 H827 H 1.08593 0.25738 0.72535
 H828 H 1.03820 0.32904 0.63818
 H829 H 1.16939 0.37216 0.64847
 H830 H 1.16332 0.41056 0.59764
 H831 H 1.12555 0.43419 0.55217
 H832 H 1.03045 0.37208 0.59153
 C833 C 0.62796 -0.16546 0.67939
 C834 C 0.61840 -0.14062 0.65413
 C835 C 0.64194 -0.11044 0.64663
 C836 C 0.67421 -0.10508 0.66528
 C837 C 0.68372 -0.12989 0.69023
 C838 C 0.66134 -0.16114 0.69731
 C839 C 0.63301 -0.08630 0.62045
 C840 C 0.60062 -0.09197 0.60168
 C841 C 0.57681 -0.12194 0.60982
 C842 C 0.58588 -0.14602 0.63575
 C843 C 0.54410 -0.12747 0.59195
 C844 C 0.53478 -0.10358 0.56636
 C845 C 0.55811 -0.07378 0.55758
 C846 C 0.59135 -0.06819 0.57513
 H847 H 0.61027 -0.18923 0.68313
 H848 H 0.69232 -0.08173 0.66047
 H849 H 0.70851 -0.12382 0.70446
 H850 H 0.65127 -0.06328 0.61463
 H851 H 0.56762 -0.16906 0.64155
 H852 H 0.52553 -0.15021 0.59789
 H853 H 0.50911 -0.10867 0.55314
 H854 H 0.60931 -0.04512 0.56878
 C855 C 0.62855 0.33869 0.17723
 C856 C 0.61984 0.35905 0.14809
 C857 C 0.63997 0.35387 0.11533
 C858 C 0.66824 0.32826 0.11219
 C859 C 0.67700 0.30850 0.14133
 C860 C 0.65756 0.31373 0.17415
 C861 C 0.63162 0.37436 0.08625
 C862 C 0.60311 0.39980 0.08935
 C863 C 0.58295 0.40491 0.12213
 C864 C 0.59159 0.38472 0.15128
 C865 C 0.55383 0.42957 0.12504
 C866 C 0.54382 0.44800 0.09553
 C867 C 0.56327 0.44287 0.06275
 C868 C 0.59355 0.41938 0.05993
 H869 H 0.61367 0.34308 0.20254
 H870 H 0.68387 0.32379 0.08730
 H871 H 0.69931 0.28920 0.13833
 H872 H 0.64703 0.37022 0.06116
 H873 H 0.57606 0.38872 0.17632
 H874 H 0.53806 0.43382 0.14989
 H875 H 0.52023 0.46586 0.09810
 H876 H 0.60819 0.41485 0.03452
 C877 C 0.86450 0.19884 0.19272
 C878 C 0.87719 0.16930 0.17147
 C879 C 0.85150 0.14270 0.15943
 C880 C 0.81384 0.14525 0.16999
 C881 C 0.80157 0.17421 0.19170
 C882 C 0.82650 0.20180 0.20271
 C883 C 0.86375 0.11411 0.13685
 C884 C 0.90150 0.11149 0.12641
 C885 C 0.92744 0.13724 0.13962
 C886 C 0.91511 0.16608 0.16187
 C887 C 0.96528 0.13403 0.12986
 C888 C 0.97717 0.10634 0.10635
 C889 C 0.95145 0.08154 0.09188
 C890 C 0.91365 0.08391 0.10247
 H891 H 0.88413 0.21976 0.20084
 H892 H 0.79386 0.12481 0.16152
 H893 H 0.77236 0.17480 0.20001
 H894 H 0.84388 0.09413 0.12714
 H895 H 0.93496 0.18615 0.17143
 H896 H 0.98560 0.15331 0.13992
 H897 H 1.00646 0.10513 0.09854
 H898 H 0.89369 0.06472 0.09163
 C899 C 0.86509 0.69887 0.69349
 C900 C 0.87695 0.66913 0.67209
 C901 C 0.85080 0.64242 0.66122
 C902 C 0.81352 0.64509 0.67315
 C903 C 0.80208 0.67425 0.69507
 C904 C 0.82747 0.70194 0.70492
 C905 C 0.86223 0.61363 0.63843
 C906 C 0.89965 0.61093 0.62670
 C907 C 0.92606 0.63681 0.63881
 C908 C 0.91453 0.66585 0.66118
 C909 C 0.96358 0.63357 0.62788
 C910 C 0.97471 0.60568 0.60429
 C911 C 0.94854 0.58068 0.59088
 C912 C 0.91103 0.58311 0.60261
 H913 H 0.88507 0.71988 0.70059
 H914 H 0.79319 0.62457 0.66560
 H915 H 0.77319 0.67492 0.70444
 H916 H 0.84199 0.59356 0.62960
 H917 H 0.93475 0.68602 0.66987
 H918 H 0.98425 0.65297 0.63708
 H919 H 1.00374 0.60449 0.59556
 H920 H 0.89072 0.56379 0.59258
 C921 C 0.35988 0.20509 0.68373
 C922 C 0.37363 0.17902 0.65887
 C923 C 0.35207 0.14759 0.65105
 C924 C 0.31761 0.14224 0.66917
 C925 C 0.30451 0.16785 0.69454
 C926 C 0.32518 0.19986 0.70189
 C927 C 0.36533 0.12206 0.62534
 C928 C 0.40030 0.12723 0.60787
 C929 C 0.42232 0.15813 0.61674
 C930 C 0.40870 0.18396 0.64179
 C931 C 0.45769 0.16286 0.60032
 C932 C 0.47106 0.13754 0.57502
 C933 C 0.44921 0.10721 0.56516
 C934 C 0.41371 0.10213 0.58170
 H935 H 0.37608 0.22968 0.68844
 H936 H 0.30086 0.11810 0.66392
 H937 H 0.27821 0.16232 0.70862
 H938 H 0.34854 0.09819 0.61903
 H939 H 0.42549 0.20784 0.64809
 H940 H 0.47497 0.18627 0.60690
 H941 H 0.49825 0.14230 0.56235
 H942 H 0.39678 0.07870 0.57436
 C943 C 0.35920 0.70553 0.18337
 C944 C 0.37310 0.67993 0.15808
 C945 C 0.35182 0.64839 0.15001
 C946 C 0.31753 0.64246 0.16826
 C947 C 0.30430 0.66761 0.19401
 C948 C 0.32465 0.69973 0.20165
 C949 C 0.36517 0.62332 0.12391
 C950 C 0.39994 0.62907 0.10626
 C951 C 0.42172 0.66006 0.11532
 C952 C 0.40801 0.68543 0.14081
 C953 C 0.45692 0.66530 0.09866
 C954 C 0.47034 0.64039 0.07293
 C955 C 0.44866 0.61001 0.06288
 C956 C 0.41338 0.60443 0.07970
 H957 H 0.37519 0.73021 0.18832
 H958 H 0.30101 0.61821 0.16280
 H959 H 0.27814 0.66160 0.20816
 H960 H 0.34858 0.59936 0.11742
 H961 H 0.42460 0.70939 0.14730
 H962 H 0.47404 0.68877 0.10540
 H963 H 0.49742 0.64548 0.06014
 H964 H 0.39658 0.58096 0.07224
   
