data_POSCAR
  _audit_creation_date              2014-09-24
  _audit_creation_method            'ToBaCCo'
  _symmetry_space_group_name_H-M    'P1'
  _symmetry_Int_Tables_number       1
  _symmetry_cell_setting            triclinic
  loop_
  _symmetry_equiv_pos_as_xyz
 x,y,z
_cell_length_a 15.6029
_cell_length_b 15.5236
_cell_length_c 16.5505
_cell_angle_alpha 90.013100
_cell_angle_beta 90.354600
_cell_angle_gamma 91.414000
loop_
  _atom_site_label
  _atom_site_type_symbol
  _atom_site_fract_x
  _atom_site_fract_y
  _atom_site_fract_z
C1 C 0.45853 0.99123 -0.57738
 C2 C 0.54984 1.00727 -0.57479
 C3 C 0.58594 1.02706 -0.49781
 C4 C 0.54536 1.00851 -0.42298
 C5 C 0.45454 0.99144 -0.42566
 C6 C 0.41781 0.97325 -0.50241
 H7 H 0.35097 0.95237 -0.50415
 H8 H 0.65238 1.04940 -0.49558
 C9 C -0.57868 1.47538 -0.04206
 C10 C -0.57308 1.54622 0.01176
 C11 C -0.49934 1.55770 0.05904
 C12 C -0.42127 1.52457 0.03300
 C13 C -0.42634 1.45410 -0.02105
 C14 C -0.50051 1.44160 -0.06765
 H15 H -0.50070 1.38890 -0.11043
 H16 H -0.49888 1.60936 0.10296
 C17 C -0.00270 0.45041 0.42497
 C18 C 0.00119 0.54236 0.42290
 C19 C 0.01269 0.58512 0.49757
 C20 C 0.00979 0.54559 0.57454
 C21 C -0.01622 0.45593 0.57627
 C22 C -0.01996 0.41257 0.50098
 H23 H -0.03307 0.34407 0.50119
 H24 H 0.02079 0.65418 0.49472
 O25 O -0.22448 0.98855 -0.10438
 O26 O 0.22066 1.01078 -0.10898
 O27 O -0.01063 1.12161 -0.20508
 O28 O 0.00410 0.88265 -0.20746
 O29 O 0.01210 0.78005 -0.10712
 O30 O -0.01485 1.22287 -0.10311
 O31 O 0.11565 1.00549 -0.20822
 O32 O -0.12303 0.99918 -0.20539
 Zr33 Zr -0.00249 1.00147 -0.14324
 O34 O 0.07982 0.92924 -0.07438
 O35 O -0.08165 1.07280 -0.07127
 C36 C -0.20211 0.99400 -0.17961
 C37 C 0.19564 1.00830 -0.18385
 C38 C -0.01606 1.20051 -0.17836
 C39 C 0.01126 0.80349 -0.18199
 H40 H 0.10710 1.12180 -0.10782
 O41 O 0.07303 1.08249 -0.07289
 H42 H -0.11145 0.87952 -0.10688
 O43 O -0.07588 0.91899 -0.07292
 O44 O 0.22475 1.01576 0.10698
 O45 O -0.22050 0.98653 0.11134
 O46 O 0.10364 1.22789 0.00222
 O47 O 0.12201 0.78940 -0.00448
 O48 O -0.10272 0.77318 0.00241
 O49 O -0.12197 1.21126 0.00057
 O50 O 0.00571 1.11781 0.20966
 O51 O 0.00167 0.87893 0.20717
 O52 O -0.00188 1.22131 0.11004
 O53 O 0.00487 0.77767 0.10524
 O54 O 0.21413 1.13247 -0.00082
 O55 O -0.22440 1.10187 -0.00069
 O56 O -0.21298 0.86853 0.00872
 O57 O 0.22465 0.89856 -0.00254
 O58 O 0.12357 1.00442 0.20819
 O59 O -0.11538 0.99249 0.21046
 Zr60 Zr 0.15107 1.01047 -0.00022
 Zr61 Zr -0.15053 0.99045 0.00277
 Zr62 Zr -0.00556 1.14893 0.00255
 Zr63 Zr 0.00614 0.85226 -0.00041
 Zr64 Zr 0.00293 0.99928 0.14546
 O65 O -0.07303 0.91784 0.07536
 O66 O 0.07676 1.08235 0.07550
 C67 C 0.20263 1.01120 0.18231
 C68 C -0.19546 0.98802 0.18622
 C69 C 0.18353 1.20948 -0.00060
 C70 C 0.20017 0.81823 -0.00383
 C71 C -0.18239 0.79160 0.00781
 C72 C -0.20006 1.18214 -0.00201
 C73 C 0.00440 1.19746 0.18472
 C74 C 0.00084 0.79981 0.18037
 H75 H -0.11540 1.10737 0.11083
 O76 O -0.07870 1.07177 0.07639
 H77 H 0.11922 0.89220 0.10721
 O78 O 0.08170 0.92813 0.07351
 C79 C 0.39884 1.00041 0.35370
 C80 C 0.42757 1.04086 0.27263
 C81 C 0.36385 1.04369 0.21521
 C82 C 0.27538 1.00901 0.24416
 C83 C 0.29240 0.91774 0.27426
 C84 C 0.35618 0.91314 0.33038
 C85 C 0.32295 1.05888 0.37590
 C86 C 0.25883 1.06180 0.32009
 H87 H 0.48786 1.07482 0.26320
 H88 H 0.37351 1.07625 0.15782
 H89 H 0.25820 0.86080 0.25179
 H90 H 0.37592 0.85198 0.35530
 H91 H 0.32389 1.10185 0.42747
 H92 H 0.20551 1.10454 0.32629
 C93 C -0.38790 0.99791 0.35907
 C94 C -0.41250 0.94264 0.28448
 C95 C -0.34981 0.93972 0.22685
 C96 C -0.26607 0.98979 0.24935
 C97 C -0.29456 1.08140 0.26836
 C98 C -0.35698 1.08569 0.32529
 C99 C -0.30388 0.95411 0.38694
 C100 C -0.24074 0.95196 0.33095
 H101 H -0.47034 0.90281 0.27994
 H102 H -0.35665 0.89954 0.17339
 H103 H -0.26758 1.13855 0.23933
 H104 H -0.38303 1.14664 0.34423
 H105 H -0.29631 0.92135 0.44397
 H106 H -0.18031 0.92136 0.34275
 C107 C -0.39565 1.00075 -0.35350
 C108 C -0.42471 0.95861 -0.27331
 C109 C -0.36199 0.95730 -0.21478
 C110 C -0.27412 0.99509 -0.24206
 C111 C -0.25442 0.94347 -0.31808
 C112 C -0.31765 0.94484 -0.37481
 C113 C -0.35622 1.08906 -0.32892
 C114 C -0.29349 1.08601 -0.27162
 H115 H -0.48420 0.92266 -0.26540
 H116 H -0.37169 0.92406 -0.15776
 H117 H -0.19983 0.90182 -0.32346
 H118 H -0.31695 0.90123 -0.42577
 H119 H -0.37787 1.14975 -0.35334
 H120 H -0.26249 1.14382 -0.24725
 C121 C 0.38837 1.00046 -0.35608
 C122 C 0.30498 1.04501 -0.38396
 C123 C 0.24162 1.04714 -0.32797
 C124 C 0.26621 1.00710 -0.24692
 C125 C 0.29409 0.91568 -0.26742
 C126 C 0.35687 0.91223 -0.32404
 C127 C 0.41296 1.05395 -0.28053
 C128 C 0.35012 1.05611 -0.22315
 H129 H 0.29846 1.07877 -0.44069
 H130 H 0.18226 1.08050 -0.33869
 H131 H 0.26656 0.85810 -0.23958
 H132 H 0.38274 0.85161 -0.34406
 H133 H 0.47096 1.09341 -0.27522
 H134 H 0.35701 1.09522 -0.16901
 C135 C 0.35289 1.41135 -0.03310
 C136 C 0.37441 1.35124 0.03861
 C137 C 0.31843 1.28445 0.04956
 C138 C 0.24442 1.28354 -0.01077
 C139 C 0.20446 1.37304 -0.00292
 C140 C 0.26080 1.43972 -0.01515
 C141 C 0.34042 1.35132 -0.10709
 C142 C 0.28509 1.28405 -0.09471
 H143 H 0.42844 1.36225 0.07937
 H144 H 0.32477 1.23848 0.09856
 H145 H 0.13686 1.38375 0.00715
 H146 H 0.23705 1.50386 -0.01820
 H147 H 0.36750 1.36416 -0.16627
 H148 H 0.26715 1.23891 -0.14242
 C149 C 0.36837 0.62248 0.00533
 C150 C 0.30228 0.62197 0.07324
 C151 C 0.24795 0.68833 0.06977
 C152 C 0.26488 0.75040 -0.00102
 C153 C 0.35868 0.77980 0.00881
 C154 C 0.41325 0.71293 0.01166
 C155 C 0.31793 0.62858 -0.07485
 C156 C 0.26283 0.69461 -0.07742
 H157 H 0.29902 0.57362 0.12060
 H158 H 0.19832 0.69697 0.11457
 H159 H 0.38073 0.84659 0.01213
 H160 H 0.48166 0.72454 0.01726
 H161 H 0.32663 0.58647 -0.12635
 H162 H 0.22499 0.70888 -0.13083
 C163 C -0.35226 0.58834 0.02725
 C164 C -0.37501 0.65535 -0.03828
 C165 C -0.31896 0.72276 -0.04433
 C166 C -0.24345 0.71730 0.01414
 C167 C -0.28195 0.70852 0.09853
 C168 C -0.33752 0.64054 0.10598
 C169 C -0.26103 0.56162 0.00368
 C170 C -0.20442 0.62893 -0.00313
 H171 H -0.42918 0.64796 -0.07950
 H172 H -0.32571 0.77297 -0.08943
 H173 H -0.26315 0.74909 0.14942
 H174 H -0.36461 0.62251 0.16402
 H175 H -0.23911 0.49777 -0.00669
 H176 H -0.13810 0.61938 -0.01968
 C177 C -0.36787 1.37788 -0.01384
 C178 C -0.41371 1.28776 -0.01306
 C179 C -0.35944 1.22050 -0.00957
 C180 C -0.26497 1.24962 -0.00629
 C181 C -0.25208 1.30671 -0.08110
 C182 C -0.30607 1.37337 -0.08521
 C183 C -0.31277 1.37615 0.06376
 C184 C -0.25806 1.31009 0.06677
 H185 H -0.48247 1.27694 -0.01477
 H186 H -0.38197 1.15381 -0.00844
 H187 H -0.20695 1.29325 -0.12885
 H188 H -0.30621 1.41796 -0.13576
 H189 H -0.31803 1.42110 0.11361
 H190 H -0.21671 1.29926 0.11857
 C191 C 0.00511 1.38974 0.35776
 C192 C -0.08405 1.35804 0.32844
 C193 C -0.08310 1.29531 0.27143
 C194 C 0.00674 1.26827 0.24734
 C195 C 0.05410 1.35286 0.22250
 C196 C 0.05480 1.41562 0.28090
 C197 C 0.05230 1.30637 0.38263
 C198 C 0.05079 1.24304 0.32628
 H199 H -0.14363 1.38344 0.35088
 H200 H -0.14154 1.26678 0.24616
 H201 H 0.09079 1.35978 0.16726
 H202 H 0.09460 1.47349 0.27553
 H203 H 0.08907 1.29964 0.43815
 H204 H 0.08295 1.18281 0.33561
 C205 C -0.02329 1.39395 -0.35023
 C206 C 0.06425 1.35206 -0.33734
 C207 C 0.06551 1.28921 -0.28067
 C208 C -0.02054 1.27255 -0.23956
 C209 C -0.04696 1.36199 -0.20759
 C210 C -0.05072 1.42457 -0.26604
 C211 C -0.08784 1.31714 -0.36402
 C212 C -0.08466 1.25363 -0.30778
 H213 H 0.12159 1.37147 -0.37020
 H214 H 0.12346 1.25523 -0.26544
 H215 H -0.06967 1.37294 -0.14671
 H216 H -0.08152 1.48513 -0.25477
 H217 H -0.13781 1.31650 -0.41000
 H218 H -0.12896 1.19866 -0.30836
 C219 C 0.01752 0.61018 -0.35396
 C220 C -0.07143 0.64631 -0.33643
 C221 C -0.07235 0.70939 -0.27987
 C222 C 0.01562 0.73207 -0.24379
 C223 C 0.05059 0.64511 -0.21331
 C224 C 0.05370 0.58243 -0.27161
 C225 C 0.07577 0.69098 -0.37177
 C226 C 0.07304 0.75458 -0.31553
 H227 H -0.12978 0.62314 -0.36622
 H228 H -0.13108 0.73992 -0.26170
 H229 H 0.07862 0.63628 -0.15380
 H230 H 0.08769 0.52321 -0.26189
 H231 H 0.12326 0.69394 -0.41944
 H232 H 0.11497 0.81139 -0.31793
 C233 C -0.00468 0.60445 0.34998
 C234 C -0.06244 0.68194 0.36900
 C235 C -0.06003 0.74602 0.31333
 C236 C -0.00285 0.72739 0.24112
 C237 C 0.08526 0.70864 0.27667
 C238 C 0.08444 0.64491 0.33261
 C239 C -0.04047 0.57563 0.26698
 C240 C -0.03789 0.63933 0.20958
 H241 H -0.10626 0.68353 0.41969
 H242 H -0.10049 0.80148 0.31740
 H243 H 0.14396 0.74195 0.25841
 H244 H 0.14286 0.62389 0.36174
 H245 H -0.07522 0.51554 0.25614
 H246 H -0.06707 0.63039 0.15035
   
