data_POSCAR
  _audit_creation_date              2014-09-24
  _audit_creation_method            'ToBaCCo'
  _symmetry_space_group_name_H-M    'P1'
  _symmetry_Int_Tables_number       1
  _symmetry_cell_setting            triclinic
  loop_
  _symmetry_equiv_pos_as_xyz
 x,y,z
_cell_length_a 31.7142
_cell_length_b 31.8393
_cell_length_c 31.6712
_cell_angle_alpha 89.933400
_cell_angle_beta 89.935100
_cell_angle_gamma 89.956700
loop_
  _atom_site_label
  _atom_site_type_symbol
  _atom_site_fract_x
  _atom_site_fract_y
  _atom_site_fract_z
N1 N 0.13086 0.16170 0.24641
 N2 N 0.16116 0.13341 0.24727
 C3 C 0.15544 0.10824 0.28109
 C4 C 0.11986 0.12176 0.30221
 C5 C 0.10486 0.15555 0.27951
 H6 H 0.17523 0.08181 0.28942
 H7 H 0.07680 0.17375 0.28610
 Cu8 Cu 0.20505 0.13221 0.20389
 Cu9 Cu 0.12628 0.20292 0.20118
 Cu10 Cu 0.20321 0.20201 0.12410
 N11 N 0.24826 0.13226 0.15983
 N12 N 0.24777 0.16021 0.12914
 C13 C 0.28066 0.15324 0.10311
 C14 C 0.30282 0.11929 0.11850
 C15 C 0.28162 0.10652 0.15435
 H16 H 0.28749 0.17104 0.07480
 H17 H 0.28961 0.08025 0.17451
 N18 N 0.15997 0.24641 0.12778
 N19 N 0.13050 0.24673 0.15731
 C20 C 0.10523 0.28024 0.15120
 C21 C 0.11961 0.30175 0.11629
 C22 C 0.15422 0.27970 0.10208
 H23 H 0.07803 0.28810 0.17024
 H24 H 0.17328 0.28705 0.07472
 H25 H 0.15739 0.16838 0.15559
 H26 H 0.19012 0.20513 0.18791
 N27 N -0.12891 0.84056 0.24691
 N28 N -0.15906 0.86900 0.24771
 C29 C -0.15273 0.89473 0.28089
 C30 C -0.11689 0.88144 0.30169
 C31 C -0.10244 0.84717 0.27944
 H32 H -0.17236 0.92128 0.28915
 H33 H -0.07447 0.82886 0.28605
 Cu34 Cu -0.20337 0.86891 0.20495
 Cu35 Cu -0.12512 0.79840 0.20251
 Cu36 Cu -0.20332 0.79830 0.12654
 N37 N -0.24767 0.86881 0.16222
 N38 N -0.24785 0.84041 0.13200
 C39 C -0.28134 0.84705 0.10671
 C40 C -0.30315 0.88125 0.12212
 C41 C -0.28112 0.89452 0.15718
 H42 H -0.28879 0.82889 0.07886
 H43 H -0.28863 0.92108 0.17708
 N44 N -0.15999 0.75374 0.13049
 N45 N -0.13016 0.75384 0.15962
 C46 C -0.10504 0.72017 0.15387
 C47 C -0.11982 0.69806 0.11963
 C48 C -0.15455 0.71996 0.10540
 H49 H -0.07761 0.71262 0.17267
 H50 H -0.17389 0.71221 0.07841
 H51 H -0.15674 0.83171 0.15647
 H52 H -0.18915 0.79575 0.18998
 N53 N -0.13232 0.15922 -0.24623
 N54 N -0.16194 0.13025 -0.24636
 C55 C -0.15587 0.10463 -0.27970
 C56 C -0.12073 0.11848 -0.30132
 C57 C -0.10642 0.15300 -0.27937
 H58 H -0.17515 0.07774 -0.28749
 H59 H -0.07889 0.17173 -0.28659
 Cu60 Cu -0.20535 0.12956 -0.20266
 Cu61 Cu -0.12844 0.20146 -0.20178
 Cu62 Cu -0.20570 0.20036 -0.12456
 N63 N -0.24905 0.12893 -0.15926
 N64 N -0.24944 0.15746 -0.12917
 C65 C -0.28249 0.15033 -0.10338
 C66 C -0.30379 0.11567 -0.11833
 C67 C -0.28195 0.10267 -0.15366
 H68 H -0.29003 0.16854 -0.07555
 H69 H -0.28925 0.07596 -0.17341
 N70 N -0.16328 0.24561 -0.12916
 N71 N -0.13377 0.24600 -0.15870
 C72 C -0.10919 0.28006 -0.15318
 C73 C -0.12401 0.30191 -0.11869
 C74 C -0.15818 0.27943 -0.10408
 H75 H -0.08204 0.28804 -0.17227
 H76 H -0.17731 0.28678 -0.07678
 H77 H -0.15870 0.16789 -0.15514
 H78 H -0.19222 0.20304 -0.18829
 N79 N 0.13292 0.84224 -0.24661
 N80 N 0.16349 0.87019 -0.24608
 C81 C 0.15864 0.89653 -0.27910
 C82 C 0.12332 0.88415 -0.30121
 C83 C 0.10763 0.84980 -0.27989
 H84 H 0.17889 0.92288 -0.28636
 H85 H 0.07960 0.83209 -0.28761
 Cu86 Cu 0.20636 0.86873 -0.20195
 Cu87 Cu 0.12701 0.79947 -0.20288
 Cu88 Cu 0.20293 0.79692 -0.12464
 N89 N 0.24925 0.86726 -0.15784
 N90 N 0.24812 0.83840 -0.12803
 C91 C 0.28084 0.84419 -0.10157
 C92 C 0.30351 0.87832 -0.11580
 C93 C 0.28279 0.89242 -0.15137
 H94 H 0.28718 0.82548 -0.07375
 H95 H 0.29127 0.91916 -0.17067
 N96 N 0.15918 0.75315 -0.13050
 N97 N 0.13016 0.75414 -0.16043
 C98 C 0.10445 0.72076 -0.15579
 C99 C 0.11807 0.69791 -0.12146
 C100 C 0.15266 0.71908 -0.10604
 H101 H 0.07744 0.71390 -0.17540
 H102 H 0.17117 0.71064 -0.07865
 H103 H 0.15765 0.83153 -0.15551
 H104 H 0.19051 0.79560 -0.18858
 N105 N 0.16248 1.13114 0.75407
 N106 N 0.13430 1.16151 0.75280
 C107 C 0.10939 1.15588 0.71884
 C108 C 0.12295 1.12031 0.69808
 C109 C 0.15647 1.10522 0.72110
 H110 H 0.08307 1.17570 0.71011
 H111 H 0.17456 1.07712 0.71482
 Cu112 Cu 0.13291 1.20523 0.79584
 Cu113 Cu 0.20338 1.12631 0.79939
 Cu114 Cu 0.20225 1.20281 0.87608
 N115 N 0.13301 1.24814 0.83971
 N116 N 0.16076 1.24730 0.87058
 C117 C 0.15396 1.28007 0.89646
 C118 C 0.12033 1.30252 0.88086
 C119 C 0.10755 1.28164 0.84498
 H120 H 0.17160 1.28663 0.92489
 H121 H 0.08142 1.28998 0.82469
 N122 N 0.24656 1.15987 0.87259
 N123 N 0.24699 1.13052 0.84316
 C124 C 0.28058 1.10539 0.84934
 C125 C 0.30199 1.11982 0.88420
 C126 C 0.27984 1.15424 0.89833
 H127 H 0.28852 1.07827 0.83039
 H128 H 0.28708 1.17327 0.92564
 H129 H 0.16790 1.15760 0.84433
 H130 H 0.20548 1.19000 0.81215
 N131 N 0.84050 0.87212 0.75292
 N132 N 0.86904 0.84208 0.75206
 C133 C 0.89473 0.84828 0.71872
 C134 C 0.88128 0.88392 0.69796
 C135 C 0.84700 0.89842 0.72029
 H136 H 0.92134 0.82871 0.71035
 H137 H 0.82863 0.92630 0.71370
 Cu138 Cu 0.86898 0.79795 0.79468
 Cu139 Cu 0.79843 0.87607 0.79743
 Cu140 Cu 0.79838 0.79803 0.87341
 N141 N 0.86893 0.75395 0.83741
 N142 N 0.84044 0.75372 0.86769
 C143 C 0.84701 0.72028 0.89287
 C144 C 0.88124 0.69856 0.87736
 C145 C 0.89461 0.72055 0.84232
 H146 H 0.82876 0.71275 0.92074
 H147 H 0.92123 0.71301 0.82233
 N148 N 0.75381 0.84113 0.86952
 N149 N 0.75388 0.87090 0.84039
 C150 C 0.72012 0.89589 0.84622
 C151 C 0.69804 0.88101 0.88049
 C152 C 0.71996 0.84643 0.89469
 H153 H 0.71252 0.92328 0.82749
 H154 H 0.71221 0.82714 0.92173
 H155 H 0.83191 0.84442 0.84325
 H156 H 0.79567 0.81227 0.80990
 N157 N 0.15907 0.86752 1.24643
 N158 N 0.12939 0.83867 1.24621
 C159 C 0.10397 0.84455 1.27980
 C160 C 0.11872 0.87878 1.30187
 C161 C 0.15354 0.89277 1.28003
 H162 H 0.07641 0.82596 1.28722
 H163 H 0.17270 0.91987 1.28741
 Cu164 Cu 0.12568 0.79673 1.20169
 Cu165 Cu 0.20064 0.87185 1.20170
 Cu166 Cu 0.19982 0.79490 1.12517
 N167 N 0.12845 0.75193 1.16002
 N168 N 0.15779 0.75098 1.13063
 C169 C 0.15158 0.71735 1.10571
 C170 C 0.11667 0.69625 1.12050
 C171 C 0.10258 0.71879 1.15483
 H172 H 0.17032 0.70945 1.07829
 H173 H 0.07515 0.71201 1.17397
 N174 N 0.24471 0.83725 1.12931
 N175 N 0.24500 0.86668 1.15865
 C176 C 0.27904 0.89130 1.15294
 C177 C 0.30094 0.87647 1.11850
 C178 C 0.27858 0.84235 1.10409
 H179 H 0.28698 0.91841 1.17186
 H180 H 0.28606 0.82322 1.07690
 H181 H 0.16675 0.84228 1.15472
 H182 H 0.20028 0.80805 1.18908
 N183 N 0.84214 1.13185 1.24668
 N184 N 0.87010 1.16239 1.24596
 C185 C 0.89653 1.15774 1.27894
 C186 C 0.88417 1.12257 1.30113
 C187 C 0.84978 1.10675 1.27999
 H188 H 0.92290 1.17802 1.28611
 H189 H 0.83210 1.07877 1.28787
 Cu190 Cu 0.86829 1.20512 1.20202
 Cu191 Cu 0.79925 1.12576 1.20320
 Cu192 Cu 0.79617 1.20165 1.12504
 N193 N 0.86647 1.24793 1.15816
 N194 N 0.83740 1.24683 1.12853
 C195 C 0.84284 1.27965 1.10226
 C196 C 0.87694 1.30235 1.11642
 C197 C 0.89138 1.28159 1.15177
 H198 H 0.82394 1.28607 1.07459
 H199 H 0.91823 1.29013 1.17093
 N200 N 0.75257 1.15796 1.13117
 N201 N 0.75374 1.12896 1.16106
 C202 C 0.72034 1.10326 1.15655
 C203 C 0.69737 1.11692 1.12236
 C204 C 0.71839 1.15146 1.10685
 H205 H 0.71361 1.07620 1.17609
 H206 H 0.70981 1.16992 1.07948
 H207 H 0.83109 1.15659 1.15575
 H208 H 0.79498 1.18908 1.18902
 O209 O 0.44058 0.92153 0.92836
 O210 O 0.39431 0.96171 0.96689
 C211 C 0.40282 0.93277 0.93948
 O212 O 0.55905 0.92465 1.07925
 O213 O 0.60520 0.96319 1.03888
 C214 C 0.59679 0.93586 1.06798
 O215 O 0.44037 0.92090 1.07520
 O216 O 0.39420 0.96155 1.03698
 C217 C 0.40269 0.93226 1.06404
 O218 O 0.55911 0.92503 0.92509
 O219 O 0.60522 0.96317 0.96574
 C220 C 0.59676 0.93604 0.93655
 Zr221 Zr 0.49982 0.94510 0.94865
 O222 O 0.50446 0.87876 0.94868
 O223 O 0.49543 0.94568 0.88195
 Zr224 Zr 0.49968 0.94479 1.05554
 O225 O 0.50440 0.87846 1.05560
 O226 O 0.49483 0.94517 1.12223
 O227 O 0.46220 0.93672 1.00204
 O228 O 0.53633 0.93731 1.00212
 O229 O 0.55915 1.07150 0.92518
 O230 O 0.60527 1.03310 0.96566
 C231 C 0.59687 1.06039 0.93651
 O232 O 0.44007 1.07463 1.07582
 O233 O 0.39405 1.03439 1.03723
 C234 C 0.40237 1.06337 1.06462
 O235 O 0.55861 1.07115 1.07939
 O236 O 0.60498 1.03307 1.03881
 C237 C 0.59634 1.06021 1.06796
 O238 O 0.44057 1.07509 0.92885
 O239 O 0.39429 1.03451 0.96703
 C240 C 0.40286 1.06372 0.93989
 Zr241 Zr 0.49980 1.05138 0.94884
 O242 O 0.50439 1.11771 0.94905
 O243 O 0.49528 1.05122 0.88215
 Zr244 Zr 0.49946 1.05105 1.05572
 O245 O 0.50394 1.11739 1.05576
 O246 O 0.49473 1.05041 1.12241
 Zr247 Zr 0.43706 0.99806 1.00210
 Zr248 Zr 0.56235 0.99811 1.00224
 O249 O 0.53618 1.05889 1.00233
 O250 O 0.46205 1.05941 1.00224
 O251 O 0.53744 0.99826 0.94053
 O252 O 0.46294 0.99786 1.06327
 O253 O 0.46324 0.99827 0.94101
 O254 O 0.53717 0.99793 1.06390
 H255 H 0.55540 0.91264 1.00215
 H256 H 0.44374 0.99775 1.08797
 H257 H 0.55520 1.08356 1.00233
 H258 H 0.44420 0.99833 0.91623
 H259 H 0.51877 0.96173 1.13325
 H260 H 0.51864 1.03369 1.13334
 H261 H 0.48040 1.12836 1.03851
 H262 H 0.48084 1.12861 0.96636
 H263 H 0.51909 1.03438 0.87116
 H264 H 0.51930 0.96248 0.87105
 H265 H 0.48070 0.86776 0.96565
 H266 H 0.48132 0.86753 1.03776
 O267 O 0.07520 0.44079 -0.07523
 O268 O 0.03453 0.39480 -0.03687
 C269 C 0.06375 0.40326 -0.06412
 O270 O 0.07148 0.55846 0.07556
 O271 O 0.03337 0.60476 0.03498
 C272 C 0.06049 0.59608 0.06425
 O273 O 0.07496 0.44041 0.07179
 O274 O 0.03378 0.39465 0.03394
 C275 C 0.06326 0.40290 0.06093
 O276 O 0.07210 0.55891 -0.07868
 O277 O 0.03365 0.60492 -0.03817
 C278 C 0.06110 0.59650 -0.06725
 Zr279 Zr 0.05158 0.49986 -0.05517
 O280 O 0.11819 0.50418 -0.05515
 O281 O 0.05117 0.49543 -0.12186
 Zr282 Zr 0.05138 0.49956 0.05169
 O283 O 0.11800 0.50394 0.05143
 O284 O 0.05102 0.49475 0.11837
 O285 O 0.05965 0.46223 -0.00179
 O286 O 0.05926 0.53611 -0.00167
 O287 O -0.07488 0.55941 -0.07896
 O288 O -0.03647 0.60518 -0.03823
 C289 C -0.06364 0.59690 -0.06752
 O290 O -0.07914 0.44091 0.07159
 O291 O -0.03871 0.39486 0.03304
 C292 C -0.06784 0.40335 0.06038
 O293 O -0.07556 0.55904 0.07529
 O294 O -0.03683 0.60498 0.03493
 C295 C -0.06434 0.59660 0.06398
 O296 O -0.07913 0.44118 -0.07528
 O297 O -0.03862 0.39499 -0.03703
 C298 C -0.06788 0.40353 -0.06419
 Zr299 Zr -0.05521 0.50019 -0.05517
 O300 O -0.12179 0.50512 -0.05477
 O301 O -0.05514 0.49569 -0.12185
 Zr302 Zr -0.05533 0.49997 0.05162
 O303 O -0.12193 0.50468 0.05149
 O304 O -0.05500 0.49528 0.11831
 Zr305 Zr -0.00200 0.43751 -0.00189
 Zr306 Zr -0.00170 0.56229 -0.00168
 O307 O -0.06282 0.53657 -0.00175
 O308 O -0.06355 0.46265 -0.00183
 O309 O -0.00170 0.53747 -0.06338
 O310 O -0.00209 0.46333 0.05926
 O311 O -0.00189 0.46361 -0.06296
 O312 O -0.00189 0.53719 0.05996
 H313 H 0.08406 0.55502 -0.00158
 H314 H -0.00222 0.44433 0.08406
 H315 H -0.08751 0.55566 -0.00179
 H316 H -0.00191 0.44460 -0.08770
 H317 H 0.03391 0.51831 0.12939
 H318 H -0.03829 0.51909 0.12929
 H319 H -0.13293 0.48121 0.03432
 H320 H -0.13287 0.48141 -0.03790
 H321 H -0.03753 0.51889 -0.13284
 H322 H 0.03466 0.51945 -0.13280
 H323 H 0.12912 0.48068 -0.03787
 H324 H 0.12894 0.48032 0.03436
 O325 O 1.07946 -0.07086 0.55933
 O326 O 1.03902 -0.03243 0.60551
 C327 C 1.06819 -0.05965 0.59709
 O328 O 1.07633 0.07869 0.44009
 O329 O 1.03777 0.03848 0.39400
 C330 C 1.06523 0.06737 0.40234
 O331 O 1.07947 0.07546 0.55886
 O332 O 1.03837 0.03786 0.60520
 C333 C 1.06774 0.06476 0.59663
 O334 O 1.07538 -0.07495 0.44055
 O335 O 1.03734 -0.03435 0.39415
 C336 C 1.06429 -0.06368 0.40277
 Zr337 Zr 1.05573 -0.05098 0.49987
 O338 O 1.12232 -0.05079 0.49505
 O339 O 1.05560 -0.11730 0.50474
 Zr340 Zr 1.05594 0.05528 0.49957
 O341 O 1.12256 0.05481 0.49503
 O342 O 1.05577 0.12162 0.50399
 O343 O 1.06406 0.00218 0.53739
 O344 O 1.06353 0.00206 0.46306
 O345 O 0.92855 -0.07407 0.44055
 O346 O 0.96723 -0.03405 0.39423
 C347 C 0.93969 -0.06284 0.40275
 O348 O 0.92529 0.07541 0.55917
 O349 O 0.96576 0.03711 0.60545
 C350 C 0.93650 0.06421 0.59697
 O351 O 0.92946 0.07933 0.44028
 O352 O 0.96769 0.03872 0.39406
 C353 C 0.94059 0.06794 0.40254
 O354 O 0.92544 -0.07087 0.55916
 O355 O 0.96596 -0.03271 0.60535
 C356 C 0.93689 -0.05992 0.59688
 Zr357 Zr 0.94893 -0.05060 0.49983
 O358 O 0.88231 -0.04990 0.49542
 O359 O 0.94892 -0.11694 0.50438
 Zr360 Zr 0.94922 0.05563 0.49971
 O361 O 0.88263 0.05570 0.49498
 O362 O 0.94956 0.12195 0.50440
 Zr363 Zr 1.00245 0.00233 0.56247
 Zr364 Zr 1.00250 0.00225 0.43701
 O365 O 0.94144 0.00254 0.46312
 O366 O 0.94085 0.00253 0.53744
 O367 O 1.00232 -0.05905 0.46226
 O368 O 1.00255 0.06311 0.53624
 O369 O 1.00231 -0.05846 0.53646
 O370 O 1.00263 0.06363 0.46198
 H371 H 1.08825 0.00189 0.44391
 H372 H 1.00243 0.08779 0.55527
 H373 H 0.91671 0.00266 0.44403
 H374 H 1.00237 -0.08310 0.55559
 H375 H 1.03886 0.13253 0.48016
 H376 H 0.96671 0.13288 0.48071
 H377 H 0.87156 0.03836 0.51842
 H378 H 0.87142 -0.03352 0.51961
 H379 H 0.96583 -0.12791 0.48055
 H380 H 1.03791 -0.12826 0.48155
 H381 H 1.13333 -0.03383 0.51873
 H382 H 1.13348 0.03812 0.51900
 C383 C 1.10170 0.10386 0.33680
 C384 C 1.08523 0.08762 0.36706
 C385 C 0.90272 -0.09942 0.33777
 C386 C 0.91951 -0.08307 0.36769
 C387 C 0.89856 0.09952 0.66225
 C388 C 0.91545 0.08352 0.63213
 C389 C 1.10504 -0.09589 0.66241
 C390 C 1.08877 -0.07932 0.63229
 C391 C 0.33713 1.10075 1.10056
 C392 C 0.36719 1.08400 1.08431
 C393 C 0.33776 0.89607 0.90286
 C394 C 0.36777 0.91238 0.91952
 C395 C 0.66224 0.89966 1.10466
 C396 C 0.63199 0.91608 1.08846
 C397 C 0.66199 1.09690 0.89951
 C398 C 0.63199 1.08024 0.91595
 C399 C 0.10055 0.33795 0.09698
 C400 C 0.08390 0.36788 0.08062
 C401 C -0.10533 0.33849 -0.09981
 C402 C -0.08876 0.36859 -0.08373
 C403 C 0.09826 0.66149 -0.10336
 C404 C 0.08138 0.63146 -0.08742
 C405 C -0.10081 0.66163 0.10072
 C406 C -0.08433 0.63160 0.08437
 C407 C 1.10421 0.10117 0.66171
 C408 C 1.08799 0.08469 0.63164
 C409 C 0.90033 -0.09665 0.66184
 C410 C 0.91666 -0.07996 0.63190
 C411 C 1.09969 -0.10180 0.33799
 C412 C 1.08359 -0.08478 0.36785
 C413 C 0.90422 0.10453 0.33742
 C414 C 0.92087 0.08840 0.36748
 C415 C 0.10095 0.33857 -0.10021
 C416 C 0.08432 0.36841 -0.08387
 C417 C -0.10458 0.33855 0.09684
 C418 C -0.08833 0.36849 0.08025
 C419 C -0.09946 0.66208 -0.10433
 C420 C -0.08318 0.63195 -0.08808
 C421 C 0.09695 0.66039 0.10163
 C422 C 0.08031 0.63074 0.08501
 C423 C 0.33810 1.10091 0.90363
 C424 C 0.36797 1.08435 0.92013
 C425 C 0.33751 0.89504 1.09954
 C426 C 0.36766 0.91151 1.08345
 C427 C 0.66111 1.09709 1.10426
 C428 C 0.63120 1.08027 1.08822
 C429 C 0.66172 0.89990 0.89959
 C430 C 0.63174 0.91626 0.91609
   
