data_POSCAR
  _audit_creation_date              2014-09-24
  _audit_creation_method            'ToBaCCo'
  _symmetry_space_group_name_H-M    'P1'
  _symmetry_Int_Tables_number       1
  _symmetry_cell_setting            triclinic
  loop_
  _symmetry_equiv_pos_as_xyz
 x,y,z
_cell_length_a 39.2418
_cell_length_b 39.2479
_cell_length_c 40.8425
_cell_angle_alpha 89.924600
_cell_angle_beta 90.000100
_cell_angle_gamma 89.795000
loop_
  _atom_site_label
  _atom_site_type_symbol
  _atom_site_fract_x
  _atom_site_fract_y
  _atom_site_fract_z
C1 C -0.09250 0.31619 0.00028
 C2 C -0.07486 0.32110 0.02957
 C3 C -0.03928 0.32396 0.02938
 C4 C -0.02047 0.31953 0.00012
 C5 C -0.03894 0.31368 -0.02914
 C6 C -0.07466 0.31291 -0.02913
 C7 C 0.01797 0.31961 0.00034
 C8 C 0.03675 0.32407 -0.02893
 C9 C 0.07233 0.32138 -0.02908
 C10 C 0.09001 0.31654 0.00020
 C11 C 0.07222 0.31320 0.02958
 C12 C 0.03652 0.31384 0.02961
 H13 H -0.12009 0.31411 0.00047
 H14 H -0.02669 0.32911 0.05237
 H15 H -0.02604 0.30882 -0.05204
 H16 H 0.02422 0.32912 -0.05198
 H17 H 0.11759 0.31453 0.00001
 H18 H 0.02378 0.30895 0.05257
 C19 C 0.40806 0.81716 0.49980
 C20 C 0.42569 0.82205 0.52906
 C21 C 0.46125 0.82481 0.52891
 C22 C 0.48007 0.82041 0.49965
 C23 C 0.46158 0.81462 0.47039
 C24 C 0.42588 0.81387 0.47042
 C25 C 0.51850 0.82044 0.49987
 C26 C 0.53728 0.82486 0.47059
 C27 C 0.57286 0.82216 0.47045
 C28 C 0.59054 0.81730 0.49972
 C29 C 0.57274 0.81399 0.52911
 C30 C 0.53705 0.81469 0.52915
 H31 H 0.38050 0.81508 0.49999
 H32 H 0.47374 0.82986 0.55195
 H33 H 0.47437 0.80978 0.44744
 H34 H 0.52474 0.82989 0.44754
 H35 H 0.61812 0.81527 0.49953
 H36 H 0.52430 0.80984 0.55210
 C37 C 1.09249 0.68387 -0.00004
 C38 C 1.07484 0.67895 0.02927
 C39 C 1.03926 0.67609 0.02907
 C40 C 1.02046 0.68052 -0.00020
 C41 C 1.03893 0.68639 -0.02947
 C42 C 1.07465 0.68716 -0.02945
 C43 C 0.98203 0.68044 0.00001
 C44 C 0.96326 0.67590 -0.02924
 C45 C 0.92767 0.67858 -0.02940
 C46 C 0.90999 0.68349 -0.00015
 C47 C 0.92777 0.68690 0.02922
 C48 C 0.96347 0.68627 0.02926
 H49 H 1.12008 0.68595 0.00016
 H50 H 1.02667 0.67093 0.05207
 H51 H 1.02603 0.69125 -0.05238
 H52 H 0.97580 0.67081 -0.05226
 H53 H 0.88241 0.68549 -0.00036
 H54 H 0.97621 0.69122 0.05219
 C55 C 0.59194 0.18286 0.50047
 C56 C 0.57430 0.17797 0.52975
 C57 C 0.53875 0.17520 0.52960
 C58 C 0.51993 0.17959 0.50032
 C59 C 0.53843 0.18538 0.47104
 C60 C 0.57412 0.18614 0.47109
 C61 C 0.48150 0.17954 0.50053
 C62 C 0.46272 0.17517 0.47125
 C63 C 0.42714 0.17787 0.47109
 C64 C 0.40946 0.18268 0.50036
 C65 C 0.42724 0.18593 0.52975
 C66 C 0.46294 0.18525 0.52979
 H67 H 0.61950 0.18495 0.50067
 H68 H 0.52626 0.17015 0.55265
 H69 H 0.52565 0.19020 0.44808
 H70 H 0.47526 0.17018 0.44821
 H71 H 0.38188 0.18471 0.50016
 H72 H 0.47568 0.19005 0.55275
 C73 C 0.68375 -0.09096 0.00035
 C74 C 0.67900 -0.07326 0.02963
 C75 C 0.67621 -0.03765 0.02936
 C76 C 0.68054 -0.01892 0.00002
 C77 C 0.68623 -0.03751 -0.02920
 C78 C 0.68692 -0.07320 -0.02908
 C79 C 0.68057 0.01952 0.00010
 C80 C 0.67629 0.03830 -0.02925
 C81 C 0.67914 0.07388 -0.02951
 C82 C 0.68389 0.09154 -0.00023
 C83 C 0.68703 0.07375 0.02920
 C84 C 0.68627 0.03807 0.02932
 H85 H 0.68580 -0.11856 0.00051
 H86 H 0.67118 -0.02501 0.05235
 H87 H 0.69101 -0.02483 -0.05221
 H88 H 0.67126 0.02570 -0.05224
 H89 H 0.68599 0.11912 -0.00038
 H90 H 0.69103 0.02534 0.05233
 C91 C 0.18284 0.40897 0.50000
 C92 C 0.17790 0.42651 0.52931
 C93 C 0.17517 0.46208 0.52926
 C94 C 0.17965 0.48099 0.50006
 C95 C 0.18549 0.46259 0.47074
 C96 C 0.18621 0.42689 0.47067
 C97 C 0.17962 0.51940 0.50042
 C98 C 0.17511 0.53833 0.47122
 C99 C 0.17780 0.57389 0.47116
 C100 C 0.18273 0.59140 0.50047
 C101 C 0.18612 0.57346 0.52980
 C102 C 0.18544 0.53777 0.52974
 H103 H 0.18489 0.38139 0.50011
 H104 H 0.17009 0.47451 0.55233
 H105 H 0.19038 0.47546 0.44785
 H106 H 0.17003 0.52593 0.44815
 H107 H 0.18475 0.61897 0.50034
 H108 H 0.19034 0.52488 0.55263
 C109 C 0.31643 1.09103 -0.00053
 C110 C 0.32128 1.07318 0.02867
 C111 C 0.32398 1.03761 0.02837
 C112 C 0.31949 1.01898 -0.00096
 C113 C 0.31371 1.03768 -0.03015
 C114 C 0.31308 1.07340 -0.03001
 C115 C 0.31939 0.98054 -0.00086
 C116 C 0.32362 0.96183 -0.03020
 C117 C 0.32073 0.92624 -0.03043
 C118 C 0.31597 0.90854 -0.00113
 C119 C 0.31288 0.92628 0.02829
 C120 C 0.31369 0.96195 0.02838
 H121 H 0.31445 1.11862 -0.00014
 H122 H 0.32904 1.02497 0.05137
 H123 H 0.30879 1.02497 -0.05311
 H124 H 0.32866 0.97446 -0.05320
 H125 H 0.31384 0.88096 -0.00125
 H126 H 0.30898 0.97465 0.05138
 C127 C 0.81722 0.59102 0.49962
 C128 C 0.82218 0.57347 0.52897
 C129 C 0.82492 0.53790 0.52899
 C130 C 0.82042 0.51900 0.49984
 C131 C 0.81456 0.53741 0.47048
 C132 C 0.81383 0.57311 0.47034
 C133 C 0.82045 0.48059 0.50027
 C134 C 0.82495 0.46167 0.47111
 C135 C 0.82226 0.42612 0.47114
 C136 C 0.81735 0.40859 0.50049
 C137 C 0.81396 0.42652 0.52978
 C138 C 0.81464 0.46221 0.52963
 H139 H 0.81516 0.61859 0.49969
 H140 H 0.83002 0.52545 0.55208
 H141 H 0.80966 0.52455 0.44761
 H142 H 0.83002 0.47409 0.44802
 H143 H 0.81533 0.38103 0.50042
 H144 H 0.80974 0.47510 0.55250
 O145 O 0.23953 0.28185 0.21103
 O146 O 0.30152 0.25000 0.27185
 O147 O 0.28729 0.23598 0.21107
 O148 O 0.25549 0.29770 0.27155
 O149 O 0.21790 0.26005 0.28914
 O150 O 0.24959 0.19820 0.22823
 O151 O 0.26376 0.21227 0.28900
 O152 O 0.20190 0.24423 0.22863
 Cu153 Cu 0.27467 0.27027 0.23964
 Cu154 Cu 0.22941 0.22497 0.26049
 C155 C 0.21040 0.26799 0.20927
 C156 C 0.29298 0.22579 0.29076
 C157 C 0.27375 0.20677 0.20929
 C158 C 0.23177 0.28917 0.29092
 O159 O 0.78211 0.74018 0.28862
 O160 O 0.75049 0.80217 0.22765
 O161 O 0.73630 0.78800 0.28843
 O162 O 0.79812 0.75608 0.22809
 O163 O 0.76045 0.71853 0.21053
 O164 O 0.69850 0.75035 0.27131
 O165 O 0.71275 0.76446 0.21052
 O166 O 0.74447 0.70260 0.27105
 Cu167 Cu 0.77064 0.77532 0.25993
 Cu168 Cu 0.72532 0.73011 0.23912
 C169 C 0.76821 0.71107 0.29042
 C170 C 0.72632 0.79366 0.20872
 C171 C 0.70706 0.77451 0.29020
 C172 C 0.78960 0.73236 0.20875
 O173 O 0.75025 0.30144 0.27206
 O174 O 0.71822 0.24003 0.21114
 O175 O 0.70266 0.25564 0.27183
 O176 O 0.76395 0.28759 0.21113
 O177 O 0.80194 0.24960 0.22784
 O178 O 0.74052 0.21777 0.28900
 O179 O 0.75605 0.20213 0.22832
 O180 O 0.78819 0.26341 0.28878
 Cu181 Cu 0.72986 0.27492 0.23985
 Cu182 Cu 0.77541 0.22932 0.26018
 C183 C 0.77458 0.29266 0.29078
 C184 C 0.73215 0.21086 0.20915
 C185 C 0.71137 0.23175 0.29103
 C186 C 0.79318 0.27392 0.20908
 O187 O 0.28176 0.75992 0.21063
 O188 O 0.24975 0.69853 0.27173
 O189 O 0.23603 0.71237 0.21075
 O190 O 0.29733 0.74432 0.27135
 O191 O 0.25948 0.78220 0.28843
 O192 O 0.19805 0.75036 0.22738
 O193 O 0.21182 0.73657 0.28835
 O194 O 0.24394 0.79783 0.22771
 Cu195 Cu 0.27012 0.72504 0.23944
 Cu196 Cu 0.22458 0.77065 0.25965
 C197 C 0.26783 0.78909 0.20855
 C198 C 0.22542 0.70731 0.29043
 C199 C 0.20680 0.72603 0.20868
 C200 C 0.28863 0.76822 0.29049
 O201 O 0.78278 0.26012 0.71200
 O202 O 0.75115 0.19831 0.77291
 O203 O 0.73722 0.21239 0.71205
 O204 O 0.79851 0.24433 0.77267
 O205 O 0.76053 0.28197 0.78996
 O206 O 0.69911 0.25014 0.72891
 O207 O 0.71309 0.23611 0.78976
 O208 O 0.74483 0.29780 0.72928
 Cu209 Cu 0.77134 0.22508 0.74070
 Cu210 Cu 0.72565 0.27040 0.76118
 C211 C 0.76871 0.28924 0.71005
 C212 C 0.72681 0.20689 0.79169
 C213 C 0.70791 0.22592 0.71011
 C214 C 0.78973 0.26809 0.79194
 O215 O 0.30087 0.75000 0.72843
 O216 O 0.23946 0.71816 0.78957
 O217 O 0.25518 0.70230 0.72894
 O218 O 0.28686 0.76407 0.78924
 O219 O 0.24878 0.80183 0.77225
 O220 O 0.21721 0.73994 0.71153
 O221 O 0.20145 0.75576 0.77215
 O222 O 0.26274 0.78771 0.71144
 Cu223 Cu 0.27433 0.72974 0.76076
 Cu224 Cu 0.22862 0.77502 0.74012
 C225 C 0.29205 0.77420 0.70955
 C226 C 0.21024 0.73203 0.79149
 C227 C 0.23129 0.71083 0.70968
 C228 C 0.27312 0.79328 0.79106
 O229 O 0.25005 0.30079 0.72837
 O230 O 0.28199 0.23912 0.78944
 O231 O 0.29783 0.25486 0.72882
 O232 O 0.23602 0.28678 0.78918
 O233 O 0.19831 0.24895 0.77223
 O234 O 0.26025 0.21713 0.71144
 O235 O 0.24444 0.20136 0.77206
 O236 O 0.21239 0.26291 0.71142
 Cu237 Cu 0.27036 0.27411 0.76067
 Cu238 Cu 0.22514 0.22868 0.74008
 C239 C 0.22585 0.29215 0.70953
 C240 C 0.26817 0.20998 0.79137
 C241 C 0.28934 0.23106 0.70956
 C242 C 0.20682 0.27321 0.79103
 O243 O 0.73973 0.78255 0.71083
 O244 O 0.80170 0.75071 0.77167
 O245 O 0.78763 0.73682 0.71087
 O246 O 0.75552 0.79825 0.77143
 O247 O 0.71801 0.76043 0.78886
 O248 O 0.75001 0.69888 0.72787
 O249 O 0.76403 0.71282 0.78866
 O250 O 0.70219 0.74477 0.72826
 Cu251 Cu 0.77485 0.77099 0.73948
 Cu252 Cu 0.72967 0.72549 0.76013
 C253 C 0.71065 0.76860 0.70897
 C254 C 0.79321 0.72642 0.79050
 C255 C 0.77420 0.70757 0.70901
 C256 C 0.73180 0.78958 0.79075
 C257 C 0.31990 0.09136 0.05922
 C258 C 0.31655 0.10724 0.08426
 C259 C 0.31044 0.12659 0.11275
 C260 C 0.30366 0.14381 0.13629
 C261 C 0.29424 0.16481 0.16282
 C262 C 0.28525 0.18352 0.18457
 C263 C 0.82083 0.59191 0.55936
 C264 C 0.81750 0.60794 0.58429
 C265 C 0.81136 0.62742 0.61269
 C266 C 0.80452 0.64469 0.63615
 C267 C 0.79498 0.66570 0.66262
 C268 C 0.78587 0.68439 0.68432
 C269 C 0.68045 0.90943 0.05854
 C270 C 0.68373 0.89350 0.08360
 C271 C 0.68978 0.87408 0.11212
 C272 C 0.69651 0.85681 0.13566
 C273 C 0.70589 0.83574 0.16222
 C274 C 0.71485 0.81698 0.18397
 C275 C 0.17926 0.40804 0.55973
 C276 C 0.18260 0.39198 0.58469
 C277 C 0.18874 0.37247 0.61311
 C278 C 0.19557 0.35516 0.63660
 C279 C 0.20510 0.33410 0.66309
 C280 C 0.21420 0.31538 0.68481
 C281 C 0.90784 0.31975 0.05846
 C282 C 0.89199 0.31653 0.08354
 C283 C 0.87274 0.31053 0.11212
 C284 C 0.85564 0.30383 0.13574
 C285 C 0.83480 0.29444 0.16240
 C286 C 0.81625 0.28546 0.18424
 C287 C 0.40736 0.82064 0.55954
 C288 C 0.39139 0.81727 0.58453
 C289 C 0.37199 0.81113 0.61299
 C290 C 0.35477 0.80432 0.63650
 C291 C 0.33381 0.79484 0.66303
 C292 C 0.31518 0.78579 0.68478
 C293 C 0.09214 0.68029 0.05815
 C294 C 0.10798 0.68349 0.08323
 C295 C 0.12724 0.68947 0.11180
 C296 C 0.14434 0.69616 0.13541
 C297 C 0.16517 0.70553 0.16204
 C298 C 0.18372 0.71451 0.18387
 C299 C 0.59263 0.17940 0.56023
 C300 C 0.60858 0.18278 0.58521
 C301 C 0.62798 0.18894 0.61365
 C302 C 0.64520 0.19577 0.63715
 C303 C 0.66615 0.20526 0.66365
 C304 C 0.68479 0.21432 0.68538
 C305 C 0.68063 0.09120 0.94159
 C306 C 0.68396 0.10712 0.91655
 C307 C 0.69008 0.12655 0.88808
 C308 C 0.69686 0.14382 0.86458
 C309 C 0.70629 0.16488 0.83809
 C310 C 0.71529 0.18362 0.81638
 C311 C 0.17912 0.59231 0.44072
 C312 C 0.18241 0.60828 0.41572
 C313 C 0.18849 0.62764 0.38721
 C314 C 0.19527 0.64480 0.36364
 C315 C 0.20474 0.66567 0.33703
 C316 C 0.21380 0.68424 0.31522
 C317 C 0.31922 0.90898 0.94069
 C318 C 0.31588 0.89308 0.91568
 C319 C 0.30977 0.87367 0.88724
 C320 C 0.30300 0.85640 0.86378
 C321 C 0.29358 0.83533 0.83734
 C322 C 0.28460 0.81657 0.81569
 C323 C 0.82094 0.40769 0.44074
 C324 C 0.81764 0.39173 0.41578
 C325 C 0.81155 0.37236 0.38732
 C326 C 0.80476 0.35520 0.36380
 C327 C 0.79528 0.33432 0.33726
 C328 C 0.78621 0.31575 0.31551
 C329 C 0.09069 0.31995 0.94045
 C330 C 0.10671 0.31655 0.91550
 C331 C 0.12622 0.31034 0.88712
 C332 C 0.14357 0.30347 0.86369
 C333 C 0.16470 0.29393 0.83728
 C334 C 0.18349 0.28483 0.81565
 C335 C 0.59120 0.82077 0.43997
 C336 C 0.60719 0.81743 0.41498
 C337 C 0.62664 0.81131 0.38654
 C338 C 0.64393 0.80453 0.36305
 C339 C 0.66500 0.79509 0.33657
 C340 C 0.68376 0.78606 0.31487
 C341 C 0.90933 0.67993 0.94012
 C342 C 0.89331 0.68328 0.91514
 C343 C 0.87380 0.68942 0.88673
 C344 C 0.85646 0.69624 0.86326
 C345 C 0.83534 0.70574 0.83682
 C346 C 0.81654 0.71481 0.81515
 C347 C 0.40881 0.17932 0.44060
 C348 C 0.39284 0.18270 0.41561
 C349 C 0.37339 0.18886 0.38716
 C350 C 0.35611 0.19568 0.36365
 C351 C 0.33505 0.20517 0.33715
 C352 C 0.31629 0.21421 0.31544
 C353 C 0.69210 0.90811 0.94099
 C354 C 0.69648 0.89160 0.91646
 C355 C 0.70196 0.87136 0.88837
 C356 C 0.70721 0.85340 0.86497
 C357 C 0.71434 0.83169 0.83827
 C358 C 0.72155 0.81267 0.81615
 C359 C 0.19161 0.40832 0.44069
 C360 C 0.19616 0.39181 0.41618
 C361 C 0.20179 0.37149 0.38816
 C362 C 0.20715 0.35343 0.36484
 C363 C 0.21435 0.33156 0.33826
 C364 C 0.22157 0.31241 0.31624
 C365 C 0.30808 0.09120 0.94169
 C366 C 0.30363 0.10774 0.91714
 C367 C 0.29809 0.12802 0.88904
 C368 C 0.29280 0.14601 0.86563
 C369 C 0.28564 0.16778 0.83892
 C370 C 0.27842 0.18684 0.81679
 C371 C 0.80841 0.59170 0.44032
 C372 C 0.80384 0.60823 0.41578
 C373 C 0.79818 0.62858 0.38774
 C374 C 0.79281 0.64667 0.36440
 C375 C 0.78561 0.66858 0.33779
 C376 C 0.77840 0.68777 0.31575
 C377 C 0.09226 0.69220 0.94216
 C378 C 0.10864 0.69667 0.91755
 C379 C 0.12876 0.70222 0.88938
 C380 C 0.14662 0.70751 0.86591
 C381 C 0.16825 0.71465 0.83914
 C382 C 0.18721 0.72183 0.81696
 C383 C 0.59277 0.19148 0.44113
 C384 C 0.60928 0.19601 0.41661
 C385 C 0.62955 0.20163 0.38856
 C386 C 0.64753 0.20700 0.36519
 C387 C 0.66927 0.21422 0.33853
 C388 C 0.68830 0.22148 0.31643
 C389 C 0.90773 0.30789 0.94250
 C390 C 0.89135 0.30342 0.91789
 C391 C 0.87123 0.29788 0.88974
 C392 C 0.85336 0.29260 0.86628
 C393 C 0.83173 0.28547 0.83953
 C394 C 0.81277 0.27829 0.81738
 C395 C 0.40724 0.80851 0.44048
 C396 C 0.39073 0.80399 0.41597
 C397 C 0.37047 0.79835 0.38793
 C398 C 0.35249 0.79299 0.36457
 C399 C 0.33074 0.78576 0.33793
 C400 C 0.31171 0.77849 0.31586
 C401 C 0.30769 0.90758 0.05824
 C402 C 0.30329 0.89106 0.08279
 C403 C 0.29780 0.87081 0.11088
 C404 C 0.29252 0.85285 0.13430
 C405 C 0.28536 0.83114 0.16100
 C406 C 0.27812 0.81213 0.18313
 C407 C 0.80860 0.40797 0.55981
 C408 C 0.80409 0.39152 0.58439
 C409 C 0.79850 0.37128 0.61250
 C410 C 0.79319 0.35330 0.63590
 C411 C 0.78604 0.33152 0.66258
 C412 C 0.77887 0.31244 0.68467
 C413 C 0.69223 0.09240 0.05913
 C414 C 0.69664 0.10890 0.08365
 C415 C 0.70215 0.12913 0.11170
 C416 C 0.70744 0.14709 0.13507
 C417 C 0.71461 0.16880 0.16172
 C418 C 0.72186 0.18781 0.18379
 C419 C 0.19147 0.59200 0.55979
 C420 C 0.19598 0.60846 0.58432
 C421 C 0.20156 0.62871 0.61238
 C422 C 0.20687 0.64670 0.63573
 C423 C 0.21400 0.66850 0.66234
 C424 C 0.22116 0.68761 0.68438
 C425 C 0.90906 0.69225 0.05914
 C426 C 0.89247 0.69677 0.08362
 C427 C 0.87208 0.70237 0.11161
 C428 C 0.85398 0.70771 0.13491
 C429 C 0.83207 0.71489 0.16147
 C430 C 0.81288 0.72212 0.18348
 C431 C 0.40854 0.19119 0.55969
 C432 C 0.39197 0.19564 0.58420
 C433 C 0.37164 0.20119 0.61224
 C434 C 0.35358 0.20648 0.63558
 C435 C 0.33172 0.21364 0.66220
 C436 C 0.31258 0.22084 0.68424
 C437 C 0.09092 0.30792 0.05953
 C438 C 0.10751 0.30345 0.08403
 C439 C 0.12790 0.29790 0.11205
 C440 C 0.14601 0.29260 0.13537
 C441 C 0.16792 0.28544 0.16195
 C442 C 0.18711 0.27822 0.18397
 C443 C 0.59144 0.80868 0.55906
 C444 C 0.60800 0.80419 0.58358
 C445 C 0.62833 0.79859 0.61162
 C446 C 0.64639 0.79326 0.63497
 C447 C 0.66825 0.78607 0.66160
 C448 C 0.68740 0.77884 0.68365
   
