data_POSCAR
  _audit_creation_date              2014-09-24
  _audit_creation_method            'ToBaCCo'
  _symmetry_space_group_name_H-M    'P1'
  _symmetry_Int_Tables_number       1
  _symmetry_cell_setting            triclinic
  loop_
  _symmetry_equiv_pos_as_xyz
 x,y,z
_cell_length_a 33.6665
_cell_length_b 30.6703
_cell_length_c 26.0349
_cell_angle_alpha 89.247000
_cell_angle_beta 90.049400
_cell_angle_gamma 89.806200
loop_
  _atom_site_label
  _atom_site_type_symbol
  _atom_site_fract_x
  _atom_site_fract_y
  _atom_site_fract_z
C1 C 0.31961 0.28547 0.19383
 H2 H 0.33583 0.26455 0.22017
 C3 C 0.34042 0.31115 0.15837
 H4 H 0.37254 0.30970 0.15813
 C5 C 0.25832 0.31452 0.16421
 H6 H 0.22628 0.31578 0.16709
 C7 C 0.27792 0.34073 0.12814
 H8 H 0.26064 0.36182 0.10296
 N9 N 0.27927 0.28722 0.19571
 C10 C 0.18025 0.28817 0.28905
 H11 H 0.16474 0.26299 0.26857
 C12 C 0.15885 0.31678 0.32002
 H13 H 0.12694 0.31334 0.32270
 C14 C 0.24038 0.32422 0.30877
 H15 H 0.27222 0.32682 0.30410
 C16 C 0.22024 0.35340 0.34015
 H17 H 0.23702 0.37812 0.35993
 Zn18 Zn 0.25065 0.25333 0.24422
 N19 N 0.22037 0.29196 0.28471
 C20 C 0.28728 0.22620 0.33788
 N21 N 0.28585 0.22038 0.28622
 C22 C 0.30766 0.18871 0.26339
 C23 C 0.33209 0.16126 0.29278
 C24 C 0.31130 0.19946 0.36872
 C25 C 0.21468 0.21185 0.15872
 C26 C 0.19104 0.18060 0.13507
 C27 C 0.17403 0.15169 0.21895
 C28 C 0.19777 0.18362 0.24103
 N29 N 0.21727 0.21306 0.21085
 H30 H 0.26918 0.25095 0.35554
 H31 H 0.30540 0.18424 0.22234
 H32 H 0.34828 0.13543 0.27397
 H33 H 0.31188 0.20489 0.40956
 H34 H 0.23136 0.23458 0.13531
 H35 H 0.18984 0.17947 0.09359
 H36 H 0.15866 0.12837 0.24333
 H37 H 0.20098 0.18481 0.28234
 C38 C 0.17891 0.34974 0.34653
 C39 C 0.31955 0.33915 0.12472
 C40 C 0.17032 0.15025 0.16541
 C41 C 0.33383 0.16611 0.34633
 C42 C 0.81857 0.78177 0.19211
 H43 H 0.83391 0.75855 0.21665
 C44 C 0.84019 0.80692 0.15681
 H45 H 0.87208 0.80276 0.15602
 C46 C 0.75878 0.81628 0.16614
 H47 H 0.72691 0.81961 0.16985
 C48 C 0.77918 0.84259 0.13109
 H49 H 0.76214 0.86517 0.10754
 N50 N 0.77857 0.78677 0.19607
 C51 C 0.69009 0.77628 0.31842
 H52 H 0.68481 0.74165 0.32107
 C53 C 0.66766 0.80461 0.34857
 H54 H 0.64568 0.79101 0.37442
 C55 C 0.72655 0.83551 0.28373
 H56 H 0.75023 0.84762 0.25965
 C57 C 0.70447 0.86496 0.31243
 H58 H 0.71081 0.89940 0.30838
 Zn59 Zn 0.74843 0.75343 0.24429
 N60 N 0.71857 0.79208 0.28621
 C61 C 0.78572 0.72652 0.33714
 N62 N 0.78228 0.71864 0.28604
 C63 C 0.80121 0.68437 0.26414
 C64 C 0.82463 0.65618 0.29400
 C65 C 0.80874 0.69903 0.36846
 C66 C 0.71054 0.71846 0.15649
 C67 C 0.68759 0.68866 0.12960
 C68 C 0.67250 0.65201 0.20978
 C69 C 0.69570 0.68267 0.23525
 N70 N 0.71412 0.71519 0.20847
 H71 H 0.77039 0.75394 0.35377
 H72 H 0.79751 0.67854 0.22352
 H73 H 0.83856 0.62846 0.27606
 H74 H 0.81119 0.70579 0.40905
 H75 H 0.72596 0.74363 0.13536
 H76 H 0.68488 0.69229 0.08839
 H77 H 0.65897 0.62572 0.23162
 H78 H 0.70017 0.67949 0.27623
 C79 C 0.67435 0.84981 0.34537
 C80 C 0.82069 0.83844 0.12571
 C81 C 0.66858 0.65457 0.15614
 C82 C 0.82844 0.66322 0.34695
 C83 C 0.81223 0.31568 0.72751
 H84 H 0.81247 0.31877 0.76886
 C85 C 0.83505 0.34383 0.69718
 H86 H 0.85203 0.36897 0.71570
 C87 C 0.78814 0.28012 0.65363
 H88 H 0.77034 0.25481 0.63679
 C89 C 0.81080 0.30742 0.62181
 H90 H 0.81001 0.30276 0.58068
 N91 N 0.78860 0.28533 0.70545
 C92 C 0.70151 0.26858 0.82847
 H93 H 0.70294 0.23371 0.83504
 C94 C 0.67794 0.29450 0.86011
 H95 H 0.66179 0.27929 0.89145
 C96 C 0.72162 0.33066 0.78024
 H97 H 0.73798 0.34461 0.74843
 C98 C 0.69820 0.35767 0.81056
 H99 H 0.69678 0.39209 0.80136
 Zn100 Zn 0.75722 0.25087 0.75087
 N101 N 0.72370 0.28712 0.79046
 C102 C 0.79358 0.22349 0.84535
 N103 N 0.79285 0.21898 0.79357
 C104 C 0.81779 0.19084 0.76987
 C105 C 0.84330 0.16402 0.79848
 C106 C 0.81857 0.19732 0.87562
 C107 C 0.70007 0.22665 0.67682
 C108 C 0.67625 0.19786 0.64933
 C109 C 0.70043 0.13898 0.70335
 C110 C 0.72424 0.16870 0.72914
 N111 N 0.72432 0.21151 0.71490
 H112 H 0.77482 0.24738 0.86348
 H113 H 0.81687 0.18821 0.72848
 H114 H 0.86051 0.14058 0.77729
 H115 H 0.81864 0.20294 0.91649
 H116 H 0.69984 0.26106 0.66710
 H117 H 0.65871 0.21047 0.61772
 H118 H 0.70067 0.10524 0.71601
 H119 H 0.74232 0.15749 0.76099
 C120 C 0.67662 0.33984 0.85186
 C121 C 0.83434 0.34020 0.64349
 C122 C 0.67649 0.15317 0.66211
 C123 C 0.84372 0.16590 0.85284
 C124 C 0.32285 0.78749 0.70785
 H125 H 0.33834 0.76579 0.73400
 C126 C 0.34467 0.81418 0.67442
 H127 H 0.37678 0.81341 0.67631
 C128 C 0.26241 0.81470 0.67329
 H129 H 0.23028 0.81438 0.67287
 C130 C 0.28298 0.84187 0.63932
 H131 H 0.26636 0.86230 0.61267
 N132 N 0.28244 0.78883 0.70735
 C133 C 0.19829 0.76931 0.83326
 H134 H 0.19723 0.73410 0.83582
 C135 C 0.17699 0.79449 0.86827
 H136 H 0.15979 0.77824 0.89789
 C137 C 0.22345 0.83303 0.79278
 H138 H 0.24203 0.84815 0.76394
 C139 C 0.20229 0.85934 0.82645
 H140 H 0.20393 0.89427 0.82148
 Zn141 Zn 0.25090 0.75356 0.75146
 N142 N 0.22086 0.78886 0.79636
 C143 C 0.27696 0.67164 0.78870
 N144 N 0.28304 0.71534 0.79161
 C145 C 0.31156 0.73180 0.82283
 C146 C 0.33724 0.70378 0.84976
 C147 C 0.30155 0.64255 0.81535
 C148 C 0.17757 0.71955 0.71147
 C149 C 0.15552 0.69345 0.67816
 C150 C 0.21691 0.67064 0.63849
 C151 C 0.23760 0.69715 0.67213
 N152 N 0.21790 0.72037 0.70821
 H153 H 0.25307 0.65910 0.76556
 H154 H 0.31512 0.76673 0.82557
 H155 H 0.36080 0.71751 0.87270
 H156 H 0.29589 0.60797 0.81238
 H157 H 0.16250 0.73876 0.74005
 H158 H 0.12352 0.69232 0.68187
 H159 H 0.23335 0.65226 0.61028
 H160 H 0.26964 0.69891 0.67001
 C161 C 0.17887 0.84025 0.86518
 C162 C 0.32470 0.84211 0.63980
 C163 C 0.17534 0.66816 0.64143
 C164 C 0.33295 0.65839 0.84530
 C165 C -0.04400 -0.03910 0.02112
 C166 C -0.01953 -0.00526 0.00346
 C167 C -0.03623 0.03074 -0.02226
 C168 C -0.07724 0.03274 -0.03124
 C169 C -0.10145 -0.00176 -0.01445
 C170 C -0.08527 -0.03769 0.01265
 C171 C 0.02361 -0.00762 0.01222
 C172 C 0.04621 -0.04004 -0.01147
 C173 C 0.08746 -0.04274 -0.00350
 C174 C 0.10550 -0.01302 0.02995
 C175 C 0.08310 0.01980 0.05379
 C176 C 0.04212 0.02247 0.04419
 H177 H -0.03065 -0.06582 0.04262
 H178 H -0.01726 0.05705 -0.03556
 H179 H 0.03158 -0.06206 -0.03753
 H180 H 0.02432 0.04732 0.06252
 H181 H -0.13278 -0.00114 -0.02348
 H182 H 0.13708 -0.01505 0.03703
 C183 C -0.03670 0.47066 0.51971
 C184 C -0.01661 0.50507 0.49529
 C185 C -0.03826 0.53834 0.47066
 C186 C -0.07993 0.53734 0.46977
 C187 C -0.09978 0.50325 0.49556
 C188 C -0.07843 0.46975 0.52089
 C189 C 0.02715 0.50621 0.49507
 C190 C 0.04869 0.47378 0.46963
 C191 C 0.09034 0.47531 0.46777
 C192 C 0.11003 0.50952 0.49241
 C193 C 0.08903 0.54179 0.51920
 C194 C 0.04730 0.54000 0.51982
 H195 H -0.01963 0.44473 0.53778
 H196 H -0.02250 0.56488 0.45202
 H197 H 0.03278 0.44820 0.45011
 H198 H 0.03024 0.56405 0.54047
 H199 H -0.13192 0.50280 0.49576
 H200 H 0.14212 0.51082 0.49091
 C201 C 0.45753 -0.03035 0.52618
 C202 C 0.47963 0.00273 0.50208
 C203 C 0.46027 0.03553 0.47352
 C204 C 0.41875 0.03514 0.46821
 C205 C 0.39699 0.00181 0.49261
 C206 C 0.41593 -0.03100 0.52189
 C207 C 0.52327 0.00176 0.50477
 C208 C 0.54442 -0.02776 0.47458
 C209 C 0.58621 -0.02951 0.47608
 C210 C 0.60613 -0.00028 0.50839
 C211 C 0.58529 0.02951 0.53908
 C212 C 0.54364 0.03030 0.53688
 H213 H 0.47293 -0.05512 0.54863
 H214 H 0.47768 0.06098 0.45523
 H215 H 0.52784 -0.04827 0.44880
 H216 H 0.52687 0.05241 0.56064
 H217 H 0.36510 0.00068 0.48746
 H218 H 0.63800 0.00002 0.50970
 C219 C 0.45556 0.46059 0.01707
 C220 C 0.48019 0.49410 -0.00132
 C221 C 0.46370 0.52930 -0.02886
 C222 C 0.42299 0.53022 -0.03970
 C223 C 0.39849 0.49669 -0.02130
 C224 C 0.41438 0.46192 0.00793
 C225 C 0.52348 0.49134 0.00600
 C226 C 0.54528 0.45923 -0.01949
 C227 C 0.58690 0.45763 -0.01560
 C228 C 0.60622 0.48811 0.01558
 C229 C 0.58467 0.52065 0.04111
 C230 C 0.54319 0.52209 0.03593
 H231 H 0.46858 0.43408 0.03932
 H232 H 0.48277 0.55492 -0.04375
 H233 H 0.52973 0.43682 -0.04418
 H234 H 0.52618 0.54752 0.05439
 H235 H 0.36703 0.49767 -0.03009
 H236 H 0.63802 0.48624 0.02059
 C237 C 0.17087 -0.09231 -0.08089
 C238 C 0.15646 -0.13216 -0.09821
 C239 C 0.11848 -0.14423 -0.07931
 C240 C 0.09641 -0.11614 -0.04694
 C241 C 0.11167 -0.07509 -0.03201
 C242 C 0.15007 -0.06588 -0.04889
 C243 C 0.18018 -0.03044 -0.05142
 C244 C 0.20389 -0.06033 -0.08713
 H245 H 0.10502 -0.17455 -0.09089
 H246 H 0.06727 -0.12649 -0.03437
 H247 H 0.19515 -0.02513 -0.01398
 H248 H 0.16855 -0.00058 -0.07098
 H249 H 0.23218 -0.07250 -0.07010
 H250 H 0.20622 -0.04661 -0.12670
 C251 C 0.17133 0.42232 0.38884
 C252 C 0.15735 0.38001 0.38102
 C253 C 0.12310 0.36723 0.40869
 C254 C 0.10157 0.39766 0.43800
 C255 C 0.11380 0.44161 0.44042
 C256 C 0.15022 0.45215 0.41759
 C257 C 0.16073 0.48909 0.38232
 C258 C 0.18389 0.45635 0.35073
 H259 H 0.11235 0.33408 0.40693
 H260 H 0.07502 0.38690 0.45777
 H261 H 0.18004 0.51342 0.40128
 H262 H 0.13444 0.50292 0.36190
 H263 H 0.21649 0.46192 0.35153
 H264 H 0.17108 0.45112 0.31192
 C265 C 0.66604 -0.07818 0.38927
 C266 C 0.65046 -0.11873 0.37586
 C267 C 0.61145 -0.12799 0.39231
 C268 C 0.59097 -0.09948 0.42510
 C269 C 0.60850 -0.06032 0.44222
 C270 C 0.64605 -0.05000 0.42181
 C271 C 0.68428 -0.03771 0.44744
 C272 C 0.70574 -0.06775 0.41097
 H273 H 0.59684 -0.15774 0.38104
 H274 H 0.56194 -0.10940 0.43851
 H275 H 0.68623 -0.04938 0.48800
 H276 H 0.69179 -0.00278 0.44108
 H277 H 0.71999 -0.09625 0.43047
 H278 H 0.72484 -0.05001 0.38293
 C279 C 0.66695 0.40968 -0.09996
 C280 C 0.65355 0.36844 -0.11348
 C281 C 0.61685 0.35557 -0.09133
 C282 C 0.59536 0.38391 -0.05855
 C283 C 0.61009 0.42586 -0.04628
 C284 C 0.64692 0.43632 -0.06751
 C285 C 0.67701 0.47170 -0.07198
 C286 C 0.69971 0.44153 -0.10844
 H287 H 0.60423 0.32412 -0.10005
 H288 H 0.56732 0.37280 -0.04296
 H289 H 0.69319 0.47698 -0.03544
 H290 H 0.66490 0.50152 -0.09111
 H291 H 0.72848 0.42957 -0.09263
 H292 H 0.70077 0.45448 -0.14846
 C293 C -0.13978 0.13217 -0.06460
 C294 C -0.13316 0.13837 -0.11781
 C295 C -0.10123 0.11359 -0.13866
 C296 C -0.08201 0.08055 -0.10975
 C297 C -0.09425 0.07050 -0.05943
 C298 C -0.12142 0.09884 -0.03675
 C299 C -0.15694 0.09056 -0.00402
 C300 C -0.17736 0.12687 -0.03426
 H301 H -0.09064 0.11889 -0.17737
 H302 H -0.05902 0.06128 -0.12777
 H303 H -0.15158 0.09879 0.03684
 H304 H -0.17096 0.05844 -0.01046
 H305 H -0.18402 0.15569 -0.01025
 H306 H -0.20258 0.11535 -0.05809
 C307 C -0.11191 0.61529 0.36389
 C308 C -0.14802 0.63286 0.37979
 C309 C -0.16120 0.61923 0.42920
 C310 C -0.13901 0.58862 0.45914
 C311 C -0.10264 0.57122 0.44095
 C312 C -0.09021 0.58684 0.39311
 C313 C -0.05917 0.58127 0.35297
 C314 C -0.08350 0.61376 0.32006
 H315 H -0.18911 0.63120 0.44420
 H316 H -0.15042 0.57864 0.49632
 H317 H -0.05875 0.54769 0.33742
 H318 H -0.02984 0.59424 0.36486
 H319 H -0.09648 0.59869 0.28533
 H320 H -0.06838 0.64550 0.31347
 C321 C 0.33931 0.11386 0.42109
 C322 C 0.35665 0.13428 0.37821
 C323 C 0.39385 0.11813 0.36184
 C324 C 0.41422 0.08578 0.39060
 C325 C 0.39763 0.06827 0.43614
 C326 C 0.35906 0.08149 0.44871
 C327 C 0.34279 0.09603 0.49882
 C328 C 0.32169 0.13216 0.46904
 H329 H 0.40770 0.13125 0.32748
 H330 H 0.44297 0.07483 0.37730
 H331 H 0.36621 0.10804 0.52521
 H332 H 0.32206 0.07177 0.51591
 H333 H 0.33340 0.16491 0.47859
 H334 H 0.28881 0.12915 0.46989
 C335 C 0.38092 0.63847 -0.08352
 C336 C 0.36138 0.62776 -0.12927
 C337 C 0.36980 0.58640 -0.15015
 C338 C 0.39164 0.55512 -0.12191
 C339 C 0.40631 0.56484 -0.07283
 C340 C 0.40302 0.60775 -0.05603
 C341 C 0.38916 0.62454 -0.00560
 C342 C 0.36491 0.65817 -0.03560
 H343 H 0.35801 0.57729 -0.18714
 H344 H 0.39532 0.52268 -0.13722
 H345 H 0.41377 0.63911 0.01682
 H346 H 0.37063 0.60054 0.01591
 H347 H 0.37555 0.69209 -0.03029
 H348 H 0.33229 0.65373 -0.03154
 C349 C -0.17383 -0.09411 0.07383
 C350 C -0.15820 -0.13442 0.09071
 C351 C -0.12035 -0.14587 0.07110
 C352 C -0.09761 -0.11572 0.04240
 C353 C -0.11157 -0.07286 0.03313
 C354 C -0.15110 -0.06423 0.04629
 C355 C -0.16854 -0.02622 0.07355
 C356 C -0.19335 -0.05871 0.10390
 H357 H -0.10764 -0.17779 0.07833
 H358 H -0.06844 -0.12564 0.02954
 H359 H -0.18665 -0.00508 0.04759
 H360 H -0.14639 -0.00880 0.09737
 H361 H -0.22563 -0.05582 0.09544
 H362 H -0.18564 -0.06022 0.14544
 C363 C -0.10585 0.38734 0.62436
 C364 C -0.14289 0.37099 0.61030
 C365 C -0.15798 0.38667 0.56258
 C366 C -0.13686 0.41799 0.53267
 C367 C -0.09970 0.43447 0.54921
 C368 C -0.08523 0.41663 0.59511
 C369 C -0.05259 0.42056 0.63342
 C370 C -0.07565 0.38724 0.66633
 H371 H -0.18665 0.37591 0.54894
 H372 H -0.14985 0.42932 0.49687
 H373 H -0.05142 0.45356 0.65049
 H374 H -0.02382 0.40769 0.61913
 H375 H -0.08694 0.40141 0.70256
 H376 H -0.06036 0.35521 0.67052
 C377 C 0.33093 -0.08762 0.59044
 C378 C 0.34681 -0.12823 0.60460
 C379 C 0.38419 -0.13941 0.58383
 C380 C 0.40640 -0.10856 0.55530
 C381 C 0.39181 -0.06576 0.54709
 C382 C 0.35275 -0.05734 0.56262
 C383 C 0.33617 -0.02007 0.59218
 C384 C 0.31225 -0.05335 0.62277
 H385 H 0.39684 -0.17143 0.59080
 H386 H 0.43533 -0.11799 0.54109
 H387 H 0.31732 0.00171 0.56788
 H388 H 0.35909 -0.00325 0.61538
 H389 H 0.27973 -0.05060 0.61602
 H390 H 0.32127 -0.05595 0.66380
 C391 C 0.32642 0.40861 0.07333
 C392 C 0.34097 0.36725 0.08706
 C393 C 0.37720 0.35413 0.06458
 C394 C 0.40035 0.38402 0.03602
 C395 C 0.38776 0.42769 0.02929
 C396 C 0.34918 0.43798 0.04526
 C397 C 0.33439 0.47589 0.07522
 C398 C 0.30945 0.44368 0.10604
 H399 H 0.38864 0.32148 0.07099
 H400 H 0.42883 0.37341 0.02144
 H401 H 0.31627 0.49869 0.05125
 H402 H 0.35818 0.49149 0.09818
 H403 H 0.27700 0.44802 0.09980
 H404 H 0.31874 0.44054 0.14693
 C405 C 0.11101 0.12677 0.11466
 C406 C 0.14572 0.11632 0.14173
 C407 C 0.15539 0.07181 0.14789
 C408 C 0.13412 0.03978 0.12100
 C409 C 0.10232 0.05168 0.08818
 C410 C 0.08970 0.09522 0.08905
 C411 C 0.07876 0.12586 0.04634
 C412 C 0.10225 0.16059 0.07438
 H413 H 0.18076 0.06208 0.17098
 H414 H 0.14355 0.00609 0.12440
 H415 H 0.04632 0.13265 0.04517
 H416 H 0.09215 0.11646 0.00904
 H417 H 0.08328 0.18734 0.08921
 H418 H 0.12894 0.17136 0.05272
 C419 C 0.17089 0.59915 0.59193
 C420 C 0.15359 0.63852 0.60672
 C421 C 0.11585 0.64881 0.58607
 C422 C 0.09502 0.61828 0.55610
 C423 C 0.11129 0.57652 0.54659
 C424 C 0.15038 0.56910 0.56306
 C425 C 0.16783 0.53145 0.59239
 C426 C 0.19039 0.56452 0.62399
 H427 H 0.10207 0.67997 0.59387
 H428 H 0.06596 0.62719 0.54159
 H429 H 0.18760 0.51114 0.56822
 H430 H 0.14521 0.51303 0.61488
 H431 H 0.22303 0.56329 0.61778
 H432 H 0.18093 0.56532 0.66488
 C433 C 0.61657 0.13158 0.60905
 C434 C 0.65284 0.12120 0.63239
 C435 C 0.66610 0.07766 0.62565
 C436 C 0.64382 0.04753 0.59659
 C437 C 0.60743 0.05973 0.57286
 C438 C 0.59489 0.10236 0.58173
 C439 C 0.56349 0.13480 0.56807
 C440 C 0.58770 0.16773 0.59917
 H441 H 0.69417 0.06683 0.64163
 H442 H 0.65536 0.01476 0.59279
 H443 H 0.53434 0.12692 0.58581
 H444 H 0.56273 0.14228 0.52619
 H445 H 0.57264 0.17844 0.63485
 H446 H 0.60017 0.19431 0.57475
 C447 C 0.65956 0.60514 0.08088
 C448 C 0.64628 0.62095 0.12778
 C449 C 0.61070 0.60213 0.14687
 C450 C 0.59041 0.56942 0.11896
 C451 C 0.60551 0.55398 0.07167
 C452 C 0.64078 0.57302 0.05496
 C453 C 0.67055 0.57299 0.01266
 C454 C 0.69196 0.60914 0.04215
 H455 H 0.59826 0.61293 0.18287
 H456 H 0.56325 0.55601 0.13471
 H457 H 0.65767 0.58415 -0.02459
 H458 H 0.68797 0.54226 0.01149
 H459 H 0.69160 0.64102 0.02140
 H460 H 0.72126 0.59890 0.05797
   
