data_POSCAR
  _audit_creation_date              2014-09-24
  _audit_creation_method            'ToBaCCo'
  _symmetry_space_group_name_H-M    'P1'
  _symmetry_Int_Tables_number       1
  _symmetry_cell_setting            triclinic
  loop_
  _symmetry_equiv_pos_as_xyz
 x,y,z
_cell_length_a 44.5457
_cell_length_b 44.5124
_cell_length_c 16.7342
_cell_angle_alpha 89.948100
_cell_angle_beta 90.028800
_cell_angle_gamma 119.958400
loop_
  _atom_site_label
  _atom_site_type_symbol
  _atom_site_fract_x
  _atom_site_fract_y
  _atom_site_fract_z
O1 O 0.19253 0.44344 0.42399
 O2 O 0.25169 0.44361 0.57844
 O3 O 0.19295 0.44367 0.57906
 O4 O 0.25130 0.44358 0.42332
 O5 O 0.27984 0.50093 0.42306
 O6 O 0.22159 0.50102 0.57868
 O7 O 0.28026 0.50094 0.57804
 O8 O 0.22113 0.50079 0.42374
 Cu9 Cu 0.21923 0.43779 0.50128
 Cu10 Cu 0.25359 0.50670 0.50089
 C11 C 0.19664 0.47210 0.39839
 C12 C 0.27621 0.47231 0.60364
 C13 C 0.19718 0.47238 0.60442
 C14 C 0.27563 0.47227 0.39751
 O15 O 0.55644 -0.25224 0.42197
 O16 O 0.55637 -0.19336 0.57675
 O17 O 0.55627 -0.25220 0.57713
 O18 O 0.55631 -0.19354 0.42169
 O19 O 0.49900 -0.22224 0.42165
 O20 O 0.49897 -0.28079 0.57695
 O21 O 0.49907 -0.22202 0.57657
 O22 O 0.49914 -0.28087 0.42193
 Cu23 Cu 0.56213 -0.21995 0.49941
 Cu24 Cu 0.49327 -0.25437 0.49928
 C25 C 0.52779 -0.27672 0.39639
 C26 C 0.52770 -0.19751 0.60210
 C27 C 0.52759 -0.27663 0.60265
 C28 C 0.52764 -0.19778 0.39611
 O29 O 1.25098 0.80726 0.42438
 O30 O 1.19193 0.74822 0.57885
 O31 O 1.25079 0.80687 0.57944
 O32 O 1.19228 0.74859 0.42373
 O33 O 1.22089 0.71983 0.42372
 O34 O 1.27929 0.77801 0.57930
 O35 O 1.22049 0.71943 0.57870
 O36 O 1.27952 0.77844 0.42437
 Cu37 Cu 1.21861 0.78064 0.50165
 Cu38 Cu 1.25292 0.74602 0.50155
 C39 C 1.27544 0.80302 0.39890
 C40 C 1.19600 0.72361 0.60419
 C41 C 1.27518 0.80252 0.60491
 C42 C 1.19652 0.72416 0.39804
 O43 O 0.80730 0.55693 0.42404
 O44 O 0.74799 0.55678 0.57798
 O45 O 0.80673 0.55673 0.57911
 O46 O 0.74856 0.55686 0.42286
 O47 O 0.71999 0.49951 0.42277
 O48 O 0.77807 0.49938 0.57890
 O49 O 0.71941 0.49945 0.57775
 O50 O 0.77867 0.49958 0.42396
 Cu51 Cu 0.78053 0.56261 0.50105
 Cu52 Cu 0.74615 0.49370 0.50087
 C53 C 0.80319 0.52826 0.39862
 C54 C 0.72344 0.52808 0.60319
 C55 C 0.80246 0.52801 0.60464
 C56 C 0.72425 0.52819 0.39705
 O57 O 0.44382 0.25103 0.42429
 O58 O 0.44389 0.19182 0.57851
 O59 O 0.44396 0.25065 0.57936
 O60 O 0.44389 0.19232 0.42340
 O61 O 0.50120 0.22101 0.42334
 O62 O 0.50127 0.27925 0.57918
 O63 O 0.50118 0.22047 0.57833
 O64 O 0.50112 0.27966 0.42424
 Cu65 Cu 0.43811 0.21856 0.50143
 Cu66 Cu 0.50697 0.25298 0.50129
 C67 C 0.47247 0.27556 0.39885
 C68 C 0.47256 0.19592 0.60381
 C69 C 0.47265 0.27506 0.60487
 C70 C 0.47256 0.19662 0.39767
 O71 O 0.80820 0.25209 0.57872
 O72 O 0.74912 0.19270 0.42482
 O73 O 0.80769 0.25150 0.42361
 O74 O 0.74949 0.19330 0.57989
 O75 O 0.72079 0.22196 0.57944
 O76 O 0.77890 0.28007 0.42329
 O77 O 0.72039 0.22133 0.42450
 O78 O 0.77944 0.28068 0.57826
 Cu79 Cu 0.78153 0.21951 0.50184
 Cu80 Cu 0.74698 0.25389 0.50137
 C81 C 0.80403 0.27666 0.60380
 C82 C 0.72457 0.19679 0.39928
 C83 C 0.80331 0.27582 0.39768
 C84 C 0.72505 0.19756 0.60531
 N85 N 1.03649 0.57183 -0.08679
 N86 N 1.06121 0.60403 -0.10109
 N87 N 0.96355 0.51452 -0.14176
 N88 N 0.93875 0.50701 -0.19441
 N89 N 0.96357 0.53550 -0.08658
 N90 N 0.93874 0.54288 -0.10020
 N91 N 1.03638 0.55076 -0.14187
 N92 N 1.06096 0.56797 -0.19507
 C93 C 1.07634 0.60100 -0.16837
 C94 C 0.92342 0.52464 -0.16719
 N95 N 0.96323 0.42859 -0.08705
 N96 N 0.93857 0.39639 -0.10154
 N97 N 1.03617 0.48597 -0.14190
 N98 N 1.06094 0.49349 -0.19463
 N99 N 1.03616 0.46493 -0.08679
 N100 N 1.06095 0.45752 -0.10054
 N101 N 0.96334 0.44972 -0.14205
 N102 N 0.93881 0.43255 -0.19538
 Mn103 Mn 0.99986 0.50024 -0.14267
 C104 C 0.92346 0.39949 -0.16884
 C105 C 1.07625 0.47580 -0.16754
 N106 N 0.96351 0.53541 0.08586
 N107 N 0.93895 0.54310 0.10037
 N108 N 1.03632 0.55057 0.14075
 N109 N 1.06096 0.56772 0.19381
 N110 N 1.03644 0.57167 0.08569
 N111 N 1.06119 0.60384 0.09981
 N112 N 0.96350 0.51432 0.14082
 N113 N 0.93900 0.50706 0.19414
 Mn114 Mn 1.00000 0.55396 -0.00047
 C115 C 0.92378 0.52492 0.16764
 C116 C 1.07635 0.60074 0.16696
 N117 N 1.03619 0.46482 0.08565
 N118 N 1.06080 0.45718 0.10002
 N119 N 0.96337 0.44958 0.14055
 N120 N 0.93870 0.43237 0.19352
 N121 N 0.96327 0.42855 0.08541
 N122 N 0.93850 0.39637 0.09939
 N123 N 1.03618 0.48583 0.14071
 N124 N 1.06072 0.49309 0.19394
 Mn125 Mn 0.99971 0.44637 -0.00069
 Mn126 Mn 0.99984 0.50007 0.14146
 Cl127 Cl 0.99986 0.50016 -0.00059
 C128 C 1.07597 0.47530 0.16730
 C129 C 0.92332 0.39939 0.16652
 N130 N 0.46491 0.42865 0.08561
 N131 N 0.45736 0.39643 0.10026
 N132 N 0.44945 0.48617 0.14018
 N133 N 0.43223 0.49360 0.19320
 N134 N 0.42841 0.46515 0.08520
 N135 N 0.39623 0.45765 0.09934
 N136 N 0.48594 0.44977 0.14048
 N137 N 0.49329 0.43258 0.19389
 C138 C 0.47556 0.39950 0.16753
 C139 C 0.39924 0.47589 0.16641
 N140 N 0.53492 0.57189 0.08475
 N141 N 0.54254 0.60414 0.09922
 N142 N 0.55046 0.51446 0.13995
 N143 N 0.56774 0.50705 0.19293
 N144 N 0.57144 0.53542 0.08474
 N145 N 0.60363 0.54288 0.09868
 N146 N 0.51397 0.55084 0.13988
 N147 N 0.50674 0.56810 0.19325
 Mn148 Mn 0.49996 0.50031 0.14087
 C149 C 0.52446 0.60114 0.16661
 C150 C 0.60069 0.52470 0.16589
 N151 N 0.42827 0.46501 -0.08727
 N152 N 0.39605 0.45746 -0.10156
 N153 N 0.48575 0.44955 -0.14206
 N154 N 0.49332 0.43228 -0.19464
 N155 N 0.46483 0.42858 -0.08680
 N156 N 0.45756 0.39640 -0.10030
 N157 N 0.44927 0.48597 -0.14245
 N158 N 0.43200 0.49328 -0.19570
 Mn159 Mn 0.44625 0.44650 -0.00082
 C160 C 0.39901 0.47559 -0.16894
 C161 C 0.47580 0.39934 -0.16729
 N162 N 0.57140 0.53529 -0.08773
 N163 N 0.60362 0.54290 -0.10222
 N164 N 0.51385 0.55062 -0.14278
 N165 N 0.50641 0.56782 -0.19594
 N166 N 0.53482 0.57171 -0.08778
 N167 N 0.54225 0.60390 -0.10206
 N168 N 0.55034 0.51422 -0.14262
 N169 N 0.56757 0.50689 -0.19587
 Mn170 Mn 0.55350 0.55393 -0.00151
 Mn171 Mn 0.49980 0.50008 -0.14324
 Cl172 Cl 0.49988 0.50021 -0.00118
 C173 C 0.60061 0.52469 -0.16940
 C174 C 0.52404 0.60084 -0.16924
 N175 N 0.42858 -0.03661 0.08613
 N176 N 0.39636 -0.06122 0.10050
 N177 N 0.48604 0.03623 0.14121
 N178 N 0.49350 0.06091 0.19416
 N179 N 0.46513 0.03636 0.08603
 N180 N 0.45774 0.06117 0.09996
 N181 N 0.44960 -0.03664 0.14119
 N182 N 0.43233 -0.06121 0.19444
 C183 C 0.39932 -0.07644 0.16778
 C184 C 0.47593 0.07633 0.16713
 N185 N 0.57170 0.03623 0.08655
 N186 N 0.60390 0.06085 0.10107
 N187 N 0.51419 -0.03672 0.14126
 N188 N 0.50667 -0.06149 0.19411
 N189 N 0.53517 -0.03675 0.08620
 N190 N 0.54255 -0.06158 0.10009
 N191 N 0.55063 0.03616 0.14152
 N192 N 0.56783 0.06067 0.19485
 Mn193 Mn 0.50011 -0.00025 0.14206
 C194 C 0.60086 0.07597 0.16836
 C195 C 0.52429 -0.07686 0.16712
 N196 N 0.46519 0.03651 -0.08645
 N197 N 0.45762 0.06119 -0.10094
 N198 N 0.44971 -0.03644 -0.14139
 N199 N 0.43249 -0.06121 -0.19416
 N200 N 0.42870 -0.03647 -0.08630
 N201 N 0.39655 -0.06128 -0.10009
 N202 N 0.48619 0.03644 -0.14144
 N203 N 0.49351 0.06101 -0.19476
 Mn204 Mn 0.44655 -0.00005 -0.00015
 C205 C 0.47579 0.07635 -0.16823
 C206 C 0.39953 -0.07656 -0.16710
 N207 N 0.53525 -0.03669 -0.08623
 N208 N 0.54275 -0.06141 -0.10050
 N209 N 0.55075 0.03630 -0.14111
 N210 N 0.56800 0.06114 -0.19375
 N211 N 0.57172 0.03629 -0.08590
 N212 N 0.60387 0.06115 -0.09948
 N213 N 0.51429 -0.03658 -0.14131
 N214 N 0.50693 -0.06117 -0.19450
 Mn215 Mn 0.55382 -0.00023 0.00015
 Mn216 Mn 0.50024 -0.00007 -0.14209
 Cl217 Cl 0.50018 -0.00015 -0.00001
 C218 C 0.52459 -0.07655 -0.16777
 C219 C 0.60093 0.07649 -0.16649
 C220 C 1.17231 0.47212 0.34211
 C221 C 1.15116 0.47239 0.29754
 C222 C 1.12564 0.47302 0.24859
 C223 C 1.10326 0.47387 0.20975
 C224 C 0.52774 0.70031 0.34295
 C225 C 0.52747 0.67901 0.29795
 C226 C 0.52682 0.65298 0.24852
 C227 C 0.52594 0.62983 0.20933
 C228 C 0.29981 -0.17269 0.34263
 C229 C 0.32125 -0.15157 0.29807
 C230 C 0.34741 -0.12607 0.24912
 C231 C 0.37063 -0.10372 0.21027
 C232 C 0.82755 0.52822 0.34249
 C233 C 0.84870 0.52793 0.29801
 C234 C 0.87420 0.52726 0.24909
 C235 C 0.89654 0.52638 0.21021
 C236 C 0.47252 0.30000 0.34267
 C237 C 0.47280 0.32146 0.29815
 C238 C 0.47342 0.34764 0.24918
 C239 C 0.47423 0.37084 0.21023
 C240 C 0.70021 0.17239 0.34317
 C241 C 0.67880 0.15121 0.29870
 C242 C 0.65268 0.12565 0.24979
 C243 C 0.62951 0.10327 0.21092
 C244 C 0.47265 0.17282 -0.34319
 C245 C 0.47295 0.15165 -0.29863
 C246 C 0.47359 0.12609 -0.24968
 C247 C 0.47442 0.10368 -0.21080
 C248 C 0.70023 0.52796 -0.34395
 C249 C 0.67875 0.52763 -0.29952
 C250 C 0.65253 0.52695 -0.25071
 C251 C 0.62930 0.52609 -0.21192
 C252 C 0.82709 0.29989 -0.34336
 C253 C 0.84824 0.32140 -0.29896
 C254 C 0.87377 0.34761 -0.25018
 C255 C 0.89615 0.37083 -0.21139
 C256 C 0.52760 -0.17318 -0.34176
 C257 C 0.52731 -0.15199 -0.29740
 C258 C 0.52669 -0.12639 -0.24873
 C259 C 0.52589 -0.10394 -0.21008
 C260 C 0.29938 0.47243 -0.34337
 C261 C 0.32085 0.47275 -0.29887
 C262 C 0.34706 0.47339 -0.25006
 C263 C 0.37030 0.47422 -0.21132
 C264 C 1.17292 0.70048 -0.34281
 C265 C 1.15174 0.67904 -0.29831
 C266 C 1.12616 0.65288 -0.24949
 C267 C 1.10372 0.62967 -0.21075
 C268 C 0.82662 0.52785 -0.33906
 C269 C 0.84777 0.52746 -0.29485
 C270 C 0.87338 0.52672 -0.24674
 C271 C 0.89591 0.52588 -0.20873
 C272 C 0.47278 0.29938 -0.33891
 C273 C 0.47315 0.32091 -0.29477
 C274 C 0.47384 0.34725 -0.24672
 C275 C 0.47463 0.37061 -0.20877
 C276 C 0.70077 0.17338 -0.33838
 C277 C 0.67927 0.15223 -0.29417
 C278 C 0.65296 0.12659 -0.24605
 C279 C 0.62963 0.10404 -0.20804
 C280 C 1.17298 0.47254 -0.33944
 C281 C 1.15182 0.47294 -0.29533
 C282 C 1.12622 0.47369 -0.24725
 C283 C 1.10372 0.47455 -0.20921
 C284 C 0.52746 0.70036 -0.34398
 C285 C 0.52707 0.67895 -0.29924
 C286 C 0.52630 0.65276 -0.25034
 C287 C 0.52539 0.62950 -0.21161
 C288 C 0.29957 -0.17329 -0.33898
 C289 C 0.32114 -0.15215 -0.29490
 C290 C 0.34750 -0.12655 -0.24684
 C291 C 0.37085 -0.10404 -0.20880
 C292 C 0.52753 -0.17354 0.33987
 C293 C 0.52715 -0.15239 0.29559
 C294 C 0.52641 -0.12681 0.24725
 C295 C 0.52555 -0.10432 0.20899
 C296 C 0.29979 0.47237 0.34087
 C297 C 0.32117 0.47277 0.29617
 C298 C 0.34733 0.47356 0.24731
 C299 C 0.37058 0.47449 0.20865
 C300 C 1.17243 0.70002 0.34142
 C301 C 1.15142 0.67868 0.29672
 C302 C 1.12601 0.65256 0.24786
 C303 C 1.10366 0.62936 0.20920
 C304 C 0.47266 0.17255 0.34104
 C305 C 0.47302 0.15153 0.29640
 C306 C 0.47375 0.12608 0.24768
 C307 C 0.47462 0.10369 0.20916
 C308 C 0.70013 0.52811 0.34025
 C309 C 0.67879 0.52774 0.29547
 C310 C 0.65264 0.52699 0.24659
 C311 C 0.62938 0.52609 0.20797
 C312 C 0.82731 0.29996 0.34090
 C313 C 0.84828 0.32132 0.29613
 C314 C 0.87366 0.34747 0.24726
 C315 C 0.89600 0.37072 0.20864
   
