data_POSCAR
  _audit_creation_date              2014-09-24
  _audit_creation_method            'ToBaCCo'
  _symmetry_space_group_name_H-M    'P1'
  _symmetry_Int_Tables_number       1
  _symmetry_cell_setting            triclinic
  loop_
  _symmetry_equiv_pos_as_xyz
 x,y,z
_cell_length_a 26.6725
_cell_length_b 26.8008
_cell_length_c 49.8553
_cell_angle_alpha 90.467700
_cell_angle_beta 93.552600
_cell_angle_gamma 93.811500
loop_
  _atom_site_label
  _atom_site_type_symbol
  _atom_site_fract_x
  _atom_site_fract_y
  _atom_site_fract_z
C1 C -0.02139 0.62291 0.99912
 C2 C -0.02844 0.59644 1.02305
 C3 C -0.02160 0.54479 1.02290
 C4 C -0.00401 0.52053 1.00047
 C5 C 0.00463 0.54889 0.97729
 C6 C -0.00600 0.59970 0.97581
 C7 C 0.00489 0.46567 1.00130
 C8 C 0.00342 0.43649 0.97748
 C9 C 0.01342 0.38572 0.97824
 C10 C 0.02152 0.36287 1.00316
 C11 C 0.02146 0.39034 1.02717
 C12 C 0.01490 0.44182 1.02605
 H13 H -0.02329 0.66303 0.99929
 H14 H -0.03193 0.52307 1.04009
 H15 H 0.01806 0.53087 0.96001
 H16 H -0.00518 0.45275 0.95814
 H17 H 0.02620 0.32304 1.00382
 H18 H 0.01817 0.46291 1.04472
 C19 C 0.36892 0.02309 0.49942
 C20 C 0.39685 0.01529 0.52357
 C21 C 0.44926 0.01285 0.52333
 C22 C 0.47460 0.02178 0.49958
 C23 C 0.44543 0.03134 0.47577
 C24 C 0.39272 0.03042 0.47537
 C25 C 0.53103 0.02157 0.49972
 C26 C 0.55502 0.01201 0.47594
 C27 C 0.60794 0.01508 0.47535
 C28 C 0.63661 0.02339 0.49987
 C29 C 0.61412 0.03108 0.52427
 C30 C 0.56131 0.03183 0.52357
 H31 H 0.32823 0.02215 0.49928
 H32 H 0.46991 0.00453 0.54190
 H33 H 0.46313 0.04042 0.45735
 H34 H 0.53235 0.00401 0.45760
 H35 H 0.67667 0.01937 0.50023
 H36 H 0.54399 0.04265 0.54153
 C37 C 0.07322 -0.00192 0.26155
 H38 H 0.07637 -0.00315 0.24003
 C39 C 0.11666 0.00371 0.27884
 H40 H 0.15342 0.00641 0.27066
 C41 C 0.02159 -0.00238 0.29862
 H42 H -0.01538 -0.00356 0.30633
 C43 C 0.06390 0.00319 0.31654
 H44 H 0.05925 0.00557 0.33794
 N45 N 0.02687 -0.00519 0.27168
 C46 C -0.07868 -0.07775 0.21060
 H47 H -0.10796 -0.05168 0.21051
 C48 C -0.08402 -0.11946 0.19348
 H49 H -0.11743 -0.12550 0.18004
 C50 C 0.00129 -0.10105 0.22773
 H51 H 0.03443 -0.09373 0.24110
 C52 C -0.00254 -0.14327 0.21087
 H53 H 0.02792 -0.16809 0.21111
 Zn54 Zn -0.03119 -0.00894 0.24759
 N55 N -0.03605 -0.06873 0.22683
 C56 C -0.02551 0.03997 0.19766
 N57 N -0.02570 0.04708 0.22472
 C58 C -0.01849 0.09371 0.23594
 C59 C -0.01136 0.13558 0.21968
 C60 C -0.01856 0.08071 0.18074
 C61 C -0.09994 -0.04980 0.28239
 C62 C -0.13980 -0.05116 0.29927
 C63 C -0.15942 0.03098 0.28384
 C64 C -0.11913 0.03079 0.26718
 N65 N -0.08958 -0.00873 0.26732
 H66 H -0.02982 0.00271 0.18911
 H67 H -0.01770 0.09826 0.25755
 H68 H -0.00547 0.17256 0.22873
 H69 H -0.01824 0.07460 0.15924
 H70 H -0.07604 -0.08084 0.28193
 H71 H -0.14661 -0.08327 0.31193
 H72 H -0.18173 0.06326 0.28438
 H73 H -0.11080 0.06270 0.25474
 C74 C -0.04533 -0.15215 0.19336
 C75 C 0.11183 0.00636 0.30659
 C76 C -0.16930 -0.01008 0.30032
 C77 C -0.01131 0.12890 0.19183
 C78 C 0.03025 0.09075 0.76483
 H79 H 0.02962 0.09601 0.74332
 C80 C 0.02909 0.13206 0.78208
 H81 H 0.02798 0.16931 0.77390
 C82 C 0.03078 0.03577 0.80187
 H83 H 0.03019 -0.00175 0.80957
 C84 C 0.02966 0.07589 0.81974
 H85 H 0.02893 0.06906 0.84111
 N86 N 0.03139 0.04376 0.77496
 C87 C 0.09109 -0.05175 0.71480
 H88 H 0.06301 -0.08279 0.71479
 C89 C 0.13054 -0.05277 0.69773
 H90 H 0.13283 -0.08463 0.68445
 C91 C 0.12150 0.02848 0.73149
 H92 H 0.11773 0.06009 0.74461
 C93 C 0.16159 0.02899 0.71467
 H94 H 0.18834 0.06122 0.71469
 Zn95 Zn 0.02868 -0.01167 0.75091
 N96 N 0.08658 -0.01102 0.73074
 C97 C -0.02456 -0.00434 0.70041
 N98 N -0.02947 -0.00742 0.72737
 C99 C -0.07503 -0.00400 0.73794
 C100 C -0.11808 0.00209 0.72109
 C101 C -0.06651 0.00169 0.68293
 C102 C 0.06793 -0.08117 0.78617
 C103 C 0.06778 -0.12244 0.80306
 C104 C -0.01794 -0.14522 0.78665
 C105 C -0.01617 -0.10347 0.77001
 N106 N 0.02595 -0.07177 0.77062
 H107 H 0.01197 -0.00565 0.69237
 H108 H -0.07775 -0.00543 0.75948
 H109 H -0.15418 0.00494 0.72960
 H110 H -0.06210 0.00430 0.66151
 H111 H 0.10101 -0.05554 0.78608
 H112 H 0.10077 -0.12860 0.81608
 H113 H -0.05214 -0.16938 0.78679
 H114 H -0.04883 -0.09582 0.75720
 C115 C 0.16566 -0.01172 0.69737
 C116 C 0.02867 0.12442 0.80979
 C117 C 0.02419 -0.15428 0.80361
 C118 C -0.11364 0.00505 0.69332
 C119 C -0.07027 -0.30516 0.06898
 C120 C -0.05191 -0.32160 0.09398
 C121 C -0.02961 -0.36727 0.09582
 C122 C -0.02388 -0.39551 0.07261
 C123 C -0.03977 -0.37817 0.04691
 C124 C -0.06450 -0.33306 0.04573
 C125 C -0.05263 -0.28953 0.11723
 C126 C -0.05204 -0.26070 0.13595
 C127 C -0.05028 -0.22484 0.15693
 C128 C -0.04820 -0.19256 0.17402
 H129 H -0.08813 -0.27006 0.06735
 H130 H -0.01497 -0.38023 0.11510
 H131 H -0.00373 -0.42908 0.07494
 H132 H -0.08002 -0.31907 0.02692
 C133 C -0.00883 0.34546 0.09659
 C134 C 0.02289 0.30614 0.10003
 C135 C 0.05719 0.29716 0.08070
 C136 C 0.05846 0.32607 0.05752
 C137 C 0.02526 0.36431 0.05333
 C138 C -0.00757 0.37450 0.07343
 C139 C 0.01719 0.27215 0.12201
 C140 C 0.01142 0.24185 0.13948
 C141 C 0.00385 0.20440 0.15883
 C142 C -0.00300 0.17081 0.17441
 H143 H -0.03579 0.35252 0.11133
 H144 H 0.08184 0.26675 0.08312
 H145 H 0.08453 0.31775 0.04255
 H146 H -0.03397 0.40330 0.07063
 C147 C 0.35720 -0.02976 0.59176
 C148 C 0.31954 0.00262 0.59660
 C149 C 0.30797 0.03936 0.57789
 C150 C 0.33345 0.04352 0.55431
 C151 C 0.37093 0.01089 0.54904
 C152 C 0.38290 -0.02558 0.56812
 C153 C 0.29113 -0.00241 0.62017
 C154 C 0.26531 -0.00553 0.63917
 C155 C 0.23282 -0.00821 0.66048
 C156 C 0.20321 -0.00997 0.67781
 H157 H 0.36628 -0.05851 0.60607
 H158 H 0.27893 0.06462 0.58142
 H159 H 0.32397 0.07247 0.54021
 H160 H 0.41131 -0.05145 0.56450
 C161 C -0.27404 0.05419 0.57310
 C162 C -0.29319 0.03593 0.59681
 C163 C -0.34406 0.01979 0.59710
 C164 C -0.37531 0.02018 0.57348
 C165 C -0.35595 0.03606 0.54891
 C166 C -0.30492 0.05444 0.54947
 C167 C -0.25935 0.03068 0.62009
 C168 C -0.22888 0.02538 0.63856
 C169 C -0.19091 0.01850 0.65894
 C170 C -0.15664 0.01235 0.67524
 H171 H -0.23478 0.06733 0.57271
 H172 H -0.35923 0.00532 0.61536
 H173 H -0.41367 0.00472 0.57437
 H174 H -0.28846 0.06970 0.53175
 C175 C 0.03679 -0.35719 0.90878
 C176 C 0.00741 -0.31648 0.90414
 C177 C -0.02653 -0.30398 0.92290
 C178 C -0.03095 -0.33160 0.94632
 C179 C -0.00129 -0.37269 0.95170
 C180 C 0.03244 -0.38518 0.93222
 C181 C 0.01261 -0.28618 0.88065
 C182 C 0.01603 -0.25882 0.86169
 C183 C 0.01922 -0.22459 0.84041
 C184 C 0.02156 -0.19352 0.82311
 H185 H 0.06361 -0.36689 0.89446
 H186 H -0.04978 -0.27272 0.91941
 H187 H -0.05918 -0.32141 0.95966
 H188 H 0.05746 -0.41499 0.93538
 C189 C 0.05620 0.29393 0.92765
 C190 C 0.01968 0.29698 0.90647
 C191 C -0.01844 0.33012 0.90836
 C192 C -0.02031 0.35968 0.93153
 C193 C 0.01582 0.35612 0.95310
 C194 C 0.05435 0.32326 0.95078
 C195 C 0.02046 0.26414 0.88353
 C196 C 0.02188 0.23482 0.86518
 C197 C 0.02414 0.19844 0.84474
 C198 C 0.02625 0.16563 0.82825
 H199 H 0.08584 0.26839 0.92643
 H200 H -0.04710 0.33255 0.89213
 H201 H -0.05065 0.38434 0.93285
 H202 H 0.08308 0.32026 0.96691
 C203 C -0.36627 -0.02117 0.40465
 C204 C -0.31837 0.00240 0.40249
 C205 C -0.29518 0.03004 0.42419
 C206 C -0.31939 0.03406 0.44803
 C207 C -0.36777 0.01034 0.45088
 C208 C -0.39088 -0.01718 0.42852
 C209 C -0.29191 -0.00204 0.37837
 C210 C -0.26727 -0.00476 0.35901
 C211 C -0.23571 -0.00705 0.33741
 C212 C -0.20657 -0.00856 0.31993
 H213 H -0.38440 -0.04310 0.38799
 H214 H -0.25822 0.04882 0.42267
 H215 H -0.30050 0.05764 0.46378
 H216 H -0.42700 -0.03765 0.42953
 C217 C 0.34110 0.00791 0.40340
 C218 C 0.29760 0.03445 0.40284
 C219 C 0.28720 0.06265 0.42534
 C220 C 0.31921 0.06300 0.44862
 C221 C 0.36206 0.03501 0.44973
 C222 C 0.37325 0.00828 0.42667
 C223 C 0.26152 0.02980 0.38011
 C224 C 0.22963 0.02503 0.36189
 C225 C 0.19044 0.01875 0.34155
 C226 C 0.15542 0.01311 0.32508
 H227 H 0.34934 -0.01430 0.38616
 H228 H 0.25360 0.08328 0.42514
 H229 H 0.30997 0.08440 0.46595
 H230 H 0.40566 -0.01405 0.42702
   
