data_POSCAR
  _audit_creation_date              2014-09-24
  _audit_creation_method            'ToBaCCo'
  _symmetry_space_group_name_H-M    'P1'
  _symmetry_Int_Tables_number       1
  _symmetry_cell_setting            triclinic
  loop_
  _symmetry_equiv_pos_as_xyz
 x,y,z
_cell_length_a 45.4495
_cell_length_b 47.2441
_cell_length_c 43.3516
_cell_angle_alpha 90.363100
_cell_angle_beta 89.474900
_cell_angle_gamma 91.312300
loop_
  _atom_site_label
  _atom_site_type_symbol
  _atom_site_fract_x
  _atom_site_fract_y
  _atom_site_fract_z
N1 N 0.16540 0.17694 0.22796
 N2 N 0.18801 0.16004 0.22797
 C3 C 0.18342 0.13992 0.24952
 C4 C 0.15662 0.14475 0.26351
 C5 C 0.14569 0.16826 0.24944
 H6 H 0.19825 0.12299 0.25449
 H7 H 0.12491 0.17816 0.25429
 Cu8 Cu 0.22097 0.16571 0.19949
 Cu9 Cu 0.16279 0.20852 0.19979
 Cu10 Cu 0.21977 0.21821 0.14710
 N11 N 0.25221 0.17100 0.16891
 N12 N 0.25164 0.19149 0.14851
 C13 C 0.27518 0.18961 0.12956
 C14 C 0.29120 0.16680 0.13877
 C15 C 0.27615 0.15533 0.16361
 H16 H 0.27984 0.20328 0.11012
 H17 H 0.28178 0.13657 0.17625
 N18 N 0.18560 0.24304 0.14937
 N19 N 0.16394 0.23931 0.16955
 C20 C 0.14374 0.25925 0.16522
 C21 C 0.15322 0.27618 0.14127
 C22 C 0.17972 0.26551 0.13161
 H23 H 0.12348 0.26122 0.17825
 H24 H 0.19347 0.27338 0.11292
 H25 H 0.18830 0.19062 0.16522
 H26 H 0.20759 0.21503 0.19291
 N27 N -0.18055 0.81796 0.23655
 N28 N -0.20374 0.83411 0.23615
 C29 C -0.20176 0.85309 0.25943
 C30 C -0.17608 0.84835 0.27506
 C31 C -0.16308 0.82604 0.26007
 H32 H -0.21747 0.86940 0.26436
 H33 H -0.14227 0.81671 0.26557
 Cu34 Cu -0.23377 0.82946 0.20469
 Cu35 Cu -0.17427 0.78829 0.20616
 Cu36 Cu -0.22587 0.78057 0.14829
 N37 N -0.26172 0.82546 0.17113
 N38 N -0.25855 0.80641 0.14914
 C39 C -0.28020 0.80910 0.12839
 C40 C -0.29771 0.83090 0.13812
 C41 C -0.28548 0.84096 0.16511
 H42 H -0.28253 0.79668 0.10747
 H43 H -0.29284 0.85872 0.17879
 N44 N -0.19130 0.75640 0.15137
 N45 N -0.17163 0.75942 0.17345
 C46 C -0.15062 0.74009 0.16930
 C47 C -0.15751 0.72431 0.14348
 C48 C -0.18331 0.73503 0.13256
 H49 H -0.13167 0.73765 0.18387
 H50 H -0.19525 0.72782 0.11241
 H51 H -0.19712 0.80772 0.17127
 H52 H -0.21801 0.78111 0.19513
 N53 N -0.18336 0.19092 -0.25303
 N54 N -0.20433 0.17177 -0.24826
 C55 C -0.20172 0.15077 -0.26919
 C56 C -0.17790 0.15731 -0.28790
 C57 C -0.16664 0.18278 -0.27713
 H58 H -0.21580 0.13203 -0.27044
 H59 H -0.14750 0.19427 -0.28587
 Cu60 Cu -0.23249 0.17550 -0.21469
 Cu61 Cu -0.17881 0.22439 -0.22704
 Cu62 Cu -0.23404 0.23602 -0.17320
 N63 N -0.26583 0.18477 -0.18863
 N64 N -0.26643 0.20829 -0.17224
 C65 C -0.29137 0.20844 -0.15518
 C66 C -0.30705 0.18379 -0.16159
 C67 C -0.29034 0.16917 -0.18270
 H68 H -0.29718 0.22475 -0.13874
 H69 H -0.29519 0.14840 -0.19226
 N70 N -0.19931 0.26144 -0.17797
 N71 N -0.17827 0.25695 -0.19854
 C72 C -0.15724 0.27730 -0.19563
 C73 C -0.16557 0.29532 -0.17225
 C74 C -0.19219 0.28480 -0.16140
 H75 H -0.13707 0.27863 -0.20903
 H76 H -0.20505 0.29321 -0.14249
 H77 H -0.20081 0.20985 -0.18792
 H78 H -0.22365 0.22623 -0.21846
 N79 N 0.16983 0.81177 -0.24418
 N80 N 0.19175 0.83041 -0.24338
 C81 C 0.18496 0.85281 -0.26082
 C82 C 0.15743 0.84770 -0.27301
 C83 C 0.14838 0.82159 -0.26214
 H84 H 0.19893 0.87134 -0.26452
 H85 H 0.12783 0.81055 -0.26705
 Cu86 Cu 0.22700 0.82366 -0.21967
 Cu87 Cu 0.17071 0.77623 -0.22208
 Cu88 Cu 0.23206 0.76410 -0.17767
 N89 N 0.26071 0.81683 -0.19371
 N90 N 0.26263 0.79362 -0.17728
 C91 C 0.28736 0.79512 -0.16037
 C92 C 0.30152 0.82053 -0.16680
 C93 C 0.28414 0.83390 -0.18781
 H94 H 0.29397 0.77940 -0.14393
 H95 H 0.28778 0.85487 -0.19719
 N96 N 0.19881 0.73680 -0.18116
 N97 N 0.17548 0.74149 -0.19818
 C98 C 0.15613 0.71969 -0.19497
 C99 C 0.16793 0.70051 -0.17512
 C100 C 0.19486 0.71185 -0.16661
 H101 H 0.13464 0.71824 -0.20543
 H102 H 0.20995 0.70300 -0.15032
 H103 H 0.19828 0.79107 -0.18732
 H104 H 0.21607 0.77287 -0.22080
 N105 N 0.18510 1.18160 0.75270
 N106 N 0.16816 1.20381 0.75275
 C107 C 0.15002 1.20202 0.72832
 C108 C 0.15618 1.17750 0.71231
 C109 C 0.17840 1.16499 0.72831
 H110 H 0.13325 1.21704 0.72290
 H111 H 0.18847 1.14500 0.72296
 Cu112 Cu 0.17087 1.23230 0.78539
 Cu113 Cu 0.21372 1.17516 0.78482
 Cu114 Cu 0.21798 1.22443 0.84424
 N115 N 0.17306 1.25937 0.81945
 N116 N 0.19147 1.25619 0.84236
 C117 C 0.18794 1.27737 0.86295
 C118 C 0.16628 1.29462 0.85224
 C119 C 0.15719 1.28270 0.82472
 H120 H 0.19986 1.27977 0.88433
 H121 H 0.13998 1.29022 0.81000
 N122 N 0.24300 1.19088 0.84202
 N123 N 0.24135 1.17216 0.81929
 C124 C 0.26084 1.15166 0.82430
 C125 C 0.27531 1.15785 0.85134
 C126 C 0.26363 1.18274 0.86210
 H127 H 0.26420 1.13347 0.80953
 H128 H 0.26962 1.19393 0.88304
 H129 H 0.19141 1.19683 0.81919
 H130 H 0.22045 1.21712 0.79734
 N131 N 0.82804 0.82524 0.76155
 N132 N 0.84531 0.80328 0.76224
 C133 C 0.86492 0.80528 0.73873
 C134 C 0.85938 0.82968 0.72265
 C135 C 0.83597 0.84187 0.73764
 H136 H 0.88212 0.79040 0.73391
 H137 H 0.82576 0.86156 0.73182
 Cu138 Cu 0.84080 0.77465 0.79428
 Cu139 Cu 0.79716 0.83118 0.79214
 Cu140 Cu 0.78962 0.78168 0.85048
 N141 N 0.83670 0.74743 0.82778
 N142 N 0.81669 0.75029 0.84965
 C143 C 0.81903 0.72905 0.87003
 C144 C 0.84166 0.71212 0.86033
 C145 C 0.85249 0.72428 0.83359
 H146 H 0.80558 0.72634 0.89056
 H147 H 0.87077 0.71701 0.81974
 N148 N 0.76426 0.81488 0.84738
 N149 N 0.76715 0.83370 0.82508
 C150 C 0.74687 0.85378 0.82922
 C151 C 0.73060 0.84720 0.85525
 C152 C 0.74205 0.82252 0.86630
 H153 H 0.74412 0.87190 0.81449
 H154 H 0.73473 0.81109 0.88660
 H155 H 0.81743 0.80972 0.82739
 H156 H 0.79024 0.78911 0.80368
 N157 N 0.19481 0.81347 1.26741
 N158 N 0.17439 0.79361 1.26360
 C159 C 0.15380 0.79611 1.28597
 C160 C 0.16198 0.81864 1.30463
 C161 C 0.18795 0.82926 1.29228
 H162 H 0.13399 0.78310 1.28801
 H163 H 0.20036 0.84768 1.30020
 Cu164 Cu 0.17565 0.76736 1.22886
 Cu165 Cu 0.22742 0.81876 1.23856
 Cu166 Cu 0.23450 0.76862 1.18067
 N167 N 0.18263 0.73709 1.19926
 N168 N 0.20550 0.73762 1.18043
 C169 C 0.20418 0.71465 1.16186
 C170 C 0.17926 0.69901 1.16969
 C171 C 0.16601 0.71375 1.19336
 H172 H 0.21978 0.70998 1.14364
 H173 H 0.14553 0.70817 1.20494
 N174 N 0.26156 0.80160 1.18494
 N175 N 0.25893 0.82063 1.20718
 C176 C 0.27986 0.84100 1.20341
 C177 C 0.29635 0.83433 1.17771
 C178 C 0.28428 0.80937 1.16640
 H179 H 0.28245 0.85970 1.21773
 H180 H 0.29108 0.79818 1.14580
 H181 H 0.20861 0.79943 1.20019
 H182 H 0.22858 0.77603 1.22726
 N183 N 0.82053 1.17760 1.25702
 N184 N 0.83860 1.19974 1.25582
 C185 C 0.85974 1.19684 1.27716
 C186 C 0.85437 1.17164 1.29236
 C187 C 0.82947 1.15994 1.27910
 H188 H 0.87779 1.21169 1.28116
 H189 H 0.81884 1.13993 1.28491
 Cu190 Cu 0.83261 1.22959 1.22586
 Cu191 Cu 0.78717 1.17279 1.22940
 Cu192 Cu 0.77656 1.22590 1.17591
 N193 N 0.82663 1.25942 1.19589
 N194 N 0.80459 1.25781 1.17641
 C195 C 0.80582 1.28052 1.15777
 C196 C 0.82982 1.29712 1.16611
 C197 C 0.84265 1.28322 1.19023
 H198 H 0.79074 1.28442 1.13919
 H199 H 0.86244 1.28973 1.20225
 N200 N 0.75063 1.19191 1.17916
 N201 N 0.75469 1.17173 1.19956
 C202 C 0.73391 1.15124 1.19568
 C203 C 0.71606 1.15900 1.17184
 C204 C 0.72714 1.18475 1.16176
 H205 H 0.73208 1.13191 1.20885
 H206 H 0.71891 1.19708 1.14290
 H207 H 0.80471 1.19648 1.19341
 H208 H 0.78087 1.21534 1.22167
 O209 O 0.52712 0.97357 0.93925
 O210 O 0.47192 0.99028 1.06579
 O211 O 0.55665 0.98380 1.01993
 O212 O 0.45859 0.95402 0.97816
 O213 O 0.51772 0.96803 1.04311
 O214 O 0.47211 0.97282 0.93523
 O215 O 0.46396 0.96154 1.03032
 O216 O 0.55990 0.99740 0.96572
 C217 C 0.55302 0.97723 0.94789
 C218 C 0.45940 0.96813 1.05749
 C219 C 0.54382 0.96493 1.03546
 C220 C 0.46023 0.95297 0.94977
 O221 O 0.47135 1.02737 0.93860
 O222 O 0.52317 1.01360 1.07414
 O223 O 0.53717 1.04823 0.98089
 O224 O 0.44442 1.01685 1.02468
 O225 O 0.48483 1.03734 1.04134
 O226 O 0.52692 1.02933 0.93692
 O227 O 0.43841 1.00693 0.96924
 O228 O 0.53764 1.03685 1.03400
 Co229 Co 0.49951 1.00072 0.94286
 Co230 Co 0.50211 1.00286 1.04053
 Co231 Co 0.54373 1.01505 0.99971
 Co232 Co 0.45504 0.98616 1.00037
 O233 O 0.49882 1.00018 0.99371
 C234 C 0.44543 1.02470 0.94856
 C235 C 0.54217 1.03101 1.06192
 C236 C 0.53596 1.05006 0.95249
 C237 C 0.45766 1.03796 1.03681
 O238 O 0.02864 0.47443 0.05979
 O239 O 0.01257 0.52826 -0.06561
 O240 O 0.01673 0.44591 -0.02316
 O241 O 0.05108 0.53774 0.02160
 O242 O 0.03404 0.48316 -0.04536
 O243 O 0.02993 0.52766 0.06444
 O244 O 0.04311 0.53415 -0.03067
 O245 O 0.00453 0.44302 0.03170
 C246 C 0.02459 0.44949 0.05063
 C247 C 0.03627 0.53902 -0.05758
 C248 C 0.03638 0.45775 -0.03911
 C249 C 0.05146 0.53762 0.04999
 O250 O -0.02665 0.52858 0.06115
 O251 O -0.01396 0.47997 -0.07479
 O252 O -0.04884 0.46503 0.01954
 O253 O -0.01342 0.55514 -0.02332
 O254 O -0.03676 0.51742 -0.04044
 O255 O -0.02865 0.47495 0.06295
 O256 O -0.00324 0.55973 0.03182
 O257 O -0.03801 0.46592 -0.03428
 Co258 Co 0.00092 0.50136 0.05665
 Co259 Co -0.00160 0.49943 -0.04109
 Co260 Co -0.01478 0.45892 -0.00106
 Co261 Co 0.01793 0.54325 0.00007
 O262 O 0.00168 0.50180 0.00569
 C263 C -0.02289 0.55341 0.05165
 C264 C -0.03244 0.46203 -0.06260
 C265 C -0.04984 0.46491 0.04804
 C266 C -0.03602 0.54359 -0.03533
 O267 O 1.05334 0.02807 0.47218
 O268 O 0.93256 0.00769 0.53054
 O269 O 0.97562 0.01659 0.44145
 O270 O 1.01558 0.04665 0.54329
 O271 O 0.95365 0.03120 0.48240
 O272 O 1.05677 0.02879 0.52990
 O273 O 0.96577 0.03764 0.53847
 O274 O 1.02759 0.00454 0.43791
 C275 C 1.04572 0.02406 0.44493
 C276 C 0.93998 0.03006 0.54331
 C277 C 0.96053 0.03481 0.45491
 C278 C 1.04269 0.04827 0.54203
 O279 O 1.05400 -0.02586 0.53115
 O280 O 0.92469 -0.01501 0.47748
 O281 O 1.01403 -0.04705 0.46153
 O282 O 0.97234 -0.01761 0.55946
 O283 O 0.95667 -0.03843 0.51740
 O284 O 1.05577 -0.02742 0.47300
 O285 O 1.02499 -0.00594 0.56541
 O286 O 0.96296 -0.03708 0.46156
 Co287 Co 1.04982 0.00085 0.50145
 Co288 Co 0.95679 -0.00374 0.49903
 Co289 Co 0.99545 -0.01426 0.45498
 Co290 Co 0.99491 0.01388 0.54779
 O291 O 1.00132 0.00021 0.50206
 C292 C 1.04481 -0.02322 0.55830
 C293 C 0.93618 -0.03172 0.45732
 C294 C 1.04119 -0.04809 0.46269
 C295 C 0.96104 -0.03904 0.54592
 C296 C 1.14324 0.12931 0.28618
 C297 C 1.13096 0.11592 0.30627
 C298 C 1.11594 0.10020 0.33020
 C299 C 1.12093 0.07125 0.33369
 C300 C 1.10622 0.05599 0.35692
 C301 C 1.08647 0.06962 0.37673
 C302 C 1.08145 0.09856 0.37322
 C303 C 1.09615 0.11382 0.34999
 C304 C 1.07163 0.05392 0.40080
 C305 C 1.05955 0.04048 0.42097
 H306 H 1.13615 0.06051 0.31848
 H307 H 1.11027 0.03362 0.35946
 H308 H 1.06623 0.10930 0.38844
 H309 H 1.09211 0.13619 0.34746
 C310 C 0.83572 -0.13576 0.30061
 C311 C 0.84625 -0.12256 0.32184
 C312 C 0.85958 -0.10694 0.34686
 C313 C 0.85889 -0.07731 0.34740
 C314 C 0.87322 -0.06208 0.37085
 C315 C 0.88828 -0.07643 0.39383
 C316 C 0.88865 -0.10607 0.39350
 C317 C 0.87432 -0.12130 0.37006
 C318 C 0.90446 -0.06073 0.41688
 C319 C 0.91861 -0.04753 0.43567
 H320 H 0.84767 -0.06599 0.32949
 H321 H 0.87293 -0.03916 0.37079
 H322 H 0.90037 -0.11737 0.41107
 H323 H 0.87511 -0.14420 0.36978
 C324 C 0.83399 0.14031 0.68768
 C325 C 0.84456 0.12613 0.66742
 C326 C 0.85799 0.10935 0.64363
 C327 C 0.87409 0.12261 0.61988
 C328 C 0.88887 0.10632 0.59790
 C329 C 0.88758 0.07672 0.59960
 C330 C 0.87104 0.06345 0.62303
 C331 C 0.85625 0.07974 0.64502
 C332 C 0.90491 0.06010 0.57870
 C333 C 0.92039 0.04630 0.56201
 H334 H 0.87570 0.14549 0.61872
 H335 H 0.90181 0.11679 0.58003
 H336 H 0.87012 0.04057 0.62470
 H337 H 0.84399 0.06929 0.66340
 C338 C 1.14171 -0.13459 0.70641
 C339 C 1.12842 -0.12004 0.68886
 C340 C 1.11262 -0.10299 0.66757
 C341 C 1.11933 -0.07401 0.66501
 C342 C 1.10461 -0.05765 0.64355
 C343 C 1.08314 -0.07023 0.62459
 C344 C 1.07621 -0.09915 0.62737
 C345 C 1.09093 -0.11550 0.64883
 C346 C 1.06899 -0.05368 0.60159
 C347 C 1.05765 -0.03980 0.58197
 H348 H 1.13610 -0.06415 0.67937
 H349 H 1.11018 -0.03532 0.64151
 H350 H 1.05970 -0.10908 0.61275
 H351 H 1.08563 -0.13791 0.65061
 C352 C 0.31524 1.15600 1.12450
 C353 C 0.33621 1.14564 1.11196
 C354 C 0.36066 1.13204 1.09724
 C355 C 0.38452 1.12351 1.11489
 C356 C 0.40663 1.10735 1.10137
 C357 C 0.40497 1.09968 1.07015
 C358 C 0.38162 1.10901 1.05226
 C359 C 0.35951 1.12518 1.06578
 C360 C 0.42517 1.07959 1.05753
 C361 C 0.44082 1.06133 1.04766
 H362 H 0.38551 1.12852 1.13929
 H363 H 0.42439 1.09996 1.11550
 H364 H 0.37994 1.10291 1.02819
 H365 H 0.34104 1.13149 1.05198
 C366 C 0.32558 0.83191 0.84741
 C367 C 0.34637 0.84300 0.86006
 C368 C 0.37032 0.85759 0.87528
 C369 C 0.37117 0.85853 0.90755
 C370 C 0.39231 0.87553 0.92244
 C371 C 0.41269 0.89164 0.90512
 C372 C 0.41242 0.89001 0.87285
 C373 C 0.39128 0.87300 0.85795
 C374 C 0.43150 0.91208 0.92041
 C375 C 0.44562 0.93024 0.93360
 H376 H 0.35489 0.84693 0.92118
 H377 H 0.39208 0.87690 0.94740
 H378 H 0.42785 0.90264 0.85923
 H379 H 0.39064 0.87262 0.83297
 C380 C 0.67944 0.84219 1.12282
 C381 C 0.65948 0.85308 1.10957
 C382 C 0.63618 0.86740 1.09430
 C383 C 0.61070 0.87447 1.11078
 C384 C 0.58963 0.89140 1.09719
 C385 C 0.59396 0.90130 1.06706
 C386 C 0.61895 0.89343 1.05020
 C387 C 0.64003 0.87650 1.06379
 C388 C 0.57471 0.92213 1.05489
 C389 C 0.55982 0.94097 1.04555
 H390 H 0.60763 0.86774 1.13446
 H391 H 0.57057 0.89764 1.11055
 H392 H 0.62268 0.90124 1.02701
 H393 H 0.65976 0.87134 1.05093
 C394 C 0.66815 1.17384 0.85273
 C395 C 0.64672 1.16361 0.86530
 C396 C 0.62215 1.14949 0.88017
 C397 C 0.60280 1.13252 0.86269
 C398 C 0.58177 1.11516 0.87742
 C399 C 0.58000 1.11472 0.90968
 C400 C 0.59852 1.13258 0.92713
 C401 C 0.61956 1.14995 0.91240
 C402 C 0.56223 1.09332 0.92481
 C403 C 0.54916 1.07414 0.93745
 H404 H 0.60484 1.13176 0.83778
 H405 H 0.56784 1.10115 0.86372
 H406 H 0.59760 1.13212 0.95211
 H407 H 0.63463 1.16275 0.92615
 C408 C 0.13790 0.29956 0.12862
 C409 C 0.12436 0.31897 0.11847
 C410 C 0.10749 0.34187 0.10685
 C411 C 0.07765 0.34368 0.11480
 C412 C 0.06106 0.36585 0.10358
 C413 C 0.07426 0.38630 0.08438
 C414 C 0.10411 0.38453 0.07643
 C415 C 0.12072 0.36233 0.08766
 C416 C 0.05702 0.40888 0.07264
 C417 C 0.04231 0.42757 0.06270
 H418 H 0.06722 0.32794 0.12961
 H419 H 0.03798 0.36701 0.10981
 H420 H 0.11449 0.40023 0.06154
 H421 H 0.14379 0.36110 0.08138
 C422 C -0.14881 0.31895 -0.16027
 C423 C -0.13433 0.33848 -0.15010
 C424 C -0.11666 0.36136 -0.13764
 C425 C -0.13011 0.38471 -0.12387
 C426 C -0.11286 0.40628 -0.11046
 C427 C -0.08212 0.40458 -0.11081
 C428 C -0.06867 0.38143 -0.12496
 C429 C -0.08591 0.35987 -0.13837
 C430 C -0.06449 0.42564 -0.09502
 C431 C -0.04977 0.44265 -0.08081
 H432 H -0.15387 0.38601 -0.12310
 H433 H -0.12348 0.42400 -0.09937
 H434 H -0.04493 0.37982 -0.12515
 H435 H -0.07530 0.34185 -0.14887
 C436 C 0.15331 0.67575 -0.16294
 C437 C 0.14021 0.65555 -0.15238
 C438 C 0.12375 0.63223 -0.13915
 C439 C 0.13431 0.61866 -0.11300
 C440 C 0.11707 0.59775 -0.09842
 C441 C 0.08922 0.59035 -0.10995
 C442 C 0.07894 0.60346 -0.13652
 C443 C 0.09619 0.62437 -0.15111
 C444 C 0.07040 0.57107 -0.09300
 C445 C 0.05467 0.55587 -0.07755
 H446 H 0.15549 0.62474 -0.10344
 H447 H 0.12509 0.58792 -0.07770
 H448 H 0.05732 0.59808 -0.14543
 H449 H 0.08775 0.63491 -0.17120
 C450 C -0.14090 0.70153 0.13067
 C451 C -0.12655 0.68248 0.12036
 C452 C -0.10901 0.65985 0.10853
 C453 C -0.08770 0.64786 0.12726
 C454 C -0.07036 0.62605 0.11581
 C455 C -0.07426 0.61614 0.08558
 C456 C -0.09559 0.62808 0.06683
 C457 C -0.11295 0.64991 0.07830
 C458 C -0.05621 0.59388 0.07375
 C459 C -0.04100 0.57533 0.06378
 H460 H -0.08445 0.65543 0.15066
 H461 H -0.05390 0.61698 0.13046
 H462 H -0.09873 0.62059 0.04339
 H463 H -0.12933 0.65907 0.06362
 C464 C 1.14123 0.16593 0.68583
 C465 C 1.12894 0.15518 0.66402
 C466 C 1.11446 0.14104 0.63863
 C467 C 1.13075 0.12432 0.61817
 C468 C 1.11639 0.10804 0.59557
 C469 C 1.08567 0.10842 0.59328
 C470 C 1.06946 0.12580 0.61313
 C471 C 1.08382 0.14208 0.63574
 C472 C 1.07063 0.08867 0.57311
 C473 C 1.05793 0.07089 0.55786
 H474 H 1.15442 0.12316 0.62033
 H475 H 1.12912 0.09442 0.58061
 H476 H 1.04567 0.12601 0.61182
 H477 H 1.07097 0.15476 0.65157
 C478 C 0.87532 -0.15888 0.69656
 C479 C 0.88814 -0.14822 0.67489
 C480 C 0.90277 -0.13417 0.64940
 C481 C 0.88682 -0.12736 0.62304
 C482 C 0.89999 -0.11090 0.59977
 C483 C 0.92921 -0.10120 0.60268
 C484 C 0.94545 -0.10874 0.62859
 C485 C 0.93227 -0.12520 0.65188
 C486 C 0.94134 -0.08099 0.58098
 C487 C 0.95077 -0.06264 0.56409
 H488 H 0.86394 -0.13397 0.62096
 H489 H 0.88709 -0.10493 0.58005
 H490 H 0.96794 -0.10109 0.63128
 H491 H 0.94477 -0.13015 0.67223
 C492 C 1.14535 -0.16914 0.32949
 C493 C 1.13165 -0.15785 0.34990
 C494 C 1.11557 -0.14311 0.37356
 C495 C 1.08475 -0.14320 0.37317
 C496 C 1.06925 -0.12639 0.39413
 C497 C 1.08451 -0.10943 0.41557
 C498 C 1.11530 -0.10996 0.41653
 C499 C 1.13079 -0.12678 0.39558
 C500 C 1.06889 -0.08926 0.43415
 C501 C 1.05606 -0.07113 0.44817
 H502 H 1.07276 -0.15556 0.35608
 H503 H 1.04547 -0.12587 0.39292
 H504 H 1.12735 -0.09667 0.43273
 H505 H 1.15463 -0.12635 0.39591
 C506 C 0.87146 0.15924 0.31631
 C507 C 0.88510 0.14775 0.33624
 C508 C 0.90057 0.13272 0.35969
 C509 C 0.88615 0.12544 0.38733
 C510 C 0.89986 0.10814 0.40869
 C511 C 0.92808 0.09804 0.40254
 C512 C 0.94285 0.10600 0.37531
 C513 C 0.92913 0.12331 0.35394
 C514 C 0.94050 0.07724 0.42247
 C515 C 0.95011 0.05857 0.43804
 H516 H 0.86398 0.13240 0.39193
 H517 H 0.88809 0.10187 0.42949
 H518 H 0.96454 0.09807 0.37014
 H519 H 0.94041 0.12861 0.33255
 C520 C 0.15423 0.31894 -0.13253
 C521 C 0.14349 0.33910 -0.11987
 C522 C 0.12969 0.36278 -0.10497
 C523 C 0.12611 0.36330 -0.07283
 C524 C 0.11025 0.38492 -0.05864
 C525 C 0.09793 0.40616 -0.07653
 C526 C 0.10222 0.40607 -0.10858
 C527 C 0.11808 0.38445 -0.12276
 C528 C 0.07818 0.42604 -0.06255
 C529 C 0.06002 0.44140 -0.05144
 H530 H 0.13484 0.34658 -0.05885
 H531 H 0.10678 0.38457 -0.03388
 H532 H 0.09250 0.42216 -0.12270
 H533 H 0.12054 0.38419 -0.14765
 C534 C -0.15945 0.32254 0.15133
 C535 C -0.14984 0.34358 0.13882
 C536 C -0.13739 0.36823 0.12373
 C537 C -0.14085 0.37176 0.09190
 C538 C -0.12629 0.39416 0.07672
 C539 C -0.10825 0.41317 0.09331
 C540 C -0.10549 0.41010 0.12528
 C541 C -0.12004 0.38771 0.14046
 C542 C -0.08978 0.43346 0.07717
 C543 C -0.07256 0.44890 0.06373
 H544 H -0.15404 0.35673 0.07869
 H545 H -0.12826 0.39605 0.05194
 H546 H -0.09127 0.42440 0.13830
 H547 H -0.11703 0.38509 0.16503
 C548 C -0.14722 0.68772 -0.12430
 C549 C -0.13730 0.66743 -0.11157
 C550 C -0.12457 0.64348 -0.09666
 C551 C -0.11716 0.64503 -0.06537
 C552 C -0.10241 0.62276 -0.05158
 C553 C -0.09506 0.59880 -0.06901
 C554 C -0.10316 0.59695 -0.10009
 C555 C -0.11790 0.61921 -0.11386
 C556 C -0.07636 0.57776 -0.05612
 C557 C -0.05897 0.56130 -0.04611
 H558 H -0.12204 0.66375 -0.05187
 H559 H -0.09593 0.62462 -0.02765
 H560 H -0.09724 0.57873 -0.11392
 H561 H -0.12334 0.61783 -0.13811
 C562 C 0.16784 0.67399 0.15458
 C563 C 0.15737 0.65339 0.14185
 C564 C 0.14371 0.62941 0.12655
 C565 C 0.14662 0.62613 0.09453
 C566 C 0.13074 0.60466 0.07921
 C567 C 0.11190 0.58635 0.09585
 C568 C 0.10969 0.58909 0.12799
 C569 C 0.12557 0.61056 0.14331
 C570 C 0.09230 0.56716 0.07970
 C571 C 0.07444 0.55265 0.06611
 H572 H 0.16040 0.64071 0.08131
 H573 H 0.13233 0.60299 0.05432
 H574 H 0.09490 0.57531 0.14105
 H575 H 0.12297 0.61302 0.16804
 C576 C 0.29759 1.14128 0.86544
 C577 C 0.31620 1.12691 0.87674
 C578 C 0.33833 1.10926 0.88965
 C579 C 0.34024 1.08095 0.88016
 C580 C 0.36193 1.06379 0.89227
 C581 C 0.38184 1.07486 0.91394
 C582 C 0.37988 1.10315 0.92355
 C583 C 0.35817 1.12032 0.91142
 C584 C 0.40432 1.05721 0.92616
 C585 C 0.42312 1.04236 0.93633
 H586 H 0.32502 1.07218 0.86334
 H587 H 0.36322 1.04196 0.88469
 H588 H 0.39514 1.11192 0.94032
 H589 H 0.35692 1.14218 0.91892
 C590 C 0.31947 0.85134 1.16391
 C591 C 0.33845 0.86590 1.15198
 C592 C 0.36052 0.88348 1.13706
 C593 C 0.35891 0.88812 1.10526
 C594 C 0.37989 0.90553 1.09058
 C595 C 0.40262 0.91846 1.10758
 C596 C 0.40434 0.91381 1.13940
 C597 C 0.38329 0.89634 1.15413
 C598 C 0.42385 0.93647 1.09195
 C599 C 0.44071 0.95121 1.07720
 H600 H 0.34138 0.87836 1.09184
 H601 H 0.37833 0.90900 1.06596
 H602 H 0.42181 0.92370 1.15277
 H603 H 0.38470 0.89294 1.17876
 C604 C 0.69192 1.14278 1.15905
 C605 C 0.67194 1.12894 1.14809
 C606 C 0.64846 1.11225 1.13452
 C607 C 0.64530 1.11163 1.10242
 C608 C 0.62300 1.09499 1.08900
 C609 C 0.60371 1.07884 1.10757
 C610 C 0.60672 1.07954 1.13971
 C611 C 0.62908 1.09622 1.15317
 C612 C 0.58120 1.06144 1.09327
 C613 C 0.56296 1.04725 1.07985
 H614 H 0.66018 1.12388 1.08777
 H615 H 0.62089 1.09459 1.06412
 H616 H 0.59194 1.06713 1.15429
 H617 H 0.63136 1.09650 1.17802
 C618 C 0.70674 0.86304 0.86815
 C619 C 0.68680 0.87663 0.87865
 C620 C 0.66308 0.89321 0.89082
 C621 C 0.66168 0.89972 0.92238
 C622 C 0.63902 0.91641 0.93400
 C623 C 0.61766 0.92671 0.91411
 C624 C 0.61895 0.92005 0.88259
 C625 C 0.64160 0.90335 0.87098
 C626 C 0.59469 0.94441 0.92593
 C627 C 0.57559 0.95936 0.93586
 H628 H 0.67818 0.89204 0.93794
 H629 H 0.63825 0.92143 0.95842
 H630 H 0.60257 0.92790 0.86699
 H631 H 0.64247 0.89850 0.84653
   
