data_POSCAR
  _audit_creation_date              2014-09-24
  _audit_creation_method            'ToBaCCo'
  _symmetry_space_group_name_H-M    'P1'
  _symmetry_Int_Tables_number       1
  _symmetry_cell_setting            triclinic
  loop_
  _symmetry_equiv_pos_as_xyz
 x,y,z
_cell_length_a 68.2100
_cell_length_b 68.0970
_cell_length_c 18.4902
_cell_angle_alpha 90.136400
_cell_angle_beta 90.011000
_cell_angle_gamma 120.013400
loop_
  _atom_site_label
  _atom_site_type_symbol
  _atom_site_fract_x
  _atom_site_fract_y
  _atom_site_fract_z
C1 C 0.25632 0.50930 0.53181
 C2 C 0.25649 0.50964 0.45845
 C3 C 0.23743 0.50863 0.41735
 C4 C 0.27515 0.50979 0.41725
 C5 C 0.27374 0.50714 0.57277
 C6 C 0.23760 0.50894 0.57310
 C7 C 0.21863 0.48769 0.40004
 C8 C 0.19997 0.48660 0.36501
 C9 C 0.19929 0.50656 0.34779
 C10 C 0.21868 0.52761 0.36569
 C11 C 0.23752 0.52856 0.39910
 C12 C 0.27142 0.49051 0.37848
 C13 C 0.28953 0.48978 0.34586
 C14 C 0.31165 0.50839 0.35116
 C15 C 0.31514 0.52798 0.38808
 C16 C 0.29704 0.52865 0.42086
 C17 C 0.29155 0.52614 0.60660
 C18 C 0.30891 0.52439 0.64078
 C19 C 0.30842 0.50352 0.64265
 C20 C 0.29028 0.48444 0.60987
 C21 C 0.27314 0.48628 0.57479
 C22 C 0.23568 0.52845 0.57782
 C23 C 0.21690 0.52755 0.61140
 C24 C 0.19978 0.50712 0.64110
 C25 C 0.20218 0.48777 0.63808
 C26 C 0.22097 0.48870 0.60442
 H27 H 0.21815 0.47211 0.41530
 H28 H 0.18557 0.46985 0.35661
 H29 H 0.22008 0.54364 0.35130
 H30 H 0.25209 0.54490 0.41184
 H31 H 0.25468 0.47571 0.37579
 H32 H 0.28631 0.47434 0.31874
 H33 H 0.30015 0.54370 0.45035
 H34 H 0.29223 0.54237 0.60504
 H35 H 0.32267 0.53929 0.66604
 H36 H 0.28964 0.46822 0.61005
 H37 H 0.25954 0.47152 0.54839
 H38 H 0.24854 0.54425 0.55438
 H39 H 0.21572 0.54281 0.61387
 H40 H 0.18917 0.47173 0.65965
 H41 H 0.22219 0.47348 0.60081
 H42 H 0.33190 0.54272 0.39212
 C43 C 0.49468 -0.25165 0.54240
 C44 C 0.49724 -0.25082 0.46912
 C45 C 0.50047 -0.26793 0.42883
 C46 C 0.49737 -0.23227 0.42669
 C47 C 0.49564 -0.23233 0.58245
 C48 C 0.49249 -0.27092 0.58600
 C49 C 0.51664 -0.27367 0.45148
 C50 C 0.51827 -0.29105 0.41701
 C51 C 0.50437 -0.30242 0.35758
 C52 C 0.48909 -0.29585 0.33228
 C53 C 0.48709 -0.27879 0.36784
 C54 C 0.51654 -0.21745 0.38654
 C55 C 0.51746 -0.19886 0.35130
 C56 C 0.49911 -0.19491 0.35499
 C57 C 0.47960 -0.21032 0.39329
 C58 C 0.47875 -0.22882 0.42873
 C59 C 0.47651 -0.23495 0.61915
 C60 C 0.47709 -0.21637 0.65366
 C61 C 0.49699 -0.19508 0.65321
 C62 C 0.51632 -0.19272 0.61820
 C63 C 0.51561 -0.21118 0.58280
 C64 C 0.47611 -0.29332 0.56931
 C65 C 0.47586 -0.31143 0.60559
 C66 C 0.49194 -0.30763 0.66019
 C67 C 0.50755 -0.28485 0.67886
 C68 C 0.50774 -0.26684 0.64242
 H69 H 0.52772 -0.26498 0.49676
 H70 H 0.53044 -0.29561 0.43654
 H71 H 0.47827 -0.30438 0.28631
 H72 H 0.47471 -0.27446 0.34891
 H73 H 0.53107 -0.21986 0.38451
 H74 H 0.53282 -0.18722 0.32296
 H75 H 0.46367 -0.24031 0.45864
 H76 H 0.46101 -0.25121 0.61948
 H77 H 0.46204 -0.21859 0.68074
 H78 H 0.53179 -0.17644 0.61673
 H79 H 0.53056 -0.20898 0.55502
 H80 H 0.46379 -0.29680 0.52703
 H81 H 0.46268 -0.32834 0.59114
 H82 H 0.52078 -0.28055 0.71835
 H83 H 0.52058 -0.24965 0.65603
 H84 H 0.46500 -0.20806 0.39594
 C85 C 1.25044 0.74556 0.53983
 C86 C 1.25007 0.74565 0.46631
 C87 C 1.26884 0.76383 0.42440
 C88 C 1.23024 0.72842 0.42540
 C89 C 1.23204 0.72700 0.58199
 C90 C 1.26852 0.76488 0.58039
 C91 C 1.26502 0.77863 0.38226
 C92 C 1.28302 0.79699 0.34747
 C93 C 1.30543 0.80105 0.35396
 C94 C 1.30874 0.78529 0.39423
 C95 C 1.29069 0.76695 0.42867
 C96 C 1.20935 0.72761 0.43086
 C97 C 1.19034 0.71065 0.39517
 C98 C 1.19191 0.69410 0.35418
 C99 C 1.21292 0.69510 0.34813
 C100 C 1.23204 0.71233 0.38288
 C101 C 1.22671 0.70449 0.57175
 C102 C 1.20811 0.68682 0.60665
 C103 C 1.19427 0.69118 0.65332
 C104 C 1.20049 0.71413 0.66525
 C105 C 1.21912 0.73172 0.63016
 C106 C 1.28669 0.76344 0.60935
 C107 C 1.30476 0.78236 0.64214
 C108 C 1.30472 0.80303 0.64871
 C109 C 1.28581 0.80391 0.62135
 C110 C 1.26812 0.78515 0.58682
 H111 H 1.24820 0.77646 0.37855
 H112 H 1.27927 0.80863 0.31935
 H113 H 1.32518 0.78662 0.39820
 H114 H 1.29380 0.75526 0.45936
 H115 H 1.20776 0.73999 0.46344
 H116 H 1.17427 0.71011 0.40092
 H117 H 1.24809 0.71278 0.37825
 H118 H 1.23687 0.70056 0.53600
 H119 H 1.20513 0.66984 0.59793
 H120 H 1.19036 0.71876 0.69829
 H121 H 1.22287 0.74901 0.63846
 H122 H 1.28713 0.74780 0.60491
 H123 H 1.31838 0.78042 0.66424
 H124 H 1.28512 0.81943 0.62265
 H125 H 1.25423 0.78652 0.56397
 H126 H 1.21452 0.68258 0.31641
 C127 C 0.74347 0.48495 0.53557
 C128 C 0.74381 0.48557 0.46212
 C129 C 0.76220 0.48519 0.42082
 C130 C 0.72725 0.48908 0.42098
 C131 C 0.72521 0.48554 0.57742
 C132 C 0.76260 0.48594 0.57632
 C133 C 0.77813 0.50465 0.38407
 C134 C 0.79669 0.50512 0.35042
 C135 C 0.79955 0.48605 0.35254
 C136 C 0.78308 0.46631 0.38748
 C137 C 0.76455 0.46589 0.42125
 C138 C 0.72782 0.50992 0.42517
 C139 C 0.71157 0.51298 0.38907
 C140 C 0.69435 0.49512 0.34904
 C141 C 0.69394 0.47432 0.34439
 C142 C 0.71047 0.47141 0.37949
 C143 C 0.70250 0.46895 0.56685
 C144 C 0.68522 0.47060 0.60188
 C145 C 0.69018 0.48891 0.64907
 C146 C 0.71327 0.50507 0.66094
 C147 C 0.73045 0.50334 0.62575
 C148 C 0.76141 0.46608 0.60198
 C149 C 0.78020 0.46689 0.63542
 C150 C 0.80045 0.48778 0.64580
 C151 C 0.80108 0.50773 0.62122
 C152 C 0.78249 0.50673 0.58611
 H153 H 0.77660 0.51973 0.38359
 H154 H 0.80920 0.52068 0.32485
 H155 H 0.78458 0.45122 0.38900
 H156 H 0.75222 0.45064 0.44872
 H157 H 0.74072 0.52371 0.45703
 H158 H 0.71210 0.52909 0.39375
 H159 H 0.70987 0.45524 0.37589
 H160 H 0.69814 0.45477 0.53088
 H161 H 0.66806 0.45703 0.59293
 H162 H 0.71838 0.51994 0.69411
 H163 H 0.74787 0.51647 0.63425
 H164 H 0.74608 0.44988 0.59474
 H165 H 0.77845 0.45115 0.65511
 H166 H 0.81633 0.52411 0.62521
 H167 H 0.78372 0.52219 0.56547
 H168 H 0.68087 0.46039 0.31348
 C169 C 0.50917 0.25528 0.54323
 C170 C 0.50690 0.25478 0.46990
 C171 C 0.50468 0.27249 0.42984
 C172 C 0.50546 0.23562 0.42730
 C173 C 0.50642 0.23508 0.58208
 C174 C 0.51194 0.27469 0.58784
 C175 C 0.48915 0.27912 0.45222
 C176 C 0.48830 0.29686 0.41749
 C177 C 0.50233 0.30766 0.35800
 C178 C 0.51697 0.30024 0.33300
 C179 C 0.51821 0.28284 0.36888
 C180 C 0.48547 0.22084 0.39032
 C181 C 0.48333 0.20163 0.35545
 C182 C 0.50125 0.19697 0.35649
 C183 C 0.52155 0.21231 0.39159
 C184 C 0.52362 0.23146 0.42662
 C185 C 0.52522 0.23465 0.61022
 C186 C 0.52260 0.21502 0.64325
 C187 C 0.50094 0.19556 0.65072
 C188 C 0.48209 0.19655 0.62342
 C189 C 0.48488 0.21596 0.58888
 C190 C 0.52866 0.29699 0.57174
 C191 C 0.52926 0.31530 0.60823
 C192 C 0.51326 0.31179 0.66269
 C193 C 0.49739 0.28911 0.68111
 C194 C 0.49680 0.27092 0.64430
 H195 H 0.47792 0.27082 0.49737
 H196 H 0.47661 0.30208 0.43674
 H197 H 0.52785 0.30833 0.28694
 H198 H 0.53008 0.27778 0.35009
 H199 H 0.47127 0.22380 0.39056
 H200 H 0.46740 0.19005 0.32957
 H201 H 0.53929 0.24289 0.45417
 H202 H 0.54197 0.24939 0.60547
 H203 H 0.53756 0.21553 0.66513
 H204 H 0.46519 0.18198 0.62514
 H205 H 0.47021 0.21605 0.56673
 H206 H 0.54092 0.30025 0.52952
 H207 H 0.54260 0.33212 0.59400
 H208 H 0.48422 0.28506 0.72052
 H209 H 0.48367 0.25387 0.65761
 H210 H 0.53582 0.20949 0.39213
 C211 C 0.74661 0.25106 0.53420
 C212 C 0.74645 0.25256 0.46068
 C213 C 0.72680 0.23623 0.41675
 C214 C 0.76666 0.26975 0.42120
 C215 C 0.76549 0.26892 0.57737
 C216 C 0.72834 0.23150 0.57411
 C217 C 0.72956 0.22271 0.36508
 C218 C 0.71070 0.20499 0.33104
 C219 C 0.68875 0.20069 0.34723
 C220 C 0.68621 0.21522 0.39576
 C221 C 0.70508 0.23283 0.43020
 C222 C 0.78697 0.26929 0.42422
 C223 C 0.80631 0.28601 0.38958
 C224 C 0.80570 0.30358 0.35195
 C225 C 0.78527 0.30389 0.34836
 C226 C 0.76580 0.28692 0.38211
 C227 C 0.77865 0.26339 0.62162
 C228 C 0.79757 0.28040 0.65774
 C229 C 0.80382 0.30352 0.65072
 C230 C 0.78967 0.30861 0.60831
 C231 C 0.77081 0.29156 0.57237
 C232 C 0.71782 0.23527 0.63359
 C233 C 0.69997 0.21698 0.66932
 C234 C 0.69224 0.19469 0.64562
 C235 C 0.70315 0.19088 0.58753
 C236 C 0.72131 0.20909 0.55299
 H237 H 0.74620 0.22506 0.35412
 H238 H 0.71329 0.19401 0.29467
 H239 H 0.66960 0.21269 0.40824
 H240 H 0.70269 0.24333 0.46924
 H241 H 0.78784 0.25606 0.45398
 H242 H 0.82190 0.28550 0.39345
 H243 H 0.75022 0.28746 0.37928
 H244 H 0.77477 0.24595 0.62601
 H245 H 0.80787 0.27526 0.68757
 H246 H 0.79261 0.32570 0.60381
 H247 H 0.76043 0.29606 0.53991
 H248 H 0.72313 0.25238 0.65139
 H249 H 0.69182 0.22024 0.71430
 H250 H 0.69771 0.17378 0.56933
 H251 H 0.72971 0.20569 0.50911
 H252 H 0.78439 0.31720 0.31920
 N253 N 1.02462 0.48928 -0.13066
 N254 N 1.04221 0.49697 -0.17437
 N255 N 0.97810 0.44993 -0.07901
 N256 N 0.96078 0.42908 -0.08493
 N257 N 0.97709 0.46302 -0.12916
 N258 N 0.95911 0.45144 -0.17048
 N259 N 1.02576 0.47624 -0.08063
 N260 N 1.04420 0.47474 -0.08894
 C261 C 1.05427 0.48772 -0.14784
 C262 C 0.94914 0.43026 -0.14255
 N263 N 0.97800 0.46371 0.12660
 N264 N 0.96019 0.45233 0.16866
 N265 N 1.02629 0.47654 0.07514
 N266 N 1.04462 0.47482 0.08261
 N267 N 1.02570 0.49005 0.12475
 N268 N 1.04371 0.49806 0.16691
 N269 N 0.97877 0.45035 0.07677
 N270 N 0.96161 0.42950 0.08394
 Mn271 Mn 1.00225 0.46301 -0.00196
 C272 C 0.95020 0.43097 0.14169
 C273 C 1.05532 0.48834 0.14015
 N274 N 0.97408 0.50359 -0.12899
 N275 N 0.95611 0.49562 -0.17135
 N276 N 1.02096 0.54329 -0.08031
 N277 N 1.03826 0.56409 -0.08656
 N278 N 1.02175 0.53005 -0.13054
 N279 N 1.03961 0.54151 -0.17237
 N280 N 0.97342 0.51704 -0.07928
 N281 N 0.95510 0.51877 -0.08690
 Mn282 Mn 0.99939 0.49649 -0.13076
 C283 C 0.94447 0.50531 -0.14461
 C284 C 1.04969 0.56278 -0.14453
 N285 N 1.02278 0.53069 0.12480
 N286 N 1.04066 0.54247 0.16645
 N287 N 0.97387 0.51729 0.07649
 N288 N 0.95526 0.51849 0.08430
 N289 N 0.97516 0.50441 0.12680
 N290 N 0.95749 0.49653 0.17022
 N291 N 1.02143 0.54373 0.07522
 N292 N 1.03828 0.56477 0.08211
 Mn293 Mn 1.00043 0.49722 0.12667
 Mn294 Mn 0.99739 0.53057 -0.00198
 Cl295 Cl 0.99987 0.49682 -0.00200
 C296 C 1.05011 0.56373 0.13936
 C297 C 0.94524 0.50550 0.14322
 N298 N 0.47126 0.49377 0.12729
 N299 N 0.46087 0.50092 0.17112
 N300 N 0.48095 0.45608 0.07505
 N301 N 0.47809 0.43553 0.08189
 N302 N 0.49476 0.46968 0.12504
 N303 N 0.50151 0.45868 0.16774
 N304 N 0.45725 0.48018 0.07760
 N305 N 0.43695 0.47779 0.08622
 C306 C 0.43945 0.49076 0.14504
 C307 C 0.49095 0.43738 0.14010
 N308 N 0.49317 0.46912 -0.13133
 N309 N 0.50075 0.45841 -0.17217
 N310 N 0.45616 0.47962 -0.07816
 N311 N 0.43556 0.47658 -0.08438
 N312 N 0.46940 0.49316 -0.12905
 N313 N 0.45817 0.49983 -0.17103
 N314 N 0.47993 0.45571 -0.08015
 N315 N 0.47822 0.43557 -0.08471
 Mn316 Mn 0.46831 0.46765 -0.00142
 C317 C 0.49115 0.43743 -0.14269
 C318 C 0.43704 0.48927 -0.14259
 N319 N 0.53709 0.51180 0.12232
 N320 N 0.54814 0.50481 0.16368
 N321 N 0.52658 0.54935 0.07361
 N322 N 0.52935 0.56987 0.08060
 N323 N 0.51357 0.53600 0.12523
 N324 N 0.50728 0.54716 0.16918
 N325 N 0.55040 0.52548 0.07180
 N326 N 0.57094 0.52829 0.07777
 Mn327 Mn 0.50418 0.50281 0.12590
 C328 C 0.56928 0.51532 0.13544
 C329 C 0.51731 0.56829 0.14062
 N330 N 0.51165 0.53529 -0.13143
 N331 N 0.50379 0.54586 -0.17155
 N332 N 0.54931 0.52502 -0.08381
 N333 N 0.56946 0.52698 -0.09036
 N334 N 0.53543 0.51132 -0.13353
 N335 N 0.54583 0.50361 -0.17530
 N336 N 0.52551 0.54897 -0.08164
 N337 N 0.52739 0.56917 -0.08641
 Mn338 Mn 0.50241 0.50222 -0.13234
 Mn339 Mn 0.53820 0.53746 -0.00508
 Cl340 Cl 0.50327 0.50254 -0.00322
 C341 C 0.51388 0.56704 -0.14306
 C342 C 0.56711 0.51365 -0.14794
 N343 N 0.45020 -0.02571 0.08078
 N344 N 0.43000 -0.04394 0.08774
 N345 N 0.48638 0.02241 0.13339
 N346 N 0.49287 0.04016 0.17620
 N347 N 0.47268 0.02207 0.08285
 N348 N 0.46955 0.03959 0.08981
 N349 N 0.46402 -0.02528 0.13100
 N350 N 0.45366 -0.04314 0.17335
 C351 C 0.43242 -0.05462 0.14595
 C352 C 0.48214 0.05068 0.14851
 N353 N 0.54333 0.02480 0.08396
 N354 N 0.56325 0.04337 0.09101
 N355 N 0.50696 -0.02374 0.13173
 N356 N 0.50060 -0.04159 0.17367
 N357 N 0.52090 -0.02300 0.08147
 N358 N 0.52435 -0.04033 0.08768
 N359 N 0.52934 0.02396 0.13419
 N360 N 0.53940 0.04184 0.17706
 Mn361 Mn 0.49667 -0.00067 0.13351
 C362 C 0.56058 0.05377 0.14963
 C363 C 0.51165 -0.05176 0.14561
 N364 N 0.47306 0.02265 -0.07287
 N365 N 0.46965 0.04001 -0.07956
 N366 N 0.46468 -0.02435 -0.12469
 N367 N 0.45440 -0.04202 -0.16837
 N368 N 0.45061 -0.02495 -0.07512
 N369 N 0.43034 -0.04289 -0.08421
 N370 N 0.48730 0.02351 -0.12223
 N371 N 0.49414 0.04158 -0.16337
 Mn372 Mn 0.46137 -0.00151 0.00395
 C373 C 0.48289 0.05165 -0.13637
 C374 C 0.43296 -0.05337 -0.14264
 N375 N 0.52137 -0.02237 -0.07418
 N376 N 0.52426 -0.04007 -0.08142
 N377 N 0.53024 0.02504 -0.12212
 N378 N 0.54098 0.04284 -0.16480
 N379 N 0.54382 0.02541 -0.07118
 N380 N 0.56406 0.04354 -0.07726
 N381 N 0.50756 -0.02266 -0.12415
 N382 N 0.50058 -0.04057 -0.16638
 Mn383 Mn 0.53261 0.00121 0.00504
 Mn384 Mn 0.49744 0.00040 -0.12423
 Cl385 Cl 0.49702 -0.00014 0.00456
 C386 C 0.51124 -0.05121 -0.13945
 C387 C 0.56208 0.05423 -0.13603
 C388 C 1.14033 0.50226 0.25715
 C389 C 1.14544 0.48482 0.24525
 C390 C 1.16502 0.48632 0.27554
 C391 C 1.18053 0.50546 0.31649
 C392 C 1.17570 0.52330 0.32421
 C393 C 1.15596 0.52164 0.29573
 C394 C 1.11859 0.49940 0.22726
 C395 C 1.11074 0.51458 0.24262
 C396 C 1.09017 0.51090 0.21442
 C397 C 1.07708 0.49221 0.16957
 C398 C 1.08471 0.47701 0.15381
 C399 C 1.10506 0.48020 0.18342
 C400 C 1.13114 0.46607 0.20220
 C401 C 1.11161 0.46401 0.17091
 H402 H 1.13518 0.45281 0.19209
 H403 H 1.10121 0.44925 0.13767
 H404 H 1.16856 0.47286 0.26314
 H405 H 1.18625 0.53821 0.35635
 H406 H 1.08455 0.52282 0.22745
 H407 H 1.07450 0.46233 0.12000
 H408 H 1.15325 0.53576 0.30484
 H409 H 1.12002 0.52917 0.27716
 C410 C 0.50887 0.64292 0.25703
 C411 C 0.50439 0.64240 0.33199
 C412 C 0.50320 0.66043 0.36446
 C413 C 0.50562 0.67869 0.32286
 C414 C 0.50911 0.67878 0.24823
 C415 C 0.51085 0.66120 0.21560
 C416 C 0.51103 0.62383 0.22508
 C417 C 0.51763 0.62382 0.15286
 C418 C 0.51970 0.60579 0.12590
 C419 C 0.51497 0.58719 0.16982
 C420 C 0.50838 0.58697 0.24175
 C421 C 0.50683 0.60532 0.27004
 C422 C 0.50085 0.62379 0.37386
 C423 C 0.50165 0.60547 0.34327
 H424 H 0.49717 0.62327 0.43109
 H425 H 0.49859 0.59138 0.37784
 H426 H 0.50000 0.66012 0.42204
 H427 H 0.51084 0.69269 0.21529
 H428 H 0.52488 0.60633 0.07022
 H429 H 0.50504 0.57278 0.27627
 H430 H 0.51358 0.66217 0.15796
 H431 H 0.52161 0.63770 0.11661
 C432 C 0.36118 -0.13908 0.26583
 C433 C 0.33945 -0.14846 0.23425
 C434 C 0.32121 -0.16835 0.26267
 C435 C 0.32404 -0.17939 0.32300
 C436 C 0.34596 -0.17000 0.35294
 C437 C 0.36412 -0.15028 0.32503
 C438 C 0.38005 -0.11749 0.23521
 C439 C 0.40217 -0.10656 0.26395
 C440 C 0.41903 -0.08626 0.23452
 C441 C 0.41439 -0.07630 0.17564
 C442 C 0.39252 -0.08712 0.14594
 C443 C 0.37536 -0.10754 0.17537
 C444 C 0.33597 -0.13791 0.17454
 C445 C 0.35354 -0.11792 0.14570
 H446 H 0.31935 -0.14514 0.14995
 H447 H 0.34992 -0.11037 0.09976
 H448 H 0.30498 -0.17544 0.23573
 H449 H 0.34919 -0.17707 0.40071
 H450 H 0.43581 -0.07830 0.25824
 H451 H 0.38880 -0.07956 0.10028
 H452 H 0.38025 -0.14398 0.35154
 H453 H 0.40684 -0.11325 0.30935
 C454 C 0.86042 0.49072 0.26471
 C455 C 0.84927 0.50053 0.22765
 C456 C 0.82920 0.49852 0.25563
 C457 C 0.82007 0.48707 0.32090
 C458 C 0.83109 0.47726 0.35728
 C459 C 0.85093 0.47899 0.32967
 C460 C 0.88207 0.49368 0.23379
 C461 C 0.89436 0.48442 0.26609
 C462 C 0.91475 0.48818 0.23624
 C463 C 0.92343 0.50125 0.17356
 C464 C 0.91116 0.51021 0.14016
 C465 C 0.89060 0.50649 0.16959
 C466 C 0.85836 0.51259 0.16348
 C467 C 0.87862 0.51558 0.13526
 H468 H 0.84981 0.52007 0.13503
 H469 H 0.88506 0.52526 0.08586
 H470 H 0.82071 0.50595 0.22655
 H471 H 0.82466 0.46867 0.40835
 H472 H 0.92381 0.48091 0.26268
 H473 H 0.91764 0.52016 0.09126
 H474 H 0.85871 0.47131 0.36067
 H475 H 0.88862 0.47427 0.31443
 C476 C 0.49919 0.36275 0.25621
 C477 C 0.50440 0.36375 0.33074
 C478 C 0.50525 0.34563 0.36359
 C479 C 0.50175 0.32678 0.32270
 C480 C 0.49764 0.32624 0.24835
 C481 C 0.49623 0.34393 0.21539
 C482 C 0.49722 0.38189 0.22410
 C483 C 0.48979 0.38145 0.15265
 C484 C 0.48777 0.39949 0.12574
 C485 C 0.49339 0.41853 0.16890
 C486 C 0.50089 0.41924 0.23994
 C487 C 0.50238 0.40091 0.26828
 C488 C 0.50895 0.38289 0.37182
 C489 C 0.50837 0.40124 0.34092
 H490 H 0.51322 0.38377 0.42867
 H491 H 0.51219 0.41573 0.37488
 H492 H 0.50891 0.34625 0.42092
 H493 H 0.49509 0.31187 0.21597
 H494 H 0.48189 0.39857 0.07075
 H495 H 0.50494 0.43380 0.27391
 H496 H 0.49295 0.34258 0.15802
 H497 H 0.48508 0.36719 0.11709
 C498 C 0.63132 0.13946 0.26520
 C499 C 0.65047 0.15231 0.22087
 C500 C 0.66873 0.17268 0.24679
 C501 C 0.66859 0.18027 0.31738
 C502 C 0.64956 0.16747 0.36112
 C503 C 0.63116 0.14742 0.33547
 C504 C 0.61240 0.11756 0.23608
 C505 C 0.59228 0.10393 0.27484
 C506 C 0.57546 0.08335 0.24627
 C507 C 0.57829 0.07576 0.17870
 C508 C 0.59801 0.08938 0.13891
 C509 C 0.61493 0.11026 0.16670
 C510 C 0.65156 0.14450 0.15165
 C511 C 0.63428 0.12382 0.12544
 H512 H 0.66622 0.15433 0.11768
 H513 H 0.63611 0.11835 0.07200
 H514 H 0.68322 0.18248 0.21215
 H515 H 0.64914 0.17256 0.41636
 H516 H 0.56026 0.07322 0.27763
 H517 H 0.60015 0.08379 0.08603
 H518 H 0.61725 0.13820 0.37223
 H519 H 0.58914 0.10881 0.32716
 C520 C 0.49192 0.13489 -0.25181
 C521 C 0.51197 0.14927 -0.29028
 C522 C 0.51515 0.16958 -0.32047
 C523 C 0.49813 0.17554 -0.31613
 C524 C 0.47799 0.16073 -0.27922
 C525 C 0.47500 0.14089 -0.24723
 C526 C 0.48931 0.11354 -0.21953
 C527 C 0.47091 0.09909 -0.17505
 C528 C 0.46903 0.07915 -0.14752
 C529 C 0.48526 0.07300 -0.16423
 C530 C 0.50388 0.08744 -0.20719
 C531 C 0.50622 0.10780 -0.23382
 C532 C 0.52847 0.14299 -0.30030
 C533 C 0.52547 0.12252 -0.27377
 H534 H 0.54376 0.15388 -0.33032
 H535 H 0.53855 0.11826 -0.28408
 H536 H 0.53044 0.17998 -0.35109
 H537 H 0.46462 0.16474 -0.27234
 H538 H 0.45464 0.06836 -0.11376
 H539 H 0.51676 0.08301 -0.21902
 H540 H 0.45917 0.13038 -0.21985
 H541 H 0.45790 0.10294 -0.16038
 C542 C 0.63849 0.49841 -0.25478
 C543 C 0.63393 0.48521 -0.31822
 C544 C 0.65085 0.48180 -0.34905
 C545 C 0.67265 0.49135 -0.31776
 C546 C 0.67661 0.50384 -0.25309
 C547 C 0.65992 0.50731 -0.22227
 C548 C 0.62031 0.50244 -0.22526
 C549 C 0.62355 0.51618 -0.16420
 C550 C 0.60625 0.51974 -0.13954
 C551 C 0.58525 0.50971 -0.17487
 C552 C 0.58175 0.49592 -0.23554
 C553 C 0.59912 0.49234 -0.26119
 C554 C 0.61257 0.47565 -0.35114
 C555 C 0.59550 0.47900 -0.32294
 H556 H 0.60899 0.46541 -0.39960
 H557 H 0.57929 0.47123 -0.35047
 H558 H 0.64708 0.47262 -0.39969
 H559 H 0.69244 0.51054 -0.22406
 H560 H 0.60937 0.53043 -0.09250
 H561 H 0.56556 0.48809 -0.26324
 H562 H 0.66420 0.51694 -0.17268
 H563 H 0.63934 0.52451 -0.13491
 C564 C 0.86471 0.35587 -0.25282
 C565 C 0.85523 0.36044 -0.31401
 C566 C 0.83515 0.34322 -0.34501
 C567 C 0.82386 0.32104 -0.31628
 C568 C 0.83340 0.31683 -0.25466
 C569 C 0.85339 0.33388 -0.22353
 C570 C 0.88647 0.37467 -0.22234
 C571 C 0.89756 0.37183 -0.16228
 C572 C 0.91791 0.38986 -0.13653
 C573 C 0.92769 0.41115 -0.16988
 C574 C 0.91678 0.41420 -0.22947
 C575 C 0.89639 0.39620 -0.25595
 C576 C 0.86593 0.38215 -0.34460
 C577 C 0.88601 0.39965 -0.31605
 H578 H 0.85866 0.38568 -0.39147
 H579 H 0.89359 0.41614 -0.34172
 H580 H 0.82910 0.34714 -0.39393
 H581 H 0.82516 0.30053 -0.22808
 H582 H 0.92599 0.38712 -0.09030
 H583 H 0.92420 0.43062 -0.25556
 H584 H 0.85958 0.32945 -0.17625
 H585 H 0.89090 0.35585 -0.13451
 C586 C 0.49956 -0.13569 -0.25511
 C587 C 0.51620 -0.14144 -0.23670
 C588 C 0.51519 -0.16093 -0.26636
 C589 C 0.49747 -0.17516 -0.31296
 C590 C 0.48051 -0.16995 -0.32887
 C591 C 0.48152 -0.15045 -0.30057
 C592 C 0.50192 -0.11411 -0.22535
 C593 C 0.48737 -0.10592 -0.24523
 C594 C 0.49053 -0.08550 -0.21721
 C595 C 0.50810 -0.07282 -0.16821
 C596 C 0.52265 -0.08081 -0.14770
 C597 C 0.51991 -0.10112 -0.17674
 C598 C 0.53372 -0.12776 -0.18878
 C599 C 0.53535 -0.10821 -0.15866
 H600 H 0.54633 -0.13229 -0.17411
 H601 H 0.54917 -0.09825 -0.12166
 H602 H 0.52813 -0.16514 -0.25298
 H603 H 0.46669 -0.18074 -0.36478
 H604 H 0.47909 -0.07966 -0.23388
 H605 H 0.53641 -0.07096 -0.11034
 H606 H 0.46804 -0.14728 -0.31506
 H607 H 0.47365 -0.11480 -0.28305
 C608 C 0.36185 0.49679 -0.25746
 C609 C 0.36705 0.51454 -0.30712
 C610 C 0.34958 0.51699 -0.33814
 C611 C 0.32685 0.50158 -0.32201
 C612 C 0.32172 0.48385 -0.27368
 C613 C 0.33893 0.48150 -0.24148
 C614 C 0.38096 0.49475 -0.22549
 C615 C 0.37765 0.47845 -0.17283
 C616 C 0.39593 0.47690 -0.14583
 C617 C 0.41794 0.49143 -0.17079
 C618 C 0.42154 0.50802 -0.22221
 C619 C 0.40329 0.50994 -0.24907
 C620 C 0.38958 0.52942 -0.32665
 C621 C 0.40728 0.52701 -0.29889
 H622 H 0.39358 0.54295 -0.36488
 H623 H 0.42439 0.53878 -0.31648
 H624 H 0.35361 0.53050 -0.37653
 H625 H 0.30427 0.47179 -0.26052
 H626 H 0.39275 0.46410 -0.10564
 H627 H 0.43858 0.51958 -0.24091
 H628 H 0.33388 0.46743 -0.20511
 H629 H 0.36114 0.46678 -0.15147
 C630 C 1.13398 0.63769 -0.25199
 C631 C 1.14301 0.63382 -0.31568
 C632 C 1.16297 0.65137 -0.34609
 C633 C 1.17453 0.67317 -0.31419
 C634 C 1.16554 0.67657 -0.24972
 C635 C 1.14571 0.65922 -0.21924
 C636 C 1.11227 0.61868 -0.22246
 C637 C 1.10151 0.62104 -0.16066
 C638 C 1.08120 0.60289 -0.13579
 C639 C 1.07110 0.58192 -0.17165
 C640 C 1.08164 0.57934 -0.23314
 C641 C 1.10201 0.59753 -0.25894
 C642 C 1.13198 0.61248 -0.34924
 C643 C 1.11200 0.59470 -0.32126
 H644 H 1.13890 0.60945 -0.39800
 H645 H 1.10416 0.57853 -0.34925
 H646 H 1.16867 0.64805 -0.39685
 H647 H 1.17410 0.69246 -0.22052
 H648 H 1.07341 0.60530 -0.08810
 H649 H 1.07393 0.56319 -0.26129
 H650 H 1.13997 0.66307 -0.16971
 H651 H 1.10837 0.63673 -0.13086
 C652 C 0.85962 0.49169 -0.26197
 C653 C 0.85479 0.50938 -0.25104
 C654 C 0.83530 0.50800 -0.28164
 C655 C 0.81974 0.48875 -0.32146
 C656 C 0.82411 0.47067 -0.32843
 C657 C 0.84378 0.47218 -0.29978
 C658 C 0.88131 0.49447 -0.23199
 C659 C 0.88896 0.47909 -0.24667
 C660 C 0.90952 0.48270 -0.21845
 C661 C 0.92275 0.50151 -0.17420
 C662 C 0.91532 0.51690 -0.15916
 C663 C 0.89502 0.51380 -0.18889
 C664 C 0.86927 0.52827 -0.20883
 C665 C 0.88872 0.53022 -0.17729
 H666 H 0.86542 0.54170 -0.19954
 H667 H 0.89927 0.54508 -0.14465
 H668 H 0.83191 0.52170 -0.27161
 H669 H 0.81298 0.45564 -0.35935
 H670 H 0.91500 0.47064 -0.23093
 H671 H 0.92567 0.53168 -0.12587
 H672 H 0.84625 0.45787 -0.30793
 H673 H 0.87955 0.46441 -0.28073
 C674 C 0.50682 0.36555 -0.24261
 C675 C 0.51774 0.36867 -0.31003
 C676 C 0.52045 0.35119 -0.34011
 C677 C 0.51242 0.33025 -0.30413
 C678 C 0.50266 0.32795 -0.23517
 C679 C 0.49991 0.34521 -0.20502
 C680 C 0.50290 0.38399 -0.21454
 C681 C 0.49076 0.38180 -0.15052
 C682 C 0.48700 0.39917 -0.12766
 C683 C 0.49530 0.41921 -0.16766
 C684 C 0.50755 0.42169 -0.23124
 C685 C 0.51117 0.40417 -0.25533
 C686 C 0.52557 0.38909 -0.34772
 C687 C 0.52258 0.40654 -0.32057
 H688 H 0.53409 0.39160 -0.39920
 H689 H 0.52894 0.42198 -0.35186
 H690 H 0.52767 0.35371 -0.39371
 H691 H 0.49746 0.31296 -0.20270
 H692 H 0.47753 0.39686 -0.07832
 H693 H 0.51396 0.43712 -0.26266
 H694 H 0.49234 0.34220 -0.15209
 H695 H 0.48375 0.36673 -0.11770
 C696 C 0.63647 0.13723 -0.25200
 C697 C 0.63593 0.14096 -0.32711
 C698 C 0.65423 0.15973 -0.36009
 C699 C 0.67281 0.17534 -0.31888
 C700 C 0.67286 0.17228 -0.24406
 C701 C 0.65499 0.15341 -0.21089
 C702 C 0.61724 0.11624 -0.21972
 C703 C 0.61729 0.10971 -0.14746
 C704 C 0.59930 0.08962 -0.12059
 C705 C 0.58069 0.07571 -0.16459
 C706 C 0.58031 0.08212 -0.23632
 C707 C 0.59862 0.10196 -0.26459
 C708 C 0.61713 0.12604 -0.36872
 C709 C 0.59869 0.10719 -0.33785
 H710 H 0.61659 0.12906 -0.42603
 H711 H 0.58451 0.09622 -0.37231
 H712 H 0.65397 0.16237 -0.41784
 H713 H 0.68702 0.18430 -0.21143
 H714 H 0.59995 0.08496 -0.06502
 H715 H 0.56609 0.07125 -0.27089
 H716 H 0.65598 0.15184 -0.15317
 H717 H 0.63122 0.11960 -0.11123
 C718 C 1.13873 0.50192 -0.27088
 C719 C 1.14930 0.49115 -0.23602
 C720 C 1.16935 0.49318 -0.26426
 C721 C 1.17912 0.50576 -0.32732
 C722 C 1.16869 0.51654 -0.36141
 C723 C 1.14881 0.51471 -0.33371
 C724 C 1.11709 0.49896 -0.23976
 C725 C 1.10522 0.50892 -0.27042
 C726 C 1.08492 0.50529 -0.24022
 C727 C 1.07592 0.49168 -0.17875
 C728 C 1.08770 0.48190 -0.14717
 C729 C 1.10815 0.48543 -0.17710
 C730 C 1.13972 0.47824 -0.17361
 C731 C 1.11958 0.47542 -0.14485
 H732 H 1.14783 0.47004 -0.14681
 H733 H 1.11279 0.46514 -0.09673
 H734 H 1.17740 0.48499 -0.23698
 H735 H 1.17567 0.52606 -0.41075
 H736 H 1.07621 0.51313 -0.26535
 H737 H 1.08093 0.47145 -0.09936
 H738 H 1.14155 0.52324 -0.36284
 H739 H 1.11121 0.51950 -0.31778
 C740 C 0.49869 0.63896 -0.24449
 C741 C 0.48771 0.63565 -0.31194
 C742 C 0.48502 0.65306 -0.34237
 C743 C 0.49304 0.67409 -0.30659
 C744 C 0.50292 0.67660 -0.23764
 C745 C 0.50570 0.65943 -0.20724
 C746 C 0.50250 0.62053 -0.21596
 C747 C 0.51474 0.62289 -0.15197
 C748 C 0.51837 0.60550 -0.12867
 C749 C 0.50982 0.58527 -0.16819
 C750 C 0.49748 0.58263 -0.23171
 C751 C 0.49402 0.60017 -0.25629
 C752 C 0.47972 0.61509 -0.34924
 C753 C 0.48257 0.59764 -0.32159
 H754 H 0.47115 0.61244 -0.40075
 H755 H 0.47607 0.58207 -0.35255
 H756 H 0.47776 0.65037 -0.39600
 H757 H 0.50813 0.69167 -0.20531
 H758 H 0.52793 0.60792 -0.07941
 H759 H 0.49090 0.56707 -0.26280
 H760 H 0.51333 0.66258 -0.15431
 H761 H 0.52193 0.63810 -0.11954
 C762 C 0.36063 -0.13759 -0.26136
 C763 C 0.33830 -0.14170 -0.25268
 C764 C 0.31998 -0.16120 -0.28280
 C765 C 0.32323 -0.17753 -0.31954
 C766 C 0.34547 -0.17382 -0.32431
 C767 C 0.36385 -0.15413 -0.29636
 C768 C 0.37980 -0.11595 -0.23171
 C769 C 0.40275 -0.10899 -0.24458
 C770 C 0.41997 -0.08856 -0.21617
 C771 C 0.41476 -0.07478 -0.17344
 C772 C 0.39202 -0.08144 -0.16060
 C773 C 0.37457 -0.10159 -0.19066
 C774 C 0.33430 -0.12651 -0.21290
 C775 C 0.35201 -0.10714 -0.18132
 H776 H 0.31716 -0.12979 -0.20533
 H777 H 0.34799 -0.09607 -0.15037
 H778 H 0.30304 -0.16402 -0.27455
 H779 H 0.34904 -0.18555 -0.35294
 H780 H 0.43744 -0.08366 -0.22702
 H781 H 0.38789 -0.07063 -0.12863
 H782 H 0.38043 -0.15223 -0.30262
 H783 H 0.40774 -0.11889 -0.27727
 C784 C 0.50438 -0.13489 0.25684
 C785 C 0.49321 -0.14287 0.32392
 C786 C 0.49148 -0.16243 0.35531
 C787 C 0.50052 -0.17452 0.32058
 C788 C 0.51119 -0.16680 0.25343
 C789 C 0.51313 -0.14729 0.22193
 C790 C 0.50640 -0.11356 0.22617
 C791 C 0.51798 -0.10369 0.16131
 C792 C 0.51963 -0.08366 0.13552
 C793 C 0.50971 -0.07300 0.17337
 C794 C 0.49805 -0.08269 0.23781
 C795 C 0.49649 -0.10271 0.26470
 C796 C 0.48386 -0.13127 0.35944
 C797 C 0.48532 -0.11173 0.33022
 H798 H 0.47523 -0.13743 0.41066
 H799 H 0.47776 -0.10343 0.35980
 H800 H 0.48342 -0.16802 0.40762
 H801 H 0.51794 -0.17599 0.22473
 H802 H 0.52870 -0.07653 0.08556
 H803 H 0.49040 -0.07451 0.26758
 H804 H 0.52147 -0.14229 0.17022
 H805 H 0.52604 -0.11101 0.12987
 C806 C 0.36797 0.50323 0.26693
 C807 C 0.34741 0.49405 0.22771
 C808 C 0.32927 0.49613 0.25470
 C809 C 0.33113 0.50702 0.32103
 C810 C 0.35151 0.51602 0.35982
 C811 C 0.36969 0.51423 0.33325
 C812 C 0.38687 0.50052 0.23650
 C813 C 0.40814 0.50945 0.27056
 C814 C 0.42510 0.50626 0.24054
 C815 C 0.42133 0.49404 0.17601
 C816 C 0.40032 0.48523 0.14118
 C817 C 0.38316 0.48848 0.17066
 C818 C 0.34496 0.48265 0.16223
 C819 C 0.36240 0.47981 0.13453
 H820 H 0.32922 0.47561 0.13219
 H821 H 0.35958 0.47070 0.08393
 H822 H 0.31368 0.48927 0.22389
 H823 H 0.35329 0.52410 0.41184
 H824 H 0.44123 0.51333 0.26824
 H825 H 0.39734 0.47594 0.09085
 H826 H 0.38478 0.52132 0.36605
 H827 H 0.41211 0.51900 0.32026
 C828 C 1.13183 0.64021 0.25499
 C829 C 1.14580 0.63524 0.29894
 C830 C 1.16567 0.65293 0.32959
 C831 C 1.17153 0.67560 0.31905
 C832 C 1.15748 0.68051 0.27680
 C833 C 1.13795 0.66310 0.24477
 C834 C 1.11084 0.62085 0.22287
 C835 C 1.09660 0.62396 0.17472
 C836 C 1.07702 0.60537 0.14730
 C837 C 1.07104 0.58327 0.16759
 C838 C 1.08527 0.57991 0.21443
 C839 C 1.10522 0.59846 0.24135
 C840 C 1.13961 0.61269 0.31335
 C841 C 1.11961 0.59470 0.28597
 H842 H 1.15023 0.60887 0.34731
 H843 H 1.11542 0.57755 0.29954
 H844 H 1.17628 0.64907 0.36347
 H845 H 1.16172 0.69793 0.26826
 H846 H 1.06640 0.60834 0.11062
 H847 H 1.08096 0.56282 0.22930
 H848 H 1.12775 0.66792 0.21317
 H849 H 1.10031 0.64056 0.15717
 C850 C 0.49252 0.13522 0.25999
 C851 C 0.50459 0.14346 0.32572
 C852 C 0.50741 0.16358 0.35660
 C853 C 0.49857 0.17593 0.32270
 C854 C 0.48692 0.16790 0.25702
 C855 C 0.48391 0.14785 0.22601
 C856 C 0.48950 0.11341 0.22962
 C857 C 0.47715 0.10336 0.16584
 C858 C 0.47474 0.08299 0.13999
 C859 C 0.48462 0.07213 0.17677
 C860 C 0.49694 0.08193 0.24030
 C861 C 0.49932 0.10233 0.26715
 C862 C 0.51376 0.13160 0.36037
 C863 C 0.51131 0.11157 0.33149
 H864 H 0.52306 0.13795 0.41059
 H865 H 0.51880 0.10309 0.36030
 H866 H 0.51620 0.16942 0.40785
 H867 H 0.48025 0.17726 0.22904
 H868 H 0.46517 0.07577 0.09076
 H869 H 0.50458 0.07361 0.26923
 H870 H 0.47486 0.14263 0.17539
 H871 H 0.46912 0.11086 0.13520
 C872 C 0.64273 0.50478 0.24952
 C873 C 0.63675 0.48593 0.29516
 C874 C 0.65367 0.48256 0.32578
 C875 C 0.67661 0.49813 0.31359
 C876 C 0.68255 0.51700 0.26963
 C877 C 0.66587 0.52026 0.23756
 C878 C 0.62414 0.50771 0.21763
 C879 C 0.62819 0.52503 0.16801
 C880 C 0.61032 0.52731 0.14097
 C881 C 0.58804 0.51254 0.16309
 C882 C 0.58374 0.49498 0.21137
 C883 C 0.60153 0.49229 0.23796
 C884 C 0.61398 0.47089 0.31135
 C885 C 0.59677 0.47417 0.28417
 H886 H 0.60940 0.45654 0.34660
 H887 H 0.57944 0.46224 0.29920
 H888 H 0.64905 0.46817 0.36097
 H889 H 0.70020 0.52924 0.25985
 H890 H 0.61400 0.54085 0.10317
 H891 H 0.56648 0.48323 0.22771
 H892 H 0.67148 0.53517 0.20461
 H893 H 0.64497 0.53690 0.14906
 C894 C 0.86693 0.35622 0.25500
 C895 C 0.85371 0.36182 0.30044
 C896 C 0.83347 0.34458 0.33039
 C897 C 0.82646 0.32170 0.31751
 C898 C 0.83972 0.31616 0.27355
 C899 C 0.85963 0.33314 0.24232
 C900 C 0.88836 0.37514 0.22379
 C901 C 0.90203 0.37145 0.17474
 C902 C 0.92201 0.38962 0.14799
 C903 C 0.92897 0.41187 0.16981
 C904 C 0.91537 0.41581 0.21780
 C905 C 0.89505 0.39770 0.24415
 C906 C 0.86099 0.38454 0.31692
 C907 C 0.88134 0.40207 0.29008
 H908 H 0.85094 0.38883 0.35198
 H909 H 0.88636 0.41935 0.30517
 H910 H 0.82346 0.34892 0.36550
 H911 H 0.83458 0.29857 0.26305
 H912 H 0.93214 0.38620 0.11046
 H913 H 0.92045 0.43303 0.23397
 H914 H 0.86917 0.32781 0.20932
 H915 H 0.89757 0.35472 0.15593
   
