data_POSCAR
  _audit_creation_date              2014-09-24
  _audit_creation_method            'ToBaCCo'
  _symmetry_space_group_name_H-M    'P1'
  _symmetry_Int_Tables_number       1
  _symmetry_cell_setting            triclinic
  loop_
  _symmetry_equiv_pos_as_xyz
 x,y,z
_cell_length_a 18.9872
_cell_length_b 19.0051
_cell_length_c 19.0002
_cell_angle_alpha 76.689700
_cell_angle_beta 103.178400
_cell_angle_gamma 76.826400
loop_
  _atom_site_label
  _atom_site_type_symbol
  _atom_site_fract_x
  _atom_site_fract_y
  _atom_site_fract_z
O1 O 0.62202 0.45830 0.07211
 O2 O 0.42122 0.48082 0.06073
 O3 O 0.53406 0.37105 0.07317
 O4 O 0.50982 0.56971 0.06581
 O5 O 0.47866 0.60364 -0.05899
 O6 O 0.50021 0.40465 -0.05185
 O7 O 0.38968 0.51671 -0.06410
 O8 O 0.59056 0.49123 -0.05272
 Cu9 Cu 0.52486 0.46732 0.08044
 Cu10 Cu 0.48722 0.50755 -0.06944
 C11 C 0.64037 0.47160 0.01118
 C12 C 0.37164 0.49949 -0.00338
 C13 C 0.51784 0.35458 0.01167
 C14 C 0.49200 0.62032 0.00276
 O15 O -0.08162 0.63575 0.45392
 O16 O -0.06662 0.43417 0.47794
 O17 O -0.06568 0.52237 0.56745
 O18 O -0.08166 0.54868 0.36580
 O19 O 0.04297 0.51948 0.39444
 O20 O 0.05887 0.49275 0.59612
 O21 O 0.05791 0.40515 0.50719
 O22 O 0.04291 0.60704 0.48291
 Cu23 Cu -0.08629 0.53768 0.46386
 Cu24 Cu 0.06307 0.50335 0.49788
 C25 C -0.02152 0.65564 0.46574
 C26 C -0.00236 0.38563 0.49432
 C27 C -0.00124 0.50553 0.61578
 C28 C -0.02153 0.53700 0.34610
 O29 O 0.50007 0.05117 0.59648
 O30 O 0.48117 0.05764 0.39739
 O31 O 0.39095 0.06420 0.48278
 O32 O 0.59177 0.05144 0.51119
 O33 O 0.62279 -0.07335 0.54420
 O34 O 0.42182 -0.06066 0.51900
 O35 O 0.51170 -0.06707 0.43145
 O36 O 0.53345 -0.07371 0.63034
 Cu37 Cu 0.48860 0.06860 0.49351
 Cu38 Cu 0.52552 -0.08120 0.53396
 C39 C 0.51693 -0.01215 0.64684
 C40 C 0.49433 -0.00414 0.38069
 C41 C 0.37269 0.00370 0.49963
 C42 C 0.64132 -0.01257 0.53114
 C43 C 0.50990 -0.02646 -0.05760
 C44 C 0.48934 -0.07916 -0.00503
 C45 C 0.47252 -0.05792 0.05719
 C46 C 0.49013 0.00365 0.07894
 C47 C 0.51060 0.05607 0.02601
 C48 C 0.52844 0.03414 -0.03519
 H49 H 0.55193 0.06965 -0.07071
 H50 H 0.45016 -0.09404 0.09337
 C51 C -0.01816 0.51689 1.05429
 C52 C -0.06533 0.48577 1.00688
 C53 C -0.04775 0.47851 0.93999
 C54 C 0.01547 0.49425 0.92017
 C55 C 0.07180 0.50504 0.97726
 C56 C 0.05029 0.52185 1.03905
 H57 H 0.09107 0.53589 1.07879
 H58 H -0.08687 0.46426 0.89880
 C59 C 0.06947 0.02383 0.49373
 C60 C 0.01315 0.08093 0.50452
 C61 C -0.04961 0.06058 0.52064
 C62 C -0.06600 -0.00731 0.51492
 C63 C -0.01896 -0.05490 0.48383
 C64 C 0.04849 -0.03842 0.47732
 H65 H 0.08921 -0.07774 0.46281
 H66 H -0.08910 0.10178 0.53449
 C67 C -0.27928 0.46966 1.01353
 C68 C -0.27460 0.54843 0.97761
 C69 C -0.20425 0.55077 0.97650
 C70 C -0.14233 0.47445 1.01295
 C71 C -0.14981 0.44195 1.09220
 C72 C -0.22147 0.44160 1.09282
 C73 C -0.24394 0.41967 0.97019
 C74 C -0.17223 0.42113 0.97063
 H75 H -0.32321 0.59828 0.95272
 H76 H -0.19343 0.60298 0.95087
 H77 H -0.10235 0.41207 1.14217
 H78 H -0.23338 0.41491 1.14396
 H79 H -0.27008 0.38141 0.94716
 H80 H -0.13766 0.38117 0.95042
 C81 C 0.29555 0.49906 0.99216
 C82 C 0.28348 0.46144 1.06754
 C83 C 0.21092 0.46058 1.06116
 C84 C 0.15500 0.49960 0.98035
 C85 C 0.16612 0.57861 0.95770
 C86 C 0.23877 0.57831 0.96305
 C87 C 0.26515 0.45560 0.93887
 C88 C 0.19253 0.45474 0.93384
 H89 H 0.32853 0.43314 1.12038
 H90 H 0.19588 0.43025 1.10859
 H91 H 0.11996 0.63086 0.93878
 H92 H 0.25447 0.63015 0.94896
 H93 H 0.30012 0.42201 0.91334
 H94 H 0.16853 0.41795 0.90672
 C95 C -0.02497 -0.26829 0.46514
 C96 C 0.01740 -0.23128 0.41487
 C97 C 0.01622 -0.15980 0.41718
 C98 C -0.02553 -0.13156 0.47169
 C99 C -0.10464 -0.13952 0.43958
 C100 C -0.10472 -0.21103 0.43820
 C101 C 0.01107 -0.26459 0.54434
 C102 C 0.01163 -0.19437 0.54747
 H103 H 0.04000 -0.25597 0.37551
 H104 H 0.03529 -0.12408 0.37688
 H105 H -0.15493 -0.09236 0.41020
 H106 H -0.15581 -0.22284 0.41129
 H107 H 0.03514 -0.31353 0.59418
 H108 H 0.03656 -0.18406 0.60013
 C109 C 0.00236 0.30470 0.49599
 C110 C 0.05612 0.27212 0.45415
 C111 C 0.05956 0.19972 0.45390
 C112 C 0.01165 0.16401 0.49854
 C113 C 0.03425 0.17607 0.57712
 C114 C 0.03005 0.24887 0.57575
 C115 C -0.07336 0.29359 0.45832
 C116 C -0.06839 0.22099 0.45862
 H117 H 0.08479 0.30493 0.42263
 H118 H 0.08714 0.17468 0.41807
 H119 H 0.05235 0.13051 0.62982
 H120 H 0.04434 0.26532 0.62702
 H121 H -0.12554 0.33935 0.42952
 H122 H -0.11638 0.20653 0.42869
 C123 C 0.51400 -0.01487 -0.27823
 C124 C 0.59157 -0.04768 -0.21839
 C125 C 0.58878 -0.05167 -0.14678
 C126 C 0.50850 -0.02428 -0.13981
 C127 C 0.47517 0.05679 -0.19610
 C128 C 0.47916 0.06191 -0.26754
 C129 C 0.46536 -0.06388 -0.25129
 C130 C 0.46132 -0.06751 -0.17996
 H131 H 0.64456 -0.06478 -0.23134
 H132 H 0.63960 -0.07235 -0.09875
 H133 H 0.44524 0.10533 -0.18281
 H134 H 0.45440 0.11491 -0.31294
 H135 H 0.43027 -0.08672 -0.28810
 H136 H 0.42012 -0.09014 -0.15954
 C137 C 0.49305 -0.00261 0.30059
 C138 C 0.52459 -0.08062 0.29073
 C139 C 0.52568 -0.07786 0.21880
 C140 C 0.49337 0.00256 0.16138
 C141 C 0.41443 0.03284 0.17045
 C142 C 0.41438 0.03093 0.24258
 C143 C 0.54142 0.04428 0.27006
 C144 C 0.54342 0.04513 0.19884
 H145 H 0.54840 -0.13308 0.33685
 H146 H 0.55228 -0.12799 0.20564
 H147 H 0.36261 0.05384 0.12357
 H148 H 0.36277 0.05016 0.25718
 H149 H 0.57573 0.07014 0.30349
 H150 H 0.58415 0.06645 0.17630
 C151 C 0.49096 -0.29991 0.00109
 C152 C 0.53918 -0.26974 -0.04622
 C153 C 0.54163 -0.19869 -0.04711
 C154 C 0.49214 -0.16120 -0.00414
 C155 C 0.41292 -0.16978 -0.03406
 C156 C 0.41242 -0.24175 -0.03208
 C157 C 0.52319 -0.29034 0.07907
 C158 C 0.52479 -0.21864 0.07626
 H159 H 0.57317 -0.30337 -0.07220
 H160 H 0.58246 -0.17646 -0.06853
 H161 H 0.36129 -0.12270 -0.05495
 H162 H 0.36061 -0.25612 -0.05108
 H163 H 0.54732 -0.33652 0.13149
 H164 H 0.55223 -0.20575 0.12626
 C165 C 0.51512 0.27582 0.01477
 C166 C 0.59266 0.21618 0.04710
 C167 C 0.58977 0.14467 0.05101
 C168 C 0.50935 0.13792 0.02399
 C169 C 0.46262 0.17782 0.06769
 C170 C 0.46692 0.24898 0.06418
 C171 C 0.47980 0.26566 -0.06196
 C172 C 0.47556 0.19438 -0.05701
 H173 H 0.64560 0.22926 0.06396
 H174 H 0.64054 0.09662 0.07143
 H175 H 0.42133 0.15759 0.09028
 H176 H 0.43216 0.28585 0.08720
 H177 H 0.45490 0.31137 -0.11470
 H178 H 0.44511 0.18137 -0.10551
 C179 C -0.27860 -0.01503 0.53298
 C180 C -0.24328 0.02862 0.58256
 C181 C -0.17179 0.02839 0.58058
 C182 C -0.14228 -0.01401 0.52714
 C183 C -0.14924 -0.09335 0.56016
 C184 C -0.22070 -0.09421 0.56106
 C185 C -0.27454 0.02071 0.45391
 C186 C -0.20448 0.02203 0.45102
 H187 H -0.26920 0.05168 0.62093
 H188 H -0.13707 0.04888 0.62014
 H189 H -0.10160 -0.14307 0.59024
 H190 H -0.23231 -0.14532 0.58829
 H191 H -0.32339 0.04533 0.40426
 H192 H -0.19406 0.04755 0.39852
 C193 C 0.29261 0.00891 0.49969
 C194 C 0.28079 -0.06628 0.53757
 C195 C 0.20833 -0.05987 0.53857
 C196 C 0.15241 0.02090 0.49918
 C197 C 0.18985 0.06763 0.54378
 C198 C 0.26241 0.06250 0.54281
 C199 C 0.23607 0.03778 0.42042
 C200 C 0.16343 0.04327 0.42010
 H201 H 0.32603 -0.11893 0.56591
 H202 H 0.19338 -0.10719 0.56923
 H203 H 0.16605 0.09472 0.58067
 H204 H 0.29756 0.08803 0.57620
 H205 H 0.25197 0.05167 0.36869
 H206 H 0.11727 0.06218 0.36784
 C207 C -0.02513 0.53756 1.26623
 C208 C 0.01088 0.45818 1.26331
 C209 C 0.01158 0.45441 1.19337
 C210 C -0.02534 0.52994 1.13022
 C211 C -0.10457 0.56244 1.13776
 C212 C -0.10474 0.56429 1.20914
 C213 C 0.01745 0.58742 1.22926
 C214 C 0.01642 0.58463 1.15796
 H215 H 0.03482 0.40873 1.31264
 H216 H 0.03645 0.40150 1.18350
 H217 H -0.15473 0.59187 1.09048
 H218 H -0.15567 0.59145 1.22102
 H219 H 0.04011 0.62676 1.25388
 H220 H 0.03579 0.62449 1.12206
 C221 C 0.00392 0.50351 0.69660
 C222 C 0.05844 0.54460 0.72926
 C223 C 0.06224 0.54466 0.80174
 C224 C 0.01392 0.50051 0.83727
 C225 C -0.06610 0.54126 0.78051
 C226 C -0.07147 0.54176 0.70788
 C227 C 0.03108 0.42362 0.75203
 C228 C 0.03573 0.42203 0.82492
 H229 H 0.08733 0.57583 0.69646
 H230 H 0.09019 0.58022 0.82680
 H231 H -0.11372 0.57163 0.79518
 H232 H -0.12362 0.57116 0.66221
 H233 H 0.04481 0.37249 0.73527
 H234 H 0.05369 0.36926 0.87037
   
