data_POSCAR
  _audit_creation_date              2014-09-24
  _audit_creation_method            'ToBaCCo'
  _symmetry_space_group_name_H-M    'P1'
  _symmetry_Int_Tables_number       1
  _symmetry_cell_setting            triclinic
  loop_
  _symmetry_equiv_pos_as_xyz
 x,y,z
_cell_length_a 54.0765
_cell_length_b 59.7383
_cell_length_c 35.3421
_cell_angle_alpha 89.754700
_cell_angle_beta 89.848300
_cell_angle_gamma 90.055400
loop_
  _atom_site_label
  _atom_site_type_symbol
  _atom_site_fract_x
  _atom_site_fract_y
  _atom_site_fract_z
C1 C 1.27014 0.22708 0.26152
 C2 C 1.24936 0.23745 0.24533
 C3 C 1.23071 0.22421 0.22928
 C4 C 1.23275 0.20089 0.22927
 C5 C 1.25332 0.19060 0.24580
 C6 C 1.27198 0.20366 0.26211
 C7 C 1.24669 0.26203 0.24588
 C8 C 1.26550 0.27592 0.23140
 C9 C 1.26231 0.29921 0.23074
 C10 C 1.24059 0.30865 0.24519
 C11 C 1.22195 0.29492 0.25994
 C12 C 1.22489 0.27168 0.26010
 H13 H 1.28444 0.23722 0.27444
 H14 H 1.21468 0.23210 0.21656
 H15 H 1.28222 0.26856 0.21988
 H16 H 1.21034 0.26111 0.27151
 H17 H 1.25466 0.17247 0.24621
 H18 H 1.23809 0.32668 0.24476
 C19 C 0.76878 -0.27228 0.27228
 C20 C 0.74828 -0.26331 0.25316
 C21 C 0.73033 -0.27780 0.23820
 C22 C 0.73313 -0.30102 0.24188
 C23 C 0.75350 -0.30980 0.26116
 C24 C 0.77129 -0.29547 0.27645
 C25 C 0.74619 -0.23886 0.24791
 C26 C 0.76612 -0.22676 0.23253
 C27 C 0.76463 -0.20352 0.22828
 C28 C 0.74329 -0.19219 0.23982
 C29 C 0.72336 -0.20411 0.25538
 C30 C 0.72469 -0.22745 0.25906
 H31 H 0.78268 -0.26119 0.28394
 H32 H 0.71466 -0.27105 0.22286
 H33 H 0.78275 -0.23547 0.22373
 H34 H 0.70938 -0.23662 0.27155
 H35 H 0.75562 -0.32781 0.26383
 H36 H 0.74230 -0.17412 0.23710
 C37 C 0.76796 0.22724 -0.22799
 C38 C 0.74917 0.23975 -0.24543
 C39 C 0.72832 0.22870 -0.25994
 C40 C 0.72653 0.20532 -0.25752
 C41 C 0.74529 0.19299 -0.23986
 C42 C 0.76596 0.20395 -0.22500
 C43 C 0.75187 0.26424 -0.24951
 C44 C 0.77346 0.27321 -0.26581
 C45 C 0.77643 0.29642 -0.26906
 C46 C 0.75799 0.31075 -0.25558
 C47 C 0.73652 0.30197 -0.23909
 C48 C 0.73329 0.27874 -0.23639
 H49 H 0.78410 0.23564 -0.21670
 H50 H 0.71394 0.23819 -0.27406
 H51 H 0.78782 0.26211 -0.27613
 H52 H 0.71674 0.27197 -0.22326
 H53 H 0.74398 0.17490 -0.23816
 H54 H 0.76042 0.32876 -0.25758
 C55 C 1.26772 -0.27600 -0.22751
 C56 C 1.25007 -0.26207 -0.24477
 C57 C 1.22999 -0.27166 -0.26393
 C58 C 1.22761 -0.29492 -0.26597
 C59 C 1.24503 -0.30873 -0.24841
 C60 C 1.26501 -0.29933 -0.22901
 C61 C 1.25218 -0.23750 -0.24235
 C62 C 1.27363 -0.22650 -0.25504
 C63 C 1.27487 -0.20307 -0.25461
 C64 C 1.25491 -0.19060 -0.24070
 C65 C 1.23362 -0.20154 -0.22761
 C66 C 1.23222 -0.22490 -0.22866
 H67 H 1.28310 -0.26867 -0.21230
 H68 H 1.21637 -0.26102 -0.27750
 H69 H 1.28894 -0.23611 -0.26634
 H70 H 1.21560 -0.23330 -0.21882
 H71 H 1.24292 -0.32678 -0.24972
 H72 H 1.25580 -0.17246 -0.24056
 C73 C 0.22408 0.26754 0.73597
 C74 C 0.23790 0.25022 0.75272
 C75 C 0.22554 0.23159 0.76830
 C76 C 0.19962 0.23049 0.76750
 C77 C 0.18608 0.24775 0.75047
 C78 C 0.19826 0.26620 0.73460
 C79 C 0.26517 0.25191 0.75447
 C80 C 0.27633 0.27108 0.76977
 C81 C 0.30215 0.27292 0.77125
 C82 C 0.31696 0.25569 0.75675
 C83 C 0.30597 0.23658 0.74114
 C84 C 0.28013 0.23461 0.74041
 H85 H 0.23344 0.28192 0.72373
 H86 H 0.23606 0.21831 0.78171
 H87 H 0.26486 0.28442 0.78091
 H88 H 0.27167 0.21987 0.72816
 H89 H 0.16603 0.24694 0.74976
 H90 H 0.33696 0.25714 0.75747
 C91 C 0.71712 0.76553 0.73386
 C92 C 0.73226 0.74800 0.74681
 C93 C 0.72128 0.72852 0.76167
 C94 C 0.69550 0.72656 0.76376
 C95 C 0.68049 0.74400 0.75041
 C96 C 0.69127 0.76346 0.73528
 C97 C 0.75952 0.74977 0.74441
 C98 C 0.77194 0.76843 0.75947
 C99 C 0.79784 0.76952 0.75824
 C100 C 0.81133 0.75226 0.74137
 C101 C 0.79914 0.73377 0.72606
 C102 C 0.77332 0.73244 0.72775
 H103 H 0.72548 0.78050 0.72196
 H104 H 0.73288 0.71502 0.77201
 H105 H 0.76154 0.78173 0.77289
 H106 H 0.76396 0.71802 0.71595
 H107 H 0.66051 0.74241 0.75169
 H108 H 0.83137 0.75311 0.74048
 C109 C 0.72491 0.27216 0.23448
 C110 C 0.73582 0.25271 0.24939
 C111 C 0.72062 0.23542 0.26327
 C112 C 0.69481 0.23771 0.26272
 C113 C 0.68410 0.25713 0.24756
 C114 C 0.69916 0.27432 0.23330
 C115 C 0.76306 0.25075 0.25092
 C116 C 0.77721 0.26806 0.26689
 C117 C 0.80302 0.26656 0.26776
 C118 C 0.81486 0.24794 0.25227
 C119 C 0.80100 0.23070 0.23607
 C120 C 0.77511 0.23195 0.23571
 H121 H 0.73649 0.28551 0.22342
 H122 H 0.72887 0.22046 0.27523
 H123 H 0.76811 0.28259 0.27883
 H124 H 0.76442 0.21867 0.22281
 H125 H 0.66414 0.25889 0.24699
 H126 H 0.83489 0.24696 0.25251
 C127 C 0.22743 0.76899 0.23461
 C128 C 0.23980 0.75059 0.25078
 C129 C 0.22596 0.73342 0.26814
 C130 C 0.20011 0.73465 0.26946
 C131 C 0.18795 0.75289 0.25299
 C132 C 0.20150 0.77000 0.23538
 C133 C 0.26708 0.74889 0.24883
 C134 C 0.28213 0.76650 0.26158
 C135 C 0.30797 0.76445 0.26073
 C136 C 0.31885 0.74496 0.24631
 C137 C 0.30396 0.72745 0.23316
 C138 C 0.27818 0.72937 0.23472
 H139 H 0.23794 0.78214 0.22068
 H140 H 0.23537 0.71921 0.28078
 H141 H 0.27374 0.78151 0.27297
 H142 H 0.26672 0.71575 0.22459
 H143 H 0.16788 0.75367 0.25358
 H144 H 0.33883 0.74339 0.24551
 O145 O 1.04298 -0.03392 0.06627
 O146 O 1.02000 -0.05841 0.03073
 C147 C 1.03660 -0.05391 0.05602
 O148 O 0.95385 0.02885 0.06593
 O149 O 0.97763 0.05390 0.03227
 C150 C 0.96020 0.04900 0.05616
 O151 O 0.95624 -0.03352 0.06923
 O152 O 0.97794 -0.05819 0.03208
 C153 C 0.96207 -0.05356 0.05846
 O154 O 1.04578 0.02848 0.06329
 O155 O 1.02181 0.05376 0.03080
 C156 C 1.03960 0.04868 0.05374
 Zr157 Zr 1.03059 -0.00247 0.04618
 O158 O 1.02987 -0.00063 0.10600
 O159 O 1.06962 -0.00511 0.04662
 Zr160 Zr 0.96861 -0.00221 0.04836
 O161 O 0.97270 -0.00155 0.10778
 O162 O 0.92961 -0.00368 0.05229
 O163 O 0.99954 -0.02258 0.05426
 O164 O 0.99980 0.01740 0.05438
 O165 O 1.04443 0.02940 -0.06640
 O166 O 1.02108 0.05419 -0.03201
 C167 C 1.03841 0.04946 -0.05606
 O168 O 0.95454 -0.03259 -0.06832
 O169 O 0.97727 -0.05778 -0.03356
 C170 C 0.96073 -0.05279 -0.05869
 O171 O 0.95236 0.02987 -0.06333
 O172 O 0.97692 0.05441 -0.03050
 C173 C 0.95894 0.04986 -0.05339
 O174 O 1.04137 -0.03301 -0.07083
 O175 O 1.01911 -0.05801 -0.03474
 C176 C 1.03517 -0.05314 -0.06076
 Zr177 Zr 1.02925 -0.00176 -0.04970
 O178 O 1.02620 0.00133 -0.10925
 O179 O 1.06814 -0.00434 -0.05447
 Zr180 Zr 0.96715 -0.00148 -0.04717
 O181 O 0.96620 0.00133 -0.10689
 O182 O 0.92815 -0.00249 -0.04300
 Zr183 Zr 0.99874 -0.03550 -0.00110
 Zr184 Zr 0.99923 0.03163 -0.00016
 O185 O 0.99825 0.01814 -0.05502
 O186 O 0.99798 -0.02171 -0.05613
 O187 O 1.03505 0.01769 -0.00166
 O188 O 0.96319 -0.02130 0.00046
 O189 O 1.03446 -0.02146 -0.00218
 O190 O 0.96325 0.01808 0.00101
 H191 H 1.00011 0.02756 0.07647
 H192 H 0.94843 -0.03114 0.00084
 H193 H 0.99801 0.02860 -0.07686
 H194 H 1.04914 -0.03137 -0.00274
 H195 H 0.92308 0.00348 0.02908
 H196 H 0.92182 -0.00225 -0.06930
 H197 H 0.97638 -0.01096 -0.11726
 H198 H 1.01914 -0.01281 -0.11898
 H199 H 1.07534 0.00520 -0.03455
 H200 H 1.07618 0.00628 0.02886
 H201 H 1.01933 -0.01304 0.11534
 H202 H 0.95571 -0.00139 0.11834
 O203 O 1.04555 0.46909 0.56610
 O204 O 1.02264 0.44447 0.53071
 C205 C 1.03921 0.44906 0.55595
 O206 O 0.95596 0.53122 0.56622
 O207 O 0.97938 0.55626 0.53198
 C208 C 0.96210 0.55136 0.55612
 O209 O 0.95923 0.46872 0.56997
 O210 O 0.98097 0.44425 0.53251
 C211 C 0.96537 0.44873 0.55927
 O212 O 1.04775 0.53157 0.56296
 O213 O 1.02329 0.55639 0.53042
 C214 C 1.04113 0.55164 0.55340
 Zr215 Zr 1.03301 0.50044 0.54573
 O216 O 1.03297 0.50233 0.60554
 O217 O 1.07207 0.49805 0.54485
 Zr218 Zr 0.97088 0.50021 0.54865
 O219 O 0.97507 0.50111 0.60805
 O220 O 0.93191 0.49833 0.55289
 O221 O 1.00209 0.48018 0.55431
 O222 O 1.00199 0.52001 0.55416
 O223 O 1.04593 0.53207 0.43263
 O224 O 1.02257 0.55668 0.46733
 C225 C 1.03978 0.55208 0.44303
 O226 O 0.95650 0.46967 0.43215
 O227 O 0.97955 0.44475 0.46697
 C228 C 0.96293 0.44955 0.44187
 O229 O 0.95438 0.53245 0.43703
 O230 O 0.97911 0.55707 0.46953
 C231 C 0.96113 0.55248 0.44672
 O232 O 1.04299 0.46951 0.42843
 O233 O 1.02107 0.44464 0.46522
 C234 C 1.03675 0.44941 0.43867
 Zr235 Zr 1.03117 0.50082 0.44987
 O236 O 1.02831 0.50384 0.39029
 O237 O 1.07009 0.49830 0.44545
 Zr238 Zr 0.96893 0.50087 0.45314
 O239 O 0.96731 0.50352 0.39344
 O240 O 0.92998 0.49974 0.45792
 Zr241 Zr 1.00105 0.46716 0.49903
 Zr242 Zr 1.00104 0.53408 0.49952
 O243 O 0.99996 0.52050 0.44473
 O244 O 0.99990 0.48081 0.44394
 O245 O 1.03702 0.52050 0.49770
 O246 O 0.96537 0.48106 0.50091
 O247 O 1.03672 0.48128 0.49746
 O248 O 0.96512 0.52042 0.50125
 H249 H 1.00224 0.53018 0.57624
 H250 H 0.95074 0.47106 0.50160
 H251 H 0.99958 0.53088 0.42280
 H252 H 1.05137 0.47135 0.49669
 H253 H 0.92521 0.50572 0.53002
 H254 H 0.92351 0.50018 0.43172
 H255 H 0.97798 0.49162 0.38294
 H256 H 1.02052 0.48999 0.38071
 H257 H 1.07723 0.50849 0.46448
 H258 H 1.07836 0.51008 0.52809
 H259 H 1.02186 0.49040 0.61511
 H260 H 0.95810 0.50103 0.61869
 O261 O 0.45593 -0.03001 0.43227
 O262 O 0.47868 -0.05492 0.46756
 C263 C 0.46235 -0.05014 0.44199
 O264 O 0.54480 0.03294 0.43486
 O265 O 0.52095 0.05737 0.46919
 C266 C 0.53831 0.05292 0.44500
 O267 O 0.54245 -0.02943 0.43029
 O268 O 0.52078 -0.05470 0.46677
 C269 C 0.53660 -0.04964 0.44043
 O270 O 0.45312 0.03240 0.43701
 O271 O 0.47699 0.05714 0.47056
 C272 C 0.45939 0.05245 0.44709
 Zr273 Zr 0.46809 0.00118 0.45373
 O274 O 0.46866 0.00385 0.39397
 O275 O 0.42906 -0.00154 0.45359
 Zr276 Zr 0.53021 0.00159 0.45200
 O277 O 0.52650 0.00305 0.39254
 O278 O 0.56924 0.00017 0.44875
 O279 O 0.49923 -0.01872 0.44533
 O280 O 0.49898 0.02115 0.44627
 O281 O 0.45479 0.03196 0.56748
 O282 O 0.47822 0.05715 0.53343
 C283 C 0.46105 0.05218 0.55774
 O284 O 0.54366 -0.03052 0.56832
 O285 O 0.52113 -0.05517 0.53251
 C286 C 0.53740 -0.05058 0.55820
 O287 O 0.54593 0.03199 0.56496
 O288 O 0.52160 0.05695 0.53239
 C289 C 0.53937 0.05211 0.55554
 O290 O 0.45721 -0.03092 0.57033
 O291 O 0.47941 -0.05540 0.53354
 C292 C 0.46349 -0.05091 0.55989
 Zr293 Zr 0.46905 0.00062 0.54948
 O294 O 0.47065 0.00281 0.60922
 O295 O 0.43004 -0.00203 0.55185
 Zr296 Zr 0.53132 0.00087 0.54748
 O297 O 0.53242 0.00281 0.60726
 O298 O 0.57030 -0.00006 0.54310
 Zr299 Zr 0.49981 -0.03249 0.50032
 Zr300 Zr 0.49939 0.03459 0.50118
 O301 O 0.50017 0.02028 0.55566
 O302 O 0.50035 -0.01938 0.55565
 O303 O 0.46349 0.02077 0.50198
 O304 O 0.53541 -0.01826 0.49940
 O305 O 0.46408 -0.01854 0.50150
 O306 O 0.53541 0.02121 0.49992
 H307 H 0.49872 0.03156 0.42437
 H308 H 0.55012 -0.02812 0.49894
 H309 H 0.50043 0.03032 0.57790
 H310 H 0.44948 -0.02858 0.50171
 H311 H 0.57564 0.00780 0.47151
 H312 H 0.57667 -0.00022 0.56937
 H313 H 0.52171 -0.00925 0.61732
 H314 H 0.47939 -0.01063 0.61865
 H315 H 0.42318 0.00986 0.53540
 H316 H 0.42257 0.00974 0.47143
 H317 H 0.47990 -0.00790 0.38435
 H318 H 0.54355 0.00326 0.38220
 O319 O 0.53547 0.53860 0.06844
 O320 O 0.56270 0.51902 0.03115
 C321 C 0.55758 0.53344 0.05731
 O322 O 0.46732 0.45706 0.06521
 O323 O 0.43911 0.47880 0.03332
 C324 C 0.44493 0.46262 0.05618
 O325 O 0.53613 0.46005 0.06721
 O326 O 0.56316 0.48057 0.03054
 C327 C 0.55820 0.46565 0.05628
 O328 O 0.46664 0.54039 0.06687
 O329 O 0.43872 0.51911 0.03383
 C330 C 0.44433 0.53490 0.05742
 Zr331 Zr 0.50085 0.52723 0.04857
 O332 O 0.49900 0.52515 0.10835
 O333 O 0.50331 0.56255 0.05125
 Zr334 Zr 0.50131 0.47123 0.04778
 O335 O 0.50078 0.47384 0.10737
 O336 O 0.50335 0.43590 0.05003
 O337 O 0.52353 0.49932 0.05477
 O338 O 0.47923 0.49900 0.05570
 O339 O 0.46512 0.54172 -0.06202
 O340 O 0.43802 0.51946 -0.02869
 C341 C 0.44306 0.53582 -0.05164
 O342 O 0.53455 0.46107 -0.07002
 O343 O 0.56229 0.48119 -0.03461
 C344 C 0.55682 0.46663 -0.06035
 O345 O 0.46574 0.45807 -0.06382
 O346 O 0.43829 0.47914 -0.02931
 C347 C 0.44358 0.46333 -0.05308
 O348 O 0.53390 0.53999 -0.06828
 O349 O 0.56202 0.51943 -0.03414
 C350 C 0.55628 0.53456 -0.05903
 Zr351 Zr 0.49972 0.52781 -0.04744
 O352 O 0.49611 0.52549 -0.10698
 O353 O 0.50184 0.56306 -0.05185
 Zr354 Zr 0.50014 0.47175 -0.04780
 O355 O 0.49679 0.47228 -0.10748
 O356 O 0.50173 0.43640 -0.04587
 Zr357 Zr 0.53759 0.49986 -0.00089
 Zr358 Zr 0.46331 0.49933 0.00147
 O359 O 0.47796 0.49968 -0.05374
 O360 O 0.52220 0.50002 -0.05569
 O361 O 0.47842 0.53191 0.00134
 O362 O 0.52223 0.46750 -0.00077
 O363 O 0.52154 0.53195 -0.00002
 O364 O 0.47880 0.46699 0.00062
 H365 H 0.46806 0.49873 0.07798
 H366 H 0.53319 0.45422 -0.00126
 H367 H 0.46623 0.49973 -0.07524
 H368 H 0.53219 0.54545 -0.00009
 H369 H 0.49589 0.43033 0.02633
 H370 H 0.50147 0.43125 -0.07250
 H371 H 0.51053 0.48149 -0.11759
 H372 H 0.51218 0.52048 -0.11736
 H373 H 0.49342 0.56920 -0.02933
 H374 H 0.49079 0.56875 0.03378
 H375 H 0.51320 0.51602 0.11694
 H376 H 0.50090 0.45827 0.11717
 C377 C 1.21358 0.18759 0.21239
 C378 C 1.19744 0.17666 0.19801
 C379 C 1.17817 0.16371 0.18062
 C380 C 1.15339 0.16992 0.18509
 C381 C 1.13467 0.15733 0.16813
 C382 C 1.14057 0.13840 0.14637
 C383 C 1.16555 0.13234 0.14199
 C384 C 1.18421 0.14493 0.15901
 C385 C 1.12080 0.12475 0.12876
 C386 C 1.12390 0.11616 0.09206
 C387 C 1.10596 0.10223 0.07629
 C388 C 1.08467 0.09671 0.09693
 C389 C 1.08113 0.10556 0.13313
 C390 C 1.09905 0.11956 0.14895
 C391 C 1.06751 0.08069 0.08188
 C392 C 1.05413 0.06649 0.06912
 H393 H 1.14853 0.18450 0.20164
 H394 H 1.11563 0.16252 0.17167
 H395 H 1.17064 0.11766 0.12589
 H396 H 1.20334 0.13996 0.15543
 H397 H 1.14028 0.12012 0.07565
 H398 H 1.10891 0.09540 0.04829
 H399 H 1.06482 0.10123 0.14946
 H400 H 1.09628 0.12572 0.17741
 C401 C 1.20730 0.69520 0.71400
 C402 C 1.19060 0.68630 0.69738
 C403 C 1.17111 0.67482 0.67789
 C404 C 1.17667 0.66193 0.64605
 C405 C 1.15824 0.64917 0.62886
 C406 C 1.13399 0.64913 0.64339
 C407 C 1.12844 0.66262 0.67482
 C408 C 1.14692 0.67538 0.69198
 C409 C 1.11506 0.63403 0.62715
 C410 C 1.09926 0.62169 0.65109
 C411 C 1.08291 0.60596 0.63607
 C412 C 1.08211 0.60245 0.59700
 C413 C 1.09724 0.61508 0.57285
 C414 C 1.11362 0.63081 0.58781
 C415 C 1.06690 0.58495 0.58187
 C416 C 1.05480 0.56988 0.56905
 H417 H 1.19539 0.66128 0.63510
 H418 H 1.16317 0.63871 0.60507
 H419 H 1.10987 0.66309 0.68636
 H420 H 1.14246 0.68530 0.71666
 H421 H 1.10019 0.62357 0.68151
 H422 H 1.07136 0.59615 0.65499
 H423 H 1.09675 0.61245 0.54254
 H424 H 1.12536 0.64025 0.56867
 C425 C 0.70623 0.19374 0.72499
 C426 C 0.68988 0.18347 0.70972
 C427 C 0.67118 0.17052 0.69085
 C428 C 0.64616 0.17631 0.69377
 C429 C 0.62818 0.16342 0.67550
 C430 C 0.63506 0.14464 0.65399
 C431 C 0.66027 0.13904 0.65122
 C432 C 0.67815 0.15189 0.66951
 C433 C 0.61615 0.13058 0.63505
 C434 C 0.62060 0.12197 0.59867
 C435 C 0.60366 0.10744 0.58186
 C436 C 0.58202 0.10133 0.60109
 C437 C 0.57709 0.11025 0.63689
 C438 C 0.59401 0.12484 0.65375
 C439 C 0.56586 0.08475 0.58505
 C440 C 0.55324 0.07019 0.57158
 H441 H 0.64056 0.19073 0.71016
 H442 H 0.60894 0.16824 0.67789
 H443 H 0.66613 0.12447 0.63544
 H444 H 0.69745 0.14721 0.66719
 H445 H 0.63730 0.12633 0.58334
 H446 H 0.60769 0.10060 0.55417
 H447 H 0.56047 0.10551 0.65213
 H448 H 0.59019 0.13102 0.68192
 C449 C 0.71590 0.68385 0.22453
 C450 C 0.70232 0.67045 0.20992
 C451 C 0.68694 0.65382 0.19244
 C452 C 0.69201 0.63109 0.19815
 C453 C 0.67751 0.61480 0.18063
 C454 C 0.65776 0.62106 0.15706
 C455 C 0.65278 0.64397 0.15154
 C456 C 0.66730 0.66024 0.16914
 C457 C 0.64229 0.60380 0.13850
 C458 C 0.63444 0.60671 0.10089
 C459 C 0.61898 0.59093 0.08395
 C460 C 0.61120 0.57205 0.10430
 C461 C 0.61929 0.56876 0.14148
 C462 C 0.63480 0.58450 0.15847
 C463 C 0.59339 0.55710 0.08791
 C464 C 0.57755 0.54561 0.07404
 H465 H 0.70728 0.62596 0.21598
 H466 H 0.68195 0.59731 0.18507
 H467 H 0.63748 0.64929 0.13398
 H468 H 0.66323 0.67780 0.16453
 H469 H 0.64019 0.62122 0.08463
 H470 H 0.61272 0.59369 0.05520
 H471 H 0.61316 0.55431 0.15759
 H472 H 0.64033 0.58192 0.18759
 C473 C 0.78517 -0.19133 0.21244
 C474 C 0.80242 -0.18122 0.19908
 C475 C 0.82294 -0.16913 0.18298
 C476 C 0.84575 -0.16868 0.20161
 C477 C 0.86554 -0.15659 0.18621
 C478 C 0.86276 -0.14482 0.15192
 C479 C 0.83981 -0.14554 0.13328
 C480 C 0.82005 -0.15762 0.14873
 C481 C 0.88337 -0.13122 0.13615
 C482 C 0.88783 -0.13063 0.09692
 C483 C 0.90593 -0.11646 0.08180
 C484 C 0.91986 -0.10275 0.10566
 C485 C 0.91608 -0.10368 0.14482
 C486 C 0.89799 -0.11787 0.16001
 C487 C 0.93628 -0.08626 0.08965
 C488 C 0.94881 -0.07171 0.07571
 H489 H 0.84819 -0.17760 0.22809
 H490 H 0.88305 -0.15652 0.20102
 H491 H 0.83695 -0.13637 0.10717
 H492 H 0.80246 -0.15781 0.13414
 H493 H 0.87710 -0.14093 0.07788
 H494 H 0.90861 -0.11577 0.05142
 H495 H 0.92657 -0.09295 0.16350
 H496 H 0.89481 -0.11774 0.19027
 C497 C 0.79722 0.30520 0.71499
 C498 C 0.81531 0.31364 0.70098
 C499 C 0.83637 0.32465 0.68441
 C500 C 0.85704 0.32960 0.70659
 C501 C 0.87647 0.34226 0.69146
 C502 C 0.87538 0.35018 0.65395
 C503 C 0.85484 0.34452 0.63156
 C504 C 0.83546 0.33187 0.64674
 C505 C 0.89466 0.36552 0.63893
 C506 C 0.90274 0.36389 0.60117
 C507 C 0.91904 0.37977 0.58608
 C508 C 0.92750 0.39741 0.60853
 C509 C 0.92021 0.39877 0.64644
 C510 C 0.90393 0.38292 0.66161
 C511 C 0.94198 0.41507 0.59188
 C512 C 0.95317 0.43029 0.57736
 H513 H 0.85788 0.32412 0.73582
 H514 H 0.89216 0.34615 0.70923
 H515 H 0.85329 0.35063 0.60277
 H516 H 0.81944 0.32826 0.62943
 H517 H 0.89613 0.35055 0.58317
 H518 H 0.92452 0.37862 0.55664
 H519 H 0.92650 0.41247 0.66396
 H520 H 0.89779 0.38482 0.69060
 C521 C 0.29595 -0.19172 0.72942
 C522 C 0.31312 -0.18193 0.71512
 C523 C 0.33296 -0.16985 0.69708
 C524 C 0.35619 -0.16831 0.71428
 C525 C 0.37509 -0.15588 0.69703
 C526 C 0.37095 -0.14487 0.66233
 C527 C 0.34761 -0.14675 0.64513
 C528 C 0.32878 -0.15915 0.66241
 C529 C 0.39045 -0.13071 0.64470
 C530 C 0.39380 -0.13050 0.60520
 C531 C 0.41060 -0.11571 0.58834
 C532 C 0.42434 -0.10099 0.61070
 C533 C 0.42173 -0.10155 0.65010
 C534 C 0.40494 -0.11635 0.66703
 C535 C 0.43944 -0.08406 0.59303
 C536 C 0.45104 -0.06925 0.57800
 H537 H 0.35962 -0.17656 0.74111
 H538 H 0.39292 -0.15489 0.71078
 H539 H 0.34370 -0.13817 0.61878
 H540 H 0.31083 -0.16015 0.64895
 H541 H 0.38316 -0.14156 0.58730
 H542 H 0.41241 -0.11535 0.55780
 H543 H 0.43212 -0.09009 0.66764
 H544 H 0.40259 -0.11592 0.69746
 C545 C 0.27972 0.31284 0.21500
 C546 C 0.29438 0.32559 0.20087
 C547 C 0.31105 0.34147 0.18384
 C548 C 0.33663 0.33874 0.18717
 C549 C 0.35269 0.35442 0.17088
 C550 C 0.34330 0.37306 0.15108
 C551 C 0.31755 0.37564 0.14793
 C552 C 0.30155 0.35994 0.16421
 C553 C 0.36031 0.38967 0.13366
 C554 C 0.35519 0.41274 0.13560
 C555 C 0.37142 0.42835 0.11944
 C556 C 0.39288 0.42107 0.10109
 C557 C 0.39803 0.39816 0.09881
 C558 C 0.38188 0.38256 0.11495
 C559 C 0.41012 0.43689 0.08529
 C560 C 0.42548 0.44926 0.07201
 H561 H 0.34416 0.32456 0.20248
 H562 H 0.37242 0.35214 0.17420
 H563 H 0.30978 0.38964 0.13247
 H564 H 0.28175 0.36219 0.16147
 H565 H 0.33886 0.41873 0.15019
 H566 H 0.36733 0.44605 0.12152
 H567 H 0.41461 0.39236 0.08464
 H568 H 0.38615 0.36492 0.11252
 C569 C 0.78541 0.19130 -0.20728
 C570 C 0.80178 0.18077 -0.19252
 C571 C 0.82130 0.16812 -0.17502
 C572 C 0.84588 0.17142 -0.18627
 C573 C 0.86479 0.15875 -0.16987
 C574 C 0.85934 0.14263 -0.14193
 C575 C 0.83459 0.13960 -0.13056
 C576 C 0.81572 0.15226 -0.14703
 C577 C 0.87920 0.12850 -0.12549
 C578 C 0.87908 0.12307 -0.08671
 C579 C 0.89684 0.10856 -0.07176
 C580 C 0.91497 0.09933 -0.09531
 C581 C 0.91562 0.10505 -0.13373
 C582 C 0.89789 0.11958 -0.14875
 C583 C 0.93165 0.08271 -0.08060
 C584 C 0.94470 0.06808 -0.06825
 H585 H 0.85040 0.18370 -0.20785
 H586 H 0.88368 0.16163 -0.17891
 H587 H 0.82975 0.12709 -0.10955
 H588 H 0.79675 0.14953 -0.13819
 H589 H 0.86513 0.12990 -0.06801
 H590 H 0.89612 0.10418 -0.04199
 H591 H 0.92944 0.09784 -0.15227
 H592 H 0.89830 0.12323 -0.17878
 C593 C 0.79117 0.69574 0.29472
 C594 C 0.80851 0.68728 0.31054
 C595 C 0.82879 0.67620 0.32888
 C596 C 0.85207 0.67562 0.31153
 C597 C 0.87111 0.66295 0.32751
 C598 C 0.86704 0.65066 0.36101
 C599 C 0.84378 0.65192 0.37882
 C600 C 0.82478 0.66459 0.36280
 C601 C 0.88632 0.63543 0.37605
 C602 C 0.89003 0.63323 0.41528
 C603 C 0.90664 0.61739 0.42941
 C604 C 0.91976 0.60361 0.40453
 C605 C 0.91671 0.60609 0.36546
 C606 C 0.90012 0.62191 0.35127
 C607 C 0.93513 0.58601 0.41911
 C608 C 0.94735 0.57084 0.43151
 H609 H 0.85532 0.68452 0.28520
 H610 H 0.88890 0.66249 0.31341
 H611 H 0.83996 0.64240 0.40431
 H612 H 0.80677 0.66481 0.37628
 H613 H 0.87985 0.64357 0.43501
 H614 H 0.90886 0.61556 0.45973
 H615 H 0.92667 0.59539 0.34599
 H616 H 0.89741 0.62297 0.32097
 C617 C 0.29134 0.19349 0.27975
 C618 C 0.30800 0.18401 0.29576
 C619 C 0.32727 0.17204 0.31522
 C620 C 0.35193 0.17407 0.30360
 C621 C 0.37037 0.16153 0.32156
 C622 C 0.36431 0.14680 0.35139
 C623 C 0.33951 0.14518 0.36320
 C624 C 0.32114 0.15771 0.34522
 C625 C 0.38349 0.13244 0.36912
 C626 C 0.38319 0.12827 0.40835
 C627 C 0.40001 0.11330 0.42454
 C628 C 0.41738 0.10235 0.40180
 C629 C 0.41828 0.10684 0.36293
 C630 C 0.40149 0.12181 0.34667
 C631 C 0.43309 0.08541 0.41792
 C632 C 0.44552 0.07064 0.43128
 H633 H 0.35688 0.18515 0.28044
 H634 H 0.38933 0.16331 0.31210
 H635 H 0.33418 0.13375 0.38565
 H636 H 0.30209 0.15593 0.35432
 H637 H 0.36977 0.13641 0.42644
 H638 H 0.39913 0.10992 0.45466
 H639 H 0.43154 0.09832 0.34503
 H640 H 0.40200 0.12444 0.31635
 C641 C 0.28122 0.68694 -0.21090
 C642 C 0.29490 0.67411 -0.19498
 C643 C 0.31052 0.65811 -0.17625
 C644 C 0.33552 0.66287 -0.17013
 C645 C 0.35071 0.64701 -0.15264
 C646 C 0.34106 0.62616 -0.14113
 C647 C 0.31588 0.62159 -0.14724
 C648 C 0.30072 0.63749 -0.16467
 C649 C 0.35731 0.60914 -0.12335
 C650 C 0.35545 0.58644 -0.13350
 C651 C 0.37151 0.57058 -0.11789
 C652 C 0.38950 0.57721 -0.09187
 C653 C 0.39118 0.59967 -0.08108
 C654 C 0.37520 0.61555 -0.09669
 C655 C 0.40723 0.56140 -0.07763
 C656 C 0.42305 0.54908 -0.06578
 H657 H 0.34330 0.67875 -0.17914
 H658 H 0.37010 0.65088 -0.14878
 H659 H 0.30788 0.60581 -0.13829
 H660 H 0.28137 0.63366 -0.16925
 H661 H 0.34204 0.58106 -0.15426
 H662 H 0.37018 0.55326 -0.12661
 H663 H 0.40508 0.60498 -0.06099
 H664 H 0.37684 0.63283 -0.08794
 C665 C 1.21293 -0.18890 -0.21364
 C666 C 1.19540 -0.17862 -0.20179
 C667 C 1.17443 -0.16652 -0.18747
 C668 C 1.16910 -0.14511 -0.20136
 C669 C 1.14899 -0.13316 -0.18693
 C670 C 1.13395 -0.14250 -0.15837
 C671 C 1.13934 -0.16413 -0.14485
 C672 C 1.15945 -0.17606 -0.15935
 C673 C 1.11336 -0.12933 -0.14184
 C674 C 1.10928 -0.12938 -0.10250
 C675 C 1.09121 -0.11559 -0.08658
 C676 C 1.07693 -0.10166 -0.10974
 C677 C 1.08033 -0.10198 -0.14899
 C678 C 1.09839 -0.11575 -0.16498
 C679 C 1.06063 -0.08549 -0.09295
 C680 C 1.04822 -0.07113 -0.07848
 H681 H 1.18062 -0.13756 -0.22306
 H682 H 1.14557 -0.11641 -0.19750
 H683 H 1.12796 -0.17184 -0.12316
 H684 H 1.16339 -0.19266 -0.14849
 H685 H 1.12070 -0.13941 -0.08389
 H686 H 1.08892 -0.11527 -0.05612
 H687 H 1.06948 -0.09114 -0.16715
 H688 H 1.10088 -0.11557 -0.19538
 C689 C 1.19988 0.30492 0.27491
 C690 C 1.18183 0.31409 0.28742
 C691 C 1.16095 0.32601 0.30237
 C692 C 1.15000 0.31924 0.33646
 C693 C 1.13120 0.33212 0.35262
 C694 C 1.12321 0.35196 0.33486
 C695 C 1.13388 0.35824 0.30006
 C696 C 1.15265 0.34534 0.28397
 C697 C 1.10508 0.36689 0.35361
 C698 C 1.08704 0.37828 0.33234
 C699 C 1.07160 0.39400 0.34956
 C700 C 1.07396 0.39845 0.38821
 C701 C 1.09132 0.38672 0.40982
 C702 C 1.10677 0.37101 0.39268
 C703 C 1.05983 0.41605 0.40535
 C704 C 1.04884 0.43117 0.42023
 H705 H 1.15636 0.30431 0.35096
 H706 H 1.12314 0.32675 0.37924
 H707 H 1.12843 0.37359 0.28599
 H708 H 1.16115 0.35081 0.25771
 H709 H 1.08512 0.37526 0.30230
 H710 H 1.05822 0.40303 0.33260
 H711 H 1.09339 0.39016 0.43973
 H712 H 1.12070 0.36278 0.40971
 C713 C 0.70220 -0.19210 0.26938
 C714 C 0.68515 -0.18137 0.28172
 C715 C 0.66571 -0.16769 0.29709
 C716 C 0.64618 -0.17733 0.31756
 C717 C 0.62836 -0.16368 0.33465
 C718 C 0.63000 -0.14023 0.33162
 C719 C 0.64938 -0.13078 0.31023
 C720 C 0.66710 -0.14442 0.29316
 C721 C 0.61223 -0.12553 0.35172
 C722 C 0.62079 -0.10630 0.37040
 C723 C 0.60426 -0.09209 0.38879
 C724 C 0.57893 -0.09684 0.38889
 C725 C 0.57017 -0.11607 0.37079
 C726 C 0.58675 -0.13041 0.35237
 C727 C 0.56228 -0.08142 0.40696
 C728 C 0.54972 -0.06745 0.42222
 H729 H 0.64500 -0.19533 0.32093
 H730 H 0.61376 -0.17141 0.35118
 H731 H 0.65092 -0.11281 0.30689
 H732 H 0.68213 -0.13678 0.27738
 H733 H 0.64032 -0.10231 0.37101
 H734 H 0.61125 -0.07728 0.40280
 H735 H 0.55058 -0.11987 0.37061
 H736 H 0.57963 -0.14503 0.33803
 C737 C 0.71848 0.31708 -0.22361
 C738 C 0.70420 0.33042 -0.21040
 C739 C 0.68797 0.34693 -0.19436
 C740 C 0.66957 0.34056 -0.16857
 C741 C 0.65450 0.35678 -0.15189
 C742 C 0.65766 0.37960 -0.16081
 C743 C 0.67608 0.38580 -0.18701
 C744 C 0.69115 0.36956 -0.20361
 C745 C 0.64182 0.39683 -0.14279
 C746 C 0.63236 0.41481 -0.16413
 C747 C 0.61664 0.43051 -0.14739
 C748 C 0.61030 0.42849 -0.10911
 C749 C 0.62001 0.41092 -0.08750
 C750 C 0.63568 0.39520 -0.10417
 C751 C 0.59242 0.44332 -0.09252
 C752 C 0.57662 0.45469 -0.07813
 H753 H 0.66697 0.32309 -0.16120
 H754 H 0.64024 0.35146 -0.13225
 H755 H 0.67913 0.40324 -0.19412
 H756 H 0.70545 0.37467 -0.22337
 H757 H 0.63656 0.41638 -0.19400
 H758 H 0.60902 0.44393 -0.16446
 H759 H 0.61513 0.40914 -0.05787
 H760 H 0.64297 0.38174 -0.08689
 C761 C 1.18723 0.21318 -0.21582
 C762 C 1.17521 0.19851 -0.20109
 C763 C 1.15972 0.18177 -0.18361
 C764 C 1.13568 0.18741 -0.17243
 C765 C 1.12026 0.17129 -0.15596
 C766 C 1.12867 0.14925 -0.15043
 C767 C 1.15293 0.14375 -0.16161
 C768 C 1.16834 0.15992 -0.17813
 C769 C 1.11215 0.13209 -0.13325
 C770 C 1.12139 0.11654 -0.10685
 C771 C 1.10583 0.10036 -0.09083
 C772 C 1.08084 0.09946 -0.10096
 C773 C 1.07143 0.11489 -0.12710
 C774 C 1.08696 0.13111 -0.14312
 C775 C 1.06510 0.08234 -0.08516
 C776 C 1.05249 0.06760 -0.07192
 H777 H 1.12883 0.20429 -0.17648
 H778 H 1.10183 0.17614 -0.14721
 H779 H 1.15984 0.12686 -0.15816
 H780 H 1.18688 0.15535 -0.18682
 H781 H 1.14060 0.11704 -0.09829
 H782 H 1.11331 0.08850 -0.07061
 H783 H 1.05215 0.11428 -0.13530
 H784 H 1.07935 0.14266 -0.16372
 C785 C 1.18660 0.71811 0.28632
 C786 C 1.17406 0.70378 0.30095
 C787 C 1.15849 0.68699 0.31805
 C788 C 1.16863 0.66685 0.33109
 C789 C 1.15335 0.65050 0.34730
 C790 C 1.12771 0.65408 0.35061
 C791 C 1.11773 0.67442 0.33750
 C792 C 1.13304 0.69074 0.32135
 C793 C 1.11142 0.63663 0.36742
 C794 C 1.08818 0.63194 0.35144
 C795 C 1.07303 0.61525 0.36693
 C796 C 1.08088 0.60309 0.39861
 C797 C 1.10387 0.60775 0.41488
 C798 C 1.11906 0.62439 0.39942
 C799 C 1.06569 0.58545 0.41397
 C800 C 1.05350 0.57038 0.42704
 H801 H 1.18830 0.66374 0.32855
 H802 H 1.16154 0.63491 0.35668
 H803 H 1.09813 0.67779 0.34009
 H804 H 1.12501 0.70630 0.31142
 H805 H 1.08191 0.64088 0.32654
 H806 H 1.05532 0.61171 0.35401
 H807 H 1.11011 0.59844 0.43944
 H808 H 1.13669 0.62782 0.41265
 C809 C 0.67935 0.22038 0.27865
 C810 C 0.66648 0.20596 0.29244
 C811 C 0.65125 0.18880 0.30937
 C812 C 0.62735 0.19386 0.32202
 C813 C 0.61275 0.17731 0.33914
 C814 C 0.62189 0.15542 0.34392
 C815 C 0.64590 0.15048 0.33092
 C816 C 0.66045 0.16706 0.31379
 C817 C 0.60654 0.13784 0.36254
 C818 C 0.61731 0.12246 0.38787
 C819 C 0.60299 0.10575 0.40504
 C820 C 0.57769 0.10415 0.39721
 C821 C 0.56674 0.11944 0.37225
 C822 C 0.58104 0.13619 0.35506
 C823 C 0.56321 0.08648 0.41420
 C824 C 0.55154 0.07136 0.42833
 H825 H 0.62006 0.21066 0.31889
 H826 H 0.59448 0.18172 0.34922
 H827 H 0.65335 0.13374 0.33366
 H828 H 0.67890 0.16292 0.30406
 H829 H 0.63679 0.12347 0.39467
 H830 H 0.61167 0.09403 0.42433
 H831 H 0.54720 0.11830 0.36584
 H832 H 0.57224 0.14759 0.33539
 C833 C 0.68515 0.70774 -0.22093
 C834 C 0.67624 0.69109 -0.20702
 C835 C 0.66571 0.67128 -0.19000
 C836 C 0.66916 0.65031 -0.20674
 C837 C 0.65880 0.63113 -0.19022
 C838 C 0.64488 0.63267 -0.15663
 C839 C 0.64165 0.65383 -0.13993
 C840 C 0.65199 0.67297 -0.15651
 C841 C 0.63305 0.61250 -0.13961
 C842 C 0.63220 0.60965 -0.10007
 C843 C 0.61921 0.59173 -0.08396
 C844 C 0.60698 0.57634 -0.10710
 C845 C 0.60840 0.57860 -0.14648
 C846 C 0.62141 0.59651 -0.16266
 C847 C 0.59068 0.55994 -0.09040
 C848 C 0.57571 0.54748 -0.07618
 H849 H 0.67984 0.64879 -0.23258
 H850 H 0.66181 0.61507 -0.20356
 H851 H 0.63070 0.65565 -0.11445
 H852 H 0.64916 0.68911 -0.14333
 H853 H 0.64126 0.62149 -0.08157
 H854 H 0.61808 0.59026 -0.05344
 H855 H 0.59873 0.56697 -0.16467
 H856 H 0.62147 0.59835 -0.19315
 C857 C 0.81108 -0.21226 -0.22459
 C858 C 0.82343 -0.19779 -0.21028
 C859 C 0.83939 -0.18135 -0.19335
 C860 C 0.82954 -0.16252 -0.17537
 C861 C 0.84529 -0.14691 -0.15846
 C862 C 0.87111 -0.14995 -0.15936
 C863 C 0.88079 -0.16891 -0.17759
 C864 C 0.86503 -0.18448 -0.19442
 C865 C 0.88791 -0.13348 -0.14128
 C866 C 0.91022 -0.12716 -0.15898
 C867 C 0.92593 -0.11154 -0.14205
 C868 C 0.91960 -0.10208 -0.10720
 C869 C 0.89755 -0.10837 -0.08925
 C870 C 0.88180 -0.12396 -0.10613
 C871 C 0.93515 -0.08528 -0.09041
 C872 C 0.94740 -0.07074 -0.07611
 H873 H 0.80972 -0.15993 -0.17439
 H874 H 0.83730 -0.13234 -0.14506
 H875 H 0.90053 -0.17189 -0.17833
 H876 H 0.87284 -0.19906 -0.20810
 H877 H 0.91531 -0.13398 -0.18624
 H878 H 0.94287 -0.10666 -0.15632
 H879 H 0.89245 -0.10112 -0.06228
 H880 H 0.86495 -0.12871 -0.09155
 C881 C 0.81758 0.28415 0.28423
 C882 C 0.83029 0.29859 0.29786
 C883 C 0.84589 0.31553 0.31400
 C884 C 0.87144 0.31208 0.31620
 C885 C 0.88670 0.32845 0.33196
 C886 C 0.87657 0.34850 0.34580
 C887 C 0.85086 0.35183 0.34339
 C888 C 0.83563 0.33544 0.32757
 C889 C 0.89273 0.36583 0.36282
 C890 C 0.88512 0.37734 0.39547
 C891 C 0.90019 0.39381 0.41132
 C892 C 0.92304 0.39901 0.39480
 C893 C 0.93087 0.38758 0.36245
 C894 C 0.91583 0.37106 0.34655
 C895 C 0.93805 0.41645 0.41076
 C896 C 0.94989 0.43139 0.42464
 H897 H 0.87956 0.29669 0.30585
 H898 H 0.90638 0.32529 0.33384
 H899 H 0.84255 0.36721 0.35333
 H900 H 0.81588 0.33830 0.32590
 H901 H 0.86762 0.37347 0.40896
 H902 H 0.89397 0.40255 0.43640
 H903 H 0.94848 0.39155 0.34935
 H904 H 0.92206 0.36265 0.32118
 C905 C 0.32330 -0.21792 0.27573
 C906 C 0.33606 -0.20329 0.28883
 C907 C 0.35117 -0.18589 0.30505
 C908 C 0.34044 -0.16560 0.31598
 C909 C 0.35491 -0.14892 0.33262
 C910 C 0.38037 -0.15228 0.33862
 C911 C 0.39103 -0.17267 0.32726
 C912 C 0.37651 -0.18936 0.31064
 C913 C 0.39564 -0.13466 0.35701
 C914 C 0.41980 -0.13001 0.34422
 C915 C 0.43398 -0.11327 0.36140
 C916 C 0.42425 -0.10100 0.39164
 C917 C 0.40031 -0.10561 0.40470
 C918 C 0.38612 -0.12230 0.38756
 C919 C 0.43849 -0.08340 0.40900
 C920 C 0.44978 -0.06838 0.42387
 H921 H 0.32087 -0.16270 0.31176
 H922 H 0.34620 -0.13330 0.34051
 H923 H 0.41049 -0.17590 0.33187
 H924 H 0.38501 -0.20503 0.30246
 H925 H 0.42758 -0.13904 0.32051
 H926 H 0.45244 -0.10981 0.35093
 H927 H 0.39258 -0.09627 0.42812
 H928 H 0.36776 -0.12568 0.39849
 C929 C 0.31273 0.29137 -0.21288
 C930 C 0.32187 0.30769 -0.19848
 C931 C 0.33271 0.32708 -0.18089
 C932 C 0.32654 0.34863 -0.19338
 C933 C 0.33717 0.36742 -0.17631
 C934 C 0.35409 0.36489 -0.14641
 C935 C 0.36006 0.34314 -0.13395
 C936 C 0.34944 0.32440 -0.15108
 C937 C 0.36610 0.38473 -0.12894
 C938 C 0.37035 0.38545 -0.08968
 C939 C 0.38344 0.40324 -0.07369
 C940 C 0.39240 0.42063 -0.09663
 C941 C 0.38760 0.42043 -0.13553
 C942 C 0.37447 0.40266 -0.15159
 C943 C 0.40879 0.43719 -0.08094
 C944 C 0.42388 0.44992 -0.06804
 H945 H 0.31352 0.35092 -0.21632
 H946 H 0.33201 0.38392 -0.18631
 H947 H 0.37332 0.34059 -0.11145
 H948 H 0.35440 0.30781 -0.14120
 H949 H 0.36384 0.37208 -0.07140
 H950 H 0.38720 0.40311 -0.04359
 H951 H 0.39471 0.43363 -0.15366
 H952 H 0.37177 0.40250 -0.18193
 C953 C 1.18909 -0.21298 0.21804
 C954 C 1.17700 -0.19861 0.20276
 C955 C 1.16143 -0.18224 0.18466
 C956 C 1.14620 -0.18865 0.15462
 C957 C 1.12992 -0.17324 0.13831
 C958 C 1.12859 -0.15117 0.15190
 C959 C 1.14417 -0.14482 0.18187
 C960 C 1.16046 -0.16026 0.19814
 C961 C 1.11087 -0.13494 0.13514
 C962 C 1.09770 -0.11999 0.15835
 C963 C 1.08127 -0.10453 0.14252
 C964 C 1.07772 -0.10380 0.10333
 C965 C 1.09055 -0.11873 0.08002
 C966 C 1.10698 -0.13422 0.09578
 C967 C 1.06207 -0.08691 0.08686
 C968 C 1.04982 -0.07219 0.07289
 H969 H 1.14663 -0.20567 0.14418
 H970 H 1.11796 -0.17875 0.11564
 H971 H 1.14383 -0.12788 0.19262
 H972 H 1.17210 -0.15513 0.22146
 H973 H 1.10001 -0.12034 0.18877
 H974 H 1.07153 -0.09299 0.16083
 H975 H 1.08814 -0.11816 0.04960
 H976 H 1.11703 -0.14531 0.07711
 C977 C 1.18401 0.28371 0.71706
 C978 C 1.17154 0.29806 0.70253
 C979 C 1.15618 0.31491 0.68535
 C980 C 1.16394 0.33725 0.68424
 C981 C 1.14883 0.35362 0.66794
 C982 C 1.12572 0.34784 0.65253
 C983 C 1.11809 0.32532 0.65379
 C984 C 1.13324 0.30899 0.67008
 C985 C 1.10968 0.36523 0.63521
 C986 C 1.08393 0.36502 0.64127
 C987 C 1.06892 0.38157 0.62521
 C988 C 1.07945 0.39849 0.60289
 C989 C 1.10500 0.39876 0.59653
 C990 C 1.12002 0.38226 0.61256
 C991 C 1.06427 0.41583 0.58676
 C992 C 1.05232 0.43077 0.57292
 H993 H 1.18161 0.34203 0.69613
 H994 H 1.15508 0.37084 0.66786
 H995 H 1.10056 0.32030 0.64175
 H996 H 1.12707 0.29173 0.67076
 H997 H 1.07545 0.35228 0.65892
 H998 H 1.04917 0.38126 0.63040
 H999 H 1.11333 0.41176 0.57922
 H1000 H 1.13971 0.38270 0.60692
 C1001 C 0.67665 -0.21988 0.72117
 C1002 C 0.66375 -0.20523 0.70829
 C1003 C 0.64844 -0.18780 0.69247
 C1004 C 0.65401 -0.16529 0.69925
 C1005 C 0.63950 -0.14837 0.68322
 C1006 C 0.61919 -0.15371 0.66009
 C1007 C 0.61363 -0.17641 0.65369
 C1008 C 0.62818 -0.19331 0.66974
 C1009 C 0.60411 -0.13569 0.64231
 C1010 C 0.57821 -0.13768 0.63972
 C1011 C 0.56414 -0.12071 0.62284
 C1012 C 0.57574 -0.10154 0.60828
 C1013 C 0.60146 -0.09944 0.61069
 C1014 C 0.61555 -0.11636 0.62755
 C1015 C 0.56142 -0.08397 0.59084
 C1016 C 0.55006 -0.06892 0.57605
 H1017 H 0.66961 -0.16081 0.71684
 H1018 H 0.64408 -0.13109 0.68915
 H1019 H 0.59834 -0.18110 0.63567
 H1020 H 0.62374 -0.21067 0.66417
 H1021 H 0.56880 -0.15222 0.65116
 H1022 H 0.54423 -0.12251 0.62122
 H1023 H 0.61067 -0.08473 0.59941
 H1024 H 0.63545 -0.11444 0.62854
 C1025 C 0.68832 0.29419 0.21713
 C1026 C 0.67957 0.31085 0.20320
 C1027 C 0.66924 0.33068 0.18615
 C1028 C 0.65669 0.32919 0.15169
 C1029 C 0.64646 0.34834 0.13514
 C1030 C 0.64865 0.36931 0.15284
 C1031 C 0.66148 0.37067 0.18736
 C1032 C 0.67172 0.35148 0.20386
 C1033 C 0.63675 0.38942 0.13596
 C1034 C 0.62398 0.40474 0.15900
 C1035 C 0.61076 0.42246 0.14284
 C1036 C 0.61022 0.42521 0.10350
 C1037 C 0.62361 0.41055 0.08043
 C1038 C 0.63683 0.39282 0.09652
 C1039 C 0.59355 0.44117 0.08672
 C1040 C 0.57819 0.45324 0.07273
 H1041 H 0.65463 0.31318 0.13774
 H1042 H 0.63636 0.34664 0.10890
 H1043 H 0.66368 0.38659 0.20150
 H1044 H 0.68150 0.35285 0.23046
 H1045 H 0.62329 0.40245 0.18939
 H1046 H 0.60018 0.43349 0.16095
 H1047 H 0.62316 0.41239 0.04992
 H1048 H 0.64676 0.38151 0.07807
 C1049 C 0.81381 0.21229 0.21872
 C1050 C 0.82573 0.19759 0.20418
 C1051 C 0.84112 0.18084 0.18693
 C1052 C 0.83096 0.16077 0.17386
 C1053 C 0.84617 0.14467 0.15705
 C1054 C 0.87176 0.14847 0.15317
 C1055 C 0.88175 0.16872 0.16636
 C1056 C 0.86652 0.18477 0.18309
 C1057 C 0.88803 0.13139 0.13555
 C1058 C 0.91154 0.12682 0.15074
 C1059 C 0.92680 0.11067 0.13428
 C1060 C 0.91881 0.09891 0.10241
 C1061 C 0.89552 0.10341 0.08697
 C1062 C 0.88021 0.11954 0.10341
 C1063 C 0.93414 0.08178 0.08614
 C1064 C 0.94644 0.06705 0.07251
 H1065 H 0.81132 0.15754 0.17674
 H1066 H 0.83799 0.12913 0.14758
 H1067 H 0.90129 0.17228 0.16330
 H1068 H 0.87456 0.20030 0.19297
 H1069 H 0.91796 0.13546 0.17573
 H1070 H 0.94473 0.10721 0.14659
 H1071 H 0.88915 0.09440 0.06230
 H1072 H 0.86237 0.12289 0.09077
 C1073 C 0.81342 0.71617 0.70902
 C1074 C 0.82608 0.70179 0.69505
 C1075 C 0.84186 0.68501 0.67873
 C1076 C 0.83176 0.66538 0.66379
 C1077 C 0.84724 0.64910 0.64815
 C1078 C 0.87304 0.65226 0.64733
 C1079 C 0.88298 0.67207 0.66238
 C1080 C 0.86747 0.68833 0.67795
 C1081 C 0.88952 0.63494 0.63096
 C1082 C 0.91200 0.62940 0.64866
 C1083 C 0.92737 0.61290 0.63345
 C1084 C 0.92050 0.60176 0.60035
 C1085 C 0.89827 0.60725 0.58240
 C1086 C 0.88286 0.62371 0.59758
 C1087 C 0.93590 0.58434 0.58517
 C1088 C 0.94825 0.56945 0.57215
 H1089 H 0.81196 0.66263 0.66436
 H1090 H 0.83906 0.63390 0.63722
 H1091 H 0.90272 0.67512 0.66171
 H1092 H 0.87547 0.70350 0.68935
 H1093 H 0.91749 0.63755 0.67463
 H1094 H 0.94449 0.60870 0.64767
 H1095 H 0.89279 0.59874 0.55673
 H1096 H 0.86585 0.62781 0.58304
 C1097 C 0.32118 0.21923 0.72499
 C1098 C 0.33382 0.20480 0.71100
 C1099 C 0.34880 0.18761 0.69387
 C1100 C 0.37439 0.19053 0.69025
 C1101 C 0.38886 0.17399 0.67312
 C1102 C 0.37791 0.15427 0.65927
 C1103 C 0.35216 0.15149 0.66314
 C1104 C 0.33775 0.16804 0.68031
 C1105 C 0.39322 0.13670 0.64085
 C1106 C 0.38449 0.12537 0.60868
 C1107 C 0.39871 0.10864 0.59166
 C1108 C 0.42186 0.10295 0.60647
 C1109 C 0.43080 0.11421 0.63831
 C1110 C 0.41661 0.13098 0.65537
 C1111 C 0.43617 0.08530 0.58937
 C1112 C 0.44777 0.07030 0.57499
 H1113 H 0.38315 0.20565 0.70048
 H1114 H 0.40856 0.17678 0.67017
 H1115 H 0.34320 0.13640 0.65327
 H1116 H 0.31796 0.16556 0.68298
 H1117 H 0.36674 0.12958 0.59647
 H1118 H 0.39161 0.10008 0.56698
 H1119 H 0.44865 0.10991 0.65013
 H1120 H 0.42374 0.13918 0.68033
 C1121 C 0.31500 0.70746 0.21789
 C1122 C 0.32396 0.69068 0.20481
 C1123 C 0.33453 0.67066 0.18889
 C1124 C 0.35610 0.66151 0.20431
 C1125 C 0.36666 0.64236 0.18840
 C1126 C 0.35579 0.63206 0.15675
 C1127 C 0.33398 0.64127 0.14167
 C1128 C 0.32343 0.66043 0.15766
 C1129 C 0.36771 0.61230 0.13886
 C1130 C 0.36915 0.61056 0.09920
 C1131 C 0.38213 0.59294 0.08238
 C1132 C 0.39372 0.57674 0.10490
 C1133 C 0.39174 0.57793 0.14434
 C1134 C 0.37879 0.59554 0.16122
 C1135 C 0.40990 0.56049 0.08780
 C1136 C 0.42482 0.54801 0.07374
 H1137 H 0.36490 0.66931 0.22840
 H1138 H 0.38366 0.63591 0.20032
 H1139 H 0.32502 0.63363 0.11759
 H1140 H 0.30669 0.66732 0.14555
 H1141 H 0.36112 0.62331 0.08119
 H1142 H 0.38382 0.59238 0.05184
 H1143 H 0.40080 0.56561 0.16208
 H1144 H 0.37774 0.59623 0.19180
   
