data_POSCAR
  _audit_creation_date              2014-09-24
  _audit_creation_method            'ToBaCCo'
  _symmetry_space_group_name_H-M    'P1'
  _symmetry_Int_Tables_number       1
  _symmetry_cell_setting            triclinic
  loop_
  _symmetry_equiv_pos_as_xyz
 x,y,z
_cell_length_a 33.8874
_cell_length_b 33.5297
_cell_length_c 31.6582
_cell_angle_alpha 90.193300
_cell_angle_beta 89.952700
_cell_angle_gamma 89.954600
loop_
  _atom_site_label
  _atom_site_type_symbol
  _atom_site_fract_x
  _atom_site_fract_y
  _atom_site_fract_z
C1 C 0.28238 0.33493 0.01311
 C2 C 0.28657 0.34000 -0.03106
 C3 C 0.31331 0.31562 -0.05334
 C4 C 0.33680 0.28717 -0.03254
 C5 C 0.33352 0.28370 0.01206
 C6 C 0.30625 0.30730 0.03407
 H7 H 0.30396 0.30451 0.06811
 H8 H 0.31639 0.31941 -0.08721
 C9 C 0.71215 0.65831 0.02426
 C10 C 0.71275 0.66199 -0.02008
 C11 C 0.68682 0.68845 -0.04004
 C12 C 0.65950 0.71120 -0.01668
 C13 C 0.65796 0.70612 0.02782
 C14 C 0.68471 0.68037 0.04772
 H15 H 0.68402 0.67735 0.08181
 H16 H 0.68732 0.69055 -0.07423
 C17 C 0.71993 0.33349 0.98392
 C18 C 0.72094 0.32951 1.02866
 C19 C 0.69344 0.30423 1.04843
 C20 C 0.66684 0.28147 1.02467
 C21 C 0.66716 0.28416 0.98030
 C22 C 0.69363 0.31004 0.96033
 H23 H 0.69253 0.31322 0.92628
 H24 H 0.69314 0.30163 1.08257
 C25 C 0.27813 0.66615 0.98329
 C26 C 0.28361 0.65969 1.02702
 C27 C 0.31196 0.68227 1.04882
 C28 C 0.33692 0.70901 1.02759
 C29 C 0.33113 0.71534 0.98357
 C30 C 0.30165 0.69399 0.96225
 H31 H 0.29772 0.69824 0.92856
 H32 H 0.31592 0.67739 1.08243
 C33 C 0.02054 0.27118 0.32848
 C34 C -0.02097 0.27345 0.33114
 C35 C -0.04158 0.30004 0.30510
 C36 C -0.02126 0.32532 0.27750
 C37 C 0.02018 0.32248 0.27426
 C38 C 0.04065 0.29510 0.29939
 H39 H 0.07262 0.29418 0.29819
 H40 H -0.07333 0.30282 0.30828
 C41 C 0.01668 0.73013 0.67820
 C42 C -0.02439 0.72686 0.67066
 C43 C -0.04602 0.69698 0.69125
 C44 C -0.02765 0.66945 0.71828
 C45 C 0.01358 0.67299 0.72554
 C46 C 0.03492 0.70370 0.70621
 H47 H 0.06670 0.70490 0.71014
 H48 H -0.07764 0.69520 0.68612
 C49 C 0.98480 0.73071 0.31912
 C50 C 1.02640 0.72414 0.32459
 C51 C 1.04559 0.69375 0.30181
 C52 C 1.02448 0.66551 0.27837
 C53 C 0.98288 0.66809 0.27767
 C54 C 0.96393 0.69910 0.29948
 H55 H 0.93221 0.69749 0.30118
 H56 H 1.07724 0.68996 0.30532
 C57 C 0.97572 0.26988 0.68008
 C58 C 1.01746 0.27167 0.67493
 C59 C 1.03923 0.29829 0.70016
 C60 C 1.02030 0.32711 0.72508
 C61 C 0.97882 0.32641 0.72869
 C62 C 0.95717 0.29706 0.70746
 H63 H 0.92530 0.29668 0.71062
 H64 H 1.07108 0.29965 0.69696
 C65 C 0.32991 0.01968 0.27831
 C66 C 0.32773 -0.02234 0.27305
 C67 C 0.30032 -0.04403 0.29729
 C68 C 0.27653 -0.02502 0.32756
 C69 C 0.27947 0.01672 0.33301
 C70 C 0.30578 0.03860 0.30818
 H71 H 0.30703 0.07076 0.31167
 H72 H 0.29943 -0.07630 0.29473
 C73 C 0.66948 0.01272 0.72529
 C74 C 0.67024 -0.02941 0.72724
 C75 C 0.69610 -0.05079 0.70095
 C76 C 0.72107 -0.03089 0.67275
 C77 C 0.72147 0.01112 0.67225
 C78 C 0.69594 0.03258 0.69868
 H79 H 0.69537 0.06488 0.69705
 H80 H 0.69566 -0.08312 0.70121
 C81 C 0.33088 0.97992 0.73013
 C82 C 0.33126 1.02209 0.72929
 C83 C 0.30130 1.04233 0.70761
 C84 C 0.27291 1.02187 0.68351
 C85 C 0.27578 0.97958 0.68038
 C86 C 0.30320 0.95917 0.70561
 H87 H 0.30515 0.92694 0.70354
 H88 H 0.30071 1.07468 0.70893
 C89 C 0.66466 0.98178 0.27677
 C90 C 0.66396 1.02369 0.27586
 C91 C 0.69202 1.04542 0.29872
 C92 C 0.72077 1.02608 0.32335
 C93 C 0.71930 0.98373 0.32670
 C94 C 0.69210 0.96219 0.30227
 H95 H 0.69120 0.92992 0.30439
 H96 H 0.69144 1.07773 0.29706
 O97 O 0.84783 0.90241 0.53770
 O98 O 0.90620 0.85954 0.45004
 O99 O 0.84945 0.91112 0.45729
 O100 O 0.90779 0.85307 0.53328
 O101 O 0.86514 0.80359 0.52898
 O102 O 0.80745 0.86089 0.45160
 O103 O 0.86427 0.80939 0.44589
 O104 O 0.80573 0.85245 0.53236
 Cu105 Cu 0.88256 0.88616 0.49526
 Cu106 Cu 0.83178 0.82627 0.48918
 C107 C 0.81586 0.88549 0.54869
 C108 C 0.89435 0.82772 0.43214
 C109 C 0.81823 0.89602 0.44209
 C110 C 0.89574 0.81914 0.54530
 O111 O 0.14618 0.08912 0.54605
 O112 O 0.09461 0.14515 0.46201
 O113 O 0.14857 0.08891 0.46330
 O114 O 0.08989 0.14236 0.54315
 O115 O 0.13536 0.18965 0.54549
 O116 O 0.19507 0.13485 0.46762
 O117 O 0.14139 0.19088 0.46441
 O118 O 0.19033 0.13702 0.54992
 Cu119 Cu 0.11545 0.11138 0.50314
 Cu120 Cu 0.17034 0.16758 0.50695
 C121 C 0.17659 0.10422 0.56329
 C122 C 0.10871 0.17841 0.45006
 C123 C 0.18167 0.10277 0.45178
 C124 C 0.10242 0.17546 0.55723
 O125 O 0.09965 0.85040 0.54531
 O126 O 0.15319 0.89980 0.45854
 O127 O 0.09878 0.84498 0.46319
 O128 O 0.15326 0.90579 0.54082
 O129 O 0.19799 0.85799 0.54597
 O130 O 0.14666 0.80012 0.46374
 O131 O 0.20102 0.85523 0.46383
 O132 O 0.14437 0.80236 0.54573
 Cu133 Cu 0.12156 0.87993 0.50163
 Cu134 Cu 0.17719 0.82431 0.50511
 C135 C 0.11269 0.81767 0.55981
 C136 C 0.18646 0.88617 0.44685
 C137 C 0.11359 0.81239 0.45016
 C138 C 0.18471 0.89192 0.55684
 O139 O 0.84898 0.09189 0.45776
 O140 O 0.90278 0.14177 0.54445
 O141 O 0.84820 0.08727 0.54031
 O142 O 0.90429 0.14615 0.46286
 O143 O 0.85987 0.19418 0.46787
 O144 O 0.80058 0.13235 0.53945
 O145 O 0.85498 0.18603 0.54903
 O146 O 0.80550 0.14064 0.45771
 Cu147 Cu 0.88054 0.11187 0.50100
 Cu148 Cu 0.82555 0.16790 0.50370
 C149 C 0.81860 0.10834 0.44203
 C150 C 0.88766 0.17220 0.56214
 C151 C 0.81487 0.09983 0.55298
 C152 C 0.89219 0.18081 0.45326
 O153 O 0.46114 0.90085 0.85581
 O154 O 0.53594 0.84059 0.91148
 O155 O 0.53792 0.89878 0.85724
 O156 O 0.45889 0.84384 0.91154
 O157 O 0.45598 0.80158 0.85828
 O158 O 0.53881 0.85312 0.80698
 O159 O 0.53313 0.79522 0.86073
 O160 O 0.46269 0.85800 0.80262
 Cu161 Cu 0.49853 0.87538 0.88931
 Cu162 Cu 0.49748 0.82241 0.82707
 C163 C 0.44987 0.88996 0.81928
 C164 C 0.54717 0.80769 0.89548
 C165 C 0.55246 0.88493 0.82326
 C166 C 0.44305 0.81397 0.89368
 O167 O 0.53617 0.15349 0.09235
 O168 O 0.45679 0.09779 0.14612
 O169 O 0.45916 0.15260 0.08751
 O170 O 0.53338 0.09670 0.14818
 O171 O 0.53139 0.14286 0.19807
 O172 O 0.45587 0.19742 0.13835
 O173 O 0.45507 0.14351 0.19635
 O174 O 0.53290 0.19990 0.14189
 Cu175 Cu 0.49658 0.12064 0.11339
 Cu176 Cu 0.49378 0.17566 0.17354
 C177 C 0.54817 0.18615 0.10824
 C178 C 0.44231 0.11121 0.18043
 C179 C 0.44411 0.18410 0.10290
 C180 C 0.54457 0.11000 0.18377
 O181 O 0.46405 0.16146 0.89867
 O182 O 0.54181 0.10020 0.84905
 O183 O 0.54074 0.16062 0.90159
 O184 O 0.46548 0.10207 0.84462
 O185 O 0.46622 0.14605 0.79324
 O186 O 0.54318 0.20281 0.84819
 O187 O 0.54271 0.14176 0.79499
 O188 O 0.46677 0.20435 0.84581
 Cu189 Cu 0.50280 0.12689 0.87891
 Cu190 Cu 0.50542 0.17798 0.81520
 C191 C 0.45228 0.19315 0.88077
 C192 C 0.55467 0.11013 0.81295
 C193 C 0.55416 0.19214 0.88475
 C194 C 0.45325 0.11386 0.80878
 O195 O 0.46158 0.83567 0.09820
 O196 O 0.53600 0.89759 0.15167
 O197 O 0.53706 0.83537 0.10230
 O198 O 0.45856 0.89767 0.14847
 O199 O 0.45696 0.85828 0.20433
 O200 O 0.53450 0.79562 0.15772
 O201 O 0.53385 0.85785 0.20712
 O202 O 0.45842 0.79653 0.15420
 Cu203 Cu 0.49848 0.87094 0.11979
 Cu204 Cu 0.49567 0.82331 0.18662
 C205 C 0.44808 0.80508 0.11676
 C206 C 0.54821 0.88780 0.18809
 C207 C 0.54811 0.80408 0.12149
 C208 C 0.44441 0.88834 0.18422
 O209 O 0.89785 0.53855 0.84208
 O210 O 0.84438 0.46490 0.90730
 O211 O 0.90120 0.46165 0.85123
 O212 O 0.84437 0.54236 0.90150
 O213 O 0.79773 0.53612 0.85332
 O214 O 0.85724 0.45933 0.79973
 O215 O 0.80036 0.45855 0.85624
 O216 O 0.85046 0.53619 0.79476
 Cu217 Cu 0.87648 0.50232 0.88058
 Cu218 Cu 0.82184 0.49674 0.82114
 C219 C 0.88330 0.54995 0.80703
 C220 C 0.81314 0.44926 0.89253
 C221 C 0.88946 0.44770 0.81616
 C222 C 0.81146 0.55305 0.88611
 O223 O 0.15527 0.45689 0.09524
 O224 O 0.09900 0.53513 0.15107
 O225 O 0.15808 0.53381 0.09734
 O226 O 0.09668 0.45726 0.14836
 O227 O 0.14012 0.45321 0.19999
 O228 O 0.19922 0.53236 0.15132
 O229 O 0.14032 0.53085 0.20487
 O230 O 0.19873 0.45565 0.14734
 Cu231 Cu 0.12283 0.49625 0.11778
 Cu232 Cu 0.17364 0.49293 0.18141
 C233 C 0.18687 0.44356 0.11152
 C234 C 0.10989 0.54579 0.18775
 C235 C 0.18973 0.54526 0.11509
 C236 C 0.10853 0.44139 0.18241
 O237 O 0.90324 0.45907 0.15316
 O238 O 0.84467 0.53462 0.09643
 O239 O 0.90261 0.53668 0.15094
 O240 O 0.84608 0.45698 0.09885
 O241 O 0.80482 0.45574 0.15263
 O242 O 0.85794 0.53986 0.20144
 O243 O 0.80019 0.53349 0.14754
 O244 O 0.86164 0.46267 0.20687
 Cu245 Cu 0.87846 0.49686 0.11955
 Cu246 Cu 0.82672 0.49813 0.18230
 C247 C 0.89258 0.44846 0.18991
 C248 C 0.81225 0.54649 0.11223
 C249 C 0.88964 0.55247 0.18470
 C250 C 0.81660 0.44170 0.11746
 O251 O 0.15212 0.54122 0.90291
 O252 O 0.09942 0.46225 0.84434
 O253 O 0.15780 0.46418 0.89976
 O254 O 0.09412 0.53969 0.84930
 O255 O 0.13657 0.54302 0.79637
 O256 O 0.20023 0.46859 0.84717
 O257 O 0.14322 0.46577 0.79320
 O258 O 0.19520 0.54528 0.85063
 Cu259 Cu 0.12149 0.50108 0.87932
 Cu260 Cu 0.17296 0.50630 0.81653
 C261 C 0.18290 0.55637 0.88669
 C262 C 0.11188 0.45097 0.80829
 C263 C 0.19048 0.45448 0.88278
 C264 C 0.10457 0.55387 0.81391
 C265 C 0.24322 0.42815 0.06529
 C266 C 0.26612 0.40201 0.04136
 C267 C 0.25670 0.36135 0.03904
 C268 C 0.22374 0.34673 0.06180
 C269 C 0.20091 0.37328 0.08678
 C270 C 0.21060 0.41428 0.08798
 C271 C 0.16912 0.35779 0.10999
 N272 N 0.16017 0.31845 0.10722
 N273 N 0.18097 0.29366 0.08289
 C274 C 0.21238 0.30643 0.06005
 H275 H 0.25086 0.45950 0.06587
 H276 H 0.29136 0.41359 0.02433
 H277 H 0.15162 0.37655 0.13053
 H278 H 0.22803 0.28501 0.04068
 C279 C 0.75774 0.56267 0.06365
 C280 C 0.73355 0.58967 0.04249
 C281 C 0.73939 0.63089 0.04673
 C282 C 0.77042 0.64512 0.07271
 C283 C 0.79500 0.61762 0.09421
 C284 C 0.78839 0.57617 0.08958
 C285 C 0.82535 0.63262 0.11999
 N286 N 0.83086 0.67255 0.12347
 N287 N 0.80800 0.69840 0.10302
 C288 C 0.77800 0.68610 0.07782
 H289 H 0.75234 0.53100 0.06003
 H290 H 0.70979 0.57835 0.02298
 H291 H 0.84467 0.61300 0.13741
 H292 H 0.76052 0.70846 0.06193
 C293 C 0.79458 0.38008 0.91022
 C294 C 0.77139 0.35228 0.93154
 C295 C 0.74311 0.36458 0.96125
 C296 C 0.73730 0.40599 0.96847
 C297 C 0.76176 0.43413 0.94777
 C298 C 0.79033 0.42092 0.91823
 C299 C 0.75611 0.47487 0.95662
 N300 N 0.72700 0.48653 0.98335
 N301 N 0.70310 0.46022 1.00162
 C302 C 0.70703 0.42045 0.99485
 H303 H 0.81590 0.36967 0.88715
 H304 H 0.77572 0.32084 0.92507
 H305 H 0.77447 0.49749 0.94247
 H306 H 0.68623 0.40060 1.00986
 C307 C 0.24396 0.57577 0.92319
 C308 C 0.26683 0.60212 0.94674
 C309 C 0.25240 0.63990 0.95762
 C310 C 0.21421 0.65146 0.94437
 C311 C 0.19044 0.62415 0.92148
 C312 C 0.20570 0.58612 0.91069
 C313 C 0.15232 0.63613 0.90964
 N314 N 0.13919 0.67316 0.91987
 N315 N 0.16162 0.69891 0.94113
 C316 C 0.19869 0.68936 0.95371
 H317 H 0.25595 0.54673 0.91534
 H318 H 0.29607 0.59299 0.95665
 H319 H 0.13294 0.61641 0.89242
 H320 H 0.21560 0.71132 0.97105
 C321 C 0.06968 0.18522 0.38433
 C322 C 0.04883 0.20754 0.35468
 C323 C 0.04377 0.24866 0.36008
 C324 C 0.05988 0.26778 0.39606
 C325 C 0.08089 0.24516 0.42643
 C326 C 0.08637 0.20348 0.41999
 C327 C 0.09449 0.26508 0.46293
 N328 N 0.08837 0.30480 0.46770
 N329 N 0.06947 0.32608 0.43866
 C330 C 0.05503 0.30898 0.40307
 H331 H 0.07326 0.15347 0.37910
 H332 H 0.03650 0.19263 0.32731
 H333 H 0.10905 0.24963 0.48834
 H334 H 0.03970 0.32778 0.38077
 C335 C 0.07547 0.75846 0.58238
 C336 C 0.05113 0.73815 0.61035
 C337 C 0.04246 0.75409 0.65020
 C338 C 0.05974 0.79075 0.66254
 C339 C 0.08248 0.81270 0.63297
 C340 C 0.08999 0.79637 0.59242
 C341 C 0.09812 0.84966 0.64564
 N342 N 0.09202 0.86310 0.68558
 N343 N 0.07155 0.84200 0.71364
 C344 C 0.05542 0.80620 0.70356
 H345 H 0.08239 0.74469 0.55232
 H346 H 0.03925 0.70944 0.60103
 H347 H 0.11554 0.86771 0.62442
 H348 H 0.03971 0.78999 0.72776
 C349 C 0.95723 0.81526 0.39432
 C350 C 0.97936 0.79503 0.36395
 C351 C 0.96174 0.76663 0.33695
 C352 C 0.92061 0.77298 0.32947
 C353 C 0.89741 0.79331 0.36025
 C354 C 0.91623 0.81124 0.39549
 C355 C 0.85669 0.79772 0.35281
 N356 N 0.84097 0.78522 0.31571
 N357 N 0.86324 0.76920 0.28544
 C358 C 0.90254 0.76352 0.29070
 H359 H 0.97247 0.83315 0.41773
 H360 H 1.01023 0.80183 0.36295
 H361 H 0.83751 0.81285 0.37491
 H362 H 0.91957 0.75288 0.26403
 C363 C 0.90054 0.23445 0.60128
 C364 C 0.92083 0.25791 0.63015
 C365 C 0.95043 0.24162 0.65560
 C366 C 0.95678 0.19984 0.65474
 C367 C 0.93625 0.17558 0.62499
 C368 C 0.90858 0.19355 0.59688
 C369 C 0.94377 0.13422 0.62551
 N370 N 0.96968 0.11869 0.65363
 N371 N 0.98845 0.14146 0.68163
 C372 C 0.98267 0.18139 0.68334
 H373 H 0.87940 0.24908 0.58087
 H374 H 0.91505 0.28970 0.63071
 H375 H 0.92902 0.11360 0.60480
 H376 H 0.99800 0.19830 0.70739
 C377 C 0.41346 0.08764 0.24747
 C378 C 0.38640 0.06600 0.27118
 C379 C 0.35593 0.04485 0.25152
 C380 C 0.35150 0.04725 0.20709
 C381 C 0.37935 0.06897 0.18273
 C382 C 0.41119 0.08873 0.20323
 C383 C 0.37331 0.07120 0.13884
 N384 N 0.34194 0.05274 0.12083
 N385 N 0.31585 0.03252 0.14374
 C386 C 0.31939 0.02937 0.18621
 H387 H 0.43700 0.10297 0.26395
 H388 H 0.38988 0.06485 0.30518
 H389 H 0.39260 0.08795 0.11863
 H390 H 0.29674 0.01348 0.20329
 C391 C 0.62212 0.08299 0.80387
 C392 C 0.64989 0.05974 0.78242
 C393 C 0.63886 0.03651 0.74748
 C394 C 0.59914 0.03706 0.73358
 C395 C 0.57085 0.06007 0.75585
 C396 C 0.58270 0.08376 0.79072
 C397 C 0.53134 0.05839 0.74253
 N398 N 0.52128 0.03636 0.70821
 N399 N 0.54812 0.01593 0.68630
 C400 C 0.58670 0.01569 0.69765
 H401 H 0.63153 0.10091 0.83056
 H402 H 0.68027 0.05991 0.79307
 H403 H 0.50842 0.07412 0.75931
 H404 H 0.60723 -0.00118 0.67847
 C405 C 0.38394 0.92086 0.81380
 C406 C 0.35483 0.94153 0.79175
 C407 C 0.36243 0.95686 0.75147
 C408 C 0.40002 0.95100 0.73285
 C409 C 0.42965 0.93005 0.75528
 C410 C 0.42121 0.91446 0.79585
 C411 C 0.46711 0.92607 0.73653
 N412 N 0.47386 0.94128 0.69755
 N413 N 0.44573 0.96016 0.67610
 C414 C 0.40905 0.96543 0.69234
 H415 H 0.37709 0.90908 0.84478
 H416 H 0.32621 0.94593 0.80633
 H417 H 0.49115 0.91137 0.75260
 H418 H 0.38729 0.98075 0.67342
 C419 C 0.57273 0.92391 0.25080
 C420 C 0.60062 0.94679 0.27219
 C421 C 0.63587 0.95784 0.25245
 C422 C 0.64339 0.94546 0.21045
 C423 C 0.61505 0.92213 0.18857
 C424 C 0.57920 0.91168 0.20897
 C425 C 0.62432 0.90905 0.14743
 N426 N 0.65907 0.91964 0.12939
 N427 N 0.68532 0.94210 0.14975
 C428 C 0.67874 0.95527 0.18967
 H429 H 0.54560 0.91606 0.26689
 H430 H 0.59470 0.95601 0.30442
 H431 H 0.60470 0.89008 0.12955
 H432 H 0.70123 0.97315 0.20484
 C433 C 0.43205 0.24111 0.93551
 C434 C 0.40409 0.26445 0.95618
 C435 C 0.36418 0.26410 0.94390
 C436 C 0.35287 0.23994 0.90873
 C437 C 0.38183 0.21701 0.88702
 C438 C 0.42145 0.21746 0.90100
 C439 C 0.36992 0.19312 0.85273
 N440 N 0.33135 0.19151 0.84164
 N441 N 0.30391 0.21186 0.86275
 C442 C 0.31321 0.23563 0.89601
 H443 H 0.46237 0.24181 0.94633
 H444 H 0.41397 0.28342 0.98180
 H445 H 0.39082 0.17537 0.83494
 H446 H 0.28931 0.25016 0.91258
 C447 C 0.56493 0.75462 0.94559
 C448 C 0.59223 0.73145 0.96738
 C449 C 0.63310 0.73678 0.96168
 C450 C 0.64624 0.76684 0.93319
 C451 C 0.61819 0.78999 0.91066
 C452 C 0.57738 0.78383 0.91728
 C453 C 0.63199 0.81906 0.88237
 N454 N 0.67125 0.82557 0.87821
 N455 N 0.69759 0.80506 0.90052
 C456 C 0.68650 0.77622 0.92800
 H457 H 0.53373 0.74943 0.95044
 H458 H 0.58117 0.70813 0.98777
 H459 H 0.61191 0.83674 0.86369
 H460 H 0.70930 0.76148 0.94598
 C461 C 0.38229 0.77451 0.10863
 C462 C 0.35534 0.75045 0.08731
 C463 C 0.36651 0.72897 0.05096
 C464 C 0.40691 0.72892 0.03887
 C465 C 0.43378 0.75503 0.05918
 C466 C 0.42101 0.77837 0.09395
 C467 C 0.47317 0.75547 0.04514
 N468 N 0.48522 0.72948 0.01489
 N469 N 0.46056 0.70316 -0.00228
 C470 C 0.42200 0.70168 0.00904
 H471 H 0.37251 0.79108 0.13612
 H472 H 0.32500 0.75019 0.09818
 H473 H 0.49471 0.77553 0.05853
 H474 H 0.40351 0.67897 -0.00503
 C475 C 0.57319 0.24933 0.07873
 C476 C 0.60172 0.27236 0.05859
 C477 C 0.63801 0.25575 0.04684
 C478 C 0.64589 0.21522 0.05587
 C479 C 0.61673 0.19158 0.07601
 C480 C 0.57992 0.20888 0.08720
 C481 C 0.62603 0.15166 0.08530
 N482 N 0.66179 0.13657 0.07445
 N483 N 0.68896 0.15870 0.05522
 C484 C 0.68230 0.19751 0.04567
 H485 H 0.54532 0.26306 0.08723
 H486 H 0.59540 0.30339 0.05188
 H487 H 0.60551 0.13238 0.10144
 H488 H 0.70552 0.21419 0.03031
 C489 C 0.23768 0.09376 0.60384
 C490 C 0.26087 0.07516 0.63391
 C491 C 0.24581 0.04428 0.65899
 C492 C 0.20475 0.03561 0.65658
 C493 C 0.18056 0.05536 0.62628
 C494 C 0.19784 0.08362 0.59823
 C495 C 0.13976 0.04715 0.62669
 N496 N 0.12464 0.02092 0.65488
 N497 N 0.14722 0.00280 0.68331
 C498 C 0.18653 0.00965 0.68549
 H499 H 0.25176 0.11561 0.58371
 H500 H 0.29190 0.08290 0.63492
 H501 H 0.11918 0.06204 0.60624
 H502 H 0.20307 -0.00469 0.71037
 C503 C 0.75653 0.09875 0.40248
 C504 C 0.73279 0.07979 0.37290
 C505 C 0.74786 0.04940 0.34691
 C506 C 0.78923 0.04214 0.34722
 C507 C 0.81387 0.06233 0.37679
 C508 C 0.79675 0.08939 0.40640
 C509 C 0.85491 0.05580 0.37421
 N510 N 0.86984 0.03053 0.34474
 N511 N 0.84679 0.01184 0.31707
 C512 C 0.80718 0.01718 0.31694
 H513 H 0.74267 0.11991 0.42376
 H514 H 0.70152 0.08663 0.37303
 H515 H 0.87570 0.07147 0.39389
 H516 H 0.79014 0.00247 0.29260
 C517 C 0.80732 0.92212 0.61605
 C518 C 0.78459 0.94195 0.64624
 C519 C 0.74375 0.94571 0.64121
 C520 C 0.72532 0.92916 0.60507
 C521 C 0.74831 0.90877 0.57432
 C522 C 0.78982 0.90507 0.58015
 C523 C 0.72890 0.89437 0.53794
 N524 N 0.68946 0.89956 0.53338
 N525 N 0.66797 0.91836 0.56247
 C526 C 0.68452 0.93344 0.59802
 H527 H 0.83890 0.91995 0.62084
 H528 H 0.79902 0.95482 0.67358
 H529 H 0.74447 0.87997 0.51241
 H530 H 0.66562 0.94896 0.62017
 C531 C 0.24482 0.92489 0.42551
 C532 C 0.26602 0.94786 0.39691
 C533 C 0.25346 0.95171 0.35493
 C534 C 0.21855 0.93190 0.34172
 C535 C 0.19568 0.91054 0.37171
 C536 C 0.20905 0.90723 0.41393
 C537 C 0.16041 0.89260 0.35815
 N538 N 0.14905 0.89570 0.31723
 N539 N 0.17054 0.91556 0.28904
 C540 C 0.20483 0.93375 0.29984
 H541 H 0.25619 0.92145 0.45720
 H542 H 0.29307 0.96200 0.40740
 H543 H 0.14185 0.87608 0.37965
 H544 H 0.22093 0.94956 0.27564
 C545 C 0.06768 0.39238 0.80779
 C546 C 0.04568 0.36262 0.78820
 C547 C 0.04427 0.35959 0.74422
 C548 C 0.06551 0.38738 0.71928
 C549 C 0.08835 0.41775 0.73910
 C550 C 0.08951 0.42011 0.78421
 C551 C 0.10805 0.44514 0.71259
 N552 N 0.10515 0.44200 0.67004
 N553 N 0.08379 0.41359 0.65174
 C554 C 0.06381 0.38636 0.67480
 H555 H 0.06797 0.39337 0.84200
 H556 H 0.02969 0.34154 0.80761
 H557 H 0.12507 0.46974 0.72443
 H558 H 0.04644 0.36456 0.65791
 C559 C 0.09348 0.61584 0.20399
 C560 C 0.07355 0.64501 0.22714
 C561 C 0.04541 0.63458 0.25782
 C562 C 0.03947 0.59352 0.26711
 C563 C 0.05944 0.56392 0.24312
 C564 C 0.08651 0.57538 0.21138
 C565 C 0.05225 0.52358 0.25235
 N566 N 0.02821 0.51371 0.28491
 N567 N 0.01111 0.54145 0.30891
 C568 C 0.01626 0.58091 0.30145
 H569 H 0.11468 0.62490 0.18025
 H570 H 0.07924 0.67608 0.22005
 H571 H 0.06581 0.49986 0.23426
 H572 H 0.00260 0.60204 0.32277
 C573 C 0.92081 0.38083 0.19482
 C574 C 0.94055 0.35067 0.21640
 C575 C 0.95685 0.35784 0.25631
 C576 C 0.95276 0.39600 0.27514
 C577 C 0.93223 0.42656 0.25344
 C578 C 0.91601 0.41866 0.21305
 C579 C 0.92930 0.46431 0.27274
 N580 N 0.94526 0.47051 0.31147
 N581 N 0.96421 0.44169 0.33201
 C582 C 0.96858 0.40471 0.31518
 H583 H 0.90835 0.37435 0.16403
 H584 H 0.94317 0.32151 0.20185
 H585 H 0.91479 0.48902 0.25734
 H586 H 0.98440 0.38252 0.33321
 C587 C 0.93041 0.60584 0.80267
 C588 C 0.95215 0.63463 0.78154
 C589 C 0.94962 0.63904 0.73760
 C590 C 0.92461 0.61267 0.71443
 C591 C 0.90207 0.58313 0.73608
 C592 C 0.90496 0.57992 0.78104
 C593 C 0.87890 0.55694 0.71133
 N594 N 0.87872 0.55988 0.66869
 N595 N 0.90043 0.58678 0.64860
 C596 C 0.92357 0.61285 0.66983
 H597 H 0.93319 0.60432 0.83672
 H598 H 0.97037 0.65458 0.80014
 H599 H 0.86154 0.53328 0.72448
 H600 H 0.94167 0.63262 0.65127
 C601 C 0.74695 0.57782 0.91066
 C602 C 0.72310 0.60393 0.93338
 C603 C 0.73929 0.63717 0.95366
 C604 C 0.78003 0.64535 0.94948
 C605 C 0.80447 0.61887 0.92613
 C606 C 0.78776 0.58412 0.90758
 C607 C 0.84456 0.62891 0.92127
 N608 N 0.85901 0.66248 0.93960
 N609 N 0.83610 0.68693 0.96201
 C610 C 0.79710 0.67962 0.96740
 H611 H 0.73353 0.55167 0.89651
 H612 H 0.69186 0.59756 0.93618
 H613 H 0.86447 0.61109 0.90241
 H614 H 0.77968 0.70091 0.98512
 C615 C 0.20012 0.39540 0.92803
 C616 C 0.22327 0.36747 0.94889
 C617 C 0.26461 0.36905 0.94693
 C618 C 0.28289 0.40078 0.92450
 C619 C 0.25920 0.42980 0.90379
 C620 C 0.21729 0.42633 0.90475
 C621 C 0.27850 0.46240 0.88472
 N622 N 0.31837 0.46513 0.88567
 N623 N 0.34046 0.43796 0.90495
 C624 C 0.32418 0.40621 0.92469
 H625 H 0.16832 0.39244 0.92966
 H626 H 0.20867 0.34371 0.96597
 H627 H 0.26271 0.48655 0.87010
 H628 H 0.34377 0.38620 0.94119
 C629 C 0.19816 0.60558 0.07177
 C630 C 0.22083 0.63337 0.05016
 C631 C 0.26209 0.63031 0.04891
 C632 C 0.28075 0.59754 0.06924
 C633 C 0.25753 0.56901 0.09115
 C634 C 0.21584 0.57369 0.09299
 C635 C 0.27687 0.53569 0.10868
 N636 N 0.31650 0.53166 0.10485
 N637 N 0.33819 0.55828 0.08420
 C638 C 0.32174 0.59077 0.06600
 H639 H 0.16640 0.60942 0.07247
 H640 H 0.20598 0.65828 0.03541
 H641 H 0.26112 0.51214 0.12447
 H642 H 0.34086 0.61038 0.04835
 C643 C 0.75433 0.40483 0.10618
 C644 C 0.73104 0.37688 0.08538
 C645 C 0.74706 0.35214 0.05390
 C646 C 0.78858 0.35214 0.04760
 C647 C 0.81266 0.37985 0.06983
 C648 C 0.79480 0.40810 0.09757
 C649 C 0.85391 0.37696 0.06471
 N650 N 0.86954 0.34901 0.03856
 N651 N 0.84694 0.32318 0.01773
 C652 C 0.80716 0.32347 0.02174
 H653 H 0.74009 0.42523 0.12800
 H654 H 0.69957 0.37691 0.09158
 H655 H 0.87421 0.39536 0.08225
 H656 H 0.79046 0.30072 0.00537
 C657 C 0.92192 0.75601 0.57388
 C658 C 0.94077 0.73333 0.60460
 C659 C 0.95612 0.75124 0.64113
 C660 C 0.95024 0.79270 0.64777
 C661 C 0.93086 0.81592 0.61651
 C662 C 0.91719 0.79729 0.57881
 C663 C 0.92391 0.85657 0.62541
 N664 N 0.93572 0.87252 0.66271
 N665 N 0.95330 0.85057 0.69214
 C666 C 0.96045 0.81121 0.68616
 H667 H 0.91112 0.74112 0.54574
 H668 H 0.94425 0.70156 0.59930
 H669 H 0.90832 0.87581 0.60391
 H670 H 0.97298 0.79446 0.71194
 C671 C 0.92937 0.18809 0.38672
 C672 C 0.94964 0.21055 0.35684
 C673 C 0.95704 0.25108 0.36376
 C674 C 0.94429 0.26931 0.40182
 C675 C 0.92391 0.24642 0.43244
 C676 C 0.91569 0.20562 0.42422
 C677 C 0.91342 0.26507 0.47077
 N678 N 0.92180 0.30417 0.47712
 N679 N 0.94019 0.32582 0.44796
 C680 C 0.95176 0.30976 0.41060
 H681 H 0.92353 0.15692 0.38007
 H682 H 0.95942 0.19629 0.32791
 H683 H 0.89938 0.24895 0.49613
 H684 H 0.96681 0.32871 0.38827
 C685 C 0.09033 0.20144 0.62871
 C686 C 0.07038 0.22595 0.65714
 C687 C 0.03791 0.24901 0.64419
 C688 C 0.02728 0.24889 0.60067
 C689 C 0.04602 0.22202 0.57246
 C690 C 0.07810 0.19869 0.58669
 C691 C 0.03318 0.22082 0.53023
 N692 N 0.00561 0.24708 0.51658
 N693 N -0.00971 0.27452 0.54227
 C694 C 0.00063 0.27673 0.58357
 H695 H 0.11544 0.18431 0.63963
 H696 H 0.07979 0.22605 0.68985
 H697 H 0.04527 0.19976 0.50781
 H698 H -0.01181 0.30044 0.60259
 C699 C 0.10393 0.78771 0.37734
 C700 C 0.08308 0.76613 0.34698
 C701 C 0.05032 0.74300 0.35844
 C702 C 0.03999 0.73970 0.40177
 C703 C 0.05929 0.76402 0.43198
 C704 C 0.09165 0.78791 0.41956
 C705 C 0.04526 0.76381 0.47373
 N706 N 0.01529 0.73917 0.48481
 N707 N -0.00166 0.71492 0.45682
 C708 C 0.00969 0.71425 0.41573
 H709 H 0.12911 0.80527 0.36758
 H710 H 0.09193 0.76824 0.31418
 H711 H 0.05761 0.78329 0.49746
 H712 H -0.00515 0.69400 0.39439
 C713 C 0.58454 0.90550 0.75699
 C714 C 0.61279 0.92591 0.73379
 C715 C 0.64213 0.94814 0.75401
 C716 C 0.64419 0.94825 0.79866
 C717 C 0.61557 0.92710 0.82258
 C718 C 0.58477 0.90629 0.80130
 C719 C 0.61991 0.92649 0.86685
 N720 N 0.65010 0.94641 0.88545
 N721 N 0.67656 0.96655 0.86294
 C722 C 0.67478 0.96796 0.82023
 H723 H 0.56180 0.88943 0.73997
 H724 H 0.61128 0.92501 0.69961
 H725 H 0.60048 0.90971 0.88705
 H726 H 0.69757 0.98404 0.80352
 C727 C 0.42403 0.94111 0.23333
 C728 C 0.39554 0.96294 0.25493
 C729 C 0.35506 0.95680 0.24748
 C730 C 0.34351 0.92861 0.21608
 C731 C 0.37280 0.90676 0.19378
 C732 C 0.41313 0.91278 0.20319
 C733 C 0.36076 0.87954 0.16251
 N734 N 0.32188 0.87503 0.15371
 N735 N 0.29434 0.89605 0.17394
 C736 C 0.30376 0.92279 0.20454
 H737 H 0.45489 0.94574 0.24091
 H738 H 0.40531 0.98339 0.27932
 H739 H 0.38195 0.86228 0.14462
 H740 H 0.28012 0.93968 0.21892
 C741 C 0.60756 0.07319 0.18817
 C742 C 0.63671 0.05287 0.21038
 C743 C 0.63234 0.04542 0.25355
 C744 C 0.59777 0.05813 0.27477
 C745 C 0.56805 0.07884 0.25225
 C746 C 0.57350 0.08706 0.20867
 C747 C 0.53335 0.08948 0.27403
 N748 N 0.52942 0.08077 0.31562
 N749 N 0.55768 0.06194 0.33689
 C750 C 0.59168 0.05028 0.31792
 H751 H 0.61198 0.07877 0.15483
 H752 H 0.66299 0.04304 0.19384
 H753 H 0.50903 0.10406 0.25843
 H754 H 0.61345 0.03473 0.33666
 C755 C 0.39860 0.06508 0.80931
 C756 C 0.36905 0.04253 0.79041
 C757 C 0.36252 0.04434 0.74683
 C758 C 0.38776 0.06828 0.72142
 C759 C 0.41876 0.09056 0.74052
 C760 C 0.42337 0.08984 0.78539
 C761 C 0.44480 0.11131 0.71349
 N762 N 0.43944 0.11054 0.67111
 N763 N 0.41025 0.09003 0.65342
 C764 C 0.38453 0.06869 0.67695
 H765 H 0.40157 0.06361 0.84334
 H766 H 0.35008 0.02466 0.81036
 H767 H 0.47033 0.12709 0.72467
 H768 H 0.36252 0.05148 0.66034
 C769 C 0.60885 0.79409 0.07995
 C770 C 0.63543 0.77059 0.05745
 C771 C 0.63030 0.72927 0.05469
 C772 C 0.59798 0.71109 0.07546
 C773 C 0.57068 0.73499 0.09828
 C774 C 0.57647 0.77697 0.10061
 C775 C 0.53753 0.71601 0.11612
 N776 N 0.53286 0.67603 0.11206
 N777 N 0.55878 0.65366 0.09107
 C778 C 0.59103 0.66979 0.07250
 H779 H 0.61348 0.82605 0.08099
 H780 H 0.65993 0.78480 0.04145
 H781 H 0.51467 0.73230 0.13242
 H782 H 0.61056 0.65021 0.05512
 C783 C 0.41277 0.24826 0.08564
 C784 C 0.38579 0.27226 0.06474
 C785 C 0.35834 0.25576 0.03684
 C786 C 0.35678 0.21387 0.03144
 C787 C 0.38472 0.18911 0.05226
 C788 C 0.41345 0.20677 0.07945
 C789 C 0.38190 0.14762 0.04561
 N790 N 0.35334 0.13247 0.02025
 N791 N 0.32707 0.15577 0.00121
 C792 C 0.32768 0.19589 0.00612
 H793 H 0.43408 0.26258 0.10619
 H794 H 0.38718 0.30428 0.06930
 H795 H 0.40154 0.12673 0.06027
 H796 H 0.30519 0.21333 -0.00950
 C797 C 0.61744 0.19974 0.92249
 C798 C 0.64505 0.22211 0.94492
 C799 C 0.63788 0.26225 0.95451
 C800 C 0.60235 0.28037 0.94106
 C801 C 0.57440 0.25778 0.91785
 C802 C 0.58229 0.21715 0.90839
 C803 C 0.53886 0.27646 0.90609
 N804 N 0.53230 0.31516 0.91655
 N805 N 0.55872 0.33640 0.93808
 C806 C 0.59346 0.32036 0.95075
 H807 H 0.62372 0.16868 0.91569
 H808 H 0.67213 0.20795 0.95511
 H809 H 0.51603 0.26070 0.88914
 H810 H 0.61366 0.33893 0.96847
 C811 C 0.40639 0.75134 0.90522
 C812 C 0.37916 0.72771 0.92629
 C813 C 0.35560 0.74358 0.95855
 C814 C 0.35662 0.78514 0.96657
 C815 C 0.38367 0.80972 0.94422
 C816 C 0.41029 0.79207 0.91465
 C817 C 0.38196 0.85118 0.95151
 N818 N 0.35620 0.86636 0.98017
 N819 N 0.33152 0.84313 1.00162
 C820 C 0.33064 0.80313 0.99558
 H821 H 0.42560 0.73711 0.88230
 H822 H 0.37806 0.69612 0.91904
 H823 H 0.39968 0.87206 0.93399
 H824 H 0.30918 0.78588 1.01298
 C825 C 0.79307 0.91056 0.37085
 C826 C 0.76870 0.93132 0.34317
 C827 C 0.74322 0.96124 0.35803
 C828 C 0.74132 0.96922 0.40205
 C829 C 0.76790 0.94991 0.42974
 C830 C 0.79337 0.91991 0.41392
 C831 C 0.76736 0.96065 0.47271
 N832 N 0.74034 0.98725 0.48717
 N833 N 0.71382 1.00367 0.46156
 C834 C 0.71313 0.99528 0.41964
 H835 H 0.81218 0.88734 0.35853
 H836 H 0.77002 0.92432 0.30977
 H837 H 0.78793 0.94797 0.49496
 H838 H 0.69044 1.00890 0.40051
 C839 C 0.20662 0.90483 0.63002
 C840 C 0.22935 0.92535 0.65967
 C841 C 0.25432 0.95653 0.64723
 C842 C 0.25749 0.96592 0.60364
 C843 C 0.23201 0.94732 0.57419
 C844 C 0.20712 0.91595 0.58745
 C845 C 0.23303 0.96019 0.53200
 N846 N 0.25986 0.98781 0.51973
 N847 N 0.28576 1.00323 0.54682
 C848 C 0.28581 0.99289 0.58819
 H849 H 0.18818 0.88038 0.64044
 H850 H 0.22712 0.91718 0.69266
 H851 H 0.21276 0.94852 0.50875
 H852 H 0.30794 1.00585 0.60861
 C853 C 0.24475 0.07271 0.42937
 C854 C 0.26834 0.05171 0.40094
 C855 C 0.25308 0.03872 0.36223
 C856 C 0.21352 0.04772 0.35150
 C857 C 0.18937 0.06891 0.38049
 C858 C 0.20521 0.08112 0.41993
 C859 C 0.15054 0.07834 0.36821
 N860 N 0.13699 0.06671 0.32981
 N861 N 0.15968 0.04670 0.30269
 C862 C 0.19750 0.03703 0.31211
 H863 H 0.25730 0.08200 0.45930
 H864 H 0.29870 0.04531 0.40924
 H865 H 0.13097 0.09536 0.38830
 H866 H 0.21481 0.02154 0.28852
 C867 C 0.75563 0.06155 0.57282
 C868 C 0.73315 0.03991 0.60158
 C869 C 0.74693 0.03329 0.64264
 C870 C 0.78411 0.04839 0.65500
 C871 C 0.80702 0.07033 0.62577
 C872 C 0.79259 0.07671 0.58435
 C873 C 0.84326 0.08610 0.63948
 N874 N 0.85590 0.07937 0.67947
 N875 N 0.83462 0.05817 0.70672
 C876 C 0.79913 0.04252 0.69591
 H877 H 0.74423 0.06638 0.54128
 H878 H 0.70467 0.02842 0.59187
 H879 H 0.86137 0.10403 0.61897
 H880 H 0.78299 0.02569 0.71934
 C881 C 0.91054 0.58673 0.25016
 C882 C 0.93277 0.61441 0.27264
 C883 C 0.95823 0.64060 0.25179
 C884 C 0.95880 0.64106 0.20703
 C885 C 0.93544 0.61342 0.18384
 C886 C 0.91213 0.58490 0.20588
 C887 C 0.93531 0.61652 0.13944
 N888 N 0.95782 0.64440 0.12002
 N889 N 0.98009 0.66982 0.14182
 C890 C 0.98116 0.66928 0.18458
 H891 H 0.89256 0.56587 0.26777
 H892 H 0.93106 0.61456 0.30682
 H893 H 0.91686 0.59809 0.11972
 H894 H 0.99902 0.69134 0.20057
 C895 C 0.92146 0.38146 0.81265
 C896 C 0.94265 0.35195 0.79130
 C897 C 0.95697 0.35869 0.75044
 C898 C 0.95002 0.39585 0.73071
 C899 C 0.92924 0.42607 0.75272
 C900 C 0.91398 0.41830 0.79353
 C901 C 0.92503 0.46346 0.73331
 N902 N 0.93921 0.46942 0.69377
 N903 N 0.95733 0.44045 0.67238
 C904 C 0.96305 0.40385 0.68939
 H905 H 0.91018 0.37527 0.84399
 H906 H 0.94780 0.32358 0.80662
 H907 H 0.91110 0.48808 0.74947
 H908 H 0.97763 0.38136 0.67048
 C909 C 0.07526 0.62129 0.80810
 C910 C 0.05423 0.65031 0.78610
 C911 C 0.03631 0.64130 0.74737
 C912 C 0.03991 0.60230 0.73034
 C913 C 0.06008 0.57257 0.75346
 C914 C 0.07886 0.58254 0.79196
 C915 C 0.06049 0.53348 0.73738
 N916 N 0.04368 0.52534 0.69947
 N917 N 0.02656 0.55376 0.67661
 C918 C 0.02435 0.59197 0.69058
 H919 H 0.08932 0.62938 0.83753
 H920 H 0.05182 0.68004 0.79937
 H921 H 0.07352 0.50936 0.75498
 H922 H 0.01063 0.61388 0.67042
 C923 C 0.08328 0.41064 0.24744
 C924 C 0.06240 0.38197 0.26972
 C925 C 0.04297 0.35112 0.24855
 C926 C 0.04503 0.34869 0.20400
 C927 C 0.06583 0.37829 0.18095
 C928 C 0.08512 0.40971 0.20316
 C929 C 0.06744 0.37433 0.13665
 N930 N 0.04948 0.34311 0.11729
 N931 N 0.03021 0.31537 0.13906
 C932 C 0.02756 0.31698 0.18173
 H933 H 0.09778 0.43418 0.26508
 H934 H 0.06109 0.38403 0.30386
 H935 H 0.08321 0.39507 0.11697
 H936 H 0.01203 0.29334 0.19789
   
