data_POSCAR
  _audit_creation_date              2014-09-24
  _audit_creation_method            'ToBaCCo'
  _symmetry_space_group_name_H-M    'P1'
  _symmetry_Int_Tables_number       1
  _symmetry_cell_setting            triclinic
  loop_
  _symmetry_equiv_pos_as_xyz
 x,y,z
_cell_length_a 38.3718
_cell_length_b 37.1760
_cell_length_c 29.6297
_cell_angle_alpha 89.785200
_cell_angle_beta 90.016700
_cell_angle_gamma 90.031100
loop_
  _atom_site_label
  _atom_site_type_symbol
  _atom_site_fract_x
  _atom_site_fract_y
  _atom_site_fract_z
Si1 Si 1.25203 0.25046 0.25261
 Si2 Si 0.74615 -0.24951 0.24801
 Si3 Si 0.74712 0.25033 -0.25229
 Si4 Si 1.25157 -0.24962 -0.24716
 Si5 Si 0.25291 0.25037 0.74740
 Si6 Si 0.74770 0.75027 0.75194
 Si7 Si 0.74779 0.25023 0.25207
 Si8 Si 0.25335 0.75019 0.24719
 O9 O 1.04930 0.06375 0.08335
 O10 O 1.08836 0.03109 0.04139
 C11 C 1.08067 0.05483 0.07183
 O12 O 0.95177 -0.06615 0.07743
 O13 O 0.91296 -0.03040 0.03881
 C14 C 0.92048 -0.05649 0.06637
 O15 O 1.04866 -0.06399 0.08179
 O16 O 1.08799 -0.03098 0.04027
 C17 C 1.08013 -0.05526 0.07026
 O18 O 0.95261 0.06796 0.07789
 O19 O 0.91333 0.03362 0.03834
 C20 C 0.92118 0.05909 0.06647
 Zr21 Zr 1.00075 0.04506 0.05920
 O22 O 0.99657 0.03888 0.13014
 O23 O 1.00307 0.10140 0.06783
 Zr24 Zr 1.00035 -0.04481 0.05727
 O25 O 0.99634 -0.04354 0.12855
 O26 O 1.00371 -0.10165 0.05838
 O27 O 1.03217 -0.00011 0.06720
 O28 O 0.96964 0.00021 0.06612
 O29 O 0.95275 0.06869 -0.07597
 O30 O 0.91339 0.03406 -0.03669
 C31 C 0.92130 0.05972 -0.06472
 O32 O 1.04926 -0.06122 -0.08140
 O33 O 1.08830 -0.02938 -0.03832
 C34 C 1.08061 -0.05270 -0.06926
 O35 O 0.95249 -0.06456 -0.07770
 O36 O 0.91331 -0.03071 -0.03747
 C37 C 0.92110 -0.05583 -0.06609
 O38 O 1.04961 0.06563 -0.07920
 O39 O 1.08846 0.03245 -0.03716
 C40 C 1.08092 0.05660 -0.06741
 Zr41 Zr 1.00105 0.04716 -0.05489
 O42 O 0.99749 0.04661 -0.12623
 O43 O 1.00463 0.10401 -0.05494
 Zr44 Zr 1.00074 -0.04297 -0.05687
 O45 O 0.99692 -0.03882 -0.12804
 O46 O 1.00429 -0.09963 -0.06145
 Zr47 Zr 1.05325 0.00093 0.00140
 Zr48 Zr 0.94820 0.00128 0.00071
 O49 O 0.97017 0.00228 -0.06431
 O50 O 1.03244 0.00212 -0.06454
 O51 O 0.97001 0.05344 0.00207
 O52 O 1.03070 -0.05074 0.00022
 O53 O 1.03113 0.05278 0.00241
 O54 O 0.96951 -0.05103 -0.00011
 H55 H 0.95347 0.00015 0.09220
 H56 H 1.04579 -0.07234 -0.00014
 H57 H 0.95423 0.00261 -0.09063
 H58 H 1.04643 0.07424 0.00273
 H59 H 0.98586 -0.11099 0.03740
 H60 H 0.98870 -0.10983 -0.03814
 H61 H 1.01891 -0.02823 -0.13937
 H62 H 1.01826 0.03395 -0.13793
 H63 H 0.98581 0.11329 -0.03536
 H64 H 1.00301 0.11211 0.03730
 H65 H 1.01957 0.03120 0.14179
 H66 H 1.01765 -0.03192 0.14040
 O67 O 1.04925 0.56498 0.58117
 O68 O 1.08832 0.53326 0.53807
 C69 C 1.08061 0.55654 0.56905
 O70 O 0.95293 0.43479 0.57612
 O71 O 0.91355 0.47005 0.53783
 C72 C 0.92147 0.44408 0.56540
 O73 O 1.04976 0.43819 0.57938
 O74 O 1.08856 0.47131 0.53718
 C75 C 1.08105 0.44718 0.56748
 O76 O 0.95241 0.56799 0.57738
 O77 O 0.91328 0.53400 0.53711
 C78 C 0.92102 0.55914 0.56576
 Zr79 Zr 1.00076 0.54669 0.55653
 O80 O 0.99697 0.54317 0.62775
 O81 O 1.00428 0.60341 0.56023
 Zr82 Zr 1.00113 0.45663 0.55524
 O83 O 0.99748 0.45809 0.62655
 O84 O 1.00509 0.39984 0.55660
 O85 O 1.03253 0.50172 0.56453
 O86 O 0.97023 0.50144 0.56417
 O87 O 0.95176 0.56943 0.42239
 O88 O 0.91293 0.53435 0.46199
 C89 C 0.92047 0.56010 0.43393
 O90 O 1.04928 0.44004 0.41624
 O91 O 1.08833 0.47238 0.45872
 C92 C 1.08064 0.44880 0.42806
 O93 O 0.95256 0.43603 0.42095
 O94 O 0.91336 0.46965 0.46146
 C95 C 0.92117 0.44453 0.43287
 O96 O 1.04865 0.56724 0.41779
 O97 O 1.08801 0.53441 0.45944
 C98 C 1.08012 0.55854 0.42927
 Zr99 Zr 1.00037 0.54818 0.44256
 O100 O 0.99626 0.54683 0.37128
 O101 O 1.00377 0.60502 0.44133
 Zr102 Zr 1.00078 0.45809 0.44109
 O103 O 0.99652 0.46211 0.36995
 O104 O 1.00471 0.40145 0.43660
 Zr105 Zr 1.05328 0.50266 0.49857
 Zr106 Zr 0.94823 0.50202 0.49908
 O107 O 0.96976 0.50302 0.43378
 O108 O 1.03210 0.50341 0.43283
 O109 O 0.96950 0.55441 0.49979
 O110 O 1.03115 0.45078 0.49792
 O111 O 1.03076 0.55432 0.49949
 O112 O 0.96998 0.44991 0.49824
 H113 H 0.95439 0.50120 0.59058
 H114 H 1.04642 0.42930 0.49756
 H115 H 0.95361 0.50314 0.40767
 H116 H 1.04587 0.57593 0.49973
 H117 H 0.98722 0.39023 0.53584
 H118 H 0.98949 0.39118 0.46028
 H119 H 1.01843 0.47272 0.35837
 H120 H 1.01749 0.53512 0.35943
 H121 H 0.98593 0.61439 0.46229
 H122 H 0.98777 0.61342 0.53787
 H123 H 1.01866 0.53197 0.63913
 H124 H 1.01884 0.46974 0.63819
 O125 O 0.56128 -0.05331 0.57900
 O126 O 0.52879 -0.09301 0.53715
 C127 C 0.55247 -0.08549 0.56690
 O128 O 0.43455 0.04770 0.57645
 O129 O 0.46855 0.08806 0.53740
 C130 C 0.44340 0.08005 0.56486
 O131 O 0.43754 -0.05233 0.58071
 O132 O 0.46887 -0.09245 0.53809
 C133 C 0.44577 -0.08461 0.56838
 O134 O 0.56608 0.04650 0.57423
 O135 O 0.53168 0.08753 0.53694
 C136 C 0.55730 0.07905 0.56348
 Zr137 Zr 0.54283 -0.00284 0.55649
 O138 O 0.53787 0.00088 0.62755
 O139 O 0.59748 -0.00559 0.56447
 Zr140 Zr 0.45591 -0.00215 0.55706
 O141 O 0.45990 0.00160 0.62820
 O142 O 0.40105 -0.00556 0.56249
 O143 O 0.49918 -0.03526 0.56534
 O144 O 0.49970 0.02950 0.56513
 O145 O 0.56403 0.04783 0.42244
 O146 O 0.53114 0.08812 0.46272
 C147 C 0.55588 0.08012 0.43473
 O148 O 0.43651 -0.05109 0.41862
 O149 O 0.46843 -0.09184 0.45989
 C150 C 0.44487 -0.08357 0.43021
 O151 O 0.43392 0.04880 0.42424
 O152 O 0.46828 0.08861 0.46330
 C153 C 0.44291 0.08098 0.43608
 O154 O 0.55988 -0.05206 0.41747
 O155 O 0.52796 -0.09230 0.45961
 C156 C 0.55118 -0.08438 0.42940
 Zr157 Zr 0.54245 -0.00201 0.44206
 O158 O 0.53930 0.00265 0.37089
 O159 O 0.59740 -0.00596 0.43837
 Zr160 Zr 0.45542 -0.00134 0.44260
 O161 O 0.45909 0.00341 0.37147
 O162 O 0.40052 -0.00454 0.43760
 Zr163 Zr 0.49870 -0.05614 0.49916
 Zr164 Zr 0.49961 0.05204 0.49990
 O165 O 0.49913 0.03032 0.43443
 O166 O 0.49862 -0.03424 0.43334
 O167 O 0.54996 0.02921 0.49940
 O168 O 0.44875 -0.03266 0.49967
 O169 O 0.54903 -0.03345 0.49897
 O170 O 0.44888 0.03002 0.50008
 H171 H 0.50001 0.04629 0.59103
 H172 H 0.42764 -0.04802 0.49974
 H173 H 0.49912 0.04730 0.40855
 H174 H 0.56987 -0.04915 0.49848
 H175 H 0.39114 0.00930 0.53793
 H176 H 0.39081 0.00955 0.46285
 H177 H 0.46746 -0.01988 0.35958
 H178 H 0.52858 -0.01969 0.35926
 H179 H 0.60717 0.01083 0.46090
 H180 H 0.60752 -0.00583 0.53380
 H181 H 0.53124 -0.02316 0.63916
 H182 H 0.46922 -0.02153 0.63960
 O183 O 0.43798 0.44879 -0.08095
 O184 O 0.47042 0.40852 -0.03962
 C185 C 0.44687 0.41645 -0.06939
 O186 O 0.56468 0.54958 -0.07497
 O187 O 0.53053 0.58944 -0.03576
 C188 C 0.55583 0.58178 -0.06309
 O189 O 0.56181 0.44962 -0.08030
 O190 O 0.53029 0.40889 -0.03839
 C191 C 0.55361 0.41716 -0.06836
 O192 O 0.43330 0.54855 -0.07455
 O193 O 0.46746 0.58896 -0.03617
 C194 C 0.44205 0.58090 -0.06313
 Zr195 Zr 0.45628 0.49889 -0.05733
 O196 O 0.46199 0.50373 -0.12824
 O197 O 0.40172 0.49634 -0.06640
 Zr198 Zr 0.54321 0.49949 -0.05634
 O199 O 0.54006 0.50419 -0.12751
 O200 O 0.59814 0.49614 -0.06057
 O201 O 0.49998 0.46656 -0.06587
 O202 O 0.49955 0.53130 -0.06473
 O203 O 0.43368 0.54760 0.07709
 O204 O 0.46707 0.58845 0.03797
 C205 C 0.44200 0.58008 0.06544
 O206 O 0.56088 0.44848 0.08166
 O207 O 0.52936 0.40838 0.03921
 C208 C 0.55257 0.41620 0.06942
 O209 O 0.56397 0.54844 0.07740
 O210 O 0.53002 0.58886 0.03843
 C211 C 0.55514 0.58079 0.06588
 O212 O 0.43764 0.44762 0.08069
 O213 O 0.46989 0.40799 0.03851
 C214 C 0.44640 0.41547 0.06847
 Zr215 Zr 0.45544 0.49802 0.05714
 O216 O 0.45789 0.50159 0.12841
 O217 O 0.40044 0.49409 0.05976
 Zr218 Zr 0.54247 0.49863 0.05807
 O219 O 0.53807 0.50238 0.12918
 O220 O 0.59729 0.49527 0.06416
 Zr221 Zr 0.49967 0.44473 0.00000
 Zr222 Zr 0.49900 0.55289 0.00081
 O223 O 0.49873 0.53021 0.06597
 O224 O 0.49911 0.46564 0.06613
 O225 O 0.44861 0.53008 0.00010
 O226 O 0.54968 0.46816 0.00073
 O227 O 0.44939 0.46741 -0.00037
 O228 O 0.54970 0.53084 0.00116
 H229 H 0.49952 0.54846 -0.09041
 H230 H 0.57079 0.45284 0.00089
 H231 H 0.49852 0.54682 0.09206
 H232 H 0.42857 0.45165 -0.00053
 H233 H 0.60777 0.51126 -0.03618
 H234 H 0.60732 0.50924 0.03888
 H235 H 0.52954 0.47894 0.14062
 H236 H 0.46841 0.47905 0.13990
 H237 H 0.39097 0.51113 0.03716
 H238 H 0.39135 0.49531 -0.03593
 H239 H 0.46873 0.47987 -0.14009
 H240 H 0.53074 0.48126 -0.13934
 C241 C 1.15994 0.15710 0.11711
 C242 C 1.15087 0.17321 0.16374
 C243 C 1.18890 0.16790 0.17845
 C244 C 1.19834 0.15215 0.13213
 C245 C 1.15157 0.11937 0.13558
 C246 C 1.18962 0.11397 0.15024
 C247 C 1.14222 0.13517 0.18190
 C248 C 1.18057 0.13019 0.19696
 C249 C 1.20917 0.19526 0.20253
 C250 C 1.22586 0.21763 0.22246
 C251 C 1.12899 0.09368 0.11205
 C252 C 1.10822 0.07453 0.09326
 H253 H 1.15131 0.16789 0.08396
 H254 H 1.13511 0.19780 0.16951
 H255 H 1.22162 0.15951 0.11188
 H256 H 1.20532 0.08935 0.14443
 H257 H 1.11893 0.12787 0.20221
 H258 H 1.18922 0.11944 0.23013
 C259 C 1.15997 0.61849 0.68427
 C260 C 1.19828 0.62857 0.67335
 C261 C 1.18862 0.66857 0.67743
 C262 C 1.15070 0.65886 0.68870
 C263 C 1.15143 0.62050 0.63365
 C264 C 1.14187 0.66052 0.63780
 C265 C 1.18935 0.63016 0.62229
 C266 C 1.18008 0.67058 0.62682
 C267 C 1.20881 0.69566 0.70200
 C268 C 1.22545 0.71783 0.72229
 C269 C 1.12890 0.59508 0.60968
 C270 C 1.10814 0.57611 0.59062
 H271 H 1.15154 0.59675 0.70762
 H272 H 1.22173 0.61576 0.68833
 H273 H 1.13498 0.67096 0.71617
 H274 H 1.11844 0.67343 0.62288
 H275 H 1.20502 0.61804 0.59478
 H276 H 1.18849 0.69234 0.60348
 C277 C 0.62163 0.16441 0.66877
 C278 C 0.65960 0.15211 0.67702
 C279 C 0.67248 0.18924 0.66141
 C280 C 0.63483 0.20189 0.65348
 C281 C 0.62443 0.15136 0.61981
 C282 C 0.63724 0.18849 0.60403
 C283 C 0.66211 0.13878 0.62777
 C284 C 0.67537 0.17623 0.61243
 C285 C 0.69872 0.20945 0.68659
 C286 C 0.71923 0.22573 0.70946
 C287 C 0.59849 0.12833 0.59817
 C288 C 0.57857 0.10709 0.58170
 H289 H 0.59925 0.15938 0.69167
 H290 H 0.66913 0.13732 0.70721
 H291 H 0.62398 0.22814 0.66436
 H292 H 0.62764 0.20319 0.57381
 H293 H 0.67302 0.11254 0.61696
 H294 H 0.69779 0.18128 0.58961
 C295 C 0.62816 0.69374 0.11407
 C296 C 0.63166 0.69831 0.16590
 C297 C 0.67089 0.69060 0.16203
 C298 C 0.66791 0.68645 0.11064
 C299 C 0.62201 0.65334 0.12140
 C300 C 0.66126 0.64568 0.11754
 C301 C 0.62509 0.65758 0.17276
 C302 C 0.66463 0.65021 0.16921
 C303 C 0.69754 0.71037 0.18681
 C304 C 0.71829 0.72631 0.20960
 C305 C 0.59581 0.63045 0.10027
 C306 C 0.57595 0.60909 0.08407
 H307 H 0.61277 0.71134 0.09122
 H308 H 0.61988 0.72023 0.18614
 H309 H 0.68592 0.69850 0.08546
 H310 H 0.67308 0.62376 0.09734
 H311 H 0.60714 0.64556 0.19804
 H312 H 0.67996 0.63252 0.19203
 C313 C 0.81989 -0.14416 0.10658
 C314 C 0.83402 -0.17749 0.13225
 C315 C 0.81013 -0.16839 0.17219
 C316 C 0.79559 -0.13546 0.14694
 C317 C 0.84851 -0.12111 0.12839
 C318 C 0.82463 -0.11199 0.16833
 C319 C 0.86293 -0.15409 0.15368
 C320 C 0.83876 -0.14534 0.19393
 C321 C 0.78937 -0.19505 0.19691
 C322 C 0.77239 -0.21698 0.21736
 C323 C 0.87163 -0.09592 0.10480
 C324 C 0.89273 -0.07679 0.08650
 H325 H 0.81233 -0.14333 0.07042
 H326 H 0.83773 -0.20470 0.11773
 H327 H 0.76761 -0.12813 0.14448
 H328 H 0.82095 -0.08477 0.18285
 H329 H 0.89089 -0.16152 0.15622
 H330 H 0.84636 -0.14616 0.23007
 C331 C 0.85350 0.36998 0.67847
 C332 C 0.81330 0.37155 0.68293
 C333 C 0.81154 0.33127 0.67154
 C334 C 0.85139 0.32938 0.66743
 C335 C 0.85003 0.37867 0.62789
 C336 C 0.84823 0.33838 0.61654
 C337 C 0.81017 0.38064 0.63193
 C338 C 0.80802 0.33991 0.62096
 C339 C 0.79063 0.30459 0.69624
 C340 C 0.77353 0.28272 0.71672
 C341 C 0.87308 0.40406 0.60428
 C342 C 0.89399 0.42342 0.58584
 H343 H 0.87238 0.38264 0.70194
 H344 H 0.79875 0.38491 0.71056
 H345 H 0.86818 0.30807 0.68223
 H346 H 0.86277 0.32498 0.58894
 H347 H 0.79344 0.40197 0.61710
 H348 H 0.78913 0.32721 0.59753
 C349 C 0.34979 -0.17578 0.60264
 C350 C 0.35559 -0.20936 0.63302
 C351 C 0.33044 -0.19324 0.66785
 C352 C 0.32423 -0.16011 0.63792
 C353 C 0.38006 -0.15696 0.62698
 C354 C 0.35484 -0.14101 0.66186
 C355 C 0.38635 -0.19009 0.65693
 C356 C 0.36073 -0.17440 0.69211
 C357 C 0.30306 -0.21221 0.69248
 C358 C 0.28139 -0.22722 0.71496
 C359 C 0.40633 -0.13435 0.60531
 C360 C 0.42585 -0.11303 0.58817
 H361 H 0.34573 -0.17615 0.56555
 H362 H 0.35542 -0.23772 0.62143
 H363 H 0.29842 -0.14801 0.63039
 H364 H 0.35488 -0.11268 0.67358
 H365 H 0.41217 -0.20214 0.66445
 H366 H 0.36483 -0.17398 0.72919
 C367 C 0.35042 0.32412 0.10216
 C368 C 0.35608 0.29041 0.13237
 C369 C 0.33102 0.30653 0.16730
 C370 C 0.32495 0.33979 0.13754
 C371 C 0.38079 0.34272 0.12656
 C372 C 0.35565 0.35866 0.16155
 C373 C 0.38694 0.30946 0.15634
 C374 C 0.36141 0.32515 0.19162
 C375 C 0.30355 0.28763 0.19193
 C376 C 0.28183 0.27271 0.21446
 C377 C 0.40713 0.36536 0.10499
 C378 C 0.42664 0.38679 0.08800
 H379 H 0.34634 0.32388 0.06507
 H380 H 0.35578 0.26210 0.12062
 H381 H 0.29919 0.35205 0.13009
 H382 H 0.35582 0.38695 0.17343
 H383 H 0.41271 0.29726 0.16378
 H384 H 0.36554 0.32544 0.22870
 C385 C 0.85554 0.13494 -0.17787
 C386 C 0.81581 0.13145 -0.18599
 C387 C 0.81147 0.17121 -0.17311
 C388 C 0.85088 0.17502 -0.16534
 C389 C 0.84991 0.12460 -0.12811
 C390 C 0.84554 0.16438 -0.11526
 C391 C 0.81049 0.12071 -0.13582
 C392 C 0.80577 0.16092 -0.12335
 C393 C 0.79059 0.19739 -0.19868
 C394 C 0.77351 0.21878 -0.21996
 C395 C 0.87293 0.09955 -0.10392
 C396 C 0.89383 0.08034 -0.08521
 H397 H 0.87621 0.12397 -0.20013
 H398 H 0.80342 0.11818 -0.21541
 H399 H 0.86731 0.19758 -0.17771
 H400 H 0.85793 0.17767 -0.08585
 H401 H 0.79411 0.09813 -0.12343
 H402 H 0.78509 0.17194 -0.10116
 C403 C 0.81785 0.64533 0.39177
 C404 C 0.83159 0.68012 0.36890
 C405 C 0.81017 0.67113 0.32661
 C406 C 0.79602 0.63674 0.34905
 C407 C 0.84854 0.62444 0.37139
 C408 C 0.82713 0.61544 0.32909
 C409 C 0.86258 0.65887 0.34891
 C410 C 0.84087 0.65023 0.30631
 C411 C 0.78940 0.69735 0.30119
 C412 C 0.77241 0.71883 0.28002
 C413 C 0.87165 0.59947 0.39536
 C414 C 0.89274 0.58043 0.41382
 H415 H 0.80859 0.64298 0.42715
 H416 H 0.83327 0.70700 0.38495
 H417 H 0.76836 0.62796 0.34878
 H418 H 0.82547 0.58856 0.31304
 H419 H 0.89022 0.66774 0.34910
 H420 H 0.85018 0.65255 0.27095
 C421 C 0.37549 0.16252 0.33060
 C422 C 0.33636 0.15270 0.32953
 C423 C 0.32736 0.19192 0.34056
 C424 C 0.36619 0.20209 0.34132
 C425 C 0.37608 0.15434 0.38142
 C426 C 0.36720 0.19357 0.39263
 C427 C 0.33723 0.14424 0.38063
 C428 C 0.32785 0.18381 0.39140
 C429 C 0.30076 0.21167 0.31543
 C430 C 0.28001 0.22730 0.29216
 C431 C 0.40222 0.13119 0.40247
 C432 C 0.42206 0.10959 0.41842
 H433 H 0.39538 0.15361 0.30586
 H434 H 0.32334 0.13607 0.30343
 H435 H 0.37772 0.22618 0.32483
 H436 H 0.38029 0.21008 0.41877
 H437 H 0.32564 0.12015 0.39706
 H438 H 0.30789 0.19275 0.41604
 C439 C 0.34333 0.67076 -0.09414
 C440 C 0.34975 0.70599 -0.12119
 C441 C 0.32634 0.69141 -0.15902
 C442 C 0.31949 0.65664 -0.13242
 C443 C 0.37485 0.65379 -0.11789
 C444 C 0.35136 0.63938 -0.15575
 C445 C 0.38175 0.68856 -0.14450
 C446 C 0.35789 0.67440 -0.18264
 C447 C 0.29992 0.71124 -0.18430
 C448 C 0.27933 0.72698 -0.20766
 C449 C 0.40095 0.63068 -0.09678
 C450 C 0.42089 0.60921 -0.08082
 H451 H 0.33779 0.66904 -0.05742
 H452 H 0.34862 0.73365 -0.10727
 H453 H 0.29363 0.64377 -0.12775
 H454 H 0.35237 0.61176 -0.16981
 H455 H 0.40763 0.70139 -0.14918
 H456 H 0.36351 0.67606 -0.21935
 C457 C 1.18184 -0.10862 -0.16460
 C458 C 1.20363 -0.13861 -0.14140
 C459 C 1.18869 -0.16604 -0.17496
 C460 C 1.16730 -0.13652 -0.19853
 C461 C 1.15148 -0.11726 -0.13258
 C462 C 1.13664 -0.14474 -0.16617
 C463 C 1.17287 -0.14679 -0.10902
 C464 C 1.15831 -0.17460 -0.14295
 C465 C 1.20887 -0.19360 -0.19863
 C466 C 1.22549 -0.21625 -0.21807
 C467 C 1.12892 -0.09151 -0.10929
 C468 C 1.10815 -0.07237 -0.09061
 H469 H 1.19131 -0.08122 -0.17319
 H470 H 1.23145 -0.13645 -0.13147
 H471 H 1.16516 -0.13265 -0.23559
 H472 H 1.10884 -0.14698 -0.17618
 H473 H 1.17500 -0.15067 -0.07196
 H474 H 1.14879 -0.20197 -0.13433
 C475 C 1.18214 0.39213 0.33353
 C476 C 1.20377 0.36225 0.35722
 C477 C 1.18896 0.33461 0.32383
 C478 C 1.16772 0.36402 0.29979
 C479 C 1.15160 0.38377 0.36540
 C480 C 1.13689 0.35608 0.33198
 C481 C 1.17284 0.35435 0.38944
 C482 C 1.15841 0.32634 0.35569
 C483 C 1.20923 0.30683 0.30058
 C484 C 1.22591 0.28404 0.28143
 C485 C 1.12899 0.40974 0.38833
 C486 C 1.10821 0.42904 0.40680
 H487 H 1.19171 0.41944 0.32472
 H488 H 1.23154 0.36444 0.36736
 H489 H 1.16575 0.36765 0.26267
 H490 H 1.10914 0.35381 0.32177
 H491 H 1.17480 0.35070 0.42655
 H492 H 1.14879 0.29904 0.36454
 C493 C 0.62472 -0.15439 0.32003
 C494 C 0.66395 -0.15110 0.33113
 C495 C 0.66682 -0.19225 0.33073
 C496 C 0.62791 -0.19588 0.31929
 C497 C 0.61675 -0.15635 0.37075
 C498 C 0.61950 -0.19753 0.37047
 C499 C 0.65568 -0.15278 0.38216
 C500 C 0.65894 -0.19431 0.38148
 C501 C 0.69445 -0.21117 0.30673
 C502 C 0.71628 -0.22636 0.28487
 C503 C 0.59032 -0.13396 0.39222
 C504 C 0.57082 -0.11275 0.40938
 H505 H 0.61029 -0.13784 0.29499
 H506 H 0.68256 -0.13222 0.31482
 H507 H 0.61690 -0.21387 0.29307
 H508 H 0.60084 -0.21632 0.38681
 H509 H 0.66676 -0.13480 0.40835
 H510 H 0.67344 -0.21088 0.40642
 C511 C 0.64889 0.32497 -0.10342
 C512 C 0.64260 0.29253 -0.13522
 C513 C 0.66871 0.30890 -0.16885
 C514 C 0.67541 0.34092 -0.13748
 C515 C 0.61952 0.34542 -0.12768
 C516 C 0.64569 0.36165 -0.16135
 C517 C 0.61276 0.31341 -0.15906
 C518 C 0.63932 0.32937 -0.19303
 C519 C 0.69586 0.28952 -0.19339
 C520 C 0.71737 0.27395 -0.21546
 C521 C 0.59334 0.36795 -0.10572
 C522 C 0.57376 0.38903 -0.08834
 H523 H 0.65243 0.32335 -0.06628
 H524 H 0.64176 0.26385 -0.12471
 H525 H 0.70143 0.35203 -0.12890
 H526 H 0.64664 0.39030 -0.17197
 H527 H 0.58673 0.30234 -0.16765
 H528 H 0.63575 0.33104 -0.23017
 C529 C 1.16998 0.11412 -0.17727
 C530 C 1.15654 0.15099 -0.19445
 C531 C 1.18959 0.16894 -0.17582
 C532 C 1.20343 0.13246 -0.15899
 C533 C 1.15211 0.12097 -0.13170
 C534 C 1.18516 0.13890 -0.11300
 C535 C 1.13838 0.15748 -0.14859
 C536 C 1.17171 0.17578 -0.13026
 C537 C 1.20994 0.19595 -0.20070
 C538 C 1.22669 0.21801 -0.22133
 C539 C 1.12944 0.09549 -0.10766
 C540 C 1.10859 0.07640 -0.08870
 H541 H 1.16913 0.08848 -0.19632
 H542 H 1.14490 0.15627 -0.22813
 H543 H 1.23045 0.12247 -0.16357
 H544 H 1.19675 0.13360 -0.07930
 H545 H 1.11137 0.16756 -0.14408
 H546 H 1.17254 0.20142 -0.11121
 C547 C 1.15874 0.62280 0.31428
 C548 C 1.15134 0.66372 0.31195
 C549 C 1.18996 0.67117 0.32197
 C550 C 1.19773 0.63060 0.32396
 C551 C 1.15149 0.62345 0.36530
 C552 C 1.19011 0.63085 0.37540
 C553 C 1.14379 0.66404 0.36325
 C554 C 1.18272 0.67183 0.37298
 C555 C 1.21095 0.69799 0.29742
 C556 C 1.22816 0.71983 0.27693
 C557 C 1.12846 0.59796 0.38901
 C558 C 1.10760 0.57871 0.40786
 H559 H 1.14875 0.60236 0.29032
 H560 H 1.13553 0.67748 0.28570
 H561 H 1.22014 0.61709 0.30750
 H562 H 1.20588 0.61706 0.40168
 H563 H 1.12140 0.67761 0.37966
 H564 H 1.19271 0.69230 0.39692
 C565 C 0.66257 0.14803 0.38749
 C566 C 0.66880 0.14879 0.33592
 C567 C 0.67222 0.18988 0.33806
 C568 C 0.66639 0.18951 0.38934
 C569 C 0.62329 0.15257 0.37898
 C570 C 0.62661 0.19368 0.38124
 C571 C 0.62923 0.15304 0.32772
 C572 C 0.63295 0.19445 0.32955
 C573 C 0.69892 0.20976 0.31318
 C574 C 0.71973 0.22582 0.29042
 C575 C 0.59698 0.12970 0.40027
 C576 C 0.57696 0.10840 0.41656
 H577 H 0.67442 0.12868 0.41164
 H578 H 0.68645 0.13054 0.31712
 H579 H 0.68208 0.20468 0.41435
 H580 H 0.60890 0.21184 0.40006
 H581 H 0.61361 0.13790 0.30260
 H582 H 0.62113 0.21380 0.30537
 C583 C 0.66229 0.64967 -0.11085
 C584 C 0.66834 0.64992 -0.16246
 C585 C 0.67194 0.69102 -0.16096
 C586 C 0.66629 0.69116 -0.10965
 C587 C 0.62300 0.65429 -0.11918
 C588 C 0.62649 0.69541 -0.11756
 C589 C 0.62875 0.65426 -0.17047
 C590 C 0.63265 0.69567 -0.16929
 C591 C 0.69867 0.71053 -0.18630
 C592 C 0.71952 0.72627 -0.20937
 C593 C 0.59669 0.63161 -0.09749
 C594 C 0.57673 0.61030 -0.08108
 H595 H 0.67417 0.63051 -0.08649
 H596 H 0.68584 0.63142 -0.18109
 H597 H 0.68212 0.70649 -0.08495
 H598 H 0.60893 0.71383 -0.09890
 H599 H 0.61299 0.63896 -0.19528
 H600 H 0.62081 0.71483 -0.19369
 C601 C 0.81732 -0.13963 -0.10917
 C602 C 0.79797 -0.13242 -0.15431
 C603 C 0.81169 -0.16842 -0.17250
 C604 C 0.83066 -0.17603 -0.12779
 C605 C 0.84980 -0.12103 -0.12866
 C606 C 0.86343 -0.15707 -0.14690
 C607 C 0.83085 -0.11341 -0.17338
 C608 C 0.84418 -0.14981 -0.19191
 C609 C 0.79099 -0.19514 -0.19721
 C610 C 0.77402 -0.21710 -0.21757
 C611 C 0.87271 -0.09568 -0.10494
 C612 C 0.89357 -0.07638 -0.08647
 H613 H 0.80645 -0.13515 -0.07494
 H614 H 0.77078 -0.12257 -0.15765
 H615 H 0.83046 -0.20206 -0.10931
 H616 H 0.89060 -0.16700 -0.14362
 H617 H 0.83107 -0.08739 -0.19186
 H618 H 0.85510 -0.15427 -0.22612
 C619 C 0.81703 0.38805 0.34398
 C620 C 0.83018 0.36346 0.30543
 C621 C 0.81175 0.33131 0.32780
 C622 C 0.79821 0.35546 0.36599
 C623 C 0.84989 0.37884 0.37129
 C624 C 0.83147 0.34668 0.39367
 C625 C 0.86334 0.35464 0.33307
 C626 C 0.84462 0.32217 0.35511
 C627 C 0.79105 0.30458 0.30319
 C628 C 0.77408 0.28267 0.28280
 C629 C 0.87281 0.40431 0.39471
 C630 C 0.89368 0.42375 0.41288
 H631 H 0.80588 0.41540 0.33969
 H632 H 0.82952 0.37006 0.26886
 H633 H 0.77116 0.35546 0.37928
 H634 H 0.83215 0.34008 0.43024
 H635 H 0.89037 0.35457 0.31971
 H636 H 0.85582 0.29484 0.35942
 C637 C 0.34593 -0.13889 0.34950
 C638 C 0.35157 -0.16263 0.30742
 C639 C 0.32960 -0.19230 0.32979
 C640 C 0.32362 -0.16883 0.37159
 C641 C 0.37876 -0.15547 0.37089
 C642 C 0.35683 -0.18513 0.39339
 C643 C 0.38473 -0.17894 0.32907
 C644 C 0.36238 -0.20901 0.35112
 C645 C 0.30254 -0.21186 0.30511
 C646 C 0.28123 -0.22753 0.28269
 C647 C 0.40497 -0.13283 0.39282
 C648 C 0.42463 -0.11172 0.41018
 H649 H 0.33945 -0.10979 0.34897
 H650 H 0.34906 -0.15348 0.27186
 H651 H 0.29822 -0.16484 0.38877
 H652 H 0.35939 -0.19420 0.42897
 H653 H 0.41012 -0.18291 0.31185
 H654 H 0.36875 -0.23813 0.35154
 C655 C 0.34497 0.35906 -0.13924
 C656 C 0.34781 0.34267 -0.18694
 C657 C 0.33175 0.30770 -0.16866
 C658 C 0.32855 0.32380 -0.12123
 C659 C 0.38136 0.34413 -0.12818
 C660 C 0.36537 0.30916 -0.10974
 C661 C 0.38452 0.32802 -0.17562
 C662 C 0.36810 0.29265 -0.15766
 C663 C 0.30436 0.28853 -0.19300
 C664 C 0.28270 0.27327 -0.21516
 C665 C 0.40761 0.36676 -0.10654
 C666 C 0.42709 0.38804 -0.08935
 H667 H 0.33577 0.38666 -0.13148
 H668 H 0.34021 0.35632 -0.21885
 H669 H 0.30522 0.32191 -0.09921
 H670 H 0.37302 0.29561 -0.07779
 H671 H 0.40783 0.32993 -0.19768
 H672 H 0.37719 0.26503 -0.16552
 C673 C 1.18074 -0.14289 0.11035
 C674 C 1.20443 -0.13535 0.15171
 C675 C 1.19002 -0.16939 0.17478
 C676 C 1.16672 -0.17731 0.13381
 C677 C 1.15154 -0.12099 0.13272
 C678 C 1.13723 -0.15507 0.15583
 C679 C 1.17483 -0.11304 0.17371
 C680 C 1.16081 -0.14749 0.19710
 C681 C 1.21101 -0.19663 0.19857
 C682 C 1.22820 -0.21885 0.21841
 C683 C 1.12850 -0.09515 0.10968
 C684 C 1.10762 -0.07566 0.09129
 H685 H 1.18880 -0.14071 0.07446
 H686 H 1.23232 -0.12752 0.15025
 H687 H 1.16350 -0.20399 0.11762
 H688 H 1.10935 -0.16298 0.15736
 H689 H 1.17802 -0.08636 0.18988
 H690 H 1.15273 -0.14966 0.23297
 C691 C 1.15058 0.37499 0.68163
 C692 C 1.14972 0.33407 0.67228
 C693 C 1.18973 0.33345 0.67336
 C694 C 1.19095 0.37404 0.68306
 C695 C 1.15226 0.38214 0.63054
 C696 C 1.19228 0.38161 0.63154
 C697 C 1.15110 0.34154 0.62090
 C698 C 1.19144 0.34056 0.62227
 C699 C 1.21006 0.30599 0.69744
 C700 C 1.22677 0.28349 0.71735
 C701 C 1.12959 0.40796 0.60710
 C702 C 1.10874 0.42726 0.58850
 H703 H 1.13362 0.38947 0.70586
 H704 H 1.13239 0.31427 0.68921
 H705 H 1.20753 0.38710 0.70896
 H706 H 1.20955 0.40143 0.61458
 H707 H 1.13453 0.32840 0.59503
 H708 H 1.20840 0.32605 0.59807
 C709 C 0.62311 -0.15935 0.67713
 C710 C 0.62957 -0.20033 0.67324
 C711 C 0.66869 -0.19281 0.66715
 C712 C 0.66255 -0.15216 0.67138
 C713 C 0.61873 -0.15737 0.62566
 C714 C 0.65788 -0.14992 0.61962
 C715 C 0.62476 -0.19804 0.62129
 C716 C 0.66440 -0.19091 0.61567
 C717 C 0.69623 -0.21152 0.69199
 C718 C 0.71794 -0.22660 0.71442
 C719 C 0.59220 -0.13520 0.60361
 C720 C 0.57248 -0.11406 0.58638
 H721 H 0.60580 -0.14626 0.70218
 H722 H 0.61830 -0.22132 0.69565
 H723 H 0.67841 -0.13348 0.69211
 H724 H 0.66922 -0.12894 0.59726
 H725 H 0.60885 -0.21664 0.60053
 H726 H 0.68177 -0.20401 0.59071
 C727 C 0.65403 0.36027 0.14222
 C728 C 0.65047 0.34127 0.18845
 C729 C 0.66872 0.30815 0.16863
 C730 C 0.67265 0.32688 0.12266
 C731 C 0.61877 0.34420 0.12805
 C732 C 0.63697 0.31110 0.10807
 C733 C 0.61487 0.32548 0.17402
 C734 C 0.63351 0.29196 0.15452
 C735 C 0.69626 0.28907 0.19295
 C736 C 0.71799 0.27370 0.21500
 C737 C 0.59228 0.36663 0.10638
 C738 C 0.57260 0.38781 0.08922
 H739 H 0.66216 0.38865 0.13697
 H740 H 0.65640 0.35355 0.22168
 H741 H 0.69672 0.32730 0.10189
 H742 H 0.63098 0.29891 0.07482
 H743 H 0.59082 0.32507 0.19483
 H744 H 0.62549 0.26357 0.15986
 C745 C 0.86162 0.16256 0.14093
 C746 C 0.82564 0.17687 0.12551
 C747 C 0.81180 0.17094 0.17363
 C748 C 0.84748 0.15698 0.18934
 C749 C 0.84993 0.12418 0.12895
 C750 C 0.83609 0.11827 0.17707
 C751 C 0.81425 0.13811 0.11314
 C752 C 0.80002 0.13259 0.16170
 C753 C 0.79109 0.19718 0.19901
 C754 C 0.77412 0.21862 0.22012
 C755 C 0.87284 0.09906 0.10498
 C756 C 0.89370 0.07979 0.08654
 H757 H 0.88719 0.17468 0.13211
 H758 H 0.82120 0.20128 0.10459
 H759 H 0.86100 0.16501 0.22087
 H760 H 0.84053 0.09388 0.19802
 H761 H 0.80079 0.13005 0.08159
 H762 H 0.77444 0.12055 0.17058
 C763 C 0.80971 0.62295 0.63141
 C764 C 0.81173 0.62963 0.68301
 C765 C 0.81165 0.67040 0.67410
 C766 C 0.80925 0.66417 0.62292
 C767 C 0.84971 0.62364 0.62925
 C768 C 0.84958 0.66442 0.62039
 C769 C 0.85206 0.62992 0.68043
 C770 C 0.85163 0.67101 0.67187
 C771 C 0.79097 0.69673 0.69945
 C772 C 0.77403 0.71832 0.72041
 C773 C 0.87259 0.59858 0.60506
 C774 C 0.89346 0.57949 0.58631
 H775 H 0.79269 0.60294 0.61454
 H776 H 0.79598 0.61559 0.70911
 H777 H 0.79146 0.67859 0.59950
 H778 H 0.86532 0.67851 0.59432
 H779 H 0.86984 0.61554 0.70390
 H780 H 0.86871 0.69099 0.68871
 C781 C 0.34021 0.13882 0.63208
 C782 C 0.34375 0.15554 0.67952
 C783 C 0.32822 0.19068 0.66101
 C784 C 0.32430 0.17426 0.61383
 C785 C 0.37677 0.15297 0.62038
 C786 C 0.36132 0.18810 0.60168
 C787 C 0.38061 0.16941 0.66755
 C788 C 0.36474 0.20494 0.64935
 C789 C 0.30168 0.21064 0.68584
 C790 C 0.28095 0.22657 0.70869
 C791 C 0.40282 0.12986 0.59924
 C792 C 0.42261 0.10841 0.58304
 H793 H 0.33043 0.11134 0.62477
 H794 H 0.33617 0.14231 0.71171
 H795 H 0.30083 0.17645 0.59209
 H796 H 0.36897 0.20123 0.56947
 H797 H 0.40405 0.16724 0.68936
 H798 H 0.37444 0.23243 0.65675
 C799 C 0.33832 0.63862 0.13381
 C800 C 0.34219 0.65546 0.18117
 C801 C 0.32666 0.69064 0.16273
 C802 C 0.32241 0.67411 0.11563
 C803 C 0.37487 0.65259 0.12166
 C804 C 0.35941 0.68776 0.10305
 C805 C 0.37904 0.66914 0.16876
 C806 C 0.36318 0.70469 0.15062
 C807 C 0.30034 0.71093 0.18776
 C808 C 0.27984 0.72718 0.21071
 C809 C 0.40091 0.62947 0.10023
 C810 C 0.42083 0.60819 0.08381
 H811 H 0.32837 0.61117 0.12670
 H812 H 0.33477 0.64230 0.21347
 H813 H 0.29883 0.67634 0.09409
 H814 H 0.36688 0.70082 0.07071
 H815 H 0.40259 0.66693 0.19036
 H816 H 0.37306 0.73215 0.15781
   
