data_POSCAR
  _audit_creation_date              2014-09-24
  _audit_creation_method            'ToBaCCo'
  _symmetry_space_group_name_H-M    'P1'
  _symmetry_Int_Tables_number       1
  _symmetry_cell_setting            triclinic
  loop_
  _symmetry_equiv_pos_as_xyz
 x,y,z
_cell_length_a 49.2617
_cell_length_b 49.2715
_cell_length_c 39.4782
_cell_angle_alpha 89.954000
_cell_angle_beta 89.995500
_cell_angle_gamma 89.360700
loop_
  _atom_site_label
  _atom_site_type_symbol
  _atom_site_fract_x
  _atom_site_fract_y
  _atom_site_fract_z
O1 O 0.02443 0.30244 -0.03240
 O2 O -0.02932 0.30091 0.03309
 O3 O 0.02411 0.30243 0.03359
 O4 O -0.02888 0.30133 -0.03268
 O5 O -0.02725 0.25657 -0.03236
 O6 O 0.02557 0.25766 0.03305
 O7 O -0.02684 0.25624 0.03343
 O8 O 0.02532 0.25767 -0.03271
 Cu9 Cu -0.00254 0.30631 0.00044
 Cu10 Cu -0.00063 0.25260 0.00032
 C11 C 0.03401 0.28017 -0.04374
 C12 C -0.03735 0.27818 0.04443
 C13 C 0.03396 0.28012 0.04451
 C14 C -0.03724 0.27866 -0.04363
 O15 O 0.47410 0.80413 0.53279
 O16 O 0.52744 0.80316 0.46715
 O17 O 0.47408 0.80384 0.46725
 O18 O 0.52744 0.80337 0.53290
 O19 O 0.52685 0.75855 0.53342
 O20 O 0.47459 0.75899 0.46719
 O21 O 0.52705 0.75835 0.46749
 O22 O 0.47449 0.75928 0.53329
 Cu23 Cu 0.50080 0.80816 0.49998
 Cu24 Cu 0.50073 0.75431 0.50036
 C25 C 0.46525 0.78178 0.54416
 C26 C 0.53635 0.78051 0.45618
 C27 C 0.46528 0.78141 0.45610
 C28 C 0.53618 0.78080 0.54437
 O29 O 1.02991 0.69940 0.03264
 O30 O 0.97661 0.69729 -0.03313
 O31 O 1.02995 0.69927 -0.03301
 O32 O 0.97655 0.69744 0.03266
 O33 O 0.97486 0.74224 0.03246
 O34 O 1.02735 0.74395 -0.03326
 O35 O 0.97503 0.74210 -0.03351
 O36 O 1.02725 0.74407 0.03261
 Cu37 Cu 1.00344 0.69382 -0.00018
 Cu38 Cu 1.00089 0.74753 -0.00043
 C39 C 1.03783 0.72220 0.04381
 C40 C 0.96681 0.71944 -0.04454
 C41 C 1.03790 0.72203 -0.04431
 C42 C 0.96662 0.71964 0.04371
 O43 O 0.52571 0.19434 0.53271
 O44 O 0.47231 0.19473 0.46716
 O45 O 0.52574 0.19467 0.46715
 O46 O 0.47227 0.19465 0.53273
 O47 O 0.47246 0.23949 0.53316
 O48 O 0.52491 0.23951 0.46707
 O49 O 0.47247 0.23958 0.46703
 O50 O 0.52490 0.23919 0.53317
 Cu51 Cu 0.49904 0.19006 0.49992
 Cu52 Cu 0.49864 0.24392 0.50013
 C53 C 0.53439 0.21676 0.54402
 C54 C 0.46333 0.21729 0.45598
 C55 C 0.53442 0.21717 0.45601
 C56 C 0.46329 0.21715 0.54406
 O57 O 0.69703 -0.02742 0.03249
 O58 O 0.69800 0.02616 -0.03309
 O59 O 0.69728 -0.02727 -0.03324
 O60 O 0.69744 0.02587 0.03270
 O61 O 0.74223 0.02496 0.03251
 O62 O 0.74210 -0.02810 -0.03253
 O63 O 0.74270 0.02428 -0.03327
 O64 O 0.74185 -0.02751 0.03341
 Cu65 Cu 0.69290 -0.00057 -0.00036
 Cu66 Cu 0.74667 -0.00171 0.00008
 C67 C 0.71939 -0.03650 0.04417
 C68 C 0.72063 0.03443 -0.04443
 C69 C 0.71976 -0.03682 -0.04397
 C70 C 0.71996 0.03458 0.04371
 O71 O 0.19569 0.52945 0.46726
 O72 O 0.19566 0.47613 0.53295
 O73 O 0.19583 0.52954 0.53280
 O74 O 0.19567 0.47604 0.46737
 O75 O 0.24052 0.47596 0.46703
 O76 O 0.24068 0.52845 0.53301
 O77 O 0.24052 0.47602 0.53315
 O78 O 0.24054 0.52838 0.46691
 Cu79 Cu 0.19117 0.50284 0.50010
 Cu80 Cu 0.24505 0.50214 0.50002
 C81 C 0.21818 0.53798 0.45596
 C82 C 0.21815 0.46702 0.54418
 C83 C 0.21835 0.53809 0.54398
 C84 C 0.21814 0.46692 0.45610
 O85 O 0.29971 1.02929 0.03286
 O86 O 0.30083 0.97573 -0.03279
 O87 O 0.29970 1.02915 -0.03281
 O88 O 0.30093 0.97586 0.03321
 O89 O 0.25615 0.97574 0.03313
 O90 O 0.25500 1.02807 -0.03291
 O91 O 0.25604 0.97560 -0.03254
 O92 O 0.25502 1.02821 0.03308
 Cu93 Cu 0.30482 1.00252 0.00011
 Cu94 Cu 0.25112 1.00188 0.00020
 C95 C 0.27705 1.03802 0.04414
 C96 C 0.27850 0.96649 -0.04379
 C97 C 0.27702 1.03784 -0.04409
 C98 C 0.27862 0.96667 0.04435
 O99 O 0.80441 0.52388 0.53278
 O100 O 0.80464 0.47047 0.46730
 O101 O 0.80463 0.52381 0.46700
 O102 O 0.80423 0.47051 0.53280
 O103 O 0.75938 0.47169 0.53280
 O104 O 0.75980 0.52390 0.46650
 O105 O 0.75978 0.47154 0.46674
 O106 O 0.75958 0.52412 0.53247
 Cu107 Cu 0.80902 0.49714 0.50001
 Cu108 Cu 0.75516 0.49787 0.49961
 C109 C 0.78188 0.53309 0.54376
 C110 C 0.78217 0.46193 0.45595
 C111 C 0.78219 0.53287 0.45551
 C112 C 0.78166 0.46203 0.54392
 C113 C 0.21318 0.23669 0.15523
 C114 C 0.23273 0.21671 0.15513
 C115 C 0.24450 0.21677 0.18703
 N116 N 0.23289 0.23621 0.20653
 C117 C 0.21372 0.24840 0.18712
 C118 C 0.26390 0.19750 0.19852
 C119 C 0.27895 0.20078 0.22877
 C120 C 0.29518 0.18087 0.24350
 C121 C 0.30744 0.19250 0.27112
 C122 C 0.29797 0.21909 0.27299
 N123 N 0.28091 0.22405 0.24681
 C124 C 0.30626 0.23833 0.29740
 C125 C 0.29230 0.26313 0.30374
 C126 C 0.30030 0.28226 0.32737
 C127 C 0.28084 0.30230 0.32739
 C128 C 0.26145 0.29492 0.30376
 N129 N 0.26833 0.27076 0.28968
 C130 C 0.23709 0.30966 0.29740
 C131 C 0.21769 0.30207 0.27280
 C132 C 0.19148 0.31257 0.27058
 C133 C 0.17952 0.30063 0.24296
 C134 C 0.19886 0.28352 0.22865
 N135 N 0.22211 0.28470 0.24682
 C136 C 0.19509 0.26835 0.19864
 H137 H 0.19988 0.24185 0.13431
 H138 H 0.23750 0.20343 0.13408
 H139 H 0.24072 0.27636 0.23987
 H140 H 0.29816 0.16015 0.23511
 H141 H 0.32171 0.18237 0.28781
 H142 H 0.31797 0.28166 0.34362
 H143 H 0.28080 0.31997 0.34365
 H144 H 0.15899 0.30441 0.23426
 H145 H 0.27340 0.24296 0.23962
 H146 H 0.18183 0.32733 0.28702
 C147 C 0.79409 0.77281 0.16150
 C148 C 0.77498 0.79314 0.16273
 C149 C 0.75939 0.78858 0.19140
 N150 N 0.76840 0.76602 0.20755
 C151 C 0.78977 0.75642 0.18952
 C152 C 0.73696 0.80500 0.20135
 C153 C 0.71910 0.79884 0.22841
 C154 C 0.69470 0.81232 0.23447
 C155 C 0.68286 0.79991 0.26178
 C156 C 0.70049 0.77941 0.27226
 N157 N 0.72271 0.77919 0.25206
 C158 C 0.69549 0.76183 0.29999
 C159 C 0.71196 0.73912 0.30877
 C160 C 0.70793 0.72298 0.33709
 C161 C 0.72696 0.70257 0.33576
 C162 C 0.74223 0.70685 0.30676
 N163 N 0.73308 0.72929 0.29046
 C164 C 0.76451 0.69029 0.29664
 C165 C 0.78228 0.69630 0.26942
 C166 C 0.80654 0.68263 0.26317
 C167 C 0.81846 0.69512 0.23597
 C168 C 0.80101 0.71584 0.22573
 N169 N 0.77881 0.71612 0.24596
 C170 C 0.80623 0.73369 0.19831
 H171 H 0.80936 0.77039 0.14200
 H172 H 0.77264 0.80922 0.14424
 H173 H 0.76152 0.72790 0.24256
 H174 H 0.68596 0.82913 0.22043
 H175 H 0.66333 0.80535 0.27250
 H176 H 0.69290 0.72562 0.35684
 H177 H 0.72946 0.68665 0.35443
 H178 H 0.83795 0.68959 0.22519
 H179 H 0.74015 0.76768 0.25573
 H180 H 0.81517 0.66569 0.27706
 C181 C 0.71831 0.29933 0.32811
 C182 C 0.69853 0.28005 0.32808
 C183 C 0.70614 0.26071 0.30431
 N184 N 0.73019 0.26744 0.29019
 C185 C 0.73752 0.29126 0.30437
 C186 C 0.69173 0.23653 0.29780
 C187 C 0.69956 0.21723 0.27300
 C188 C 0.68942 0.19113 0.27057
 C189 C 0.70144 0.17928 0.24275
 C190 C 0.71824 0.19859 0.22853
 N191 N 0.71680 0.22170 0.24697
 C192 C 0.73331 0.19493 0.19835
 C193 C 0.75303 0.21340 0.18689
 C194 C 0.76466 0.21294 0.15492
 C195 C 0.78437 0.23234 0.15486
 C196 C 0.78422 0.24394 0.18684
 N197 N 0.76500 0.23237 0.20636
 C198 C 0.80316 0.26321 0.19834
 C199 C 0.79979 0.27799 0.22881
 C200 C 0.81952 0.29396 0.24357
 C201 C 0.80783 0.30604 0.27144
 C202 C 0.78139 0.29674 0.27340
 N203 N 0.77658 0.27993 0.24706
 C204 C 0.76211 0.30503 0.29800
 H205 H 0.71870 0.31694 0.34444
 H206 H 0.68087 0.28009 0.34438
 H207 H 0.75774 0.27264 0.23993
 H208 H 0.67483 0.18148 0.28697
 H209 H 0.69791 0.15886 0.23384
 H210 H 0.75962 0.19982 0.13392
 H211 H 0.79752 0.23713 0.13377
 H212 H 0.81782 0.32011 0.28821
 H213 H 0.72484 0.24029 0.24013
 H214 H 0.84016 0.29688 0.23503
 C215 C 0.28195 0.70046 0.32744
 C216 C 0.30173 0.71974 0.32739
 C217 C 0.29408 0.73914 0.30367
 N218 N 0.27001 0.73244 0.28959
 C219 C 0.26271 0.70858 0.30375
 C220 C 0.30848 0.76335 0.29720
 C221 C 0.30066 0.78275 0.27249
 C222 C 0.31084 0.80885 0.27016
 C223 C 0.29881 0.82083 0.24242
 C224 C 0.28196 0.80161 0.22816
 N225 N 0.28339 0.77841 0.24648
 C226 C 0.26682 0.80544 0.19806
 C227 C 0.24706 0.78702 0.18663
 C228 C 0.23533 0.78761 0.15472
 C229 C 0.21562 0.76822 0.15467
 C230 C 0.21584 0.75650 0.18662
 N231 N 0.23512 0.76799 0.20609
 C232 C 0.19691 0.73722 0.19814
 C233 C 0.20032 0.72230 0.22854
 C234 C 0.18059 0.70629 0.24328
 C235 C 0.19232 0.69403 0.27102
 C236 C 0.21879 0.70326 0.27293
 N237 N 0.22357 0.72021 0.24668
 C238 C 0.23810 0.69484 0.29744
 H239 H 0.28158 0.68282 0.34376
 H240 H 0.31940 0.71966 0.34366
 H241 H 0.24240 0.72751 0.23949
 H242 H 0.32546 0.81840 0.28659
 H243 H 0.30235 0.84129 0.23360
 H244 H 0.24032 0.80082 0.13375
 H245 H 0.20242 0.76351 0.13362
 H246 H 0.18235 0.67989 0.28774
 H247 H 0.27531 0.75985 0.23960
 H248 H 0.15992 0.70346 0.23481
 C249 C 0.71728 0.29866 0.67194
 C250 C 0.69781 0.27905 0.67191
 C251 C 0.70575 0.25975 0.69562
 N252 N 0.72967 0.26684 0.70977
 C253 C 0.73659 0.29084 0.69568
 C254 C 0.69179 0.23527 0.70195
 C255 C 0.70007 0.21586 0.72643
 C256 C 0.69069 0.18944 0.72828
 C257 C 0.70289 0.17758 0.75598
 C258 C 0.71899 0.19719 0.77077
 N259 N 0.71703 0.22049 0.75269
 C260 C 0.73389 0.19364 0.80114
 C261 C 0.75314 0.21253 0.81283
 C262 C 0.76466 0.21226 0.84488
 C263 C 0.78408 0.23194 0.84501
 C264 C 0.78374 0.24366 0.81309
 N265 N 0.76481 0.23178 0.79346
 C266 C 0.80226 0.26340 0.80181
 C267 C 0.79870 0.27842 0.77156
 C268 C 0.81809 0.29511 0.75734
 C269 C 0.80633 0.30712 0.72945
 C270 C 0.78018 0.29710 0.72699
 N271 N 0.77561 0.27992 0.75306
 C272 C 0.76091 0.30503 0.70217
 H273 H 0.71737 0.31633 0.65566
 H274 H 0.68018 0.27884 0.65559
 H275 H 0.75695 0.27199 0.75987
 H276 H 0.67651 0.17958 0.71153
 H277 H 0.69995 0.15691 0.76439
 H278 H 0.75978 0.19905 0.86588
 H279 H 0.79715 0.23689 0.86611
 H280 H 0.81606 0.32164 0.71302
 H281 H 0.72443 0.23926 0.75991
 H282 H 0.83853 0.29857 0.76629
 C283 C 0.28236 0.70098 0.67241
 C284 C 0.30205 0.72036 0.67261
 C285 C 0.29425 0.73964 0.69638
 N286 N 0.27018 0.73277 0.71033
 C287 C 0.26304 0.70893 0.69605
 C288 C 0.30851 0.76389 0.70299
 C289 C 0.30059 0.78318 0.72774
 C290 C 0.31064 0.80932 0.73016
 C291 C 0.29859 0.82114 0.75797
 C292 C 0.28184 0.80179 0.77218
 N293 N 0.28335 0.77866 0.75375
 C294 C 0.26670 0.80542 0.80231
 C295 C 0.24699 0.78687 0.81359
 C296 C 0.23521 0.78725 0.84546
 C297 C 0.21559 0.76777 0.84533
 C298 C 0.21592 0.75621 0.81332
 N299 N 0.23518 0.76788 0.79398
 C300 C 0.19706 0.73693 0.80163
 C301 C 0.20055 0.72212 0.77120
 C302 C 0.18089 0.70609 0.75638
 C303 C 0.19269 0.69395 0.72862
 C304 C 0.21912 0.70329 0.72677
 N305 N 0.22382 0.72017 0.75309
 C306 C 0.23849 0.69504 0.70225
 H307 H 0.28212 0.68340 0.65603
 H308 H 0.31976 0.72043 0.65641
 H309 H 0.24261 0.72752 0.76034
 H310 H 0.32520 0.81900 0.71374
 H311 H 0.30204 0.84158 0.76686
 H312 H 0.24010 0.80037 0.86652
 H313 H 0.20235 0.76291 0.86631
 H314 H 0.18278 0.67983 0.71185
 H315 H 0.27539 0.76003 0.76054
 H316 H 0.16023 0.70315 0.76482
 C317 C 0.21318 0.23636 0.84504
 C318 C 0.23269 0.21633 0.84494
 C319 C 0.24439 0.21651 0.81299
 N320 N 0.23278 0.23609 0.79366
 C321 C 0.21369 0.24823 0.81321
 C322 C 0.26371 0.19725 0.80132
 C323 C 0.27870 0.20059 0.77103
 C324 C 0.29486 0.18068 0.75620
 C325 C 0.30711 0.19236 0.72859
 C326 C 0.29772 0.21898 0.72683
 N327 N 0.28070 0.22390 0.75306
 C328 C 0.30602 0.23828 0.70245
 C329 C 0.29210 0.26313 0.69626
 C330 C 0.30007 0.28233 0.67267
 C331 C 0.28066 0.30241 0.67282
 C332 C 0.26132 0.29499 0.69652
 N333 N 0.26819 0.27076 0.71047
 C334 C 0.23702 0.30976 0.70306
 C335 C 0.21765 0.30218 0.72774
 C336 C 0.19150 0.31279 0.73012
 C337 C 0.17957 0.30084 0.75778
 C338 C 0.19888 0.28359 0.77194
 N339 N 0.22208 0.28472 0.75365
 C340 C 0.19512 0.26832 0.80190
 H341 H 0.19995 0.24145 0.86604
 H342 H 0.23747 0.20293 0.86590
 H343 H 0.24068 0.27627 0.76046
 H344 H 0.29779 0.15992 0.76452
 H345 H 0.32134 0.18225 0.71184
 H346 H 0.31770 0.28174 0.65634
 H347 H 0.28061 0.32013 0.65663
 H348 H 0.15909 0.30468 0.76660
 H349 H 0.27325 0.24280 0.76035
 H350 H 0.18186 0.32765 0.71377
 C351 C 0.70553 0.72356 0.66431
 C352 C 0.72590 0.70448 0.66306
 C353 C 0.74214 0.70865 0.69123
 N354 N 0.73241 0.72988 0.70938
 C355 C 0.70993 0.73898 0.69313
 C356 C 0.76490 0.69222 0.69998
 C357 C 0.78265 0.69739 0.72749
 C358 C 0.80338 0.67996 0.73775
 C359 C 0.81587 0.69190 0.76492
 C360 C 0.80218 0.71615 0.77113
 N361 N 0.78234 0.71959 0.74771
 C362 C 0.80825 0.73401 0.79820
 C363 C 0.79163 0.75623 0.80837
 C364 C 0.79601 0.77160 0.83723
 C365 C 0.77556 0.79059 0.83861
 C366 C 0.75931 0.78642 0.81044
 N367 N 0.76909 0.76526 0.79220
 C368 C 0.73658 0.80288 0.80167
 C369 C 0.71891 0.79779 0.77407
 C370 C 0.69836 0.81536 0.76362
 C371 C 0.68597 0.80351 0.73633
 C372 C 0.69951 0.77916 0.73025
 N373 N 0.71917 0.77557 0.75389
 C374 C 0.69348 0.76138 0.70308
 H375 H 0.68956 0.72600 0.64569
 H376 H 0.72846 0.68935 0.64343
 H377 H 0.73077 0.75818 0.75748
 H378 H 0.80895 0.66049 0.72698
 H379 H 0.83284 0.68331 0.77879
 H380 H 0.81204 0.76921 0.85578
 H381 H 0.77299 0.80569 0.85826
 H382 H 0.66915 0.81224 0.72231
 H383 H 0.77058 0.73688 0.74424
 H384 H 0.69289 0.83488 0.77432
 C385 C 0.27313 0.10237 0.11439
 C386 C 0.29826 0.09521 0.10000
 C387 C 0.29976 0.07314 0.07752
 C388 C 0.27611 0.05885 0.06848
 C389 C 0.25111 0.06639 0.08352
 C390 C 0.24957 0.08789 0.10663
 C391 C 0.27128 0.12589 0.13741
 C392 C 0.24611 0.13292 0.15181
 C393 C 0.24426 0.15566 0.17293
 C394 C 0.26710 0.17192 0.17876
 C395 C 0.29231 0.16447 0.16449
 C396 C 0.29454 0.14128 0.14394
 C397 C 0.22481 0.09542 0.12177
 C398 C 0.22314 0.11746 0.14415
 C399 C 0.32126 0.11067 0.10783
 C400 C 0.31939 0.13340 0.12924
 H401 H 0.20651 0.08429 0.11610
 H402 H 0.20361 0.12273 0.15510
 H403 H 0.34079 0.10540 0.09689
 H404 H 0.33753 0.14500 0.13415
 H405 H 0.31916 0.06777 0.06623
 H406 H 0.23272 0.05558 0.07727
 H407 H 0.22488 0.16132 0.18405
 H408 H 0.30990 0.17700 0.16893
 C409 C 0.77795 0.59799 0.61535
 C410 C 0.80053 0.59581 0.59374
 C411 C 0.80232 0.57386 0.57117
 C412 C 0.78133 0.55474 0.56954
 C413 C 0.75898 0.55712 0.59159
 C414 C 0.75727 0.57860 0.61473
 C415 C 0.77550 0.62143 0.63839
 C416 C 0.75283 0.62362 0.65983
 C417 C 0.75015 0.64632 0.68091
 C418 C 0.76949 0.66709 0.67987
 C419 C 0.79230 0.66450 0.65861
 C420 C 0.79549 0.64155 0.63788
 C421 C 0.73506 0.58135 0.63683
 C422 C 0.73295 0.60342 0.65914
 C423 C 0.82047 0.61598 0.59459
 C424 C 0.81792 0.63854 0.61616
 H425 H 0.71906 0.56644 0.63668
 H426 H 0.71537 0.60492 0.67556
 H427 H 0.83797 0.61455 0.57804
 H428 H 0.83353 0.65385 0.61562
 H429 H 0.81945 0.57221 0.55403
 H430 H 0.74286 0.54234 0.59057
 H431 H 0.73261 0.64840 0.69735
 H432 H 0.80717 0.68055 0.65788
 C433 C 0.72289 0.89882 0.11617
 C434 C 0.74248 0.91930 0.11720
 C435 C 0.74086 0.94071 0.09391
 C436 C 0.71961 0.94198 0.07013
 C437 C 0.69960 0.92180 0.07011
 C438 C 0.70141 0.89987 0.09278
 C439 C 0.72541 0.87545 0.13935
 C440 C 0.70669 0.85421 0.13712
 C441 C 0.71008 0.83134 0.15799
 C442 C 0.73168 0.83004 0.18129
 C443 C 0.74980 0.85178 0.18384
 C444 C 0.74699 0.87441 0.16259
 C445 C 0.68265 0.87859 0.09194
 C446 C 0.68534 0.85607 0.11359
 C447 C 0.76361 0.91766 0.14104
 C448 C 0.76574 0.89566 0.16349
 H449 H 0.66601 0.87912 0.07400
 H450 H 0.67071 0.83989 0.11172
 H451 H 0.77876 0.93341 0.14215
 H452 H 0.78247 0.89505 0.18130
 H453 H 0.75622 0.95631 0.09409
 H454 H 0.68336 0.92259 0.05159
 H455 H 0.69633 0.81440 0.15585
 H456 H 0.76658 0.85053 0.20157
 C457 C 0.22203 0.40243 0.61612
 C458 C 0.23957 0.42455 0.61950
 C459 C 0.23794 0.44586 0.59603
 C460 C 0.21851 0.44542 0.56994
 C461 C 0.20047 0.42357 0.56751
 C462 C 0.20249 0.40171 0.59022
 C463 C 0.22471 0.37924 0.63957
 C464 C 0.20829 0.35640 0.63498
 C465 C 0.21201 0.33379 0.65619
 C466 C 0.23147 0.33434 0.68225
 C467 C 0.24713 0.35769 0.68722
 C468 C 0.24418 0.38006 0.66554
 C469 C 0.18590 0.37883 0.58704
 C470 C 0.18890 0.35647 0.60888
 C471 C 0.25867 0.42469 0.64591
 C472 C 0.26081 0.40289 0.66871
 H473 H 0.17080 0.37799 0.56713
 H474 H 0.17603 0.33903 0.60518
 H475 H 0.27221 0.44171 0.64887
 H476 H 0.27593 0.40371 0.68860
 H477 H 0.25176 0.46277 0.59795
 H478 H 0.18571 0.42310 0.54715
 H479 H 0.20013 0.31567 0.65228
 H480 H 0.26226 0.35792 0.70716
 C481 C 0.89813 0.27346 0.11431
 C482 C 0.91334 0.25006 0.10646
 C483 C 0.93493 0.25189 0.08354
 C484 C 0.94179 0.27702 0.06872
 C485 C 0.92676 0.30051 0.07784
 C486 C 0.90463 0.29873 0.10018
 C487 C 0.87455 0.27130 0.13716
 C488 C 0.85849 0.29443 0.14384
 C489 C 0.83532 0.29193 0.16433
 C490 C 0.82855 0.26659 0.17834
 C491 C 0.84540 0.24387 0.17226
 C492 C 0.86817 0.24599 0.15126
 C493 C 0.88848 0.32156 0.10813
 C494 C 0.86572 0.31942 0.12942
 C495 C 0.90644 0.22515 0.12131
 C496 C 0.88432 0.22318 0.14349
 H497 H 0.89323 0.34119 0.09740
 H498 H 0.85360 0.33745 0.13447
 H499 H 0.91813 0.20698 0.11555
 H500 H 0.87956 0.20355 0.15422
 H501 H 0.94630 0.23362 0.07724
 H502 H 0.93161 0.31999 0.06672
 H503 H 0.82233 0.30944 0.16899
 H504 H 0.84026 0.22439 0.18320
 C505 C 0.40089 0.77856 0.61623
 C506 C 0.42337 0.76100 0.61975
 C507 C 0.44462 0.76245 0.59625
 C508 C 0.44374 0.78172 0.56997
 C509 C 0.42154 0.79981 0.56740
 C510 C 0.39975 0.79797 0.59016
 C511 C 0.37777 0.77602 0.63968
 C512 C 0.35457 0.79244 0.63493
 C513 C 0.33203 0.78881 0.65611
 C514 C 0.33298 0.76942 0.68227
 C515 C 0.35667 0.75377 0.68741
 C516 C 0.37899 0.75664 0.66577
 C517 C 0.37652 0.81459 0.58684
 C518 C 0.35423 0.81172 0.60869
 C519 C 0.42392 0.74201 0.64632
 C520 C 0.40218 0.74001 0.66910
 H521 H 0.37536 0.82959 0.56680
 H522 H 0.33651 0.82459 0.60487
 H523 H 0.44123 0.72847 0.64938
 H524 H 0.40331 0.72497 0.68910
 H525 H 0.46180 0.74859 0.59827
 H526 H 0.42075 0.81445 0.54689
 H527 H 0.31365 0.80068 0.65210
 H528 H 0.35720 0.73870 0.70743
 C529 C 0.10213 0.72703 0.11391
 C530 C 0.08694 0.75043 0.10593
 C531 C 0.06543 0.74860 0.08290
 C532 C 0.05862 0.72346 0.06814
 C533 C 0.07362 0.69997 0.07740
 C534 C 0.09567 0.70176 0.09982
 C535 C 0.12563 0.72918 0.13686
 C536 C 0.14167 0.70605 0.14363
 C537 C 0.16479 0.70854 0.16416
 C538 C 0.17153 0.73386 0.17817
 C539 C 0.15468 0.75659 0.17204
 C540 C 0.13197 0.75448 0.15095
 C541 C 0.11178 0.67892 0.10788
 C542 C 0.13449 0.68106 0.12923
 C543 C 0.09380 0.77534 0.12077
 C544 C 0.11585 0.77730 0.14307
 H545 H 0.10706 0.65929 0.09717
 H546 H 0.14660 0.66303 0.13435
 H547 H 0.08213 0.79352 0.11492
 H548 H 0.12057 0.79692 0.15379
 H549 H 0.05407 0.76686 0.07647
 H550 H 0.06881 0.68048 0.06633
 H551 H 0.17779 0.69104 0.16885
 H552 H 0.15980 0.77606 0.18297
 C553 C 0.59916 0.22034 0.61557
 C554 C 0.57654 0.23769 0.61935
 C555 C 0.55517 0.23614 0.59602
 C556 C 0.55606 0.21698 0.56966
 C557 C 0.57842 0.19911 0.56682
 C558 C 0.60033 0.20106 0.58939
 C559 C 0.62238 0.22297 0.63886
 C560 C 0.64569 0.20677 0.63386
 C561 C 0.66830 0.21046 0.65493
 C562 C 0.66729 0.22966 0.68127
 C563 C 0.64349 0.24509 0.68663
 C564 C 0.62111 0.24219 0.66509
 C565 C 0.62369 0.18467 0.58580
 C566 C 0.64607 0.18763 0.60749
 C567 C 0.57596 0.25654 0.64603
 C568 C 0.59780 0.25861 0.66868
 H569 H 0.62488 0.16977 0.56567
 H570 H 0.66387 0.17493 0.60347
 H571 H 0.55856 0.26992 0.64931
 H572 H 0.59663 0.27353 0.68878
 H573 H 0.53787 0.24983 0.59826
 H574 H 0.57923 0.18456 0.54624
 H575 H 0.68676 0.19876 0.65070
 H576 H 0.64292 0.26005 0.70676
 C577 C 0.72455 0.09859 0.88512
 C578 C 0.69939 0.09196 0.89945
 C579 C 0.69788 0.06992 0.92196
 C580 C 0.72154 0.05515 0.93109
 C581 C 0.74654 0.06213 0.91607
 C582 C 0.74810 0.08359 0.89294
 C583 C 0.72643 0.12210 0.86213
 C584 C 0.75163 0.12862 0.84783
 C585 C 0.75352 0.15137 0.82678
 C586 C 0.73067 0.16811 0.82089
 C587 C 0.70543 0.16119 0.83504
 C588 C 0.70317 0.13801 0.85555
 C589 C 0.77289 0.09061 0.87788
 C590 C 0.77460 0.11266 0.85554
 C591 C 0.67640 0.10792 0.89155
 C592 C 0.67829 0.13064 0.87016
 H593 H 0.79118 0.07908 0.88360
 H594 H 0.79415 0.11752 0.84466
 H595 H 0.65686 0.10306 0.90244
 H596 H 0.66016 0.14264 0.86519
 H597 H 0.67848 0.06498 0.93323
 H598 H 0.76494 0.05093 0.92237
 H599 H 0.77292 0.15665 0.81575
 H600 H 0.68784 0.17410 0.83054
 C601 C 0.22231 0.60253 0.38414
 C602 C 0.20304 0.60392 0.41034
 C603 C 0.20090 0.58209 0.43300
 C604 C 0.21858 0.55958 0.43024
 C605 C 0.23774 0.55846 0.40385
 C606 C 0.23947 0.57976 0.38043
 C607 C 0.22514 0.62567 0.36074
 C608 C 0.24435 0.62418 0.33450
 C609 C 0.24747 0.64649 0.31288
 C610 C 0.23225 0.67043 0.31817
 C611 C 0.21304 0.67165 0.34452
 C612 C 0.20915 0.64912 0.36567
 C613 C 0.25832 0.57896 0.35373
 C614 C 0.26058 0.60073 0.33099
 C615 C 0.18685 0.62742 0.41385
 C616 C 0.19000 0.64972 0.39206
 H617 H 0.27155 0.56144 0.35051
 H618 H 0.27549 0.59939 0.31087
 H619 H 0.17196 0.62878 0.43399
 H620 H 0.17746 0.66764 0.39603
 H621 H 0.18636 0.58307 0.45360
 H622 H 0.25129 0.54105 0.40168
 H623 H 0.26243 0.64575 0.29274
 H624 H 0.20151 0.69022 0.34869
 C625 C 0.27586 0.90080 0.88541
 C626 C 0.30018 0.90590 0.90275
 C627 C 0.30137 0.92804 0.92511
 C628 C 0.27827 0.94462 0.93055
 C629 C 0.25423 0.93938 0.91250
 C630 C 0.25291 0.91756 0.88990
 C631 C 0.27414 0.87707 0.86280
 C632 C 0.24965 0.87185 0.84592
 C633 C 0.24780 0.84882 0.82536
 C634 C 0.27001 0.83084 0.82207
 C635 C 0.29459 0.83649 0.83869
 C636 C 0.29676 0.85968 0.85915
 C637 C 0.22891 0.91188 0.87219
 C638 C 0.22733 0.88943 0.85050
 C639 C 0.32256 0.88836 0.89793
 C640 C 0.32086 0.86562 0.87657
 H641 H 0.21111 0.92473 0.87538
 H642 H 0.20836 0.88559 0.83757
 H643 H 0.34144 0.89204 0.91113
 H644 H 0.33848 0.85244 0.87393
 H645 H 0.31991 0.93183 0.93902
 H646 H 0.23640 0.95211 0.91634
 H647 H 0.22891 0.84443 0.81247
 H648 H 0.31166 0.82256 0.83617
 C649 C 0.77804 0.39735 0.38436
 C650 C 0.79729 0.39594 0.41059
 C651 C 0.79945 0.41779 0.43317
 C652 C 0.78182 0.44033 0.43029
 C653 C 0.76270 0.44147 0.40387
 C654 C 0.76094 0.42016 0.38053
 C655 C 0.77516 0.37419 0.36108
 C656 C 0.75595 0.37569 0.33482
 C657 C 0.75279 0.35336 0.31331
 C658 C 0.76795 0.32940 0.31871
 C659 C 0.78715 0.32816 0.34506
 C660 C 0.79109 0.35070 0.36612
 C661 C 0.74211 0.42097 0.35383
 C662 C 0.73980 0.39918 0.33119
 C663 C 0.81342 0.37241 0.41421
 C664 C 0.81023 0.35009 0.39251
 H665 H 0.72892 0.43852 0.35053
 H666 H 0.72489 0.40052 0.31106
 H667 H 0.82829 0.37104 0.43438
 H668 H 0.82272 0.33214 0.39656
 H669 H 0.81397 0.41681 0.45380
 H670 H 0.74919 0.45891 0.40162
 H671 H 0.73784 0.35411 0.29315
 H672 H 0.79864 0.30957 0.34929
 C673 C 0.09949 0.27777 0.88498
 C674 C 0.08296 0.25497 0.88906
 C675 C 0.06120 0.25622 0.91184
 C676 C 0.05580 0.28005 0.93046
 C677 C 0.07213 0.30302 0.92541
 C678 C 0.09422 0.30188 0.90289
 C679 C 0.12320 0.27607 0.86223
 C680 C 0.14040 0.29850 0.85903
 C681 C 0.16364 0.29628 0.83851
 C682 C 0.16950 0.27185 0.82141
 C683 C 0.15167 0.24987 0.82420
 C684 C 0.12862 0.25176 0.84481
 C685 C 0.11155 0.32410 0.89849
 C686 C 0.13427 0.32241 0.87700
 C687 C 0.08882 0.23117 0.87078
 C688 C 0.11124 0.22961 0.84896
 H689 H 0.10773 0.34283 0.91212
 H690 H 0.14731 0.33988 0.87471
 H691 H 0.07613 0.21349 0.87366
 H692 H 0.11523 0.21078 0.83561
 H693 H 0.04865 0.23850 0.91536
 H694 H 0.06821 0.32139 0.93977
 H695 H 0.17746 0.31316 0.83639
 H696 H 0.15625 0.23109 0.81097
 C697 C 0.60135 0.77571 0.38473
 C698 C 0.58188 0.75511 0.38563
 C699 C 0.56036 0.75711 0.40871
 C700 C 0.55803 0.77966 0.43043
 C701 C 0.57724 0.80055 0.42851
 C702 C 0.59921 0.79848 0.40598
 C703 C 0.62481 0.77298 0.36174
 C704 C 0.64498 0.79292 0.36192
 C705 C 0.66791 0.78951 0.34120
 C706 C 0.67044 0.76652 0.32027
 C707 C 0.64965 0.74720 0.31957
 C708 C 0.62695 0.75011 0.34064
 C709 C 0.61945 0.81835 0.40484
 C710 C 0.64201 0.81555 0.38330
 C711 C 0.58459 0.73270 0.36388
 C712 C 0.60669 0.73030 0.34163
 H713 H 0.61806 0.83600 0.42112
 H714 H 0.65737 0.83112 0.38359
 H715 H 0.56962 0.71675 0.36427
 H716 H 0.60815 0.71258 0.32547
 H717 H 0.54552 0.74106 0.40994
 H718 H 0.57563 0.81784 0.44539
 H719 H 0.68398 0.80436 0.34164
 H720 H 0.65168 0.72953 0.30336
 C721 C 0.90232 0.72152 0.88321
 C722 C 0.92237 0.74155 0.88224
 C723 C 0.94372 0.74040 0.90563
 C724 C 0.94536 0.71918 0.92944
 C725 C 0.92562 0.69873 0.92940
 C726 C 0.90374 0.70007 0.90664
 C727 C 0.87896 0.72356 0.85995
 C728 C 0.85809 0.70442 0.86216
 C729 C 0.83517 0.70740 0.84129
 C730 C 0.83346 0.72901 0.81803
 C731 C 0.85487 0.74752 0.81546
 C732 C 0.87753 0.74513 0.83670
 C733 C 0.88285 0.68087 0.90742
 C734 C 0.86033 0.68311 0.88571
 C735 C 0.92037 0.76263 0.85837
 C736 C 0.89839 0.76431 0.83585
 H737 H 0.88368 0.66425 0.92539
 H738 H 0.84444 0.66816 0.88756
 H739 H 0.93579 0.77812 0.85730
 H740 H 0.89747 0.78103 0.81804
 H741 H 0.95899 0.75608 0.90550
 H742 H 0.92671 0.68252 0.94795
 H743 H 0.81848 0.69335 0.84346
 H744 H 0.85330 0.76431 0.79777
 C745 C 0.39879 0.22179 0.38408
 C746 C 0.39762 0.20261 0.41038
 C747 C 0.41946 0.20034 0.43308
 C748 C 0.44173 0.21782 0.43025
 C749 C 0.44262 0.23691 0.40378
 C750 C 0.42133 0.23875 0.38032
 C751 C 0.37563 0.22476 0.36065
 C752 C 0.37689 0.24389 0.33431
 C753 C 0.35455 0.24716 0.31268
 C754 C 0.33078 0.23220 0.31805
 C755 C 0.32980 0.21306 0.34448
 C756 C 0.35237 0.20899 0.36564
 C757 C 0.42190 0.25751 0.35352
 C758 C 0.40013 0.25989 0.33074
 C759 C 0.37433 0.18663 0.41395
 C760 C 0.35200 0.18992 0.39213
 H761 H 0.43925 0.27059 0.35026
 H762 H 0.40130 0.27475 0.31056
 H763 H 0.37314 0.17181 0.43417
 H764 H 0.33424 0.17755 0.39615
 H765 H 0.41866 0.18586 0.45374
 H766 H 0.45985 0.25030 0.40157
 H767 H 0.35511 0.26207 0.29248
 H768 H 0.31136 0.20173 0.34873
 C769 C 0.72361 0.89777 0.88520
 C770 C 0.70094 0.90023 0.90662
 C771 C 0.69914 0.92239 0.92889
 C772 C 0.72021 0.94143 0.93041
 C773 C 0.74263 0.93877 0.90852
 C774 C 0.74435 0.91709 0.88568
 C775 C 0.72608 0.87412 0.86251
 C776 C 0.74884 0.87166 0.84125
 C777 C 0.75152 0.84878 0.82049
 C778 C 0.73209 0.82810 0.82166
 C779 C 0.70921 0.83094 0.84274
 C780 C 0.70602 0.85407 0.86316
 C781 C 0.76665 0.91407 0.86378
 C782 C 0.76879 0.89179 0.84180
 C783 C 0.68094 0.88012 0.90592
 C784 C 0.68350 0.85736 0.88468
 H785 H 0.78271 0.92892 0.86384
 H786 H 0.78643 0.89009 0.82551
 H787 H 0.66336 0.88176 0.92233
 H788 H 0.66783 0.84211 0.88532
 H789 H 0.68195 0.92424 0.94593
 H790 H 0.75882 0.95348 0.90946
 H791 H 0.76910 0.84652 0.80416
 H792 H 0.69426 0.81497 0.84354
 C793 C 0.22208 0.40228 0.38431
 C794 C 0.20258 0.40151 0.41027
 C795 C 0.20053 0.42339 0.43293
 C796 C 0.21850 0.44530 0.43040
 C797 C 0.23789 0.44577 0.40425
 C798 C 0.23955 0.42444 0.38084
 C799 C 0.22478 0.37909 0.36091
 C800 C 0.24421 0.37994 0.33489
 C801 C 0.24717 0.35759 0.31323
 C802 C 0.23156 0.33420 0.31826
 C803 C 0.21216 0.33361 0.34439
 C804 C 0.20843 0.35620 0.36558
 C805 C 0.25861 0.42462 0.35438
 C806 C 0.26077 0.40283 0.33163
 C807 C 0.18605 0.37859 0.41354
 C808 C 0.18907 0.35623 0.39174
 H809 H 0.27210 0.44168 0.35134
 H810 H 0.27586 0.40368 0.31170
 H811 H 0.17098 0.37772 0.43349
 H812 H 0.17625 0.33876 0.39551
 H813 H 0.18580 0.42289 0.45332
 H814 H 0.25166 0.46271 0.40225
 H815 H 0.26227 0.35786 0.29325
 H816 H 0.20031 0.31547 0.34835
 C817 C 0.27305 0.10204 0.88537
 C818 C 0.29819 0.09490 0.89975
 C819 C 0.29971 0.07285 0.92230
 C820 C 0.27606 0.05859 0.93144
 C821 C 0.25105 0.06609 0.91640
 C822 C 0.24950 0.08755 0.89320
 C823 C 0.27117 0.12555 0.86231
 C824 C 0.24598 0.13258 0.84794
 C825 C 0.24411 0.15534 0.82683
 C826 C 0.26694 0.17162 0.82099
 C827 C 0.29216 0.16417 0.83521
 C828 C 0.29443 0.14095 0.85575
 C829 C 0.22472 0.09507 0.87807
 C830 C 0.22302 0.11711 0.85565
 C831 C 0.32118 0.11035 0.89186
 C832 C 0.31929 0.13308 0.87042
 H833 H 0.20643 0.08395 0.88380
 H834 H 0.20349 0.12238 0.84472
 H835 H 0.34071 0.10509 0.90279
 H836 H 0.33742 0.14469 0.86547
 H837 H 0.31911 0.06751 0.93359
 H838 H 0.23267 0.05528 0.92271
 H839 H 0.22472 0.16102 0.81575
 H840 H 0.30975 0.17672 0.83075
 C841 C 0.77854 0.59707 0.38283
 C842 C 0.80017 0.59608 0.40602
 C843 C 0.80198 0.57434 0.42896
 C844 C 0.78184 0.55428 0.42941
 C845 C 0.76043 0.55551 0.40586
 C846 C 0.75879 0.57674 0.38230
 C847 C 0.77605 0.62024 0.35934
 C848 C 0.75432 0.62124 0.33630
 C849 C 0.75153 0.64370 0.31478
 C850 C 0.76982 0.66533 0.31684
 C851 C 0.79157 0.66406 0.33992
 C852 C 0.79494 0.64136 0.36106
 C853 C 0.73753 0.57831 0.35865
 C854 C 0.73541 0.60012 0.33591
 C855 C 0.81909 0.61722 0.40635
 C856 C 0.81643 0.63955 0.38440
 H857 H 0.72226 0.56266 0.35792
 H858 H 0.71857 0.60069 0.31827
 H859 H 0.83585 0.61673 0.42413
 H860 H 0.83119 0.65564 0.38589
 H861 H 0.81835 0.57358 0.44730
 H862 H 0.74498 0.54000 0.40602
 H863 H 0.73463 0.64492 0.29723
 H864 H 0.80545 0.68092 0.34170
 C865 C 0.10216 0.72672 0.88555
 C866 C 0.08693 0.75012 0.89337
 C867 C 0.06544 0.74832 0.91641
 C868 C 0.05868 0.72322 0.93135
 C869 C 0.07370 0.69972 0.92225
 C870 C 0.09575 0.70148 0.89981
 C871 C 0.12567 0.72884 0.86262
 C872 C 0.14177 0.70573 0.85603
 C873 C 0.16492 0.70822 0.83555
 C874 C 0.17162 0.73353 0.82144
 C875 C 0.15471 0.75623 0.82736
 C876 C 0.13197 0.75413 0.84838
 C877 C 0.11190 0.67864 0.89192
 C878 C 0.13462 0.68076 0.87057
 C879 C 0.09374 0.77500 0.87838
 C880 C 0.11580 0.77694 0.85609
 H881 H 0.10721 0.65904 0.90276
 H882 H 0.14678 0.66275 0.86558
 H883 H 0.08204 0.79317 0.88410
 H884 H 0.12050 0.79654 0.84526
 H885 H 0.05405 0.76659 0.92271
 H886 H 0.06892 0.68026 0.93346
 H887 H 0.17797 0.69074 0.83100
 H888 H 0.15983 0.77569 0.81635
 C889 C 0.59919 0.22139 0.38446
 C890 C 0.57672 0.23900 0.38114
 C891 C 0.55535 0.23723 0.40445
 C892 C 0.55608 0.21761 0.43034
 C893 C 0.57830 0.19951 0.43270
 C894 C 0.60021 0.20165 0.41015
 C895 C 0.62241 0.22420 0.36117
 C896 C 0.64556 0.20767 0.36569
 C897 C 0.66814 0.21145 0.34458
 C898 C 0.66728 0.23107 0.31868
 C899 C 0.64365 0.24688 0.31383
 C900 C 0.62129 0.24386 0.33541
 C901 C 0.62342 0.18499 0.41327
 C902 C 0.64579 0.18808 0.39158
 C903 C 0.57630 0.25831 0.35494
 C904 C 0.59813 0.26057 0.33230
 H905 H 0.62449 0.16973 0.43302
 H906 H 0.66347 0.17513 0.39523
 H907 H 0.55902 0.27191 0.35203
 H908 H 0.59707 0.27584 0.31256
 H909 H 0.53817 0.25111 0.40257
 H910 H 0.57900 0.18460 0.45291
 H911 H 0.68646 0.19944 0.34841
 H912 H 0.64316 0.26213 0.29402
 C913 C 0.89712 0.27424 0.88559
 C914 C 0.90194 0.29883 0.90241
 C915 C 0.92402 0.30054 0.92480
 C916 C 0.94085 0.27770 0.93078
 C917 C 0.93587 0.25335 0.91329
 C918 C 0.91409 0.25152 0.89064
 C919 C 0.87348 0.27203 0.86288
 C920 C 0.86854 0.24729 0.84646
 C921 C 0.84563 0.24501 0.82573
 C922 C 0.82751 0.26705 0.82184
 C923 C 0.83286 0.29185 0.83804
 C924 C 0.85593 0.29446 0.85864
 C925 C 0.90866 0.22724 0.87342
 C926 C 0.88629 0.22518 0.85162
 C927 C 0.88423 0.32099 0.89704
 C928 C 0.86158 0.31882 0.87559
 H929 H 0.92167 0.20960 0.87705
 H930 H 0.88267 0.20602 0.83905
 H931 H 0.88771 0.34008 0.90984
 H932 H 0.84827 0.33629 0.87248
 H933 H 0.92760 0.31932 0.93827
 H934 H 0.94877 0.23571 0.91756
 H935 H 0.84146 0.22594 0.81316
 H936 H 0.81882 0.30878 0.83505
 C937 C 0.40080 0.77785 0.38419
 C938 C 0.42323 0.76020 0.38084
 C939 C 0.44450 0.76174 0.40430
 C940 C 0.44371 0.78118 0.43035
 C941 C 0.42154 0.79933 0.43276
 C942 C 0.39972 0.79740 0.41006
 C943 C 0.37767 0.77526 0.36076
 C944 C 0.35453 0.79179 0.36532
 C945 C 0.33200 0.78819 0.34411
 C946 C 0.33292 0.76872 0.31807
 C947 C 0.35654 0.75294 0.31314
 C948 C 0.37884 0.75578 0.33482
 C949 C 0.37654 0.81410 0.41321
 C950 C 0.35424 0.81120 0.39139
 C951 C 0.42372 0.74108 0.35446
 C952 C 0.40197 0.73905 0.33167
 H953 H 0.37543 0.82921 0.43310
 H954 H 0.33657 0.82415 0.39507
 H955 H 0.44098 0.72747 0.35153
 H956 H 0.40307 0.72392 0.31181
 H957 H 0.46166 0.74783 0.40240
 H958 H 0.42081 0.81409 0.45310
 H959 H 0.31368 0.80017 0.34799
 H960 H 0.35705 0.73781 0.29321
 C961 C 0.27611 0.90106 0.11533
 C962 C 0.25321 0.91793 0.11103
 C963 C 0.25450 0.93975 0.08840
 C964 C 0.27847 0.94487 0.07013
 C965 C 0.30153 0.92821 0.07540
 C966 C 0.30036 0.90606 0.09779
 C967 C 0.27439 0.87728 0.13791
 C968 C 0.29694 0.85978 0.14133
 C969 C 0.29474 0.83652 0.16172
 C970 C 0.27020 0.83094 0.17848
 C971 C 0.24807 0.84905 0.17544
 C972 C 0.24995 0.87214 0.15496
 C973 C 0.32268 0.88841 0.10241
 C974 C 0.32098 0.86564 0.12374
 C975 C 0.22927 0.91232 0.12893
 C976 C 0.22769 0.88983 0.15060
 H977 H 0.34152 0.89203 0.08905
 H978 H 0.33855 0.85236 0.12622
 H979 H 0.21151 0.92527 0.12588
 H980 H 0.20876 0.88605 0.16366
 H981 H 0.23670 0.95255 0.08468
 H982 H 0.32000 0.93192 0.06131
 H983 H 0.31174 0.82248 0.16406
 H984 H 0.22921 0.84469 0.18843
 C985 C 0.77689 0.39737 0.61552
 C986 C 0.75951 0.42001 0.61885
 C987 C 0.76146 0.44136 0.59552
 C988 C 0.78105 0.44042 0.56962
 C989 C 0.79893 0.41803 0.56724
 C990 C 0.79659 0.39615 0.58981
 C991 C 0.77386 0.37419 0.63880
 C992 C 0.79014 0.35088 0.63426
 C993 C 0.78615 0.32834 0.65535
 C994 C 0.76656 0.32940 0.68127
 C995 C 0.75101 0.35318 0.68615
 C996 C 0.75424 0.37551 0.66458
 C997 C 0.81301 0.37278 0.58666
 C998 C 0.80970 0.35045 0.60835
 C999 C 0.74023 0.42063 0.64507
 C1000 C 0.73778 0.39883 0.66771
 H1001 H 0.82824 0.37156 0.56689
 H1002 H 0.82246 0.33264 0.60469
 H1003 H 0.72682 0.43805 0.64798
 H1004 H 0.72254 0.40004 0.68747
 H1005 H 0.74776 0.45867 0.59740
 H1006 H 0.81380 0.41718 0.54701
 H1007 H 0.79796 0.30989 0.65152
 H1008 H 0.73579 0.35382 0.70599
 C1009 C 0.72338 0.10000 0.11475
 C1010 C 0.69899 0.09516 0.09748
 C1011 C 0.69759 0.07315 0.07499
 C1012 C 0.72056 0.05643 0.06935
 C1013 C 0.74470 0.06142 0.08729
 C1014 C 0.74622 0.08312 0.11005
 C1015 C 0.72530 0.12359 0.13755
 C1016 C 0.74985 0.12857 0.15439
 C1017 C 0.75189 0.15147 0.17512
 C1018 C 0.72979 0.16957 0.17857
 C1019 C 0.70515 0.16417 0.16201
 C1020 C 0.70278 0.14109 0.14140
 C1021 C 0.77030 0.08856 0.12772
 C1022 C 0.77206 0.11088 0.14959
 C1023 C 0.67672 0.11279 0.10251
 C1024 C 0.67861 0.13541 0.12403
 H1025 H 0.78801 0.07561 0.12436
 H1026 H 0.79109 0.11453 0.16249
 H1027 H 0.65778 0.10929 0.08935
 H1028 H 0.66107 0.14869 0.12684
 H1029 H 0.67897 0.06954 0.06116
 H1030 H 0.76243 0.04858 0.08329
 H1031 H 0.77084 0.15571 0.18796
 H1032 H 0.68818 0.17821 0.16466
 C1033 C 0.22275 0.60276 0.61554
 C1034 C 0.20335 0.60411 0.58947
 C1035 C 0.20113 0.58224 0.56690
 C1036 C 0.21884 0.55974 0.56962
 C1037 C 0.23813 0.55869 0.59587
 C1038 C 0.23995 0.58001 0.61920
 C1039 C 0.22564 0.62592 0.63886
 C1040 C 0.24495 0.62447 0.66499
 C1041 C 0.24808 0.64677 0.68658
 C1042 C 0.23276 0.67067 0.68139
 C1043 C 0.21347 0.67186 0.65512
 C1044 C 0.20957 0.64934 0.63400
 C1045 C 0.25891 0.57927 0.64577
 C1046 C 0.26123 0.60105 0.66844
 C1047 C 0.18711 0.62758 0.58601
 C1048 C 0.19032 0.64990 0.60773
 H1049 H 0.27218 0.56177 0.64895
 H1050 H 0.27623 0.59973 0.68846
 H1051 H 0.17213 0.62891 0.56597
 H1052 H 0.17771 0.66779 0.60381
 H1053 H 0.18649 0.58318 0.54641
 H1054 H 0.25170 0.54129 0.59801
 H1055 H 0.26309 0.64604 0.70666
 H1056 H 0.20186 0.69039 0.65102
 C1057 C 0.90140 0.72200 0.11494
 C1058 C 0.90393 0.69967 0.09300
 C1059 C 0.92606 0.69831 0.07061
 C1060 C 0.94498 0.71951 0.06950
 C1061 C 0.94227 0.74156 0.09192
 C1062 C 0.92062 0.74282 0.11487
 C1063 C 0.87773 0.72405 0.13769
 C1064 C 0.87518 0.74649 0.15941
 C1065 C 0.85224 0.74884 0.18016
 C1066 C 0.83159 0.72939 0.17852
 C1067 C 0.83454 0.70680 0.15700
 C1068 C 0.85774 0.70394 0.13659
 C1069 C 0.91753 0.76478 0.13726
 C1070 C 0.89524 0.76651 0.15930
 C1071 C 0.88389 0.67958 0.09328
 C1072 C 0.86112 0.68176 0.11458
 H1073 H 0.93231 0.78089 0.13752
 H1074 H 0.89346 0.78391 0.17595
 H1075 H 0.88559 0.66227 0.07648
 H1076 H 0.84591 0.66606 0.11359
 H1077 H 0.92796 0.68142 0.05316
 H1078 H 0.95689 0.75784 0.09127
 H1079 H 0.84988 0.76620 0.19681
 H1080 H 0.81859 0.69185 0.15582
 C1081 C 0.39864 0.22165 0.61586
 C1082 C 0.39746 0.20251 0.58954
 C1083 C 0.41934 0.20021 0.56689
 C1084 C 0.44168 0.21761 0.56980
 C1085 C 0.44257 0.23663 0.59631
 C1086 C 0.42124 0.23850 0.61971
 C1087 C 0.37544 0.22467 0.63922
 C1088 C 0.37670 0.24375 0.66558
 C1089 C 0.35433 0.24706 0.68716
 C1090 C 0.33053 0.23218 0.68174
 C1091 C 0.32953 0.21309 0.65529
 C1092 C 0.35213 0.20899 0.63416
 C1093 C 0.42182 0.25722 0.64652
 C1094 C 0.40001 0.25966 0.66922
 C1095 C 0.37411 0.18663 0.58590
 C1096 C 0.35175 0.18997 0.60766
 H1097 H 0.43921 0.27023 0.64985
 H1098 H 0.40118 0.27448 0.68942
 H1099 H 0.37291 0.17185 0.56566
 H1100 H 0.33395 0.17767 0.60358
 H1101 H 0.41852 0.18578 0.54620
 H1102 H 0.45985 0.24996 0.59859
 H1103 H 0.35492 0.26193 0.70737
 H1104 H 0.31108 0.20182 0.65100
 C1105 C 0.09937 0.27770 0.11581
 C1106 C 0.09394 0.30190 0.09810
 C1107 C 0.07186 0.30303 0.07558
 C1108 C 0.05571 0.27997 0.07032
 C1109 C 0.06127 0.25605 0.08873
 C1110 C 0.08301 0.25481 0.11153
 C1111 C 0.12308 0.27602 0.13855
 C1112 C 0.12866 0.25165 0.15578
 C1113 C 0.15172 0.24978 0.17636
 C1114 C 0.16942 0.27186 0.17927
 C1115 C 0.16339 0.29635 0.16237
 C1116 C 0.14013 0.29855 0.14191
 C1117 C 0.08902 0.23093 0.12962
 C1118 C 0.11144 0.22940 0.15145
 C1119 C 0.11110 0.32421 0.10268
 C1120 C 0.13384 0.32254 0.12414
 H1121 H 0.07647 0.21318 0.12659
 H1122 H 0.11556 0.21051 0.16465
 H1123 H 0.10716 0.34300 0.08920
 H1124 H 0.14676 0.34008 0.12656
 H1125 H 0.06781 0.32147 0.06138
 H1126 H 0.04885 0.23826 0.08503
 H1127 H 0.15644 0.23094 0.18944
 H1128 H 0.17711 0.31330 0.16459
 C1129 C 0.60046 0.77628 0.61680
 C1130 C 0.59971 0.79792 0.59361
 C1131 C 0.57795 0.80001 0.57074
 C1132 C 0.55764 0.78013 0.57037
 C1133 C 0.55864 0.75869 0.59392
 C1134 C 0.57989 0.75679 0.61740
 C1135 C 0.62363 0.77352 0.64025
 C1136 C 0.62437 0.75180 0.66332
 C1137 C 0.64680 0.74878 0.68485
 C1138 C 0.66863 0.76684 0.68275
 C1139 C 0.66762 0.78857 0.65961
 C1140 C 0.64495 0.79217 0.63847
 C1141 C 0.58123 0.73550 0.64106
 C1142 C 0.60304 0.73314 0.66377
 C1143 C 0.62107 0.81660 0.59321
 C1144 C 0.64339 0.81367 0.61512
 H1145 H 0.56540 0.72042 0.64185
 H1146 H 0.60342 0.71630 0.68144
 H1147 H 0.62075 0.83335 0.57542
 H1148 H 0.65965 0.82825 0.61358
 H1149 H 0.57736 0.81640 0.55242
 H1150 H 0.54294 0.74344 0.59381
 H1151 H 0.64782 0.73190 0.70246
 H1152 H 0.68463 0.80227 0.65782
   
