data_POSCAR
  _audit_creation_date              2014-09-24
  _audit_creation_method            'ToBaCCo'
  _symmetry_space_group_name_H-M    'P1'
  _symmetry_Int_Tables_number       1
  _symmetry_cell_setting            triclinic
  loop_
  _symmetry_equiv_pos_as_xyz
 x,y,z
_cell_length_a 32.6587
_cell_length_b 32.3224
_cell_length_c 64.3732
_cell_angle_alpha 91.892300
_cell_angle_beta 93.268500
_cell_angle_gamma 122.041300
loop_
  _atom_site_label
  _atom_site_type_symbol
  _atom_site_fract_x
  _atom_site_fract_y
  _atom_site_fract_z
C1 C 0.10967 0.07622 0.55018
 H2 H 0.12501 0.05678 0.55702
 C3 C 0.10574 0.10972 0.56273
 H4 H 0.11690 0.11478 0.57926
 C5 C 0.07915 0.09549 0.52022
 H6 H 0.07027 0.09069 0.50352
 C7 C 0.07421 0.12913 0.53225
 H8 H 0.06131 0.15009 0.52473
 N9 N 0.09638 0.06967 0.52934
 C10 C 0.15914 -0.01592 0.52779
 H11 H 0.18688 0.00552 0.51754
 C12 C 0.16168 -0.05083 0.53919
 H13 H 0.19161 -0.05587 0.53760
 C14 C 0.08443 -0.03825 0.54106
 H15 H 0.05394 -0.03371 0.54139
 C16 C 0.08590 -0.07269 0.55291
 H17 H 0.05683 -0.09355 0.56271
 Zn18 Zn 0.10903 0.02971 0.51227
 N19 N 0.12068 -0.01060 0.52890
 C20 C 0.20679 0.10116 0.50831
 N21 N 0.16252 0.07246 0.49760
 C22 C 0.15458 0.07909 0.47737
 C23 C 0.19181 0.11639 0.46722
 C24 C 0.24527 0.13858 0.49868
 C25 C 0.01025 -0.02222 0.49446
 C26 C -0.02904 -0.05960 0.48159
 C27 C 0.02572 -0.07843 0.46652
 C28 C 0.06354 -0.04110 0.47975
 N29 N 0.05532 -0.01403 0.49339
 H30 H 0.21178 0.09597 0.52456
 H31 H 0.11864 0.05717 0.46940
 H32 H 0.18382 0.12240 0.45146
 H33 H 0.28016 0.16111 0.50753
 H34 H 0.00421 -0.00128 0.50594
 H35 H -0.06429 -0.06611 0.48416
 H36 H 0.03559 -0.09667 0.45539
 H37 H 0.09984 -0.03383 0.47928
 C38 C 0.12427 -0.08028 0.55175
 C39 C 0.08824 0.13698 0.55375
 C40 C -0.02247 -0.08985 0.46741
 C41 C 0.23779 0.14736 0.47797
 C42 C 1.05007 0.04510 0.12511
 H43 H 1.05031 0.07870 0.12510
 C44 C 1.07768 0.03729 0.11164
 H45 H 1.09906 0.06492 0.10115
 C46 C 1.02224 -0.03162 0.13901
 H47 H 1.00130 -0.05791 0.14999
 C48 C 1.04872 -0.04129 0.12553
 H49 H 1.04795 -0.07513 0.12617
 N50 N 1.02358 0.01114 0.13861
 C51 C 0.94791 0.08274 0.14516
 H52 H 0.96990 0.10807 0.15829
 C53 C 0.91505 0.09007 0.13352
 H54 H 0.91162 0.12054 0.13813
 C55 C 0.92467 0.01194 0.12336
 H56 H 0.92908 -0.01805 0.11924
 C57 C 0.89160 0.01792 0.11132
 H58 H 0.87064 -0.00783 0.09805
 Zn59 Zn 0.98950 0.02664 0.15693
 N60 N 0.95098 0.04320 0.14031
 C61 C 1.02046 0.09952 0.19077
 N62 N 1.03522 0.07973 0.17623
 C63 C 1.08298 0.09588 0.17563
 C64 C 1.11792 0.13339 0.18977
 C65 C 1.05430 0.13710 0.20532
 C66 C 0.91298 -0.07083 0.16030
 C67 C 0.87810 -0.11067 0.17025
 C68 C 0.91455 -0.06400 0.20333
 C69 C 0.94929 -0.02536 0.19275
 N70 N 0.94717 -0.02879 0.17154
 H71 H 0.98225 0.08547 0.19134
 H72 H 1.09424 0.07908 0.16445
 H73 H 1.15558 0.14492 0.18920
 H74 H 1.04192 0.15242 0.21675
 H75 H 0.91243 -0.07352 0.14352
 H76 H 0.85145 -0.14367 0.16089
 H77 H 0.91573 -0.05925 0.22012
 H78 H 0.97707 0.00777 0.20158
 C79 C 0.88551 0.05665 0.11666
 C80 C 1.07729 -0.00628 0.11182
 C81 C 0.87770 -0.10721 0.19205
 C82 C 1.10380 0.15451 0.20489
 C83 C -0.05430 0.91094 0.86236
 H84 H -0.08918 0.87724 0.85900
 C85 C -0.01966 0.91257 0.87667
 H86 H -0.02817 0.87975 0.88416
 C87 C -0.00022 0.99369 0.85561
 H88 H 0.00762 1.02482 0.84697
 C89 C 0.03555 0.99698 0.86984
 H90 H 0.07030 1.03117 0.87237
 N91 N -0.04411 0.95106 0.85216
 C92 C -0.18933 0.91255 0.82990
 H93 H -0.18704 0.91008 0.81324
 C94 C -0.23132 0.90619 0.83749
 H95 H -0.26144 0.89638 0.82622
 C96 C -0.15206 0.92737 0.86418
 H97 H -0.12028 0.93763 0.87448
 C98 C -0.19315 0.92183 0.87250
 H99 H -0.19098 0.92869 0.88919
 Zn100 Zn -0.09205 0.94225 0.83144
 N101 N -0.15063 0.92346 0.84321
 C102 C -0.14023 0.84746 0.81008
 N103 N -0.09997 0.89345 0.81165
 C104 C -0.06131 0.90468 0.80079
 C105 C -0.06208 0.86899 0.78769
 C106 C -0.14229 0.81038 0.79735
 C107 C -0.06461 1.03972 0.83206
 C108 C -0.05627 1.08288 0.82406
 C109 C -0.06740 1.04607 0.78927
 C110 C -0.07510 1.00368 0.79797
 N111 N -0.07374 1.00126 0.81903
 H112 H -0.16993 0.83892 0.81937
 H113 H -0.02937 0.94132 0.80266
 H114 H -0.03092 0.87903 0.77911
 H115 H -0.17385 0.77360 0.79699
 H116 H -0.06482 1.03643 0.84873
 H117 H -0.04886 1.11305 0.83477
 H118 H -0.07042 1.04658 0.77246
 H119 H -0.08417 0.97211 0.78784
 C120 C -0.23364 0.91238 0.85915
 C121 C 0.02618 0.95589 0.88046
 C122 C -0.05841 1.08625 0.80236
 C123 C -0.10254 0.82074 0.78614
 C124 C 0.45208 -0.01260 0.00353
 C125 C 0.44551 -0.02252 -0.01748
 C126 C 0.40872 -0.01849 -0.03011
 C127 C 0.47421 -0.03820 -0.02858
 C128 C 0.49241 -0.01061 0.01638
 C129 C 0.41898 -0.00310 0.01448
 C130 C 0.36247 -0.06001 -0.03550
 C131 C 0.32738 -0.05593 -0.04707
 C132 C 0.33831 -0.01031 -0.05360
 C133 C 0.38485 0.03118 -0.04819
 C134 C 0.41970 0.02713 -0.03643
 C135 C 0.47565 -0.07884 -0.02261
 C136 C 0.50533 -0.09150 -0.03210
 C137 C 0.53387 -0.06399 -0.04786
 C138 C 0.53106 -0.02430 -0.05427
 C139 C 0.50134 -0.01168 -0.04478
 C140 C 0.54062 0.02006 0.01163
 C141 C 0.57826 0.01992 0.02304
 C142 C 0.56842 -0.01062 0.03953
 C143 C 0.52032 -0.04006 0.04467
 C144 C 0.48273 -0.03995 0.03325
 C145 C 0.42918 0.04465 0.01754
 C146 C 0.39805 0.05359 0.02807
 C147 C 0.35661 0.01495 0.03609
 C148 C 0.34660 -0.03298 0.03279
 C149 C 0.37721 -0.04192 0.02188
 H150 H 0.35356 -0.09541 -0.03062
 H151 H 0.29192 -0.08851 -0.05119
 H152 H 0.39403 0.06681 -0.05284
 H153 H 0.45524 0.05953 -0.03222
 H154 H 0.45427 -0.10032 -0.01039
 H155 H 0.50601 -0.12279 -0.02707
 H156 H 0.50079 0.01979 -0.04961
 H157 H 0.54897 0.04355 -0.00113
 H158 H 0.61488 0.04279 0.01862
 H159 H 0.51172 -0.06334 0.05752
 H160 H 0.44597 -0.06373 0.03731
 H161 H 0.46112 0.07489 0.01168
 H162 H 0.40643 0.09077 0.02984
 H163 H 0.31568 -0.06360 0.03900
 H164 H 0.36873 -0.07908 0.01946
 H165 H 0.55299 -0.00202 -0.06619
 C166 C 0.00180 0.48406 0.68096
 C167 C 0.00682 0.48610 0.66007
 C168 C 0.00600 0.44600 0.64774
 C169 C 0.01262 0.52744 0.64830
 C170 C -0.00400 0.52013 0.69331
 C171 C 0.00271 0.44537 0.69242
 C172 C 0.04576 0.45610 0.63674
 C173 C 0.04523 0.41862 0.62505
 C174 C 0.00459 0.37053 0.62394
 C175 C -0.03552 0.36064 0.63472
 C176 C -0.03480 0.39808 0.64655
 C177 C 0.04767 0.57631 0.65508
 C178 C 0.05219 0.61457 0.64378
 C179 C 0.02223 0.60460 0.62533
 C180 C -0.01175 0.55557 0.61830
 C181 C -0.01651 0.51749 0.62966
 C182 C -0.03743 0.53260 0.68640
 C183 C -0.04050 0.56848 0.69765
 C184 C -0.01111 0.59178 0.71636
 C185 C 0.02058 0.57740 0.72373
 C186 C 0.02418 0.54214 0.71231
 C187 C -0.03743 0.41216 0.70272
 C188 C -0.03786 0.37387 0.71242
 C189 C 0.00215 0.36847 0.71219
 C190 C 0.04293 0.40285 0.70238
 C191 C 0.04321 0.44093 0.69262
 H192 H 0.07735 0.49297 0.63737
 H193 H 0.07635 0.42731 0.61667
 H194 H -0.06716 0.32384 0.63419
 H195 H -0.06607 0.38981 0.65473
 H196 H 0.07133 0.58482 0.66916
 H197 H 0.07855 0.65191 0.64967
 H198 H -0.04336 0.48010 0.62398
 H199 H -0.06063 0.51513 0.67210
 H200 H -0.06514 0.57868 0.69141
 H201 H 0.04279 0.59346 0.73835
 H202 H 0.04968 0.53263 0.71816
 H203 H -0.06896 0.41510 0.70272
 H204 H -0.07005 0.34777 0.71962
 H205 H 0.07471 0.40038 0.70229
 H206 H 0.07484 0.46675 0.68502
 H207 H -0.03460 0.54655 0.60392
 C208 C 0.54204 0.53462 0.34730
 C209 C 0.54117 0.53753 0.32624
 C210 C 0.58267 0.57787 0.31651
 C211 C 0.49940 0.50020 0.31188
 C212 C 0.50723 0.48886 0.35680
 C213 C 0.57932 0.57661 0.36163
 C214 C 0.57520 0.60679 0.30297
 C215 C 0.61384 0.64365 0.29321
 C216 C 0.66062 0.65175 0.29652
 C217 C 0.66787 0.62257 0.31012
 C218 C 0.62928 0.58602 0.32001
 C219 C 0.45200 0.48781 0.31479
 C220 C 0.41327 0.45468 0.30052
 C221 C 0.42126 0.43344 0.28304
 C222 C 0.46874 0.44555 0.28035
 C223 C 0.50739 0.47878 0.29455
 C224 C 0.50123 0.44405 0.35006
 C225 C 0.46987 0.40137 0.35952
 C226 C 0.44414 0.40268 0.37605
 C227 C 0.45038 0.44767 0.38282
 C228 C 0.48181 0.49037 0.37335
 C229 C 0.60761 0.56992 0.37672
 C230 C 0.64405 0.60968 0.38962
 C231 C 0.65271 0.65687 0.38778
 C232 C 0.62331 0.66318 0.37308
 C233 C 0.58685 0.62340 0.36020
 H234 H 0.53944 0.60096 0.30007
 H235 H 0.60710 0.66595 0.28314
 H236 H 0.70313 0.62715 0.31274
 H237 H 0.63553 0.56343 0.33013
 H238 H 0.44517 0.50461 0.32787
 H239 H 0.37728 0.44668 0.30289
 H240 H 0.54366 0.48778 0.29203
 H241 H 0.52145 0.44226 0.33767
 H242 H 0.46656 0.36751 0.35420
 H243 H 0.43065 0.44979 0.39534
 H244 H 0.48613 0.52461 0.37885
 H245 H 0.60211 0.53407 0.37821
 H246 H 0.66554 0.60351 0.40105
 H247 H 0.62925 0.69909 0.37119
 H248 H 0.56482 0.62919 0.34891
 H249 H 0.47603 0.42921 0.26726
 C250 C 0.04634 0.17941 0.56478
 C251 C 0.04550 0.21581 0.57693
 C252 C 0.08610 0.24863 0.59092
 C253 C 0.12652 0.24417 0.59269
 C254 C 0.12687 0.20763 0.58070
 C255 C 0.08696 0.17506 0.56662
 C256 C 0.08574 0.28541 0.60290
 C257 C 0.04518 0.28966 0.60121
 C258 C 0.00425 0.25647 0.58747
 C259 C 0.00474 0.21985 0.57536
 C260 C -0.03647 0.26054 0.58608
 C261 C -0.03653 0.29733 0.59809
 C262 C 0.00422 0.33087 0.61156
 C263 C 0.04493 0.32668 0.61308
 H264 H 0.01525 0.15413 0.55409
 H265 H 0.15792 0.26901 0.60332
 H266 H 0.15878 0.20530 0.58218
 H267 H 0.11703 0.31072 0.61352
 H268 H -0.02654 0.19456 0.56473
 H269 H -0.06818 0.23540 0.57567
 H270 H -0.06817 0.30012 0.59658
 H271 H 0.07625 0.35200 0.62367
 C272 C 0.84682 0.84234 0.22309
 C273 C 0.80878 0.80604 0.23354
 C274 C 0.76137 0.77866 0.22341
 C275 C 0.75272 0.78830 0.20313
 C276 C 0.79052 0.82507 0.19300
 C277 C 0.83803 0.85254 0.20279
 C278 C 0.72323 0.74246 0.23377
 C279 C 0.73168 0.73379 0.25430
 C280 C 0.77895 0.76145 0.26454
 C281 C 0.81730 0.79712 0.25404
 C282 C 0.78698 0.75312 0.28518
 C283 C 0.74857 0.71780 0.29559
 C284 C 0.70140 0.68977 0.28552
 C285 C 0.69342 0.69801 0.26477
 H286 H 0.88321 0.86256 0.23081
 H287 H 0.71653 0.76792 0.19519
 H288 H 0.78215 0.83263 0.17762
 H289 H 0.68691 0.72141 0.22594
 H290 H 0.85359 0.81826 0.26190
 H291 H 0.82291 0.77417 0.29333
 H292 H 0.75573 0.71284 0.31165
 H293 H 0.65751 0.67621 0.25665
 C294 C 0.11271 -0.01861 -0.11052
 C295 C 0.14833 -0.01991 -0.09780
 C296 C 0.13563 -0.04561 -0.07953
 C297 C 0.08776 -0.06876 -0.07411
 C298 C 0.05253 -0.06734 -0.08687
 C299 C 0.06443 -0.04275 -0.10531
 C300 C 0.17080 -0.04826 -0.06712
 C301 C 0.21854 -0.02554 -0.07274
 C302 C 0.23143 0.00088 -0.09082
 C303 C 0.19625 0.00348 -0.10324
 C304 C 0.27930 0.02403 -0.09626
 C305 C 0.31403 0.02072 -0.08403
 C306 C 0.30148 -0.00607 -0.06623
 C307 C 0.25360 -0.02902 -0.06063
 H308 H 0.12233 -0.00006 -0.12482
 H309 H 0.07744 -0.08835 -0.06010
 H310 H 0.01582 -0.08560 -0.08231
 H311 H 0.16092 -0.06832 -0.05320
 H312 H 0.20609 0.02338 -0.11720
 H313 H 0.28983 0.04448 -0.11004
 H314 H 0.35062 0.03840 -0.08870
 H315 H 0.24379 -0.04924 -0.04676
 C316 C 0.07926 0.83589 0.56479
 C317 C 0.07730 0.79887 0.57620
 C318 C 0.12048 0.80492 0.58560
 C319 C 0.16497 0.84830 0.58342
 C320 C 0.16651 0.88555 0.57229
 C321 C 0.12362 0.87991 0.56300
 C322 C 0.11832 0.76769 0.59710
 C323 C 0.07339 0.72489 0.59950
 C324 C 0.03030 0.71936 0.59020
 C325 C 0.03257 0.75615 0.57851
 C326 C -0.01457 0.67715 0.59281
 C327 C -0.01693 0.64042 0.60441
 C328 C 0.02554 0.64485 0.61350
 C329 C 0.07072 0.68749 0.61105
 H330 H 0.04597 0.83027 0.55726
 H331 H 0.19848 0.85369 0.59054
 H332 H 0.20115 0.91913 0.57132
 H333 H 0.15143 0.77217 0.60428
 H334 H -0.00056 0.75172 0.57135
 H335 H -0.04792 0.67259 0.58593
 H336 H -0.05224 0.60857 0.60641
 H337 H 0.10378 0.69125 0.61783
 C338 C 0.18565 0.23028 0.21415
 C339 C 0.22230 0.26492 0.22890
 C340 C 0.21398 0.26309 0.25026
 C341 C 0.16867 0.22718 0.25640
 C342 C 0.13238 0.19266 0.24160
 C343 C 0.14075 0.19343 0.22040
 C344 C 0.25127 0.29667 0.26511
 C345 C 0.29680 0.33191 0.25886
 C346 C 0.30472 0.33412 0.23744
 C347 C 0.26741 0.30075 0.22261
 C348 C 0.35006 0.36938 0.23119
 C349 C 0.38755 0.40177 0.24601
 C350 C 0.38057 0.39952 0.26740
 C351 C 0.33478 0.36462 0.27369
 H352 H 0.19223 0.23170 0.19780
 H353 H 0.16159 0.22526 0.27270
 H354 H 0.09825 0.16441 0.24683
 H355 H 0.24505 0.29500 0.28152
 H356 H 0.27372 0.30224 0.20621
 H357 H 0.35661 0.37179 0.21483
 H358 H 0.42206 0.42891 0.24068
 H359 H 0.32898 0.36217 0.29013
 C360 C 0.71610 -0.09640 -0.11181
 C361 C 0.67927 -0.09242 -0.10360
 C362 C 0.65091 -0.08099 -0.11661
 C363 C 0.65928 -0.07452 -0.13765
 C364 C 0.69635 -0.07779 -0.14567
 C365 C 0.72622 -0.08806 -0.13291
 C366 C 0.61524 -0.07527 -0.10834
 C367 C 0.60803 -0.08013 -0.08708
 C368 C 0.63592 -0.09225 -0.07406
 C369 C 0.67106 -0.09874 -0.08243
 C370 C 0.62880 -0.09677 -0.05278
 C371 C 0.59512 -0.08835 -0.04438
 C372 C 0.56767 -0.07553 -0.05711
 C373 C 0.57398 -0.07213 -0.07855
 H374 H 0.73614 -0.10673 -0.10159
 H375 H 0.63796 -0.06552 -0.14784
 H376 H 0.70275 -0.06935 -0.16170
 H377 H 0.59381 -0.06605 -0.11836
 H378 H 0.69273 -0.10761 -0.07238
 H379 H 0.64990 -0.10595 -0.04256
 H380 H 0.59147 -0.09063 -0.02778
 H381 H 0.55258 -0.06296 -0.08859
 C382 C 0.15688 0.02198 0.09757
 C383 C 0.18623 0.01434 0.08494
 C384 C 0.16584 -0.02996 0.07236
 C385 C 0.11659 -0.06613 0.07289
 C386 C 0.08785 -0.05857 0.08583
 C387 C 0.10766 -0.01443 0.09816
 C388 C 0.19510 -0.03759 0.05965
 C389 C 0.24474 -0.00200 0.05977
 C390 C 0.26520 0.04191 0.07262
 C391 C 0.23574 0.05005 0.08494
 C392 C 0.31499 0.07674 0.07314
 C393 C 0.34446 0.06800 0.06126
 C394 C 0.32467 0.02463 0.04827
 C395 C 0.27441 -0.00998 0.04748
 H396 H 0.17249 0.05586 0.10729
 H397 H 0.10039 -0.10036 0.06341
 H398 H 0.04992 -0.08696 0.08604
 H399 H 0.17942 -0.07149 0.04994
 H400 H 0.25146 0.08385 0.09473
 H401 H 0.33133 0.11042 0.08303
 H402 H 0.38302 0.09495 0.06263
 H403 H 0.25822 -0.04324 0.03732
 C404 C 0.89363 0.86650 0.45183
 C405 C 0.85456 0.82598 0.43993
 C406 C 0.86044 0.78900 0.43126
 C407 C 0.90496 0.79292 0.43461
 C408 C 0.94354 0.83294 0.44649
 C409 C 0.93929 0.87112 0.45548
 C410 C 0.82172 0.74849 0.41939
 C411 C 0.77692 0.74439 0.41606
 C412 C 0.77077 0.78135 0.42466
 C413 C 0.80965 0.82197 0.43651
 C414 C 0.72581 0.77700 0.42122
 C415 C 0.68737 0.73648 0.40934
 C416 C 0.69315 0.69954 0.40071
 C417 C 0.73820 0.70388 0.40417
 H418 H 0.88811 0.89499 0.45730
 H419 H 0.90985 0.76448 0.42828
 H420 H 0.97564 0.83152 0.44934
 H421 H 0.82646 0.72014 0.41277
 H422 H 0.80490 0.85032 0.44311
 H423 H 0.72034 0.80489 0.42773
 H424 H 0.65290 0.73379 0.40707
 H425 H 0.74340 0.67609 0.39730
 C426 C -0.03019 0.14808 0.77524
 C427 C -0.02721 0.18887 0.76660
 C428 C -0.04759 0.21270 0.77647
 C429 C -0.07070 0.19530 0.79472
 C430 C -0.07394 0.15448 0.80308
 C431 C -0.05374 0.13039 0.79350
 C432 C -0.04495 0.25327 0.76786
 C433 C -0.02262 0.27008 0.74936
 C434 C -0.00233 0.24622 0.73945
 C435 C -0.00451 0.20594 0.74818
 C436 C 0.01953 0.26287 0.72086
 C437 C 0.02106 0.30258 0.71209
 C438 C 0.00105 0.32669 0.72180
 C439 C -0.02059 0.31021 0.74054
 H440 H -0.01399 0.13030 0.76778
 H441 H -0.08678 0.21293 0.80241
 H442 H -0.09317 0.14120 0.81689
 H443 H -0.06064 0.27147 0.77545
 H444 H 0.01105 0.18765 0.74055
 H445 H 0.03507 0.24490 0.71298
 H446 H 0.03722 0.31389 0.69747
 H447 H -0.03559 0.32880 0.74836
 C448 C 0.80136 0.01818 0.09949
 C449 C 0.76450 0.02109 0.08877
 C450 C 0.77320 0.06714 0.08367
 C451 C 0.81877 0.10951 0.08945
 C452 C 0.85537 0.10627 0.10016
 C453 C 0.84708 0.06060 0.10521
 C454 C 0.73621 0.07000 0.07294
 C455 C 0.69069 0.02736 0.06728
 C456 C 0.68217 -0.01862 0.07245
 C457 C 0.71908 -0.02144 0.08315
 C458 C 0.63678 -0.06115 0.06683
 C459 C 0.60003 -0.05832 0.05619
 C460 C 0.60785 -0.01292 0.05097
 C461 C 0.65347 0.02987 0.05655
 H462 H 0.79417 -0.01717 0.10365
 H463 H 0.82614 0.14512 0.08566
 H464 H 0.89036 0.13944 0.10426
 H465 H 0.74284 0.10531 0.06901
 H466 H 0.71245 -0.05676 0.08709
 H467 H 0.62974 -0.09666 0.07061
 H468 H 0.56554 -0.09188 0.05178
 H469 H 0.65979 0.06513 0.05278
 C470 C 0.28068 0.18845 0.44653
 C471 C 0.31383 0.23049 0.43692
 C472 C 0.34393 0.27518 0.44910
 C473 C 0.34059 0.27697 0.47067
 C474 C 0.30691 0.23523 0.48005
 C475 C 0.27626 0.19058 0.46811
 C476 C 0.37623 0.31754 0.43950
 C477 C 0.37833 0.31599 0.41780
 C478 C 0.34836 0.27127 0.40561
 C479 C 0.31657 0.22873 0.41526
 C480 C 0.35034 0.26998 0.38392
 C481 C 0.38142 0.31262 0.37436
 C482 C 0.41128 0.35737 0.38630
 C483 C 0.40963 0.35861 0.40808
 H484 H 0.25792 0.15424 0.43712
 H485 H 0.36326 0.31096 0.48023
 H486 H 0.30389 0.23845 0.49660
 H487 H 0.39917 0.35184 0.44886
 H488 H 0.29343 0.19450 0.40588
 H489 H 0.32753 0.23607 0.37432
 H490 H 0.38155 0.31072 0.35754
 H491 H 0.43298 0.39269 0.41751
 C492 C -0.05889 0.78153 0.77321
 C493 C -0.05811 0.74410 0.76195
 C494 C -0.10130 0.70503 0.75130
 C495 C -0.14439 0.70461 0.75184
 C496 C -0.14475 0.74237 0.76292
 C497 C -0.10210 0.78117 0.77380
 C498 C -0.10067 0.66710 0.74033
 C499 C -0.05722 0.66809 0.73971
 C500 C -0.01395 0.70766 0.75011
 C501 C -0.01472 0.74520 0.76125
 C502 C 0.02953 0.70915 0.74918
 C503 C 0.03028 0.67174 0.73812
 C504 C -0.01254 0.63161 0.72796
 C505 C -0.05630 0.63019 0.72884
 H506 H -0.02586 0.81050 0.78183
 H507 H -0.17781 0.67513 0.74367
 H508 H -0.17843 0.74135 0.76283
 H509 H -0.13388 0.63694 0.73226
 H510 H 0.01850 0.77535 0.76933
 H511 H 0.06309 0.73946 0.75690
 H512 H 0.06473 0.67465 0.73733
 H513 H -0.08975 0.59938 0.72130
   
