data_POSCAR
  _audit_creation_date              2014-09-24
  _audit_creation_method            'ToBaCCo'
  _symmetry_space_group_name_H-M    'P1'
  _symmetry_Int_Tables_number       1
  _symmetry_cell_setting            triclinic
  loop_
  _symmetry_equiv_pos_as_xyz
 x,y,z
_cell_length_a 19.1729
_cell_length_b 19.0094
_cell_length_c 40.6076
_cell_angle_alpha 83.138600
_cell_angle_beta 92.485600
_cell_angle_gamma 120.064000
loop_
  _atom_site_label
  _atom_site_type_symbol
  _atom_site_fract_x
  _atom_site_fract_y
  _atom_site_fract_z
C1 C -0.00207 0.13025 0.54029
 H2 H 0.04912 0.12084 0.54043
 C3 C -0.00302 0.18332 0.56068
 H4 H 0.04713 0.21276 0.57701
 C5 C -0.13086 0.09889 0.51980
 H6 H -0.18053 0.06520 0.50388
 C7 C -0.13356 0.15342 0.53947
 H8 H -0.18684 0.15925 0.53896
 N9 N -0.06555 0.08856 0.52070
 C10 C -0.02567 -0.11392 0.51065
 H11 H -0.01404 -0.10696 0.48429
 C12 C -0.03030 -0.18110 0.53094
 H13 H -0.01992 -0.22446 0.52009
 C14 C -0.05448 -0.06648 0.55668
 H15 H -0.06655 -0.02355 0.56672
 C16 C -0.05854 -0.13171 0.57781
 H17 H -0.06909 -0.13426 0.60397
 Zn18 Zn -0.04850 0.02183 0.49510
 N19 N -0.03872 -0.05882 0.52373
 C20 C 0.11764 0.09633 0.47253
 N21 N 0.04621 0.09532 0.47014
 C22 C 0.03814 0.15282 0.44988
 C23 C 0.10263 0.21388 0.43045
 C24 C 0.18487 0.15790 0.45384
 C25 C -0.20843 -0.08962 0.47810
 C26 C -0.26645 -0.14450 0.45788
 C27 C -0.16849 -0.08440 0.41283
 C28 C -0.11287 -0.03113 0.43381
 N29 N -0.13311 -0.03497 0.46589
 H30 H 0.12272 0.05019 0.48908
 H31 H -0.01956 0.15028 0.44852
 H32 H 0.09130 0.25500 0.41347
 H33 H 0.24130 0.15777 0.45572
 H34 H -0.22197 -0.09398 0.50411
 H35 H -0.32397 -0.19063 0.46905
 H36 H -0.14792 -0.08277 0.38819
 H37 H -0.05170 0.00920 0.42490
 C38 C -0.04988 -0.19238 0.56490
 C39 C -0.06804 0.19791 0.55988
 C40 C -0.24727 -0.14286 0.42444
 C41 C 0.17847 0.21900 0.43280
 C42 C 1.18889 0.07383 0.12572
 H43 H 1.19129 0.13162 0.12672
 C44 C 1.24546 0.07054 0.10660
 H45 H 1.29146 0.12640 0.09304
 C46 C 1.12706 -0.06816 0.14318
 H47 H 1.08168 -0.12162 0.15806
 C48 C 1.18207 -0.07453 0.12393
 H49 H 1.17748 -0.13360 0.12481
 N50 N 1.13064 0.00504 0.14317
 C51 C 0.93040 0.04691 0.15321
 H52 H 0.92995 0.05052 0.17958
 C53 C 0.86574 0.04086 0.13400
 H54 H 0.81769 0.04356 0.14572
 C55 C 0.99328 0.03726 0.10637
 H56 H 1.04166 0.03309 0.09583
 C57 C 0.93017 0.03155 0.08626
 H58 H 0.93277 0.02639 0.06014
 Zn59 Zn 1.06043 0.02163 0.16815
 N60 N 0.99112 0.04236 0.13939
 C61 C 1.13013 0.18228 0.19030
 N62 N 1.12788 0.10925 0.19259
 C63 C 1.17837 0.09414 0.21269
 C64 C 1.23294 0.15264 0.23215
 C65 C 1.18531 0.24369 0.20905
 C66 C 0.93683 -0.14117 0.18523
 C67 C 0.87514 -0.20478 0.20560
 C68 C 0.92848 -0.12367 0.25140
 C69 C 0.98896 -0.06196 0.23027
 N70 N 0.99184 -0.07124 0.19777
 H71 H 1.08950 0.19296 0.17396
 H72 H 1.17492 0.03528 0.21401
 H73 H 1.26816 0.13537 0.24903
 H74 H 1.18585 0.30123 0.20737
 H75 H 0.93808 -0.14564 0.15898
 H76 H 0.82947 -0.25773 0.19459
 H77 H 0.92503 -0.11199 0.27654
 H78 H 1.03015 -0.00458 0.23953
 C79 C 0.86274 0.02831 0.10036
 C80 C 1.24168 -0.00461 0.10462
 C81 C 0.87017 -0.19665 0.23930
 C82 C 1.23885 0.22990 0.23007
 C83 C 0.07788 0.90467 0.87982
 H84 H 0.02233 0.84738 0.87847
 C85 C 0.14039 0.90667 0.89923
 H86 H 0.13232 0.85034 0.91275
 C87 C 0.15603 1.04665 0.86267
 H88 H 0.16223 1.10060 0.84776
 C89 C 0.22012 1.05165 0.88207
 H90 H 0.27463 1.11021 0.88124
 N91 N 0.08635 0.97409 0.86231
 C92 C -0.15317 0.94203 0.84859
 H93 H -0.15882 0.94283 0.82194
 C94 C -0.20926 0.94759 0.86737
 H95 H -0.25978 0.94821 0.85472
 C96 C -0.07961 0.94030 0.89669
 H97 H -0.02777 0.93993 0.90800
 C98 C -0.13433 0.94537 0.91642
 H99 H -0.12496 0.94548 0.94292
 Zn100 Zn -0.00176 0.96144 0.83585
 N101 N -0.08861 0.94106 0.86329
 C102 C -0.10115 0.81179 0.80629
 N103 N -0.02593 0.87544 0.81028
 C104 C 0.03979 0.88077 0.79627
 C105 C 0.03162 0.82125 0.77713
 C106 C -0.11239 0.75124 0.78659
 C107 C 0.03268 1.12369 0.82114
 C108 C 0.03355 1.18951 0.80131
 C109 C 0.01547 1.11876 0.75331
 C110 C 0.01495 1.05442 0.77403
 N111 N 0.02232 1.05744 0.80734
 H112 H -0.15243 0.80818 0.81816
 H113 H 0.09904 0.93164 0.80013
 H114 H 0.08523 0.82681 0.76648
 H115 H -0.17291 0.70182 0.78390
 H116 H 0.03530 1.12317 0.84784
 H117 H 0.03668 1.23878 0.81330
 H118 H 0.00479 1.11265 0.72714
 H119 H 0.00387 1.00009 0.76362
 C120 C -0.19781 0.95462 0.90172
 C121 C 0.21247 0.98107 0.90130
 C122 C 0.02456 1.18772 0.76676
 C123 C -0.04525 0.75603 0.77122
 C124 C 0.45753 -0.02315 -0.01474
 C125 C 0.47080 -0.00438 0.01916
 C126 C 0.53896 -0.00231 0.03479
 C127 C 0.59785 -0.01139 0.01910
 C128 C 0.59221 -0.01450 -0.01624
 C129 C 0.52014 -0.02471 -0.03112
 H130 H 0.51336 -0.03289 -0.05698
 H131 H 0.54646 0.00617 0.06059
 C132 C -0.05285 0.41398 0.64925
 C133 C -0.04398 0.40926 0.68452
 C134 C -0.05465 0.46410 0.70124
 C135 C -0.05297 0.53522 0.68533
 C136 C -0.05648 0.54295 0.64958
 C137 C -0.05082 0.48472 0.63315
 H138 H -0.04392 0.49458 0.60644
 H139 H -0.06223 0.45161 0.72790
 C140 C 0.58483 0.58956 0.31633
 C141 C 0.56531 0.59801 0.34890
 C142 C 0.49756 0.53001 0.36530
 C143 C 0.44200 0.46072 0.34995
 C144 C 0.44902 0.46615 0.31444
 C145 C 0.52301 0.52757 0.29949
 H146 H 0.53359 0.52650 0.27372
 H147 H 0.48714 0.53189 0.39102
 C148 C -0.06773 0.25560 0.58297
 C149 C 0.01585 0.33123 0.58598
 C150 C 0.01879 0.38030 0.60821
 C151 C -0.06175 0.35139 0.62594
 C152 C -0.12097 0.34080 0.59710
 C153 C -0.12324 0.29192 0.57451
 C154 C -0.09334 0.21313 0.61842
 C155 C -0.09256 0.26201 0.64045
 H156 H 0.06777 0.34766 0.57052
 H157 H 0.07342 0.43717 0.61193
 H158 H -0.15903 0.36827 0.59487
 H159 H -0.16074 0.28131 0.55284
 H160 H -0.12018 0.14747 0.62467
 H161 H -0.12386 0.23499 0.66391
 C162 C 0.79602 0.74270 0.26047
 C163 C 0.72989 0.76559 0.25608
 C164 C 0.66189 0.71440 0.27427
 C165 C 0.66503 0.64494 0.29658
 C166 C 0.68722 0.60189 0.27214
 C167 C 0.75496 0.65295 0.25317
 C168 C 0.81042 0.73686 0.29803
 C169 C 0.74278 0.68494 0.31662
 H170 H 0.73491 0.81627 0.23884
 H171 H 0.60883 0.72114 0.27215
 H172 H 0.65704 0.53607 0.27185
 H173 H 0.78048 0.62997 0.23691
 H174 H 0.86985 0.75985 0.30864
 H175 H 0.74831 0.66260 0.34168
 C176 C 0.27870 -0.01873 -0.07636
 C177 C 0.35180 0.06475 -0.07082
 C178 C 0.40846 0.05982 -0.05117
 C179 C 0.38796 -0.02728 -0.03715
 C180 C 0.30292 -0.06889 -0.02148
 C181 C 0.24728 -0.06144 -0.04119
 C182 C 0.31508 -0.06673 -0.08905
 C183 C 0.37075 -0.07248 -0.06855
 H184 H 0.35956 0.12375 -0.08061
 H185 H 0.46357 0.11419 -0.04546
 H186 H 0.28384 -0.11121 0.00080
 H187 H 0.18421 -0.09204 -0.03366
 H188 H 0.29398 -0.09921 -0.11086
 H189 H 0.39237 -0.11369 -0.07269
 C190 C -0.05645 0.73437 0.58737
 C191 C 0.02648 0.74743 0.59766
 C192 C 0.02433 0.68361 0.61736
 C193 C -0.06067 0.61189 0.62661
 C194 C -0.10862 0.64788 0.63979
 C195 C -0.10511 0.71241 0.61993
 C196 C -0.09745 0.65301 0.57194
 C197 C -0.10050 0.58900 0.59242
 H198 H 0.08278 0.80153 0.58909
 H199 H 0.07902 0.68338 0.62536
 H200 H -0.15442 0.61628 0.65903
 H201 H -0.14620 0.73414 0.62422
 H202 H -0.12796 0.64459 0.54837
 H203 H -0.13563 0.52687 0.58602
 C204 C 0.29628 0.29474 0.25186
 C205 C 0.25098 0.30203 0.28032
 C206 C 0.29868 0.36081 0.29998
 C207 C 0.38919 0.40468 0.29123
 C208 C 0.41069 0.33800 0.28855
 C209 C 0.36309 0.28117 0.26841
 C210 C 0.34276 0.38236 0.23404
 C211 C 0.39020 0.43985 0.25455
 H212 H 0.18568 0.27101 0.28224
 H213 H 0.27213 0.38172 0.31647
 H214 H 0.46336 0.33881 0.29995
 H215 H 0.37926 0.23731 0.26217
 H216 H 0.33639 0.39846 0.20797
 H217 H 0.42114 0.50463 0.24573
 C218 C 0.74926 -0.03306 -0.07803
 C219 C 0.70486 0.00374 -0.09582
 C220 C 0.65281 0.01312 -0.07460
 C221 C 0.65341 -0.01699 -0.03948
 C222 C 0.63530 -0.10116 -0.03998
 C223 C 0.68805 -0.10989 -0.06061
 C224 C 0.79120 0.02119 -0.05230
 C225 C 0.73865 0.03111 -0.03168
 H226 H 0.72160 0.03759 -0.12037
 H227 H 0.63074 0.05476 -0.08298
 H228 H 0.58449 -0.15373 -0.02668
 H229 H 0.68024 -0.16935 -0.06383
 H230 H 0.85572 0.06380 -0.05307
 H231 H 0.76286 0.08501 -0.01890
 C232 C 0.30235 -0.00620 0.08201
 C233 C 0.38919 0.04064 0.09435
 C234 C 0.44576 0.04542 0.07352
 C235 C 0.41082 0.00049 0.04214
 C236 C 0.34673 -0.08628 0.05626
 C237 C 0.28983 -0.09023 0.07629
 C238 C 0.30661 0.03676 0.04691
 C239 C 0.36506 0.04332 0.02689
 H240 H 0.40549 0.07317 0.11618
 H241 H 0.50933 0.08602 0.07742
 H242 H 0.34567 -0.14109 0.05041
 H243 H 0.24057 -0.14881 0.08635
 H244 H 0.27319 0.06815 0.03964
 H245 H 0.38393 0.08576 0.00465
 C246 C 0.70049 0.79201 0.40460
 C247 C 0.71951 0.72624 0.40928
 C248 C 0.67161 0.66048 0.39026
 C249 C 0.61414 0.67208 0.36898
 C250 C 0.56603 0.68653 0.39179
 C251 C 0.61359 0.75228 0.41156
 C252 C 0.70747 0.81740 0.36879
 C253 C 0.65915 0.75178 0.34942
 H254 H 0.76267 0.72413 0.42705
 H255 H 0.67516 0.60480 0.39306
 H256 H 0.50116 0.66050 0.39035
 H257 H 0.58593 0.77735 0.42562
 H258 H 0.73036 0.88050 0.35824
 H259 H 0.64055 0.76577 0.32525
 C260 C 0.01133 0.25091 0.74498
 C261 C -0.07877 0.22104 0.74085
 C262 C -0.09524 0.27379 0.72136
 C263 C -0.02072 0.35195 0.70634
 C264 C 0.03047 0.38854 0.73698
 C265 C 0.04664 0.33585 0.75716
 C266 C 0.04651 0.27106 0.70954
 C267 C 0.03131 0.32473 0.68977
 H268 H -0.12604 0.16373 0.75319
 H269 H -0.15652 0.26137 0.71718
 H270 H 0.05840 0.45253 0.74087
 H271 H 0.08763 0.35618 0.77767
 H272 H 0.08881 0.25360 0.70197
 H273 H 0.06382 0.35381 0.66655
 C274 C 0.78969 0.01331 0.07936
 C275 C 0.77170 -0.04433 0.05257
 C276 C 0.70719 -0.05635 0.03354
 C277 C 0.66743 -0.00712 0.04152
 C278 C 0.64505 -0.03800 0.07882
 C279 C 0.70861 -0.02653 0.09846
 C280 C 0.79910 0.09247 0.06081
 C281 C 0.73560 0.08208 0.04171
 H282 H 0.79871 -0.08255 0.05202
 H283 H 0.67952 -0.10715 0.01894
 H284 H 0.58374 -0.07578 0.08846
 H285 H 0.69953 -0.05323 0.12415
 H286 H 0.85070 0.15248 0.06332
 H287 H 0.73324 0.13361 0.02811
 C288 C 0.25035 0.28456 0.41141
 C289 C 0.33090 0.32524 0.42966
 C290 C 0.39504 0.38040 0.40951
 C291 C 0.37304 0.39222 0.37275
 C292 C 0.33292 0.30415 0.36361
 C293 C 0.26780 0.24905 0.38290
 C294 C 0.24248 0.35760 0.39502
 C295 C 0.30582 0.41275 0.37524
 H296 H 0.33770 0.30971 0.45574
 H297 H 0.45613 0.40869 0.41864
 H298 H 0.35960 0.28335 0.34713
 H299 H 0.23791 0.18395 0.38071
 H300 H 0.19674 0.37164 0.40118
 H301 H 0.31047 0.46980 0.36403
 C302 C -0.05105 0.69495 0.74847
 C303 C -0.00997 0.64673 0.76310
 C304 C -0.00772 0.59654 0.74234
 C305 C -0.04894 0.59643 0.70858
 C306 C -0.13366 0.57749 0.71852
 C307 C -0.13514 0.62892 0.73871
 C308 C -0.00619 0.73817 0.71523
 C309 C -0.00219 0.68770 0.69538
 H310 H 0.01935 0.65518 0.78695
 H311 H 0.02679 0.56594 0.74856
 H312 H -0.18863 0.52674 0.71034
 H313 H -0.19177 0.62135 0.74678
 H314 H 0.02863 0.80420 0.70958
 H315 H 0.04193 0.71315 0.67553
   
