data_POSCAR
  _audit_creation_date              2014-09-24
  _audit_creation_method            'ToBaCCo'
  _symmetry_space_group_name_H-M    'P1'
  _symmetry_Int_Tables_number       1
  _symmetry_cell_setting            triclinic
  loop_
  _symmetry_equiv_pos_as_xyz
 x,y,z
_cell_length_a 47.7912
_cell_length_b 48.4045
_cell_length_c 47.4668
_cell_angle_alpha 89.618000
_cell_angle_beta 90.145700
_cell_angle_gamma 89.795200
loop_
  _atom_site_label
  _atom_site_type_symbol
  _atom_site_fract_x
  _atom_site_fract_y
  _atom_site_fract_z
C1 C 0.16869 0.18526 0.20772
 C2 C 0.17051 0.20725 0.18836
 C3 C 0.19208 0.20790 0.16891
 C4 C 0.21175 0.18633 0.16818
 C5 C 0.20969 0.16468 0.18703
 C6 C 0.18840 0.16440 0.20720
 C7 C 0.15017 0.17895 0.22902
 N8 N 0.15854 0.15496 0.24185
 C9 C 0.18195 0.14602 0.22828
 C10 C 0.23021 0.14592 0.18053
 N11 N 0.24499 0.15548 0.15799
 C12 C 0.23386 0.18053 0.15060
 C13 C 0.18845 0.23123 0.15261
 N14 N 0.16514 0.24467 0.16153
 C15 C 0.15399 0.23013 0.18335
 H16 H 0.13255 0.19161 0.23517
 H17 H 0.19328 0.12709 0.23265
 H18 H 0.23394 0.12676 0.19179
 H19 H 0.24014 0.19310 0.13280
 H20 H 0.20137 0.23758 0.13503
 H21 H 0.13521 0.23577 0.19469
 C22 C -0.16109 0.80922 0.20486
 C23 C -0.15812 0.79112 0.18213
 C24 C -0.17704 0.79208 0.16006
 C25 C -0.19899 0.81136 0.16029
 C26 C -0.20191 0.82919 0.18266
 C27 C -0.18262 0.82831 0.20499
 C28 C -0.14541 0.81336 0.22874
 N29 N -0.15650 0.83492 0.24338
 C30 C -0.17938 0.84409 0.22876
 C31 C -0.22472 0.84577 0.17700
 N32 N -0.23568 0.83873 0.15147
 C33 C -0.21979 0.81760 0.14122
 C34 C -0.16881 0.77255 0.14081
 N35 N -0.14522 0.75999 0.15059
 C36 C -0.13849 0.77126 0.17583
 H37 H -0.12644 0.80222 0.23406
 H38 H -0.19311 0.86080 0.23488
 H39 H -0.23188 0.86243 0.19025
 H40 H -0.22317 0.80688 0.12160
 H41 H -0.17890 0.76817 0.12090
 H42 H -0.12069 0.76534 0.18871
 C43 C -0.15864 0.18244 -0.19910
 C44 C -0.16164 0.20619 -0.18258
 C45 C -0.18312 0.20789 -0.16315
 C46 C -0.20166 0.18570 -0.15976
 C47 C -0.19818 0.16208 -0.17548
 C48 C -0.17655 0.16045 -0.19530
 C49 C -0.14027 0.17530 -0.22014
 N50 N -0.14641 0.14931 -0.22919
 C51 C -0.16855 0.14013 -0.21371
 C52 C -0.21858 0.14377 -0.16739
 N53 N -0.23479 0.15567 -0.14716
 C54 C -0.22435 0.18146 -0.14249
 C55 C -0.18027 0.23267 -0.14937
 N56 N -0.15735 0.24580 -0.15967
 C57 C -0.14593 0.22982 -0.18010
 H58 H -0.12338 0.18813 -0.22774
 H59 H -0.17913 0.12059 -0.21631
 H60 H -0.22163 0.12358 -0.17647
 H61 H -0.23198 0.19607 -0.12715
 H62 H -0.19304 0.23994 -0.13212
 H63 H -0.12712 0.23468 -0.19175
 C64 C 0.16023 0.82551 -0.19988
 C65 C 0.16081 0.80277 -0.18144
 C66 C 0.18266 0.79961 -0.16251
 C67 C 0.20400 0.81940 -0.16151
 C68 C 0.20296 0.84218 -0.17912
 C69 C 0.18095 0.84522 -0.19853
 C70 C 0.14201 0.83342 -0.22088
 N71 N 0.15098 0.85767 -0.23249
 C72 C 0.17478 0.86506 -0.21852
 C73 C 0.22569 0.85836 -0.17280
 N74 N 0.24084 0.84592 -0.15183
 C75 C 0.22751 0.82192 -0.14498
 C76 C 0.17730 0.77625 -0.14674
 N77 N 0.15257 0.76545 -0.15543
 C78 C 0.14241 0.78147 -0.17674
 H79 H 0.12328 0.82232 -0.22669
 H80 H 0.18757 0.88290 -0.22313
 H81 H 0.23086 0.87751 -0.18339
 H82 H 0.23360 0.80763 -0.12844
 H83 H 0.18986 0.76836 -0.12944
 H84 H 0.12280 0.77814 -0.18766
 C85 C 0.17990 1.15666 0.79762
 C86 C 0.20266 1.15804 0.81625
 C87 C 0.20384 1.17870 0.83627
 C88 C 0.18197 1.19810 0.83809
 C89 C 0.15926 1.19616 0.82021
 C90 C 0.15825 1.17539 0.79982
 C91 C 0.17318 1.13888 0.77614
 N92 N 0.14775 1.14621 0.76524
 C93 C 0.13854 1.16856 0.77997
 C94 C 0.14065 1.21653 0.82748
 N95 N 0.15141 1.23126 0.84934
 C96 C 0.17689 1.21998 0.85581
 C97 C 0.22738 1.17387 0.85242
 N98 N 0.24018 1.15062 0.84291
 C99 C 0.22528 1.14093 0.82069
 H100 H 0.18577 1.12142 0.76971
 H101 H 0.11931 1.17985 0.77618
 H102 H 0.12097 1.22049 0.81688
 H103 H 0.19047 1.22634 0.87282
 H104 H 0.23386 1.18549 0.87071
 H105 H 0.23006 1.12228 0.80917
 C106 C 0.81067 0.82686 0.79000
 C107 C 0.78907 0.82631 0.80993
 C108 C 0.78859 0.80587 0.83046
 C109 C 0.80957 0.78548 0.83106
 C110 C 0.83079 0.78610 0.81141
 C111 C 0.83118 0.80675 0.79055
 C112 C 0.81692 0.84471 0.76825
 N113 N 0.84063 0.83576 0.75515
 C114 C 0.84932 0.81238 0.76884
 C115 C 0.84870 0.76461 0.81758
 N116 N 0.83886 0.75053 0.84047
 C117 C 0.81471 0.76329 0.84866
 C118 C 0.76586 0.81107 0.84744
 N119 N 0.75245 0.83396 0.83749
 C120 C 0.76648 0.84337 0.81453
 H121 H 0.80446 0.86248 0.76218
 H122 H 0.86805 0.80066 0.76427
 H123 H 0.86720 0.75949 0.80562
 H124 H 0.80214 0.75774 0.86673
 H125 H 0.75951 0.79910 0.86566
 H126 H 0.76101 0.86168 0.80248
 C127 C 0.17910 0.84004 1.20028
 C128 C 0.20093 0.83795 1.18066
 C129 C 0.20042 0.81744 1.16049
 C130 C 0.17783 0.79902 1.15938
 C131 C 0.15600 0.80158 1.17829
 C132 C 0.15670 0.82220 1.19891
 C133 C 0.17450 0.85734 1.22268
 N134 N 0.14966 0.85063 1.23508
 C135 C 0.13866 0.82915 1.22027
 C136 C 0.13672 0.78150 1.17193
 N137 N 0.14641 0.76669 1.14977
 C138 C 0.17157 0.77722 1.14198
 C139 C 0.22388 0.82073 1.14402
 N140 N 0.23837 0.84294 1.15350
 C141 C 0.22452 0.85352 1.17597
 H142 H 0.18824 0.87393 1.22891
 H143 H 0.11947 0.81836 1.22511
 H144 H 0.11719 0.77775 1.18279
 H145 H 0.18417 0.76982 1.12465
 H146 H 0.22947 0.80852 1.12584
 H147 H 0.23097 0.87146 1.18781
 C148 C 0.80952 1.17860 1.20962
 C149 C 0.78867 1.17733 1.18883
 C150 C 0.78618 1.19834 1.16907
 C151 C 0.80481 1.22064 1.16952
 C152 C 0.82551 1.22173 1.18990
 C153 C 0.82758 1.20077 1.21034
 C154 C 0.81701 1.16107 1.23129
 N155 N 0.83903 1.17218 1.24559
 C156 C 0.84551 1.19658 1.23266
 C157 C 0.84173 1.24445 1.18405
 N158 N 0.83132 1.25718 1.16067
 C159 C 0.80859 1.24290 1.15177
 C160 C 0.76447 1.19158 1.15138
 N161 N 0.75378 1.16693 1.15986
 C162 C 0.76852 1.15801 1.18270
 H163 H 0.80642 1.14202 1.23653
 H164 H 0.86257 1.21010 1.23829
 H165 H 0.86020 1.25085 1.19550
 H166 H 0.79658 1.24756 1.13295
 H167 H 0.75726 1.20349 1.13338
 H168 H 0.76469 1.13899 1.19416
 O169 O 0.54035 0.94817 0.95254
 O170 O 0.57173 0.97129 0.98033
 C171 C 0.56570 0.95375 0.96071
 O172 O 0.46781 1.05152 0.95169
 O173 O 0.43499 1.02660 0.97604
 C174 C 0.44208 1.04564 0.95812
 O175 O 0.54620 1.04408 0.95155
 O176 O 0.57460 1.01691 0.97934
 C177 C 0.57064 1.03521 0.95965
 O178 O 0.46137 0.95005 0.95374
 O179 O 0.43195 0.97934 0.97747
 C180 C 0.43661 0.95936 0.96002
 Zr181 Zr 0.50141 0.96342 0.96751
 O182 O 0.49911 0.96258 0.92299
 O183 O 0.50212 0.91970 0.96891
 Zr184 Zr 0.50570 1.03316 0.96593
 O185 O 0.50357 1.03148 0.92140
 O186 O 0.51150 1.07647 0.96401
 O187 O 0.52857 0.99666 0.96189
 O188 O 0.47943 0.99978 0.96091
 O189 O 0.45910 0.95147 1.05076
 O190 O 0.43076 0.97991 1.02428
 C191 C 0.43462 0.96036 1.04274
 O192 O 0.54379 1.04548 1.05331
 O193 O 0.57350 1.01761 1.02831
 C194 C 0.56860 1.03647 1.04697
 O195 O 0.46581 1.05336 1.04824
 O196 O 0.43394 1.02737 1.02392
 C197 C 0.44040 1.04716 1.04100
 O198 O 0.53778 0.94980 1.05640
 O199 O 0.57045 0.97143 1.02874
 C200 C 0.56345 0.95483 1.04905
 Zr201 Zr 0.49972 0.96451 1.03860
 O202 O 0.49525 0.96499 1.08294
 O203 O 0.50052 0.92077 1.03918
 Zr204 Zr 0.50409 1.03423 1.03722
 O205 O 0.49965 1.03377 1.08161
 O206 O 0.51000 1.07753 1.03784
 Zr207 Zr 0.54420 0.99628 1.00348
 Zr208 Zr 0.46125 1.00162 1.00121
 O209 O 0.47753 1.00103 1.04244
 O210 O 0.52668 0.99790 1.04415
 O211 O 0.47530 0.96025 1.00248
 O212 O 0.52937 1.03725 1.00214
 O213 O 0.52456 0.95742 1.00383
 O214 O 0.48040 1.04078 1.00078
 H215 H 0.46713 1.00033 0.94408
 H216 H 0.54292 1.05270 1.00218
 H217 H 0.46440 1.00209 1.05852
 H218 H 0.53628 0.94050 1.00448
 H219 H 0.49707 1.08501 0.97608
 H220 H 0.49715 1.08568 1.02367
 H221 H 0.51597 1.02381 1.08962
 H222 H 0.51039 0.97667 1.09055
 H223 H 0.48449 0.91432 1.02780
 H224 H 0.48551 0.91360 0.97965
 H225 H 0.51471 0.97390 0.91571
 H226 H 0.52014 1.02109 0.91480
 O227 O -0.04759 0.46046 0.04227
 O228 O -0.01921 0.42984 0.01913
 C229 C -0.03977 0.43554 0.03593
 O230 O -0.03965 0.53776 -0.05759
 O231 O -0.01480 0.56790 -0.03008
 C232 C -0.03242 0.56253 -0.05014
 O233 O -0.04236 0.46000 -0.05462
 O234 O -0.01665 0.42966 -0.02762
 C235 C -0.03530 0.43514 -0.04676
 O236 O -0.04502 0.53794 0.04396
 O237 O -0.01765 0.56809 0.01878
 C238 C -0.03721 0.56270 0.03692
 Zr239 Zr -0.03069 0.49905 0.02977
 O240 O -0.07483 0.50242 0.02753
 O241 O -0.03264 0.49623 0.07426
 Zr242 Zr -0.02664 0.49881 -0.04134
 O243 O -0.07065 0.50203 -0.04525
 O244 O -0.02275 0.49570 -0.08564
 O245 O -0.03429 0.47438 -0.00585
 O246 O -0.03363 0.52291 -0.00630
 O247 O 0.05305 0.53719 0.04991
 O248 O 0.02898 0.56763 0.02153
 C249 C 0.04633 0.56207 0.04188
 O250 O 0.06087 0.45924 -0.04828
 O251 O 0.03142 0.42932 -0.02538
 C252 C 0.05251 0.43452 -0.04169
 O253 O 0.05859 0.53685 -0.05207
 O254 O 0.03172 0.56750 -0.02719
 C255 C 0.05106 0.56179 -0.04541
 O256 O 0.05495 0.45943 0.04852
 O257 O 0.02908 0.42944 0.02191
 C258 C 0.04758 0.43467 0.04114
 Zr259 Zr 0.03995 0.49842 0.03412
 O260 O 0.08405 0.50098 0.03731
 O261 O 0.03660 0.49563 0.07852
 Zr262 Zr 0.04392 0.49820 -0.03707
 O263 O 0.08809 0.50094 -0.03555
 O264 O 0.04530 0.49485 -0.08151
 Zr265 Zr 0.00641 0.45760 -0.00317
 Zr266 Zr 0.00688 0.53969 -0.00399
 O267 O 0.04719 0.52219 -0.00141
 O268 O 0.04730 0.47366 -0.00090
 O269 O 0.00445 0.52344 0.03724
 O270 O 0.00880 0.47444 -0.04408
 O271 O 0.00419 0.47477 0.03736
 O272 O 0.00909 0.52321 -0.04494
 H273 H -0.05006 0.53542 -0.00736
 H274 H 0.00964 0.46174 -0.06035
 H275 H 0.06374 0.53444 -0.00058
 H276 H 0.00318 0.46226 0.05393
 H277 H -0.01284 0.51238 -0.09239
 H278 H 0.03561 0.51121 -0.08952
 H279 H 0.09476 0.48699 -0.02177
 H280 H 0.09204 0.48586 0.02592
 H281 H 0.02593 0.51196 0.08494
 H282 H -0.02225 0.51213 0.08198
 H283 H -0.08162 0.48735 0.01536
 H284 H -0.07891 0.48821 -0.03233
 O285 O 1.03937 -0.05196 0.45773
 O286 O 1.01367 -0.02453 0.42763
 C287 C 1.03121 -0.04445 0.43267
 O288 O 0.94258 -0.04516 0.53988
 O289 O 0.97092 -0.02084 0.56987
 C290 C 0.95083 -0.03813 0.56491
 O291 O 0.94279 -0.04784 0.46077
 O292 O 0.96753 -0.02165 0.42906
 C293 C 0.94925 -0.04043 0.43525
 O294 O 1.04371 -0.05030 0.53710
 O295 O 1.01966 -0.02333 0.56852
 C296 C 1.03775 -0.04242 0.56253
 Zr297 Zr 1.02782 -0.03615 0.49774
 O298 O 1.02538 -0.07973 0.50093
 O299 O 1.07186 -0.03848 0.49356
 Zr300 Zr 0.95711 -0.03212 0.49981
 O301 O 0.95330 -0.07554 0.50318
 O302 O 0.91301 -0.02808 0.49785
 O303 O 0.99140 -0.03952 0.47378
 O304 O 0.99297 -0.03920 0.52323
 O305 O 1.04980 0.04501 0.53637
 O306 O 1.02188 0.02224 0.56810
 C307 C 1.04246 0.03853 0.56191
 O308 O 0.94795 0.05448 0.45993
 O309 O 0.97033 0.02604 0.42875
 C310 C 0.95384 0.04652 0.43451
 O311 O 0.94787 0.05229 0.53917
 O312 O 0.97362 0.02518 0.56945
 C313 C 0.95557 0.04466 0.56432
 O314 O 1.04421 0.04841 0.45714
 O315 O 1.01600 0.02384 0.42723
 C316 C 1.03520 0.04205 0.43216
 Zr317 Zr 1.03167 0.03353 0.49730
 O318 O 1.03409 0.07707 0.50043
 O319 O 1.07564 0.03114 0.49258
 Zr320 Zr 0.96089 0.03761 0.49932
 O321 O 0.96220 0.08121 0.50194
 O322 O 0.91662 0.03878 0.49756
 Zr323 Zr 0.99302 0.00080 0.45681
 Zr324 Zr 0.99563 0.00070 0.54038
 O325 O 0.99736 0.04062 0.52264
 O326 O 0.99580 0.04104 0.47330
 O327 O 1.03593 -0.00167 0.52249
 O328 O 0.95310 0.00306 0.47521
 O329 O 1.03403 -0.00152 0.47286
 O330 O 0.95430 0.00303 0.52491
 H331 H 0.99256 -0.05543 0.53605
 H332 H 0.93648 0.00396 0.46271
 H333 H 0.99884 0.05680 0.53522
 H334 H 1.04990 -0.00231 0.45950
 H335 H 0.90690 -0.01844 0.51511
 H336 H 0.90953 0.02956 0.51476
 H337 H 0.97562 0.08775 0.48757
 H338 H 1.02310 0.08506 0.48467
 H339 H 1.08286 0.01882 0.50766
 H340 H 1.08019 -0.02825 0.50947
 H341 H 1.01415 -0.08631 0.48479
 H342 H 0.96687 -0.08370 0.48990
 C343 C 1.16099 0.12260 0.28090
 C344 C 1.14845 0.10954 0.30388
 C345 C 1.12060 0.11496 0.31061
 C346 C 1.10538 0.13425 0.29449
 C347 C 1.11808 0.14798 0.27186
 C348 C 1.14608 0.14213 0.26440
 N349 N 1.10848 0.10080 0.33410
 N350 N 1.08217 0.09870 0.33740
 C351 C 1.07068 0.08474 0.36138
 C352 C 1.04297 0.07556 0.36040
 C353 C 1.03150 0.06127 0.38329
 C354 C 1.04747 0.05660 0.40779
 C355 C 1.07509 0.06629 0.40894
 C356 C 1.08672 0.08000 0.38581
 H357 H 1.18272 0.11788 0.27685
 H358 H 1.16046 0.09490 0.31638
 H359 H 1.08378 0.13885 0.29951
 H360 H 1.10552 0.16242 0.25977
 H361 H 1.03038 0.07917 0.34173
 H362 H 1.01004 0.05424 0.38201
 H363 H 1.08781 0.06293 0.42758
 H364 H 1.10814 0.08709 0.38709
 C365 C 0.87317 -0.16911 0.28472
 C366 C 0.88481 -0.15742 0.30888
 C367 C 0.87847 -0.13022 0.31619
 C368 C 0.85935 -0.11508 0.29974
 C369 C 0.84705 -0.12691 0.27599
 C370 C 0.85419 -0.15400 0.26765
 N371 N 0.89211 -0.11820 0.34000
 N372 N 0.89416 -0.09214 0.34254
 C373 C 0.90762 -0.07969 0.36618
 C374 C 0.91657 -0.05231 0.36383
 C375 C 0.93038 -0.03967 0.38622
 C376 C 0.93475 -0.05403 0.41167
 C377 C 0.92527 -0.08137 0.41425
 C378 C 0.91206 -0.09425 0.39153
 H379 H 0.87874 -0.19021 0.27992
 H380 H 0.89935 -0.16938 0.32159
 H381 H 0.85400 -0.09402 0.30517
 H382 H 0.83298 -0.11418 0.26361
 H383 H 0.91320 -0.04089 0.34441
 H384 H 0.93733 -0.01856 0.38376
 H385 H 0.92848 -0.09289 0.43363
 H386 H 0.90513 -0.11541 0.39382
 C387 C 0.86394 0.10630 0.74708
 C388 C 0.87659 0.09210 0.72494
 C389 C 0.89145 0.10641 0.70422
 C390 C 0.89451 0.13513 0.70640
 C391 C 0.88259 0.14934 0.72896
 C392 C 0.86660 0.13525 0.74948
 N393 N 0.90308 0.09140 0.68114
 N394 N 0.90873 0.10310 0.65776
 C395 C 0.92069 0.08821 0.63477
 C396 C 0.91824 0.09906 0.60750
 C397 C 0.92921 0.08474 0.58454
 C398 C 0.94348 0.05955 0.58861
 C399 C 0.94654 0.04908 0.61616
 C400 C 0.93492 0.06308 0.63902
 H401 H 0.85269 0.09430 0.76260
 H402 H 0.87435 0.06989 0.72362
 H403 H 0.90614 0.14656 0.69066
 H404 H 0.88502 0.17152 0.72943
 H405 H 0.90745 0.11850 0.60400
 H406 H 0.92679 0.09358 0.56365
 H407 H 0.95788 0.03006 0.62010
 H408 H 0.93739 0.05450 0.66000
 C409 C 1.14511 -0.10035 0.73985
 C410 C 1.13270 -0.08626 0.71721
 C411 C 1.11429 -0.09985 0.69914
 C412 C 1.10775 -0.12763 0.70435
 C413 C 1.11954 -0.14161 0.72734
 C414 C 1.13872 -0.12834 0.74542
 N415 N 1.10228 -0.08506 0.67582
 N416 N 1.09166 -0.09759 0.65490
 C417 C 1.07879 -0.08313 0.63184
 C418 C 1.07412 -0.09718 0.60661
 C419 C 1.06127 -0.08379 0.58382
 C420 C 1.05224 -0.05626 0.58622
 C421 C 1.05676 -0.04222 0.61165
 C422 C 1.07019 -0.05546 0.63422
 H423 H 1.15907 -0.08888 0.75333
 H424 H 1.13771 -0.06473 0.71354
 H425 H 1.09339 -0.13852 0.69072
 H426 H 1.11421 -0.16313 0.73011
 H427 H 1.08057 -0.11855 0.60460
 H428 H 1.05786 -0.09513 0.56452
 H429 H 1.05009 -0.02094 0.61399
 H430 H 1.07343 -0.04426 0.65361
 C431 C 0.27025 1.11310 1.14845
 C432 C 0.29154 1.09907 1.13441
 C433 C 0.30989 1.11329 1.11677
 C434 C 0.30650 1.14186 1.11281
 C435 C 0.28477 1.15593 1.12631
 C436 C 0.26632 1.14183 1.14459
 N437 N 0.33163 1.09815 1.10307
 N438 N 0.35277 1.10988 1.09210
 C439 C 0.37413 1.09424 1.07833
 C440 C 0.40049 1.10608 1.07435
 C441 C 0.42212 1.09077 1.06221
 C442 C 0.41743 1.06355 1.05324
 C443 C 0.39070 1.05201 1.05647
 C444 C 0.36929 1.06712 1.06918
 H445 H 0.25640 1.10097 1.16150
 H446 H 0.29388 1.07698 1.13743
 H447 H 0.32049 1.15324 1.09914
 H448 H 0.28312 1.17798 1.12293
 H449 H 0.40443 1.12700 1.08123
 H450 H 0.44248 1.10024 1.05974
 H451 H 0.38653 1.03111 1.04973
 H452 H 0.34897 1.05764 1.07184
 C453 C 0.28253 0.83855 0.87661
 C454 C 0.30669 0.84891 0.88934
 C455 C 0.31338 0.87688 0.88697
 C456 C 0.29601 0.89440 0.87097
 C457 C 0.27219 0.88405 0.85766
 C458 C 0.26474 0.85595 0.86049
 N459 N 0.33771 0.88714 0.90108
 N460 N 0.34082 0.91281 0.90568
 C461 C 0.36505 0.92372 0.91935
 C462 C 0.36387 0.95056 0.92993
 C463 C 0.38702 0.96194 0.94350
 C464 C 0.41208 0.94684 0.94609
 C465 C 0.41338 0.91995 0.93514
 C466 C 0.38993 0.90834 0.92209
 H467 H 0.27838 0.81673 0.87893
 H468 H 0.32006 0.83514 0.90145
 H469 H 0.30086 0.91614 0.86873
 H470 H 0.25923 0.89852 0.84608
 H471 H 0.34483 0.96262 0.92787
 H472 H 0.38541 0.98271 0.95162
 H473 H 0.43240 0.90782 0.93692
 H474 H 0.39133 0.88757 0.91388
 C475 C 0.73718 0.84752 1.10909
 C476 C 0.71463 0.86044 1.09558
 C477 C 0.69572 0.87648 1.11081
 C478 C 0.69972 0.87982 1.13986
 C479 C 0.72263 0.86745 1.15340
 C480 C 0.74180 0.85093 1.13828
 N481 N 0.67310 0.88966 1.09612
 N482 N 0.65184 0.89946 1.10875
 C483 C 0.62991 0.91333 1.09360
 C484 C 0.60387 0.91710 1.10648
 C485 C 0.58205 0.93033 1.09195
 C486 C 0.58624 0.94058 1.06450
 C487 C 0.61258 0.93718 1.05186
 C488 C 0.63414 0.92346 1.06615
 H489 H 0.75142 0.83573 1.09620
 H490 H 0.71186 0.85792 1.07309
 H491 H 0.68535 0.89226 1.15204
 H492 H 0.72467 0.87036 1.17585
 H493 H 0.60041 0.90950 1.12768
 H494 H 0.56204 0.93285 1.10230
 H495 H 0.61645 0.94487 1.03077
 H496 H 0.65418 0.92102 1.05585
 C497 C 0.72291 1.16019 0.88065
 C498 C 0.69943 1.14820 0.89321
 C499 C 0.69520 1.11970 0.89197
 C500 C 0.71463 1.10316 0.87772
 C501 C 0.73783 1.11509 0.86463
 C502 C 0.74249 1.14389 0.86585
 N503 N 0.67082 1.10813 0.90487
 N504 N 0.66834 1.08230 0.90932
 C505 C 0.64360 1.07076 0.92153
 C506 C 0.64452 1.04384 0.93246
 C507 C 0.62081 1.03221 0.94492
 C508 C 0.59558 1.04718 0.94602
 C509 C 0.59455 1.07398 0.93449
 C510 C 0.61842 1.08578 0.92257
 H511 H 0.72494 1.18237 0.88185
 H512 H 0.68447 1.16119 0.90402
 H513 H 0.71175 1.08103 0.87646
 H514 H 0.75235 1.10140 0.85425
 H515 H 0.66378 1.03201 0.93164
 H516 H 0.62212 1.01144 0.95350
 H517 H 0.57541 1.08602 0.93517
 H518 H 0.61717 1.10655 0.91404
 C519 C 0.17140 0.29041 0.13922
 C520 C 0.16026 0.31408 0.12633
 C521 C 0.13134 0.31685 0.12257
 C522 C 0.11350 0.29597 0.13262
 C523 C 0.12459 0.27254 0.14597
 C524 C 0.15366 0.26940 0.14909
 N525 N 0.12058 0.34074 0.10818
 N526 N 0.09567 0.34148 0.09866
 C527 C 0.08435 0.36514 0.08436
 C528 C 0.05919 0.36233 0.06962
 C529 C 0.04751 0.38484 0.05526
 C530 C 0.06056 0.41083 0.05588
 C531 C 0.08575 0.41370 0.07093
 C532 C 0.09770 0.39096 0.08489
 H533 H 0.19386 0.28852 0.14162
 H534 H 0.17421 0.33006 0.11877
 H535 H 0.09105 0.29774 0.13010
 H536 H 0.11053 0.25654 0.15323
 H537 H 0.04870 0.34254 0.06910
 H538 H 0.02806 0.38195 0.04395
 H539 H 0.09632 0.43343 0.07173
 H540 H 0.11715 0.39361 0.09629
 C541 C -0.16295 0.29253 -0.13979
 C542 C -0.15142 0.31632 -0.12792
 C543 C -0.12244 0.31849 -0.12414
 C544 C -0.10498 0.29691 -0.13324
 C545 C -0.11644 0.27339 -0.14558
 C546 C -0.14555 0.27081 -0.14865
 N547 N -0.11121 0.34241 -0.11061
 N548 N -0.08639 0.34250 -0.10085
 C549 C -0.07436 0.36605 -0.08740
 C550 C -0.04944 0.36256 -0.07229
 C551 C -0.03701 0.38494 -0.05880
 C552 C -0.04901 0.41146 -0.06068
 C553 C -0.07399 0.41498 -0.07608
 C554 C -0.08670 0.39240 -0.08917
 H555 H -0.18544 0.29104 -0.14211
 H556 H -0.16510 0.33283 -0.12108
 H557 H -0.08250 0.29816 -0.13071
 H558 H -0.10262 0.25683 -0.15198
 H559 H -0.03973 0.34235 -0.07080
 H560 H -0.01782 0.38148 -0.04712
 H561 H -0.08379 0.43513 -0.07784
 H562 H -0.10594 0.39557 -0.10086
 C563 C 0.10943 0.74269 -0.13912
 C564 C 0.09589 0.72050 -0.12612
 C565 C 0.11112 0.69730 -0.11718
 C566 C 0.14026 0.69661 -0.12111
 C567 C 0.15390 0.71904 -0.13365
 C568 C 0.13858 0.74222 -0.14286
 N569 N 0.09658 0.67500 -0.10382
 N570 N 0.10783 0.65139 -0.10004
 C571 C 0.09338 0.62935 -0.08613
 C572 C 0.10377 0.60242 -0.08839
 C573 C 0.08994 0.58042 -0.07533
 C574 C 0.06569 0.58511 -0.05928
 C575 C 0.05567 0.61232 -0.05655
 C576 C 0.06921 0.63421 -0.07008
 H577 H 0.09724 0.76049 -0.14572
 H578 H 0.07346 0.72131 -0.12307
 H579 H 0.15248 0.67894 -0.11421
 H580 H 0.17637 0.71822 -0.13641
 H581 H 0.12247 0.59845 -0.10057
 H582 H 0.09839 0.55977 -0.07767
 H583 H 0.03732 0.61672 -0.04403
 H584 H 0.06099 0.65494 -0.06777
 C585 C -0.10054 0.73800 0.13738
 C586 C -0.08571 0.71704 0.12376
 C587 C -0.09999 0.69603 0.10969
 C588 C -0.12939 0.69650 0.10883
 C589 C -0.14421 0.71772 0.12198
 C590 C -0.12993 0.73852 0.13657
 N591 N -0.08430 0.67437 0.09665
 N592 N -0.09589 0.65200 0.08906
 C593 C -0.08073 0.63016 0.07576
 C594 C -0.09315 0.60414 0.07399
 C595 C -0.07888 0.58219 0.06156
 C596 C -0.05206 0.58608 0.05013
 C597 C -0.03981 0.61241 0.05142
 C598 C -0.05392 0.63425 0.06441
 H599 H -0.08910 0.75399 0.14826
 H600 H -0.06306 0.71695 0.12449
 H601 H -0.14089 0.68055 0.09795
 H602 H -0.16685 0.71764 0.12123
 H603 H -0.11385 0.60081 0.08256
 H604 H -0.08899 0.56223 0.06064
 H605 H -0.01925 0.61602 0.04269
 H606 H -0.04402 0.65431 0.06537
 C607 C 1.10508 0.13802 0.73890
 C608 C 1.09115 0.12541 0.71654
 C609 C 1.10572 0.10873 0.69767
 C610 C 1.13444 0.10412 0.70175
 C611 C 1.14836 0.11617 0.72450
 C612 C 1.13401 0.13366 0.74337
 N613 N 1.09079 0.09659 0.67473
 N614 N 1.10313 0.08677 0.65326
 C615 C 1.08780 0.07433 0.63073
 C616 C 1.10082 0.07067 0.60463
 C617 C 1.08607 0.05923 0.58207
 C618 C 1.05821 0.05068 0.58555
 C619 C 1.04537 0.05388 0.61195
 C620 C 1.05995 0.06583 0.63428
 H621 H 1.09276 0.15052 0.75302
 H622 H 1.06892 0.12888 0.71374
 H623 H 1.14608 0.09113 0.68744
 H624 H 1.17058 0.11241 0.72651
 H625 H 1.12231 0.07706 0.60167
 H626 H 1.09651 0.05681 0.56200
 H627 H 1.02390 0.04755 0.61522
 H628 H 1.04951 0.06828 0.65432
 C629 C 0.87281 -0.16670 0.71582
 C630 C 0.88577 -0.15418 0.69271
 C631 C 0.88055 -0.12647 0.68615
 C632 C 0.86162 -0.11142 0.70261
 C633 C 0.84800 -0.12405 0.72530
 C634 C 0.85353 -0.15191 0.73254
 N635 N 0.89445 -0.11420 0.66253
 N636 N 0.89711 -0.08815 0.65995
 C637 C 0.91040 -0.07596 0.63592
 C638 C 0.92087 -0.04909 0.63785
 C639 C 0.93432 -0.03684 0.61485
 C640 C 0.93675 -0.05104 0.58927
 C641 C 0.92574 -0.07784 0.58719
 C642 C 0.91294 -0.09034 0.61043
 H643 H 0.87735 -0.18825 0.71984
 H644 H 0.90017 -0.16606 0.67999
 H645 H 0.85717 -0.08995 0.69778
 H646 H 0.83389 -0.11151 0.73759
 H647 H 0.91894 -0.03777 0.65736
 H648 H 0.94251 -0.01617 0.61694
 H649 H 0.92744 -0.08928 0.56773
 H650 H 0.90479 -0.11107 0.60841
 C651 C 1.15451 -0.12073 0.27660
 C652 C 1.14289 -0.10889 0.30070
 C653 C 1.11460 -0.11250 0.30699
 C654 C 1.09797 -0.12852 0.28905
 C655 C 1.10962 -0.14092 0.26525
 C656 C 1.13815 -0.13718 0.25844
 N657 N 1.10333 -0.09986 0.33172
 N658 N 1.07711 -0.09702 0.33541
 C659 C 1.06582 -0.08470 0.36030
 C660 C 1.03829 -0.07479 0.35980
 C661 C 1.02699 -0.06176 0.38339
 C662 C 1.04288 -0.05911 0.40817
 C663 C 1.07024 -0.06981 0.40895
 C664 C 1.08176 -0.08225 0.38509
 H665 H 1.17657 -0.11759 0.27296
 H666 H 1.15597 -0.09669 0.31447
 H667 H 1.07600 -0.13163 0.29353
 H668 H 1.09585 -0.15275 0.25192
 H669 H 1.02576 -0.07667 0.34087
 H670 H 1.00577 -0.05385 0.38231
 H671 H 1.08293 -0.06793 0.42777
 H672 H 1.10302 -0.08999 0.38601
 C673 C 0.86912 0.17721 0.28647
 C674 C 0.88252 0.16563 0.30998
 C675 C 0.88019 0.13742 0.31581
 C676 C 0.86362 0.12091 0.29829
 C677 C 0.84958 0.13251 0.27522
 C678 C 0.85230 0.16087 0.26863
 N679 N 0.89481 0.12589 0.33950
 N680 N 0.90048 0.10022 0.34081
 C681 C 0.91440 0.08783 0.36444
 C682 C 0.92696 0.06197 0.36105
 C683 C 0.94031 0.04894 0.38368
 C684 C 0.94063 0.06121 0.41045
 C685 C 0.92794 0.08723 0.41387
 C686 C 0.91514 0.10059 0.39094
 H687 H 0.87141 0.19917 0.28295
 H688 H 0.89509 0.17862 0.32348
 H689 H 0.86141 0.09902 0.30253
 H690 H 0.83747 0.11883 0.26210
 H691 H 0.92651 0.05197 0.34071
 H692 H 0.95006 0.02905 0.38024
 H693 H 0.92798 0.09727 0.43419
 H694 H 0.90538 0.12056 0.39401
 C695 C 0.10966 0.25794 -0.14060
 C696 C 0.09671 0.28030 -0.12750
 C697 C 0.11234 0.29891 -0.11166
 C698 C 0.14121 0.29457 -0.10837
 C699 C 0.15421 0.27179 -0.12090
 C700 C 0.13871 0.25320 -0.13760
 N701 N 0.09826 0.32185 -0.09908
 N702 N 0.11117 0.34296 -0.09002
 C703 C 0.09645 0.36549 -0.07732
 C704 C 0.10974 0.39106 -0.07468
 C705 C 0.09546 0.41363 -0.06326
 C706 C 0.06778 0.41075 -0.05371
 C707 C 0.05474 0.38486 -0.05579
 C708 C 0.06883 0.36250 -0.06773
 H709 H 0.09648 0.24404 -0.15235
 H710 H 0.07436 0.28330 -0.12994
 H711 H 0.15368 0.30870 -0.09603
 H712 H 0.17656 0.26949 -0.11818
 H713 H 0.13105 0.39360 -0.08192
 H714 H 0.10612 0.43327 -0.06170
 H715 H 0.03349 0.38198 -0.04857
 H716 H 0.05818 0.34287 -0.06935
 C717 C -0.17307 0.30074 0.13371
 C718 C -0.16087 0.32273 0.11901
 C719 C -0.13178 0.32412 0.11600
 C720 C -0.11488 0.30359 0.12848
 C721 C -0.12702 0.28193 0.14364
 C722 C -0.15622 0.28019 0.14618
 N723 N -0.11982 0.34655 0.10039
 N724 N -0.09470 0.34562 0.09161
 C725 C -0.08205 0.36815 0.07677
 C726 C -0.05647 0.36380 0.06324
 C727 C -0.04307 0.38553 0.04932
 C728 C -0.05482 0.41220 0.04921
 C729 C -0.08065 0.41647 0.06268
 C730 C -0.09426 0.39459 0.07620
 H731 H -0.19562 0.29984 0.13555
 H732 H -0.17410 0.33850 0.10960
 H733 H -0.09232 0.30435 0.12660
 H734 H -0.11364 0.26617 0.15283
 H735 H -0.04686 0.34350 0.06357
 H736 H -0.02325 0.38152 0.03913
 H737 H -0.09031 0.43675 0.06287
 H738 H -0.11399 0.39844 0.08663
 C739 C -0.16403 0.71056 -0.12852
 C740 C -0.15140 0.68747 -0.11589
 C741 C -0.12316 0.68157 -0.12056
 C742 C -0.10769 0.69871 -0.13859
 C743 C -0.12037 0.72141 -0.15182
 C744 C -0.14879 0.72795 -0.14689
 N745 N -0.11068 0.65804 -0.10696
 N746 N -0.08427 0.65562 -0.10429
 C747 C -0.07158 0.63192 -0.09124
 C748 C -0.04417 0.63392 -0.08106
 C749 C -0.03142 0.61136 -0.06763
 C750 C -0.04564 0.58615 -0.06493
 C751 C -0.07292 0.58395 -0.07580
 C752 C -0.08593 0.60675 -0.08859
 H753 H -0.18598 0.71409 -0.12443
 H754 H -0.16362 0.67427 -0.10216
 H755 H -0.08580 0.69447 -0.14259
 H756 H -0.10741 0.73421 -0.16514
 H757 H -0.03286 0.65317 -0.08309
 H758 H -0.01038 0.61357 -0.05954
 H759 H -0.08441 0.56478 -0.07386
 H760 H -0.10707 0.60470 -0.09654
 C761 C 0.10314 0.74433 0.13316
 C762 C 0.08944 0.72214 0.12048
 C763 C 0.10454 0.69889 0.11182
 C764 C 0.13374 0.69826 0.11551
 C765 C 0.14753 0.72068 0.12766
 C766 C 0.13232 0.74384 0.13678
 N767 N 0.08985 0.67641 0.09911
 N768 N 0.10092 0.65262 0.09641
 C769 C 0.08656 0.63028 0.08308
 C770 C 0.09705 0.60343 0.08627
 C771 C 0.08371 0.58119 0.07333
 C772 C 0.05985 0.58554 0.05643
 C773 C 0.04951 0.61261 0.05305
 C774 C 0.06257 0.63476 0.06646
 H775 H 0.09103 0.76206 0.13978
 H776 H 0.06696 0.72294 0.11764
 H777 H 0.14588 0.68057 0.10880
 H778 H 0.17001 0.71980 0.13039
 H779 H 0.11559 0.59973 0.09893
 H780 H 0.09238 0.56066 0.07619
 H781 H 0.03135 0.61671 0.03999
 H782 H 0.05422 0.65540 0.06348
 C783 C 0.26408 1.10793 0.85834
 C784 C 0.28636 1.09448 0.87173
 C785 C 0.30881 1.10958 0.88250
 C786 C 0.30865 1.13854 0.87999
 C787 C 0.28605 1.15210 0.86703
 C788 C 0.26363 1.13687 0.85597
 N789 N 0.33108 1.09496 0.89633
 N790 N 0.35449 1.10606 0.90210
 C791 C 0.37610 1.09093 0.91648
 C792 C 0.40347 1.10111 0.91637
 C793 C 0.42504 1.08637 0.92974
 C794 C 0.41939 1.06141 0.94397
 C795 C 0.39174 1.05161 0.94455
 C796 C 0.37035 1.06607 0.93074
 H797 H 0.24687 1.09577 0.85037
 H798 H 0.28619 1.07218 0.87369
 H799 H 0.32574 1.15064 0.88835
 H800 H 0.28614 1.17442 0.86539
 H801 H 0.40816 1.12031 0.90556
 H802 H 0.44607 1.09460 0.92911
 H803 H 0.38662 1.03260 0.95547
 H804 H 0.34930 1.05791 0.93137
 C805 C 0.28401 0.83683 1.12999
 C806 C 0.30797 0.84795 1.11745
 C807 C 0.31118 0.87660 1.11496
 C808 C 0.29033 0.89413 1.12572
 C809 C 0.26665 0.88304 1.13876
 C810 C 0.26317 0.85429 1.14084
 N811 N 0.33572 0.88741 1.10159
 N812 N 0.33715 0.91247 1.09339
 C813 C 0.36173 0.92374 1.08055
 C814 C 0.35985 0.94930 1.06674
 C815 C 0.38342 0.96102 1.05410
 C816 C 0.40954 0.94760 1.05562
 C817 C 0.41142 0.92197 1.06968
 C818 C 0.38767 0.91003 1.08186
 H819 H 0.28187 0.81462 1.13154
 H820 H 0.32393 0.83422 1.10934
 H821 H 0.29241 0.91635 1.12419
 H822 H 0.25076 0.89691 1.14673
 H823 H 0.33999 0.96010 1.06562
 H824 H 0.38124 0.98074 1.04343
 H825 H 0.43119 0.91105 1.07110
 H826 H 0.38965 0.89029 1.09256
 C827 C 0.70802 1.16785 1.13580
 C828 C 0.68561 1.15420 1.12318
 C829 C 0.68574 1.12541 1.12093
 C830 C 0.70847 1.11022 1.13183
 C831 C 0.73073 1.12384 1.14488
 C832 C 0.73077 1.15281 1.14683
 N833 N 0.66244 1.11223 1.10772
 N834 N 0.66271 1.08685 1.10085
 C835 C 0.63888 1.07419 1.08798
 C836 C 0.64174 1.04815 1.07564
 C837 C 0.61893 1.03574 1.06226
 C838 C 0.59274 1.04907 1.06150
 C839 C 0.58984 1.07497 1.07441
 C840 C 0.61271 1.08750 1.08736
 H841 H 0.70743 1.19015 1.13733
 H842 H 0.66813 1.16610 1.11497
 H843 H 0.70894 1.08791 1.13042
 H844 H 0.74813 1.11183 1.15305
 H845 H 0.66178 1.03765 1.07605
 H846 H 0.62174 1.01569 1.05263
 H847 H 0.56997 1.08582 1.07409
 H848 H 0.60991 1.10757 1.09691
 C849 C 0.70718 0.85813 0.83230
 C850 C 0.68389 0.87119 0.84411
 C851 C 0.68150 0.87363 0.87337
 C852 C 0.70237 0.86212 0.89082
 C853 C 0.72538 0.84856 0.87903
 C854 C 0.72815 0.84673 0.84966
 N855 N 0.65796 0.88808 0.88483
 N856 N 0.65784 0.89651 0.91017
 C857 C 0.63445 0.91077 0.92213
 C858 C 0.63813 0.92460 0.94762
 C859 C 0.61590 0.93886 0.95990
 C860 C 0.58928 0.93903 0.94718
 C861 C 0.58555 0.92492 0.92163
 C862 C 0.60802 0.91108 0.90907
 H863 H 0.70878 0.85675 0.80960
 H864 H 0.66791 0.87988 0.83044
 H865 H 0.70090 0.86360 0.91351
 H866 H 0.74138 0.84008 0.89281
 H867 H 0.65840 0.92451 0.95788
 H868 H 0.61953 0.94954 0.97952
 H869 H 0.56535 0.92476 0.91125
 H870 H 0.60468 0.90041 0.88938
   
