data_POSCAR
  _audit_creation_date              2014-09-24
  _audit_creation_method            'ToBaCCo'
  _symmetry_space_group_name_H-M    'P1'
  _symmetry_Int_Tables_number       1
  _symmetry_cell_setting            triclinic
  loop_
  _symmetry_equiv_pos_as_xyz
 x,y,z
_cell_length_a 45.2772
_cell_length_b 45.4303
_cell_length_c 43.4380
_cell_angle_alpha 90.253100
_cell_angle_beta 89.354200
_cell_angle_gamma 89.685100
loop_
  _atom_site_label
  _atom_site_type_symbol
  _atom_site_fract_x
  _atom_site_fract_y
  _atom_site_fract_z
C1 C 0.29580 0.28511 0.24081
 H2 H 0.29647 0.28603 0.26568
 C3 C 0.31671 0.30040 0.22336
 H4 H 0.33319 0.31338 0.23502
 C5 C 0.27313 0.26735 0.19554
 H6 H 0.25649 0.25403 0.18473
 C7 C 0.29356 0.28236 0.17719
 H8 H 0.29230 0.28048 0.15238
 N9 N 0.27424 0.26945 0.22675
 C10 C 0.20145 0.26738 0.29339
 H11 H 0.19738 0.24395 0.29434
 C12 C 0.18404 0.28675 0.31096
 H13 H 0.16676 0.27804 0.32569
 C14 C 0.22918 0.30710 0.27323
 H15 H 0.24645 0.31505 0.25813
 C16 C 0.21246 0.32722 0.29056
 H17 H 0.21712 0.35049 0.28864
 Zn18 Zn 0.24662 0.24999 0.25257
 N19 N 0.22378 0.27775 0.27534
 C20 C 0.26607 0.22861 0.31050
 N21 N 0.26854 0.22576 0.27939
 C22 C 0.28779 0.20618 0.26632
 C23 C 0.30527 0.18816 0.28472
 C24 C 0.28302 0.21091 0.32977
 C25 C 0.20278 0.24065 0.20839
 C26 C 0.18293 0.22450 0.19076
 C27 C 0.19821 0.18056 0.21746
 C28 C 0.21805 0.19749 0.23426
 N29 N 0.22024 0.22692 0.22921
 H30 H 0.25118 0.24477 0.32046
 H31 H 0.28952 0.20461 0.24150
 H32 H 0.32019 0.17244 0.27388
 H33 H 0.28097 0.21365 0.35448
 H34 H 0.20454 0.26419 0.20526
 H35 H 0.16999 0.23583 0.17364
 H36 H 0.19655 0.15727 0.22231
 H37 H 0.23141 0.18711 0.25161
 C38 C 0.18968 0.31709 0.30989
 C39 C 0.31556 0.29937 0.19109
 C40 C 0.18045 0.19395 0.19510
 C41 C 0.30296 0.19037 0.31691
 C42 C 0.78993 0.78695 0.23195
 H43 H 0.79145 0.78780 0.25678
 C44 C 0.80868 0.80423 0.21383
 H45 H 0.82370 0.81878 0.22554
 C46 C 0.76734 0.76749 0.18756
 H47 H 0.75182 0.75257 0.17726
 C48 C 0.78542 0.78447 0.16856
 H49 H 0.78342 0.78150 0.14396
 N50 N 0.76934 0.76952 0.21867
 C51 C 0.69616 0.75895 0.28372
 H52 H 0.69337 0.73537 0.28206
 C53 C 0.67674 0.77569 0.30191
 H54 H 0.65883 0.76474 0.31385
 C55 C 0.72246 0.80173 0.26923
 H56 H 0.74015 0.81185 0.25631
 C57 C 0.70372 0.81929 0.28741
 H58 H 0.70773 0.84273 0.28867
 Zn59 Zn 0.74386 0.74717 0.24440
 N60 N 0.71866 0.77207 0.26811
 C61 C 0.76349 0.72532 0.30174
 N62 N 0.76753 0.72403 0.27069
 C63 C 0.78878 0.70651 0.25776
 C64 C 0.80659 0.68885 0.27624
 C65 C 0.78066 0.70790 0.32104
 C66 C 0.69991 0.73584 0.20110
 C67 C 0.68126 0.71889 0.18291
 C68 C 0.70178 0.67511 0.20590
 C69 C 0.72031 0.69291 0.22337
 N70 N 0.71933 0.72268 0.22040
 H71 H 0.74693 0.73981 0.31166
 H72 H 0.79168 0.70611 0.23300
 H73 H 0.82305 0.67464 0.26554
 H74 H 0.77713 0.70923 0.34571
 H75 H 0.69922 0.75960 0.19959
 H76 H 0.66670 0.72990 0.16701
 H77 H 0.70266 0.65151 0.20903
 H78 H 0.73525 0.68288 0.23950
 C79 C 0.68052 0.80630 0.30422
 C80 C 0.80641 0.80372 0.18140
 C81 C 0.68203 0.68803 0.18509
 C82 C 0.80244 0.68924 0.30833
 C83 C 0.80468 0.28708 0.73580
 H84 H 0.80594 0.28545 0.76059
 C85 C 0.82421 0.30528 0.71979
 H86 H 0.84023 0.31793 0.73249
 C87 C 0.78201 0.27265 0.68924
 H88 H 0.76588 0.25956 0.67734
 C89 C 0.80103 0.29066 0.67233
 H90 H 0.79930 0.29121 0.64749
 N91 N 0.78387 0.27152 0.72045
 C92 C 0.71099 0.25657 0.78471
 H93 H 0.70874 0.23296 0.78246
 C94 C 0.69116 0.27251 0.80322
 H95 H 0.67350 0.26093 0.81490
 C96 C 0.73618 0.30027 0.77107
 H97 H 0.75352 0.31108 0.75826
 C98 C 0.71700 0.31703 0.78954
 H99 H 0.72034 0.34056 0.79117
 Zn100 Zn 0.75838 0.24730 0.74399
 N101 N 0.73306 0.27056 0.76925
 C102 C 0.77943 0.22258 0.79959
 N103 N 0.78237 0.22274 0.76849
 C104 C 0.80346 0.20628 0.75407
 C105 C 0.82236 0.18830 0.77093
 C106 C 0.79782 0.20496 0.81747
 C107 C 0.71385 0.23877 0.70070
 C108 C 0.69488 0.22303 0.68168
 C109 C 0.71757 0.17792 0.69910
 C110 C 0.73612 0.19453 0.71776
 N111 N 0.73416 0.22441 0.71801
 H112 H 0.76312 0.23653 0.81075
 H113 H 0.80543 0.20695 0.72923
 H114 H 0.83753 0.17471 0.75775
 H115 H 0.79512 0.20701 0.84211
 H116 H 0.71236 0.26253 0.70181
 H117 H 0.67870 0.23487 0.66830
 H118 H 0.71979 0.15418 0.69889
 H119 H 0.75193 0.18344 0.73215
 C120 C 0.69406 0.30320 0.80594
 C121 C 0.82240 0.30738 0.68762
 C122 C 0.69661 0.19216 0.68069
 C123 C 0.82007 0.18708 0.80352
 C124 C 0.30904 0.77682 0.73579
 H125 H 0.31821 0.76509 0.75507
 C126 C 0.32713 0.79542 0.71841
 H127 H 0.35013 0.79770 0.72449
 C128 C 0.26766 0.78954 0.70564
 H129 H 0.24444 0.78753 0.70092
 C130 C 0.28491 0.80833 0.68771
 H131 H 0.27473 0.82016 0.66899
 N132 N 0.27984 0.77424 0.72921
 C133 C 0.20851 0.76424 0.79600
 H134 H 0.20405 0.74092 0.79434
 C135 C 0.19095 0.78219 0.81500
 H136 H 0.17317 0.77238 0.82822
 C137 C 0.23767 0.80508 0.78122
 H138 H 0.25596 0.81389 0.76805
 C139 C 0.22062 0.82383 0.79981
 H140 H 0.22575 0.84707 0.80034
 Zn141 Zn 0.25492 0.75077 0.75452
 N142 N 0.23147 0.77586 0.77977
 C143 C 0.27443 0.72614 0.81063
 N144 N 0.27832 0.72576 0.77953
 C145 C 0.29880 0.70776 0.76594
 C146 C 0.31579 0.68866 0.78369
 C147 C 0.29081 0.70730 0.82922
 C148 C 0.20577 0.74213 0.71681
 C149 C 0.18590 0.72666 0.69857
 C150 C 0.21387 0.68225 0.70788
 C151 C 0.23320 0.69858 0.72597
 N152 N 0.22913 0.72809 0.72975
 H153 H 0.25853 0.74095 0.82117
 H154 H 0.30178 0.70813 0.74119
 H155 H 0.33156 0.67409 0.77240
 H156 H 0.28735 0.70792 0.85392
 H157 H 0.20234 0.76539 0.72092
 H158 H 0.16777 0.73841 0.68810
 H159 H 0.21740 0.65877 0.70538
 H160 H 0.25131 0.68751 0.73702
 C161 C 0.19696 0.81245 0.81717
 C162 C 0.31503 0.81168 0.69415
 C163 C 0.18989 0.69631 0.69378
 C164 C 0.31166 0.68807 0.81577
 C165 C 0.03473 0.04840 0.01697
 H166 H 0.03517 0.05023 -0.00786
 C167 C 0.05048 0.06834 0.03487
 H168 H 0.06325 0.08541 0.02369
 C169 C 0.01765 0.02376 0.06168
 H170 H 0.00449 0.00668 0.07210
 C171 C 0.03348 0.04296 0.08045
 H172 H 0.03244 0.04041 0.10521
 N173 N 0.01894 0.02651 0.03051
 C174 C 0.01509 -0.04375 -0.03790
 H175 H -0.00854 -0.04588 -0.04049
 C176 C 0.03427 -0.06168 -0.05513
 H177 H 0.02514 -0.07727 -0.07130
 C178 C 0.05549 -0.02022 -0.01408
 H179 H 0.06367 -0.00426 0.00218
 C180 C 0.07546 -0.03779 -0.03072
 H181 H 0.09888 -0.03519 -0.02690
 Zn182 Zn -0.00139 0.00074 0.00380
 N183 N 0.02593 -0.02319 -0.01826
 C184 C -0.01814 0.02292 -0.05463
 N185 N -0.02318 0.02450 -0.02374
 C186 C -0.04306 0.04398 -0.01156
 C187 C -0.05942 0.06232 -0.03075
 C188 C -0.03393 0.04091 -0.07464
 C189 C -0.01488 -0.04395 0.04619
 C190 C -0.03284 -0.06347 0.06255
 C191 C -0.07518 -0.04363 0.03622
 C192 C -0.05647 -0.02434 0.02059
 N193 N -0.02694 -0.02460 0.02601
 H194 H -0.00175 0.00787 -0.06389
 H195 H -0.04619 0.04522 0.01314
 H196 H -0.07503 0.07778 -0.02061
 H197 H -0.02992 0.03898 -0.09919
 H198 H 0.00877 -0.04426 0.04948
 H199 H -0.02286 -0.07878 0.07844
 H200 H -0.09866 -0.04289 0.03180
 H201 H -0.06561 -0.00942 0.00388
 C202 C 0.06495 -0.05870 -0.05182
 C203 C 0.05017 0.06555 0.06701
 C204 C -0.06342 -0.06347 0.05758
 C205 C -0.05497 0.06088 -0.06277
 C206 C 0.02400 0.56584 0.51927
 H207 H 0.01112 0.57479 0.50073
 C208 C 0.04106 0.58473 0.53715
 H209 H 0.04093 0.60807 0.53220
 C210 C 0.04111 0.52460 0.54719
 H211 H 0.04135 0.50116 0.55091
 C212 C 0.05853 0.54267 0.56556
 H213 H 0.07155 0.53286 0.58362
 N214 N 0.02398 0.53636 0.52478
 C215 C 0.01468 0.46299 0.46167
 H216 H -0.00812 0.45702 0.46574
 C217 C 0.03293 0.44487 0.44358
 H218 H 0.02401 0.42476 0.43410
 C219 C 0.05412 0.49602 0.47016
 H220 H 0.06221 0.51604 0.48056
 C221 C 0.07309 0.47866 0.45208
 H222 H 0.09565 0.48574 0.44848
 Zn223 Zn 0.00051 0.51090 0.50025
 N224 N 0.02556 0.48789 0.47466
 C225 C -0.02575 0.52990 0.44462
 N226 N -0.02551 0.53361 0.47571
 C227 C -0.04369 0.55354 0.48987
 C228 C -0.06331 0.57044 0.47272
 C229 C -0.04515 0.54627 0.42658
 C230 C -0.00686 0.46270 0.54009
 C231 C -0.02206 0.44278 0.55874
 C232 C -0.06750 0.46817 0.54695
 C233 C -0.05141 0.48765 0.52860
 N234 N -0.02155 0.48491 0.52581
 H235 H -0.01107 0.51406 0.43376
 H236 H -0.04287 0.55632 0.51459
 H237 H -0.07728 0.58640 0.48449
 H238 H -0.04543 0.54250 0.40196
 H239 H 0.01664 0.45999 0.53646
 H240 H -0.00997 0.42511 0.56964
 H241 H -0.09117 0.47106 0.54923
 H242 H -0.06298 0.50483 0.51657
 C243 C 0.06265 0.45254 0.43867
 C244 C 0.05854 0.57321 0.56076
 C245 C -0.05280 0.44542 0.56241
 C246 C -0.06439 0.56681 0.44062
 C247 C 0.54073 0.04843 0.50749
 H248 H 0.53892 0.04984 0.48273
 C249 C 0.55930 0.06765 0.52319
 H250 H 0.57206 0.08353 0.51024
 C251 C 0.52631 0.02582 0.55431
 H252 H 0.51307 0.00983 0.56643
 C253 C 0.54461 0.04459 0.57093
 H254 H 0.54516 0.04282 0.59576
 N255 N 0.52497 0.02782 0.52312
 C256 C 0.50784 -0.04483 0.45992
 H257 H 0.48420 -0.04700 0.46292
 C258 C 0.52339 -0.06474 0.44116
 H259 H 0.51155 -0.08208 0.42950
 C260 C 0.55202 -0.01960 0.47161
 H261 H 0.56324 -0.00234 0.48390
 C262 C 0.56837 -0.03880 0.45282
 H263 H 0.59207 -0.03609 0.45086
 Zn264 Zn 0.49981 0.00301 0.50019
 N265 N 0.52226 -0.02270 0.47453
 C266 C 0.47186 0.02297 0.44558
 N267 N 0.47521 0.02753 0.47630
 C268 C 0.46103 0.05003 0.49111
 C269 C 0.44192 0.06853 0.47515
 C270 C 0.45286 0.04090 0.42872
 C271 C 0.48962 -0.04143 0.54406
 C272 C 0.47286 -0.05915 0.56377
 C273 C 0.42898 -0.03344 0.54732
 C274 C 0.44652 -0.01634 0.52788
 N275 N 0.47631 -0.02030 0.52688
 H276 H 0.48361 0.00521 0.43414
 H277 H 0.46441 0.05339 0.51549
 H278 H 0.43095 0.08635 0.48741
 H279 H 0.44987 0.03639 0.40447
 H280 H 0.51331 -0.04440 0.54251
 H281 H 0.48386 -0.07554 0.57764
 H282 H 0.40529 -0.03004 0.54762
 H283 H 0.43619 -0.00002 0.51352
 C284 C 0.55405 -0.06173 0.43733
 C285 C 0.56149 0.06581 0.55535
 C286 C 0.44212 -0.05509 0.56571
 C287 C 0.43737 0.06391 0.44356
 C288 C 0.53624 0.53961 0.00759
 H289 H 0.53321 0.54281 -0.01683
 C290 C 0.55308 0.55956 0.02440
 H291 H 0.56322 0.57801 0.01274
 C292 C 0.52652 0.51174 0.05255
 H293 H 0.51573 0.49342 0.06359
 C294 C 0.54352 0.53091 0.07013
 H295 H 0.54569 0.52712 0.09460
 N296 N 0.52345 0.51621 0.02180
 C297 C 0.51150 0.44458 -0.04360
 H298 H 0.48802 0.44088 -0.04097
 C299 C 0.52859 0.42566 -0.06199
 H300 H 0.51808 0.40755 -0.07380
 C301 C 0.55376 0.47260 -0.03111
 H302 H 0.56356 0.49061 -0.01863
 C303 C 0.57162 0.45440 -0.04952
 H304 H 0.59512 0.45857 -0.05100
 Zn305 Zn 0.50000 0.49093 -0.00251
 N306 N 0.52426 0.46748 -0.02861
 C307 C 0.47287 0.51174 -0.05709
 N308 N 0.47452 0.51487 -0.02601
 C309 C 0.45865 0.53595 -0.01078
 C310 C 0.43982 0.55468 -0.02680
 C311 C 0.45422 0.52997 -0.07404
 C312 C 0.49233 0.44419 0.03884
 C313 C 0.47680 0.42459 0.05760
 C314 C 0.43131 0.44806 0.04223
 C315 C 0.44771 0.46724 0.02385
 N316 N 0.47769 0.46524 0.02278
 H317 H 0.48596 0.49510 -0.06882
 H318 H 0.46075 0.53824 0.01390
 H319 H 0.42768 0.57155 -0.01423
 H320 H 0.45280 0.52677 -0.09868
 H321 H 0.51614 0.44266 0.03707
 H322 H 0.48883 0.40794 0.07014
 H323 H 0.40751 0.45040 0.04322
 H324 H 0.43640 0.48370 0.01048
 C325 C 0.55907 0.43047 -0.06508
 C326 C 0.55695 0.55522 0.05606
 C327 C 0.44585 0.42645 0.05952
 C328 C 0.43731 0.55177 -0.05888
 C329 C 0.14403 -0.13076 -0.12534
 C330 C 0.17464 -0.12628 -0.12752
 C331 C 0.19187 -0.14485 -0.14612
 C332 C 0.17881 -0.16795 -0.16257
 C333 C 0.14819 -0.17195 -0.15935
 N334 N 0.13185 -0.15357 -0.14108
 C335 C 0.12461 -0.11167 -0.10611
 N336 N 0.09870 -0.12274 -0.09511
 C337 C 0.07952 -0.10645 -0.07768
 C338 C 0.08586 -0.07698 -0.07049
 C339 C 0.11236 -0.06507 -0.08185
 C340 C 0.13172 -0.08225 -0.09962
 H341 H 0.21550 -0.14137 -0.14724
 H342 H 0.13711 -0.18932 -0.17173
 H343 H 0.05951 -0.11668 -0.06922
 H344 H 0.11785 -0.04226 -0.07759
 H345 H 0.18537 -0.10904 -0.11462
 H346 H 0.15159 -0.07227 -0.10873
 C347 C 0.13873 0.37679 0.36579
 C348 C 0.16941 0.38059 0.36300
 C349 C 0.18598 0.36121 0.34466
 C350 C 0.17216 0.33803 0.32909
 C351 C 0.14142 0.33516 0.33224
 N352 N 0.12570 0.35442 0.35011
 C353 C 0.12005 0.39670 0.38488
 N354 N 0.09111 0.40033 0.37751
 C355 C 0.07252 0.41802 0.39411
 C356 C 0.08274 0.43328 0.42008
 C357 C 0.11244 0.42956 0.42826
 C358 C 0.13111 0.41137 0.41079
 H359 H 0.20966 0.36415 0.34293
 H360 H 0.12985 0.31785 0.32025
 H361 H 0.04989 0.42038 0.38674
 H362 H 0.12115 0.44023 0.44853
 H363 H 0.18053 0.39853 0.37441
 H364 H 0.15370 0.40834 0.41804
 C365 C 0.62361 -0.14081 0.36181
 C366 C 0.63104 -0.16948 0.37094
 C367 C 0.64952 -0.18669 0.35219
 C368 C 0.66060 -0.17556 0.32425
 C369 C 0.65261 -0.14673 0.31603
 N370 N 0.63476 -0.13030 0.33481
 C371 C 0.60492 -0.12128 0.38127
 N372 N 0.60905 -0.09166 0.37975
 C373 C 0.59306 -0.07234 0.39726
 C374 C 0.57115 -0.08255 0.41762
 C375 C 0.56607 -0.11295 0.41909
 C376 C 0.58292 -0.13237 0.40104
 H377 H 0.65564 -0.20847 0.35996
 H378 H 0.66026 -0.13727 0.29459
 H379 H 0.59733 -0.04902 0.39510
 H380 H 0.54940 -0.12170 0.43455
 H381 H 0.62340 -0.17830 0.39269
 H382 H 0.57848 -0.15571 0.40235
 C383 C 0.63436 0.35406 -0.13760
 C384 C 0.64272 0.32571 -0.12822
 C385 C 0.66215 0.30915 -0.14657
 C386 C 0.67328 0.32063 -0.17432
 C387 C 0.66438 0.34914 -0.18276
 N388 N 0.64558 0.36492 -0.16440
 C389 C 0.61441 0.37287 -0.11873
 N390 N 0.61708 0.40265 -0.12057
 C391 C 0.59971 0.42137 -0.10379
 C392 C 0.57782 0.41032 -0.08392
 C393 C 0.57430 0.37972 -0.08207
 C394 C 0.59255 0.36093 -0.09935
 H395 H 0.66891 0.28759 -0.13869
 H396 H 0.67204 0.35883 -0.20409
 H397 H 0.60283 0.44485 -0.10620
 H398 H 0.55772 0.37032 -0.06694
 H399 H 0.63501 0.31664 -0.10661
 H400 H 0.58923 0.33742 -0.09782
 C401 C -0.12370 0.13427 -0.14327
 C402 C -0.11593 0.14072 -0.17378
 C403 C -0.13454 0.15822 -0.19149
 C404 C -0.16147 0.16965 -0.17931
 C405 C -0.16827 0.16200 -0.14840
 N406 N -0.14970 0.14485 -0.13180
 C407 C -0.10504 0.11566 -0.12325
 N408 N -0.11766 0.10305 -0.09798
 C409 C -0.10220 0.08573 -0.07837
 C410 C -0.07205 0.08013 -0.08370
 C411 C -0.05847 0.09317 -0.10939
 C412 C -0.07477 0.11100 -0.12910
 H413 H -0.12654 0.16351 -0.21428
 H414 H -0.18886 0.16817 -0.13738
 H415 H -0.11362 0.07598 -0.05895
 H416 H -0.03511 0.08999 -0.11397
 H417 H -0.09583 0.13228 -0.18426
 H418 H -0.06347 0.12131 -0.14822
 C419 C -0.14477 0.63520 0.36698
 C420 C -0.17537 0.63764 0.37242
 C421 C -0.19251 0.65526 0.35331
 C422 C -0.17947 0.67022 0.32851
 C423 C -0.14900 0.66674 0.32341
 N424 N -0.13269 0.64967 0.34252
 C425 C -0.12508 0.61722 0.38665
 N426 N -0.09735 0.61073 0.37612
 C427 C -0.07775 0.59471 0.39271
 C428 C -0.08558 0.58419 0.42203
 C429 C -0.11400 0.59074 0.43344
 C430 C -0.13369 0.60729 0.41602
 H431 H -0.21607 0.65684 0.35764
 H432 H -0.13804 0.67798 0.30461
 H433 H -0.05593 0.59064 0.38315
 H434 H -0.12116 0.58289 0.45579
 H435 H -0.18633 0.62590 0.39080
 H436 H -0.15509 0.61242 0.42593
 C437 C 0.35674 0.13624 0.37450
 C438 C 0.32686 0.14104 0.38234
 C439 C 0.30939 0.15877 0.36364
 C440 C 0.32136 0.17151 0.33696
 C441 C 0.35114 0.16586 0.32969
 N442 N 0.36778 0.14868 0.34836
 C443 C 0.37666 0.11765 0.39325
 N444 N 0.40265 0.10823 0.38043
 C445 C 0.42226 0.09122 0.39590
 C446 C 0.41630 0.08270 0.42636
 C447 C 0.38977 0.09239 0.44017
 C448 C 0.37003 0.10990 0.42385
 H449 H 0.28635 0.16208 0.36975
 H450 H 0.36133 0.17542 0.30945
 H451 H 0.44265 0.08472 0.38448
 H452 H 0.38409 0.08618 0.46352
 H453 H 0.31669 0.13095 0.40224
 H454 H 0.35014 0.11741 0.43546
 C455 C 0.36135 0.62873 -0.12825
 C456 C 0.33101 0.63293 -0.12236
 C457 C 0.31490 0.65231 -0.14057
 C458 C 0.32869 0.66735 -0.16487
 C459 C 0.35887 0.66217 -0.17039
 N460 N 0.37419 0.64334 -0.15219
 C461 C 0.37990 0.60865 -0.10965
 N462 N 0.40670 0.60005 -0.12118
 C463 C 0.42522 0.58194 -0.10560
 C464 C 0.41722 0.57139 -0.07635
 C465 C 0.38979 0.58012 -0.06390
 C466 C 0.37119 0.59877 -0.08030
 H467 H 0.29149 0.65516 -0.13597
 H468 H 0.37041 0.67340 -0.18881
 H469 H 0.44636 0.57623 -0.11591
 H470 H 0.38257 0.57237 -0.04153
 H471 H 0.31947 0.62116 -0.10438
 H472 H 0.35056 0.60554 -0.06965
 C473 C -0.14016 -0.14178 0.12486
 C474 C -0.16757 -0.15154 0.11421
 C475 C -0.18499 -0.16963 0.13272
 C476 C -0.17570 -0.17805 0.16233
 C477 C -0.14816 -0.16725 0.17218
 N478 N -0.13149 -0.14987 0.15350
 C479 C -0.12065 -0.12227 0.10641
 N480 N -0.09825 -0.10804 0.12084
 C481 C -0.07957 -0.08955 0.10578
 C482 C -0.08299 -0.08425 0.07422
 C483 C -0.10558 -0.09898 0.05874
 C484 C -0.12427 -0.11810 0.07459
 H485 H -0.20642 -0.17567 0.12404
 H486 H -0.13909 -0.17333 0.19416
 H487 H -0.06245 -0.07857 0.11860
 H488 H -0.10854 -0.09601 0.03424
 H489 H -0.17617 -0.14485 0.09222
 H490 H -0.14094 -0.12959 0.06172
 C491 C -0.12014 0.36474 0.63712
 C492 C -0.10877 0.34783 0.66135
 C493 C -0.12748 0.32916 0.67784
 C494 C -0.15741 0.32699 0.67015
 C495 C -0.16779 0.34389 0.64553
 N496 N -0.14921 0.36203 0.62994
 C497 C -0.10167 0.38512 0.61863
 N498 N -0.11220 0.39471 0.59117
 C499 C -0.09707 0.41375 0.57293
 C500 C -0.06947 0.42444 0.58202
 C501 C -0.05817 0.41498 0.61027
 C502 C -0.07419 0.39550 0.62868
 H503 H -0.11843 0.31605 0.69626
 H504 H -0.19076 0.34308 0.63896
 H505 H -0.10650 0.42023 0.55119
 H506 H -0.03723 0.42314 0.61844
 H507 H -0.08570 0.34841 0.66738
 H508 H -0.06523 0.38934 0.65070
 C509 C 0.36821 -0.12803 0.64232
 C510 C 0.33894 -0.12048 0.65017
 C511 C 0.32173 -0.14007 0.66715
 C512 C 0.33338 -0.16733 0.67621
 C513 C 0.36267 -0.17414 0.66777
 N514 N 0.37903 -0.15469 0.65117
 C515 C 0.38732 -0.10833 0.62375
 N516 N 0.41063 -0.12015 0.60781
 C517 C 0.42871 -0.10363 0.58968
 C518 C 0.42364 -0.07328 0.58660
 C519 C 0.40019 -0.06053 0.60341
 C520 C 0.38213 -0.07786 0.62207
 H521 H 0.29935 -0.13375 0.67335
 H522 H 0.37241 -0.19508 0.67391
 H523 H 0.44652 -0.11437 0.57709
 H524 H 0.39596 -0.03707 0.60232
 H525 H 0.32902 -0.10000 0.64290
 H526 H 0.36461 -0.06726 0.63518
 C527 C 0.37601 0.35025 0.13684
 C528 C 0.38634 0.33500 0.16272
 C529 C 0.36671 0.31826 0.18030
 C530 C 0.33689 0.31636 0.17210
 C531 C 0.32761 0.33137 0.14571
 N532 N 0.34707 0.34770 0.12909
 C533 C 0.39537 0.36902 0.11749
 N534 N 0.38595 0.37666 0.08893
 C535 C 0.40174 0.39454 0.07001
 C536 C 0.42882 0.40614 0.07958
 C537 C 0.43904 0.39856 0.10889
 C538 C 0.42241 0.38016 0.12793
 H539 H 0.37492 0.30653 0.20011
 H540 H 0.30478 0.33068 0.13865
 H541 H 0.39316 0.39955 0.04747
 H542 H 0.45953 0.40748 0.11742
 H543 H 0.40928 0.33552 0.16929
 H544 H 0.43044 0.37556 0.15074
 C545 C 0.12125 0.14227 0.14086
 C546 C 0.11335 0.17120 0.14900
 C547 C 0.13248 0.18799 0.16683
 C548 C 0.15960 0.17617 0.17644
 C549 C 0.16649 0.14702 0.16788
 N550 N 0.14738 0.13105 0.15072
 C551 C 0.10184 0.12345 0.12214
 N552 N 0.10239 0.09380 0.12655
 C553 C 0.08568 0.07505 0.10969
 C554 C 0.06751 0.08589 0.08634
 C555 C 0.06676 0.11635 0.08120
 C556 C 0.08375 0.13521 0.09914
 H557 H 0.12578 0.21005 0.17347
 H558 H 0.18723 0.13700 0.17431
 H559 H 0.08712 0.05166 0.11407
 H560 H 0.05300 0.12551 0.06337
 H561 H 0.09240 0.18060 0.14225
 H562 H 0.08327 0.15859 0.09449
 C563 C 0.13047 0.64714 0.63746
 C564 C 0.11928 0.66925 0.65717
 C565 C 0.13862 0.68531 0.67546
 C566 C 0.16908 0.67939 0.67440
 C567 C 0.17932 0.65692 0.65463
 N568 N 0.16006 0.64161 0.63701
 C569 C 0.11114 0.62901 0.61773
 N570 N 0.12142 0.60248 0.60744
 C571 C 0.10516 0.58444 0.58931
 C572 C 0.07668 0.59286 0.58025
 C573 C 0.06579 0.62033 0.59020
 C574 C 0.08290 0.63845 0.60883
 H575 H 0.12967 0.70198 0.69088
 H576 H 0.20263 0.65175 0.65286
 H577 H 0.11467 0.56371 0.58173
 H578 H 0.04390 0.62766 0.58386
 H579 H 0.09587 0.67380 0.65913
 H580 H 0.07410 0.65969 0.61567
 C581 C 0.63853 0.14192 0.62389
 C582 C 0.65043 0.16837 0.61270
 C583 C 0.66927 0.18478 0.63122
 C584 C 0.67653 0.17492 0.66078
 C585 C 0.66440 0.14826 0.67097
 N586 N 0.64605 0.13270 0.65255
 C587 C 0.61860 0.12326 0.60538
 N588 N 0.61555 0.09443 0.61315
 C589 C 0.59759 0.07581 0.59763
 C590 C 0.58116 0.08595 0.57255
 C591 C 0.58374 0.11566 0.56427
 C592 C 0.60229 0.13438 0.58062
 H593 H 0.67862 0.20490 0.62218
 H594 H 0.66915 0.13994 0.69369
 H595 H 0.59649 0.05302 0.60468
 H596 H 0.57099 0.12458 0.54551
 H597 H 0.64590 0.17614 0.58974
 H598 H 0.60320 0.15731 0.57419
 C599 C 0.62631 0.63430 0.12906
 C600 C 0.61587 0.66168 0.13971
 C601 C 0.63390 0.67910 0.15811
 C602 C 0.66242 0.66948 0.16581
 C603 C 0.67188 0.64182 0.15475
 N604 N 0.65381 0.62515 0.13709
 C605 C 0.60797 0.61476 0.10996
 N606 N 0.61163 0.58509 0.11228
 C607 C 0.59557 0.56576 0.09545
 C608 C 0.57466 0.57607 0.07442
 C609 C 0.57087 0.60656 0.07125
 C610 C 0.58737 0.62597 0.08905
 H611 H 0.62526 0.69987 0.16669
 H612 H 0.69376 0.63356 0.15970
 H613 H 0.59939 0.54239 0.09824
 H614 H 0.55491 0.61534 0.05528
 H615 H 0.59380 0.66931 0.13454
 H616 H 0.58435 0.64943 0.08606
   
