data_POSCAR
  _audit_creation_date              2014-09-24
  _audit_creation_method            'ToBaCCo'
  _symmetry_space_group_name_H-M    'P1'
  _symmetry_Int_Tables_number       1
  _symmetry_cell_setting            triclinic
  loop_
  _symmetry_equiv_pos_as_xyz
 x,y,z
_cell_length_a 53.1790
_cell_length_b 53.0877
_cell_length_c 53.1857
_cell_angle_alpha 89.995800
_cell_angle_beta 89.997400
_cell_angle_gamma 89.998500
loop_
  _atom_site_label
  _atom_site_type_symbol
  _atom_site_fract_x
  _atom_site_fract_y
  _atom_site_fract_z
C1 C 0.61422 0.64624 0.61498
 C2 C 0.63576 0.63548 0.60423
 C3 C 0.64640 0.61416 0.61485
 C4 C 0.63563 0.60334 0.63635
 C5 C 0.61434 0.61398 0.64699
 C6 C 0.60357 0.63555 0.63624
 C7 C 0.59989 0.66690 0.60869
 N8 N 0.58096 0.66884 0.62562
 C9 C 0.58293 0.64988 0.64254
 C10 C 0.60801 0.59962 0.66760
 N11 N 0.62498 0.58069 0.66955
 C12 C 0.64194 0.58266 0.65066
 C13 C 0.66704 0.60787 0.60053
 N14 N 0.66901 0.62486 0.58164
 C15 C 0.65010 0.64182 0.58362
 H16 H 0.60295 0.67957 0.59303
 H17 H 0.57029 0.64679 0.65821
 H18 H 0.59231 0.60268 0.68021
 H19 H 0.65764 0.57003 0.64758
 H20 H 0.67967 0.59216 0.60357
 H21 H 0.64704 0.65754 0.57101
 C22 C 0.88649 0.35308 0.11452
 C23 C 0.86499 0.36390 0.10373
 C24 C 0.85439 0.38525 0.11434
 C25 C 0.86516 0.39602 0.13586
 C26 C 0.88641 0.38533 0.14652
 C27 C 0.89714 0.36374 0.13579
 C28 C 0.90077 0.33237 0.10824
 N29 N 0.91966 0.33040 0.12520
 C30 C 0.91774 0.34936 0.14214
 C31 C 0.89272 0.39968 0.16714
 N32 N 0.87582 0.41866 0.16908
 C33 C 0.85889 0.41671 0.15016
 C34 C 0.83379 0.39159 0.09999
 N35 N 0.83180 0.37460 0.08110
 C36 C 0.85067 0.35759 0.08310
 H37 H 0.89768 0.31972 0.09256
 H38 H 0.93035 0.35243 0.15783
 H39 H 0.90839 0.39659 0.17978
 H40 H 0.84325 0.42940 0.14708
 H41 H 0.82120 0.40733 0.10301
 H42 H 0.85370 0.34186 0.07050
 C43 C 0.38569 0.14605 -0.11488
 C44 C 0.36417 0.13526 -0.10410
 C45 C 0.35353 0.11395 -0.11473
 C46 C 0.36428 0.10317 -0.13626
 C47 C 0.38555 0.11383 -0.14691
 C48 C 0.39631 0.13539 -0.13616
 C49 C 0.40002 0.16671 -0.10859
 N50 N 0.41892 0.16868 -0.12555
 C51 C 0.41694 0.14974 -0.14248
 C52 C 0.39185 0.09950 -0.16755
 N53 N 0.37490 0.08056 -0.16949
 C54 C 0.35796 0.08250 -0.15058
 C55 C 0.33292 0.10763 -0.10038
 N56 N 0.33096 0.12459 -0.08148
 C57 C 0.34986 0.14157 -0.08346
 H58 H 0.39698 0.17936 -0.09291
 H59 H 0.42954 0.14667 -0.15817
 H60 H 0.40753 0.10259 -0.18018
 H61 H 0.34227 0.06985 -0.14749
 H62 H 0.32030 0.09191 -0.10342
 H63 H 0.35292 0.15728 -0.07084
 C64 C 0.11359 0.85377 0.38513
 C65 C 0.13510 0.86458 0.39590
 C66 C 0.14571 0.88590 0.38526
 C67 C 0.13495 0.89667 0.36373
 C68 C 0.11368 0.88598 0.35309
 C69 C 0.10294 0.86441 0.36385
 C70 C 0.09929 0.83309 0.39145
 N71 N 0.08039 0.83112 0.37449
 C72 C 0.08232 0.85005 0.35754
 C73 C 0.10735 0.90031 0.33245
 N74 N 0.12428 0.91926 0.33049
 C75 C 0.14124 0.91734 0.34940
 C76 C 0.16633 0.89224 0.39959
 N77 N 0.16830 0.87527 0.41850
 C78 C 0.14942 0.85828 0.41653
 H79 H 0.10237 0.82045 0.40714
 H80 H 0.06971 0.85312 0.34184
 H81 H 0.09167 0.89720 0.31983
 H82 H 0.15691 0.93000 0.35247
 H83 H 0.17894 0.90796 0.39655
 H84 H 0.14638 0.84257 0.42915
 N85 N 0.09481 0.16499 0.11494
 N86 N 0.08490 0.15467 0.13513
 C87 C 0.06456 0.16811 0.14212
 C88 C 0.06176 0.18773 0.12538
 C89 C 0.08115 0.18531 0.10838
 H90 H 0.05266 0.16399 0.15808
 H91 H 0.08498 0.19738 0.09245
 Cu92 Cu 0.09954 0.12456 0.15002
 Cu93 Cu 0.12461 0.15134 0.09860
 Cu94 Cu 0.15116 0.09789 0.12518
 N95 N 0.11473 0.09477 0.16501
 N96 N 0.13490 0.08440 0.15511
 C97 C 0.14146 0.06413 0.16884
 C98 C 0.12450 0.06180 0.18827
 C99 C 0.10778 0.08143 0.18543
 H100 H 0.15733 0.05199 0.16498
 H101 H 0.09180 0.08557 0.19730
 N102 N 0.16486 0.11437 0.09491
 N103 N 0.15476 0.13474 0.08480
 C104 C 0.16835 0.14145 0.06449
 C105 C 0.18777 0.12452 0.06184
 C106 C 0.18514 0.10761 0.08129
 H107 H 0.16448 0.15744 0.05250
 H108 H 0.19714 0.09163 0.08518
 H109 H 0.11946 0.11444 0.10995
 H110 H 0.13967 0.13466 0.13032
 N111 N 0.40454 0.83495 0.61494
 N112 N 0.41442 0.84531 0.63513
 C113 C 0.43471 0.83185 0.64222
 C114 C 0.43755 0.81220 0.62552
 C115 C 0.41820 0.81461 0.60846
 H116 H 0.44654 0.83595 0.65824
 H117 H 0.41439 0.80250 0.59256
 Cu118 Cu 0.39950 0.87529 0.64996
 Cu119 Cu 0.37470 0.84855 0.59854
 Cu120 Cu 0.34800 0.90199 0.62518
 N121 N 0.38455 0.90518 0.66495
 N122 N 0.36433 0.91551 0.65509
 C123 C 0.35774 0.93575 0.66885
 C124 C 0.37473 0.93810 0.68826
 C125 C 0.39149 0.91850 0.68538
 H126 H 0.34184 0.94785 0.66502
 H127 H 0.40745 0.91434 0.69728
 N128 N 0.33433 0.88546 0.59491
 N129 N 0.34450 0.86513 0.58476
 C130 C 0.33092 0.85841 0.56445
 C131 C 0.31145 0.87529 0.56183
 C132 C 0.31403 0.89218 0.58130
 H133 H 0.33483 0.84245 0.55244
 H134 H 0.30199 0.90812 0.58521
 H135 H 0.37959 0.88544 0.60991
 H136 H 0.35941 0.86516 0.63020
 N137 N 0.90532 0.66568 0.38535
 N138 N 0.91523 0.65530 0.36519
 C139 C 0.93558 0.66871 0.35817
 C140 C 0.93839 0.68838 0.37486
 C141 C 0.91899 0.68600 0.39186
 H142 H 0.94745 0.66458 0.34218
 H143 H 0.91515 0.69812 0.40775
 Cu144 Cu 0.90034 0.62537 0.35021
 Cu145 Cu 0.87546 0.65209 0.40170
 Cu146 Cu 0.84894 0.59854 0.37515
 N147 N 0.88547 0.59535 0.33539
 N148 N 0.86529 0.58498 0.34529
 C149 C 0.85877 0.56467 0.33159
 C150 C 0.87577 0.56232 0.31218
 C151 C 0.89247 0.58198 0.31501
 H152 H 0.84290 0.55253 0.33543
 H153 H 0.90842 0.58615 0.30312
 N154 N 0.83519 0.61510 0.40537
 N155 N 0.84527 0.63549 0.41546
 C156 C 0.83168 0.64219 0.43578
 C157 C 0.81229 0.62523 0.43844
 C158 C 0.81493 0.60832 0.41900
 H159 H 0.83556 0.65817 0.44778
 H160 H 0.80297 0.59231 0.41515
 H161 H 0.88054 0.61525 0.39035
 H162 H 0.86022 0.63541 0.37009
 N163 N 0.59536 0.33477 -0.11513
 N164 N 0.58548 0.34515 -0.13531
 C165 C 0.56507 0.33180 -0.14229
 C166 C 0.56222 0.31216 -0.12557
 C167 C 0.58163 0.31449 -0.10859
 H168 H 0.55319 0.33597 -0.15825
 H169 H 0.58545 0.30237 -0.09269
 Cu170 Cu 0.60041 0.37509 -0.15022
 Cu171 Cu 0.62527 0.34829 -0.09880
 Cu172 Cu 0.65194 0.40175 -0.12541
 N173 N 0.61536 0.40503 -0.16512
 N174 N 0.63557 0.41536 -0.15525
 C175 C 0.64210 0.43567 -0.16894
 C176 C 0.62507 0.43808 -0.18830
 C177 C 0.60833 0.41847 -0.18546
 H178 H 0.65802 0.44777 -0.16512
 H179 H 0.59232 0.41436 -0.19730
 N180 N 0.66568 0.38515 -0.09521
 N181 N 0.65553 0.36481 -0.08509
 C182 C 0.66912 0.35806 -0.06478
 C183 C 0.68858 0.37495 -0.06215
 C184 C 0.68598 0.39186 -0.08160
 H185 H 0.66520 0.34211 -0.05277
 H186 H 0.69800 0.40782 -0.08548
 H187 H 0.62030 0.38517 -0.11015
 H188 H 0.64053 0.36492 -0.13043
 C189 C -0.02732 0.27700 0.12536
 C190 C -0.01576 0.27209 0.09937
 C191 C 0.00229 0.25388 0.09944
 C192 C 0.00703 0.24236 0.12549
 C193 C -0.01881 0.23301 0.13437
 C194 C -0.03687 0.25122 0.13430
 C195 C -0.00490 0.28306 0.14251
 C196 C 0.01316 0.26484 0.14257
 C197 C -0.04676 0.29660 0.12529
 C198 C -0.06275 0.31270 0.12524
 C199 C 0.02650 0.22278 0.12555
 C200 C 0.04256 0.20676 0.12553
 H201 H -0.02126 0.28206 0.08241
 H202 H 0.01225 0.24823 0.08254
 H203 H -0.02259 0.21377 0.14018
 H204 H -0.05612 0.24760 0.14006
 H205 H -0.00333 0.30015 0.15360
 H206 H 0.03019 0.26632 0.15373
 C207 C 0.52680 0.72309 0.62567
 C208 C 0.50899 0.72159 0.64833
 C209 C 0.49088 0.73976 0.64836
 C210 C 0.49236 0.75764 0.62573
 C211 C 0.49146 0.74042 0.60256
 C212 C 0.50957 0.72225 0.60253
 C213 C 0.53735 0.75000 0.62618
 C214 C 0.51924 0.76817 0.62621
 C215 C 0.54629 0.70354 0.62565
 C216 C 0.56232 0.68749 0.62563
 C217 C 0.47284 0.77718 0.62576
 C218 C 0.45676 0.79318 0.62571
 H219 H 0.51045 0.70750 0.66305
 H220 H 0.47684 0.74123 0.66311
 H221 H 0.47782 0.74233 0.58750
 H222 H 0.51143 0.70860 0.58745
 H223 H 0.55729 0.75440 0.62648
 H224 H 0.52367 0.78813 0.62652
 C225 C 1.02734 0.77776 0.37448
 C226 C 1.03494 0.75390 0.36006
 C227 C 1.01688 0.73568 0.36006
 C228 C 0.99300 0.74311 0.37448
 C229 C 0.98441 0.76797 0.36249
 C230 C 1.00247 0.78619 0.36249
 C231 C 1.02020 0.76856 0.40089
 C232 C 1.00214 0.75034 0.40089
 C233 C 1.04678 0.79735 0.37448
 C234 C 1.06278 0.81344 0.37449
 C235 C 0.97356 0.72351 0.37451
 C236 C 0.95754 0.70744 0.37461
 H237 H 1.05291 0.75152 0.35067
 H238 H 1.01939 0.71770 0.35067
 H239 H 0.96578 0.77101 0.35471
 H240 H 0.99930 0.80483 0.35471
 H241 H 1.02856 0.77574 0.41808
 H242 H 0.99504 0.74191 0.41808
 C243 C 0.47307 0.22295 -0.12570
 C244 C 0.47372 0.23856 -0.14998
 C245 C 0.49181 0.25675 -0.15005
 C246 C 0.50747 0.25754 -0.12582
 C247 C 0.51793 0.23075 -0.12279
 C248 C 0.49985 0.21257 -0.12272
 C249 C 0.47012 0.24231 -0.10447
 C250 C 0.48820 0.26049 -0.10453
 C251 C 0.45358 0.20339 -0.12563
 C252 C 0.43755 0.18733 -0.12558
 C253 C 0.52695 0.27711 -0.12585
 C254 C 0.54301 0.29314 -0.12578
 H255 H 0.46110 0.23558 -0.16575
 H256 H 0.49468 0.26935 -0.16587
 H257 H 0.53780 0.22645 -0.12084
 H258 H 0.50422 0.19269 -0.12072
 H259 H 0.45516 0.24176 -0.09058
 H260 H 0.48874 0.27552 -0.09070
 C261 C 0.12417 -0.02748 0.27734
 C262 C 0.14259 -0.03268 0.25572
 C263 C 0.14255 -0.01450 0.23764
 C264 C 0.12411 0.00711 0.24293
 C265 C 0.13134 0.01690 0.26910
 C266 C 0.13138 -0.00128 0.28719
 C267 C 0.09851 -0.02388 0.26461
 C268 C 0.09847 -0.00570 0.24652
 C269 C 0.12421 -0.04703 0.29682
 C270 C 0.12425 -0.06309 0.31285
 C271 C 0.12413 0.02668 0.22346
 C272 C 0.12425 0.04273 0.20743
 H273 H 0.15460 -0.04919 0.25472
 H274 H 0.15453 -0.01544 0.22113
 H275 H 0.13604 0.03640 0.27308
 H276 H 0.13611 0.00264 0.30666
 H277 H 0.08184 -0.03469 0.26938
 H278 H 0.08177 -0.00092 0.23580
 C279 C 0.62491 0.52735 -0.27738
 C280 C 0.61327 0.53595 -0.25241
 C281 C 0.61323 0.51775 -0.23433
 C282 C 0.62483 0.49273 -0.24301
 C283 C 0.65124 0.49963 -0.25242
 C284 C 0.65128 0.51783 -0.27049
 C285 C 0.61013 0.50365 -0.28480
 C286 C 0.61008 0.48545 -0.26673
 C287 C 0.62495 0.54693 -0.29684
 C288 C 0.62496 0.56301 -0.31285
 C289 C 0.62480 0.47316 -0.22353
 C290 C 0.62486 0.45713 -0.20748
 H291 H 0.60576 0.55468 -0.24918
 H292 H 0.60567 0.52089 -0.21563
 H293 H 0.66840 0.49100 -0.24548
 H294 H 0.66848 0.52479 -0.27903
 H295 H 0.60054 0.50137 -0.30268
 H296 H 0.60046 0.46758 -0.26913
 C297 C 0.37496 1.02731 0.77736
 C298 C 0.38197 1.03717 0.75115
 C299 C 0.38200 1.01899 0.73305
 C300 C 0.37502 0.99274 0.74295
 C301 C 0.34941 0.99619 0.75583
 C302 C 0.34938 1.01437 0.77392
 C303 C 0.39357 1.00582 0.78253
 C304 C 0.39360 0.98765 0.76444
 C305 C 0.37492 1.04686 0.79685
 C306 C 0.37490 1.06291 0.81288
 C307 C 0.37502 0.97318 0.72347
 C308 C 0.37494 0.95713 0.70744
 H309 H 0.38649 1.05671 0.74714
 H310 H 0.38655 1.02296 0.71355
 H311 H 0.33276 0.98534 0.75113
 H312 H 0.33271 1.01908 0.78472
 H313 H 0.40566 1.00496 0.79896
 H314 H 0.40572 0.97122 0.76536
 C315 C 0.87595 0.47300 0.22315
 C316 C 0.89320 0.46701 0.24551
 C317 C 0.89324 0.48523 0.26357
 C318 C 0.87604 0.50764 0.25750
 C319 C 0.85002 0.49600 0.25286
 C320 C 0.84997 0.47779 0.23480
 C321 C 0.88473 0.49882 0.21358
 C322 C 0.88478 0.51703 0.23164
 C323 C 0.87589 0.45341 0.20370
 C324 C 0.87585 0.43733 0.18770
 C325 C 0.87606 0.52723 0.27696
 C326 C 0.87599 0.54328 0.29300
 H327 H 0.90436 0.44996 0.24704
 H328 H 0.90445 0.48378 0.28057
 H329 H 0.83312 0.50157 0.26288
 H330 H 0.83304 0.46775 0.22936
 H331 H 0.89041 0.50248 0.19432
 H332 H 0.89049 0.53629 0.22784
 C333 C 0.27683 0.12455 -0.02729
 C334 C 0.26427 0.15031 -0.02349
 C335 C 0.24616 0.15030 -0.00536
 C336 C 0.24238 0.12454 0.00720
 C337 C 0.26850 0.11704 0.01694
 C338 C 0.28661 0.11705 -0.00118
 C339 C 0.25510 0.10629 -0.03266
 C340 C 0.23699 0.10629 -0.01453
 C341 C 0.29633 0.12456 -0.04680
 C342 C 0.31235 0.12457 -0.06283
 C343 C 0.22289 0.12452 0.02671
 C344 C 0.20687 0.12451 0.04275
 H345 H 0.26917 0.16708 -0.03410
 H346 H 0.23554 0.16706 -0.00044
 H347 H 0.27243 0.11216 0.03638
 H348 H 0.30605 0.11217 0.00272
 H349 H 0.25403 0.09443 -0.04925
 H350 H 0.22040 0.09441 -0.01559
 C351 C 0.72319 0.62498 0.52752
 C352 C 0.74659 0.60956 0.53453
 C353 C 0.76472 0.60962 0.51643
 C354 C 0.75768 0.62508 0.49307
 C355 C 0.75130 0.65143 0.50312
 C356 C 0.73317 0.65137 0.52123
 C357 C 0.71436 0.61407 0.50229
 C358 C 0.73249 0.61413 0.48418
 C359 C 0.70368 0.62492 0.54701
 C360 C 0.68765 0.62488 0.56302
 C361 C 0.77719 0.62514 0.47358
 C362 C 0.79322 0.62519 0.45755
 H363 H 0.74873 0.59949 0.55217
 H364 H 0.78239 0.59960 0.51855
 H365 H 0.76023 0.66861 0.49658
 H366 H 0.72657 0.66851 0.53020
 H367 H 0.69552 0.60694 0.49894
 H368 H 0.72918 0.60705 0.46532
 C369 C 0.77767 0.37471 0.02692
 C370 C 0.78792 0.37935 0.00034
 C371 C 0.76980 0.37941 -0.01778
 C372 C 0.74320 0.37482 -0.00754
 C373 C 0.73938 0.39508 0.01270
 C374 C 0.75750 0.39502 0.03081
 C375 C 0.76307 0.34983 0.02510
 C376 C 0.74495 0.34989 0.00699
 C377 C 0.79717 0.37466 0.04642
 C378 C 0.81319 0.37462 0.06246
 C379 C 0.72370 0.37488 -0.02704
 C380 C 0.70767 0.37492 -0.04306
 H381 H 0.80768 0.38231 -0.00389
 H382 H 0.77403 0.38242 -0.03752
 H383 H 0.72380 0.40830 0.01280
 H384 H 0.75745 0.40819 0.04643
 H385 H 0.76665 0.33360 0.03699
 H386 H 0.73300 0.33371 0.00336
 C387 C 0.22241 0.87527 0.47270
 C388 C 0.21225 0.88073 0.49916
 C389 C 0.23035 0.88072 0.51730
 C390 C 0.25683 0.87525 0.50720
 C391 C 0.26118 0.89497 0.48655
 C392 C 0.24308 0.89498 0.46841
 C393 C 0.23638 0.85008 0.47508
 C394 C 0.25448 0.85007 0.49322
 C395 C 0.20293 0.87528 0.45318
 C396 C 0.18692 0.87528 0.43714
 C397 C 0.27632 0.87525 0.52672
 C398 C 0.29235 0.87526 0.54275
 H399 H 0.19257 0.88429 0.50329
 H400 H 0.22618 0.88427 0.53697
 H401 H 0.27709 0.90779 0.48619
 H402 H 0.24348 0.90781 0.45251
 H403 H 0.23241 0.83369 0.46352
 H404 H 0.26602 0.83367 0.49720
   
