data_POSCAR
  _audit_creation_date              2014-09-24
  _audit_creation_method            'ToBaCCo'
  _symmetry_space_group_name_H-M    'P1'
  _symmetry_Int_Tables_number       1
  _symmetry_cell_setting            triclinic
  loop_
  _symmetry_equiv_pos_as_xyz
 x,y,z
_cell_length_a 43.9652
_cell_length_b 47.2862
_cell_length_c 44.6182
_cell_angle_alpha 89.884200
_cell_angle_beta 90.261500
_cell_angle_gamma 90.200600
loop_
  _atom_site_label
  _atom_site_type_symbol
  _atom_site_fract_x
  _atom_site_fract_y
  _atom_site_fract_z
C1 C 1.20128 0.26065 0.29598
 H2 H 1.19906 0.23786 0.29546
 C3 C 1.18320 0.27649 0.31531
 H4 H 1.16710 0.26578 0.32973
 C5 C 1.22527 0.30228 0.27799
 H6 H 1.24177 0.31223 0.26351
 C7 C 1.20792 0.31891 0.29724
 H8 H 1.21092 0.34165 0.29706
 N9 N 1.22131 0.27374 0.27736
 C10 C 1.23192 0.21616 0.20218
 H11 H 1.25648 0.21576 0.20097
 C12 C 1.21458 0.20040 0.18195
 H13 H 1.22599 0.18765 0.16533
 C14 C 1.18732 0.23284 0.22588
 H15 H 1.17674 0.24579 0.24274
 C16 C 1.16908 0.21720 0.20622
 H17 H 1.14457 0.21819 0.20823
 Zn18 Zn 1.24415 0.25098 0.25095
 N19 N 1.21817 0.23156 0.22393
 C20 C 1.26056 0.19640 0.27105
 N21 N 1.26608 0.22446 0.27438
 C22 C 1.28620 0.23395 0.29520
 C23 C 1.30266 0.21491 0.31288
 C24 C 1.27627 0.17658 0.28829
 C25 C 1.25725 0.29129 0.20736
 C26 C 1.27494 0.30773 0.18812
 C27 C 1.32005 0.28755 0.21055
 C28 C 1.30145 0.27126 0.22923
 N29 N 1.27064 0.27357 0.22746
 H30 H 1.24348 0.18921 0.25532
 H31 H 1.28984 0.25647 0.29776
 H32 H 1.31951 0.22399 0.32768
 H33 H 1.26959 0.15479 0.28530
 H34 H 1.23270 0.29245 0.20619
 H35 H 1.26383 0.32183 0.17239
 H36 H 1.34451 0.28529 0.21201
 H37 H 1.31170 0.25656 0.24477
 C38 C 1.18273 0.20052 0.18407
 C39 C 1.18631 0.30603 0.31593
 C40 C 1.30678 0.30595 0.18953
 C41 C 1.29833 0.18528 0.30971
 C42 C 0.72541 -0.23058 0.30468
 H43 H 0.73623 -0.24850 0.31526
 C44 C 0.70872 -0.21169 0.32208
 H45 H 0.70741 -0.21500 0.34605
 C46 C 0.71395 -0.20449 0.26070
 H47 H 0.71597 -0.20185 0.23674
 C48 C 0.69708 -0.18510 0.27722
 H49 H 0.68598 -0.16778 0.26567
 N50 N 0.72811 -0.22643 0.27462
 C51 C 0.73830 -0.28693 0.20283
 H52 H 0.76199 -0.28381 0.19725
 C53 C 0.71987 -0.30383 0.18462
 H54 H 0.72961 -0.31325 0.16479
 C55 C 0.69689 -0.27750 0.23506
 H56 H 0.68814 -0.26723 0.25484
 C57 C 0.67773 -0.29454 0.21770
 H58 H 0.65438 -0.29748 0.22464
 Zn59 Zn 0.75225 -0.25073 0.25092
 N60 N 0.72655 -0.27405 0.22739
 C61 C 0.77744 -0.30213 0.27160
 N62 N 0.77727 -0.27365 0.27585
 C63 C 0.79430 -0.26148 0.29792
 C64 C 0.81246 -0.27810 0.31670
 C65 C 0.79558 -0.31947 0.28956
 C66 C 0.76333 -0.21968 0.19859
 C67 C 0.77949 -0.20274 0.17856
 C68 C 0.82223 -0.20353 0.21272
 C69 C 0.80531 -0.22073 0.23200
 N70 N 0.77632 -0.22829 0.22477
 H71 H 0.76358 -0.31150 0.25420
 H72 H 0.79355 -0.23882 0.30114
 H73 H 0.82602 -0.26808 0.33402
 H74 H 0.79545 -0.34209 0.28583
 H75 H 0.74027 -0.22596 0.19323
 H76 H 0.76874 -0.19656 0.15769
 H77 H 0.84495 -0.19716 0.21934
 H78 H 0.81532 -0.22769 0.25284
 C79 C 0.68910 -0.30793 0.19196
 C80 C 0.69456 -0.18839 0.30839
 C81 C 0.80931 -0.19419 0.18559
 C82 C 0.81339 -0.30746 0.31244
 C83 C 0.70187 0.26034 -0.20426
 H84 H 0.70035 0.23750 -0.20378
 C85 C 0.68295 0.27648 -0.18597
 H86 H 0.66689 0.26595 -0.17134
 C87 C 0.72501 0.30184 -0.22359
 H88 H 0.74157 0.31166 -0.23811
 C89 C 0.70686 0.31875 -0.20538
 H90 H 0.70930 0.34152 -0.20642
 N91 N 0.72201 0.27320 -0.22296
 C92 C 0.73775 0.21052 -0.29318
 H93 H 0.76235 0.21006 -0.29325
 C94 C 0.72133 0.19312 -0.31271
 H95 H 0.73340 0.17929 -0.32785
 C96 C 0.69213 0.22958 -0.27380
 H97 H 0.68079 0.24405 -0.25892
 C98 C 0.67483 0.21288 -0.29329
 H99 H 0.65026 0.21431 -0.29284
 Zn100 Zn 0.74701 0.25038 -0.24752
 N101 N 0.72301 0.22779 -0.27373
 C102 C 0.77094 0.19867 -0.22519
 N103 N 0.77115 0.22728 -0.22206
 C104 C 0.78851 0.24004 -0.20064
 C105 C 0.80766 0.22398 -0.18223
 C106 C 0.78998 0.18189 -0.20758
 C107 C 0.75774 0.28880 -0.29359
 C108 C 0.77433 0.30625 -0.31280
 C109 C 0.82023 0.29191 -0.28726
 C110 C 0.80264 0.27453 -0.26874
 N111 N 0.77195 0.27358 -0.27194
 H112 H 0.75623 0.18870 -0.24146
 H113 H 0.78787 0.26280 -0.19825
 H114 H 0.82194 0.23448 -0.16581
 H115 H 0.78988 0.15918 -0.21070
 H116 H 0.73331 0.28714 -0.29611
 H117 H 0.76149 0.31656 -0.33031
 H118 H 0.84424 0.29265 -0.28230
 H119 H 0.81365 0.26202 -0.25160
 C120 C 0.68946 0.19415 -0.31283
 C121 C 0.68534 0.30609 -0.18643
 C122 C 0.80643 0.30863 -0.31003
 C123 C 0.80893 0.19457 -0.18606
 C124 C 1.20121 -0.23749 -0.21279
 H125 H 1.19710 -0.25977 -0.21661
 C126 C 1.18137 -0.22201 -0.19489
 H127 H 1.16201 -0.23252 -0.18484
 C128 C 1.23193 -0.19687 -0.22075
 H129 H 1.25178 -0.18727 -0.23079
 C130 C 1.21281 -0.18065 -0.20285
 H131 H 1.21787 -0.15843 -0.19959
 N132 N 1.22586 -0.22474 -0.22531
 C133 C 1.23582 -0.29873 -0.27680
 H134 H 1.25560 -0.30740 -0.26584
 C135 C 1.21756 -0.31640 -0.29440
 H136 H 1.22355 -0.33848 -0.29665
 C137 C 1.20314 -0.26001 -0.28631
 H138 H 1.19720 -0.23815 -0.28254
 C139 C 1.18418 -0.27694 -0.30396
 H140 H 1.16420 -0.26769 -0.31426
 Zn141 Zn 1.25251 -0.24652 -0.24884
 N142 N 1.22855 -0.27098 -0.27328
 C143 C 1.30093 -0.28406 -0.23441
 N144 N 1.27834 -0.26776 -0.22295
 C145 C 1.27344 -0.26655 -0.19290
 C146 C 1.29083 -0.28285 -0.17321
 C147 C 1.31890 -0.30074 -0.21548
 C148 C 1.26073 -0.20684 -0.29500
 C149 C 1.27650 -0.18824 -0.31365
 C150 C 1.32281 -0.19992 -0.28715
 C151 C 1.30613 -0.21844 -0.26905
 N152 N 1.27567 -0.22176 -0.27343
 H153 H 1.30470 -0.28442 -0.25834
 H154 H 1.25579 -0.25318 -0.18405
 H155 H 1.28642 -0.28161 -0.14939
 H156 H 1.33614 -0.31420 -0.22511
 H157 H 1.23647 -0.20920 -0.29770
 H158 H 1.26410 -0.17650 -0.33058
 H159 H 1.34710 -0.19786 -0.28364
 H160 H 1.31754 -0.22995 -0.25138
 C161 C 1.19131 -0.30555 -0.30822
 C162 C 1.18716 -0.19322 -0.18965
 C163 C 1.30799 -0.18470 -0.30996
 C164 C 1.31363 -0.30056 -0.18444
 C165 C 0.26257 0.20446 0.70898
 H166 H 0.23806 0.20243 0.70955
 C167 C 0.27962 0.18664 0.69072
 H168 H 0.26811 0.17099 0.67704
 C169 C 0.30733 0.22770 0.72584
 H170 H 0.31800 0.24384 0.73943
 C171 C 0.32522 0.21059 0.70757
 H172 H 0.34966 0.21350 0.70748
 N173 N 0.27662 0.22419 0.72640
 C174 C 0.20902 0.23645 0.79628
 H175 H 0.20541 0.25904 0.79512
 C176 C 0.19199 0.22000 0.81614
 H177 H 0.17576 0.23057 0.83038
 C178 C 0.23599 0.19613 0.78004
 H179 H 0.25335 0.18688 0.76616
 C180 C 0.22012 0.17900 0.80008
 H181 H 0.22498 0.15660 0.80000
 Zn182 Zn 0.25187 0.24712 0.75090
 N183 N 0.22985 0.22420 0.77808
 C184 C 0.19448 0.26537 0.72766
 N185 N 0.22526 0.26747 0.72522
 C186 C 0.23823 0.28370 0.70355
 C187 C 0.22014 0.29941 0.68391
 C188 C 0.17552 0.28095 0.70868
 C189 C 0.29437 0.26000 0.79527
 C190 C 0.31226 0.27687 0.81403
 C191 C 0.29257 0.31823 0.78876
 C192 C 0.27481 0.30056 0.77066
 N193 N 0.27619 0.27199 0.77407
 H194 H 0.18444 0.25155 0.74416
 H195 H 0.26275 0.28460 0.70172
 H196 H 0.23090 0.31266 0.66718
 H197 H 0.15109 0.27914 0.71100
 H198 H 0.29482 0.23723 0.79766
 H199 H 0.32670 0.26694 0.83069
 H200 H 0.29102 0.34093 0.78597
 H201 H 0.25974 0.30974 0.75417
 C202 C 0.19727 0.19065 0.81837
 C203 C 0.31136 0.18963 0.68988
 C204 C 0.31149 0.30639 0.81087
 C205 C 0.18835 0.29835 0.68655
 C206 C 0.76045 0.70737 0.70903
 H207 H 0.73596 0.70567 0.70733
 C208 C 0.77894 0.68944 0.69223
 H209 H 0.76849 0.67382 0.67772
 C210 C 0.80378 0.72930 0.73072
 H211 H 0.81346 0.74459 0.74597
 C212 C 0.82307 0.71170 0.71452
 H213 H 0.84745 0.71406 0.71713
 N214 N 0.77308 0.72706 0.72753
 C215 C 0.69141 0.72941 0.77456
 H216 H 0.68029 0.74497 0.76061
 C217 C 0.67396 0.71212 0.79332
 H218 H 0.64973 0.71578 0.79380
 C219 C 0.73660 0.70733 0.79120
 H220 H 0.76109 0.70546 0.78999
 C221 C 0.72015 0.68961 0.81024
 H222 H 0.73274 0.67376 0.82252
 Zn223 Zn 0.74707 0.75069 0.75023
 N224 N 0.72219 0.72707 0.77425
 C225 C 0.70528 0.79394 0.73731
 N226 N 0.72345 0.77407 0.72465
 C227 C 0.72630 0.77219 0.69438
 C228 C 0.71001 0.79031 0.67559
 C229 C 0.68859 0.81256 0.71932
 C230 C 0.77095 0.77231 0.80516
 C231 C 0.78946 0.78991 0.82258
 C232 C 0.80614 0.81325 0.77729
 C233 C 0.78746 0.79513 0.76076
 N234 N 0.77072 0.77488 0.77479
 H235 H 0.70390 0.79539 0.76146
 H236 H 0.74158 0.75696 0.68469
 H237 H 0.71290 0.78864 0.65157
 H238 H 0.67392 0.82796 0.72981
 H239 H 0.75710 0.75644 0.81597
 H240 H 0.79000 0.78697 0.84664
 H241 H 0.81919 0.82927 0.76563
 H242 H 0.78648 0.79697 0.73660
 C243 C 0.68816 0.69187 0.81206
 C244 C 0.81072 0.69148 0.69490
 C245 C 0.80762 0.81056 0.80864
 C246 C 0.69077 0.81081 0.68799
 C247 C 0.77068 0.21657 0.19953
 H248 H 0.74645 0.21788 0.19541
 C249 C 0.78901 0.20124 0.18005
 H250 H 0.77865 0.19045 0.16119
 C251 C 0.81348 0.22889 0.22929
 H252 H 0.82296 0.23988 0.24838
 C253 C 0.83265 0.21355 0.21050
 H254 H 0.85681 0.21294 0.21525
 N255 N 0.78305 0.22991 0.22367
 C256 C 0.71953 0.23461 0.29751
 H257 H 0.72296 0.25631 0.30439
 C258 C 0.70231 0.21633 0.31537
 H259 H 0.69283 0.22421 0.33606
 C260 C 0.72899 0.19783 0.26289
 H261 H 0.73955 0.19051 0.24259
 C262 C 0.71168 0.17895 0.27984
 H263 H 0.70872 0.15753 0.27182
 Zn264 Zn 0.75677 0.25054 0.24911
 N265 N 0.73246 0.22515 0.27180
 C266 C 0.70482 0.28393 0.23618
 N267 N 0.73170 0.27428 0.22529
 C268 C 0.74149 0.28181 0.19753
 C269 C 0.72378 0.29924 0.17928
 C270 C 0.68642 0.30160 0.21871
 C271 C 0.79422 0.26069 0.29942
 C272 C 0.81178 0.27694 0.31913
 C273 C 0.80001 0.31830 0.28941
 C274 C 0.78252 0.30131 0.27042
 N275 N 0.78008 0.27306 0.27563
 H276 H 0.69766 0.27803 0.25847
 H277 H 0.76320 0.27442 0.18952
 H278 H 0.73184 0.30443 0.15705
 H279 H 0.66532 0.30936 0.22794
 H280 H 0.79192 0.23814 0.30298
 H281 H 0.82314 0.26673 0.33780
 H282 H 0.80156 0.34078 0.28501
 H283 H 0.77107 0.31068 0.25137
 C284 C 0.69814 0.18802 0.30659
 C285 C 0.82041 0.19951 0.18550
 C286 C 0.81494 0.30613 0.31414
 C287 C 0.69582 0.30947 0.18978
 C288 C 0.26242 0.70863 0.20654
 H289 H 0.23796 0.70651 0.20485
 C290 C 0.28120 0.69184 0.18880
 H291 H 0.27099 0.67658 0.17372
 C292 C 0.30532 0.73080 0.22876
 H293 H 0.31467 0.74629 0.24400
 C294 C 0.32493 0.71438 0.21153
 H295 H 0.34926 0.71741 0.21378
 N296 N 0.27467 0.72731 0.22638
 C297 C 0.20391 0.73655 0.29402
 H298 H 0.20032 0.75916 0.29333
 C299 C 0.18705 0.71976 0.31372
 H300 H 0.17048 0.72957 0.32822
 C301 C 0.23054 0.69638 0.27652
 H302 H 0.24779 0.68738 0.26231
 C303 C 0.21447 0.67887 0.29614
 H304 H 0.21914 0.65640 0.29642
 Zn305 Zn 0.24747 0.74875 0.25007
 N306 N 0.22484 0.72463 0.27563
 C307 C 0.19074 0.76445 0.22376
 N308 N 0.22139 0.76854 0.22354
 C309 C 0.23461 0.78649 0.20362
 C310 C 0.21679 0.80200 0.18358
 C311 C 0.17204 0.77949 0.20403
 C312 C 0.28784 0.76300 0.29604
 C313 C 0.30453 0.78037 0.31532
 C314 C 0.28181 0.82102 0.29150
 C315 C 0.26557 0.80274 0.27271
 N316 N 0.26918 0.77432 0.27497
 H317 H 0.18069 0.74942 0.23907
 H318 H 0.25908 0.78901 0.20361
 H319 H 0.22779 0.81678 0.16853
 H320 H 0.14772 0.77586 0.20446
 H321 H 0.29012 0.74026 0.29755
 H322 H 0.32019 0.76982 0.33026
 H323 H 0.27688 0.84327 0.28927
 H324 H 0.24972 0.81140 0.25660
 C325 C 0.19233 0.69053 0.31497
 C326 C 0.31294 0.69440 0.19139
 C327 C 0.30211 0.81026 0.31352
 C328 C 0.18501 0.79872 0.18370
 N329 N 1.05541 0.02584 0.03354
 N330 N 1.07597 0.04561 0.03875
 N331 N 1.03111 -0.03304 0.05211
 N332 N 1.03580 -0.05355 0.07177
 N333 N 1.05203 -0.03346 0.03122
 N334 N 1.07132 -0.05429 0.03590
 N335 N 1.03406 0.02638 0.05399
 N336 N 1.03957 0.04654 0.07376
 C337 C 1.06580 0.05842 0.06386
 C338 C 1.06082 -0.06680 0.06112
 N339 N 0.94476 -0.02871 0.02945
 N340 N 0.92288 -0.04734 0.03420
 N341 N 0.96841 0.02911 0.05275
 N342 N 0.96364 0.04887 0.07308
 N343 N 0.94782 0.03054 0.03139
 N344 N 0.92860 0.05127 0.03652
 N345 N 0.96550 -0.03026 0.05068
 N346 N 0.95834 -0.05007 0.07032
 Mn347 Mn 0.99976 -0.00194 0.05276
 C348 C 0.93182 -0.06073 0.05961
 C349 C 0.93881 0.06266 0.06250
 N350 N 1.05329 -0.03116 -0.03317
 N351 N 1.07284 -0.05146 -0.03922
 N352 N 1.03589 0.03008 -0.05182
 N353 N 1.04319 0.05026 -0.07103
 N354 N 1.05661 0.02802 -0.03068
 N355 N 1.07858 0.04660 -0.03492
 N356 N 1.03259 -0.02933 -0.05434
 N357 N 1.03735 -0.04844 -0.07529
 Mn358 Mn 1.05461 -0.00274 0.00027
 C359 C 1.06241 -0.06225 -0.06544
 C360 C 1.06979 0.06054 -0.05998
 N361 N 0.94880 0.03285 -0.03305
 N362 N 0.92873 0.05283 -0.03904
 N363 N 0.96743 -0.02652 -0.05557
 N364 N 0.96176 -0.04554 -0.07643
 N365 N 0.94583 -0.02650 -0.03536
 N366 N 0.92470 -0.04540 -0.04210
 N367 N 0.97039 0.03276 -0.05327
 N368 N 0.96555 0.05257 -0.07357
 Mn369 Mn 0.94648 0.00202 -0.00187
 Mn370 Mn 1.00158 0.00180 -0.05404
 Cl371 Cl 1.00058 -0.00023 -0.00071
 C372 C 0.93969 0.06518 -0.06423
 C373 C 0.93513 -0.05729 -0.06768
 N374 N 1.05549 0.52688 0.53942
 N375 N 1.07631 0.54616 0.54585
 N376 N 1.03246 0.46698 0.55736
 N377 N 1.03793 0.44646 0.57682
 N378 N 1.05356 0.46760 0.53664
 N379 N 1.07376 0.44755 0.54128
 N380 N 1.03427 0.52641 0.56003
 N381 N 1.03996 0.54543 0.58091
 C382 C 1.06618 0.55772 0.57171
 C383 C 1.06367 0.43434 0.56625
 N384 N 0.94545 0.47077 0.53600
 N385 N 0.92336 0.45246 0.54112
 N386 N 0.96886 0.52829 0.55952
 N387 N 0.96340 0.54656 0.58113
 N388 N 0.94793 0.53003 0.53849
 N389 N 0.92756 0.54939 0.54541
 N390 N 0.96656 0.46891 0.55683
 N391 N 0.95933 0.44927 0.57668
 Mn392 Mn 1.00054 0.49757 0.55874
 C393 C 0.93246 0.43895 0.56638
 C394 C 0.93773 0.55978 0.57192
 N395 N 1.05405 0.47005 0.47233
 N396 N 1.07417 0.45029 0.46607
 N397 N 1.03508 0.53046 0.45364
 N398 N 1.04212 0.54994 0.43356
 N399 N 1.05595 0.52932 0.47473
 N400 N 1.07781 0.54784 0.46948
 N401 N 1.03280 0.47100 0.45161
 N402 N 1.03779 0.45184 0.43075
 Mn403 Mn 1.05504 0.49851 0.50581
 C404 C 1.06357 0.43892 0.44020
 C405 C 1.06870 0.56082 0.44391
 N406 N 0.94835 0.53253 0.47350
 N407 N 0.92789 0.55211 0.46710
 N408 N 0.96721 0.47299 0.45100
 N409 N 0.96130 0.45360 0.43050
 N410 N 0.94598 0.47308 0.47158
 N411 N 0.92517 0.45365 0.46578
 N412 N 0.96975 0.53227 0.45306
 N413 N 0.96453 0.55161 0.43241
 Mn414 Mn 0.94662 0.50169 0.50488
 Mn415 Mn 1.00120 0.50165 0.45205
 Cl416 Cl 1.00083 0.49987 0.50539
 C417 C 0.93857 0.56410 0.44156
 C418 C 0.93509 0.44156 0.44015
 N419 N 0.53140 -0.02933 0.44182
 N420 N 0.55109 -0.03532 0.42054
 N421 N 0.46848 -0.04986 0.46471
 N422 N 0.44824 -0.07002 0.46006
 N423 N 0.46754 -0.03104 0.44306
 N424 N 0.44668 -0.03806 0.42295
 N425 N 0.53236 -0.04848 0.46313
 N426 N 0.55271 -0.06803 0.45688
 C427 C 0.56449 -0.05936 0.43041
 C428 C 0.43456 -0.06229 0.43410
 N429 N 0.47034 -0.02895 0.54980
 N430 N 0.45069 -0.03528 0.57114
 N431 N 0.53410 -0.04713 0.52755
 N432 N 0.55418 -0.06692 0.53376
 N433 N 0.53414 -0.02763 0.54849
 N434 N 0.55415 -0.03395 0.56969
 N435 N 0.47025 -0.04861 0.52905
 N436 N 0.45043 -0.06865 0.53556
 Mn437 Mn 0.50130 -0.04871 0.49613
 C438 C 0.43816 -0.05997 0.56171
 C439 C 0.56684 -0.05832 0.55986
 N440 N 0.46607 0.03000 0.44170
 N441 N 0.44546 0.03526 0.42084
 N442 N 0.52981 0.05156 0.46089
 N443 N 0.54956 0.07161 0.45417
 N444 N 0.52997 0.03160 0.44049
 N445 N 0.55001 0.03750 0.41939
 N446 N 0.46601 0.04990 0.46218
 N447 N 0.44534 0.06921 0.45578
 Mn448 Mn 0.49874 0.00031 0.44148
 C449 C 0.43243 0.05961 0.43012
 C450 C 0.56226 0.06244 0.42841
 N451 N 0.53272 0.03378 0.54693
 N452 N 0.55256 0.04151 0.56773
 N453 N 0.46779 0.05118 0.52671
 N454 N 0.44827 0.07134 0.53309
 N455 N 0.46880 0.03234 0.54837
 N456 N 0.44987 0.03932 0.57007
 N457 N 0.53148 0.05282 0.52545
 N458 N 0.55035 0.07389 0.53112
 Mn459 Mn 0.50152 0.00239 0.54872
 Mn460 Mn 0.49876 0.05155 0.49381
 Cl461 Cl 0.50009 0.00139 0.49506
 C462 C 0.56369 0.06641 0.55732
 C463 C 0.43690 0.06354 0.55996
 N464 N 0.55337 0.52762 0.03564
 N465 N 0.57411 0.54700 0.04199
 N466 N 0.53189 0.46743 0.05385
 N467 N 0.53893 0.44818 0.07423
 N468 N 0.55271 0.46834 0.03283
 N469 N 0.57433 0.44977 0.03834
 N470 N 0.53239 0.52685 0.05647
 N471 N 0.53810 0.54586 0.07738
 C472 C 0.56410 0.55839 0.06797
 C473 C 0.56528 0.43705 0.06401
 N474 N 0.44469 0.46926 0.03366
 N475 N 0.42325 0.45034 0.03887
 N476 N 0.46706 0.52737 0.05701
 N477 N 0.46219 0.54624 0.07818
 N478 N 0.44568 0.52861 0.03642
 N479 N 0.42556 0.54826 0.04316
 N480 N 0.46602 0.46794 0.05431
 N481 N 0.45955 0.44807 0.07419
 Mn482 Mn 0.49934 0.49733 0.05570
 C483 C 0.43293 0.43704 0.06404
 C484 C 0.43634 0.55928 0.06916
 N485 N 0.55195 0.47101 -0.03171
 N486 N 0.57227 0.45150 -0.03821
 N487 N 0.53144 0.53116 -0.04993
 N488 N 0.53791 0.55071 -0.07012
 N489 N 0.55258 0.53037 -0.02905
 N490 N 0.57391 0.54938 -0.03446
 N491 N 0.53045 0.47173 -0.05222
 N492 N 0.53549 0.45262 -0.07314
 Mn493 Mn 0.55292 0.49936 0.00192
 C494 C 0.56157 0.44001 -0.06399
 C495 C 0.56431 0.56215 -0.05998
 N496 N 0.44505 0.53130 -0.02829
 N497 N 0.42437 0.55095 -0.03322
 N498 N 0.46478 0.47248 -0.05184
 N499 N 0.45849 0.45369 -0.07283
 N500 N 0.44403 0.47187 -0.03078
 N501 N 0.42319 0.45251 -0.03676
 N502 N 0.46580 0.53180 -0.04938
 N503 N 0.45972 0.55176 -0.06923
 Mn504 Mn 0.44458 0.50030 0.00275
 Mn505 Mn 0.49812 0.50179 -0.05114
 Cl506 Cl 0.49874 0.49968 0.00231
 C507 C 0.43397 0.56375 -0.05868
 C508 C 0.43260 0.44120 -0.06298
 C509 C 1.13121 0.14554 0.12704
 C510 C 1.15471 0.16214 0.11481
 C511 C 1.17117 0.18044 0.13330
 C512 C 1.16407 0.18265 0.16380
 C513 C 1.13963 0.16665 0.17488
 N514 N 1.12420 0.14864 0.15655
 C515 C 1.11424 0.12425 0.10916
 N516 N 1.08730 0.11417 0.11984
 C517 C 1.07112 0.09361 0.10556
 C518 C 1.08215 0.08169 0.07902
 C519 C 1.10974 0.09178 0.06751
 C520 C 1.12588 0.11291 0.08248
 H521 H 1.18943 0.19290 0.12374
 H522 H 1.13344 0.16770 0.19830
 H523 H 1.04992 0.08637 0.11520
 H524 H 1.11916 0.08300 0.04718
 H525 H 1.16046 0.16125 0.09132
 H526 H 1.14761 0.11944 0.07355
 C527 C 1.13372 0.63972 0.64015
 C528 C 1.12064 0.65999 0.65908
 C529 C 1.13940 0.67794 0.67575
 C530 C 1.17115 0.67589 0.67362
 C531 C 1.18330 0.65570 0.65404
 N532 N 1.16457 0.63845 0.63800
 C533 C 1.11503 0.61965 0.62243
 N534 N 1.12704 0.60808 0.59719
 C535 C 1.11167 0.58879 0.58031
 C536 C 1.08257 0.57972 0.58886
 C537 C 1.06973 0.59131 0.61477
 C538 C 1.08583 0.61123 0.63160
 H539 H 1.12905 0.69314 0.69065
 H540 H 1.20765 0.65375 0.65133
 H541 H 1.12243 0.58026 0.56054
 H542 H 1.04740 0.58472 0.62225
 H543 H 1.09625 0.66226 0.66087
 H544 H 1.07576 0.61920 0.65196
 C545 C 0.63779 0.14119 0.62823
 C546 C 0.63057 0.17001 0.63057
 C547 C 0.64739 0.18728 0.64983
 C548 C 0.67153 0.17600 0.66658
 C549 C 0.67805 0.14710 0.66361
 N550 N 0.66108 0.13058 0.64499
 C551 C 0.61998 0.12199 0.60874
 N552 N 0.61563 0.09462 0.61733
 C553 C 0.59839 0.07624 0.60098
 C554 C 0.58446 0.08518 0.57426
 C555 C 0.58951 0.11302 0.56453
 C556 C 0.60715 0.13147 0.58169
 H557 H 0.64169 0.20948 0.65149
 H558 H 0.69628 0.13757 0.67647
 H559 H 0.59526 0.05485 0.60910
 H560 H 0.57935 0.12073 0.54394
 H561 H 0.61174 0.17904 0.61817
 H562 H 0.61076 0.15287 0.57379
 C563 C 0.63193 0.63886 0.13782
 C564 C 0.61946 0.66272 0.15171
 C565 C 0.63807 0.68018 0.16916
 C566 C 0.66907 0.67388 0.17302
 C567 C 0.68061 0.64988 0.15845
 N568 N 0.66207 0.63333 0.14141
 C569 C 0.61326 0.61949 0.11934
 N570 N 0.62656 0.60555 0.09620
 C571 C 0.61110 0.58661 0.07897
 C572 C 0.58058 0.58027 0.08517
 C573 C 0.56641 0.59434 0.10892
 C574 C 0.58259 0.61407 0.12595
 H575 H 0.62823 0.69881 0.17923
 H576 H 0.70420 0.64389 0.16098
 H577 H 0.62288 0.57605 0.06095
 H578 H 0.54291 0.58992 0.11448
 H579 H 0.59575 0.66818 0.14873
 H580 H 0.57147 0.62423 0.14462
 C581 C 0.85932 -0.13941 0.12689
 C582 C 0.82775 -0.13614 0.12961
 C583 C 0.81150 -0.15398 0.14866
 C584 C 0.82650 -0.17525 0.16499
 C585 C 0.85815 -0.17777 0.16161
 N586 N 0.87353 -0.15994 0.14309
 C587 C 0.87774 -0.12019 0.10806
 N588 N 0.90700 -0.11456 0.11626
 C589 C 0.92488 -0.09619 0.10077
 C590 C 0.91344 -0.08226 0.07534
 C591 C 0.88369 -0.08841 0.06590
 C592 C 0.86576 -0.10732 0.08219
 H593 H 0.78730 -0.15065 0.15110
 H594 H 0.87068 -0.19400 0.17345
 H595 H 0.94783 -0.09222 0.10859
 H596 H 0.87410 -0.07827 0.04625
 H597 H 0.81577 -0.11946 0.11791
 H598 H 0.84288 -0.11184 0.07450
 C599 C 0.85782 0.36202 0.63395
 C600 C 0.82629 0.36527 0.63546
 C601 C 0.80924 0.34765 0.65404
 C602 C 0.82316 0.32617 0.67158
 C603 C 0.85530 0.32410 0.66918
 N604 N 0.87129 0.34174 0.65094
 C605 C 0.87692 0.38082 0.61522
 N606 N 0.90599 0.38657 0.62403
 C607 C 0.92438 0.40451 0.60849
 C608 C 0.91368 0.41785 0.58239
 C609 C 0.88415 0.41154 0.57240
 C610 C 0.86573 0.39308 0.58869
 H611 H 0.78531 0.35241 0.65535
 H612 H 0.86818 0.30796 0.68058
 H613 H 0.94713 0.40862 0.61679
 H614 H 0.87511 0.42119 0.55222
 H615 H 0.81482 0.38192 0.62322
 H616 H 0.84307 0.38843 0.58048
 C617 C 0.35860 -0.12987 0.63214
 C618 C 0.33533 -0.14692 0.62018
 C619 C 0.31879 -0.16468 0.63908
 C620 C 0.32522 -0.16550 0.66991
 C621 C 0.34829 -0.14776 0.68106
 N622 N 0.36411 -0.13059 0.66219
 C623 C 0.37754 -0.11139 0.61292
 N624 N 0.39075 -0.08790 0.62499
 C625 C 0.40939 -0.07063 0.60889
 C626 C 0.41614 -0.07702 0.57897
 C627 C 0.40272 -0.10105 0.56607
 C628 C 0.38344 -0.11824 0.58289
 H629 H 0.30126 -0.17807 0.62951
 H630 H 0.35361 -0.14737 0.70477
 H631 H 0.41946 -0.05237 0.61970
 H632 H 0.40750 -0.10682 0.54310
 H633 H 0.32969 -0.14647 0.59656
 H634 H 0.37417 -0.13714 0.57267
 C635 C 0.36081 0.35708 0.13076
 C636 C 0.33531 0.34250 0.11942
 C637 C 0.31786 0.32574 0.13856
 C638 C 0.32587 0.32299 0.16888
 C639 C 0.35208 0.33704 0.17913
 N640 N 0.36851 0.35359 0.16015
 C641 C 0.37939 0.37648 0.11198
 N642 N 0.40733 0.38472 0.12216
 C643 C 0.42516 0.40341 0.10698
 C644 C 0.41494 0.41527 0.07994
 C645 C 0.38640 0.40698 0.06888
 C646 C 0.36854 0.38777 0.08479
 H647 H 0.29823 0.31469 0.12959
 H648 H 0.35906 0.33546 0.20237
 H649 H 0.44703 0.40931 0.11633
 H650 H 0.37754 0.41580 0.04820
 H651 H 0.32878 0.34365 0.09609
 H652 H 0.34621 0.38272 0.07610
 C653 C 0.87014 0.14343 -0.13491
 C654 C 0.86816 0.13989 -0.16609
 C655 C 0.84826 0.15667 -0.18270
 C656 C 0.83045 0.17711 -0.16843
 C657 C 0.83324 0.18020 -0.13726
 N658 N 0.85250 0.16328 -0.12143
 C659 C 0.88977 0.12500 -0.11636
 N660 N 0.88065 0.11774 -0.08824
 C661 C 0.89668 0.09941 -0.07078
 C662 C 0.92352 0.08717 -0.08155
 C663 C 0.93393 0.09522 -0.10998
 C664 C 0.91715 0.11408 -0.12743
 H665 H 0.84682 0.15373 -0.20673
 H666 H 0.81965 0.19558 -0.12545
 H667 H 0.88809 0.09398 -0.04880
 H668 H 0.95468 0.08648 -0.11902
 H669 H 0.88118 0.12383 -0.17751
 H670 H 0.92551 0.11994 -0.14937
 C671 C 0.87019 0.64030 0.36721
 C672 C 0.86982 0.63653 0.33600
 C673 C 0.85127 0.65357 0.31820
 C674 C 0.83318 0.67447 0.33132
 C675 C 0.83413 0.67758 0.36261
 N676 N 0.85217 0.66048 0.37959
 C677 C 0.88910 0.62219 0.38682
 N678 N 0.87884 0.61489 0.41456
 C679 C 0.89457 0.59705 0.43291
 C680 C 0.92226 0.58547 0.42348
 C681 C 0.93370 0.59359 0.39546
 C682 C 0.91725 0.61187 0.37711
 H683 H 0.85122 0.65055 0.29415
 H684 H 0.82020 0.69326 0.37357
 H685 H 0.88513 0.59151 0.45451
 H686 H 0.95514 0.58540 0.38742
 H687 H 0.88323 0.62024 0.32543
 H688 H 0.92651 0.61783 0.35555
 C689 C 0.34994 0.12706 0.35986
 C690 C 0.33368 0.11786 0.33464
 C691 C 0.31647 0.13709 0.31807
 C692 C 0.31471 0.16600 0.32632
 C693 C 0.33102 0.17385 0.35255
 N694 N 0.34771 0.15460 0.36812
 C695 C 0.36967 0.10803 0.37785
 N696 N 0.37904 0.11679 0.40547
 C697 C 0.39829 0.10136 0.42287
 C698 C 0.40963 0.07549 0.41253
 C699 C 0.40010 0.06582 0.38434
 C700 C 0.38027 0.08200 0.36689
 H701 H 0.30599 0.12886 0.29797
 H702 H 0.32995 0.19485 0.36182
 H703 H 0.40512 0.10960 0.44450
 H704 H 0.40854 0.04607 0.37544
 H705 H 0.33404 0.09607 0.32743
 H706 H 0.37432 0.07438 0.34482
 C707 C 0.36391 0.64477 -0.12578
 C708 C 0.33264 0.64887 -0.12114
 C709 C 0.31642 0.66683 -0.14012
 C710 C 0.33105 0.68068 -0.16391
 C711 C 0.36226 0.67586 -0.16796
 N712 N 0.37762 0.65826 -0.14914
 C713 C 0.38211 0.62515 -0.10698
 N714 N 0.40845 0.61454 -0.11825
 C715 C 0.42580 0.59559 -0.10293
 C716 C 0.41673 0.58600 -0.07456
 C717 C 0.39020 0.59723 -0.06210
 C718 C 0.37294 0.61688 -0.07810
 H719 H 0.29223 0.66934 -0.13660
 H720 H 0.37449 0.68621 -0.18591
 H721 H 0.44627 0.58760 -0.11324
 H722 H 0.38263 0.59065 -0.04009
 H723 H 0.32044 0.63784 -0.10367
 H724 H 0.35280 0.62543 -0.06774
 C725 C 1.12870 -0.14280 -0.13533
 C726 C 1.11590 -0.16242 -0.15539
 C727 C 1.13494 -0.17912 -0.17291
 C728 C 1.16664 -0.17633 -0.17052
 C729 C 1.17849 -0.15692 -0.14974
 N730 N 1.15952 -0.14093 -0.13290
 C731 C 1.10987 -0.12377 -0.11690
 N732 N 1.12190 -0.11309 -0.09110
 C733 C 1.10676 -0.09421 -0.07382
 C734 C 1.07798 -0.08449 -0.08262
 C735 C 1.06499 -0.09533 -0.10897
 C736 C 1.08080 -0.11498 -0.12615
 H737 H 1.12489 -0.19385 -0.18868
 H738 H 1.20281 -0.15452 -0.14679
 H739 H 1.11760 -0.08629 -0.05367
 H740 H 1.04287 -0.08824 -0.11659
 H741 H 1.09154 -0.16507 -0.15747
 H742 H 1.07076 -0.12230 -0.14691
 C743 C 1.12998 0.35793 0.37085
 C744 C 1.11690 0.33536 0.35488
 C745 C 1.13536 0.31813 0.33733
 C746 C 1.16672 0.32341 0.33552
 C747 C 1.17895 0.34586 0.35223
 N748 N 1.16057 0.36225 0.36931
 C749 C 1.11149 0.37733 0.38917
 N750 N 1.12462 0.39026 0.41323
 C751 C 1.10948 0.40930 0.43032
 C752 C 1.07950 0.41684 0.42308
 C753 C 1.06548 0.40379 0.39842
 C754 C 1.08132 0.38396 0.38148
 H755 H 1.12504 0.30103 0.32472
 H756 H 1.20311 0.35034 0.35178
 H757 H 1.12115 0.41901 0.44909
 H758 H 1.04241 0.40915 0.39202
 H759 H 1.09279 0.33088 0.35606
 H760 H 1.07036 0.37471 0.36206
 C761 C 0.64393 -0.12872 0.36008
 C762 C 0.66265 -0.11908 0.33673
 C763 C 0.67919 -0.13852 0.31996
 C764 C 0.67738 -0.16754 0.32643
 C765 C 0.65895 -0.17624 0.35036
 N766 N 0.64292 -0.15692 0.36628
 C767 C 0.62510 -0.10932 0.37819
 N768 N 0.61527 -0.11819 0.40555
 C769 C 0.59674 -0.10226 0.42296
 C770 C 0.58657 -0.07583 0.41282
 C771 C 0.59655 -0.06611 0.38484
 C772 C 0.61575 -0.08275 0.36744
 H773 H 0.69372 -0.13080 0.30218
 H774 H 0.65677 -0.19840 0.35607
 H775 H 0.58948 -0.11057 0.44440
 H776 H 0.58903 -0.04591 0.37611
 H777 H 0.66497 -0.09682 0.33160
 H778 H 0.62220 -0.07515 0.34550
 C779 C 0.62837 0.35880 -0.13292
 C780 C 0.61549 0.33583 -0.14842
 C781 C 0.63412 0.31833 -0.16553
 C782 C 0.66545 0.32377 -0.16742
 C783 C 0.67746 0.34668 -0.15124
 N784 N 0.65892 0.36328 -0.13455
 C785 C 0.60978 0.37835 -0.11483
 N786 N 0.62295 0.39171 -0.09106
 C787 C 0.60776 0.41083 -0.07410
 C788 C 0.57763 0.41800 -0.08117
 C789 C 0.56356 0.40455 -0.10557
 C790 C 0.57948 0.38464 -0.12238
 H791 H 0.62400 0.30086 -0.17771
 H792 H 0.70158 0.35131 -0.15175
 H793 H 0.61948 0.42085 -0.05555
 H794 H 0.54037 0.40962 -0.11183
 H795 H 0.59141 0.33121 -0.14715
 H796 H 0.56847 0.37501 -0.14156
 C797 C 1.14514 0.13844 -0.12454
 C798 C 1.17518 0.13104 -0.13106
 C799 C 1.19245 0.14829 -0.14976
 C800 C 1.18015 0.17335 -0.16190
 C801 C 1.14993 0.18014 -0.15415
 N802 N 1.13335 0.16255 -0.13640
 C803 C 1.12570 0.11979 -0.10628
 N804 N 1.09593 0.11625 -0.11399
 C805 C 1.07737 0.09796 -0.09914
 C806 C 1.08868 0.08206 -0.07499
 C807 C 1.11899 0.08618 -0.06604
 C808 C 1.13759 0.10491 -0.08169
 H809 H 1.21576 0.14221 -0.15383
 H810 H 1.13875 0.19857 -0.16334
 H811 H 1.05401 0.09558 -0.10646
 H812 H 1.12853 0.07445 -0.04739
 H813 H 1.18509 0.11176 -0.12233
 H814 H 1.16101 0.10768 -0.07467
 C815 C 1.14188 0.63758 0.37478
 C816 C 1.17352 0.63421 0.37246
 C817 C 1.18998 0.65153 0.35302
 C818 C 1.17510 0.67229 0.33599
 C819 C 1.14349 0.67508 0.33904
 N820 N 1.12786 0.65773 0.35786
 C821 C 1.12325 0.61889 0.39402
 N822 N 1.09403 0.61308 0.38576
 C823 C 1.07598 0.59517 0.40168
 C824 C 1.08718 0.58193 0.42762
 C825 C 1.11687 0.58830 0.43708
 C826 C 1.13497 0.60672 0.42037
 H827 H 1.21435 0.64877 0.35137
 H828 H 1.13114 0.69064 0.32601
 H829 H 1.05308 0.59101 0.39380
 H830 H 1.12630 0.57870 0.45711
 H831 H 1.18540 0.61795 0.38489
 H832 H 1.15779 0.61141 0.42811
 C833 C 0.64413 0.13076 0.35892
 C834 C 0.66971 0.12058 0.34374
 C835 C 0.68749 0.13925 0.32698
 C836 C 0.67981 0.16805 0.32508
 C837 C 0.65420 0.17735 0.34095
 N838 N 0.63736 0.15878 0.35727
 C839 C 0.62442 0.11200 0.37696
 N840 N 0.60954 0.12305 0.40088
 C841 C 0.59028 0.10742 0.41799
 C842 C 0.58453 0.07899 0.41094
 C843 C 0.59952 0.06712 0.38635
 C844 C 0.61960 0.08350 0.36938
 H845 H 0.70747 0.13116 0.31587
 H846 H 0.64713 0.19922 0.33998
 H847 H 0.57901 0.11742 0.43667
 H848 H 0.59554 0.04529 0.38011
 H849 H 0.67629 0.09859 0.34520
 H850 H 0.63045 0.07416 0.35008
 C851 C 0.63694 0.64005 -0.12872
 C852 C 0.66794 0.64484 -0.12312
 C853 C 0.68470 0.66197 -0.14247
 C854 C 0.67105 0.67451 -0.16793
 C855 C 0.63976 0.66897 -0.17256
 N856 N 0.62401 0.65210 -0.15335
 C857 C 0.61811 0.62127 -0.10952
 N858 N 0.59163 0.61064 -0.12088
 C859 C 0.57365 0.59246 -0.10522
 C860 C 0.58219 0.58367 -0.07635
 C861 C 0.60888 0.59491 -0.06382
 C862 C 0.62677 0.61381 -0.08016
 H863 H 0.70819 0.66588 -0.13654
 H864 H 0.62780 0.67687 -0.19202
 H865 H 0.55309 0.58442 -0.11563
 H866 H 0.61607 0.58895 -0.04144
 H867 H 0.67957 0.63525 -0.10432
 H868 H 0.64697 0.62239 -0.06966
 C869 C 0.86702 -0.13636 -0.13949
 C870 C 0.87629 -0.14602 -0.16781
 C871 C 0.85702 -0.16342 -0.18452
 C872 C 0.82833 -0.17111 -0.17347
 C873 C 0.81984 -0.16097 -0.14517
 N874 N 0.83905 -0.14408 -0.12924
 C875 C 0.88601 -0.11720 -0.12077
 N876 N 0.87297 -0.10440 -0.09670
 C877 C 0.88834 -0.08585 -0.07892
 C878 C 0.91866 -0.07890 -0.08523
 C879 C 0.93284 -0.09224 -0.10940
 C880 C 0.91677 -0.11152 -0.12705
 H881 H 0.86473 -0.17100 -0.20606
 H882 H 0.79778 -0.16600 -0.13591
 H883 H 0.87663 -0.07609 -0.06035
 H884 H 0.95636 -0.08772 -0.11476
 H885 H 0.89784 -0.14012 -0.17750
 H886 H 0.92866 -0.12164 -0.14519
 C887 C 0.86750 0.35916 0.37241
 C888 C 0.84899 0.33787 0.38474
 C889 C 0.83211 0.32032 0.36575
 C890 C 0.83357 0.32391 0.33457
 C891 C 0.85284 0.34504 0.32317
 N892 N 0.86910 0.36182 0.34208
 C893 C 0.88523 0.37901 0.39130
 N894 N 0.91046 0.39156 0.37958
 C895 C 0.92714 0.41098 0.39501
 C896 C 0.91831 0.41925 0.42384
 C897 C 0.89245 0.40659 0.43643
 C898 C 0.87588 0.38646 0.42030
 H899 H 0.81751 0.30428 0.37547
 H900 H 0.85507 0.34816 0.29924
 H901 H 0.94689 0.42033 0.38446
 H902 H 0.88479 0.41250 0.45857
 H903 H 0.84765 0.33457 0.40869
 H904 H 0.85550 0.37763 0.43014
 C905 C 0.35337 -0.13597 0.36941
 C906 C 0.34958 -0.16446 0.37719
 C907 C 0.33237 -0.18223 0.35885
 C908 C 0.31863 -0.17220 0.33209
 C909 C 0.32321 -0.14311 0.32545
 N910 N 0.34028 -0.12635 0.34374
 C911 C 0.37249 -0.11640 0.38747
 N912 N 0.38416 -0.09279 0.37415
 C913 C 0.40311 -0.07461 0.38881
 C914 C 0.41167 -0.07999 0.41859
 C915 C 0.39914 -0.10360 0.43307
 C916 C 0.37942 -0.12169 0.41775
 H917 H 0.32924 -0.20358 0.36689
 H918 H 0.31491 -0.13357 0.30503
 H919 H 0.41212 -0.05648 0.37691
 H920 H 0.40480 -0.10827 0.45620
 H921 H 0.36011 -0.17338 0.39698
 H922 H 0.36987 -0.13952 0.42968
 C923 C 0.36390 0.36032 -0.13169
 C924 C 0.34840 0.33702 -0.11944
 C925 C 0.33151 0.31930 -0.13820
 C926 C 0.32989 0.32475 -0.16909
 C927 C 0.34599 0.34806 -0.18049
 N928 N 0.36246 0.36492 -0.16180
 C929 C 0.38185 0.38001 -0.11285
 N930 N 0.40588 0.39397 -0.12520
 C931 C 0.42282 0.41302 -0.10953
 C932 C 0.41549 0.41940 -0.07974
 C933 C 0.39080 0.40535 -0.06655
 C934 C 0.37398 0.38561 -0.08296
 H935 H 0.31936 0.30157 -0.12850
 H936 H 0.34569 0.35273 -0.20424
 H937 H 0.44160 0.42354 -0.12056
 H938 H 0.38431 0.40981 -0.04366
 H939 H 0.34956 0.33227 -0.09573
 H940 H 0.35456 0.37553 -0.07257
 C941 C 1.12999 -0.15057 0.12510
 C942 C 1.15770 -0.16165 0.11477
 C943 C 1.17526 -0.17860 0.13365
 C944 C 1.16563 -0.18451 0.16293
 C945 C 1.13767 -0.17341 0.17229
 N946 N 1.12096 -0.15687 0.15352
 C947 C 1.11106 -0.13090 0.10694
 N948 N 1.08808 -0.11673 0.12072
 C949 C 1.07082 -0.09706 0.10631
 C950 C 1.07674 -0.09023 0.07633
 C951 C 1.09957 -0.10512 0.06136
 C952 C 1.11654 -0.12560 0.07639
 H953 H 1.19647 -0.18700 0.12532
 H954 H 1.12947 -0.17714 0.19479
 H955 H 1.05326 -0.08613 0.11860
 H956 H 1.10454 -0.10073 0.03805
 H957 H 1.16646 -0.15701 0.09275
 H958 H 1.13374 -0.13672 0.06395
 C959 C 1.13331 0.35038 0.62964
 C960 C 1.15720 0.33457 0.61725
 C961 C 1.17496 0.31744 0.63576
 C962 C 1.16877 0.31551 0.66648
 C963 C 1.14399 0.33068 0.67781
 N964 N 1.12729 0.34762 0.65943
 C965 C 1.11492 0.37054 0.61164
 N966 N 1.08818 0.38022 0.62303
 C967 C 1.07091 0.39993 0.60867
 C968 C 1.08059 0.41139 0.58131
 C969 C 1.10785 0.40156 0.56901
 C970 C 1.12509 0.38132 0.58405
 H971 H 1.19345 0.30554 0.62604
 H972 H 1.13845 0.32976 0.70140
 H973 H 1.05003 0.40700 0.61894
 H974 H 1.11627 0.40998 0.54802
 H975 H 1.16228 0.33514 0.59359
 H976 H 1.14656 0.37514 0.57442
 C977 C 0.64119 -0.13306 0.63035
 C978 C 0.64382 -0.16180 0.62282
 C979 C 0.65987 -0.18000 0.64166
 C980 C 0.67318 -0.16988 0.66819
 C981 C 0.66950 -0.14115 0.67527
 N982 N 0.65382 -0.12373 0.65647
 C983 C 0.62411 -0.11296 0.61111
 N984 N 0.61191 -0.08928 0.62357
 C985 C 0.59466 -0.07075 0.60747
 C986 C 0.58852 -0.07586 0.57708
 C987 C 0.60184 -0.09946 0.56356
 C988 C 0.61978 -0.11789 0.58035
 H989 H 0.66144 -0.20213 0.63569
 H990 H 0.67949 -0.13242 0.69546
 H991 H 0.58494 -0.05264 0.61867
 H992 H 0.59806 -0.10394 0.54003
 H993 H 0.63312 -0.17047 0.60299
 H994 H 0.62998 -0.13575 0.56919
 C995 C 0.64115 0.36289 0.13367
 C996 C 0.67295 0.36569 0.13337
 C997 C 0.69065 0.34850 0.15184
 C998 C 0.67692 0.32841 0.17068
 C999 C 0.64498 0.32666 0.17073
 N1000 N 0.62816 0.34373 0.15255
 C1001 C 0.62150 0.38081 0.11452
 N1002 N 0.59308 0.38765 0.12408
 C1003 C 0.57436 0.40491 0.10803
 C1004 C 0.58406 0.41640 0.08064
 C1005 C 0.61283 0.40886 0.06993
 C1006 C 0.63157 0.39110 0.08672
 H1007 H 0.71511 0.35125 0.15164
 H1008 H 0.63338 0.31142 0.18476
 H1009 H 0.55221 0.41003 0.11694
 H1010 H 0.62108 0.41701 0.04876
 H1011 H 0.68411 0.38136 0.11951
 H1012 H 0.65361 0.38546 0.07790
 C1013 C 0.87434 0.14787 0.12804
 C1014 C 0.85319 0.16678 0.11548
 C1015 C 0.83598 0.18394 0.13421
 C1016 C 0.84002 0.18273 0.16537
 C1017 C 0.86233 0.16455 0.17697
 N1018 N 0.87852 0.14768 0.15831
 C1019 C 0.89158 0.12749 0.10957
 N1020 N 0.91706 0.11533 0.12130
 C1021 C 0.93304 0.09520 0.10644
 C1022 C 0.92322 0.08586 0.07819
 C1023 C 0.89721 0.09821 0.06555
 C1024 C 0.88131 0.11890 0.08112
 H1025 H 0.81950 0.19821 0.12433
 H1026 H 0.86617 0.16301 0.20089
 H1027 H 0.95298 0.08615 0.11698
 H1028 H 0.88875 0.09147 0.04387
 H1029 H 0.84984 0.16849 0.09154
 H1030 H 0.86068 0.12715 0.07123
 C1031 C 0.86921 0.63709 0.64462
 C1032 C 0.87583 0.64280 0.67489
 C1033 C 0.85679 0.66054 0.69119
 C1034 C 0.83095 0.67245 0.67769
 C1035 C 0.82485 0.66592 0.64759
 N1036 N 0.84383 0.64871 0.63208
 C1037 C 0.88828 0.61811 0.62605
 N1038 N 0.87654 0.60797 0.59986
 C1039 C 0.89211 0.58996 0.58187
 C1040 C 0.92132 0.58086 0.59006
 C1041 C 0.93422 0.59148 0.61654
 C1042 C 0.91795 0.61020 0.63446
 H1043 H 0.86199 0.66452 0.71455
 H1044 H 0.80525 0.67477 0.63625
 H1045 H 0.88140 0.58237 0.56152
 H1046 H 0.95687 0.58524 0.62347
 H1047 H 0.89500 0.63340 0.68632
 H1048 H 0.92882 0.61831 0.65444
 C1049 C 0.36379 0.13663 0.63252
 C1050 C 0.36958 0.16586 0.63323
 C1051 C 0.35265 0.18309 0.65214
 C1052 C 0.32984 0.17137 0.67019
 C1053 C 0.32490 0.14203 0.66903
 N1054 N 0.34192 0.12557 0.65063
 C1055 C 0.38135 0.11768 0.61285
 N1056 N 0.38791 0.09092 0.62219
 C1057 C 0.40497 0.07292 0.60548
 C1058 C 0.41635 0.08162 0.57760
 C1059 C 0.40895 0.10875 0.56719
 C1060 C 0.39156 0.12682 0.58471
 H1061 H 0.35711 0.20563 0.65237
 H1062 H 0.30775 0.13218 0.68294
 H1063 H 0.40997 0.05205 0.61417
 H1064 H 0.41706 0.11626 0.54570
 H1065 H 0.38729 0.17529 0.61968
 H1066 H 0.38610 0.14766 0.57622
 C1067 C 0.37095 0.64000 0.14050
 C1068 C 0.37818 0.64616 0.17054
 C1069 C 0.35949 0.66416 0.18693
 C1070 C 0.33341 0.67593 0.17374
 C1071 C 0.32688 0.66919 0.14375
 N1072 N 0.34549 0.65166 0.12819
 C1073 C 0.38928 0.62026 0.12210
 N1074 N 0.37668 0.60937 0.09663
 C1075 C 0.39147 0.59049 0.07900
 C1076 C 0.42071 0.58122 0.08685
 C1077 C 0.43448 0.59260 0.11254
 C1078 C 0.41902 0.61222 0.13008
 H1079 H 0.36502 0.66828 0.21019
 H1080 H 0.30712 0.67795 0.13262
 H1081 H 0.38011 0.58234 0.05923
 H1082 H 0.45720 0.58628 0.11916
 H1083 H 0.39747 0.63677 0.18180
 H1084 H 0.43053 0.62088 0.14945
   
