data_POSCAR
  _audit_creation_date              2014-09-24
  _audit_creation_method            'ToBaCCo'
  _symmetry_space_group_name_H-M    'P1'
  _symmetry_Int_Tables_number       1
  _symmetry_cell_setting            triclinic
  loop_
  _symmetry_equiv_pos_as_xyz
 x,y,z
_cell_length_a 31.2171
_cell_length_b 31.2416
_cell_length_c 45.0580
_cell_angle_alpha 89.979200
_cell_angle_beta 90.055600
_cell_angle_gamma 119.977900
loop_
  _atom_site_label
  _atom_site_type_symbol
  _atom_site_fract_x
  _atom_site_fract_y
  _atom_site_fract_z
C1 C 0.02600 0.51386 1.27790
 C2 C -0.02669 0.48400 1.27796
 C3 C -0.05163 0.46952 1.25047
 C4 C -0.02679 0.48317 1.22300
 C5 C 0.02560 0.51254 1.22321
 C6 C 0.05069 0.52799 1.25040
 H7 H 0.09074 0.54985 1.24995
 H8 H -0.09162 0.44737 1.25042
 C9 C 0.50690 0.48111 1.22221
 C10 C 0.48548 0.51169 1.22198
 C11 C 0.47429 0.52614 1.24902
 C12 C 0.48288 0.51033 1.27658
 C13 C 0.50471 0.47976 1.27654
 C14 C 0.51582 0.46536 1.24946
 H15 H 0.53381 0.44330 1.24966
 H16 H 0.45587 0.54775 1.24831
 C17 C 0.48619 0.97422 1.27927
 C18 C 0.51914 1.02658 1.27941
 C19 C 0.53573 1.05132 1.25198
 C20 C 0.51926 1.02664 1.22477
 C21 C 0.48683 0.97505 1.22462
 C22 C 0.47038 0.94991 1.25166
 H23 H 0.44755 0.91000 1.25096
 H24 H 0.55881 1.09122 1.25158
 C25 C 0.97463 0.49030 0.72320
 C26 C 1.02650 0.51064 0.72301
 C27 C 1.05216 0.52087 0.75002
 C28 C 1.02788 0.51324 0.77754
 C29 C 0.97560 0.49253 0.77751
 C30 C 0.95003 0.48171 0.75043
 H31 H 0.91005 0.46448 0.75060
 H32 H 1.09213 0.53826 0.74933
 C33 C 0.51645 0.48989 0.72417
 C34 C 0.49042 0.51618 0.72404
 C35 C 0.47780 0.52916 0.75110
 C36 C 0.49010 0.51635 0.77840
 C37 C 0.51629 0.49016 0.77857
 C38 C 0.52909 0.47741 0.75144
 H39 H 0.54908 0.45729 0.75156
 H40 H 0.45782 0.54928 0.75090
 C41 C 0.48361 -0.02728 0.77631
 C42 C 0.50557 0.02516 0.77612
 C43 C 0.51628 0.05035 0.74891
 C44 C 0.50698 0.02539 0.72177
 C45 C 0.48562 -0.02654 0.72168
 C46 C 0.47474 -0.05192 0.74880
 H47 H 0.45632 -0.09192 0.74822
 H48 H 0.53425 0.09037 0.74885
 O49 O 0.40809 0.66010 0.97457
 O50 O 0.40601 0.74129 0.96667
 C51 C 0.38163 0.76240 0.96007
 O52 O 0.34356 0.75528 0.97439
 O53 O 0.26227 0.67202 0.96632
 C54 C 0.24129 0.62654 0.95980
 O55 O 0.24847 0.59572 0.97425
 O56 O 0.33180 0.59749 0.96665
 C57 C 0.37739 0.62181 0.96030
 O58 O 0.40604 0.67182 1.03386
 O59 O 0.40773 0.75502 1.02608
 C60 C 0.37680 0.76233 1.04030
 O61 O 0.33132 0.74137 1.03368
 O62 O 0.24802 0.66005 1.02567
 C63 C 0.24061 0.62187 1.03999
 O64 O 0.26186 0.59755 1.03361
 O65 O 0.34331 0.59559 1.02600
 C66 C 0.38166 0.62628 1.04023
 Cr67 Cr 0.40410 0.70567 1.00029
 Cr68 Cr 0.29772 0.70573 1.00002
 Cr69 Cr 0.29778 0.59945 1.00013
 O70 O 0.33321 0.67027 1.00018
 O71 O 0.59283 0.34136 0.97488
 O72 O 0.59458 0.26005 0.96675
 C73 C 0.61888 0.23905 0.95986
 O74 O 0.65731 0.24629 0.97385
 O75 O 0.73823 0.32973 0.96597
 C76 C 0.75955 0.37539 0.95994
 O77 O 0.75265 0.40597 0.97485
 O78 O 0.66918 0.40430 0.96744
 C79 C 0.62362 0.38002 0.96093
 O80 O 0.59493 0.32892 1.03416
 O81 O 0.59348 0.24602 1.02611
 C82 C 0.62466 0.23866 1.04008
 O83 O 0.67003 0.25952 1.03320
 O84 O 0.75334 0.34109 1.02530
 C85 C 0.76045 0.37874 1.04012
 O86 O 0.73877 0.40282 1.03421
 O87 O 0.65758 0.40526 1.02680
 C88 C 0.61915 0.37431 1.04081
 Cr89 Cr 0.59682 0.29549 1.00046
 Cr90 Cr 0.70329 0.29558 0.99962
 Cr91 Cr 0.70313 0.40172 1.00080
 O92 O 0.66769 0.33092 1.00030
 O93 O 0.65596 0.41029 0.52502
 O94 O 0.73740 0.40854 0.53363
 C95 C 0.75889 0.38448 0.54010
 O96 O 0.75194 0.34648 0.52574
 O97 O 0.66863 0.26553 0.53430
 C98 C 0.62288 0.24356 0.54022
 O99 O 0.59208 0.25018 0.52528
 O100 O 0.59446 0.33373 0.53382
 C101 C 0.61844 0.37945 0.53985
 O102 O 0.66883 0.40754 0.46573
 O103 O 0.75217 0.40985 0.47446
 C104 C 0.75895 0.37873 0.46006
 O105 O 0.73723 0.33319 0.46649
 O106 O 0.65580 0.25010 0.47504
 C107 C 0.61833 0.24348 0.46013
 O108 O 0.59439 0.26531 0.46610
 O109 O 0.59223 0.34654 0.47468
 C110 C 0.62312 0.38371 0.45968
 Cr111 Cr 0.70218 0.40630 0.49973
 Cr112 Cr 0.70203 0.30020 0.50038
 Cr113 Cr 0.59606 0.30033 0.49998
 O114 O 0.66680 0.33563 0.50005
 O115 O 0.33087 0.59143 0.53402
 O116 O 0.24737 0.58902 0.52517
 C117 C 0.24079 0.62004 0.53983
 O118 O 0.26260 0.66564 0.53357
 O119 O 0.34365 0.74882 0.52496
 C120 C 0.38155 0.75589 0.53956
 O121 O 0.40553 0.73415 0.53350
 O122 O 0.40748 0.65271 0.52523
 C123 C 0.37659 0.61531 0.54011
 O124 O 0.34390 0.58878 0.47482
 O125 O 0.26259 0.59070 0.46601
 C126 C 0.24086 0.61459 0.45967
 O127 O 0.24748 0.65228 0.47429
 O128 O 0.33070 0.73356 0.46575
 C129 C 0.37638 0.75543 0.45961
 O130 O 0.40737 0.74871 0.47427
 O131 O 0.40511 0.66536 0.46598
 C132 C 0.38126 0.61968 0.45993
 Cr133 Cr 0.29758 0.59275 0.50000
 Cr134 Cr 0.29747 0.69868 0.49965
 Cr135 Cr 0.40361 0.69882 0.49976
 O136 O 0.33289 0.66345 0.49980
 C137 C 0.44038 0.55396 0.35563
 C138 C 0.46079 0.58670 0.33163
 C139 C 0.47446 0.57221 0.30569
 C140 C 0.46849 0.52455 0.30300
 C141 C 0.44678 0.49145 0.32693
 C142 C 0.43325 0.50607 0.35292
 C143 C 0.42622 0.56982 0.38322
 C144 C 0.38239 0.53751 0.39834
 C145 C 0.36825 0.55329 0.42364
 C146 C 0.39758 0.60177 0.43430
 C147 C 0.44186 0.63374 0.41946
 C148 C 0.45606 0.61790 0.39429
 H149 H 0.49138 0.59924 0.28813
 H150 H 0.43867 0.45357 0.32536
 H151 H 0.33379 0.52782 0.43444
 H152 H 0.46549 0.67123 0.42717
 H153 H 0.41740 0.47986 0.37097
 H154 H 0.35832 0.50042 0.39019
 H155 H 0.46596 0.62361 0.33280
 H156 H 0.49050 0.64338 0.38348
 C157 C 0.44243 0.88454 0.35699
 C158 C 0.49087 0.92450 0.35427
 C159 C 0.50551 0.95392 0.32874
 C160 C 0.47187 0.94465 0.30535
 C161 C 0.42363 0.90384 0.30805
 C162 C 0.40916 0.87440 0.33347
 C163 C 0.42647 0.85315 0.38408
 C164 C 0.37863 0.83518 0.39556
 C165 C 0.36266 0.80399 0.42023
 C166 C 0.39425 0.79024 0.43422
 C167 C 0.44247 0.80899 0.42314
 C168 C 0.45836 0.84002 0.39831
 H169 H 0.54361 0.98331 0.32715
 H170 H 0.39625 0.89539 0.29086
 H171 H 0.32541 0.79053 0.42830
 H172 H 0.46765 0.79891 0.43329
 H173 H 0.37182 0.84335 0.33458
 H174 H 0.35346 0.84534 0.38549
 H175 H 0.51747 0.93330 0.37197
 H176 H 0.49522 0.85272 0.38983
 C177 C 0.11416 0.55382 0.35605
 C178 C 0.07437 0.50554 0.35251
 C179 C 0.04535 0.49215 0.32682
 C180 C 0.05534 0.52681 0.30400
 C181 C 0.09631 0.57477 0.30736
 C182 C 0.12494 0.58819 0.33315
 C183 C 0.14486 0.56837 0.38334
 C184 C 0.15891 0.61377 0.39723
 C185 C 0.18920 0.62832 0.42238
 C186 C 0.20647 0.59795 0.43404
 C187 C 0.19190 0.55226 0.42030
 C188 C 0.16123 0.53753 0.39531
 H189 H 0.01561 0.45431 0.32462
 H190 H 0.10526 0.60266 0.29047
 H191 H 0.19979 0.66377 0.43237
 H192 H 0.20452 0.52797 0.42870
 H193 H 0.15588 0.62548 0.33511
 H194 H 0.14637 0.63802 0.38864
 H195 H 0.06540 0.47822 0.36977
 H196 H 0.15129 0.50254 0.38490
 C197 C 0.55412 0.44111 0.35601
 C198 C 0.57048 0.49090 0.34932
 C199 C 0.55455 0.50352 0.32349
 C200 C 0.52178 0.46658 0.30398
 C201 C 0.50583 0.41691 0.31042
 C202 C 0.52167 0.40427 0.33626
 C203 C 0.57136 0.42757 0.38325
 C204 C 0.53842 0.38656 0.40030
 C205 C 0.55500 0.37281 0.42540
 C206 C 0.60496 0.39974 0.43397
 C207 C 0.63776 0.44120 0.41711
 C208 C 0.62112 0.45498 0.39206
 H209 H 0.56769 0.54210 0.31871
 H210 H 0.48078 0.38794 0.29553
 H211 H 0.52873 0.34073 0.43788
 H212 H 0.67651 0.46270 0.42302
 H213 H 0.50909 0.36568 0.34058
 H214 H 0.49972 0.36513 0.39426
 H215 H 0.59521 0.52004 0.36421
 H216 H 0.64747 0.48643 0.37916
 C217 C 0.55886 0.11526 0.35729
 C218 C 0.51019 0.07638 0.35333
 C219 C 0.49698 0.04709 0.32779
 C220 C 0.53220 0.05584 0.30553
 C221 C 0.58069 0.09574 0.30939
 C222 C 0.59390 0.12468 0.33503
 C223 C 0.57308 0.14647 0.38434
 C224 C 0.61781 0.15987 0.39896
 C225 C 0.63205 0.19057 0.42389
 C226 C 0.60201 0.20888 0.43463
 C227 C 0.55698 0.19502 0.42015
 C228 C 0.54258 0.16397 0.39536
 H229 H 0.45881 0.01826 0.32520
 H230 H 0.60905 0.10370 0.29299
 H231 H 0.66699 0.20057 0.43446
 H232 H 0.53297 0.20845 0.42782
 H233 H 0.63154 0.15486 0.33732
 H234 H 0.64178 0.14647 0.39112
 H235 H 0.48237 0.06842 0.37010
 H236 H 0.50812 0.15459 0.38436
 C237 C 0.88564 0.44294 0.35641
 C238 C 0.87396 0.40943 0.33289
 C239 C 0.90262 0.42312 0.30717
 C240 C 0.94419 0.47079 0.30418
 C241 C 0.95492 0.50479 0.32752
 C242 C 0.92623 0.49093 0.35335
 C243 C 0.85521 0.42760 0.38387
 C244 C 0.84304 0.45996 0.39835
 C245 C 0.81259 0.44449 0.42343
 C246 C 0.79352 0.39627 0.43454
 C247 C 0.80649 0.36428 0.42037
 C248 C 0.83707 0.37981 0.39543
 H249 H 0.89307 0.39552 0.29002
 H250 H 0.98506 0.54249 0.32569
 H251 H 0.80313 0.47000 0.43373
 H252 H 0.79277 0.32701 0.42845
 H253 H 0.93615 0.51770 0.37104
 H254 H 0.85597 0.49683 0.38983
 H255 H 0.84236 0.37246 0.33428
 H256 H 0.84653 0.35429 0.38516
 C257 C 0.55301 0.43812 1.14295
 C258 C 0.52301 0.40271 1.16416
 C259 C 0.50777 0.41675 1.18965
 C260 C 0.52234 0.46651 1.19463
 C261 C 0.55275 0.50210 1.17371
 C262 C 0.56761 0.48802 1.14801
 C263 C 0.56944 0.42294 1.11595
 C264 C 0.61729 0.45278 1.10442
 C265 C 0.63317 0.43751 1.07966
 C266 C 0.60173 0.39183 1.06607
 C267 C 0.55374 0.36229 1.07736
 C268 C 0.53770 0.37778 1.10187
 H269 H 0.48455 0.38869 1.20556
 H270 H 0.56517 0.54084 1.17732
 H271 H 0.67049 0.46094 1.07160
 H272 H 0.52845 0.32710 1.06721
 H273 H 0.59029 0.51620 1.13205
 H274 H 0.64297 0.48742 1.11495
 H275 H 0.51189 0.36412 1.16132
 H276 H 0.50029 0.35435 1.10974
 C277 C 0.88713 0.43835 1.14385
 C278 C 0.87242 0.45524 1.16852
 C279 C 0.90055 0.46942 1.19446
 C280 C 0.94470 0.46760 1.19654
 C281 C 0.95858 0.44923 1.17198
 C282 C 0.93026 0.43498 1.14595
 C283 C 0.85719 0.42432 1.11619
 C284 C 0.84761 0.38187 1.10013
 C285 C 0.81698 0.36746 1.07507
 C286 C 0.79533 0.39525 1.06554
 C287 C 0.80600 0.43836 1.08123
 C288 C 0.83658 0.45273 1.10619
 H289 H 0.88849 0.48368 1.21255
 H290 H 0.99064 0.44456 1.17304
 H291 H 0.80946 0.33400 1.06353
 H292 H 0.79030 0.46088 1.07444
 H293 H 0.94238 0.42176 1.12736
 H294 H 0.86264 0.35902 1.10744
 H295 H 0.83887 0.45740 1.16782
 H296 H 0.84401 0.48613 1.11775
 C297 C 0.56237 0.11352 1.14449
 C298 C 0.51232 0.07934 1.15014
 C299 C 0.49832 0.05145 1.17624
 C300 C 0.53408 0.05637 1.19701
 C301 C 0.58402 0.09055 1.19152
 C302 C 0.59802 0.11888 1.16559
 C303 C 0.57732 0.14395 1.11696
 C304 C 0.62195 0.15610 1.10257
 C305 C 0.63696 0.18626 1.07741
 C306 C 0.60744 0.20454 1.06578
 C307 C 0.56230 0.19155 1.07971
 C308 C 0.54754 0.16183 1.10509
 H309 H 0.45946 0.02598 1.18022
 H310 H 0.61224 0.09520 1.20729
 H311 H 0.67179 0.19531 1.06707
 H312 H 0.53895 0.20544 1.07146
 H313 H 0.63676 0.14551 1.16230
 H314 H 0.64532 0.14218 1.11070
 H315 H 0.48391 0.07380 1.13431
 H316 H 0.51335 0.15393 1.11582
 C317 C 0.44498 0.55867 1.14204
 C318 C 0.43025 0.50857 1.14637
 C319 C 0.44347 0.49322 1.17222
 C320 C 0.47236 0.52773 1.19406
 C321 C 0.48735 0.57775 1.18971
 C322 C 0.47374 0.59306 1.16405
 C323 C 0.42950 0.57501 1.11509
 C324 C 0.46148 0.62092 1.10188
 C325 C 0.44610 0.63738 1.07745
 C326 C 0.39858 0.60806 1.06543
 C327 C 0.36694 0.56171 1.07819
 C328 C 0.38214 0.54547 1.10283
 H329 H 0.43080 0.45431 1.17529
 H330 H 0.50948 0.60500 1.20632
 H331 H 0.47151 0.67310 1.06797
 H332 H 0.32996 0.53840 1.06958
 H333 H 0.48495 0.63175 1.16176
 H334 H 0.49853 0.64420 1.11037
 H335 H 0.40856 0.48117 1.12975
 H336 H 0.35625 0.51030 1.11271
 C337 C 0.11381 0.55991 1.14364
 C338 C 0.12226 0.53319 1.16575
 C339 C 0.09367 0.51821 1.19149
 C340 C 0.05605 0.52967 1.19583
 C341 C 0.04818 0.55742 1.17421
 C342 C 0.07658 0.57212 1.14824
 C343 C 0.14407 0.57499 1.11606
 C344 C 0.15973 0.62138 1.10300
 C345 C 0.19016 0.63622 1.07790
 C346 C 0.20586 0.60512 1.06541
 C347 C 0.18941 0.55839 1.07812
 C348 C 0.15871 0.54342 1.10301
 H349 H 0.10059 0.49717 1.20800
 H350 H 0.01967 0.56712 1.17730
 H351 H 0.20240 0.67258 1.06873
 H352 H 0.20043 0.53333 1.06890
 H353 H 0.06888 0.59238 1.13160
 H354 H 0.14963 0.64683 1.11266
 H355 H 0.15133 0.52416 1.16330
 H356 H 0.14646 0.50701 1.11207
 C357 C 0.44181 0.88871 1.14415
 C358 C 0.49199 0.92294 1.14944
 C359 C 0.50665 0.95080 1.17555
 C360 C 0.47141 0.94575 1.19671
 C361 C 0.42133 0.91166 1.19150
 C362 C 0.40669 0.88337 1.16557
 C363 C 0.42615 0.85802 1.11673
 C364 C 0.38108 0.84558 1.10277
 C365 C 0.36533 0.81500 1.07779
 C366 C 0.39457 0.79661 1.06591
 C367 C 0.44013 0.80988 1.07941
 C368 C 0.45562 0.84000 1.10461
 H369 H 0.54561 0.97626 1.17928
 H370 H 0.39349 0.90695 1.20755
 H371 H 0.33019 0.80575 1.06777
 H372 H 0.46330 0.79594 1.07095
 H373 H 0.36787 0.85671 1.16257
 H374 H 0.35791 0.85957 1.11111
 H375 H 0.52000 0.92846 1.13333
 H376 H 0.49014 0.84810 1.11502
 C377 C 0.55842 0.44551 0.64379
 C378 C 0.53213 0.41100 0.66628
 C379 C 0.51854 0.42556 0.69223
 C380 C 0.53107 0.47497 0.69640
 C381 C 0.55794 0.50974 0.67423
 C382 C 0.57119 0.49511 0.64809
 C383 C 0.57293 0.42973 0.61623
 C384 C 0.61904 0.46035 0.60279
 C385 C 0.63338 0.44452 0.57759
 C386 C 0.60210 0.39756 0.56539
 C387 C 0.55571 0.36729 0.57853
 C388 C 0.54120 0.38328 0.60353
 H389 H 0.49800 0.39813 0.70909
 H390 H 0.56871 0.54823 0.67714
 H391 H 0.66952 0.46860 0.56813
 H392 H 0.53056 0.33106 0.56954
 H393 H 0.59104 0.52259 0.63116
 H394 H 0.64469 0.49604 0.61220
 H395 H 0.52256 0.37273 0.66402
 H396 H 0.50503 0.35917 0.61290
 C397 C 0.55329 0.11343 0.64224
 C398 C 0.52071 0.11700 0.66227
 C399 C 0.50554 0.08820 0.68800
 C400 C 0.52235 0.05502 0.69409
 C401 C 0.55480 0.05126 0.67412
 C402 C 0.57005 0.08012 0.64841
 C403 C 0.57063 0.14525 0.61543
 C404 C 0.62047 0.16803 0.60679
 C405 C 0.63728 0.19945 0.58220
 C406 C 0.60458 0.20872 0.56561
 C407 C 0.55455 0.18537 0.57403
 C408 C 0.53779 0.15404 0.59868
 H409 H 0.48063 0.09176 0.70319
 H410 H 0.56863 0.02627 0.67858
 H411 H 0.67608 0.21690 0.57641
 H412 H 0.52834 0.19162 0.56175
 H413 H 0.59484 0.07626 0.63328
 H414 H 0.64679 0.16248 0.61947
 H415 H 0.50772 0.14282 0.65836
 H416 H 0.49905 0.13654 0.60460
 C417 C 0.88677 0.44738 0.64332
 C418 C 0.88125 0.47689 0.66484
 C419 C 0.91004 0.49104 0.69058
 C420 C 0.94480 0.47581 0.69550
 C421 C 0.95003 0.44587 0.67425
 C422 C 0.92166 0.43216 0.64831
 C423 C 0.85563 0.43191 0.61607
 C424 C 0.83789 0.38447 0.60399
 C425 C 0.80736 0.36945 0.57894
 C426 C 0.79344 0.40132 0.56558
 C427 C 0.81155 0.44889 0.57743
 C428 C 0.84252 0.46411 0.60226
 H429 H 0.90519 0.51397 0.70671
 H430 H 0.97598 0.43291 0.67777
 H431 H 0.79365 0.33239 0.57049
 H432 H 0.80180 0.47445 0.56750
 H433 H 0.92729 0.40987 0.63212
 H434 H 0.84654 0.35840 0.61431
 H435 H 0.85410 0.48848 0.66204
 H436 H 0.85629 0.50123 0.61057
 C437 C 0.44463 0.55611 0.64357
 C438 C 0.42961 0.50637 0.64953
 C439 C 0.44454 0.49329 0.67561
 C440 C 0.47482 0.52971 0.69617
 C441 C 0.48971 0.57932 0.69033
 C442 C 0.47494 0.59244 0.66423
 C443 C 0.42785 0.57008 0.61627
 C444 C 0.46053 0.61248 0.60012
 C445 C 0.44417 0.62671 0.57510
 C446 C 0.39468 0.59893 0.56573
 C447 C 0.36220 0.55612 0.58168
 C448 C 0.37863 0.54182 0.60661
 H449 H 0.43230 0.45474 0.67986
 H450 H 0.51296 0.60792 0.70597
 H451 H 0.47020 0.65985 0.56334
 H452 H 0.32382 0.53388 0.57513
 H453 H 0.48649 0.63095 0.66047
 H454 H 0.49883 0.63466 0.60683
 H455 H 0.40656 0.47763 0.63392
 H456 H 0.35245 0.50929 0.61879
 C457 C 0.44472 0.88605 0.64169
 C458 C 0.43022 0.92161 0.64605
 C459 C 0.44353 0.95009 0.67193
 C460 C 0.47232 0.94424 0.69377
 C461 C 0.48704 0.90898 0.68942
 C462 C 0.47332 0.88014 0.66372
 C463 C 0.42928 0.85446 0.61465
 C464 C 0.46115 0.84031 0.60148
 C465 C 0.44583 0.80873 0.57696
 C466 C 0.39846 0.79098 0.56477
 C467 C 0.36694 0.80593 0.57746
 C468 C 0.38208 0.83711 0.60221
 H469 H 0.43099 0.97644 0.67500
 H470 H 0.50906 0.90364 0.70602
 H471 H 0.47116 0.79823 0.56753
 H472 H 0.33007 0.79257 0.56873
 H473 H 0.48435 0.85251 0.66142
 H474 H 0.49809 0.85373 0.61009
 H475 H 0.40866 0.92755 0.62944
 H476 H 0.35625 0.84656 0.61203
 C477 C 0.11256 0.55336 0.64271
 C478 C 0.11632 0.52128 0.66308
 C479 C 0.08816 0.50722 0.68907
 C480 C 0.05546 0.52467 0.69508
 C481 C 0.05153 0.55659 0.67475
 C482 C 0.07968 0.57069 0.64878
 C483 C 0.14388 0.56983 0.61568
 C484 C 0.16655 0.61939 0.60653
 C485 C 0.19740 0.63547 0.58171
 C486 C 0.20629 0.60233 0.56538
 C487 C 0.18309 0.55257 0.57431
 C488 C 0.15227 0.53653 0.59921
 H489 H 0.09185 0.48270 0.70454
 H490 H 0.02694 0.57093 0.67914
 H491 H 0.21478 0.67409 0.57555
 H492 H 0.18910 0.52606 0.56225
 H493 H 0.07565 0.59508 0.63340
 H494 H 0.16135 0.64608 0.61900
 H495 H 0.14182 0.50788 0.65923
 H496 H 0.13486 0.49798 0.60553
 C497 C 0.44468 0.55911 0.85805
 C498 C 0.41038 0.53224 0.83556
 C499 C 0.42530 0.51825 0.80991
 C500 C 0.47485 0.53092 0.80606
 C501 C 0.50939 0.55818 0.82829
 C502 C 0.49440 0.57186 0.85412
 C503 C 0.42853 0.57435 0.88517
 C504 C 0.45889 0.62089 0.89818
 C505 C 0.44270 0.63594 0.92290
 C506 C 0.39563 0.60495 0.93507
 C507 C 0.36557 0.55816 0.92234
 C508 C 0.38191 0.54296 0.89781
 H509 H 0.39805 0.49741 0.79301
 H510 H 0.54796 0.56897 0.82561
 H511 H 0.46666 0.67235 0.93205
 H512 H 0.32927 0.53321 0.93132
 H513 H 0.52170 0.59214 0.87109
 H514 H 0.49469 0.64629 0.88879
 H515 H 0.37204 0.52263 0.83753
 H516 H 0.35797 0.50649 0.88875
 C517 C 0.11494 0.55930 0.85615
 C518 C 0.12581 0.53583 0.83324
 C519 C 0.09737 0.52097 0.80735
 C520 C 0.05655 0.52828 0.80391
 C521 C 0.04625 0.55239 0.82694
 C522 C 0.07503 0.56762 0.85269
 C523 C 0.14579 0.57584 0.88334
 C524 C 0.16176 0.62306 0.89514
 C525 C 0.19231 0.63934 0.92016
 C526 C 0.20717 0.60855 0.93407
 C527 C 0.19042 0.56096 0.92252
 C528 C 0.16024 0.54488 0.89735
 H529 H 0.10651 0.50224 0.79042
 H530 H 0.01705 0.56127 0.82471
 H531 H 0.20457 0.67621 0.92847
 H532 H 0.20128 0.53637 0.93264
 H533 H 0.06599 0.58589 0.86997
 H534 H 0.15154 0.64783 0.88461
 H535 H 0.15678 0.52949 0.83519
 H536 H 0.14803 0.50812 0.88886
 C537 C 0.44109 0.88693 0.85553
 C538 C 0.46159 0.87455 0.83160
 C539 C 0.47524 0.90258 0.80560
 C540 C 0.46920 0.94423 0.80278
 C541 C 0.44740 0.95569 0.82663
 C542 C 0.43387 0.92764 0.85268
 C543 C 0.42687 0.85698 0.88316
 C544 C 0.38295 0.84547 0.89819
 C545 C 0.36873 0.81562 0.92351
 C546 C 0.39806 0.79650 0.93434
 C547 C 0.44242 0.80878 0.91959
 C548 C 0.45669 0.83874 0.89437
 H549 H 0.49221 0.89243 0.78809
 H550 H 0.43936 0.98552 0.82498
 H551 H 0.33421 0.80668 0.93423
 H552 H 0.46605 0.79493 0.92740
 H553 H 0.41797 0.93806 0.87068
 H554 H 0.35888 0.85846 0.88993
 H555 H 0.46683 0.84285 0.83286
 H556 H 0.49119 0.84766 0.88363
 C557 C 0.55887 0.44542 0.85864
 C558 C 0.59396 0.47292 0.83668
 C559 C 0.57998 0.48761 0.81092
 C560 C 0.53059 0.47507 0.80641
 C561 C 0.49526 0.44720 0.82811
 C562 C 0.50930 0.43278 0.85406
 C563 C 0.57408 0.42948 0.88589
 C564 C 0.54345 0.38252 0.89832
 C565 C 0.55901 0.36680 0.92307
 C566 C 0.60571 0.39754 0.93582
 C567 C 0.63592 0.44480 0.92372
 C568 C 0.62020 0.46065 0.89918
 H569 H 0.60782 0.50887 0.79441
 H570 H 0.45679 0.43647 0.82492
 H571 H 0.53496 0.33007 0.93176
 H572 H 0.67191 0.46961 0.93316
 H573 H 0.48140 0.41200 0.87061
 H574 H 0.50799 0.35732 0.88844
 H575 H 0.63222 0.48245 0.83914
 H576 H 0.64430 0.49742 0.89059
 C577 C 0.88739 0.44490 0.85695
 C578 C 0.88319 0.47714 0.83693
 C579 C 0.91184 0.49255 0.81115
 C580 C 0.94552 0.47637 0.80504
 C581 C 0.94966 0.44401 0.82491
 C582 C 0.92098 0.42854 0.85067
 C583 C 0.85606 0.42761 0.88395
 C584 C 0.83393 0.37794 0.89280
 C585 C 0.80316 0.36118 0.91766
 C586 C 0.79387 0.39376 0.93431
 C587 C 0.81655 0.44362 0.92567
 C588 C 0.84726 0.46033 0.90075
 H589 H 0.90795 0.51734 0.79601
 H590 H 0.97507 0.43069 0.82043
 H591 H 0.78619 0.32251 0.92360
 H592 H 0.81024 0.46972 0.93800
 H593 H 0.92531 0.40401 0.86579
 H594 H 0.83951 0.35171 0.88009
 H595 H 0.85711 0.48977 0.84093
 H596 H 0.86430 0.49896 0.89467
 C597 C 0.55431 0.11372 0.85561
 C598 C 0.52440 0.11999 0.83468
 C599 C 0.50872 0.09126 0.80896
 C600 C 0.52269 0.05572 0.80351
 C601 C 0.55351 0.05012 0.82396
 C602 C 0.56882 0.07851 0.84988
 C603 C 0.57035 0.14403 0.88316
 C604 C 0.61799 0.16141 0.89492
 C605 C 0.63342 0.19129 0.92026
 C606 C 0.60170 0.20483 0.93422
 C607 C 0.55386 0.18688 0.92274
 C608 C 0.53829 0.15663 0.89764
 H609 H 0.48529 0.09649 0.79337
 H610 H 0.56536 0.02342 0.81997
 H611 H 0.67065 0.20486 0.92844
 H612 H 0.52837 0.19628 0.93313
 H613 H 0.59148 0.07241 0.86559
 H614 H 0.64388 0.15299 0.88413
 H615 H 0.51344 0.14749 0.83801
 H616 H 0.50099 0.14303 0.88962
   
