data_POSCAR
  _audit_creation_date              2014-09-24
  _audit_creation_method            'ToBaCCo'
  _symmetry_space_group_name_H-M    'P1'
  _symmetry_Int_Tables_number       1
  _symmetry_cell_setting            triclinic
  loop_
  _symmetry_equiv_pos_as_xyz
 x,y,z
_cell_length_a 60.8672
_cell_length_b 59.9272
_cell_length_c 60.7987
_cell_angle_alpha 89.864400
_cell_angle_beta 90.002600
_cell_angle_gamma 89.964100
loop_
  _atom_site_label
  _atom_site_type_symbol
  _atom_site_fract_x
  _atom_site_fract_y
  _atom_site_fract_z
C1 C 0.60868 0.64089 0.62507
 N2 N 0.60896 0.62491 0.64096
 C3 C 0.62483 0.60893 0.64130
 N4 N 0.64056 0.60914 0.62541
 C5 C 0.64055 0.62499 0.60939
 N6 N 0.62455 0.64080 0.60935
 C7 C 0.89178 0.35908 0.12509
 N8 N 0.87588 0.35928 0.10938
 C9 C 0.85989 0.37512 0.10937
 N10 N 0.85990 0.39093 0.12534
 C11 C 0.87563 0.39104 0.14119
 N12 N 0.89148 0.37506 0.14094
 C13 C 0.39120 0.14097 -0.12478
 N14 N 0.39091 0.12505 -0.14066
 C15 C 0.37502 0.10914 -0.14093
 N16 N 0.35929 0.10928 -0.12508
 C17 C 0.35932 0.12507 -0.10908
 N18 N 0.37534 0.14086 -0.10906
 C19 C 0.10814 0.85884 0.37485
 N20 N 0.12401 0.85908 0.39060
 C21 C 0.13993 0.87495 0.39056
 N22 N 0.13990 0.89076 0.37451
 C23 C 0.12420 0.89087 0.35859
 N24 N 0.10842 0.87482 0.35894
 N25 N 0.09900 0.16004 0.11435
 N26 N 0.09012 0.15064 0.13174
 C27 C 0.07232 0.16250 0.13780
 C28 C 0.06986 0.18031 0.12340
 C29 C 0.08716 0.17814 0.10873
 H30 H 0.06186 0.15836 0.15157
 H31 H 0.09103 0.18900 0.09505
 Cu32 Cu 0.10265 0.12382 0.14480
 Cu33 Cu 0.12525 0.14817 0.10031
 Cu34 Cu 0.14860 0.10104 0.12379
 N35 N 0.11631 0.09769 0.15808
 N36 N 0.13423 0.08886 0.14977
 C37 C 0.14014 0.07110 0.16199
 C38 C 0.12515 0.06860 0.17898
 C39 C 0.11025 0.08585 0.17593
 H40 H 0.15444 0.06091 0.15881
 H41 H 0.09596 0.08944 0.18585
 N42 N 0.16073 0.11579 0.09745
 N43 N 0.15182 0.13371 0.08850
 C44 C 0.16375 0.13972 0.07080
 C45 C 0.18107 0.12489 0.06846
 C46 C 0.17857 0.10995 0.08570
 H47 H 0.16017 0.15396 0.06048
 H48 H 0.18887 0.09573 0.08933
 H49 H 0.12092 0.11541 0.11007
 H50 H 0.13793 0.13347 0.12838
 N51 N 0.40012 0.84021 0.61421
 N52 N 0.40897 0.84953 0.63162
 C53 C 0.42680 0.83769 0.63766
 C54 C 0.42933 0.81999 0.62322
 C55 C 0.41203 0.82219 0.60855
 H56 H 0.43725 0.84178 0.65143
 H57 H 0.40820 0.81141 0.59486
 Cu58 Cu 0.39632 0.87620 0.64472
 Cu59 Cu 0.37381 0.85206 0.60019
 Cu60 Cu 0.35033 0.89900 0.62371
 N61 N 0.38258 0.90220 0.65804
 N62 N 0.36465 0.91104 0.64973
 C63 C 0.35868 0.92871 0.66197
 C64 C 0.37367 0.93115 0.67897
 C65 C 0.38861 0.91395 0.67591
 H66 H 0.34437 0.93889 0.65878
 H67 H 0.40290 0.91034 0.68583
 N68 N 0.33827 0.88438 0.59734
 N69 N 0.34719 0.86650 0.58841
 C70 C 0.33525 0.86052 0.57073
 C71 C 0.31794 0.87536 0.56835
 C72 C 0.32044 0.89026 0.58556
 H73 H 0.33903 0.84651 0.56025
 H74 H 0.30995 0.90428 0.58935
 H75 H 0.37805 0.88477 0.60999
 H76 H 0.36107 0.86657 0.62827
 N77 N 0.90098 0.65998 0.38599
 N78 N 0.90982 0.65064 0.36858
 C79 C 0.92765 0.66246 0.36253
 C80 C 0.93018 0.68017 0.37694
 C81 C 0.91288 0.67800 0.39163
 H82 H 0.93809 0.65836 0.34875
 H83 H 0.90905 0.68880 0.40530
 Cu84 Cu 0.89717 0.62398 0.35548
 Cu85 Cu 0.87467 0.64817 0.40001
 Cu86 Cu 0.85117 0.60128 0.37649
 N87 N 0.88341 0.59801 0.34216
 N88 N 0.86547 0.58921 0.35047
 C89 C 0.85949 0.57155 0.33822
 C90 C 0.87447 0.56910 0.32122
 C91 C 0.88943 0.58626 0.32429
 H92 H 0.84517 0.56140 0.34141
 H93 H 0.90372 0.58984 0.31437
 N94 N 0.83912 0.61591 0.40287
 N95 N 0.84805 0.63378 0.41179
 C96 C 0.83611 0.63977 0.42947
 C97 C 0.81880 0.62495 0.43186
 C98 C 0.82129 0.61005 0.41464
 H99 H 0.83989 0.65377 0.43996
 H100 H 0.81080 0.59605 0.41085
 H101 H 0.87890 0.61545 0.39021
 H102 H 0.86193 0.63369 0.37193
 N103 N 0.60057 0.33917 -0.11503
 N104 N 0.59221 0.34803 -0.13296
 C105 C 0.57433 0.33627 -0.13892
 C106 C 0.57131 0.31906 -0.12394
 C107 C 0.58835 0.32148 -0.10901
 H108 H 0.56437 0.33988 -0.15320
 H109 H 0.59157 0.31129 -0.09468
 Cu110 Cu 0.60549 0.37405 -0.14678
 Cu111 Cu 0.62662 0.35123 -0.10080
 Cu112 Cu 0.65006 0.39822 -0.12441
 N113 N 0.61855 0.40076 -0.15951
 N114 N 0.63598 0.41008 -0.15071
 C115 C 0.64160 0.42813 -0.16266
 C116 C 0.62689 0.43033 -0.17994
 C117 C 0.61247 0.41260 -0.17735
 H118 H 0.65529 0.43892 -0.15888
 H119 H 0.59867 0.40852 -0.18776
 N120 N 0.66191 0.38377 -0.09779
 N121 N 0.65301 0.36586 -0.08883
 C122 C 0.66483 0.35998 -0.07100
 C123 C 0.68203 0.37490 -0.06856
 C124 C 0.67960 0.38975 -0.08589
 H125 H 0.66106 0.34594 -0.06048
 H126 H 0.69006 0.40379 -0.08971
 H127 H 0.62205 0.38366 -0.11156
 H128 H 0.64024 0.36550 -0.12861
 C129 C -0.07494 0.30958 0.10850
 C130 C -0.05868 0.30951 0.12474
 C131 C -0.05883 0.32587 0.14109
 C132 C -0.07517 0.34227 0.14125
 C133 C -0.09172 0.34258 0.12497
 C134 C -0.09133 0.32594 0.10857
 C135 C -0.04183 0.29264 0.12462
 C136 C -0.02773 0.27851 0.12450
 C137 C -0.01123 0.26195 0.12435
 C138 C 0.00285 0.24781 0.12421
 C139 C 0.01967 0.23091 0.12403
 C140 C 0.02204 0.21644 0.14195
 C141 C 0.03834 0.19999 0.14178
 C142 C 0.05255 0.19779 0.12363
 C143 C 0.05001 0.21248 0.10569
 C144 C 0.03368 0.22890 0.10591
 H145 H -0.07497 0.29697 0.09575
 H146 H -0.04630 0.32596 0.15375
 H147 H -0.07476 0.35467 0.15417
 H148 H -0.10365 0.32546 0.09573
 H149 H 0.01129 0.21787 0.15609
 H150 H 0.03984 0.18917 0.15596
 H151 H 0.06046 0.21125 0.09137
 H152 H 0.03197 0.24000 0.09192
 C153 C 0.57451 0.69116 0.60832
 C154 C 0.55822 0.69115 0.62456
 C155 C 0.55840 0.67473 0.64096
 C156 C 0.57479 0.65838 0.64114
 C157 C 0.59128 0.65823 0.62489
 C158 C 0.59093 0.67483 0.60847
 C159 C 0.54134 0.70797 0.62439
 C160 C 0.52720 0.72206 0.62425
 C161 C 0.51066 0.73858 0.62410
 C162 C 0.49654 0.75269 0.62396
 C163 C 0.47968 0.76954 0.62379
 C164 C 0.47727 0.78391 0.64173
 C165 C 0.46092 0.80030 0.64157
 C166 C 0.44670 0.80257 0.62343
 C167 C 0.44928 0.78800 0.60547
 C168 C 0.46566 0.77162 0.60567
 H169 H 0.57453 0.70380 0.59555
 H170 H 0.54586 0.67456 0.65360
 H171 H 0.57453 0.64588 0.65403
 H172 H 0.60333 0.67525 0.59570
 H173 H 0.48802 0.78242 0.65586
 H174 H 0.45940 0.81103 0.65576
 H175 H 0.43883 0.78927 0.59115
 H176 H 0.46740 0.76061 0.59167
 C177 C 1.07497 0.80928 0.39162
 C178 C 1.05874 0.80919 0.37536
 C179 C 1.05887 0.82555 0.35892
 C180 C 1.07517 0.84197 0.35872
 C181 C 1.09169 0.84231 0.37502
 C182 C 1.09132 0.82567 0.39150
 C183 C 1.04193 0.79231 0.37553
 C184 C 1.02785 0.77817 0.37568
 C185 C 1.01136 0.76162 0.37587
 C186 C 0.99728 0.74749 0.37605
 C187 C 0.98046 0.73062 0.37627
 C188 C 0.97805 0.71623 0.35835
 C189 C 0.96173 0.69983 0.35854
 C190 C 0.94753 0.69759 0.37671
 C191 C 0.95012 0.71218 0.39464
 C192 C 0.96646 0.72856 0.39440
 H193 H 1.07501 0.79668 0.40443
 H194 H 1.04636 0.82563 0.34624
 H195 H 1.07475 0.85437 0.34574
 H196 H 1.10362 0.82521 0.40436
 H197 H 0.98878 0.71771 0.34420
 H198 H 0.96020 0.68909 0.34437
 H199 H 0.93968 0.71092 0.40898
 H200 H 0.96821 0.73959 0.40839
 C201 C 0.42541 0.19112 -0.10812
 C202 C 0.44170 0.19112 -0.12436
 C203 C 0.44150 0.17476 -0.14073
 C204 C 0.42510 0.15845 -0.14089
 C205 C 0.40862 0.15827 -0.12463
 C206 C 0.40898 0.17482 -0.10823
 C207 C 0.45860 0.20790 -0.12422
 C208 C 0.47277 0.22195 -0.12413
 C209 C 0.48937 0.23838 -0.12404
 C210 C 0.50356 0.25240 -0.12398
 C211 C 0.52051 0.26914 -0.12394
 C212 C 0.53860 0.26695 -0.10991
 C213 C 0.55511 0.28317 -0.10988
 C214 C 0.55376 0.30184 -0.12392
 C215 C 0.53546 0.30386 -0.13796
 C216 C 0.51897 0.28762 -0.13795
 H217 H 0.42541 0.20371 -0.09536
 H218 H 0.45404 0.17461 -0.15339
 H219 H 0.42535 0.14599 -0.15376
 H220 H 0.39659 0.17522 -0.09546
 H221 H 0.53998 0.25268 -0.09901
 H222 H 0.56896 0.28090 -0.09896
 H223 H 0.53370 0.31801 -0.14888
 H224 H 0.50502 0.28949 -0.14886
 C225 C 0.10818 -0.07612 0.30899
 C226 C 0.12447 -0.05969 0.30878
 C227 C 0.14068 -0.05964 0.32507
 C228 C 0.14063 -0.07596 0.34155
 C229 C 0.12430 -0.09266 0.34200
 C230 C 0.10805 -0.09247 0.32543
 C231 C 0.12456 -0.04288 0.29183
 C232 C 0.12463 -0.02880 0.27763
 C233 C 0.12472 -0.01234 0.26100
 C234 C 0.12479 0.00172 0.24678
 C235 C 0.12489 0.01849 0.22980
 C236 C 0.13895 0.01637 0.21173
 C237 C 0.13906 0.03264 0.19521
 C238 C 0.12506 0.05131 0.19653
 C239 C 0.11098 0.05326 0.21480
 C240 C 0.11091 0.03696 0.23130
 H241 H 0.09554 -0.07630 0.29644
 H242 H 0.15338 -0.04698 0.32505
 H243 H 0.15345 -0.07539 0.35389
 H244 H 0.09517 -0.10493 0.32506
 H245 H 0.14982 0.00211 0.21038
 H246 H 0.15001 0.03042 0.18138
 H247 H 0.10009 0.06741 0.21654
 H248 H 0.09998 0.03879 0.24524
 C249 C 0.60890 0.57572 -0.30921
 C250 C 0.62529 0.55936 -0.30901
 C251 C 0.64153 0.55944 -0.32527
 C252 C 0.64142 0.57579 -0.34170
 C253 C 0.62498 0.59242 -0.34215
 C254 C 0.60871 0.59211 -0.32561
 C255 C 0.62545 0.54251 -0.29211
 C256 C 0.62560 0.52838 -0.27796
 C257 C 0.62579 0.51184 -0.26139
 C258 C 0.62596 0.49771 -0.24725
 C259 C 0.62618 0.48084 -0.23037
 C260 C 0.60826 0.46646 -0.22788
 C261 C 0.60846 0.45004 -0.21151
 C262 C 0.62663 0.44777 -0.19734
 C263 C 0.64457 0.46236 -0.20000
 C264 C 0.64432 0.47875 -0.21640
 H265 H 0.59624 0.57580 -0.29669
 H266 H 0.65431 0.54684 -0.32525
 H267 H 0.65426 0.57532 -0.35402
 H268 H 0.59575 0.60450 -0.32524
 H269 H 0.59410 0.46794 -0.23859
 H270 H 0.59428 0.43930 -0.20992
 H271 H 0.65892 0.46108 -0.18958
 H272 H 0.65831 0.48978 -0.21820
 C273 C 0.39093 1.07532 0.80880
 C274 C 0.37451 1.05899 0.80860
 C275 C 0.35826 1.05902 0.82487
 C276 C 0.35840 1.07532 0.84130
 C277 C 0.37484 1.09183 0.84166
 C278 C 0.39112 1.09163 0.82520
 C279 C 0.37434 1.04222 0.79170
 C280 C 0.37421 1.02818 0.77753
 C281 C 0.37408 1.01176 0.76093
 C282 C 0.37398 0.99775 0.74674
 C283 C 0.37387 0.98103 0.72978
 C284 C 0.38787 0.96257 0.73128
 C285 C 0.38782 0.94635 0.71479
 C286 C 0.37372 0.94835 0.69652
 C287 C 0.35969 0.96700 0.69521
 C288 C 0.35978 0.98320 0.71172
 H289 H 0.40359 1.07544 0.79627
 H290 H 0.34547 1.04646 0.82487
 H291 H 0.34563 1.07495 0.85368
 H292 H 0.40401 1.10406 0.82495
 H293 H 0.39882 0.96071 0.74521
 H294 H 0.39873 0.93221 0.71653
 H295 H 0.34873 0.96927 0.68139
 H296 H 0.34890 0.99745 0.71037
 C297 C 0.89161 0.42485 0.19143
 C298 C 0.87522 0.44123 0.19161
 C299 C 0.85897 0.44124 0.17534
 C300 C 0.85909 0.42494 0.15893
 C301 C 0.87549 0.40836 0.15858
 C302 C 0.89177 0.40853 0.17504
 C303 C 0.87508 0.45802 0.20851
 C304 C 0.87496 0.47206 0.22267
 C305 C 0.87484 0.48848 0.23927
 C306 C 0.87475 0.50250 0.25345
 C307 C 0.87465 0.51922 0.27041
 C308 C 0.86056 0.51707 0.28847
 C309 C 0.86047 0.53327 0.30498
 C310 C 0.87451 0.55190 0.30367
 C311 C 0.88861 0.55388 0.28540
 C312 C 0.88865 0.53765 0.26891
 H313 H 0.90427 0.42469 0.20396
 H314 H 0.84621 0.45385 0.17533
 H315 H 0.84631 0.42534 0.14654
 H316 H 0.90464 0.39605 0.17530
 H317 H 0.84967 0.50284 0.28982
 H318 H 0.84951 0.53102 0.31880
 H319 H 0.89952 0.56800 0.28367
 H320 H 0.89961 0.53950 0.25498
 C321 C 0.30919 0.10880 -0.07554
 C322 C 0.30930 0.12512 -0.05912
 C323 C 0.32574 0.14142 -0.05900
 C324 C 0.34202 0.14143 -0.07523
 C325 C 0.34207 0.12509 -0.09184
 C326 C 0.32544 0.10876 -0.09179
 C327 C 0.29256 0.12513 -0.04241
 C328 C 0.27853 0.12513 -0.02842
 C329 C 0.26209 0.12512 -0.01204
 C330 C 0.24805 0.12511 0.00194
 C331 C 0.23128 0.12507 0.01862
 C332 C 0.21276 0.13872 0.01635
 C333 C 0.19644 0.13869 0.03253
 C334 C 0.19841 0.12497 0.05126
 C335 C 0.21713 0.11131 0.05337
 C336 C 0.23342 0.11138 0.03716
 H337 H 0.29653 0.09609 -0.07578
 H338 H 0.32599 0.15414 -0.04636
 H339 H 0.35454 0.15424 -0.07474
 H340 H 0.32495 0.09593 -0.10429
 H341 H 0.21091 0.14937 0.00203
 H342 H 0.18225 0.14930 0.03019
 H343 H 0.21936 0.10066 0.06757
 H344 H 0.24771 0.10077 0.03911
 C345 C 0.67415 0.64144 0.55931
 C346 C 0.69058 0.62509 0.55945
 C347 C 0.69067 0.60872 0.57589
 C348 C 0.67442 0.60866 0.59214
 C349 C 0.65781 0.62503 0.59216
 C350 C 0.65788 0.64143 0.57553
 C351 C 0.70733 0.62512 0.54274
 C352 C 0.72136 0.62513 0.52875
 C353 C 0.73779 0.62513 0.51237
 C354 C 0.75183 0.62512 0.49839
 C355 C 0.76860 0.62509 0.48170
 C356 C 0.77110 0.60661 0.46792
 C357 C 0.78740 0.60655 0.45171
 C358 C 0.80146 0.62501 0.44905
 C359 C 0.79877 0.64352 0.46303
 C360 C 0.78246 0.64353 0.47922
 H361 H 0.67393 0.65419 0.54665
 H362 H 0.70332 0.59598 0.57615
 H363 H 0.67489 0.59579 0.60466
 H364 H 0.64537 0.65427 0.57502
 H365 H 0.76048 0.59222 0.46972
 H366 H 0.78901 0.59193 0.44144
 H367 H 0.80911 0.65810 0.46143
 H368 H 0.78064 0.65795 0.48978
 C369 C 0.80978 0.39149 0.07581
 C370 C 0.80987 0.37513 0.05942
 C371 C 0.82628 0.35878 0.05934
 C372 C 0.84256 0.35876 0.07556
 C373 C 0.84264 0.37513 0.09213
 C374 C 0.82604 0.39151 0.09205
 C375 C 0.79311 0.37512 0.04272
 C376 C 0.77909 0.37510 0.02872
 C377 C 0.76268 0.37507 0.01232
 C378 C 0.74867 0.37505 -0.00170
 C379 C 0.73195 0.37502 -0.01844
 C380 C 0.72942 0.39350 -0.03231
 C381 C 0.71320 0.39348 -0.04860
 C382 C 0.69925 0.37495 -0.05125
 C383 C 0.70196 0.35645 -0.03718
 C384 C 0.71820 0.35651 -0.02091
 H385 H 0.79714 0.40423 0.07603
 H386 H 0.82650 0.34603 0.04673
 H387 H 0.85506 0.34590 0.07510
 H388 H 0.82557 0.40436 0.10453
 H389 H 0.73996 0.40794 -0.03051
 H390 H 0.71156 0.40810 -0.05893
 H391 H 0.69172 0.34181 -0.03878
 H392 H 0.72005 0.34209 -0.01029
 C393 C 0.18991 0.89147 0.42414
 C394 C 0.18985 0.87513 0.44061
 C395 C 0.17350 0.85873 0.44075
 C396 C 0.15726 0.85865 0.42449
 C397 C 0.15715 0.87502 0.40783
 C398 C 0.17369 0.89144 0.40786
 C399 C 0.20657 0.87517 0.45735
 C400 C 0.22058 0.87520 0.47136
 C401 C 0.23699 0.87524 0.48776
 C402 C 0.25102 0.87526 0.50176
 C403 C 0.26778 0.87528 0.51847
 C404 C 0.28161 0.85681 0.52098
 C405 C 0.29792 0.85681 0.53718
 C406 C 0.30061 0.87533 0.55114
 C407 C 0.28657 0.89382 0.54845
 C408 C 0.27029 0.89377 0.53223
 H409 H 0.20249 0.90425 0.42388
 H410 H 0.17331 0.84599 0.45342
 H411 H 0.14481 0.84576 0.42499
 H412 H 0.17413 0.90429 0.39531
 H413 H 0.27979 0.84238 0.51044
 H414 H 0.30823 0.84220 0.53881
 H415 H 0.28820 0.90844 0.55870
 H416 H 0.25968 0.90819 0.53040
   
