data_POSCAR
  _audit_creation_date              2014-09-24
  _audit_creation_method            'ToBaCCo'
  _symmetry_space_group_name_H-M    'P1'
  _symmetry_Int_Tables_number       1
  _symmetry_cell_setting            triclinic
  loop_
  _symmetry_equiv_pos_as_xyz
 x,y,z
_cell_length_a 22.8555
_cell_length_b 23.0140
_cell_length_c 23.2758
_cell_angle_alpha 111.915400
_cell_angle_beta 69.189400
_cell_angle_gamma 57.551100
loop_
  _atom_site_label
  _atom_site_type_symbol
  _atom_site_fract_x
  _atom_site_fract_y
  _atom_site_fract_z
O1 O 0.52855 0.52174 0.06809
 O2 O 0.46220 0.45744 -0.04209
 O3 O 0.51142 0.41388 0.03042
 O4 O 0.48696 0.56099 -0.01364
 O5 O 0.63856 0.42376 -0.14568
 O6 O 0.67123 0.28680 -0.08988
 O7 O 0.61937 0.31736 -0.16581
 O8 O 0.68277 0.39848 -0.06080
 Cu9 Cu 0.48119 0.50298 0.02362
 Cu10 Cu 0.66857 0.34447 -0.12812
 C11 C 0.61720 0.47121 0.02202
 C12 C 0.52901 0.37370 -0.12038
 C13 C 0.59618 0.32524 -0.02251
 C14 C 0.55890 0.51560 -0.08916
 O15 O -0.14139 0.70111 0.64230
 O16 O -0.05271 0.47143 0.54284
 O17 O -0.04559 0.56558 0.63796
 O18 O -0.13524 0.59646 0.53496
 O19 O 0.00941 0.51198 0.41785
 O20 O 0.09566 0.48789 0.52286
 O21 O 0.09126 0.38738 0.42524
 O22 O -0.00039 0.61964 0.52332
 Cu23 Cu -0.10810 0.59238 0.60132
 Cu24 Cu 0.06372 0.49339 0.46091
 C25 C -0.08683 0.70009 0.59977
 C26 C 0.03363 0.39062 0.46712
 C27 C 0.04029 0.52183 0.59781
 C28 C -0.07683 0.55740 0.45779
 O29 O 0.42947 0.05049 0.62422
 O30 O 0.34218 0.16112 0.55060
 O31 O 0.36136 0.04171 0.55335
 O32 O 0.41409 0.16717 0.61395
 O33 O 0.56559 0.03794 0.48078
 O34 O 0.51282 -0.08637 0.42044
 O35 O 0.49289 0.03248 0.41659
 O36 O 0.57952 -0.07652 0.49024
 Cu37 Cu 0.37215 0.11724 0.59914
 Cu38 Cu 0.55300 -0.03612 0.43882
 C39 C 0.52022 -0.03122 0.56982
 C40 C 0.40242 0.11449 0.47068
 C41 C 0.42720 -0.04209 0.47523
 C42 C 0.49896 0.12367 0.55727
 C43 C 0.44975 0.00015 0.03328
 C44 C 0.46642 0.02714 -0.00730
 C45 C 0.49021 -0.01333 -0.08925
 C46 C 0.48317 0.08234 0.01596
 C47 C 0.42840 0.04074 0.11451
 C48 C 0.46355 -0.07952 -0.00647
 C49 C 0.58859 -0.08815 -0.16871
 C50 C 0.61335 -0.11425 -0.24456
 C51 C 0.54006 -0.06445 -0.24278
 C52 C 0.44104 0.00931 -0.16338
 C53 C 0.41626 0.03454 -0.08705
 C54 C 0.55954 0.04384 0.01111
 C55 C 0.58959 0.08319 0.01442
 C56 C 0.54471 0.16104 0.02142
 C57 C 0.46463 0.20301 0.03126
 C58 C 0.43454 0.16364 0.02803
 C59 C 0.35695 0.14240 0.18622
 C60 C 0.33631 0.17917 0.26266
 C61 C 0.38568 0.11527 0.26924
 C62 C 0.45878 0.01362 0.19685
 C63 C 0.47972 -0.02325 0.12041
 C64 C 0.39201 -0.06605 0.04455
 C65 C 0.41222 -0.14600 0.01203
 C66 C 0.50370 -0.24024 -0.07253
 C67 C 0.57448 -0.25310 -0.12347
 C68 C 0.55528 -0.17423 -0.09008
 H69 H 0.64637 -0.12382 -0.17105
 H70 H 0.69007 -0.17035 -0.30331
 H71 H 0.38281 0.04927 -0.15974
 H72 H 0.33955 0.09467 -0.02553
 H73 H 0.59954 -0.02020 -0.00012
 H74 H 0.65048 0.04978 0.00800
 H75 H 0.37609 0.19386 0.03105
 H76 H 0.31575 0.19352 0.18379
 H77 H 0.28127 0.25751 0.31681
 H78 H 0.49830 -0.03737 0.20004
 H79 H 0.53606 -0.10204 0.06578
 H80 H 0.32188 0.00567 0.11064
 H81 H 0.35703 -0.13454 0.05313
 H82 H 0.64708 -0.32548 -0.18742
 H83 H 0.61439 -0.18864 -0.12760
 H84 H 0.42849 0.26301 0.03682
 C85 C 0.00795 0.48623 0.97677
 C86 C 0.04962 0.47726 1.00768
 C87 C 0.14055 0.44525 0.96265
 C88 C 0.00803 0.49589 1.08716
 C89 C -0.06898 0.49661 1.01106
 C90 C 0.03735 0.48378 0.90651
 C91 C 0.22835 0.35304 0.87548
 C92 C 0.31603 0.31940 0.83658
 C93 C 0.31690 0.37772 0.88472
 C94 C 0.22813 0.47093 0.97131
 C95 C 0.14108 0.50397 1.01007
 C96 C 0.07107 0.43010 1.08607
 C97 C 0.03398 0.44898 1.16115
 C98 C -0.06708 0.53288 1.23827
 C99 C -0.13066 0.59854 1.23969
 C100 C -0.09314 0.58109 1.16523
 C101 C -0.16129 0.57797 1.04797
 C102 C -0.23150 0.58455 1.07464
 C103 C -0.20959 0.50940 1.06377
 C104 C -0.11798 0.42851 1.02776
 C105 C -0.04795 0.42225 1.00176
 C106 C 0.05571 0.53290 0.90489
 C107 C 0.07642 0.53509 0.84197
 C108 C 0.07483 0.49201 0.78214
 C109 C 0.05540 0.44420 0.78414
 C110 C 0.03800 0.43914 0.84488
 H111 H 0.22943 0.30596 0.83883
 H112 H 0.38281 0.24730 0.76986
 H113 H 0.22621 0.51766 1.01023
 H114 H 0.07409 0.57499 1.07765
 H115 H 0.14932 0.36431 1.02715
 H116 H 0.08435 0.39781 1.15898
 H117 H -0.14294 0.63498 1.16909
 H118 H -0.17819 0.63546 1.05492
 H119 H -0.30181 0.64672 1.10140
 H120 H -0.10010 0.36948 1.01806
 H121 H 0.02354 0.35834 0.97219
 H122 H 0.05111 0.57226 0.95376
 H123 H 0.08959 0.57391 0.84241
 H124 H 0.05410 0.41030 0.73831
 H125 H 0.02378 0.40107 0.84427
 H126 H -0.20859 0.66512 1.29924
 C127 C -0.02206 0.02466 0.53100
 C128 C -0.07216 0.08217 0.52204
 C129 C -0.15455 0.10921 0.53535
 C130 C -0.04382 0.11888 0.49618
 C131 C 0.06638 -0.00867 0.50731
 C132 C -0.05083 -0.00911 0.56255
 C133 C -0.14254 0.03661 0.48970
 C134 C -0.22106 0.06301 0.50391
 C135 C -0.31312 0.16248 0.56356
 C136 C -0.32406 0.23490 0.60740
 C137 C -0.24552 0.20841 0.59322
 C138 C 0.01543 0.07087 0.40858
 C139 C 0.04990 0.09962 0.38221
 C140 C 0.02414 0.17793 0.44363
 C141 C -0.03761 0.22753 0.53188
 C142 C -0.07062 0.19764 0.55782
 C143 C 0.06214 0.03340 0.57287
 C144 C 0.14435 0.00514 0.55027
 C145 C 0.23271 -0.06722 0.46166
 C146 C 0.23693 -0.11036 0.39613
 C147 C 0.15444 -0.08110 0.41885
 C148 C -0.14814 0.05750 0.63976
 C149 C -0.17432 0.02485 0.66869
 C150 C -0.10356 -0.07553 0.62037
 C151 C -0.00607 -0.14195 0.54359
 C152 C 0.02022 -0.10897 0.51539
 H153 H -0.07245 -0.04054 0.44344
 H154 H -0.21000 0.00539 0.46897
 H155 H -0.39333 0.31220 0.65356
 H156 H -0.25638 0.26568 0.62883
 H157 H 0.03687 0.00964 0.36036
 H158 H 0.09599 0.06097 0.31407
 H159 H -0.11610 0.23504 0.62565
 H160 H -0.00517 0.08917 0.64146
 H161 H 0.13898 0.03960 0.60204
 H162 H 0.30306 -0.16517 0.32721
 H163 H 0.15891 -0.11436 0.36745
 H164 H -0.20416 0.13472 0.67722
 H165 H -0.25029 0.07810 0.72775
 H166 H 0.04999 -0.21968 0.50508
 H167 H 0.09583 -0.16188 0.45567
 H168 H -0.05883 0.28828 0.58055
 C169 C -0.35539 0.49747 1.06447
 C170 C -0.40962 0.55438 1.15254
 C171 C -0.35921 0.56315 1.16385
 C172 C -0.27889 0.51125 1.08194
 O173 O -0.27596 0.47104 1.02143
 H174 H -0.47803 0.58636 1.20241
 H175 H -0.37941 0.60402 1.22449
 C176 C 0.50105 0.34281 0.84679
 C177 C 0.56367 0.24973 0.76846
 C178 C 0.50358 0.24916 0.77015
 C179 C 0.40878 0.34260 0.84884
 O180 O 0.40778 0.39877 0.89505
 H181 H 0.64325 0.18847 0.71813
 H182 H 0.52692 0.18709 0.72067
 C183 C -0.12199 -0.21215 0.63638
 C184 C -0.21180 -0.12084 0.72041
 C185 C -0.21739 -0.05627 0.72714
 C186 C -0.13036 -0.11306 0.64658
 O187 O -0.07227 -0.20765 0.59189
 H188 H -0.26640 -0.10319 0.77103
 H189 H -0.27775 0.02247 0.78427
 C190 C 0.06486 0.30102 0.42820
 C191 C 0.14355 0.21369 0.34031
 C192 C 0.14024 0.15412 0.33319
 C193 C 0.05935 0.21001 0.41756
 O194 O 0.01380 0.29902 0.47502
 H195 H 0.19464 0.19678 0.28743
 H196 H 0.19051 0.07937 0.27351
 C197 C 0.55697 -0.07092 -0.40272
 C198 C 0.65571 -0.15475 -0.45669
 C199 C 0.66238 -0.16422 -0.40454
 C200 C 0.56703 -0.08613 -0.32210
 O201 O 0.50262 -0.02888 -0.32087
 H202 H 0.71622 -0.20174 -0.52541
 H203 H 0.72990 -0.22114 -0.42508
 C204 C 0.36679 0.15279 0.43872
 C205 C 0.27336 0.24474 0.49141
 C206 C 0.26871 0.24534 0.43481
 C207 C 0.35954 0.15319 0.35177
 O208 O 0.41896 0.09699 0.35424
 H209 H 0.21468 0.30247 0.56239
 H210 H 0.20493 0.30373 0.45227
 C211 C 0.55283 -0.43165 -0.11272
 C212 C 0.61140 -0.47770 -0.19848
 C213 C 0.59580 -0.40969 -0.19421
 C214 C 0.52929 -0.32695 -0.10605
 O215 O 0.50235 -0.33984 -0.05614
 H216 H 0.66251 -0.55332 -0.25739
 H217 H 0.63191 -0.42061 -0.24924
 C218 C 0.60787 0.26404 -0.00883
 C219 C 0.69370 0.18514 -0.03870
 C220 C 0.67949 0.13908 -0.02592
 C221 C 0.58610 0.19267 0.00992
 O222 O 0.54264 0.26877 0.02038
 H223 H 0.76028 0.16154 -0.06982
 H224 H 0.73374 0.07092 -0.04604
 C225 C -0.47821 0.17169 0.58046
 C226 C -0.54700 0.27168 0.64725
 C227 C -0.49444 0.28320 0.64782
 C228 C -0.39720 0.18888 0.58197
 O229 O -0.38767 0.12142 0.54074
 H230 H -0.62600 0.32904 0.69111
 H231 H -0.52479 0.35216 0.69378
 C232 C 0.40268 -0.08582 0.44560
 C233 C 0.46892 -0.17479 0.36131
 C234 C 0.41461 -0.18102 0.35650
 C235 C 0.31894 -0.09542 0.43821
 O236 O 0.31159 -0.03744 0.49259
 H237 H 0.54678 -0.22680 0.30850
 H238 H 0.44139 -0.23986 0.29941
 C239 C -0.10758 0.56418 1.41272
 C240 C -0.19642 0.60628 1.44414
 C241 C -0.19425 0.60066 1.38268
 C242 C -0.10352 0.55408 1.31805
 O243 O -0.05088 0.53147 1.33599
 H244 H -0.25624 0.63911 1.50527
 H245 H -0.25171 0.62738 1.38479
 C246 C 0.07575 0.51014 0.63883
 C247 C 0.14994 0.49501 0.61924
 C248 C 0.15812 0.48906 0.67267
 C249 C 0.08932 0.49945 0.71956
 O250 O 0.03923 0.51238 0.69923
 H251 H 0.19252 0.48936 0.57197
 H252 H 0.20966 0.47603 0.67545
   
