data_POSCAR
  _audit_creation_date              2014-09-24
  _audit_creation_method            'ToBaCCo'
  _symmetry_space_group_name_H-M    'P1'
  _symmetry_Int_Tables_number       1
  _symmetry_cell_setting            triclinic
  loop_
  _symmetry_equiv_pos_as_xyz
 x,y,z
_cell_length_a 27.9940
_cell_length_b 27.9981
_cell_length_c 45.7553
_cell_angle_alpha 89.893500
_cell_angle_beta 90.561800
_cell_angle_gamma 90.043400
loop_
  _atom_site_label
  _atom_site_type_symbol
  _atom_site_fract_x
  _atom_site_fract_y
  _atom_site_fract_z
O1 O 0.03865 0.54672 1.02827
 O2 O 0.03930 0.45358 0.97145
 O3 O 0.03996 0.54672 0.97145
 O4 O 0.03933 0.45362 1.02826
 O5 O -0.03946 0.45338 1.02745
 O6 O -0.03875 0.54686 0.97062
 O7 O -0.03949 0.45373 0.97064
 O8 O -0.04014 0.54649 1.02745
 Cu9 Cu 0.04719 0.50018 0.99993
 Cu10 Cu -0.04734 0.50012 0.99895
 C11 C -0.00092 0.56266 1.03753
 C12 C -0.00005 0.43754 0.96141
 C13 C 0.00078 0.56302 0.96133
 C14 C -0.00012 0.43735 1.03750
 O15 O 0.54808 -0.03739 0.52880
 O16 O 0.45313 -0.03747 0.47242
 O17 O 0.54624 -0.03816 0.47198
 O18 O 0.45495 -0.03813 0.52924
 O19 O 0.45481 0.04064 0.52915
 O20 O 0.54649 0.04061 0.47186
 O21 O 0.45337 0.04130 0.47231
 O22 O 0.54795 0.04131 0.52869
 Cu23 Cu 0.50060 -0.04567 0.50063
 Cu24 Cu 0.50066 0.04885 0.50050
 C25 C 0.56452 0.00203 0.53836
 C26 C 0.43687 0.00197 0.46279
 C27 C 0.56219 0.00116 0.46219
 C28 C 0.43904 0.00120 0.53892
 C29 C 0.09442 0.00392 0.26229
 H30 H 0.09716 0.00452 0.23872
 C31 C 0.13575 0.00504 0.27965
 H32 H 0.17051 0.00640 0.26947
 C33 C 0.04585 0.00163 0.30446
 H34 H 0.01083 0.00096 0.31410
 C35 C 0.08624 0.00275 0.32259
 H36 H 0.08214 0.00243 0.34611
 N37 N 0.05061 0.00143 0.27487
 C38 C -0.04198 -0.06588 0.20956
 H39 H -0.07105 -0.04045 0.20875
 C40 C -0.04339 -0.10646 0.19186
 H41 H -0.07354 -0.11231 0.17728
 C42 C 0.03298 -0.08937 0.22945
 H43 H 0.06244 -0.08293 0.24432
 C44 C 0.03297 -0.13041 0.21213
 H45 H 0.06267 -0.15513 0.21350
 Zn46 Zn -0.00385 -0.00086 0.24997
 N47 N -0.00376 -0.05764 0.22747
 C48 C -0.00163 0.04851 0.19562
 N49 N -0.00173 0.05345 0.22522
 C50 C 0.00077 0.09733 0.23793
 C51 C 0.00184 0.13855 0.22068
 C52 C -0.00056 0.08878 0.17760
 C53 C -0.06859 -0.03889 0.29006
 C54 C -0.10906 -0.04027 0.30766
 C55 C -0.13322 0.03598 0.28760
 C56 C -0.09229 0.03597 0.27038
 N57 N -0.06050 -0.00072 0.27231
 H58 H -0.00231 0.01343 0.18589
 H59 H 0.00146 0.10021 0.26150
 H60 H 0.00324 0.17336 0.23095
 H61 H -0.00094 0.08454 0.15406
 H62 H -0.04312 -0.06792 0.29083
 H63 H -0.11478 -0.07037 0.32212
 H64 H -0.15798 0.06564 0.28628
 H65 H -0.08596 0.06538 0.25563
 C66 C -0.00535 -0.13878 0.19300
 C67 C 0.13157 0.00414 0.31007
 C68 C -0.14143 -0.00228 0.30658
 C69 C 0.00087 0.13418 0.19024
 C70 C -0.00100 0.09737 0.76186
 H71 H -0.00167 0.10025 0.73828
 C72 C -0.00207 0.13860 0.77901
 H73 H -0.00345 0.17341 0.76865
 C74 C 0.00135 0.04857 0.80428
 H75 H 0.00203 0.01350 0.81410
 C76 C 0.00029 0.08885 0.82221
 H77 H 0.00066 0.08462 0.84575
 N78 N 0.00147 0.05351 0.77467
 C79 C 0.06840 -0.03870 0.71006
 H80 H 0.04289 -0.06773 0.70928
 C81 C 0.10897 -0.04007 0.69255
 H82 H 0.11473 -0.07015 0.67815
 C83 C 0.09213 0.03610 0.72967
 H84 H 0.08579 0.06548 0.74437
 C85 C 0.13316 0.03613 0.71254
 H86 H 0.15798 0.06577 0.71388
 Zn87 Zn 0.00359 -0.00079 0.75004
 N88 N 0.06029 -0.00058 0.72774
 C89 C -0.04607 0.00169 0.69552
 N90 N -0.05084 0.00148 0.72510
 C91 C -0.09464 0.00395 0.73768
 C92 C -0.13598 0.00506 0.72032
 C93 C -0.08645 0.00279 0.67738
 C94 C 0.04160 -0.06585 0.79059
 C95 C 0.04298 -0.10651 0.80830
 C96 C -0.03331 -0.13051 0.78797
 C97 C -0.03330 -0.08939 0.77064
 N98 N 0.00342 -0.05760 0.77263
 H99 H -0.01104 0.00102 0.68588
 H100 H -0.09739 0.00455 0.76124
 H101 H -0.17073 0.00640 0.73049
 H102 H -0.08236 0.00247 0.65386
 H103 H 0.07066 -0.04037 0.79140
 H104 H 0.07312 -0.11239 0.82290
 H105 H -0.06299 -0.15530 0.78658
 H106 H -0.06273 -0.08294 0.75574
 C107 C 0.14142 -0.00210 0.69364
 C108 C -0.00111 0.13425 0.80946
 C109 C 0.00498 -0.13892 0.80714
 C110 C -0.13179 0.00416 0.68989
 C111 C -0.04554 -0.34421 0.09075
 C112 C -0.00259 -0.32510 0.10140
 C113 C 0.04096 -0.34327 0.09159
 C114 C 0.04159 -0.38015 0.07102
 C115 C -0.00142 -0.39930 0.05997
 C116 C -0.04501 -0.38107 0.07019
 C117 C -0.00327 -0.28609 0.12183
 C118 C -0.00392 -0.25299 0.13863
 C119 C -0.00466 -0.21374 0.15793
 C120 C -0.00513 -0.17981 0.17410
 H121 H -0.07945 -0.33035 0.09816
 H122 H 0.07442 -0.32867 0.09965
 H123 H 0.07573 -0.39337 0.06361
 H124 H -0.07874 -0.39499 0.06214
 C125 C 0.04327 0.34329 0.09123
 C126 C 0.00009 0.32388 0.10082
 C127 C -0.04322 0.34227 0.09022
 C128 C -0.04339 0.37961 0.06988
 C129 C -0.00014 0.39900 0.05984
 C130 C 0.04321 0.38061 0.07089
 C131 C 0.00031 0.28425 0.12090
 C132 C 0.00059 0.25057 0.13735
 C133 C 0.00091 0.21060 0.15619
 C134 C 0.00103 0.17601 0.17191
 H135 H 0.07700 0.32926 0.09925
 H136 H -0.07686 0.32744 0.09747
 H137 H -0.07735 0.39294 0.06180
 H138 H 0.07712 0.39471 0.06363
 C139 C 0.34669 -0.04282 0.59275
 C140 C 0.32765 0.00022 0.60283
 C141 C 0.34572 0.04365 0.59251
 C142 C 0.38239 0.04407 0.57197
 C143 C 0.40141 0.00095 0.56145
 C144 C 0.38333 -0.04251 0.57221
 C145 C 0.28873 -0.00026 0.62315
 C146 C 0.25566 -0.00079 0.63982
 C147 C 0.21642 -0.00144 0.65895
 C148 C 0.18247 -0.00187 0.67495
 H149 H 0.33291 -0.07665 0.60055
 H150 H 0.33117 0.07719 0.60014
 H151 H 0.39548 0.07811 0.56413
 H152 H 0.39717 -0.07632 0.56457
 C153 C -0.34187 0.04593 0.59020
 C154 C -0.32255 0.00288 0.60035
 C155 C -0.34138 -0.04050 0.59040
 C156 C -0.37909 -0.04091 0.57013
 C157 C -0.39856 0.00225 0.55942
 C158 C -0.37956 0.04571 0.56994
 C159 C -0.28260 0.00327 0.62040
 C160 C -0.24869 0.00368 0.63684
 C161 C -0.20850 0.00410 0.65570
 C162 C -0.17376 0.00429 0.67147
 H163 H -0.32750 0.07972 0.59774
 H164 H -0.32662 -0.07405 0.59811
 H165 H -0.39260 -0.07510 0.56270
 H166 H -0.39343 0.07970 0.56236
 C167 C -0.04116 -0.34452 0.90827
 C168 C 0.00235 -0.32605 0.89856
 C169 C 0.04528 -0.34502 0.90926
 C170 C 0.04483 -0.38203 0.92979
 C171 C 0.00124 -0.40069 0.94004
 C172 C -0.04180 -0.38156 0.92881
 C173 C 0.00298 -0.28685 0.87817
 C174 C 0.00361 -0.25359 0.86141
 C175 C 0.00432 -0.21417 0.84215
 C176 C 0.00477 -0.18009 0.82602
 H177 H -0.07462 -0.33003 0.90013
 H178 H 0.07917 -0.33093 0.90191
 H179 H 0.07874 -0.39566 0.93778
 H180 H -0.07608 -0.39482 0.93603
 C181 C 0.04303 0.34256 0.90887
 C182 C -0.00029 0.32412 0.89831
 C183 C -0.04346 0.34349 0.90785
 C184 C -0.04339 0.38082 0.92810
 C185 C -0.00004 0.39926 0.93912
 C186 C 0.04321 0.37991 0.92913
 C187 C -0.00051 0.28444 0.87836
 C188 C -0.00081 0.25072 0.86201
 C189 C -0.00113 0.21071 0.84330
 C190 C -0.00127 0.17610 0.82767
 H191 H 0.07667 0.32776 0.90167
 H192 H -0.07720 0.32943 0.89986
 H193 H -0.07729 0.39489 0.93533
 H194 H 0.07717 0.39327 0.93718
 C195 C -0.34581 -0.04292 0.40830
 C196 C -0.32681 0.00012 0.39803
 C197 C -0.34475 0.04356 0.40827
 C198 C -0.38127 0.04400 0.42892
 C199 C -0.40027 0.00089 0.43961
 C200 C -0.38230 -0.04259 0.42893
 C201 C -0.28807 -0.00038 0.37758
 C202 C -0.25517 -0.00093 0.36079
 C203 C -0.21612 -0.00159 0.34152
 C204 C -0.18232 -0.00203 0.32540
 H205 H -0.33212 -0.07675 0.40056
 H206 H -0.33022 0.07709 0.40051
 H207 H -0.39428 0.07805 0.43669
 H208 H -0.39612 -0.07639 0.43670
 C209 C 0.34171 0.04590 0.40969
 C210 C 0.32218 0.00283 0.39972
 C211 C 0.34078 -0.04058 0.40989
 C212 C 0.37848 -0.04095 0.43017
 C213 C 0.39804 0.00218 0.44057
 C214 C 0.37939 0.04563 0.42997
 C215 C 0.28228 0.00324 0.37965
 C216 C 0.24841 0.00365 0.36318
 C217 C 0.20825 0.00408 0.34429
 C218 C 0.17353 0.00427 0.32850
 H219 H 0.32753 0.07971 0.40200
 H220 H 0.32586 -0.07413 0.40235
 H221 H 0.39199 -0.07499 0.43790
 H222 H 0.39361 0.07946 0.43752
   
