data_POSCAR
  _audit_creation_date              2014-09-24
  _audit_creation_method            'ToBaCCo'
  _symmetry_space_group_name_H-M    'P1'
  _symmetry_Int_Tables_number       1
  _symmetry_cell_setting            triclinic
  loop_
  _symmetry_equiv_pos_as_xyz
 x,y,z
_cell_length_a 39.5270
_cell_length_b 39.4779
_cell_length_c 50.8310
_cell_angle_alpha 89.915800
_cell_angle_beta 90.020700
_cell_angle_gamma 90.080100
loop_
  _atom_site_label
  _atom_site_type_symbol
  _atom_site_fract_x
  _atom_site_fract_y
  _atom_site_fract_z
C1 C 1.20383 0.25961 0.29112
 H2 H 1.20385 0.23221 0.29159
 C3 C 1.18409 0.27771 0.30900
 H4 H 1.16872 0.26426 0.32324
 C5 C 1.22460 0.31071 0.27251
 H6 H 1.24093 0.32347 0.25864
 C7 C 1.20524 0.32979 0.29007
 H8 H 1.20648 0.35720 0.28950
 N9 N 1.22342 0.27624 0.27327
 C10 C 1.24086 0.20304 0.21053
 H11 H 1.26823 0.20304 0.21012
 C12 C 1.22272 0.18383 0.19229
 H13 H 1.23612 0.16886 0.17781
 C14 C 1.18989 0.22345 0.22932
 H15 H 1.17719 0.23949 0.24338
 C16 C 1.17077 0.20461 0.21139
 H17 H 1.14341 0.20597 0.21186
 Zn18 Zn 1.25105 0.24955 0.25107
 N19 N 1.22430 0.22224 0.22862
 C20 C 1.27723 0.18795 0.27213
 N21 N 1.27840 0.22239 0.27322
 C22 C 1.29775 0.23869 0.29138
 C23 C 1.31724 0.22027 0.30928
 C24 C 1.29632 0.16851 0.28969
 C25 C 1.26172 0.29695 0.21115
 C26 C 1.28005 0.31675 0.19337
 C27 C 1.33180 0.29567 0.21270
 C28 C 1.31249 0.27625 0.23015
 N29 N 1.27808 0.27735 0.22914
 H30 H 1.26108 0.17547 0.25800
 H31 H 1.29773 0.26608 0.29208
 H32 H 1.33239 0.23362 0.32373
 H33 H 1.29498 0.14110 0.28877
 H34 H 1.23436 0.29688 0.21048
 H35 H 1.26682 0.33209 0.17900
 H36 H 1.35916 0.29445 0.21344
 H37 H 1.32503 0.25990 0.24412
 C38 C 1.18737 0.18473 0.19267
 C39 C 1.18488 0.31312 0.30851
 C40 C 1.31540 0.31601 0.19411
 C41 C 1.31647 0.18483 0.30849
 C42 C 0.70282 -0.23942 0.29007
 H43 H 0.70279 -0.26682 0.29060
 C44 C 0.68310 -0.22121 0.30788
 H45 H 0.66768 -0.23457 0.32215
 C46 C 0.72374 -0.18843 0.27138
 H47 H 0.74015 -0.17575 0.25751
 C48 C 0.70440 -0.16924 0.28886
 H49 H 0.70572 -0.14184 0.28825
 N50 N 0.72248 -0.22289 0.27221
 C51 C 0.74038 -0.29621 0.20976
 H52 H 0.76775 -0.29595 0.20939
 C53 C 0.72248 -0.31576 0.19162
 H54 H 0.73605 -0.33074 0.17724
 C55 C 0.68917 -0.27618 0.22842
 H56 H 0.67630 -0.26019 0.24242
 C57 C 0.67028 -0.29537 0.21059
 H58 H 0.64290 -0.29433 0.21104
 Zn59 Zn 0.75017 -0.24965 0.25019
 N60 N 0.72360 -0.27707 0.22775
 C61 C 0.77615 -0.31115 0.27139
 N62 N 0.77741 -0.27671 0.27243
 C63 C 0.79673 -0.26042 0.29062
 C64 C 0.81610 -0.27887 0.30856
 C65 C 0.79513 -0.33058 0.28900
 C66 C 0.76083 -0.20250 0.21019
 C67 C 0.77914 -0.18264 0.19245
 C68 C 0.83090 -0.20329 0.21205
 C69 C 0.81161 -0.22278 0.22945
 N70 N 0.77721 -0.22191 0.22828
 H71 H 0.76001 -0.32364 0.25725
 H72 H 0.79677 -0.23302 0.29130
 H73 H 0.83126 -0.26570 0.32308
 H74 H 0.79382 -0.35797 0.28822
 H75 H 0.73348 -0.20276 0.20941
 H76 H 0.76590 -0.16743 0.17800
 H77 H 0.85827 -0.20430 0.21292
 H78 H 0.82416 -0.23898 0.24353
 C79 C 0.68712 -0.31525 0.19200
 C80 C 0.68398 -0.18581 0.30730
 C81 C 0.81448 -0.18312 0.19336
 C82 C 0.81521 -0.31426 0.30778
 C83 C 0.70292 0.26093 -0.21060
 H84 H 0.70296 0.23354 -0.20999
 C85 C 0.68331 0.27916 -0.19272
 H86 H 0.66807 0.26580 -0.17833
 C87 C 0.72347 0.31189 -0.22957
 H88 H 0.73968 0.32456 -0.24359
 C89 C 0.70423 0.33111 -0.21201
 H90 H 0.70544 0.35851 -0.21272
 N91 N 0.72234 0.27743 -0.22864
 C92 C 0.73931 0.20344 -0.29093
 H93 H 0.76667 0.20352 -0.29154
 C94 C 0.72103 0.18373 -0.30877
 H95 H 0.73430 0.16846 -0.32312
 C96 C 0.68848 0.22399 -0.27200
 H97 H 0.67589 0.24023 -0.25802
 C98 C 0.66923 0.20465 -0.28951
 H99 H 0.64186 0.20583 -0.28880
 Zn100 Zn 0.74983 0.25050 -0.25078
 N101 N 0.72290 0.22292 -0.27294
 C102 C 0.77605 0.18910 -0.22938
 N103 N 0.77730 0.22356 -0.22853
 C104 C 0.79678 0.24001 -0.21054
 C105 C 0.81634 0.22172 -0.19260
 C106 C 0.79521 0.16984 -0.21175
 C107 C 0.76042 0.29755 -0.29102
 C108 C 0.77872 0.31720 -0.30893
 C109 C 0.83052 0.29614 -0.28959
 C110 C 0.81120 0.27690 -0.27203
 N111 N 0.77680 0.27806 -0.27298
 H112 H 0.75980 0.17649 -0.24337
 H113 H 0.79684 0.26740 -0.21000
 H114 H 0.83164 0.23502 -0.17824
 H115 H 0.79390 0.14244 -0.21239
 H116 H 0.73306 0.29753 -0.29162
 H117 H 0.76531 0.33244 -0.32330
 H118 H 0.85789 0.29479 -0.28877
 H119 H 0.82375 0.26063 -0.25800
 C120 C 0.68567 0.18441 -0.30808
 C121 C 0.68404 0.31456 -0.19339
 C122 C 0.81412 0.31642 -0.30827
 C123 C 0.81547 0.18632 -0.19317
 C124 C 1.20245 -0.23961 -0.20965
 H125 H 1.20238 -0.26701 -0.20909
 C126 C 1.18287 -0.22134 -0.19179
 H127 H 1.16751 -0.23465 -0.17745
 C128 C 1.22334 -0.18869 -0.22848
 H129 H 1.23968 -0.17606 -0.24242
 C130 C 1.20414 -0.16944 -0.21095
 H131 H 1.20550 -0.14204 -0.21160
 N132 N 1.22202 -0.22314 -0.22760
 C133 C 1.23929 -0.29652 -0.29006
 H134 H 1.26666 -0.29635 -0.29056
 C135 C 1.22119 -0.31596 -0.30816
 H136 H 1.23461 -0.33093 -0.32263
 C137 C 1.18829 -0.27635 -0.27116
 H138 H 1.17557 -0.26033 -0.25710
 C139 C 1.16920 -0.29541 -0.28894
 H140 H 1.14183 -0.29425 -0.28839
 Zn141 Zn 1.24949 -0.24996 -0.24972
 N142 N 1.22270 -0.27735 -0.27199
 C143 C 1.27558 -0.31145 -0.22863
 N144 N 1.27686 -0.27700 -0.22762
 C145 C 1.29634 -0.26069 -0.20955
 C146 C 1.31590 -0.27912 -0.19171
 C147 C 1.29475 -0.33085 -0.21112
 C148 C 1.25989 -0.20289 -0.28980
 C149 C 1.27810 -0.18310 -0.30764
 C150 C 1.32997 -0.20385 -0.28829
 C151 C 1.31079 -0.22327 -0.27078
 N152 N 1.27638 -0.22231 -0.27177
 H153 H 1.25931 -0.32395 -0.24267
 H154 H 1.29639 -0.23330 -0.20889
 H155 H 1.33120 -0.26593 -0.17730
 H156 H 1.29344 -0.35824 -0.21189
 H157 H 1.23253 -0.20309 -0.29044
 H158 H 1.26477 -0.16788 -0.32205
 H159 H 1.35734 -0.20493 -0.28757
 H160 H 1.32342 -0.23949 -0.25677
 C161 C 1.18585 -0.31529 -0.30764
 C162 C 1.18381 -0.18595 -0.19241
 C163 C 1.31344 -0.18367 -0.30691
 C164 C 1.31502 -0.31450 -0.19249
 C165 C 0.26073 0.20239 0.71011
 H166 H 0.23337 0.20235 0.70956
 C167 C 0.27896 0.18293 0.69212
 H168 H 0.26564 0.16772 0.67772
 C169 C 0.31162 0.22303 0.72901
 H170 H 0.32424 0.23923 0.74303
 C171 C 0.33082 0.20395 0.71135
 H172 H 0.35819 0.20525 0.71200
 N173 N 0.27720 0.22178 0.72815
 C174 C 0.20357 0.23836 0.79065
 H175 H 0.20365 0.26575 0.79129
 C176 C 0.18393 0.21999 0.80850
 H177 H 0.16874 0.23331 0.82290
 C178 C 0.22404 0.18755 0.77157
 H179 H 0.24021 0.17502 0.75751
 C180 C 0.20478 0.16818 0.78908
 H181 H 0.20601 0.14078 0.78827
 Zn182 Zn 0.25032 0.24908 0.75041
 N183 N 0.22294 0.22199 0.77258
 C184 C 0.18885 0.27525 0.72936
 N185 N 0.22325 0.27660 0.72836
 C186 C 0.23953 0.29625 0.71034
 C187 C 0.22112 0.31589 0.69254
 C188 C 0.16946 0.29451 0.71188
 C189 C 0.29738 0.25952 0.79053
 C190 C 0.31696 0.27780 0.80844
 C191 C 0.29576 0.32969 0.78931
 C192 C 0.27655 0.31043 0.77172
 N193 N 0.27783 0.27598 0.77257
 H194 H 0.17637 0.25886 0.74334
 H195 H 0.26689 0.29636 0.70968
 H196 H 0.23428 0.33131 0.67817
 H197 H 0.14210 0.29313 0.71263
 H198 H 0.29744 0.23212 0.79106
 H199 H 0.33229 0.26449 0.82278
 H200 H 0.29441 0.35708 0.78869
 H201 H 0.26025 0.32304 0.75777
 C202 C 0.18460 0.18458 0.80775
 C203 C 0.31431 0.18381 0.69272
 C204 C 0.31605 0.31319 0.80786
 C205 C 0.18577 0.31493 0.69329
 C206 C 0.76010 0.70319 0.70998
 H207 H 0.73274 0.70306 0.70938
 C208 C 0.77845 0.68378 0.69204
 H209 H 0.76523 0.66850 0.67763
 C210 C 0.81085 0.72404 0.72896
 H211 H 0.82338 0.74029 0.74299
 C212 C 0.83018 0.70500 0.71135
 H213 H 0.85754 0.70640 0.71204
 N214 N 0.77644 0.72266 0.72804
 C215 C 0.70260 0.73915 0.79048
 H216 H 0.70261 0.76654 0.79109
 C217 C 0.68301 0.72077 0.80836
 H218 H 0.66778 0.73408 0.82274
 C219 C 0.72322 0.68837 0.77147
 H220 H 0.73944 0.67585 0.75744
 C221 C 0.70402 0.66898 0.78902
 H222 H 0.70533 0.64158 0.78824
 Zn223 Zn 0.74943 0.74995 0.75027
 N224 N 0.72204 0.72281 0.77243
 C225 C 0.68795 0.77592 0.72903
 N226 N 0.72235 0.77740 0.72812
 C227 C 0.73863 0.79705 0.71010
 C228 C 0.72020 0.81653 0.69219
 C229 C 0.66855 0.79501 0.71144
 C230 C 0.79634 0.76046 0.79048
 C231 C 0.81598 0.77873 0.80837
 C232 C 0.79500 0.83063 0.78910
 C233 C 0.77574 0.81137 0.77154
 N234 N 0.77688 0.77692 0.77246
 H235 H 0.67548 0.75953 0.74303
 H236 H 0.76599 0.79727 0.70951
 H237 H 0.73337 0.83194 0.67781
 H238 H 0.64120 0.79350 0.71212
 H239 H 0.79631 0.73306 0.79107
 H240 H 0.83124 0.76541 0.82274
 H241 H 0.79378 0.85802 0.78841
 H242 H 0.75951 0.82399 0.75754
 C243 C 0.68378 0.68535 0.80767
 C244 C 0.81380 0.68476 0.69270
 C245 C 0.81523 0.81413 0.80770
 C246 C 0.68485 0.81541 0.69282
 C247 C 0.76107 0.20293 0.20961
 H248 H 0.73371 0.20275 0.20895
 C249 C 0.77953 0.18360 0.19169
 H250 H 0.76640 0.16832 0.17723
 C251 C 0.81172 0.22387 0.22871
 H252 H 0.82416 0.24015 0.24277
 C253 C 0.83114 0.20492 0.21113
 H254 H 0.85850 0.20640 0.21187
 N255 N 0.77732 0.22241 0.22772
 C256 C 0.70333 0.23896 0.28992
 H257 H 0.70346 0.26635 0.29057
 C258 C 0.68360 0.22062 0.30771
 H259 H 0.66836 0.23387 0.32210
 C260 C 0.72379 0.18812 0.27088
 H261 H 0.74000 0.17556 0.25686
 C262 C 0.70443 0.16880 0.28835
 H263 H 0.70555 0.14140 0.28759
 Zn264 Zn 0.75026 0.24964 0.24986
 N265 N 0.72276 0.22256 0.27190
 C266 C 0.68895 0.27578 0.22858
 N267 N 0.72335 0.27716 0.22773
 C268 C 0.73975 0.29684 0.20980
 C269 C 0.72145 0.31651 0.19196
 C270 C 0.66967 0.29505 0.21106
 C271 C 0.79698 0.25997 0.29016
 C272 C 0.81660 0.27819 0.30808
 C273 C 0.79577 0.33015 0.28881
 C274 C 0.77653 0.31095 0.27121
 N275 N 0.77762 0.27650 0.27212
 H276 H 0.67638 0.25934 0.24250
 H277 H 0.76711 0.29697 0.20926
 H278 H 0.73470 0.33198 0.17766
 H279 H 0.64231 0.29365 0.21169
 H280 H 0.79690 0.23258 0.29072
 H281 H 0.83179 0.26483 0.32248
 H282 H 0.79459 0.35755 0.28814
 H283 H 0.76036 0.32362 0.25719
 C284 C 0.68423 0.18523 0.30694
 C285 C 0.81487 0.18470 0.19243
 C286 C 0.81590 0.31358 0.30742
 C287 C 0.68610 0.31553 0.19257
 C288 C 0.26143 0.70388 0.21029
 H289 H 0.23407 0.70374 0.20974
 C290 C 0.27973 0.68469 0.19217
 H291 H 0.26647 0.66960 0.17766
 C292 C 0.31223 0.72457 0.22929
 H293 H 0.32479 0.74069 0.24339
 C294 C 0.33151 0.70576 0.21149
 H295 H 0.35887 0.70721 0.21211
 N296 N 0.27782 0.72320 0.22842
 C297 C 0.20385 0.73941 0.29086
 H298 H 0.20384 0.76680 0.29156
 C299 C 0.18420 0.72092 0.30864
 H300 H 0.16890 0.73406 0.32304
 C301 C 0.22453 0.68872 0.27174
 H302 H 0.24079 0.67627 0.25769
 C303 C 0.20526 0.66926 0.28919
 H304 H 0.20650 0.64187 0.28837
 Zn305 Zn 0.25079 0.75041 0.25072
 N306 N 0.22335 0.72317 0.27280
 C307 C 0.18934 0.77650 0.22946
 N308 N 0.22374 0.77796 0.22860
 C309 C 0.24006 0.79767 0.21064
 C310 C 0.22169 0.81721 0.19274
 C311 C 0.16999 0.79566 0.21188
 C312 C 0.29774 0.76088 0.29097
 C313 C 0.31728 0.77913 0.30894
 C314 C 0.29606 0.83107 0.28982
 C315 C 0.27692 0.81180 0.27219
 N316 N 0.27821 0.77735 0.27300
 H317 H 0.17682 0.76007 0.24340
 H318 H 0.26742 0.79787 0.21009
 H319 H 0.23490 0.83266 0.17841
 H320 H 0.14263 0.79417 0.21251
 H321 H 0.29782 0.73348 0.29146
 H322 H 0.33256 0.76565 0.32324
 H323 H 0.29461 0.85848 0.28912
 H324 H 0.26064 0.82441 0.25822
 C325 C 0.18498 0.68553 0.30783
 C326 C 0.31509 0.68574 0.19272
 C327 C 0.31638 0.81458 0.30843
 C328 C 0.18634 0.81612 0.19332
 O329 O 1.06515 0.03968 0.01781
 O330 O 0.93582 -0.03837 0.01822
 O331 O 0.96165 0.06525 0.01774
 O332 O 1.03924 -0.06395 0.01865
 O333 O 0.94255 0.01862 0.03245
 O334 O 1.05829 -0.01709 0.03284
 O335 O 0.98242 -0.05702 0.03302
 O336 O 1.01856 0.05883 0.03225
 C337 C 1.04915 0.05466 0.03540
 C338 C 0.95186 -0.05275 0.03613
 C339 C 0.94696 0.04923 0.03552
 C340 C 1.05399 -0.04767 0.03625
 O341 O 1.06470 -0.03914 -0.01784
 O342 O 0.93617 0.03981 -0.01848
 O343 O 1.03988 0.06466 -0.01871
 O344 O 0.96104 -0.06399 -0.01789
 O345 O 0.94253 -0.01728 -0.03276
 O346 O 1.05859 0.01769 -0.03284
 O347 O 1.01790 -0.05781 -0.03232
 O348 O 0.98294 0.05833 -0.03314
 Co349 Co 1.05575 0.00030 -0.00001
 Co350 Co 0.94520 0.00067 -0.00014
 Co351 Co 1.00073 0.05585 -0.00043
 Co352 Co 1.00018 -0.05477 0.00033
 O353 O 1.00047 0.00052 -0.00006
 C354 C 1.04849 -0.05375 -0.03552
 C355 C 0.95233 0.05429 -0.03628
 C356 C 1.05444 0.04827 -0.03629
 C357 C 0.94657 -0.04794 -0.03576
 O358 O 1.06413 0.53846 0.51802
 O359 O 0.93488 0.46006 0.51900
 O360 O 0.96063 0.56374 0.51864
 O361 O 1.03840 0.43478 0.51903
 O362 O 0.94175 0.51705 0.53340
 O363 O 1.05758 0.48168 0.53308
 O364 O 0.98158 0.44137 0.53359
 O365 O 1.01761 0.55730 0.53277
 C366 C 1.04823 0.55327 0.53574
 C367 C 0.95100 0.44552 0.53678
 C368 C 0.94604 0.54768 0.53647
 C369 C 1.05322 0.45112 0.53656
 O370 O 1.06367 0.45962 0.48244
 O371 O 0.93488 0.53840 0.48255
 O372 O 1.03849 0.56339 0.48167
 O373 O 0.96003 0.43466 0.48272
 O374 O 0.94117 0.48140 0.46811
 O375 O 1.05718 0.51647 0.46740
 O376 O 1.01686 0.44080 0.46811
 O377 O 0.98151 0.55685 0.46760
 Co378 Co 1.05469 0.49906 0.50026
 Co379 Co 0.94412 0.49922 0.50074
 Co380 Co 0.99954 0.55440 0.50021
 Co381 Co 0.99923 0.44381 0.50083
 O382 O 0.99940 0.49912 0.50051
 C383 C 1.04744 0.44489 0.46483
 C384 C 0.95088 0.55282 0.46464
 C385 C 1.05302 0.54707 0.46402
 C386 C 0.94545 0.45080 0.46495
 O387 O 0.56335 0.03870 0.51781
 O388 O 0.43432 -0.03958 0.51747
 O389 O 0.45982 0.06411 0.51753
 O390 O 0.53781 -0.06498 0.51788
 O391 O 0.44077 0.01734 0.53197
 O392 O 0.55658 -0.01821 0.53242
 O393 O 0.48093 -0.05835 0.53221
 O394 O 0.51667 0.05760 0.53223
 C395 C 0.54723 0.05336 0.53549
 C396 C 0.45037 -0.05406 0.53533
 C397 C 0.44511 0.04793 0.53521
 C398 C 0.55239 -0.04883 0.53562
 O399 O 0.56328 -0.03972 0.48160
 O400 O 0.43461 0.03886 0.48110
 O401 O 0.53827 0.06402 0.48138
 O402 O 0.45967 -0.06489 0.48127
 O403 O 0.44107 -0.01812 0.46659
 O404 O 0.55702 0.01722 0.46697
 O405 O 0.51658 -0.05838 0.46692
 O406 O 0.48142 0.05771 0.46673
 Co407 Co 0.55413 -0.00050 0.49968
 Co408 Co 0.44361 -0.00038 0.49930
 Co409 Co 0.49903 0.05494 0.49947
 Co410 Co 0.49876 -0.05572 0.49956
 O411 O 0.49888 -0.00041 0.49950
 C412 C 0.54717 -0.05424 0.46381
 C413 C 0.45085 0.05356 0.46344
 C414 C 0.55286 0.04782 0.46370
 C415 C 0.44518 -0.04876 0.46347
 O416 O 0.56515 0.53911 0.01735
 O417 O 0.43604 0.46124 0.01899
 O418 O 0.46171 0.56488 0.01807
 O419 O 0.53952 0.43553 0.01796
 O420 O 0.44295 0.51831 0.03309
 O421 O 0.55866 0.48232 0.03212
 O422 O 0.48291 0.44223 0.03310
 O423 O 0.51876 0.55815 0.03224
 C424 C 0.54937 0.55387 0.03516
 C425 C 0.45241 0.44660 0.03660
 C426 C 0.44715 0.54898 0.03598
 C427 C 0.55436 0.45175 0.03552
 O428 O 0.56424 0.46058 -0.01874
 O429 O 0.43586 0.53931 -0.01791
 O430 O 0.53954 0.56436 -0.01882
 O431 O 0.46054 0.43554 -0.01746
 O432 O 0.44174 0.48223 -0.03210
 O433 O 0.55775 0.51747 -0.03342
 O434 O 0.51721 0.44175 -0.03269
 O435 O 0.48248 0.55793 -0.03287
 Co436 Co 0.55554 0.49989 -0.00062
 Co437 Co 0.44506 0.50025 0.00046
 Co438 Co 0.50060 0.55537 -0.00031
 Co439 Co 0.50008 0.44469 0.00020
 O440 O 0.50032 0.50004 -0.00006
 C441 C 0.54775 0.44589 -0.03623
 C442 C 0.45186 0.55373 -0.03583
 C443 C 0.55377 0.54811 -0.03664
 C444 C 0.44585 0.45159 -0.03519
 C445 C 1.16830 0.16642 0.17318
 C446 C 1.15261 0.15154 0.15644
 C447 C 1.13421 0.13436 0.13598
 C448 C 1.11929 0.10271 0.14075
 C449 C 1.10171 0.08606 0.12064
 C450 C 1.09901 0.10101 0.09570
 C451 C 1.11389 0.13266 0.09098
 C452 C 1.13144 0.14929 0.11105
 C453 C 1.08117 0.08401 0.07485
 C454 C 1.06643 0.07031 0.05702
 H455 H 1.12131 0.09093 0.15995
 H456 H 1.09031 0.06158 0.12451
 H457 H 1.11198 0.14444 0.07177
 H458 H 1.14291 0.17372 0.10713
 C459 C 1.16685 0.66616 0.67301
 C460 C 1.15129 0.65107 0.65634
 C461 C 1.13312 0.63363 0.63592
 C462 C 1.11567 0.60352 0.64144
 C463 C 1.09822 0.58665 0.62138
 C464 C 1.09821 0.59985 0.59578
 C465 C 1.11565 0.62994 0.59030
 C466 C 1.13307 0.64678 0.61031
 C467 C 1.08036 0.58272 0.57503
 C468 C 1.06560 0.56895 0.55726
 H469 H 1.11559 0.59312 0.66117
 H470 H 1.08480 0.56339 0.62582
 H471 H 1.11580 0.64036 0.57056
 H472 H 1.14653 0.67002 0.60583
 C473 C 0.66643 0.16529 0.67300
 C474 C 0.65060 0.14960 0.65679
 C475 C 0.63206 0.13127 0.63699
 C476 C 0.64883 0.10802 0.62081
 C477 C 0.63120 0.09126 0.60082
 C478 C 0.59670 0.09768 0.59692
 C479 C 0.57983 0.12065 0.61329
 C480 C 0.59748 0.13742 0.63328
 C481 C 0.57895 0.08155 0.57560
 C482 C 0.56434 0.06845 0.55744
 H483 H 0.67559 0.10315 0.62344
 H484 H 0.64451 0.07362 0.58823
 H485 H 0.55318 0.12588 0.61040
 H486 H 0.58428 0.15542 0.64563
 C487 C 0.66833 0.66591 0.17269
 C488 C 0.65300 0.65047 0.15607
 C489 C 0.63517 0.63249 0.13574
 C490 C 0.60384 0.61727 0.14100
 C491 C 0.58632 0.60048 0.12095
 C492 C 0.60010 0.59886 0.09558
 C493 C 0.63151 0.61391 0.09038
 C494 C 0.64900 0.63068 0.11041
 C495 C 0.58187 0.58242 0.07468
 C496 C 0.56689 0.56912 0.05681
 H497 H 0.59291 0.61856 0.16052
 H498 H 0.56201 0.58898 0.12516
 H499 H 0.64235 0.61287 0.07083
 H500 H 0.67318 0.64240 0.10612
 C501 C 0.83373 -0.16395 0.17449
 C502 C 0.84952 -0.14824 0.15827
 C503 C 0.86801 -0.12995 0.13843
 C504 C 0.90137 -0.13908 0.13247
 C505 C 0.91879 -0.12238 0.11231
 C506 C 0.90291 -0.09649 0.09804
 C507 C 0.86969 -0.08710 0.10422
 C508 C 0.85227 -0.10380 0.12437
 C509 C 0.92028 -0.08045 0.07650
 C510 C 0.93473 -0.06752 0.05819
 H511 H 0.91373 -0.15935 0.14315
 H512 H 0.94444 -0.12991 0.10764
 H513 H 0.85714 -0.06719 0.09325
 H514 H 0.82643 -0.09664 0.12876
 C515 C 0.83165 0.33367 0.67447
 C516 C 0.84760 0.34929 0.65825
 C517 C 0.86633 0.36751 0.63847
 C518 C 0.89939 0.35768 0.63214
 C519 C 0.91705 0.37443 0.61213
 C520 C 0.90174 0.40109 0.59835
 C521 C 0.86882 0.41116 0.60487
 C522 C 0.85115 0.39441 0.62489
 C523 C 0.91935 0.41730 0.57697
 C524 C 0.93390 0.43043 0.55876
 H525 H 0.91133 0.33684 0.64246
 H526 H 0.94245 0.36635 0.60719
 H527 H 0.85669 0.43167 0.59430
 H528 H 0.82557 0.40215 0.62956
 C529 C 0.33258 -0.16459 0.67411
 C530 C 0.34829 -0.14897 0.65780
 C531 C 0.36669 -0.13081 0.63786
 C532 C 0.35058 -0.10541 0.62324
 C533 C 0.36794 -0.08884 0.60299
 C534 C 0.40147 -0.09764 0.59729
 C535 C 0.41770 -0.12277 0.61211
 C536 C 0.40034 -0.13933 0.63236
 C537 C 0.41882 -0.08171 0.57571
 C538 C 0.43325 -0.06884 0.55737
 H539 H 0.32452 -0.09872 0.62727
 H540 H 0.35513 -0.06952 0.59159
 H541 H 0.44360 -0.12983 0.60780
 H542 H 0.41299 -0.15903 0.64349
 C543 C 0.33468 0.33511 0.17519
 C544 C 0.35052 0.35077 0.15894
 C545 C 0.36905 0.36902 0.13908
 C546 C 0.40227 0.35959 0.13287
 C547 C 0.41970 0.37629 0.11271
 C548 C 0.40399 0.40250 0.09868
 C549 C 0.37092 0.41219 0.10509
 C550 C 0.35349 0.39548 0.12525
 C551 C 0.42133 0.41860 0.07712
 C552 C 0.43563 0.43164 0.05876
 H553 H 0.41450 0.33908 0.14337
 H554 H 0.44522 0.36852 0.10785
 H555 H 0.35849 0.43234 0.09431
 H556 H 0.32778 0.40290 0.12983
 C557 C 0.83451 0.16710 -0.17419
 C558 C 0.85024 0.15137 -0.15792
 C559 C 0.86875 0.13308 -0.13809
 C560 C 0.85432 0.10458 -0.12601
 C561 C 0.87171 0.08769 -0.10593
 C562 C 0.90360 0.09922 -0.09784
 C563 C 0.91818 0.12749 -0.11012
 C564 C 0.90080 0.14438 -0.13019
 C565 C 0.92089 0.08276 -0.07643
 C566 C 0.93529 0.06948 -0.05823
 H567 H 0.82951 0.09569 -0.13190
 H568 H 0.86014 0.06592 -0.09652
 H569 H 0.94278 0.13668 -0.10397
 H570 H 0.91215 0.16645 -0.13933
 C571 C 0.83400 0.66633 0.32677
 C572 C 0.84949 0.65042 0.34304
 C573 C 0.86772 0.63190 0.36288
 C574 C 0.85221 0.60473 0.37595
 C575 C 0.86940 0.58769 0.39605
 C576 C 0.90216 0.59775 0.40314
 C577 C 0.91780 0.62467 0.38987
 C578 C 0.90062 0.64171 0.36978
 C579 C 0.91933 0.58124 0.42456
 C580 C 0.93371 0.56796 0.44275
 H581 H 0.82674 0.59701 0.37082
 H582 H 0.85703 0.56697 0.40624
 H583 H 0.94309 0.63271 0.39525
 H584 H 0.91280 0.66275 0.35986
 C585 C 0.33368 0.16721 0.32568
 C586 C 0.34937 0.15131 0.34188
 C587 C 0.36782 0.13284 0.36164
 C588 C 0.39975 0.14420 0.36975
 C589 C 0.41704 0.12719 0.38981
 C590 C 0.40246 0.09875 0.40185
 C591 C 0.37069 0.08717 0.39355
 C592 C 0.35340 0.10418 0.37348
 C593 C 0.41962 0.08220 0.42328
 C594 C 0.43391 0.06884 0.44149
 H595 H 0.41109 0.16641 0.36081
 H596 H 0.44155 0.13642 0.39614
 H597 H 0.35913 0.06527 0.40278
 H598 H 0.32867 0.09526 0.36742
 C599 C 0.33403 0.66613 -0.17362
 C600 C 0.34972 0.65028 -0.15745
 C601 C 0.36817 0.63186 -0.13769
 C602 C 0.35290 0.60459 -0.12459
 C603 C 0.37026 0.58771 -0.10450
 C604 C 0.40293 0.59806 -0.09745
 C605 C 0.41835 0.62508 -0.11076
 C606 C 0.40100 0.64195 -0.13084
 C607 C 0.42021 0.58178 -0.07599
 C608 C 0.43465 0.56868 -0.05776
 H609 H 0.32748 0.59667 -0.12968
 H610 H 0.35807 0.56692 -0.09427
 H611 H 0.44358 0.63334 -0.10539
 H612 H 0.41299 0.66309 -0.14078
 C613 C 1.16486 -0.16674 -0.17347
 C614 C 1.14925 -0.15101 -0.15722
 C615 C 1.13089 -0.13274 -0.13739
 C616 C 1.14411 -0.10261 -0.12705
 C617 C 1.12698 -0.08570 -0.10691
 C618 C 1.09658 -0.09886 -0.09706
 C619 C 1.08318 -0.12877 -0.10760
 C620 C 1.10031 -0.14568 -0.12773
 C621 C 1.07961 -0.08232 -0.07562
 C622 C 1.06541 -0.06899 -0.05741
 H623 H 1.16781 -0.09245 -0.13433
 H624 H 1.13760 -0.06263 -0.09884
 H625 H 1.05973 -0.13920 -0.10007
 H626 H 1.08993 -0.16902 -0.13553
 C627 C 1.16567 0.33216 0.32743
 C628 C 1.14981 0.34776 0.34364
 C629 C 1.13113 0.36591 0.36341
 C630 C 1.14402 0.39614 0.37381
 C631 C 1.12654 0.41300 0.39381
 C632 C 1.09610 0.39968 0.40349
 C633 C 1.08304 0.36964 0.39289
 C634 C 1.10052 0.35279 0.37290
 C635 C 1.07878 0.41619 0.42481
 C636 C 1.06440 0.42955 0.44295
 H637 H 1.16772 0.40646 0.36668
 H638 H 1.13691 0.43616 0.40192
 H639 H 1.05958 0.35906 0.40028
 H640 H 1.09038 0.32937 0.36506
 C641 C 0.66485 -0.16666 0.32618
 C642 C 0.64907 -0.15098 0.34237
 C643 C 0.63051 -0.13276 0.36213
 C644 C 0.64375 -0.10282 0.37277
 C645 C 0.62641 -0.08597 0.39284
 C646 C 0.59576 -0.09901 0.40233
 C647 C 0.58234 -0.12874 0.39148
 C648 C 0.59968 -0.14558 0.37142
 C649 C 0.57859 -0.08257 0.42373
 C650 C 0.56424 -0.06935 0.44191
 H651 H 0.66763 -0.09274 0.36578
 H652 H 0.63705 -0.06305 0.40115
 H653 H 0.55870 -0.13908 0.39872
 H654 H 0.58926 -0.16877 0.36339
 C655 C 0.66494 0.33371 -0.17445
 C656 C 0.64914 0.34931 -0.15820
 C657 C 0.63051 0.36740 -0.13836
 C658 C 0.64322 0.39783 -0.12816
 C659 C 0.62585 0.41458 -0.10804
 C660 C 0.59571 0.40097 -0.09805
 C661 C 0.58282 0.37074 -0.10846
 C662 C 0.60018 0.35400 -0.12857
 C663 C 0.57858 0.41736 -0.07657
 C664 C 0.56441 0.43063 -0.05829
 H665 H 0.66671 0.40836 -0.13552
 H666 H 0.63610 0.43787 -0.10008
 H667 H 0.55959 0.35994 -0.10084
 H668 H 0.59019 0.33043 -0.13625
 C669 C 1.16656 0.16629 -0.17435
 C670 C 1.15088 0.15040 -0.15815
 C671 C 1.13258 0.13183 -0.13837
 C672 C 1.14238 0.09880 -0.13177
 C673 C 1.12558 0.08133 -0.11168
 C674 C 1.09892 0.09682 -0.09811
 C675 C 1.08888 0.12971 -0.10492
 C676 C 1.10567 0.14718 -0.12500
 C677 C 1.08270 0.07945 -0.07665
 C678 C 1.06956 0.06511 -0.05836
 H679 H 1.16323 0.08674 -0.14191
 H680 H 1.13363 0.05595 -0.10651
 H681 H 1.06838 0.14197 -0.09449
 H682 H 1.09797 0.17276 -0.12989
 C683 C 1.16585 0.66608 0.32664
 C684 C 1.15011 0.65009 0.34277
 C685 C 1.13171 0.63136 0.36245
 C686 C 1.10443 0.64643 0.37555
 C687 C 1.08749 0.62880 0.39550
 C688 C 1.09776 0.59601 0.40242
 C689 C 1.12480 0.58080 0.38911
 C690 C 1.14173 0.59843 0.36917
 C691 C 1.08140 0.57849 0.42378
 C692 C 1.06818 0.56403 0.44200
 H693 H 1.09653 0.67192 0.37058
 H694 H 1.06671 0.64085 0.40572
 H695 H 1.13303 0.55551 0.39437
 H696 H 1.16285 0.58657 0.35923
 C697 C 0.66509 0.16595 0.32582
 C698 C 0.64937 0.15013 0.34202
 C699 C 0.63103 0.13162 0.36181
 C700 C 0.60460 0.14727 0.37553
 C701 C 0.58778 0.12983 0.39561
 C702 C 0.59732 0.09667 0.40205
 C703 C 0.62349 0.08088 0.38812
 C704 C 0.64032 0.09833 0.36804
 C705 C 0.58108 0.07928 0.42349
 C706 C 0.56794 0.06486 0.44173
 H707 H 0.59730 0.17305 0.37093
 H708 H 0.56764 0.14230 0.40631
 H709 H 0.63114 0.05528 0.39300
 H710 H 0.66080 0.08603 0.35761
 C711 C 0.66577 0.66703 -0.17442
 C712 C 0.65010 0.65109 -0.15823
 C713 C 0.63179 0.63240 -0.13848
 C714 C 0.60499 0.64773 -0.12497
 C715 C 0.58816 0.63013 -0.10496
 C716 C 0.59806 0.59712 -0.09838
 C717 C 0.62462 0.58165 -0.11209
 C718 C 0.64144 0.59926 -0.13210
 C719 C 0.58184 0.57960 -0.07696
 C720 C 0.56876 0.56512 -0.05870
 H721 H 0.59739 0.67339 -0.12969
 H722 H 0.56774 0.64238 -0.09443
 H723 H 0.63256 0.55619 -0.10709
 H724 H 0.66221 0.58720 -0.14235
 C725 C 0.83429 -0.16665 -0.17334
 C726 C 0.84995 -0.15086 -0.15709
 C727 C 0.86825 -0.13235 -0.13727
 C728 C 0.85966 -0.09869 -0.13170
 C729 C 0.87650 -0.08118 -0.11168
 C730 C 0.90198 -0.09725 -0.09714
 C731 C 0.91082 -0.13079 -0.10289
 C732 C 0.89398 -0.14830 -0.12292
 C733 C 0.91827 -0.07972 -0.07578
 C734 C 0.93145 -0.06516 -0.05763
 H735 H 0.83973 -0.08614 -0.14262
 H736 H 0.86940 -0.05528 -0.10734
 H737 H 0.93041 -0.14350 -0.09173
 H738 H 0.90075 -0.17436 -0.12700
 C739 C 0.83485 0.33273 0.32645
 C740 C 0.85037 0.34849 0.34277
 C741 C 0.86845 0.36694 0.36270
 C742 C 0.85950 0.40044 0.36848
 C743 C 0.87606 0.41786 0.38868
 C744 C 0.90161 0.40184 0.40317
 C745 C 0.91082 0.36847 0.39720
 C746 C 0.89426 0.35105 0.37701
 C747 C 0.91759 0.41925 0.42469
 C748 C 0.93054 0.43371 0.44296
 H749 H 0.83949 0.41292 0.35760
 H750 H 0.86869 0.44363 0.39319
 H751 H 0.93048 0.35582 0.40834
 H752 H 0.90129 0.32511 0.37276
 C753 C 0.33357 -0.16795 0.32573
 C754 C 0.34914 -0.15207 0.34200
 C755 C 0.36732 -0.13343 0.36182
 C756 C 0.35825 -0.09995 0.36759
 C757 C 0.37497 -0.08233 0.38762
 C758 C 0.40082 -0.09810 0.40197
 C759 C 0.41012 -0.13146 0.39602
 C760 C 0.39341 -0.14908 0.37598
 C761 C 0.41699 -0.08048 0.42334
 C762 C 0.43010 -0.06590 0.44152
 H763 H 0.33804 -0.08764 0.35683
 H764 H 0.36749 -0.05658 0.39211
 H765 H 0.43000 -0.14394 0.40704
 H766 H 0.40056 -0.17499 0.37175
 C767 C 0.33493 0.33243 -0.17311
 C768 C 0.35040 0.34829 -0.15680
 C769 C 0.36842 0.36691 -0.13691
 C770 C 0.35927 0.40037 -0.13116
 C771 C 0.37583 0.41797 -0.11105
 C772 C 0.40159 0.40219 -0.09662
 C773 C 0.41097 0.36885 -0.10255
 C774 C 0.39441 0.35125 -0.12266
 C775 C 0.41765 0.41981 -0.07523
 C776 C 0.43072 0.43440 -0.05706
 H777 H 0.33912 0.41268 -0.14200
 H778 H 0.36831 0.44371 -0.10658
 H779 H 0.43079 0.35638 -0.09146
 H780 H 0.40160 0.32535 -0.12689
 C781 C 1.16704 -0.16492 0.17434
 C782 C 1.15125 -0.14926 0.15807
 C783 C 1.13289 -0.13083 0.13822
 C784 C 1.10464 -0.14552 0.12606
 C785 C 1.08770 -0.12820 0.10596
 C786 C 1.09895 -0.09614 0.09794
 C787 C 1.12697 -0.08130 0.11030
 C788 C 1.14391 -0.09861 0.13039
 C789 C 1.08248 -0.07892 0.07649
 C790 C 1.06919 -0.06461 0.05825
 H791 H 1.09596 -0.17046 0.13190
 H792 H 1.06613 -0.13996 0.09648
 H793 H 1.13595 -0.05656 0.10420
 H794 H 1.16578 -0.08706 0.13960
 C795 C 1.16642 0.33400 0.67444
 C796 C 1.15057 0.34972 0.65826
 C797 C 1.13213 0.36818 0.63851
 C798 C 1.10383 0.35351 0.62642
 C799 C 1.08685 0.37082 0.60635
 C800 C 1.09810 0.40286 0.59831
 C801 C 1.12616 0.41771 0.61061
 C802 C 1.14314 0.40040 0.63067
 C803 C 1.08166 0.42001 0.57685
 C804 C 1.06839 0.43426 0.55858
 H805 H 1.09517 0.32856 0.63227
 H806 H 1.06524 0.35907 0.59691
 H807 H 1.13513 0.44244 0.60449
 H808 H 1.16506 0.41193 0.63983
 C809 C 0.66550 -0.16573 0.67382
 C810 C 0.64968 -0.15016 0.65753
 C811 C 0.63130 -0.13182 0.63764
 C812 C 0.60255 -0.14621 0.62599
 C813 C 0.58559 -0.12900 0.60584
 C814 C 0.59733 -0.09734 0.59728
 C815 C 0.62586 -0.08280 0.60914
 C816 C 0.64281 -0.10000 0.62927
 C817 C 0.58081 -0.08022 0.57582
 C818 C 0.56753 -0.06590 0.55758
 H819 H 0.59350 -0.17085 0.63225
 H820 H 0.56361 -0.14051 0.59676
 H821 H 0.63521 -0.05837 0.60263
 H822 H 0.66508 -0.08869 0.63809
 C823 C 0.66688 0.33460 0.17365
 C824 C 0.65116 0.35033 0.15742
 C825 C 0.63289 0.36882 0.13759
 C826 C 0.60370 0.35488 0.12629
 C827 C 0.58685 0.37217 0.10614
 C828 C 0.59915 0.40345 0.09724
 C829 C 0.62812 0.41757 0.10876
 C830 C 0.64496 0.40028 0.12890
 C831 C 0.58276 0.42056 0.07575
 C832 C 0.56953 0.43482 0.05749
 H833 H 0.59423 0.33051 0.13282
 H834 H 0.56453 0.36099 0.09732
 H835 H 0.63788 0.44170 0.10197
 H836 H 0.66757 0.41123 0.13745
 C837 C 0.83426 0.16601 0.17344
 C838 C 0.85014 0.15059 0.15716
 C839 C 0.86859 0.13244 0.13730
 C840 C 0.86000 0.09886 0.13141
 C841 C 0.87693 0.08168 0.11131
 C842 C 0.90250 0.09803 0.09702
 C843 C 0.91135 0.13149 0.10310
 C844 C 0.89442 0.14867 0.12321
 C845 C 0.91883 0.08083 0.07560
 C846 C 0.93197 0.06642 0.05740
 H847 H 0.83998 0.08612 0.14212
 H848 H 0.86983 0.05584 0.10671
 H849 H 0.93102 0.14439 0.09212
 H850 H 0.90118 0.17467 0.12755
 C851 C 0.83310 0.66585 0.67374
 C852 C 0.84891 0.65022 0.65753
 C853 C 0.86733 0.63178 0.63778
 C854 C 0.85806 0.59847 0.63158
 C855 C 0.87503 0.58103 0.61163
 C856 C 0.90134 0.59683 0.59778
 C857 C 0.91085 0.63002 0.60416
 C858 C 0.89388 0.64746 0.62412
 C859 C 0.91775 0.57940 0.57647
 C860 C 0.93097 0.56488 0.55834
 H861 H 0.83749 0.58614 0.64195
 H862 H 0.86739 0.55541 0.60680
 H863 H 0.93109 0.64252 0.59353
 H864 H 0.90119 0.67325 0.62870
 C865 C 0.33344 0.16492 0.67367
 C866 C 0.34901 0.14928 0.65732
 C867 C 0.36701 0.13082 0.63737
 C868 C 0.39786 0.14313 0.62767
 C869 C 0.41457 0.12589 0.60747
 C870 C 0.40047 0.09630 0.59690
 C871 C 0.36981 0.08382 0.60679
 C872 C 0.35311 0.10105 0.62697
 C873 C 0.41687 0.07923 0.57541
 C874 C 0.43005 0.06495 0.55717
 H875 H 0.40877 0.16619 0.63551
 H876 H 0.43822 0.13580 0.59991
 H877 H 0.35865 0.06101 0.59871
 H878 H 0.32921 0.09138 0.63426
 C879 C 0.33429 0.66731 0.17342
 C880 C 0.34997 0.65218 0.15683
 C881 C 0.36817 0.63449 0.13653
 C882 C 0.37025 0.64847 0.11123
 C883 C 0.38716 0.63107 0.09125
 C884 C 0.40208 0.59959 0.09643
 C885 C 0.40020 0.58568 0.12178
 C886 C 0.38327 0.60310 0.14180
 C887 C 0.41860 0.58140 0.07555
 C888 C 0.43192 0.56645 0.05768
 H889 H 0.35861 0.67268 0.10692
 H890 H 0.38839 0.64204 0.07171
 H891 H 0.41158 0.56131 0.12600
 H892 H 0.38175 0.59203 0.16127
   
