data_POSCAR
  _audit_creation_date              2014-09-24
  _audit_creation_method            'ToBaCCo'
  _symmetry_space_group_name_H-M    'P1'
  _symmetry_Int_Tables_number       1
  _symmetry_cell_setting            triclinic
  loop_
  _symmetry_equiv_pos_as_xyz
 x,y,z
_cell_length_a 52.8503
_cell_length_b 53.5415
_cell_length_c 52.9509
_cell_angle_alpha 89.934100
_cell_angle_beta 90.008400
_cell_angle_gamma 89.966600
loop_
  _atom_site_label
  _atom_site_type_symbol
  _atom_site_fract_x
  _atom_site_fract_y
  _atom_site_fract_z
C1 C 0.16480 0.18517 0.20100
 C2 C 0.16351 0.20255 0.18116
 C3 C 0.18047 0.20107 0.16131
 C4 C 0.19916 0.18247 0.16120
 C5 C 0.20059 0.16563 0.18086
 C6 C 0.18306 0.16676 0.20069
 C7 C 0.15013 0.18127 0.22212
 N8 N 0.15872 0.16058 0.23455
 C9 C 0.17907 0.15181 0.22140
 C10 C 0.22054 0.14990 0.17592
 N11 N 0.23139 0.15661 0.15353
 C12 C 0.21810 0.17655 0.14442
 C13 C 0.17441 0.21975 0.14451
 N14 N 0.15427 0.23261 0.15372
 C15 C 0.14749 0.22223 0.17615
 H16 H 0.13360 0.19213 0.22707
 H17 H 0.19052 0.13580 0.22634
 H18 H 0.22609 0.13431 0.18767
 H19 H 0.22219 0.18676 0.12728
 H20 H 0.18410 0.22381 0.12697
 H21 H 0.13178 0.22827 0.18776
 C22 C -0.16137 0.81706 0.20198
 C23 C -0.16279 0.79732 0.18467
 C24 C -0.18223 0.79653 0.16717
 C25 C -0.20037 0.81570 0.16661
 C26 C -0.19855 0.83543 0.18328
 C27 C -0.17894 0.83608 0.20113
 C28 C -0.14473 0.82248 0.22116
 N29 N -0.15160 0.84453 0.23211
 C30 C -0.17255 0.85294 0.21964
 C31 C -0.21795 0.85166 0.17785
 N32 N -0.23187 0.84232 0.15831
 C33 C -0.22106 0.82016 0.15147
 C34 C -0.17826 0.77581 0.15228
 N35 N -0.15674 0.76425 0.16016
 C36 C -0.14726 0.77724 0.18004
 H37 H -0.12845 0.81126 0.22612
 H38 H -0.18313 0.86968 0.22401
 H39 H -0.22174 0.86875 0.18803
 H40 H -0.22703 0.80836 0.13602
 H41 H -0.18958 0.77016 0.13624
 H42 H -0.13005 0.77265 0.19013
 C43 C -0.16359 0.18145 -0.20074
 C44 C -0.16510 0.20146 -0.18374
 C45 C -0.18358 0.20165 -0.16523
 C46 C -0.20064 0.18164 -0.16334
 C47 C -0.19871 0.16170 -0.17971
 C48 C -0.18009 0.16163 -0.19858
 C49 C -0.14778 0.17643 -0.22074
 N50 N -0.15412 0.15385 -0.23087
 C51 C -0.17389 0.14471 -0.21710
 C52 C -0.21706 0.14475 -0.17307
 N53 N -0.23045 0.15386 -0.15307
 C54 C -0.22033 0.17657 -0.14712
 C55 C -0.17991 0.22281 -0.15092
 N56 N -0.15948 0.23525 -0.16012
 C57 C -0.15040 0.22237 -0.18028
 H58 H -0.13240 0.18830 -0.22684
 H59 H -0.18385 0.12742 -0.22058
 H60 H -0.22058 0.12736 -0.18282
 H61 H -0.22613 0.18846 -0.13167
 H62 H -0.19060 0.22815 -0.13435
 H63 H -0.13398 0.22755 -0.19131
 C64 C 0.16497 0.81609 -0.20123
 C65 C 0.16571 0.79668 -0.18338
 C66 C 0.18349 0.79716 -0.16419
 C67 C 0.20090 0.81687 -0.16273
 C68 C 0.19985 0.83610 -0.18001
 C69 C 0.18173 0.83574 -0.19934
 C70 C 0.14957 0.82087 -0.22165
 N71 N 0.15637 0.84318 -0.23217
 C72 C 0.17612 0.85228 -0.21838
 C73 C 0.21845 0.85289 -0.17371
 N74 N 0.23121 0.84426 -0.15305
 C75 C 0.22034 0.82211 -0.14629
 C76 C 0.17895 0.77689 -0.14889
 N77 N 0.15883 0.76411 -0.15827
 C78 C 0.15073 0.77599 -0.17949
 H79 H 0.13400 0.80920 -0.22763
 H80 H 0.18633 0.86939 -0.22204
 H81 H 0.22269 0.86972 -0.18418
 H82 H 0.22553 0.81071 -0.13024
 H83 H 0.18925 0.77206 -0.13190
 H84 H 0.13446 0.77060 -0.19064
 C85 C 0.18303 1.16529 0.80098
 C86 C 0.20191 1.16598 0.81959
 C87 C 0.20185 1.18481 0.83746
 C88 C 0.18309 1.20334 0.83677
 C89 C 0.16453 1.20262 0.81847
 C90 C 0.16463 1.18357 0.80028
 C91 C 0.17796 1.14883 0.78172
 N92 N 0.15699 1.15673 0.76896
 C93 C 0.14887 1.17814 0.78035
 C94 C 0.14841 1.22229 0.82296
 N95 N 0.15677 1.23526 0.84352
 C96 C 0.17817 1.22362 0.85190
 C97 C 0.22178 1.18037 0.85359
 N98 N 0.23403 1.15945 0.84579
 C99 C 0.22204 1.15055 0.82497
 H100 H 0.18932 1.13264 0.77718
 H101 H 0.13218 1.18873 0.77533
 H102 H 0.13208 1.22687 0.81156
 H103 H 0.18904 1.22869 0.86842
 H104 H 0.22703 1.19157 0.86977
 H105 H 0.22725 1.13378 0.81482
 C106 C 0.81777 0.83541 0.79652
 C107 C 0.80012 0.83625 0.81624
 C108 C 0.80076 0.81841 0.83510
 C109 C 0.81891 0.79931 0.83430
 C110 C 0.83591 0.79813 0.81455
 C111 C 0.83537 0.81640 0.79550
 C112 C 0.82247 0.85115 0.77659
 N113 N 0.84260 0.84227 0.76319
 C114 C 0.85036 0.82075 0.77470
 C115 C 0.85138 0.77790 0.81891
 N116 N 0.84443 0.76676 0.84106
 C117 C 0.82445 0.77997 0.85046
 C118 C 0.78180 0.82412 0.85195
 N119 N 0.76954 0.84486 0.84359
 C120 C 0.78070 0.85244 0.82178
 H121 H 0.81164 0.86776 0.77229
 H122 H 0.86654 0.80958 0.76934
 H123 H 0.86716 0.77254 0.80711
 H124 H 0.81411 0.77581 0.86757
 H125 H 0.77699 0.81370 0.86881
 H126 H 0.77522 0.86866 0.81086
 C127 C 0.17994 0.83389 1.19958
 C128 C 0.19864 0.83329 1.18080
 C129 C 0.19963 0.81356 1.16399
 C130 C 0.18169 0.79431 1.16553
 C131 C 0.16317 0.79503 1.18399
 C132 C 0.16252 0.81481 1.20132
 C133 C 0.17435 0.85081 1.21829
 N134 N 0.15403 0.84240 1.23173
 C135 C 0.14677 0.82026 1.22123
 C136 C 0.14756 0.77484 1.18016
 N137 N 0.15615 0.76187 1.15987
 C138 C 0.17713 0.77356 1.15089
 C139 C 0.21941 0.81811 1.14770
 N140 N 0.23034 0.84016 1.15418
 C141 C 0.21771 0.84957 1.17440
 H142 H 0.18502 0.86762 1.22206
 H143 H 0.13076 0.80904 1.22696
 H144 H 0.13091 0.77017 1.19110
 H145 H 0.18768 0.76795 1.13431
 H146 H 0.22510 0.80648 1.13198
 H147 H 0.22215 0.86694 1.18385
 C148 C 0.81989 1.16498 1.20130
 C149 C 0.80129 1.16385 1.18247
 C150 C 0.79973 1.18251 1.16449
 C151 C 0.81698 1.20237 1.16490
 C152 C 0.83519 1.20361 1.18363
 C153 C 0.83654 1.18480 1.20208
 C154 C 0.82614 1.14911 1.22071
 N155 N 0.84622 1.15876 1.23361
 C156 C 0.85254 1.18077 1.22220
 C157 C 0.84984 1.22432 1.17874
 N158 N 0.84108 1.23546 1.15737
 C159 C 0.82091 1.22219 1.14887
 C160 C 0.78000 1.17658 1.14864
 N161 N 0.76963 1.15472 1.15657
 C162 C 0.78263 1.14674 1.17719
 H163 H 0.81617 1.13204 1.22517
 H164 H 0.86821 1.19271 1.22731
 H165 H 0.86626 1.23027 1.18936
 H166 H 0.81012 1.22643 1.13202
 H167 H 0.77377 1.18725 1.13241
 H168 H 0.77855 1.12992 1.18779
 O169 O 0.46482 1.04367 1.04627
 O170 O 0.43711 1.02065 1.02238
 C171 C 0.44209 1.03760 1.03915
 O172 O 0.53710 1.04290 0.95748
 O173 O 0.56420 1.01882 0.98105
 C174 C 0.55964 1.03569 0.96405
 O175 O 0.46593 1.04579 0.95867
 O176 O 0.43766 1.02166 0.98070
 C177 C 0.44302 1.03931 0.96478
 O178 O 0.53581 1.04067 1.04929
 O179 O 0.56352 1.01808 1.02499
 C180 C 0.55855 1.03407 1.04271
 Zr181 Zr 0.50034 1.02916 1.03469
 O182 O 0.50245 1.06851 1.03740
 O183 O 0.49894 1.02476 1.07433
 Zr184 Zr 0.50118 1.03112 0.97086
 O185 O 0.50268 1.07040 0.97441
 O186 O 0.49938 1.03332 0.93098
 O187 O 0.47832 1.03529 1.00258
 O188 O 0.52282 1.03442 1.00314
 O189 O 0.53486 0.95319 1.04697
 O190 O 0.56310 0.97654 1.02398
 C191 C 0.55776 0.95976 1.04086
 O192 O 0.46474 0.95443 0.95658
 O193 O 0.43716 0.97896 0.97898
 C194 C 0.44205 0.96158 0.96269
 O195 O 0.53605 0.95611 0.95494
 O196 O 0.56360 0.97729 0.98060
 C197 C 0.55874 0.96188 0.96239
 O198 O 0.46367 0.95176 1.04343
 O199 O 0.43660 0.97714 1.02128
 C200 C 0.44110 0.95899 1.03689
 Zr201 Zr 0.49957 0.96628 1.03304
 O202 O 0.50135 0.92683 1.03435
 O203 O 0.49803 0.96886 1.07283
 Zr204 Zr 0.50039 0.96789 0.96905
 O205 O 0.50287 0.92843 0.96794
 O206 O 0.49794 0.96917 0.92916
 Zr207 Zr 0.46285 0.99909 1.00134
 Zr208 Zr 0.53791 0.99810 1.00229
 O209 O 0.52180 0.96219 1.00120
 O210 O 0.47744 0.96245 1.00061
 O211 O 0.52255 0.99730 1.03897
 O212 O 0.47895 0.99992 0.96502
 O213 O 0.47770 0.99788 1.03812
 O214 O 0.52336 0.99934 0.96525
 H215 H 0.53441 1.04895 1.00364
 H216 H 0.46775 1.00051 0.95003
 H217 H 0.53298 0.94733 1.00098
 H218 H 0.46584 0.99761 1.05262
 H219 H 0.51235 1.02181 0.92423
 H220 H 0.51243 0.97914 0.92298
 H221 H 0.48847 0.92171 0.97775
 H222 H 0.49048 0.92055 1.02056
 H223 H 0.49742 0.95143 1.07912
 H224 H 0.49871 1.04187 1.08142
 H225 H 0.49359 1.07532 1.02244
 H226 H 0.50297 1.07710 0.95696
 O227 O -0.04576 0.53495 0.04448
 O228 O -0.02247 0.56242 0.02064
 C229 C -0.03897 0.55744 0.03810
 O230 O 0.04338 0.46377 0.04179
 O231 O 0.01919 0.43695 0.01821
 C232 C 0.03665 0.44148 0.03478
 O233 O 0.04201 0.53400 0.04468
 O234 O 0.01939 0.56197 0.02077
 C235 C 0.03570 0.55662 0.03828
 O236 O -0.04862 0.46485 0.04160
 O237 O -0.02487 0.43744 0.01816
 C238 C -0.04226 0.44240 0.03472
 Zr239 Zr -0.03435 0.49990 0.02967
 O240 O -0.03613 0.49780 0.06952
 O241 O -0.07416 0.50120 0.02620
 Zr242 Zr 0.02958 0.49920 0.03018
 O243 O 0.02685 0.49769 0.06997
 O244 O 0.06956 0.50107 0.03160
 O245 O -0.00214 0.52173 0.03509
 O246 O -0.00261 0.47775 0.03432
 O247 O -0.04868 0.46593 -0.04645
 O248 O -0.02416 0.43811 -0.02435
 C249 C -0.04191 0.44334 -0.04044
 O250 O 0.04237 0.53514 -0.04755
 O251 O 0.02026 0.56240 -0.02252
 C252 C 0.03635 0.55755 -0.04033
 O253 O 0.04422 0.46489 -0.04572
 O254 O 0.01889 0.43756 -0.02397
 C255 C 0.03695 0.44246 -0.03978
 O256 O -0.04501 0.53606 -0.04844
 O257 O -0.02280 0.56282 -0.02292
 C258 C -0.03863 0.55833 -0.04107
 Zr259 Zr -0.03411 0.50070 -0.03391
 O260 O -0.03602 0.49877 -0.07377
 O261 O -0.07392 0.50232 -0.03053
 Zr262 Zr 0.03000 0.50000 -0.03375
 O263 O 0.02986 0.49753 -0.07366
 O264 O 0.06997 0.50248 -0.03371
 Zr265 Zr -0.00171 0.53705 -0.00154
 Zr266 Zr -0.00252 0.46285 -0.00238
 O267 O -0.00225 0.47880 -0.03873
 O268 O -0.00177 0.52265 -0.03858
 O269 O -0.03930 0.47797 -0.00239
 O270 O 0.03471 0.52116 -0.00150
 O271 O -0.03852 0.52225 -0.00189
 O272 O 0.03456 0.47732 -0.00201
 H273 H -0.00278 0.46629 0.04902
 H274 H 0.04974 0.53221 -0.00123
 H275 H -0.00230 0.46780 -0.05376
 H276 H -0.05316 0.53383 -0.00181
 H277 H 0.07615 0.48825 0.01989
 H278 H 0.07646 0.48867 -0.02312
 H279 H 0.02041 0.51212 -0.08022
 H280 H -0.02260 0.50982 -0.08042
 H281 H -0.08056 0.50282 -0.04802
 H282 H -0.08085 0.50141 0.04368
 H283 H -0.02115 0.50679 0.07604
 H284 H 0.04447 0.49742 0.07636
 O285 O 0.95970 0.04809 0.46476
 O286 O 0.98244 0.02402 0.43699
 C287 C 0.96635 0.04162 0.44203
 O288 O 1.04815 0.04480 0.53658
 O289 O 1.02409 0.02132 0.56373
 C290 C 1.04141 0.03787 0.55913
 O291 O 1.04641 0.04822 0.46572
 O292 O 1.02490 0.02363 0.43753
 C293 C 1.04059 0.04147 0.44288
 O294 O 0.95630 0.04452 0.53572
 O295 O 0.98014 0.02119 0.56329
 C296 C 0.96274 0.03762 0.55840
 Zr297 Zr 0.97052 0.03279 0.50019
 O298 O 0.96852 0.07217 0.50252
 O299 O 0.93073 0.02932 0.49869
 Zr300 Zr 1.03444 0.03325 0.50081
 O301 O 1.03199 0.07261 0.50256
 O302 O 1.07442 0.03419 0.49875
 O303 O 1.00271 0.03817 0.47808
 O304 O 1.00227 0.03722 0.52254
 O305 O 0.95682 -0.04312 0.53445
 O306 O 0.98042 -0.02050 0.56272
 C307 C 0.96322 -0.03693 0.55731
 O308 O 1.04667 -0.04390 0.46423
 O309 O 1.02427 -0.01922 0.43673
 C310 C 1.04034 -0.03689 0.44158
 O311 O 1.04842 -0.04284 0.53534
 O312 O 1.02421 -0.02025 0.56307
 C313 C 1.04159 -0.03661 0.55806
 O314 O 0.95984 -0.04436 0.46358
 O315 O 0.98199 -0.01907 0.43648
 C316 C 0.96618 -0.03704 0.44104
 Zr317 Zr 0.97082 -0.03012 0.49932
 O318 O 0.96854 -0.06953 0.50099
 O319 O 0.93102 -0.02651 0.49800
 Zr320 Zr 1.03493 -0.02999 0.49989
 O321 O 1.03597 -0.06945 0.50209
 O322 O 1.07490 -0.02881 0.49745
 Zr323 Zr 1.00311 0.00199 0.46256
 Zr324 Zr 1.00241 0.00086 0.53756
 O325 O 1.00269 -0.03500 0.52136
 O326 O 1.00310 -0.03467 0.47712
 O327 O 0.96560 0.00097 0.52233
 O328 O 1.03957 0.00197 0.47850
 O329 O 0.96631 0.00166 0.47756
 O330 O 1.03948 0.00130 0.52291
 H331 H 1.00208 0.05176 0.53411
 H332 H 1.05449 0.00216 0.46718
 H333 H 1.00263 -0.04995 0.53240
 H334 H 0.95171 0.00185 0.46581
 H335 H 1.08094 0.02275 0.51190
 H336 H 1.08123 -0.02026 0.51275
 H337 H 1.02482 -0.07598 0.48864
 H338 H 0.98208 -0.07615 0.48999
 H339 H 0.92429 -0.04376 0.49741
 H340 H 0.92402 0.04661 0.49847
 H341 H 0.98396 0.07871 0.49428
 H342 H 1.04964 0.07884 0.50274
 C343 C 1.12520 0.12712 0.29834
 C344 C 1.11981 0.15203 0.29213
 C345 C 1.13092 0.16321 0.27097
 C346 C 1.14819 0.14989 0.25568
 C347 C 1.15394 0.12502 0.26255
 C348 C 1.14241 0.11378 0.28338
 C349 C 1.11265 0.11482 0.31999
 N350 N 1.11030 0.08957 0.32070
 N351 N 1.09879 0.07837 0.33998
 C352 C 1.08932 0.09192 0.35946
 N353 N 1.09177 0.11717 0.35885
 N354 N 1.10310 0.12841 0.33943
 C355 C 1.07656 0.07932 0.38081
 C356 C 1.07508 0.09077 0.40463
 C357 C 1.06354 0.07844 0.42489
 C358 C 1.05282 0.05465 0.42157
 C359 C 1.05395 0.04343 0.39763
 C360 C 1.06591 0.05552 0.37754
 H361 H 1.10662 0.16279 0.30338
 H362 H 1.12622 0.18247 0.26707
 H363 H 1.16658 0.11363 0.25144
 H364 H 1.14700 0.09454 0.28776
 H365 H 1.08320 0.10908 0.40770
 H366 H 1.06283 0.08761 0.44310
 H367 H 1.04585 0.02515 0.39446
 H368 H 1.06662 0.04629 0.35937
 C369 C 0.88424 -0.12052 0.29376
 C370 C 0.88886 -0.14575 0.28837
 C371 C 0.87726 -0.15728 0.26772
 C372 C 0.86021 -0.14402 0.25212
 C373 C 0.85558 -0.11867 0.25785
 C374 C 0.86762 -0.10707 0.27820
 C375 C 0.89665 -0.10831 0.31554
 N376 N 0.89944 -0.08311 0.31625
 N377 N 0.91064 -0.07210 0.33583
 C378 C 0.91930 -0.08582 0.35562
 N379 N 0.91641 -0.11102 0.35497
 N380 N 0.90541 -0.12205 0.33528
 C381 C 0.93155 -0.07354 0.37744
 C382 C 0.93241 -0.08540 0.40112
 C383 C 0.94354 -0.07352 0.42184
 C384 C 0.95445 -0.04973 0.41918
 C385 C 0.95393 -0.03806 0.39539
 C386 C 0.94238 -0.04973 0.37482
 H387 H 0.90163 -0.15660 0.30004
 H388 H 0.88121 -0.17685 0.26470
 H389 H 0.84320 -0.10734 0.24632
 H390 H 0.86369 -0.08756 0.28189
 H391 H 0.92414 -0.10372 0.40373
 H392 H 0.94376 -0.08303 0.43990
 H393 H 0.96218 -0.01975 0.39273
 H394 H 0.94214 -0.04018 0.35678
 C395 C 0.87990 0.11923 0.70629
 C396 C 0.86503 0.10534 0.72314
 C397 C 0.85357 0.11683 0.74388
 C398 C 0.85711 0.14253 0.74873
 C399 C 0.87243 0.15625 0.73182
 C400 C 0.88340 0.14481 0.71078
 C401 C 0.89175 0.10708 0.68418
 N402 N 0.89820 0.12061 0.66344
 N403 N 0.90884 0.10963 0.64353
 C404 C 0.91368 0.08471 0.64363
 N405 N 0.90730 0.07120 0.66440
 N406 N 0.89645 0.08214 0.68422
 C407 C 0.92589 0.07256 0.62173
 C408 C 0.93945 0.05021 0.62488
 C409 C 0.95150 0.03898 0.60434
 C410 C 0.94977 0.04951 0.58007
 C411 C 0.93593 0.07173 0.57687
 C412 C 0.92432 0.08326 0.59753
 H413 H 0.86202 0.08556 0.72016
 H414 H 0.84257 0.10517 0.75641
 H415 H 0.87544 0.17607 0.73416
 H416 H 0.89483 0.15599 0.69811
 H417 H 0.94115 0.04163 0.64333
 H418 H 0.96217 0.02202 0.60750
 H419 H 0.93437 0.08041 0.55845
 H420 H 0.91391 0.10044 0.59454
 C421 C 1.12258 -0.12186 0.70500
 C422 C 1.11885 -0.14742 0.70948
 C423 C 1.12979 -0.15902 0.73051
 C424 C 1.14531 -0.14546 0.74734
 C425 C 1.14913 -0.11980 0.74243
 C426 C 1.13771 -0.10817 0.72175
 C427 C 1.11069 -0.10940 0.68308
 N428 N 1.10607 -0.08445 0.68349
 N429 N 1.09533 -0.07313 0.66382
 C430 C 1.08899 -0.08625 0.64282
 N431 N 1.09371 -0.11119 0.64234
 N432 N 1.10425 -0.12256 0.66213
 C433 C 1.07704 -0.07359 0.62105
 C434 C 1.07905 -0.08359 0.59661
 C435 C 1.06788 -0.07140 0.57606
 C436 C 1.05405 -0.04924 0.57962
 C437 C 1.05182 -0.03946 0.60414
 C438 C 1.06343 -0.05134 0.62458
 H439 H 1.10722 -0.15843 0.69687
 H440 H 1.12656 -0.17880 0.73295
 H441 H 1.16027 -0.10824 0.75490
 H442 H 1.14092 -0.08841 0.71876
 H443 H 1.08950 -0.10068 0.59334
 H444 H 1.06980 -0.07951 0.55743
 H445 H 1.04110 -0.02259 0.60758
 H446 H 1.06139 -0.04330 0.64323
 C447 C 0.29456 1.12254 1.11941
 C448 C 0.27843 1.13796 1.10528
 C449 C 0.25760 1.14949 1.11661
 C450 C 0.25196 1.14548 1.14238
 C451 C 0.26822 1.12969 1.15634
 C452 C 0.28932 1.11864 1.14507
 C453 C 0.31668 1.11046 1.10745
 N454 N 0.33680 1.10305 1.12156
 N455 N 0.35667 1.09205 1.11079
 C456 C 0.35712 1.08783 1.08551
 N457 N 0.33698 1.09520 1.07141
 N458 N 0.31721 1.10639 1.08214
 C459 C 0.37896 1.07521 1.07360
 C460 C 0.37602 1.06258 1.05057
 C461 C 0.39649 1.05021 1.03953
 C462 C 0.42047 1.05067 1.05099
 C463 C 0.42347 1.06354 1.07391
 C464 C 0.40286 1.07549 1.08523
 H465 H 0.28202 1.14131 1.08542
 H466 H 0.24562 1.16092 1.10478
 H467 H 0.26530 1.12632 1.17625
 H468 H 0.30144 1.10680 1.15645
 H469 H 0.35779 1.06190 1.04126
 H470 H 0.39353 1.04038 1.02194
 H471 H 0.44168 1.06412 1.08327
 H472 H 0.40569 1.08516 1.10296
 C473 C 0.29360 0.87899 0.88182
 C474 C 0.28818 0.85377 0.88653
 C475 C 0.26726 0.84231 0.87529
 C476 C 0.25140 0.85563 0.85853
 C477 C 0.25712 0.88100 0.85390
 C478 C 0.27775 0.89251 0.86555
 C479 C 0.31570 0.89115 0.89374
 N480 N 0.31676 0.91640 0.89596
 N481 N 0.33664 0.92739 0.90666
 C482 C 0.35638 0.91362 0.91540
 N483 N 0.35537 0.88837 0.91309
 N484 N 0.33539 0.87736 0.90256
 C485 C 0.37843 0.92589 0.92729
 C486 C 0.40186 0.91356 0.92885
 C487 C 0.42269 0.92528 0.94002
 C488 C 0.42033 0.94936 0.95026
 C489 C 0.39687 0.96163 0.94880
 C490 C 0.37620 0.95011 0.93724
 H491 H 0.30005 0.84286 0.89905
 H492 H 0.26423 0.82274 0.87926
 H493 H 0.24539 0.89242 0.84180
 H494 H 0.28143 0.91202 0.86157
 H495 H 0.40417 0.89493 0.92125
 H496 H 0.44052 0.91535 0.94099
 H497 H 0.39453 0.98026 0.95642
 H498 H 0.35837 0.96005 0.93640
 C499 C 0.70454 0.87633 1.12464
 C500 C 0.70951 0.85087 1.12083
 C501 C 0.73072 0.83958 1.13180
 C502 C 0.74732 0.85335 1.14740
 C503 C 0.74188 0.87889 1.15137
 C504 C 0.72098 0.89020 1.13995
 C505 C 0.68250 0.88851 1.11254
 N506 N 0.68229 0.91357 1.10861
 N507 N 0.66261 0.92461 1.09753
 C508 C 0.64221 0.91107 1.09010
 N509 N 0.64233 0.88600 1.09415
 N510 N 0.66212 0.87493 1.10505
 C511 C 0.62048 0.92342 1.07764
 C512 C 0.59634 0.91241 1.07787
 C513 C 0.57584 0.92433 1.06622
 C514 C 0.57920 0.94725 1.05370
 C515 C 0.60341 0.95808 1.05328
 C516 C 0.62375 0.94644 1.06533
 H517 H 0.69715 0.83969 1.10909
 H518 H 0.73351 0.81987 1.12847
 H519 H 0.75410 0.89061 1.16261
 H520 H 0.71763 0.90989 1.14325
 H521 H 0.59325 0.89471 1.08728
 H522 H 0.55745 0.91544 1.06675
 H523 H 0.60665 0.97567 1.04374
 H524 H 0.64214 0.95532 1.06470
 C525 C 0.70793 1.11855 0.88272
 C526 C 0.72437 1.10491 0.86718
 C527 C 0.74473 1.11661 0.85521
 C528 C 0.74957 1.14232 0.85878
 C529 C 0.73312 1.15578 0.87480
 C530 C 0.71249 1.14410 0.88637
 C531 C 0.68604 1.10620 0.89491
 N532 N 0.66593 1.11979 0.90303
 N533 N 0.64609 1.10864 0.91370
 C534 C 0.64562 1.08346 0.91684
 N535 N 0.66579 1.06988 0.90883
 N536 N 0.68555 1.08101 0.89800
 C537 C 0.62357 1.07109 0.92871
 C538 C 0.62589 1.04712 0.93932
 C539 C 0.60514 1.03564 0.95087
 C540 C 0.58153 1.04770 0.95163
 C541 C 0.57912 1.07151 0.94072
 C542 C 0.59997 1.08318 0.92957
 H543 H 0.72137 1.08515 0.86402
 H544 H 0.75693 1.10510 0.84372
 H545 H 0.73548 1.17558 0.87795
 H546 H 0.70015 1.15512 0.89830
 H547 H 0.64384 1.03737 0.93900
 H548 H 0.60753 1.01722 0.95903
 H549 H 0.56118 1.08130 0.94113
 H550 H 0.59756 1.10160 0.92145
 C551 C 0.11890 0.29489 0.11792
 C552 C 0.12870 0.27511 0.10348
 C553 C 0.14035 0.25475 0.11523
 C554 C 0.14216 0.25355 0.14166
 C555 C 0.13213 0.27316 0.15613
 C556 C 0.12077 0.29370 0.14439
 C557 C 0.10688 0.31665 0.10545
 N558 N 0.10278 0.33818 0.11837
 N559 N 0.09211 0.35779 0.10712
 C560 C 0.08497 0.35668 0.08250
 N561 N 0.08900 0.33513 0.06959
 N562 N 0.09980 0.31556 0.08081
 C563 C 0.07294 0.37845 0.07005
 C564 C 0.06003 0.37565 0.04701
 C565 C 0.04827 0.39611 0.03554
 C566 C 0.04944 0.41989 0.04670
 C567 C 0.06265 0.42277 0.06954
 C568 C 0.07412 0.40224 0.08118
 H569 H 0.12759 0.27546 0.08306
 H570 H 0.14769 0.23975 0.10365
 H571 H 0.13348 0.27279 0.17653
 H572 H 0.11335 0.30859 0.15606
 H573 H 0.05874 0.35756 0.03797
 H574 H 0.03835 0.39332 0.01787
 H575 H 0.06381 0.44084 0.07865
 H576 H 0.08402 0.40506 0.09885
 C577 C -0.12554 0.29915 -0.12612
 C578 C -0.11052 0.28047 -0.13720
 C579 C -0.12169 0.25977 -0.14871
 C580 C -0.14812 0.25711 -0.14912
 C581 C -0.16319 0.27576 -0.13810
 C582 C -0.15202 0.29670 -0.12689
 C583 C -0.11352 0.32078 -0.11349
 N584 N -0.12681 0.34199 -0.10872
 N585 N -0.11586 0.36134 -0.09727
 C586 C -0.09124 0.36019 -0.08996
 N587 N -0.07801 0.33896 -0.09469
 N588 N -0.08889 0.31970 -0.10627
 C589 C -0.07898 0.38152 -0.07705
 C590 C -0.05662 0.37787 -0.06319
 C591 C -0.04483 0.39789 -0.05110
 C592 C -0.05488 0.42214 -0.05289
 C593 C -0.07728 0.42582 -0.06675
 C594 C -0.08931 0.40568 -0.07855
 H595 H -0.09008 0.28182 -0.13699
 H596 H -0.10963 0.24553 -0.15680
 H597 H -0.18360 0.27419 -0.13831
 H598 H -0.16410 0.31075 -0.11847
 H599 H -0.04827 0.35947 -0.06151
 H600 H -0.02768 0.39434 -0.04050
 H601 H -0.08558 0.44425 -0.06840
 H602 H -0.10650 0.40909 -0.08914
 C603 C 0.12277 0.70157 -0.12372
 C604 C 0.13384 0.72038 -0.10890
 C605 C 0.14594 0.74068 -0.12025
 C606 C 0.14699 0.74279 -0.14667
 C607 C 0.13590 0.72404 -0.16153
 C608 C 0.12406 0.70354 -0.15018
 C609 C 0.10979 0.68018 -0.11157
 N610 N 0.10418 0.65924 -0.12491
 N611 N 0.09257 0.64002 -0.11389
 C612 C 0.08595 0.64100 -0.08911
 N613 N 0.09150 0.66197 -0.07582
 N614 N 0.10322 0.68112 -0.08680
 C615 C 0.07305 0.61966 -0.07679
 C616 C 0.06094 0.62275 -0.05337
 C617 C 0.04883 0.60264 -0.04166
 C618 C 0.04884 0.57890 -0.05296
 C619 C 0.06100 0.57578 -0.07635
 C620 C 0.07283 0.59598 -0.08822
 H621 H 0.13324 0.71942 -0.08848
 H622 H 0.15405 0.75501 -0.10835
 H623 H 0.13660 0.72517 -0.18193
 H624 H 0.11568 0.68939 -0.16213
 H625 H 0.06068 0.64077 -0.04410
 H626 H 0.03972 0.60564 -0.02360
 H627 H 0.06124 0.55774 -0.08558
 H628 H 0.08205 0.59296 -0.10622
 C629 C -0.12183 0.70166 0.12462
 C630 C -0.10709 0.72106 0.13472
 C631 C -0.11855 0.74140 0.14663
 C632 C -0.14502 0.74297 0.14838
 C633 C -0.15981 0.72367 0.13819
 C634 C -0.14833 0.70310 0.12661
 C635 C -0.10957 0.68018 0.11195
 N636 N -0.12232 0.65846 0.10825
 N637 N -0.11119 0.63916 0.09691
 C638 C -0.08691 0.64082 0.08865
 N639 N -0.07420 0.66255 0.09228
 N640 N -0.08527 0.68179 0.10376
 C641 C -0.07457 0.61944 0.07588
 C642 C -0.05281 0.62310 0.06108
 C643 C -0.04132 0.60301 0.04876
 C644 C -0.05107 0.57871 0.05129
 C645 C -0.07271 0.57502 0.06628
 C646 C -0.08443 0.59519 0.07828
 H647 H -0.08664 0.72049 0.13356
 H648 H -0.10673 0.75617 0.15406
 H649 H -0.18024 0.72441 0.13945
 H650 H -0.16021 0.68849 0.11895
 H651 H -0.04481 0.64158 0.05873
 H652 H -0.02477 0.60654 0.03726
 H653 H -0.08080 0.55657 0.06852
 H654 H -0.10112 0.59174 0.08962
 C655 C 1.12318 0.12130 0.70650
 C656 C 1.13997 0.10820 0.72218
 C657 C 1.15145 0.12001 0.74272
 C658 C 1.14599 0.14519 0.74857
 C659 C 1.12883 0.15809 0.73279
 C660 C 1.11785 0.14638 0.71191
 C661 C 1.11127 0.10884 0.68461
 N662 N 1.10331 0.12233 0.66437
 N663 N 1.09266 0.11110 0.64461
 C664 C 1.08931 0.08595 0.64440
 N665 N 1.09717 0.07247 0.66469
 N666 N 1.10804 0.08367 0.68434
 C667 C 1.07729 0.07352 0.62256
 C668 C 1.06470 0.05062 0.62561
 C669 C 1.05289 0.03913 0.60506
 C670 C 1.05396 0.04998 0.58090
 C671 C 1.06682 0.07276 0.57782
 C672 C 1.07814 0.08453 0.59849
 H673 H 1.14444 0.08881 0.71843
 H674 H 1.16397 0.10895 0.75436
 H675 H 1.12431 0.17753 0.73592
 H676 H 1.10494 0.15694 0.70013
 H677 H 1.06358 0.04179 0.64399
 H678 H 1.04299 0.02172 0.60808
 H679 H 1.06783 0.08170 0.55949
 H680 H 1.08779 0.10214 0.59557
 C681 C 0.87726 -0.12291 0.70081
 C682 C 0.88162 -0.14827 0.70587
 C683 C 0.87020 -0.15987 0.72662
 C684 C 0.85361 -0.14653 0.74259
 C685 C 0.84897 -0.12114 0.73694
 C686 C 0.86085 -0.10949 0.71655
 C687 C 0.88996 -0.11034 0.67943
 N688 N 0.89391 -0.08528 0.67986
 N689 N 0.90548 -0.07388 0.66072
 C690 C 0.91337 -0.08703 0.64027
 N691 N 0.90932 -0.11208 0.63978
 N692 N 0.89795 -0.12353 0.65904
 C693 C 0.92612 -0.07429 0.61903
 C694 C 0.92555 -0.08456 0.59465
 C695 C 0.93734 -0.07228 0.57453
 C696 C 0.95036 -0.04973 0.57850
 C697 C 0.95121 -0.03968 0.60298
 C698 C 0.93897 -0.05167 0.62298
 H699 H 0.89419 -0.15909 0.69399
 H700 H 0.87404 -0.17948 0.72961
 H701 H 0.83692 -0.10973 0.74869
 H702 H 0.85709 -0.08990 0.71306
 H703 H 0.91571 -0.10193 0.59106
 H704 H 0.93649 -0.08060 0.55592
 H705 H 0.96124 -0.02247 0.60669
 H706 H 0.93987 -0.04341 0.64162
 C707 C 1.12041 -0.12211 0.29429
 C708 C 1.13635 -0.10877 0.27796
 C709 C 1.14770 -0.12056 0.25733
 C710 C 1.14301 -0.14601 0.25209
 C711 C 1.12669 -0.15917 0.26852
 C712 C 1.11580 -0.14744 0.28944
 C713 C 1.10861 -0.10961 0.31623
 N714 N 1.10062 -0.12305 0.33650
 N715 N 1.09006 -0.11175 0.35627
 C716 C 1.08686 -0.08658 0.35648
 N717 N 1.09477 -0.07316 0.33619
 N718 N 1.10552 -0.08443 0.31651
 C719 C 1.07492 -0.07399 0.37830
 C720 C 1.06353 -0.05047 0.37533
 C721 C 1.05209 -0.03859 0.39583
 C722 C 1.05225 -0.04972 0.41988
 C723 C 1.06379 -0.07319 0.42290
 C724 C 1.07481 -0.08531 0.40226
 H725 H 1.14026 -0.08919 0.28123
 H726 H 1.15953 -0.10931 0.24519
 H727 H 1.12278 -0.17880 0.26589
 H728 H 1.10356 -0.15820 0.30171
 H729 H 1.06317 -0.04136 0.35706
 H730 H 1.04330 -0.02056 0.39286
 H731 H 1.06408 -0.08231 0.44117
 H732 H 1.08352 -0.10341 0.40512
 C733 C 0.88263 0.12568 0.29602
 C734 C 0.88610 0.15111 0.29066
 C735 C 0.87423 0.16210 0.26980
 C736 C 0.85805 0.14805 0.25403
 C737 C 0.85448 0.12254 0.25986
 C738 C 0.86677 0.11153 0.28037
 C739 C 0.89555 0.11378 0.31768
 N740 N 0.89964 0.08875 0.31792
 N741 N 0.91120 0.07788 0.33737
 C742 C 0.91898 0.09155 0.35750
 N743 N 0.91483 0.11660 0.35733
 N744 N 0.90344 0.12752 0.33775
 C745 C 0.93160 0.07926 0.37911
 C746 C 0.93146 0.09027 0.40319
 C747 C 0.94268 0.07807 0.42372
 C748 C 0.95466 0.05485 0.42044
 C749 C 0.95521 0.04414 0.39623
 C750 C 0.94360 0.05609 0.37586
 H751 H 0.89825 0.16248 0.30243
 H752 H 0.87732 0.18181 0.26665
 H753 H 0.84285 0.11060 0.24824
 H754 H 0.86371 0.09186 0.28405
 H755 H 0.92228 0.10810 0.40626
 H756 H 0.94207 0.08685 0.44213
 H757 H 0.96432 0.02631 0.39305
 H758 H 0.94417 0.04722 0.35750
 C759 C 0.12195 0.29794 -0.12323
 C760 C 0.14725 0.29211 -0.11783
 C761 C 0.15881 0.27128 -0.12877
 C762 C 0.14551 0.25588 -0.14588
 C763 C 0.12019 0.26224 -0.15156
 C764 C 0.10855 0.28279 -0.14017
 C765 C 0.10949 0.31955 -0.11104
 N766 N 0.08392 0.32043 -0.10874
 N767 N 0.07268 0.33970 -0.09747
 C768 C 0.08655 0.35898 -0.08820
 N769 N 0.11212 0.35817 -0.09062
 N770 N 0.12338 0.33879 -0.10171
 C771 C 0.07401 0.38034 -0.07567
 C772 C 0.08609 0.40367 -0.07414
 C773 C 0.07400 0.42393 -0.06263
 C774 C 0.04981 0.42112 -0.05200
 C775 C 0.03791 0.39769 -0.05323
 C776 C 0.04977 0.37759 -0.06516
 H777 H 0.15808 0.30349 -0.10485
 H778 H 0.17840 0.26780 -0.12413
 H779 H 0.10883 0.25098 -0.16410
 H780 H 0.08900 0.28686 -0.14474
 H781 H 0.10475 0.40635 -0.08214
 H782 H 0.08370 0.44173 -0.06185
 H783 H 0.01927 0.39495 -0.04523
 H784 H 0.04005 0.35980 -0.06591
 C785 C -0.12531 0.29797 0.12047
 C786 C -0.12598 0.29664 0.14699
 C787 C -0.13694 0.27610 0.15911
 C788 C -0.14778 0.25670 0.14497
 C789 C -0.14733 0.25813 0.11849
 C790 C -0.13607 0.27846 0.10636
 C791 C -0.11337 0.31948 0.10756
 N792 N -0.10706 0.31815 0.08273
 N793 N -0.09619 0.33744 0.07112
 C794 C -0.09131 0.35893 0.08382
 N795 N -0.09770 0.36029 0.10864
 N796 N -0.10843 0.34094 0.12028
 C797 C -0.07917 0.38036 0.07096
 C798 C -0.07977 0.40426 0.08189
 C799 C -0.06813 0.42446 0.06991
 C800 C -0.05532 0.42115 0.04690
 C801 C -0.05473 0.39727 0.03593
 C802 C -0.06668 0.37712 0.04775
 H803 H -0.11779 0.31133 0.15839
 H804 H -0.13721 0.27549 0.17954
 H805 H -0.15527 0.24327 0.10715
 H806 H -0.13592 0.27894 0.08592
 H807 H -0.08934 0.40739 0.09969
 H808 H -0.06883 0.44261 0.07889
 H809 H -0.04511 0.39417 0.01814
 H810 H -0.06584 0.35894 0.03886
 C811 C -0.12062 0.70449 -0.12486
 C812 C -0.11645 0.70991 -0.15045
 C813 C -0.12789 0.73066 -0.16176
 C814 C -0.14427 0.74636 -0.14789
 C815 C -0.14857 0.74049 -0.12223
 C816 C -0.13673 0.72003 -0.11088
 C817 C -0.10818 0.68283 -0.11270
 N818 N -0.10547 0.68187 -0.08721
 N819 N -0.09427 0.66243 -0.07619
 C820 C -0.08547 0.64303 -0.09018
 N821 N -0.08824 0.64393 -0.11567
 N822 N -0.09928 0.66348 -0.12672
 C823 C -0.07321 0.62138 -0.07782
 C824 C -0.07163 0.59823 -0.09022
 C825 C -0.06052 0.57766 -0.07825
 C826 C -0.05038 0.57998 -0.05383
 C827 C -0.05167 0.60321 -0.04158
 C828 C -0.06316 0.62363 -0.05337
 H829 H -0.10411 0.69824 -0.16172
 H830 H -0.12425 0.73380 -0.18158
 H831 H -0.16042 0.75202 -0.11040
 H832 H -0.14035 0.71631 -0.09110
 H833 H -0.07929 0.59591 -0.10904
 H834 H -0.05969 0.56001 -0.08817
 H835 H -0.04413 0.60553 -0.02271
 H836 H -0.06400 0.64124 -0.04337
 C837 C 0.12027 0.69922 0.12557
 C838 C 0.10580 0.71844 0.13643
 C839 C 0.11759 0.73876 0.14803
 C840 C 0.14409 0.74048 0.14869
 C841 C 0.15860 0.72132 0.13784
 C842 C 0.14681 0.70077 0.12658
 C843 C 0.10770 0.67790 0.11299
 N844 N 0.12040 0.65626 0.10863
 N845 N 0.10905 0.63715 0.09720
 C846 C 0.08460 0.63894 0.08949
 N847 N 0.07193 0.66060 0.09380
 N848 N 0.08322 0.67964 0.10538
 C849 C 0.07204 0.61783 0.07654
 C850 C 0.05015 0.62185 0.06201
 C851 C 0.03846 0.60201 0.04950
 C852 C 0.04812 0.57762 0.05158
 C853 C 0.06989 0.57358 0.06628
 C854 C 0.08183 0.59350 0.07847
 H855 H 0.08532 0.71777 0.13603
 H856 H 0.10599 0.75342 0.15601
 H857 H 0.17906 0.72217 0.13827
 H858 H 0.15848 0.68629 0.11832
 H859 H 0.04222 0.64040 0.06003
 H860 H 0.02179 0.60578 0.03825
 H861 H 0.07790 0.55505 0.06817
 H862 H 0.09862 0.58981 0.08959
 C863 C 0.29763 1.12563 0.88157
 C864 C 0.29586 1.12636 0.85510
 C865 C 0.27493 1.13735 0.84336
 C866 C 0.25562 1.14826 0.85785
 C867 C 0.25755 1.14787 0.88429
 C868 C 0.27823 1.13647 0.89605
 C869 C 0.31942 1.11339 0.89404
 N870 N 0.31760 1.10516 0.91824
 N871 N 0.33706 1.09379 0.92938
 C872 C 0.35921 1.09037 0.91684
 N873 N 0.36109 1.09874 0.89269
 N874 N 0.34155 1.10993 0.88148
 C875 C 0.38072 1.07753 0.92918
 C876 C 0.40555 1.08093 0.92034
 C877 C 0.42583 1.06877 0.93206
 C878 C 0.42166 1.05263 0.95261
 C879 C 0.39676 1.04905 0.96122
 C880 C 0.37656 1.06156 0.94982
 H881 H 0.31046 1.11809 0.84344
 H882 H 0.27392 1.13760 0.82294
 H883 H 0.24279 1.15598 0.89585
 H884 H 0.27911 1.13628 0.91648
 H885 H 0.40933 1.09318 0.90450
 H886 H 0.44475 1.07184 0.92485
 H887 H 0.39281 1.03654 0.97679
 H888 H 0.35762 1.05839 0.95692
 C889 C 0.29298 0.87472 1.11733
 C890 C 0.29159 0.84857 1.11938
 C891 C 0.27094 0.83722 1.13125
 C892 C 0.25142 0.85179 1.14161
 C893 C 0.25283 0.87790 1.13962
 C894 C 0.27329 0.88925 1.12748
 C895 C 0.31484 0.88684 1.10481
 N896 N 0.31373 0.91123 1.09784
 N897 N 0.33342 0.92223 1.08676
 C898 C 0.35510 0.90934 1.08229
 N899 N 0.35622 0.88494 1.08928
 N900 N 0.33648 0.87390 1.10024
 C901 C 0.37708 0.92175 1.07029
 C902 C 0.40123 0.91075 1.07111
 C903 C 0.42205 0.92282 1.06029
 C904 C 0.41911 0.94600 1.04815
 C905 C 0.39489 0.95683 1.04705
 C906 C 0.37416 0.94492 1.05812
 H907 H 0.30641 0.83684 1.11171
 H908 H 0.27040 0.81706 1.13272
 H909 H 0.23791 0.88955 1.14720
 H910 H 0.27378 0.90943 1.12626
 H911 H 0.40413 0.89295 1.08039
 H912 H 0.44044 0.91395 1.06137
 H913 H 0.39198 0.97471 1.03791
 H914 H 0.35581 0.95386 1.05706
 C915 C 0.70622 1.11797 1.12375
 C916 C 0.72661 1.10408 1.13343
 C917 C 0.74736 1.11614 1.14429
 C918 C 0.74832 1.14232 1.14532
 C919 C 0.72808 1.15623 1.13543
 C920 C 0.70714 1.14418 1.12493
 C921 C 0.68414 1.10521 1.11245
 N922 N 0.66173 1.11733 1.10968
 N923 N 0.64188 1.10586 1.09942
 C924 C 0.64368 1.08185 1.09138
 N925 N 0.66610 1.06974 1.09413
 N926 N 0.68590 1.08115 1.10454
 C927 C 0.62180 1.06927 1.07950
 C928 C 0.62541 1.04810 1.06429
 C929 C 0.60488 1.03667 1.05240
 C930 C 0.58020 1.04588 1.05582
 C931 C 0.57654 1.06684 1.07136
 C932 C 0.59715 1.07852 1.08293
 H933 H 0.72643 1.08386 1.13284
 H934 H 0.76284 1.10503 1.15162
 H935 H 0.72830 1.17643 1.13623
 H936 H 0.69176 1.15540 1.11756
 H937 H 0.64419 1.04062 1.06116
 H938 H 0.60840 1.02069 1.04041
 H939 H 0.55780 1.07448 1.07430
 H940 H 0.59376 1.09476 1.09463
 C941 C 0.70621 0.87965 0.87888
 C942 C 0.72548 0.86874 0.89353
 C943 C 0.74616 0.85717 0.88196
 C944 C 0.74817 0.85659 0.85553
 C945 C 0.72901 0.86759 0.84088
 C946 C 0.70816 0.87886 0.85243
 C947 C 0.68427 0.89184 0.89113
 N948 N 0.66299 0.89714 0.87774
 N949 N 0.64326 0.90812 0.88877
 C950 C 0.64404 0.91439 0.91361
 N951 N 0.66533 0.90913 0.92697
 N952 N 0.68500 0.89803 0.91598
 C953 C 0.62218 0.92669 0.92589
 C954 C 0.62511 0.93859 0.94935
 C955 C 0.60455 0.95019 0.96103
 C956 C 0.58050 0.94990 0.94967
 C957 C 0.57753 0.93796 0.92624
 C958 C 0.59820 0.92662 0.91439
 H959 H 0.72451 0.86898 0.91395
 H960 H 0.76078 0.84901 0.89366
 H961 H 0.72999 0.86715 0.82047
 H962 H 0.69368 0.88713 0.84061
 H963 H 0.64334 0.93908 0.95866
 H964 H 0.60746 0.95915 0.97913
 H965 H 0.55927 0.93751 0.91698
 H966 H 0.59532 0.91756 0.89635
   
