data_POSCAR
  _audit_creation_date              2014-09-24
  _audit_creation_method            'ToBaCCo'
  _symmetry_space_group_name_H-M    'P1'
  _symmetry_Int_Tables_number       1
  _symmetry_cell_setting            triclinic
  loop_
  _symmetry_equiv_pos_as_xyz
 x,y,z
_cell_length_a 37.4354
_cell_length_b 21.8814
_cell_length_c 16.3735
_cell_angle_alpha 90.193400
_cell_angle_beta 89.920800
_cell_angle_gamma 119.768800
loop_
  _atom_site_label
  _atom_site_type_symbol
  _atom_site_fract_x
  _atom_site_fract_y
  _atom_site_fract_z
C1 C 0.50202 0.99650 0.46439
 C2 C 0.50138 0.99564 0.54732
 C3 C 0.46404 0.94644 0.59405
 C4 C 0.53813 1.04465 0.59564
 C5 C 0.53910 1.04608 0.41818
 C6 C 0.46570 0.94871 0.41489
 C7 C 0.42635 0.94431 0.58220
 C8 C 0.39161 0.89786 0.62713
 C9 C 0.39383 0.85306 0.68635
 C10 C 0.43220 0.85678 0.69866
 C11 C 0.46671 0.90282 0.65316
 C12 C 0.53571 1.09238 0.64937
 C13 C 0.56991 1.13897 0.69542
 C14 C 0.60725 1.13839 0.68925
 C15 C 0.60938 1.08976 0.63584
 C16 C 0.57509 1.04321 0.58963
 C17 C 0.56101 1.02034 0.37426
 C18 C 0.59524 1.06594 0.32787
 C19 C 0.60751 1.13780 0.32320
 C20 C 0.58541 1.16350 0.36715
 C21 C 0.55158 1.11797 0.41492
 C22 C 0.45163 0.87620 0.41160
 C23 C 0.41829 0.83241 0.36145
 C24 C 0.39828 0.86053 0.31515
 C25 C 0.41227 0.93303 0.31950
 C26 C 0.44600 0.97684 0.36822
 H27 H 0.42388 0.97914 0.53866
 H28 H 0.36349 0.89876 0.61567
 H29 H 0.43604 0.82381 0.74264
 H30 H 0.49562 0.90402 0.66370
 H31 H 0.50736 1.09403 0.65495
 H32 H 0.56700 1.17583 0.73516
 H33 H 0.57726 1.00565 0.54965
 H34 H 0.55149 0.96483 0.37587
 H35 H 0.61129 1.04449 0.29370
 H36 H 0.59433 1.21871 0.36466
 H37 H 0.53470 1.13838 0.44818
 H38 H 0.46680 0.85390 0.44690
 H39 H 0.40801 0.77663 0.35919
 H40 H 0.39786 0.95629 0.28356
 H41 H 0.45672 1.03282 0.36981
 H42 H 0.63723 1.08668 0.63032
 C43 C 0.00083 0.50155 0.46247
 C44 C 0.00114 0.50152 0.54525
 C45 C 0.03021 0.48755 0.59199
 C46 C -0.02807 0.51442 0.59313
 C47 C -0.02807 0.51550 0.41583
 C48 C 0.02973 0.48870 0.41392
 C49 C 0.02973 0.42326 0.58443
 C50 C 0.05715 0.41076 0.62960
 C51 C 0.08542 0.46226 0.68351
 C52 C 0.08547 0.52641 0.69108
 C53 C 0.05802 0.53870 0.64609
 C54 C -0.05817 0.46025 0.64075
 C55 C -0.08576 0.47166 0.68683
 C56 C -0.08358 0.53774 0.68649
 C57 C -0.05303 0.59216 0.63913
 C58 C -0.02539 0.58065 0.59317
 C59 C -0.01547 0.58374 0.38872
 C60 C -0.04165 0.59726 0.34114
 C61 C -0.08072 0.54217 0.31726
 C62 C -0.09304 0.47346 0.34507
 C63 C -0.06707 0.46049 0.39445
 C64 C 0.07129 0.54051 0.40753
 C65 C 0.09796 0.52888 0.35836
 C66 C 0.08345 0.46486 0.31604
 C67 C 0.04187 0.41294 0.32351
 C68 C 0.01516 0.42507 0.37143
 H69 H 0.00783 0.38250 0.54422
 H70 H 0.05558 0.36031 0.62296
 H71 H 0.10689 0.56767 0.73123
 H72 H 0.05873 0.58856 0.65288
 H73 H -0.06047 0.40891 0.64171
 H74 H -0.10900 0.42836 0.72199
 H75 H -0.00160 0.62361 0.55840
 H76 H 0.01490 0.62655 0.40400
 H77 H -0.03005 0.65071 0.32073
 H78 H -0.12287 0.42942 0.32976
 H79 H -0.07712 0.40738 0.41495
 H80 H 0.08285 0.59009 0.43975
 H81 H 0.12991 0.56964 0.35380
 H82 H 0.02965 0.36357 0.29068
 H83 H -0.01691 0.38474 0.37554
 H84 H -0.04985 0.64405 0.63856
 C85 C 0.50001 0.50066 0.45884
 C86 C 0.50006 0.49492 0.54164
 C87 C 0.46378 0.47939 0.59251
 C88 C 0.53730 0.50682 0.58678
 C89 C 0.53680 0.51444 0.41075
 C90 C 0.46359 0.49196 0.41210
 C91 C 0.46706 0.52870 0.65095
 C92 C 0.43326 0.51639 0.69858
 C93 C 0.39525 0.45348 0.69021
 C94 C 0.39249 0.40349 0.63196
 C95 C 0.42640 0.41645 0.58360
 C96 C 0.57328 0.57251 0.58520
 C97 C 0.60724 0.58491 0.63260
 C98 C 0.60590 0.53196 0.68384
 C99 C 0.56959 0.46560 0.68372
 C100 C 0.53573 0.45349 0.63619
 C101 C 0.54712 0.46149 0.39996
 C102 C 0.58152 0.47451 0.35347
 C103 C 0.60657 0.54115 0.31877
 C104 C 0.59644 0.59431 0.33063
 C105 C 0.56142 0.58068 0.37532
 C106 C 0.45104 0.44993 0.34122
 C107 C 0.41671 0.44030 0.29705
 C108 C 0.39383 0.47124 0.32399
 C109 C 0.40642 0.51407 0.39376
 C110 C 0.44166 0.52586 0.43627
 H111 H 0.49582 0.57752 0.65885
 H112 H 0.43767 0.55637 0.74266
 H113 H 0.36419 0.35466 0.62193
 H114 H 0.42347 0.37756 0.53898
 H115 H 0.57475 0.61485 0.54863
 H116 H 0.63398 0.63672 0.62913
 H117 H 0.50801 0.40249 0.63851
 H118 H 0.52828 0.41004 0.42688
 H119 H 0.58882 0.43279 0.34533
 H120 H 0.61503 0.64583 0.30374
 H121 H 0.55369 0.62195 0.38310
 H122 H 0.46755 0.42385 0.32042
 H123 H 0.40751 0.40759 0.24274
 H124 H 0.38950 0.53956 0.41420
 H125 H 0.45166 0.56136 0.48806
 H126 H 0.56655 0.42269 0.72108
 O127 O 0.32524 0.54846 -0.09426
 O128 O 0.32823 0.66889 -0.07178
 C129 C 0.30273 0.67923 -0.11221
 O130 O 0.26461 0.64855 -0.09602
 O131 O 0.19491 0.53388 -0.06870
 C132 C 0.18926 0.48015 -0.10940
 O133 O 0.20760 0.44593 -0.09376
 O134 O 0.27464 0.44035 -0.06496
 C135 C 0.30589 0.48263 -0.10646
 O136 O 0.32732 0.53147 0.06804
 O137 O 0.32709 0.64938 0.09119
 C138 C 0.30833 0.68308 0.10544
 O139 O 0.27673 0.67327 0.06583
 O140 O 0.20850 0.55585 0.09359
 C141 C 0.18864 0.49041 0.10795
 O142 O 0.19386 0.44577 0.06775
 O143 O 0.26300 0.44846 0.09734
 C144 C 0.30128 0.48156 0.11229
 Cr145 Cr 0.32471 0.59772 -0.00168
 Cr146 Cr 0.23727 0.60091 -0.00127
 Cr147 Cr 0.23595 0.44883 0.00150
 O148 O 0.26599 0.54926 -0.00075
 O149 O 0.67430 0.44454 -0.08631
 O150 O 0.67389 0.32647 -0.06232
 C151 C 0.69954 0.31654 -0.10287
 O152 O 0.73776 0.34812 -0.08759
 O153 O 0.80703 0.46452 -0.06433
 C154 C 0.81227 0.51749 -0.10534
 O155 O 0.79355 0.55107 -0.09008
 O156 O 0.72577 0.55390 -0.06492
 C157 C 0.69383 0.50956 -0.10322
 O158 O 0.67379 0.46387 0.07646
 O159 O 0.67621 0.34863 0.10036
 C160 C 0.69601 0.31690 0.11498
 O161 O 0.72774 0.32776 0.07514
 O162 O 0.79531 0.44766 0.09838
 C163 C 0.81397 0.51338 0.11203
 O164 O 0.80705 0.55622 0.07227
 O165 O 0.73729 0.55375 0.09745
 C166 C 0.69926 0.51922 0.11445
 Cr167 Cr 0.67690 0.39793 0.00700
 Cr168 Cr 0.76575 0.39899 0.00549
 Cr169 Cr 0.76478 0.54972 0.00386
 O170 O 0.73578 0.44890 0.00563
 N171 N 0.29433 0.74464 -0.22276
 N172 N 0.32016 0.79435 -0.27971
 C173 C 0.35885 0.80611 -0.26758
 C174 C 0.35811 0.76427 -0.20270
 C175 C 0.31757 0.72714 -0.17657
 H176 H 0.38357 0.76104 -0.17631
 H177 H 0.26270 0.72545 -0.21790
 H178 H 0.30979 0.81597 -0.32403
 N179 N 0.15081 0.40232 -0.22741
 N180 N 0.12356 0.39768 -0.28204
 C181 C 0.11446 0.44929 -0.26767
 C182 C 0.13706 0.48819 -0.20068
 C183 C 0.15960 0.45681 -0.17716
 H184 H 0.13725 0.53306 -0.17231
 H185 H 0.16333 0.36903 -0.22535
 H186 H 0.11220 0.36033 -0.32889
 N187 N 0.30049 0.38716 -0.19808
 N188 N 0.32549 0.37924 -0.25555
 C189 C 0.36122 0.44113 -0.26062
 C190 C 0.35910 0.48930 -0.20760
 C191 C 0.32108 0.45367 -0.16998
 H192 H 0.38211 0.54353 -0.19625
 H193 H 0.27130 0.34756 -0.18027
 H194 H 0.31743 0.33186 -0.28517
 N195 N 0.70693 0.25028 -0.22019
 N196 N 0.68270 0.20349 -0.27498
 C197 C 0.64348 0.18797 -0.26126
 C198 C 0.64304 0.22683 -0.19449
 C199 C 0.68373 0.26548 -0.17047
 H200 H 0.61694 0.22728 -0.16669
 H201 H 0.73883 0.27174 -0.21771
 H202 H 0.69335 0.18399 -0.32155
 N203 N 0.85121 0.59675 -0.22131
 N204 N 0.87864 0.60217 -0.27604
 C205 C 0.88723 0.54978 -0.26396
 C206 C 0.86415 0.50948 -0.19838
 C207 C 0.84185 0.54101 -0.17321
 H208 H 0.86369 0.46385 -0.17192
 H209 H 0.83909 0.63058 -0.21752
 H210 H 0.89052 0.64060 -0.32145
 N211 N 0.69889 0.60206 -0.19786
 N212 N 0.67445 0.60831 -0.25767
 C213 C 0.63939 0.54548 -0.26458
 C214 C 0.64140 0.49834 -0.20991
 C215 C 0.67866 0.53578 -0.16952
 H216 H 0.61858 0.44409 -0.19842
 H217 H 0.72748 0.64272 -0.17852
 H218 H 0.68279 0.65513 -0.28844
 N219 N 0.87035 0.61176 0.18920
 N220 N 0.90027 0.61999 0.24560
 C221 C 0.89382 0.55526 0.26507
 C222 C 0.85957 0.50501 0.22191
 C223 C 0.84632 0.54248 0.17477
 H224 H 0.84706 0.44859 0.22062
 H225 H 0.86859 0.65302 0.16126
 H226 H 0.92278 0.66874 0.26795
 N227 N 0.69767 0.22275 0.19700
 N228 N 0.67432 0.17532 0.25164
 C229 C 0.64231 0.18486 0.27015
 C230 C 0.64558 0.24115 0.22549
 C231 C 0.68090 0.26317 0.17933
 H232 H 0.62407 0.26061 0.22324
 H233 H 0.72398 0.22587 0.17080
 H234 H 0.68013 0.13669 0.27476
 N235 N 0.70278 0.61028 0.21168
 N236 N 0.67803 0.61641 0.26469
 C237 C 0.64250 0.55453 0.26853
 C238 C 0.64463 0.50716 0.21537
 C239 C 0.68321 0.54469 0.18021
 H240 H 0.62093 0.45367 0.20207
 H241 H 0.73207 0.65093 0.19609
 H242 H 0.68549 0.66229 0.29738
 N243 N 0.13375 0.39513 0.19102
 N244 N 0.10599 0.38819 0.24557
 C245 C 0.11107 0.45235 0.26268
 C246 C 0.14379 0.50248 0.21720
 C247 C 0.15700 0.46376 0.17204
 H248 H 0.15492 0.55849 0.21404
 H249 H 0.13599 0.35316 0.16607
 H250 H 0.08382 0.34003 0.26982
 N251 N 0.30918 0.78068 0.18552
 N252 N 0.33290 0.82759 0.24053
 C253 C 0.36366 0.81523 0.26056
 C254 C 0.35921 0.75765 0.21645
 C255 C 0.32448 0.73778 0.16908
 H256 H 0.37952 0.73570 0.21566
 H257 H 0.28357 0.77942 0.15842
 H258 H 0.32811 0.86766 0.26307
 N259 N 0.29439 0.43260 0.25232
 N260 N 0.31917 0.43186 0.30930
 C261 C 0.35741 0.46019 0.27814
 C262 C 0.35723 0.48042 0.19841
 C263 C 0.31668 0.46236 0.18451
 H264 H 0.38324 0.50737 0.15767
 H265 H 0.26321 0.41572 0.26108
 H266 H 0.31008 0.41311 0.36863
   
