data_POSCAR
  _audit_creation_date              2014-09-24
  _audit_creation_method            'ToBaCCo'
  _symmetry_space_group_name_H-M    'P1'
  _symmetry_Int_Tables_number       1
  _symmetry_cell_setting            triclinic
  loop_
  _symmetry_equiv_pos_as_xyz
 x,y,z
_cell_length_a 48.8643
_cell_length_b 51.1543
_cell_length_c 51.2124
_cell_angle_alpha 82.298600
_cell_angle_beta 90.313400
_cell_angle_gamma 89.101400
loop_
  _atom_site_label
  _atom_site_type_symbol
  _atom_site_fract_x
  _atom_site_fract_y
  _atom_site_fract_z
N1 N 0.28868 0.26616 0.18175
 N2 N 0.27291 0.28647 0.17282
 C3 C 0.27914 0.29454 0.14747
 C4 C 0.29996 0.27844 0.14019
 C5 C 0.30559 0.26065 0.16249
 H6 H 0.26937 0.31098 0.13523
 H7 H 0.32083 0.24495 0.16476
 Cu8 Cu 0.24639 0.30077 0.19553
 Cu9 Cu 0.28641 0.24889 0.21784
 Cu10 Cu 0.22675 0.26228 0.25058
 N11 N 0.21370 0.30887 0.21445
 N12 N 0.20620 0.29399 0.23609
 C13 C 0.18295 0.30406 0.24500
 C14 C 0.17547 0.32633 0.22786
 C15 C 0.19533 0.32871 0.20866
 H16 H 0.17203 0.29550 0.26229
 H17 H 0.19619 0.34367 0.19164
 N18 N 0.25083 0.23143 0.26197
 N19 N 0.27393 0.22701 0.24992
 C20 C 0.28568 0.20459 0.26188
 C21 C 0.26923 0.19430 0.28237
 C22 C 0.24727 0.21180 0.28197
 H23 H 0.30440 0.19584 0.25559
 H24 H 0.22984 0.21018 0.29495
 H25 H 0.24479 0.25509 0.21555
 H26 H 0.26359 0.27562 0.23692
 N27 N 0.68535 -0.24679 0.27344
 N28 N 0.69710 -0.26916 0.26937
 C29 C 0.68750 -0.27685 0.24694
 C30 C 0.66689 -0.25688 0.23414
 C31 C 0.66748 -0.23827 0.25396
 H32 H 0.69439 -0.29442 0.23912
 H33 H 0.65554 -0.22018 0.25302
 Cu34 Cu 0.72534 -0.28573 0.29338
 Cu35 Cu 0.69370 -0.22991 0.30430
 Cu36 Cu 0.75638 -0.24815 0.33371
 N37 N 0.76061 -0.29580 0.30972
 N38 N 0.77276 -0.28090 0.32516
 C39 C 0.79724 -0.29178 0.33282
 C40 C 0.80075 -0.31460 0.32143
 C41 C 0.77703 -0.31663 0.30687
 H42 H 0.81170 -0.28346 0.34535
 H43 H 0.77220 -0.33160 0.29464
 N44 N 0.73598 -0.21597 0.33987
 N45 N 0.71175 -0.20955 0.32917
 C46 C 0.70298 -0.18678 0.33693
 C47 C 0.72260 -0.17839 0.35323
 C48 C 0.74329 -0.19735 0.35476
 H49 H 0.68397 -0.17666 0.33068
 H50 H 0.76227 -0.19753 0.36570
 H51 H 0.73373 -0.24022 0.29921
 H52 H 0.71682 -0.25834 0.32863
 N53 N 0.70882 0.26048 0.74899
 N54 N 0.72218 0.28225 0.75089
 C55 C 0.71305 0.29282 0.77198
 C56 C 0.69293 0.27679 0.78390
 C57 C 0.69067 0.25645 0.76872
 H58 H 0.72067 0.31070 0.77835
 H59 H 0.67704 0.23989 0.77172
 Cu60 Cu 0.75052 0.29442 0.72593
 Cu61 Cu 0.71596 0.23927 0.72090
 Cu62 Cu 0.77890 0.25025 0.69069
 N63 N 0.78570 0.30044 0.70903
 N64 N 0.79694 0.28290 0.69568
 C65 C 0.82172 0.29131 0.68725
 C66 C 0.82631 0.31532 0.69589
 C67 C 0.80295 0.32062 0.70966
 H68 H 0.83563 0.28054 0.67606
 H69 H 0.79898 0.33735 0.72001
 N70 N 0.75706 0.21868 0.68785
 N71 N 0.73281 0.21489 0.69883
 C72 C 0.72295 0.19185 0.69322
 C73 C 0.74187 0.18062 0.67801
 C74 C 0.76327 0.19812 0.67493
 H75 H 0.70359 0.18362 0.70001
 H76 H 0.78194 0.19610 0.66414
 H77 H 0.75638 0.24734 0.72517
 H78 H 0.73970 0.26374 0.69432
 N79 N 0.30577 -0.24495 0.78885
 N80 N 0.29897 -0.26860 0.79998
 C81 C 0.31356 -0.27479 0.82241
 C82 C 0.33023 -0.25375 0.82549
 C83 C 0.32471 -0.23518 0.80389
 H84 H 0.31115 -0.29258 0.83613
 H85 H 0.33311 -0.21562 0.79992
 Cu86 Cu 0.26915 -0.28731 0.78578
 Cu87 Cu 0.28746 -0.22751 0.75722
 Cu88 Cu 0.24831 -0.26839 0.72355
 N89 N 0.23933 -0.30488 0.77024
 N90 N 0.23150 -0.29756 0.74572
 C91 C 0.21079 -0.31280 0.73976
 C92 C 0.20513 -0.33047 0.76196
 C93 C 0.22362 -0.32488 0.78089
 H94 H 0.20036 -0.31058 0.72091
 H95 H 0.22527 -0.33452 0.80099
 N96 N 0.25918 -0.23279 0.70811
 N97 N 0.27434 -0.21736 0.72078
 C98 C 0.27790 -0.19433 0.70517
 C99 C 0.26389 -0.19521 0.68180
 C100 C 0.25212 -0.21975 0.68436
 H101 H 0.28907 -0.17781 0.71072
 H102 H 0.23907 -0.22739 0.67012
 H103 H 0.25172 -0.24952 0.75584
 H104 H 0.28460 -0.26293 0.74434
 N105 N 0.73004 -0.24701 0.82650
 N106 N 0.74684 -0.26389 0.84035
 C107 C 0.73705 -0.26973 0.86489
 C108 C 0.71290 -0.25576 0.86657
 C109 C 0.70898 -0.24147 0.84185
 H110 H 0.74674 -0.28319 0.88042
 H111 H 0.69221 -0.22804 0.83548
 Cu112 Cu 0.77995 -0.27701 0.82553
 Cu113 Cu 0.73728 -0.23324 0.78987
 Cu114 Cu 0.78994 -0.26400 0.76029
 N115 N 0.80583 -0.29744 0.80758
 N116 N 0.80897 -0.29290 0.78191
 C117 C 0.82793 -0.30981 0.77464
 C118 C 0.83729 -0.32570 0.79708
 C119 C 0.82284 -0.31728 0.81761
 H120 H 0.83488 -0.30986 0.75464
 H121 H 0.82463 -0.32497 0.83829
 N122 N 0.76846 -0.23422 0.74186
 N123 N 0.74826 -0.22246 0.75303
 C124 C 0.73935 -0.20142 0.73627
 C125 C 0.75489 -0.19989 0.71362
 C126 C 0.77307 -0.22092 0.71784
 H127 H 0.72402 -0.18731 0.74089
 H128 H 0.78944 -0.22528 0.70489
 H129 H 0.75548 -0.26847 0.78396
 H130 H 0.77890 -0.24093 0.78930
 N131 N 0.31127 0.23442 0.72736
 N132 N 0.30156 0.25773 0.73113
 C133 C 0.31387 0.26540 0.75233
 C134 C 0.33227 0.24577 0.76247
 C135 C 0.33008 0.22640 0.74619
 H136 H 0.30872 0.28327 0.76047
 H137 H 0.34084 0.20758 0.74834
 Cu138 Cu 0.27148 0.27452 0.71020
 Cu139 Cu 0.29777 0.21592 0.69899
 Cu140 Cu 0.24213 0.24499 0.66308
 N141 N 0.23477 0.28424 0.69755
 N142 N 0.22324 0.27253 0.67911
 C143 C 0.19792 0.28276 0.67413
 C144 C 0.19329 0.30174 0.69049
 C145 C 0.21714 0.30220 0.70515
 H146 H 0.18380 0.27665 0.65985
 H147 H 0.22140 0.31441 0.72031
 N148 N 0.25962 0.21180 0.65591
 N149 N 0.28099 0.20079 0.66927
 C150 C 0.28775 0.17822 0.65978
 C151 C 0.26956 0.17488 0.63974
 C152 C 0.25199 0.19639 0.63792
 H153 H 0.30409 0.16481 0.66741
 H154 H 0.23465 0.20030 0.62468
 H155 H 0.28288 0.24814 0.67490
 H156 H 0.25849 0.23162 0.69939
 N157 N 0.27969 -0.25153 0.23700
 N158 N 0.26825 -0.27404 0.23397
 C159 C 0.27908 -0.28325 0.21284
 C160 C 0.29830 -0.26558 0.20198
 C161 C 0.29823 -0.24564 0.21781
 H162 H 0.27308 -0.30123 0.20556
 H163 H 0.31051 -0.22810 0.21553
 Cu164 Cu 0.23927 -0.28862 0.25691
 Cu165 Cu 0.26943 -0.23160 0.26549
 Cu166 Cu 0.21597 -0.25647 0.30526
 N167 N 0.20378 -0.29634 0.27273
 N168 N 0.19472 -0.28362 0.29168
 C169 C 0.17004 -0.29292 0.29940
 C170 C 0.16321 -0.31240 0.28440
 C171 C 0.18510 -0.31409 0.26759
 H172 H 0.15794 -0.28602 0.31481
 H173 H 0.18737 -0.32716 0.25278
 N174 N 0.23539 -0.22411 0.31044
 N175 N 0.25592 -0.21468 0.29556
 C176 C 0.26448 -0.19229 0.30397
 C177 C 0.24836 -0.18738 0.32496
 C178 C 0.23011 -0.20781 0.32843
 H179 H 0.28066 -0.18006 0.29504
 H180 H 0.21390 -0.21038 0.34280
 H181 H 0.25517 -0.26251 0.29084
 H182 H 0.22944 -0.24464 0.26774
 N183 N 0.67361 0.25747 0.20656
 N184 N 0.68561 0.27916 0.19610
 C185 C 0.67663 0.28564 0.17112
 C186 C 0.65803 0.26687 0.16578
 C187 C 0.65666 0.24931 0.18864
 H188 H 0.68366 0.30229 0.15772
 H189 H 0.64441 0.23175 0.19192
 Cu190 Cu 0.71261 0.29602 0.21591
 Cu191 Cu 0.68057 0.24164 0.24268
 Cu192 Cu 0.74023 0.26144 0.27062
 N193 N 0.74655 0.30645 0.23103
 N194 N 0.75705 0.29320 0.25263
 C195 C 0.78071 0.30436 0.25843
 C196 C 0.78532 0.32557 0.23926
 C197 C 0.76333 0.32626 0.22213
 H198 H 0.79399 0.29706 0.27483
 H199 H 0.76001 0.33992 0.20432
 N200 N 0.71984 0.22993 0.28572
 N201 N 0.69702 0.22263 0.27506
 C202 C 0.68805 0.20003 0.28855
 C203 C 0.70663 0.19087 0.31067
 C204 C 0.72681 0.21243 0.30688
 H205 H 0.67011 0.18975 0.28325
 H206 H 0.74493 0.21365 0.31883
 H207 H 0.70117 0.27125 0.25894
 H208 H 0.72092 0.25132 0.23740
 C209 C 0.27531 -0.00012 0.40872
 C210 C 0.27139 0.02245 0.42122
 C211 C 0.27391 0.02020 0.44873
 C212 C 0.28251 -0.00370 0.46377
 C213 C 0.28795 -0.02564 0.45045
 C214 C 0.28322 -0.02429 0.42327
 C215 C 0.28474 -0.00591 0.49324
 C216 C 0.28103 -0.03033 0.50915
 C217 C 0.28169 -0.03226 0.53669
 C218 C 0.28531 -0.00949 0.54868
 C219 C 0.28910 0.01500 0.53337
 C220 C 0.28970 0.01651 0.50583
 H221 H 0.27214 0.00094 0.38770
 H222 H 0.26897 0.03729 0.45825
 H223 H 0.29526 -0.04414 0.46111
 H224 H 0.27692 -0.04799 0.50041
 H225 H 0.28635 -0.01103 0.56997
 H226 H 0.29375 0.03538 0.49440
 C227 C 0.74682 -0.00624 0.58925
 C228 C 0.75226 0.01781 0.57369
 C229 C 0.75116 0.01920 0.54618
 C230 C 0.74253 -0.00243 0.53400
 C231 C 0.73570 -0.02593 0.55015
 C232 C 0.73882 -0.02823 0.57758
 C233 C 0.74105 -0.00049 0.50462
 C234 C 0.74568 -0.02289 0.49188
 C235 C 0.74451 -0.02123 0.46433
 C236 C 0.74014 0.00352 0.44920
 C237 C 0.73551 0.02616 0.46144
 C238 C 0.73557 0.02389 0.48902
 H239 H 0.74873 -0.00799 0.61046
 H240 H 0.75700 0.03737 0.53437
 H241 H 0.72837 -0.04273 0.54152
 H242 H 0.75050 -0.04178 0.50329
 H243 H 0.74141 0.00534 0.42798
 H244 H 0.73121 0.04134 0.49820
 C245 C 0.42242 0.26991 -0.04218
 C246 C 0.43547 0.26677 -0.01741
 C247 C 0.46412 0.26810 -0.01617
 C248 C 0.47973 0.27449 -0.03914
 C249 C 0.46595 0.27908 -0.06360
 C250 C 0.43763 0.27579 -0.06534
 C251 C 0.51028 0.27567 -0.03769
 C252 C 0.52651 0.26902 -0.05858
 C253 C 0.55514 0.27017 -0.05756
 C254 C 0.56784 0.27611 -0.03447
 C255 C 0.55215 0.28210 -0.01312
 C256 C 0.52352 0.28287 -0.01525
 H257 H 0.40050 0.26780 -0.04358
 H258 H 0.47412 0.26408 0.00288
 H259 H 0.47721 0.28476 -0.08156
 H260 H 0.51701 0.26287 -0.07585
 H261 H 0.58992 0.27599 -0.03293
 H262 H 0.51171 0.28860 0.00093
 C263 C 0.57250 0.74285 0.03515
 C264 C 0.55662 0.73526 0.05753
 C265 C 0.52823 0.73318 0.05481
 C266 C 0.51526 0.74032 0.03019
 C267 C 0.53160 0.74815 0.00799
 C268 C 0.56021 0.74859 0.01013
 C269 C 0.48479 0.74019 0.02774
 C270 C 0.47211 0.73429 0.00452
 C271 C 0.44359 0.73594 0.00146
 C272 C 0.42738 0.74188 0.02251
 C273 C 0.43951 0.74656 0.04637
 C274 C 0.46815 0.74652 0.04844
 H275 H 0.59441 0.74424 0.03744
 H276 H 0.51630 0.72645 0.07210
 H277 H 0.52215 0.75397 -0.01111
 H278 H 0.48436 0.72876 -0.01149
 H279 H 0.40537 0.74277 0.02021
 H280 H 0.47740 0.75149 0.06636
 C281 C -0.02010 0.42771 0.26549
 C282 C 0.00481 0.43971 0.27002
 C283 C 0.00471 0.46600 0.27512
 C284 C -0.01981 0.48107 0.27411
 C285 C -0.04447 0.46862 0.26896
 C286 C -0.04485 0.44198 0.26527
 C287 C -0.01980 0.50961 0.27814
 C288 C -0.04333 0.52166 0.28747
 C289 C -0.04431 0.54872 0.28950
 C290 C -0.02090 0.56381 0.28331
 C291 C 0.00337 0.55204 0.27556
 C292 C 0.00344 0.52527 0.27214
 H293 H -0.02026 0.40694 0.26336
 H294 H 0.02395 0.47452 0.27982
 H295 H -0.06368 0.47953 0.26750
 H296 H -0.06121 0.51014 0.29318
 H297 H -0.02181 0.58488 0.28343
 H298 H 0.02172 0.51691 0.26452
 C299 C 0.01638 0.55593 0.75661
 C300 C 0.04016 0.54441 0.74753
 C301 C 0.03908 0.51890 0.74043
 C302 C 0.01495 0.50411 0.74370
 C303 C -0.00839 0.51584 0.75365
 C304 C -0.00805 0.54180 0.75952
 C305 C 0.01387 0.47676 0.73640
 C306 C -0.01091 0.46669 0.72807
 C307 C -0.01252 0.44075 0.72227
 C308 C 0.01130 0.42489 0.72384
 C309 C 0.03655 0.43488 0.73079
 C310 C 0.03748 0.46042 0.73784
 H311 H 0.01657 0.57632 0.76005
 H312 H 0.05715 0.51082 0.73212
 H313 H -0.02714 0.50494 0.75685
 H314 H -0.02924 0.47895 0.72595
 H315 H 0.01005 0.40447 0.72080
 H316 H 0.05674 0.46736 0.74458
 C317 C 0.31320 0.28070 0.11421
 C318 C 0.33350 0.26294 0.10821
 C319 C 0.34800 0.26482 0.08263
 C320 C 0.37126 0.24872 0.08077
 C321 C 0.38590 0.24996 0.05726
 C322 C 0.37761 0.26752 0.03501
 C323 C 0.35396 0.28312 0.03664
 C324 C 0.33927 0.28183 0.06011
 C325 C 0.39272 0.27004 0.00977
 C326 C 0.41995 0.26185 0.00752
 H327 H 0.33975 0.24709 0.12332
 H328 H 0.37824 0.23513 0.09763
 H329 H 0.40343 0.23691 0.05667
 H330 H 0.34687 0.29654 0.01970
 H331 H 0.32110 0.29408 0.06024
 H332 H 0.38250 0.28071 -0.00730
 H333 H 0.30682 0.29714 0.09989
 H334 H 0.43126 0.25382 0.02506
 C335 C 0.64953 0.74595 0.20776
 C336 C 0.64774 0.72640 0.19150
 C337 C 0.63239 0.73111 0.16634
 C338 C 0.62244 0.70965 0.15491
 C339 C 0.60824 0.71378 0.13085
 C340 C 0.60429 0.73948 0.11761
 C341 C 0.61456 0.76087 0.12887
 C342 C 0.62818 0.75680 0.15314
 C343 C 0.59094 0.74449 0.09147
 C344 C 0.56952 0.72938 0.08387
 H345 H 0.65717 0.70718 0.19757
 H346 H 0.62561 0.68968 0.16464
 H347 H 0.60104 0.69688 0.12231
 H348 H 0.61195 0.78080 0.11887
 H349 H 0.63592 0.77373 0.16128
 H350 H 0.59701 0.76179 0.07834
 H351 H 0.65930 0.74282 0.22108
 H352 H 0.56064 0.71441 0.09814
 C353 C 0.67784 0.28102 -0.19218
 C354 C 0.65929 0.26276 -0.18014
 C355 C 0.64379 0.26615 -0.15594
 C356 C 0.62215 0.24904 -0.14857
 C357 C 0.60687 0.25142 -0.12598
 C358 C 0.61290 0.27115 -0.11025
 C359 C 0.63492 0.28786 -0.11727
 C360 C 0.65023 0.28544 -0.13980
 C361 C 0.59723 0.27475 -0.08624
 C362 C 0.57113 0.26468 -0.08080
 H363 H 0.65545 0.24518 -0.18913
 H364 H 0.61700 0.23372 -0.16037
 H365 H 0.59070 0.23752 -0.12086
 H366 H 0.64029 0.30297 -0.10529
 H367 H 0.66718 0.29858 -0.14410
 H368 H 0.60598 0.28752 -0.07331
 H369 H 0.68164 0.29914 -0.18422
 H370 H 0.56093 0.25439 -0.09509
 C371 C 0.34751 0.75011 -0.15176
 C372 C 0.35381 0.72974 -0.13160
 C373 C 0.36850 0.73412 -0.10726
 C374 C 0.38367 0.71328 -0.09319
 C375 C 0.39694 0.71658 -0.06961
 C376 C 0.39494 0.74078 -0.05950
 C377 C 0.37937 0.76145 -0.07334
 C378 C 0.36639 0.75825 -0.09705
 C379 C 0.40762 0.74472 -0.03407
 C380 C 0.43112 0.73111 -0.02380
 H381 H 0.34827 0.70975 -0.13387
 H382 H 0.38519 0.69437 -0.10045
 H383 H 0.40811 0.69999 -0.05903
 H384 H 0.37717 0.78013 -0.06573
 H385 H 0.35411 0.77445 -0.10690
 H386 H 0.39910 0.76017 -0.02387
 H387 H 0.35534 0.76966 -0.15094
 H388 H 0.44195 0.71825 -0.03553
 C389 C 0.15103 0.34340 0.22849
 C390 C 0.13512 0.34352 0.25100
 C391 C 0.11002 0.36004 0.25133
 C392 C 0.10213 0.36921 0.27485
 C393 C 0.07825 0.38453 0.27576
 C394 C 0.06161 0.39056 0.25321
 C395 C 0.06921 0.38088 0.22988
 C396 C 0.09326 0.36593 0.22886
 C397 C 0.03562 0.40569 0.25366
 C398 C 0.03104 0.42481 0.27030
 H399 H 0.14194 0.33214 0.26930
 H400 H 0.11451 0.36456 0.29252
 H401 H 0.07254 0.39103 0.29426
 H402 H 0.05647 0.38491 0.21237
 H403 H 0.09830 0.35846 0.21064
 H404 H 0.02011 0.40280 0.23917
 H405 H 0.14605 0.35689 0.21090
 H406 H 0.04768 0.43043 0.28232
 C407 C 0.18467 0.65069 0.76559
 C408 C 0.16696 0.64569 0.74539
 C409 C 0.14375 0.62743 0.74969
 C410 C 0.13345 0.61596 0.72834
 C411 C 0.11078 0.59951 0.73143
 C412 C 0.09782 0.59442 0.75600
 C413 C 0.10793 0.60614 0.77726
 C414 C 0.13070 0.62241 0.77422
 C415 C 0.07287 0.57840 0.75977
 C416 C 0.06592 0.55925 0.74396
 H417 H 0.17042 0.65498 0.72545
 H418 H 0.14287 0.61989 0.70914
 H419 H 0.10305 0.59150 0.71438
 H420 H 0.09801 0.60287 0.79627
 H421 H 0.13744 0.63162 0.79090
 H422 H 0.06000 0.58112 0.77638
 H423 H 0.18277 0.63953 0.78499
 H424 H 0.08038 0.55383 0.72959
 C425 C -0.17583 0.66921 0.32380
 C426 C -0.17286 0.64685 0.31095
 C427 C -0.14732 0.63059 0.31115
 C428 C -0.14734 0.60840 0.29770
 C429 C -0.12353 0.59322 0.29599
 C430 C -0.09904 0.59981 0.30794
 C431 C -0.09905 0.62178 0.32164
 C432 C -0.12283 0.63700 0.32331
 C433 C -0.07275 0.58559 0.30505
 C434 C -0.07068 0.56087 0.29632
 H435 H -0.18991 0.64114 0.29952
 H436 H -0.16578 0.60304 0.28797
 H437 H -0.12437 0.57692 0.28462
 H438 H -0.08043 0.62746 0.33083
 H439 H -0.12144 0.65391 0.33373
 H440 H -0.05427 0.59515 0.31019
 H441 H -0.15944 0.67496 0.33593
 H442 H -0.08903 0.54972 0.29440
 C443 C -0.14970 0.32975 0.69221
 C444 C -0.14600 0.35370 0.70196
 C445 C -0.11970 0.36785 0.70054
 C446 C -0.11976 0.39458 0.70408
 C447 C -0.09525 0.40827 0.70442
 C448 C -0.07004 0.39532 0.70156
 C449 C -0.07003 0.36876 0.69743
 C450 C -0.09451 0.35507 0.69712
 C451 C -0.04338 0.40839 0.70341
 C452 C -0.03973 0.43037 0.71652
 H453 H -0.16306 0.36273 0.71100
 H454 H -0.13887 0.40490 0.70672
 H455 H -0.09631 0.42892 0.70686
 H456 H -0.05091 0.35831 0.69521
 H457 H -0.09338 0.33434 0.69505
 H458 H -0.02572 0.39914 0.69559
 H459 H -0.13343 0.32162 0.68137
 H460 H -0.05735 0.44011 0.72380
 C461 C 0.27421 0.16910 0.29935
 C462 C 0.25562 0.15819 0.31818
 C463 C 0.25986 0.13187 0.33388
 C464 C 0.24548 0.12566 0.35750
 C465 C 0.24893 0.10096 0.37273
 C466 C 0.26691 0.08192 0.36455
 C467 C 0.28070 0.08795 0.34059
 C468 C 0.27721 0.11254 0.32539
 C469 C 0.27167 0.05548 0.37984
 C470 C 0.26431 0.04855 0.40618
 H471 H 0.23748 0.16947 0.32195
 H472 H 0.23159 0.14001 0.36424
 H473 H 0.23722 0.09693 0.39061
 H474 H 0.29430 0.07353 0.33355
 H475 H 0.28782 0.11600 0.30681
 H476 H 0.28328 0.04138 0.37022
 H477 H 0.29326 0.15887 0.29651
 H478 H 0.25530 0.06327 0.41694
 C479 C 0.73914 0.15517 0.66792
 C480 C 0.75964 0.14462 0.65337
 C481 C 0.75728 0.11908 0.64296
 C482 C 0.77453 0.11384 0.62240
 C483 C 0.77269 0.09015 0.61174
 C484 C 0.75344 0.07118 0.62149
 C485 C 0.73686 0.07606 0.64264
 C486 C 0.73873 0.09969 0.65331
 C487 C 0.75000 0.04610 0.61045
 C488 C 0.75901 0.04185 0.58547
 H489 H 0.77785 0.15596 0.64847
 H490 H 0.78935 0.12823 0.61439
 H491 H 0.78654 0.08683 0.59609
 H492 H 0.72219 0.06160 0.65083
 H493 H 0.72579 0.10241 0.66982
 H494 H 0.73766 0.03127 0.62166
 H495 H 0.72014 0.14491 0.67188
 H496 H 0.76878 0.05764 0.57294
 C497 C 0.26026 -0.17394 0.65968
 C498 C 0.27969 -0.15441 0.65412
 C499 C 0.27568 -0.13199 0.63309
 C500 C 0.29811 -0.12244 0.61796
 C501 C 0.29510 -0.10036 0.59884
 C502 C 0.26973 -0.08703 0.59510
 C503 C 0.24736 -0.09639 0.61043
 C504 C 0.25018 -0.11894 0.62903
 C505 C 0.26695 -0.06223 0.57687
 C506 C 0.28035 -0.05840 0.55274
 H507 H 0.29903 -0.15624 0.66470
 H508 H 0.31800 -0.13205 0.62103
 H509 H 0.31284 -0.09314 0.58769
 H510 H 0.22775 -0.08614 0.60809
 H511 H 0.23271 -0.12561 0.64089
 H512 H 0.25391 -0.04664 0.58252
 H513 H 0.24242 -0.17414 0.64706
 H514 H 0.29020 -0.07505 0.54538
 C515 C 0.72116 -0.15384 0.36524
 C516 C 0.74248 -0.14545 0.38017
 C517 C 0.74142 -0.12042 0.39179
 C518 C 0.75933 -0.11722 0.41261
 C519 C 0.75879 -0.09398 0.42423
 C520 C 0.74022 -0.07339 0.41521
 C521 C 0.72292 -0.07630 0.39388
 C522 C 0.72349 -0.09947 0.38224
 C523 C 0.73840 -0.04851 0.42704
 C524 C 0.74855 -0.04566 0.45206
 H525 H 0.76042 -0.15806 0.38424
 H526 H 0.77371 -0.13284 0.42001
 H527 H 0.77317 -0.09225 0.43999
 H528 H 0.70875 -0.06059 0.38621
 H529 H 0.71011 -0.10058 0.36558
 H530 H 0.72670 -0.03241 0.41625
 H531 H 0.70244 -0.14229 0.36215
 H532 H 0.75767 -0.06253 0.46415
 C533 C 0.69591 0.74344 -0.10974
 C534 C 0.67122 0.75743 -0.10913
 C535 C 0.65419 0.75593 -0.08515
 C536 C 0.62587 0.76071 -0.08772
 C537 C 0.60909 0.75822 -0.06548
 C538 C 0.62048 0.75119 -0.04015
 C539 C 0.64889 0.74718 -0.03761
 C540 C 0.66560 0.74970 -0.05977
 C541 C 0.60371 0.74651 -0.01602
 C542 C 0.57663 0.75524 -0.01407
 H543 H 0.66332 0.76861 -0.12711
 H544 H 0.61661 0.76568 -0.10705
 H545 H 0.58728 0.76107 -0.06842
 H546 H 0.65823 0.74195 -0.01834
 H547 H 0.68743 0.74684 -0.05684
 H548 H 0.61338 0.73511 0.00095
 H549 H 0.70300 0.73066 -0.09241
 H550 H 0.56652 0.76617 -0.03104
 C551 C 0.34860 0.24420 -0.21311
 C552 C 0.35197 0.26602 -0.19979
 C553 C 0.36589 0.26455 -0.17391
 C554 C 0.37764 0.28738 -0.16661
 C555 C 0.39002 0.28696 -0.14187
 C556 C 0.39056 0.26368 -0.12382
 C557 C 0.37836 0.24099 -0.13094
 C558 C 0.36627 0.24133 -0.15578
 C559 C 0.40278 0.26265 -0.09722
 C560 C 0.42441 0.27857 -0.09161
 H561 H 0.34464 0.28519 -0.20892
 H562 H 0.37717 0.30563 -0.18007
 H563 H 0.39853 0.30501 -0.13673
 H564 H 0.37820 0.22293 -0.11722
 H565 H 0.35663 0.22360 -0.16042
 H566 H 0.39596 0.24739 -0.08204
 H567 H 0.35818 0.22546 -0.20563
 H568 H 0.43381 0.29138 -0.10749
 C569 C 0.31437 0.73195 0.17816
 C570 C 0.33234 0.75129 0.16716
 C571 C 0.34829 0.74918 0.14293
 C572 C 0.37121 0.76517 0.13759
 C573 C 0.38695 0.76361 0.11508
 C574 C 0.38002 0.74591 0.09738
 C575 C 0.35662 0.73053 0.10234
 C576 C 0.34089 0.73212 0.12477
 C577 C 0.39619 0.74299 0.07348
 C578 C 0.42300 0.75177 0.06941
 H579 H 0.33555 0.76838 0.17711
 H580 H 0.37708 0.77885 0.15097
 H581 H 0.40423 0.77651 0.11163
 H582 H 0.35051 0.71707 0.08882
 H583 H 0.32282 0.72019 0.12746
 H584 H 0.38712 0.73162 0.05943
 H585 H 0.31188 0.71406 0.16938
 H586 H 0.43328 0.76071 0.08464
 C587 C 0.64372 0.26447 0.14093
 C588 C 0.64140 0.28527 0.12043
 C589 C 0.62780 0.28221 0.09521
 C590 C 0.61368 0.30376 0.08112
 C591 C 0.60062 0.30121 0.05722
 C592 C 0.60190 0.27713 0.04685
 C593 C 0.61668 0.25585 0.06060
 C594 C 0.62935 0.25827 0.08463
 C595 C 0.58902 0.27375 0.02139
 C596 C 0.56533 0.28738 0.01166
 H597 H 0.64846 0.30462 0.12341
 H598 H 0.61258 0.32250 0.08874
 H599 H 0.59002 0.31820 0.04670
 H600 H 0.61829 0.23723 0.05278
 H601 H 0.64077 0.24153 0.09464
 H602 H 0.59725 0.25834 0.01096
 H603 H 0.63398 0.24592 0.13914
 H604 H 0.55478 0.30018 0.02365
 C605 C -0.14234 0.65466 0.79932
 C606 C -0.12982 0.64624 0.77740
 C607 C -0.10680 0.62699 0.77936
 C608 C -0.10283 0.61180 0.75882
 C609 C -0.08027 0.59468 0.75904
 C610 C -0.06099 0.59267 0.77973
 C611 C -0.06490 0.60791 0.80027
 C612 C -0.08771 0.62480 0.80023
 C613 C -0.03561 0.57667 0.77903
 C614 C -0.03414 0.55445 0.76596
 H615 H -0.13763 0.65330 0.75786
 H616 H -0.11706 0.61344 0.74236
 H617 H -0.07747 0.58386 0.74246
 H618 H -0.05008 0.60699 0.81619
 H619 H -0.08976 0.63678 0.81601
 H620 H -0.01761 0.58276 0.78889
 H621 H -0.13643 0.64553 0.81889
 H622 H -0.05294 0.54626 0.75953
 C623 C -0.19083 0.34290 0.23635
 C624 C -0.17320 0.34522 0.25737
 C625 C -0.14878 0.36200 0.25472
 C626 C -0.14009 0.37391 0.27638
 C627 C -0.11657 0.38921 0.27479
 C628 C -0.10100 0.39245 0.25161
 C629 C -0.10940 0.38015 0.23010
 C630 C -0.13326 0.36527 0.23150
 C631 C -0.07516 0.40719 0.25015
 C632 C -0.07152 0.42908 0.26330
 H633 H -0.17826 0.33553 0.27682
 H634 H -0.15154 0.37135 0.29457
 H635 H -0.11018 0.39784 0.29197
 H636 H -0.09747 0.38207 0.21220
 H637 H -0.13908 0.35574 0.21471
 H638 H -0.05894 0.40106 0.23787
 H639 H -0.18771 0.35478 0.21749
 H640 H -0.08904 0.43730 0.27244
 C641 C 0.16789 0.31734 0.69176
 C642 C 0.16454 0.33583 0.70928
 C643 C 0.13908 0.35161 0.71102
 C644 C 0.14022 0.37491 0.72264
 C645 C 0.11670 0.39047 0.72451
 C646 C 0.09140 0.38281 0.71499
 C647 C 0.09023 0.35935 0.70366
 C648 C 0.11370 0.34380 0.70183
 C649 C 0.06597 0.39886 0.71562
 C650 C 0.06214 0.41884 0.73148
 H651 H 0.18162 0.33967 0.72169
 H652 H 0.15950 0.38133 0.72996
 H653 H 0.11872 0.40864 0.73289
 H654 H 0.07099 0.35291 0.69630
 H655 H 0.11166 0.32559 0.69353
 H656 H 0.04948 0.39460 0.70273
 H657 H 0.15169 0.31424 0.67811
 H658 H 0.07859 0.42382 0.74402
 C659 C 0.13779 0.67238 0.28664
 C660 C 0.13235 0.65243 0.27129
 C661 C 0.10694 0.63681 0.27368
 C662 C 0.10678 0.61210 0.26460
 C663 C 0.08335 0.59657 0.26697
 C664 C 0.05942 0.60564 0.27830
 C665 C 0.05949 0.63054 0.28694
 C666 C 0.08284 0.64605 0.28452
 C667 C 0.03427 0.58976 0.28233
 C668 C 0.02870 0.56745 0.27021
 H669 H 0.14781 0.64718 0.25777
 H670 H 0.12502 0.60457 0.25604
 H671 H 0.08444 0.57737 0.26041
 H672 H 0.04131 0.63812 0.29556
 H673 H 0.08169 0.66533 0.29092
 H674 H 0.01943 0.59612 0.29587
 H675 H 0.12340 0.67680 0.30145
 H676 H 0.04361 0.56023 0.25728
 C677 C 0.75588 -0.17836 0.69157
 C678 C 0.73589 -0.15851 0.68727
 C679 C 0.73962 -0.13473 0.66788
 C680 C 0.71678 -0.12187 0.65498
 C681 C 0.71993 -0.09874 0.63733
 C682 C 0.74601 -0.08787 0.63279
 C683 C 0.76874 -0.10056 0.64599
 C684 C 0.76566 -0.12385 0.66321
 C685 C 0.75004 -0.06257 0.61581
 C686 C 0.73366 -0.05372 0.59391
 H687 H 0.71697 -0.16046 0.69824
 H688 H 0.69648 -0.12971 0.65861
 H689 H 0.70193 -0.08900 0.62793
 H690 H 0.78897 -0.09232 0.64305
 H691 H 0.78359 -0.13284 0.67347
 H692 H 0.76770 -0.05115 0.61983
 H693 H 0.77338 -0.17788 0.67864
 H694 H 0.71835 -0.06655 0.58741
 C695 C 0.24857 -0.16452 0.33960
 C696 C 0.27063 -0.14750 0.33908
 C697 C 0.26996 -0.12377 0.35271
 C698 C 0.29427 -0.11480 0.36291
 C699 C 0.29408 -0.09220 0.37562
 C700 C 0.26956 -0.07795 0.37788
 C701 C 0.24541 -0.08661 0.36713
 C702 C 0.24552 -0.10938 0.35484
 C703 C 0.26854 -0.05344 0.39025
 C704 C 0.28626 -0.04840 0.41042
 H705 H 0.28935 -0.15228 0.32939
 H706 H 0.31341 -0.12537 0.36115
 H707 H 0.31318 -0.08562 0.38309
 H708 H 0.22634 -0.07574 0.36830
 H709 H 0.22658 -0.11533 0.34648
 H710 H 0.25176 -0.03971 0.38463
 H711 H 0.23101 -0.16148 0.35170
 H712 H 0.30075 -0.06353 0.41872
 C713 C 0.70482 0.16337 0.33201
 C714 C 0.72300 0.15732 0.35293
 C715 C 0.72198 0.13197 0.37060
 C716 C 0.73980 0.12756 0.39237
 C717 C 0.74001 0.10344 0.40885
 C718 C 0.72234 0.08320 0.40384
 C719 C 0.70454 0.08761 0.38206
 C720 C 0.70419 0.11178 0.36568
 C721 C 0.72305 0.05690 0.41994
 C722 C 0.73228 0.05271 0.44605
 H723 H 0.73869 0.17134 0.35615
 H724 H 0.75385 0.14271 0.39645
 H725 H 0.75460 0.10051 0.42499
 H726 H 0.69092 0.07226 0.37763
 H727 H 0.69029 0.11443 0.34897
 H728 H 0.71517 0.04045 0.41110
 H729 H 0.70686 0.17784 0.32165
 H730 H 0.73665 0.06958 0.45599
 C731 C 0.26740 0.15249 0.62463
 C732 C 0.28899 0.13476 0.62263
 C733 C 0.28613 0.11171 0.60829
 C734 C 0.30867 0.10275 0.59493
 C735 C 0.30641 0.08079 0.58146
 C736 C 0.28165 0.06713 0.58165
 C737 C 0.25934 0.07575 0.59554
 C738 C 0.26144 0.09796 0.60855
 C739 C 0.27884 0.04316 0.56874
 C740 C 0.29289 0.03912 0.54592
 H741 H 0.30888 0.13857 0.63061
 H742 H 0.32800 0.11285 0.59479
 H743 H 0.32418 0.07418 0.57150
 H744 H 0.24019 0.06529 0.59626
 H745 H 0.24393 0.10396 0.61930
 H746 H 0.26375 0.02894 0.57652
 H747 H 0.24844 0.15046 0.61409
 H748 H 0.30515 0.05479 0.53590
   
