data_POSCAR
  _audit_creation_date              2014-09-24
  _audit_creation_method            'ToBaCCo'
  _symmetry_space_group_name_H-M    'P1'
  _symmetry_Int_Tables_number       1
  _symmetry_cell_setting            triclinic
  loop_
  _symmetry_equiv_pos_as_xyz
 x,y,z
_cell_length_a 14.4852
_cell_length_b 22.3590
_cell_length_c 14.3497
_cell_angle_alpha 90.234900
_cell_angle_beta 88.924000
_cell_angle_gamma 89.602900
loop_
  _atom_site_label
  _atom_site_type_symbol
  _atom_site_fract_x
  _atom_site_fract_y
  _atom_site_fract_z
N1 N 0.15278 0.06249 0.08612
 N2 N 0.21297 0.10650 0.08796
 N3 N 0.07078 -0.05441 0.17119
 N4 N 0.07439 -0.09700 0.23471
 N5 N 0.13703 -0.06164 0.10835
 N6 N 0.18817 -0.10875 0.12780
 N7 N 0.08803 0.07037 0.15025
 N8 N 0.10259 0.11994 0.19780
 C9 C 0.18039 0.14212 0.15772
 C10 C 0.14837 -0.13027 0.20663
 N11 N -0.18887 -0.04455 0.10282
 N12 N -0.24670 -0.08905 0.11683
 N13 N -0.10982 0.08237 0.14563
 N14 N -0.10711 0.13623 0.18358
 N15 N -0.17490 0.07963 0.08348
 N16 N -0.22159 0.13427 0.08040
 N17 N -0.12696 -0.04285 0.16838
 N18 N -0.14104 -0.08630 0.22883
 Mn19 Mn -0.01972 0.01399 0.16022
 C20 C -0.21696 -0.11403 0.19663
 C21 C -0.17564 0.16803 0.14298
 N22 N 0.14136 -0.07678 -0.09054
 N23 N 0.18269 -0.13283 -0.08239
 N24 N 0.09463 0.04669 -0.17802
 N25 N 0.10948 0.08975 -0.23910
 N26 N 0.15704 0.04782 -0.11291
 N27 N 0.21609 0.09153 -0.12804
 N28 N 0.07964 -0.07835 -0.15617
 N29 N 0.07717 -0.13208 -0.19474
 Mn30 Mn 0.14806 -0.00706 -0.00234
 C31 C 0.14016 -0.16553 -0.14840
 C32 C 0.18652 0.11670 -0.20786
 N33 N -0.16896 0.06531 -0.11655
 N34 N -0.21800 0.11366 -0.13400
 N35 N -0.11848 -0.06781 -0.15835
 N36 N -0.13457 -0.11660 -0.20745
 N37 N -0.18461 -0.05858 -0.09634
 N38 N -0.25116 -0.10281 -0.10426
 N39 N -0.10367 0.05750 -0.18027
 N40 N -0.10639 0.10086 -0.24254
 Mn41 Mn -0.18030 0.01051 -0.00666
 Mn42 Mn -0.01185 -0.01057 -0.16959
 Cl43 Cl -0.01589 0.00179 -0.00458
 C44 C -0.17909 0.13510 -0.21340
 C45 C -0.21716 -0.13741 -0.17485
 N46 N 0.63909 0.56633 0.60190
 N47 N 0.68440 0.61667 0.61328
 N48 N 0.59084 0.43464 0.64822
 N49 N 0.60457 0.38430 0.69367
 N50 N 0.65390 0.44127 0.58231
 N51 N 0.71227 0.39566 0.58113
 N52 N 0.57608 0.55989 0.66793
 N53 N 0.57759 0.60566 0.72644
 C54 C 0.64533 0.64102 0.69111
 C55 C 0.68028 0.36033 0.65074
 N56 N 0.32860 0.42591 0.58808
 N57 N 0.28243 0.37520 0.58869
 N58 N 0.37740 0.55034 0.67144
 N59 N 0.35959 0.59058 0.73689
 N60 N 0.31213 0.55050 0.60927
 N61 N 0.24776 0.59038 0.63152
 N62 N 0.39275 0.42522 0.65159
 N63 N 0.39181 0.37400 0.69700
 Mn64 Mn 0.48427 0.49254 0.66109
 C65 C 0.32300 0.34308 0.65666
 C66 C 0.27769 0.61477 0.71207
 N67 N 0.65172 0.45348 0.38345
 N68 N 0.71325 0.41129 0.36467
 N69 N 0.57335 0.57983 0.33994
 N70 N 0.57678 0.63045 0.29304
 N71 N 0.63756 0.57840 0.40321
 N72 N 0.68627 0.62800 0.40135
 N73 N 0.58855 0.45503 0.31918
 N74 N 0.60619 0.41421 0.25431
 Mn75 Mn 0.64664 0.50985 0.49274
 C76 C 0.68518 0.38772 0.28305
 C77 C 0.64720 0.66015 0.33269
 N78 N 0.31120 0.56408 0.40927
 N79 N 0.25492 0.61090 0.41244
 N80 N 0.39047 0.44576 0.32322
 N81 N 0.38786 0.40144 0.26225
 N82 N 0.32687 0.43890 0.38859
 N83 N 0.27917 0.38986 0.37371
 N84 N 0.37519 0.57103 0.34414
 N85 N 0.36455 0.62282 0.30185
 Mn86 Mn 0.31848 0.49481 0.49872
 Mn87 Mn 0.48170 0.51296 0.33037
 Cl88 Cl 0.48272 0.50260 0.49580
 C89 C 0.28909 0.64700 0.34474
 C90 C 0.31704 0.36741 0.29390
 C91 C 0.24294 0.24572 0.12115
 C92 C 0.22201 0.19939 0.18553
 C93 C 0.23532 0.20889 0.28067
 C94 C 0.26811 0.26317 0.31329
 C95 C 0.28842 0.31007 0.25198
 C96 C 0.27644 0.30166 0.15468
 C97 C 0.22706 0.23896 0.02476
 C98 C 0.24564 0.28533 -0.03720
 C99 C 0.27815 0.33971 -0.00469
 C100 C 0.29238 0.34828 0.09020
 H101 H 0.19882 0.19853 -0.00402
 H102 H 0.23333 0.27937 -0.11071
 H103 H 0.29106 0.37582 -0.05316
 H104 H 0.31431 0.39211 0.11175
 H105 H 0.21905 0.17406 0.33054
 H106 H 0.27665 0.26883 0.38768
 C107 C 0.73144 0.82236 0.33423
 C108 C 0.74387 0.83087 0.23691
 C109 C 0.71867 0.78549 0.17508
 C110 C 0.68619 0.73104 0.20785
 C111 C 0.67815 0.72005 0.30352
 C112 C 0.69860 0.76629 0.36796
 C113 C 0.74580 0.86931 0.39847
 C114 C 0.72785 0.86146 0.49328
 C115 C 0.69449 0.80721 0.52590
 C116 C 0.68051 0.75983 0.46453
 H117 H 0.76742 0.91320 0.37629
 H118 H 0.73770 0.89815 0.54147
 H119 H 0.67700 0.80241 0.59886
 H120 H 0.65099 0.71957 0.49326
 H121 H 0.72640 0.79165 0.10046
 H122 H 0.66933 0.69654 0.15784
 C123 C 0.78556 0.20177 0.64639
 C124 C 0.79142 0.19223 0.74408
 C125 C 0.76276 0.23769 0.80577
 C126 C 0.72860 0.29165 0.77338
 C127 C 0.72189 0.30257 0.67793
 C128 C 0.75020 0.25749 0.61298
 C129 C 0.80916 0.15643 0.58108
 C130 C 0.79999 0.16585 0.48572
 C131 C 0.76516 0.21979 0.45337
 C132 C 0.73957 0.26499 0.51596
 H133 H 0.83308 0.11288 0.60218
 H134 H 0.81849 0.13064 0.43667
 H135 H 0.75632 0.22625 0.37938
 H136 H 0.70962 0.30492 0.48700
 H137 H 0.76630 0.23131 0.88048
 H138 H 0.70675 0.32534 0.82382
 C139 C 0.21037 0.73722 0.89123
 C140 C 0.16031 0.77638 0.83109
 C141 C 0.13432 0.75420 0.74361
 C142 C 0.17015 0.70071 0.70878
 C143 C 0.23048 0.66562 0.76093
 C144 C 0.24561 0.68145 0.85553
 C145 C 0.22097 0.74967 0.98745
 C146 C 0.26987 0.71115 1.04467
 C147 C 0.30532 0.65778 1.00942
 C148 C 0.29171 0.64228 0.91670
 H149 H 0.18786 0.78723 1.02168
 H150 H 0.27775 0.72191 1.11763
 H151 H 0.34081 0.62719 1.05507
 H152 H 0.31426 0.59814 0.89581
 H153 H 0.09239 0.78066 0.69722
 H154 H 0.15403 0.68842 0.63783
 C155 C 0.32383 0.18046 0.74261
 C156 C 0.22713 0.17105 0.75007
 C157 C 0.16650 0.21537 0.71886
 C158 C 0.19944 0.26994 0.68656
 C159 C 0.29417 0.28207 0.68406
 C160 C 0.35772 0.23629 0.70864
 C161 C 0.38777 0.13479 0.76437
 C162 C 0.48241 0.14388 0.75385
 C163 C 0.51529 0.19786 0.71965
 C164 C 0.45405 0.24353 0.69649
 H165 H 0.36582 0.09105 0.78693
 H166 H 0.53049 0.10836 0.77041
 H167 H 0.58863 0.20390 0.70929
 H168 H 0.48330 0.28339 0.66621
 H169 H 0.09250 0.20865 0.72290
 H170 H 0.14998 0.30388 0.66646
 C171 C 0.64566 0.79878 0.80356
 C172 C 0.74222 0.81219 0.79246
 C173 C 0.79914 0.77053 0.74466
 C174 C 0.76597 0.71567 0.71555
 C175 C 0.67348 0.70000 0.72921
 C176 C 0.61149 0.74232 0.77113
 C177 C 0.58006 0.84187 0.83641
 C178 C 0.48625 0.82918 0.84187
 C179 C 0.45410 0.77453 0.81133
 C180 C 0.51525 0.73183 0.77533
 H181 H 0.59759 0.88719 0.85333
 H182 H 0.43769 0.86292 0.86683
 H183 H 0.38084 0.76608 0.81225
 H184 H 0.48462 0.69203 0.74759
 H185 H 0.87208 0.77884 0.73282
 H186 H 0.81404 0.68482 0.68168
 C187 C 0.27569 0.81312 0.28550
 C188 C 0.18329 0.81663 0.25556
 C189 C 0.12535 0.76719 0.26637
 C190 C 0.15971 0.71305 0.29981
 C191 C 0.25271 0.70718 0.32348
 C192 C 0.31053 0.75809 0.32058
 C193 C 0.33364 0.86367 0.28336
 C194 C 0.42326 0.86032 0.31640
 C195 C 0.45654 0.80697 0.35247
 C196 C 0.40148 0.75609 0.35422
 H197 H 0.30963 0.90657 0.25863
 H198 H 0.46658 0.89958 0.31557
 H199 H 0.52482 0.80547 0.38066
 H200 H 0.42989 0.71597 0.38470
 H201 H 0.05427 0.76963 0.24438
 H202 H 0.11449 0.67469 0.30293
 C203 C 0.86195 0.26652 0.20934
 C204 C 0.80133 0.22555 0.16451
 C205 C 0.71151 0.24550 0.14413
 C206 C 0.67669 0.29901 0.18035
 C207 C 0.73107 0.33623 0.23503
 C208 C 0.82630 0.32229 0.24439
 C209 C 0.95855 0.25648 0.21247
 C210 C 1.01675 0.29778 0.25353
 C211 C 0.98177 0.35110 0.28915
 C212 C 0.88812 0.36398 0.28302
 H213 H 0.99183 0.21889 0.17850
 H214 H 1.09001 0.28946 0.25459
 H215 H 1.02808 0.38370 0.31841
 H216 H 0.86672 0.40826 0.30449
 H217 H 0.66413 0.21739 0.10649
 H218 H 0.60476 0.30988 0.16903
   
