data_POSCAR
  _audit_creation_date              2014-09-24
  _audit_creation_method            'ToBaCCo'
  _symmetry_space_group_name_H-M    'P1'
  _symmetry_Int_Tables_number       1
  _symmetry_cell_setting            triclinic
  loop_
  _symmetry_equiv_pos_as_xyz
 x,y,z
_cell_length_a 16.6610
_cell_length_b 25.1835
_cell_length_c 19.5354
_cell_angle_alpha 90.000000
_cell_angle_beta 90.000000
_cell_angle_gamma 89.460700
loop_
  _atom_site_label
  _atom_site_type_symbol
  _atom_site_fract_x
  _atom_site_fract_y
  _atom_site_fract_z
B1 B -0.03751 -0.03838 0.04135
 B2 B 0.05928 -0.03344 0.06426
 B3 B 0.03542 -0.05166 -0.01613
 B4 B -0.04874 -0.01807 -0.04018
 B5 B -0.07419 0.02218 0.02694
 B6 B -0.00636 0.01193 0.09063
 B7 B 0.07410 0.05121 -0.01848
 B8 B -0.02391 0.04644 -0.04106
 B9 B 0.00232 0.06459 0.03989
 B10 B 0.08579 0.03083 0.06325
 B11 B 0.11122 -0.00918 -0.00280
 B12 B 0.04361 0.00082 -0.06817
 B13 B 0.51764 0.47496 0.56344
 B14 B 0.42160 0.46623 0.53570
 B15 B 0.45165 0.52748 0.55702
 B16 B 0.54871 0.53395 0.53239
 B17 B 0.57823 0.47599 0.49374
 B18 B 0.49862 0.43394 0.49832
 B19 B 0.45557 0.51782 0.41819
 B20 B 0.55010 0.52875 0.44642
 B21 B 0.51876 0.46577 0.42473
 B22 B 0.42280 0.45983 0.44978
 B23 B 0.39398 0.51719 0.48645
 B24 B 0.47143 0.55932 0.48464
 B25 B 0.57410 0.05121 0.51848
 B26 B 0.47609 0.04644 0.54106
 B27 B 0.50232 0.06459 0.46011
 B28 B 0.58579 0.03083 0.43675
 B29 B 0.61122 -0.00918 0.50280
 B30 B 0.54361 0.00082 0.56817
 B31 B 0.46249 -0.03838 0.45865
 B32 B 0.55928 -0.03344 0.43574
 B33 B 0.53542 -0.05166 0.51613
 B34 B 0.45126 -0.01807 0.54018
 B35 B 0.42581 0.02218 0.47306
 B36 B 0.49364 0.01193 0.40937
 B37 B -0.04443 0.51782 0.08181
 B38 B 0.05010 0.52875 0.05358
 B39 B 0.01876 0.46577 0.07527
 B40 B -0.07720 0.45983 0.05022
 B41 B -0.10602 0.51719 0.01355
 B42 B -0.02857 0.55932 0.01536
 B43 B 0.01764 0.47496 -0.06344
 B44 B -0.07840 0.46623 -0.03570
 B45 B -0.04835 0.52748 -0.05702
 B46 B 0.04871 0.53395 -0.03239
 B47 B 0.07823 0.47599 0.00626
 B48 B -0.00138 0.43394 0.00168
 B49 B 0.06669 0.45058 0.48184
 B50 B -0.03073 0.45567 0.45704
 B51 B -0.00630 0.43833 0.53891
 B52 B 0.07616 0.47241 0.56287
 B53 B 0.10234 0.51168 0.49637
 B54 B 0.03674 0.50038 0.43025
 B55 B -0.04850 0.54139 0.53754
 B56 B 0.04780 0.53693 0.56182
 B57 B 0.02599 0.55416 0.48029
 B58 B -0.05686 0.52025 0.45601
 B59 B -0.08301 0.48081 0.52344
 B60 B -0.01674 0.49156 0.58788
 B61 B 0.47041 -0.02521 -0.07413
 B62 B 0.56656 -0.02768 -0.04805
 B63 B 0.52522 0.03180 -0.07120
 B64 B 0.42905 0.03245 -0.04553
 B65 B 0.41073 -0.02549 -0.00587
 B66 B 0.49613 -0.06323 -0.00653
 B67 B 0.52784 0.02543 0.06763
 B68 B 0.43049 0.02887 0.04079
 B69 B 0.47010 -0.03058 0.06445
 B70 B 0.56808 -0.03198 0.03849
 B71 B 0.58683 0.02672 -0.00275
 B72 B 0.50139 0.06407 0.00098
 B73 B 0.45150 0.54139 -0.03754
 B74 B 0.54780 0.53693 -0.06182
 B75 B 0.52599 0.55416 0.01971
 B76 B 0.44314 0.52025 0.04399
 B77 B 0.41699 0.48081 -0.02344
 B78 B 0.48326 0.49156 -0.08788
 B79 B 0.56669 0.45058 0.01816
 B80 B 0.46927 0.45567 0.04296
 B81 B 0.49370 0.43833 -0.03891
 B82 B 0.57616 0.47241 -0.06287
 B83 B 0.60234 0.51168 0.00363
 B84 B 0.53674 0.50038 0.06975
 B85 B 0.02784 0.02543 0.43237
 B86 B -0.06951 0.02887 0.45921
 B87 B -0.02990 -0.03058 0.43555
 B88 B 0.06808 -0.03198 0.46151
 B89 B 0.08683 0.02672 0.50275
 B90 B 0.00139 0.06407 0.49902
 B91 B -0.02959 -0.02521 0.57413
 B92 B 0.06656 -0.02768 0.54805
 B93 B 0.02522 0.03180 0.57120
 B94 B -0.07095 0.03245 0.54553
 B95 B -0.08927 -0.02549 0.50587
 B96 B -0.00387 -0.06323 0.50653
 B97 B 0.78994 0.30112 0.27216
 B98 B 0.69096 0.28993 0.27986
 B99 B 0.72858 0.29762 0.20135
 B100 B 0.82108 0.27126 0.19947
 B101 B 0.84007 0.24279 0.27741
 B102 B 0.75827 0.25485 0.32833
 B103 B 0.71006 0.19258 0.22154
 B104 B 0.80895 0.20596 0.21022
 B105 B 0.77082 0.19471 0.28974
 B106 B 0.67812 0.22342 0.29441
 B107 B 0.65980 0.25046 0.21719
 B108 B 0.73991 0.23865 0.16568
 B109 B 0.72469 0.80630 0.78228
 B110 B 0.69971 0.79600 0.69890
 B111 B 0.79623 0.80452 0.72271
 B112 B 0.81247 0.77369 0.79858
 B113 B 0.72314 0.74724 0.82251
 B114 B 0.65323 0.76234 0.76093
 B115 B 0.76923 0.69991 0.70215
 B116 B 0.79410 0.70838 0.78526
 B117 B 0.69629 0.70181 0.76268
 B118 B 0.68208 0.73156 0.68682
 B119 B 0.77183 0.75887 0.66349
 B120 B 0.84096 0.74370 0.72430
 B121 B 0.28811 0.20147 0.72440
 B122 B 0.18769 0.21133 0.71803
 B123 B 0.22768 0.20376 0.79594
 B124 B 0.31866 0.23140 0.79703
 B125 B 0.33448 0.26033 0.71922
 B126 B 0.25223 0.24726 0.66939
 B127 B 0.20287 0.30887 0.77703
 B128 B 0.30266 0.29662 0.78700
 B129 B 0.26216 0.30723 0.70800
 B130 B 0.17087 0.27767 0.70449
 B131 B 0.15558 0.25021 0.78187
 B132 B 0.23636 0.26289 0.83198
 B133 B 0.21270 0.80059 0.24162
 B134 B 0.30934 0.78796 0.21708
 B135 B 0.28743 0.79692 0.30048
 B136 B 0.19731 0.77077 0.31761
 B137 B 0.16315 0.74334 0.24397
 B138 B 0.23336 0.75460 0.18082
 B139 B 0.30001 0.69083 0.27745
 B140 B 0.20607 0.70539 0.30327
 B141 B 0.22756 0.69507 0.21895
 B142 B 0.31888 0.72169 0.20194
 B143 B 0.35324 0.74832 0.27661
 B144 B 0.28382 0.73712 0.33852
 B145 B 0.26923 0.69991 0.79785
 B146 B 0.29410 0.70838 0.71474
 B147 B 0.19629 0.70181 0.73732
 B148 B 0.18208 0.73156 0.81318
 B149 B 0.27183 0.75887 0.83651
 B150 B 0.34096 0.74370 0.77570
 B151 B 0.22469 0.80630 0.71772
 B152 B 0.19971 0.79600 0.80110
 B153 B 0.29623 0.80452 0.77729
 B154 B 0.31247 0.77369 0.70142
 B155 B 0.22314 0.74724 0.67749
 B156 B 0.15323 0.76234 0.73907
 B157 B 0.21006 0.19258 0.27846
 B158 B 0.30895 0.20596 0.28978
 B159 B 0.27082 0.19471 0.21026
 B160 B 0.17812 0.22342 0.20559
 B161 B 0.15980 0.25046 0.28281
 B162 B 0.23991 0.23865 0.33432
 B163 B 0.28994 0.30112 0.22784
 B164 B 0.19096 0.28993 0.22014
 B165 B 0.22858 0.29762 0.29865
 B166 B 0.32108 0.27126 0.30053
 B167 B 0.34007 0.24279 0.22259
 B168 B 0.25827 0.25485 0.17167
 B169 B 0.80001 0.69083 0.22255
 B170 B 0.70607 0.70539 0.19673
 B171 B 0.72756 0.69507 0.28105
 B172 B 0.81888 0.72169 0.29806
 B173 B 0.85324 0.74832 0.22339
 B174 B 0.78382 0.73712 0.16148
 B175 B 0.71270 0.80059 0.25838
 B176 B 0.80934 0.78796 0.28292
 B177 B 0.78743 0.79692 0.19952
 B178 B 0.69731 0.77077 0.18239
 B179 B 0.66315 0.74334 0.25603
 B180 B 0.73336 0.75460 0.31918
 B181 B 0.72768 0.20376 0.70406
 B182 B 0.68769 0.21133 0.78197
 B183 B 0.78811 0.20147 0.77560
 B184 B 0.81866 0.23140 0.70297
 B185 B 0.73636 0.26289 0.66802
 B186 B 0.65558 0.25021 0.71813
 B187 B 0.76216 0.30723 0.79200
 B188 B 0.80266 0.29662 0.71300
 B189 B 0.70287 0.30887 0.72297
 B190 B 0.67087 0.27767 0.79551
 B191 B 0.75223 0.24726 0.83061
 B192 B 0.83448 0.26033 0.78078
 C193 C 0.14507 0.44755 0.86402
 C194 C 0.06130 0.44277 0.87401
 C195 C 0.02594 0.39667 0.84737
 C196 C 0.07050 0.35764 0.81310
 C197 C 0.15421 0.36048 0.80696
 C198 C 0.19092 0.40583 0.83508
 H199 H 0.17698 0.48057 0.88641
 H200 H -0.03479 0.38670 0.85867
 H201 H 0.03899 0.32263 0.79634
 H202 H 0.25513 0.40820 0.83974
 C203 C 0.46149 0.58192 0.31279
 C204 C 0.41810 0.54432 0.35027
 C205 C 0.33429 0.54605 0.34392
 C206 C 0.29589 0.59077 0.31713
 C207 C 0.34070 0.63495 0.29596
 C208 C 0.42372 0.62877 0.29097
 H209 H 0.52515 0.57767 0.30544
 H210 H 0.29806 0.51560 0.36629
 H211 H 0.23137 0.59052 0.31488
 H212 H 0.45891 0.66149 0.27310
 C213 C 0.86077 0.94826 0.66399
 C214 C 0.93600 0.93765 0.63468
 C215 C 0.96764 0.88556 0.64269
 C216 C 0.92663 0.84619 0.67687
 C217 C 0.84835 0.85508 0.69994
 C218 C 0.81685 0.90720 0.69444
 H219 H 0.83218 0.98668 0.65708
 H220 H 1.02101 0.87224 0.61646
 H221 H 0.95462 0.80727 0.67898
 H222 H 0.75646 0.91624 0.70835
 C223 C 0.53405 0.10540 0.15328
 C224 C 0.57041 0.05871 0.12861
 C225 C 0.65428 0.05353 0.13877
 C226 C 0.69948 0.09560 0.16559
 C227 C 0.66199 0.14127 0.19276
 C228 C 0.57806 0.14460 0.18648
 H229 H 0.47302 0.11527 0.14125
 H230 H 0.68688 0.01999 0.11746
 H231 H 0.76356 0.09341 0.15941
 H232 H 0.54588 0.18002 0.20209
 C233 C 0.85135 0.05427 0.34814
 C234 C 0.86308 0.06214 0.41840
 C235 C 0.82797 0.10768 0.44867
 C236 C 0.79296 0.14757 0.40837
 C237 C 0.79219 0.14334 0.33655
 C238 C 0.81721 0.09456 0.30803
 H239 H 0.87731 0.02019 0.32243
 H240 H 0.83354 0.11512 0.50301
 H241 H 0.77159 0.18320 0.43370
 H242 H 0.81898 0.08880 0.25411
 C243 C 0.32283 0.38772 0.54749
 C244 C 0.35564 0.43374 0.57665
 C245 C 0.33941 0.44475 0.64567
 C246 C 0.30330 0.40650 0.68671
 C247 C 0.28083 0.35714 0.65977
 C248 C 0.28505 0.35025 0.58836
 H249 H 0.33185 0.37808 0.49406
 H250 H 0.36327 0.47957 0.67039
 H251 H 0.30156 0.41409 0.74034
 H252 H 0.26523 0.31410 0.56399
 C253 C 0.62155 0.93948 0.83534
 C254 C 0.63121 0.94029 0.90667
 C255 C 0.68400 0.90273 0.93623
 C256 C 0.71881 0.86241 0.89594
 C257 C 0.70033 0.85825 0.82565
 C258 C 0.65281 0.89839 0.79646
 H259 H 0.58028 0.96645 0.80994
 H260 H 0.69381 0.90190 0.99100
 H261 H 0.75577 0.83258 0.92088
 H262 H 0.63580 0.89801 0.74378
 C263 C 0.08818 0.62559 0.08874
 C264 C 0.11003 0.57114 0.09000
 C265 C 0.18223 0.55795 0.12375
 C266 C 0.22318 0.59655 0.16303
 C267 C 0.19127 0.64853 0.17092
 C268 C 0.12549 0.66234 0.12975
 H269 H 0.03779 0.64096 0.05999
 H270 H 0.20723 0.51828 0.11968
 H271 H 0.27948 0.58537 0.18620
 H272 H 0.10075 0.70216 0.12892
 C273 C 0.34812 0.91592 0.11137
 C274 C 0.43053 0.92769 0.11919
 C275 C 0.47670 0.89094 0.15779
 C276 C 0.44089 0.84527 0.18743
 C277 C 0.35928 0.83293 0.17484
 C278 C 0.31645 0.86761 0.13207
 H279 H 0.30791 0.94202 0.08340
 H280 H 0.54054 0.89691 0.16401
 H281 H 0.47698 0.81971 0.21992
 H282 H 0.25633 0.85866 0.11579
 C283 C 0.60712 0.43323 0.32119
 C284 C 0.54620 0.42268 0.36775
 C285 C 0.52045 0.36898 0.37349
 C286 C 0.56407 0.32703 0.34430
 C287 C 0.63243 0.33743 0.30560
 C288 C 0.64952 0.39135 0.29063
 H289 H 0.62488 0.47345 0.31082
 H290 H 0.46982 0.35836 0.40520
 H291 H 0.54586 0.28659 0.35430
 H292 H 0.70071 0.40195 0.26037
 C293 C 0.95604 0.60109 0.84498
 C294 C 0.91032 0.56860 0.88881
 C295 C 0.82930 0.58366 0.89953
 C296 C 0.79796 0.63095 0.87371
 C297 C 0.84112 0.66203 0.82746
 C298 C 0.92148 0.64658 0.81360
 H299 H 1.01893 0.59217 0.83631
 H300 H 0.79002 0.56089 0.93214
 H301 H 0.73845 0.64248 0.88968
 H302 H 0.95754 0.66941 0.77837
 C303 C 0.01704 0.12642 0.63068
 C304 C 0.05289 0.07480 0.62855
 C305 C 0.12539 0.06832 0.66351
 C306 C 0.15960 0.10998 0.69925
 C307 C 0.13208 0.16274 0.69154
 C308 C 0.05782 0.17017 0.65901
 H309 H -0.03925 0.13435 0.60477
 H310 H 0.16144 0.03309 0.65879
 H311 H 0.21454 0.10090 0.72550
 H312 H 0.03191 0.20960 0.65429
 C313 C 0.10085 0.35592 0.44710
 C314 C 0.12510 0.40824 0.44952
 C315 C 0.19401 0.42343 0.41265
 C316 C 0.23132 0.38824 0.36688
 C317 C 0.19772 0.33826 0.35606
 C318 C 0.13551 0.32177 0.40091
 H319 H 0.05084 0.34180 0.47653
 H320 H 0.21619 0.46323 0.41684
 H321 H 0.28291 0.40103 0.33767
 H322 H 0.11030 0.28239 0.40005
 C323 C 0.36705 0.56871 0.85604
 C324 C 0.38923 0.57969 0.92451
 C325 C 0.35635 0.62458 0.95615
 C326 C 0.30979 0.66024 0.91775
 C327 C 0.29726 0.65225 0.84650
 C328 C 0.32329 0.60459 0.81791
 H329 H 0.38612 0.53340 0.82894
 H330 H 0.36936 0.63326 1.00930
 H331 H 0.28807 0.69557 0.94351
 H332 H 0.31358 0.59499 0.76500
 C333 C 0.61180 0.14502 0.55064
 C334 C 0.63201 0.09175 0.55339
 C335 C 0.69599 0.07494 0.59629
 C336 C 0.73186 0.11062 0.64164
 C337 C 0.70094 0.16227 0.64684
 C338 C 0.64415 0.17938 0.59704
 H339 H 0.56651 0.16024 0.51653
 H340 H 0.71550 0.03384 0.59755
 H341 H 0.78040 0.09717 0.67434
 H342 H 0.62112 0.21960 0.59414
 C343 C 0.87709 0.87518 0.04517
 C344 C 0.90384 0.92122 0.07774
 C345 C 0.88111 0.93042 0.14616
 C346 C 0.84109 0.89238 0.18307
 C347 C 0.81996 0.84422 0.15324
 C348 C 0.83527 0.83700 0.08253
 H349 H 0.89135 0.86758 -0.00799
 H350 H 0.89680 0.96615 0.17356
 H351 H 0.82947 0.90119 0.23582
 H352 H 0.81813 0.80107 0.05620
 C353 C 0.95962 0.10268 0.84253
 C354 C 0.92718 0.08418 0.90497
 C355 C 0.84754 0.09901 0.92000
 C356 C 0.80574 0.13528 0.87941
 C357 C 0.83621 0.15374 0.81633
 C358 C 0.91441 0.13658 0.79871
 H359 H 1.02017 0.09160 0.82789
 H360 H 0.81855 0.08604 0.96657
 H361 H 0.74918 0.14974 0.89943
 H362 H 0.94184 0.15136 0.75266
 C363 C 0.05322 0.63165 0.61349
 C364 C 0.07760 0.57833 0.61840
 C365 C 0.12242 0.56281 0.67631
 C366 C 0.15085 0.60120 0.72240
 C367 C 0.13865 0.65558 0.70914
 C368 C 0.08275 0.66942 0.65787
 H369 H 0.01535 0.64551 0.57221
 H370 H 0.13691 0.52140 0.68533
 H371 H 0.18392 0.58813 0.76648
 H372 H 0.06647 0.71029 0.64723
 C373 C 0.63848 0.94144 0.32202
 C374 C 0.59337 0.92576 0.37966
 C375 C 0.57156 0.87250 0.38458
 C376 C 0.60016 0.83532 0.33890
 C377 C 0.65633 0.84863 0.28759
 C378 C 0.66849 0.90314 0.27558
 H379 H 0.65164 0.98292 0.31336
 H380 H 0.53411 0.85816 0.42547
 H381 H 0.58245 0.79494 0.34891
 H382 H 0.70163 0.91644 0.23180
 C383 C 0.34168 0.40569 0.08554
 C384 C 0.42234 0.41840 0.09783
 C385 C 0.45708 0.39924 0.15920
 C386 C 0.41350 0.36586 0.20403
 C387 C 0.33430 0.35029 0.18866
 C388 C 0.30077 0.37048 0.12746
 H389 H 0.31089 0.41951 0.04005
 H390 H 0.51833 0.40918 0.17205
 H391 H 0.44318 0.34993 0.24873
 H392 H 0.24368 0.35707 0.10850
 C393 C 0.62809 0.63110 0.03494
 C394 C 0.55716 0.60670 0.05802
 C395 C 0.53304 0.61688 0.12605
 C396 C 0.58175 0.64659 0.17003
 C397 C 0.65221 0.67010 0.14674
 C398 C 0.67348 0.66316 0.07772
 H399 H 0.65406 0.62159 -0.01404
 H400 H 0.48113 0.59735 0.14746
 H401 H 0.56769 0.64924 0.22336
 H402 H 0.72804 0.67974 0.05708
 C403 C 0.14460 0.87764 0.96214
 C404 C 0.06506 0.89439 0.94932
 C405 C 0.02543 0.87391 0.89171
 C406 C 0.06707 0.84167 0.84513
 C407 C 0.15018 0.83215 0.85322
 C408 C 0.18713 0.84881 0.91390
 H409 H 0.17781 0.89169 1.00605
 H410 H -0.03573 0.88568 0.88001
 H411 H 0.03542 0.82709 0.80064
 H412 H 0.24985 0.84052 0.92425
 C413 C 0.48990 0.11903 0.34785
 C414 C 0.48004 0.11776 0.41975
 C415 C 0.42671 0.15409 0.44903
 C416 C 0.37134 0.18071 0.40841
 C417 C 0.37118 0.17413 0.33641
 C418 C 0.43462 0.14610 0.30700
 H419 H 0.53414 0.09409 0.32256
 H420 H 0.42468 0.16029 0.50341
 H421 H 0.32858 0.20603 0.43464
 H422 H 0.43881 0.14341 0.25243
 C423 C 0.91622 0.35029 0.55234
 C424 C 0.96994 0.38613 0.58090
 C425 C 0.97931 0.38562 0.65299
 C426 C 0.92501 0.35861 0.69448
 C427 C 0.86321 0.32934 0.66577
 C428 C 0.86271 0.32316 0.59363
 H429 H 0.91232 0.34474 0.49794
 H430 H 1.02278 0.41081 0.67792
 H431 H 0.92898 0.36199 0.74899
 H432 H 0.82047 0.29788 0.56760
 C433 C 0.96149 0.58192 0.18721
 C434 C 0.91810 0.54432 0.14973
 C435 C 0.83429 0.54605 0.15608
 C436 C 0.79589 0.59077 0.18287
 C437 C 0.84070 0.63495 0.20404
 C438 C 0.92372 0.62877 0.20903
 H439 H 1.02515 0.57767 0.19456
 H440 H 0.79806 0.51560 0.13371
 H441 H 0.73137 0.59052 0.18512
 H442 H 0.95891 0.66149 0.22690
 C443 C 0.64507 0.44755 0.63598
 C444 C 0.56130 0.44277 0.62599
 C445 C 0.52594 0.39667 0.65263
 C446 C 0.57050 0.35764 0.68690
 C447 C 0.65421 0.36048 0.69304
 C448 C 0.69092 0.40583 0.66492
 H449 H 0.67698 0.48057 0.61359
 H450 H 0.46521 0.38670 0.64133
 H451 H 0.53899 0.32263 0.70366
 H452 H 0.75513 0.40820 0.66026
 C453 C 0.03405 0.10540 0.34672
 C454 C 0.07041 0.05871 0.37139
 C455 C 0.15428 0.05353 0.36123
 C456 C 0.19948 0.09560 0.33441
 C457 C 0.16199 0.14127 0.30724
 C458 C 0.07806 0.14460 0.31352
 H459 H -0.02698 0.11527 0.35875
 H460 H 0.18688 0.01999 0.38254
 H461 H 0.26356 0.09341 0.34059
 H462 H 0.04588 0.18002 0.29791
 C463 C 0.36077 0.94826 0.83601
 C464 C 0.43600 0.93765 0.86531
 C465 C 0.46764 0.88556 0.85731
 C466 C 0.42663 0.84619 0.82313
 C467 C 0.34835 0.85508 0.80006
 C468 C 0.31685 0.90720 0.80556
 H469 H 0.33218 0.98668 0.84292
 H470 H 0.52101 0.87224 0.88354
 H471 H 0.45462 0.80727 0.82102
 H472 H 0.25646 0.91624 0.79165
 C473 C 0.12155 0.93948 0.66466
 C474 C 0.13121 0.94029 0.59333
 C475 C 0.18400 0.90273 0.56377
 C476 C 0.21881 0.86241 0.60405
 C477 C 0.20033 0.85825 0.67435
 C478 C 0.15281 0.89839 0.70354
 H479 H 0.08028 0.96645 0.69006
 H480 H 0.19381 0.90190 0.50900
 H481 H 0.25577 0.83258 0.57912
 H482 H 0.13580 0.89801 0.75622
 C483 C 0.58818 0.62559 0.41126
 C484 C 0.61003 0.57114 0.41000
 C485 C 0.68223 0.55795 0.37625
 C486 C 0.72318 0.59655 0.33697
 C487 C 0.69127 0.64853 0.32908
 C488 C 0.62549 0.66234 0.37025
 H489 H 0.53779 0.64096 0.44001
 H490 H 0.70723 0.51828 0.38032
 H491 H 0.77948 0.58537 0.31380
 H492 H 0.60075 0.70216 0.37108
 C493 C 0.35135 0.05427 0.15186
 C494 C 0.36308 0.06214 0.08160
 C495 C 0.32797 0.10768 0.05133
 C496 C 0.29296 0.14757 0.09163
 C497 C 0.29219 0.14334 0.16345
 C498 C 0.31721 0.09456 0.19197
 H499 H 0.37731 0.02019 0.17757
 H500 H 0.33354 0.11512 -0.00301
 H501 H 0.27159 0.18320 0.06630
 H502 H 0.31898 0.08880 0.24589
 C503 C 0.82283 0.38772 0.95251
 C504 C 0.85564 0.43374 0.92335
 C505 C 0.83941 0.44475 0.85433
 C506 C 0.80330 0.40650 0.81329
 C507 C 0.78083 0.35714 0.84023
 C508 C 0.78505 0.35025 0.91164
 H509 H 0.83185 0.37808 1.00594
 H510 H 0.86327 0.47957 0.82961
 H511 H 0.80156 0.41409 0.75966
 H512 H 0.76523 0.31410 0.93601
 C513 C 0.51704 0.12642 0.86932
 C514 C 0.55289 0.07480 0.87145
 C515 C 0.62539 0.06832 0.83649
 C516 C 0.65960 0.10998 0.80075
 C517 C 0.63208 0.16274 0.80846
 C518 C 0.55782 0.17017 0.84099
 H519 H 0.46075 0.13435 0.89523
 H520 H 0.66144 0.03309 0.84121
 H521 H 0.71454 0.10090 0.77450
 H522 H 0.53191 0.20960 0.84571
 C523 C 0.45604 0.60109 0.65502
 C524 C 0.41032 0.56860 0.61119
 C525 C 0.32930 0.58366 0.60047
 C526 C 0.29796 0.63095 0.62629
 C527 C 0.34112 0.66203 0.67254
 C528 C 0.42148 0.64658 0.68640
 H529 H 0.51893 0.59217 0.66369
 H530 H 0.29002 0.56089 0.56786
 H531 H 0.23845 0.64248 0.61032
 H532 H 0.45754 0.66941 0.72163
 C533 C 0.10712 0.43323 0.17881
 C534 C 0.04620 0.42268 0.13225
 C535 C 0.02045 0.36898 0.12651
 C536 C 0.06407 0.32703 0.15570
 C537 C 0.13243 0.33743 0.19440
 C538 C 0.14952 0.39135 0.20937
 H539 H 0.12488 0.47345 0.18918
 H540 H -0.03018 0.35836 0.09480
 H541 H 0.04586 0.28659 0.14570
 H542 H 0.20071 0.40195 0.23963
 C543 C 0.84812 0.91592 0.38863
 C544 C 0.93053 0.92769 0.38081
 C545 C 0.97670 0.89094 0.34221
 C546 C 0.94089 0.84527 0.31257
 C547 C 0.85928 0.83293 0.32516
 C548 C 0.81645 0.86761 0.36793
 H549 H 0.80791 0.94202 0.41660
 H550 H 1.04054 0.89691 0.33599
 H551 H 0.97698 0.81971 0.28008
 H552 H 0.75633 0.85866 0.38421
 C553 C 0.86705 0.56871 0.64396
 C554 C 0.88923 0.57969 0.57549
 C555 C 0.85635 0.62458 0.54385
 C556 C 0.80979 0.66024 0.58225
 C557 C 0.79726 0.65225 0.65350
 C558 C 0.82329 0.60459 0.68209
 H559 H 0.88612 0.53340 0.67106
 H560 H 0.86936 0.63326 0.49070
 H561 H 0.78807 0.69557 0.55649
 H562 H 0.81358 0.59499 0.73500
 C563 C 0.60085 0.35592 0.05290
 C564 C 0.62510 0.40824 0.05048
 C565 C 0.69401 0.42343 0.08735
 C566 C 0.73132 0.38824 0.13312
 C567 C 0.69772 0.33826 0.14394
 C568 C 0.63551 0.32177 0.09909
 H569 H 0.55084 0.34180 0.02347
 H570 H 0.71619 0.46323 0.08316
 H571 H 0.78291 0.40103 0.16233
 H572 H 0.61030 0.28239 0.09995
 C573 C 0.37709 0.87518 0.45483
 C574 C 0.40384 0.92122 0.42226
 C575 C 0.38111 0.93042 0.35384
 C576 C 0.34109 0.89238 0.31693
 C577 C 0.31996 0.84422 0.34676
 C578 C 0.33527 0.83700 0.41747
 H579 H 0.39135 0.86758 0.50799
 H580 H 0.39680 0.96615 0.32644
 H581 H 0.32947 0.90119 0.26418
 H582 H 0.31813 0.80107 0.44380
 C583 C 0.11180 0.14502 0.94936
 C584 C 0.13201 0.09175 0.94661
 C585 C 0.19599 0.07494 0.90371
 C586 C 0.23186 0.11062 0.85836
 C587 C 0.20094 0.16227 0.85316
 C588 C 0.14415 0.17938 0.90296
 H589 H 0.06651 0.16024 0.98347
 H590 H 0.21550 0.03384 0.90245
 H591 H 0.28040 0.09717 0.82566
 H592 H 0.12112 0.21960 0.90586
 C593 C 0.13848 0.94144 0.17798
 C594 C 0.09337 0.92576 0.12034
 C595 C 0.07156 0.87250 0.11542
 C596 C 0.10016 0.83532 0.16110
 C597 C 0.15633 0.84863 0.21241
 C598 C 0.16849 0.90314 0.22442
 H599 H 0.15164 0.98292 0.18664
 H600 H 0.03411 0.85816 0.07453
 H601 H 0.08245 0.79494 0.15109
 H602 H 0.20163 0.91644 0.26820
 C603 C 0.84168 0.40569 0.41446
 C604 C 0.92234 0.41840 0.40217
 C605 C 0.95708 0.39924 0.34080
 C606 C 0.91350 0.36586 0.29597
 C607 C 0.83430 0.35029 0.31134
 C608 C 0.80077 0.37048 0.37254
 H609 H 0.81089 0.41951 0.45995
 H610 H 1.01833 0.40918 0.32795
 H611 H 0.94318 0.34993 0.25127
 H612 H 0.74368 0.35707 0.39150
 C613 C 0.45962 0.10268 0.65747
 C614 C 0.42718 0.08418 0.59503
 C615 C 0.34754 0.09901 0.58000
 C616 C 0.30574 0.13528 0.62059
 C617 C 0.33621 0.15374 0.68367
 C618 C 0.41441 0.13658 0.70129
 H619 H 0.52017 0.09160 0.67211
 H620 H 0.31855 0.08604 0.53343
 H621 H 0.24918 0.14974 0.60057
 H622 H 0.44184 0.15136 0.74734
 C623 C 0.55322 0.63165 0.88651
 C624 C 0.57760 0.57833 0.88160
 C625 C 0.62242 0.56281 0.82369
 C626 C 0.65085 0.60120 0.77760
 C627 C 0.63865 0.65558 0.79086
 C628 C 0.58275 0.66942 0.84213
 H629 H 0.51535 0.64551 0.92779
 H630 H 0.63691 0.52140 0.81467
 H631 H 0.68392 0.58813 0.73352
 H632 H 0.56647 0.71029 0.85277
 C633 C 0.41622 0.35029 0.94766
 C634 C 0.46994 0.38613 0.91910
 C635 C 0.47931 0.38562 0.84701
 C636 C 0.42501 0.35861 0.80552
 C637 C 0.36321 0.32934 0.83423
 C638 C 0.36271 0.32316 0.90637
 H639 H 0.41232 0.34474 1.00206
 H640 H 0.52278 0.41081 0.82208
 H641 H 0.42898 0.36199 0.75101
 H642 H 0.32047 0.29788 0.93240
 C643 C 0.98990 0.11903 0.15215
 C644 C 0.98004 0.11776 0.08025
 C645 C 0.92671 0.15409 0.05097
 C646 C 0.87134 0.18071 0.09159
 C647 C 0.87118 0.17413 0.16359
 C648 C 0.93462 0.14610 0.19300
 H649 H 1.03414 0.09409 0.17744
 H650 H 0.92468 0.16029 -0.00341
 H651 H 0.82858 0.20603 0.06536
 H652 H 0.93881 0.14341 0.24757
 C653 C 0.64460 0.87764 0.53786
 C654 C 0.56506 0.89439 0.55068
 C655 C 0.52543 0.87391 0.60829
 C656 C 0.56707 0.84167 0.65487
 C657 C 0.65018 0.83215 0.64678
 C658 C 0.68713 0.84881 0.58610
 H659 H 0.67781 0.89169 0.49395
 H660 H 0.46427 0.88568 0.61999
 H661 H 0.53542 0.82709 0.69936
 H662 H 0.74985 0.84052 0.57575
 C663 C 0.12809 0.63110 0.46506
 C664 C 0.05716 0.60670 0.44198
 C665 C 0.03304 0.61688 0.37395
 C666 C 0.08175 0.64659 0.32997
 C667 C 0.15221 0.67010 0.35326
 C668 C 0.17348 0.66316 0.42228
 H669 H 0.15406 0.62159 0.51404
 H670 H -0.01887 0.59735 0.35254
 H671 H 0.06769 0.64924 0.27664
 H672 H 0.22804 0.67974 0.44292
   
