data_POSCAR
  _audit_creation_date              2014-09-24
  _audit_creation_method            'ToBaCCo'
  _symmetry_space_group_name_H-M    'P1'
  _symmetry_Int_Tables_number       1
  _symmetry_cell_setting            triclinic
  loop_
  _symmetry_equiv_pos_as_xyz
 x,y,z
_cell_length_a 27.4642
_cell_length_b 25.8569
_cell_length_c 55.9921
_cell_angle_alpha 87.288900
_cell_angle_beta 88.081400
_cell_angle_gamma 120.698200
loop_
  _atom_site_label
  _atom_site_type_symbol
  _atom_site_fract_x
  _atom_site_fract_y
  _atom_site_fract_z
C1 C -0.01856 0.07709 0.52736
 H2 H 0.02173 0.07907 0.52568
 C3 C -0.02467 0.11641 0.54162
 H4 H 0.01174 0.14898 0.55049
 C5 C -0.11341 0.03409 0.51638
 H6 H -0.14747 0.00261 0.50616
 C7 C -0.12142 0.07272 0.53049
 H8 H -0.16199 0.07032 0.53121
 N9 N -0.06264 0.03670 0.51527
 C10 C -0.02044 -0.10143 0.50345
 H11 H -0.01746 -0.09928 0.48407
 C12 C -0.01376 -0.14429 0.51667
 H13 H -0.00518 -0.17487 0.50736
 C14 C -0.03704 -0.06538 0.53912
 H15 H -0.04712 -0.03527 0.54782
 C16 C -0.03094 -0.10775 0.55304
 H17 H -0.03474 -0.10819 0.57234
 Zn18 Zn -0.04704 -0.01126 0.49567
 N19 N -0.03192 -0.06313 0.51479
 C20 C 0.06691 0.04438 0.47578
 N21 N 0.01683 0.04292 0.47496
 C22 C 0.01199 0.08379 0.46066
 C23 C 0.05843 0.12802 0.44613
 C24 C 0.11465 0.08815 0.46170
 C25 C -0.15773 -0.10513 0.49060
 C26 C -0.20346 -0.14766 0.47865
 C27 C -0.15009 -0.09909 0.44100
 C28 C -0.10531 -0.05771 0.45371
 N29 N -0.10983 -0.06143 0.47805
 H30 H 0.07038 0.01260 0.48776
 H31 H -0.02802 0.08250 0.46083
 H32 H 0.05253 0.15994 0.43541
 H33 H 0.15425 0.08876 0.46285
 H34 H -0.15979 -0.10780 0.50999
 H35 H -0.24081 -0.18256 0.48912
 H36 H -0.14378 -0.09485 0.42172
 H37 H -0.06632 -0.02380 0.44405
 C38 C -0.02008 -0.14861 0.54177
 C39 C -0.07690 0.11417 0.54351
 C40 C -0.20016 -0.14561 0.45348
 C41 C 0.11112 0.13099 0.44657
 C42 C 1.11690 0.06350 0.12349
 H43 H 1.11584 0.10385 0.12672
 C44 C 1.15814 0.06656 0.10733
 H45 H 1.18873 0.10950 0.09802
 C46 C 1.07874 -0.04133 0.13213
 H47 H 1.04790 -0.08307 0.14204
 C48 C 1.11984 -0.04016 0.11627
 H49 H 1.11933 -0.08164 0.11374
 N50 N 1.07818 0.01016 0.13541
 C51 C 0.94158 0.04055 0.15680
 H52 H 0.94032 0.03347 0.17606
 C53 C 0.89980 0.04789 0.14641
 H54 H 0.86685 0.04722 0.15784
 C55 C 0.98360 0.04535 0.11848
 H56 H 1.01470 0.04152 0.10762
 C57 C 0.94262 0.05283 0.10733
 H58 H 0.94352 0.05498 0.08799
 Zn59 Zn 1.02749 0.01331 0.15804
 N60 N 0.98193 0.03862 0.14279
 C61 C 1.07214 0.11837 0.18456
 N62 N 1.07236 0.06702 0.18062
 C63 C 1.10693 0.05261 0.19225
 C64 C 1.14213 0.08960 0.20909
 C65 C 1.10736 0.15732 0.20108
 C66 C 0.93717 -0.10564 0.16006
 C67 C 0.89115 -0.15858 0.17103
 C68 C 0.92769 -0.12498 0.20951
 C69 C 0.97262 -0.07248 0.19779
 N70 N 0.97607 -0.06336 0.17354
 H71 H 1.04495 0.12943 0.17481
 H72 H 1.10680 0.01188 0.18849
 H73 H 1.16895 0.07668 0.21821
 H74 H 1.10539 0.19725 0.20386
 H75 H 0.94030 -0.09673 0.14082
 H76 H 0.85950 -0.19051 0.15994
 H77 H 0.92572 -0.12876 0.22884
 H78 H 1.00286 -0.03771 0.20830
 C79 C 0.89929 0.05306 0.12138
 C80 C 1.16054 0.01462 0.10381
 C81 C 0.88493 -0.16838 0.19615
 C82 C 1.14326 0.14313 0.21367
 C83 C 0.10168 0.97061 0.87494
 H84 H 0.06346 0.92690 0.87467
 C85 C 0.14709 0.97637 0.88741
 H86 H 0.14324 0.93642 0.89643
 C87 C 0.15358 1.07448 0.86189
 H88 H 0.15630 1.11225 0.85150
 C89 C 0.20021 1.08226 0.87408
 H90 H 0.23846 1.12633 0.87318
 N91 N 0.10544 1.01930 0.86268
 C92 C -0.06667 0.98132 0.85584
 H93 H -0.06609 0.98839 0.83661
 C94 C -0.11239 0.97398 0.87041
 H95 H -0.14674 0.97401 0.86161
 C96 C -0.02084 0.97402 0.88978
 H97 H 0.01559 0.97592 0.89736
 C98 C -0.06607 0.96536 0.90502
 H99 H -0.06364 0.95992 0.92418
 Zn100 Zn 0.04283 1.00459 0.84491
 N101 N -0.02169 0.98232 0.86568
 C102 C -0.02161 0.89273 0.82318
 N103 N 0.03023 0.94270 0.82490
 C104 C 0.07727 0.94992 0.81283
 C105 C 0.07355 0.90569 0.79847
 C106 C -0.02754 0.84752 0.80863
 C107 C 0.06452 1.12287 0.83714
 C108 C 0.06690 1.17151 0.82401
 C109 C 0.05539 1.11937 0.78805
 C110 C 0.05371 1.07205 0.80186
 N111 N 0.05732 1.07413 0.82597
 H112 H -0.05830 0.88764 0.83322
 H113 H 0.11802 0.99000 0.81466
 H114 H 0.11192 0.91244 0.78925
 H115 H -0.06924 0.80809 0.80798
 H116 H 0.06636 1.12296 0.85641
 H117 H 0.07129 1.20919 0.83342
 H118 H 0.05204 1.11532 0.76900
 H119 H 0.04741 1.03265 0.79334
 C120 C -0.11208 0.96726 0.89560
 C121 C 0.19718 1.03294 0.88717
 C122 C 0.06046 1.16958 0.79919
 C123 C 0.02074 0.85357 0.79605
 C124 C 0.48741 -0.00170 -0.00932
 C125 C 0.48995 -0.00293 0.01587
 C126 C 0.53910 0.00482 0.02593
 C127 C 0.58598 0.01322 0.01152
 C128 C 0.58215 0.01158 -0.01365
 C129 C 0.53362 0.00558 -0.02370
 H130 H 0.53093 0.00411 -0.04296
 H131 H 0.54130 0.00696 0.04516
 C132 C -0.04299 0.42747 0.66180
 C133 C -0.03630 0.42796 0.68675
 C134 C -0.04113 0.47066 0.69964
 C135 C -0.05064 0.51388 0.68815
 C136 C -0.05491 0.51502 0.66306
 C137 C -0.05200 0.47105 0.65029
 H138 H -0.05590 0.47127 0.63112
 H139 H -0.03920 0.46935 0.71893
 C140 C 0.53326 0.56024 0.31095
 C141 C 0.52512 0.56222 0.33595
 C142 C 0.47227 0.52048 0.34783
 C143 C 0.42691 0.47862 0.33523
 C144 C 0.43394 0.48024 0.31005
 C145 C 0.48702 0.52017 0.29829
 H146 H 0.49229 0.51809 0.27919
 H147 H 0.46510 0.52212 0.36682
 C148 C -0.08533 0.15582 0.55802
 C149 C -0.05162 0.18481 0.57675
 C150 C -0.05766 0.22899 0.59016
 N151 N -0.02352 0.25502 0.60823
 N152 N -0.02749 0.29587 0.62040
 C153 C -0.06572 0.31234 0.61493
 N154 N -0.09992 0.28632 0.59685
 N155 N -0.09594 0.24541 0.58466
 C156 C -0.07056 0.35734 0.62831
 C157 C -0.03720 0.38393 0.64741
 H158 H -0.01959 0.17491 0.58209
 H159 H -0.10224 0.36834 0.62347
 H160 H -0.11990 0.16298 0.55408
 H161 H -0.00732 0.37063 0.65263
 C162 C 0.83452 0.78180 0.20683
 C163 C 0.82297 0.76643 0.23150
 C164 C 0.76535 0.72383 0.24208
 N165 N 0.75703 0.70886 0.26602
 N166 N 0.70485 0.67367 0.27622
 C167 C 0.65892 0.65242 0.26289
 N168 N 0.66721 0.66720 0.23892
 N169 N 0.71946 0.70229 0.22869
 C170 C 0.60091 0.61532 0.27409
 C171 C 0.59079 0.59718 0.29853
 H172 H 0.85585 0.78721 0.24387
 H173 H 0.56597 0.60391 0.26290
 H174 H 0.80124 0.75489 0.19521
 H175 H 0.62703 0.61067 0.30917
 C176 C 0.24759 0.04117 -0.10077
 C177 C 0.24455 0.00202 -0.08195
 C178 C 0.29541 0.00833 -0.07134
 N179 N 0.28971 -0.02920 -0.05228
 N180 N 0.33528 -0.02488 -0.04270
 C181 C 0.38827 0.01702 -0.05190
 N182 N 0.39398 0.05448 -0.07099
 N183 N 0.34840 0.05023 -0.08055
 C184 C 0.43905 0.02262 -0.04150
 C185 C 0.43587 -0.01134 -0.02077
 H186 H 0.20377 -0.03434 -0.07447
 H187 H 0.48018 0.05630 -0.04982
 H188 H 0.28850 0.08006 -0.10673
 H189 H 0.39480 -0.04254 -0.01175
 C190 C -0.01540 0.80384 0.55544
 C191 C -0.04076 0.78049 0.57848
 C192 C -0.03843 0.73067 0.59113
 N193 N -0.06632 0.70752 0.61298
 N194 N -0.06500 0.66210 0.62459
 C195 C -0.03571 0.63815 0.61476
 N196 N -0.00778 0.66135 0.59292
 N197 N -0.00913 0.70672 0.58131
 C198 C -0.03334 0.58829 0.62732
 C199 C -0.06033 0.56300 0.64998
 H200 H -0.06504 0.79725 0.58731
 H201 H -0.00785 0.57260 0.61873
 H202 H 0.00567 0.78375 0.54639
 H203 H -0.08304 0.58153 0.65879
 C204 C 0.18023 0.17973 0.23049
 C205 C 0.19146 0.23745 0.23498
 C206 C 0.23297 0.27372 0.25212
 N207 N 0.25320 0.33381 0.25184
 N208 N 0.29203 0.36756 0.26676
 C209 C 0.31181 0.34240 0.28262
 N210 N 0.29097 0.28214 0.28315
 N211 N 0.25240 0.24845 0.26813
 C212 C 0.35561 0.37948 0.29878
 C213 C 0.38715 0.44210 0.29509
 H214 H 0.17288 0.25887 0.22487
 H215 H 0.36514 0.35713 0.31315
 H216 H 0.20354 0.16288 0.24011
 H217 H 0.38166 0.46374 0.27922
 C218 C 0.84734 -0.03582 -0.08896
 C219 C 0.80335 -0.02641 -0.09532
 C220 C 0.76399 -0.02517 -0.07717
 N221 N 0.73186 -0.00124 -0.08337
 N222 N 0.69682 0.00140 -0.06711
 C223 C 0.69237 -0.02010 -0.04405
 N224 N 0.72408 -0.04459 -0.03787
 N225 N 0.75944 -0.04685 -0.05411
 C226 C 0.65329 -0.01816 -0.02599
 C227 C 0.62670 0.01479 -0.03039
 H228 H 0.79935 -0.01488 -0.11363
 H229 H 0.64444 -0.04432 -0.00905
 H230 H 0.85051 -0.04291 -0.06995
 H231 H 0.63366 0.03800 -0.04792
 C232 C 0.20581 0.01968 0.08706
 C233 C 0.22754 -0.01865 0.08879
 C234 C 0.27617 -0.00855 0.07309
 N235 N 0.29953 -0.04331 0.07673
 N236 N 0.34408 -0.03400 0.06285
 C237 C 0.36693 0.01050 0.04483
 N238 N 0.34344 0.04509 0.04114
 N239 N 0.29898 0.03583 0.05503
 C240 C 0.41552 0.02096 0.02909
 C241 C 0.44263 -0.01177 0.03238
 H242 H 0.21066 -0.05514 0.10269
 H243 H 0.43022 0.05530 0.01437
 H244 H 0.22582 0.05812 0.07396
 H245 H 0.43167 -0.04186 0.04837
 C246 C 0.75411 0.80889 0.44204
 C247 C 0.75072 0.80619 0.41720
 C248 C 0.70423 0.75487 0.40624
 N249 N 0.70143 0.75705 0.38211
 N250 N 0.66055 0.71073 0.37170
 C251 C 0.62096 0.66024 0.38499
 N252 N 0.62377 0.65795 0.40915
 N253 N 0.66464 0.70442 0.41959
 C254 C 0.57581 0.60865 0.37353
 C255 C 0.57009 0.61152 0.34888
 H256 H 0.78240 0.84216 0.40498
 H257 H 0.54752 0.56800 0.38467
 H258 H 0.71907 0.77298 0.45328
 H259 H 0.59998 0.65283 0.33842
 C260 C 0.05735 0.21650 0.78684
 C261 C 0.04187 0.21552 0.76322
 C262 C 0.03299 0.26248 0.75203
 N263 N 0.00864 0.25367 0.73077
 N264 N -0.00107 0.29479 0.72053
 C265 C 0.01334 0.34644 0.73114
 N266 N 0.03813 0.35554 0.75233
 N267 N 0.04762 0.31423 0.76263
 C268 C 0.00302 0.39232 0.71989
 C269 C -0.02771 0.38178 0.69949
 H270 H 0.03178 0.17769 0.75277
 H271 H 0.02113 0.43549 0.72757
 H272 H 0.06395 0.25435 0.79676
 H273 H -0.04459 0.33839 0.69209
 C274 C 0.85015 0.05234 0.11084
 C275 C 0.84800 0.06560 0.08657
 C276 C 0.79476 0.05345 0.07633
 N277 N 0.79490 0.06962 0.05290
 N278 N 0.74662 0.05649 0.04317
 C279 C 0.69636 0.02634 0.05648
 N280 N 0.69625 0.01021 0.07990
 N281 N 0.74451 0.02350 0.08965
 C282 C 0.64240 0.01019 0.04599
 C283 C 0.63997 0.02883 0.02247
 H284 H 0.88554 0.08396 0.07450
 H285 H 0.60373 -0.01814 0.05709
 H286 H 0.81291 0.03842 0.12273
 H287 H 0.67926 0.05548 0.01151
 C288 C 0.16054 0.17571 0.43322
 C289 C 0.16282 0.21880 0.41635
 C290 C 0.21674 0.26670 0.40420
 N291 N 0.21628 0.30230 0.38571
 N292 N 0.26471 0.34621 0.37468
 C293 C 0.31544 0.35639 0.38187
 N294 N 0.31590 0.32105 0.40045
 N295 N 0.26748 0.27699 0.41140
 C296 C 0.36938 0.40421 0.36981
 C297 C 0.37194 0.43563 0.34841
 H298 H 0.12477 0.21773 0.41127
 H299 H 0.40841 0.41247 0.37726
 H300 H 0.19986 0.17674 0.43611
 H301 H 0.33304 0.42441 0.34008
 C302 C 0.01913 0.80958 0.78170
 C303 C -0.03012 0.75871 0.77515
 C304 C -0.02688 0.71424 0.76073
 N305 N -0.07223 0.67502 0.74898
 N306 N -0.06941 0.63494 0.73577
 C307 C -0.02125 0.63232 0.73402
 N308 N 0.02382 0.67104 0.74600
 N309 N 0.02114 0.71138 0.75904
 C310 C -0.01727 0.58834 0.71964
 C311 C -0.05589 0.55737 0.70268
 H312 H -0.07164 0.75209 0.77949
 H313 H 0.01851 0.58207 0.72170
 H314 H 0.05938 0.81632 0.77463
 H315 H -0.08925 0.56687 0.69939
   
