data_POSCAR
  _audit_creation_date              2014-09-24
  _audit_creation_method            'ToBaCCo'
  _symmetry_space_group_name_H-M    'P1'
  _symmetry_Int_Tables_number       1
  _symmetry_cell_setting            triclinic
  loop_
  _symmetry_equiv_pos_as_xyz
 x,y,z
_cell_length_a 31.3700
_cell_length_b 32.9662
_cell_length_c 11.8981
_cell_angle_alpha 88.364200
_cell_angle_beta 90.164100
_cell_angle_gamma 119.600300
loop_
  _atom_site_label
  _atom_site_type_symbol
  _atom_site_fract_x
  _atom_site_fract_y
  _atom_site_fract_z
C1 C 0.20917 0.63887 0.43750
 C2 C 0.22566 0.62776 0.34061
 C3 C 0.24297 0.59598 0.34682
 C4 C 0.24201 0.57318 0.44993
 C5 C 0.22432 0.58436 0.54678
 C6 C 0.20897 0.61763 0.54067
 C7 C 0.25765 0.53695 0.45645
 C8 C 0.27373 0.52677 0.55965
 C9 C 0.28397 0.49005 0.56910
 C10 C 0.27830 0.46352 0.47510
 C11 C 0.26826 0.47613 0.37044
 C12 C 0.25712 0.51223 0.36019
 H13 H 0.19629 0.66395 0.43250
 H14 H 0.25658 0.58918 0.27039
 H15 H 0.22199 0.56735 0.62743
 H16 H 0.27957 0.54776 0.63237
 H17 H 0.28764 0.43595 0.47946
 H18 H 0.24758 0.51984 0.27810
 C19 C 0.46236 -0.40306 0.46161
 C20 C 0.45443 -0.38119 0.36785
 C21 C 0.45114 -0.34078 0.38044
 C22 C 0.46122 -0.31806 0.48375
 C23 C 0.46898 -0.34075 0.57768
 C24 C 0.46848 -0.38336 0.56748
 C25 C 0.46854 -0.26928 0.48960
 C26 C 0.47070 -0.24848 0.59465
 C27 C 0.48359 -0.20123 0.59807
 C28 C 0.48926 -0.17628 0.49816
 C29 C 0.48772 -0.19501 0.39545
 C30 C 0.47819 -0.24100 0.38954
 H31 H 0.46588 -0.43387 0.45159
 H32 H 0.44264 -0.32649 0.30648
 H33 H 0.47865 -0.32449 0.65829
 H34 H 0.46440 -0.26758 0.67368
 H35 H 0.49797 -0.14009 0.50024
 H36 H 0.48134 -0.25276 0.30794
 C37 C 1.36833 0.86953 0.46982
 C38 C 1.34043 0.86177 0.37317
 C39 C 1.28999 0.84397 0.38264
 C40 C 1.26524 0.82894 0.48761
 C41 C 1.29405 0.83592 0.58478
 C42 C 1.34541 0.85794 0.57643
 C43 C 1.21005 0.80598 0.49315
 C44 C 1.18414 0.79972 0.59551
 C45 C 1.13266 0.77619 0.59768
 C46 C 1.10666 0.76136 0.49869
 C47 C 1.13084 0.76617 0.39776
 C48 C 1.18204 0.78742 0.39516
 H49 H 1.40778 0.88471 0.46258
 H50 H 1.27075 0.84164 0.30564
 H51 H 1.27765 0.82596 0.66774
 H52 H 1.20298 0.81167 0.67404
 H53 H 1.06689 0.74188 0.50172
 H54 H 1.19890 0.78608 0.31761
 C55 C 0.82393 0.44912 0.49153
 C56 C 0.79512 0.44152 0.39633
 C57 C 0.74569 0.42966 0.40941
 C58 C 0.72675 0.42953 0.51791
 C59 C 0.75915 0.44295 0.61020
 C60 C 0.80744 0.45260 0.59634
 C61 C 0.67533 0.42010 0.53648
 C62 C 0.65344 0.40506 0.64429
 C63 C 0.60933 0.40347 0.67004
 C64 C 0.58439 0.41358 0.58684
 C65 C 0.60322 0.42514 0.47733
 C66 C 0.64889 0.42896 0.45182
 H67 H 0.86216 0.45864 0.48150
 H68 H 0.72348 0.42308 0.33528
 H69 H 0.74823 0.44884 0.69148
 H70 H 0.67092 0.39538 0.71009
 H71 H 0.54974 0.41167 0.60658
 H72 H 0.66408 0.44068 0.36804
 C73 C 0.40549 0.25837 0.56164
 C74 C 0.42602 0.25704 0.45738
 C75 C 0.45934 0.24051 0.45352
 C76 C 0.47152 0.22355 0.55091
 C77 C 0.44989 0.22404 0.65380
 C78 C 0.41808 0.24228 0.66017
 C79 C 0.50760 0.20656 0.54511
 C80 C 0.53803 0.21109 0.63665
 C81 C 0.56971 0.19266 0.63338
 C82 C 0.57371 0.17202 0.53520
 C83 C 0.54415 0.16787 0.44244
 C84 C 0.51058 0.18404 0.44914
 H85 H 0.38182 0.27353 0.56672
 H86 H 0.47695 0.24249 0.37383
 H87 H 0.45810 0.21084 0.73037
 H88 H 0.53642 0.22779 0.71232
 H89 H 0.59699 0.15634 0.53378
 H90 H 0.48577 0.17759 0.37991
 C91 C 0.75271 0.13921 0.49624
 C92 C 0.76380 0.16607 0.39667
 C93 C 0.79312 0.21460 0.40125
 C94 C 0.80869 0.23714 0.50584
 C95 C 0.79108 0.20865 0.60575
 C96 C 0.76394 0.15990 0.60009
 C97 C 0.84201 0.28949 0.51068
 C98 C 0.86473 0.31081 0.61221
 C99 C 0.89717 0.35898 0.61649
 C100 C 0.90992 0.38648 0.51793
 C101 C 0.88872 0.36624 0.41559
 C102 C 0.85360 0.31890 0.41320
 H103 H 0.72933 0.10167 0.49460
 H104 H 0.80213 0.23367 0.32191
 H105 H 0.79662 0.22337 0.68781
 H106 H 0.85837 0.29067 0.68958
 H107 H 0.93599 0.42350 0.52058
 H108 H 0.83733 0.30593 0.33299
 O109 O 1.01582 0.48381 0.21135
 O110 O 0.94067 0.45590 0.12915
 C111 C 0.96961 0.45407 0.20530
 O112 O 1.04470 0.67298 0.17677
 O113 O 1.10928 0.69417 0.05476
 C114 C 1.08879 0.70162 0.14005
 O115 O 0.92921 0.55948 0.22087
 O116 O 0.89794 0.49147 0.12509
 C117 C 0.89629 0.51659 0.20515
 O118 O 1.13376 0.59136 0.14916
 O119 O 1.15086 0.65524 0.03637
 C120 C 1.16325 0.63320 0.10934
 Zr121 Zr 1.05893 0.54557 0.11657
 O122 O 1.07723 0.54877 0.28854
 O123 O 1.09395 0.50614 0.08641
 Zr124 Zr 0.99506 0.60379 0.13375
 O125 O 1.00563 0.61252 0.30906
 O126 O 0.95158 0.63657 0.13576
 O127 O 0.99178 0.53991 0.16090
 O128 O 1.06385 0.60955 0.13478
 O129 O 1.11271 0.58240 -0.24054
 O130 O 1.13962 0.65072 -0.14757
 C131 C 1.14514 0.62555 -0.22122
 O132 O 0.90797 0.54841 -0.19208
 O133 O 0.88869 0.48587 -0.07181
 C134 C 0.87874 0.50615 -0.15436
 O135 O 1.01982 0.66973 -0.19682
 O136 O 1.09664 0.69263 -0.12874
 C137 C 1.06560 0.70077 -0.18249
 O138 O 0.99234 0.46897 -0.20677
 O139 O 0.93128 0.44776 -0.07427
 C140 C 0.95105 0.43873 -0.15840
 Zr141 Zr 1.04262 0.53927 -0.16302
 O142 O 1.03584 0.54037 -0.34010
 O143 O 1.07845 0.49936 -0.17299
 Zr144 Zr 0.98001 0.59782 -0.14553
 O145 O 0.97904 0.60160 -0.32343
 O146 O 0.93281 0.62647 -0.14218
 Zr147 Zr 0.95653 0.51080 0.00937
 Zr148 Zr 1.08127 0.63197 -0.03435
 O149 O 1.04674 0.60386 -0.18714
 O150 O 0.97287 0.53181 -0.16211
 O151 O 1.09303 0.57434 -0.03722
 O152 O 0.94616 0.56925 0.00764
 O153 O 1.01839 0.50238 -0.01001
 O154 O 1.01991 0.64146 -0.01629
 H155 H 1.08586 0.62778 0.19601
 H156 H 0.91235 0.56393 0.01649
 H157 H 1.06234 0.62207 -0.25739
 H158 H 1.01365 0.47037 -0.00368
 H159 H 0.97130 0.66834 0.10185
 H160 H 0.94417 0.64903 -0.08104
 H161 H 0.96523 0.56944 -0.35015
 H162 H 1.00047 0.52304 -0.35742
 H163 H 1.10875 0.51526 -0.12850
 H164 H 1.10543 0.50125 0.16054
 H165 H 1.05950 0.56231 0.32699
 H166 H 1.00060 0.58261 0.34242
 O167 O 0.32154 0.42072 0.16752
 O168 O 0.35146 0.48173 0.03827
 C169 C 0.32349 0.45807 0.12338
 O170 O 0.52496 0.45391 0.23868
 O171 O 0.50250 0.38276 0.16357
 C172 C 0.52760 0.41581 0.23254
 O173 O 0.47431 0.53582 0.18434
 O174 O 0.42710 0.53701 0.03820
 C175 C 0.45176 0.55400 0.12847
 O176 O 0.35877 0.33270 0.24030
 O177 O 0.42295 0.32604 0.17033
 C178 C 0.38763 0.31497 0.24262
 Zr179 Zr 0.36368 0.38860 0.13738
 O180 O 0.34497 0.38922 0.30765
 O181 O 0.29210 0.33363 0.10818
 Zr182 Zr 0.48171 0.47659 0.14720
 O183 O 0.47978 0.48447 0.32269
 O184 O 0.55361 0.53468 0.14073
 O185 O 0.40890 0.46072 0.14045
 O186 O 0.43436 0.40740 0.18590
 O187 O 0.37698 0.31330 -0.16229
 O188 O 0.42797 0.31383 -0.02276
 C189 C 0.39920 0.29480 -0.10727
 O190 O 0.50455 0.52324 -0.21830
 O191 O 0.44005 0.53066 -0.15278
 C192 C 0.47936 0.54461 -0.21451
 O193 O 0.54216 0.43449 -0.14613
 O194 O 0.50960 0.37313 -0.01747
 C195 C 0.54091 0.39836 -0.09550
 O196 O 0.34175 0.40250 -0.24120
 O197 O 0.36013 0.47157 -0.16096
 C198 C 0.33896 0.44033 -0.23629
 Zr199 Zr 0.37753 0.37669 -0.13524
 O200 O 0.38018 0.36247 -0.30637
 O201 O 0.30207 0.32597 -0.12859
 Zr202 Zr 0.49571 0.46380 -0.12667
 O203 O 0.50722 0.45654 -0.29845
 O204 O 0.56864 0.51807 -0.10736
 Zr205 Zr 0.40826 0.47334 -0.03456
 Zr206 Zr 0.45116 0.38009 0.04560
 O207 O 0.44994 0.39250 -0.12858
 O208 O 0.42525 0.44710 -0.17692
 O209 O 0.37462 0.34755 0.02479
 O210 O 0.48446 0.50379 -0.01193
 O211 O 0.34942 0.40436 -0.02274
 O212 O 0.51062 0.44888 0.03458
 H213 H 0.43866 0.39863 0.26366
 H214 H 0.50516 0.53819 -0.01868
 H215 H 0.45941 0.37600 -0.18281
 H216 H 0.31598 0.39932 -0.03635
 H217 H 0.57571 0.52346 0.11409
 H218 H 0.58495 0.52291 -0.18165
 H219 H 0.48091 0.45790 -0.34161
 H220 H 0.41326 0.38541 -0.33478
 H221 H 0.29863 0.29859 -0.08435
 H222 H 0.27387 0.32797 0.18003
 H223 H 0.37578 0.41015 0.34602
 H224 H 0.44639 0.47825 0.34193
 O225 O 0.55799 -0.09204 0.17249
 O226 O 0.49483 -0.12340 0.04721
 C227 C 0.51874 -0.12681 0.13268
 O228 O 0.52844 0.07097 0.21978
 O229 O 0.60519 0.11801 0.14351
 C230 C 0.56990 0.10971 0.21392
 O231 O 0.44021 -0.05492 0.18142
 O232 O 0.43787 -0.10338 0.04428
 C233 C 0.41994 -0.09482 0.13245
 O234 O 0.65633 0.03091 0.21505
 O235 O 0.66640 0.09951 0.13618
 C236 C 0.67832 0.07613 0.20683
 Zr237 Zr 0.59380 -0.02010 0.13188
 O238 O 0.59065 -0.03214 0.30817
 O239 O 0.64853 -0.03915 0.11380
 Zr240 Zr 0.50363 0.00868 0.13231
 O241 O 0.48908 -0.00049 0.30724
 O242 O 0.44512 0.02296 0.11317
 O243 O 0.51817 -0.04638 0.13762
 O244 O 0.57625 0.03054 0.17004
 O245 O 0.67707 0.06238 -0.17706
 O246 O 0.67589 0.11544 -0.05805
 C247 C 0.69503 0.10440 -0.14024
 O248 O 0.46636 -0.01724 -0.24552
 O249 O 0.45051 -0.08654 -0.15955
 C250 C 0.44299 -0.06225 -0.23752
 O251 O 0.55304 0.10467 -0.17848
 O252 O 0.61663 0.13487 -0.05416
 C253 C 0.59141 0.13932 -0.13546
 O254 O 0.58082 -0.06096 -0.23348
 O255 O 0.50666 -0.10878 -0.14653
 C256 C 0.53998 -0.10028 -0.22166
 Zr257 Zr 0.60926 0.00171 -0.14333
 O258 O 0.62482 0.01776 -0.31704
 O259 O 0.66149 -0.02122 -0.13454
 Zr260 Zr 0.52038 0.03217 -0.14306
 O261 O 0.52568 0.05164 -0.31554
 O262 O 0.46226 0.04638 -0.12178
 Zr263 Zr 0.50620 -0.06089 -0.03488
 Zr264 Zr 0.60723 0.07237 0.02342
 O265 O 0.59465 0.05645 -0.14803
 O266 O 0.53670 -0.02003 -0.18306
 O267 O 0.63891 0.02913 0.01140
 O268 O 0.47545 -0.01709 -0.02335
 O269 O 0.57780 -0.05075 -0.02205
 O270 O 0.53582 0.06322 0.01246
 H271 H 0.58705 0.04367 0.24536
 H272 H 0.43953 -0.03154 -0.03331
 H273 H 0.61213 0.08029 -0.20848
 H274 H 0.58273 -0.07803 -0.02964
 H275 H 0.45963 0.05702 0.09918
 H276 H 0.45610 0.05561 -0.19740
 H277 H 0.55086 0.04576 -0.34892
 H278 H 0.59303 0.00611 -0.35538
 H279 H 0.68823 0.00015 -0.08532
 H280 H 0.65307 -0.04938 0.18982
 H281 H 0.55574 -0.04722 0.33131
 H282 H 0.51050 -0.01178 0.33956
 N283 N 1.22015 0.64360 0.24306
 N284 N 1.21176 0.65711 0.15255
 N285 N 0.45412 0.60480 0.26591
 N286 N 0.45348 0.59539 0.16627
 N287 N 0.35992 -0.13347 0.27320
 N288 N 0.37547 -0.13253 0.17764
 N289 N 0.82042 0.45640 0.29006
 N290 N 0.85921 0.49613 0.28993
 N291 N 0.41983 0.27816 0.35632
 N292 N 0.38540 0.28744 0.34009
 N293 N 0.73767 0.14493 0.29600
 N294 N 0.71380 0.10063 0.29054
 N295 N 0.59053 0.18952 -0.27372
 N296 N 0.60843 0.18484 -0.18519
 N297 N 0.59179 0.39340 -0.22733
 N298 N 0.57444 0.38380 -0.13134
 N299 N 0.91456 0.37748 -0.28613
 N300 N 0.92781 0.39103 -0.19012
 N301 N 0.49448 -0.17602 -0.29990
 N302 N 0.53000 -0.13411 -0.30416
 N303 N 0.30572 0.48305 -0.33112
 N304 N 0.31282 0.44823 -0.32409
 N305 N 1.10791 0.76257 -0.30781
 N306 N 1.08205 0.74739 -0.22264
 N307 N 0.84388 0.47466 -0.32043
 N308 N 0.83605 0.47888 -0.21796
 N309 N 0.40359 0.24700 -0.24022
 N310 N 0.39249 0.25120 -0.14358
 N311 N 0.73818 0.12953 -0.30635
 N312 N 0.73206 0.14115 -0.20922
 N313 N 1.19808 0.63172 -0.36781
 N314 N 1.19029 0.64779 -0.28320
 N315 N 0.48315 0.60073 -0.34770
 N316 N 0.50125 0.58963 -0.26904
 N317 N 0.37452 -0.12656 -0.32435
 N318 N 0.40939 -0.08463 -0.32592
 N319 N 0.50353 -0.16224 0.30351
 N320 N 0.49774 -0.16916 0.19884
 N321 N 0.27938 0.45638 0.27790
 N322 N 0.29958 0.47773 0.18580
 N323 N 1.10192 0.73922 0.30721
 N324 N 1.11911 0.73878 0.21098
 N325 N 0.54075 0.13963 0.35007
 N326 N 0.57766 0.14363 0.29582
 N327 N 0.57567 0.43418 0.39461
 N328 N 0.55837 0.40864 0.30980
 N329 N 0.90428 0.39350 0.31294
 N330 N 0.94981 0.42101 0.29671
   
