data_POSCAR
  _audit_creation_date              2014-09-24
  _audit_creation_method            'ToBaCCo'
  _symmetry_space_group_name_H-M    'P1'
  _symmetry_Int_Tables_number       1
  _symmetry_cell_setting            triclinic
  loop_
  _symmetry_equiv_pos_as_xyz
 x,y,z
_cell_length_a 33.8116
_cell_length_b 27.4192
_cell_length_c 15.1851
_cell_angle_alpha 86.072700
_cell_angle_beta 88.735100
_cell_angle_gamma 88.972900
loop_
  _atom_site_label
  _atom_site_type_symbol
  _atom_site_fract_x
  _atom_site_fract_y
  _atom_site_fract_z
C1 C 1.27398 0.18165 0.29864
 C2 C 1.24457 0.21819 0.28323
 C3 C 1.20992 0.20560 0.24263
 C4 C 1.20334 0.15800 0.21941
 C5 C 1.23370 0.12234 0.23119
 C6 C 1.26997 0.13423 0.26946
 C7 C 1.25138 0.27071 0.29909
 C8 C 1.28992 0.28855 0.29284
 C9 C 1.29742 0.33871 0.28616
 C10 C 1.26504 0.37205 0.28608
 C11 C 1.22585 0.35512 0.29961
 C12 C 1.21964 0.30442 0.30815
 H13 H 1.30015 0.19023 0.33347
 H14 H 1.18783 0.23351 0.22614
 H15 H 1.31449 0.26346 0.28416
 H16 H 1.18977 0.29144 0.31799
 H17 H 1.22897 0.08577 0.21114
 H18 H 1.27036 0.41097 0.27881
 C19 C 0.77779 -0.31596 0.28888
 C20 C 0.74834 -0.27992 0.26883
 C21 C 0.71187 -0.29487 0.23989
 C22 C 0.70325 -0.34400 0.23559
 C23 C 0.73275 -0.37971 0.25361
 C24 C 0.77077 -0.36603 0.27959
 C25 C 0.75533 -0.22646 0.27310
 C26 C 0.79344 -0.20798 0.25919
 C27 C 0.79981 -0.15767 0.25043
 C28 C 0.76732 -0.12491 0.25156
 C29 C 0.72870 -0.14247 0.26826
 C30 C 0.72343 -0.19303 0.28283
 H31 H 0.80581 -0.30517 0.31339
 H32 H 0.68945 -0.26815 0.21914
 H33 H 0.81843 -0.23248 0.25048
 H34 H 0.69399 -0.20617 0.29838
 H35 H 0.72570 -0.41785 0.24923
 H36 H 0.77223 -0.08597 0.24148
 C37 C 0.78036 0.19740 -0.24766
 C38 C 0.75076 0.23361 -0.26500
 C39 C 0.71697 0.22105 -0.30893
 C40 C 0.71026 0.17301 -0.32978
 C41 C 0.73992 0.13706 -0.31218
 C42 C 0.77564 0.14915 -0.27218
 C43 C 0.75447 0.28478 -0.23820
 C44 C 0.79178 0.30658 -0.24066
 C45 C 0.79622 0.35443 -0.21558
 C46 C 0.76227 0.38168 -0.19267
 C47 C 0.72414 0.36230 -0.19694
 C48 C 0.72062 0.31308 -0.21526
 H49 H 0.80648 0.20629 -0.21258
 H50 H 0.69517 0.24918 -0.32664
 H51 H 0.81758 0.28597 -0.26115
 H52 H 0.69138 0.29767 -0.21474
 H53 H 0.73498 0.09980 -0.32815
 H54 H 0.76525 0.41941 -0.17701
 C55 C 1.27718 -0.31103 -0.21852
 C56 C 1.24856 -0.27475 -0.24226
 C57 C 1.21272 -0.28935 -0.27559
 C58 C 1.20396 -0.33860 -0.28093
 C59 C 1.23297 -0.37452 -0.25868
 C60 C 1.27031 -0.36099 -0.22817
 C61 C 1.25590 -0.22155 -0.23468
 C62 C 1.29456 -0.20370 -0.24187
 C63 C 1.30183 -0.15365 -0.24306
 C64 C 1.26968 -0.12031 -0.24086
 C65 C 1.23046 -0.13724 -0.23136
 C66 C 1.22419 -0.18783 -0.22534
 H67 H 1.30438 -0.30046 -0.18983
 H68 H 1.19097 -0.26221 -0.29831
 H69 H 1.31942 -0.22838 -0.25087
 H70 H 1.19429 -0.20068 -0.21560
 H71 H 1.22606 -0.41268 -0.26334
 H72 H 1.27530 -0.08145 -0.24467
 C73 C 0.22093 0.29231 0.71726
 C74 C 0.23456 0.24509 0.74019
 C75 C 0.20951 0.20585 0.73382
 C76 C 0.17016 0.21306 0.70933
 C77 C 0.15531 0.26132 0.69494
 C78 C 0.18153 0.30100 0.69622
 C79 C 0.27516 0.23660 0.77014
 C80 C 0.29320 0.27003 0.82040
 C81 C 0.33382 0.26647 0.83801
 C82 C 0.35538 0.22488 0.81202
 C83 C 0.33509 0.18783 0.77159
 C84 C 0.29613 0.19546 0.74697
 H85 H 0.24096 0.32274 0.71721
 H86 H 0.22016 0.16928 0.75329
 H87 H 0.27555 0.30063 0.84151
 H88 H 0.28253 0.16952 0.70671
 H89 H 0.12466 0.26774 0.67757
 H90 H 0.38653 0.22031 0.82619
 C91 C 0.71826 0.80135 0.75179
 C92 C 0.72580 0.75519 0.79449
 C93 C 0.69511 0.72107 0.80720
 C94 C 0.65833 0.73066 0.76876
 C95 C 0.65125 0.77726 0.72698
 C96 C 0.68056 0.81352 0.72073
 C97 C 0.76694 0.73953 0.81180
 C98 C 0.79471 0.77156 0.84310
 C99 C 0.83452 0.75702 0.84975
 C100 C 0.84622 0.71037 0.82456
 C101 C 0.81897 0.67906 0.78999
 C102 C 0.77943 0.69359 0.78563
 H103 H 0.74190 0.82743 0.74152
 H104 H 0.70122 0.68548 0.83996
 H105 H 0.78542 0.80744 0.86206
 H106 H 0.75867 0.67027 0.75594
 H107 H 0.62276 0.78474 0.69757
 H108 H 0.87703 0.69933 0.82872
 C109 C 0.71762 0.30152 0.25673
 C110 C 0.72731 0.25248 0.27967
 C111 C 0.69844 0.21660 0.27628
 C112 C 0.66118 0.22870 0.24296
 C113 C 0.65158 0.27787 0.22064
 C114 C 0.67959 0.31452 0.22951
 C115 C 0.76872 0.23788 0.29497
 C116 C 0.79368 0.26665 0.34084
 C117 C 0.83430 0.25608 0.34489
 C118 C 0.84987 0.21509 0.30377
 C119 C 0.82414 0.18469 0.26049
 C120 C 0.78409 0.19692 0.25600
 H121 H 0.73980 0.32951 0.25784
 H122 H 0.70581 0.17867 0.29437
 H123 H 0.78151 0.29812 0.37221
 H124 H 0.76498 0.17559 0.21779
 H125 H 0.62255 0.28746 0.19531
 H126 H 0.88118 0.20645 0.30745
 C127 C 0.21439 0.80272 0.26432
 C128 C 0.22243 0.75647 0.30619
 C129 C 0.19242 0.72124 0.31538
 C130 C 0.15636 0.72951 0.27304
 C131 C 0.14886 0.77606 0.23147
 C132 C 0.17708 0.81359 0.22939
 C133 C 0.26370 0.74153 0.32479
 C134 C 0.29093 0.77341 0.35870
 C135 C 0.33071 0.75882 0.36776
 C136 C 0.34301 0.71264 0.34146
 C137 C 0.31639 0.68174 0.30394
 C138 C 0.27689 0.69607 0.29764
 H139 H 0.23746 0.82972 0.25700
 H140 H 0.19882 0.68569 0.34799
 H141 H 0.28123 0.80899 0.37844
 H142 H 0.25673 0.67296 0.26567
 H143 H 0.12092 0.78248 0.19907
 H144 H 0.37380 0.70166 0.34728
 O145 O 1.04647 0.10264 0.09845
 O146 O 1.09525 0.06417 0.02076
 C147 C 1.08333 0.09500 0.07714
 O148 O 0.96021 -0.08690 0.14676
 O149 O 0.90960 -0.05135 0.06590
 C150 C 0.92294 -0.08094 0.12880
 O151 O 1.06789 -0.06232 0.13514
 O152 O 1.10583 -0.01744 0.03328
 C153 C 1.10164 -0.04884 0.10109
 O154 O 0.93861 0.08933 0.10458
 O155 O 0.89938 0.03254 0.04658
 C156 C 0.90482 0.06994 0.09349
 Zr157 Zr 0.99435 0.07002 0.05813
 O158 O 0.99248 0.08017 0.19500
 O159 O 0.98557 0.14555 0.02516
 Zr160 Zr 1.01062 -0.05077 0.08977
 O161 O 1.01024 -0.04032 0.22642
 O162 O 1.02309 -0.12642 0.11237
 O163 O 1.03751 0.01678 0.08623
 O164 O 0.96858 0.00381 0.09565
 O165 O 0.93015 0.07630 -0.19747
 O166 O 0.89618 0.02168 -0.10462
 C167 C 0.89749 0.05587 -0.16781
 O168 O 1.06883 -0.07444 -0.18069
 O169 O 1.10450 -0.01654 -0.11685
 C170 C 1.10187 -0.05230 -0.16714
 O171 O 0.96090 -0.10645 -0.14188
 O172 O 0.91021 -0.06609 -0.07291
 C173 C 0.92483 -0.10362 -0.11161
 O174 O 1.03946 0.09380 -0.22526
 O175 O 1.09005 0.06193 -0.13904
 C176 C 1.07649 0.08896 -0.20578
 Zr177 Zr 0.99007 0.06064 -0.15996
 O178 O 0.98422 0.05539 -0.29740
 O179 O 0.98059 0.13721 -0.16748
 Zr180 Zr 1.00955 -0.06051 -0.13097
 O181 O 1.00178 -0.06422 -0.26834
 O182 O 1.02477 -0.13577 -0.11604
 Zr183 Zr 1.05955 0.01601 -0.04423
 Zr184 Zr 0.94254 -0.00724 -0.02575
 O185 O 0.96527 -0.00825 -0.15577
 O186 O 1.03444 0.00659 -0.16793
 O187 O 0.95570 0.06750 -0.04667
 O188 O 1.04502 -0.05812 -0.02350
 O189 O 1.02557 0.08083 -0.05862
 O190 O 0.97727 -0.07171 -0.01252
 H191 H 0.95223 0.00287 0.15069
 H192 H 1.06607 -0.08374 -0.02023
 H193 H 0.94655 -0.01513 -0.20249
 H194 H 1.03954 0.11235 -0.06677
 H195 H 1.01424 -0.14227 0.05977
 H196 H 1.02560 -0.14781 -0.17619
 H197 H 1.02461 -0.04791 -0.29889
 H198 H 1.00648 0.03466 -0.31719
 H199 H 0.97713 0.14722 -0.23085
 H200 H 0.98664 0.16174 0.08141
 H201 H 1.00828 0.05313 0.22384
 H202 H 1.01444 -0.07311 0.25675
 O203 O 1.04362 0.59882 0.63038
 O204 O 1.09173 0.56007 0.55105
 C205 C 1.08028 0.59160 0.60655
 O206 O 0.95962 0.41015 0.69514
 O207 O 0.90850 0.44202 0.61144
 C208 C 0.92217 0.41598 0.67849
 O209 O 1.06775 0.43256 0.66913
 O210 O 1.10294 0.47874 0.56374
 C211 C 1.10048 0.44680 0.63090
 O212 O 0.93482 0.58200 0.64304
 O213 O 0.89608 0.52421 0.58672
 C214 C 0.90108 0.56183 0.63288
 Zr215 Zr 0.99129 0.56437 0.59509
 O216 O 0.99100 0.57528 0.73165
 O217 O 0.98082 0.63964 0.56244
 Zr218 Zr 1.00951 0.44372 0.62866
 O219 O 1.01220 0.45553 0.76449
 O220 O 1.02226 0.36811 0.65138
 O221 O 1.03555 0.51203 0.62113
 O222 O 0.96711 0.49800 0.63578
 O223 O 0.92464 0.56642 0.34251
 O224 O 0.89251 0.51221 0.43950
 C225 C 0.89271 0.54554 0.37497
 O226 O 1.06456 0.41799 0.35631
 O227 O 1.10008 0.47832 0.41388
 C228 C 1.09748 0.44119 0.36655
 O229 O 0.95581 0.38599 0.39613
 O230 O 0.90776 0.42742 0.47149
 C231 C 0.92010 0.39048 0.42878
 O232 O 1.03347 0.58702 0.31106
 O233 O 1.08566 0.56050 0.39696
 C234 C 1.07038 0.58784 0.33230
 Zr235 Zr 0.98495 0.55258 0.37702
 O236 O 0.97812 0.54519 0.24040
 O237 O 0.97393 0.62887 0.36530
 Zr238 Zr 1.00559 0.43168 0.40839
 O239 O 0.99734 0.42598 0.27169
 O240 O 1.02091 0.35669 0.42876
 Zr241 Zr 1.05590 0.51091 0.48925
 Zr242 Zr 0.94002 0.48535 0.51638
 O243 O 0.96091 0.48338 0.38511
 O244 O 1.02973 0.49929 0.36761
 O245 O 0.95189 0.56018 0.49218
 O246 O 1.04239 0.43632 0.51309
 O247 O 1.02065 0.57478 0.47618
 O248 O 0.97478 0.42097 0.52930
 H249 H 0.95149 0.49804 0.69175
 H250 H 1.06355 0.41084 0.51546
 H251 H 0.94188 0.47591 0.33940
 H252 H 1.03341 0.60705 0.46758
 H253 H 1.00872 0.35121 0.60536
 H254 H 1.02159 0.34338 0.36965
 H255 H 1.01874 0.44449 0.23985
 H256 H 1.00188 0.52755 0.21923
 H257 H 0.97007 0.63769 0.30164
 H258 H 0.98187 0.65583 0.61867
 H259 H 1.00810 0.54927 0.75965
 H260 H 1.01721 0.42306 0.79540
 O261 O 0.55183 0.10663 0.58324
 O262 O 0.59865 0.06435 0.50651
 C263 C 0.58810 0.09835 0.55779
 O264 O 0.46439 -0.08370 0.66094
 O265 O 0.41287 -0.04943 0.58149
 C266 C 0.42675 -0.07796 0.64496
 O267 O 0.57277 -0.05883 0.63795
 O268 O 0.60884 -0.01803 0.52722
 C269 C 0.60583 -0.04728 0.59835
 O270 O 0.44456 0.09309 0.60535
 O271 O 0.40386 0.03393 0.56017
 C272 C 0.41075 0.07267 0.60257
 Zr273 Zr 0.49878 0.07139 0.55576
 O274 O 0.50053 0.08402 0.69150
 O275 O 0.48911 0.14636 0.51859
 Zr276 Zr 0.51468 -0.04892 0.59732
 O277 O 0.51677 -0.03486 0.73226
 O278 O 0.52750 -0.12407 0.62572
 O279 O 0.54223 0.01858 0.58395
 O280 O 0.47333 0.00629 0.60242
 O281 O 0.42866 0.06885 0.30748
 O282 O 0.39635 0.01881 0.41157
 C283 C 0.39655 0.04999 0.34369
 O284 O 0.56701 -0.08064 0.32427
 O285 O 0.60425 -0.02055 0.37719
 C286 C 0.60035 -0.05798 0.33145
 O287 O 0.45948 -0.11099 0.37831
 O288 O 0.41062 -0.06694 0.44610
 C289 C 0.42376 -0.10593 0.40989
 O290 O 0.53787 0.08674 0.26879
 O291 O 0.59037 0.06069 0.35463
 C292 C 0.57495 0.08693 0.28879
 Zr293 Zr 0.48945 0.05517 0.33993
 O294 O 0.48108 0.04531 0.20465
 O295 O 0.47948 0.13155 0.32372
 Zr296 Zr 0.50897 -0.06506 0.37886
 O297 O 0.49811 -0.07296 0.24380
 O298 O 0.52416 -0.14010 0.39946
 Zr299 Zr 0.56127 0.01409 0.45192
 Zr300 Zr 0.44480 -0.00793 0.48549
 O301 O 0.46443 -0.01332 0.35398
 O302 O 0.53362 0.00097 0.33256
 O303 O 0.45784 0.06614 0.45573
 O304 O 0.54673 -0.05960 0.48162
 O305 O 0.52683 0.07851 0.43519
 O306 O 0.47914 -0.07262 0.50105
 H307 H 0.45814 0.00668 0.65893
 H308 H 0.56769 -0.08532 0.48496
 H309 H 0.44465 -0.02155 0.31039
 H310 H 0.53982 0.11046 0.42329
 H311 H 0.51746 -0.14146 0.57601
 H312 H 0.52336 -0.15398 0.34092
 H313 H 0.52012 -0.05722 0.20924
 H314 H 0.50391 0.02574 0.18410
 H315 H 0.47486 0.13911 0.25997
 H316 H 0.49189 0.16397 0.57292
 H317 H 0.51924 0.05960 0.71881
 H318 H 0.52091 -0.06703 0.76487
 O319 O 0.54195 0.60234 0.14176
 O320 O 0.58971 0.56479 0.05949
 C321 C 0.57851 0.59485 0.11776
 O322 O 0.45692 0.41202 0.19280
 O323 O 0.40557 0.44777 0.11471
 C324 C 0.41940 0.41787 0.17637
 O325 O 0.56543 0.43891 0.17647
 O326 O 0.60084 0.48614 0.07310
 C327 C 0.59836 0.45467 0.14087
 O328 O 0.43315 0.58734 0.15302
 O329 O 0.39427 0.53039 0.09490
 C330 C 0.39938 0.56738 0.14239
 Zr331 Zr 0.48941 0.56979 0.10373
 O332 O 0.48911 0.58006 0.24050
 O333 O 0.47974 0.64531 0.07236
 Zr334 Zr 0.50713 0.44871 0.13433
 O335 O 0.50811 0.45847 0.27110
 O336 O 0.52119 0.37339 0.15577
 O337 O 0.53323 0.51682 0.12825
 O338 O 0.46494 0.50312 0.14325
 O339 O 0.42298 0.57324 -0.15087
 O340 O 0.39050 0.51978 -0.05317
 C341 C 0.39092 0.55252 -0.11863
 O342 O 0.56184 0.42319 -0.13727
 O343 O 0.59767 0.48288 -0.07870
 C344 C 0.59488 0.44587 -0.12635
 O345 O 0.45266 0.39380 -0.09982
 O346 O 0.40507 0.43694 -0.02635
 C347 C 0.41660 0.40035 -0.07058
 O348 O 0.53183 0.59323 -0.18104
 O349 O 0.58398 0.56582 -0.09583
 C350 C 0.56883 0.59330 -0.16050
 Zr351 Zr 0.48317 0.55970 -0.11475
 O352 O 0.47626 0.55476 -0.25197
 O353 O 0.47264 0.63608 -0.12282
 Zr354 Zr 0.50317 0.43809 -0.08555
 O355 O 0.49533 0.43277 -0.22249
 O356 O 0.51766 0.36289 -0.06484
 Zr357 Zr 0.55383 0.51645 -0.00367
 Zr358 Zr 0.43799 0.49223 0.02315
 O359 O 0.45903 0.49068 -0.10814
 O360 O 0.52753 0.50580 -0.12544
 O361 O 0.45004 0.56700 0.00046
 O362 O 0.54026 0.44191 0.01923
 O363 O 0.51907 0.58078 -0.01507
 O364 O 0.47212 0.42717 0.03451
 H365 H 0.44889 0.50186 0.19873
 H366 H 0.56172 0.41682 0.02239
 H367 H 0.44018 0.48387 -0.15464
 H368 H 0.53231 0.61277 -0.02315
 H369 H 0.50812 0.35653 0.10904
 H370 H 0.51785 0.34941 -0.12379
 H371 H 0.51672 0.45152 -0.25387
 H372 H 0.49821 0.53381 -0.27261
 H373 H 0.46869 0.64578 -0.18613
 H374 H 0.48088 0.66112 0.12897
 H375 H 0.50437 0.55233 0.26866
 H376 H 0.51269 0.42555 0.30059
 N377 N 1.10123 0.16041 0.16507
 N378 N 1.13195 0.17718 0.20477
 C379 C 1.16345 0.14840 0.18636
 C380 C 1.15079 0.11292 0.13278
 N381 N 1.11175 0.12222 0.12096
 H382 H 1.16788 0.08345 0.10592
 N383 N 1.09986 0.65971 0.68723
 N384 N 1.13182 0.67867 0.71863
 C385 C 1.16289 0.64997 0.69698
 C386 C 1.14879 0.61245 0.65024
 N387 N 1.10930 0.62028 0.64544
 H388 H 1.16539 0.58292 0.62224
 N389 N 0.60847 0.17422 0.61174
 N390 N 0.64003 0.19488 0.64126
 C391 C 0.67053 0.16261 0.63655
 C392 C 0.65630 0.12083 0.60199
 N393 N 0.61745 0.12994 0.58761
 H394 H 0.67204 0.08699 0.59103
 N395 N 0.59888 0.65489 0.21555
 N396 N 0.63126 0.67075 0.25030
 C397 C 0.66191 0.64457 0.21852
 C398 C 0.64732 0.61219 0.16198
 N399 N 0.60785 0.62025 0.16177
 H400 H 0.66361 0.58633 0.12373
 N401 N 0.90441 -0.14381 0.24203
 N402 N 0.87211 -0.16461 0.27671
 C403 C 0.84089 -0.14113 0.23810
 C404 C 0.85507 -0.10539 0.17796
 N405 N 0.89481 -0.10849 0.18227
 H406 H 0.83835 -0.08132 0.13256
 N407 N 0.87857 0.42827 0.80082
 N408 N 0.84241 0.41523 0.82660
 C409 C 0.83368 0.37580 0.78288
 C410 C 0.86616 0.36496 0.72990
 N411 N 0.89359 0.39856 0.74307
 H412 H 0.86768 0.33955 0.67839
 N413 N 0.40705 -0.14218 0.75600
 N414 N 0.37410 -0.16303 0.78745
 C415 C 0.34343 -0.13766 0.75005
 C416 C 0.35872 -0.10070 0.69419
 N417 N 0.39843 -0.10485 0.69952
 H418 H 0.34265 -0.07543 0.64955
 N419 N 0.40073 0.34567 0.26739
 N420 N 0.36822 0.32316 0.29637
 C421 C 0.33711 0.35308 0.27518
 C422 C 0.35191 0.39524 0.23234
 N423 N 0.39161 0.38870 0.22798
 H424 H 0.33548 0.42562 0.20079
 N425 N 0.83215 0.03904 -0.22067
 N426 N 0.79947 0.06225 -0.24792
 C427 C 0.80658 0.11061 -0.25130
 C428 C 0.84562 0.11602 -0.22581
 N429 N 0.86040 0.07041 -0.20761
 H430 H 0.86111 0.14954 -0.21754
 N431 N 0.82731 0.52680 0.32544
 N432 N 0.79400 0.54938 0.30073
 C433 C 0.80041 0.59793 0.29831
 C434 C 0.83966 0.60412 0.32116
 N435 N 0.85517 0.55886 0.33724
 H436 H 0.85507 0.63772 0.32912
 N437 N 0.33382 0.03104 0.27912
 N438 N 0.29916 0.05227 0.26038
 C439 C 0.30162 0.09969 0.27825
 C440 C 0.33987 0.10670 0.30740
 N441 N 0.35887 0.06316 0.30615
 H442 H 0.35253 0.13943 0.33012
 N443 N 0.32602 0.53256 -0.17021
 N444 N 0.29313 0.55456 -0.19932
 C445 C 0.29953 0.60315 -0.20469
 C446 C 0.33834 0.60990 -0.17905
 N447 N 0.35359 0.56500 -0.15831
 H448 H 0.35372 0.64373 -0.17294
 N449 N 1.16382 -0.03387 -0.24305
 N450 N 1.19894 -0.05436 -0.25725
 C451 C 1.19622 -0.10211 -0.23073
 C452 C 1.15740 -0.11018 -0.20066
 N453 N 1.13816 -0.06661 -0.21018
 H454 H 1.14533 -0.14325 -0.16850
 N455 N 1.15926 0.45878 0.28878
 N456 N 1.19418 0.43800 0.27347
 C457 C 1.19153 0.39035 0.30081
 C458 C 1.15287 0.38268 0.33274
 N459 N 1.13370 0.42638 0.32333
 H460 H 1.14091 0.34979 0.36583
 N461 N 0.65964 -0.04203 0.24388
 N462 N 0.69492 -0.06215 0.22988
 C463 C 0.69388 -0.10832 0.26631
 C464 C 0.65600 -0.11593 0.30222
 N465 N 0.63552 -0.07370 0.28602
 H466 H 0.64548 -0.14738 0.34239
 N467 N 0.65633 0.46417 -0.20293
 N468 N 0.69136 0.44399 -0.21840
 C469 C 0.68908 0.39606 -0.19295
 C470 C 0.65039 0.38742 -0.16218
 N471 N 0.63097 0.43117 -0.16992
 H472 H 0.63869 0.35390 -0.13094
 N473 N 1.13781 0.09372 -0.28686
 N474 N 1.16441 0.12704 -0.30968
 C475 C 1.14766 0.17117 -0.29673
 C476 C 1.10914 0.16378 -0.26718
 N477 N 1.10463 0.11487 -0.26069
 H478 H 1.08911 0.19010 -0.23915
 N479 N 1.07830 0.65465 0.22263
 N480 N 1.09919 0.69478 0.20853
 C481 C 1.12891 0.69186 0.26650
 C482 C 1.12575 0.64736 0.31614
 N483 N 1.09348 0.62553 0.28685
 H484 H 1.14261 0.63450 0.37316
 N485 N 0.58485 0.15228 0.17589
 N486 N 0.60580 0.19264 0.16456
 C487 C 0.63339 0.18963 0.22743
 C488 C 0.62922 0.14568 0.27646
 N489 N 0.59849 0.12347 0.24244
 H490 H 0.64418 0.13362 0.33663
 N491 N 0.57692 0.65911 -0.27176
 N492 N 0.59887 0.69808 -0.28908
 C493 C 0.62955 0.69427 -0.23373
 C494 C 0.62583 0.65043 -0.18219
 N495 N 0.59229 0.62994 -0.20785
 H496 H 0.64341 0.63723 -0.12649
 N497 N 0.92247 -0.19001 -0.07993
 N498 N 0.89963 -0.22787 -0.08775
 C499 C 0.86506 -0.21034 -0.12008
 C500 C 0.86736 -0.15951 -0.13124
 N501 N 0.90401 -0.14874 -0.10585
 H502 H 0.84604 -0.13378 -0.16079
 N503 N 0.86610 0.34232 0.48958
 N504 N 0.84415 0.30498 0.47230
 C505 C 0.85814 0.28820 0.39604
 C506 C 0.88980 0.31709 0.36653
 N507 N 0.89336 0.35065 0.42686
 H508 H 0.90615 0.31644 0.30453
 N509 N 0.41652 -0.19082 0.45399
 N510 N 0.39267 -0.22767 0.44526
 C511 C 0.36055 -0.20933 0.40286
 C512 C 0.36544 -0.15919 0.38611
 N513 N 0.40100 -0.14952 0.41898
 H514 H 0.34690 -0.13354 0.34773
 N515 N 0.34979 0.37389 -0.05930
 N516 N 0.32699 0.33848 -0.08092
 C517 C 0.35012 0.30569 -0.12112
 C518 C 0.38881 0.32241 -0.12268
 N519 N 0.38677 0.36564 -0.08461
 H520 H 0.41495 0.30662 -0.15263
 N521 N 1.17265 -0.06583 0.13157
 N522 N 1.19376 -0.10347 0.16693
 C523 C 1.16794 -0.13950 0.19117
 C524 C 1.13080 -0.12228 0.17131
 N525 N 1.13467 -0.07676 0.13490
 H526 H 1.10295 -0.14080 0.18230
 N527 N 1.17084 0.42693 0.62365
 N528 N 1.19305 0.38689 0.63667
 C529 C 1.16937 0.35199 0.67520
 C530 C 1.13272 0.37202 0.68803
 N531 N 1.13466 0.41874 0.65534
 H532 H 1.10631 0.35337 0.71255
 N533 N 0.67726 -0.06692 0.61850
 N534 N 0.69822 -0.10519 0.65196
 C535 C 0.67194 -0.13943 0.68277
 C536 C 0.63484 -0.12042 0.66925
 N537 N 0.63906 -0.07565 0.62976
 H538 H 0.60679 -0.13742 0.68609
 N539 N 0.66940 0.43692 0.13793
 N540 N 0.69234 0.39831 0.15950
 C541 C 0.66941 0.36606 0.20741
 C542 C 0.63259 0.38641 0.21680
 N543 N 0.63339 0.43032 0.17222
 H544 H 0.60642 0.36852 0.24475
 N545 N 0.83529 0.07747 0.13975
 N546 N 0.81324 0.10732 0.18614
 C547 C 0.83756 0.14130 0.21514
 C548 C 0.87498 0.13145 0.18510
 N549 N 0.87238 0.09178 0.13820
 H550 H 0.90141 0.15227 0.19324
 N551 N 0.83068 0.57021 0.67354
 N552 N 0.80791 0.60083 0.71698
 C553 C 0.83205 0.63398 0.74904
 C554 C 0.87006 0.62274 0.72369
 N555 N 0.86806 0.58321 0.67677
 H556 H 0.89662 0.64295 0.73358
 N557 N 0.35131 0.07007 0.69615
 N558 N 0.33310 0.09911 0.75088
 C559 C 0.35290 0.14179 0.74632
 C560 C 0.38275 0.13859 0.68519
 N561 N 0.38064 0.09381 0.65480
 H562 H 0.40301 0.16698 0.66158
 N563 N 0.32922 0.57413 0.18499
 N564 N 0.30623 0.60383 0.22983
 C565 C 0.33004 0.63727 0.26203
 C566 C 0.36808 0.62723 0.23529
 N567 N 0.36639 0.58804 0.18739
 H568 H 0.39435 0.64806 0.24490
   
