data_POSCAR
  _audit_creation_date              2014-09-24
  _audit_creation_method            'ToBaCCo'
  _symmetry_space_group_name_H-M    'P1'
  _symmetry_Int_Tables_number       1
  _symmetry_cell_setting            triclinic
  loop_
  _symmetry_equiv_pos_as_xyz
 x,y,z
_cell_length_a 43.1541
_cell_length_b 40.4519
_cell_length_c 44.6176
_cell_angle_alpha 87.294200
_cell_angle_beta 93.128300
_cell_angle_gamma 90.228300
loop_
  _atom_site_label
  _atom_site_type_symbol
  _atom_site_fract_x
  _atom_site_fract_y
  _atom_site_fract_z
N1 N 0.62465 0.63890 0.61930
 N2 N 0.88464 0.38551 0.11844
 N3 N 0.36808 0.12540 -0.12221
 N4 N 0.13751 0.85064 0.36341
 N5 N 0.10400 0.18218 0.10285
 N6 N 0.08969 0.16989 0.12616
 C7 C 0.06692 0.19074 0.13241
 C8 C 0.06704 0.21751 0.11192
 C9 C 0.09089 0.21130 0.09356
 H10 H 0.05171 0.18693 0.15071
 H11 H 0.09818 0.22692 0.07489
 Cu12 Cu 0.10268 0.12824 0.14644
 Cu13 Cu 0.13880 0.15968 0.08664
 Cu14 Cu 0.16294 0.08580 0.12316
 N15 N 0.11604 0.08654 0.16642
 N16 N 0.13979 0.07015 0.15736
 C17 C 0.14414 0.04241 0.17498
 C18 C 0.12187 0.04145 0.19620
 C19 C 0.10448 0.06976 0.19010
 H20 H 0.16202 0.02431 0.17235
 H21 H 0.08484 0.07742 0.20211
 N22 N 0.18323 0.10562 0.08805
 N23 N 0.17358 0.13332 0.07372
 C24 C 0.19179 0.14010 0.05062
 C25 C 0.21399 0.11556 0.05055
 C26 C 0.20800 0.09424 0.07459
 H27 H 0.18951 0.16165 0.03540
 H28 H 0.22085 0.07208 0.08168
 H29 H 0.12693 0.11229 0.10123
 H30 H 0.15395 0.13564 0.12663
 N31 N 0.40778 0.83931 0.61927
 N32 N 0.41722 0.85041 0.64545
 C33 C 0.44532 0.83754 0.65361
 C34 C 0.45380 0.81716 0.63151
 C35 C 0.42946 0.81885 0.60997
 H36 H 0.45865 0.84242 0.67416
 H37 H 0.42758 0.80624 0.58912
 Cu38 Cu 0.39206 0.88068 0.66639
 Cu39 Cu 0.36800 0.85189 0.59937
 Cu40 Cu 0.31943 0.89892 0.63982
 N41 N 0.36693 0.91301 0.68494
 N42 N 0.33837 0.91963 0.67474
 C43 C 0.32590 0.94170 0.69224
 C44 C 0.34792 0.94958 0.71438
 C45 C 0.37373 0.93092 0.70913
 H46 H 0.30256 0.95136 0.68906
 H47 H 0.39559 0.93003 0.72217
 N48 N 0.30810 0.88448 0.59915
 N49 N 0.32669 0.86696 0.58354
 C50 C 0.31274 0.86216 0.55633
 C51 C 0.28410 0.87757 0.55478
 C52 C 0.28197 0.89152 0.58221
 H53 H 0.32293 0.84898 0.53880
 H54 H 0.26295 0.90622 0.58908
 H55 H 0.36169 0.89605 0.62051
 H56 H 0.34740 0.85677 0.63881
 N57 N 0.90247 0.66639 0.39935
 N58 N 0.91408 0.65452 0.37544
 C59 C 0.94058 0.67080 0.36970
 C60 C 0.94572 0.69409 0.39119
 C61 C 0.92112 0.69059 0.40961
 H62 H 0.95501 0.66598 0.35137
 H63 H 0.91721 0.70458 0.42911
 Cu64 Cu 0.89348 0.61886 0.35422
 Cu65 Cu 0.86430 0.64934 0.41571
 Cu66 Cu 0.82749 0.58570 0.37828
 N67 N 0.87250 0.58315 0.33330
 N68 N 0.84656 0.57040 0.34286
 C69 C 0.83622 0.54632 0.32504
 C70 C 0.85740 0.54219 0.30074
 C71 C 0.88060 0.56801 0.30863
 H72 H 0.81530 0.53212 0.32830
 H73 H 0.90101 0.57395 0.29643
 N74 N 0.81161 0.60431 0.41445
 N75 N 0.82548 0.62867 0.42865
 C76 C 0.80922 0.63549 0.45257
 C77 C 0.78398 0.61434 0.45337
 C78 C 0.78624 0.59496 0.42899
 H79 H 0.81557 0.65404 0.46844
 H80 H 0.77059 0.57527 0.42258
 H81 H 0.86780 0.60248 0.39995
 H82 H 0.84489 0.63345 0.37568
 N83 N 0.59508 0.32431 -0.10604
 N84 N 0.57831 0.33703 -0.12921
 C85 C 0.55320 0.31777 -0.13424
 C86 C 0.55445 0.29156 -0.11312
 C87 C 0.58132 0.29644 -0.09566
 H88 H 0.53583 0.32197 -0.15238
 H89 H 0.59036 0.28060 -0.07704
 Cu90 Cu 0.59180 0.37651 -0.15147
 Cu91 Cu 0.63395 0.34421 -0.09166
 Cu92 Cu 0.65902 0.41393 -0.13174
 N93 N 0.60578 0.41601 -0.17339
 N94 N 0.63227 0.43031 -0.16574
 C95 C 0.63653 0.45678 -0.18450
 C96 C 0.61133 0.45913 -0.20505
 C97 C 0.59230 0.43293 -0.19734
 H98 H 0.65640 0.47307 -0.18313
 H99 H 0.57030 0.42674 -0.20847
 N100 N 0.68268 0.39375 -0.09657
 N101 N 0.67266 0.36785 -0.08074
 C102 C 0.69328 0.36076 -0.05760
 C103 C 0.71747 0.38317 -0.05911
 C104 C 0.71013 0.40356 -0.08410
 H105 H 0.69114 0.34050 -0.04116
 H106 H 0.72372 0.42424 -0.09233
 H107 H 0.62412 0.39199 -0.10784
 H108 H 0.64504 0.36502 -0.13289
 C109 C -0.09457 0.35784 0.11786
 C110 C -0.06251 0.36090 0.12294
 C111 C -0.04139 0.33212 0.12362
 C112 C -0.01059 0.33680 0.11576
 C113 C 0.00990 0.31002 0.11644
 C114 C -0.00006 0.27805 0.12533
 C115 C -0.03063 0.27358 0.13392
 C116 C -0.05115 0.30026 0.13299
 C117 C 0.02093 0.24910 0.12702
 C118 C 0.04686 0.24690 0.10987
 H119 H -0.05238 0.38529 0.12479
 H120 H -0.00240 0.36123 0.10898
 H121 H 0.03358 0.31461 0.11060
 H122 H -0.03869 0.24931 0.14135
 H123 H -0.07441 0.29595 0.14022
 H124 H 0.01466 0.22797 0.14124
 H125 H -0.10417 0.33414 0.11180
 H126 H 0.05208 0.26661 0.09368
 C127 C 0.59670 0.65824 0.61624
 C128 C 0.59773 0.69272 0.61471
 C129 C 0.56950 0.71350 0.61312
 C130 C 0.57124 0.74527 0.62444
 C131 C 0.54487 0.76530 0.62386
 C132 C 0.51623 0.75398 0.61165
 C133 C 0.51476 0.72269 0.59937
 C134 C 0.54106 0.70254 0.60019
 C135 C 0.48773 0.77430 0.61086
 C136 C 0.48277 0.79804 0.63177
 H137 H 0.62013 0.70480 0.61705
 H138 H 0.59301 0.75446 0.63407
 H139 H 0.54713 0.78973 0.63260
 H140 H 0.49310 0.71365 0.58938
 H141 H 0.53910 0.67864 0.59034
 H142 H 0.46924 0.76879 0.59446
 H143 H 0.57459 0.64565 0.61705
 H144 H 0.49996 0.80185 0.64985
 C145 C 1.11257 0.82717 0.35947
 C146 C 1.09918 0.81102 0.38397
 C147 C 1.07280 0.78758 0.38115
 C148 C 1.05543 0.78042 0.40635
 C149 C 1.03033 0.75850 0.40477
 C150 C 1.02204 0.74321 0.37779
 C151 C 1.03989 0.74976 0.35281
 C152 C 1.06500 0.77166 0.35440
 C153 C 0.99571 0.71969 0.37499
 C154 C 0.97160 0.71772 0.39464
 H155 H 1.10730 0.81726 0.40640
 H156 H 1.06126 0.79189 0.42738
 H157 H 1.01795 0.75333 0.42488
 H158 H 1.03435 0.73790 0.33191
 H159 H 1.07838 0.77552 0.33475
 H160 H 0.99483 0.70405 0.35594
 H161 H 1.10286 0.82363 0.33700
 H162 H 0.97099 0.73427 0.41292
 C163 C 0.38878 0.15322 -0.11947
 C164 C 0.42003 0.15125 -0.12574
 C165 C 0.44123 0.18004 -0.12475
 C166 C 0.47318 0.17471 -0.11927
 C167 C 0.49391 0.20137 -0.11909
 C168 C 0.48302 0.23392 -0.12476
 C169 C 0.45114 0.23917 -0.13077
 C170 C 0.43039 0.21256 -0.13063
 C171 C 0.50432 0.26262 -0.12610
 C172 C 0.53314 0.26320 -0.11039
 H173 H 0.42956 0.12744 -0.13048
 H174 H 0.48212 0.14982 -0.11518
 H175 H 0.51845 0.19630 -0.11531
 H176 H 0.44226 0.26396 -0.13568
 H177 H 0.40603 0.21750 -0.13593
 H178 H 0.49640 0.28459 -0.13905
 H179 H 0.38004 0.17580 -0.11093
 H180 H 0.54016 0.24274 -0.09506
 C181 C 0.14322 -0.12477 0.33990
 C182 C 0.11927 -0.11139 0.32079
 C183 C 0.12414 -0.08584 0.29658
 C184 C 0.09874 -0.06670 0.28519
 C185 C 0.10224 -0.04237 0.26231
 C186 C 0.13136 -0.03671 0.25028
 C187 C 0.15657 -0.05647 0.26109
 C188 C 0.15308 -0.08077 0.28401
 C189 C 0.13612 -0.01120 0.22600
 C190 C 0.11673 0.01616 0.22026
 H191 H 0.09561 -0.11869 0.32476
 H192 H 0.07606 -0.07051 0.29407
 H193 H 0.08195 -0.02857 0.25387
 H194 H 0.17912 -0.05302 0.25184
 H195 H 0.17299 -0.09577 0.29137
 H196 H 0.15645 -0.01339 0.21307
 H197 H 0.16652 -0.11512 0.33831
 H198 H 0.09749 0.02001 0.23422
 C199 C 0.62979 0.61455 -0.35619
 C200 C 0.60733 0.60612 -0.33567
 C201 C 0.61265 0.58134 -0.31041
 C202 C 0.58697 0.56528 -0.29830
 C203 C 0.59097 0.54166 -0.27452
 C204 C 0.62089 0.53369 -0.26226
 C205 C 0.64649 0.55048 -0.27377
 C206 C 0.64249 0.57402 -0.29761
 C207 C 0.62629 0.50885 -0.23706
 C208 C 0.60518 0.48383 -0.22996
 H209 H 0.58440 0.61681 -0.33874
 H210 H 0.56369 0.57092 -0.30738
 H211 H 0.57052 0.53021 -0.26561
 H212 H 0.66973 0.54527 -0.26436
 H213 H 0.66280 0.58675 -0.30547
 H214 H 0.64844 0.50949 -0.22450
 H215 H 0.65213 0.60250 -0.35343
 H216 H 0.58374 0.48140 -0.24339
 C217 C 0.37141 1.10312 0.85387
 C218 C 0.35564 1.07293 0.85255
 C219 C 0.35925 1.05002 0.82810
 C220 C 0.33440 1.02933 0.81977
 C221 C 0.33699 1.00754 0.79662
 C222 C 0.36473 1.00578 0.78162
 C223 C 0.38990 1.02570 0.79063
 C224 C 0.38720 1.04775 0.81353
 C225 C 0.36849 0.98276 0.75730
 C226 C 0.34374 0.97241 0.73857
 H227 H 0.33923 1.06621 0.86930
 H228 H 0.31283 1.03024 0.83104
 H229 H 0.31746 0.99174 0.79094
 H230 H 0.41169 1.02435 0.77976
 H231 H 0.40720 1.06248 0.82011
 H232 H 0.39181 0.97525 0.75296
 H233 H 0.38679 1.11010 0.83627
 H234 H 0.32070 0.98212 0.74083
 C235 C 0.88931 0.40913 0.14150
 C236 C 0.86467 0.42128 0.15680
 C237 C 0.86853 0.44484 0.18117
 C238 C 0.84488 0.44708 0.20134
 C239 C 0.84734 0.46918 0.22447
 C240 C 0.87352 0.48980 0.22780
 C241 C 0.89704 0.48787 0.20744
 C242 C 0.89460 0.46568 0.18429
 C243 C 0.87670 0.51352 0.25203
 C244 C 0.85453 0.51574 0.27325
 H245 H 0.84164 0.41144 0.15224
 H246 H 0.82444 0.43153 0.19929
 H247 H 0.82868 0.47010 0.23967
 H248 H 0.91731 0.50367 0.20937
 H249 H 0.91290 0.46543 0.16869
 H250 H 0.89693 0.52949 0.25331
 H251 H 0.91273 0.41528 0.14907
 H252 H 0.85721 0.52988 0.28690
 C253 C 0.34126 0.12393 -0.10441
 C254 C 0.34362 0.13098 -0.07408
 C255 C 0.31686 0.13012 -0.05475
 C256 C 0.32209 0.12348 -0.02376
 C257 C 0.29747 0.12333 -0.00467
 C258 C 0.26711 0.13027 -0.01626
 C259 C 0.26196 0.13754 -0.04718
 C260 C 0.28654 0.13725 -0.06634
 C261 C 0.24079 0.13167 0.00351
 C262 C 0.23968 0.11286 0.03044
 H263 H 0.36642 0.13569 -0.06375
 H264 H 0.34533 0.11839 -0.01429
 H265 H 0.30242 0.11863 0.01918
 H266 H 0.23885 0.14347 -0.05653
 H267 H 0.28185 0.14344 -0.09001
 H268 H 0.22109 0.14697 -0.00406
 H269 H 0.31933 0.11567 -0.11441
 H270 H 0.25766 0.09488 0.03673
 C271 C 0.64779 0.64461 0.59752
 C272 C 0.66661 0.61910 0.58884
 C273 C 0.68975 0.62341 0.56566
 C274 C 0.69948 0.59541 0.55136
 C275 C 0.72144 0.59821 0.52952
 C276 C 0.73426 0.62920 0.52157
 C277 C 0.72516 0.65710 0.53641
 C278 C 0.70305 0.65432 0.55820
 C279 C 0.75781 0.63298 0.49872
 C280 C 0.76004 0.61122 0.47559
 H281 H 0.66278 0.59423 0.59794
 H282 H 0.69000 0.57123 0.55709
 H283 H 0.72870 0.57593 0.51942
 H284 H 0.73511 0.68115 0.53105
 H285 H 0.69693 0.67629 0.56944
 H286 H 0.77300 0.65433 0.49948
 H287 H 0.64845 0.66842 0.58547
 H288 H 0.74333 0.59141 0.47306
 C289 C 0.85729 0.38698 0.09831
 C290 C 0.85643 0.37257 0.07044
 C291 C 0.82835 0.37292 0.04995
 C292 C 0.83159 0.37315 0.01883
 C293 C 0.80542 0.37270 -0.00104
 C294 C 0.77550 0.37143 0.00997
 C295 C 0.77229 0.37045 0.04111
 C296 C 0.79844 0.37148 0.06095
 C297 C 0.74743 0.36976 -0.01040
 C298 C 0.74557 0.38510 -0.03908
 H299 H 0.87745 0.36207 0.06272
 H300 H 0.85445 0.37376 0.00990
 H301 H 0.80868 0.37255 -0.02491
 H302 H 0.74947 0.36901 0.05008
 H303 H 0.79522 0.37032 0.08487
 H304 H 0.72701 0.35779 -0.00183
 H305 H 0.83758 0.40157 0.10365
 H306 H 0.76463 0.40024 -0.04664
 C307 C 0.15973 0.84629 0.38855
 C308 C 0.17503 0.87320 0.40114
 C309 C 0.19740 0.86985 0.42744
 C310 C 0.20206 0.89680 0.44584
 C311 C 0.22310 0.89463 0.47080
 C312 C 0.24014 0.86543 0.47770
 C313 C 0.23609 0.83879 0.45884
 C314 C 0.21484 0.84086 0.43402
 C315 C 0.26304 0.86244 0.50360
 C316 C 0.26089 0.88037 0.52936
 H317 H 0.16888 0.89792 0.39250
 H318 H 0.18928 0.91960 0.44093
 H319 H 0.22638 0.91608 0.48422
 H320 H 0.24934 0.81625 0.46339
 H321 H 0.21263 0.81999 0.41975
 H322 H 0.28135 0.84433 0.50288
 H323 H 0.16296 0.82180 0.39908
 H324 H 0.24118 0.89637 0.53155
   
