data_POSCAR
  _audit_creation_date              2014-09-24
  _audit_creation_method            'ToBaCCo'
  _symmetry_space_group_name_H-M    'P1'
  _symmetry_Int_Tables_number       1
  _symmetry_cell_setting            triclinic
  loop_
  _symmetry_equiv_pos_as_xyz
 x,y,z
_cell_length_a 38.2415
_cell_length_b 38.9440
_cell_length_c 37.5966
_cell_angle_alpha 89.529600
_cell_angle_beta 90.065800
_cell_angle_gamma 89.600900
loop_
  _atom_site_label
  _atom_site_type_symbol
  _atom_site_fract_x
  _atom_site_fract_y
  _atom_site_fract_z
N1 N 0.37043 0.37566 1.36815
 N2 N 1.14625 0.64676 0.86890
 N3 N 0.63316 -0.15850 0.14169
 N4 N -0.13585 1.14196 -0.36257
 N5 N 0.63861 0.64839 0.62967
 N6 N 0.86216 0.35851 0.14429
 N7 N 0.33837 0.14487 0.84785
 N8 N 0.14356 0.85610 0.36672
 Zn9 Zn -0.03570 1.00327 0.04790
 Zn10 Zn 0.03194 0.97928 0.01825
 Zn11 Zn -0.03420 0.96721 -0.02222
 Zn12 Zn -0.00507 1.03834 -0.01546
 O13 O -0.01085 0.99699 0.00702
 O14 O -0.01248 0.98980 0.08716
 O15 O 0.03910 0.93840 -0.00104
 O16 O -0.07470 0.95266 -0.00320
 O17 O 0.03808 0.97275 0.06486
 O18 O -0.07574 0.97997 0.04814
 O19 O -0.00907 0.92896 -0.03192
 O20 O -0.02465 1.03911 -0.05857
 O21 O 0.06738 1.00521 0.00302
 O22 O -0.04571 0.98664 -0.06428
 O23 O 0.03997 1.04892 -0.02270
 O24 O -0.02416 1.07358 0.00844
 O25 O -0.04742 1.04715 0.05489
 C26 C 0.01807 0.97744 0.09128
 C27 C 0.02113 0.91956 -0.02132
 C28 C -0.08963 0.95969 0.02605
 C29 C -0.04069 1.01671 -0.07657
 C30 C 0.06807 1.03331 -0.01426
 C31 C -0.04137 1.07441 0.03730
 Zn32 Zn 0.47741 0.01747 0.45334
 Zn33 Zn 0.47717 -0.01830 0.52443
 Zn34 Zn 0.54358 -0.01040 0.48329
 Zn35 Zn 0.51056 0.05086 0.51581
 O36 O 0.50206 0.00987 0.49431
 O37 O 0.43649 -0.00422 0.45352
 O38 O 0.50014 -0.05780 0.53517
 O39 O 0.54878 -0.01804 0.43689
 O40 O 0.43593 -0.03088 0.50571
 O41 O 0.49961 0.00268 0.41423
 O42 O 0.54858 -0.05126 0.50391
 O43 O 0.55626 0.05904 0.52214
 O44 O 0.46695 0.00205 0.56603
 O45 O 0.58066 0.01364 0.49725
 O46 O 0.49168 0.05288 0.55910
 O47 O 0.49281 0.08693 0.49166
 O48 O 0.46750 0.06193 0.44584
 C49 C 0.42161 -0.02368 0.47603
 C50 C 0.52974 -0.06889 0.52479
 C51 C 0.52902 -0.01212 0.41040
 C52 C 0.58326 0.04181 0.51371
 C53 C 0.47417 0.03174 0.57764
 C54 C 0.47499 0.08875 0.46316
 Zn55 Zn 1.01128 0.45962 0.48647
 Zn56 Zn 1.04568 0.52132 0.51669
 Zn57 Zn 0.97604 0.52837 0.47988
 Zn58 Zn 0.98172 0.49310 0.55043
 O59 O 1.00368 0.50069 0.50826
 O60 O 1.05650 0.45171 0.47760
 O61 O 1.04830 0.56246 0.49559
 O62 O 0.96445 0.50820 0.43865
 O63 O 1.08236 0.49713 0.50034
 O64 O 0.99012 0.45735 0.44420
 O65 O 0.99726 0.56792 0.46822
 O66 O 0.93983 0.51297 0.55230
 O67 O 1.05353 0.52928 0.56301
 O68 O 0.93527 0.54025 0.50073
 O69 O 1.00503 0.50969 0.58756
 O70 O 0.97458 0.44869 0.55964
 O71 O 0.99615 0.42346 0.51197
 C72 C 1.08393 0.46874 0.48401
 C73 C 1.02715 0.57963 0.47627
 C74 C 0.97162 0.47862 0.42650
 C75 C 0.92282 0.53212 0.53095
 C76 C 1.03444 0.52430 0.59015
 C77 C 0.98125 0.42176 0.54209
 Zn78 Zn 0.48203 0.47933 0.94739
 Zn79 Zn 0.48101 0.51463 1.01790
 Zn80 Zn 0.51585 0.44561 1.00952
 Zn81 Zn 0.54788 0.50747 0.97666
 O82 O 0.50663 0.48685 0.98801
 O83 O 0.44074 0.50021 0.94775
 O84 O 0.47183 0.49387 1.05993
 O85 O 0.49777 0.40980 0.98635
 O86 O 0.43920 0.52730 0.99917
 O87 O 0.47287 0.43500 0.93989
 O88 O 0.49811 0.44349 1.05328
 O89 O 0.58546 0.48328 0.99072
 O90 O 0.50340 0.55399 1.02828
 O91 O 0.56165 0.43687 1.01444
 O92 O 0.55216 0.54818 0.99724
 O93 O 0.55271 0.51564 0.92994
 O94 O 0.50323 0.49539 0.90840
 C95 C 0.42518 0.51958 0.96963
 C96 C 0.48034 0.46431 1.07188
 C97 C 0.48012 0.40813 0.95781
 C98 C 0.58838 0.45438 1.00630
 C99 C 0.53286 0.56536 1.01808
 C100 C 0.53228 0.51033 0.90396
 C101 C 1.33893 0.39395 0.42223
 C102 C 1.30883 0.40661 0.43883
 C103 C 1.27902 0.41510 0.41872
 C104 C 1.28034 0.41200 0.38147
 C105 C 1.31050 0.39962 0.36489
 C106 C 1.33994 0.39014 0.38514
 C107 C 1.24714 0.42743 0.43712
 C108 C 1.21492 0.42115 0.42475
 C109 C 1.18238 0.43277 0.44244
 C110 C 1.15131 0.41517 0.43534
 C111 C 1.11959 0.42629 0.44969
 C112 C 1.11810 0.45562 0.47119
 C113 C 1.14927 0.47313 0.47864
 C114 C 1.18112 0.46185 0.46442
 H115 H 1.36146 0.38700 0.43827
 H116 H 1.30857 0.40914 0.46750
 H117 H 1.25821 0.41932 0.36505
 H118 H 1.31069 0.39685 0.33626
 H119 H 1.25040 0.44007 0.46243
 H120 H 1.21200 0.40545 0.40130
 H121 H 1.15153 0.39284 0.41834
 H122 H 1.09608 0.41226 0.44326
 H123 H 1.14898 0.49595 0.49491
 H124 H 1.20437 0.47660 0.46977
 C125 C 0.18017 0.63261 0.92318
 C126 C 0.21110 0.62131 0.93957
 C127 C 0.24081 0.61373 0.91911
 C128 C 0.23955 0.61944 0.88209
 C129 C 0.20870 0.63069 0.86579
 C130 C 0.17855 0.63668 0.88607
 C131 C 0.27262 0.59975 0.93679
 C132 C 0.29430 0.57800 0.92011
 C133 C 0.32643 0.56254 0.93573
 C134 C 0.34200 0.53514 0.91755
 C135 C 0.37346 0.52081 0.92925
 C136 C 0.39039 0.53354 0.95954
 C137 C 0.37454 0.56047 0.97845
 C138 C 0.34288 0.57499 0.96659
 H139 H 0.15724 0.63746 0.93928
 H140 H 0.21156 0.61760 0.96816
 H141 H 0.26237 0.61537 0.86562
 H142 H 0.20823 0.63462 0.83724
 H143 H 0.27679 0.60591 0.96446
 H144 H 0.28763 0.56991 0.89346
 H145 H 0.33000 0.52500 0.89375
 H146 H 0.38478 0.49998 0.91411
 H147 H 0.38708 0.57095 1.00177
 H148 H 0.33211 0.59645 0.98108
 C149 C -0.30732 0.86261 0.15380
 C150 C -0.27539 0.87556 0.14210
 C151 C -0.26871 0.88015 0.10566
 C152 C -0.29488 0.87120 0.08102
 C153 C -0.32687 0.85805 0.09282
 C154 C -0.33347 0.85394 0.12932
 C155 C -0.23478 0.89561 0.09523
 C156 C -0.22234 0.89730 0.06187
 C157 C -0.18851 0.91380 0.05298
 C158 C -0.17058 0.90381 0.02213
 C159 C -0.13852 0.91871 0.01317
 C160 C -0.12382 0.94409 0.03485
 C161 C -0.14217 0.95460 0.06529
 C162 C -0.17419 0.93986 0.07413
 H163 H -0.31168 0.85934 0.18208
 H164 H -0.25587 0.88224 0.16172
 H165 H -0.29131 0.87488 0.05275
 H166 H -0.34683 0.85172 0.07355
 H167 H -0.21890 0.90539 0.11668
 H168 H -0.23632 0.88518 0.04042
 H169 H -0.18123 0.88413 0.00513
 H170 H -0.12515 0.91018 -0.01058
 H171 H -0.13189 0.97447 0.08227
 H172 H -0.18779 0.94943 0.09726
 C173 C 0.80617 0.15985 0.61442
 C174 C 0.77348 0.15193 0.60023
 C175 C 0.76421 0.11771 0.59395
 C176 C 0.78822 0.09140 0.60289
 C177 C 0.82098 0.09938 0.61704
 C178 C 0.83031 0.13367 0.62283
 C179 C 0.72889 0.11063 0.57945
 C180 C 0.72063 0.08150 0.56268
 C181 C 0.68516 0.07372 0.54886
 C182 C 0.68156 0.04644 0.52499
 C183 C 0.64859 0.03669 0.51282
 C184 C 0.61834 0.05401 0.52428
 C185 C 0.62188 0.08172 0.54768
 C186 C 0.65486 0.09137 0.56004
 H187 H 0.81257 0.18647 0.61914
 H188 H 0.75537 0.17266 0.59406
 H189 H 0.78174 0.06463 0.59966
 H190 H 0.83914 0.07879 0.62349
 H191 H 0.70964 0.13096 0.58164
 H192 H 0.74086 0.06256 0.55785
 H193 H 0.70435 0.03228 0.51604
 H194 H 0.64680 0.01519 0.49484
 H195 H 0.59905 0.09535 0.55733
 H196 H 0.65610 0.11190 0.57913
 C197 C 0.42260 0.34083 0.38379
 C198 C 0.43775 0.31025 0.39635
 C199 C 0.41668 0.28265 0.40701
 C200 C 0.38009 0.28667 0.40611
 C201 C 0.36499 0.31732 0.39384
 C202 C 0.38609 0.34457 0.38226
 C203 C 0.43350 0.25033 0.41948
 C204 C 0.41867 0.21952 0.41521
 C205 C 0.43498 0.18674 0.42707
 C206 C 0.42501 0.15630 0.41027
 C207 C 0.43856 0.12462 0.42150
 C208 C 0.46208 0.12259 0.45021
 C209 C 0.47212 0.15309 0.46709
 C210 C 0.45873 0.18485 0.45565
 H211 H 0.43932 0.36163 0.37523
 H212 H 0.46598 0.30791 0.39716
 H213 H 0.36304 0.26634 0.41516
 H214 H 0.33677 0.31962 0.39286
 H215 H 0.45960 0.25195 0.43050
 H216 H 0.39415 0.21788 0.40089
 H217 H 0.40656 0.15702 0.38838
 H218 H 0.43012 0.10164 0.40802
 H219 H 0.49002 0.15239 0.48942
 H220 H 0.46631 0.20765 0.46990
 C221 C 0.88461 0.17745 0.58681
 C222 C 0.90110 0.20677 0.57352
 C223 C 0.91609 0.23064 0.59670
 C224 C 0.91545 0.22380 0.63355
 C225 C 0.89878 0.19458 0.64682
 C226 C 0.88289 0.17129 0.62362
 C227 C 0.93184 0.26222 0.58144
 C228 C 0.93581 0.29125 0.59999
 C229 C 0.94878 0.32395 0.58454
 C230 C 0.94175 0.35446 0.60287
 C231 C 0.95258 0.38608 0.58925
 C232 C 0.97091 0.38797 0.55693
 C233 C 0.97870 0.35740 0.53887
 C234 C 0.96790 0.32568 0.55258
 H235 H 0.87286 0.15966 0.56841
 H236 H 0.90156 0.21116 0.54503
 H237 H 0.92777 0.24076 0.65233
 H238 H 0.89781 0.19040 0.67530
 H239 H 0.93782 0.26203 0.55334
 H240 H 0.92694 0.29212 0.62727
 H241 H 0.92736 0.35392 0.62768
 H242 H 0.94625 0.40910 0.60395
 H243 H 0.99310 0.35797 0.51409
 H244 H 0.97492 0.30277 0.53814
 C245 C 0.09113 0.67585 -0.11407
 C246 C 0.07304 0.70518 -0.10288
 C247 C 0.09107 0.73561 -0.09553
 C248 C 0.12762 0.73622 -0.10020
 C249 C 0.14564 0.70690 -0.11121
 C250 C 0.12758 0.67651 -0.11836
 C251 C 0.07101 0.76643 -0.08426
 C252 C 0.08545 0.79177 -0.06540
 C253 C 0.06692 0.82345 -0.05408
 C254 C 0.08323 0.84397 -0.02856
 C255 C 0.06812 0.87484 -0.01787
 C256 C 0.03618 0.88619 -0.03248
 C257 C 0.01953 0.86564 -0.05788
 C258 C 0.03480 0.83462 -0.06874
 H259 H 0.07676 0.65261 -0.11951
 H260 H 0.04490 0.70407 -0.09984
 H261 H 0.14243 0.75944 -0.09626
 H262 H 0.17366 0.70811 -0.11502
 H263 H 0.04343 0.76731 -0.09061
 H264 H 0.11228 0.78895 -0.05663
 H265 H 0.10800 0.83618 -0.01691
 H266 H 0.08167 0.88993 0.00183
 H267 H -0.00500 0.87378 -0.06977
 H268 H 0.02167 0.82007 -0.08907
 C269 C 0.58153 0.80877 1.12210
 C270 C 0.56658 0.77876 1.10895
 C271 C 0.58765 0.75055 1.09971
 C272 C 0.62414 0.75294 1.10428
 C273 C 0.63905 0.78299 1.11728
 C274 C 0.61791 0.81116 1.12643
 C275 C 0.57060 0.71880 1.08685
 C276 C 0.58739 0.69497 1.06761
 C277 C 0.57145 0.66263 1.05488
 C278 C 0.58936 0.64403 1.02874
 C279 C 0.57658 0.61276 1.01668
 C280 C 0.54545 0.59912 1.03052
 C281 C 0.52725 0.61772 1.05658
 C282 C 0.54016 0.64910 1.06880
 H283 H 0.56471 0.83015 1.12907
 H284 H 0.53843 0.77757 1.10602
 H285 H 0.64132 0.73146 1.09886
 H286 H 0.66708 0.78392 1.12114
 H287 H 0.54305 0.71590 1.09248
 H288 H 0.61411 0.69960 1.05957
 H289 H 0.61357 0.65365 1.01764
 H290 H 0.59130 0.59918 0.99655
 H291 H 0.50332 0.60778 1.06795
 H292 H 0.52589 0.66204 1.08961
 C293 C 0.38554 0.42568 1.33034
 C294 C 0.39683 0.43952 1.29791
 C295 C 0.40576 0.41799 1.26949
 C296 C 0.40246 0.38220 1.27405
 C297 C 0.39134 0.36842 1.30649
 C298 C 0.38283 0.38999 1.33497
 C299 C 0.41715 0.43370 1.23530
 C300 C 0.43637 0.41669 1.21122
 C301 C 0.44771 0.43090 1.17629
 C302 C 0.47160 0.41151 1.15633
 C303 C 0.48230 0.42258 1.12272
 C304 C 0.46942 0.45347 1.10807
 C305 C 0.44573 0.47320 1.12803
 C306 C 0.43481 0.46200 1.16173
 H307 H 0.37898 0.44279 1.35193
 H308 H 0.39875 0.46715 1.29506
 H309 H 0.40759 0.36467 1.25251
 H310 H 0.38866 0.34086 1.30917
 H311 H 0.41034 0.46036 1.23080
 H312 H 0.44521 0.39091 1.21751
 H313 H 0.48192 0.38744 1.16668
 H314 H 0.50065 0.40674 1.10816
 H315 H 0.43518 0.49703 1.11738
 H316 H 0.41589 0.47756 1.17568
 C317 C 0.60613 -0.16306 0.20114
 C318 C 0.59369 -0.14771 0.23213
 C319 C 0.59168 -0.11182 0.23480
 C320 C 0.60213 -0.09147 0.20563
 C321 C 0.61480 -0.10687 0.17472
 C322 C 0.61722 -0.14277 0.17234
 C323 C 0.58121 -0.09669 0.26921
 C324 C 0.56775 -0.06500 0.27262
 C325 C 0.55884 -0.05056 0.30778
 C326 C 0.53031 -0.02796 0.31091
 C327 C 0.52078 -0.01495 0.34415
 C328 C 0.54011 -0.02383 0.37475
 C329 C 0.56951 -0.04541 0.37128
 C330 C 0.57876 -0.05864 0.33820
 H331 H 0.60822 -0.19077 0.20004
 H332 H 0.58611 -0.16392 0.25433
 H333 H 0.60183 -0.06374 0.20702
 H334 H 0.62344 -0.09082 0.15282
 H335 H 0.58394 -0.11287 0.29266
 H336 H 0.56149 -0.04982 0.24920
 H337 H 0.51487 -0.02102 0.28773
 H338 H 0.49812 0.00177 0.34592
 H339 H 0.58510 -0.05259 0.39426
 H340 H 0.60164 -0.07508 0.33648
 C341 C -0.08609 1.11607 -0.32959
 C342 C -0.07237 1.10011 -0.29918
 C343 C -0.09438 1.09014 -0.27115
 C344 C -0.13058 1.09622 -0.27429
 C345 C -0.14426 1.11243 -0.30462
 C346 C -0.12210 1.12290 -0.33241
 C347 C -0.07841 1.07635 -0.23803
 C348 C -0.09548 1.05654 -0.21453
 C349 C -0.07995 1.04582 -0.18002
 C350 C -0.09071 1.01505 -0.16386
 C351 C -0.07752 1.00512 -0.13054
 C352 C -0.05379 1.02618 -0.11245
 C353 C -0.04320 1.05707 -0.12861
 C354 C -0.05609 1.06679 -0.16198
 H355 H -0.06851 1.12370 -0.35074
 H356 H -0.04439 1.09593 -0.29732
 H357 H -0.14826 1.08983 -0.25283
 H358 H -0.17204 1.11786 -0.30587
 H359 H -0.05128 1.08260 -0.23313
 H360 H -0.12136 1.04727 -0.22083
 H361 H -0.10938 0.99867 -0.17705
 H362 H -0.08636 0.98128 -0.11869
 H363 H -0.02508 1.07397 -0.11535
 H364 H -0.04805 1.09121 -0.17307
 C365 C 1.14173 0.59378 0.83300
 C366 C 1.13223 0.57705 0.80173
 C367 C 1.11443 0.59486 0.77464
 C368 C 1.10677 0.62992 0.77902
 C369 C 1.11693 0.64684 0.80994
 C370 C 1.13456 0.62900 0.83736
 C371 C 1.10534 0.57683 0.74150
 C372 C 1.07546 0.58316 0.72401
 C373 C 1.06610 0.56574 0.69062
 C374 C 1.03088 0.55860 0.68383
 C375 C 1.02087 0.54391 0.65167
 C376 C 1.04582 0.53696 0.62523
 C377 C 1.08117 0.54407 0.63201
 C378 C 1.09129 0.55809 0.66457
 H379 H 1.15500 0.57925 0.85371
 H380 H 1.13849 0.55005 0.79882
 H381 H 1.09382 0.64450 0.75813
 H382 H 1.11161 0.67408 0.81207
 H383 H 1.12283 0.55678 0.73231
 H384 H 1.05637 0.60061 0.73534
 H385 H 1.01104 0.56454 0.70343
 H386 H 0.99339 0.53903 0.64706
 H387 H 1.10091 0.53911 0.61204
 H388 H 1.11858 0.56402 0.66884
 C389 C 0.67472 0.63775 0.57638
 C390 C 0.70635 0.62762 0.56085
 C391 C 0.73531 0.61893 0.58219
 C392 C 0.73248 0.62223 0.61937
 C393 C 0.70089 0.63221 0.63480
 C394 C 0.67158 0.63943 0.61350
 C395 C 0.76800 0.60668 0.56509
 C396 C 0.79037 0.58526 0.58177
 C397 C 0.82339 0.57165 0.56645
 C398 C 0.84105 0.54574 0.58557
 C399 C 0.87293 0.53272 0.57366
 C400 C 0.88814 0.54525 0.54217
 C401 C 0.87038 0.57087 0.52258
 C402 C 0.83837 0.58410 0.53465
 H403 H 0.65243 0.64359 0.55955
 H404 H 0.70799 0.62581 0.53216
 H405 H 0.75461 0.61736 0.63667
 H406 H 0.69918 0.63430 0.66345
 H407 H 0.77238 0.61407 0.53770
 H408 H 0.78376 0.57608 0.60816
 H409 H 0.83027 0.53565 0.61013
 H410 H 0.88580 0.51292 0.58939
 H411 H 0.88155 0.58116 0.49832
 H412 H 0.82608 0.60441 0.51930
 C413 C 0.80777 0.39360 1.14783
 C414 C 0.77849 0.40871 1.13165
 C415 C 0.77287 0.40531 1.09501
 C416 C 0.79784 0.38791 1.07443
 C417 C 0.82753 0.37348 1.09045
 C418 C 0.83259 0.37557 1.12747
 C419 C 0.74084 0.42011 1.07892
 C420 C 0.72289 0.40385 1.05358
 C421 C 0.68916 0.41711 1.03987
 C422 C 0.66206 0.39402 1.03295
 C423 C 0.62931 0.40606 1.02170
 C424 C 0.62346 0.44135 1.01616
 C425 C 0.65108 0.46433 1.02168
 C426 C 0.68357 0.45236 1.03374
 H427 H 0.81059 0.39547 1.17639
 H428 H 0.75961 0.42219 1.14795
 H429 H 0.79454 0.38568 1.04593
 H430 H 0.84645 0.36038 1.07390
 H431 H 0.73016 0.44335 1.09042
 H432 H 0.73149 0.37869 1.04494
 H433 H 0.66596 0.36672 1.03726
 H434 H 0.60852 0.38779 1.01744
 H435 H 0.64727 0.49167 1.01763
 H436 H 0.70431 0.47062 1.03818
 C437 C 0.28115 1.16100 -0.12623
 C438 C 0.24969 1.15207 -0.10984
 C439 C 0.24243 1.11767 -0.10137
 C440 C 0.26728 1.09224 -0.11016
 C441 C 0.29879 1.10123 -0.12648
 C442 C 0.30605 1.13568 -0.13471
 C443 C 0.20812 1.10935 -0.08509
 C444 C 0.20187 1.08017 -0.06701
 C445 C 0.16724 1.07071 -0.05207
 C446 C 0.16569 1.04334 -0.02759
 C447 C 0.13361 1.03182 -0.01456
 C448 C 0.10218 1.04742 -0.02573
 C449 C 0.10365 1.07526 -0.04968
 C450 C 0.13575 1.08668 -0.06289
 H451 H 0.28589 1.18770 -0.13275
 H452 H 0.23090 1.17213 -0.10381
 H453 H 0.26236 1.06532 -0.10527
 H454 H 0.31753 1.08125 -0.13285
 H455 H 0.18780 1.12868 -0.08742
 H456 H 0.22317 1.06232 -0.06216
 H457 H 0.18942 1.03042 -0.01889
 H458 H 0.13343 1.01027 0.00384
 H459 H 0.07989 1.08762 -0.05909
 H460 H 0.13540 1.10723 -0.08237
 C461 C 0.19737 -0.11117 0.35359
 C462 C 0.22755 -0.09449 0.36477
 C463 C 0.23641 -0.09342 0.40094
 C464 C 0.21397 -0.10880 0.42597
 C465 C 0.18347 -0.12521 0.41478
 C466 C 0.17488 -0.12667 0.37844
 C467 C 0.26878 -0.07536 0.41120
 C468 C 0.28789 -0.08358 0.44004
 C469 C 0.32179 -0.06716 0.44880
 C470 C 0.33549 -0.07122 0.48329
 C471 C 0.36779 -0.05701 0.49237
 C472 C 0.38713 -0.03841 0.46706
 C473 C 0.37353 -0.03446 0.43253
 C474 C 0.34146 -0.04882 0.42340
 H475 H 0.19174 -0.11220 0.32540
 H476 H 0.24435 -0.08276 0.34499
 H477 H 0.21947 -0.10763 0.45416
 H478 H 0.16636 -0.13655 0.43450
 H479 H 0.27753 -0.05550 0.39314
 H480 H 0.27881 -0.10355 0.45790
 H481 H 0.32115 -0.08548 0.50330
 H482 H 0.37760 -0.06061 0.51918
 H483 H 0.38796 -0.02069 0.41224
 H484 H 0.33289 -0.04601 0.39615
 C485 C 0.58533 -0.31908 0.61241
 C486 C 0.56886 -0.28824 0.60248
 C487 C 0.58826 -0.25794 0.59868
 C488 C 0.62440 -0.25896 0.60594
 C489 C 0.64080 -0.28974 0.61568
 C490 C 0.62148 -0.32006 0.61895
 C491 C 0.57013 -0.22567 0.58781
 C492 C 0.58674 -0.20004 0.57098
 C493 C 0.57019 -0.16726 0.55932
 C494 C 0.58853 -0.14683 0.53492
 C495 C 0.57518 -0.11517 0.52375
 C496 C 0.54306 -0.10290 0.53681
 C497 C 0.52447 -0.12327 0.56125
 C498 C 0.53794 -0.15515 0.57253
 H499 H 0.56999 -0.34223 0.61490
 H500 H 0.54097 -0.28811 0.59740
 H501 H 0.64011 -0.23599 0.60483
 H502 H 0.66858 -0.28983 0.62132
 H503 H 0.54224 -0.22399 0.59230
 H504 H 0.61394 -0.20356 0.56388
 H505 H 0.61348 -0.15535 0.52443
 H506 H 0.59026 -0.10023 0.50487
 H507 H 0.49974 -0.11445 0.57193
 H508 H 0.52332 -0.16969 0.59201
 C509 C 1.15722 0.79867 0.39180
 C510 C 1.14635 0.76730 0.40610
 C511 C 1.11072 0.76089 0.41207
 C512 C 1.08619 0.78709 0.40439
 C513 C 1.09711 0.81842 0.38997
 C514 C 1.13266 0.82442 0.38338
 C515 C 1.10056 0.72690 0.42675
 C516 C 1.06818 0.71395 0.42437
 C517 C 1.05839 0.67950 0.43823
 C518 C 1.02763 0.66429 0.42560
 C519 C 1.01737 0.63190 0.43788
 C520 C 1.03770 0.61399 0.46316
 C521 C 1.06823 0.62938 0.47618
 C522 C 1.07835 0.66182 0.46410
 H523 H 1.18474 0.80262 0.38662
 H524 H 1.16583 0.74774 0.41200
 H525 H 1.05864 0.78381 0.40971
 H526 H 1.07782 0.83811 0.38394
 H527 H 1.12132 0.71140 0.43821
 H528 H 1.04815 0.72821 0.41015
 H529 H 1.01156 0.67742 0.40594
 H530 H 0.99362 0.62082 0.42743
 H531 H 1.08421 0.61650 0.49607
 H532 H 1.10149 0.67297 0.47565
 C533 C -0.08780 1.32294 0.12489
 C534 C -0.07431 1.29251 0.11078
 C535 C -0.09666 1.26547 0.10177
 C536 C -0.13296 1.26979 0.10640
 C537 C -0.14641 1.30027 0.12036
 C538 C -0.12396 1.32710 0.12968
 C539 C -0.08142 1.23358 0.08690
 C540 C -0.09659 1.20282 0.09059
 C541 C -0.08136 1.17056 0.07661
 C542 C -0.09055 1.13942 0.09294
 C543 C -0.07733 1.10831 0.08035
 C544 C -0.05493 1.10758 0.05074
 C545 C -0.04599 1.13875 0.03407
 C546 C -0.05906 1.16995 0.04685
 H547 H -0.07013 1.34343 0.13183
 H548 H -0.04632 1.28993 0.10720
 H549 H -0.15110 1.24997 0.09879
 H550 H -0.17437 1.30300 0.12397
 H551 H -0.05599 1.23538 0.07441
 H552 H -0.12025 1.20063 0.10622
 H553 H -0.10791 1.13916 0.11569
 H554 H -0.08492 1.08477 0.09370
 H555 H -0.02898 1.13905 0.01106
 H556 H -0.05221 1.19337 0.03292
 C557 C 0.36954 0.19802 0.83115
 C558 C 0.38654 0.22828 0.84044
 C559 C 0.39087 0.23714 0.87629
 C560 C 0.37736 0.21514 0.90277
 C561 C 0.36038 0.18482 0.89344
 C562 C 0.35629 0.17598 0.85755
 C563 C 0.40803 0.27018 0.88466
 C564 C 0.42225 0.27733 0.91639
 C565 C 0.43822 0.31091 0.92504
 C566 C 0.46093 0.31278 0.95432
 C567 C 0.47518 0.34417 0.96453
 C568 C 0.46689 0.37450 0.94574
 C569 C 0.44439 0.37262 0.91625
 C570 C 0.43005 0.34128 0.90611
 H571 H 0.36632 0.19197 0.80329
 H572 H 0.39629 0.24490 0.81949
 H573 H 0.37909 0.22145 0.93066
 H574 H 0.35029 0.16823 0.91421
 H575 H 0.40989 0.28873 0.86320
 H576 H 0.42326 0.25762 0.93681
 H577 H 0.46747 0.28988 0.96955
 H578 H 0.49233 0.34472 0.98746
 H579 H 0.43714 0.39555 0.90142
 H580 H 0.41180 0.34135 0.88413
 C581 C 0.63240 0.59239 0.66081
 C582 C 0.62228 0.57304 0.69045
 C583 C 0.60384 0.58846 0.71832
 C584 C 0.59572 0.62367 0.71613
 C585 C 0.60650 0.64320 0.68684
 C586 C 0.62524 0.62787 0.65889
 C587 C 0.59540 0.56795 0.75036
 C588 C 0.56596 0.57278 0.76890
 C589 C 0.55839 0.55386 0.80219
 C590 C 0.52365 0.54588 0.81048
 C591 C 0.51541 0.53026 0.84296
 C592 C 0.54171 0.52320 0.86819
 C593 C 0.57657 0.53094 0.85976
 C594 C 0.58489 0.54590 0.82694
 H595 H 0.64646 0.57972 0.63960
 H596 H 0.62891 0.54596 0.69168
 H597 H 0.58224 0.63641 0.73768
 H598 H 0.60107 0.67051 0.68661
 H599 H 0.61348 0.54772 0.75823
 H600 H 0.54625 0.59054 0.75894
 H601 H 0.50281 0.55206 0.79191
 H602 H 0.48827 0.52491 0.84887
 H603 H 0.59732 0.52592 0.87878
 H604 H 0.61185 0.55247 0.82156
 C605 C 0.32947 0.11144 0.79288
 C606 C 0.34297 0.09343 0.76389
 C607 C 0.37914 0.08809 0.76045
 C608 C 0.40146 0.09959 0.78761
 C609 C 0.38794 0.11751 0.81660
 C610 C 0.35191 0.12414 0.81922
 C611 C 0.39270 0.07116 0.72802
 C612 C 0.42437 0.07806 0.71453
 C613 C 0.43703 0.06470 0.68004
 C614 C 0.46215 0.08374 0.66142
 C615 C 0.47428 0.07287 0.62836
 C616 C 0.46191 0.04234 0.61330
 C617 C 0.43746 0.02267 0.63236
 C618 C 0.42507 0.03375 0.66542
 H619 H 0.30160 0.11631 0.79427
 H620 H 0.32521 0.08458 0.74351
 H621 H 0.42935 0.09484 0.78658
 H622 H 0.40563 0.12654 0.83694
 H623 H 0.37484 0.05521 0.71325
 H624 H 0.44073 0.09671 0.72761
 H625 H 0.47203 0.10750 0.67221
 H626 H 0.49332 0.08851 0.61455
 H627 H 0.42761 -0.00108 0.62157
 H628 H 0.40645 0.01789 0.67950
 C629 C 0.11778 0.84553 0.30767
 C630 C 0.10291 0.85770 0.27603
 C631 C 0.09490 0.89270 0.27159
 C632 C 0.10174 0.91536 0.29971
 C633 C 0.11679 0.90316 0.33133
 C634 C 0.12532 0.86823 0.33538
 C635 C 0.08205 0.90476 0.23646
 C636 C 0.06403 0.93404 0.23129
 C637 C 0.05293 0.94567 0.19540
 C638 C 0.02181 0.96460 0.19141
 C639 C 0.01047 0.97521 0.15764
 C640 C 0.03044 0.96758 0.12729
 C641 C 0.06217 0.94957 0.13152
 C642 C 0.07331 0.93875 0.16516
 H643 H 0.12449 0.81856 0.31012
 H644 H 0.09816 0.83978 0.25470
 H645 H 0.09677 0.94263 0.29699
 H646 H 0.12256 0.92103 0.35242
 H647 H 0.08701 0.88819 0.21399
 H648 H 0.05575 0.94916 0.25383
 H649 H 0.00592 0.97061 0.21440
 H650 H -0.01398 0.98924 0.15529
 H651 H 0.07832 0.94349 0.10874
 H652 H 0.09806 0.92526 0.16743
 C653 C 0.88253 0.34810 0.20575
 C654 C 0.89595 0.35994 0.23789
 C655 C 0.90354 0.39486 0.24244
 C656 C 0.89795 0.41770 0.21368
 C657 C 0.88443 0.40578 0.18147
 C658 C 0.87645 0.37091 0.17731
 C659 C 0.91810 0.40577 0.27717
 C660 C 0.91870 0.43838 0.28851
 C661 C 0.93290 0.44829 0.32375
 C662 C 0.92187 0.47934 0.33898
 C663 C 0.93442 0.48937 0.37228
 C664 C 0.95841 0.46853 0.39103
 C665 C 0.96997 0.43779 0.37547
 C666 C 0.95760 0.42789 0.34217
 H667 H 0.87650 0.32111 0.20315
 H668 H 0.90022 0.34171 0.25942
 H669 H 0.90443 0.44459 0.21555
 H670 H 0.88041 0.42367 0.15962
 H671 H 0.92719 0.38547 0.29475
 H672 H 0.90685 0.45850 0.27248
 H673 H 0.90318 0.49574 0.32522
 H674 H 0.92514 0.51330 0.38344
 H675 H 0.98887 0.42140 0.38892
 H676 H 0.96797 0.40450 0.33088
   
