data_POSCAR
  _audit_creation_date              2014-09-24
  _audit_creation_method            'ToBaCCo'
  _symmetry_space_group_name_H-M    'P1'
  _symmetry_Int_Tables_number       1
  _symmetry_cell_setting            triclinic
  loop_
  _symmetry_equiv_pos_as_xyz
 x,y,z
_cell_length_a 35.6802
_cell_length_b 34.9860
_cell_length_c 36.6198
_cell_angle_alpha 85.791200
_cell_angle_beta 92.067700
_cell_angle_gamma 93.464500
loop_
  _atom_site_label
  _atom_site_type_symbol
  _atom_site_fract_x
  _atom_site_fract_y
  _atom_site_fract_z
N1 N 0.27550 0.28398 0.26351
 N2 N 0.75486 -0.24889 0.26144
 N3 N 0.71256 0.24095 0.73491
 N4 N 0.27969 -0.28828 0.72844
 N5 N 0.76607 -0.25343 0.75219
 N6 N 0.21949 0.21593 0.75663
 N7 N 0.27400 -0.21326 0.23095
 N8 N 0.75948 0.26309 0.22906
 O9 O 0.20549 0.03923 0.46676
 O10 O 0.20614 -0.04696 0.52968
 O11 O 0.21326 0.02626 0.53762
 O12 O 0.20256 -0.03472 0.45923
 O13 O 0.26429 -0.03319 0.45555
 O14 O 0.27495 0.02616 0.53435
 O15 O 0.26784 -0.04735 0.52648
 O16 O 0.26724 0.04028 0.46347
 Cu17 Cu 0.20069 -0.00391 0.49855
 Cu18 Cu 0.27478 -0.00342 0.49462
 C19 C 0.23599 0.05451 0.45439
 C20 C 0.23684 -0.06196 0.53874
 C21 C 0.24608 0.03624 0.54950
 C22 C 0.23175 -0.04445 0.44420
 O23 O 0.75699 0.04070 0.51911
 O24 O 0.74463 -0.03641 0.45637
 O25 O 0.74769 0.03842 0.44830
 O26 O 0.74999 -0.03420 0.52722
 O27 O 0.68836 -0.03288 0.53032
 O28 O 0.68615 0.03920 0.45257
 O29 O 0.68299 -0.03556 0.45947
 O30 O 0.69545 0.04164 0.52326
 Cu31 Cu 0.75600 0.00207 0.48738
 Cu32 Cu 0.68209 0.00321 0.49175
 C33 C 0.72850 0.05424 0.53199
 C34 C 0.71187 -0.04920 0.44722
 C35 C 0.71630 0.05114 0.43714
 C36 C 0.71927 -0.04588 0.54206
 O37 O 0.45009 0.21577 0.02913
 O38 O 0.51897 0.22862 -0.04450
 O39 O 0.52260 0.21358 0.02621
 O40 O 0.44582 0.22633 -0.04215
 O41 O 0.44985 0.28887 -0.03664
 O42 O 0.52705 0.27600 0.03259
 O43 O 0.52299 0.29105 -0.03821
 O44 O 0.45438 0.27834 0.03458
 Cu45 Cu 0.48391 0.21485 -0.00850
 Cu46 Cu 0.48898 0.28981 -0.00136
 C47 C 0.44067 0.24503 0.04447
 C48 C 0.53276 0.26218 -0.05374
 C49 C 0.53783 0.24240 0.04116
 C50 C 0.43466 0.25958 -0.05110
 O51 O 0.55411 0.77103 0.03433
 O52 O 0.48744 0.78585 -0.04444
 O53 O 0.48190 0.77636 0.02668
 O54 O 0.56048 0.78465 -0.03577
 O55 O 0.55442 0.72227 -0.04232
 O56 O 0.47615 0.71373 0.02174
 O57 O 0.48179 0.72316 -0.04889
 O58 O 0.54877 0.70856 0.02828
 Cu59 Cu 0.52145 0.78578 -0.00433
 Cu60 Cu 0.51474 0.71066 -0.01080
 C61 C 0.56285 0.73709 0.04449
 C62 C 0.47320 0.75679 -0.05998
 C63 C 0.46579 0.74375 0.03512
 C64 C 0.57089 0.75506 -0.04965
 O65 O 0.05224 0.49595 0.23222
 O66 O -0.02415 0.55724 0.25031
 O67 O 0.04762 0.56858 0.24022
 O68 O -0.01923 0.48414 0.24377
 O69 O -0.00679 0.47408 0.30309
 O70 O 0.05778 0.56021 0.30008
 O71 O -0.01345 0.54695 0.30990
 O72 O 0.06480 0.48724 0.29165
 Cu73 Cu 0.01293 0.52740 0.23566
 Cu74 Cu 0.02685 0.51607 0.30716
 C75 C 0.07164 0.48129 0.25876
 C76 C -0.03188 0.56256 0.28308
 C77 C 0.06373 0.57898 0.26967
 C78 C -0.02430 0.46468 0.27405
 O79 O 0.03286 0.51572 0.80772
 O80 O -0.05037 0.44872 0.80907
 O81 O 0.02198 0.44169 0.81684
 O82 O -0.03894 0.52311 0.79668
 O83 O -0.03393 0.51717 0.73744
 O84 O 0.02586 0.43637 0.75741
 O85 O -0.04646 0.44314 0.74966
 O86 O 0.03785 0.51028 0.74839
 Cu87 Cu -0.00924 0.48286 0.81351
 Cu88 Cu -0.00382 0.47612 0.74229
 C89 C 0.04969 0.52427 0.77806
 C90 C -0.06261 0.43443 0.77981
 C91 C 0.03454 0.42543 0.79026
 C92 C -0.04647 0.53408 0.76347
 C93 C 0.29756 0.28851 0.23111
 C94 C 0.30971 0.25694 0.21453
 C95 C 0.33310 0.26097 0.18205
 N96 N 0.34331 0.22917 0.16669
 N97 N 0.36508 0.23225 0.13768
 C98 C 0.37746 0.26731 0.12298
 N99 N 0.36720 0.29911 0.13830
 N100 N 0.34541 0.29602 0.16728
 C101 C 0.40230 0.27142 0.09157
 C102 C 0.41389 0.24007 0.07433
 H103 H 0.30168 0.22819 0.22560
 H104 H 0.41229 0.30019 0.08215
 H105 H 0.30390 0.31713 0.21871
 H106 H 0.40368 0.21125 0.08328
 C107 C 0.72732 0.75881 0.23253
 C108 C 0.71311 0.73048 0.21010
 C109 C 0.68510 0.73825 0.18047
 N110 N 0.67075 0.70921 0.16067
 N111 N 0.64553 0.71579 0.13359
 C112 C 0.63374 0.75169 0.12526
 N113 N 0.64813 0.78076 0.14503
 N114 N 0.67332 0.77417 0.17215
 C115 C 0.60614 0.75937 0.09520
 C116 C 0.58975 0.73003 0.07518
 H117 H 0.72233 0.70155 0.21473
 H118 H 0.59866 0.78870 0.08868
 H119 H 0.71638 0.78712 0.22897
 H120 H 0.59694 0.70067 0.08206
 C121 C 0.68922 0.23440 -0.23374
 C122 C 0.67763 0.26425 -0.21440
 C123 C 0.65101 0.25733 -0.18447
 N124 N 0.63926 0.28731 -0.16730
 N125 N 0.61469 0.28148 -0.14061
 C126 C 0.60094 0.24543 -0.13010
 N127 N 0.61277 0.21545 -0.14720
 N128 N 0.63733 0.22128 -0.17388
 C129 C 0.57347 0.23854 -0.10092
 C130 C 0.56039 0.26844 -0.08272
 H131 H 0.68724 0.29356 -0.22220
 H132 H 0.56324 0.20926 -0.09374
 H133 H 0.67746 0.20554 -0.22714
 H134 H 0.57075 0.29768 -0.08985
 C135 C 0.30678 0.70873 -0.24153
 C136 C 0.32612 0.74103 -0.22829
 C137 C 0.35298 0.73826 -0.19692
 N138 N 0.36936 0.77063 -0.18357
 N139 N 0.39370 0.76848 -0.15510
 C140 C 0.40254 0.73382 -0.13903
 N141 N 0.38623 0.70150 -0.15244
 N142 N 0.36188 0.70366 -0.18083
 C143 C 0.42935 0.73047 -0.10773
 C144 C 0.44642 0.76205 -0.09121
 H145 H 0.32072 0.76933 -0.24063
 H146 H 0.43571 0.70175 -0.09721
 H147 H 0.31074 0.68077 -0.22764
 H148 H 0.43999 0.79091 -0.10117
 C149 C 0.25183 0.31381 0.27214
 C150 C 0.23345 0.33652 0.24503
 C151 C 0.20595 0.36395 0.25384
 N152 N 0.18666 0.38316 0.22642
 N153 N 0.16083 0.40715 0.23392
 C154 C 0.15331 0.41287 0.26916
 N155 N 0.17275 0.39384 0.29659
 N156 N 0.19857 0.36981 0.28908
 C157 C 0.12414 0.43855 0.27787
 C158 C 0.10212 0.45704 0.25061
 H159 H 0.23778 0.33268 0.21645
 H160 H 0.11935 0.44225 0.30641
 H161 H 0.24595 0.31678 0.30059
 H162 H 0.10681 0.45311 0.22210
 C163 C 0.24964 0.68260 0.72534
 C164 C 0.23272 0.66428 0.75617
 C165 C 0.19962 0.63729 0.75361
 N166 N 0.18221 0.62350 0.78457
 N167 N 0.15174 0.59969 0.78285
 C168 C 0.13751 0.58869 0.75009
 N169 N 0.15505 0.60230 0.71909
 N170 N 0.18551 0.62622 0.72080
 C171 C 0.10363 0.56260 0.74794
 C172 C 0.08338 0.55056 0.77897
 H173 H 0.24285 0.67142 0.78320
 H174 H 0.09430 0.55301 0.72148
 H175 H 0.23806 0.67690 0.69839
 H176 H 0.09252 0.56074 0.80526
 C177 C -0.21635 0.72512 0.25598
 C178 C -0.19572 0.70766 0.28504
 C179 C -0.16657 0.68093 0.27901
 N180 N -0.14762 0.66392 0.30801
 N181 N -0.12106 0.63982 0.30284
 C182 C -0.11250 0.63185 0.26845
 N183 N -0.13146 0.64884 0.23950
 N184 N -0.15799 0.67290 0.24466
 C185 C -0.08302 0.60572 0.26199
 C186 C -0.06227 0.58733 0.29035
 H187 H -0.20141 0.71322 0.31294
 H188 H -0.07722 0.60121 0.23383
 H189 H -0.21139 0.71793 0.22835
 H190 H -0.06798 0.59162 0.31856
 C191 C -0.25831 0.27137 0.73177
 C192 C -0.23715 0.28325 0.76212
 C193 C -0.20537 0.31206 0.75883
 N194 N -0.18715 0.32397 0.78949
 N195 N -0.15797 0.34955 0.78708
 C196 C -0.14579 0.36412 0.75389
 N197 N -0.16397 0.35216 0.72321
 N198 N -0.19325 0.32666 0.72562
 C199 C -0.11318 0.39202 0.75091
 C200 C -0.09574 0.40730 0.78172
 H201 H -0.24346 0.27036 0.78915
 H202 H -0.10283 0.40078 0.72395
 H203 H -0.25091 0.28342 0.70471
 H204 H -0.10682 0.39921 0.80852
 C205 C 0.28079 0.25193 0.28983
 C206 C 0.25200 0.23692 0.31236
 C207 C 0.25615 0.20331 0.33839
 N208 N 0.22609 0.18853 0.35741
 N209 N 0.22904 0.15788 0.38088
 C210 C 0.26220 0.14086 0.38629
 N211 N 0.29237 0.15575 0.36739
 N212 N 0.28940 0.18641 0.34383
 C213 C 0.26549 0.10668 0.41190
 C214 C 0.23422 0.08911 0.42932
 H215 H 0.22493 0.24946 0.31003
 H216 H 0.29273 0.09480 0.41658
 H217 H 0.30711 0.23791 0.29077
 H218 H 0.20693 0.10071 0.42395
 C219 C 0.70491 0.21599 0.70568
 C220 C 0.73207 0.20856 0.68108
 C221 C 0.72466 0.18078 0.65304
 N222 N 0.75316 0.17091 0.63277
 N223 N 0.74709 0.14509 0.60791
 C224 C 0.71224 0.12825 0.60231
 N225 N 0.68366 0.13836 0.62236
 N226 N 0.68975 0.16410 0.64731
 C227 C 0.70532 0.09903 0.57555
 C228 C 0.73456 0.08478 0.55740
 H229 H 0.76012 0.22195 0.68347
 H230 H 0.67676 0.08766 0.57094
 H231 H 0.67776 0.20039 0.70431
 H232 H 0.76318 0.09559 0.56268
 C233 C 0.28478 -0.25830 0.69964
 C234 C 0.25437 -0.24388 0.67924
 C235 C 0.25842 -0.21094 0.65213
 N236 N 0.22725 -0.19620 0.63580
 N237 N 0.23010 -0.16572 0.61189
 C238 C 0.26424 -0.14881 0.60334
 N239 N 0.29549 -0.16372 0.61945
 N240 N 0.29264 -0.19422 0.64347
 C241 C 0.26738 -0.11455 0.57754
 C242 C 0.23548 -0.09673 0.56370
 H243 H 0.22625 -0.25583 0.68461
 H244 H 0.29503 -0.10274 0.57006
 H245 H 0.31260 -0.24485 0.69547
 H246 H 0.20798 -0.10832 0.57194
 C247 C 0.75793 -0.22489 0.29186
 C248 C 0.72666 -0.20854 0.30474
 C249 C 0.72970 -0.18078 0.33310
 N250 N 0.69834 -0.16538 0.34409
 N251 N 0.70074 -0.13909 0.36874
 C252 C 0.73465 -0.12721 0.38325
 N253 N 0.76598 -0.14273 0.37238
 N254 N 0.76358 -0.16903 0.34774
 C255 C 0.73811 -0.09743 0.40965
 C256 C 0.70720 -0.08010 0.42200
 H257 H 0.69902 -0.21564 0.29306
 H258 H 0.76613 -0.08853 0.41928
 H259 H 0.78522 -0.21937 0.30499
 H260 H 0.67904 -0.08921 0.41295
 C261 C 0.73296 0.74329 -0.22643
 C262 C 0.73479 0.75199 -0.18994
 C263 C 0.70191 0.74713 -0.16671
 N264 N 0.70193 0.76536 -0.13529
 N265 N 0.67250 0.76090 -0.11371
 C266 C 0.64214 0.73769 -0.12255
 N267 N 0.64229 0.71907 -0.15376
 N268 N 0.67158 0.72385 -0.17556
 C269 C 0.60967 0.73247 -0.09873
 C270 C 0.60287 0.75940 -0.07398
 H271 H 0.76108 0.76357 -0.17839
 H272 H 0.58999 0.70801 -0.10177
 H273 H 0.70625 0.73477 -0.23928
 H274 H 0.62083 0.78547 -0.07334
 C275 C 0.24879 0.21253 -0.21536
 C276 C 0.26744 0.24466 -0.20108
 C277 C 0.29809 0.24146 -0.17320
 N278 N 0.31503 0.27362 -0.15994
 N279 N 0.34287 0.27115 -0.13475
 C280 C 0.35479 0.23639 -0.12192
 N281 N 0.33786 0.20427 -0.13519
 N282 N 0.31002 0.20673 -0.16033
 C283 C 0.38558 0.23285 -0.09427
 C284 C 0.40381 0.26436 -0.07858
 H285 H 0.25973 0.27312 -0.21101
 H286 H 0.39409 0.20421 -0.08595
 H287 H 0.25798 0.18423 -0.20672
 H288 H 0.39528 0.29307 -0.08646
 C289 C 0.30424 0.78937 0.20558
 C290 C 0.30598 0.76464 0.17741
 C291 C 0.33751 0.76661 0.15246
 N292 N 0.34046 0.73835 0.12942
 N293 N 0.36887 0.73952 0.10666
 C294 C 0.39529 0.76914 0.10600
 N295 N 0.39223 0.79752 0.12888
 N296 N 0.36394 0.79624 0.15179
 C297 C 0.42653 0.77126 0.08071
 C298 C 0.43467 0.74059 0.06062
 H299 H 0.28390 0.74266 0.17342
 H300 H 0.44408 0.79765 0.07838
 H301 H 0.32652 0.81154 0.20836
 H302 H 0.41842 0.71349 0.06416
 C303 C 0.72677 0.26929 0.20570
 C304 C 0.70532 0.23924 0.19082
 C305 C 0.67404 0.24626 0.16429
 N306 N 0.65566 0.21638 0.14840
 N307 N 0.62780 0.22240 0.12383
 C308 C 0.61724 0.25855 0.11422
 N309 N 0.63550 0.28840 0.13023
 N310 N 0.66339 0.28238 0.15478
 C311 C 0.58676 0.26568 0.08680
 C312 C 0.56823 0.23601 0.06871
 H313 H 0.71257 0.20990 0.19760
 H314 H 0.57898 0.29495 0.08057
 H315 H 0.72070 0.29856 0.19679
 H316 H 0.57620 0.20679 0.07488
 C317 C -0.20399 0.72227 0.76387
 C318 C -0.18094 0.70751 0.73904
 C319 C -0.15491 0.67745 0.75028
 N320 N -0.13690 0.66039 0.72444
 N321 N -0.11457 0.63192 0.73396
 C322 C -0.10938 0.61943 0.76969
 N323 N -0.12710 0.63674 0.79560
 N324 N -0.14952 0.66518 0.78607
 C325 C -0.08556 0.58726 0.78035
 C326 C -0.06983 0.56675 0.75414
 H327 H -0.18409 0.71582 0.71009
 H328 H -0.08099 0.57911 0.80920
 H329 H -0.20228 0.71137 0.79232
 H330 H -0.07492 0.57476 0.72532
 C331 C -0.21008 0.29192 0.22596
 C332 C -0.18352 0.29763 0.25425
 C333 C -0.15416 0.32899 0.25160
 N334 N -0.13136 0.33604 0.28109
 N335 N -0.10522 0.36492 0.27933
 C336 C -0.10089 0.38775 0.24795
 N337 N -0.12351 0.38053 0.21839
 N338 N -0.14968 0.35172 0.22018
 C339 C -0.07279 0.42028 0.24570
 C340 C -0.05090 0.43091 0.27598
 H341 H -0.18518 0.27987 0.27967
 H342 H -0.07006 0.43692 0.21969
 H343 H -0.20922 0.31151 0.20161
 H344 H -0.05393 0.41463 0.30213
 C345 C 0.19437 0.24672 0.75394
 C346 C 0.18110 0.26245 0.78460
 C347 C 0.15345 0.29219 0.78078
 N348 N 0.14006 0.30659 0.81087
 N349 N 0.11490 0.33344 0.80739
 C350 C 0.10225 0.34675 0.77365
 N351 N 0.11566 0.33235 0.74368
 N352 N 0.14074 0.30560 0.74715
 C353 C 0.07494 0.37660 0.76865
 C354 C 0.05993 0.39391 0.79751
 H355 H 0.19041 0.25213 0.81182
 H356 H 0.06691 0.38581 0.74071
 H357 H 0.18290 0.25565 0.72707
 H358 H 0.06763 0.38500 0.82559
 C359 C 0.24744 0.75396 0.23219
 C360 C 0.20924 0.75723 0.23692
 C361 C 0.18277 0.72350 0.23668
 N362 N 0.15200 0.72124 0.25759
 N363 N 0.12830 0.69030 0.25809
 C364 C 0.13427 0.66081 0.23726
 N365 N 0.16465 0.66340 0.21583
 N366 N 0.18866 0.69407 0.21576
 C367 C 0.10840 0.62660 0.23762
 C368 C 0.08930 0.61342 0.26894
 H369 H 0.19876 0.78462 0.24222
 H370 H 0.10631 0.61002 0.21370
 H371 H 0.25721 0.72601 0.22772
 H372 H 0.09469 0.62759 0.29410
 C373 C 0.76914 -0.22677 0.72026
 C374 C 0.73938 -0.20505 0.70682
 C375 C 0.74273 -0.17632 0.67549
 N376 N 0.71223 -0.15715 0.66349
 N377 N 0.71451 -0.13080 0.63541
 C378 C 0.74743 -0.12250 0.61824
 N379 N 0.77803 -0.14164 0.63025
 N380 N 0.77573 -0.16809 0.65836
 C381 C 0.75004 -0.09331 0.58712
 C382 C 0.71848 -0.07478 0.57328
 H383 H 0.71246 -0.20882 0.71967
 H384 H 0.77698 -0.08664 0.57473
 H385 H 0.79582 -0.22233 0.70696
 H386 H 0.69154 -0.08211 0.58549
 C387 C 0.27314 -0.18328 0.25595
 C388 C 0.25519 -0.18845 0.28940
 C389 C 0.25516 -0.15793 0.31495
 N390 N 0.22999 -0.16055 0.34206
 N391 N 0.23005 -0.13356 0.36592
 C392 C 0.25554 -0.10311 0.36371
 N393 N 0.28086 -0.10060 0.33674
 N394 N 0.28055 -0.12739 0.31265
 C395 C 0.25736 -0.07429 0.39108
 C396 C 0.22770 -0.06988 0.41390
 H397 H 0.24053 -0.21556 0.29738
 H398 H 0.28291 -0.05616 0.39346
 H399 H 0.28852 -0.15615 0.24925
 H400 H 0.20105 -0.08573 0.40972
 C401 C 0.76261 0.22957 0.25410
 C402 C 0.73199 0.21320 0.27342
 C403 C 0.73562 0.18180 0.30216
 N404 N 0.70489 0.16762 0.32052
 N405 N 0.70775 0.13993 0.34727
 C406 C 0.74148 0.12537 0.35675
 N407 N 0.77223 0.13946 0.33831
 N408 N 0.76936 0.16716 0.31151
 C409 C 0.74502 0.09526 0.38683
 C410 C 0.71392 0.08022 0.40619
 H411 H 0.70469 0.22483 0.26842
 H412 H 0.77257 0.08509 0.39408
 H413 H 0.79018 0.21896 0.26041
 H414 H 0.68641 0.09034 0.39861
 C415 C 0.21359 0.18780 0.72994
 C416 C 0.24254 0.16699 0.71831
 C417 C 0.23676 0.14165 0.68794
 N418 N 0.26658 0.12617 0.67388
 N419 N 0.26183 0.10418 0.64566
 C420 C 0.22706 0.09678 0.63050
 N421 N 0.19721 0.11200 0.64476
 N422 N 0.20197 0.13407 0.67289
 C423 C 0.22137 0.07304 0.59896
 C424 C 0.25137 0.05967 0.58123
 H425 H 0.27062 0.17105 0.73015
 H426 H 0.19288 0.06652 0.58910
 H427 H 0.18628 0.18513 0.71610
 H428 H 0.27988 0.06673 0.59074
   
