data_POSCAR
  _audit_creation_date              2014-09-24
  _audit_creation_method            'ToBaCCo'
  _symmetry_space_group_name_H-M    'P1'
  _symmetry_Int_Tables_number       1
  _symmetry_cell_setting            triclinic
  loop_
  _symmetry_equiv_pos_as_xyz
 x,y,z
_cell_length_a 31.7849
_cell_length_b 32.3359
_cell_length_c 31.3567
_cell_angle_alpha 90.606000
_cell_angle_beta 91.639500
_cell_angle_gamma 89.421900
loop_
  _atom_site_label
  _atom_site_type_symbol
  _atom_site_fract_x
  _atom_site_fract_y
  _atom_site_fract_z
N1 N 0.21588 0.20628 0.21764
 N2 N -0.23462 0.76173 0.23738
 N3 N -0.20997 0.21879 -0.21576
 N4 N 0.20327 0.78471 -0.20645
 N5 N 0.21805 1.22109 0.78847
 N6 N 0.79246 0.77682 0.77875
 N7 N 0.21525 0.80605 1.19110
 N8 N 0.78173 1.22149 1.21421
 O9 O 0.54800 0.96063 0.90723
 O10 O 0.48310 0.95276 1.05909
 O11 O 0.55883 0.94075 1.03818
 O12 O 0.42174 0.99008 0.95066
 O13 O 0.55081 0.98367 1.08720
 O14 O 0.46923 0.95806 0.91291
 O15 O 0.42739 0.97443 1.02633
 O16 O 0.56351 0.93075 0.96558
 C17 C 0.56431 0.93083 0.92637
 C18 C 0.44532 0.94805 1.04951
 C19 C 0.56631 0.95022 1.07599
 C20 C 0.43192 0.96201 0.92420
 O21 O 0.46645 1.03843 0.90937
 O22 O 0.53320 1.05336 1.05432
 O23 O 0.59438 1.00922 0.95436
 O24 O 0.45650 1.05238 1.04308
 O25 O 0.47786 1.02050 1.09994
 O26 O 0.54586 1.03962 0.91388
 O27 O 0.45345 1.06684 0.96933
 O28 O 0.58847 1.02101 1.03099
 Co29 Co 0.50740 0.99900 0.91847
 Co30 Co 0.50666 1.00326 1.05388
 Co31 Co 0.57124 0.97723 0.99692
 Co32 Co 0.44548 1.01891 0.99677
 O33 O 0.50931 0.99799 0.98893
 C34 C 0.45195 1.06829 0.92999
 C35 C 0.57217 1.05258 1.04851
 C36 C 0.58339 1.03654 0.92713
 C37 C 0.45064 1.04548 1.08213
 O38 O 0.04642 0.46357 0.08238
 O39 O 0.05747 0.53758 -0.03693
 O40 O 0.01384 0.41557 -0.03352
 O41 O 0.00314 0.58780 0.04495
 O42 O 0.05965 0.46211 -0.04077
 O43 O 0.04726 0.54233 0.07047
 O44 O 0.00960 0.58386 -0.03107
 O45 O 0.01383 0.41521 0.04458
 C46 C 0.04250 0.42644 0.07091
 C47 C 0.04689 0.57458 -0.03887
 C48 C 0.05036 0.42503 -0.04262
 C49 C 0.03829 0.57913 0.06243
 O50 O -0.03390 0.54447 0.09211
 O51 O -0.01721 0.46266 -0.08242
 O52 O -0.06664 0.43506 0.04326
 O53 O -0.06593 0.54477 -0.03852
 O54 O -0.01663 0.53741 -0.08220
 O55 O -0.03430 0.46777 0.09605
 O56 O -0.07385 0.55282 0.03695
 O57 O -0.06417 0.44565 -0.03724
 Co58 Co 0.00546 0.50463 0.07774
 Co59 Co 0.01849 0.50001 -0.05477
 Co60 Co -0.02410 0.43504 0.00431
 Co61 Co -0.02962 0.56187 0.00332
 O62 O -0.00670 0.50024 0.00825
 C63 C -0.06903 0.55476 0.07609
 C64 C -0.05308 0.44850 -0.07477
 C65 C -0.06357 0.44473 0.08187
 C66 C -0.05400 0.54721 -0.07551
 O67 O 1.06311 0.04837 0.46977
 O68 O 0.91307 0.03030 0.53579
 O69 O 0.95833 0.00453 0.40768
 O70 O 1.03949 0.06184 0.54490
 O71 O 0.91789 0.03259 0.45626
 O72 O 1.09104 0.02207 0.54012
 O73 O 0.96644 0.06755 0.54754
 O74 O 1.03278 0.02346 0.41368
 C75 C 1.05449 0.05123 0.43108
 C76 C 0.92810 0.06307 0.54967
 C77 C 0.92903 0.02945 0.41829
 C78 C 1.07689 0.05485 0.55493
 O79 O 1.06395 -0.05034 0.52471
 O80 O 0.92093 -0.04671 0.45458
 O81 O 1.05265 -0.05239 0.44589
 O82 O 0.96145 -0.01034 0.58316
 O83 O 0.92713 -0.04762 0.53496
 O84 O 1.10709 -0.01742 0.46665
 O85 O 1.03724 -0.01708 0.57861
 O86 O 0.98109 -0.07173 0.44011
 Co87 Co 1.06067 -0.00151 0.49553
 Co88 Co 0.92725 -0.00704 0.49547
 Co89 Co 1.00544 -0.02192 0.43255
 Co90 Co 1.00103 0.02364 0.55860
 O91 O 0.99609 -0.00025 0.49694
 C92 C 1.05671 -0.04835 0.56397
 C93 C 0.94254 -0.07578 0.44072
 C94 C 1.09062 -0.04355 0.43941
 C95 C 0.93874 -0.04130 0.57299
 C96 C 1.14289 0.15516 0.31581
 C97 C 1.12818 0.15451 0.27271
 C98 C 1.15204 0.17233 0.24102
 C99 C 1.19104 0.19007 0.25115
 C100 C 1.20572 0.19116 0.29363
 C101 C 1.18190 0.17400 0.32577
 C102 C 1.11729 0.13365 0.34828
 C103 C 1.12864 0.13235 0.39210
 C104 C 1.10623 0.10787 0.42002
 C105 C 1.07211 0.08421 0.40484
 C106 C 1.05891 0.08770 0.36200
 C107 C 1.08093 0.11216 0.33382
 C108 C 1.09051 0.13482 0.26111
 C109 C 1.06763 0.11370 0.29093
 H110 H 1.07925 0.13456 0.22815
 H111 H 1.03950 0.09761 0.28005
 H112 H 1.14101 0.17127 0.20799
 H113 H 1.23586 0.20492 0.30170
 H114 H 1.11706 0.10573 0.45300
 H115 H 1.03282 0.06940 0.34981
 H116 H 1.19490 0.17503 0.35790
 H117 H 1.15538 0.14897 0.40514
 C118 C 0.84794 -0.18876 0.33421
 C119 C 0.80396 -0.19000 0.34048
 C120 C 0.77713 -0.20828 0.30949
 C121 C 0.79329 -0.22408 0.27151
 C122 C 0.83687 -0.22349 0.26570
 C123 C 0.86392 -0.20639 0.29669
 C124 C 0.87506 -0.16574 0.36608
 C125 C 0.91906 -0.16224 0.36254
 C126 C 0.94190 -0.13520 0.38915
 C127 C 0.92142 -0.11137 0.41996
 C128 C 0.87851 -0.11783 0.42656
 C129 C 0.85520 -0.14457 0.39981
 C130 C 0.78683 -0.17112 0.37650
 C131 C 0.81186 -0.14851 0.40532
 H132 H 0.75326 -0.17233 0.38150
 H133 H 0.79682 -0.13285 0.43165
 H134 H 0.74342 -0.20862 0.31383
 H135 H 0.84989 -0.23515 0.23634
 H136 H 0.97514 -0.13114 0.38387
 H137 H 0.86264 -0.10012 0.45101
 H138 H 0.89695 -0.20595 0.28983
 H139 H 0.93618 -0.17885 0.33849
 C140 C 0.83540 0.15725 0.67263
 C141 C 0.84711 0.19841 0.68183
 C142 C 0.82902 0.21970 0.71612
 C143 C 0.80336 0.19896 0.74491
 C144 C 0.79287 0.15755 0.73580
 C145 C 0.80803 0.13725 0.69997
 C146 C 0.85551 0.13530 0.63636
 C147 C 0.84137 0.09679 0.62115
 C148 C 0.86396 0.07503 0.59092
 C149 C 0.90147 0.09085 0.57529
 C150 C 0.91396 0.13088 0.58752
 C151 C 0.89037 0.15369 0.61720
 C152 C 0.87890 0.21690 0.65862
 C153 C 0.90123 0.19443 0.62813
 H154 H 0.88833 0.24837 0.66588
 H155 H 0.92716 0.20920 0.61279
 H156 H 0.83689 0.25185 0.72153
 H157 H 0.77377 0.14001 0.75698
 H158 H 0.85297 0.04461 0.58139
 H159 H 0.94216 0.14386 0.57461
 H160 H 0.79977 0.10517 0.69556
 H161 H 0.81322 0.08278 0.63260
 C162 C 1.13835 -0.15329 0.69151
 C163 C 1.13521 -0.13911 0.73425
 C164 C 1.15743 -0.15927 0.76724
 C165 C 1.18141 -0.19473 0.75893
 C166 C 1.18372 -0.20982 0.71708
 C167 C 1.16268 -0.18918 0.68351
 C168 C 1.11554 -0.12925 0.65699
 C169 C 1.11946 -0.13777 0.61296
 C170 C 1.09931 -0.11256 0.58223
 C171 C 1.07433 -0.07882 0.59481
 C172 C 1.06906 -0.07134 0.63853
 C173 C 1.09006 -0.09533 0.66937
 C174 C 1.10956 -0.10517 0.74409
 C175 C 1.08690 -0.08420 0.71242
 H176 H 1.10679 -0.09475 0.77687
 H177 H 1.06744 -0.05808 0.72172
 H178 H 1.15544 -0.14808 0.79985
 H179 H 1.20215 -0.23738 0.71047
 H180 H 1.10409 -0.11887 0.54872
 H181 H 1.04999 -0.04532 0.64891
 H182 H 1.16552 -0.20185 0.65174
 H183 H 1.13892 -0.16290 0.60170
 C184 C 0.32175 1.13843 1.16973
 C185 C 0.31027 1.17746 1.15278
 C186 C 0.27707 1.20038 1.17021
 C187 C 0.25284 1.18413 1.20285
 C188 C 0.26441 1.14519 1.21943
 C189 C 0.29844 1.12285 1.20341
 C190 C 0.35699 1.11467 1.14968
 C191 C 0.37290 1.07686 1.16583
 C192 C 0.40436 1.05499 1.14459
 C193 C 0.42026 1.07008 1.10666
 C194 C 0.40567 1.10825 1.09110
 C195 C 0.37484 1.13090 1.11263
 C196 C 0.33085 1.19275 1.11741
 C197 C 0.36183 1.16960 1.09724
 H198 H 0.32193 1.22254 1.10426
 H199 H 0.37589 1.18225 1.06919
 H200 H 0.26931 1.23049 1.15722
 H201 H 0.24670 1.13125 1.24437
 H202 H 0.41543 1.02563 1.15717
 H203 H 0.41839 1.12041 1.06210
 H204 H 0.30515 1.09292 1.21699
 H205 H 0.36143 1.06363 1.19466
 C206 C 0.30449 0.85452 0.84804
 C207 C 0.26614 0.85129 0.86958
 C208 C 0.23373 0.82649 0.85244
 C209 C 0.23828 0.80612 0.81315
 C210 C 0.27574 0.80990 0.79137
 C211 C 0.30873 0.83347 0.80870
 C212 C 0.33826 0.88147 0.86734
 C213 C 0.37853 0.88443 0.85012
 C214 C 0.40869 0.91046 0.86879
 C215 C 0.39951 0.93453 0.90491
 C216 C 0.35962 0.93155 0.92260
 C217 C 0.32931 0.90471 0.90459
 C218 C 0.25979 0.87395 0.90722
 C219 C 0.29039 0.90067 0.92390
 H220 H 0.23031 0.87170 0.92353
 H221 H 0.28361 0.91817 0.95261
 H222 H 0.20414 0.82435 0.86860
 H223 H 0.27917 0.79482 0.76065
 H224 H 0.43931 0.91194 0.85461
 H225 H 0.35233 0.94967 0.95078
 H226 H 0.33674 0.83563 0.79028
 H227 H 0.38755 0.86667 0.82250
 C228 C 0.67476 0.84484 1.17993
 C229 C 0.67025 0.80154 1.17498
 C230 C 0.69836 0.77443 1.19638
 C231 C 0.73329 0.78968 1.21996
 C232 C 0.73790 0.83281 1.22397
 C233 C 0.70888 0.85994 1.20481
 C234 C 0.64464 0.87278 1.15610
 C235 C 0.64373 0.91605 1.16223
 C236 C 0.61698 0.94098 1.13718
 C237 C 0.59110 0.92344 1.10512
 C238 C 0.59035 0.88032 1.09997
 C239 C 0.61612 0.85486 1.12595
 C240 C 0.63918 0.78565 1.14692
 C241 C 0.61350 0.81174 1.12206
 H242 H 0.63585 0.75252 1.14279
 H243 H 0.59108 0.79793 1.09958
 H244 H 0.69428 0.74131 1.19295
 H245 H 0.76477 0.84591 1.24099
 H246 H 0.61758 0.97422 1.14187
 H247 H 0.56954 0.86662 1.07584
 H248 H 0.71477 0.89260 1.20836
 H249 H 0.66341 0.93118 1.18613
 C250 C 0.70353 1.14900 0.85475
 C251 C 0.68998 1.16983 0.81714
 C252 C 0.71808 1.19459 0.79526
 C253 C 0.75965 1.19905 0.81026
 C254 C 0.77258 1.18031 0.84856
 C255 C 0.74491 1.15555 0.87067
 C256 C 0.67341 1.12021 0.87522
 C257 C 0.68438 1.09572 0.91098
 C258 C 0.65538 1.06841 0.92786
 C259 C 0.61471 1.06503 0.90970
 C260 C 0.60352 1.08953 0.87434
 C261 C 0.63242 1.11657 0.85685
 C262 C 0.64882 1.16506 0.80097
 C263 C 0.62057 1.13929 0.82060
 H264 H 0.63838 1.18125 0.77242
 H265 H 0.58912 1.13649 0.80664
 H266 H 0.70829 1.20927 0.76562
 H267 H 0.80475 1.18355 0.86034
 H268 H 0.66476 1.05005 0.95528
 H269 H 0.57227 1.08713 0.85979
 H270 H 0.75676 1.14122 0.89955
 H271 H 0.71526 1.09689 0.92609
 C272 C 0.15034 0.29990 0.14725
 C273 C 0.16742 0.30854 0.18859
 C274 C 0.18999 0.27784 0.21109
 C275 C 0.19649 0.23878 0.19274
 C276 C 0.18087 0.23057 0.15135
 C277 C 0.15815 0.26073 0.12873
 C278 C 0.12394 0.33258 0.12552
 C279 C 0.10280 0.32599 0.08591
 C280 C 0.07687 0.35669 0.06804
 C281 C 0.07173 0.39492 0.08885
 C282 C 0.09339 0.40221 0.12776
 C283 C 0.11880 0.37123 0.14651
 C284 C 0.16139 0.34751 0.20743
 C285 C 0.13798 0.37832 0.18665
 H286 H 0.17479 0.35424 0.23889
 H287 H 0.13403 0.40789 0.20272
 H288 H 0.20209 0.28390 0.24321
 H289 H 0.18544 0.20028 0.13706
 H290 H 0.06063 0.35042 0.03784
 H291 H 0.08926 0.43154 0.14428
 H292 H 0.14663 0.25254 0.09712
 H293 H 0.10515 0.29713 0.06858
 C294 C -0.14805 0.32657 -0.16704
 C295 C -0.12437 0.29221 -0.18172
 C296 C -0.14490 0.25633 -0.19607
 C297 C -0.18896 0.25483 -0.19855
 C298 C -0.21247 0.28891 -0.18452
 C299 C -0.19237 0.32439 -0.16886
 C300 C -0.12471 0.36321 -0.14924
 C301 C -0.14497 0.39669 -0.12886
 C302 C -0.12146 0.42718 -0.10757
 C303 C -0.07744 0.42576 -0.10749
 C304 C -0.05701 0.39468 -0.13065
 C305 C -0.08016 0.36266 -0.15018
 C306 C -0.08040 0.29387 -0.18227
 C307 C -0.05879 0.32864 -0.16749
 H308 H -0.06238 0.26778 -0.19417
 H309 H -0.02470 0.32818 -0.16801
 H310 H -0.12666 0.22965 -0.20616
 H311 H -0.24653 0.28813 -0.18622
 H312 H -0.13757 0.45068 -0.08911
 H313 H -0.02288 0.39288 -0.12941
 H314 H -0.21207 0.34982 -0.15882
 H315 H -0.17873 0.39860 -0.12672
 C316 C 0.14313 0.69333 -0.13226
 C317 C 0.11921 0.72492 -0.15283
 C318 C 0.13889 0.75377 -0.17838
 C319 C 0.18267 0.75296 -0.18288
 C320 C 0.20652 0.72211 -0.16200
 C321 C 0.18708 0.69245 -0.13723
 C322 C 0.12042 0.66273 -0.10575
 C323 C 0.14025 0.62803 -0.08650
 C324 C 0.11693 0.59964 -0.06355
 C325 C 0.07364 0.60578 -0.05856
 C326 C 0.05405 0.64075 -0.07669
 C327 C 0.07663 0.66846 -0.10086
 C328 C 0.07581 0.72823 -0.14718
 C329 C 0.05508 0.70095 -0.12128
 H330 H 0.05760 0.75258 -0.16270
 H331 H 0.02144 0.70495 -0.11778
 H332 H 0.12001 0.77773 -0.19361
 H333 H 0.24038 0.72111 -0.16486
 H334 H 0.13259 0.57262 -0.05022
 H335 H 0.02040 0.64547 -0.07385
 H336 H 0.20699 0.66957 -0.12175
 H337 H 0.17341 0.62174 -0.08976
 C338 C -0.18228 0.65798 0.17243
 C339 C -0.20254 0.68997 0.14891
 C340 C -0.22168 0.72314 0.17023
 C341 C -0.22268 0.72423 0.21494
 C342 C -0.20642 0.69027 0.23788
 C343 C -0.18620 0.65765 0.21702
 C344 C -0.15608 0.62703 0.14884
 C345 C -0.12818 0.59896 0.16955
 C346 C -0.10075 0.57413 0.14600
 C347 C -0.10139 0.57598 0.10138
 C348 C -0.13064 0.60217 0.08053
 C349 C -0.15669 0.62863 0.10377
 C350 C -0.20241 0.68936 0.10430
 C351 C -0.18088 0.65864 0.08216
 H352 H -0.21877 0.71330 0.08623
 H353 H -0.18128 0.65981 0.04761
 H354 H -0.23374 0.74918 0.15201
 H355 H -0.20748 0.69014 0.27236
 H356 H -0.07832 0.55423 0.16271
 H357 H -0.13098 0.60434 0.04603
 H358 H -0.17312 0.63297 0.23630
 H359 H -0.12566 0.59721 0.20387
 C360 C 1.16289 0.15721 0.68245
 C361 C 1.19201 0.13686 0.71016
 C362 C 1.21029 0.15812 0.74523
 C363 C 1.20143 0.20044 0.75291
 C364 C 1.17361 0.22071 0.72393
 C365 C 1.15463 0.19957 0.68948
 C366 C 1.14183 0.13250 0.64718
 C367 C 1.10905 0.14856 0.62078
 C368 C 1.08879 0.12355 0.59008
 C369 C 1.10123 0.08222 0.58424
 C370 C 1.13449 0.06615 0.60952
 C371 C 1.15411 0.09060 0.64151
 C372 C 1.20259 0.09524 0.70294
 C373 C 1.18460 0.07284 0.66895
 H374 H 1.22525 0.07971 0.72388
 H375 H 1.19387 0.04073 0.66483
 H376 H 1.23032 0.14100 0.76746
 H377 H 1.16658 0.25335 0.72785
 H378 H 1.06288 0.13643 0.57116
 H379 H 1.14360 0.03393 0.60581
 H380 H 1.13371 0.21703 0.66865
 H381 H 1.09772 0.17993 0.62418
 C382 C 0.85910 -0.14452 0.69645
 C383 C 0.84530 -0.18393 0.68197
 C384 C 0.82331 -0.20963 0.70921
 C385 C 0.81386 -0.19623 0.75042
 C386 C 0.82641 -0.15688 0.76443
 C387 C 0.84889 -0.13129 0.73790
 C388 C 0.88286 -0.11820 0.66648
 C389 C 0.90018 -0.07960 0.67839
 C390 C 0.91996 -0.05526 0.64846
 C391 C 0.92272 -0.06875 0.60602
 C392 C 0.90742 -0.10795 0.59440
 C393 C 0.88793 -0.13280 0.62422
 C394 C 0.85292 -0.19719 0.64025
 C395 C 0.87323 -0.17192 0.61180
 H396 H 0.84226 -0.22727 0.62914
 H397 H 0.87754 -0.18322 0.57953
 H398 H 0.81316 -0.24000 0.69847
 H399 H 0.81926 -0.14629 0.79631
 H400 H 0.93184 -0.02523 0.65821
 H401 H 0.91016 -0.11897 0.56179
 H402 H 0.85767 -0.10128 0.75033
 H403 H 0.89844 -0.06748 0.71047
 C404 C 1.17112 -0.12889 0.29966
 C405 C 1.15943 -0.17041 0.29170
 C406 C 1.17525 -0.19219 0.25648
 C407 C 1.20115 -0.17285 0.22685
 C408 C 1.21129 -0.13088 0.23455
 C409 C 1.19699 -0.10949 0.27039
 C410 C 1.15370 -0.10685 0.33786
 C411 C 1.16609 -0.06673 0.35094
 C412 C 1.14706 -0.04683 0.38542
 C413 C 1.11498 -0.06624 0.40716
 C414 C 1.10367 -0.10672 0.39553
 C415 C 1.12330 -0.12738 0.36178
 C416 C 1.13097 -0.18968 0.31821
 C417 C 1.11256 -0.16833 0.35185
 H418 H 1.12176 -0.22141 0.31204
 H419 H 1.08971 -0.18425 0.37056
 H420 H 1.16720 -0.22448 0.25219
 H421 H 1.22944 -0.11382 0.21207
 H422 H 1.15623 -0.01559 0.39403
 H423 H 1.07927 -0.12211 0.41271
 H424 H 1.20551 -0.07740 0.27393
 H425 H 1.19020 -0.05021 0.33482
 C426 C 0.84086 0.14060 0.30200
 C427 C 0.86521 0.16233 0.27271
 C428 C 0.84581 0.19126 0.24506
 C429 C 0.80187 0.19782 0.24496
 C430 C 0.77795 0.17496 0.27325
 C431 C 0.79702 0.14726 0.30164
 C432 C 0.86261 0.11040 0.33130
 C433 C 0.84172 0.09040 0.36415
 C434 C 0.86342 0.06337 0.39136
 C435 C 0.90631 0.05493 0.38626
 C436 C 0.92740 0.07399 0.35322
 C437 C 0.90613 0.10250 0.32644
 C438 C 0.90844 0.15392 0.27017
 C439 C 0.92831 0.12416 0.29593
 H440 H 0.92712 0.17016 0.24744
 H441 H 0.96171 0.11855 0.29245
 H442 H 0.86449 0.20675 0.22178
 H443 H 0.74403 0.17868 0.27326
 H444 H 0.84661 0.04921 0.41691
 H445 H 0.96066 0.06810 0.34968
 H446 H 0.77664 0.13063 0.32218
 H447 H 0.80892 0.09596 0.37021
 C448 C 0.14590 0.30585 -0.14056
 C449 C 0.18804 0.31499 -0.14970
 C450 C 0.21189 0.28696 -0.17396
 C451 C 0.19386 0.25035 -0.19088
 C452 C 0.15099 0.24318 -0.18397
 C453 C 0.12746 0.27031 -0.15912
 C454 C 0.12230 0.33499 -0.11232
 C455 C 0.08247 0.32566 -0.09691
 C456 C 0.06065 0.35438 -0.07248
 C457 C 0.07761 0.39345 -0.06285
 C458 C 0.11841 0.40229 -0.07600
 C459 C 0.14115 0.37295 -0.10001
 C460 C 0.20580 0.35223 -0.13499
 C461 C 0.18250 0.38106 -0.11162
 H462 H 0.23796 0.35958 -0.14237
 H463 H 0.19733 0.40980 -0.10188
 H464 H 0.24452 0.29364 -0.18006
 H465 H 0.13606 0.21533 -0.19615
 H466 H 0.02953 0.34627 -0.06231
 H467 H 0.13217 0.43203 -0.06810
 H468 H 0.09486 0.26284 -0.15486
 H469 H 0.06753 0.29637 -0.10338
 C470 C -0.16630 0.33445 0.17484
 C471 C -0.19798 0.31477 0.14970
 C472 C -0.21603 0.27813 0.16348
 C473 C -0.20385 0.26010 0.20290
 C474 C -0.17561 0.28267 0.22970
 C475 C -0.15672 0.31882 0.21572
 C476 C -0.14312 0.36967 0.15568
 C477 C -0.10687 0.38758 0.17503
 C478 C -0.08240 0.41531 0.15249
 C479 C -0.09394 0.42597 0.11052
 C480 C -0.13215 0.41160 0.09287
 C481 C -0.15599 0.38281 0.11438
 C482 C -0.21057 0.33084 0.11003
 C483 C -0.19045 0.36460 0.09305
 H484 H -0.23561 0.31637 0.09123
 H485 H -0.20047 0.37501 0.06158
 H486 H -0.23803 0.26273 0.14183
 H487 H -0.16722 0.27200 0.26144
 H488 H -0.05297 0.42601 0.16672
 H489 H -0.14150 0.42008 0.06055
 H490 H -0.13434 0.33381 0.23714
 H491 H -0.09553 0.37864 0.20639
 C492 C -0.14888 0.66548 -0.17542
 C493 C -0.12466 0.69629 -0.19457
 C494 C -0.14417 0.73231 -0.21024
 C495 C -0.18799 0.73809 -0.20819
 C496 C -0.21222 0.70591 -0.19229
 C497 C -0.19301 0.67021 -0.17585
 C498 C -0.12620 0.63004 -0.15422
 C499 C -0.14660 0.60130 -0.12853
 C500 C -0.12329 0.57225 -0.10484
 C501 C -0.07939 0.57041 -0.10725
 C502 C -0.05908 0.59685 -0.13498
 C503 C -0.08186 0.62747 -0.15722
 C504 C -0.08099 0.69145 -0.19722
 C505 C -0.06013 0.65735 -0.17962
 H506 H -0.06253 0.71471 -0.21260
 H507 H -0.02618 0.65543 -0.18178
 H508 H -0.12483 0.75644 -0.22286
 H509 H -0.24616 0.70873 -0.19179
 H510 H -0.13942 0.55228 -0.08325
 H511 H -0.02499 0.59622 -0.13613
 H512 H -0.21318 0.64688 -0.16339
 H513 H -0.18017 0.60222 -0.12444
 C514 C 0.14518 0.70902 0.13331
 C515 C 0.12470 0.74554 0.14741
 C516 C 0.14799 0.77735 0.16749
 C517 C 0.19209 0.77420 0.17283
 C518 C 0.21229 0.73841 0.15710
 C519 C 0.18931 0.70625 0.13804
 C520 C 0.11893 0.67515 0.11345
 C521 C 0.13560 0.63608 0.10207
 C522 C 0.10951 0.60515 0.08496
 C523 C 0.06635 0.61256 0.07805
 C524 C 0.04954 0.65152 0.08861
 C525 C 0.07521 0.68239 0.10706
 C526 C 0.08119 0.75047 0.14068
 C527 C 0.05712 0.71988 0.12034
 H528 H 0.06551 0.77861 0.15100
 H529 H 0.02360 0.72535 0.11572
 H530 H 0.13196 0.80537 0.17763
 H531 H 0.24616 0.73498 0.16042
 H532 H 0.12311 0.57525 0.07721
 H533 H 0.01604 0.65726 0.08410
 H534 H 0.20675 0.67968 0.12689
 H535 H 0.16847 0.62846 0.10701
 C536 C 0.33179 1.17558 0.84375
 C537 C 0.30046 1.19302 0.86971
 C538 C 0.26354 1.20973 0.85109
 C539 C 0.25673 1.20966 0.80636
 C540 C 0.28997 1.19581 0.78083
 C541 C 0.32675 1.17881 0.79913
 C542 C 0.36774 1.15261 0.86505
 C543 C 0.39757 1.12947 0.84214
 C544 C 0.42680 1.10392 0.86345
 C545 C 0.42750 1.10135 0.90808
 C546 C 0.40012 1.12670 0.93130
 C547 C 0.36968 1.15135 0.91021
 C548 C 0.30526 1.19224 0.91423
 C549 C 0.33945 1.17231 0.93405
 H550 H 0.28164 1.20635 0.93413
 H551 H 0.34110 1.17160 0.96862
 H552 H 0.23883 1.22019 0.87185
 H553 H 0.28705 1.19726 0.74638
 H554 H 0.44775 1.08479 0.84482
 H555 H 0.40022 1.12485 0.96582
 H556 H 0.35047 1.16775 0.77778
 H557 H 0.39755 1.12905 0.80775
 C558 C 0.32458 0.84767 1.13193
 C559 C 0.28866 0.83585 1.10720
 C560 C 0.25331 0.82007 1.12703
 C561 C 0.25179 0.81771 1.17184
 C562 C 0.28799 0.82871 1.19615
 C563 C 0.32385 0.84326 1.17658
 C564 C 0.36043 0.86725 1.10969
 C565 C 0.39810 0.87934 1.13099
 C566 C 0.42787 0.90268 1.11004
 C567 C 0.42058 0.91455 1.06760
 C568 C 0.38516 0.89950 1.04508
 C569 C 0.35528 0.87574 1.06563
 C570 C 0.28722 0.84192 1.06301
 C571 C 0.31953 0.86203 1.04278
 H572 H 0.25981 0.83265 1.04401
 H573 H 0.31609 0.86766 1.00886
 H574 H 0.22565 0.81230 1.10767
 H575 H 0.28842 0.82614 1.23057
 H576 H 0.45520 0.91388 1.12792
 H577 H 0.37984 0.90803 1.01203
 H578 H 0.35016 0.85205 1.19707
 H579 H 0.40448 0.87233 1.16412
 C580 C 0.68919 1.16070 1.13906
 C581 C 0.73120 1.14572 1.14157
 C582 C 0.76113 1.16557 1.16781
 C583 C 0.75104 1.20202 1.19000
 C584 C 0.70994 1.21824 1.18604
 C585 C 0.67915 1.19754 1.16129
 C586 C 0.65761 1.13646 1.11272
 C587 C 0.61388 1.14479 1.11231
 C588 C 0.58566 1.11881 1.08987
 C589 C 0.60060 1.08464 1.06665
 C590 C 0.64417 1.07769 1.06512
 C591 C 0.67238 1.10214 1.08889
 C592 C 0.74353 1.11140 1.11733
 C593 C 0.71494 1.09068 1.09075
 H594 H 0.77590 1.10050 1.11872
 H595 H 0.72607 1.06424 1.07259
 H596 H 0.79313 1.15362 1.16982
 H597 H 0.70167 1.24653 1.20272
 H598 H 0.55216 1.12468 1.09181
 H599 H 0.65630 1.05129 1.04755
 H600 H 0.64793 1.21095 1.15950
 H601 H 0.60085 1.17011 1.13053
 C602 C 0.68380 0.82934 0.83623
 C603 C 0.71505 0.80896 0.86160
 C604 C 0.75015 0.79072 0.84244
 C605 C 0.75465 0.79222 0.79812
 C606 C 0.72314 0.81138 0.77295
 C607 C 0.68809 0.82959 0.79160
 C608 C 0.64869 0.85145 0.85826
 C609 C 0.61755 0.87487 0.83619
 C610 C 0.58849 0.89879 0.85842
 C611 C 0.58925 0.89951 0.90315
 C612 C 0.61813 0.87397 0.92538
 C613 C 0.64818 0.85060 0.90339
 C614 C 0.71176 0.80792 0.90601
 C615 C 0.67895 0.82816 0.92644
 H616 H 0.73543 0.79194 0.92538
 H617 H 0.67840 0.82727 0.96097
 H618 H 0.77478 0.77652 0.86211
 H619 H 0.72610 0.81270 0.73867
 H620 H 0.56633 0.91801 0.84052
 H621 H 0.61905 0.87432 0.95998
 H622 H 0.66520 0.84425 0.77055
 H623 H 0.61599 0.87642 0.80186
   
