data_POSCAR
  _audit_creation_date              2014-09-24
  _audit_creation_method            'ToBaCCo'
  _symmetry_space_group_name_H-M    'P1'
  _symmetry_Int_Tables_number       1
  _symmetry_cell_setting            triclinic
  loop_
  _symmetry_equiv_pos_as_xyz
 x,y,z
_cell_length_a 12.6458
_cell_length_b 12.6412
_cell_length_c 12.6423
_cell_angle_alpha 107.490100
_cell_angle_beta 72.650500
_cell_angle_gamma 72.524200
loop_
  _atom_site_label
  _atom_site_type_symbol
  _atom_site_fract_x
  _atom_site_fract_y
  _atom_site_fract_z
O1 O 0.59201 0.54714 0.10647
 O2 O 0.29925 0.58582 0.08621
 O3 O 0.45128 0.40935 0.10874
 O4 O 0.41867 0.70078 0.08955
 O5 O 0.53993 0.59229 -0.10854
 O6 O 0.58365 0.30038 -0.08604
 O7 O 0.40632 0.44541 -0.10522
 O8 O 0.69835 0.42060 -0.09039
 Cu9 Cu 0.43586 0.56425 0.11861
 Cu10 Cu 0.56073 0.43586 -0.11856
 C11 C 0.69391 0.48214 0.01195
 C12 C 0.30372 0.51700 -0.01317
 C13 C 0.51987 0.30640 0.01605
 C14 C 0.47727 0.69482 -0.01425
 O15 O -0.08539 0.70201 0.58607
 O16 O -0.10841 0.41034 0.54688
 O17 O -0.08810 0.57334 0.69867
 O18 O -0.10603 0.54214 0.40647
 O19 O 0.09098 0.41630 0.29920
 O20 O 0.11200 0.46213 0.59219
 O21 O 0.08917 0.30416 0.42290
 O22 O 0.10560 0.59499 0.44539
 Cu23 Cu -0.11814 0.56563 0.56383
 Cu24 Cu 0.12007 0.44054 0.43646
 C25 C 0.01358 0.69761 0.51709
 C26 C -0.01350 0.30848 0.48301
 C27 C 0.01665 0.51966 0.69364
 C28 C -0.01201 0.47638 0.30425
 O29 O 0.41322 0.08651 0.70211
 O30 O 0.45207 0.10917 0.41048
 O31 O 0.30074 0.08936 0.57328
 O32 O 0.59270 0.10720 0.54240
 O33 O 0.70009 -0.09008 0.41691
 O34 O 0.40729 -0.11102 0.46222
 O35 O 0.57630 -0.08864 0.30456
 O36 O 0.55382 -0.10480 0.59540
 Cu37 Cu 0.43549 0.11922 0.56574
 Cu38 Cu 0.56301 -0.11929 0.44092
 C39 C 0.48194 -0.01268 0.69790
 C40 C 0.51583 0.01403 0.30878
 C41 C 0.30583 -0.01548 0.51957
 C42 C 0.69495 0.01309 0.47681
 O43 O 0.39348 0.05519 -0.09188
 O44 O 0.40842 0.08034 0.20034
 O45 O 0.41243 0.20040 0.08539
 O46 O 0.38975 -0.09136 0.04201
 O47 O 0.58775 -0.19992 -0.07924
 O48 O 0.60725 0.09142 -0.04676
 O49 O 0.60517 -0.04634 0.09409
 O50 O 0.58492 -0.08506 -0.19873
 Cu51 Cu 0.38005 0.06491 0.06270
 Cu52 Cu 0.61718 -0.06354 -0.06208
 C53 C 0.48562 -0.01642 -0.19444
 C54 C 0.51070 0.01886 0.19601
 C55 C 0.51450 0.19437 0.02160
 C56 C 0.48393 -0.19391 -0.02072
 O57 O -0.19807 0.58959 1.07883
 O58 O 0.09357 0.60479 1.05462
 O59 O -0.03929 0.60691 0.90718
 O60 O -0.08241 0.58346 1.19839
 O61 O 0.05082 0.38878 1.08933
 O62 O 0.08226 0.40870 0.79845
 O63 O 0.20095 0.41333 0.91408
 O64 O -0.09147 0.39260 0.95234
 Cu65 Cu -0.06043 0.61725 1.06374
 Cu66 Cu 0.06497 0.37995 0.93507
 C67 C -0.19347 0.48721 1.01719
 C68 C 0.19628 0.51284 0.98292
 C69 C 0.02353 0.51268 0.80461
 C70 C -0.01792 0.48140 1.19224
 O71 O 0.08559 -0.19941 0.41350
 O72 O 0.04615 0.09360 0.39315
 O73 O 0.20081 -0.08077 0.40856
 O74 O -0.09029 -0.04938 0.38906
 O75 O -0.19906 0.08379 0.58364
 O76 O 0.09243 0.04066 0.60670
 O77 O -0.07996 0.20012 0.59001
 O78 O -0.05466 -0.09203 0.60486
 Cu79 Cu 0.06389 -0.06321 0.38018
 Cu80 Cu -0.06425 0.06211 0.61731
 C81 C 0.01708 -0.19481 0.51294
 C82 C -0.01865 0.19567 0.48779
 C83 C 0.19485 -0.02219 0.51250
 C84 C -0.19307 0.01920 0.48170
   
