data_POSCAR
  _audit_creation_date              2014-09-24
  _audit_creation_method            'ToBaCCo'
  _symmetry_space_group_name_H-M    'P1'
  _symmetry_Int_Tables_number       1
  _symmetry_cell_setting            triclinic
  loop_
  _symmetry_equiv_pos_as_xyz
 x,y,z
_cell_length_a 23.9417
_cell_length_b 23.9613
_cell_length_c 39.1275
_cell_angle_alpha 89.906800
_cell_angle_beta 90.819000
_cell_angle_gamma 89.516900
loop_
  _atom_site_label
  _atom_site_type_symbol
  _atom_site_fract_x
  _atom_site_fract_y
  _atom_site_fract_z
O1 O 0.04461 0.44250 0.96780
 O2 O 0.04552 0.55120 1.03436
 O3 O 0.04479 0.44227 1.03415
 O4 O 0.04668 0.55138 0.96782
 O5 O -0.04570 0.55342 0.96675
 O6 O -0.04759 0.44416 1.03309
 O7 O -0.04685 0.55306 1.03326
 O8 O -0.04777 0.44460 0.96676
 Cu9 Cu 0.05472 0.49672 1.00114
 Cu10 Cu -0.05629 0.49909 0.99986
 C11 C -0.00179 0.42493 0.95623
 C12 C -0.00056 0.57057 1.04496
 C13 C -0.00169 0.42446 1.04462
 C14 C 0.00084 0.57092 0.95615
 O15 O 0.55824 -0.04087 0.53308
 O16 O 0.44530 -0.04069 0.46803
 O17 O 0.55421 -0.04153 0.46665
 O18 O 0.44927 -0.04160 0.53448
 O19 O 0.44842 0.05070 0.53447
 O20 O 0.55360 0.05077 0.46659
 O21 O 0.44471 0.05161 0.46803
 O22 O 0.55735 0.05142 0.53301
 Cu23 Cu 0.50182 -0.05048 0.50057
 Cu24 Cu 0.50094 0.06043 0.50053
 C25 C 0.57706 0.00531 0.54388
 C26 C 0.42581 0.00556 0.45716
 C27 C 0.57183 0.00458 0.45528
 C28 C 0.43090 0.00448 0.54580
 C29 C 0.10929 0.00432 0.26520
 H30 H 0.11317 0.00388 0.23769
 C31 C 0.15712 0.00640 0.28603
 H32 H 0.19779 0.00793 0.27433
 C33 C 0.05134 0.00423 0.31378
 H34 H 0.01012 0.00402 0.32458
 C35 C 0.09797 0.00645 0.33552
 H36 H 0.09195 0.00670 0.36290
 N37 N 0.05775 0.00231 0.27932
 C38 C -0.04862 -0.07841 0.20285
 H39 H -0.08288 -0.04872 0.20147
 C40 C -0.04944 -0.12599 0.18231
 H41 H -0.08429 -0.13226 0.16484
 C42 C 0.03903 -0.10524 0.22679
 H43 H 0.07312 -0.09745 0.24444
 C44 C 0.03994 -0.15336 0.20671
 H45 H 0.07489 -0.18213 0.20917
 Zn46 Zn -0.00540 -0.00131 0.24965
 N47 N -0.00428 -0.06833 0.22399
 C48 C -0.00256 0.05447 0.18558
 N49 N -0.00321 0.06133 0.22007
 C50 C -0.00126 0.11306 0.23429
 C51 C -0.00071 0.16059 0.21357
 C52 C -0.00206 0.10079 0.16393
 C53 C -0.08122 -0.04435 0.29645
 C54 C -0.12842 -0.04516 0.31697
 C55 C -0.15728 0.04321 0.29239
 C56 C -0.10950 0.04232 0.27234
 N57 N -0.07202 -0.00047 0.27524
 H58 H -0.00231 0.01312 0.17469
 H59 H -0.00093 0.11732 0.26182
 H60 H -0.00061 0.20143 0.22537
 H61 H -0.00145 0.09440 0.13655
 H62 H -0.05109 -0.07821 0.29792
 H63 H -0.13396 -0.07959 0.33452
 H64 H -0.18649 0.07776 0.28985
 H65 H -0.10243 0.07602 0.25463
 C66 C -0.00440 -0.16391 0.18378
 C67 C 0.15179 0.00721 0.32173
 C68 C -0.16688 -0.00059 0.31541
 C69 C -0.00169 0.15477 0.17785
 C70 C -0.00002 0.11252 0.76490
 H71 H 0.00029 0.11673 0.73737
 C72 C -0.00241 0.16008 0.78546
 H73 H -0.00428 0.20087 0.77353
 C74 C 0.00065 0.05402 0.81378
 H75 H 0.00118 0.01270 0.82480
 C76 C -0.00187 0.10037 0.83527
 H77 H -0.00200 0.09403 0.86267
 N78 N 0.00242 0.06083 0.77930
 C79 C 0.08333 -0.04478 0.70348
 H80 H 0.05378 -0.07863 0.70192
 C81 C 0.13079 -0.04554 0.68316
 H82 H 0.13709 -0.07990 0.66567
 C83 C 0.10992 0.04179 0.72764
 H84 H 0.10210 0.07543 0.74530
 C85 C 0.15792 0.04273 0.70779
 H86 H 0.18653 0.07726 0.71043
 Zn87 Zn 0.00627 -0.00187 0.74992
 N88 N 0.07317 -0.00097 0.72461
 C89 C -0.05023 0.00323 0.68557
 N90 N -0.05669 0.00159 0.72004
 C91 C -0.10829 0.00378 0.73410
 C92 C -0.15611 0.00579 0.71324
 C93 C -0.09686 0.00536 0.66378
 C94 C 0.04993 -0.07876 0.79739
 C95 C 0.05100 -0.12618 0.81818
 C96 C -0.03723 -0.15377 0.79301
 C97 C -0.03660 -0.10580 0.77271
 N98 N 0.00597 -0.06883 0.77578
 H99 H -0.00898 0.00287 0.67482
 H100 H -0.11223 0.00355 0.76161
 H101 H -0.19682 0.00748 0.72491
 H102 H -0.09080 0.00539 0.63641
 H103 H 0.08363 -0.04903 0.79899
 H104 H 0.08546 -0.13229 0.83605
 H105 H -0.07162 -0.18256 0.79032
 H106 H -0.07035 -0.09816 0.75468
 C107 C 0.16851 -0.00100 0.68485
 C108 C -0.00309 0.15432 0.82118
 C109 C 0.00662 -0.16410 0.81646
 C110 C -0.15072 0.00630 0.67754
 C111 C -0.00113 -0.30433 0.11552
 C112 C 0.04785 -0.27483 0.12262
 C113 C 0.04696 -0.22969 0.14519
 C114 C -0.00042 -0.38624 0.07030
 C115 C -0.05196 -0.24370 0.15393
 C116 C -0.05096 -0.28888 0.13136
 C117 C -0.00063 -0.34926 0.09115
 C118 C -0.00306 -0.21335 0.16094
 H119 H 0.08659 -0.28625 0.11035
 H120 H 0.08512 -0.20672 0.14966
 H121 H -0.09095 -0.23260 0.16597
 H122 H -0.08912 -0.31145 0.12605
 C123 C -0.00352 0.29775 0.11128
 C124 C 0.02976 0.29772 0.14099
 C125 C 0.03015 0.25143 0.16284
 C126 C -0.00231 0.38259 0.06800
 C127 C -0.03630 0.20523 0.12536
 C128 C -0.03666 0.25151 0.10360
 C129 C -0.00282 0.34444 0.08811
 C130 C -0.00267 0.20451 0.15515
 H131 H 0.05578 0.33322 0.14709
 H132 H 0.05691 0.25189 0.18538
 H133 H -0.06267 0.17014 0.11900
 H134 H -0.06263 0.25112 0.08069
 C135 C 0.30799 0.00297 0.61688
 C136 C 0.29311 -0.04716 0.63260
 C137 C 0.24828 -0.04841 0.65511
 C138 C 0.38867 0.00424 0.57143
 C139 C 0.23349 0.05087 0.64655
 C140 C 0.27830 0.05200 0.62405
 C141 C 0.35234 0.00374 0.59244
 C142 C 0.21769 0.00055 0.66216
 H143 H 0.31582 -0.08537 0.62722
 H144 H 0.23759 -0.08763 0.66702
 H145 H 0.21033 0.08909 0.65106
 H146 H 0.28925 0.09097 0.61187
 C147 C -0.29444 0.00719 0.61036
 C148 C -0.29434 -0.02507 0.64021
 C149 C -0.24788 -0.02492 0.66229
 C150 C -0.38019 0.00550 0.56702
 C151 C -0.20161 0.04013 0.62480
 C152 C -0.24810 0.03995 0.60280
 C153 C -0.34149 0.00610 0.58708
 C154 C -0.20083 0.00745 0.65472
 H155 H -0.32993 -0.05072 0.64625
 H156 H -0.24828 -0.05102 0.68490
 H157 H -0.16640 0.06608 0.61851
 H158 H -0.24779 0.06519 0.57980
 C159 C 0.00324 -0.30386 0.88547
 C160 C -0.04594 -0.27430 0.87762
 C161 C -0.04496 -0.22934 0.85484
 C162 C 0.00169 -0.38577 0.93082
 C163 C 0.05448 -0.24361 0.84742
 C164 C 0.05338 -0.28861 0.87020
 C165 C 0.00244 -0.34877 0.90992
 C166 C 0.00534 -0.21325 0.83962
 H167 H -0.08493 -0.28557 0.88943
 H168 H -0.08332 -0.20634 0.84978
 H169 H 0.09370 -0.23269 0.83582
 H170 H 0.09170 -0.31124 0.87609
 C171 C -0.00463 0.29679 0.88782
 C172 C -0.03745 0.25035 0.89511
 C173 C -0.03752 0.20432 0.87323
 C174 C -0.00241 0.38101 0.93138
 C175 C 0.02768 0.25131 0.83634
 C176 C 0.02772 0.29732 0.85831
 C177 C -0.00329 0.34312 0.91116
 C178 C -0.00464 0.20410 0.84371
 H179 H -0.06274 0.24954 0.91785
 H180 H -0.06344 0.16898 0.87934
 H181 H 0.05391 0.25214 0.81403
 H182 H 0.05345 0.33299 0.85249
 C183 C -0.30568 0.00320 0.38393
 C184 C -0.27684 0.05224 0.37662
 C185 C -0.23226 0.05116 0.35395
 C186 C -0.38605 0.00439 0.42959
 C187 C -0.24555 -0.04807 0.34551
 C188 C -0.29016 -0.04687 0.36818
 C189 C -0.34984 0.00393 0.40850
 C190 C -0.21582 0.00090 0.33831
 H191 H -0.28830 0.09117 0.38883
 H192 H -0.20975 0.08938 0.34934
 H193 H -0.23436 -0.08725 0.33357
 H194 H -0.31221 -0.08508 0.37367
 C195 C 0.29530 0.00795 0.38904
 C196 C 0.29573 -0.02446 0.35932
 C197 C 0.24936 -0.02421 0.33716
 C198 C 0.38080 0.00591 0.43258
 C199 C 0.20216 0.04130 0.37429
 C200 C 0.24855 0.04102 0.39637
 C201 C 0.34222 0.00667 0.41244
 C202 C 0.20188 0.00841 0.34453
 H203 H 0.33165 -0.05035 0.35346
 H204 H 0.25015 -0.05046 0.31467
 H205 H 0.16660 0.06745 0.38043
 H206 H 0.24784 0.06638 0.41927
   
