data_POSCAR
  _audit_creation_date              2014-09-24
  _audit_creation_method            'ToBaCCo'
  _symmetry_space_group_name_H-M    'P1'
  _symmetry_Int_Tables_number       1
  _symmetry_cell_setting            triclinic
  loop_
  _symmetry_equiv_pos_as_xyz
 x,y,z
_cell_length_a 35.8792
_cell_length_b 35.8982
_cell_length_c 35.8800
_cell_angle_alpha 76.914000
_cell_angle_beta 102.707200
_cell_angle_gamma 76.868100
loop_
  _atom_site_label
  _atom_site_type_symbol
  _atom_site_fract_x
  _atom_site_fract_y
  _atom_site_fract_z
O1 O 0.54350 0.50326 0.02298
 O2 O 0.43789 0.51489 0.01873
 O3 O 0.49776 0.45606 0.02297
 O4 O 0.48335 0.56221 0.01791
 O5 O 0.46716 0.57832 -0.04802
 O6 O 0.48164 0.47228 -0.04296
 O7 O 0.42161 0.53101 -0.04719
 O8 O 0.52744 0.51946 -0.04295
 Cu9 Cu 0.49226 0.50747 0.02729
 Cu10 Cu 0.47286 0.52686 -0.05193
 C11 C 0.55328 0.50970 -0.00925
 C12 C 0.41194 0.52468 -0.01486
 C13 C 0.49183 0.44631 -0.00921
 C14 C 0.47306 0.58814 -0.01590
 O15 O -0.02183 0.54422 0.50255
 O16 O -0.01749 0.43843 0.51454
 O17 O -0.01745 0.48438 0.56141
 O18 O -0.02266 0.49839 0.45541
 O19 O 0.04328 0.48187 0.47100
 O20 O 0.04849 0.46794 0.57725
 O21 O 0.04845 0.42199 0.53029
 O22 O 0.04409 0.52769 0.51822
 Cu23 Cu -0.02650 0.49302 0.50688
 Cu24 Cu 0.05273 0.47324 0.52574
 C25 C 0.01046 0.55376 0.50868
 C26 C 0.01621 0.41239 0.52423
 C27 C 0.01631 0.47405 0.58718
 C28 C 0.00942 0.49219 0.44532
 O29 O 0.50281 0.03126 0.54021
 O30 O 0.49137 0.03577 0.43464
 O31 O 0.44400 0.03591 0.48042
 O32 O 0.55014 0.03057 0.49439
 O33 O 0.56607 -0.03544 0.51075
 O34 O 0.46010 -0.03009 0.49672
 O35 O 0.50742 -0.03023 0.45090
 O36 O 0.51879 -0.03473 0.55661
 Cu37 Cu 0.49545 0.04004 0.48581
 Cu38 Cu 0.51467 -0.03928 0.50541
 C39 C 0.51256 -0.00243 0.56622
 C40 C 0.49780 0.00352 0.42499
 C41 C 0.43419 0.00374 0.48638
 C42 C 0.57596 -0.00333 0.50460
 C43 C 0.49213 -0.00085 0.00300
 C44 C 0.49716 0.02785 -0.02594
 C45 C 0.50161 0.02121 -0.06435
 C46 C 0.49808 0.06763 -0.02095
 C47 C 0.49144 0.00421 0.04285
 C48 C 0.48725 -0.03912 -0.00339
 C49 C 0.53151 -0.01137 -0.06514
 C50 C 0.53552 -0.01685 -0.10161
 C51 C 0.50993 0.01035 -0.13757
 C52 C 0.48040 0.04305 -0.13692
 C53 C 0.47634 0.04853 -0.10055
 C54 C 0.53024 0.08212 -0.02664
 C55 C 0.53107 0.11987 -0.02298
 C56 C 0.49963 0.14364 -0.01386
 C57 C 0.46734 0.12950 -0.00837
 C58 C 0.46646 0.09173 -0.01205
 C59 C 0.45944 -0.00145 0.05776
 C60 C 0.45922 0.00125 0.09594
 C61 C 0.49109 0.00939 0.11975
 C62 C 0.52310 0.01514 0.10510
 C63 C 0.52336 0.01243 0.06686
 C64 C 0.45670 -0.03964 -0.03526
 C65 C 0.45179 -0.07603 -0.03998
 C66 C 0.47716 -0.11212 -0.01272
 C67 C 0.50748 -0.11172 0.01913
 C68 C 0.51243 -0.07544 0.02386
 H69 H 0.55180 -0.03235 -0.03757
 H70 H 0.55862 -0.04214 -0.10177
 H71 H 0.46052 0.06433 -0.16456
 H72 H 0.45328 0.07396 -0.10059
 H73 H 0.55475 0.06410 -0.03379
 H74 H 0.55610 0.13061 -0.02748
 H75 H 0.44101 0.08144 -0.00835
 H76 H 0.43469 -0.00808 0.03982
 H77 H 0.43440 -0.00344 0.10705
 H78 H 0.54805 0.02118 0.12340
 H79 H 0.54870 0.01609 0.05625
 H80 H 0.43649 -0.01193 -0.05614
 H81 H 0.42810 -0.07602 -0.06462
 H82 H 0.52720 -0.13946 0.04044
 H83 H 0.53597 -0.07565 0.04875
 H84 H 0.44272 0.14778 -0.00159
 C85 C -0.02169 0.49800 0.99221
 C86 C 0.00671 0.50395 1.02051
 C87 C 0.04486 0.50895 1.01346
 C88 C 0.00169 0.50497 1.06032
 C89 C -0.06176 0.49766 0.99701
 C90 C -0.01432 0.49199 0.95452
 C91 C 0.08137 0.48432 1.04070
 C92 C 0.11745 0.48892 1.03475
 C93 C 0.11748 0.51836 1.00166
 C94 C 0.08120 0.54331 0.97455
 C95 C 0.04503 0.53876 0.98049
 C96 C -0.00668 0.47320 1.08472
 C97 C -0.00885 0.47342 1.12313
 C98 C -0.00242 0.50524 1.13759
 C99 C 0.00575 0.53702 1.11336
 C100 C 0.00791 0.53685 1.07499
 C101 C -0.08598 0.52982 1.00505
 C102 C -0.12455 0.53014 1.00710
 C103 C -0.13937 0.49846 1.00088
 C104 C -0.11533 0.46630 0.99301
 C105 C -0.07681 0.46595 0.99097
 C106 C -0.04098 0.51648 0.91767
 C107 C -0.03462 0.51102 0.88200
 C108 C -0.00171 0.48085 0.88276
 C109 C 0.02478 0.45599 0.91940
 C110 C 0.01842 0.46140 0.95514
 H111 H 0.08189 0.46133 1.06641
 H112 H 0.14533 0.46952 1.05597
 H113 H 0.08086 0.56633 0.94895
 H114 H 0.01720 0.55857 0.95955
 H115 H -0.01072 0.44792 1.07434
 H116 H -0.01488 0.44852 1.14175
 H117 H 0.01469 0.56146 1.05678
 H118 H -0.07532 0.55499 1.00895
 H119 H -0.14300 0.55532 1.01292
 H120 H -0.12653 0.44173 0.98798
 H121 H -0.05876 0.44101 0.98445
 H122 H -0.06651 0.54004 0.91657
 H123 H -0.05535 0.53034 0.85382
 H124 H 0.05023 0.43242 0.92032
 H125 H 0.03889 0.44171 0.98327
 H126 H 0.01097 0.56169 1.12431
 C127 C 0.02616 -0.02916 0.50343
 C128 C -0.00257 -0.00035 0.50863
 C129 C -0.04213 -0.00556 0.51022
 C130 C 0.00364 0.03832 0.51252
 C131 C 0.06415 -0.02231 0.49795
 C132 C 0.02130 -0.06914 0.50310
 C133 C -0.06652 -0.01413 0.47880
 C134 C -0.10453 -0.01694 0.47985
 C135 C -0.11858 -0.01095 0.51213
 C136 C -0.09439 -0.00248 0.54350
 C137 C -0.05642 0.00032 0.54250
 C138 C -0.02412 0.07433 0.48724
 C139 C -0.01956 0.11095 0.49126
 C140 C 0.01264 0.11206 0.52076
 C141 C 0.04042 0.07629 0.54620
 C142 C 0.03587 0.03955 0.54222
 C143 C 0.10070 -0.04907 0.52308
 C144 C 0.13670 -0.04321 0.51822
 C145 C 0.13658 -0.01071 0.48802
 C146 C 0.10026 0.01586 0.46251
 C147 C 0.06417 0.01001 0.46732
 C148 C 0.01289 -0.09313 0.53514
 C149 C 0.00944 -0.13110 0.53481
 C150 C 0.01467 -0.14559 0.50262
 C151 C 0.02327 -0.12193 0.47075
 C152 C 0.02670 -0.08399 0.47104
 H153 H -0.05637 -0.01795 0.45326
 H154 H -0.12315 -0.02321 0.45528
 H155 H -0.10506 0.00241 0.56850
 H156 H -0.03818 0.00725 0.56684
 H157 H -0.04929 0.07402 0.46434
 H158 H -0.04129 0.13842 0.47149
 H159 H 0.05718 0.01211 0.56251
 H160 H 0.10130 -0.07428 0.54669
 H161 H 0.16464 -0.06400 0.53805
 H162 H 0.09985 0.04099 0.43891
 H163 H 0.03629 0.03053 0.44714
 H164 H 0.00942 -0.08260 0.56054
 H165 H 0.00305 -0.14927 0.55976
 H166 H 0.02755 -0.13289 0.44578
 H167 H 0.03347 -0.06609 0.44619
 H168 H 0.06534 0.07680 0.56927
 C169 C -0.33062 0.50333 0.99626
 N170 N -0.30700 0.47378 0.98680
 N171 N -0.26925 0.47265 0.98847
 C172 C -0.25397 0.50101 0.99968
 N173 N -0.27759 0.53054 1.00916
 N174 N -0.31532 0.53167 1.00749
 C175 C -0.37140 0.50485 0.99416
 C176 C -0.40574 0.50669 0.99248
 C177 C -0.21352 0.50016 1.00078
 C178 C -0.17966 0.49945 1.00119
 C179 C 0.29912 0.53024 0.98408
 N180 N 0.27896 0.51048 0.96288
 N181 N 0.24249 0.50963 0.96488
 C182 C 0.22507 0.52850 0.98815
 N183 N 0.24519 0.54833 1.00928
 N184 N 0.28166 0.54919 1.00728
 C185 C 0.33922 0.52934 0.98358
 C186 C 0.37326 0.52764 0.98394
 C187 C 0.18667 0.52586 0.99191
 C188 C 0.15487 0.52285 0.99590
 C189 C 0.00787 -0.33306 0.50283
 N190 N -0.00733 -0.31563 0.52822
 N191 N -0.00678 -0.27856 0.52789
 C192 C 0.00903 -0.25779 0.50218
 N193 N 0.02420 -0.27520 0.47677
 N194 N 0.02365 -0.31228 0.47710
 C195 C 0.00832 -0.37342 0.50405
 C196 C 0.00912 -0.40756 0.50579
 C197 C 0.01045 -0.21818 0.50239
 C198 C 0.01211 -0.18504 0.50257
 C199 C 0.02017 0.29669 0.53067
 N200 N 0.04611 0.27529 0.51550
 N201 N 0.04608 0.23826 0.51512
 C202 C 0.02013 0.22149 0.52992
 N203 N -0.00577 0.24287 0.54516
 N204 N -0.00574 0.27990 0.54554
 C205 C 0.01906 0.33719 0.52945
 C206 C 0.01784 0.37143 0.52755
 C207 C 0.01869 0.18240 0.52769
 C208 C 0.01652 0.15004 0.52498
 C209 C 0.51904 -0.00442 -0.32065
 N210 N 0.53793 0.01879 -0.30346
 N211 N 0.53764 0.02023 -0.26672
 C212 C 0.51845 -0.00151 -0.24606
 N213 N 0.49962 -0.02479 -0.26321
 N214 N 0.49991 -0.02622 -0.29995
 C215 C 0.51768 -0.00444 -0.36092
 C216 C 0.51569 -0.00380 -0.39506
 C217 C 0.51640 0.00163 -0.20734
 C218 C 0.51388 0.00512 -0.17527
 C219 C 0.49223 0.00845 0.30927
 N220 N 0.51459 0.02788 0.29096
 N221 N 0.51415 0.02886 0.25351
 C222 C 0.49134 0.01043 0.23324
 N223 N 0.46895 -0.00898 0.25154
 N224 N 0.46939 -0.00996 0.28899
 C225 C 0.49338 0.00675 0.34986
 C226 C 0.49497 0.00526 0.38410
 C227 C 0.49138 0.01079 0.19318
 C228 C 0.49136 0.01052 0.15964
 C229 C 0.46503 -0.29586 -0.02059
 N230 N 0.45232 -0.27980 0.00678
 N231 N 0.45281 -0.24279 0.00676
 C232 C 0.46599 -0.22073 -0.02064
 N233 N 0.47861 -0.23675 -0.04807
 N234 N 0.47813 -0.27376 -0.04805
 C235 C 0.46660 -0.33642 -0.01926
 C236 C 0.46897 -0.37077 -0.01781
 C237 C 0.46874 -0.18185 -0.01911
 C238 C 0.47206 -0.14973 -0.01681
 C239 C 0.49991 0.33059 -0.00613
 N240 N 0.52180 0.31194 -0.02656
 N241 N 0.52231 0.27487 -0.02722
 C242 C 0.50091 0.25535 -0.00751
 N243 N 0.47906 0.27397 0.01297
 N244 N 0.47856 0.31105 0.01363
 C245 C 0.49813 0.37103 -0.00662
 C246 C 0.49579 0.40527 -0.00754
 C247 C 0.50061 0.21586 -0.00916
 C248 C 0.50018 0.18286 -0.01103
 C249 C -0.30788 -0.00930 0.51209
 N250 N -0.28732 -0.03424 0.49542
 N251 N -0.24982 -0.03544 0.49593
 C252 C -0.23176 -0.01171 0.51313
 N253 N -0.25229 0.01319 0.52984
 N254 N -0.28980 0.01440 0.52932
 C255 C -0.34860 -0.00723 0.51045
 C256 C -0.38298 -0.00541 0.50828
 C257 C -0.19175 -0.01224 0.51287
 C258 C -0.15830 -0.01205 0.51252
 C259 C 0.31860 0.00607 0.47779
 N260 N 0.30232 -0.01846 0.46018
 N261 N 0.26565 -0.02017 0.46040
 C262 C 0.24416 0.00262 0.47821
 N263 N 0.26039 0.02722 0.49573
 N264 N 0.29707 0.02893 0.49552
 C265 C 0.35890 0.00617 0.47961
 C266 C 0.39312 0.00546 0.48216
 C267 C 0.20569 -0.00100 0.48052
 C268 C 0.17389 -0.00495 0.48343
 C269 C 0.00276 0.50074 1.32873
 N270 N 0.02430 0.52049 1.30946
 N271 N 0.02248 0.52181 1.27166
 C272 C -0.00093 0.50343 1.25199
 N273 N -0.02248 0.48371 1.27125
 N274 N -0.02066 0.48239 1.30904
 C275 C 0.00528 0.49856 1.36967
 C276 C 0.00730 0.49607 1.40417
 C277 C -0.00220 0.50418 1.21157
 C278 C -0.00269 0.50467 1.17776
 C279 C 0.01778 0.46693 0.70240
 N280 N 0.04028 0.48512 0.72338
 N281 N 0.03802 0.48610 0.75974
 C282 C 0.01320 0.46892 0.77622
 N283 N -0.00922 0.45064 0.75528
 N284 N -0.00697 0.44966 0.71892
 C285 C 0.01833 0.46808 0.66231
 C286 C 0.01789 0.47018 0.62820
 C287 C 0.00899 0.47204 0.81432
 C288 C 0.00457 0.47559 0.84581
   
