data_POSCAR
  _audit_creation_date              2014-09-24
  _audit_creation_method            'ToBaCCo'
  _symmetry_space_group_name_H-M    'P1'
  _symmetry_Int_Tables_number       1
  _symmetry_cell_setting            triclinic
  loop_
  _symmetry_equiv_pos_as_xyz
 x,y,z
_cell_length_a 44.5169
_cell_length_b 26.5190
_cell_length_c 15.8098
_cell_angle_alpha 89.941100
_cell_angle_beta 90.159400
_cell_angle_gamma 90.049300
loop_
  _atom_site_label
  _atom_site_type_symbol
  _atom_site_fract_x
  _atom_site_fract_y
  _atom_site_fract_z
C1 C 0.74948 0.25198 0.46842
 C2 C 0.74915 0.25159 0.55441
 C3 C 0.72454 0.27554 0.60310
 C4 C 0.77337 0.22669 0.60340
 C5 C 0.77543 0.23228 0.42054
 C6 C 0.72397 0.27216 0.41900
 C7 C 0.71743 0.32644 0.59134
 C8 C 0.69376 0.34842 0.63566
 C9 C 0.67655 0.32037 0.69465
 C10 C 0.68476 0.26922 0.70741
 C11 C 0.70836 0.24738 0.66232
 C12 C 0.79095 0.25477 0.65996
 C13 C 0.81448 0.23181 0.70422
 C14 C 0.82058 0.18017 0.69325
 C15 C 0.80240 0.15202 0.63772
 C16 C 0.77897 0.17503 0.59346
 C17 C 0.77265 0.18755 0.37399
 C18 C 0.79762 0.16709 0.33310
 C19 C 0.82550 0.19183 0.33649
 C20 C 0.82802 0.23733 0.38134
 C21 C 0.80321 0.25720 0.42371
 C22 C 0.69615 0.24731 0.41940
 C23 C 0.67155 0.26824 0.37705
 C24 C 0.67437 0.31472 0.33526
 C25 C 0.70232 0.33921 0.33408
 C26 C 0.72710 0.31765 0.37465
 H27 H 0.73040 0.34941 0.54812
 H28 H 0.68996 0.38819 0.62533
 H29 H 0.67235 0.24446 0.74880
 H30 H 0.71357 0.20792 0.67233
 H31 H 0.78686 0.29471 0.66836
 H32 H 0.82827 0.25480 0.74542
 H33 H 0.76521 0.15259 0.55124
 H34 H 0.75133 0.16790 0.37117
 H35 H 0.79513 0.13220 0.29828
 H36 H 0.84936 0.25686 0.38512
 H37 H 0.80565 0.29178 0.45948
 H38 H 0.69347 0.21213 0.45345
 H39 H 0.65011 0.24897 0.37906
 H40 H 0.70492 0.37500 0.30184
 H41 H 0.74846 0.33724 0.37403
 H42 H 0.80620 0.11206 0.62873
 C43 C 0.24910 0.74544 0.46812
 C44 C 0.24678 0.74133 0.55391
 C45 C 0.22077 0.76307 0.59949
 C46 C 0.26926 0.71405 0.60585
 C47 C 0.27612 0.72845 0.42036
 C48 C 0.22383 0.76662 0.41808
 C49 C 0.21491 0.81497 0.59574
 C50 C 0.18906 0.83472 0.63292
 C51 C 0.16859 0.80288 0.67472
 C52 C 0.17527 0.75116 0.68131
 C53 C 0.20118 0.73148 0.64422
 C54 C 0.28474 0.73945 0.67034
 C55 C 0.30701 0.71478 0.71711
 C56 C 0.31376 0.66376 0.70157
 C57 C 0.29713 0.63795 0.63912
 C58 C 0.27525 0.66292 0.59143
 C59 C 0.27260 0.70133 0.34455
 C60 C 0.29768 0.68473 0.29942
 C61 C 0.32674 0.69438 0.32983
 C62 C 0.33037 0.72239 0.40442
 C63 C 0.30533 0.74012 0.44834
 C64 C 0.19623 0.74114 0.41420
 C65 C 0.17186 0.76254 0.37147
 C66 C 0.17466 0.80995 0.33261
 C67 C 0.20247 0.83501 0.33543
 C68 C 0.22699 0.81321 0.37710
 H69 H 0.23015 0.84003 0.56282
 H70 H 0.18510 0.87490 0.62862
 H71 H 0.15998 0.72559 0.71287
 H72 H 0.20545 0.69133 0.64792
 H73 H 0.28027 0.77893 0.68246
 H74 H 0.31952 0.73633 0.76336
 H75 H 0.26310 0.64250 0.54287
 H76 H 0.25040 0.69224 0.32089
 H77 H 0.29439 0.66306 0.24210
 H78 H 0.35263 0.73094 0.42823
 H79 H 0.30883 0.76287 0.50428
 H80 H 0.19349 0.70507 0.44547
 H81 H 0.15058 0.74279 0.37110
 H82 H 0.20519 0.87147 0.30548
 H83 H 0.24818 0.83328 0.37956
 H84 H 0.30126 0.59847 0.62639
 C85 C 0.24848 0.24705 -0.45303
 C86 C 0.25125 0.24393 -0.53891
 C87 C 0.27679 0.26812 -0.58383
 C88 C 0.22822 0.21856 -0.59193
 C89 C 0.22086 0.23070 -0.40694
 C90 C 0.27379 0.26617 -0.40120
 C91 C 0.28285 0.31958 -0.57317
 C92 C 0.30672 0.34236 -0.61566
 C93 C 0.32500 0.31452 -0.67168
 C94 C 0.31837 0.26272 -0.68258
 C95 C 0.29455 0.24002 -0.63939
 C96 C 0.21396 0.24534 -0.65693
 C97 C 0.18873 0.22527 -0.69733
 C98 C 0.17700 0.17782 -0.67334
 C99 C 0.19334 0.14935 -0.61315
 C100 C 0.21871 0.16940 -0.57344
 C101 C 0.22340 0.20284 -0.33171
 C102 C 0.19780 0.18584 -0.28931
 C103 C 0.16884 0.19496 -0.32245
 C104 C 0.16644 0.22365 -0.39729
 C105 C 0.19200 0.24279 -0.43700
 C106 C 0.30095 0.23945 -0.39772
 C107 C 0.32525 0.25858 -0.35182
 C108 C 0.32283 0.30508 -0.31013
 C109 C 0.29550 0.33145 -0.31281
 C110 C 0.27097 0.31171 -0.35706
 H111 H 0.26880 0.34240 -0.53261
 H112 H 0.30996 0.38240 -0.60659
 H113 H 0.33197 0.23870 -0.72212
 H114 H 0.29019 0.20019 -0.64849
 H115 H 0.22119 0.28320 -0.67278
 H116 H 0.17733 0.24890 -0.74300
 H117 H 0.23013 0.14747 -0.52529
 H118 H 0.24530 0.19328 -0.30640
 H119 H 0.20099 0.16324 -0.23299
 H120 H 0.14469 0.23312 -0.42370
 H121 H 0.18916 0.26657 -0.49209
 H122 H 0.30334 0.20409 -0.43125
 H123 H 0.34620 0.23785 -0.35088
 H124 H 0.29318 0.36726 -0.28062
 H125 H 0.25009 0.33262 -0.35912
 H126 H 0.18676 0.11149 -0.59586
 C127 C -0.25321 0.75313 -0.45516
 C128 C -0.25362 0.75640 -0.54115
 C129 C -0.22717 0.77619 -0.58683
 C130 C -0.28010 0.73988 -0.59195
 C131 C -0.27807 0.72911 -0.40779
 C132 C -0.22788 0.77396 -0.40542
 C133 C -0.22346 0.82819 -0.59734
 C134 C -0.19709 0.84734 -0.63266
 C135 C -0.17414 0.81467 -0.66077
 C136 C -0.17887 0.76219 -0.65340
 C137 C -0.20476 0.74331 -0.61502
 C138 C -0.30915 0.75623 -0.57111
 C139 C -0.33432 0.73504 -0.61019
 C140 C -0.33111 0.69846 -0.67424
 C141 C -0.30173 0.68591 -0.70033
 C142 C -0.27663 0.70592 -0.65910
 C143 C -0.28598 0.67883 -0.42321
 C144 C -0.31222 0.65858 -0.38874
 C145 C -0.33143 0.68828 -0.33794
 C146 C -0.32211 0.73812 -0.31931
 C147 C -0.29572 0.75802 -0.35329
 C148 C -0.20510 0.74214 -0.37556
 C149 C -0.18046 0.76220 -0.33194
 C150 C -0.17827 0.81445 -0.31753
 C151 C -0.20151 0.84599 -0.34644
 C152 C -0.22613 0.82588 -0.38981
 H153 H -0.24071 0.85401 -0.57620
 H154 H -0.19523 0.88780 -0.63965
 H155 H -0.16182 0.73552 -0.67269
 H156 H -0.20705 0.70302 -0.60578
 H157 H -0.31241 0.78439 -0.52249
 H158 H -0.35622 0.74829 -0.59079
 H159 H -0.25460 0.69301 -0.67766
 H160 H -0.27225 0.65570 -0.46423
 H161 H -0.31697 0.61947 -0.40222
 H162 H -0.33589 0.76325 -0.28228
 H163 H -0.29004 0.79706 -0.34102
 H164 H -0.20617 0.70196 -0.38741
 H165 H -0.16280 0.73698 -0.31123
 H166 H -0.20082 0.88616 -0.33487
 H167 H -0.24374 0.85083 -0.41189
 H168 H -0.29790 0.65803 -0.74905
 N169 N -0.03318 0.91063 -0.08104
 N170 N -0.05638 0.88011 -0.09078
 N171 N 0.03001 0.94523 -0.14059
 N172 N 0.05112 0.93652 -0.19706
 N173 N 0.03001 0.91003 -0.08205
 N174 N 0.05117 0.87639 -0.09728
 N175 N -0.03318 0.94573 -0.13975
 N176 N -0.05646 0.94009 -0.19081
 C177 C -0.07069 0.89895 -0.15960
 C178 C 0.06428 0.89367 -0.16898
 N179 N 0.03100 1.08848 -0.08169
 N180 N 0.05333 1.12041 -0.09328
 N181 N -0.03248 1.05432 -0.14065
 N182 N -0.05628 1.05869 -0.18987
 N183 N -0.03244 1.08934 -0.08199
 N184 N -0.05643 1.11833 -0.08949
 N185 N 0.03049 1.05430 -0.14173
 N186 N 0.05216 1.06277 -0.19701
 Mn187 Mn -0.00126 0.99987 -0.14167
 C188 C 0.06631 1.10392 -0.16530
 C189 C -0.07092 1.09893 -0.15760
 N190 N 0.03040 0.91024 0.10093
 N191 N 0.05343 0.87948 0.11157
 N192 N -0.03260 0.94645 0.15889
 N193 N -0.05455 0.94004 0.21351
 N194 N -0.03281 0.91064 0.10169
 N195 N -0.05489 0.87846 0.11647
 N196 N 0.03061 0.94579 0.15870
 N197 N 0.05394 0.94055 0.20960
 Mn198 Mn -0.00138 0.90971 0.00985
 C199 C 0.06789 0.89895 0.17968
 C200 C -0.06835 0.89764 0.18628
 N201 N -0.03197 1.08999 0.10017
 N202 N -0.05431 1.12197 0.11136
 N203 N 0.03076 1.05387 0.15877
 N204 N 0.05314 1.06013 0.21248
 N205 N 0.03121 1.08882 0.10002
 N206 N 0.05403 1.11988 0.11206
 N207 N -0.03246 1.05454 0.15812
 N208 N -0.05538 1.06105 0.20982
 Mn209 Mn -0.00053 1.08979 0.00901
 Mn210 Mn -0.00094 1.00014 0.15949
 Cl211 Cl -0.00101 0.99985 0.00911
 C212 C -0.06874 1.10335 0.17988
 C213 C 0.06752 1.10134 0.18250
 N214 N 0.53043 0.44230 -0.14513
 N215 N 0.55449 0.43845 -0.19318
 N216 N 0.46794 0.40642 -0.08377
 N217 N 0.44520 0.37476 -0.09146
 N218 N 0.46711 0.44067 -0.14369
 N219 N 0.44365 0.43351 -0.19346
 N220 N 0.53111 0.40858 -0.08424
 N221 N 0.55558 0.38068 -0.08966
 C222 C 0.56984 0.39956 -0.15837
 C223 C 0.43028 0.39215 -0.16023
 N224 N 0.46755 0.44729 0.15390
 N225 N 0.44381 0.44307 0.20332
 N226 N 0.53115 0.41238 0.09824
 N227 N 0.55416 0.38200 0.11128
 N228 N 0.53089 0.44881 0.15440
 N229 N 0.55393 0.44454 0.20665
 N230 N 0.46802 0.41074 0.09794
 N231 N 0.44464 0.38070 0.10778
 Mn232 Mn 0.49961 0.40889 0.00707
 C233 C 0.42983 0.40115 0.17409
 C234 C 0.56818 0.40262 0.17904
 N235 N 0.46628 0.54917 -0.15077
 N236 N 0.44120 0.55002 -0.19542
 N237 N 0.52970 0.58669 -0.09693
 N238 N 0.55041 0.62052 -0.11584
 N239 N 0.52943 0.55040 -0.15331
 N240 N 0.55002 0.55836 -0.21175
 N241 N 0.46636 0.58553 -0.09441
 N242 N 0.44119 0.61176 -0.09881
 Mn243 Mn 0.49828 0.49556 -0.14920
 C244 C 0.42589 0.58954 -0.16283
 C245 C 0.56307 0.60209 -0.18730
 N246 N 0.52989 0.55712 0.14847
 N247 N 0.55142 0.56602 0.20384
 N248 N 0.46704 0.58973 0.08652
 N249 N 0.44426 0.62112 0.09531
 N250 N 0.46714 0.55608 0.14746
 N251 N 0.44478 0.56415 0.20025
 N252 N 0.53062 0.59018 0.08653
 N253 N 0.55315 0.62211 0.09755
 Mn254 Mn 0.49882 0.50227 0.15200
 Mn255 Mn 0.49856 0.58871 -0.00464
 Cl256 Cl 0.49887 0.49892 0.00131
 C257 C 0.56578 0.60642 0.17122
 C258 C 0.43063 0.60466 0.16657
 C259 C 0.36108 0.38459 0.31138
 C260 C 0.34891 0.33830 0.28405
 C261 C 0.36152 0.31762 0.20931
 C262 C 0.38716 0.33910 0.17156
 C263 C 0.40110 0.38175 0.20719
 C264 C 0.38647 0.40546 0.27427
 C265 C 0.39868 0.42363 0.35666
 C266 C 0.37103 0.40084 0.39776
 H267 H 0.35204 0.28462 0.17937
 H268 H 0.39671 0.32100 0.11647
 H269 H 0.39925 0.46545 0.36019
 H270 H 0.41992 0.40442 0.37499
 H271 H 0.35593 0.42980 0.42541
 H272 H 0.37619 0.36844 0.44008
 C273 C -0.12883 0.80518 0.25164
 C274 C -0.14675 0.83369 0.30702
 C275 C -0.13540 0.88150 0.33126
 C276 C -0.10922 0.90125 0.29435
 C277 C -0.09400 0.87462 0.23054
 C278 C -0.10341 0.82541 0.21359
 C279 C -0.10969 0.80017 0.13123
 C280 C -0.13750 0.77790 0.17243
 H281 H -0.14649 0.90398 0.37891
 H282 H -0.10166 0.93835 0.31341
 H283 H -0.09244 0.77141 0.11554
 H284 H -0.11490 0.82739 0.07968
 H285 H -0.13625 0.73628 0.18006
 H286 H -0.15887 0.79208 0.14467
 C287 C 0.64508 0.65093 0.21010
 C288 C 0.64361 0.67374 0.29020
 C289 C 0.61612 0.66841 0.33467
 C290 C 0.59091 0.64568 0.29636
 C291 C 0.59209 0.62944 0.21186
 C292 C 0.61991 0.62989 0.17179
 C293 C 0.62821 0.64958 0.08698
 C294 C 0.65585 0.67243 0.12816
 H295 H 0.61389 0.68110 0.39935
 H296 H 0.57017 0.64259 0.33169
 H297 H 0.61201 0.67838 0.06390
 H298 H 0.63358 0.61864 0.04214
 H299 H 0.65587 0.71437 0.12769
 H300 H 0.67711 0.65467 0.10667
 C301 C 0.13624 1.18192 0.22076
 C302 C 0.14898 1.16083 0.29437
 C303 C 0.13137 1.12422 0.33720
 C304 C 0.10438 1.10610 0.30222
 C305 C 0.09401 1.12391 0.22357
 C306 C 0.10958 1.16380 0.18629
 C307 C 0.12061 1.16899 0.09782
 C308 C 0.14977 1.18885 0.13493
 H309 H 0.13802 1.10919 0.39798
 H310 H 0.09217 1.07696 0.33568
 H311 H 0.10786 1.19788 0.06158
 H312 H 0.12314 1.13194 0.06576
 H313 H 0.15378 1.22920 0.11956
 H314 H 0.16927 1.16353 0.12386
 C315 C 0.64023 0.38809 -0.28993
 C316 C 0.65309 0.34210 -0.26291
 C317 C 0.64014 0.32040 -0.18894
 C318 C 0.61384 0.34029 -0.15246
 C319 C 0.59937 0.38219 -0.18863
 C320 C 0.61413 0.40715 -0.25422
 C321 C 0.60222 0.42579 -0.33661
 C322 C 0.63054 0.40489 -0.37651
 H323 H 0.64988 0.28800 -0.15792
 H324 H 0.60416 0.32136 -0.09825
 H325 H 0.60097 0.46763 -0.33880
 H326 H 0.58147 0.40574 -0.35691
 H327 H 0.64523 0.43500 -0.40263
 H328 H 0.62624 0.37274 -0.42004
 C329 C 0.12628 0.80146 -0.22001
 C330 C 0.13997 0.82306 -0.29106
 C331 C 0.12490 0.86384 -0.33008
 C332 C 0.09957 0.88591 -0.29190
 C333 C 0.08860 0.86750 -0.21421
 C334 C 0.10126 0.82306 -0.18263
 C335 C 0.11181 0.81010 -0.09569
 C336 C 0.13934 0.78662 -0.13657
 H337 H 0.13318 0.87990 -0.38852
 H338 H 0.08947 0.91866 -0.32139
 H339 H 0.09691 0.78187 -0.06513
 H340 H 0.11703 0.84395 -0.05683
 H341 H 0.14036 0.74501 -0.12860
 H342 H 0.16057 0.80701 -0.12195
 C343 C 0.35531 0.59978 -0.29381
 C344 C 0.33910 0.63822 -0.25381
 C345 C 0.34949 0.65384 -0.17331
 C346 C 0.37734 0.63673 -0.14147
 C347 C 0.39524 0.60351 -0.18923
 C348 C 0.38276 0.58323 -0.26276
 C349 C 0.39593 0.57938 -0.34925
 C350 C 0.36577 0.59685 -0.38307
 H351 H 0.33702 0.68113 -0.13670
 H352 H 0.38545 0.65139 -0.08171
 H353 H 0.40138 0.53997 -0.36706
 H354 H 0.41430 0.60706 -0.36012
 H355 H 0.35367 0.56720 -0.41934
 H356 H 0.36645 0.63467 -0.41318
 C357 C -0.13819 1.11592 -0.29987
 C358 C -0.15394 1.15562 -0.26205
 C359 C -0.14423 1.17140 -0.18106
 C360 C -0.11754 1.15213 -0.14529
 C361 C -0.10013 1.11663 -0.18969
 C362 C -0.11195 1.09706 -0.26479
 C363 C -0.09754 1.09117 -0.34944
 C364 C -0.12646 1.11127 -0.38789
 H365 H -0.15656 1.19986 -0.14659
 H366 H -0.11000 1.16644 -0.08471
 H367 H -0.09317 1.05110 -0.36561
 H368 H -0.07805 1.11688 -0.35826
 H369 H -0.13895 1.08242 -0.42487
 H370 H -0.12375 1.14837 -0.41983
 C371 C 0.62473 0.69411 -0.24298
 C372 C 0.64054 0.66956 -0.30809
 C373 C 0.62634 0.62632 -0.34333
 C374 C 0.60024 0.60558 -0.30684
 C375 C 0.58736 0.62744 -0.23449
 C376 C 0.59891 0.67364 -0.20757
 C377 C 0.60729 0.68971 -0.12068
 C378 C 0.63556 0.71210 -0.15841
 H379 H 0.63523 0.60749 -0.39837
 H380 H 0.59107 0.57109 -0.33295
 H381 H 0.61160 0.65668 -0.07949
 H382 H 0.59161 0.71840 -0.09489
 H383 H 0.65644 0.69275 -0.13731
 H384 H 0.63612 0.75391 -0.15388
 C385 C 0.11646 1.16560 -0.32783
 C386 C 0.14280 1.17636 -0.28186
 C387 C 0.14170 1.16821 -0.19328
 C388 C 0.11636 1.14602 -0.15523
 C389 C 0.09204 1.12936 -0.20474
 C390 C 0.09199 1.14193 -0.29048
 C391 C 0.08588 1.11022 -0.36636
 C392 C 0.11258 1.13603 -0.40771
 H393 H 0.16025 1.17902 -0.15277
 H394 H 0.11644 1.13960 -0.08765
 H395 H 0.06408 1.11982 -0.39681
 H396 H 0.08956 1.06936 -0.35433
 H397 H 0.10611 1.16036 -0.46209
 H398 H 0.13171 1.11013 -0.42002
 C399 C 0.35846 0.37596 -0.28265
 C400 C 0.34908 0.32688 -0.26659
 C401 C 0.36690 0.29883 -0.20893
 C402 C 0.39312 0.32027 -0.17193
 C403 C 0.40247 0.36971 -0.19358
 C404 C 0.38394 0.39587 -0.24923
 C405 C 0.38168 0.44295 -0.30003
 C406 C 0.35290 0.42019 -0.33858
 H407 H 0.36073 0.26050 -0.19294
 H408 H 0.40637 0.29776 -0.12855
 H409 H 0.40035 0.44661 -0.34617
 H410 H 0.37753 0.47643 -0.25961
 H411 H 0.35514 0.41055 -0.40667
 H412 H 0.33213 0.44093 -0.32124
 C413 C -0.13895 0.88180 -0.29804
 C414 C -0.15171 0.83602 -0.27358
 C415 C -0.13727 0.81111 -0.20509
 C416 C -0.11111 0.83175 -0.16644
 C417 C -0.09847 0.87758 -0.19578
 C418 C -0.11372 0.90111 -0.26174
 C419 C -0.11215 0.94458 -0.32107
 C420 C -0.14055 0.92260 -0.36291
 H421 H -0.14612 0.77585 -0.18119
 H422 H -0.10065 0.81146 -0.11472
 H423 H -0.09197 0.94312 -0.36223
 H424 H -0.11607 0.98099 -0.28823
 H425 H -0.13665 0.90818 -0.42796
 H426 H -0.16064 0.94701 -0.35534
 C427 C 0.37482 0.64603 0.32903
 C428 C 0.35317 0.67366 0.28577
 C429 C 0.35776 0.67926 0.19749
 C430 C 0.38335 0.65762 0.15755
 C431 C 0.40427 0.62867 0.20474
 C432 C 0.39859 0.62402 0.29056
 C433 C 0.40997 0.60062 0.36993
 C434 C 0.38283 0.62531 0.41345
 H435 H 0.34185 0.70048 0.15975
 H436 H 0.38638 0.66274 0.09016
 H437 H 0.43194 0.61665 0.38999
 H438 H 0.40878 0.55879 0.36825
 H439 H 0.38926 0.65553 0.45862
 H440 H 0.36587 0.59770 0.43596
 C441 C -0.13993 1.11977 0.30463
 C442 C -0.14802 1.17007 0.29407
 C443 C -0.12901 1.19928 0.24146
 C444 C -0.10333 1.17754 0.20266
 C445 C -0.09563 1.12643 0.21728
 C446 C -0.11492 1.09938 0.26944
 C447 C -0.11991 1.04912 0.30896
 C448 C -0.14813 1.07234 0.34949
 H449 H -0.13406 1.23862 0.22990
 H450 H -0.08934 1.20090 0.16266
 H451 H -0.10208 1.03935 0.35554
 H452 H -0.12503 1.01962 0.26115
 H453 H -0.14648 1.07626 0.41929
 H454 H -0.16948 1.05583 0.32561
 C455 C 0.63013 0.31263 0.23721
 C456 C 0.64799 0.33834 0.29515
 C457 C 0.63907 0.38828 0.31451
 C458 C 0.61295 0.40965 0.27703
 C459 C 0.59552 0.38188 0.21811
 C460 C 0.60557 0.33346 0.19993
 C461 C 0.59869 0.28736 0.14979
 C462 C 0.62665 0.26382 0.19181
 H463 H 0.65187 0.41035 0.35956
 H464 H 0.60654 0.44768 0.29403
 H465 H 0.60124 0.29373 0.08067
 H466 H 0.57724 0.26939 0.16946
 H467 H 0.64537 0.25678 0.14698
 H468 H 0.62130 0.23217 0.23538
 C469 C 0.12941 0.80769 0.23721
 C470 C 0.14839 0.83394 0.29181
 C471 C 0.14048 0.88480 0.30794
 C472 C 0.11425 0.90638 0.27142
 C473 C 0.09558 0.87793 0.21655
 C474 C 0.10470 0.82871 0.20083
 C475 C 0.09584 0.78132 0.15709
 C476 C 0.12398 0.75754 0.19762
 H477 H 0.15405 0.90746 0.35030
 H478 H 0.10863 0.94509 0.28629
 H479 H 0.09721 0.78483 0.08728
 H480 H 0.07441 0.76567 0.18178
 H481 H 0.14167 0.74752 0.15111
 H482 H 0.11863 0.72787 0.24494
   
