data_POSCAR
  _audit_creation_date              2014-09-24
  _audit_creation_method            'ToBaCCo'
  _symmetry_space_group_name_H-M    'P1'
  _symmetry_Int_Tables_number       1
  _symmetry_cell_setting            triclinic
  loop_
  _symmetry_equiv_pos_as_xyz
 x,y,z
_cell_length_a 24.9143
_cell_length_b 24.7122
_cell_length_c 25.5297
_cell_angle_alpha 89.951400
_cell_angle_beta 89.821500
_cell_angle_gamma 90.789100
loop_
  _atom_site_label
  _atom_site_type_symbol
  _atom_site_fract_x
  _atom_site_fract_y
  _atom_site_fract_z
N1 N 0.20556 1.20623 0.20571
 N2 N 0.79251 0.79102 0.20934
 N3 N 0.79978 1.20149 -0.19953
 N4 N 0.20762 0.79602 -0.21721
 C5 C 0.58209 1.07119 -0.00865
 H6 H 0.57764 1.07587 0.03325
 C7 C 0.62148 1.10107 -0.03531
 H8 H 0.64503 1.13026 -0.01342
 C9 C 0.55619 1.02713 -0.08701
 H10 H 0.53162 0.99715 -0.10672
 C11 C 0.59649 1.05461 -0.11489
 H12 H 0.60209 1.04471 -0.15576
 N13 N 0.54953 1.03605 -0.03487
 C14 C 0.41429 1.00892 0.07159
 H15 H 0.41071 0.96551 0.06697
 C16 C 0.37608 1.03660 0.10083
 H17 H 0.34291 1.01374 0.11756
 C18 C 0.45982 1.09097 0.05120
 H19 H 0.49128 1.11245 0.03045
 C20 C 0.42344 1.12013 0.08146
 H21 H 0.42922 1.16344 0.08486
 Zn22 Zn 0.49966 0.99358 0.00406
 N23 N 0.45487 1.03626 0.04712
 C24 C 0.54439 0.95229 0.09792
 N25 N 0.54094 0.94637 0.04508
 C26 C 0.57222 0.91074 0.01894
 C27 C 0.60947 0.87977 0.04586
 C28 C 0.58190 0.92273 0.12637
 C29 C 0.42397 0.98426 -0.07548
 C30 C 0.38581 0.95909 -0.10744
 C31 C 0.40840 0.87332 -0.06837
 C32 C 0.44642 0.90015 -0.03733
 N33 N 0.45341 0.95467 -0.04140
 H34 H 0.52000 0.98187 0.11767
 H35 H 0.56920 0.90753 -0.02321
 H36 H 0.63388 0.85171 0.02405
 H37 H 0.58591 0.93012 0.16796
 H38 H 0.42982 1.02768 -0.07732
 H39 H 0.36311 0.98346 -0.13453
 H40 H 0.40230 0.83017 -0.06339
 H41 H 0.46897 0.87758 -0.00881
 C42 C 0.38007 1.09320 0.10617
 C43 C 0.62989 1.09262 -0.08926
 C44 C 0.37712 0.90292 -0.10373
 C45 C 0.61592 0.88664 0.10015
 C46 C -0.01094 0.57921 1.07739
 H47 H 0.03209 0.57534 1.08106
 C48 C -0.03807 0.61669 1.10811
 H49 H -0.01556 0.64051 1.13625
 C50 C -0.09197 0.55264 1.03582
 H51 H -0.11251 0.52873 1.00649
 C52 C -0.12062 0.59027 1.06520
 H53 H -0.16311 0.59469 1.05794
 N54 N -0.03809 0.54788 1.04238
 C55 C 0.07911 0.42194 1.01226
 H56 H 0.08265 0.42526 0.97013
 C57 C 0.10801 0.38270 1.03903
 H58 H 0.13478 0.35692 1.01719
 C59 C 0.03901 0.45113 1.09141
 H60 H 0.01068 0.47657 1.11147
 C61 C 0.06679 0.41210 1.11970
 H62 H 0.05955 0.40833 1.16138
 Zn63 Zn 0.00315 0.50274 0.99858
 N64 N 0.04569 0.45540 1.03866
 C65 C 0.09999 0.54898 0.95510
 N66 N 0.04537 0.54951 0.95622
 C67 C 0.01739 0.58690 0.92886
 C68 C 0.04424 0.62627 0.89931
 C69 C 0.12854 0.58730 0.92530
 C70 C -0.07703 0.42513 0.98126
 C71 C -0.10689 0.38709 0.95294
 C72 C -0.06185 0.41737 0.87397
 C73 C -0.03344 0.45551 0.90372
 N74 N -0.04121 0.45834 0.95642
 H75 H 0.12155 0.51975 0.97806
 H76 H -0.02600 0.58662 0.93087
 H77 H 0.02130 0.65607 0.87816
 H78 H 0.17200 0.58711 0.92528
 H79 H -0.08140 0.42741 1.02338
 H80 H -0.13437 0.36011 0.97348
 H81 H -0.05451 0.41466 0.83223
 H82 H -0.00377 0.48139 0.88500
 C83 C 0.10161 0.37691 1.09347
 C84 C -0.09363 0.62328 1.10177
 C85 C -0.09877 0.38233 0.89874
 C86 C 0.10049 0.62697 0.89760
 C87 C 1.07384 -0.01177 0.57455
 H88 H 1.07677 0.03193 0.57323
 C89 C 1.10469 -0.04055 0.61028
 H90 H 1.13106 -0.01855 0.63660
 C91 C 1.03336 -0.09297 0.54375
 H92 H 1.00442 -0.11315 0.51885
 C93 C 1.06340 -0.12339 0.57900
 H94 H 1.05814 -0.16694 0.57988
 N95 N 1.03915 -0.03817 0.54212
 C96 C 1.01171 0.08869 0.42726
 H97 H 0.96888 0.09330 0.43228
 C98 C 1.03917 0.11943 0.38969
 H99 H 1.01722 0.14843 0.36661
 C100 C 1.09177 0.04406 0.45059
 H101 H 1.11167 0.01330 0.47316
 C102 C 1.12080 0.07376 0.41315
 H103 H 1.16297 0.06549 0.40746
 Zn104 Zn 0.99557 0.00562 0.49925
 N105 N 1.03810 0.05161 0.45645
 C106 C 0.96389 0.09893 0.55581
 N107 N 0.95221 0.04616 0.54527
 C108 C 0.91263 0.01915 0.57154
 C109 C 0.88229 0.04540 0.60954
 C110 C 0.93553 0.12640 0.59470
 C111 C 0.97899 -0.07307 0.42234
 C112 C 0.95074 -0.10368 0.38542
 C113 C 0.86982 -0.05745 0.41051
 C114 C 0.89953 -0.02819 0.44749
 N115 N 0.95305 -0.03683 0.45307
 H116 H 0.99676 0.11910 0.53569
 H117 H 0.90500 -0.02319 0.56330
 H118 H 0.85031 0.02301 0.62888
 H119 H 0.94740 0.16754 0.60403
 H120 H 1.02189 -0.07782 0.42627
 H121 H 0.97215 -0.13204 0.36101
 H122 H 0.82731 -0.05000 0.40635
 H123 H 0.88000 0.00241 0.47061
 C124 C 1.09425 0.11129 0.38135
 C125 C 1.09937 -0.09712 0.61318
 C126 C 0.89548 -0.09582 0.37901
 C127 C 0.89429 0.09951 0.62269
 C128 C 0.16158 0.24064 1.12628
 C129 C 0.18040 0.24933 1.17730
 C130 C 0.17325 0.29984 1.20098
 C131 C 0.14827 0.34155 1.17365
 C132 C 0.12938 0.33315 1.12233
 C133 C 0.13623 0.28207 1.09907
 H134 H 0.16604 0.20147 1.10792
 H135 H 0.18746 0.30691 1.24045
 H136 H 0.14419 0.38047 1.19254
 H137 H 0.12109 0.27369 1.06018
 C138 C -0.12465 0.75607 1.16963
 C139 C -0.17829 0.74800 1.18471
 C140 C -0.20404 0.69868 1.17324
 C141 C -0.17640 0.65773 1.14726
 C142 C -0.12266 0.66578 1.13144
 C143 C -0.09719 0.71556 1.14304
 H144 H -0.10457 0.79437 1.17735
 H145 H -0.24553 0.69203 1.18456
 H146 H -0.19711 0.61976 1.13972
 H147 H -0.05640 0.72389 1.13042
 C148 C -0.12123 0.25958 0.81277
 C149 C -0.17644 0.24795 0.82059
 C150 C -0.20610 0.28416 0.85191
 C151 C -0.18121 0.32843 0.87616
 C152 C -0.12618 0.33855 0.86918
 C153 C -0.09666 0.30439 0.83647
 H154 H -0.09607 0.23256 0.79053
 H155 H -0.24879 0.27809 0.85799
 H156 H -0.20494 0.35467 0.90077
 H157 H -0.05391 0.31094 0.83114
 C158 C 0.14089 0.76572 0.84767
 C159 C 0.18166 0.75332 0.81191
 C160 C 0.19691 0.69942 0.80511
 C161 C 0.17117 0.65810 0.83360
 C162 C 0.12939 0.67033 0.86860
 C163 C 0.11463 0.72454 0.87547
 H164 H 0.12917 0.80734 0.85338
 H165 H 0.22847 0.68953 0.77764
 H166 H 0.18306 0.61658 0.82758
 H167 H 0.08300 0.73502 0.90267
 C168 C 1.12362 0.16827 0.24625
 C169 C 1.17743 0.18489 0.25077
 C170 C 1.20354 0.17934 0.29905
 C171 C 1.17643 0.15633 0.34193
 C172 C 1.12269 0.13868 0.33719
 C173 C 1.09659 0.14528 0.28887
 H174 H 1.10299 0.17188 0.20918
 H175 H 1.24499 0.19234 0.30318
 H176 H 1.19748 0.15232 0.37874
 H177 H 1.05566 0.13119 0.28345
 C178 C 1.20833 -0.13996 0.70755
 C179 C 1.18178 -0.18014 0.73751
 C180 C 1.12931 -0.19579 0.72277
 C181 C 1.10321 -0.16982 0.68165
 C182 C 1.12892 -0.12788 0.65369
 C183 C 1.18214 -0.11396 0.66646
 H184 H 1.24925 -0.12794 0.71632
 H185 H 1.10750 -0.22719 0.74370
 H186 H 1.06212 -0.18138 0.67297
 H187 H 1.20347 -0.08264 0.64483
 C188 C 0.80636 -0.12562 0.26238
 C189 C 0.81474 -0.18128 0.25450
 C190 C 0.84754 -0.20904 0.29004
 C191 C 0.87299 -0.18152 0.33102
 C192 C 0.86557 -0.12577 0.33792
 C193 C 0.83128 -0.09829 0.30378
 H194 H 0.78191 -0.10269 0.23561
 H195 H 0.85422 -0.25197 0.28555
 H196 H 0.89875 -0.20375 0.35722
 H197 H 0.82532 -0.05517 0.30793
 C198 C 0.82454 0.12040 0.75362
 C199 C 0.81958 0.17710 0.75596
 C200 C 0.83665 0.20783 0.71226
 C201 C 0.85930 0.18275 0.66846
 C202 C 0.86639 0.12632 0.66737
 C203 C 0.84833 0.09561 0.71055
 H204 H 0.81268 0.09528 0.78657
 H205 H 0.83200 0.25134 0.71190
 H206 H 0.87128 0.20775 0.63552
 H207 H 0.85413 0.05235 0.71223
 C208 C 0.28378 1.20469 0.14515
 C209 C 0.25205 1.17926 0.18397
 C210 C 0.26539 1.12639 0.19936
 C211 C 0.30812 1.09950 0.17580
 C212 C 0.33791 1.12388 0.13497
 C213 C 0.32536 1.17717 0.12044
 H214 H 0.27565 1.24562 0.13272
 H215 H 0.24225 1.10501 0.22892
 H216 H 0.31724 1.05922 0.18945
 H217 H 0.34640 1.19748 0.08879
 C218 C 0.76109 1.16835 -0.11826
 C219 C 0.75828 1.17639 -0.17276
 C220 C 0.71289 1.15649 -0.19960
 C221 C 0.67087 1.13080 -0.17253
 C222 C 0.67395 1.12194 -0.11808
 C223 C 0.72009 1.14077 -0.09155
 H224 H 0.79624 1.18154 -0.09663
 H225 H 0.70930 1.16241 -0.24148
 H226 H 0.63582 1.11846 -0.19459
 H227 H 0.72553 1.13336 -0.05019
 C228 C 0.30003 0.79767 -0.18312
 C229 C 0.25110 0.82366 -0.19114
 C230 C 0.24379 0.87577 -0.17095
 C231 C 0.28487 0.90164 -0.14310
 C232 C 0.33415 0.87585 -0.13487
 C233 C 0.34134 0.82360 -0.15543
 H234 H 0.30610 0.75733 -0.19832
 H235 H 0.20581 0.89586 -0.17604
 H236 H 0.27749 0.94132 -0.12689
 H237 H 0.37894 0.80284 -0.15028
 C238 C 0.69795 0.81981 0.20739
 C239 C 0.74721 0.81259 0.18179
 C240 C 0.75270 0.82833 0.12929
 C241 C 0.70999 0.85179 0.10292
 C242 C 0.66039 0.85941 0.12823
 C243 C 0.65477 0.84277 0.18078
 H244 H 0.69318 0.80774 0.24793
 H245 H 0.79070 0.82377 0.10918
 H246 H 0.71649 0.86535 0.06305
 H247 H 0.61706 0.84743 0.20134
   
