data_POSCAR
  _audit_creation_date              2014-09-24
  _audit_creation_method            'ToBaCCo'
  _symmetry_space_group_name_H-M    'P1'
  _symmetry_Int_Tables_number       1
  _symmetry_cell_setting            triclinic
  loop_
  _symmetry_equiv_pos_as_xyz
 x,y,z
_cell_length_a 31.7985
_cell_length_b 30.8938
_cell_length_c 30.1699
_cell_angle_alpha 89.824000
_cell_angle_beta 89.792100
_cell_angle_gamma 90.033500
loop_
  _atom_site_label
  _atom_site_type_symbol
  _atom_site_fract_x
  _atom_site_fract_y
  _atom_site_fract_z
C1 C 1.25160 0.24869 0.25038
 C2 C 0.74873 -0.25006 0.25014
 C3 C 0.74809 0.24991 -0.24977
 C4 C 1.24932 -0.25155 -0.24998
 C5 C 0.25060 0.25197 0.74946
 C6 C 0.75142 0.74994 0.75009
 C7 C 0.74859 0.25000 0.24993
 C8 C 0.24995 0.75190 0.24976
 N9 N 1.04637 0.04848 0.07743
 N10 N 1.07493 0.05793 0.10759
 N11 N 0.95777 0.07820 0.04777
 N12 N 0.93085 0.10929 0.05757
 N13 N 0.95798 0.04847 0.07904
 N14 N 0.93124 0.05865 0.11096
 N15 N 1.04607 0.07798 0.04598
 N16 N 1.07436 0.10824 0.05386
 C17 C 1.09249 0.09485 0.09192
 C18 C 0.91414 0.09621 0.09663
 N19 N 0.95603 0.04699 -0.07842
 N20 N 0.92900 0.05695 -0.11003
 N21 N 1.04494 0.07692 -0.04949
 N22 N 1.07356 0.10651 -0.05912
 N23 N 1.04444 0.04657 -0.07987
 N24 N 1.07270 0.05466 -0.11099
 N25 N 0.95657 0.07730 -0.04795
 N26 N 0.92992 0.10856 -0.05800
 Mn27 Mn 1.00133 0.07792 -0.00092
 C28 C 0.91250 0.09499 -0.09630
 C29 C 1.09094 0.09174 -0.09714
 N30 N 0.95808 -0.04545 0.08044
 N31 N 0.93126 -0.05524 0.11254
 N32 N 1.04632 -0.07526 0.04846
 N33 N 1.07477 -0.10514 0.05752
 N34 N 1.04650 -0.04491 0.07887
 N35 N 1.07508 -0.05329 0.10937
 N36 N 0.95792 -0.07565 0.04985
 N37 N 0.93101 -0.10663 0.06023
 Mn38 Mn 1.00218 0.00165 0.07934
 C39 C 0.91421 -0.09307 0.09893
 C40 C 1.09281 -0.09053 0.09517
 N41 N 1.04423 -0.04672 -0.07868
 N42 N 1.07043 -0.05706 -0.11100
 N43 N 0.95667 -0.07666 -0.04586
 N44 N 0.93040 -0.10837 -0.05550
 N45 N 0.95604 -0.04680 -0.07701
 N46 N 0.92937 -0.05750 -0.10861
 N47 N 1.04487 -0.07632 -0.04731
 N48 N 1.07148 -0.10756 -0.05749
 Mn49 Mn 1.00013 0.00003 -0.07883
 Mn50 Mn 1.00146 -0.07628 0.00132
 Cl51 Cl 1.00117 0.00081 0.00023
 C52 C 1.08762 -0.09458 -0.09682
 C53 C 0.91313 -0.09548 -0.09422
 N54 N 0.95573 0.45294 0.57687
 N55 N 0.92872 0.44290 0.60869
 N56 N 1.04461 0.42299 0.54729
 N57 N 1.07357 0.39367 0.55632
 N58 N 1.04413 0.45327 0.57775
 N59 N 1.07275 0.44542 0.60833
 N60 N 0.95624 0.42269 0.54634
 N61 N 0.92960 0.39138 0.55656
 C62 C 0.91221 0.40488 0.59503
 C63 C 1.09113 0.40852 0.59409
 N64 N 1.04631 0.45178 0.42049
 N65 N 1.07536 0.44273 0.39051
 N66 N 0.95757 0.42204 0.45061
 N67 N 0.93062 0.39099 0.44089
 N68 N 0.95791 0.45184 0.41939
 N69 N 0.93121 0.44172 0.38760
 N70 N 1.04587 0.42220 0.45187
 N71 N 1.07455 0.39228 0.44413
 Mn72 Mn 1.00106 0.42216 0.49902
 C73 C 1.09300 0.40593 0.40619
 C74 C 0.91402 0.40414 0.40196
 N75 N 1.04413 0.54651 0.57683
 N76 N 1.07039 0.55659 0.60898
 N77 N 0.95669 0.57667 0.54466
 N78 N 0.93048 0.60839 0.55456
 N79 N 0.95595 0.54672 0.57573
 N80 N 0.92927 0.55737 0.60752
 N81 N 1.04490 0.57623 0.54559
 N82 N 1.07165 0.60733 0.55571
 Mn83 Mn 0.99993 0.49984 0.57712
 C84 C 1.08775 0.59412 0.59486
 C85 C 0.91313 0.59540 0.59334
 N86 N 0.95819 0.54577 0.41825
 N87 N 0.93137 0.55560 0.38640
 N88 N 1.04645 0.57544 0.44977
 N89 N 1.07472 0.60551 0.44041
 N90 N 1.04661 0.54518 0.41926
 N91 N 1.07498 0.55384 0.38840
 N92 N 0.95806 0.57591 0.44892
 N93 N 0.93115 0.60688 0.43882
 Mn94 Mn 1.00220 0.49863 0.41895
 Mn95 Mn 1.00154 0.57637 0.49720
 Cl96 Cl 1.00107 0.49928 0.49806
 C97 C 0.91434 0.59339 0.40021
 C98 C 1.09266 0.59112 0.40250
 N99 N 0.57329 0.04494 0.54847
 N100 N 0.60250 0.07390 0.55775
 N101 N 0.54590 -0.04679 0.57877
 N102 N 0.55561 -0.07533 0.60970
 N103 N 0.57476 -0.04605 0.54751
 N104 N 0.60496 -0.07406 0.55644
 N105 N 0.54435 0.04410 0.57968
 N106 N 0.55314 0.07243 0.61100
 C107 C 0.58902 0.09121 0.59638
 C108 C 0.59206 -0.09252 0.59485
 N109 N 0.42616 -0.04900 0.54954
 N110 N 0.39754 -0.07869 0.55856
 N111 N 0.45351 0.04209 0.58128
 N112 N 0.44336 0.06904 0.61350
 N113 N 0.42415 0.04170 0.55079
 N114 N 0.39336 0.06838 0.56129
 N115 N 0.45550 -0.04869 0.58007
 N116 N 0.44764 -0.07819 0.61073
 Mn117 Mn 0.49984 -0.00228 0.58033
 C118 C 0.41187 -0.09701 0.59628
 C119 C 0.40619 0.08563 0.59997
 N120 N 0.57341 -0.04485 0.45171
 N121 N 0.60276 -0.07356 0.44210
 N122 N 0.54255 0.04610 0.42246
 N123 N 0.55105 0.07485 0.39119
 N124 N 0.57212 0.04610 0.45278
 N125 N 0.60146 0.07485 0.44295
 N126 N 0.54389 -0.04485 0.42132
 N127 N 0.55241 -0.07359 0.39023
 Mn128 Mn 0.57378 0.00002 0.50009
 C129 C 0.58881 -0.09161 0.40413
 C130 C 0.58740 0.09298 0.40498
 N131 N 0.42308 0.04332 0.45577
 N132 N 0.39286 0.07150 0.44795
 N133 N 0.45290 -0.04625 0.42255
 N134 N 0.44183 -0.07193 0.38962
 N135 N 0.42448 -0.04738 0.45426
 N136 N 0.39350 -0.07383 0.44380
 N137 N 0.45164 0.04459 0.42422
 N138 N 0.44149 0.07369 0.39393
 Mn139 Mn 0.42423 -0.00288 0.50261
 Mn140 Mn 0.49779 -0.00009 0.42222
 Cl141 Cl 0.49895 -0.00130 0.50128
 C142 C 0.40521 0.09060 0.40979
 C143 C 0.40524 -0.08949 0.40395
 N144 N 0.57328 0.54485 0.04955
 N145 N 0.60267 0.57357 0.05891
 N146 N 0.54264 0.45383 0.07920
 N147 N 0.55119 0.42507 0.11036
 N148 N 0.57215 0.45390 0.04859
 N149 N 0.60150 0.42516 0.05811
 N150 N 0.54383 0.54479 0.08025
 N151 N 0.55243 0.57348 0.11129
 C152 C 0.58881 0.59155 0.09705
 C153 C 0.58751 0.40699 0.09620
 N154 N 0.42312 0.45621 0.04710
 N155 N 0.39353 0.42719 0.05465
 N156 N 0.45287 0.54591 0.07989
 N157 N 0.44210 0.57195 0.11269
 N158 N 0.42436 0.54693 0.04849
 N159 N 0.39358 0.57365 0.05905
 N160 N 0.45178 0.45503 0.07832
 N161 N 0.44235 0.42513 0.10813
 Mn162 Mn 0.49781 0.49987 0.07984
 C163 C 0.40634 0.40775 0.09236
 C164 C 0.40555 0.58956 0.09864
 N165 N 0.57311 0.45494 -0.04709
 N166 N 0.60236 0.42605 -0.05659
 N167 N 0.54548 0.54652 -0.07727
 N168 N 0.55511 0.57505 -0.10834
 N169 N 0.57439 0.54592 -0.04627
 N170 N 0.60453 0.57401 -0.05553
 N171 N 0.54411 0.45562 -0.07802
 N172 N 0.55290 0.42725 -0.10937
 Mn173 Mn 0.57362 0.49992 0.00122
 C174 C 0.58885 0.40862 -0.09505
 C175 C 0.59155 0.59237 -0.09385
 N176 N 0.42575 0.54841 -0.04686
 N177 N 0.39674 0.57755 -0.05600
 N178 N 0.45321 0.45734 -0.07870
 N179 N 0.44282 0.43057 -0.11093
 N180 N 0.42394 0.45771 -0.04788
 N181 N 0.39301 0.43118 -0.05815
 N182 N 0.45502 0.54812 -0.07769
 N183 N 0.44670 0.57710 -0.10866
 Mn184 Mn 0.42405 0.50236 0.00021
 Mn185 Mn 0.49948 0.50186 -0.07830
 Cl186 Cl 0.49878 0.50102 0.00076
 C187 C 0.41075 0.59561 -0.09409
 C188 C 0.40565 0.41401 -0.09702
 C189 C 1.17266 0.17045 0.16301
 C190 C 1.21561 0.16184 0.16691
 C191 C 1.24072 0.18769 0.19409
 C192 C 1.22307 0.22166 0.21940
 C193 C 1.18027 0.23186 0.21209
 C194 C 1.15530 0.20604 0.18487
 C195 C 1.14595 0.14283 0.13706
 C196 C 1.12225 0.12037 0.11614
 H197 H 1.22965 0.13495 0.14928
 H198 H 1.27393 0.18037 0.19651
 H199 H 1.16568 0.25985 0.22699
 H200 H 1.12230 0.21384 0.18096
 C201 C 1.16448 0.66839 0.67128
 C202 C 1.16893 0.71254 0.66224
 C203 C 1.19553 0.73793 0.68817
 C204 C 1.21946 0.71938 0.72275
 C205 C 1.21208 0.67537 0.73331
 C206 C 1.18544 0.65007 0.70734
 C207 C 1.13788 0.64200 0.64400
 C208 C 1.11536 0.61996 0.62131
 H209 H 1.15198 0.72733 0.63505
 H210 H 1.19836 0.77208 0.68055
 H211 H 1.22645 0.66016 0.76177
 H212 H 1.18111 0.61617 0.71550
 C213 C 0.66128 0.17113 0.67197
 C214 C 0.66571 0.21538 0.66342
 C215 C 0.69308 0.24035 0.68903
 C216 C 0.71788 0.22128 0.72268
 C217 C 0.71056 0.17713 0.73272
 C218 C 0.68316 0.15231 0.70714
 C219 C 0.63472 0.14457 0.64464
 C220 C 0.61339 0.12096 0.62225
 H221 H 0.64822 0.23057 0.63685
 H222 H 0.69572 0.27462 0.68192
 H223 H 0.72546 0.16141 0.76056
 H224 H 0.67905 0.11829 0.71489
 C225 C 0.66141 0.67177 0.17188
 C226 C 0.66641 0.71591 0.16296
 C227 C 0.69408 0.74072 0.18841
 C228 C 0.71859 0.72158 0.22224
 C229 C 0.71075 0.67758 0.23254
 C230 C 0.68309 0.65292 0.20716
 C231 C 0.63455 0.64527 0.14484
 C232 C 0.61310 0.62153 0.12272
 H233 H 0.64909 0.73112 0.13628
 H234 H 0.69702 0.77494 0.18115
 H235 H 0.72542 0.66184 0.26053
 H236 H 0.67858 0.61901 0.21516
 C237 C 0.83489 -0.16928 0.17199
 C238 C 0.81314 -0.20295 0.15130
 C239 C 0.78600 -0.22956 0.17580
 C240 C 0.77896 -0.22212 0.22147
 C241 C 0.80347 -0.18981 0.24220
 C242 C 0.83053 -0.16328 0.21764
 C243 C 0.86239 -0.14156 0.14654
 C244 C 0.88570 -0.11885 0.12501
 H245 H 0.81733 -0.20882 0.11617
 H246 H 0.77112 -0.25611 0.15870
 H247 H 0.80081 -0.18448 0.27756
 H248 H 0.84799 -0.13801 0.23430
 C249 C 0.83387 0.32900 0.66972
 C250 C 0.82991 0.33591 0.71530
 C251 C 0.80301 0.30990 0.74068
 C252 C 0.77824 0.27728 0.72085
 C253 C 0.78499 0.26888 0.67528
 C254 C 0.81195 0.29494 0.64997
 C255 C 0.86103 0.35629 0.64336
 C256 C 0.88403 0.37883 0.62127
 H257 H 0.84753 0.36149 0.73125
 H258 H 0.80065 0.31593 0.77595
 H259 H 0.76999 0.24200 0.65885
 H260 H 0.81583 0.28836 0.61494
 C261 C 0.33931 -0.17814 0.67005
 C262 C 0.33371 -0.16893 0.71494
 C263 C 0.30501 -0.19278 0.74008
 C264 C 0.28014 -0.22546 0.72052
 C265 C 0.28837 -0.23611 0.67574
 C266 C 0.31713 -0.21214 0.65064
 C267 C 0.36643 -0.15136 0.64364
 C268 C 0.38796 -0.12738 0.62180
 H269 H 0.35123 -0.14301 0.73044
 H270 H 0.30152 -0.18519 0.77491
 H271 H 0.27322 -0.26321 0.65983
 H272 H 0.32198 -0.22007 0.61604
 C273 C 0.33213 0.32344 0.16085
 C274 C 0.34902 0.28831 0.18385
 C275 C 0.32340 0.26322 0.21143
 C276 C 0.28055 0.27395 0.21803
 C277 C 0.26335 0.30693 0.19109
 C278 C 0.28905 0.33200 0.16353
 C279 C 0.35918 0.35176 0.13594
 C280 C 0.38133 0.37666 0.11588
 H281 H 0.38214 0.28058 0.18089
 H282 H 0.33762 0.23560 0.22750
 H283 H 0.23012 0.31440 0.19285
 H284 H 0.27544 0.35858 0.14499
 C285 C 0.83395 0.17075 -0.17018
 C286 C 0.82990 0.16390 -0.21572
 C287 C 0.80297 0.18991 -0.24081
 C288 C 0.77825 0.22251 -0.22069
 C289 C 0.78506 0.23083 -0.17518
 C290 C 0.81206 0.20476 -0.15017
 C291 C 0.86119 0.14347 -0.14413
 C292 C 0.88425 0.12095 -0.12229
 H293 H 0.84749 0.13836 -0.23188
 H294 H 0.80055 0.18394 -0.27606
 H295 H 0.77010 0.25767 -0.15857
 H296 H 0.81601 0.21130 -0.11516
 C297 C 0.83488 0.66942 0.32780
 C298 C 0.81306 0.70303 0.34861
 C299 C 0.78589 0.72954 0.32427
 C300 C 0.77891 0.72206 0.27865
 C301 C 0.80348 0.68979 0.25779
 C302 C 0.83056 0.66336 0.28219
 C303 C 0.86243 0.64181 0.35308
 C304 C 0.88578 0.61916 0.37441
 H305 H 0.81721 0.70894 0.38371
 H306 H 0.77096 0.75607 0.34144
 H307 H 0.80086 0.68443 0.22245
 H308 H 0.84808 0.63813 0.26543
 C309 C 0.32808 0.17020 0.33971
 C310 C 0.33501 0.21468 0.33587
 C311 C 0.30926 0.23965 0.30850
 C312 C 0.27715 0.22032 0.28295
 C313 C 0.26827 0.17607 0.29061
 C314 C 0.29402 0.15120 0.31806
 C315 C 0.35620 0.14365 0.36511
 C316 C 0.37922 0.12017 0.38566
 H317 H 0.36070 0.22994 0.35340
 H318 H 0.31554 0.27401 0.30567
 H319 H 0.24165 0.16023 0.27554
 H320 H 0.28756 0.11696 0.32205
 C321 C 0.33740 0.67485 -0.16860
 C322 C 0.33232 0.66528 -0.21344
 C323 C 0.30404 0.68902 -0.23899
 C324 C 0.27911 0.72199 -0.21991
 C325 C 0.28664 0.73282 -0.17508
 C326 C 0.31498 0.70895 -0.14959
 C327 C 0.36460 0.64862 -0.14191
 C328 C 0.38637 0.62523 -0.11985
 H329 H 0.35004 0.63927 -0.22864
 H330 H 0.30111 0.68128 -0.27382
 H331 H 0.27142 0.76009 -0.15949
 H332 H 0.31943 0.71716 -0.11503
 C333 C 1.16405 -0.17006 -0.17279
 C334 C 1.16766 -0.21425 -0.16355
 C335 C 1.19436 -0.24012 -0.18903
 C336 C 1.21925 -0.22203 -0.22330
 C337 C 1.21268 -0.17796 -0.23415
 C338 C 1.18594 -0.15218 -0.20864
 C339 C 1.13751 -0.14314 -0.14583
 C340 C 1.11509 -0.12072 -0.12330
 H341 H 1.14999 -0.22869 -0.13652
 H342 H 1.19655 -0.27428 -0.18126
 H343 H 1.22780 -0.16305 -0.26246
 H344 H 1.18228 -0.11825 -0.21697
 C345 C 1.17620 0.33164 0.33705
 C346 C 1.21009 0.34950 0.31376
 C347 C 1.23524 0.32332 0.28680
 C348 C 1.22593 0.27884 0.28126
 C349 C 1.19375 0.26091 0.30806
 C350 C 1.16870 0.28713 0.33496
 C351 C 1.14826 0.35893 0.36208
 C352 C 1.12366 0.38099 0.38241
 H353 H 1.21695 0.38377 0.31617
 H354 H 1.26191 0.33830 0.27065
 H355 H 1.18710 0.22655 0.30690
 H356 H 1.14305 0.27274 0.35360
 C357 C 0.66129 -0.17193 0.32885
 C358 C 0.66628 -0.21605 0.33778
 C359 C 0.69397 -0.24086 0.31219
 C360 C 0.71854 -0.22172 0.27819
 C361 C 0.71070 -0.17774 0.26788
 C362 C 0.68300 -0.15309 0.29341
 C363 C 0.63443 -0.14541 0.35604
 C364 C 0.61302 -0.12163 0.37829
 H365 H 0.64892 -0.23125 0.36459
 H366 H 0.69691 -0.27506 0.31946
 H367 H 0.72540 -0.16201 0.23979
 H368 H 0.67850 -0.11920 0.28540
 C369 C 0.66127 0.32871 -0.17096
 C370 C 0.68320 0.34751 -0.20630
 C371 C 0.71064 0.32268 -0.23201
 C372 C 0.71796 0.27856 -0.22196
 C373 C 0.69316 0.25952 -0.18808
 C374 C 0.66575 0.28448 -0.16235
 C375 C 0.63463 0.35527 -0.14355
 C376 C 0.61324 0.37888 -0.12106
 H377 H 0.67907 0.38150 -0.21409
 H378 H 0.72554 0.33839 -0.25999
 H379 H 0.69579 0.22526 -0.18094
 H380 H 0.64823 0.26932 -0.13563
 C381 C 1.17163 0.16360 -0.17267
 C382 C 1.15445 0.18586 -0.20865
 C383 C 1.17941 0.21363 -0.23411
 C384 C 1.22205 0.22108 -0.22318
 C385 C 1.23955 0.19567 -0.18879
 C386 C 1.21443 0.16790 -0.16327
 C387 C 1.14481 0.13700 -0.14534
 C388 C 1.12093 0.11581 -0.12298
 H389 H 1.12158 0.18179 -0.21705
 H390 H 1.16495 0.22879 -0.26254
 H391 H 1.27267 0.19820 -0.18101
 H392 H 1.22834 0.15007 -0.13605
 C393 C 1.17308 0.66382 0.32699
 C394 C 1.15692 0.68276 0.28861
 C395 C 1.18172 0.71063 0.26301
 C396 C 1.22312 0.72213 0.27621
 C397 C 1.23994 0.69912 0.31296
 C398 C 1.21495 0.67126 0.33856
 C399 C 1.14624 0.63716 0.35442
 C400 C 1.12246 0.61574 0.37679
 H401 H 1.12495 0.67603 0.27840
 H402 H 1.16804 0.72303 0.23276
 H403 H 1.27239 0.70361 0.32267
 H404 H 1.22828 0.65574 0.36753
 C405 C 0.66074 0.17204 0.32874
 C406 C 0.66578 0.21616 0.33728
 C407 C 0.69369 0.24080 0.31167
 C408 C 0.71837 0.22154 0.27798
 C409 C 0.71063 0.17751 0.26810
 C410 C 0.68270 0.15300 0.29370
 C411 C 0.63358 0.14584 0.35607
 C412 C 0.61188 0.12250 0.37865
 H413 H 0.64830 0.23149 0.36381
 H414 H 0.69668 0.27502 0.31867
 H415 H 0.72553 0.16170 0.24029
 H416 H 0.67818 0.11907 0.28605
 C417 C 0.66492 0.67123 -0.17026
 C418 C 0.66905 0.71556 -0.16241
 C419 C 0.69626 0.74045 -0.18856
 C420 C 0.72117 0.72126 -0.22212
 C421 C 0.71414 0.67701 -0.23149
 C422 C 0.68690 0.65223 -0.20533
 C423 C 0.63832 0.64490 -0.14247
 C424 C 0.61669 0.62163 -0.11976
 H425 H 0.65144 0.73086 -0.13594
 H426 H 0.69875 0.77478 -0.18192
 H427 H 0.72914 0.66119 -0.25923
 H428 H 0.68294 0.61814 -0.21255
 C429 C 0.83659 -0.17192 -0.16906
 C430 C 0.83291 -0.16437 -0.21457
 C431 C 0.80628 -0.19012 -0.24017
 C432 C 0.78148 -0.22305 -0.22054
 C433 C 0.78813 -0.23217 -0.17509
 C434 C 0.81480 -0.20639 -0.14959
 C435 C 0.86316 -0.14471 -0.14241
 C436 C 0.88560 -0.12204 -0.12020
 H437 H 0.85048 -0.13845 -0.23029
 H438 H 0.80409 -0.18361 -0.27537
 H439 H 0.77321 -0.25938 -0.15886
 H440 H 0.81850 -0.21346 -0.11462
 C441 C 0.83483 0.32889 0.32880
 C442 C 0.81305 0.29478 0.34900
 C443 C 0.78585 0.26887 0.32421
 C444 C 0.77874 0.27746 0.27875
 C445 C 0.80328 0.31022 0.25844
 C446 C 0.83042 0.33607 0.28330
 C447 C 0.86233 0.35594 0.35460
 C448 C 0.88559 0.37830 0.37623
 H449 H 0.81726 0.28802 0.38396
 H450 H 0.77097 0.24192 0.34093
 H451 H 0.80062 0.31639 0.22321
 H452 H 0.84791 0.36172 0.26701
 C453 C 0.32660 -0.16238 0.32812
 C454 C 0.29076 -0.18107 0.34708
 C455 C 0.26463 -0.20766 0.32178
 C456 C 0.27493 -0.21793 0.27720
 C457 C 0.30892 -0.19468 0.25774
 C458 C 0.33489 -0.16818 0.28312
 C459 C 0.35481 -0.13706 0.35473
 C460 C 0.37832 -0.11576 0.37707
 H461 H 0.28307 -0.17527 0.38157
 H462 H 0.23659 -0.22023 0.33761
 H463 H 0.31651 -0.19856 0.22296
 H464 H 0.36179 -0.15266 0.26768
 C465 C 0.32827 0.33854 -0.17114
 C466 C 0.33416 0.33552 -0.21687
 C467 C 0.30811 0.30884 -0.24192
 C468 C 0.27651 0.28334 -0.22152
 C469 C 0.26881 0.28970 -0.17583
 C470 C 0.29497 0.31648 -0.15082
 C471 C 0.35622 0.36461 -0.14517
 C472 C 0.37937 0.38672 -0.12334
 H473 H 0.35919 0.35338 -0.23314
 H474 H 0.31364 0.30671 -0.27728
 H475 H 0.24274 0.27428 -0.15902
 H476 H 0.28928 0.31986 -0.11557
 C477 C 1.17511 -0.16140 0.16954
 C478 C 1.21082 -0.18077 0.15123
 C479 C 1.23596 -0.20815 0.17699
 C480 C 1.22484 -0.21859 0.22144
 C481 C 1.19070 -0.19519 0.24013
 C482 C 1.16573 -0.16787 0.21431
 C483 C 1.14744 -0.13560 0.14243
 C484 C 1.12312 -0.11471 0.12040
 H485 H 1.21924 -0.17482 0.11692
 H486 H 1.26410 -0.22091 0.16165
 H487 H 1.18250 -0.19916 0.27478
 H488 H 1.13877 -0.15213 0.22926
 C489 C 1.17474 0.33902 0.66763
 C490 C 1.20802 0.31638 0.64815
 C491 C 1.23325 0.28911 0.67387
 C492 C 1.22466 0.28273 0.71948
 C493 C 1.19294 0.30853 0.73900
 C494 C 1.16783 0.33573 0.71326
 C495 C 1.14666 0.36449 0.64085
 C496 C 1.12192 0.38500 0.61910
 H497 H 1.21434 0.31959 0.61298
 H498 H 1.25947 0.27346 0.65768
 H499 H 1.18677 0.30650 0.77427
 H500 H 1.14261 0.35372 0.72890
 C501 C 0.66535 -0.17133 0.67073
 C502 C 0.66939 -0.21567 0.66291
 C503 C 0.69645 -0.24057 0.68898
 C504 C 0.72130 -0.22137 0.72242
 C505 C 0.71434 -0.17711 0.73178
 C506 C 0.68724 -0.15232 0.70570
 C507 C 0.63885 -0.14501 0.64306
 C508 C 0.61725 -0.12175 0.62050
 H509 H 0.65183 -0.23097 0.63653
 H510 H 0.69889 -0.27491 0.68236
 H511 H 0.72928 -0.16128 0.75944
 H512 H 0.68332 -0.11822 0.71291
 C513 C 0.66079 0.32790 0.17178
 C514 C 0.68274 0.34695 0.20668
 C515 C 0.71064 0.32246 0.23207
 C516 C 0.71836 0.27844 0.22213
 C517 C 0.69368 0.25916 0.18862
 C518 C 0.66580 0.28379 0.16320
 C519 C 0.63368 0.35410 0.14465
 C520 C 0.61200 0.37745 0.12227
 H521 H 0.67824 0.38088 0.21437
 H522 H 0.72553 0.33828 0.25978
 H523 H 0.69665 0.22494 0.18159
 H524 H 0.64832 0.26846 0.13679
 C525 C 0.83486 0.17134 0.17030
 C526 C 0.83044 0.16409 0.21582
 C527 C 0.80327 0.18986 0.24092
 C528 C 0.77872 0.22259 0.22083
 C529 C 0.78583 0.23126 0.17533
 C530 C 0.81306 0.20543 0.15031
 C531 C 0.86239 0.14438 0.14427
 C532 C 0.88568 0.12207 0.12247
 H533 H 0.84795 0.13846 0.23195
 H534 H 0.80062 0.18365 0.27617
 H535 H 0.77095 0.25821 0.15876
 H536 H 0.81727 0.21224 0.11532
 C537 C 0.83664 0.67179 0.66877
 C538 C 0.83283 0.66420 0.71430
 C539 C 0.80620 0.68996 0.74004
 C540 C 0.78151 0.72293 0.72056
 C541 C 0.78831 0.73209 0.67509
 C542 C 0.81499 0.70630 0.64944
 C543 C 0.86321 0.64458 0.64196
 C544 C 0.88564 0.62193 0.61957
 H545 H 0.85031 0.63824 0.72991
 H546 H 0.80390 0.68343 0.77525
 H547 H 0.77349 0.75933 0.65895
 H548 H 0.81880 0.71340 0.61446
 C549 C 0.33104 0.16376 0.67428
 C550 C 0.34762 0.18625 0.71020
 C551 C 0.32210 0.21392 0.73487
 C552 C 0.27958 0.22103 0.72307
 C553 C 0.26268 0.19528 0.68883
 C554 C 0.28835 0.16760 0.66413
 C555 C 0.35792 0.13646 0.64819
 C556 C 0.38040 0.11357 0.62629
 H557 H 0.38035 0.18234 0.71928
 H558 H 0.33605 0.22924 0.76341
 H559 H 0.22964 0.19748 0.68055
 H560 H 0.27492 0.14934 0.63704
 C561 C 0.32890 0.66506 0.17455
 C562 C 0.34427 0.68407 0.21307
 C563 C 0.31866 0.71131 0.23816
 C564 C 0.27728 0.72217 0.22418
 C565 C 0.26119 0.69880 0.18750
 C566 C 0.28700 0.67154 0.16241
 C567 C 0.35620 0.63866 0.14781
 C568 C 0.37912 0.61658 0.12544
 H569 H 0.37620 0.67786 0.22379
 H570 H 0.33176 0.72390 0.26854
 H571 H 0.22877 0.70270 0.17739
 H572 H 0.27430 0.65570 0.13340
   
