data_POSCAR
  _audit_creation_date              2014-09-24
  _audit_creation_method            'ToBaCCo'
  _symmetry_space_group_name_H-M    'P1'
  _symmetry_Int_Tables_number       1
  _symmetry_cell_setting            triclinic
  loop_
  _symmetry_equiv_pos_as_xyz
 x,y,z
_cell_length_a 13.1522
_cell_length_b 13.3145
_cell_length_c 22.0839
_cell_angle_alpha 92.649000
_cell_angle_beta 91.138700
_cell_angle_gamma 93.047400
loop_
  _atom_site_label
  _atom_site_type_symbol
  _atom_site_fract_x
  _atom_site_fract_y
  _atom_site_fract_z
O1 O -0.06045 0.59785 0.93028
 O2 O -0.06751 0.40533 1.04268
 O3 O -0.06002 0.60637 1.04613
 O4 O -0.05122 0.40460 0.92589
 O5 O 0.11689 0.41299 0.93433
 O6 O 0.10803 0.61400 1.05229
 O7 O 0.09967 0.41640 1.05189
 O8 O 0.10752 0.60941 0.93635
 Cu9 Cu -0.07665 0.50173 0.98628
 Cu10 Cu 0.12480 0.51340 0.99451
 C11 C 0.02381 0.63966 0.91595
 C12 C 0.01404 0.37443 1.06488
 C13 C 0.02353 0.64875 1.06663
 C14 C 0.03490 0.37477 0.91004
 O15 O 0.41778 -0.05819 0.42597
 O16 O 0.61524 -0.09465 0.54168
 O17 O 0.41858 -0.08220 0.54122
 O18 O 0.61649 -0.07417 0.42636
 O19 O 0.64027 0.09020 0.44363
 O20 O 0.43903 0.08294 0.55730
 O21 O 0.63347 0.06834 0.55987
 O22 O 0.44095 0.10636 0.44119
 Cu23 Cu 0.51479 -0.09372 0.48178
 Cu24 Cu 0.54062 0.10374 0.50159
 C25 C 0.39337 0.03033 0.41517
 C26 C 0.65890 -0.01996 0.57099
 C27 C 0.39529 -0.00114 0.56867
 C28 C 0.66486 0.00854 0.41718
 Si29 Si 0.02256 0.02957 0.23919
 Si30 Si 0.03326 -0.00848 0.74199
 C31 C 0.09044 -0.17260 0.09391
 C32 C 0.02397 -0.25717 0.10504
 C33 C -0.04193 -0.25190 0.15376
 C34 C -0.04000 -0.16667 0.19286
 C35 C 0.02983 -0.08482 0.18574
 C36 C 0.09663 -0.08772 0.13586
 C37 C 0.14882 -0.16904 0.04083
 C38 C 0.21611 -0.08739 0.03114
 C39 C 0.22735 -0.00789 0.07405
 C40 C 0.16875 -0.00788 0.12587
 H41 H 0.14186 -0.22778 0.00554
 H42 H 0.26021 -0.08616 -0.00973
 H43 H 0.28124 0.05456 0.06698
 H44 H 0.18212 0.05491 0.15798
 H45 H -0.09495 -0.31467 0.16190
 H46 H -0.09436 -0.16539 0.22885
 C47 C -0.06599 0.21190 0.09750
 C48 C 0.00971 0.29319 0.10372
 C49 C 0.08370 0.29199 0.15028
 C50 C 0.08114 0.21683 0.19196
 C51 C 0.00615 0.13800 0.18822
 C52 C -0.06940 0.13576 0.14116
 C53 C -0.13283 0.19896 0.04616
 C54 C -0.20591 0.11928 0.04069
 C55 C -0.21372 0.04971 0.08542
 C56 C -0.14620 0.05721 0.13491
 H57 H -0.12753 0.24688 0.00819
 H58 H -0.25628 0.11106 0.00120
 H59 H -0.27114 -0.01169 0.08115
 H60 H -0.15528 0.00033 0.16784
 H61 H 0.14328 0.35139 0.15561
 H62 H 0.14099 0.21923 0.22635
 C63 C 0.33418 0.00443 0.67641
 C64 C 0.31414 -0.00455 0.61321
 C65 C 0.21406 -0.01669 0.59112
 C66 C 0.13329 -0.01870 0.63056
 C67 C 0.14965 -0.01071 0.69362
 C68 C 0.25139 0.00080 0.71723
 C69 C 0.43500 0.01598 0.69983
 C70 C 0.45424 0.02396 0.76218
 C71 C 0.37386 0.02024 0.80216
 C72 C 0.27358 0.00872 0.78016
 H73 H 0.49960 0.01859 0.67024
 H74 H 0.53192 0.03266 0.77956
 H75 H 0.38928 0.02588 0.85057
 H76 H 0.21455 0.00468 0.81318
 H77 H 0.19819 -0.02282 0.54268
 H78 H 0.05740 -0.02472 0.61075
 C79 C -0.20573 -0.12071 0.62006
 C80 C -0.26257 -0.03200 0.61478
 C81 C -0.23423 0.05268 0.65312
 C82 C -0.15030 0.05470 0.69200
 C83 C -0.08617 -0.02522 0.69246
 C84 C -0.11415 -0.11471 0.65689
 C85 C -0.23381 -0.21445 0.58917
 C86 C -0.17233 -0.29618 0.59163
 C87 C -0.08119 -0.28768 0.62433
 C88 C -0.05223 -0.19837 0.65653
 H89 H -0.30351 -0.22957 0.56363
 H90 H -0.19537 -0.36658 0.56746
 H91 H -0.03283 -0.35095 0.62512
 H92 H 0.02009 -0.19605 0.68021
 H93 H -0.27770 0.11963 0.65345
 H94 H -0.13522 0.12124 0.72119
 C95 C -0.05079 -0.19958 0.88219
 C96 C 0.02343 -0.27324 0.87677
 C97 C 0.09779 -0.26428 0.83269
 C98 C 0.09855 -0.18572 0.79329
 C99 C 0.02337 -0.11496 0.79541
 C100 C -0.05454 -0.12355 0.83899
 C101 C -0.11893 -0.19696 0.93105
 C102 C -0.19400 -0.12716 0.93440
 C103 C -0.20255 -0.05796 0.88974
 C104 C -0.13364 -0.05558 0.84273
 H105 H -0.11363 -0.24623 0.96827
 H106 H -0.24559 -0.12656 0.97199
 H107 H -0.26136 -0.00414 0.89232
 H108 H -0.14208 0.00207 0.81070
 H109 H 0.15553 -0.31912 0.82837
 H110 H 0.15793 -0.18162 0.76019
 C111 C 0.03833 0.29952 0.80266
 C112 C 0.03973 0.28939 0.86610
 C113 C 0.04897 0.19501 0.88957
 C114 C 0.05161 0.10982 0.85137
 C115 C 0.04294 0.11522 0.78816
 C116 C 0.04164 0.21183 0.76308
 C117 C 0.03443 0.39499 0.77784
 C118 C 0.03498 0.40441 0.71524
 C119 C 0.03959 0.31935 0.67649
 C120 C 0.04303 0.22404 0.69993
 H121 H 0.03155 0.46286 0.80659
 H122 H 0.03216 0.47811 0.69670
 H123 H 0.04029 0.32722 0.62793
 H124 H 0.04604 0.16061 0.66797
 H125 H 0.05336 0.18700 0.93819
 H126 H 0.06032 0.03920 0.87243
 C127 C -0.16735 -0.05719 0.38255
 C128 C -0.24754 0.00915 0.37633
 C129 C -0.24377 0.07840 0.33069
 C130 C -0.16407 0.08112 0.29023
 C131 C -0.08580 0.01392 0.29339
 C132 C -0.08703 -0.05650 0.34002
 C133 C -0.16327 -0.12188 0.43148
 C134 C -0.08468 -0.18714 0.43709
 C135 C -0.00884 -0.18967 0.39428
 C136 C -0.00973 -0.12543 0.34627
 H137 H -0.21931 -0.12168 0.46652
 H138 H -0.08271 -0.23615 0.47479
 H139 H 0.05146 -0.24135 0.39845
 H140 H 0.05046 -0.13164 0.31418
 H141 H -0.30345 0.13080 0.32617
 H142 H -0.16365 0.13760 0.25662
 C143 C 0.23059 0.11255 0.38333
 C144 C 0.30777 0.04351 0.37213
 C145 C 0.30049 -0.02000 0.31982
 C146 C 0.21838 -0.01817 0.27949
 C147 C 0.14104 0.04877 0.28901
 C148 C 0.14870 0.11776 0.34023
 C149 C 0.22975 0.17324 0.43761
 C150 C 0.15449 0.24158 0.44743
 C151 C 0.07841 0.25087 0.40383
 C152 C 0.07514 0.18974 0.35087
 H153 H 0.28532 0.16778 0.47372
 H154 H 0.15529 0.28772 0.48914
 H155 H 0.02086 0.30499 0.41139
 H156 H 0.01467 0.20033 0.31846
 H157 H 0.35790 -0.07387 0.31079
 H158 H 0.21424 -0.07293 0.24181
   
