data_POSCAR
  _audit_creation_date              2014-09-24
  _audit_creation_method            'ToBaCCo'
  _symmetry_space_group_name_H-M    'P1'
  _symmetry_Int_Tables_number       1
  _symmetry_cell_setting            triclinic
  loop_
  _symmetry_equiv_pos_as_xyz
 x,y,z
_cell_length_a 41.2702
_cell_length_b 41.2894
_cell_length_c 41.1986
_cell_angle_alpha 90.001000
_cell_angle_beta 90.090200
_cell_angle_gamma 90.011200
loop_
  _atom_site_label
  _atom_site_type_symbol
  _atom_site_fract_x
  _atom_site_fract_y
  _atom_site_fract_z
C1 C 0.16987 0.16810 0.20987
 N2 N 0.15647 0.19499 0.19649
 C3 C 0.16987 0.20847 0.16963
 N4 N 0.19671 0.19508 0.15618
 C5 C 0.21011 0.16818 0.16954
 N6 N 0.19671 0.15471 0.19641
 C7 C -0.16944 0.83186 0.20908
 N8 N -0.15609 0.80499 0.19566
 C9 C -0.16956 0.79156 0.16878
 N10 N -0.19645 0.80496 0.15535
 C11 C -0.20981 0.83183 0.16876
 N12 N -0.19632 0.84526 0.19565
 C13 C -0.17027 0.16848 -0.20911
 N14 N -0.19717 0.15511 -0.19574
 C15 C -0.21058 0.16853 -0.16886
 N16 N -0.19712 0.19536 -0.15539
 C17 C -0.17022 0.20872 -0.16876
 N18 N -0.15682 0.19529 -0.19563
 C19 C 0.16924 0.83155 -0.20955
 N20 N 0.15587 0.80469 -0.19610
 C21 C 0.16932 0.79130 -0.16919
 N22 N 0.19619 0.80473 -0.15575
 C23 C 0.20957 0.83159 -0.16918
 N24 N 0.19611 0.84498 -0.19610
 C25 C 0.16759 1.16974 0.79036
 N26 N 0.15420 1.19660 0.80379
 C27 C 0.16763 1.21000 0.83072
 N28 N 0.19449 1.19657 0.84418
 C29 C 0.20787 1.16971 0.83076
 N30 N 0.19444 1.15632 0.80383
 C31 C 0.83116 0.83137 0.78958
 N32 N 0.84456 0.80452 0.80305
 C33 C 0.83115 0.79112 0.82994
 N34 N 0.80430 0.80453 0.84333
 C35 C 0.79089 0.83138 0.82988
 N36 N 0.80430 0.84477 0.80298
 C37 C 0.16863 0.83019 1.20994
 N38 N 0.15523 0.80330 1.19652
 C39 C 0.16862 0.78988 1.16963
 N40 N 0.19545 0.80332 1.15619
 C41 C 0.20884 0.83020 1.16960
 N42 N 0.19545 0.84361 1.19649
 C43 C 0.83214 1.16949 1.20916
 N44 N 0.80524 1.15614 1.19571
 C45 C 0.79174 1.16964 1.16888
 N46 N 0.80511 1.19654 1.15552
 C47 C 0.83202 1.20990 1.16896
 N48 N 0.84551 1.19639 1.19580
 N49 N 0.46556 0.94275 0.96503
 N50 N 0.44083 0.92283 0.96109
 N51 N 0.53366 0.96536 0.94241
 N52 N 0.55835 0.96148 0.92243
 N53 N 0.53377 0.94285 0.96493
 N54 N 0.55852 0.92300 0.96092
 N55 N 0.46546 0.96527 0.94252
 N56 N 0.44067 0.96132 0.92262
 C57 C 0.42568 0.93476 0.93455
 C58 C 0.57348 0.93498 0.93433
 N59 N 0.53363 1.05759 0.96504
 N60 N 0.55836 1.07749 0.96110
 N61 N 0.46538 1.03502 0.94259
 N62 N 0.44058 1.03897 0.92269
 N63 N 0.46542 1.05750 0.96515
 N64 N 0.44066 1.07737 0.96125
 N65 N 0.53358 1.03512 0.94248
 N66 N 0.55828 1.03909 0.92253
 Mn67 Mn 0.49952 1.00019 0.94210
 C68 C 0.57335 1.06560 0.93449
 C69 C 0.42554 1.06546 0.93468
 N70 N 0.53400 0.94278 1.03484
 N71 N 0.55877 0.92292 1.03875
 N72 N 0.46583 0.96515 1.05751
 N73 N 0.44114 0.96116 1.07747
 N74 N 0.46579 0.94268 1.03495
 N75 N 0.44108 0.92276 1.03890
 N76 N 0.53403 0.96525 1.05741
 N77 N 0.55883 0.96133 1.07731
 Mn78 Mn 0.49978 0.94237 0.99994
 C79 C 0.57389 0.93484 1.06532
 C80 C 0.42608 0.93464 1.06550
 N81 N 0.46564 1.05743 1.03506
 N82 N 0.44088 1.07727 1.03907
 N83 N 0.53394 1.03501 1.05748
 N84 N 0.55876 1.03896 1.07735
 N85 N 0.53384 1.05753 1.03495
 N86 N 0.55858 1.07743 1.03885
 N87 N 0.46574 1.03491 1.05759
 N88 N 0.44105 1.03879 1.07756
 Mn89 Mn 0.49963 1.05790 1.00005
 Mn90 Mn 0.49989 1.00008 1.05789
 Cl91 Cl 0.49970 1.00014 1.00000
 C92 C 0.42592 1.06530 1.06566
 C93 C 0.57375 1.06550 1.06538
 N94 N 0.03515 0.46589 0.05793
 N95 N 0.03910 0.44118 0.07788
 N96 N 0.05767 0.53404 0.03533
 N97 N 0.07758 0.55877 0.03927
 N98 N 0.03518 0.53407 0.05786
 N99 N 0.03915 0.55881 0.07777
 N100 N 0.05763 0.46586 0.03539
 N101 N 0.07751 0.44113 0.03936
 C102 C 0.06560 0.42610 0.06594
 C103 C 0.06567 0.57385 0.06583
 N104 N 0.03506 0.53395 -0.05714
 N105 N 0.03898 0.55868 -0.07708
 N106 N 0.05755 0.46578 -0.03453
 N107 N 0.07742 0.44103 -0.03847
 N108 N 0.03501 0.46578 -0.05708
 N109 N 0.03890 0.44104 -0.07700
 N110 N 0.05759 0.53396 -0.03459
 N111 N 0.07748 0.55870 -0.03853
 Mn112 Mn 0.05800 0.49991 0.00040
 C113 C 0.06552 0.57374 -0.06512
 C114 C 0.06544 0.42598 -0.06504
 N115 N -0.03462 0.53410 0.05782
 N116 N -0.03854 0.55886 0.07771
 N117 N -0.05718 0.46591 0.03533
 N118 N -0.07706 0.44117 0.03927
 N119 N -0.03465 0.46592 0.05789
 N120 N -0.03856 0.44119 0.07782
 N121 N -0.05714 0.53407 0.03525
 N122 N -0.07702 0.55881 0.03915
 Mn123 Mn 0.00027 0.50000 0.05827
 C124 C -0.06507 0.57390 0.06571
 C125 C -0.06510 0.42613 0.06586
 N126 N -0.03477 0.46580 -0.05711
 N127 N -0.03876 0.44105 -0.07701
 N128 N -0.05721 0.53401 -0.03465
 N129 N -0.07709 0.55874 -0.03865
 N130 N -0.03472 0.53397 -0.05718
 N131 N -0.03867 0.55868 -0.07715
 N132 N -0.05725 0.46584 -0.03457
 N133 N -0.07717 0.44113 -0.03849
 Mn134 Mn 0.00015 0.49988 -0.05752
 Mn135 Mn -0.05758 0.49996 0.00034
 Cl136 Cl 0.00021 0.49994 0.00037
 C137 C -0.06529 0.42604 -0.06505
 C138 C -0.06518 0.57375 -0.06523
 N139 N 0.94294 -0.03510 0.46525
 N140 N 0.92309 -0.03905 0.44041
 N141 N 0.96523 -0.05754 0.53369
 N142 N 0.96121 -0.07740 0.55848
 N143 N 0.94274 -0.03504 0.53357
 N144 N 0.92277 -0.03894 0.55827
 N145 N 0.96542 -0.05762 0.46537
 N146 N 0.96150 -0.07754 0.44060
 C147 C 0.93501 -0.06560 0.42540
 C148 C 0.93464 -0.06545 0.57343
 N149 N 1.05755 -0.03510 0.53409
 N150 N 1.07740 -0.03904 0.55894
 N151 N 1.03522 -0.05766 0.46569
 N152 N 1.03920 -0.07758 0.44095
 N153 N 1.05775 -0.03519 0.46576
 N154 N 1.07770 -0.03917 0.44106
 N155 N 1.03503 -0.05759 0.53402
 N156 N 1.03892 -0.07747 0.55882
 Mn157 Mn 1.00023 -0.05799 0.49969
 C158 C 1.06543 -0.06555 0.57399
 C159 C 1.06578 -0.06570 0.42596
 N160 N 0.94279 0.03471 0.53348
 N161 N 0.92283 0.03866 0.55818
 N162 N 0.96553 0.05713 0.46525
 N163 N 0.96165 0.07703 0.44047
 N164 N 0.94300 0.03465 0.46516
 N165 N 0.92315 0.03862 0.44032
 N166 N 0.96531 0.05720 0.53357
 N167 N 0.96131 0.07709 0.55834
 Mn168 Mn 0.94248 -0.00019 0.49936
 C169 C 0.93473 0.06518 0.57330
 C170 C 0.93514 0.06513 0.42528
 N171 N 1.05780 0.03458 0.46570
 N172 N 1.07778 0.03848 0.44100
 N173 N 1.03510 0.05717 0.53388
 N174 N 1.03898 0.07711 0.55863
 N175 N 1.05759 0.03467 0.53402
 N176 N 1.07742 0.03867 0.55889
 N177 N 1.03531 0.05709 0.46556
 N178 N 1.03935 0.07694 0.44078
 Mn179 Mn 1.05807 -0.00026 0.49990
 Mn180 Mn 1.00031 0.05754 0.49957
 Cl181 Cl 1.00027 -0.00023 0.49963
 C182 C 1.06592 0.06499 0.42583
 C183 C 1.06546 0.06522 0.57386
 C184 C 1.08636 0.12388 0.31807
 C185 C 1.11443 0.14879 0.31735
 C186 C 1.13070 0.12901 0.29032
 C187 C 1.10284 0.10432 0.29058
 C188 C 1.10534 0.10393 0.34318
 C189 C 1.12160 0.08414 0.31615
 C190 C 1.13319 0.12862 0.34292
 C191 C 1.14967 0.10905 0.31543
 C192 C 1.14488 0.14309 0.26096
 C193 C 1.15661 0.15479 0.23689
 C194 C 1.09126 0.09002 0.37267
 C195 C 1.07969 0.07860 0.39694
 H196 H 1.06017 0.12983 0.31948
 H197 H 1.11164 0.17553 0.31752
 H198 H 1.09052 0.09448 0.26872
 H199 H 1.12438 0.05740 0.31599
 H200 H 1.14551 0.13846 0.36476
 H201 H 1.17586 0.10310 0.31402
 C202 C 0.87512 -0.08537 0.31803
 C203 C 0.89448 -0.10125 0.29003
 C204 C 0.87005 -0.12933 0.28964
 C205 C 0.85048 -0.11367 0.31717
 C206 C 0.89562 -0.10449 0.34259
 C207 C 0.87120 -0.13257 0.34218
 C208 C 0.91520 -0.12015 0.31506
 C209 C 0.89055 -0.14845 0.31420
 C210 C 0.85573 -0.14329 0.26024
 C211 C 0.84391 -0.15490 0.23614
 C212 C 0.90978 -0.09067 0.37213
 C213 C 0.92133 -0.07927 0.39645
 H214 H 0.86894 -0.05927 0.31993
 H215 H 0.90388 -0.08853 0.26826
 H216 H 0.82370 -0.11115 0.31770
 H217 H 0.86179 -0.14529 0.36395
 H218 H 0.94198 -0.12266 0.31453
 H219 H 0.89674 -0.17454 0.31230
 C220 C 0.85985 0.09941 0.66641
 C221 C 0.87155 0.09246 0.70148
 C222 C 0.86978 0.12889 0.70886
 C223 C 0.85785 0.13605 0.67425
 C224 C 0.89527 0.10402 0.65597
 C225 C 0.89349 0.14045 0.66335
 C226 C 0.90720 0.09686 0.69058
 C227 C 0.90520 0.13351 0.69842
 C228 C 0.85552 0.14286 0.73823
 C229 C 0.84376 0.15448 0.76232
 C230 C 0.90940 0.09020 0.62647
 C231 C 0.92098 0.07881 0.60219
 H232 H 0.84135 0.08523 0.65292
 H233 H 0.86237 0.07289 0.71749
 H234 H 0.83740 0.15232 0.66786
 H235 H 0.90267 0.16002 0.64735
 H236 H 0.92765 0.08059 0.69695
 H237 H 0.92369 0.14768 0.71191
 C238 C 1.09039 -0.10046 0.69104
 C239 C 1.09574 -0.13709 0.69721
 C240 C 1.12997 -0.12956 0.70983
 C241 C 1.12485 -0.09315 0.70413
 C242 C 1.10462 -0.10455 0.65685
 C243 C 1.13885 -0.09702 0.66947
 C244 C 1.10974 -0.14096 0.66255
 C245 C 1.14419 -0.13364 0.67563
 C246 C 1.14417 -0.14358 0.73925
 C247 C 1.15593 -0.15522 0.76337
 C248 C 1.09058 -0.09066 0.62729
 C249 C 1.07908 -0.07922 0.60296
 H250 H 1.06811 -0.08666 0.69705
 H251 H 1.07816 -0.15373 0.70894
 H252 H 1.13122 -0.07364 0.72155
 H253 H 1.15642 -0.08038 0.65774
 H254 H 1.10337 -0.16047 0.64514
 H255 H 1.16647 -0.14744 0.66961
 C256 C 0.31619 1.12043 1.08527
 C257 C 0.29082 1.10151 1.10546
 C258 C 0.29050 1.12925 1.13031
 C259 C 0.31541 1.14839 1.11034
 C260 C 0.34333 1.10420 1.10499
 C261 C 0.34299 1.13194 1.12984
 C262 C 0.31842 1.08506 1.12496
 C263 C 0.31763 1.11302 1.15003
 C264 C 0.26117 1.14330 1.14449
 C265 C 0.23712 1.15495 1.15624
 C266 C 0.37279 1.09031 1.09094
 C267 C 0.39705 1.07890 1.07940
 H268 H 0.31593 1.12333 1.05848
 H269 H 0.26904 1.08915 1.09559
 H270 H 0.31385 1.17459 1.10449
 H271 H 0.36477 1.14430 1.13972
 H272 H 0.31998 1.05886 1.13081
 H273 H 0.31790 1.11012 1.17682
 C274 C 0.31458 0.91561 0.88173
 C275 C 0.31353 0.89298 0.85175
 C276 C 0.29007 0.87061 0.87003
 C277 C 0.29065 0.89302 0.89980
 C278 C 0.34296 0.89570 0.89534
 C279 C 0.31950 0.87333 0.91363
 C280 C 0.34237 0.87329 0.86558
 C281 C 0.31845 0.85070 0.88365
 C282 C 0.26069 0.85654 0.85585
 C283 C 0.23661 0.84486 0.84411
 C284 C 0.37247 0.90963 0.90937
 C285 C 0.39676 0.92108 0.92087
 H286 H 0.31332 0.94246 0.88111
 H287 H 0.31075 0.90091 0.82615
 H288 H 0.26906 0.90098 0.91371
 H289 H 0.32228 0.86540 0.93923
 H290 H 0.36395 0.86533 0.85166
 H291 H 0.31971 0.82385 0.88428
 C292 C 0.65738 0.87386 1.13449
 C293 C 0.68101 0.85089 1.11654
 C294 C 0.70963 0.87080 1.12965
 C295 C 0.68645 0.89356 1.14782
 C296 C 0.65668 0.89587 1.10444
 C297 C 0.68530 0.91580 1.11755
 C298 C 0.67986 0.87312 1.08626
 C299 C 0.70894 0.89282 1.09960
 C300 C 0.73903 0.85674 1.14378
 C301 C 0.76313 0.84508 1.15549
 C302 C 0.62715 0.90978 1.09045
 C303 C 0.60283 0.92121 1.07897
 H304 H 0.63586 0.86621 1.14869
 H305 H 0.67957 0.82404 1.11628
 H306 H 0.68949 0.90181 1.17329
 H307 H 0.68673 0.94264 1.11781
 H308 H 0.67682 0.86487 1.06080
 H309 H 0.73047 0.90047 1.08541
 C310 C 0.69014 1.10046 0.90967
 C311 C 0.70317 1.09323 0.87517
 C312 C 0.70889 1.12965 0.87015
 C313 C 0.69632 1.13710 0.90443
 C314 C 0.65600 1.10461 0.89535
 C315 C 0.66172 1.14103 0.89033
 C316 C 0.66857 1.09716 0.86107
 C317 C 0.67474 1.13380 0.85583
 C318 C 0.73827 1.14369 0.85604
 C319 C 0.76236 1.15533 0.84437
 C320 C 0.62650 1.09070 0.90933
 C321 C 0.60223 1.07926 0.92081
 H322 H 0.69614 1.08659 0.93197
 H323 H 0.72054 1.07373 0.86879
 H324 H 0.70806 1.15368 0.92211
 H325 H 0.64435 1.16053 0.89671
 H326 H 0.65683 1.08058 0.84340
 H327 H 0.66874 1.14766 0.83354
 C328 C 0.11062 0.33802 0.14143
 C329 C 0.09610 0.30356 0.13817
 C330 C 0.13000 0.29054 0.13003
 C331 C 0.14473 0.32454 0.13350
 C332 C 0.10475 0.34343 0.10500
 C333 C 0.13864 0.33041 0.09686
 C334 C 0.09001 0.30943 0.10152
 C335 C 0.12413 0.29595 0.09359
 C336 C 0.14415 0.26115 0.14405
 C337 C 0.15585 0.23706 0.15567
 C338 C 0.09074 0.37294 0.09109
 C339 C 0.07926 0.39721 0.07964
 H340 H 0.10490 0.35565 0.16094
 H341 H 0.07877 0.29219 0.15531
 H342 H 0.16738 0.33043 0.14681
 H343 H 0.15598 0.34178 0.07972
 H344 H 0.06735 0.30356 0.08821
 H345 H 0.12984 0.27832 0.07408
 C346 C -0.08518 0.31666 -0.12097
 C347 C -0.10464 0.29093 -0.10178
 C348 C -0.13013 0.29061 -0.12900
 C349 C -0.11089 0.31588 -0.14840
 C350 C -0.10468 0.34343 -0.10399
 C351 C -0.13017 0.34310 -0.13121
 C352 C -0.12392 0.31816 -0.08458
 C353 C -0.14963 0.31738 -0.11202
 C354 C -0.14438 0.26128 -0.14303
 C355 C -0.15615 0.23724 -0.15470
 C356 C -0.09057 0.37290 -0.09011
 C357 C -0.07902 0.39716 -0.07870
 H358 H -0.05851 0.31671 -0.12449
 H359 H -0.09431 0.26915 -0.08983
 H360 H -0.10568 0.31462 -0.17480
 H361 H -0.14051 0.36488 -0.14316
 H362 H -0.12912 0.31943 -0.05818
 H363 H -0.17629 0.31734 -0.10849
 C364 C 0.11429 0.68648 -0.08451
 C365 C 0.14647 0.68808 -0.10377
 C366 C 0.12962 0.70930 -0.12937
 C367 C 0.09766 0.70815 -0.11033
 C368 C 0.10452 0.65641 -0.10421
 C369 C 0.08767 0.67763 -0.12980
 C370 C 0.13648 0.65757 -0.12325
 C371 C 0.11985 0.67923 -0.14906
 C372 C 0.14369 0.73867 -0.14347
 C373 C 0.15534 0.76274 -0.15516
 C374 C 0.09059 0.62691 -0.09025
 C375 C 0.07915 0.60263 -0.07879
 H376 H 0.11185 0.68912 -0.05781
 H377 H 0.17080 0.69271 -0.09322
 H378 H 0.08186 0.72928 -0.10517
 H379 H 0.06334 0.67300 -0.14035
 H380 H 0.15228 0.63644 -0.12841
 H381 H 0.12229 0.67658 -0.17575
 C382 C -0.14049 0.66106 0.11199
 C383 C -0.13125 0.67593 0.14526
 C384 C -0.12969 0.70951 0.12927
 C385 C -0.13915 0.69509 0.09621
 C386 C -0.10432 0.65660 0.10446
 C387 C -0.10275 0.69018 0.08846
 C388 C -0.09486 0.67102 0.13752
 C389 C -0.09351 0.70505 0.12174
 C390 C -0.14388 0.73889 0.14321
 C391 C -0.15559 0.76298 0.15480
 C392 C -0.09025 0.62709 0.09067
 C393 C -0.07874 0.60280 0.07932
 H394 H -0.15965 0.64264 0.10783
 H395 H -0.14313 0.67040 0.16878
 H396 H -0.15751 0.70532 0.07937
 H397 H -0.09087 0.69570 0.06495
 H398 H -0.07649 0.66079 0.15435
 H399 H -0.07435 0.72347 0.12590
 C400 C 1.09217 0.09750 0.69126
 C401 C 1.12785 0.09390 0.70244
 C402 C 1.12883 0.13039 0.70970
 C403 C 1.09337 0.13421 0.69899
 C404 C 1.10410 0.10479 0.65671
 C405 C 1.10507 0.14127 0.66398
 C406 C 1.13956 0.10097 0.66743
 C407 C 1.14075 0.13767 0.67515
 C408 C 1.14274 0.14469 0.73913
 C409 C 1.15434 0.15647 0.76326
 C410 C 1.09035 0.09060 0.62716
 C411 C 1.07903 0.07898 0.60282
 H412 H 1.07204 0.08082 0.69755
 H413 H 1.13737 0.07458 0.71858
 H414 H 1.07453 0.14803 0.71229
 H415 H 1.09556 0.16059 0.64784
 H416 H 1.15840 0.08715 0.65413
 H417 H 1.16088 0.15435 0.66885
 C418 C 0.88918 -0.08552 0.68762
 C419 C 0.85523 -0.10139 0.68990
 C420 C 0.87021 -0.12961 0.70904
 C421 C 0.90394 -0.11396 0.70723
 C422 C 0.89539 -0.10445 0.65613
 C423 C 0.91037 -0.13267 0.67528
 C424 C 0.86167 -0.12010 0.65796
 C425 C 0.87643 -0.14853 0.67755
 C426 C 0.85610 -0.14370 0.73843
 C427 C 0.84441 -0.15539 0.76252
 C428 C 0.90939 -0.09050 0.62662
 C429 C 0.92090 -0.07906 0.60234
 H430 H 0.89457 -0.05945 0.69142
 H431 H 0.83240 -0.08868 0.69624
 H432 H 0.92116 -0.11159 0.72782
 H433 H 0.93321 -0.14537 0.66894
 H434 H 0.84444 -0.12247 0.63737
 H435 H 0.87104 -0.17459 0.67374
 C436 C 1.09289 -0.09785 0.30872
 C437 C 1.12858 -0.09405 0.29772
 C438 C 1.12976 -0.13053 0.29045
 C439 C 1.09429 -0.13455 0.30099
 C440 C 1.10479 -0.10508 0.34332
 C441 C 1.10598 -0.14156 0.33605
 C442 C 1.14026 -0.10106 0.33278
 C443 C 1.14165 -0.13776 0.32505
 C444 C 1.14376 -0.14477 0.26108
 C445 C 1.15539 -0.15653 0.23699
 C446 C 1.09091 -0.09097 0.37281
 C447 C 1.07948 -0.07942 0.39708
 H448 H 1.07268 -0.08128 0.30234
 H449 H 1.13802 -0.07467 0.28163
 H450 H 1.07555 -0.14847 0.28759
 H451 H 1.09653 -0.16094 0.35214
 H452 H 1.15900 -0.08714 0.34618
 H453 H 1.16186 -0.15433 0.33145
 C454 C 0.86807 0.12888 0.34214
 C455 C 0.88687 0.14966 0.31717
 C456 C 0.87121 0.13005 0.28960
 C457 C 0.85219 0.10948 0.31413
 C458 C 0.89623 0.10456 0.34250
 C459 C 0.88057 0.08494 0.31494
 C460 C 0.91526 0.12512 0.31798
 C461 C 0.89938 0.10573 0.28995
 C462 C 0.85715 0.14433 0.26024
 C463 C 0.84546 0.15614 0.23617
 C464 C 0.91011 0.09043 0.37202
 C465 C 0.92152 0.07887 0.39633
 H466 H 0.85534 0.13824 0.36393
 H467 H 0.88931 0.17643 0.31776
 H468 H 0.82610 0.10321 0.31222
 H469 H 0.87814 0.05817 0.31435
 H470 H 0.94135 0.13139 0.31989
 H471 H 0.91210 0.09638 0.26816
 C472 C 0.11451 0.33996 -0.14009
 C473 C 0.14624 0.32338 -0.12876
 C474 C 0.12893 0.29045 -0.12995
 C475 C 0.09741 0.30658 -0.14150
 C476 C 0.10415 0.34332 -0.10445
 C477 C 0.08683 0.31040 -0.10563
 C478 C 0.13567 0.32719 -0.09290
 C479 C 0.11857 0.29381 -0.09430
 C480 C 0.14284 0.26109 -0.14421
 C481 C 0.15443 0.23703 -0.15599
 C482 C 0.09039 0.37281 -0.09031
 C483 C 0.07904 0.39709 -0.07875
 H484 H 0.11270 0.35926 -0.15876
 H485 H 0.17083 0.32839 -0.13843
 H486 H 0.08182 0.29778 -0.16163
 H487 H 0.06224 0.30540 -0.09596
 H488 H 0.15126 0.33600 -0.07276
 H489 H 0.12039 0.27451 -0.07564
 C490 C -0.09710 0.33112 0.13944
 C491 C -0.13379 0.32465 0.14400
 C492 C -0.12909 0.29048 0.13004
 C493 C -0.09262 0.29648 0.12569
 C494 C -0.10404 0.34341 0.10492
 C495 C -0.09934 0.30923 0.09095
 C496 C -0.14052 0.33739 0.10927
 C497 C -0.13603 0.30276 0.09552
 C498 C -0.14313 0.26108 0.14410
 C499 C -0.15477 0.23697 0.15575
 C500 C -0.09014 0.37293 0.09098
 C501 C -0.07872 0.39722 0.07952
 H502 H -0.08094 0.34311 0.15734
 H503 H -0.14812 0.33067 0.16597
 H504 H -0.07307 0.27933 0.13259
 H505 H -0.08501 0.30322 0.06898
 H506 H -0.16006 0.35454 0.10236
 H507 H -0.15219 0.29077 0.07761
 C508 C -0.13354 0.67446 -0.09074
 C509 C -0.11524 0.70688 -0.09548
 C510 C -0.12917 0.70918 -0.13002
 C511 C -0.14767 0.67721 -0.12549
 C512 C -0.10414 0.65634 -0.10462
 C513 C -0.11806 0.65864 -0.13915
 C514 C -0.08563 0.68831 -0.10914
 C515 C -0.09977 0.69106 -0.14389
 C516 C -0.14320 0.73852 -0.14423
 C517 C -0.15485 0.76258 -0.15599
 C518 C -0.09025 0.62687 -0.09054
 C519 C -0.07883 0.60262 -0.07898
 H520 H -0.14726 0.66729 -0.06873
 H521 H -0.11424 0.72705 -0.07769
 H522 H -0.17334 0.67297 -0.13237
 H523 H -0.11907 0.63848 -0.15695
 H524 H -0.05996 0.69254 -0.10226
 H525 H -0.08604 0.69822 -0.16590
 C526 C 0.09141 0.67373 0.13533
 C527 C 0.12647 0.67696 0.14843
 C528 C 0.12971 0.70939 0.13042
 C529 C 0.09486 0.70661 0.11754
 C530 C 0.10469 0.65651 0.10508
 C531 C 0.10792 0.68894 0.08707
 C532 C 0.13953 0.65930 0.11796
 C533 C 0.14298 0.69218 0.10017
 C534 C 0.14374 0.73876 0.14462
 C535 C 0.15538 0.76284 0.15635
 C536 C 0.09079 0.62702 0.09103
 C537 C 0.07935 0.60274 0.07951
 H538 H 0.07006 0.66581 0.14962
 H539 H 0.13426 0.67236 0.17381
 H540 H 0.07665 0.72639 0.11753
 H541 H 0.10013 0.69352 0.06168
 H542 H 0.15775 0.63952 0.11798
 H543 H 0.16433 0.70009 0.08587
 C544 C 0.32237 1.13107 0.91201
 C545 C 0.32051 1.14924 0.87915
 C546 C 0.28989 1.12984 0.87057
 C547 C 0.29130 1.11189 0.90321
 C548 C 0.34280 1.10460 0.89567
 C549 C 0.31220 1.08520 0.88709
 C550 C 0.34139 1.12255 0.86303
 C551 C 0.31033 1.10337 0.85424
 C552 C 0.26052 1.14398 0.85649
 C553 C 0.23644 1.15569 0.84480
 C554 C 0.37232 1.09061 0.90959
 C555 C 0.39662 1.07912 0.92103
 H556 H 0.32766 1.14230 0.93592
 H557 H 0.32359 1.17573 0.87574
 H558 H 0.27038 1.10766 0.91957
 H559 H 0.30912 1.05871 0.89050
 H560 H 0.36231 1.12678 0.84667
 H561 H 0.30504 1.09214 0.83033
 C562 C 0.34318 0.87123 1.13296
 C563 C 0.31529 0.89075 1.14874
 C564 C 0.29073 0.87013 1.12976
 C565 C 0.31817 0.85040 1.11420
 C566 C 0.34353 0.89541 1.10462
 C567 C 0.31896 0.87479 1.08564
 C568 C 0.31608 0.91515 1.12018
 C569 C 0.29106 0.89431 1.10142
 C570 C 0.26140 0.85597 1.14386
 C571 C 0.23737 0.84424 1.15556
 C572 C 0.37298 0.90943 1.09066
 C573 C 0.39722 0.92094 1.07919
 H574 H 0.36494 0.86190 1.14577
 H575 H 0.31345 0.89715 1.17484
 H576 H 0.31871 0.82362 1.11189
 H577 H 0.32081 0.86839 1.05954
 H578 H 0.31556 0.94193 1.12248
 H579 H 0.26930 0.90364 1.08861
 C580 C 0.65772 1.12444 1.13580
 C581 C 0.68799 1.10498 1.14650
 C582 C 0.70957 1.12988 1.12920
 C583 C 0.67975 1.14956 1.11871
 C584 C 0.65659 1.10465 1.10424
 C585 C 0.67817 1.12955 1.08693
 C586 C 0.68640 1.08497 1.11472
 C587 C 0.70845 1.11009 1.09764
 C588 C 0.73900 1.14400 1.14321
 C589 C 0.76312 1.15567 1.15486
 C590 C 0.62703 1.09065 1.09038
 C591 C 0.60270 1.07917 1.07899
 H592 H 0.63654 1.13018 1.15134
 H593 H 0.69236 1.09502 1.17115
 H594 H 0.67735 1.17628 1.12050
 H595 H 0.67379 1.13950 1.06228
 H596 H 0.68880 1.05825 1.11293
 H597 H 0.72964 1.10435 1.08210
 C598 C 0.66711 0.90133 0.85980
 C599 C 0.70202 0.90755 0.87220
 C600 C 0.70893 0.87107 0.86973
 C601 C 0.67447 0.86464 0.85712
 C602 C 0.65608 0.89610 0.89502
 C603 C 0.66299 0.85962 0.89254
 C604 C 0.69054 0.90253 0.90764
 C605 C 0.69790 0.86583 0.90495
 C606 C 0.73828 0.85703 0.85559
 C607 C 0.76234 0.84538 0.84388
 C608 C 0.62661 0.90998 0.90905
 C609 C 0.60235 0.92138 0.92058
 H610 H 0.65412 0.91608 0.84140
 H611 H 0.71840 0.92710 0.86369
 H612 H 0.66819 0.84890 0.83618
 H613 H 0.64662 0.84007 0.90106
 H614 H 0.69681 0.91827 0.92858
 H615 H 0.71090 0.85109 0.92336
   
