data_POSCAR
  _audit_creation_date              2014-09-24
  _audit_creation_method            'ToBaCCo'
  _symmetry_space_group_name_H-M    'P1'
  _symmetry_Int_Tables_number       1
  _symmetry_cell_setting            triclinic
  loop_
  _symmetry_equiv_pos_as_xyz
 x,y,z
_cell_length_a 27.4944
_cell_length_b 27.4351
_cell_length_c 27.3050
_cell_angle_alpha 89.840300
_cell_angle_beta 90.164300
_cell_angle_gamma 89.998600
loop_
  _atom_site_label
  _atom_site_type_symbol
  _atom_site_fract_x
  _atom_site_fract_y
  _atom_site_fract_z
O1 O 0.56847 0.12322 0.00453
 O2 O 0.62249 0.05964 0.00147
 C3 C 0.61239 0.10582 0.00382
 O4 O 0.43275 -0.00321 0.12460
 O5 O 0.37869 0.00014 0.06059
 C6 C 0.38882 -0.00243 0.10699
 O7 O 0.56870 0.00324 0.12466
 O8 O 0.62250 0.00027 0.06095
 C9 C 0.61276 0.00252 0.10746
 O10 O 0.43259 0.12327 -0.00202
 O11 O 0.37857 0.05967 0.00111
 C12 C 0.38867 0.10586 -0.00135
 Zr13 Zr 0.50052 0.08723 0.00135
 O14 O 0.49512 0.14125 0.05631
 O15 O 0.50590 0.14184 -0.05331
 Zr16 Zr 0.50067 0.00014 0.08853
 O17 O 0.49527 0.05450 0.14313
 O18 O 0.50629 -0.05452 0.14316
 O19 O 0.54425 0.05049 0.05185
 O20 O 0.45823 0.05001 0.05127
 O21 O 0.43225 0.00389 -0.12211
 O22 O 0.37844 0.00060 -0.05820
 C23 C 0.38840 0.00310 -0.10458
 O24 O 0.56845 -0.12243 -0.00196
 O25 O 0.62248 -0.05886 0.00131
 C26 C 0.61237 -0.10503 -0.00121
 O27 O 0.43259 -0.12247 0.00435
 O28 O 0.37856 -0.05888 0.00120
 C29 C 0.38867 -0.10507 0.00356
 O30 O 0.56815 -0.00252 -0.12202
 O31 O 0.62231 0.00050 -0.05810
 C32 C 0.61210 -0.00185 -0.10449
 Zr33 Zr 0.50031 0.00068 -0.08593
 O34 O 0.49470 -0.05355 -0.14069
 O35 O 0.50571 0.05550 -0.14040
 Zr36 Zr 0.50052 -0.08644 0.00130
 O37 O 0.49493 -0.14071 -0.05341
 O38 O 0.50615 -0.14081 0.05622
 Zr39 Zr 0.57343 0.00039 0.00136
 Zr40 Zr 0.42760 0.00039 0.00123
 O41 O 0.45807 -0.04923 -0.04874
 O42 O 0.54401 -0.04970 -0.04916
 O43 O 0.45678 0.05081 -0.04920
 O44 O 0.54298 -0.04951 0.05133
 O45 O 0.54276 0.05031 -0.04864
 O46 O 0.45698 -0.05002 0.05174
 H47 H 0.43654 0.07032 0.07172
 H48 H 0.56476 -0.06994 0.07181
 H49 H 0.43634 -0.06956 -0.06926
 H50 H 0.56444 0.07074 -0.06910
 H51 H 0.47908 -0.07758 0.13818
 H52 H 0.47875 -0.13618 0.07913
 H53 H 0.52199 -0.13565 -0.07666
 H54 H 0.52176 -0.07678 -0.13561
 H55 H 0.47822 0.07825 -0.13576
 H56 H 0.47885 0.13680 -0.07670
 H57 H 0.52263 0.13648 0.07924
 H58 H 0.52253 0.07752 0.13828
 O59 O 0.00345 0.43246 -0.12456
 O60 O 0.00038 0.37831 -0.06053
 C61 C 0.00272 0.38847 -0.10692
 O62 O 0.12350 0.56854 0.00202
 O63 O 0.05962 0.62242 -0.00006
 C64 C 0.10557 0.61228 0.00188
 O65 O 0.12343 0.43216 -0.00428
 O66 O 0.05949 0.37835 -0.00246
 C67 C 0.10546 0.38844 -0.00416
 O68 O -0.00292 0.56858 -0.12475
 O69 O 0.00038 0.62258 -0.06110
 C70 C -0.00212 0.61274 -0.10759
 Zr71 Zr 0.00036 0.50050 -0.08855
 O72 O 0.05470 0.50611 -0.14307
 O73 O -0.05406 0.49502 -0.14328
 Zr74 Zr 0.08726 0.50037 -0.00126
 O75 O 0.14112 0.50595 -0.05627
 O76 O 0.14147 0.49476 0.05371
 O77 O 0.05054 0.45677 -0.05169
 O78 O 0.05013 0.54295 -0.05134
 O79 O -0.12246 0.56871 -0.00476
 O80 O -0.05851 0.62251 -0.00298
 C81 C -0.10448 0.61243 -0.00471
 O82 O -0.00260 0.43224 0.12206
 O83 O 0.00045 0.37819 0.05826
 C84 C -0.00194 0.38829 0.10461
 O85 O 0.00391 0.56825 0.12185
 O86 O 0.00069 0.62252 0.05791
 C87 C 0.00317 0.61226 0.10430
 O88 O -0.12253 0.43231 0.00197
 O89 O -0.05865 0.37843 0.00025
 C90 C -0.10460 0.38856 0.00203
 Zr91 Zr -0.08629 0.50047 -0.00151
 O92 O -0.14042 0.50596 0.05320
 O93 O -0.14023 0.49503 -0.05674
 Zr94 Zr 0.00062 0.50031 0.08582
 O95 O -0.05366 0.50586 0.14038
 O96 O 0.05512 0.49462 0.14050
 Zr97 Zr 0.00045 0.42735 -0.00123
 Zr98 Zr 0.00052 0.57350 -0.00150
 O99 O -0.04911 0.54286 0.04845
 O100 O -0.04962 0.45674 0.04910
 O101 O -0.04971 0.54418 -0.05199
 O102 O 0.05025 0.45785 0.04873
 O103 O -0.04931 0.45799 -0.05132
 O104 O 0.05073 0.54399 0.04909
 H105 H 0.07040 0.56486 -0.07173
 H106 H 0.07058 0.43594 0.06919
 H107 H -0.06939 0.56469 0.06879
 H108 H -0.06967 0.43614 -0.07167
 H109 H 0.13645 0.52191 0.07691
 H110 H 0.07798 0.52205 0.13578
 H111 H -0.07658 0.47849 0.13566
 H112 H -0.13521 0.47891 0.07665
 H113 H -0.13559 0.52268 -0.07957
 H114 H -0.07705 0.52231 -0.13850
 H115 H 0.07754 0.47865 -0.13828
 H116 H 0.13625 0.47853 -0.07920
 O117 O -0.12379 -0.00396 0.56817
 O118 O -0.05973 -0.00183 0.62222
 C119 C -0.10571 -0.00370 0.61207
 O120 O 0.00249 -0.12402 0.43187
 O121 O 0.00028 -0.05993 0.37763
 C122 C 0.00226 -0.10594 0.38794
 O123 O -0.00389 -0.12414 0.56874
 O124 O -0.00171 -0.05999 0.62249
 C125 C -0.00363 -0.10603 0.61253
 O126 O -0.12375 0.00233 0.43119
 O127 O -0.05985 0.00022 0.37727
 C128 C -0.10580 0.00213 0.38732
 Zr129 Zr -0.08762 -0.00090 0.49982
 O130 O -0.14154 -0.05573 0.49428
 O131 O -0.14172 0.05375 0.50506
 Zr132 Zr -0.00076 -0.08788 0.50027
 O133 O -0.05539 -0.14201 0.49469
 O134 O 0.05380 -0.14206 0.50613
 O135 O -0.05089 -0.05112 0.54385
 O136 O -0.05048 -0.05068 0.45735
 O137 O -0.00406 0.12226 0.43122
 O138 O -0.00195 0.05820 0.37730
 C139 C -0.00385 0.10422 0.38739
 O140 O 0.12163 0.00243 0.56923
 O141 O 0.05764 0.00036 0.62320
 C142 C 0.10360 0.00224 0.61313
 O143 O 0.12213 -0.00406 0.43187
 O144 O 0.05820 -0.00200 0.37757
 C145 C 0.10416 -0.00386 0.38790
 O146 O 0.00253 0.12170 0.56857
 O147 O 0.00049 0.05756 0.62287
 C148 C 0.00236 0.10360 0.61254
 Zr149 Zr -0.00078 0.08607 0.49978
 O150 O 0.05369 0.14035 0.49423
 O151 O -0.05516 0.14042 0.50513
 Zr152 Zr 0.08601 -0.00085 0.50024
 O153 O 0.14013 0.05378 0.49471
 O154 O 0.14024 -0.05537 0.50616
 Zr155 Zr -0.00069 -0.00082 0.57316
 Zr156 Zr -0.00081 -0.00088 0.42664
 O157 O 0.04888 0.04891 0.45731
 O158 O 0.04945 0.04945 0.54372
 O159 O -0.05097 0.04935 0.45596
 O160 O 0.04898 -0.05067 0.54291
 O161 O -0.05047 0.04894 0.54238
 O162 O 0.04935 -0.05112 0.45648
 H163 H -0.07071 -0.07096 0.43529
 H164 H 0.06922 -0.07089 0.56512
 H165 H 0.06911 0.06920 0.43527
 H166 H -0.07064 0.06923 0.56436
 H167 H 0.07674 -0.13714 0.47873
 H168 H 0.13530 -0.07846 0.47885
 H169 H 0.13532 0.07668 0.52217
 H170 H 0.07659 0.13550 0.52181
 H171 H -0.07827 0.13544 0.47778
 H172 H -0.13681 0.07675 0.47757
 H173 H -0.13684 -0.07847 0.52206
 H174 H -0.07825 -0.13715 0.52214
 C175 C -0.31892 0.22554 0.00889
 C176 C -0.27060 0.20998 0.00622
 C177 C -0.26020 0.16008 0.00329
 C178 C -0.29811 0.12591 0.00279
 C179 C -0.34691 0.14135 0.00515
 C180 C -0.35675 0.19162 0.00838
 C181 C -0.23223 0.24578 0.00591
 C182 C -0.20152 0.27720 0.00542
 C183 C -0.16691 0.31528 0.00457
 C184 C -0.13819 0.34850 0.00357
 H185 H -0.32744 0.26403 0.01116
 H186 H -0.22288 0.14761 0.00118
 H187 H -0.28922 0.08754 0.00030
 H188 H -0.39376 0.20494 0.01034
 C189 C 0.26125 0.84069 0.00272
 C190 C 0.27165 0.79078 0.00583
 C191 C 0.31998 0.77521 0.00870
 C192 C 0.35781 0.80912 0.00821
 C193 C 0.34797 0.85940 0.00482
 C194 C 0.29917 0.87486 0.00225
 C195 C 0.23326 0.75500 0.00553
 C196 C 0.20254 0.72360 0.00507
 C197 C 0.16791 0.68555 0.00427
 C198 C 0.13916 0.65234 0.00334
 H199 H 0.22393 0.85318 0.00045
 H200 H 0.32849 0.73670 0.01111
 H201 H 0.39483 0.79578 0.01033
 H202 H 0.29028 0.91324 -0.00038
 C203 C 0.31994 0.22556 -0.00721
 C204 C 0.27159 0.20995 -0.00525
 C205 C 0.26121 0.16003 -0.00236
 C206 C 0.29915 0.12589 -0.00126
 C207 C 0.34796 0.14138 -0.00299
 C208 C 0.35780 0.19168 -0.00610
 C209 C 0.23318 0.24570 -0.00570
 C210 C 0.20243 0.27709 -0.00585
 C211 C 0.16777 0.31513 -0.00569
 C212 C 0.13903 0.34835 -0.00522
 H213 H 0.32845 0.26407 -0.00943
 H214 H 0.22387 0.14751 -0.00079
 H215 H 0.29026 0.08750 0.00111
 H216 H 0.39482 0.20504 -0.00757
 C217 C -0.26017 0.84084 -0.00252
 C218 C -0.27057 0.79093 -0.00543
 C219 C -0.31893 0.77532 -0.00724
 C220 C -0.35678 0.80919 -0.00600
 C221 C -0.34693 0.85947 -0.00289
 C222 C -0.29810 0.87497 -0.00129
 C223 C -0.23216 0.75519 -0.00604
 C224 C -0.20142 0.72381 -0.00631
 C225 C -0.16678 0.68575 -0.00625
 C226 C -0.13804 0.65252 -0.00581
 H227 H -0.22283 0.85336 -0.00106
 H228 H -0.32745 0.73682 -0.00946
 H229 H -0.39381 0.79582 -0.00738
 H230 H -0.28920 0.91334 0.00107
 C231 C 0.00234 -0.26040 0.15866
 C232 C 0.00610 -0.27104 0.20872
 C233 C 0.00943 -0.31944 0.22439
 C234 C 0.00874 -0.35721 0.19035
 C235 C 0.00467 -0.34715 0.13991
 C236 C 0.00167 -0.29826 0.12437
 C237 C 0.00586 -0.23282 0.24460
 C238 C 0.00543 -0.20228 0.27617
 C239 C 0.00463 -0.16794 0.31443
 C240 C 0.00369 -0.13940 0.34782
 H241 H -0.00030 -0.22297 0.14619
 H242 H 0.01233 -0.32805 0.26305
 H243 H 0.01123 -0.39432 0.20371
 H244 H -0.00148 -0.28926 0.08585
 C245 C 0.00808 0.31920 0.77349
 C246 C 0.00567 0.27090 0.78967
 C247 C 0.00270 0.26072 0.83984
 C248 C 0.00196 0.29888 0.87374
 C249 C 0.00411 0.34767 0.85772
 C250 C 0.00733 0.35731 0.80717
 C251 C 0.00562 0.23223 0.75428
 C252 C 0.00531 0.20115 0.72324
 C253 C 0.00463 0.16615 0.68557
 C254 C 0.00376 0.13719 0.65254
 H255 H 0.01036 0.32745 0.73472
 H256 H 0.00077 0.22338 0.85270
 H257 H -0.00051 0.29018 0.91236
 H258 H 0.00912 0.39434 0.79347
 C259 C -0.00798 0.31918 0.22460
 C260 C -0.00579 0.27085 0.20876
 C261 C -0.00269 0.26058 0.15867
 C262 C -0.00161 0.29869 0.12450
 C263 C -0.00355 0.34750 0.14019
 C264 C -0.00689 0.35723 0.19067
 C265 C -0.00612 0.23228 0.24445
 C266 C -0.00612 0.20137 0.27582
 C267 C -0.00576 0.16659 0.31387
 C268 C -0.00509 0.13777 0.34717
 H269 H -0.01036 0.32750 0.26329
 H270 H -0.00092 0.22321 0.14607
 H271 H 0.00094 0.28994 0.08595
 H272 H -0.00854 0.39428 0.20412
 C273 C -0.00715 -0.32092 0.77525
 C274 C -0.00569 -0.27269 0.79127
 C275 C -0.00341 -0.26261 0.84141
 C276 C -0.00239 -0.30079 0.87552
 C277 C -0.00356 -0.34992 0.85989
 C278 C -0.00612 -0.35914 0.80899
 C279 C -0.00597 -0.23400 0.75567
 C280 C -0.00592 -0.20305 0.72430
 C281 C -0.00552 -0.16829 0.68621
 C282 C -0.00485 -0.13951 0.65284
 H283 H -0.00890 -0.32908 0.73647
 H284 H -0.00224 -0.22526 0.85414
 H285 H -0.00051 -0.29156 0.91403
 H286 H -0.00721 -0.39595 0.79473
 C287 C 0.26070 0.00278 0.84165
 C288 C 0.27072 0.00588 0.79148
 C289 C 0.31890 0.00856 0.77552
 C290 C 0.35701 0.00790 0.80936
 C291 C 0.34753 0.00452 0.85991
 C292 C 0.29887 0.00214 0.87573
 C293 C 0.23205 0.00570 0.75584
 C294 C 0.20103 0.00530 0.72456
 C295 C 0.16609 0.00455 0.68662
 C296 C 0.13718 0.00365 0.65338
 H297 H 0.22348 0.00066 0.85439
 H298 H 0.32707 0.01094 0.73678
 H299 H 0.39392 0.00987 0.79579
 H300 H 0.29028 -0.00046 0.91433
 C301 C -0.32079 0.00666 0.22460
 C302 C -0.27265 0.00522 0.20857
 C303 C -0.26270 0.00330 0.15838
 C304 C -0.30087 0.00261 0.12429
 C305 C -0.34989 0.00373 0.13995
 C306 C -0.35899 0.00595 0.19088
 C307 C -0.23396 0.00519 0.24421
 C308 C -0.20301 0.00491 0.27558
 C309 C -0.16820 0.00428 0.31369
 C310 C -0.13937 0.00346 0.34703
 H311 H -0.32891 0.00814 0.26339
 H312 H -0.22546 0.00217 0.14559
 H313 H -0.29171 0.00099 0.08575
 H314 H -0.39570 0.00700 0.20518
 C315 C 0.31965 -0.00818 0.22669
 C316 C 0.27140 -0.00602 0.21055
 C317 C 0.26126 -0.00310 0.16034
 C318 C 0.29935 -0.00213 0.12640
 C319 C 0.34807 -0.00403 0.14239
 C320 C 0.35768 -0.00721 0.19298
 C321 C 0.23277 -0.00624 0.24602
 C322 C 0.20174 -0.00617 0.27712
 C323 C 0.16675 -0.00575 0.31483
 C324 C 0.13778 -0.00508 0.34787
 H325 H 0.32792 -0.01042 0.26546
 H326 H 0.22399 -0.00138 0.14745
 H327 H 0.29064 0.00029 0.08776
 H328 H 0.39464 -0.00880 0.20668
 C329 C -0.31948 -0.00738 0.77543
 C330 C -0.27112 -0.00538 0.79121
 C331 C -0.26062 -0.00258 0.84135
 C332 C -0.29848 -0.00161 0.87558
 C333 C -0.34731 -0.00337 0.85992
 C334 C -0.35726 -0.00640 0.80940
 C335 C -0.23282 -0.00567 0.75538
 C336 C -0.20219 -0.00568 0.72388
 C337 C -0.16772 -0.00538 0.68567
 C338 C -0.13912 -0.00481 0.65231
 H339 H -0.32803 -0.00954 0.73673
 H340 H -0.22326 -0.00097 0.85396
 H341 H -0.28953 0.00070 0.91415
 H342 H -0.39430 -0.00791 0.79593
   
