data_POSCAR
  _audit_creation_date              2014-09-24
  _audit_creation_method            'ToBaCCo'
  _symmetry_space_group_name_H-M    'P1'
  _symmetry_Int_Tables_number       1
  _symmetry_cell_setting            triclinic
  loop_
  _symmetry_equiv_pos_as_xyz
 x,y,z
_cell_length_a 41.6320
_cell_length_b 41.6538
_cell_length_c 41.5618
_cell_angle_alpha 90.000900
_cell_angle_beta 90.093200
_cell_angle_gamma 90.012000
loop_
  _atom_site_label
  _atom_site_type_symbol
  _atom_site_fract_x
  _atom_site_fract_y
  _atom_site_fract_z
C1 C 0.16738 0.16572 0.20707
 N2 N 0.15411 0.19237 0.19377
 C3 C 0.16740 0.20570 0.16714
 N4 N 0.19402 0.19243 0.15384
 C5 C 0.20731 0.16578 0.16712
 N6 N 0.19401 0.15245 0.19376
 C7 C -0.16695 0.83427 0.20632
 N8 N -0.15369 0.80765 0.19302
 C9 C -0.16702 0.79432 0.16637
 N10 N -0.19370 0.80757 0.15306
 C11 C -0.20698 0.83420 0.16634
 N12 N -0.19362 0.84752 0.19300
 C13 C -0.16766 0.16588 -0.20605
 N14 N -0.15435 0.19248 -0.19270
 C15 C -0.16764 0.20579 -0.16607
 N16 N -0.19430 0.19255 -0.15282
 C17 C -0.20763 0.16594 -0.16615
 N18 N -0.19433 0.15263 -0.19280
 C19 C 0.16679 0.83400 -0.20681
 N20 N 0.15354 0.80737 -0.19349
 C21 C 0.16687 0.79409 -0.16682
 N22 N 0.19352 0.80740 -0.15350
 C23 C 0.20678 0.83403 -0.16680
 N24 N 0.19344 0.84730 -0.19348
 C25 C 0.16515 1.16723 0.79326
 N26 N 0.15189 1.19387 0.80654
 C27 C 0.16519 1.20717 0.83324
 N28 N 0.19181 1.19385 0.84660
 C29 C 0.20507 1.16722 0.83333
 N30 N 0.19177 1.15394 0.80664
 C31 C 0.83374 0.83402 0.79257
 N32 N 0.84702 0.80740 0.80592
 C33 C 0.83373 0.79413 0.83259
 N34 N 0.80711 0.80743 0.84586
 C35 C 0.79383 0.83404 0.83252
 N36 N 0.80711 0.84731 0.80586
 C37 C 0.16616 0.83263 1.20719
 N38 N 0.15289 0.80596 1.19390
 C39 C 0.16618 0.79265 1.16725
 N40 N 0.19279 0.80596 1.15394
 C41 C 0.20606 0.83262 1.16723
 N42 N 0.19276 0.84592 1.19387
 C43 C 0.83457 1.16711 1.20638
 N44 N 0.80790 1.15387 1.19304
 C45 C 0.79453 1.16722 1.16642
 N46 N 0.80779 1.19388 1.15317
 C47 C 0.83446 1.20714 1.16649
 N48 N 0.84782 1.19377 1.19312
 N49 N 0.53334 1.05703 0.96547
 N50 N 0.55824 1.07633 0.96194
 N51 N 0.46566 1.03469 0.94323
 N52 N 0.44071 1.03824 0.92392
 N53 N 0.46572 1.05694 0.96559
 N54 N 0.44080 1.07623 0.96211
 N55 N 0.53329 1.03478 0.94311
 N56 N 0.55814 1.03833 0.92376
 C57 C 0.57347 1.06441 0.93575
 C58 C 0.42544 1.06431 0.93596
 N59 N 0.46583 0.94327 0.96542
 N60 N 0.44095 0.92394 0.96186
 N61 N 0.53336 0.96568 0.94301
 N62 N 0.55821 0.96223 0.92363
 N63 N 0.53347 0.94337 0.96531
 N64 N 0.55839 0.92413 0.96171
 N65 N 0.46574 0.96559 0.94312
 N66 N 0.44081 0.96205 0.92380
 Mn67 Mn 0.49951 1.00019 0.94271
 C68 C 0.42558 0.93591 0.93573
 C69 C 0.57358 0.93614 0.93555
 N70 N 0.46594 1.05685 1.03484
 N71 N 0.44104 1.07611 1.03846
 N72 N 0.53368 1.03464 1.05702
 N73 N 0.55866 1.03818 1.07630
 N74 N 0.53356 1.05694 1.03472
 N75 N 0.55845 1.07626 1.03821
 N76 N 0.46604 1.03454 1.05715
 N77 N 0.44121 1.03802 1.07654
 Mn78 Mn 0.49964 1.05735 1.00016
 C79 C 0.42585 1.06412 1.06463
 C80 C 0.57387 1.06432 1.06431
 N81 N 0.53371 0.94327 1.03457
 N82 N 0.55863 0.92399 1.03807
 N83 N 0.46613 0.96543 1.05705
 N84 N 0.44129 0.96183 1.07642
 N85 N 0.46608 0.94318 1.03468
 N86 N 0.44122 0.92384 1.03823
 N87 N 0.53376 0.96553 1.05693
 N88 N 0.55870 0.96199 1.07624
 Mn89 Mn 0.49977 0.94286 1.00000
 Mn90 Mn 0.49990 1.00003 1.05745
 Cl91 Cl 0.49971 1.00011 1.00008
 C92 C 0.57399 0.93592 1.06423
 C93 C 0.42600 0.93572 1.06443
 N94 N 0.03484 0.46618 0.05729
 N95 N 0.03839 0.44129 0.07663
 N96 N 0.05714 0.53376 0.03493
 N97 N 0.07646 0.55865 0.03849
 N98 N 0.03487 0.53377 0.05726
 N99 N 0.03844 0.55865 0.07660
 N100 N 0.05710 0.46617 0.03496
 N101 N 0.07640 0.44128 0.03850
 C102 C 0.06448 0.42600 0.06466
 C103 C 0.06454 0.57393 0.06466
 N104 N 0.03471 0.53370 -0.05667
 N105 N 0.03822 0.55858 -0.07602
 N106 N 0.05699 0.46610 -0.03431
 N107 N 0.07626 0.44119 -0.03787
 N108 N 0.03465 0.46612 -0.05663
 N109 N 0.03810 0.44124 -0.07598
 N110 N 0.05704 0.53370 -0.03434
 N111 N 0.07635 0.55859 -0.03788
 Mn112 Mn 0.05748 0.49993 0.00031
 C113 C 0.06436 0.57386 -0.06405
 C114 C 0.06422 0.42592 -0.06403
 N115 N -0.03428 0.53382 0.05724
 N116 N -0.03779 0.55874 0.07654
 N117 N -0.05664 0.46621 0.03495
 N118 N -0.07594 0.44132 0.03848
 N119 N -0.03431 0.46621 0.05728
 N120 N -0.03781 0.44132 0.07661
 N121 N -0.05659 0.53380 0.03489
 N122 N -0.07588 0.55868 0.03837
 Mn123 Mn 0.00028 0.50000 0.05768
 C124 C -0.06391 0.57401 0.06452
 C125 C -0.06395 0.42604 0.06464
 N126 N -0.03449 0.46614 -0.05663
 N127 N -0.03808 0.44123 -0.07593
 N128 N -0.05669 0.53377 -0.03435
 N129 N -0.07596 0.55868 -0.03792
 N130 N -0.03442 0.53373 -0.05668
 N131 N -0.03795 0.55860 -0.07604
 N132 N -0.05674 0.46619 -0.03429
 N133 N -0.07608 0.44132 -0.03778
 Mn134 Mn 0.00011 0.49992 -0.05706
 Mn135 Mn -0.05707 0.49999 0.00030
 Cl136 Cl 0.00020 0.49996 0.00031
 C137 C -0.06419 0.42598 -0.06392
 C138 C -0.06402 0.57393 -0.06409
 N139 N 1.03472 0.05673 0.53362
 N140 N 1.03819 0.07607 0.55853
 N141 N 1.05718 0.03438 0.46600
 N142 N 1.07656 0.03788 0.44115
 N143 N 1.03491 0.05668 0.46589
 N144 N 1.03853 0.07596 0.44096
 N145 N 1.05702 0.03445 0.53376
 N146 N 1.07626 0.03804 0.55878
 C147 C 1.06425 0.06417 0.57399
 C148 C 1.06468 0.06399 0.42577
 N149 N 1.03480 -0.05700 0.46598
 N150 N 1.03835 -0.07634 0.44109
 N151 N 1.05697 -0.03467 0.53378
 N152 N 1.07626 -0.03821 0.55875
 N153 N 1.03466 -0.05695 0.53372
 N154 N 1.03817 -0.07625 0.55867
 N155 N 1.05712 -0.03474 0.46603
 N156 N 1.07648 -0.03834 0.44116
 Mn157 Mn 1.05748 -0.00015 0.49989
 C158 C 1.06451 -0.06446 0.42585
 C159 C 1.06429 -0.06431 0.57405
 N160 N 0.96577 0.05672 0.46563
 N161 N 0.96230 0.07605 0.44071
 N162 N 0.94328 0.03447 0.53326
 N163 N 0.92392 0.03798 0.55812
 N164 N 0.96559 0.05675 0.53337
 N165 N 0.96200 0.07603 0.55832
 N166 N 0.94345 0.03446 0.46553
 N167 N 0.92419 0.03804 0.44053
 Mn168 Mn 1.00025 0.05713 0.49963
 C169 C 0.93620 0.06415 0.42529
 C170 C 0.93584 0.06406 0.57352
 N171 N 0.96551 -0.05691 0.53343
 N172 N 0.96192 -0.07617 0.55838
 N173 N 0.94339 -0.03464 0.46560
 N174 N 0.92410 -0.03816 0.44062
 N175 N 0.96565 -0.05695 0.46568
 N176 N 0.96210 -0.07627 0.44074
 N177 N 0.94323 -0.03461 0.53333
 N178 N 0.92388 -0.03811 0.55820
 Mn179 Mn 1.00015 -0.05736 0.49970
 Mn180 Mn 0.94294 -0.00008 0.49943
 Cl181 Cl 1.00021 -0.00012 0.49966
 C182 C 0.93578 -0.06420 0.57359
 C183 C 0.93601 -0.06428 0.42535
 C184 C 1.11824 0.07602 0.35322
 C185 C 1.10422 0.10305 0.33894
 C186 C 1.07716 0.11719 0.35298
 C187 C 1.06421 0.10445 0.38126
 C188 C 1.15426 0.15259 0.23391
 C189 C 1.10534 0.06324 0.38150
 C190 C 1.11776 0.11641 0.31005
 C191 C 1.12919 0.12770 0.28594
 C192 C 1.14267 0.14106 0.25783
 C193 C 1.07824 0.07739 0.39582
 H194 H 1.13919 0.06488 0.34255
 H195 H 1.06611 0.13811 0.34212
 H196 H 1.04328 0.11578 0.39172
 H197 H 1.11658 0.04234 0.39215
 C198 C 0.88258 -0.07624 0.35254
 C199 C 0.89654 -0.10331 0.33835
 C200 C 0.92354 -0.11753 0.35254
 C201 C 0.93648 -0.10480 0.38087
 C202 C 0.84624 -0.15262 0.23318
 C203 C 0.89548 -0.06347 0.38087
 C204 C 0.88299 -0.11664 0.30941
 C205 C 0.87149 -0.12788 0.28527
 C206 C 0.85791 -0.14115 0.25713
 C207 C 0.92250 -0.07769 0.39534
 H208 H 0.86168 -0.06504 0.34176
 H209 H 0.93454 -0.13849 0.34175
 H210 H 0.95736 -0.11618 0.39146
 H211 H 0.88426 -0.04253 0.39145
 C212 C 0.88234 0.07592 0.64610
 C213 C 0.89635 0.10292 0.66044
 C214 C 0.92340 0.11712 0.64641
 C215 C 0.93634 0.10445 0.61810
 C216 C 0.84621 0.15205 0.76558
 C217 C 0.89523 0.06321 0.61780
 C218 C 0.88282 0.11619 0.68936
 C219 C 0.87136 0.12738 0.71350
 C220 C 0.85783 0.14061 0.74164
 C221 C 0.92231 0.07742 0.60349
 H222 H 0.86140 0.06473 0.65676
 H223 H 0.93444 0.13803 0.65731
 H224 H 0.95725 0.11583 0.60764
 H225 H 0.88399 0.04232 0.60711
 C226 C 1.11766 -0.07641 0.64689
 C227 C 1.10359 -0.10344 0.66107
 C228 C 1.07655 -0.11757 0.64687
 C229 C 1.06367 -0.10480 0.61854
 C230 C 1.15362 -0.15292 0.76630
 C231 C 1.10482 -0.06360 0.61855
 C232 C 1.11708 -0.11682 0.69002
 C233 C 1.12850 -0.12811 0.71418
 C234 C 1.14200 -0.14143 0.74234
 C235 C 1.07775 -0.07774 0.60407
 H236 H 1.13859 -0.06528 0.65768
 H237 H 1.06547 -0.13850 0.65766
 H238 H 1.04276 -0.11613 0.60794
 H239 H 1.11611 -0.04270 0.60798
 C240 C 0.35316 1.11730 1.07701
 C241 C 0.33910 1.10316 1.10410
 C242 C 0.35334 1.07614 1.11818
 C243 C 0.38159 1.06336 1.10530
 C244 C 0.23414 1.15269 1.15400
 C245 C 0.38141 1.10456 1.06409
 C246 C 0.31022 1.11652 1.11760
 C247 C 0.28614 1.12782 1.12899
 C248 C 0.25804 1.14117 1.14243
 C249 C 0.39593 1.07751 1.07818
 H250 H 0.34234 1.13821 1.06592
 H251 H 0.34265 1.06500 1.13915
 H252 H 0.39221 1.04246 1.11658
 H253 H 0.39189 1.11590 1.04314
 C254 C 0.35293 0.88256 0.92340
 C255 C 0.33871 0.89672 0.89636
 C256 C 0.35283 0.92379 0.88231
 C257 C 0.38111 0.93662 0.89516
 C258 C 0.23364 0.84714 0.84635
 C259 C 0.38122 0.89535 0.93630
 C260 C 0.30981 0.88332 0.88286
 C261 C 0.28569 0.87201 0.87144
 C262 C 0.25756 0.85866 0.85796
 C263 C 0.39562 0.92245 0.92224
 H264 H 0.34220 0.86160 0.93447
 H265 H 0.34202 0.93495 0.86137
 H266 H 0.39163 0.95756 0.88389
 H267 H 0.39183 0.88400 0.95721
 C268 C 0.64679 0.92379 1.11758
 C269 C 0.66095 0.89679 1.10343
 C270 C 0.64674 0.88269 1.07635
 C271 C 0.61842 0.89547 1.06351
 C272 C 0.76614 0.84726 1.15321
 C273 C 0.61847 0.93659 1.10479
 C274 C 0.68989 0.88340 1.11686
 C275 C 0.71403 0.87210 1.12822
 C276 C 0.74219 0.85876 1.14165
 C277 C 0.60398 0.92249 1.07767
 H278 H 0.65759 0.93489 1.13855
 H279 H 0.65750 0.86180 1.06520
 H280 H 0.60783 0.88417 1.04256
 H281 H 0.60792 0.95747 1.11614
 C282 C 0.64623 1.11759 0.92364
 C283 C 0.66034 1.10348 0.89655
 C284 C 0.64610 1.07650 0.88239
 C285 C 0.61781 1.06372 0.89518
 C286 C 0.76549 1.15289 0.84691
 C287 C 0.61794 1.10485 0.93647
 C288 C 0.68926 1.11683 0.88315
 C289 C 0.71340 1.12810 0.87182
 C290 C 0.74155 1.14141 0.85843
 C291 C 0.60342 1.07783 0.92230
 H292 H 0.65706 1.13847 0.93479
 H293 H 0.65682 1.06539 0.86143
 H294 H 0.60719 1.04285 0.88383
 H295 H 0.60742 1.11615 0.95742
 C296 C 0.07674 0.35331 0.11798
 C297 C 0.10374 0.33916 0.10381
 C298 C 0.11779 0.35334 0.07674
 C299 C 0.10497 0.38162 0.06393
 C300 C 0.15354 0.23407 0.15331
 C301 C 0.06389 0.38159 0.10521
 C302 C 0.11718 0.31025 0.11719
 C303 C 0.12855 0.28613 0.12848
 C304 C 0.14198 0.25800 0.14181
 C305 C 0.07795 0.39605 0.07810
 H306 H 0.06568 0.34252 0.13894
 H307 H 0.13868 0.34259 0.06558
 H308 H 0.11624 0.39220 0.04299
 H309 H 0.04301 0.39214 0.11656
 C310 C -0.07663 0.35322 -0.11709
 C311 C -0.10364 0.33914 -0.10286
 C312 C -0.11763 0.35339 -0.07580
 C313 C -0.10475 0.38167 -0.06306
 C314 C -0.15374 0.23413 -0.15220
 C315 C -0.06371 0.38150 -0.10439
 C316 C -0.11716 0.31024 -0.11618
 C317 C -0.12861 0.28614 -0.12742
 C318 C -0.14213 0.25803 -0.14071
 C319 C -0.07771 0.39603 -0.07729
 H320 H -0.06562 0.34238 -0.13805
 H321 H -0.13853 0.34269 -0.06459
 H322 H -0.11597 0.39230 -0.04212
 H323 H -0.04283 0.39200 -0.11579
 C324 C 0.11765 0.64651 -0.07620
 C325 C 0.10349 0.66068 -0.10327
 C326 C 0.07643 0.64653 -0.11741
 C327 C 0.06363 0.61825 -0.10461
 C328 C 0.15306 0.76573 -0.15295
 C329 C 0.10488 0.61824 -0.06337
 C330 C 0.11688 0.68958 -0.11669
 C331 C 0.12819 0.71369 -0.12802
 C332 C 0.14155 0.74181 -0.14141
 C333 C 0.07779 0.60380 -0.07751
 H334 H 0.13859 0.65728 -0.06507
 H335 H 0.06528 0.65730 -0.13837
 H336 H 0.04270 0.60769 -0.11594
 H337 H 0.11622 0.60768 -0.04243
 C338 C -0.11725 0.64663 0.07633
 C339 C -0.10320 0.66088 0.10341
 C340 C -0.07617 0.64680 0.11767
 C341 C -0.06330 0.61850 0.10499
 C342 C -0.15317 0.76596 0.15256
 C343 C -0.10442 0.61834 0.06361
 C344 C -0.11667 0.68980 0.11669
 C345 C -0.12809 0.71391 0.12789
 C346 C -0.14158 0.74204 0.14112
 C347 C -0.07737 0.60397 0.07788
 H348 H -0.13817 0.65734 0.06510
 H349 H -0.06510 0.65764 0.13864
 H350 H -0.04240 0.60799 0.11641
 H351 H -0.11570 0.60771 0.04267
 C352 C 1.07600 0.11773 0.64666
 C353 C 1.10302 0.10377 0.66105
 C354 C 1.11727 0.07674 0.64705
 C355 C 1.10462 0.06376 0.61869
 C356 C 1.15207 0.15409 0.76635
 C357 C 1.06333 0.10479 0.61832
 C358 C 1.11626 0.11736 0.69003
 C359 C 1.12743 0.12887 0.71419
 C360 C 1.14064 0.14245 0.74238
 C361 C 1.07758 0.07773 0.60402
 H362 H 1.06478 0.13865 0.65730
 H363 H 1.13819 0.06575 0.65799
 H364 H 1.11603 0.04286 0.60825
 H365 H 1.04243 0.11599 0.60758
 C366 C 0.92353 -0.11740 0.64640
 C367 C 0.89649 -0.10328 0.66052
 C368 C 0.88241 -0.07627 0.64627
 C369 C 0.89523 -0.06348 0.61796
 C370 C 0.84683 -0.15289 0.76570
 C371 C 0.93638 -0.10465 0.61810
 C372 C 0.88306 -0.11666 0.68945
 C373 C 0.87173 -0.12798 0.71359
 C374 C 0.85836 -0.14136 0.74175
 C375 C 0.92229 -0.07761 0.60357
 H376 H 0.93462 -0.13831 0.65724
 H377 H 0.86148 -0.06515 0.65700
 H378 H 0.88394 -0.04258 0.60733
 H379 H 0.95729 -0.11597 0.60758
 C380 C 1.11786 -0.07699 0.35320
 C381 C 1.10367 -0.10401 0.33906
 C382 C 1.07658 -0.11798 0.35323
 C383 C 1.06378 -0.10507 0.38149
 C384 C 1.15307 -0.15422 0.23404
 C385 C 1.10509 -0.06403 0.38147
 C386 C 1.11703 -0.11756 0.31017
 C387 C 1.12829 -0.12903 0.28607
 C388 C 1.14159 -0.14258 0.25796
 C389 C 1.07797 -0.07801 0.39592
 H390 H 1.13883 -0.06598 0.34243
 H391 H 1.06540 -0.13889 0.34249
 H392 H 1.04282 -0.11628 0.39205
 H393 H 1.11646 -0.04314 0.39202
 C394 C 0.88302 0.07663 0.35236
 C395 C 0.89721 0.10367 0.33831
 C396 C 0.92427 0.11766 0.35262
 C397 C 0.93703 0.10475 0.38093
 C398 C 0.84772 0.15392 0.23321
 C399 C 0.89575 0.06368 0.38068
 C400 C 0.88386 0.11724 0.30938
 C401 C 0.87259 0.12872 0.28526
 C402 C 0.85925 0.14227 0.25713
 C403 C 0.92282 0.07769 0.39528
 H404 H 0.86208 0.06562 0.34148
 H405 H 0.93544 0.13859 0.34194
 H406 H 0.95795 0.11598 0.39161
 H407 H 0.88437 0.04278 0.39117
 C408 C 0.11732 0.35317 -0.07644
 C409 C 0.10305 0.33908 -0.10351
 C410 C 0.07600 0.35332 -0.11754
 C411 C 0.06330 0.38160 -0.10465
 C412 C 0.15214 0.23401 -0.15364
 C413 C 0.10466 0.38145 -0.06351
 C414 C 0.11631 0.31017 -0.11704
 C415 C 0.12750 0.28606 -0.12850
 C416 C 0.14072 0.25794 -0.14202
 C417 C 0.07757 0.39597 -0.07755
 H418 H 0.13827 0.34234 -0.06539
 H419 H 0.06476 0.34262 -0.13848
 H420 H 0.04237 0.39221 -0.11591
 H421 H 0.11608 0.39196 -0.04258
 C422 C -0.11716 0.35332 0.07675
 C423 C -0.10300 0.33916 0.10382
 C424 C -0.07597 0.35334 0.11797
 C425 C -0.06319 0.38163 0.10519
 C426 C -0.15247 0.23401 0.15342
 C427 C -0.10442 0.38161 0.06393
 C428 C -0.11636 0.31023 0.11722
 C429 C -0.12764 0.28610 0.12854
 C430 C -0.14098 0.25795 0.14191
 C431 C -0.07735 0.39608 0.07809
 H432 H -0.13809 0.34254 0.06560
 H433 H -0.06481 0.34257 0.13893
 H434 H -0.04227 0.39221 0.11653
 H435 H -0.11577 0.39217 0.04299
 C436 C -0.07605 0.64653 -0.11757
 C437 C -0.10305 0.66076 -0.10349
 C438 C -0.11718 0.64666 -0.07641
 C439 C -0.10445 0.61838 -0.06351
 C440 C -0.15244 0.76578 -0.15350
 C441 C -0.06328 0.61825 -0.10471
 C442 C -0.11639 0.68966 -0.11698
 C443 C -0.12765 0.71376 -0.12840
 C444 C -0.14096 0.74187 -0.14189
 C445 C -0.07742 0.60387 -0.07760
 H446 H -0.06492 0.65724 -0.13853
 H447 H -0.13807 0.65748 -0.06532
 H448 H -0.11577 0.60787 -0.04256
 H449 H -0.04240 0.60764 -0.11600
 C450 C 0.07666 0.64653 0.11814
 C451 C 0.10369 0.66073 0.10408
 C452 C 0.11782 0.64661 0.07702
 C453 C 0.10505 0.61834 0.06410
 C454 C 0.15310 0.76579 0.15412
 C455 C 0.06386 0.61827 0.10527
 C456 C 0.11705 0.68963 0.11759
 C457 C 0.12832 0.71374 0.12902
 C458 C 0.14162 0.74186 0.14252
 C459 C 0.07799 0.60386 0.07817
 H460 H 0.06552 0.65726 0.13909
 H461 H 0.13874 0.65741 0.06594
 H462 H 0.11638 0.60781 0.04317
 H463 H 0.04295 0.60768 0.11654
 C464 C 0.35274 1.11760 0.92397
 C465 C 0.33850 1.10355 0.89688
 C466 C 0.35262 1.07656 0.88268
 C467 C 0.38093 1.06371 0.89544
 C468 C 0.23342 1.15336 0.84724
 C469 C 0.38105 1.10479 0.93677
 C470 C 0.30959 1.11700 0.88349
 C471 C 0.28547 1.12837 0.87217
 C472 C 0.25734 1.14180 0.85879
 C473 C 0.39545 1.07776 0.92255
 H474 H 0.34201 1.13850 0.93515
 H475 H 0.34179 1.06550 0.86170
 H476 H 0.39146 1.04283 0.88405
 H477 H 0.39168 1.11605 0.95772
 C478 C 0.35341 0.88233 1.07657
 C479 C 0.33930 0.89636 1.10369
 C480 C 0.35346 0.92337 1.11786
 C481 C 0.38170 0.93626 1.10505
 C482 C 0.23438 0.84650 1.15336
 C483 C 0.38165 0.89518 1.06373
 C484 C 0.31044 0.88289 1.11711
 C485 C 0.28636 0.87151 1.12844
 C486 C 0.25827 0.85807 1.14182
 C487 C 0.39610 0.92222 1.07791
 H488 H 0.34264 0.86142 1.06541
 H489 H 0.34273 0.93443 1.13885
 H490 H 0.39227 0.95715 1.11641
 H491 H 0.39217 0.88392 1.04275
 C492 C 0.64655 1.11767 1.07621
 C493 C 0.66088 1.10360 1.10324
 C494 C 0.64682 1.07657 1.11744
 C495 C 0.61848 1.06370 1.10474
 C496 C 0.76613 1.15340 1.15257
 C497 C 0.61822 1.10485 1.06347
 C498 C 0.68983 1.11705 1.11655
 C499 C 0.71399 1.12843 1.12779
 C500 C 0.74217 1.14186 1.14108
 C501 C 0.60387 1.07778 1.07768
 H502 H 0.65724 1.13859 1.06503
 H503 H 0.65771 1.06548 1.13836
 H504 H 0.60799 1.04280 1.11611
 H505 H 0.60753 1.11613 1.04256
 C506 C 0.64635 0.88307 0.92322
 C507 C 0.66042 0.89726 0.89616
 C508 C 0.64616 0.92427 0.88209
 C509 C 0.61788 0.93700 0.89494
 C510 C 0.76547 0.84789 0.84636
 C511 C 0.61807 0.89576 0.93611
 C512 C 0.68932 0.88396 0.88269
 C513 C 0.71344 0.87270 0.87131
 C514 C 0.74156 0.85938 0.85790
 C515 C 0.60353 0.92280 0.92203
 H516 H 0.65719 0.86217 0.93431
 H517 H 0.65686 0.93545 0.86114
 H518 H 0.60725 0.95789 0.88366
 H519 H 0.60758 0.88439 0.95704
   
