data_POSCAR
  _audit_creation_date              2014-09-24
  _audit_creation_method            'ToBaCCo'
  _symmetry_space_group_name_H-M    'P1'
  _symmetry_Int_Tables_number       1
  _symmetry_cell_setting            triclinic
  loop_
  _symmetry_equiv_pos_as_xyz
 x,y,z
_cell_length_a 33.2519
_cell_length_b 18.3413
_cell_length_c 12.0431
_cell_angle_alpha 90.037600
_cell_angle_beta 89.970000
_cell_angle_gamma 90.020500
loop_
  _atom_site_label
  _atom_site_type_symbol
  _atom_site_fract_x
  _atom_site_fract_y
  _atom_site_fract_z
C1 C 0.71905 0.28736 0.56091
 C2 C 0.71731 0.28016 0.44284
 C3 C 0.75061 0.24984 0.38758
 C4 C 0.78556 0.22509 0.44172
 C5 C 0.78605 0.22694 0.56072
 C6 C 0.75344 0.26047 0.61551
 H7 H 0.75476 0.26522 0.70411
 H8 H 0.74918 0.24517 0.29888
 C9 C 0.21583 0.77373 0.56169
 C10 C 0.21584 0.77390 0.44322
 C11 C 0.24893 0.74315 0.38799
 C12 C 0.28272 0.71494 0.44326
 C13 C 0.28236 0.71285 0.56192
 C14 C 0.24930 0.74427 0.61718
 H15 H 0.25015 0.74817 0.70621
 H16 H 0.24813 0.73990 0.29897
 C17 C 0.28006 0.28815 -0.55872
 C18 C 0.28199 0.28060 -0.44114
 C19 C 0.24913 0.24894 -0.38581
 C20 C 0.21437 0.22350 -0.44039
 C21 C 0.21366 0.22663 -0.55948
 C22 C 0.24600 0.26115 -0.61395
 H23 H 0.24493 0.26671 -0.70257
 H24 H 0.25083 0.24377 -0.29712
 C25 C -0.21652 0.77457 -0.55881
 C26 C -0.21577 0.77128 -0.44058
 C27 C -0.24851 0.73882 -0.38601
 C28 C -0.28337 0.71426 -0.44100
 C29 C -0.28366 0.71560 -0.55999
 C30 C -0.25081 0.74846 -0.61435
 H31 H -0.25242 0.75598 -0.70281
 H32 H -0.24648 0.73147 -0.29766
 O33 O 0.05697 0.87670 -0.20100
 O34 O 0.10130 0.94149 -0.09263
 C35 C 0.09301 0.89589 -0.17140
 O36 O -0.05567 1.13300 -0.19694
 O37 O -0.10060 1.06357 -0.09768
 C38 C -0.09186 1.11265 -0.17138
 O39 O 0.05714 1.12444 -0.20310
 O40 O 0.10141 1.06044 -0.09368
 C41 C 0.09318 1.10545 -0.17330
 O42 O -0.05579 0.86804 -0.19465
 O43 O -0.10064 0.93813 -0.09621
 C44 C -0.09197 0.88844 -0.16919
 Zr45 Zr 0.00011 0.90863 -0.13803
 O46 O -0.00364 0.90465 -0.31342
 O47 O 0.00477 0.79355 -0.13215
 Zr48 Zr 0.00025 1.09327 -0.13922
 O49 O -0.00338 1.09690 -0.31460
 O50 O 0.00497 1.20838 -0.13380
 O51 O 0.03588 1.00082 -0.15999
 O52 O -0.03448 1.00091 -0.16011
 O53 O -0.05738 0.87203 0.19775
 O54 O -0.10162 0.93990 0.09377
 C55 C -0.09338 0.89206 0.16958
 O56 O 0.05506 1.12988 0.20410
 O57 O 0.09978 1.06275 0.10092
 C58 C 0.09117 1.11003 0.17722
 O59 O -0.05716 1.13205 0.19676
 O60 O -0.10154 1.06422 0.09298
 C61 C -0.09321 1.11218 0.16878
 O62 O 0.05496 0.87368 0.20549
 O63 O 0.09975 0.94019 0.10167
 C64 C 0.09112 0.89319 0.17835
 Zr65 Zr -0.00074 0.90934 0.14088
 O66 O -0.00467 0.90656 0.31629
 O67 O 0.00271 0.79410 0.13426
 Zr68 Zr -0.00064 1.09432 0.13964
 O69 O -0.00450 1.09877 0.31497
 O70 O 0.00296 1.20949 0.13081
 Zr71 Zr 0.05981 1.00130 0.00230
 Zr72 Zr -0.06041 1.00152 -0.00050
 O73 O -0.03531 1.00195 0.16019
 O74 O 0.03501 1.00185 0.16338
 O75 O -0.03664 0.89489 0.00079
 O76 O 0.03510 1.10691 0.00078
 O77 O 0.03494 0.89578 0.00214
 O78 O -0.03652 1.10807 -0.00064
 H79 H -0.05185 1.00057 -0.22691
 H80 H 0.05357 1.14933 0.00031
 H81 H -0.05286 1.00218 0.22670
 H82 H 0.05329 0.85322 0.00224
 H83 H -0.01936 1.22725 -0.09625
 H84 H -0.02232 1.22745 0.09722
 H85 H 0.01545 1.06397 0.34484
 H86 H 0.01593 0.94036 0.34566
 H87 H -0.02246 0.77593 0.10024
 H88 H -0.01916 0.77491 -0.09242
 H89 H 0.01693 0.93835 -0.34317
 H90 H 0.01639 1.06155 -0.34399
 O91 O 0.44347 0.37523 0.20305
 O92 O 0.39944 0.44057 0.09513
 C93 C 0.40749 0.39524 0.17427
 O94 O 0.55654 0.63056 0.19602
 O95 O 0.60084 0.56172 0.09408
 C96 C 0.59258 0.60997 0.16926
 O97 O 0.44377 0.62382 0.20235
 O98 O 0.39955 0.55919 0.09376
 C99 C 0.40777 0.60458 0.17275
 O100 O 0.55636 0.36907 0.19682
 O101 O 0.60092 0.43674 0.09356
 C102 C 0.59244 0.38892 0.16916
 Zr103 Zr 0.50016 0.40676 0.13794
 O104 O 0.50365 0.40076 0.31313
 O105 O 0.49599 0.29168 0.12875
 Zr106 Zr 0.50034 0.59215 0.13748
 O107 O 0.50395 0.59841 0.31265
 O108 O 0.49610 0.70720 0.12790
 O109 O 0.46479 0.49955 0.15990
 O110 O 0.53475 0.49944 0.15862
 O111 O 0.55723 0.36916 -0.19922
 O112 O 0.60142 0.43797 -0.09647
 C113 C 0.59326 0.38999 -0.17218
 O114 O 0.44381 0.62389 -0.20627
 O115 O 0.39962 0.55809 -0.09933
 C116 C 0.40777 0.60385 -0.17783
 O117 O 0.55693 0.62924 -0.19933
 O118 O 0.60123 0.56124 -0.09587
 C119 C 0.59294 0.60915 -0.17140
 O120 O 0.44407 0.37463 -0.20646
 O121 O 0.39973 0.43916 -0.09802
 C122 C 0.40803 0.39366 -0.17682
 Zr123 Zr 0.50053 0.40639 -0.14094
 O124 O 0.50419 0.39913 -0.31597
 O125 O 0.49647 0.29135 -0.13062
 Zr126 Zr 0.50042 0.59174 -0.14144
 O127 O 0.50414 0.59729 -0.31667
 O128 O 0.49640 0.70686 -0.13287
 Zr129 Zr 0.44070 0.49927 -0.00200
 Zr130 Zr 0.56042 0.49919 -0.00145
 O131 O 0.53494 0.49909 -0.16178
 O132 O 0.46502 0.49899 -0.16371
 O133 O 0.53672 0.39245 -0.00128
 O134 O 0.46511 0.60509 -0.00211
 O135 O 0.46505 0.39344 -0.00164
 O136 O 0.53676 0.60595 -0.00191
 H137 H 0.55203 0.49957 0.22558
 H138 H 0.44643 0.64719 -0.00235
 H139 H 0.55224 0.49912 -0.22878
 H140 H 0.44633 0.35138 -0.00142
 H141 H 0.52141 0.72548 0.09485
 H142 H 0.52179 0.72515 -0.10031
 H143 H 0.48510 0.56090 -0.34680
 H144 H 0.48681 0.43793 -0.34656
 H145 H 0.52219 0.27318 -0.10002
 H146 H 0.52139 0.27338 0.09620
 H147 H 0.48531 0.43830 0.34326
 H148 H 0.48546 0.56118 0.34296
 C149 C 0.37668 0.35090 0.36464
 C150 C 0.33651 0.39172 0.38469
 C151 C 0.31367 0.31934 0.36856
 C152 C 0.35347 0.27844 0.34728
 C153 C 0.31018 0.33524 0.24210
 C154 C 0.33341 0.40734 0.25903
 C155 C 0.37306 0.36645 0.24020
 C156 C 0.35032 0.29477 0.22164
 H157 H 0.40489 0.35703 0.41295
 H158 H 0.33109 0.43576 0.44542
 H159 H 0.36158 0.22393 0.38025
 H160 H 0.28368 0.33158 0.18649
 H161 H 0.32518 0.46029 0.22093
 H162 H 0.35616 0.25525 0.15369
 C163 C -0.17242 0.87409 0.22214
 C164 C -0.17982 0.79174 0.24105
 C165 C -0.18291 0.80530 0.36828
 C166 C -0.17588 0.88741 0.34876
 C167 C -0.13733 0.79214 0.37954
 C168 C -0.13413 0.77919 0.25312
 C169 C -0.12713 0.86088 0.23559
 C170 C -0.13002 0.87467 0.36101
 H171 H -0.18666 0.90777 0.15646
 H172 H -0.19878 0.75677 0.18705
 H173 H -0.19352 0.93258 0.38583
 H174 H -0.12071 0.75654 0.43720
 H175 H -0.11689 0.73476 0.21243
 H176 H -0.10924 0.91028 0.40852
 C177 C 0.62180 0.65444 0.36143
 C178 C 0.66186 0.61388 0.38400
 C179 C 0.68458 0.68660 0.37005
 C180 C 0.64496 0.72728 0.34631
 C181 C 0.68934 0.67077 0.24366
 C182 C 0.66611 0.59852 0.25845
 C183 C 0.62658 0.63929 0.23685
 C184 C 0.64934 0.71119 0.22065
 H185 H 0.59341 0.64770 0.40890
 H186 H 0.66675 0.56951 0.44442
 H187 H 0.63620 0.78138 0.37978
 H188 H 0.71658 0.67438 0.19064
 H189 H 0.67479 0.54547 0.22105
 H190 H 0.64417 0.75081 0.15251
 C191 C 0.14306 1.21891 0.22826
 C192 C 0.14024 1.23020 0.35530
 C193 C 0.18231 1.19634 0.37068
 C194 C 0.18552 1.18582 0.24265
 C195 C 0.16406 1.11941 0.38138
 C196 C 0.12158 1.15301 0.36747
 C197 C 0.12491 1.14259 0.24164
 C198 C 0.16686 1.10920 0.25434
 H199 H 0.13435 1.25935 0.16411
 H200 H 0.12933 1.28213 0.39167
 H201 H 0.21095 1.19620 0.18513
 H202 H 0.17250 1.07455 0.43784
 H203 H 0.09430 1.13970 0.41651
 H204 H 0.17836 1.06105 0.20924
 C205 C 0.65081 0.29039 -0.22242
 C206 C 0.64746 0.27410 -0.34828
 C207 C 0.68689 0.31609 -0.37008
 C208 C 0.69053 0.33211 -0.24341
 C209 C 0.66344 0.38787 -0.38558
 C210 C 0.62362 0.34604 -0.36459
 C211 C 0.62746 0.36144 -0.23986
 C212 C 0.66670 0.40351 -0.25980
 H213 H 0.64554 0.25058 -0.15457
 H214 H 0.63956 0.21966 -0.38211
 H215 H 0.71686 0.32996 -0.18702
 H216 H 0.66825 0.43207 -0.44640
 H217 H 0.59533 0.35171 -0.41269
 H218 H 0.67463 0.45681 -0.22204
 C219 C 0.13053 0.87709 -0.36074
 C220 C 0.17647 0.88803 -0.34688
 C221 C 0.18255 0.80553 -0.36541
 C222 C 0.13686 0.79417 -0.37808
 C223 C 0.17880 0.79285 -0.23818
 C224 C 0.17226 0.87556 -0.22034
 C225 C 0.12688 0.86408 -0.23564
 C226 C 0.13302 0.78205 -0.25176
 H227 H 0.11041 0.91384 -0.40827
 H228 H 0.19506 0.93216 -0.38324
 H229 H 0.11984 0.75845 -0.43471
 H230 H 0.19708 0.75757 -0.18301
 H231 H 0.18652 0.90918 -0.15456
 H232 H 0.11501 0.73858 -0.21123
 C233 C 0.35152 0.70609 -0.22394
 C234 C 0.35454 0.72233 -0.34972
 C235 C 0.31425 0.68289 -0.36995
 C236 C 0.31085 0.66704 -0.24337
 C237 C 0.33612 0.60955 -0.38649
 C238 C 0.37683 0.64887 -0.36744
 C239 C 0.37338 0.63355 -0.24293
 C240 C 0.33320 0.59410 -0.26074
 H241 H 0.35798 0.74537 -0.15610
 H242 H 0.36325 0.77644 -0.38314
 H243 H 0.28441 0.67151 -0.18755
 H244 H 0.32997 0.56542 -0.44645
 H245 H 0.40482 0.64141 -0.41634
 H246 H 0.32450 0.54133 -0.22270
 C247 C -0.14494 1.21946 -0.22371
 C248 C -0.14118 1.23265 -0.35027
 C249 C -0.18251 1.19669 -0.36958
 C250 C -0.18662 1.18399 -0.24215
 C251 C -0.16283 1.12104 -0.38179
 C252 C -0.12107 1.15674 -0.36361
 C253 C -0.12534 1.14445 -0.23810
 C254 C -0.16653 1.10872 -0.25530
 H255 H -0.13759 1.25953 -0.15766
 H256 H -0.13072 1.28522 -0.38548
 H257 H -0.21271 1.19168 -0.18590
 H258 H -0.16992 1.07680 -0.44093
 H259 H -0.09339 1.14550 -0.41222
 H260 H -0.17741 1.05880 -0.21355
 C261 C 0.67190 0.62518 -0.22120
 C262 C 0.67598 0.60793 -0.34648
 C263 C 0.68392 0.68905 -0.37133
 C264 C 0.68017 0.70667 -0.24521
 C265 C 0.63856 0.70359 -0.38559
 C266 C 0.63031 0.62186 -0.36185
 C267 C 0.62681 0.63931 -0.23774
 C268 C 0.63467 0.72020 -0.26024
 H269 H 0.68544 0.59329 -0.15242
 H270 H 0.69337 0.56109 -0.37959
 H271 H 0.69903 0.74272 -0.19260
 H272 H 0.62274 0.73842 -0.44607
 H273 H 0.60937 0.58594 -0.40839
 H274 H 0.61758 0.76622 -0.22334
 C275 C 0.17252 1.12573 -0.22343
 C276 C 0.17664 1.11186 -0.34975
 C277 C 0.18260 1.19417 -0.37055
 C278 C 0.17894 1.20830 -0.24337
 C279 C 0.13685 1.20529 -0.38277
 C280 C 0.13061 1.12247 -0.36336
 C281 C 0.12709 1.13674 -0.23851
 C282 C 0.13314 1.21862 -0.25667
 H283 H 0.18694 1.09298 -0.15700
 H284 H 0.19514 1.06722 -0.38505
 H285 H 0.19702 1.24453 -0.18898
 H286 H 0.11930 1.24052 -0.43871
 H287 H 0.11051 1.08533 -0.41040
 H288 H 0.11517 1.26247 -0.21696
 C289 C 0.36927 0.37799 -0.36477
 C290 C 0.36183 0.29565 -0.38546
 C291 C 0.31642 0.30835 -0.36863
 C292 C 0.32361 0.39018 -0.34677
 C293 C 0.32127 0.29290 -0.24242
 C294 C 0.36683 0.28089 -0.25999
 C295 C 0.37396 0.36240 -0.24074
 C296 C 0.32887 0.37494 -0.22141
 H297 H 0.38943 0.41466 -0.41250
 H298 H 0.37748 0.26048 -0.44602
 H299 H 0.30516 0.43571 -0.37954
 H300 H 0.30319 0.25745 -0.18694
 H301 H 0.38480 0.23611 -0.22291
 H302 H 0.31553 0.40742 -0.15286
 C303 C -0.16762 0.88863 -0.24822
 C304 C -0.16449 0.87955 -0.37552
 C305 C -0.18242 0.80228 -0.36674
 C306 C -0.18588 0.81153 -0.23866
 C307 C -0.14017 0.76909 -0.35172
 C308 C -0.12188 0.84664 -0.36164
 C309 C -0.12551 0.85576 -0.23523
 C310 C -0.14330 0.77896 -0.22435
 H311 H -0.17948 0.93636 -0.20255
 H312 H -0.17297 0.92385 -0.43311
 H313 H -0.21148 0.79966 -0.18239
 H314 H -0.12883 0.71798 -0.38966
 H315 H -0.09477 0.86099 -0.41074
 H316 H -0.13459 0.73793 -0.16107
 C317 C 0.36968 0.61817 0.36151
 C318 C 0.36231 0.70026 0.38434
 C319 C 0.31684 0.68739 0.36933
 C320 C 0.32395 0.60590 0.34503
 C321 C 0.32102 0.70431 0.24333
 C322 C 0.36664 0.71632 0.25915
 C323 C 0.37374 0.63506 0.23765
 C324 C 0.32856 0.62253 0.21984
 H325 H 0.39002 0.58127 0.40815
 H326 H 0.37842 0.73512 0.44432
 H327 H 0.30567 0.55998 0.37739
 H328 H 0.30246 0.74064 0.19049
 H329 H 0.38435 0.76158 0.22236
 H330 H 0.31491 0.59090 0.15088
 C331 C -0.13008 1.12685 0.36027
 C332 C -0.13663 1.20916 0.38351
 C333 C -0.18234 1.19758 0.37121
 C334 C -0.17607 1.11579 0.34686
 C335 C -0.17886 1.21406 0.24461
 C336 C -0.13307 1.22479 0.25782
 C337 C -0.12685 1.14334 0.23569
 C338 C -0.17226 1.13195 0.22110
 H339 H -0.10974 1.08970 0.40643
 H340 H -0.11948 1.24314 0.44236
 H341 H -0.19416 1.07020 0.38105
 H342 H -0.19706 1.25107 0.19188
 H343 H -0.11535 1.26961 0.21980
 H344 H -0.18675 1.10036 0.15341
 C345 C 0.62970 0.37530 0.35993
 C346 C 0.63740 0.29337 0.38319
 C347 C 0.68287 0.30674 0.36883
 C348 C 0.67542 0.38818 0.34448
 C349 C 0.67900 0.28981 0.24257
 C350 C 0.63340 0.27714 0.25771
 C351 C 0.62610 0.35825 0.23569
 C352 C 0.67124 0.37147 0.21916
 H353 H 0.60906 0.41172 0.40658
 H354 H 0.62154 0.25897 0.44441
 H355 H 0.69319 0.43465 0.37727
 H356 H 0.69738 0.25399 0.18838
 H357 H 0.61601 0.23156 0.22062
 H358 H 0.68500 0.40345 0.15074
 C359 C 0.16720 0.89271 0.25383
 C360 C 0.16476 0.88300 0.38104
 C361 C 0.18251 0.80569 0.37028
 C362 C 0.18525 0.81558 0.24226
 C363 C 0.14011 0.77277 0.35649
 C364 C 0.12201 0.85032 0.36861
 C365 C 0.12492 0.86026 0.24254
 C366 C 0.14250 0.78345 0.22931
 H367 H 0.17896 0.94037 0.20808
 H368 H 0.17374 0.92734 0.43802
 H369 H 0.21043 0.80370 0.18459
 H370 H 0.12901 0.72117 0.39336
 H371 H 0.09494 0.86427 0.41809
 H372 H 0.13327 0.74290 0.16579
   
