data_POSCAR
  _audit_creation_date              2014-09-24
  _audit_creation_method            'ToBaCCo'
  _symmetry_space_group_name_H-M    'P1'
  _symmetry_Int_Tables_number       1
  _symmetry_cell_setting            triclinic
  loop_
  _symmetry_equiv_pos_as_xyz
 x,y,z
_cell_length_a 23.2030
_cell_length_b 22.9786
_cell_length_c 23.4105
_cell_angle_alpha 90.204100
_cell_angle_beta 89.901500
_cell_angle_gamma 90.026000
loop_
  _atom_site_label
  _atom_site_type_symbol
  _atom_site_fract_x
  _atom_site_fract_y
  _atom_site_fract_z
N1 N 0.26998 0.42178 1.39338
 N2 N 0.25488 0.36728 1.40318
 C3 C 0.20220 0.36637 1.42756
 C4 C 0.18464 0.42321 1.43624
 C5 C 0.22888 0.45731 1.41452
 H6 H 0.17975 0.32743 1.44088
 H7 H 0.22946 0.50426 1.41117
 Cu8 Cu 0.30911 0.30181 1.39338
 Cu9 Cu 0.33845 0.44151 1.34649
 Cu10 Cu 0.43489 0.33406 1.33223
 N11 N 0.37778 0.25422 1.40508
 N12 N 0.42745 0.26628 1.38073
 C13 C 0.46604 0.22447 1.39376
 C14 C 0.43874 0.18421 1.42839
 C15 C 0.38287 0.20454 1.43464
 H16 H 0.50996 0.22287 1.37826
 H17 H 0.34799 0.18392 1.45772
 N18 N 0.42732 0.39414 1.27466
 N19 N 0.39061 0.43750 1.27985
 C20 C 0.39435 0.47128 1.23274
 C21 C 0.43515 0.44695 1.19630
 C22 C 0.45507 0.39831 1.22452
 H23 H 0.36811 0.50929 1.22478
 H24 H 0.48672 0.36742 1.20911
 H25 H 0.33199 0.35690 1.32741
 H26 H 0.36297 0.37131 1.39944
 N27 N 1.24314 0.59123 0.88206
 N28 N 1.23268 0.62012 0.92950
 C29 C 1.27378 0.60750 0.96825
 C30 C 1.31170 0.56840 0.94338
 C31 C 1.29096 0.55922 0.88878
 H32 H 1.27708 0.62686 1.01030
 H33 H 1.31052 0.53297 0.85554
 Cu34 Cu 1.16876 0.67447 0.93314
 Cu35 Cu 1.19761 0.60166 0.81315
 Cu36 Cu 1.06251 0.66184 0.83702
 N37 N 1.11083 0.73473 0.92444
 N38 N 1.06718 0.72910 0.88904
 C39 C 1.03275 0.77631 0.89409
 C40 C 1.05730 0.81378 0.93389
 C41 C 1.10671 0.78585 0.95209
 H42 H 0.99407 0.78362 0.86939
 H43 H 1.13737 0.80150 0.98335
 N44 N 1.08087 0.61216 0.77000
 N45 N 1.13367 0.59392 0.75866
 C46 C 1.13400 0.56607 0.70790
 C47 C 1.07851 0.56559 0.68695
 C48 C 1.04581 0.59502 0.72730
 H49 H 1.17147 0.54622 0.68841
 H50 H 1.00032 0.60495 0.72474
 H51 H 1.14759 0.67495 0.83095
 H52 H 1.12753 0.60471 0.86520
 N53 N 0.72957 -0.07259 0.10785
 N54 N 0.72657 -0.11277 0.06786
 C55 C 0.77354 -0.10879 0.03391
 C56 C 0.80759 -0.06399 0.05436
 C57 C 0.77836 -0.04202 0.10107
 H58 H 0.78355 -0.13783 -0.00117
 H59 H 0.79272 -0.00759 0.12928
 Cu60 Cu 0.66451 -0.16966 0.06762
 Cu61 Cu 0.67356 -0.06573 0.16917
 Cu62 Cu 0.56343 -0.16729 0.17154
 N63 N 0.60449 -0.22843 0.07320
 N64 N 0.56303 -0.22569 0.11147
 C65 C 0.52888 -0.27294 0.10627
 C66 C 0.55136 -0.30773 0.06346
 C67 C 0.59909 -0.27812 0.04332
 H68 H 0.49320 -0.28333 0.13424
 H69 H 0.62873 -0.29271 0.01055
 N70 N 0.57154 -0.10522 0.22893
 N71 N 0.61296 -0.06584 0.22790
 C72 C 0.60948 -0.03280 0.27557
 C73 C 0.56434 -0.05328 0.30825
 C74 C 0.54121 -0.09891 0.27749
 H75 H 0.63960 0.00104 0.28745
 H76 H 0.50639 -0.12702 0.29094
 H77 H 0.65175 -0.15326 0.16980
 H78 H 0.60606 -0.10375 0.12571
 N79 N -0.22628 1.06971 -0.39521
 N80 N -0.21986 1.10590 -0.43820
 C81 C -0.26717 1.10287 -0.47177
 C82 C -0.30507 1.06312 -0.44769
 C83 C -0.27747 1.04295 -0.39946
 H84 H -0.27440 1.12918 -0.50931
 H85 H -0.29413 1.01210 -0.36875
 Cu86 Cu -0.15216 1.15759 -0.44161
 Cu87 Cu -0.16951 1.06254 -0.33484
 Cu88 Cu -0.11007 1.19075 -0.30353
 N89 N -0.10570 1.22700 -0.42214
 N90 N -0.09748 1.24343 -0.36865
 C91 C -0.07294 1.29655 -0.36796
 C92 C -0.06285 1.31313 -0.42377
 C93 C -0.08367 1.26780 -0.45713
 H94 H -0.06094 1.32020 -0.32975
 H95 H -0.08600 1.26634 -0.50327
 N96 N -0.09993 1.12291 -0.25479
 N97 N -0.12308 1.07208 -0.26672
 C98 C -0.11016 1.03408 -0.22485
 C99 C -0.07693 1.06305 -0.18479
 C100 C -0.07156 1.11923 -0.20504
 H101 H -0.12441 0.98928 -0.22333
 H102 H -0.04917 1.15507 -0.18477
 H103 H -0.17425 1.16591 -0.35933
 H104 H -0.10096 1.13465 -0.37013
 N105 N 0.73884 0.58264 0.62019
 N106 N 0.72960 0.61298 0.57361
 C107 C 0.77508 0.60659 0.53807
 C108 C 0.81450 0.57024 0.56432
 C109 C 0.79008 0.55598 0.61611
 H110 H 0.77944 0.62731 0.49687
 H111 H 0.80827 0.52786 0.64834
 Cu112 Cu 0.66030 0.65987 0.56599
 Cu113 Cu 0.68336 0.57654 0.68179
 Cu114 Cu 0.55949 0.65884 0.66938
 N115 N 0.60567 0.72353 0.57544
 N116 N 0.56833 0.72474 0.61779
 C117 C 0.53887 0.77528 0.61616
 C118 C 0.55863 0.80682 0.56995
 C119 C 0.60063 0.77272 0.54483
 H120 H 0.50514 0.78766 0.64575
 H121 H 0.62653 0.78354 0.50788
 N122 N 0.57201 0.60303 0.73191
 N123 N 0.62132 0.57532 0.73882
 C124 C 0.61957 0.54548 0.78815
 C125 C 0.56616 0.55361 0.81253
 C126 C 0.53692 0.59035 0.77607
 H127 H 0.65444 0.51970 0.80527
 H128 H 0.49459 0.60889 0.78280
 H129 H 0.61183 0.59413 0.63354
 H130 H 0.64705 0.65773 0.66899
 N131 N 0.77546 0.43736 0.10820
 N132 N 0.77565 0.39299 0.07250
 C133 C 0.72598 0.39234 0.04288
 C134 C 0.69364 0.43948 0.06036
 C135 C 0.72623 0.46750 0.10142
 H136 H 0.71442 0.36015 0.01106
 H137 H 0.71403 0.50540 0.12618
 Cu138 Cu 0.84105 0.34063 0.06767
 Cu139 Cu 0.83661 0.44805 0.16479
 Cu140 Cu 0.89868 0.31440 0.19510
 N141 N 0.89525 0.27750 0.07840
 N142 N 0.91473 0.26517 0.12962
 C143 C 0.94342 0.21443 0.12773
 C144 C 0.94335 0.19504 0.07193
 C145 C 0.91251 0.23596 0.04154
 H146 H 0.96174 0.19269 0.16437
 H147 H 0.89980 0.23329 -0.00283
 N148 N 0.90225 0.38177 0.24693
 N149 N 0.88047 0.43346 0.23526
 C150 C 0.89276 0.47025 0.27863
 C151 C 0.92431 0.43991 0.31886
 C152 C 0.92949 0.38426 0.29736
 H153 H 0.87973 0.51541 0.28071
 H154 H 0.95198 0.34824 0.31688
 H155 H 0.89979 0.38500 0.14242
 H156 H 0.82764 0.36180 0.16920
 N157 N 0.26107 0.08854 0.88220
 N158 N 0.27344 0.11428 0.93094
 C159 C 0.22929 0.10661 0.96769
 C160 C 0.18744 0.07445 0.94000
 C161 C 0.20875 0.06376 0.88608
 H162 H 0.22749 0.12368 1.01077
 H163 H 0.18801 0.03902 0.85253
 Cu164 Cu 0.34452 0.15785 0.94029
 Cu165 Cu 0.31499 0.08433 0.81878
 Cu166 Cu 0.44412 0.15733 0.83643
 N167 N 0.40138 0.21985 0.93364
 N168 N 0.43857 0.22119 0.89120
 C169 C 0.46879 0.27123 0.89382
 C170 C 0.44982 0.30227 0.94085
 C171 C 0.40722 0.26854 0.96528
 H172 H 0.50155 0.28424 0.86350
 H173 H 0.38067 0.27979 1.00171
 N174 N 0.42805 0.10695 0.77031
 N175 N 0.37684 0.08369 0.76116
 C176 C 0.37730 0.05627 0.71024
 C177 C 0.43172 0.06144 0.68717
 C178 C 0.46299 0.09369 0.72618
 H179 H 0.34130 0.03298 0.69182
 H180 H 0.50715 0.10814 0.72177
 H181 H 0.38732 0.09348 0.86765
 H182 H 0.35644 0.16169 0.83726
 N183 N 0.23694 0.91792 0.38440
 N184 N 0.24321 0.86785 0.41062
 C185 C 0.29018 0.87005 0.44418
 C186 C 0.31348 0.92501 0.43985
 C187 C 0.27893 0.95437 0.40156
 H188 H 0.30657 0.83420 0.46917
 H189 H 0.28617 0.99750 0.38463
 Cu190 Cu 0.18983 0.80437 0.39903
 Cu191 Cu 0.18063 0.92787 0.32366
 Cu192 Cu 0.06946 0.82794 0.32128
 N193 N 0.12170 0.75667 0.40659
 N194 N 0.07421 0.76578 0.37741
 C195 C 0.03585 0.72346 0.38980
 C196 C 0.06113 0.68640 0.42887
 C197 C 0.11530 0.70891 0.43863
 H198 H -0.00598 0.71852 0.37005
 H199 H 0.14842 0.69065 0.46565
 N200 N 0.07464 0.89349 0.26750
 N201 N 0.11901 0.92950 0.26619
 C202 C 0.11568 0.96240 0.21881
 C203 C 0.06615 0.94714 0.18999
 C204 C 0.04100 0.90365 0.22186
 H205 H 0.14766 0.99376 0.20534
 H206 H 0.00339 0.87845 0.21026
 H207 H 0.12239 0.87896 0.37127
 H208 H 0.15654 0.84124 0.30820
 Zn209 Zn 0.01271 1.07247 -0.03542
 Zn210 Zn -0.04592 0.95623 -0.04561
 Zn211 Zn 0.06772 0.96843 0.01599
 Zn212 Zn -0.03738 1.01826 0.06760
 O213 O -0.00085 1.00353 0.00034
 O214 O -0.02219 1.07648 -0.10217
 O215 O -0.01005 0.88840 -0.06379
 O216 O 0.12857 1.00778 -0.01100
 O217 O -0.06543 0.99112 -0.11229
 O218 O 0.08730 1.08502 -0.04989
 O219 O 0.07172 0.89792 -0.01570
 O220 O -0.00119 0.98999 0.12849
 O221 O -0.11379 0.93745 -0.01161
 O222 O 0.08018 0.95745 0.09080
 O223 O -0.10678 0.98704 0.06950
 O224 O -0.04798 1.09378 0.08147
 O225 O -0.01334 1.13432 0.00304
 C226 C -0.05357 1.04184 -0.13047
 C227 C 0.03865 0.86863 -0.04806
 C228 C 0.13167 1.05523 -0.03829
 C229 C 0.04775 0.96638 0.13356
 C230 C -0.13468 0.95418 0.03598
 C231 C -0.03774 1.13821 0.05129
 Zn232 Zn 0.43195 0.03333 0.51413
 Zn233 Zn 0.54629 0.04640 0.45475
 Zn234 Zn 0.53712 -0.01531 0.56756
 Zn235 Zn 0.48790 -0.07059 0.46437
 O236 O 0.50109 -0.00129 0.49998
 O237 O 0.42648 0.10182 0.48067
 O238 O 0.61538 0.06344 0.48737
 O239 O 0.50028 0.01583 0.62761
 O240 O 0.51061 0.11459 0.43768
 O241 O 0.41906 0.04678 0.58840
 O242 O 0.60736 0.01525 0.56888
 O243 O 0.51690 -0.13171 0.50147
 O244 O 0.56257 0.01285 0.38664
 O245 O 0.54729 -0.09161 0.58213
 O246 O 0.51831 -0.07225 0.39510
 O247 O 0.41329 -0.08578 0.45292
 O248 O 0.37177 -0.00620 0.48682
 C249 C 0.45994 0.13197 0.44990
 C250 C 0.63618 0.04672 0.53482
 C251 C 0.45129 0.03996 0.63155
 C252 C 0.53943 -0.13589 0.55053
 C253 C 0.54779 -0.03633 0.36638
 C254 C 0.36889 -0.05506 0.46189
 Zn255 Zn 1.01295 0.42767 0.46913
 Zn256 Zn 1.07198 0.53247 0.51378
 Zn257 Zn 0.95560 0.54483 0.45907
 Zn258 Zn 0.96943 0.48595 0.57310
 O259 O 1.00226 0.49798 0.50354
 O260 O 1.08802 0.41017 0.45633
 O261 O 1.07488 0.60125 0.48094
 O262 O 0.93504 0.51006 0.39301
 O263 O 1.12996 0.49308 0.48102
 O264 O 0.97896 0.42489 0.40144
 O265 O 0.99007 0.61229 0.43916
 O266 O 0.90052 0.51892 0.57749
 O267 O 1.08927 0.54652 0.58782
 O268 O 0.88922 0.56409 0.49474
 O269 O 1.00912 0.51754 0.63066
 O270 O 0.95757 0.41030 0.58953
 O271 O 0.98065 0.36873 0.50727
 C272 C 1.13244 0.44255 0.45914
 C273 C 1.04028 0.63070 0.45097
 C274 C 0.94746 0.45988 0.37375
 C275 C 0.87096 0.55020 0.54403
 C276 C 1.05831 0.54142 0.63237
 C277 C 0.95975 0.36580 0.55724
 Zn278 Zn 0.51764 0.43213 1.04158
 Zn279 Zn 0.45354 0.54562 1.04873
 Zn280 Zn 0.56686 0.53704 0.98640
 Zn281 Zn 0.46426 0.48061 0.93676
 O282 O 0.50026 0.49897 1.00363
 O283 O 0.48581 0.43053 1.11082
 O284 O 0.48705 0.61509 1.06471
 O285 O 0.62951 0.50297 1.01471
 O286 O 0.43626 0.51274 1.11722
 O287 O 0.59365 0.42266 1.05293
 O288 O 0.56781 0.60826 1.01458
 O289 O 0.50020 0.50776 0.87454
 O290 O 0.38582 0.56238 1.01374
 O291 O 0.57905 0.54622 0.91172
 O292 O 0.39509 0.51240 0.93298
 O293 O 0.45458 0.40371 0.92649
 O294 O 0.49212 0.36792 1.00595
 C295 C 0.45303 0.46475 1.13844
 C296 C 0.53431 0.63667 1.04699
 C297 C 0.63595 0.45558 1.04133
 C298 C 0.54766 0.53438 0.86908
 C299 C 0.36672 0.54625 0.96526
 C300 C 0.46683 0.36099 0.95844
   
