data_POSCAR
  _audit_creation_date              2014-09-24
  _audit_creation_method            'ToBaCCo'
  _symmetry_space_group_name_H-M    'P1'
  _symmetry_Int_Tables_number       1
  _symmetry_cell_setting            triclinic
  loop_
  _symmetry_equiv_pos_as_xyz
 x,y,z
_cell_length_a 23.2739
_cell_length_b 23.2971
_cell_length_c 23.3088
_cell_angle_alpha 90.034600
_cell_angle_beta 93.252200
_cell_angle_gamma 90.459700
loop_
  _atom_site_label
  _atom_site_type_symbol
  _atom_site_fract_x
  _atom_site_fract_y
  _atom_site_fract_z
Si1 Si -0.01073 0.50033 0.24889
 Si2 Si 0.01676 0.50091 0.75185
 Si3 Si 0.25076 -0.00275 0.51411
 Si4 Si 0.74818 0.00090 0.48563
 Si5 Si 0.49938 0.25072 0.99951
 Si6 Si 0.49604 0.74915 0.99983
 B7 B 0.99622 1.05962 0.03525
 B8 B 0.99617 1.05860 -0.03703
 B9 B 1.05543 1.03870 0.00270
 B10 B 1.03406 1.00266 0.06058
 B11 B 0.96157 1.00009 0.05638
 B12 B 0.93815 1.03469 -0.00391
 B13 B 0.99929 0.94164 -0.03528
 B14 B 0.99930 0.94253 0.03693
 B15 B 0.94004 0.96245 -0.00288
 B16 B 0.96157 0.99853 -0.06056
 B17 B 1.03391 1.00104 -0.05651
 B18 B 1.05735 0.96650 0.00378
 B19 B 0.55871 0.50010 0.46323
 B20 B 0.49883 0.53625 0.44179
 B21 B 0.49846 0.46407 0.44091
 B22 B 0.53830 0.44119 0.49884
 B23 B 0.56354 0.49924 0.53556
 B24 B 0.53905 0.55810 0.50027
 B25 B 0.44643 0.49888 0.53663
 B26 B 0.50624 0.46270 0.55805
 B27 B 0.50671 0.53500 0.55898
 B28 B 0.46672 0.55792 0.50099
 B29 B 0.44151 0.49970 0.46428
 B30 B 0.46603 0.44080 0.49949
 C31 C 1.02688 1.36835 0.13849
 C32 C 0.98192 1.32904 0.14535
 C33 C 0.93486 1.34498 0.17640
 C34 C 0.93448 1.39843 0.20364
 C35 C 0.98164 1.43609 0.20088
 C36 C 1.02641 1.42196 0.16565
 C37 C 0.98540 1.27133 0.12357
 C38 C 0.98838 1.22264 0.10639
 C39 C 0.99170 1.16579 0.08580
 C40 C 0.99413 1.11808 0.06608
 H41 H 1.06327 1.35678 0.11401
 H42 H 0.89934 1.31535 0.18119
 H43 H 0.89813 1.40898 0.22829
 H44 H 1.06273 1.45085 0.16214
 C45 C 1.04809 0.65406 0.18266
 C46 C 1.00018 0.67371 0.14969
 C47 C 0.95198 0.63777 0.14028
 C48 C 0.95056 0.58375 0.16658
 C49 C 0.99668 0.56595 0.20358
 C50 C 1.04657 0.60031 0.20902
 C51 C 0.99990 0.73159 0.12790
 C52 C 1.00002 0.78037 0.11055
 C53 C 1.00026 0.83721 0.08953
 C54 C 1.00022 0.88474 0.06915
 H55 H 1.08610 0.68095 0.18929
 H56 H 0.91490 0.65216 0.11416
 H57 H 0.91221 0.55728 0.16063
 H58 H 1.08407 0.58671 0.23464
 C59 C 1.05178 1.33794 -0.18564
 C60 C 1.00387 1.32480 -0.15450
 C61 C 0.96171 1.36652 -0.14749
 C62 C 0.96698 1.42073 -0.17292
 C63 C 1.01447 1.43349 -0.20531
 C64 C 1.05697 1.39173 -0.21105
 C65 C 0.99810 1.26782 -0.13151
 C66 C 0.99550 1.21958 -0.11306
 C67 C 0.99446 1.16327 -0.09083
 C68 C 0.99473 1.11610 -0.06966
 H69 H 1.08458 1.30603 -0.19148
 H70 H 0.92431 1.35677 -0.12352
 H71 H 0.93318 1.45191 -0.16892
 H72 H 1.09345 1.39941 -0.23673
 C73 C 1.00737 0.62631 -0.12183
 C74 C 1.01802 0.67649 -0.15296
 C75 C 1.03180 0.67271 -0.21037
 C76 C 1.03341 0.61939 -0.23715
 C77 C 1.02129 0.56910 -0.20689
 C78 C 1.00916 0.57252 -0.14877
 C79 C 1.01311 0.73236 -0.12757
 C80 C 1.00903 0.78008 -0.10842
 C81 C 1.00465 0.83617 -0.08653
 C82 C 1.00160 0.88349 -0.06625
 H83 H 0.99670 0.62885 -0.07727
 H84 H 1.04010 0.71114 -0.23484
 H85 H 1.04252 0.61759 -0.28218
 H86 H 0.99962 0.53417 -0.12484
 C87 C 1.18514 0.95517 0.35046
 C88 C 1.15215 1.00288 0.33411
 C89 C 1.14457 1.04703 0.37389
 C90 C 1.17134 1.04395 0.42929
 C91 C 1.20578 0.99674 0.44519
 C92 C 1.21191 0.95217 0.40540
 C93 C 1.12824 1.00647 0.27580
 C94 C 1.10937 1.00730 0.22650
 C95 C 1.08703 1.00648 0.16884
 C96 C 1.06607 1.00496 0.12035
 H97 H 1.19146 0.92082 0.32013
 H98 H 1.11917 1.08429 0.36170
 H99 H 1.16683 1.07920 0.45896
 H100 H 1.23896 0.91570 0.41549
 C101 C 1.21704 0.99003 -0.31459
 C102 C 1.15752 0.99711 -0.31393
 C103 C 1.12459 1.00310 -0.36595
 C104 C 1.15146 1.00256 -0.41838
 C105 C 1.21129 0.99629 -0.41874
 C106 C 1.24371 0.98953 -0.36661
 C107 C 1.13121 0.99859 -0.25947
 C108 C 1.11092 0.99966 -0.21300
 C109 C 1.08749 1.00063 -0.15844
 C110 C 1.06601 1.00112 -0.11259
 H111 H 1.24294 0.98526 -0.27479
 H112 H 1.07840 1.00845 -0.36593
 H113 H 1.12578 1.00753 -0.45821
 H114 H 1.28997 0.98450 -0.36612
 C115 C 0.81021 1.04668 0.32921
 C116 C 0.84706 1.00179 0.31721
 C117 C 0.85875 0.95899 0.35837
 C118 C 0.83202 0.96031 0.41073
 C119 C 0.79340 1.00435 0.42207
 C120 C 0.78342 1.04789 0.38111
 C121 C 0.87013 0.99896 0.26141
 C122 C 0.88813 0.99814 0.21400
 C123 C 0.90947 0.99845 0.15867
 C124 C 0.92984 0.99919 0.11239
 H125 H 0.80072 1.07988 0.29760
 H126 H 0.88705 0.92383 0.34933
 H127 H 0.83919 0.92548 0.44094
 H128 H 0.75308 1.08181 0.38759
 C129 C 0.78374 1.01080 -0.33972
 C130 C 0.84132 0.99494 -0.33209
 C131 C 0.87262 0.98137 -0.37992
 C132 C 0.84581 0.98315 -0.43534
 C133 C 0.78760 0.99808 -0.44280
 C134 C 0.75718 1.01258 -0.39462
 C135 C 0.86737 0.99369 -0.27479
 C136 C 0.88694 0.99380 -0.22590
 C137 C 0.90923 0.99492 -0.16852
 C138 C 0.92992 0.99638 -0.12009
 H139 H 0.75934 1.02206 -0.30316
 H140 H 0.91751 0.96955 -0.37438
 H141 H 0.87047 0.97290 -0.47182
 H142 H 0.71279 1.02610 -0.39925
 C143 C 1.36978 1.12647 -0.00117
 C144 C 1.32063 1.16051 0.00276
 C145 C 1.32603 1.22018 0.00543
 C146 C 1.38006 1.24592 0.00412
 C147 C 1.42940 1.21235 -0.00014
 C148 C 1.42429 1.15242 -0.00248
 C149 C 1.26422 1.13524 0.00384
 C150 C 1.21617 1.11591 0.00456
 C151 C 1.15990 1.09336 0.00494
 C152 C 1.11270 1.07197 0.00458
 H153 H 1.36594 1.08013 -0.00316
 H154 H 1.28840 1.24688 0.00851
 H155 H 1.38333 1.29230 0.00628
 H156 H 1.46204 1.12596 -0.00523
 C157 C 0.66144 1.18650 0.04095
 C158 C 0.67166 1.15100 -0.00564
 C159 C 0.62803 1.14157 -0.04869
 C160 C 0.57483 1.16894 -0.04568
 C161 C 0.56507 1.20569 0.00042
 C162 C 0.60867 1.21386 0.04387
 C163 C 0.72789 1.12654 -0.00942
 C164 C 0.77580 1.10747 -0.01038
 C165 C 0.83206 1.08531 -0.00949
 C166 C 0.87953 1.06497 -0.00754
 H167 H 0.69491 1.19431 0.07434
 H168 H 0.63556 1.11426 -0.08509
 H169 H 0.54211 1.16295 -0.08012
 H170 H 0.60327 1.24298 0.07920
 C171 C 1.32393 0.78523 0.00423
 C172 C 1.32148 0.84509 0.00254
 C173 C 1.37232 0.87747 -0.00093
 C174 C 1.42552 0.84972 -0.00253
 C175 C 1.42769 0.78963 -0.00091
 C176 C 1.37667 0.75771 0.00266
 C177 C 1.26630 0.87220 0.00436
 C178 C 1.21900 0.89262 0.00567
 C179 C 1.16319 0.91557 0.00654
 C180 C 1.11592 0.93620 0.00628
 H181 H 1.28500 0.75977 0.00694
 H182 H 1.37083 0.92392 -0.00217
 H183 H 1.46457 0.87495 -0.00466
 H184 H 1.37766 0.71125 0.00436
 C185 C 0.66062 0.80911 0.04254
 C186 C 0.67300 0.84355 -0.00428
 C187 C 0.63022 0.85372 -0.04784
 C188 C 0.57571 0.82809 -0.04512
 C189 C 0.56373 0.79236 0.00121
 C190 C 0.60651 0.78350 0.04520
 C191 C 0.73028 0.86664 -0.00759
 C192 C 0.77875 0.88513 -0.00833
 C193 C 0.83531 0.90751 -0.00744
 C194 C 0.88262 0.92900 -0.00575
 H195 H 0.69336 0.80080 0.07638
 H196 H 0.63938 0.88030 -0.08438
 H197 H 0.54363 0.83460 -0.07995
 H198 H 0.59938 0.75513 0.08078
 C199 C 0.85793 0.46037 0.35546
 C200 C 0.82026 0.50667 0.34746
 C201 C 0.83682 0.55429 0.31562
 C202 C 0.88925 0.55433 0.28921
 C203 C 0.92530 0.50630 0.29356
 C204 C 0.91054 0.46050 0.32911
 C205 C 0.76381 0.50464 0.36987
 C206 C 0.71625 0.50319 0.38796
 C207 C 0.66090 0.50177 0.40989
 C208 C 0.61472 0.50084 0.43085
 H209 H 0.84596 0.42355 0.38064
 H210 H 0.80856 0.59084 0.31001
 H211 H 0.90048 0.59148 0.26447
 H212 H 0.93833 0.42355 0.33406
 C213 C 0.12774 0.53784 0.36244
 C214 C 0.16498 0.49193 0.35439
 C215 C 0.14560 0.44444 0.32183
 C216 C 0.09081 0.44453 0.29411
 C217 C 0.05521 0.49261 0.29783
 C218 C 0.07272 0.53782 0.33481
 C219 C 0.22406 0.49470 0.37630
 C220 C 0.27394 0.49666 0.39336
 C221 C 0.33223 0.49845 0.41370
 C222 C 0.38126 0.49944 0.43328
 H223 H 0.14200 0.57456 0.38816
 H224 H 0.17359 0.40817 0.31619
 H225 H 0.07760 0.40773 0.26833
 H226 H 0.04540 0.57480 0.33920
 C227 C 0.85553 0.54647 0.68392
 C228 C 0.83776 0.49843 0.65154
 C229 C 0.87603 0.45304 0.64476
 C230 C 0.93136 0.45518 0.67193
 C231 C 0.94856 0.50264 0.70600
 C232 C 0.91038 0.54853 0.71111
 C233 C 0.77935 0.49566 0.62780
 C234 C 0.72995 0.49542 0.60925
 C235 C 0.67219 0.49666 0.58740
 C236 C 0.62354 0.49809 0.56690
 H237 H 0.82632 0.58177 0.68956
 H238 H 0.86265 0.41553 0.61981
 H239 H 0.95983 0.41900 0.66815
 H240 H 0.92155 0.58536 0.73770
 C241 C 0.13757 0.49511 0.62695
 C242 C 0.18946 0.50066 0.66032
 C243 C 0.18857 0.50703 0.71985
 C244 C 0.13632 0.50740 0.74611
 C245 C 0.08428 0.50118 0.71321
 C246 C 0.08491 0.49549 0.65339
 C247 C 0.24404 0.49969 0.63437
 C248 C 0.29057 0.49906 0.61425
 C249 C 0.34508 0.49861 0.59086
 C250 C 0.39080 0.49851 0.56920
 H251 H 0.13786 0.49032 0.58073
 H252 H 0.22834 0.51148 0.74604
 H253 H 0.13653 0.51203 0.79237
 H254 H 0.04511 0.49101 0.62739
 C255 C 0.49712 0.62365 0.12719
 C256 C 0.49267 0.65713 0.17685
 C257 C 0.48870 0.71674 0.17236
 C258 C 0.48955 0.74298 0.11880
 C259 C 0.49459 0.71001 0.06899
 C260 C 0.49794 0.65011 0.07315
 C261 C 0.49287 0.63142 0.23292
 C262 C 0.49333 0.61191 0.28078
 C263 C 0.49435 0.58944 0.33694
 C264 C 0.49581 0.56846 0.38416
 H265 H 0.50016 0.57737 0.13028
 H266 H 0.48523 0.74303 0.21036
 H267 H 0.48673 0.78932 0.11632
 H268 H 0.50143 0.62407 0.03507
 C269 C 0.54625 0.64221 0.86980
 C270 C 0.50394 0.65194 0.82569
 C271 C 0.45702 0.68680 0.83595
 C272 C 0.45310 0.71325 0.88925
 C273 C 0.49589 0.70484 0.93331
 C274 C 0.54225 0.66868 0.92347
 C275 C 0.50883 0.62821 0.76910
 C276 C 0.51089 0.60943 0.72104
 C277 C 0.51126 0.58720 0.66470
 C278 C 0.51013 0.56643 0.61729
 H279 H 0.58287 0.61537 0.86230
 H280 H 0.42415 0.69481 0.80216
 H281 H 0.41759 0.74193 0.89479
 H282 H 0.57621 0.66251 0.95655
 C283 C 0.49355 0.28473 0.17172
 C284 C 0.49718 0.34445 0.17562
 C285 C 0.50209 0.37750 0.12573
 C286 C 0.50332 0.35048 0.07198
 C287 C 0.49991 0.29049 0.06840
 C288 C 0.49477 0.25795 0.11847
 C289 C 0.49604 0.37067 0.23134
 C290 C 0.49526 0.39029 0.27907
 C291 C 0.49496 0.41251 0.33525
 C292 C 0.49562 0.43297 0.38268
 H293 H 0.48972 0.25879 0.20992
 H294 H 0.50484 0.42387 0.12840
 H295 H 0.50673 0.37616 0.03364
 H296 H 0.49174 0.21155 0.11638
 C297 C 0.55043 0.35553 0.86766
 C298 C 0.50717 0.34568 0.82432
 C299 C 0.45968 0.31132 0.83560
 C300 C 0.45602 0.28550 0.88918
 C301 C 0.49964 0.29408 0.93253
 C302 C 0.54669 0.32969 0.92167
 C303 C 0.51136 0.36892 0.76752
 C304 C 0.51250 0.38734 0.71930
 C305 C 0.51169 0.40936 0.66292
 C306 C 0.50978 0.43032 0.61565
 H307 H 0.58749 0.38203 0.85933
 H308 H 0.42608 0.30325 0.80240
 H309 H 0.41993 0.25719 0.89543
 H310 H 0.58126 0.33595 0.95421
 C311 C 0.64136 0.86643 0.52738
 C312 C 0.64854 0.82721 0.48293
 C313 C 0.67841 0.84372 0.43516
 C314 C 0.70410 0.89803 0.43350
 C315 C 0.70073 0.93606 0.47994
 C316 C 0.66706 0.92078 0.52571
 C317 C 0.62801 0.76918 0.48768
 C318 C 0.61144 0.72036 0.49188
 C319 C 0.59102 0.66358 0.49639
 C320 C 0.57094 0.61601 0.49921
 H321 H 0.61763 0.85432 0.56423
 H322 H 0.68351 0.81396 0.40011
 H323 H 0.72824 0.90902 0.39678
 H324 H 0.66245 0.94958 0.56140
 C325 C 0.62398 0.12821 0.48063
 C326 C 0.65773 0.17756 0.49191
 C327 C 0.71724 0.17299 0.50178
 C328 C 0.74317 0.11952 0.50004
 C329 C 0.70989 0.07002 0.48831
 C330 C 0.65010 0.07429 0.47889
 C331 C 0.63230 0.23337 0.49311
 C332 C 0.61290 0.28098 0.49442
 C333 C 0.59056 0.33677 0.49612
 C334 C 0.56980 0.38375 0.49749
 H335 H 0.57777 0.13148 0.47298
 H336 H 0.74365 0.21085 0.51056
 H337 H 0.78945 0.11681 0.50744
 H338 H 0.62394 0.03638 0.46986
 C339 C 0.28692 0.82495 0.52527
 C340 C 0.34545 0.82165 0.51542
 C341 C 0.37744 0.87222 0.50797
 C342 C 0.35043 0.92584 0.50925
 C343 C 0.29136 0.92882 0.51769
 C344 C 0.26008 0.87814 0.52644
 C345 C 0.37143 0.76596 0.51170
 C346 C 0.39128 0.71848 0.50855
 C347 C 0.41411 0.66270 0.50512
 C348 C 0.43510 0.61571 0.50274
 H349 H 0.26175 0.78628 0.53114
 H350 H 0.42287 0.87013 0.50040
 H351 H 0.37523 0.96448 0.50252
 H352 H 0.21438 0.87961 0.53288
 C353 C 0.31461 0.16006 0.55295
 C354 C 0.34719 0.17340 0.50614
 C355 C 0.35470 0.13184 0.46369
 C356 C 0.32840 0.07766 0.46752
 C357 C 0.29459 0.06470 0.51386
 C358 C 0.28834 0.10627 0.55671
 C359 C 0.37096 0.23047 0.50159
 C360 C 0.38993 0.27877 0.49962
 C361 C 0.41255 0.33523 0.49884
 C362 C 0.43378 0.38263 0.49892
 H363 H 0.30831 0.19181 0.58595
 H364 H 0.37974 0.14170 0.42712
 H365 H 0.33289 0.04664 0.43348
 H366 H 0.26160 0.09845 0.59232
   
