data_POSCAR
  _audit_creation_date              2014-09-24
  _audit_creation_method            'ToBaCCo'
  _symmetry_space_group_name_H-M    'P1'
  _symmetry_Int_Tables_number       1
  _symmetry_cell_setting            triclinic
  loop_
  _symmetry_equiv_pos_as_xyz
 x,y,z
_cell_length_a 27.2872
_cell_length_b 27.3476
_cell_length_c 27.4110
_cell_angle_alpha 90.160100
_cell_angle_beta 90.009300
_cell_angle_gamma 90.010400
loop_
  _atom_site_label
  _atom_site_type_symbol
  _atom_site_fract_x
  _atom_site_fract_y
  _atom_site_fract_z
C1 C 0.28677 0.24921 0.21389
 C2 C 0.28648 0.21311 0.25027
 C3 C 0.25035 0.21291 0.28680
 C4 C 0.21418 0.24948 0.28660
 C5 C 0.21379 0.28589 0.25055
 C6 C 0.25025 0.28542 0.21436
 H7 H 0.31449 0.18506 0.25016
 H8 H 0.18620 0.24960 0.31462
 H9 H 0.25021 0.31336 0.18645
 C10 C 0.71330 -0.25012 0.21220
 C11 C 0.71419 -0.21388 0.24890
 C12 C 0.74953 -0.21441 0.28603
 C13 C 0.78500 -0.25150 0.28649
 C14 C 0.78615 -0.28807 0.25011
 C15 C 0.74978 -0.28681 0.21340
 H16 H 0.68646 -0.18566 0.24993
 H17 H 0.81264 -0.25052 0.31474
 H18 H 0.74987 -0.31466 0.18546
 C19 C 0.71433 0.24983 0.78641
 C20 C 0.71413 0.21415 0.74957
 C21 C 0.74968 0.21441 0.71264
 C22 C 0.78564 0.25121 0.71263
 C23 C 0.78715 0.28752 0.74940
 C24 C 0.75094 0.28597 0.78624
 H25 H 0.68617 0.18604 0.74965
 H26 H 0.81330 0.25022 0.68441
 H27 H 0.74989 0.31371 0.81439
 C28 C 0.28546 -0.24856 0.78712
 C29 C 0.24872 -0.28459 0.78706
 C30 C 0.21244 -0.28627 0.75029
 C31 C 0.21392 -0.25015 0.71354
 C32 C 0.24996 -0.21344 0.71345
 C33 C 0.28563 -0.21307 0.75030
 H34 H 0.24978 -0.31219 0.81519
 H35 H 0.18619 -0.24926 0.68538
 H36 H 0.31368 -0.18506 0.75028
 C37 C 0.71434 -0.24876 0.78672
 C38 C 0.75102 -0.28480 0.78661
 C39 C 0.78724 -0.28648 0.74981
 C40 C 0.78573 -0.25039 0.71304
 C41 C 0.74971 -0.21367 0.71303
 C42 C 0.71412 -0.21327 0.74991
 H43 H 0.74998 -0.31240 0.81474
 H44 H 0.81341 -0.24951 0.68485
 H45 H 0.68609 -0.18523 0.74995
 C46 C 0.28641 0.24985 0.78648
 C47 C 0.24997 0.28613 0.78612
 C48 C 0.21355 0.28659 0.74989
 C49 C 0.21390 0.25011 0.71370
 C50 C 0.25002 0.21351 0.71342
 C51 C 0.28611 0.21371 0.74997
 H52 H 0.24996 0.31412 0.81414
 H53 H 0.18595 0.25020 0.68565
 H54 H 0.31408 0.18562 0.74999
 C55 C 0.28765 -0.24987 0.21228
 C56 C 0.25138 -0.28674 0.21367
 C57 C 0.21480 -0.28697 0.24974
 C58 C 0.21471 -0.25018 0.28546
 C59 C 0.25035 -0.21328 0.28536
 C60 C 0.28629 -0.21319 0.24867
 H61 H 0.25024 -0.31484 0.18588
 H62 H 0.18675 -0.25028 0.31350
 H63 H 0.31404 -0.18500 0.24981
 C64 C 0.71334 0.24924 0.21419
 C65 C 0.71355 0.21313 0.25054
 C66 C 0.74962 0.21293 0.28712
 C67 C 0.78580 0.24949 0.28703
 C68 C 0.78626 0.28589 0.25097
 C69 C 0.74986 0.28544 0.21474
 H70 H 0.68554 0.18508 0.25035
 H71 H 0.81374 0.24959 0.31509
 H72 H 0.74996 0.31339 0.18682
 O73 O 0.20995 0.04709 0.45246
 O74 O 0.20993 -0.04796 0.54736
 O75 O 0.20977 0.04715 0.54749
 O76 O 0.20981 -0.04798 0.45225
 O77 O 0.29064 -0.04806 0.45239
 O78 O 0.29060 0.04725 0.54748
 O79 O 0.29076 -0.04804 0.54735
 O80 O 0.29078 0.04718 0.45259
 Cu81 Cu 0.20176 -0.00045 0.49990
 Cu82 Cu 0.29880 -0.00043 0.49997
 C83 C 0.25037 0.06343 0.43626
 C84 C 0.25034 -0.06429 0.56363
 C85 C 0.25017 0.06354 0.56377
 C86 C 0.25022 -0.06428 0.43596
 O87 O 0.78968 0.04718 0.54739
 O88 O 0.78969 -0.04820 0.45231
 O89 O 0.78972 0.04688 0.45241
 O90 O 0.78966 -0.04796 0.54738
 O91 O 0.70884 -0.04807 0.54731
 O92 O 0.70889 0.04696 0.45244
 O93 O 0.70886 -0.04832 0.45237
 O94 O 0.70886 0.04728 0.54732
 Cu95 Cu 0.79779 -0.00054 0.49989
 Cu96 Cu 0.70076 -0.00055 0.49987
 C97 C 0.74928 0.06364 0.56360
 C98 C 0.74928 -0.06460 0.43603
 C99 C 0.74932 0.06320 0.43617
 C100 C 0.74926 -0.06428 0.56361
 O101 O 0.45254 0.20874 0.04723
 O102 O 0.54810 0.20884 -0.04767
 O103 O 0.54797 0.20878 0.04727
 O104 O 0.45256 0.20897 -0.04770
 O105 O 0.45269 0.28963 -0.04741
 O106 O 0.54790 0.28943 0.04766
 O107 O 0.54801 0.28949 -0.04740
 O108 O 0.45267 0.28939 0.04763
 Cu109 Cu 0.50029 0.20074 -0.00027
 Cu110 Cu 0.50033 0.29756 0.00014
 C111 C 0.43629 0.24905 0.06375
 C112 C 0.56441 0.24920 -0.06381
 C113 C 0.56422 0.24909 0.06380
 C114 C 0.43628 0.24934 -0.06383
 O115 O 0.54802 0.79141 0.04782
 O116 O 0.45240 0.79192 -0.04711
 O117 O 0.45272 0.79135 0.04790
 O118 O 0.54801 0.79185 -0.04720
 O119 O 0.54778 0.71120 -0.04797
 O120 O 0.45255 0.71070 0.04705
 O121 O 0.45255 0.71128 -0.04787
 O122 O 0.54810 0.71077 0.04697
 Cu123 Cu 0.50029 0.79972 0.00039
 Cu124 Cu 0.50025 0.70291 -0.00049
 C125 C 0.56445 0.75099 0.06366
 C126 C 0.43609 0.75167 -0.06375
 C127 C 0.43630 0.75093 0.06376
 C128 C 0.56423 0.75158 -0.06387
 O129 O 0.04761 0.45227 0.21053
 O130 O -0.04812 0.54711 0.21046
 O131 O 0.04738 0.54753 0.21027
 O132 O -0.04758 0.45198 0.21070
 O133 O -0.04782 0.45280 0.29117
 O134 O 0.04798 0.54761 0.29073
 O135 O -0.04752 0.54805 0.29091
 O136 O 0.04765 0.45254 0.29099
 Cu137 Cu -0.00018 0.49973 0.20243
 Cu138 Cu 0.00007 0.50032 0.29902
 C139 C 0.06396 0.43606 0.25076
 C140 C -0.06424 0.56384 0.25066
 C141 C 0.06409 0.56382 0.25042
 C142 C -0.06400 0.43603 0.25100
 O143 O 0.04761 0.54810 0.79012
 O144 O -0.04819 0.45323 0.78977
 O145 O 0.04717 0.45287 0.78998
 O146 O -0.04790 0.54832 0.78993
 O147 O -0.04790 0.54810 0.70947
 O148 O 0.04781 0.45324 0.70952
 O149 O -0.04763 0.45274 0.70931
 O150 O 0.04737 0.54843 0.70966
 Cu151 Cu -0.00033 0.50066 0.79801
 Cu152 Cu -0.00009 0.50060 0.70142
 C153 C 0.06383 0.56461 0.74995
 C154 C -0.06425 0.43664 0.74948
 C155 C 0.06383 0.43674 0.74976
 C156 C -0.06422 0.56454 0.74970
 C157 C 0.34067 0.20504 0.15391
 C158 C 0.32516 0.24912 0.17542
 C159 C 0.34657 0.29316 0.15985
 C160 C 0.38252 0.29314 0.12355
 C161 C 0.39806 0.24905 0.10209
 C162 C 0.37676 0.20499 0.11772
 H163 H 0.32441 0.17057 0.16458
 H164 H 0.33597 0.32766 0.17620
 H165 H 0.39836 0.32769 0.11252
 H166 H 0.38776 0.17042 0.10179
 C167 C 0.66071 0.70633 0.15277
 C168 C 0.67658 0.75016 0.17527
 C169 C 0.65447 0.79428 0.15992
 C170 C 0.61841 0.79450 0.12371
 C171 C 0.60289 0.75073 0.10183
 C172 C 0.62440 0.70668 0.11682
 H173 H 0.67446 0.67108 0.16412
 H174 H 0.66616 0.82930 0.17417
 H175 H 0.60279 0.82917 0.11273
 H176 H 0.61299 0.67220 0.10093
 C177 C 0.65419 0.29357 -0.15951
 C178 C 0.67596 0.24963 -0.17507
 C179 C 0.66067 0.20551 -0.15371
 C180 C 0.62443 0.20534 -0.11766
 C181 C 0.60278 0.24931 -0.10203
 C182 C 0.61811 0.29343 -0.12334
 H183 H 0.66456 0.32808 -0.17580
 H184 H 0.67717 0.17113 -0.16446
 H185 H 0.61359 0.17075 -0.10184
 H186 H 0.60198 0.32791 -0.11231
 C187 C 0.33965 0.79569 -0.15313
 C188 C 0.32405 0.75160 -0.17458
 C189 C 0.34575 0.70761 -0.15932
 C190 C 0.38202 0.70766 -0.12333
 C191 C 0.39762 0.75174 -0.10188
 C192 C 0.37607 0.79577 -0.11724
 H193 H 0.32324 0.83013 -0.16368
 H194 H 0.33516 0.67311 -0.17569
 H195 H 0.39804 0.67312 -0.11252
 H196 H 0.38713 0.83034 -0.10132
 C197 C 0.15982 0.34594 0.29462
 C198 C 0.17532 0.32438 0.25064
 C199 C 0.15383 0.33990 0.20671
 C200 C 0.11778 0.37619 0.20675
 C201 C 0.10224 0.39769 0.25074
 C202 C 0.12363 0.38212 0.29468
 H203 H 0.17615 0.33532 0.32900
 H204 H 0.16442 0.32351 0.17229
 H205 H 0.10187 0.38718 0.17229
 H206 H 0.11264 0.39809 0.32918
 C207 C 0.15333 0.66109 0.70633
 C208 C 0.17564 0.67680 0.75023
 C209 C 0.16007 0.65447 0.79405
 C210 C 0.12384 0.61835 0.79391
 C211 C 0.10214 0.60300 0.75007
 C212 C 0.11736 0.62472 0.70632
 H213 H 0.16480 0.67512 0.67130
 H214 H 0.17411 0.66602 0.82913
 H215 H 0.11267 0.60257 0.82835
 H216 H 0.10159 0.61347 0.67180
 C217 C -0.15479 0.65963 0.29424
 C218 C -0.17693 0.67513 0.25027
 C219 C -0.16086 0.65292 0.20645
 C220 C -0.12435 0.61710 0.20666
 C221 C -0.10281 0.60196 0.25056
 C222 C -0.11850 0.62356 0.29432
 H223 H -0.16661 0.67364 0.32924
 H224 H -0.17462 0.66442 0.17131
 H225 H -0.11282 0.60143 0.17220
 H226 H -0.10288 0.61245 0.32888
 C227 C -0.16048 0.34692 0.79324
 C228 C -0.17605 0.32444 0.74938
 C229 C -0.15373 0.33999 0.70552
 C230 C -0.11776 0.37638 0.70559
 C231 C -0.10256 0.39825 0.74940
 C232 C -0.12426 0.38305 0.79319
 H233 H -0.17448 0.33549 0.82830
 H234 H -0.16517 0.32580 0.67047
 H235 H -0.10196 0.38752 0.67112
 H236 H -0.11311 0.39893 0.82769
 C237 C 0.20621 0.15329 0.34078
 C238 C 0.25037 0.17455 0.32512
 C239 C 0.29455 0.15891 0.34637
 C240 C 0.29456 0.12282 0.38237
 C241 C 0.25038 0.10164 0.39808
 C242 C 0.20620 0.11731 0.37690
 H243 H 0.17163 0.16400 0.32465
 H244 H 0.32912 0.17507 0.33562
 H245 H 0.32921 0.11172 0.39809
 H246 H 0.17155 0.10157 0.38801
 C247 C 0.79366 0.15427 0.65877
 C248 C 0.74956 0.17586 0.67428
 C249 C 0.70535 0.16016 0.65307
 C250 C 0.70523 0.12369 0.61723
 C251 C 0.74935 0.10218 0.60167
 C252 C 0.79356 0.11793 0.62282
 H253 H 0.82825 0.16497 0.67495
 H254 H 0.67083 0.17650 0.66378
 H255 H 0.67055 0.11254 0.60152
 H256 H 0.82817 0.10196 0.61183
 C257 C 0.29430 -0.15986 0.65359
 C258 C 0.25010 -0.17522 0.67498
 C259 C 0.20601 -0.15372 0.65942
 C260 C 0.20609 -0.11784 0.62322
 C261 C 0.25028 -0.10245 0.60187
 C262 C 0.29440 -0.12383 0.61750
 H263 H 0.32880 -0.17615 0.66433
 H264 H 0.17143 -0.16416 0.67573
 H265 H 0.17149 -0.10192 0.61220
 H266 H 0.32906 -0.11293 0.60166
 C267 C 0.79355 -0.15437 0.34002
 C268 C 0.74945 -0.17599 0.32453
 C269 C 0.70528 -0.16064 0.34606
 C270 C 0.70521 -0.12445 0.38218
 C271 C 0.74932 -0.10291 0.39773
 C272 C 0.79350 -0.11833 0.37626
 H273 H 0.82810 -0.16489 0.32364
 H274 H 0.67078 -0.17707 0.33542
 H275 H 0.67057 -0.11356 0.39812
 H276 H 0.82810 -0.10231 0.38724
 C277 C 0.66047 0.79553 -0.15338
 C278 C 0.67585 0.75143 -0.17494
 C279 C 0.65408 0.70746 -0.15973
 C280 C 0.61793 0.70754 -0.12366
 C281 C 0.60255 0.75162 -0.10209
 C282 C 0.62417 0.79564 -0.11740
 H283 H 0.67697 0.82994 -0.16390
 H284 H 0.66452 0.67298 -0.17621
 H285 H 0.60183 0.67303 -0.11288
 H286 H 0.61326 0.83020 -0.10138
 C287 C 0.34639 0.29370 -0.15938
 C288 C 0.32479 0.24972 -0.17506
 C289 C 0.34018 0.20560 -0.15378
 C290 C 0.37641 0.20546 -0.11775
 C291 C 0.39794 0.24946 -0.10204
 C292 C 0.38248 0.29359 -0.12322
 H293 H 0.33586 0.32822 -0.17555
 H294 H 0.32376 0.17118 -0.16455
 H295 H 0.38733 0.17086 -0.10200
 H296 H 0.39850 0.32809 -0.11209
 C297 C 0.34667 0.79437 0.16015
 C298 C 0.32440 0.75031 0.17544
 C299 C 0.33999 0.70646 0.15284
 C300 C 0.37627 0.70671 0.11688
 C301 C 0.39796 0.75071 0.10198
 C302 C 0.38268 0.79451 0.12394
 H303 H 0.33515 0.82944 0.17441
 H304 H 0.32596 0.67127 0.16406
 H305 H 0.38748 0.67223 0.10087
 H306 H 0.39844 0.82914 0.11301
 C307 C 0.65969 0.20508 0.15403
 C308 C 0.67505 0.24915 0.17566
 C309 C 0.65362 0.29319 0.16015
 C310 C 0.61776 0.29317 0.12377
 C311 C 0.60236 0.24909 0.10220
 C312 C 0.62369 0.20503 0.11776
 H313 H 0.67599 0.17062 0.16467
 H314 H 0.66413 0.32767 0.17660
 H315 H 0.60188 0.32771 0.11278
 H316 H 0.61278 0.17047 0.10173
 C317 C -0.15376 0.66083 0.70587
 C318 C -0.17596 0.67664 0.74977
 C319 C -0.16031 0.65448 0.79363
 C320 C -0.12410 0.61837 0.79354
 C321 C -0.10251 0.60290 0.74970
 C322 C -0.11780 0.62446 0.70590
 H323 H -0.16529 0.67477 0.67083
 H324 H -0.17426 0.66614 0.82870
 H325 H -0.11286 0.60271 0.82802
 H326 H -0.10209 0.61310 0.67140
 C327 C -0.15985 0.34602 0.29502
 C328 C -0.17524 0.32431 0.25106
 C329 C -0.15364 0.33963 0.20714
 C330 C -0.11762 0.37593 0.20713
 C331 C -0.10222 0.39762 0.25108
 C332 C -0.12368 0.38221 0.29504
 H333 H -0.17626 0.33550 0.32939
 H334 H -0.16415 0.32310 0.17276
 H335 H -0.10164 0.38679 0.17267
 H336 H -0.11277 0.39833 0.32949
 C337 C 0.15355 0.34069 0.79377
 C338 C 0.17518 0.32513 0.74985
 C339 C 0.15987 0.34665 0.70591
 C340 C 0.12370 0.38282 0.70586
 C341 C 0.10213 0.39841 0.74979
 C342 C 0.11750 0.37698 0.79375
 H343 H 0.16402 0.32433 0.82815
 H344 H 0.17632 0.33598 0.67155
 H345 H 0.11284 0.39875 0.67139
 H346 H 0.10146 0.38801 0.82819
 C347 C 0.15430 0.65927 0.20606
 C348 C 0.17634 0.67456 0.24987
 C349 C 0.16112 0.65308 0.29387
 C350 C 0.12464 0.61722 0.29406
 C351 C 0.10266 0.60190 0.25023
 C352 C 0.11795 0.62327 0.20621
 H353 H 0.16465 0.67566 0.17165
 H354 H 0.17784 0.66362 0.32815
 H355 H 0.11385 0.60131 0.32856
 H356 H 0.10160 0.61244 0.17184
 C357 C 0.79363 -0.15383 0.65919
 C358 C 0.74956 -0.17542 0.67464
 C359 C 0.70535 -0.16007 0.65327
 C360 C 0.70522 -0.12395 0.61730
 C361 C 0.74932 -0.10248 0.60178
 C362 C 0.79353 -0.11785 0.62311
 H363 H 0.82821 -0.16427 0.67550
 H364 H 0.67086 -0.17645 0.66395
 H365 H 0.67055 -0.11306 0.60146
 H366 H 0.82812 -0.10186 0.61215
 C367 C 0.29443 -0.15969 0.34560
 C368 C 0.25032 -0.17498 0.32391
 C369 C 0.20615 -0.15359 0.33947
 C370 C 0.20610 -0.11775 0.37591
 C371 C 0.25024 -0.10239 0.39750
 C372 C 0.29441 -0.12373 0.38191
 H373 H 0.32898 -0.17603 0.33498
 H374 H 0.17164 -0.16414 0.32302
 H375 H 0.17147 -0.10188 0.38695
 H376 H 0.32902 -0.11288 0.39797
 C377 C 0.79365 0.15316 0.34094
 C378 C 0.74953 0.17454 0.32536
 C379 C 0.70532 0.15893 0.34654
 C380 C 0.70523 0.12274 0.38242
 C381 C 0.74937 0.10144 0.39805
 C382 C 0.79359 0.11708 0.37694
 H383 H 0.82825 0.16386 0.32483
 H384 H 0.67078 0.17518 0.33583
 H385 H 0.67056 0.11166 0.39812
 H386 H 0.82821 0.10126 0.38801
 C387 C 0.20590 0.15371 0.65932
 C388 C 0.25005 0.17509 0.67499
 C389 C 0.29424 0.15945 0.65372
 C390 C 0.29429 0.12320 0.61769
 C391 C 0.25013 0.10188 0.60199
 C392 C 0.20592 0.11758 0.62318
 H393 H 0.17132 0.16445 0.67549
 H394 H 0.32879 0.17570 0.66448
 H395 H 0.32895 0.11209 0.60194
 H396 H 0.17129 0.10174 0.61205
   
