data_POSCAR
  _audit_creation_date              2014-09-24
  _audit_creation_method            'ToBaCCo'
  _symmetry_space_group_name_H-M    'P1'
  _symmetry_Int_Tables_number       1
  _symmetry_cell_setting            triclinic
  loop_
  _symmetry_equiv_pos_as_xyz
 x,y,z
_cell_length_a 32.7508
_cell_length_b 32.8979
_cell_length_c 33.0779
_cell_angle_alpha 89.997000
_cell_angle_beta 89.997700
_cell_angle_gamma 90.001200
loop_
  _atom_site_label
  _atom_site_type_symbol
  _atom_site_fract_x
  _atom_site_fract_y
  _atom_site_fract_z
N1 N 0.29875 0.21619 0.18577
 N2 N 0.28270 0.24935 0.17021
 C3 C 0.30496 0.26091 0.13797
 C4 C 0.33668 0.23377 0.13353
 C5 C 0.33190 0.20561 0.16403
 H6 H 0.29841 0.28678 0.11886
 H7 H 0.35093 0.17938 0.16980
 Cu8 Cu 0.23428 0.27399 0.19363
 Cu9 Cu 0.27602 0.18993 0.23367
 Cu10 Cu 0.18949 0.23382 0.27567
 N11 N 0.18592 0.29863 0.21711
 N12 N 0.16837 0.28245 0.24907
 C13 C 0.13597 0.30527 0.25959
 C14 C 0.13329 0.33728 0.23287
 C15 C 0.16509 0.33221 0.20605
 H16 H 0.11571 0.29897 0.28464
 H17 H 0.17225 0.35133 0.18041
 N18 N 0.21579 0.18494 0.29832
 N19 N 0.24876 0.16829 0.28230
 C20 C 0.26023 0.13646 0.30525
 C21 C 0.23334 0.13322 0.33711
 C22 C 0.20543 0.16410 0.33190
 H23 H 0.28619 0.11701 0.29934
 H24 H 0.17953 0.17076 0.35107
 H25 H 0.21622 0.20898 0.22430
 H26 H 0.24913 0.24097 0.25764
 N27 N 0.70068 -0.21647 0.18488
 N28 N 0.71674 -0.24966 0.16933
 C29 C 0.69454 -0.26119 0.13703
 C30 C 0.66280 -0.23405 0.13261
 C31 C 0.66754 -0.20588 0.16312
 H32 H 0.70120 -0.28702 0.11789
 H33 H 0.64855 -0.17960 0.16885
 Cu34 Cu 0.76526 -0.27421 0.19273
 Cu35 Cu 0.72339 -0.19018 0.23284
 Cu36 Cu 0.80988 -0.23401 0.27481
 N37 N 0.81365 -0.29877 0.21627
 N38 N 0.83114 -0.28252 0.24825
 C39 C 0.86364 -0.30518 0.25878
 C40 C 0.86638 -0.33716 0.23205
 C41 C 0.83462 -0.33224 0.20517
 H42 H 0.88392 -0.29876 0.28379
 H43 H 0.82760 -0.35131 0.17946
 N44 N 0.78361 -0.18520 0.29757
 N45 N 0.75064 -0.16854 0.28156
 C46 C 0.73918 -0.13673 0.30455
 C47 C 0.76608 -0.13349 0.33642
 C48 C 0.79399 -0.16438 0.33117
 H49 H 0.71322 -0.11730 0.29864
 H50 H 0.81987 -0.17107 0.35036
 H51 H 0.78307 -0.20919 0.22348
 H52 H 0.75018 -0.24123 0.25675
 N53 N 0.70187 0.21662 0.81414
 N54 N 0.71791 0.24979 0.82971
 C55 C 0.69553 0.26137 0.86187
 C56 C 0.66382 0.23420 0.86629
 C57 C 0.66868 0.20604 0.83582
 H58 H 0.70202 0.28726 0.88095
 H59 H 0.64964 0.17981 0.83005
 Cu60 Cu 0.76634 0.27449 0.80623
 Cu61 Cu 0.72456 0.19038 0.76622
 Cu62 Cu 0.81094 0.23436 0.72413
 N63 N 0.81474 0.29917 0.78274
 N64 N 0.83223 0.28306 0.75069
 C65 C 0.86466 0.30591 0.74017
 C66 C 0.86728 0.33796 0.76690
 C67 C 0.83552 0.33281 0.79377
 H68 H 0.88487 0.29964 0.71506
 H69 H 0.82840 0.35178 0.81952
 N70 N 0.78463 0.18540 0.70142
 N71 N 0.75173 0.16871 0.71754
 C72 C 0.74022 0.13682 0.69467
 C73 C 0.76703 0.13351 0.66275
 C74 C 0.79493 0.16447 0.66785
 H75 H 0.71436 0.11731 0.70076
 H76 H 0.82071 0.17119 0.64854
 H77 H 0.78420 0.20936 0.77561
 H78 H 0.75125 0.24135 0.74235
 N79 N 0.29875 -0.21673 0.81473
 N80 N 0.28273 -0.24991 0.83032
 C81 C 0.30507 -0.26140 0.86255
 C82 C 0.33676 -0.23418 0.86698
 C83 C 0.33190 -0.20609 0.83644
 H84 H 0.29856 -0.28726 0.88169
 H85 H 0.35088 -0.17982 0.83065
 Cu86 Cu 0.23423 -0.27456 0.80683
 Cu87 Cu 0.27608 -0.19042 0.76681
 Cu88 Cu 0.18966 -0.23434 0.72478
 N89 N 0.18577 -0.29922 0.78328
 N90 N 0.16833 -0.28296 0.75128
 C91 C 0.13568 -0.30549 0.74083
 C92 C 0.13275 -0.33744 0.76761
 C93 C 0.16465 -0.33263 0.79442
 H94 H 0.11543 -0.29897 0.71582
 H95 H 0.17159 -0.35164 0.82019
 N96 N 0.21594 -0.18545 0.70206
 N97 N 0.24888 -0.16879 0.71812
 C98 C 0.26036 -0.13693 0.69519
 C99 C 0.23348 -0.13364 0.66333
 C100 C 0.20559 -0.16457 0.66849
 H101 H 0.28627 -0.11746 0.70118
 H102 H 0.17975 -0.17126 0.64924
 H103 H 0.21655 -0.20948 0.77618
 H104 H 0.24949 -0.24146 0.74289
 N105 N 0.70219 -0.21634 0.81474
 N106 N 0.71829 -0.24950 0.83029
 C107 C 0.69611 -0.26102 0.86260
 C108 C 0.66443 -0.23384 0.86711
 C109 C 0.66912 -0.20573 0.83656
 H110 H 0.70267 -0.28689 0.88169
 H111 H 0.65007 -0.17950 0.83084
 Cu112 Cu 0.76663 -0.27415 0.80667
 Cu113 Cu 0.72468 -0.19015 0.76670
 Cu114 Cu 0.81091 -0.23409 0.72436
 N115 N 0.81490 -0.29878 0.78301
 N116 N 0.83224 -0.28262 0.75090
 C117 C 0.86480 -0.30518 0.74040
 C118 C 0.86772 -0.33707 0.76723
 C119 C 0.83600 -0.33216 0.79416
 H120 H 0.88496 -0.29878 0.71527
 H121 H 0.82914 -0.35110 0.82002
 N122 N 0.78451 -0.18527 0.70171
 N123 N 0.75165 -0.16857 0.71789
 C124 C 0.74008 -0.13675 0.69497
 C125 C 0.76680 -0.13355 0.66297
 C126 C 0.79472 -0.16446 0.66806
 H127 H 0.71426 -0.11718 0.70109
 H128 H 0.82045 -0.17123 0.64871
 H129 H 0.75137 -0.24119 0.74276
 H130 H 0.78441 -0.20913 0.77589
 N131 N 0.29815 0.21558 0.81494
 N132 N 0.28169 0.24835 0.83096
 C133 C 0.30437 0.26028 0.86275
 C134 C 0.33653 0.23358 0.86661
 C135 C 0.33180 0.20547 0.83609
 H136 H 0.29791 0.28619 0.88185
 H137 H 0.35125 0.17965 0.82983
 Cu138 Cu 0.23295 0.27230 0.80755
 Cu139 Cu 0.27573 0.18937 0.76683
 Cu140 Cu 0.18981 0.23367 0.72429
 N141 N 0.18518 0.29778 0.78375
 N142 N 0.16851 0.28223 0.75100
 C143 C 0.13661 0.30540 0.73986
 C144 C 0.13337 0.33705 0.76692
 C145 C 0.16440 0.33146 0.79454
 H146 H 0.11705 0.29956 0.71416
 H147 H 0.17103 0.35026 0.82056
 N148 N 0.21604 0.18478 0.70173
 N149 N 0.24869 0.16784 0.71808
 C150 C 0.26004 0.13583 0.69534
 C151 C 0.23343 0.13281 0.66326
 C152 C 0.20578 0.16397 0.66810
 H153 H 0.28568 0.11608 0.70161
 H154 H 0.18017 0.17087 0.64863
 H155 H 0.24934 0.24102 0.74335
 H156 H 0.21602 0.20801 0.77535
 N157 N 0.29913 -0.21611 0.18589
 N158 N 0.28306 -0.24926 0.17032
 C159 C 0.30535 -0.26086 0.13813
 C160 C 0.33711 -0.23377 0.13375
 C161 C 0.33234 -0.20560 0.16422
 H162 H 0.29874 -0.28669 0.11900
 H163 H 0.35141 -0.17940 0.17001
 Cu164 Cu 0.23455 -0.27371 0.19363
 Cu165 Cu 0.27640 -0.18979 0.23373
 Cu166 Cu 0.18980 -0.23346 0.27562
 N167 N 0.18615 -0.29818 0.21709
 N168 N 0.16866 -0.28191 0.24903
 C169 C 0.13596 -0.30434 0.25937
 C170 C 0.13302 -0.33614 0.23253
 C171 C 0.16497 -0.33145 0.20585
 H172 H 0.11560 -0.29785 0.28430
 H173 H 0.17190 -0.35048 0.18010
 N174 N 0.21610 -0.18476 0.29829
 N175 N 0.24911 -0.16815 0.28231
 C176 C 0.26057 -0.13635 0.30529
 C177 C 0.23364 -0.13314 0.33709
 C178 C 0.20568 -0.16395 0.33185
 H179 H 0.28655 -0.11693 0.29941
 H180 H 0.17974 -0.17058 0.35098
 H181 H 0.24935 -0.24083 0.25768
 H182 H 0.21655 -0.20875 0.22431
 N183 N 0.70085 0.21606 0.18576
 N184 N 0.71695 0.24920 0.17021
 C185 C 0.69481 0.26077 0.13791
 C186 C 0.66314 0.23362 0.13343
 C187 C 0.66776 0.20549 0.16395
 H188 H 0.70148 0.28656 0.11875
 H189 H 0.64877 0.17920 0.16958
 Cu190 Cu 0.76531 0.27369 0.19363
 Cu191 Cu 0.72361 0.18969 0.23355
 Cu192 Cu 0.81045 0.23313 0.27525
 N193 N 0.81368 0.29814 0.21695
 N194 N 0.83145 0.28174 0.24868
 C195 C 0.86392 0.30445 0.25911
 C196 C 0.86631 0.33663 0.23261
 C197 C 0.83436 0.33181 0.20600
 H198 H 0.88440 0.29798 0.28394
 H199 H 0.82703 0.35112 0.18055
 N200 N 0.78414 0.18431 0.29785
 N201 N 0.75093 0.16793 0.28205
 C202 C 0.73940 0.13616 0.30505
 C203 C 0.76654 0.13267 0.33665
 C204 C 0.79465 0.16333 0.33128
 H205 H 0.71326 0.11690 0.29929
 H206 H 0.82075 0.16978 0.35026
 H207 H 0.75082 0.24063 0.25766
 H208 H 0.78346 0.20866 0.22405
 C209 C 0.23208 0.03689 0.41461
 C210 C 0.23212 -0.00002 0.39395
 C211 C 0.23216 -0.03697 0.41455
 C212 C 0.23219 -0.03754 0.45724
 C213 C 0.23215 -0.00016 0.47871
 C214 C 0.23210 0.03730 0.45732
 C215 C 0.23213 0.07394 0.47916
 C216 C 0.23219 0.07386 0.52132
 C217 C 0.23223 0.03714 0.54306
 C218 C 0.23222 -0.00025 0.52160
 C219 C 0.23232 -0.07427 0.47898
 C220 C 0.23238 -0.07435 0.52113
 C221 C 0.23232 -0.03771 0.54299
 C222 C 0.23239 -0.03732 0.58571
 C223 C 0.23241 -0.00038 0.60636
 C224 C 0.23232 0.03658 0.58576
 H225 H 0.23211 0.10297 0.46374
 H226 H 0.23221 0.10286 0.53680
 H227 H 0.23240 -0.10326 0.46348
 H228 H 0.23251 -0.10339 0.53654
 H229 H 0.23216 0.00001 0.36111
 H230 H 0.23252 -0.00040 0.63920
 C231 C 0.76787 0.03680 0.58547
 C232 C 0.76782 -0.00015 0.60611
 C233 C 0.76775 -0.03713 0.58551
 C234 C 0.76763 -0.03766 0.54280
 C235 C 0.76764 -0.00026 0.52134
 C236 C 0.76775 0.03720 0.54274
 C237 C 0.76771 0.07385 0.52089
 C238 C 0.76761 0.07378 0.47873
 C239 C 0.76754 0.03707 0.45697
 C240 C 0.76753 -0.00033 0.47843
 C241 C 0.76747 -0.07437 0.52103
 C242 C 0.76734 -0.07443 0.47886
 C243 C 0.76738 -0.03778 0.45702
 C244 C 0.76727 -0.03736 0.41429
 C245 C 0.76727 -0.00042 0.39366
 C246 C 0.76743 0.03654 0.41427
 H247 H 0.76776 0.10289 0.53629
 H248 H 0.76758 0.10278 0.46324
 H249 H 0.76742 -0.10337 0.53650
 H250 H 0.76718 -0.10346 0.46344
 H251 H 0.76784 -0.00014 0.63895
 H252 H 0.76715 -0.00042 0.36082
 C253 C 0.41362 0.23293 0.03658
 C254 C 0.39277 0.23302 -0.00015
 C255 C 0.41366 0.23292 -0.03687
 C256 C 0.45678 0.23283 -0.03737
 C257 C 0.47842 0.23281 -0.00019
 C258 C 0.45677 0.23285 0.03703
 C259 C 0.47881 0.23282 0.07349
 C260 C 0.52139 0.23278 0.07346
 C261 C 0.54340 0.23278 0.03695
 C262 C 0.52176 0.23280 -0.00023
 C263 C 0.47879 0.23283 -0.07387
 C264 C 0.52137 0.23284 -0.07390
 C265 C 0.54341 0.23286 -0.03744
 C266 C 0.58657 0.23294 -0.03700
 C267 C 0.60742 0.23291 -0.00027
 C268 C 0.58653 0.23279 0.03645
 H269 H 0.46323 0.23285 0.10236
 H270 H 0.53700 0.23279 0.10231
 H271 H 0.46318 0.23288 -0.10271
 H272 H 0.53696 0.23284 -0.10276
 H273 H 0.35960 0.23312 -0.00015
 H274 H 0.64059 0.23296 -0.00025
 C275 C 0.58725 0.76731 0.03737
 C276 C 0.60814 0.76730 0.00065
 C277 C 0.58732 0.76735 -0.03612
 C278 C 0.54416 0.76743 -0.03666
 C279 C 0.52246 0.76743 0.00050
 C280 C 0.54407 0.76738 0.03775
 C281 C 0.52197 0.76735 0.07418
 C282 C 0.47937 0.76733 0.07409
 C283 C 0.45739 0.76731 0.03758
 C284 C 0.47909 0.76738 0.00041
 C285 C 0.52217 0.76744 -0.07318
 C286 C 0.47957 0.76738 -0.07327
 C287 C 0.45747 0.76732 -0.03684
 C288 C 0.41429 0.76715 -0.03645
 C289 C 0.39341 0.76710 0.00028
 C290 C 0.41423 0.76720 0.03703
 H291 H 0.53752 0.76732 0.10306
 H292 H 0.46372 0.76728 0.10292
 H293 H 0.53782 0.76744 -0.10201
 H294 H 0.46401 0.76734 -0.10215
 H295 H 0.64131 0.76723 0.00068
 H296 H 0.36023 0.76699 0.00028
 C297 C -0.03845 0.58685 0.23037
 C298 C -0.00143 0.60773 0.23031
 C299 C 0.03570 0.58707 0.23044
 C300 C 0.03637 0.54418 0.23086
 C301 C -0.00110 0.52251 0.23092
 C302 C -0.03878 0.54391 0.23076
 C303 C -0.07553 0.52185 0.23101
 C304 C -0.07532 0.47946 0.23116
 C305 C -0.03834 0.45772 0.23105
 C306 C -0.00087 0.47940 0.23106
 C307 C 0.07334 0.52245 0.23122
 C308 C 0.07356 0.48008 0.23135
 C309 C 0.03683 0.45801 0.23114
 C310 C 0.03655 0.41508 0.23100
 C311 C -0.00044 0.39419 0.23098
 C312 C -0.03760 0.41482 0.23093
 H313 H -0.10474 0.53728 0.23103
 H314 H -0.10439 0.46379 0.23131
 H315 H 0.10241 0.53811 0.23137
 H316 H 0.10279 0.46469 0.23158
 H317 H -0.00152 0.64076 0.23026
 H318 H -0.00033 0.36116 0.23108
 C319 C -0.03705 0.58693 0.76927
 C320 C 0.00014 0.60756 0.76937
 C321 C 0.03718 0.58669 0.76937
 C322 C 0.03745 0.54372 0.76904
 C323 C -0.00025 0.52229 0.76892
 C324 C -0.03774 0.54398 0.76894
 C325 C -0.07469 0.52220 0.76860
 C326 C -0.07490 0.47978 0.76854
 C327 C -0.03816 0.45770 0.76879
 C328 C -0.00046 0.47914 0.76882
 C329 C 0.07419 0.52165 0.76879
 C330 C 0.07399 0.47926 0.76866
 C331 C 0.03704 0.45748 0.76878
 C332 C 0.03641 0.41455 0.76885
 C333 C -0.00076 0.39389 0.76894
 C334 C -0.03784 0.41471 0.76896
 H335 H -0.10377 0.53788 0.76841
 H336 H -0.10412 0.46437 0.76830
 H337 H 0.10341 0.53706 0.76872
 H338 H 0.10308 0.46362 0.76856
 H339 H 0.00023 0.64058 0.76939
 H340 H -0.00084 0.36086 0.76892
 C341 C 0.36604 0.23318 0.10129
 C342 C 0.38897 0.23298 0.07280
 C343 C 0.63502 0.76665 0.10203
 C344 C 0.61195 0.76705 0.07361
 C345 C 0.63432 0.23356 -0.10160
 C346 C 0.61126 0.23322 -0.07320
 C347 C 0.36639 0.76647 -0.10098
 C348 C 0.38957 0.76685 -0.07265
 C349 C 0.10154 0.36733 0.23162
 C350 C 0.07312 0.39057 0.23114
 C351 C 0.10235 0.63441 0.76888
 C352 C 0.07382 0.61122 0.76934
 C353 C -0.10340 0.63461 0.23081
 C354 C -0.07498 0.61137 0.23036
 C355 C -0.10265 0.36649 0.76819
 C356 C -0.07437 0.39000 0.76878
 C357 C 0.23262 0.10155 0.36699
 C358 C 0.23227 0.07324 0.39012
 C359 C 0.76768 0.10165 0.63298
 C360 C 0.76789 0.07322 0.60995
 C361 C 0.23284 -0.10199 0.63338
 C362 C 0.23256 -0.07370 0.61020
 C363 C 0.76673 -0.10193 0.36647
 C364 C 0.76705 -0.07371 0.38973
 C365 C 0.63503 0.76680 -0.10071
 C366 C 0.61202 0.76713 -0.07228
 C367 C 0.36612 0.23312 -0.10147
 C368 C 0.38910 0.23297 -0.07305
 C369 C 0.36653 0.76681 0.10160
 C370 C 0.38953 0.76707 0.07318
 C371 C 0.63392 0.23301 0.10116
 C372 C 0.61109 0.23281 0.07264
 C373 C -0.10191 0.63485 0.76857
 C374 C -0.07346 0.61164 0.76914
 C375 C -0.10214 0.36674 0.23142
 C376 C -0.07389 0.39010 0.23100
 C377 C 0.10141 0.36684 0.76803
 C378 C 0.07287 0.38992 0.76854
 C379 C 0.10081 0.63445 0.23102
 C380 C 0.07214 0.61160 0.23049
 C381 C 0.76743 -0.10182 0.63314
 C382 C 0.76767 -0.07347 0.61004
 C383 C 0.23285 -0.10152 0.36693
 C384 C 0.23242 -0.07324 0.39004
 C385 C 0.76714 0.10108 0.36657
 C386 C 0.76737 0.07283 0.38975
 C387 C 0.23276 0.10117 0.63339
 C388 C 0.23247 0.07288 0.61026
   
