data_POSCAR
  _audit_creation_date              2014-09-24
  _audit_creation_method            'ToBaCCo'
  _symmetry_space_group_name_H-M    'P1'
  _symmetry_Int_Tables_number       1
  _symmetry_cell_setting            triclinic
  loop_
  _symmetry_equiv_pos_as_xyz
 x,y,z
_cell_length_a 53.9055
_cell_length_b 54.8973
_cell_length_c 55.8217
_cell_angle_alpha 90.047900
_cell_angle_beta 89.972000
_cell_angle_gamma 119.874300
loop_
  _atom_site_label
  _atom_site_type_symbol
  _atom_site_fract_x
  _atom_site_fract_y
  _atom_site_fract_z
C1 C -0.00015 0.49469 1.31883
 C2 C 0.02587 0.50378 1.30652
 C3 C 0.02528 0.50369 1.28128
 C4 C 0.00020 0.49699 1.26846
 C5 C -0.02510 0.48901 1.28143
 C6 C -0.02600 0.48677 1.30661
 C7 C 0.00056 0.49859 1.24160
 C8 C -0.02454 0.48230 1.22809
 C9 C -0.02446 0.48459 1.20303
 C10 C 0.00138 0.50198 1.19120
 C11 C 0.02679 0.51782 1.20408
 C12 C 0.02604 0.51665 1.22920
 H13 H -0.00029 0.49385 1.33811
 H14 H 0.04428 0.50778 1.27153
 H15 H -0.04395 0.48581 1.27196
 H16 H -0.04439 0.46797 1.23691
 H17 H 0.00180 0.50263 1.17180
 H18 H 0.04545 0.53031 1.23890
 C19 C 0.50751 0.50929 1.30935
 C20 C 0.49937 0.52643 1.29677
 C21 C 0.50043 0.52634 1.27156
 C22 C 0.50728 0.50820 1.25897
 C23 C 0.51424 0.49058 1.27228
 C24 C 0.51582 0.49181 1.29751
 C25 C 0.50765 0.50804 1.23201
 C26 C 0.52459 0.49936 1.21934
 C27 C 0.52438 0.49835 1.19421
 C28 C 0.50856 0.50798 1.18147
 C29 C 0.49242 0.51780 1.19350
 C30 C 0.49123 0.51679 1.21864
 H31 H 0.50503 0.50763 1.32858
 H32 H 0.49710 0.54141 1.26177
 H33 H 0.51951 0.47664 1.26287
 H34 H 0.53852 0.49372 1.22874
 H35 H 0.50823 0.50724 1.16207
 H36 H 0.47769 0.52326 1.22760
 C37 C 0.49555 0.99837 1.31528
 C38 C 0.48016 0.97309 1.30268
 C39 C 0.47913 0.97363 1.27762
 C40 C 0.49521 0.99889 1.26481
 C41 C 0.51151 1.02394 1.27799
 C42 C 0.51094 1.02431 1.30331
 C43 C 0.49501 0.99910 1.23783
 C44 C 0.50165 1.02377 1.22498
 C45 C 0.50272 1.02443 1.19984
 C46 C 0.49506 0.99957 1.18723
 C47 C 0.48734 0.97448 1.19943
 C48 C 0.48830 0.97464 1.22458
 H49 H 0.49608 0.99741 1.33461
 H50 H 0.46603 0.95406 1.26832
 H51 H 0.52388 1.04337 1.26846
 H52 H 0.50567 1.04268 1.23425
 H53 H 0.49514 0.99977 1.16784
 H54 H 0.48419 0.95556 1.23355
 C55 C 0.99876 0.49438 0.68228
 C56 C 0.97321 0.48593 0.69489
 C57 C 0.97359 0.48588 0.71999
 C58 C 0.99872 0.49259 0.73270
 C59 C 1.02396 0.50037 0.71963
 C60 C 1.02471 0.50225 0.69436
 C61 C 0.99852 0.49115 0.75952
 C62 C 1.02344 0.50842 0.77290
 C63 C 1.02355 0.50649 0.79798
 C64 C 0.99806 0.48816 0.80989
 C65 C 0.97284 0.47121 0.79711
 C66 C 0.97340 0.47236 0.77198
 H67 H 0.99818 0.49540 0.66298
 H68 H 0.95413 0.48085 0.72951
 H69 H 1.04278 0.50361 0.72918
 H70 H 1.04297 0.52328 0.76392
 H71 H 0.99773 0.48766 0.82930
 H72 H 0.95419 0.45813 0.76228
 C73 C 0.50742 0.50923 0.69080
 C74 C 0.51441 0.49077 0.70233
 C75 C 0.51296 0.48887 0.72743
 C76 C 0.50619 0.50635 0.74121
 C77 C 0.50003 0.52529 0.72910
 C78 C 0.49996 0.52637 0.70398
 C79 C 0.50583 0.50504 0.76806
 C80 C 0.48843 0.51244 0.78155
 C81 C 0.48880 0.51226 0.80672
 C82 C 0.50558 0.50302 0.81852
 C83 C 0.52257 0.49489 0.80557
 C84 C 0.52311 0.49664 0.78046
 H85 H 0.50711 0.50972 0.67141
 H86 H 0.51744 0.47387 0.73608
 H87 H 0.49576 0.53971 0.73904
 H88 H 0.47474 0.51874 0.77262
 H89 H 0.50489 0.50156 0.83789
 H90 H 0.53758 0.49192 0.77076
 C91 C 0.49533 0.00014 0.68489
 C92 C 0.50415 0.02521 0.69752
 C93 C 0.50292 0.02463 0.72259
 C94 C 0.49504 -0.00028 0.73540
 C95 C 0.48722 -0.02503 0.72224
 C96 C 0.48605 -0.02555 0.69695
 C97 C 0.49523 -0.00042 0.76234
 C98 C 0.47847 -0.02547 0.77528
 C99 C 0.47910 -0.02626 0.80056
 C100 C 0.49528 -0.00060 0.81285
 C101 C 0.51137 0.02472 0.80045
 C102 C 0.51203 0.02448 0.77537
 H103 H 0.49511 0.00090 0.66556
 H104 H 0.50795 0.04383 0.73186
 H105 H 0.48329 -0.04378 0.73165
 H106 H 0.46380 -0.04430 0.76570
 H107 H 0.49628 -0.00004 0.83218
 H108 H 0.52611 0.04393 0.76628
 O109 O 0.37238 0.66114 0.97768
 O110 O 0.37252 0.70826 0.97019
 C111 C 0.35975 0.72207 0.96657
 O112 O 0.33895 0.71909 0.97942
 O113 O 0.29071 0.67260 0.97281
 C114 C 0.27662 0.64645 0.96855
 O115 O 0.28029 0.62861 0.98025
 O116 O 0.32732 0.62755 0.97137
 C117 C 0.35377 0.63953 0.96648
 O118 O 0.37349 0.67000 1.02525
 O119 O 0.37617 0.71828 1.01778
 C120 C 0.35947 0.72312 1.03046
 O121 O 0.33265 0.71059 1.02710
 O122 O 0.28312 0.66541 1.02054
 C123 C 0.27875 0.64391 1.03246
 O124 O 0.29113 0.63002 1.02764
 O125 O 0.33694 0.62688 1.01869
 C126 C 0.35954 0.64394 1.02993
 Cr127 Cr 0.37207 0.68870 0.99776
 Cr128 Cr 0.31210 0.69110 0.99994
 Cr129 Cr 0.30973 0.62982 0.99947
 O130 O 0.33130 0.66985 0.99904
 O131 O 0.62844 0.33937 0.97857
 O132 O 0.62568 0.29080 0.97244
 C133 C 0.63726 0.27579 0.96939
 O134 O 0.65762 0.27807 0.98246
 O135 O 0.70709 0.32280 0.97492
 C136 C 0.72220 0.34867 0.96986
 O137 O 0.71974 0.36769 0.98083
 O138 O 0.67402 0.37091 0.97142
 C139 C 0.64759 0.35999 0.96678
 O140 O 0.62740 0.33207 1.02635
 O141 O 0.62188 0.28234 1.02023
 C142 C 0.63788 0.27689 1.03324
 O143 O 0.66464 0.28833 1.02993
 O144 O 0.71527 0.33173 1.02248
 C145 C 0.72091 0.35413 1.03359
 O146 O 0.70962 0.36883 1.02811
 O147 O 0.66517 0.37409 1.01860
 C148 C 0.64246 0.35825 1.03029
 Cr149 Cr 0.62740 0.31179 0.99944
 Cr150 Cr 0.68549 0.30611 1.00239
 Cr151 Cr 0.69126 0.36884 0.99977
 O152 O 0.66807 0.32894 1.00052
 O153 O 0.64907 0.37184 0.51887
 O154 O 0.69722 0.37307 0.52793
 C155 C 0.71168 0.36121 0.53262
 O156 O 0.70867 0.33990 0.52110
 O157 O 0.66107 0.29247 0.52790
 C158 C 0.63426 0.27837 0.53124
 O159 O 0.61653 0.28145 0.51840
 O160 O 0.61495 0.32762 0.52562
 C161 C 0.62717 0.35368 0.53026
 O162 O 0.65924 0.37146 0.47151
 O163 O 0.70824 0.37478 0.48065
 C164 C 0.71375 0.35803 0.46912
 O165 O 0.70135 0.33189 0.47342
 O166 O 0.65522 0.28333 0.48020
 C167 C 0.63378 0.27863 0.46737
 O168 O 0.61948 0.29094 0.47083
 O169 O 0.61530 0.33577 0.47797
 C170 C 0.63286 0.35753 0.46639
 Cr171 Cr 0.67769 0.37124 0.49974
 Cr172 Cr 0.68073 0.31261 0.50063
 Cr173 Cr 0.61814 0.30977 0.49826
 O174 O 0.65887 0.33123 0.49958
 O175 O 0.35179 0.62941 0.52070
 O176 O 0.30224 0.62540 0.52939
 C177 C 0.28661 0.63608 0.53382
 O178 O 0.28840 0.65673 0.52206
 O179 O 0.33436 0.70563 0.52861
 C180 C 0.36107 0.72089 0.53200
 O181 O 0.37952 0.71884 0.51928
 O182 O 0.38402 0.67440 0.52713
 C183 C 0.37313 0.64852 0.53202
 O184 O 0.34142 0.62853 0.47322
 O185 O 0.29115 0.62243 0.48206
 C186 C 0.28444 0.63815 0.47028
 O187 O 0.29556 0.66427 0.47434
 O188 O 0.33997 0.71419 0.48081
 C189 C 0.36177 0.71983 0.46809
 O190 O 0.37722 0.70880 0.47184
 O191 O 0.38434 0.66584 0.47960
 C192 C 0.36769 0.64365 0.46807
 Cr193 Cr 0.32233 0.62798 0.50133
 Cr194 Cr 0.31548 0.68457 0.50144
 Cr195 Cr 0.37971 0.69107 0.49952
 O196 O 0.33915 0.66785 0.50080
 C197 C 0.45771 0.56240 0.31202
 C198 C 0.46585 0.57007 0.33584
 C199 C 0.48650 0.56512 0.34616
 C200 C 0.49828 0.55165 0.33310
 C201 C 0.48952 0.54260 0.30928
 C202 C 0.46952 0.54898 0.29879
 C203 C 0.45205 0.58159 0.35027
 C204 C 0.44051 0.59054 0.36319
 C205 C 0.42719 0.60039 0.37919
 C206 C 0.41613 0.60846 0.39350
 C207 C 0.40346 0.61790 0.41128
 C208 C 0.42048 0.64313 0.42345
 C209 C 0.40875 0.65164 0.44172
 C210 C 0.37976 0.63496 0.44813
 C211 C 0.36269 0.60979 0.43553
 C212 C 0.37451 0.60132 0.41725
 H213 H 0.44160 0.56604 0.30388
 H214 H 0.49323 0.57129 0.36453
 H215 H 0.51461 0.54883 0.34177
 H216 H 0.46140 0.54211 0.28087
 H217 H 0.44294 0.65607 0.41903
 H218 H 0.42250 0.67116 0.45097
 H219 H 0.34031 0.59648 0.43998
 H220 H 0.36117 0.58167 0.40800
 C221 C 0.46766 0.91608 0.34725
 C222 C 0.43980 0.89517 0.34159
 C223 C 0.42504 0.89952 0.32295
 C224 C 0.43811 0.92479 0.31011
 C225 C 0.46603 0.94602 0.31589
 C226 C 0.48070 0.94128 0.33451
 C227 C 0.42652 0.86962 0.35537
 C228 C 0.41630 0.84879 0.36764
 C229 C 0.40527 0.82508 0.38278
 C230 C 0.39653 0.80541 0.39632
 C231 C 0.38676 0.78262 0.41317
 C232 C 0.36194 0.77462 0.42657
 C233 C 0.35350 0.75382 0.44413
 C234 C 0.36987 0.74077 0.44858
 C235 C 0.39450 0.74859 0.43466
 C236 C 0.40288 0.76940 0.41712
 H237 H 0.47931 0.91292 0.36159
 H238 H 0.40342 0.88348 0.31846
 H239 H 0.42625 0.92794 0.29597
 H240 H 0.50239 0.95702 0.33909
 H241 H 0.34936 0.78478 0.42373
 H242 H 0.33440 0.74830 0.45445
 H243 H 0.40757 0.73897 0.43758
 H244 H 0.42221 0.77551 0.40691
 C245 C 0.10379 0.54544 0.32218
 C246 C 0.10367 0.53662 0.34566
 C247 C 0.07820 0.51571 0.35573
 C248 C 0.05271 0.50421 0.34269
 C249 C 0.05208 0.51352 0.31917
 C250 C 0.07838 0.53398 0.30901
 C251 C 0.12931 0.54995 0.35989
 C252 C 0.15036 0.56137 0.37230
 C253 C 0.17451 0.57484 0.38738
 C254 C 0.19469 0.58628 0.40072
 C255 C 0.21824 0.59967 0.41721
 C256 C 0.22773 0.58362 0.42946
 C257 C 0.24955 0.59623 0.44645
 C258 C 0.26218 0.62513 0.45149
 C259 C 0.25279 0.64119 0.43879
 C260 C 0.23093 0.62850 0.42179
 H261 H 0.12341 0.56178 0.31425
 H262 H 0.07793 0.50848 0.37384
 H263 H 0.03377 0.48759 0.35111
 H264 H 0.07937 0.54265 0.29141
 H265 H 0.21800 0.56127 0.42610
 H266 H 0.25627 0.58323 0.45584
 H267 H 0.26204 0.66347 0.44220
 H268 H 0.22367 0.64110 0.41245
 C269 C 0.53408 0.43645 0.31523
 C270 C 0.54708 0.44668 0.33746
 C271 C 0.54949 0.47146 0.34648
 C272 C 0.53906 0.48610 0.33342
 C273 C 0.52581 0.47627 0.31084
 C274 C 0.52359 0.45106 0.30201
 C275 C 0.55809 0.43204 0.35128
 C276 C 0.56762 0.42069 0.36370
 C277 C 0.57897 0.40833 0.37912
 C278 C 0.58868 0.39842 0.39297
 C279 C 0.60013 0.38721 0.41024
 C280 C 0.62931 0.40192 0.41585
 C281 C 0.64012 0.39206 0.43384
 C282 C 0.62180 0.36735 0.44652
 C283 C 0.59258 0.35245 0.44040
 C284 C 0.58185 0.36235 0.42241
 H285 H 0.53190 0.41709 0.30817
 H286 H 0.55977 0.47972 0.36359
 H287 H 0.54269 0.50583 0.34080
 H288 H 0.51283 0.44176 0.28533
 H289 H 0.64363 0.42126 0.40661
 H290 H 0.66270 0.40402 0.43805
 H291 H 0.57788 0.33333 0.44973
 H292 H 0.55921 0.35087 0.41828
 C293 C 0.52802 0.07726 0.35219
 C294 C 0.55163 0.10097 0.34268
 C295 C 0.56216 0.09943 0.32019
 C296 C 0.54902 0.07427 0.30718
 C297 C 0.52499 0.04995 0.31648
 C298 C 0.51485 0.05211 0.33935
 C299 C 0.56479 0.12672 0.35622
 C300 C 0.57508 0.14774 0.36827
 C301 C 0.58641 0.17170 0.38316
 C302 C 0.59561 0.19161 0.39649
 C303 C 0.60615 0.21471 0.41313
 C304 C 0.63091 0.22210 0.42641
 C305 C 0.64018 0.24324 0.44374
 C306 C 0.62474 0.25728 0.44808
 C307 C 0.60016 0.25005 0.43429
 C308 C 0.59093 0.22887 0.41696
 H309 H 0.51951 0.07828 0.36953
 H310 H 0.58064 0.11765 0.31273
 H311 H 0.55863 0.07392 0.29028
 H312 H 0.49585 0.03486 0.34714
 H313 H 0.64281 0.21121 0.42364
 H314 H 0.65922 0.24829 0.45396
 H315 H 0.58779 0.26043 0.43714
 H316 H 0.57166 0.22324 0.40684
 C317 C 0.92143 0.47261 0.35617
 C318 C 0.89583 0.45297 0.34536
 C319 C 0.89578 0.44553 0.32143
 C320 C 0.92136 0.45721 0.30846
 C321 C 0.94773 0.47650 0.31928
 C322 C 0.94706 0.48430 0.34334
 C323 C 0.86988 0.43979 0.35922
 C324 C 0.84860 0.42874 0.37140
 C325 C 0.82425 0.41593 0.38630
 C326 C 0.80392 0.40526 0.39956
 C327 C 0.78024 0.39300 0.41601
 C328 C 0.76637 0.36419 0.42098
 C329 C 0.74441 0.35264 0.43799
 C330 C 0.73611 0.36984 0.45031
 C331 C 0.74994 0.39871 0.44487
 C332 C 0.77184 0.41017 0.42787
 H333 H 0.92164 0.47879 0.37465
 H334 H 0.87604 0.43019 0.31291
 H335 H 0.92039 0.44970 0.29037
 H336 H 0.96610 0.50002 0.35236
 H337 H 0.77278 0.35073 0.41195
 H338 H 0.73422 0.33036 0.44171
 H339 H 0.74408 0.41256 0.45394
 H340 H 0.78249 0.43251 0.42421
 C341 C 0.56730 0.48601 1.14666
 C342 C 0.56536 0.46097 1.15468
 C343 C 0.55129 0.44893 1.17621
 C344 C 0.53867 0.46155 1.18942
 C345 C 0.53989 0.48635 1.18120
 C346 C 0.55468 0.49865 1.15982
 C347 C 0.57666 0.44700 1.14024
 C348 C 0.58564 0.43521 1.12773
 C349 C 0.59577 0.42146 1.11259
 C350 C 0.60425 0.40992 1.09924
 C351 C 0.61434 0.39657 1.08279
 C352 C 0.59794 0.36772 1.07823
 C353 C 0.60721 0.35508 1.06139
 C354 C 0.63301 0.37122 1.04884
 C355 C 0.64950 0.40015 1.05383
 C356 C 0.64019 0.41270 1.07066
 H357 H 0.57817 0.49552 1.13002
 H358 H 0.54956 0.42949 1.18254
 H359 H 0.52714 0.45140 1.20565
 H360 H 0.55628 0.51791 1.15319
 H361 H 0.57784 0.35505 1.08748
 H362 H 0.59401 0.33278 1.05800
 H363 H 0.66948 0.41321 1.04457
 H364 H 0.65303 0.43506 1.07402
 C365 C 0.90293 0.42739 1.18089
 C366 C 0.89779 0.44136 1.16225
 C367 C 0.91789 0.46930 1.15708
 C368 C 0.94309 0.48325 1.17039
 C369 C 0.94860 0.46943 1.18908
 C370 C 0.92819 0.44136 1.19428
 C371 C 0.87220 0.42719 1.14801
 C372 C 0.85127 0.41616 1.13543
 C373 C 0.82739 0.40408 1.11999
 C374 C 0.80754 0.39438 1.10623
 C375 C 0.78450 0.38339 1.08913
 C376 C 0.77107 0.39880 1.08326
 C377 C 0.74999 0.38907 1.06549
 C378 C 0.74214 0.36378 1.05330
 C379 C 0.75542 0.34819 1.05969
 C380 C 0.77647 0.35797 1.07746
 H381 H 0.88753 0.40571 1.18497
 H382 H 0.91410 0.48033 1.14273
 H383 H 0.95817 0.50499 1.16621
 H384 H 0.93196 0.43011 1.20843
 H385 H 0.77721 0.41856 1.09213
 H386 H 0.74020 0.40157 1.06106
 H387 H 0.74987 0.32862 1.05073
 H388 H 0.78681 0.34593 1.08181
 C389 C 0.51118 0.07706 1.15186
 C390 C 0.53563 0.10128 1.15988
 C391 C 0.54834 0.10078 1.18158
 C392 C 0.53706 0.07599 1.19494
 C393 C 0.51294 0.05131 1.18672
 C394 C 0.49987 0.05224 1.16518
 C395 C 0.54858 0.12615 1.14520
 C396 C 0.55979 0.14663 1.13253
 C397 C 0.57316 0.17020 1.11724
 C398 C 0.58465 0.18992 1.10377
 C399 C 0.59829 0.21293 1.08715
 C400 C 0.62792 0.22640 1.08365
 C401 C 0.64095 0.24762 1.06646
 C402 C 0.62445 0.25561 1.05247
 C403 C 0.59474 0.24229 1.05648
 C404 C 0.58178 0.22109 1.07367
 H405 H 0.50116 0.07722 1.13508
 H406 H 0.56736 0.11935 1.18790
 H407 H 0.54782 0.07586 1.21128
 H408 H 0.48108 0.03370 1.15853
 H409 H 0.64090 0.22019 1.09395
 H410 H 0.66385 0.25742 1.06387
 H411 H 0.58138 0.24792 1.04609
 H412 H 0.55882 0.21077 1.07619
 C413 C 0.47795 0.55972 1.14728
 C414 C 0.45031 0.55366 1.15344
 C415 C 0.43620 0.53571 1.17272
 C416 C 0.44974 0.52389 1.18580
 C417 C 0.47755 0.52985 1.17967
 C418 C 0.49149 0.54794 1.16028
 C419 C 0.43656 0.56575 1.13967
 C420 C 0.42570 0.57607 1.12756
 C421 C 0.41357 0.58820 1.11273
 C422 C 0.40354 0.59841 1.09952
 C423 C 0.39180 0.61025 1.08313
 C424 C 0.36582 0.59276 1.07163
 C425 C 0.35511 0.60381 1.05463
 C426 C 0.37031 0.63260 1.04883
 C427 C 0.39619 0.65013 1.06082
 C428 C 0.40686 0.63899 1.07782
 H429 H 0.48909 0.57362 1.13243
 H430 H 0.41474 0.53080 1.17758
 H431 H 0.43837 0.50984 1.20049
 H432 H 0.51306 0.55329 1.15537
 H433 H 0.35402 0.57047 1.07555
 H434 H 0.33510 0.58971 1.04582
 H435 H 0.40842 0.67235 1.05681
 H436 H 0.42706 0.65271 1.08657
 C437 C 0.08077 0.56403 1.15724
 C438 C 0.10504 0.56283 1.16432
 C439 C 0.10422 0.54828 1.18515
 C440 C 0.07900 0.53438 1.19854
 C441 C 0.05424 0.53478 1.19117
 C442 C 0.05554 0.55013 1.17058
 C443 C 0.13017 0.57517 1.14944
 C444 C 0.15069 0.58494 1.13638
 C445 C 0.17410 0.59584 1.12044
 C446 C 0.19356 0.60485 1.10629
 C447 C 0.21612 0.61539 1.08876
 C448 C 0.23002 0.60031 1.08327
 C449 C 0.25076 0.60977 1.06521
 C450 C 0.25778 0.63443 1.05236
 C451 C 0.24398 0.64967 1.05833
 C452 C 0.22329 0.64018 1.07638
 H453 H 0.08118 0.57525 1.14115
 H454 H 0.12285 0.54710 1.19072
 H455 H 0.07856 0.52247 1.21415
 H456 H 0.03693 0.55111 1.16464
 H457 H 0.22454 0.58103 1.09270
 H458 H 0.26097 0.59755 1.06110
 H459 H 0.24889 0.66877 1.04887
 H460 H 0.21260 0.65197 1.08044
 C461 C 0.48002 0.92303 1.15064
 C462 C 0.45560 0.89852 1.15824
 C463 C 0.44248 0.89845 1.17989
 C464 C 0.45334 0.92296 1.19364
 C465 C 0.47745 0.94791 1.18585
 C466 C 0.49091 0.94756 1.16435
 C467 C 0.44321 0.87390 1.14323
 C468 C 0.43258 0.85361 1.13028
 C469 C 0.41998 0.83027 1.11467
 C470 C 0.40922 0.81069 1.10097
 C471 C 0.39651 0.78778 1.08414
 C472 C 0.36689 0.77333 1.08043
 C473 C 0.35472 0.75198 1.06324
 C474 C 0.37207 0.74485 1.04946
 C475 C 0.40180 0.75926 1.05361
 C476 C 0.41389 0.78057 1.07081
 H477 H 0.49037 0.92331 1.13392
 H478 H 0.42349 0.87964 1.18590
 H479 H 0.44230 0.92265 1.20996
 H480 H 0.50971 0.96632 1.15804
 H481 H 0.35324 0.77878 1.09062
 H482 H 0.33179 0.74133 1.06054
 H483 H 0.41580 0.75431 1.04339
 H484 H 0.43685 0.79165 1.07349
 C485 C 0.55182 0.47130 0.65493
 C486 C 0.54193 0.44302 0.66012
 C487 C 0.52311 0.43019 0.67932
 C488 C 0.51414 0.44565 0.69322
 C489 C 0.52386 0.47407 0.68797
 C490 C 0.54290 0.48672 0.66873
 C491 C 0.55118 0.42747 0.64544
 C492 C 0.55961 0.41558 0.63244
 C493 C 0.57022 0.40296 0.61651
 C494 C 0.57987 0.39324 0.60237
 C495 C 0.59204 0.38289 0.58492
 C496 C 0.57866 0.35423 0.57942
 C497 C 0.59018 0.34459 0.56179
 C498 C 0.61521 0.36357 0.54940
 C499 C 0.62861 0.39230 0.55528
 C500 C 0.61708 0.40184 0.57289
 H501 H 0.56647 0.48147 0.64018
 H502 H 0.51529 0.40828 0.68346
 H503 H 0.49929 0.43529 0.70779
 H504 H 0.55111 0.50868 0.66449
 H505 H 0.55922 0.33938 0.58859
 H506 H 0.57934 0.32235 0.55773
 H507 H 0.64792 0.40749 0.54618
 H508 H 0.62758 0.42408 0.57699
 C509 C 0.55266 0.10106 0.67926
 C510 C 0.53983 0.10246 0.65793
 C511 C 0.51450 0.07902 0.65011
 C512 C 0.50237 0.05407 0.66329
 C513 C 0.51550 0.05225 0.68446
 C514 C 0.54057 0.07614 0.69248
 C515 C 0.55325 0.12747 0.64348
 C516 C 0.56452 0.14803 0.63093
 C517 C 0.57750 0.17161 0.61567
 C518 C 0.58817 0.19130 0.60213
 C519 C 0.60016 0.21419 0.58532
 C520 C 0.58200 0.22063 0.57235
 C521 C 0.59318 0.24178 0.55504
 C522 C 0.62279 0.25684 0.55041
 C523 C 0.64098 0.25055 0.56384
 C524 C 0.62970 0.22930 0.58116
 H525 H 0.57233 0.11904 0.68543
 H526 H 0.50436 0.07990 0.63363
 H527 H 0.48286 0.03615 0.65684
 H528 H 0.55132 0.07527 0.70857
 H529 H 0.55911 0.20904 0.57538
 H530 H 0.57854 0.24610 0.54512
 H531 H 0.66385 0.26173 0.56073
 H532 H 0.64395 0.22442 0.59107
 C533 C 0.89539 0.44217 0.67638
 C534 C 0.89467 0.45609 0.65563
 C535 C 0.91936 0.48045 0.64818
 C536 C 0.94481 0.49058 0.66118
 C537 C 0.94588 0.47641 0.68181
 C538 C 0.92078 0.45226 0.68940
 C539 C 0.86900 0.44457 0.64138
 C540 C 0.84773 0.43444 0.62916
 C541 C 0.82316 0.42208 0.61444
 C542 C 0.80255 0.41119 0.60146
 C543 C 0.77850 0.39787 0.58540
 C544 C 0.76213 0.41054 0.58017
 C545 C 0.73986 0.39828 0.56346
 C546 C 0.73376 0.37319 0.55168
 C547 C 0.74998 0.36034 0.55749
 C548 C 0.77217 0.37261 0.57420
 H549 H 0.87646 0.42321 0.68224
 H550 H 0.91906 0.49139 0.63213
 H551 H 0.96365 0.50943 0.65506
 H552 H 0.92100 0.44069 0.70503
 H553 H 0.76688 0.43012 0.58871
 H554 H 0.72784 0.40875 0.55941
 H555 H 0.74587 0.34102 0.54882
 H556 H 0.78471 0.36263 0.57809
 C557 C 0.49558 0.57411 0.65718
 C558 C 0.47087 0.57441 0.66439
 C559 C 0.45681 0.56062 0.68545
 C560 C 0.46693 0.54587 0.69889
 C561 C 0.49116 0.54462 0.69130
 C562 C 0.50571 0.55936 0.67055
 C563 C 0.45882 0.58703 0.64919
 C564 C 0.44838 0.59668 0.63582
 C565 C 0.43579 0.60699 0.61952
 C566 C 0.42479 0.61500 0.60512
 C567 C 0.41137 0.62369 0.58742
 C568 C 0.38706 0.60346 0.57531
 C569 C 0.37449 0.61154 0.55746
 C570 C 0.38609 0.64007 0.55141
 C571 C 0.41039 0.66031 0.56387
 C572 C 0.42295 0.65214 0.58174
 H573 H 0.50661 0.58469 0.64089
 H574 H 0.43755 0.56056 0.69111
 H575 H 0.45512 0.53448 0.71464
 H576 H 0.52463 0.55907 0.66444
 H577 H 0.37796 0.58137 0.57954
 H578 H 0.35579 0.59541 0.54829
 H579 H 0.41987 0.68243 0.55970
 H580 H 0.44181 0.66797 0.59097
 C581 C 0.44285 0.89791 0.68136
 C582 C 0.45076 0.89806 0.65752
 C583 C 0.47133 0.92315 0.64702
 C584 C 0.48350 0.94818 0.66007
 C585 C 0.47529 0.94874 0.68407
 C586 C 0.45500 0.92289 0.69455
 C587 C 0.43729 0.87270 0.64349
 C588 C 0.42616 0.85189 0.63119
 C589 C 0.41356 0.82809 0.61613
 C590 C 0.40341 0.80828 0.60269
 C591 C 0.39231 0.78532 0.58593
 C592 C 0.41130 0.77978 0.57320
 C593 C 0.40104 0.75858 0.55594
 C594 C 0.37154 0.74254 0.55108
 C595 C 0.35250 0.74793 0.56427
 C596 C 0.36287 0.76925 0.58155
 H597 H 0.42681 0.87857 0.68963
 H598 H 0.47787 0.92342 0.62862
 H599 H 0.49988 0.96683 0.65129
 H600 H 0.44706 0.92186 0.71253
 H601 H 0.43412 0.79212 0.57641
 H602 H 0.41631 0.75496 0.54623
 H603 H 0.32969 0.73597 0.56098
 H604 H 0.34799 0.77344 0.59127
 C605 C 0.10303 0.54181 0.67937
 C606 C 0.10273 0.53447 0.65537
 C607 C 0.07683 0.51562 0.64448
 C608 C 0.05122 0.50454 0.65734
 C609 C 0.05087 0.51215 0.68154
 C610 C 0.07750 0.53077 0.69235
 C611 C 0.12878 0.54720 0.64158
 C612 C 0.15029 0.55824 0.62965
 C613 C 0.17506 0.57155 0.61520
 C614 C 0.19576 0.58318 0.60239
 C615 C 0.21986 0.59734 0.58647
 C616 C 0.23736 0.58584 0.58146
 C617 C 0.25962 0.59881 0.56480
 C618 C 0.26457 0.62343 0.55287
 C619 C 0.24722 0.63513 0.55848
 C620 C 0.22505 0.62215 0.57513
 H621 H 0.12297 0.55661 0.68794
 H622 H 0.07637 0.50960 0.62593
 H623 H 0.03192 0.48944 0.64824
 H624 H 0.07881 0.53826 0.71049
 H625 H 0.23350 0.56659 0.59010
 H626 H 0.27252 0.58922 0.56090
 H627 H 0.25042 0.65406 0.54969
 H628 H 0.21162 0.63123 0.57885
 C629 C 0.42978 0.52653 0.82688
 C630 C 0.44257 0.54385 0.84679
 C631 C 0.47013 0.55039 0.85377
 C632 C 0.48495 0.53985 0.84087
 C633 C 0.47241 0.52256 0.82074
 C634 C 0.44460 0.51594 0.81391
 C635 C 0.42781 0.55531 0.86006
 C636 C 0.41633 0.56545 0.87165
 C637 C 0.40388 0.57787 0.88581
 C638 C 0.39410 0.58886 0.89843
 C639 C 0.38345 0.60237 0.91418
 C640 C 0.40263 0.62801 0.92488
 C641 C 0.39286 0.64044 0.94143
 C642 C 0.36368 0.62735 0.94756
 C643 C 0.34442 0.60188 0.93625
 C644 C 0.35428 0.58946 0.91971
 H645 H 0.40842 0.52128 0.82134
 H646 H 0.48029 0.56385 0.86910
 H647 H 0.50647 0.54570 0.84637
 H648 H 0.43425 0.50245 0.79866
 H649 H 0.42526 0.63817 0.92077
 H650 H 0.40828 0.66005 0.94972
 H651 H 0.32183 0.59123 0.94056
 H652 H 0.33925 0.56957 0.91156
 C653 C 0.09407 0.56711 0.82028
 C654 C 0.10023 0.55433 0.83929
 C655 C 0.08162 0.52600 0.84449
 C656 C 0.05685 0.51052 0.83094
 C657 C 0.05027 0.52316 0.81194
 C658 C 0.06924 0.55160 0.80663
 C659 C 0.12534 0.57002 0.85384
 C660 C 0.14587 0.58208 0.86675
 C661 C 0.16934 0.59499 0.88260
 C662 C 0.18889 0.60502 0.89667
 C663 C 0.21163 0.61581 0.91406
 C664 C 0.21759 0.59720 0.92648
 C665 C 0.23887 0.60720 0.94403
 C666 C 0.25454 0.63605 0.94947
 C667 C 0.24859 0.65468 0.93670
 C668 C 0.22723 0.64459 0.91913
 H669 H 0.10832 0.58906 0.81613
 H670 H 0.08621 0.51587 0.85910
 H671 H 0.04291 0.48856 0.83522
 H672 H 0.06460 0.56194 0.79224
 H673 H 0.20560 0.57487 0.92273
 H674 H 0.24289 0.59226 0.95344
 H675 H 0.26025 0.67701 0.94042
 H676 H 0.22274 0.65918 0.90966
 C677 C 0.44330 0.92163 0.85016
 C678 C 0.43941 0.89697 0.83947
 C679 C 0.44718 0.89730 0.81555
 C680 C 0.45945 0.92237 0.80250
 C681 C 0.46447 0.94784 0.81322
 C682 C 0.45561 0.94674 0.83725
 C683 C 0.42833 0.87164 0.85341
 C684 C 0.41941 0.85094 0.86573
 C685 C 0.40916 0.82732 0.88089
 C686 C 0.40033 0.80771 0.89448
 C687 C 0.38951 0.78502 0.91148
 C688 C 0.40440 0.77068 0.91616
 C689 C 0.39454 0.74979 0.93379
 C690 C 0.36971 0.74312 0.94703
 C691 C 0.35469 0.75737 0.94185
 C692 C 0.36455 0.77815 0.92423
 H693 H 0.43701 0.92152 0.86862
 H694 H 0.44438 0.87831 0.80712
 H695 H 0.46645 0.92178 0.78446
 H696 H 0.45742 0.96503 0.84620
 H697 H 0.42383 0.77593 0.90643
 H698 H 0.40659 0.73923 0.93733
 H699 H 0.33545 0.75273 0.95159
 H700 H 0.35290 0.78915 0.92081
 C701 C 0.56766 0.48478 0.85249
 C702 C 0.56782 0.46095 0.84374
 C703 C 0.55418 0.44891 0.82205
 C704 C 0.54002 0.46033 0.80937
 C705 C 0.53923 0.48394 0.81827
 C706 C 0.55350 0.49623 0.83985
 C707 C 0.58072 0.44807 0.85760
 C708 C 0.59085 0.43695 0.86963
 C709 C 0.60192 0.42361 0.88424
 C710 C 0.61070 0.41202 0.89721
 C711 C 0.62035 0.39801 0.91334
 C712 C 0.60032 0.37329 0.92480
 C713 C 0.60926 0.36053 0.94171
 C714 C 0.63844 0.37235 0.94747
 C715 C 0.65852 0.39685 0.93541
 C716 C 0.64949 0.40960 0.91849
 H717 H 0.57814 0.49427 0.86927
 H718 H 0.55402 0.43037 0.81518
 H719 H 0.52895 0.45019 0.79297
 H720 H 0.55359 0.51461 0.84700
 H721 H 0.57770 0.36415 0.92098
 H722 H 0.59322 0.34169 0.95059
 H723 H 0.68113 0.40652 0.93940
 H724 H 0.66518 0.42877 0.90976
 C725 C 0.89532 0.43738 0.81678
 C726 C 0.89566 0.42350 0.83770
 C727 C 0.92074 0.42369 0.84448
 C728 C 0.94562 0.43837 0.83081
 C729 C 0.94575 0.45315 0.81019
 C730 C 0.92018 0.45206 0.80306
 C731 C 0.87099 0.41082 0.85312
 C732 C 0.85084 0.40110 0.86660
 C733 C 0.82783 0.39070 0.88295
 C734 C 0.80866 0.38259 0.89734
 C735 C 0.78632 0.37379 0.91497
 C736 C 0.76933 0.34536 0.92082
 C737 C 0.74828 0.33709 0.93854
 C738 C 0.74402 0.35721 0.95068
 C739 C 0.76108 0.38572 0.94448
 C740 C 0.78207 0.39391 0.92677
 H741 H 0.87607 0.43752 0.81145
 H742 H 0.92126 0.41304 0.86065
 H743 H 0.96488 0.43853 0.83657
 H744 H 0.91970 0.46348 0.78743
 H745 H 0.77248 0.32961 0.91183
 H746 H 0.73552 0.31497 0.94284
 H747 H 0.75837 0.40177 0.95340
 H748 H 0.79514 0.41598 0.92241
 C749 C 0.55498 0.07833 0.84823
 C750 C 0.55274 0.10151 0.84083
 C751 C 0.53820 0.10005 0.81964
 C752 C 0.52543 0.07529 0.80616
 C753 C 0.52696 0.05164 0.81377
 C754 C 0.54220 0.05355 0.83479
 C755 C 0.56436 0.12632 0.85553
 C756 C 0.57376 0.14667 0.86834
 C757 C 0.58459 0.16997 0.88393
 C758 C 0.59389 0.18940 0.89778
 C759 C 0.60526 0.21196 0.91494
 C760 C 0.59194 0.22795 0.91882
 C761 C 0.60247 0.24901 0.93633
 C762 C 0.62642 0.25423 0.95023
 C763 C 0.63981 0.23821 0.94592
 C764 C 0.62928 0.21726 0.92843
 H765 H 0.56624 0.07927 0.86459
 H766 H 0.53627 0.11784 0.81379
 H767 H 0.51357 0.07433 0.79019
 H768 H 0.54407 0.03582 0.84092
 H769 H 0.57326 0.22395 0.90850
 H770 H 0.59169 0.26096 0.93918
 H771 H 0.65833 0.24169 0.95619
 H772 H 0.63972 0.20497 0.92560
   
