data_POSCAR
  _audit_creation_date              2014-09-24
  _audit_creation_method            'ToBaCCo'
  _symmetry_space_group_name_H-M    'P1'
  _symmetry_Int_Tables_number       1
  _symmetry_cell_setting            triclinic
  loop_
  _symmetry_equiv_pos_as_xyz
 x,y,z
_cell_length_a 48.7797
_cell_length_b 39.3318
_cell_length_c 25.5023
_cell_angle_alpha 90.503900
_cell_angle_beta 90.104000
_cell_angle_gamma 90.091200
loop_
  _atom_site_label
  _atom_site_type_symbol
  _atom_site_fract_x
  _atom_site_fract_y
  _atom_site_fract_z
C1 C 1.27345 0.21502 0.27131
 C2 C 1.25108 0.23262 0.24995
 C3 C 1.22824 0.21426 0.23176
 C4 C 1.22742 0.17862 0.23474
 C5 C 1.24998 0.16146 0.25670
 C6 C 1.27348 0.17914 0.27516
 C7 C 1.25162 0.27038 0.24664
 C8 C 1.27488 0.28716 0.22719
 C9 C 1.27587 0.32301 0.22305
 C10 C 1.25240 0.34152 0.23935
 C11 C 1.22895 0.32518 0.25945
 C12 C 1.22888 0.28954 0.26277
 H13 H 1.29014 0.22998 0.28729
 H14 H 1.21141 0.22785 0.21383
 H15 H 1.29153 0.27160 0.21276
 H16 H 1.21139 0.27654 0.27939
 H17 H 1.24924 0.13406 0.25773
 H18 H 1.25235 0.36893 0.23798
 C19 C 0.77262 -0.28587 0.27389
 C20 C 0.74985 -0.26844 0.25380
 C21 C 0.72733 -0.28695 0.23477
 C22 C 0.72721 -0.32261 0.23562
 C23 C 0.75013 -0.33971 0.25616
 C24 C 0.77330 -0.32184 0.27568
 C25 C 0.74943 -0.23067 0.25324
 C26 C 0.77203 -0.21240 0.23425
 C27 C 0.77209 -0.17658 0.23411
 C28 C 0.74879 -0.15933 0.25328
 C29 C 0.72576 -0.17717 0.27183
 C30 C 0.72640 -0.21290 0.27172
 H31 H 0.78904 -0.27081 0.29065
 H32 H 0.71015 -0.27342 0.21798
 H33 H 0.78926 -0.22636 0.21831
 H34 H 0.70925 -0.22706 0.28738
 H35 H 0.74988 -0.36714 0.25534
 H36 H 0.74851 -0.13185 0.25378
 C37 C 0.77363 0.21390 -0.23023
 C38 C 0.75124 0.23150 -0.25145
 C39 C 0.72845 0.21299 -0.26998
 C40 C 0.72781 0.17718 -0.26774
 C41 C 0.75066 0.16011 -0.24661
 C42 C 0.77354 0.17826 -0.22776
 C43 C 0.75178 0.26926 -0.25467
 C44 C 0.77497 0.28607 -0.27435
 C45 C 0.77596 0.32194 -0.27835
 C46 C 0.75254 0.34040 -0.26165
 C47 C 0.72916 0.32402 -0.24133
 C48 C 0.72910 0.28837 -0.23819
 H49 H 0.79123 0.22796 -0.21567
 H50 H 0.71153 0.22659 -0.28756
 H51 H 0.79157 0.27053 -0.28905
 H52 H 0.71167 0.27532 -0.22144
 H53 H 0.75046 0.13268 -0.24339
 H54 H 0.75246 0.36780 -0.26288
 C55 C 1.27247 -0.28723 -0.22302
 C56 C 1.24952 -0.26979 -0.24243
 C57 C 1.22680 -0.28832 -0.26051
 C58 C 1.22649 -0.32394 -0.25869
 C59 C 1.24931 -0.34097 -0.23770
 C60 C 1.27291 -0.32318 -0.22004
 C61 C 1.24920 -0.23202 -0.24397
 C62 C 1.27170 -0.21397 -0.26385
 C63 C 1.27186 -0.17816 -0.26450
 C64 C 1.24870 -0.16068 -0.24520
 C65 C 1.22571 -0.17829 -0.22596
 C66 C 1.22631 -0.21402 -0.22534
 H67 H 1.29008 -0.27223 -0.21148
 H68 H 1.20963 -0.27482 -0.27741
 H69 H 1.28878 -0.22809 -0.28002
 H70 H 1.20922 -0.22798 -0.20902
 H71 H 1.24779 -0.36818 -0.23323
 H72 H 1.24848 -0.13320 -0.24514
 C73 C 0.21784 0.27917 0.73752
 C74 C 0.23157 0.25061 0.75659
 C75 C 0.21652 0.22285 0.77528
 C76 C 0.18763 0.22283 0.77422
 C77 C 0.17439 0.25146 0.75267
 C78 C 0.18920 0.27985 0.73531
 C79 C 0.26178 0.24952 0.75619
 C80 C 0.27715 0.27767 0.77373
 C81 C 0.30595 0.27767 0.77037
 C82 C 0.31897 0.24817 0.75096
 C83 C 0.30381 0.21970 0.73480
 C84 C 0.27525 0.22062 0.73666
 H85 H 0.22958 0.30076 0.72397
 H86 H 0.22775 0.20215 0.79278
 H87 H 0.26642 0.29998 0.78796
 H88 H 0.26355 0.19883 0.72295
 H89 H 0.15245 0.25133 0.74679
 H90 H 0.34113 0.24656 0.74989
 C91 C 0.72155 0.77897 0.72503
 C92 C 0.73561 0.75001 0.74206
 C93 C 0.72091 0.72165 0.75969
 C94 C 0.69216 0.72145 0.75934
 C95 C 0.67843 0.75114 0.74357
 C96 C 0.69280 0.78030 0.72717
 C97 C 0.76581 0.74952 0.74364
 C98 C 0.78034 0.77674 0.76631
 C99 C 0.80876 0.77466 0.77308
 C100 C 0.82273 0.74537 0.75657
 C101 C 0.80851 0.71856 0.73211
 C102 C 0.78010 0.72080 0.72561
 H103 H 0.73318 0.80095 0.71259
 H104 H 0.73209 0.69936 0.77215
 H105 H 0.76946 0.79892 0.78072
 H106 H 0.76904 0.69989 0.70736
 H107 H 0.65625 0.75168 0.74433
 H108 H 0.84478 0.74385 0.76152
 C109 C 0.71746 0.27764 0.23647
 C110 C 0.73140 0.24950 0.25670
 C111 C 0.71654 0.22155 0.27507
 C112 C 0.68785 0.22120 0.27245
 C113 C 0.67420 0.24905 0.25028
 C114 C 0.68878 0.27767 0.23300
 C115 C 0.76158 0.24919 0.25816
 C116 C 0.77612 0.27779 0.27630
 C117 C 0.80477 0.27802 0.27543
 C118 C 0.81892 0.24921 0.25754
 C119 C 0.80461 0.22033 0.24003
 C120 C 0.77594 0.22052 0.24000
 H121 H 0.72905 0.29945 0.22333
 H122 H 0.72737 0.20049 0.29266
 H123 H 0.76519 0.30002 0.29041
 H124 H 0.76483 0.19845 0.22557
 H125 H 0.65214 0.24822 0.24587
 H126 H 0.84114 0.24939 0.25688
 C127 C 0.22150 0.77922 0.22190
 C128 C 0.23546 0.75011 0.23863
 C129 C 0.22066 0.72194 0.25670
 C130 C 0.19190 0.72216 0.25743
 C131 C 0.17831 0.75207 0.24213
 C132 C 0.19279 0.78096 0.22504
 C133 C 0.26567 0.74941 0.23990
 C134 C 0.28034 0.77655 0.26252
 C135 C 0.30875 0.77428 0.26929
 C136 C 0.32258 0.74488 0.25281
 C137 C 0.30823 0.71816 0.22839
 C138 C 0.27982 0.72059 0.22188
 H139 H 0.23320 0.80104 0.20906
 H140 H 0.23176 0.69952 0.26883
 H141 H 0.26956 0.79880 0.27698
 H142 H 0.26867 0.69972 0.20371
 H143 H 0.15616 0.75302 0.24382
 H144 H 0.34461 0.74318 0.25781
 O145 O 1.03925 0.06106 0.09632
 O146 O 1.06849 0.02888 0.04619
 C147 C 1.06370 0.05183 0.08184
 O148 O 0.95984 -0.05888 0.09632
 O149 O 0.93000 -0.02626 0.04877
 C150 C 0.93520 -0.04968 0.08286
 O151 O 1.03671 -0.05740 0.09903
 O152 O 1.06765 -0.02884 0.04778
 C153 C 1.06154 -0.05047 0.08422
 O154 O 0.96278 0.06572 0.09242
 O155 O 0.93132 0.03334 0.04741
 C156 C 0.93781 0.05764 0.07996
 Zr157 Zr 1.00036 0.04490 0.06777
 O158 O 0.99837 0.04588 0.15068
 O159 O 1.00379 0.09855 0.06619
 Zr160 Zr 0.99858 -0.04046 0.07084
 O161 O 0.99801 -0.03505 0.15334
 O162 O 0.99956 -0.09411 0.07556
 O163 O 1.02416 0.00174 0.07910
 O164 O 0.97549 0.00300 0.07940
 O165 O 0.96034 0.06230 -0.08828
 O166 O 0.93018 0.03121 -0.03896
 C167 C 0.93566 0.05439 -0.07326
 O168 O 1.03651 -0.06097 -0.09149
 O169 O 1.06702 -0.02978 -0.04226
 C170 C 1.06133 -0.05267 -0.07744
 O171 O 0.95977 -0.06223 -0.08617
 O172 O 0.93002 -0.02935 -0.03782
 C173 C 0.93535 -0.05340 -0.07149
 O174 O 1.03698 0.05742 -0.09520
 O175 O 1.06760 0.02784 -0.04468
 C176 C 1.06172 0.04916 -0.08167
 Zr177 Zr 0.99887 0.04201 -0.06504
 O178 O 0.99721 0.03479 -0.14719
 O179 O 0.99972 0.09540 -0.07432
 Zr180 Zr 0.99822 -0.04327 -0.06176
 O181 O 0.99566 -0.04539 -0.14459
 O182 O 0.99857 -0.09682 -0.05543
 Zr183 Zr 1.03999 0.00005 0.00237
 Zr184 Zr 0.95809 0.00172 0.00394
 O185 O 0.97432 -0.00037 -0.07231
 O186 O 1.02317 -0.00116 -0.07385
 O187 O 0.97546 0.05081 0.00183
 O188 O 1.02210 -0.04863 0.00441
 O189 O 1.02348 0.04938 0.00057
 O190 O 0.97392 -0.04803 0.00507
 H191 H 0.96322 0.00384 0.11030
 H192 H 1.03395 -0.06907 0.00467
 H193 H 0.96154 -0.00062 -0.10257
 H194 H 1.03617 0.06906 -0.00001
 H195 H 0.98937 -0.10298 0.04477
 H196 H 0.99861 -0.10586 -0.09182
 H197 H 1.00915 -0.02891 -0.15834
 H198 H 0.99665 0.05784 -0.16249
 H199 H 1.00731 0.10532 -0.04168
 H200 H 0.98946 0.10701 0.04209
 H201 H 1.01184 0.02915 0.16371
 H202 H 0.99757 -0.05844 0.16744
 O203 O 1.04070 0.55922 0.59280
 O204 O 1.07075 0.53057 0.53931
 C205 C 1.06536 0.55174 0.57720
 O206 O 0.96537 0.43500 0.58345
 O207 O 0.93454 0.46801 0.53916
 C208 C 0.94046 0.44342 0.57069
 O209 O 1.04208 0.44221 0.58767
 O210 O 1.07160 0.47342 0.53676
 C211 C 1.06646 0.45134 0.57294
 O212 O 0.96420 0.56077 0.58985
 O213 O 0.93343 0.52863 0.54256
 C214 C 0.93942 0.55204 0.57708
 Zr215 Zr 1.00219 0.54208 0.56384
 O216 O 1.00204 0.53560 0.64602
 O217 O 1.00336 0.59567 0.57088
 Zr218 Zr 1.00319 0.45697 0.55931
 O219 O 1.00239 0.45989 0.64210
 O220 O 1.00646 0.40336 0.55908
 O221 O 1.02745 0.50002 0.57064
 O222 O 0.97850 0.49879 0.57169
 O223 O 0.96115 0.56327 0.40937
 O224 O 0.93204 0.52900 0.45579
 C225 C 0.93674 0.55359 0.42342
 O226 O 1.04092 0.44384 0.39535
 O227 O 1.07072 0.47502 0.44596
 C228 C 1.06554 0.45290 0.40931
 O229 O 0.96437 0.43865 0.40285
 O230 O 0.93360 0.46933 0.45189
 C231 C 0.93960 0.44608 0.41735
 O232 O 1.03769 0.56289 0.40211
 O233 O 1.06959 0.53274 0.44869
 C234 C 1.06275 0.55561 0.41462
 Zr235 Zr 1.00031 0.54468 0.43168
 O236 O 0.99672 0.54714 0.34906
 O237 O 1.00048 0.59824 0.43921
 Zr238 Zr 1.00236 0.45904 0.42678
 O239 O 0.99884 0.45985 0.34404
 O240 O 1.00466 0.40538 0.42800
 Zr241 Zr 1.04299 0.50196 0.49366
 Zr242 Zr 0.96098 0.49961 0.49639
 O243 O 0.97732 0.50122 0.42023
 O244 O 1.02576 0.50291 0.41789
 O245 O 0.97676 0.54943 0.49901
 O246 O 1.02675 0.45241 0.49211
 O247 O 1.02497 0.55043 0.49716
 O248 O 0.97849 0.45071 0.49321
 H249 H 0.96619 0.49790 0.60252
 H250 H 1.03938 0.43272 0.49092
 H251 H 0.96462 0.50138 0.38986
 H252 H 1.03676 0.57097 0.49817
 H253 H 0.99642 0.39505 0.52773
 H254 H 1.00429 0.39773 0.39087
 H255 H 1.01369 0.47456 0.33070
 H256 H 1.01124 0.53253 0.33399
 H257 H 0.99963 0.60725 0.40306
 H258 H 0.99387 0.60474 0.53968
 H259 H 1.00158 0.55880 0.66146
 H260 H 1.00281 0.43610 0.65454
 O261 O 0.53867 0.05923 0.59770
 O262 O 0.56796 0.02734 0.54719
 C263 C 0.56316 0.05016 0.58303
 O264 O 0.45957 -0.06155 0.59529
 O265 O 0.42965 -0.02868 0.54836
 C266 C 0.43492 -0.05236 0.58199
 O267 O 0.53620 -0.06006 0.59801
 O268 O 0.56707 -0.03066 0.54783
 C269 C 0.56100 -0.05279 0.58356
 O270 O 0.46208 0.06369 0.59358
 O271 O 0.43077 0.03120 0.54822
 C272 C 0.43713 0.05544 0.58099
 Zr273 Zr 0.49977 0.04259 0.56959
 O274 O 0.49920 0.03841 0.65213
 O275 O 0.50237 0.09624 0.57317
 Zr276 Zr 0.49819 -0.04256 0.57025
 O277 O 0.49784 -0.03700 0.65275
 O278 O 0.49911 -0.09622 0.57455
 O279 O 0.52377 -0.00044 0.57957
 O280 O 0.47483 0.00062 0.57983
 O281 O 0.45970 0.06154 0.41356
 O282 O 0.42964 0.02960 0.46168
 C283 C 0.43503 0.05325 0.42808
 O284 O 0.53626 -0.06149 0.40778
 O285 O 0.56667 -0.03039 0.45726
 C286 C 0.56104 -0.05309 0.42179
 O287 O 0.45956 -0.06283 0.41252
 O288 O 0.42966 -0.03062 0.46154
 C289 C 0.43509 -0.05426 0.42728
 O290 O 0.53638 0.05632 0.40579
 O291 O 0.56713 0.02707 0.45639
 C292 C 0.56115 0.04829 0.41935
 Zr293 Zr 0.49830 0.04168 0.43719
 O294 O 0.49474 0.04262 0.35449
 O295 O 0.50039 0.09530 0.44163
 Zr296 Zr 0.49792 -0.04399 0.43756
 O297 O 0.49498 -0.04519 0.35470
 O298 O 0.49839 -0.09760 0.44242
 Zr299 Zr 0.53958 -0.00122 0.50274
 Zr300 Zr 0.45761 0.00002 0.50427
 O301 O 0.47411 -0.00095 0.42819
 O302 O 0.52260 -0.00150 0.42660
 O303 O 0.47474 0.04919 0.50394
 O304 O 0.52177 -0.04996 0.50362
 O305 O 0.52298 0.04809 0.50260
 O306 O 0.47362 -0.04963 0.50420
 H307 H 0.46243 0.00114 0.61057
 H308 H 0.53362 -0.07039 0.50339
 H309 H 0.46151 -0.00089 0.39767
 H310 H 0.53543 0.06801 0.50217
 H311 H 0.48997 -0.10494 0.54248
 H312 H 0.49838 -0.10624 0.40580
 H313 H 0.51048 -0.03180 0.34076
 H314 H 0.50793 0.02587 0.34027
 H315 H 0.50008 0.10340 0.40495
 H316 H 0.49329 0.10482 0.54120
 H317 H 0.49922 0.06202 0.66600
 H318 H 0.49711 -0.06036 0.66691
 O319 O 0.54082 0.55925 0.09111
 O320 O 0.57084 0.53017 0.03819
 C321 C 0.56547 0.55171 0.07553
 O322 O 0.46545 0.43515 0.08410
 O323 O 0.43449 0.46752 0.03873
 C324 C 0.44049 0.44335 0.07099
 O325 O 0.54264 0.44243 0.08840
 O326 O 0.57201 0.47272 0.03584
 C327 C 0.56698 0.45117 0.07285
 O328 O 0.46428 0.56042 0.08811
 O329 O 0.43371 0.52759 0.04152
 C330 C 0.43955 0.55135 0.07551
 Zr331 Zr 0.50233 0.54193 0.06217
 O332 O 0.50064 0.54010 0.14504
 O333 O 0.50372 0.59568 0.06468
 Zr334 Zr 0.50362 0.45656 0.05994
 O335 O 0.50265 0.45933 0.14270
 O336 O 0.50707 0.40296 0.06049
 O337 O 0.52769 0.49992 0.07016
 O338 O 0.47895 0.49845 0.07132
 O339 O 0.46124 0.56172 -0.09180
 O340 O 0.43234 0.52703 -0.04572
 C341 C 0.43690 0.55174 -0.07792
 O342 O 0.54136 0.44221 -0.10399
 O343 O 0.57105 0.47403 -0.05408
 C344 C 0.56595 0.45160 -0.09034
 O345 O 0.46497 0.43593 -0.09526
 O346 O 0.43403 0.46727 -0.04762
 C347 C 0.44020 0.44328 -0.08083
 O348 O 0.53794 0.56080 -0.09986
 O349 O 0.56989 0.53147 -0.05208
 C350 C 0.56302 0.55385 -0.08691
 Zr351 Zr 0.50040 0.54295 -0.07020
 O352 O 0.49655 0.54390 -0.15288
 O353 O 0.50069 0.59661 -0.06494
 Zr354 Zr 0.50277 0.45728 -0.07270
 O355 O 0.49897 0.45735 -0.15542
 O356 O 0.50553 0.40368 -0.07047
 Zr357 Zr 0.54315 0.50113 -0.00689
 Zr358 Zr 0.46135 0.49832 -0.00402
 O359 O 0.47753 0.49921 -0.08034
 O360 O 0.52599 0.50117 -0.08275
 O361 O 0.47685 0.54828 -0.00285
 O362 O 0.52714 0.45146 -0.00724
 O363 O 0.52504 0.54959 -0.00479
 O364 O 0.47900 0.44949 -0.00598
 H365 H 0.46668 0.49780 0.10224
 H366 H 0.53984 0.43182 -0.00813
 H367 H 0.46470 0.49893 -0.11052
 H368 H 0.53684 0.57012 -0.00427
 H369 H 0.49653 0.39434 0.02995
 H370 H 0.50521 0.39571 -0.10745
 H371 H 0.51376 0.47197 -0.16923
 H372 H 0.51172 0.53017 -0.16756
 H373 H 0.49988 0.60498 -0.10146
 H374 H 0.49209 0.60387 0.03560
 H375 H 0.51495 0.52402 0.15667
 H376 H 0.50318 0.43552 0.15505
 C377 C 1.15736 0.12291 0.17310
 C378 C 1.15392 0.15446 0.19874
 C379 C 1.17650 0.17227 0.21912
 C380 C 1.20323 0.15927 0.21394
 C381 C 1.20667 0.12776 0.18826
 C382 C 1.18408 0.10974 0.16854
 C383 C 1.13333 0.10408 0.15051
 C384 C 1.13607 0.08466 0.10418
 C385 C 1.11363 0.06724 0.08269
 C386 C 1.08767 0.06915 0.10635
 C387 C 1.08481 0.08849 0.15262
 C388 C 1.10738 0.10553 0.17462
 H389 H 1.17293 0.19622 0.23919
 H390 H 1.22690 0.11709 0.18261
 H391 H 1.11656 0.05279 0.04682
 H392 H 1.06515 0.09033 0.17206
 H393 H 1.18765 0.08533 0.14989
 H394 H 1.15545 0.08338 0.08370
 H395 H 1.13381 0.16578 0.20246
 H396 H 1.10448 0.11961 0.21083
 C397 C 1.15731 0.62074 0.67668
 C398 C 1.15337 0.65140 0.70447
 C399 C 1.17566 0.66899 0.72624
 C400 C 1.20253 0.65657 0.72041
 C401 C 1.20642 0.62572 0.69313
 C402 C 1.18412 0.60797 0.67185
 C403 C 1.13372 0.60256 0.65183
 C404 C 1.13685 0.58593 0.60315
 C405 C 1.11476 0.56915 0.57939
 C406 C 1.08883 0.56888 0.60336
 C407 C 1.08559 0.58552 0.65193
 C408 C 1.10780 0.60200 0.67602
 H409 H 1.17180 0.69239 0.74763
 H410 H 1.22680 0.61554 0.68727
 H411 H 1.11791 0.55691 0.54167
 H412 H 1.06592 0.58558 0.67157
 H413 H 1.18795 0.58417 0.65152
 H414 H 1.15628 0.58638 0.58275
 H415 H 1.13310 0.66224 0.70855
 H416 H 1.10470 0.61405 0.71387
 C417 C 0.65729 0.12119 0.67292
 C418 C 0.65407 0.15304 0.69777
 C419 C 0.67678 0.17093 0.71741
 C420 C 0.70347 0.15773 0.71230
 C421 C 0.70667 0.12584 0.68763
 C422 C 0.68394 0.10777 0.66857
 C423 C 0.63312 0.10238 0.65081
 C424 C 0.63568 0.08273 0.60468
 C425 C 0.61313 0.06540 0.58348
 C426 C 0.58720 0.06755 0.60728
 C427 C 0.58450 0.08715 0.65335
 C428 C 0.60720 0.10415 0.67502
 H429 H 0.67333 0.19510 0.73689
 H430 H 0.72684 0.11493 0.68224
 H431 H 0.61595 0.05081 0.54770
 H432 H 0.56487 0.08921 0.67285
 H433 H 0.68733 0.08312 0.65056
 H434 H 0.65504 0.08123 0.58412
 H435 H 0.63401 0.16452 0.70138
 H436 H 0.60442 0.11847 0.71105
 C437 C 0.65787 0.62205 0.17137
 C438 C 0.65399 0.65231 0.20022
 C439 C 0.67638 0.66996 0.22153
 C440 C 0.70329 0.65803 0.21417
 C441 C 0.70715 0.62770 0.18553
 C442 C 0.68477 0.60986 0.16475
 C443 C 0.63411 0.60365 0.14741
 C444 C 0.63678 0.58726 0.09842
 C445 C 0.61460 0.57013 0.07562
 C446 C 0.58901 0.56926 0.10082
 C447 C 0.58618 0.58572 0.14961
 C448 C 0.60851 0.60254 0.17280
 H449 H 0.67256 0.69297 0.24393
 H450 H 0.72755 0.61794 0.17833
 H451 H 0.61741 0.55808 0.03765
 H452 H 0.56676 0.58535 0.17013
 H453 H 0.68859 0.58639 0.14353
 H454 H 0.65592 0.58816 0.07705
 H455 H 0.63368 0.66277 0.20564
 H456 H 0.60575 0.61437 0.21089
 C457 C 0.84207 -0.12078 0.17372
 C458 C 0.81536 -0.10742 0.17043
 C459 C 0.79282 -0.12557 0.18928
 C460 C 0.79625 -0.15727 0.21361
 C461 C 0.82302 -0.17033 0.21795
 C462 C 0.84550 -0.15260 0.19775
 C463 C 0.86604 -0.10191 0.15147
 C464 C 0.89258 -0.10542 0.17277
 C465 C 0.91503 -0.08855 0.15067
 C466 C 0.91148 -0.06706 0.10746
 C467 C 0.88492 -0.06266 0.08724
 C468 C 0.86266 -0.08027 0.10822
 H469 H 0.77265 -0.11472 0.18402
 H470 H 0.82678 -0.19427 0.23723
 H471 H 0.93515 -0.09216 0.16774
 H472 H 0.88131 -0.04602 0.05436
 H473 H 0.86552 -0.16425 0.20048
 H474 H 0.89613 -0.12102 0.20683
 H475 H 0.81167 -0.08275 0.15343
 H476 H 0.84288 -0.07723 0.08964
 C477 C 0.84686 0.37228 0.65948
 C478 C 0.82104 0.38804 0.65911
 C479 C 0.79791 0.37167 0.67929
 C480 C 0.79965 0.33882 0.70124
 C481 C 0.82589 0.32338 0.70200
 C482 C 0.84897 0.33978 0.68143
 C483 C 0.87128 0.38962 0.63635
 C484 C 0.89757 0.38646 0.65881
 C485 C 0.92021 0.40342 0.63729
 C486 C 0.91703 0.42417 0.59309
 C487 C 0.89084 0.42695 0.57035
 C488 C 0.86837 0.40981 0.59145
 H489 H 0.77858 0.38474 0.67530
 H490 H 0.82920 0.29895 0.71999
 H491 H 0.94007 0.40082 0.65584
 H492 H 0.88764 0.44232 0.53587
 H493 H 0.86848 0.32672 0.68230
 H494 H 0.90059 0.37144 0.69370
 H495 H 0.81858 0.41326 0.64312
 H496 H 0.84869 0.41222 0.57216
 C497 C 0.34184 -0.12317 0.67351
 C498 C 0.31518 -0.10965 0.67035
 C499 C 0.29263 -0.12755 0.68970
 C500 C 0.29601 -0.15913 0.71441
 C501 C 0.32274 -0.17234 0.71861
 C502 C 0.34522 -0.15488 0.69789
 C503 C 0.36583 -0.10454 0.65085
 C504 C 0.39239 -0.10811 0.67198
 C505 C 0.41483 -0.09134 0.64968
 C506 C 0.41124 -0.06991 0.60643
 C507 C 0.38467 -0.06552 0.58627
 C508 C 0.36242 -0.08304 0.60746
 H509 H 0.27248 -0.11660 0.68456
 H510 H 0.32647 -0.19619 0.73818
 H511 H 0.43497 -0.09493 0.66670
 H512 H 0.38103 -0.04890 0.55340
 H513 H 0.36520 -0.16664 0.70054
 H514 H 0.39597 -0.12362 0.70613
 H515 H 0.31153 -0.08505 0.65308
 H516 H 0.34261 -0.07997 0.58899
 C517 C 0.34692 0.37295 0.16095
 C518 C 0.32110 0.38870 0.16001
 C519 C 0.29793 0.37249 0.18029
 C520 C 0.29963 0.33980 0.20281
 C521 C 0.32587 0.32441 0.20423
 C522 C 0.34900 0.34067 0.18363
 C523 C 0.37135 0.39005 0.13755
 C524 C 0.39756 0.38741 0.16052
 C525 C 0.42020 0.40421 0.13872
 C526 C 0.41710 0.42422 0.09370
 C527 C 0.39101 0.42638 0.07038
 C528 C 0.36853 0.40946 0.09182
 H529 H 0.27859 0.38550 0.17589
 H530 H 0.32912 0.30013 0.22273
 H531 H 0.44000 0.40206 0.15769
 H532 H 0.38790 0.44110 0.03517
 H533 H 0.36853 0.32766 0.18498
 H534 H 0.40049 0.37295 0.19600
 H535 H 0.31868 0.41376 0.14344
 H536 H 0.34891 0.41140 0.07218
 C537 C 0.84314 0.12591 -0.16261
 C538 C 0.83019 0.15212 -0.13429
 C539 C 0.80772 0.16928 -0.15564
 C540 C 0.79739 0.16005 -0.20522
 C541 C 0.81013 0.13358 -0.23331
 C542 C 0.83299 0.11691 -0.21245
 C543 C 0.86697 0.10776 -0.13988
 C544 C 0.89135 0.10381 -0.16859
 C545 C 0.91387 0.08692 -0.14676
 C546 C 0.91219 0.07297 -0.09631
 C547 C 0.88770 0.07673 -0.06785
 C548 C 0.86544 0.09426 -0.08919
 H549 H 0.79817 0.18952 -0.13317
 H550 H 0.80261 0.12614 -0.27172
 H551 H 0.93245 0.08432 -0.16963
 H552 H 0.88584 0.06642 -0.02878
 H553 H 0.84253 0.09665 -0.23487
 H554 H 0.89305 0.11416 -0.20766
 H555 H 0.83769 0.15958 -0.09588
 H556 H 0.84684 0.09686 -0.06637
 C557 C 0.84278 0.62534 0.33807
 C558 C 0.84541 0.65854 0.31891
 C559 C 0.82278 0.67579 0.29840
 C560 C 0.79647 0.66055 0.29655
 C561 C 0.79411 0.62713 0.31622
 C562 C 0.81683 0.60989 0.33631
 C563 C 0.86694 0.60691 0.35987
 C564 C 0.89319 0.61100 0.33794
 C565 C 0.91583 0.59379 0.35855
 C566 C 0.91277 0.57178 0.40129
 C567 C 0.88653 0.56755 0.42308
 C568 C 0.86397 0.58501 0.40284
 H569 H 0.82655 0.70070 0.28237
 H570 H 0.77460 0.61419 0.31828
 H571 H 0.93570 0.59751 0.34062
 H572 H 0.88345 0.55101 0.45626
 H573 H 0.81399 0.58422 0.35029
 H574 H 0.89624 0.62716 0.30431
 H575 H 0.86502 0.67145 0.31998
 H576 H 0.84423 0.58168 0.42146
 C577 C 0.34231 0.12603 0.33967
 C578 C 0.34544 0.15860 0.31839
 C579 C 0.32301 0.17595 0.29727
 C580 C 0.29642 0.16144 0.29682
 C581 C 0.29356 0.12864 0.31855
 C582 C 0.31607 0.11130 0.33933
 C583 C 0.36623 0.10752 0.36232
 C584 C 0.39245 0.11003 0.33964
 C585 C 0.41481 0.09257 0.36097
 C586 C 0.41147 0.07193 0.40522
 C587 C 0.38528 0.06942 0.42789
 C588 C 0.36302 0.08708 0.40690
 H589 H 0.32714 0.20031 0.27964
 H590 H 0.27382 0.11633 0.32170
 H591 H 0.43466 0.09497 0.34240
 H592 H 0.38199 0.05405 0.46234
 H593 H 0.31283 0.08612 0.35499
 H594 H 0.39566 0.12509 0.30487
 H595 H 0.36530 0.17093 0.31827
 H596 H 0.34333 0.08504 0.42614
 C597 C 0.34270 0.62358 -0.16030
 C598 C 0.33844 0.65787 -0.14744
 C599 C 0.31557 0.67529 -0.16658
 C600 C 0.29624 0.65908 -0.20001
 C601 C 0.30105 0.62448 -0.21291
 C602 C 0.32373 0.60706 -0.19306
 C603 C 0.36686 0.60505 -0.13960
 C604 C 0.39312 0.61973 -0.14141
 C605 C 0.41590 0.60222 -0.12211
 C606 C 0.41287 0.56985 -0.09983
 C607 C 0.38656 0.55525 -0.09783
 C608 C 0.36384 0.57255 -0.11787
 H609 H 0.31285 0.70114 -0.15295
 H610 H 0.28809 0.61067 -0.24012
 H611 H 0.43586 0.61425 -0.12403
 H612 H 0.38351 0.53035 -0.08097
 H613 H 0.32681 0.58073 -0.20438
 H614 H 0.39604 0.64463 -0.15832
 H615 H 0.35255 0.67108 -0.12146
 H616 H 0.34381 0.56076 -0.11565
 C617 C 1.15474 -0.12396 -0.16702
 C618 C 1.15165 -0.15481 -0.19475
 C619 C 1.17455 -0.17222 -0.21419
 C620 C 1.20122 -0.15943 -0.20606
 C621 C 1.20427 -0.12850 -0.17859
 C622 C 1.18138 -0.11091 -0.15973
 C623 C 1.13049 -0.10579 -0.14465
 C624 C 1.13270 -0.08836 -0.09644
 C625 C 1.11031 -0.07102 -0.07529
 C626 C 1.08486 -0.07094 -0.10128
 C627 C 1.08236 -0.08870 -0.14909
 C628 C 1.10497 -0.10576 -0.17072
 H629 H 1.17132 -0.19569 -0.23585
 H630 H 1.22441 -0.11800 -0.17083
 H631 H 1.11287 -0.05810 -0.03791
 H632 H 1.06304 -0.08904 -0.17007
 H633 H 1.18464 -0.08695 -0.13945
 H634 H 1.15168 -0.08850 -0.07440
 H635 H 1.13155 -0.16590 -0.20070
 H636 H 1.10253 -0.11853 -0.20820
 C637 C 1.15887 0.38262 0.31639
 C638 C 1.15531 0.35101 0.29090
 C639 C 1.17788 0.33278 0.27173
 C640 C 1.20475 0.34532 0.27808
 C641 C 1.20828 0.37702 0.30323
 C642 C 1.18570 0.39550 0.32162
 C643 C 1.13491 0.40157 0.33878
 C644 C 1.13785 0.42105 0.38502
 C645 C 1.11552 0.43831 0.40679
 C646 C 1.08938 0.43613 0.38365
 C647 C 1.08629 0.41681 0.33739
 C648 C 1.10881 0.39996 0.31501
 H649 H 1.17419 0.30876 0.25187
 H650 H 1.22856 0.38742 0.30975
 H651 H 1.11868 0.45273 0.44266
 H652 H 1.06648 0.41473 0.31840
 H653 H 1.18940 0.41997 0.34004
 H654 H 1.15731 0.42242 0.40537
 H655 H 1.13512 0.33990 0.28661
 H656 H 1.10572 0.38580 0.27890
 C657 C 0.65459 -0.12344 0.33114
 C658 C 0.65159 -0.15407 0.30279
 C659 C 0.67455 -0.17128 0.28319
 C660 C 0.70119 -0.15851 0.29180
 C661 C 0.70414 -0.12779 0.31988
 C662 C 0.68120 -0.11039 0.33886
 C663 C 0.63030 -0.10551 0.35376
 C664 C 0.63245 -0.08849 0.40232
 C665 C 0.61003 -0.07135 0.42372
 C666 C 0.58461 -0.07109 0.39765
 C667 C 0.58216 -0.08847 0.34950
 C668 C 0.60481 -0.10531 0.32761
 H669 H 0.67139 -0.19457 0.26105
 H670 H 0.72425 -0.11732 0.32802
 H671 H 0.61254 -0.05873 0.46136
 H672 H 0.56285 -0.08867 0.32846
 H673 H 0.68440 -0.08658 0.35960
 H674 H 0.65140 -0.08879 0.42444
 H675 H 0.63151 -0.16514 0.29647
 H676 H 0.60242 -0.11777 0.28987
 C677 C 0.65923 0.38142 -0.18359
 C678 C 0.65562 0.34977 -0.20890
 C679 C 0.67813 0.33154 -0.22832
 C680 C 0.70501 0.34412 -0.22235
 C681 C 0.70859 0.37585 -0.19729
 C682 C 0.68606 0.39433 -0.17870
 C683 C 0.63530 0.40041 -0.16111
 C684 C 0.63833 0.42015 -0.11513
 C685 C 0.61601 0.43739 -0.09329
 C686 C 0.58980 0.43491 -0.11604
 C687 C 0.58664 0.41537 -0.16208
 C688 C 0.60914 0.39857 -0.18456
 H689 H 0.67439 0.30751 -0.24808
 H690 H 0.72888 0.38629 -0.19103
 H691 H 0.61923 0.45205 -0.05765
 H692 H 0.56677 0.41309 -0.18082
 H693 H 0.68981 0.41884 -0.16043
 H694 H 0.65785 0.42173 -0.09504
 H695 H 0.63543 0.33860 -0.21293
 H696 H 0.60597 0.38425 -0.22049
 C697 C 1.14042 0.14011 -0.16846
 C698 C 1.16767 0.13487 -0.18337
 C699 C 1.18337 0.16196 -0.20213
 C700 C 1.17220 0.19512 -0.20577
 C701 C 1.14495 0.19993 -0.18859
 C702 C 1.12933 0.17283 -0.17068
 C703 C 1.12282 0.11182 -0.15161
 C704 C 1.12981 0.09186 -0.10823
 C705 C 1.11052 0.06947 -0.08694
 C706 C 1.08414 0.06692 -0.10898
 C707 C 1.07820 0.08496 -0.15495
 C708 C 1.09730 0.10725 -0.17588
 H709 H 1.20377 0.15614 -0.21595
 H710 H 1.13555 0.22480 -0.18711
 H711 H 1.11568 0.05575 -0.05168
 H712 H 1.05825 0.08311 -0.17348
 H713 H 1.10846 0.17749 -0.15804
 H714 H 1.14948 0.09511 -0.08904
 H715 H 1.17649 0.10963 -0.18211
 H716 H 1.09173 0.12211 -0.20984
 C717 C 1.14323 0.64095 0.31391
 C718 C 1.16967 0.64629 0.33422
 C719 C 1.18643 0.67198 0.31399
 C720 C 1.17675 0.69347 0.27389
 C721 C 1.15094 0.68628 0.25155
 C722 C 1.13467 0.66017 0.27076
 C723 C 1.12338 0.61812 0.34019
 C724 C 1.09596 0.62847 0.34445
 C725 C 1.07667 0.60788 0.36834
 C726 C 1.08418 0.57641 0.38956
 C727 C 1.11173 0.56613 0.38686
 C728 C 1.13122 0.58683 0.36211
 H729 H 1.20599 0.67654 0.33285
 H730 H 1.14327 0.70057 0.21855
 H731 H 1.05578 0.61703 0.37079
 H732 H 1.11807 0.54205 0.40315
 H733 H 1.11488 0.65567 0.25262
 H734 H 1.08934 0.65290 0.32989
 H735 H 1.17684 0.63195 0.36757
 H736 H 1.15225 0.57823 0.35954
 C737 C 0.64067 0.13797 0.33246
 C738 C 0.66585 0.13156 0.30809
 C739 C 0.68139 0.15857 0.28860
 C740 C 0.67202 0.19230 0.29394
 C741 C 0.64718 0.19843 0.32011
 C742 C 0.63157 0.17151 0.33876
 C743 C 0.62267 0.11013 0.34899
 C744 C 0.59663 0.10737 0.32633
 C745 C 0.57728 0.08541 0.34731
 C746 C 0.58351 0.06606 0.39187
 C747 C 0.61030 0.06708 0.41237
 C748 C 0.62984 0.08906 0.39092
 H749 H 0.70034 0.15300 0.26827
 H750 H 0.63974 0.22408 0.32621
 H751 H 0.55700 0.08486 0.32998
 H752 H 0.61570 0.05237 0.44654
 H753 H 0.61222 0.17681 0.35794
 H754 H 0.59091 0.12335 0.29371
 H755 H 0.67301 0.10571 0.30274
 H756 H 0.64993 0.09107 0.40885
 C757 C 0.64372 0.63942 -0.18649
 C758 C 0.66977 0.64536 -0.16473
 C759 C 0.68650 0.67130 -0.18419
 C760 C 0.67715 0.69250 -0.22491
 C761 C 0.65180 0.68475 -0.24867
 C762 C 0.63560 0.65832 -0.23028
 C763 C 0.62375 0.61634 -0.16105
 C764 C 0.59612 0.62606 -0.15880
 C765 C 0.57678 0.60540 -0.13523
 C766 C 0.58443 0.57451 -0.11228
 C767 C 0.61215 0.56480 -0.11320
 C768 C 0.63170 0.58555 -0.13766
 H769 H 0.70573 0.67632 -0.16431
 H770 H 0.64445 0.69885 -0.28214
 H771 H 0.55573 0.61413 -0.13423
 H772 H 0.61861 0.54118 -0.09556
 H773 H 0.61618 0.65337 -0.24956
 H774 H 0.58936 0.65012 -0.17453
 H775 H 0.67661 0.63129 -0.13085
 H776 H 0.65288 0.57741 -0.13870
 C777 C 0.85467 -0.14390 -0.15724
 C778 C 0.83857 -0.13808 -0.20190
 C779 C 0.82297 -0.16444 -0.22381
 C780 C 0.82388 -0.19707 -0.20207
 C781 C 0.83979 -0.20279 -0.15718
 C782 C 0.85487 -0.17628 -0.13457
 C783 C 0.87294 -0.11716 -0.13643
 C784 C 0.87218 -0.10802 -0.08314
 C785 C 0.89166 -0.08551 -0.06245
 C786 C 0.91243 -0.07256 -0.09454
 C787 C 0.91274 -0.08101 -0.14809
 C788 C 0.89291 -0.10285 -0.16905
 H789 H 0.81081 -0.15967 -0.25856
 H790 H 0.84061 -0.22782 -0.13986
 H791 H 0.89146 -0.07978 -0.02096
 H792 H 0.92872 -0.07134 -0.17338
 H793 H 0.86743 -0.18128 -0.10043
 H794 H 0.85696 -0.11897 -0.05739
 H795 H 0.83829 -0.11326 -0.21995
 H796 H 0.89394 -0.10988 -0.21016
 C797 C 0.85445 0.36131 0.32797
 C798 C 0.83374 0.34842 0.36057
 C799 C 0.81661 0.32222 0.34270
 C800 C 0.82020 0.30838 0.29230
 C801 C 0.83982 0.32245 0.25880
 C802 C 0.85660 0.34889 0.27626
 C803 C 0.87558 0.38484 0.34908
 C804 C 0.90312 0.37982 0.33532
 C805 C 0.92361 0.40021 0.35676
 C806 C 0.91719 0.42612 0.39296
 C807 C 0.88960 0.43158 0.40645
 C808 C 0.86894 0.41105 0.38471
 H809 H 0.80151 0.31161 0.36903
 H810 H 0.84252 0.31243 0.21944
 H811 H 0.94461 0.39510 0.34555
 H812 H 0.88400 0.45140 0.43414
 H813 H 0.87188 0.35891 0.24978
 H814 H 0.90905 0.35936 0.30904
 H815 H 0.83172 0.35729 0.40069
 H816 H 0.84784 0.41560 0.39582
 C817 C 0.35482 -0.14462 0.33968
 C818 C 0.33871 -0.13860 0.29510
 C819 C 0.32308 -0.16485 0.27291
 C820 C 0.32398 -0.19758 0.29429
 C821 C 0.33994 -0.20353 0.33906
 C822 C 0.35503 -0.17712 0.36195
 C823 C 0.37298 -0.11792 0.36097
 C824 C 0.37215 -0.10917 0.41441
 C825 C 0.39152 -0.08669 0.43554
 C826 C 0.41225 -0.07335 0.40375
 C827 C 0.41263 -0.08141 0.35006
 C828 C 0.39290 -0.10322 0.32867
 H829 H 0.31089 -0.15990 0.23827
 H830 H 0.34074 -0.22863 0.35612
 H831 H 0.39127 -0.08129 0.47714
 H832 H 0.42859 -0.07144 0.32499
 H833 H 0.36758 -0.18229 0.39604
 H834 H 0.35697 -0.12042 0.43993
 H835 H 0.33840 -0.11368 0.27736
 H836 H 0.39399 -0.10994 0.28744
 C837 C 0.35676 0.35782 -0.17440
 C838 C 0.33095 0.35253 -0.15158
 C839 C 0.31343 0.32722 -0.17128
 C840 C 0.32169 0.30612 -0.21348
 C841 C 0.34681 0.31335 -0.23822
 C842 C 0.36386 0.33902 -0.21935
 C843 C 0.37743 0.38038 -0.14936
 C844 C 0.40489 0.36984 -0.14799
 C845 C 0.42494 0.39044 -0.12571
 C846 C 0.41812 0.42206 -0.10342
 C847 C 0.39056 0.43243 -0.10313
 C848 C 0.37032 0.41174 -0.12614
 H849 H 0.29446 0.32262 -0.15057
 H850 H 0.35335 0.29941 -0.27278
 H851 H 0.44587 0.38129 -0.12557
 H852 H 0.38476 0.45665 -0.08596
 H853 H 0.38311 0.34354 -0.23925
 H854 H 0.41095 0.34534 -0.16378
 H855 H 0.32493 0.36662 -0.11682
 H856 H 0.34928 0.42045 -0.12651
 C857 C 1.14508 -0.13482 0.17795
 C858 C 1.16981 -0.14217 0.15205
 C859 C 1.18664 -0.16868 0.16939
 C860 C 1.17847 -0.18913 0.21180
 C861 C 1.15478 -0.17981 0.23983
 C862 C 1.13869 -0.15270 0.22377
 C863 C 1.12437 -0.11163 0.15488
 C864 C 1.09650 -0.12022 0.15873
 C865 C 1.07649 -0.09980 0.13675
 C866 C 1.08361 -0.07034 0.10920
 C867 C 1.11146 -0.06164 0.10444
 C868 C 1.13172 -0.08209 0.12735
 H869 H 1.20471 -0.17485 0.14668
 H870 H 1.14863 -0.19337 0.27469
 H871 H 1.05532 -0.10779 0.14036
 H872 H 1.11754 -0.03915 0.08317
 H873 H 1.12055 -0.14657 0.24634
 H874 H 1.09000 -0.14337 0.17772
 H875 H 1.17539 -0.12886 0.11665
 H876 H 1.15302 -0.07477 0.12365
 C877 C 1.14494 0.36502 0.67201
 C878 C 1.17065 0.35588 0.65144
 C879 C 1.18518 0.32847 0.67210
 C880 C 1.17455 0.30994 0.71441
 C881 C 1.14938 0.31996 0.73621
 C882 C 1.13463 0.34681 0.71494
 C883 C 1.12794 0.39174 0.64702
 C884 C 1.10952 0.41120 0.67726
 C885 C 1.09017 0.43187 0.65305
 C886 C 1.08953 0.43444 0.59837
 C887 C 1.10916 0.41735 0.56813
 C888 C 1.12806 0.39585 0.59219
 H889 H 1.20440 0.32133 0.65399
 H890 H 1.14084 0.30677 0.76951
 H891 H 1.07520 0.44518 0.67690
 H892 H 1.10865 0.41881 0.52575
 H893 H 1.11471 0.35252 0.73135
 H894 H 1.10939 0.40961 0.71960
 H895 H 1.17945 0.36960 0.61893
 H896 H 1.14163 0.38105 0.56747
 C897 C 0.64465 -0.13635 0.67832
 C898 C 0.66982 -0.14306 0.65361
 C899 C 0.68676 -0.16927 0.67159
 C900 C 0.67831 -0.19001 0.71348
 C901 C 0.65415 -0.18123 0.74044
 C902 C 0.63789 -0.15446 0.72369
 C903 C 0.62392 -0.11360 0.65439
 C904 C 0.59621 -0.12317 0.65609
 C905 C 0.57615 -0.10298 0.63379
 C906 C 0.58311 -0.07276 0.60813
 C907 C 0.61085 -0.06317 0.60524
 C908 C 0.63115 -0.08343 0.62843
 H909 H 0.70520 -0.17501 0.64969
 H910 H 0.64773 -0.19497 0.77494
 H911 H 0.55509 -0.11164 0.63581
 H912 H 0.61679 -0.04007 0.58542
 H913 H 0.61933 -0.14881 0.74529
 H914 H 0.58990 -0.14683 0.67386
 H915 H 0.67567 -0.12949 0.61860
 H916 H 0.65235 -0.07542 0.62637
 C917 C 0.64468 0.36306 0.17002
 C918 C 0.67048 0.35406 0.14976
 C919 C 0.68487 0.32645 0.17015
 C920 C 0.67397 0.30754 0.21181
 C921 C 0.64858 0.31722 0.23302
 C922 C 0.63401 0.34433 0.21206
 C923 C 0.62801 0.39034 0.14570
 C924 C 0.60971 0.40968 0.17635
 C925 C 0.59060 0.43091 0.15262
 C926 C 0.59009 0.43414 0.09802
 C927 C 0.60967 0.41720 0.06745
 C928 C 0.62835 0.39518 0.09103
 H929 H 0.70425 0.31953 0.15246
 H930 H 0.63981 0.30372 0.26581
 H931 H 0.57566 0.44406 0.17674
 H932 H 0.60924 0.41910 0.02513
 H933 H 0.61398 0.34992 0.22810
 H934 H 0.60944 0.40751 0.21863
 H935 H 0.67951 0.36812 0.11783
 H936 H 0.64187 0.38051 0.06601
 C937 C 0.85400 0.13953 0.17880
 C938 C 0.85817 0.15186 0.23011
 C939 C 0.84142 0.17728 0.25067
 C940 C 0.81990 0.19048 0.22068
 C941 C 0.81440 0.17658 0.17086
 C942 C 0.83142 0.15132 0.14993
 C943 C 0.87488 0.11740 0.15398
 C944 C 0.86759 0.09017 0.12064
 C945 C 0.88792 0.07039 0.09647
 C946 C 0.91580 0.07772 0.10512
 C947 C 0.92287 0.10505 0.13836
 C948 C 0.90272 0.12461 0.16230
 H949 H 0.84567 0.18730 0.28956
 H950 H 0.79788 0.18652 0.14710
 H951 H 0.88182 0.04946 0.07114
 H952 H 0.94409 0.11170 0.14573
 H953 H 0.82783 0.14242 0.11020
 H954 H 0.84624 0.08407 0.11360
 H955 H 0.87503 0.14264 0.25373
 H956 H 0.90902 0.14596 0.18662
 C957 C 0.85575 0.63466 0.67421
 C958 C 0.85743 0.64458 0.72727
 C959 C 0.84161 0.67142 0.74637
 C960 C 0.82339 0.68834 0.71310
 C961 C 0.82029 0.67709 0.66104
 C962 C 0.83646 0.65056 0.64162
 C963 C 0.87620 0.61080 0.65185
 C964 C 0.86927 0.58726 0.61208
 C965 C 0.88958 0.56723 0.58835
 C966 C 0.91711 0.57062 0.60392
 C967 C 0.92372 0.59348 0.64470
 C968 C 0.90361 0.61334 0.66813
 H969 H 0.84388 0.67935 0.78693
 H970 H 0.80629 0.68990 0.63479
 H971 H 0.88384 0.54972 0.55722
 H972 H 0.94467 0.59675 0.65798
 H973 H 0.83487 0.64376 0.60050
 H974 H 0.84824 0.58460 0.59899
 H975 H 0.87162 0.63227 0.75367
 H976 H 0.90982 0.63168 0.69777
 C977 C 0.35224 0.13743 0.67615
 C978 C 0.35495 0.14848 0.72848
 C979 C 0.33830 0.17430 0.74815
 C980 C 0.31831 0.18911 0.71622
 C981 C 0.31405 0.17644 0.66526
 C982 C 0.33101 0.15080 0.64521
 C983 C 0.37338 0.11501 0.65276
 C984 C 0.36656 0.08906 0.61675
 C985 C 0.38716 0.06925 0.59357
 C986 C 0.41488 0.07526 0.60588
 C987 C 0.42151 0.10114 0.64206
 C988 C 0.40106 0.12076 0.66503
 H989 H 0.34158 0.18350 0.78784
 H990 H 0.29868 0.18769 0.64011
 H991 H 0.38140 0.04947 0.56587
 H992 H 0.44260 0.10664 0.65239
 H993 H 0.32854 0.14291 0.60470
 H994 H 0.34535 0.08406 0.60667
 H995 H 0.37069 0.13805 0.75362
 H996 H 0.40706 0.14108 0.69160
 C997 C 0.35542 0.63406 0.17104
 C998 C 0.35664 0.64367 0.22428
 C999 C 0.34081 0.67055 0.24319
 C1000 C 0.32301 0.68782 0.20954
 C1001 C 0.32031 0.67688 0.15726
 C1002 C 0.33652 0.65033 0.13803
 C1003 C 0.37595 0.61013 0.14906
 C1004 C 0.36930 0.58705 0.10847
 C1005 C 0.38973 0.56702 0.08511
 C1006 C 0.41709 0.56989 0.10194
 C1007 C 0.42342 0.59226 0.14352
 C1008 C 0.40319 0.61215 0.16655
 H1009 H 0.34277 0.67827 0.28391
 H1010 H 0.30663 0.68997 0.13074
 H1011 H 0.38424 0.54999 0.05316
 H1012 H 0.44424 0.59510 0.15774
 H1013 H 0.33528 0.64379 0.09677
 H1014 H 0.34842 0.58478 0.09442
 H1015 H 0.37050 0.63108 0.25102
 H1016 H 0.40921 0.63013 0.19685
   
