data_POSCAR
  _audit_creation_date              2014-09-24
  _audit_creation_method            'ToBaCCo'
  _symmetry_space_group_name_H-M    'P1'
  _symmetry_Int_Tables_number       1
  _symmetry_cell_setting            triclinic
  loop_
  _symmetry_equiv_pos_as_xyz
 x,y,z
_cell_length_a 40.6205
_cell_length_b 40.6150
_cell_length_c 40.6661
_cell_angle_alpha 99.281300
_cell_angle_beta 80.303900
_cell_angle_gamma 101.199000
loop_
  _atom_site_label
  _atom_site_type_symbol
  _atom_site_fract_x
  _atom_site_fract_y
  _atom_site_fract_z
O1 O 0.56217 0.52833 0.02782
 O2 O 0.47072 0.51915 0.02391
 O3 O 0.51156 0.47807 0.02850
 O4 O 0.52142 0.56928 0.02426
 O5 O 0.53143 0.55963 -0.03131
 O6 O 0.52163 0.46817 -0.02704
 O7 O 0.48086 0.50933 -0.03163
 O8 O 0.57208 0.51857 -0.02775
 Cu9 Cu 0.51538 0.52461 0.03173
 Cu10 Cu 0.52742 0.51286 -0.03504
 C11 C 0.58255 0.52505 0.00065
 C12 C 0.46041 0.51300 -0.00460
 C13 C 0.51525 0.45775 0.00153
 C14 C 0.52810 0.57987 -0.00420
 O15 O 0.02586 0.53510 0.47821
 O16 O 0.03069 0.44434 0.47065
 O17 O 0.02659 0.48536 0.42922
 O18 O 0.03112 0.49402 0.51978
 O19 O -0.02479 0.48174 0.53030
 O20 O -0.02935 0.47316 0.43939
 O21 O -0.02525 0.43225 0.48098
 O22 O -0.03004 0.52275 0.48863
 Cu23 Cu 0.03420 0.49102 0.47352
 Cu24 Cu -0.03300 0.47634 0.48595
 C25 C -0.00299 0.54418 0.48437
 C26 C 0.00348 0.42299 0.47449
 C27 C -0.00208 0.47777 0.41898
 C28 C 0.00403 0.48900 0.54031
 O29 O 0.48088 0.02579 0.57220
 O30 O 0.48907 0.02977 0.48141
 O31 O 0.43958 0.02968 0.53114
 O32 O 0.53042 0.02477 0.52261
 O33 O 0.51797 -0.03108 0.51302
 O34 O 0.42741 -0.02622 0.52165
 O35 O 0.47669 -0.02609 0.47174
 O36 O 0.46860 -0.03010 0.56282
 Cu37 Cu 0.48631 0.03314 0.52771
 Cu38 Cu 0.47151 -0.03401 0.51627
 C39 C 0.47336 -0.00278 0.58287
 C40 C 0.48392 0.00261 0.46127
 C41 C 0.41818 0.00250 0.52786
 C42 C 0.53946 -0.00406 0.51672
 C43 C 0.49832 -0.05011 -0.04773
 C44 C 0.48827 -0.02013 -0.05155
 C45 C 0.48700 0.00604 -0.02458
 C46 C 0.49701 0.00299 0.00628
 C47 C 0.50764 -0.02733 0.00942
 C48 C 0.50770 -0.05386 -0.01724
 C49 C 0.49655 0.03125 0.03488
 C50 C 0.49151 0.02466 0.06857
 C51 C 0.49187 0.05124 0.09524
 C52 C 0.49597 0.08466 0.08871
 C53 C 0.50037 0.09162 0.05555
 C54 C 0.50130 0.06521 0.02881
 H55 H 0.49887 -0.07052 -0.06852
 H56 H 0.47804 0.02854 -0.02787
 H57 H 0.51618 -0.03048 0.03236
 H58 H 0.48709 -0.00106 0.07439
 H59 H 0.49578 0.10519 0.10939
 H60 H 0.50602 0.07146 0.00335
 C61 C -0.04701 0.49958 1.04638
 C62 C -0.05032 0.50887 1.01568
 C63 C -0.02328 0.50918 0.98928
 C64 C 0.00708 0.49889 0.99287
 C65 C 0.00966 0.48897 1.02395
 C66 C -0.01700 0.48995 1.05066
 C67 C 0.03577 0.49844 0.96441
 C68 C 0.06963 0.50283 0.97062
 C69 C 0.09633 0.50175 0.94394
 C70 C 0.08978 0.49763 0.91073
 C71 C 0.05650 0.49391 0.90411
 C72 C 0.02964 0.49362 0.93067
 H73 H -0.06781 0.49984 1.06697
 H74 H -0.02613 0.51769 0.96620
 H75 H 0.03214 0.48023 1.02761
 H76 H 0.07558 0.50735 0.99609
 H77 H 0.11052 0.49734 0.89010
 H78 H 0.00405 0.48938 0.92471
 C79 C -0.08924 -0.08784 0.50066
 C80 C -0.05585 -0.09356 0.49641
 C81 C -0.02891 -0.06616 0.49611
 C82 C -0.03505 -0.03253 0.50136
 C83 C -0.06896 -0.02727 0.50624
 C84 C -0.09579 -0.05474 0.50525
 C85 C -0.00633 -0.00318 0.50180
 C86 C -0.00941 0.02783 0.49208
 C87 C 0.01731 0.05540 0.49311
 C88 C 0.04782 0.05206 0.50265
 C89 C 0.05158 0.02145 0.51176
 C90 C 0.02454 -0.00582 0.51196
 H91 H -0.11006 -0.10907 0.50040
 H92 H -0.00328 -0.07137 0.49153
 H93 H -0.07485 -0.00191 0.51109
 H94 H -0.03233 0.03075 0.48346
 H95 H 0.06867 0.07329 0.50293
 H96 H 0.02778 -0.02885 0.52026
 C97 C -0.38189 0.52841 1.00197
 C98 C -0.35197 0.53081 1.00271
 C99 C -0.31628 0.53307 1.00330
 C100 C -0.30457 0.53098 1.03321
 C101 C -0.27007 0.53174 1.03351
 C102 C -0.24681 0.53456 1.00383
 C103 C -0.25878 0.53710 0.97398
 C104 C -0.29330 0.53636 0.97375
 C105 C -0.21045 0.53358 1.00385
 C106 C -0.19246 0.51467 0.97720
 C107 C -0.15890 0.51189 0.97824
 C108 C -0.14284 0.52804 1.00584
 C109 C -0.16025 0.54754 1.03210
 C110 C -0.19382 0.55034 1.03112
 C111 C -0.10945 0.52263 1.00836
 C112 C -0.08209 0.51699 1.01124
 H113 H -0.32216 0.52826 1.05619
 H114 H -0.26174 0.52922 1.05677
 H115 H -0.24146 0.53968 0.95083
 H116 H -0.30211 0.53803 0.95045
 H117 H -0.20468 0.50110 0.95608
 H118 H -0.14575 0.49648 0.95792
 H119 H -0.14809 0.56005 1.05364
 H120 H -0.20685 0.56542 1.05180
 C121 C 0.42699 0.51097 0.99363
 C122 C 0.39751 0.50973 0.99149
 C123 C 0.36258 0.50883 0.98824
 C124 C 0.34988 0.53907 0.99180
 C125 C 0.31636 0.53841 0.98735
 C126 C 0.29507 0.50744 0.97918
 C127 C 0.30798 0.47715 0.97599
 C128 C 0.34151 0.47787 0.98047
 C129 C 0.25977 0.50679 0.97340
 C130 C 0.24609 0.48438 0.94699
 C131 C 0.21302 0.48400 0.94127
 C132 C 0.19315 0.50596 0.96183
 C133 C 0.20647 0.52833 0.98820
 C134 C 0.23957 0.52878 0.99396
 C135 C 0.15905 0.50526 0.95589
 C136 C 0.13048 0.50406 0.95060
 H137 H 0.36602 0.56320 0.99761
 H138 H 0.30734 0.56218 0.98955
 H139 H 0.29211 0.45288 0.97016
 H140 H 0.35107 0.45430 0.97765
 H141 H 0.26112 0.46750 0.93042
 H142 H 0.20299 0.46661 0.92074
 H143 H 0.19127 0.54535 1.00436
 H144 H 0.24923 0.54604 1.01473
 C145 C -0.00513 -0.42267 0.48570
 C146 C -0.00764 -0.39346 0.48628
 C147 C -0.01137 -0.35891 0.48633
 C148 C -0.02222 -0.34971 0.45873
 C149 C -0.02679 -0.31644 0.45893
 C150 C -0.02057 -0.29184 0.48680
 C151 C -0.00939 -0.30126 0.51433
 C152 C -0.00486 -0.33459 0.51408
 C153 C -0.02619 -0.25665 0.48735
 C154 C -0.00353 -0.22882 0.50057
 C155 C -0.00917 -0.19576 0.50149
 C156 C -0.03749 -0.19006 0.48924
 C157 C -0.06009 -0.21756 0.47590
 C158 C -0.05449 -0.25062 0.47492
 C159 C -0.04378 -0.15607 0.49108
 C160 C -0.04921 -0.12760 0.49314
 H161 H -0.02730 -0.36832 0.43708
 H162 H -0.03497 -0.30990 0.43718
 H163 H -0.00479 -0.28303 0.53633
 H164 H 0.00341 -0.34145 0.53564
 H165 H 0.01869 -0.23259 0.50995
 H166 H 0.00849 -0.17467 0.51188
 H167 H -0.08221 -0.21345 0.46653
 H168 H -0.07265 -0.27150 0.46502
 C169 C 0.00510 0.38767 0.47173
 C170 C 0.00602 0.35793 0.46983
 C171 C 0.00673 0.32240 0.46814
 C172 C 0.03647 0.31171 0.47184
 C173 C 0.03681 0.27731 0.47153
 C174 C 0.00734 0.25313 0.46756
 C175 C -0.02233 0.26410 0.46345
 C176 C -0.02260 0.29852 0.46374
 C177 C 0.00735 0.21678 0.46881
 C178 C -0.02031 0.19715 0.48652
 C179 C -0.01948 0.16349 0.48939
 C180 C 0.00892 0.14897 0.47453
 C181 C 0.03625 0.16806 0.45628
 C182 C 0.03549 0.20173 0.45339
 C183 C 0.01097 0.11530 0.47985
 C184 C 0.01342 0.08764 0.48532
 H185 H 0.05927 0.33000 0.47542
 H186 H 0.05991 0.26974 0.47525
 H187 H -0.04529 0.24607 0.45995
 H188 H -0.04577 0.30653 0.46083
 H189 H -0.04214 0.20813 0.49905
 H190 H -0.04065 0.14904 0.50382
 H191 H 0.05841 0.15709 0.44477
 H192 H 0.05698 0.21604 0.43924
 C193 C 0.47073 -0.00402 -0.38363
 C194 C 0.46892 -0.00463 -0.35383
 C195 C 0.46752 -0.00486 -0.31827
 C196 C 0.44085 -0.02531 -0.30063
 C197 C 0.44001 -0.02590 -0.26619
 C198 C 0.46586 -0.00598 -0.24898
 C199 C 0.49237 0.01470 -0.26693
 C200 C 0.49317 0.01523 -0.30132
 C201 C 0.46586 -0.00749 -0.21273
 C202 C 0.47604 0.02202 -0.19092
 C203 C 0.47816 0.02020 -0.15731
 C204 C 0.47006 -0.01108 -0.14504
 C205 C 0.45917 -0.04045 -0.16632
 C206 C 0.45702 -0.03870 -0.19992
 C207 C 0.47508 -0.01346 -0.11138
 C208 C 0.48045 -0.01610 -0.08374
 H209 H 0.42081 -0.04089 -0.31350
 H210 H 0.41909 -0.04180 -0.25300
 H211 H 0.51292 0.02991 -0.25455
 H212 H 0.51398 0.03107 -0.31476
 H213 H 0.48259 0.04646 -0.19991
 H214 H 0.48671 0.04308 -0.14108
 H215 H 0.45311 -0.06484 -0.15715
 H216 H 0.44953 -0.06191 -0.21614
 C217 C 0.48554 0.00463 0.42611
 C218 C 0.48628 0.00713 0.39683
 C219 C 0.48660 0.01101 0.36219
 C220 C 0.48607 -0.01711 0.33722
 C221 C 0.48571 -0.01321 0.30371
 C222 C 0.48578 0.01889 0.29478
 C223 C 0.48644 0.04698 0.32009
 C224 C 0.48683 0.04303 0.35353
 C225 C 0.48532 0.02319 0.25926
 C226 C 0.46566 0.04518 0.25162
 C227 C 0.46594 0.04997 0.21828
 C228 C 0.48581 0.03284 0.19212
 C229 C 0.50517 0.01063 0.19940
 C230 C 0.50491 0.00578 0.23273
 C231 C 0.48717 0.03886 0.15793
 C232 C 0.48891 0.04430 0.12935
 H233 H 0.48572 -0.04205 0.34366
 H234 H 0.48483 -0.03537 0.28488
 H235 H 0.48703 0.07209 0.31399
 H236 H 0.48727 0.06498 0.37264
 H237 H 0.44994 0.05857 0.27142
 H238 H 0.45085 0.06720 0.21294
 H239 H 0.52078 -0.00263 0.17935
 H240 H 0.52061 -0.01099 0.23780
 C241 C 0.53161 -0.38457 -0.00564
 C242 C 0.53404 -0.35466 -0.00644
 C243 C 0.53622 -0.31899 -0.00705
 C244 C 0.53292 -0.30720 -0.03661
 C245 C 0.53336 -0.27274 -0.03680
 C246 C 0.53706 -0.24961 -0.00737
 C247 C 0.54088 -0.26166 0.02209
 C248 C 0.54045 -0.29614 0.02222
 C249 C 0.53556 -0.21335 -0.00716
 C250 C 0.51717 -0.19567 0.02018
 C251 C 0.51376 -0.16223 0.01939
 C252 C 0.52875 -0.14601 -0.00864
 C253 C 0.54777 -0.16309 -0.03561
 C254 C 0.55121 -0.19653 -0.03488
 C255 C 0.52264 -0.11277 -0.01079
 C256 C 0.51642 -0.08553 -0.01330
 H257 H 0.52946 -0.32471 -0.05935
 H258 H 0.52986 -0.26435 -0.05973
 H259 H 0.54414 -0.24442 0.04503
 H260 H 0.54304 -0.30502 0.04524
 H261 H 0.50446 -0.20805 0.04167
 H262 H 0.49874 -0.14933 0.04026
 H263 H 0.55939 -0.15078 -0.05748
 H264 H 0.56586 -0.20934 -0.05611
 C265 C 0.51290 0.42242 0.00355
 C266 C 0.51155 0.39295 0.00588
 C267 C 0.51056 0.35805 0.00934
 C268 C 0.47965 0.33744 0.01882
 C269 C 0.47890 0.30391 0.02345
 C270 C 0.50911 0.29057 0.01871
 C271 C 0.54002 0.31142 0.00889
 C272 C 0.54070 0.34493 0.00425
 C273 C 0.50843 0.25524 0.02450
 C274 C 0.53327 0.24753 0.04097
 C275 C 0.53227 0.21438 0.04696
 C276 C 0.50650 0.18850 0.03655
 C277 C 0.48180 0.19587 0.01998
 C278 C 0.48273 0.22900 0.01399
 C279 C 0.50503 0.15448 0.04324
 C280 C 0.50327 0.12590 0.04888
 H281 H 0.45619 0.34740 0.02302
 H282 H 0.45477 0.28865 0.03143
 H283 H 0.56364 0.30177 0.00462
 H284 H 0.56477 0.36066 -0.00309
 H285 H 0.55310 0.26724 0.04977
 H286 H 0.55143 0.20898 0.05992
 H287 H 0.46177 0.17601 0.01176
 H288 H 0.46351 0.23404 0.00090
 C289 C -0.42549 -0.00636 0.51503
 C290 C -0.39630 -0.00897 0.51434
 C291 C -0.36178 -0.01278 0.51421
 C292 C -0.33719 -0.00578 0.48655
 C293 C -0.30386 -0.01026 0.48629
 C294 C -0.29471 -0.02189 0.51371
 C295 C -0.31960 -0.02866 0.54147
 C296 C -0.35288 -0.02413 0.54169
 C297 C -0.25949 -0.02730 0.51323
 C298 C -0.25342 -0.05578 0.52542
 C299 C -0.22028 -0.06111 0.52459
 C300 C -0.19277 -0.03804 0.51164
 C301 C -0.19852 -0.00955 0.49961
 C302 C -0.23164 -0.00419 0.50038
 C303 C -0.15869 -0.04393 0.51006
 C304 C -0.13007 -0.04888 0.50823
 H305 H -0.34384 0.00288 0.46508
 H306 H -0.28539 -0.00523 0.46438
 H307 H -0.31327 -0.03720 0.56314
 H308 H -0.37170 -0.02959 0.56326
 H309 H -0.27431 -0.07427 0.53505
 H310 H -0.21613 -0.08334 0.53381
 H311 H -0.17740 0.00848 0.48954
 H312 H -0.23546 0.01818 0.49121
 C313 C 0.38286 0.00415 0.53080
 C314 C 0.35310 0.00502 0.53271
 C315 C 0.31758 0.00561 0.53424
 C316 C 0.30185 0.02890 0.55782
 C317 C 0.26751 0.02990 0.55857
 C318 C 0.24848 0.00758 0.53571
 C319 C 0.26449 -0.01596 0.51235
 C320 C 0.29880 -0.01690 0.51164
 C321 C 0.21241 0.00950 0.53537
 C322 C 0.18843 -0.02018 0.52987
 C323 C 0.15496 -0.01822 0.52742
 C324 C 0.14501 0.01337 0.53052
 C325 C 0.16847 0.04300 0.53671
 C326 C 0.20194 0.04112 0.53918
 C327 C 0.11141 0.01554 0.52526
 C328 C 0.08379 0.01789 0.51973
 H329 H 0.31616 0.04639 0.57548
 H330 H 0.25581 0.04806 0.57707
 H331 H 0.25070 -0.03311 0.49408
 H332 H 0.31076 -0.03496 0.49321
 H333 H 0.19562 -0.04488 0.52726
 H334 H 0.13701 -0.04132 0.52254
 H335 H 0.16109 0.06759 0.53888
 H336 H 0.21987 0.06441 0.54297
 C337 C -0.00352 0.47468 1.38362
 C338 C -0.00411 0.47260 1.35383
 C339 C -0.00424 0.47081 1.31824
 C340 C 0.01735 0.49518 1.30037
 C341 C 0.01697 0.49402 1.26592
 C342 C -0.00507 0.46843 1.24884
 C343 C -0.02650 0.44385 1.26697
 C344 C -0.02606 0.44505 1.30146
 C345 C -0.00638 0.46815 1.21253
 C346 C -0.03772 0.46114 1.20022
 C347 C -0.03915 0.46311 1.16652
 C348 C -0.00934 0.47199 1.14465
 C349 C 0.02201 0.47822 1.15643
 C350 C 0.02352 0.47627 1.19015
 C351 C -0.01123 0.47690 1.11083
 C352 C -0.01346 0.48220 1.08304
 H353 H 0.03428 0.51528 1.31314
 H354 H 0.03338 0.51361 1.25281
 H355 H -0.04349 0.42365 1.25445
 H356 H -0.04280 0.42600 1.31505
 H357 H -0.06120 0.45525 1.21690
 H358 H -0.06358 0.45850 1.15771
 H359 H 0.04524 0.48519 1.13973
 H360 H 0.04804 0.48135 1.19877
 C361 C 0.00629 0.49080 0.57539
 C362 C 0.00908 0.49171 0.60459
 C363 C 0.01338 0.49223 0.63910
 C364 C -0.01422 0.48111 0.66264
 C365 C -0.00960 0.48052 0.69586
 C366 C 0.02275 0.49094 0.70589
 C367 C 0.05026 0.50231 0.68205
 C368 C 0.04558 0.50292 0.64891
 C369 C 0.02791 0.48987 0.74098
 C370 C 0.05686 0.47911 0.74740
 C371 C 0.06210 0.47875 0.78043
 C372 C 0.03852 0.48909 0.80748
 C373 C 0.00949 0.49956 0.80138
 C374 C 0.00417 0.49991 0.76835
 C375 C 0.04461 0.48995 0.84149
 C376 C 0.04995 0.49132 0.87000
 H377 H -0.03922 0.47260 0.65526
 H378 H -0.03120 0.47129 0.71351
 H379 H 0.07536 0.51097 0.68910
 H380 H 0.06713 0.51156 0.63089
 H381 H 0.07534 0.47076 0.72686
 H382 H 0.08465 0.47059 0.78487
 H383 H -0.00884 0.50779 0.82216
 H384 H -0.01814 0.50869 0.76425
   
