data_POSCAR
  _audit_creation_date              2014-09-24
  _audit_creation_method            'ToBaCCo'
  _symmetry_space_group_name_H-M    'P1'
  _symmetry_Int_Tables_number       1
  _symmetry_cell_setting            triclinic
  loop_
  _symmetry_equiv_pos_as_xyz
 x,y,z
_cell_length_a 31.9151
_cell_length_b 31.9190
_cell_length_c 31.9279
_cell_angle_alpha 94.682200
_cell_angle_beta 83.899300
_cell_angle_gamma 82.990400
loop_
  _atom_site_label
  _atom_site_type_symbol
  _atom_site_fract_x
  _atom_site_fract_y
  _atom_site_fract_z
O1 O 0.54683 0.51078 0.04074
 O2 O 0.43229 0.50922 0.03390
 O3 O 0.49667 0.45167 0.04157
 O4 O 0.48207 0.56701 0.03645
 O5 O 0.49743 0.55752 -0.03301
 O6 O 0.50595 0.44159 -0.02825
 O7 O 0.44503 0.50024 -0.03568
 O8 O 0.55949 0.49681 -0.02872
 Cu9 Cu 0.48824 0.51042 0.04516
 Cu10 Cu 0.50331 0.49823 -0.03842
 C11 C 0.57261 0.50368 0.00701
 C12 C 0.41895 0.50476 -0.00218
 C13 C 0.50300 0.42696 0.00763
 C14 C 0.48772 0.58205 0.00103
 O15 O -0.03238 0.56384 0.49984
 O16 O -0.03179 0.44843 0.49931
 O17 O -0.02825 0.51054 0.55662
 O18 O -0.03645 0.50186 0.44214
 O19 O 0.03356 0.49487 0.42914
 O20 O 0.04173 0.49960 0.54351
 O21 O 0.03797 0.43928 0.48390
 O22 O 0.03750 0.55475 0.48669
 Cu23 Cu -0.03924 0.50706 0.50081
 Cu24 Cu 0.04477 0.49615 0.48480
 C25 C 0.00241 0.57916 0.49309
 C26 C 0.00320 0.42408 0.49093
 C27 C 0.00813 0.50627 0.56961
 C28 C -0.00282 0.49744 0.41616
 O29 O 0.49021 0.03331 0.57412
 O30 O 0.49538 0.03635 0.45853
 O31 O 0.43609 0.03157 0.51853
 O32 O 0.55071 0.03874 0.51337
 O33 O 0.56430 -0.03104 0.50429
 O34 O 0.44958 -0.03839 0.51230
 O35 O 0.50945 -0.03356 0.45016
 O36 O 0.50615 -0.03623 0.56534
 Cu37 Cu 0.49183 0.04204 0.51711
 Cu38 Cu 0.50854 -0.04184 0.50708
 C39 C 0.49773 -0.00196 0.58960
 C40 C 0.50316 0.00179 0.43476
 C41 C 0.42339 -0.00460 0.51635
 C42 C 0.57717 0.00505 0.50785
 C43 C 0.53936 0.09758 -0.06196
 C44 C 0.53643 0.06652 -0.09345
 C45 C 0.51575 0.03601 -0.07442
 N46 N 0.50628 0.04719 -0.03243
 C47 C 0.52058 0.08486 -0.02477
 C48 C 0.50260 0.00035 -0.09592
 C49 C 0.48882 -0.03331 -0.07422
 C50 C 0.46633 -0.06401 -0.09081
 C51 C 0.46284 -0.09293 -0.06137
 C52 C 0.48308 -0.07894 -0.02756
 N53 N 0.49867 -0.04251 -0.03554
 C54 C 0.48942 -0.10128 0.00814
 C55 C 0.49974 -0.08154 0.04630
 C56 C 0.51100 -0.10251 0.08058
 C57 C 0.51482 -0.07184 0.11211
 C58 C 0.50647 -0.03308 0.09587
 N59 N 0.49691 -0.03913 0.05574
 C60 C 0.50426 0.00703 0.11901
 C61 C 0.49967 0.04564 0.10000
 C62 C 0.48772 0.08554 0.12160
 C63 C 0.48955 0.11444 0.09198
 C64 C 0.50361 0.09159 0.05318
 N65 N 0.50961 0.04968 0.05839
 C66 C 0.51331 0.10951 0.01472
 H67 H 0.55339 0.12641 -0.06601
 H68 H 0.54783 0.06663 -0.12659
 H69 H 0.52430 0.02562 0.03575
 H70 H 0.45414 -0.06572 -0.12117
 H71 H 0.44747 -0.12123 -0.06466
 H72 H 0.51549 -0.13634 0.08295
 H73 H 0.52231 -0.07767 0.14355
 H74 H 0.48201 0.14848 0.09857
 H75 H 0.51939 -0.02774 -0.01803
 H76 H 0.47885 0.09339 0.15521
 C77 C -0.06951 0.48794 0.88820
 C78 C -0.10197 0.48676 0.91972
 C79 C -0.08622 0.49632 0.95770
 N80 N -0.04554 0.50424 0.95029
 C81 C -0.03524 0.49916 0.90782
 C82 C -0.11012 0.50109 0.99812
 C83 C -0.09128 0.50529 1.03617
 C84 C -0.11309 0.51870 1.07589
 C85 C -0.08376 0.51553 1.10444
 C86 C -0.04497 0.49939 1.08159
 N87 N -0.04985 0.49329 1.04003
 C88 C -0.00688 0.48807 1.09934
 C89 C 0.03297 0.47947 1.07442
 C90 C 0.06987 0.45985 1.08750
 C91 C 0.10204 0.46208 1.05596
 C92 C 0.08366 0.48319 1.02484
 N93 N 0.04143 0.49355 1.03608
 C94 C 0.10599 0.49633 0.98868
 C95 C 0.08494 0.50932 0.95415
 C96 C 0.10198 0.53103 0.92191
 C97 C 0.07306 0.53391 0.89288
 C98 C 0.03901 0.51429 0.90841
 N99 N 0.04640 0.49953 0.94579
 C100 C 0.00368 0.50763 0.88671
 H101 H -0.07131 0.48178 0.85466
 H102 H -0.13360 0.48001 0.91493
 H103 H 0.02853 0.47943 0.96196
 H104 H -0.14669 0.52927 1.08388
 H105 H -0.09054 0.52361 1.13825
 H106 H 0.07330 0.44589 1.11692
 H107 H 0.13521 0.45007 1.05620
 H108 H 0.07678 0.54858 0.86355
 H109 H -0.02726 0.47729 1.01637
 H110 H 0.13229 0.54312 0.91926
 C111 C 0.10990 -0.08368 0.52023
 C112 C 0.08135 -0.11203 0.51541
 C113 C 0.04513 -0.08948 0.50387
 N114 N 0.05004 -0.04810 0.50337
 C115 C 0.08954 -0.04432 0.51341
 C116 C 0.00970 -0.10718 0.49059
 C117 C -0.02483 -0.08232 0.47663
 C118 C -0.05101 -0.09780 0.44879
 C119 C -0.08240 -0.06523 0.44550
 C120 C -0.07558 -0.03138 0.47281
 N121 N -0.03931 -0.04134 0.49040
 C122 C -0.10227 0.00786 0.48057
 C123 C -0.08274 0.04500 0.47655
 C124 C -0.09796 0.07963 0.45645
 C125 C -0.06852 0.10747 0.45790
 C126 C -0.03581 0.08848 0.47795
 N127 N -0.04416 0.04999 0.48856
 C128 C -0.00014 0.10760 0.48825
 C129 C 0.03525 0.08525 0.50363
 C130 C 0.06629 0.10436 0.52232
 C131 C 0.09663 0.07243 0.52971
 C132 C 0.08332 0.03452 0.51564
 N133 N 0.04566 0.04258 0.49991
 C134 C 0.10717 -0.00579 0.51661
 H135 H 0.14178 -0.09157 0.52821
 H136 H 0.08734 -0.14550 0.51914
 H137 H 0.03032 0.02086 0.48327
 H138 H -0.04752 -0.12925 0.43227
 H139 H -0.10752 -0.06634 0.42532
 H140 H -0.12625 0.08365 0.44050
 H141 H -0.07057 0.13783 0.44491
 H142 H 0.12529 0.07665 0.54401
 H143 H -0.02804 -0.02282 0.51411
 H144 H 0.06720 0.13792 0.52969
 C145 C -0.29347 0.50569 1.00862
 C146 C -0.30893 0.46910 0.99136
 C147 C -0.35280 0.46886 0.99060
 C148 C -0.38167 0.50368 1.00908
 C149 C -0.36663 0.53878 1.02865
 C150 C -0.32297 0.54007 1.02810
 C151 C -0.24634 0.50578 1.00612
 C152 C -0.22766 0.54255 1.01621
 C153 C -0.18351 0.54104 1.01298
 C154 C -0.15706 0.50270 1.00074
 C155 C -0.17523 0.46604 0.99014
 C156 C -0.21950 0.46761 0.99143
 C157 C -0.28060 0.43281 0.97572
 C158 C -0.23692 0.43170 0.97689
 H159 H -0.29245 0.40456 0.96311
 H160 H -0.21637 0.40262 0.96512
 H161 H -0.36463 0.44129 0.97633
 H162 H -0.38873 0.56573 1.04340
 H163 H -0.16983 0.56980 1.02040
 H164 H -0.15468 0.43657 0.97981
 H165 H -0.31293 0.56796 1.04337
 H166 H -0.24658 0.57288 1.02575
 C167 C 0.28764 0.50197 0.98869
 C168 C 0.30144 0.51663 1.02727
 C169 C 0.34502 0.51655 1.03044
 C170 C 0.37534 0.50455 0.99482
 C171 C 0.36108 0.49254 0.95593
 C172 C 0.31799 0.49076 0.95298
 C173 C 0.24111 0.50015 0.98732
 C174 C 0.22477 0.48023 0.95268
 C175 C 0.18112 0.47883 0.95328
 C176 C 0.15260 0.49812 0.98788
 C177 C 0.16865 0.51813 1.02245
 C178 C 0.21256 0.51792 1.02305
 C179 C 0.27160 0.53228 1.06213
 C180 C 0.22806 0.53405 1.05965
 H181 H 0.28203 0.54416 1.09153
 H182 H 0.20623 0.54715 1.08724
 H183 H 0.35512 0.52708 1.06048
 H184 H 0.38334 0.48354 0.92766
 H185 H 0.16954 0.46245 0.92666
 H186 H 0.14685 0.53293 1.04945
 H187 H 0.30900 0.48116 0.92236
 H188 H 0.24527 0.46460 0.92539
 C189 C 0.00107 -0.28800 0.49165
 C190 C 0.03806 -0.31597 0.47533
 C191 C 0.03876 -0.35986 0.47712
 C192 C 0.00203 -0.37684 0.49245
 C193 C -0.03537 -0.34892 0.50619
 C194 C -0.03576 -0.30515 0.50630
 C195 C 0.00243 -0.24130 0.49156
 C196 C -0.03022 -0.21092 0.51278
 C197 C -0.02721 -0.16776 0.51242
 C198 C 0.00797 -0.15366 0.49036
 C199 C 0.04043 -0.18365 0.46857
 C200 C 0.03870 -0.22724 0.47049
 C201 C 0.07368 -0.30003 0.45629
 C202 C 0.07349 -0.25671 0.45279
 H203 H 0.10182 -0.32146 0.44309
 H204 H 0.10152 -0.24602 0.43710
 H205 H 0.06762 -0.38085 0.46513
 H206 H -0.06443 -0.36077 0.51769
 H207 H -0.05250 -0.14509 0.52959
 H208 H 0.06750 -0.17300 0.45104
 H209 H -0.06538 -0.28535 0.51728
 H210 H -0.05779 -0.21984 0.53072
 C211 C 0.00388 0.28867 0.48425
 C212 C -0.03056 0.31612 0.50730
 C213 C -0.03086 0.36025 0.50888
 C214 C 0.00346 0.37765 0.48902
 C215 C 0.03810 0.35038 0.46727
 C216 C 0.03831 0.30650 0.46468
 C217 C 0.00268 0.24177 0.48280
 C218 C 0.03376 0.21191 0.45827
 C219 C 0.03203 0.16851 0.45922
 C220 C -0.00045 0.15384 0.48480
 C221 C -0.03228 0.18321 0.50832
 C222 C -0.03129 0.22693 0.50704
 C223 C -0.06403 0.29939 0.52933
 C224 C -0.06403 0.25576 0.52979
 H225 H -0.09027 0.32038 0.54719
 H226 H -0.09025 0.24441 0.54800
 H227 H -0.05748 0.38108 0.52635
 H228 H 0.06503 0.36304 0.45178
 H229 H 0.05655 0.14618 0.44047
 H230 H -0.05758 0.17188 0.52795
 H231 H 0.06590 0.28718 0.44766
 H232 H 0.05959 0.22132 0.43814
 C233 C 0.49935 -0.00571 -0.27811
 C234 C 0.48297 0.03198 -0.29449
 C235 C 0.48302 0.03330 -0.33837
 C236 C 0.49723 -0.00321 -0.36645
 C237 C 0.51115 -0.04117 -0.34963
 C238 C 0.51257 -0.04236 -0.30622
 C239 C 0.50098 -0.00517 -0.23135
 C240 C 0.52176 -0.03909 -0.21259
 C241 C 0.52256 -0.03696 -0.16885
 C242 C 0.50206 -0.00138 -0.14266
 C243 C 0.48150 0.03269 -0.16107
 C244 C 0.48191 0.03156 -0.20515
 C245 C 0.46589 0.06784 -0.26692
 C246 C 0.46439 0.06727 -0.22315
 H247 H 0.45278 0.09658 -0.27934
 H248 H 0.45021 0.09559 -0.20314
 H249 H 0.47113 0.06268 -0.35048
 H250 H 0.52187 -0.07011 -0.37009
 H251 H 0.53927 -0.06324 -0.15532
 H252 H 0.46580 0.06042 -0.14100
 H253 H 0.52364 -0.07239 -0.29529
 H254 H 0.53831 -0.06714 -0.23117
 C255 C 0.50850 0.00442 0.30014
 C256 C 0.47180 0.02352 0.32698
 C257 C 0.47080 0.02368 0.37109
 C258 C 0.50488 0.00271 0.38871
 C259 C 0.54024 -0.01814 0.36214
 C260 C 0.54237 -0.01693 0.31834
 C261 C 0.50895 0.00633 0.25336
 C262 C 0.54572 -0.00655 0.22448
 C263 C 0.54422 -0.00507 0.18108
 C264 C 0.50599 0.00846 0.16543
 C265 C 0.46944 0.02230 0.19388
 C266 C 0.47098 0.02254 0.23770
 C267 C 0.43591 0.04106 0.30958
 C268 C 0.43511 0.03949 0.26587
 H269 H 0.40759 0.05519 0.33006
 H270 H 0.40621 0.05249 0.25395
 H271 H 0.44295 0.03883 0.39173
 H272 H 0.56656 -0.03491 0.37540
 H273 H 0.57283 -0.01532 0.15945
 H274 H 0.43995 0.03324 0.18178
 H275 H 0.57031 -0.03355 0.29926
 H276 H 0.57594 -0.01738 0.23483
 C277 C 0.47868 -0.28212 0.00231
 C278 C 0.50450 -0.30864 -0.03073
 C279 C 0.50593 -0.35296 -0.03214
 C280 C 0.48333 -0.37144 0.00001
 C281 C 0.45809 -0.34512 0.03286
 C282 C 0.45547 -0.30111 0.03391
 C283 C 0.47869 -0.23506 0.00324
 C284 C 0.45240 -0.20588 0.03340
 C285 C 0.45524 -0.16253 0.03428
 C286 C 0.48454 -0.14721 0.00546
 C287 C 0.50963 -0.17573 -0.02577
 C288 C 0.50661 -0.21935 -0.02736
 C289 C 0.52991 -0.29085 -0.06123
 C290 C 0.53142 -0.24725 -0.05921
 H291 H 0.54980 -0.31107 -0.08645
 H292 H 0.55241 -0.23517 -0.08296
 H293 H 0.52606 -0.37314 -0.05726
 H294 H 0.44038 -0.35867 0.05806
 H295 H 0.43492 -0.14082 0.05798
 H296 H 0.53189 -0.16386 -0.04851
 H297 H 0.43595 -0.28266 0.06029
 H298 H 0.42949 -0.21581 0.05657
 C299 C 0.51132 0.29219 0.01429
 C300 C 0.48938 0.31183 -0.01674
 C301 C 0.48806 0.35562 -0.01947
 C302 C 0.50627 0.38076 0.00980
 C303 C 0.52636 0.36171 0.04170
 C304 C 0.52933 0.31786 0.04371
 C305 C 0.51314 0.24508 0.01516
 C306 C 0.53821 0.22162 0.04122
 C307 C 0.53865 0.17771 0.04080
 C308 C 0.51346 0.15630 0.01515
 C309 C 0.48871 0.17940 -0.01110
 C310 C 0.48930 0.22314 -0.01218
 C311 C 0.46786 0.28793 -0.04404
 C312 C 0.46696 0.24474 -0.04111
 H313 H 0.45065 0.30305 -0.06746
 H314 H 0.44915 0.22780 -0.06241
 H315 H 0.47152 0.37047 -0.04351
 H316 H 0.54023 0.38076 0.06484
 H317 H 0.55869 0.16034 0.06062
 H318 H 0.46943 0.16299 -0.03130
 H319 H 0.54510 0.30480 0.06890
 H320 H 0.55823 0.23647 0.06149
 C321 C -0.28811 0.01183 0.50137
 C322 C -0.30379 -0.02780 0.50041
 C323 C -0.34764 -0.02961 0.50267
 C324 C -0.37663 0.00758 0.50566
 C325 C -0.36109 0.04688 0.50645
 C326 C -0.31743 0.04906 0.50421
 C327 C -0.24090 0.01218 0.49847
 C328 C -0.22194 0.04961 0.50181
 C329 C -0.17772 0.04811 0.49736
 C330 C -0.15048 0.00940 0.48746
 C331 C -0.16993 -0.02800 0.48962
 C332 C -0.21425 -0.02698 0.49373
 C333 C -0.27565 -0.06550 0.49683
 C334 C -0.23186 -0.06511 0.49343
 H335 H -0.28765 -0.09585 0.49619
 H336 H -0.21144 -0.09520 0.49022
 H337 H -0.35916 -0.06022 0.50197
 H338 H -0.38272 0.07608 0.50855
 H339 H -0.16553 0.07781 0.50323
 H340 H -0.15124 -0.05850 0.48941
 H341 H -0.30731 0.08009 0.50434
 H342 H -0.24067 0.08038 0.50860
 C343 C 0.28920 -0.00895 0.52098
 C344 C 0.31069 0.01261 0.48996
 C345 C 0.35440 0.01444 0.48935
 C346 C 0.37768 -0.00703 0.51762
 C347 C 0.35711 -0.03045 0.54676
 C348 C 0.31318 -0.03105 0.54885
 C349 C 0.24206 -0.00827 0.52179
 C350 C 0.21657 -0.02335 0.55467
 C351 C 0.17269 -0.02205 0.55367
 C352 C 0.15361 -0.00696 0.51929
 C353 C 0.17856 0.00905 0.48708
 C354 C 0.22216 0.00958 0.48863
 C355 C 0.28870 0.03131 0.45912
 C356 C 0.24561 0.02881 0.45779
 H357 H 0.30528 0.04732 0.43506
 H358 H 0.23018 0.04299 0.43275
 H359 H 0.37067 0.03169 0.46612
 H360 H 0.37495 -0.04755 0.56850
 H361 H 0.15362 -0.03305 0.57962
 H362 H 0.16362 0.02185 0.46104
 H363 H 0.29865 -0.04938 0.57194
 H364 H 0.22984 -0.03542 0.58169
 C365 C -0.00973 0.49142 1.28211
 C366 C 0.02135 0.51262 1.30040
 C367 C 0.02373 0.51369 1.34405
 C368 C -0.00575 0.49573 1.37035
 C369 C -0.03786 0.47658 1.35267
 C370 C -0.03967 0.47403 1.30898
 C371 C -0.00988 0.48939 1.23504
 C372 C -0.03597 0.46497 1.21300
 C373 C -0.03470 0.46412 1.16902
 C374 C -0.00806 0.48819 1.14615
 C375 C 0.01817 0.51234 1.16780
 C376 C 0.01830 0.51221 1.21165
 C377 C 0.04930 0.53337 1.27522
 C378 C 0.04714 0.53400 1.23194
 H379 H 0.07275 0.55003 1.28931
 H380 H 0.06902 0.55109 1.21392
 H381 H 0.04798 0.52948 1.35781
 H382 H -0.06115 0.46288 1.37262
 H383 H -0.05464 0.44469 1.15275
 H384 H 0.03904 0.53081 1.15022
 H385 H -0.06493 0.45884 1.29694
 H386 H -0.05694 0.44578 1.22903
 C387 C 0.01462 0.50998 0.70385
 C388 C -0.01959 0.53366 0.68785
 C389 C -0.02143 0.53228 0.64403
 C390 C 0.01114 0.50875 0.61556
 C391 C 0.04612 0.48714 0.63133
 C392 C 0.04781 0.48748 0.67492
 C393 C 0.01383 0.50997 0.75092
 C394 C 0.04362 0.48376 0.77000
 C395 C 0.04038 0.48353 0.81393
 C396 C 0.00782 0.50978 0.84000
 C397 C -0.02135 0.53680 0.82143
 C398 C -0.01931 0.53622 0.77723
 C399 C -0.05163 0.55868 0.71561
 C400 C -0.05105 0.56056 0.75931
 H401 H -0.07751 0.57727 0.70334
 H402 H -0.07654 0.58048 0.77943
 H403 H -0.04814 0.54984 0.63200
 H404 H 0.07179 0.46908 0.60990
 H405 H 0.06305 0.46226 0.82769
 H406 H -0.04651 0.55726 0.84150
 H407 H 0.07532 0.47002 0.68525
 H408 H 0.06894 0.46240 0.75158
   
