data_POSCAR
  _audit_creation_date              2014-09-24
  _audit_creation_method            'ToBaCCo'
  _symmetry_space_group_name_H-M    'P1'
  _symmetry_Int_Tables_number       1
  _symmetry_cell_setting            triclinic
  loop_
  _symmetry_equiv_pos_as_xyz
 x,y,z
_cell_length_a 30.4220
_cell_length_b 30.4598
_cell_length_c 23.2912
_cell_angle_alpha 90.071100
_cell_angle_beta 89.962000
_cell_angle_gamma 120.082300
loop_
  _atom_site_label
  _atom_site_type_symbol
  _atom_site_fract_x
  _atom_site_fract_y
  _atom_site_fract_z
C1 C 0.12700 0.58435 0.10227
 C2 C 0.12711 0.53948 0.10196
 C3 C 0.08369 0.50465 0.07282
 N4 N 0.05699 0.52685 0.05557
 C5 C 0.08352 0.57569 0.07332
 C6 C 0.06748 0.45249 0.06713
 C7 C 0.02657 0.41871 0.03207
 C8 C 0.00419 0.36630 0.03282
 C9 C -0.03248 0.34792 -0.00946
 C10 C -0.03136 0.38970 -0.03481
 N11 N 0.00510 0.43259 -0.00963
 C12 C -0.06139 0.38799 -0.08196
 C13 C -0.06547 0.43007 -0.10051
 C14 C -0.08929 0.43143 -0.15079
 C15 C -0.08945 0.47627 -0.15040
 C16 C -0.06572 0.50116 -0.09990
 N17 N -0.05125 0.47272 -0.06945
 C18 C -0.06195 0.54705 -0.08061
 C19 C -0.03199 0.57523 -0.03331
 C20 C -0.03335 0.61562 -0.00743
 C21 C 0.00341 0.63397 0.03474
 C22 C 0.02606 0.60422 0.03341
 N23 N 0.00467 0.56901 -0.00853
 C24 C 0.06713 0.61150 0.06819
 H25 H 0.15542 0.61919 0.12233
 H26 H 0.15562 0.53312 0.12173
 H27 H 0.01798 0.54565 -0.02345
 H28 H 0.01352 0.34371 0.06065
 H29 H -0.05689 0.30839 -0.02058
 H30 H -0.10558 0.40273 -0.18398
 H31 H -0.10588 0.48877 -0.18325
 H32 H 0.01262 0.66574 0.06289
 H33 H 0.01824 0.46934 -0.02409
 H34 H -0.05796 0.63055 -0.01816
 C35 C 0.56590 0.47482 -0.14819
 C36 C 0.52079 0.42989 -0.14793
 C37 C 0.49565 0.42927 -0.09794
 N38 N 0.52412 0.47236 -0.06760
 C39 C 0.56709 0.50044 -0.09829
 C40 C 0.44938 0.38747 -0.07907
 C41 C 0.42101 0.38939 -0.03220
 C42 C 0.38020 0.34767 -0.00686
 C43 C 0.36180 0.36615 0.03516
 C44 C 0.39196 0.41857 0.03418
 N45 N 0.42748 0.43234 -0.00739
 C46 C 0.38482 0.45245 0.06890
 C47 C 0.42088 0.50467 0.07422
 C48 C 0.41234 0.53958 0.10307
 C49 C 0.45737 0.58458 0.10282
 C50 C 0.49219 0.57591 0.07385
 N51 N 0.46981 0.52694 0.05663
 C52 C 0.54445 0.61190 0.06822
 C53 C 0.57830 0.60466 0.03343
 C54 C 0.63078 0.63480 0.03432
 C55 C 0.64923 0.61629 -0.00762
 C56 C 0.60743 0.57540 -0.03294
 N57 N 0.56446 0.56906 -0.00805
 C58 C 0.60923 0.54677 -0.07976
 H59 H 0.59484 0.48691 -0.18105
 H60 H 0.50830 0.40071 -0.18055
 H61 H 0.52768 0.54529 -0.02257
 H62 H 0.36505 0.30811 -0.01778
 H63 H 0.32973 0.34362 0.06298
 H64 H 0.37747 0.53322 0.12296
 H65 H 0.46383 0.61952 0.12252
 H66 H 0.68883 0.63142 -0.01853
 H67 H 0.45120 0.46900 -0.02210
 H68 H 0.65339 0.66691 0.06206
 C69 C 0.54167 1.12783 -0.10267
 C70 C 0.58661 1.12777 -0.10239
 C71 C 0.57770 1.08423 -0.07356
 N72 N 0.52862 1.05761 -0.05647
 C73 C 0.50647 1.08428 -0.07401
 C74 C 0.61357 1.06790 -0.06802
 C75 C 0.60627 1.02697 -0.03314
 C76 C 0.63629 1.00458 -0.03393
 C77 C 0.61778 0.96787 0.00822
 C78 C 0.57705 0.96900 0.03345
 N79 N 0.57075 1.00548 0.00844
 C80 C 0.54851 0.93882 0.08028
 C81 C 0.50226 0.93456 0.09885
 C82 C 0.47674 0.91004 0.14865
 C83 C 0.43178 0.91014 0.14855
 C84 C 0.43111 0.93470 0.09868
 N85 N 0.47418 0.94943 0.06830
 C86 C 0.38925 0.93901 0.07986
 C87 C 0.39108 0.96909 0.03287
 C88 C 0.34923 0.96777 0.00743
 C89 C 0.36759 1.00437 -0.03484
 C90 C 0.42015 1.02698 -0.03394
 N91 N 0.43403 1.00561 0.00787
 C92 C 0.45408 1.06795 -0.06894
 H93 H 0.53548 1.15639 -0.12252
 H94 H 0.62167 1.15626 -0.12196
 H95 H 0.47078 1.01877 0.02255
 H96 H 0.66834 1.01393 -0.06171
 H97 H 0.63279 0.94341 0.01928
 H98 H 0.48887 0.89318 0.18136
 H99 H 0.40261 0.89335 0.18118
 H100 H 0.34491 1.01353 -0.06277
 H101 H 0.54712 1.01861 0.02293
 H102 H 0.30965 0.94323 0.01841
 C103 C 1.12986 0.54145 0.39697
 C104 C 1.13005 0.58645 0.39740
 C105 C 1.08627 0.57771 0.42589
 N106 N 1.05932 0.52862 0.44266
 C107 C 1.08597 0.50635 0.42522
 C108 C 1.06998 0.61369 0.43138
 C109 C 1.02889 0.60637 0.46638
 C110 C 1.00633 0.63628 0.46580
 C111 C 0.96963 0.61777 0.50806
 C112 C 0.97087 0.57716 0.53319
 N113 N 1.00742 0.57091 0.50799
 C114 C 0.94072 0.54867 0.58011
 C115 C 0.93648 0.50251 0.59856
 C116 C 0.91209 0.47707 0.64845
 C117 C 0.91204 0.43210 0.64815
 C118 C 0.93640 0.43134 0.59807
 N119 N 0.95115 0.47436 0.56776
 C120 C 0.94048 0.38945 0.57898
 C121 C 0.97034 0.39120 0.53174
 C122 C 0.96874 0.34934 0.50602
 C123 C 1.00533 0.36761 0.46366
 C124 C 1.02818 0.42012 0.46481
 N125 N 1.00697 0.43406 0.50681
 C126 C 1.06934 0.45395 0.43000
 H127 H 1.15848 0.53515 0.37730
 H128 H 1.15886 0.62147 0.37810
 H129 H 1.02038 0.47077 0.52169
 H130 H 1.01560 0.66827 0.43808
 H131 H 0.94511 0.63272 0.51926
 H132 H 0.89538 0.48927 0.68136
 H133 H 0.89527 0.40297 0.68076
 H134 H 1.01436 0.34491 0.43554
 H135 H 1.02058 0.54732 0.52238
 H136 H 0.94408 0.30981 0.51690
 C137 C 0.45576 0.58438 0.39851
 C138 C 0.41072 0.53940 0.39857
 C139 C 0.41928 0.50463 0.42762
 N140 N 0.46824 0.52700 0.44506
 C141 C 0.49060 0.57586 0.42754
 C142 C 0.38324 0.45242 0.43310
 C143 C 0.39034 0.41862 0.46794
 C144 C 0.36014 0.36619 0.46705
 C145 C 0.37860 0.34779 0.50903
 C146 C 0.41948 0.38956 0.53428
 N147 N 0.42590 0.43247 0.50945
 C148 C 0.44809 0.38769 0.58091
 C149 C 0.49445 0.42956 0.59952
 C150 C 0.52005 0.43028 0.64913
 C151 C 0.56507 0.47533 0.64917
 C152 C 0.56572 0.50086 0.59957
 N153 N 0.52257 0.47268 0.56921
 C154 C 0.60757 0.54721 0.58101
 C155 C 0.60574 0.57571 0.53432
 C156 C 0.64757 0.61654 0.50915
 C157 C 0.62918 0.63494 0.46711
 C158 C 0.57669 0.60478 0.46791
 N159 N 0.56280 0.56927 0.50941
 C160 C 0.54288 0.61187 0.43300
 H161 H 0.46221 0.61921 0.37861
 H162 H 0.37581 0.53294 0.37871
 H163 H 0.52603 0.54550 0.52394
 H164 H 0.32804 0.34360 0.43928
 H165 H 0.36347 0.30826 0.51993
 H166 H 0.50791 0.40111 0.68165
 H167 H 0.59429 0.48753 0.68171
 H168 H 0.65182 0.66700 0.43938
 H169 H 0.44971 0.46919 0.52401
 H170 H 0.68715 0.63167 0.52014
 C171 C 0.43240 -0.09088 0.34919
 C172 C 0.47741 -0.09082 0.34923
 C173 C 0.50252 -0.06689 0.39956
 N174 N 0.47405 -0.05251 0.43024
 C175 C 0.43117 -0.06699 0.39950
 C176 C 0.54864 -0.06287 0.41850
 C177 C 0.57703 -0.03268 0.46559
 C178 C 0.61770 -0.03375 0.49117
 C179 C 0.63614 0.00312 0.53323
 C180 C 0.60618 0.02555 0.53213
 N181 N 0.57074 0.00392 0.49043
 C182 C 0.61342 0.06660 0.56693
 C183 C 0.57742 0.08277 0.57231
 C184 C 0.58600 0.12622 0.60125
 C185 C 0.54095 0.12607 0.60129
 C186 C 0.50609 0.08254 0.57237
 N187 N 0.52845 0.05603 0.55491
 C188 C 0.45379 0.06609 0.56708
 C189 C 0.41993 0.02503 0.53227
 C190 C 0.36744 0.00246 0.53344
 C191 C 0.34898 -0.03430 0.49127
 C192 C 0.39080 -0.03301 0.46557
 N193 N 0.43378 0.00361 0.49044
 C194 C 0.38900 -0.06306 0.41838
 H195 H 0.40351 -0.10735 0.31621
 H196 H 0.48988 -0.10724 0.31627
 H197 H 0.47053 0.01686 0.47567
 H198 H 0.63274 -0.05825 0.48034
 H199 H 0.66810 0.01253 0.56116
 H200 H 0.62091 0.15477 0.62107
 H201 H 0.53449 0.15449 0.62115
 H202 H 0.30937 -0.05886 0.48045
 H203 H 0.54716 0.01701 0.47570
 H204 H 0.34484 0.01171 0.56148
 O205 O 0.14530 0.37897 0.19371
 O206 O 0.23142 0.37892 0.30664
 O207 O 0.14524 0.37993 0.30609
 O208 O 0.23212 0.37914 0.19429
 O209 O 0.27361 0.46305 0.19495
 O210 O 0.18857 0.46382 0.30484
 O211 O 0.27304 0.46282 0.30543
 O212 O 0.18851 0.46287 0.19435
 Cu213 Cu 0.18414 0.37060 0.25019
 Cu214 Cu 0.23513 0.47144 0.24986
 C215 C 0.15244 0.42136 0.17551
 C216 C 0.26712 0.42130 0.32457
 C217 C 0.15240 0.42252 0.32382
 C218 C 0.26791 0.42146 0.17631
 O219 O 0.61801 0.76394 0.19428
 O220 O 0.61794 0.85074 0.30633
 O221 O 0.61725 0.76367 0.30687
 O222 O 0.61797 0.85071 0.19481
 O223 O 0.53395 0.80806 0.19516
 O224 O 0.53326 0.72274 0.30554
 O225 O 0.53393 0.80815 0.30518
 O226 O 0.53402 0.72299 0.19478
 Cu227 Cu 0.62644 0.81138 0.25060
 Cu228 Cu 0.52547 0.76118 0.25012
 C229 C 0.57558 0.72851 0.17605
 C230 C 0.57552 0.84438 0.32364
 C231 C 0.57466 0.72823 0.32471
 C232 C 0.57566 0.84435 0.17711
 O233 O 0.14584 0.76337 0.30757
 O234 O 0.23167 0.85052 0.19507
 O235 O 0.14524 0.76319 0.19497
 O236 O 0.23272 0.85038 0.30662
 O237 O 0.27427 0.80808 0.30498
 O238 O 0.18855 0.72266 0.19503
 O239 O 0.27333 0.80831 0.19497
 O240 O 0.18908 0.72280 0.30578
 Cu241 Cu 0.18432 0.81095 0.25117
 Cu242 Cu 0.23534 0.76120 0.25011
 C243 C 0.15312 0.72807 0.32522
 C244 C 0.26767 0.84440 0.17703
 C245 C 0.15233 0.72792 0.17656
 C246 C 0.26895 0.84421 0.32362
 O247 O 0.76497 0.61656 0.80769
 O248 O 0.85240 0.61750 0.69576
 O249 O 0.76524 0.61711 0.69591
 O250 O 0.85203 0.61668 0.80754
 O251 O 0.80924 0.53278 0.80604
 O252 O 0.72416 0.53321 0.69585
 O253 O 0.80971 0.53359 0.69575
 O254 O 0.72381 0.53267 0.80614
 Cu255 Cu 0.81297 0.62558 0.75181
 Cu256 Cu 0.76258 0.52475 0.75088
 C257 C 0.72900 0.57405 0.82488
 C258 C 0.84602 0.57530 0.67775
 C259 C 0.72944 0.57481 0.67794
 C260 C 0.84549 0.57423 0.82470
 O261 O 0.37898 0.22969 0.69495
 O262 O 0.38019 0.14334 0.80666
 O263 O 0.37931 0.22959 0.80648
 O264 O 0.37971 0.14330 0.69404
 O265 O 0.46369 0.18680 0.69453
 O266 O 0.46333 0.27144 0.80530
 O267 O 0.46416 0.18683 0.80531
 O268 O 0.46301 0.27154 0.69529
 Cu269 Cu 0.37090 0.18190 0.75055
 Cu270 Cu 0.47187 0.23321 0.75005
 C271 C 0.42121 0.26589 0.67730
 C272 C 0.42285 0.15072 0.82446
 C273 C 0.42166 0.26575 0.82387
 C274 C 0.42223 0.15065 0.67573
 O275 O 0.85254 0.23241 0.80514
 O276 O 0.76544 0.14518 0.69327
 O277 O 0.85251 0.23189 0.69359
 O278 O 0.76558 0.14559 0.80586
 O279 O 0.72460 0.18845 0.80467
 O280 O 0.80986 0.27311 0.69407
 O281 O 0.72448 0.18805 0.69392
 O282 O 0.80988 0.27360 0.80410
 Cu283 Cu 0.81315 0.18426 0.74949
 Cu284 Cu 0.76290 0.23480 0.74916
 C285 C 0.84617 0.26840 0.82250
 C286 C 0.72997 0.15206 0.67513
 C287 C 0.84612 0.26775 0.67589
 C288 C 0.73013 0.15262 0.82378
 C289 C 0.09367 0.43347 0.10216
 C290 C 0.11889 0.42412 0.13438
 C291 C 0.56351 0.65732 0.10305
 C292 C 0.57285 0.69204 0.13510
 C293 C 0.34163 0.90823 0.10973
 C294 C 0.30536 0.88007 0.13848
 C295 C 0.90984 0.56522 0.61025
 C296 C 0.88166 0.57319 0.63914
 C297 C 0.43138 0.34009 0.61060
 C298 C 0.42328 0.30376 0.63910
 C299 C 0.65875 0.09295 0.60198
 C300 C 0.69345 0.11831 0.63414
 C301 C 0.43606 0.09258 0.89766
 C302 C 0.42616 0.11744 0.86550
 C303 C 0.65425 0.56260 0.89186
 C304 C 0.69082 0.57123 0.86332
 C305 C 0.90958 0.34307 0.88947
 C306 C 0.88168 0.30653 0.86086
 C307 C 0.56446 0.90794 0.39030
 C308 C 0.57300 0.87992 0.36190
 C309 C 0.33796 0.43337 0.39802
 C310 C 0.30338 0.42402 0.36576
 C311 C 0.09479 0.65656 0.39830
 C312 C 0.11978 0.69145 0.36629
 C313 C 0.90887 0.56289 0.89127
 C314 C 0.88092 0.57153 0.86295
 C315 C 0.43239 0.33988 0.89110
 C316 C 0.42403 0.30356 0.86240
 C317 C 0.65893 0.09403 0.89702
 C318 C 0.69365 0.11917 0.86487
 C319 C 0.09399 0.43584 0.39667
 C320 C 0.11890 0.42581 0.36466
 C321 C 0.56200 0.65711 0.39795
 C322 C 0.57156 0.69176 0.36578
 C323 C 0.34393 0.90778 0.39011
 C324 C 0.30724 0.87980 0.36176
 C325 C 0.56518 0.90804 0.11020
 C326 C 0.57337 0.87995 0.13881
 C327 C 0.33938 0.43347 0.10373
 C328 C 0.30453 0.42409 0.13563
 C329 C 0.09331 0.65672 0.10339
 C330 C 0.11859 0.69140 0.13559
 C331 C 0.43468 0.09214 0.60227
 C332 C 0.42518 0.11723 0.63456
 C333 C 0.65517 0.56410 0.61087
 C334 C 0.69153 0.57241 0.63953
 C335 C 0.90974 0.34190 0.60880
 C336 C 0.88167 0.30559 0.63745
   
