data_POSCAR
  _audit_creation_date              2014-09-24
  _audit_creation_method            'ToBaCCo'
  _symmetry_space_group_name_H-M    'P1'
  _symmetry_Int_Tables_number       1
  _symmetry_cell_setting            triclinic
  loop_
  _symmetry_equiv_pos_as_xyz
 x,y,z
_cell_length_a 37.3021
_cell_length_b 39.2349
_cell_length_c 29.9097
_cell_angle_alpha 91.163500
_cell_angle_beta 88.937300
_cell_angle_gamma 91.053300
loop_
  _atom_site_label
  _atom_site_type_symbol
  _atom_site_fract_x
  _atom_site_fract_y
  _atom_site_fract_z
C1 C 1.28929 0.21218 0.27001
 C2 C 1.26120 0.23084 0.25294
 C3 C 1.23635 0.21491 0.22463
 C4 C 1.23973 0.18045 0.21232
 C5 C 1.26845 0.16201 0.22889
 C6 C 1.29329 0.17737 0.25859
 C7 C 1.25940 0.26779 0.26148
 C8 C 1.28399 0.28938 0.23953
 C9 C 1.28008 0.32499 0.24162
 C10 C 1.25232 0.33838 0.26886
 C11 C 1.22793 0.31704 0.29193
 C12 C 1.23144 0.28157 0.28764
 H13 H 1.30875 0.22547 0.29076
 H14 H 1.21445 0.22953 0.21207
 H15 H 1.30421 0.27797 0.21780
 H16 H 1.21210 0.26466 0.30370
 H17 H 1.27031 0.13523 0.21992
 H18 H 1.25026 0.36572 0.27339
 C19 C 0.77312 -0.28616 0.28342
 C20 C 0.74635 -0.27229 0.25733
 C21 C 0.71965 -0.29343 0.23932
 C22 C 0.71917 -0.32837 0.24699
 C23 C 0.74546 -0.34225 0.27370
 C24 C 0.77321 -0.32153 0.29213
 C25 C 0.74532 -0.23554 0.24863
 C26 C 0.77266 -0.21947 0.22371
 C27 C 0.76972 -0.18509 0.21207
 C28 C 0.73933 -0.16687 0.22661
 C29 C 0.71211 -0.18268 0.25228
 C30 C 0.71518 -0.21718 0.26252
 H31 H 0.79417 -0.26923 0.29555
 H32 H 0.69915 -0.28258 0.21895
 H33 H 0.79588 -0.23388 0.21294
 H34 H 0.69392 -0.23000 0.28123
 H35 H 0.74354 -0.36923 0.28035
 H36 H 0.73700 -0.14028 0.21825
 C37 C 0.77373 0.21075 -0.21342
 C38 C 0.74690 0.22477 -0.23928
 C39 C 0.72016 0.20361 -0.25739
 C40 C 0.71969 0.16856 -0.24997
 C41 C 0.74588 0.15467 -0.22306
 C42 C 0.77336 0.17555 -0.20489
 C43 C 0.74572 0.26160 -0.24748
 C44 C 0.77319 0.27806 -0.27177
 C45 C 0.77064 0.31283 -0.28268
 C46 C 0.73977 0.33053 -0.26771
 C47 C 0.71231 0.31417 -0.24310
 C48 C 0.71543 0.27963 -0.23354
 H49 H 0.79475 0.22723 -0.20013
 H50 H 0.69969 0.21452 -0.27774
 H51 H 0.79658 0.26352 -0.28135
 H52 H 0.69405 0.26651 -0.21541
 H53 H 0.74516 0.12753 -0.21703
 H54 H 0.73627 0.35695 -0.27594
 C55 C 1.28638 -0.29154 -0.22156
 C56 C 1.26240 -0.26970 -0.24148
 C57 C 1.23442 -0.28308 -0.26735
 C58 C 1.23006 -0.31843 -0.27332
 C59 C 1.25353 -0.34021 -0.25185
 C60 C 1.28172 -0.32718 -0.22532
 C61 C 1.26560 -0.23280 -0.23298
 C62 C 1.29395 -0.21416 -0.25230
 C63 C 1.29736 -0.17901 -0.24393
 C64 C 1.27253 -0.16269 -0.21533
 C65 C 1.24363 -0.18113 -0.19613
 C66 C 1.24041 -0.21631 -0.20524
 H67 H 1.30692 -0.28041 -0.20038
 H68 H 1.21582 -0.26591 -0.28226
 H69 H 1.31310 -0.22695 -0.27425
 H70 H 1.21808 -0.23090 -0.19131
 H71 H 1.25064 -0.36746 -0.25746
 H72 H 1.27525 -0.13549 -0.20901
 C73 C 0.21004 0.28152 0.72612
 C74 C 0.22736 0.25491 0.74675
 C75 C 0.20710 0.22995 0.76941
 C76 C 0.16941 0.23238 0.77395
 C77 C 0.15262 0.26006 0.75354
 C78 C 0.17272 0.28390 0.72869
 C79 C 0.26682 0.25328 0.74400
 C80 C 0.28792 0.27900 0.76419
 C81 C 0.32575 0.27907 0.76001
 C82 C 0.34157 0.25270 0.73388
 C83 C 0.32059 0.22677 0.71351
 C84 C 0.28319 0.22712 0.71924
 H85 H 0.22561 0.30002 0.70712
 H86 H 0.22122 0.20984 0.78554
 H87 H 0.27429 0.29956 0.78168
 H88 H 0.26665 0.20726 0.70398
 H89 H 0.12369 0.26192 0.75404
 H90 H 0.37039 0.25149 0.73006
 C91 C 0.69902 0.78157 0.72899
 C92 C 0.71865 0.75542 0.74737
 C93 C 0.70059 0.72724 0.76583
 C94 C 0.66275 0.72494 0.76641
 C95 C 0.64363 0.75189 0.74808
 C96 C 0.66129 0.78018 0.72875
 C97 C 0.75829 0.75738 0.74565
 C98 C 0.77646 0.78632 0.76296
 C99 C 0.81398 0.78926 0.75931
 C100 C 0.83302 0.76342 0.73662
 C101 C 0.81517 0.73455 0.71883
 C102 C 0.77786 0.73129 0.72431
 H103 H 0.71357 0.80335 0.71563
 H104 H 0.71643 0.70675 0.77829
 H105 H 0.76138 0.80617 0.78010
 H106 H 0.76387 0.70936 0.70989
 H107 H 0.61469 0.75072 0.74846
 H108 H 0.86188 0.76584 0.73247
 C109 C 0.70634 0.27862 0.22451
 C110 C 0.72641 0.25196 0.24118
 C111 C 0.70855 0.22296 0.25795
 C112 C 0.67086 0.22075 0.25852
 C113 C 0.65125 0.24769 0.24173
 C114 C 0.66876 0.27653 0.22440
 C115 C 0.76603 0.25452 0.24033
 C116 C 0.78339 0.28381 0.25786
 C117 C 0.82091 0.28713 0.25584
 C118 C 0.84092 0.26126 0.23460
 C119 C 0.82389 0.23203 0.21647
 C120 C 0.78648 0.22845 0.22031
 H121 H 0.72004 0.30092 0.21121
 H122 H 0.72398 0.20224 0.27067
 H123 H 0.76768 0.30362 0.27411
 H124 H 0.77316 0.20622 0.20571
 H125 H 0.62222 0.24616 0.24196
 H126 H 0.86984 0.26396 0.23186
 C127 C 0.21103 0.78231 0.23895
 C128 C 0.22804 0.75300 0.25306
 C129 C 0.20746 0.72555 0.26923
 C130 C 0.16966 0.72667 0.27124
 C131 C 0.15306 0.75615 0.25516
 C132 C 0.17334 0.78440 0.23908
 C133 C 0.26760 0.75088 0.24944
 C134 C 0.28929 0.77664 0.26848
 C135 C 0.32684 0.77559 0.26427
 C136 C 0.34251 0.74863 0.23963
 C137 C 0.32114 0.72272 0.21984
 C138 C 0.28364 0.72387 0.22553
 H139 H 0.22765 0.80247 0.22495
 H140 H 0.22132 0.70295 0.27897
 H141 H 0.27676 0.79768 0.28639
 H142 H 0.26679 0.70402 0.21082
 H143 H 0.12431 0.75833 0.25866
 H144 H 0.37140 0.74794 0.23563
 N145 N 0.96854 0.03543 -0.07726
 N146 N 0.94365 0.03999 -0.10709
 N147 N 1.04326 0.06078 -0.04516
 N148 N 1.06363 0.08714 -0.05648
 N149 N 1.04394 0.03704 -0.07681
 N150 N 1.06533 0.04678 -0.11025
 N151 N 0.96803 0.05987 -0.04658
 N152 N 0.94261 0.08182 -0.05494
 C153 C 0.92750 0.06890 -0.09278
 C154 C 1.07790 0.07787 -0.09658
 N155 N 1.04030 0.03755 0.08221
 N156 N 1.06620 0.04217 0.11111
 N157 N 0.96634 0.06140 0.04993
 N158 N 0.94490 0.08685 0.05980
 N159 N 0.96499 0.03866 0.08156
 N160 N 0.94228 0.04826 0.11381
 N161 N 1.04167 0.06119 0.05168
 N162 N 1.06873 0.08269 0.05929
 Mn163 Mn 1.00485 0.06106 0.00253
 C164 C 1.08383 0.07033 0.09650
 C165 C 0.92958 0.07823 0.09932
 N166 N 1.04315 -0.03666 -0.07626
 N167 N 1.07016 -0.04144 -0.10451
 N168 N 0.96685 -0.06089 -0.04605
 N169 N 0.94710 -0.08767 -0.05742
 N170 N 0.96785 -0.03853 -0.07820
 N171 N 0.94853 -0.04996 -0.11238
 N172 N 1.04224 -0.06011 -0.04552
 N173 N 1.06878 -0.08162 -0.05222
 Mn174 Mn 1.00586 -0.00068 -0.07750
 C175 C 1.08603 -0.06950 -0.08915
 C176 C 0.93515 -0.08041 -0.09830
 N177 N 0.96348 -0.03495 0.08085
 N178 N 0.93744 -0.04015 0.11035
 N179 N 1.03924 -0.05959 0.05090
 N180 N 1.05625 -0.08680 0.06345
 N181 N 1.03857 -0.03642 0.08331
 N182 N 1.05528 -0.04780 0.11870
 N183 N 0.96396 -0.05940 0.05022
 N184 N 0.93811 -0.08209 0.05832
 Mn185 Mn 1.00183 0.00129 0.08232
 Mn186 Mn 1.00309 -0.06012 0.00232
 Cl187 Cl 1.00396 0.00039 0.00241
 C188 C 0.92162 -0.06950 0.09582
 C189 C 1.06697 -0.07897 0.10521
 N190 N 0.96272 0.53784 0.42650
 N191 N 0.93761 0.54184 0.39677
 N192 N 1.03788 0.56375 0.45989
 N193 N 1.06059 0.58888 0.45045
 N194 N 1.03787 0.54052 0.42760
 N195 N 1.06039 0.54965 0.39505
 N196 N 0.96246 0.56284 0.45640
 N197 N 0.93699 0.58461 0.44765
 C198 C 0.92162 0.57102 0.41041
 C199 C 1.07492 0.57947 0.41041
 N200 N 1.03166 0.54195 0.58774
 N201 N 1.05527 0.54784 0.61916
 N202 N 0.95884 0.56489 0.55259
 N203 N 0.93706 0.59023 0.56169
 N204 N 0.95659 0.54196 0.58395
 N205 N 0.93305 0.55137 0.61532
 N206 N 1.03409 0.56528 0.55691
 N207 N 1.05963 0.58792 0.56691
 Mn208 Mn 0.99846 0.56449 0.50643
 C209 C 1.07271 0.57643 0.60586
 C210 C 0.92068 0.58135 0.60050
 N211 N 1.03841 0.46686 0.42886
 N212 N 1.06259 0.45992 0.39758
 N213 N 0.96292 0.44116 0.45828
 N214 N 0.94458 0.41361 0.44643
 N215 N 0.96331 0.46359 0.42617
 N216 N 0.94510 0.45132 0.39150
 N217 N 1.03808 0.44363 0.45992
 N218 N 1.06215 0.42010 0.45021
 Mn219 Mn 1.00047 0.50223 0.42695
 C220 C 1.07752 0.43094 0.41141
 C221 C 0.93295 0.42034 0.40523
 N222 N 0.95643 0.46824 0.58402
 N223 N 0.92980 0.46262 0.61259
 N224 N 1.03409 0.44542 0.55691
 N225 N 1.05520 0.42071 0.56881
 N226 N 1.03142 0.46864 0.58899
 N227 N 1.05059 0.46002 0.62368
 N228 N 0.95874 0.44326 0.55429
 N229 N 0.93361 0.41981 0.56203
 Mn230 Mn 0.99389 0.50523 0.58648
 Mn231 Mn 0.99860 0.44320 0.50738
 Cl232 Cl 0.99788 0.50378 0.50675
 C233 C 0.91559 0.43246 0.59834
 C234 C 1.06584 0.43034 0.61020
 N235 N 0.56705 0.03286 0.54086
 N236 N 0.59395 0.05416 0.54896
 N237 N 0.53864 -0.03830 0.57141
 N238 N 0.54562 -0.06172 0.60099
 N239 N 0.56278 -0.03857 0.53895
 N240 N 0.58675 -0.06210 0.54542
 N241 N 0.54380 0.03302 0.57434
 N242 N 0.55462 0.05413 0.60653
 C243 C 0.58565 0.06753 0.58973
 C244 C 0.57556 -0.07660 0.58395
 N245 N 0.43645 -0.03350 0.54530
 N246 N 0.41063 -0.05601 0.55360
 N247 N 0.46670 0.03667 0.57804
 N248 N 0.46271 0.06069 0.60912
 N249 N 0.44138 0.03820 0.54826
 N250 N 0.41943 0.06336 0.55839
 N251 N 0.46134 -0.03463 0.57566
 N252 N 0.45281 -0.05759 0.60592
 Mn253 Mn 0.50257 -0.00086 0.57532
 C254 C 0.42134 -0.07102 0.59128
 C255 C 0.43325 0.07732 0.59633
 N256 N 0.56075 -0.03846 0.44368
 N257 N 0.58331 -0.06322 0.43532
 N258 N 0.54060 0.03416 0.41464
 N259 N 0.54855 0.05822 0.38559
 N260 N 0.56535 0.03302 0.44517
 N261 N 0.59063 0.05622 0.43797
 N262 N 0.53650 -0.03736 0.41253
 N263 N 0.54253 -0.06109 0.38133
 Mn264 Mn 0.56420 -0.00274 0.49209
 C265 C 0.57155 -0.07730 0.39666
 C266 C 0.57981 0.07188 0.40087
 N267 N 0.43978 0.03868 0.45181
 N268 N 0.41633 0.06276 0.44541
 N269 N 0.45881 -0.03445 0.41683
 N270 N 0.45118 -0.05970 0.38845
 N271 N 0.43471 -0.03306 0.44937
 N272 N 0.41021 -0.05740 0.44416
 N273 N 0.46300 0.03702 0.41829
 N274 N 0.45549 0.05958 0.38777
 Mn275 Mn 0.43771 0.00266 0.49867
 Mn276 Mn 0.49969 -0.00018 0.41496
 Cl277 Cl 0.50100 -0.00025 0.49525
 C278 C 0.42671 0.07583 0.40566
 C279 C 0.42076 -0.07386 0.40607
 N280 N 0.56809 0.53071 0.04255
 N281 N 0.59436 0.55287 0.04990
 N282 N 0.54085 0.45928 0.07296
 N283 N 0.54777 0.43508 0.10149
 N284 N 0.56449 0.45922 0.03998
 N285 N 0.58796 0.43501 0.04487
 N286 N 0.54500 0.53069 0.07619
 N287 N 0.55530 0.55255 0.10780
 C288 C 0.58585 0.56653 0.09044
 C289 C 0.57712 0.41995 0.08315
 N290 N 0.43770 0.46366 0.04918
 N291 N 0.41131 0.44231 0.05976
 N292 N 0.46775 0.53353 0.08115
 N293 N 0.46365 0.55724 0.11265
 N294 N 0.44217 0.53510 0.05168
 N295 N 0.41992 0.55989 0.06254
 N296 N 0.46378 0.46183 0.07790
 N297 N 0.45609 0.43879 0.10833
 Mn298 Mn 0.50429 0.49630 0.07753
 C299 C 0.42347 0.42659 0.09620
 C300 C 0.43384 0.57367 0.10053
 N301 N 0.56159 0.45975 -0.05494
 N302 N 0.58377 0.43466 -0.06323
 N303 N 0.54063 0.53238 -0.08289
 N304 N 0.54796 0.55673 -0.11174
 N305 N 0.56581 0.53119 -0.05296
 N306 N 0.59093 0.55448 -0.06053
 N307 N 0.53691 0.46071 -0.08555
 N308 N 0.54222 0.43653 -0.11637
 Mn309 Mn 0.56521 0.49527 -0.00639
 C310 C 0.57132 0.42025 -0.10134
 C311 C 0.57944 0.57039 -0.09713
 N312 N 0.43922 0.53535 -0.04524
 N313 N 0.41414 0.55754 -0.05339
 N314 N 0.45915 0.46316 -0.08015
 N315 N 0.45049 0.43923 -0.10997
 N316 N 0.43526 0.46403 -0.04730
 N317 N 0.40977 0.44084 -0.05396
 N318 N 0.46346 0.53495 -0.07772
 N319 N 0.45582 0.55738 -0.10831
 Mn320 Mn 0.43825 0.49960 0.00210
 Mn321 Mn 0.49998 0.49777 -0.08217
 Cl322 Cl 0.50186 0.49727 -0.00226
 C323 C 0.42529 0.57158 -0.09226
 C324 C 0.41967 0.42537 -0.09303
 C325 C 1.19907 0.17998 0.14616
 C326 C 1.21243 0.16348 0.18355
 C327 C 1.19859 0.13112 0.19447
 C328 C 1.17134 0.11570 0.16906
 C329 C 1.15771 0.13263 0.13187
 C330 C 1.17203 0.16466 0.12048
 C331 C 1.12960 0.11750 0.10732
 C332 C 1.11480 0.08584 0.11995
 C333 C 1.12902 0.06912 0.15659
 C334 C 1.15704 0.08384 0.18085
 H335 H 1.20823 0.11837 0.22361
 H336 H 1.16205 0.17802 0.09204
 H337 H 1.11881 0.13062 0.07915
 H338 H 1.16722 0.07049 0.20919
 H339 H 1.20959 0.20479 0.13680
 H340 H 1.11823 0.04463 0.16690
 C341 C 1.19195 0.68186 0.65802
 C342 C 1.20069 0.66713 0.69883
 C343 C 1.18162 0.63797 0.71282
 C344 C 1.15481 0.62322 0.68622
 C345 C 1.14629 0.63792 0.64504
 C346 C 1.16495 0.66740 0.63137
 C347 C 1.11940 0.62277 0.61839
 C348 C 1.10122 0.59309 0.63261
 C349 C 1.11013 0.57886 0.67365
 C350 C 1.13655 0.59379 0.70021
 H351 H 1.18755 0.62674 0.74461
 H352 H 1.15890 0.67908 0.59994
 H353 H 1.11273 0.63394 0.58683
 H354 H 1.14278 0.58221 0.73166
 H355 H 1.20646 0.70420 0.64629
 H356 H 1.09656 0.55604 0.68549
 C357 C 0.67088 0.12372 0.75137
 C358 C 0.69268 0.14674 0.72738
 C359 C 0.68805 0.14991 0.68122
 C360 C 0.66181 0.13051 0.65906
 C361 C 0.63935 0.10784 0.68342
 C362 C 0.64416 0.10457 0.72958
 C363 C 0.61305 0.08841 0.66095
 C364 C 0.61001 0.09059 0.61436
 C365 C 0.63257 0.11303 0.59055
 C366 C 0.65799 0.13317 0.61278
 H367 H 0.70519 0.16735 0.66250
 H368 H 0.62736 0.08717 0.74875
 H369 H 0.59605 0.07064 0.67929
 H370 H 0.67509 0.15036 0.59368
 H371 H 0.67406 0.12113 0.78705
 H372 H 0.63061 0.11485 0.55458
 C373 C 0.67030 0.62696 0.24997
 C374 C 0.69178 0.64976 0.22520
 C375 C 0.68674 0.65233 0.17905
 C376 C 0.66062 0.63231 0.15760
 C377 C 0.63864 0.60971 0.18271
 C378 C 0.64367 0.60724 0.22892
 C379 C 0.61269 0.58942 0.16092
 C380 C 0.60956 0.59066 0.11428
 C381 C 0.63153 0.61316 0.08972
 C382 C 0.65658 0.63416 0.11127
 H383 H 0.70362 0.66963 0.15975
 H384 H 0.62722 0.58993 0.24866
 H385 H 0.59613 0.57165 0.17984
 H386 H 0.67329 0.65130 0.09160
 H387 H 0.67378 0.62486 0.28568
 H388 H 0.62946 0.61429 0.05370
 C389 C 0.81426 -0.18514 0.14800
 C390 C 0.79832 -0.16815 0.18494
 C391 C 0.80972 -0.13474 0.19585
 C392 C 0.83663 -0.11849 0.17038
 C393 C 0.85256 -0.13575 0.13331
 C394 C 0.84111 -0.16907 0.12237
 C395 C 0.87987 -0.11949 0.10821
 C396 C 0.89161 -0.08635 0.12012
 C397 C 0.87532 -0.06942 0.15681
 C398 C 0.84805 -0.08530 0.18166
 H399 H 0.79804 -0.12156 0.22464
 H400 H 0.85293 -0.18271 0.09407
 H401 H 0.89235 -0.13279 0.08005
 H402 H 0.83609 -0.07170 0.20991
 H403 H 0.80563 -0.21075 0.13859
 H404 H 0.88382 -0.04385 0.16660
 C405 C 0.81968 0.31129 0.66063
 C406 C 0.79805 0.32952 0.69185
 C407 C 0.80436 0.36502 0.69676
 C408 C 0.83109 0.38169 0.67146
 C409 C 0.85210 0.36305 0.64013
 C410 C 0.84615 0.32788 0.63499
 C411 C 0.87906 0.37984 0.61507
 C412 C 0.88571 0.41491 0.62187
 C413 C 0.86462 0.43316 0.65313
 C414 C 0.83743 0.41676 0.67753
 H415 H 0.78975 0.37983 0.72175
 H416 H 0.86193 0.31314 0.61103
 H417 H 0.89544 0.36551 0.59130
 H418 H 0.82160 0.43146 0.70148
 H419 H 0.81539 0.28431 0.65424
 H420 H 0.86924 0.46022 0.65888
 C421 C 0.34907 -0.13749 0.75590
 C422 C 0.32528 -0.15898 0.73230
 C423 C 0.32712 -0.16044 0.68541
 C424 C 0.35184 -0.13987 0.66208
 C425 C 0.37591 -0.11836 0.68599
 C426 C 0.37455 -0.11761 0.73292
 C427 C 0.40003 -0.09713 0.66251
 C428 C 0.39924 -0.09615 0.61564
 C429 C 0.37530 -0.11761 0.59223
 C430 C 0.35211 -0.13968 0.61523
 H431 H 0.30839 -0.17669 0.66715
 H432 H 0.39264 -0.10115 0.75177
 H433 H 0.41815 -0.08022 0.68072
 H434 H 0.33375 -0.15592 0.59645
 H435 H 0.34789 -0.13616 0.79210
 H436 H 0.37439 -0.11712 0.55607
 C437 C 0.28799 0.37653 0.19720
 C438 C 0.30209 0.34668 0.21514
 C439 C 0.33812 0.33865 0.20485
 C440 C 0.35944 0.36002 0.17777
 C441 C 0.34431 0.38908 0.15899
 C442 C 0.30867 0.39713 0.16898
 C443 C 0.36521 0.40996 0.13103
 C444 C 0.40155 0.40314 0.12331
 C445 C 0.41688 0.37493 0.14312
 C446 C 0.39581 0.35312 0.16958
 H447 H 0.35017 0.31661 0.21933
 H448 H 0.29674 0.41941 0.15496
 H449 H 0.35354 0.43220 0.11646
 H450 H 0.40802 0.33117 0.18406
 H451 H 0.26024 0.38327 0.20289
 H452 H 0.44503 0.36958 0.13762
 C453 C 0.81513 0.17700 -0.13960
 C454 C 0.80205 0.16032 -0.17823
 C455 C 0.81656 0.12882 -0.19152
 C456 C 0.84348 0.11406 -0.16666
 C457 C 0.85647 0.13094 -0.12784
 C458 C 0.84207 0.16244 -0.11461
 C459 C 0.88372 0.11608 -0.10321
 C460 C 0.89811 0.08464 -0.11718
 C461 C 0.88472 0.06814 -0.15572
 C462 C 0.85771 0.08268 -0.18020
 H463 H 0.80725 0.11595 -0.22167
 H464 H 0.85160 0.17579 -0.08494
 H465 H 0.89386 0.12906 -0.07358
 H466 H 0.84803 0.06939 -0.20984
 H467 H 0.80418 0.20113 -0.12836
 H468 H 0.89526 0.04390 -0.16721
 C469 C 0.81866 0.68337 0.35129
 C470 C 0.80048 0.66401 0.31805
 C471 C 0.81037 0.62966 0.31116
 C472 C 0.83722 0.61518 0.33643
 C473 C 0.85478 0.63486 0.36973
 C474 C 0.84525 0.66892 0.37690
 C475 C 0.88187 0.62023 0.39480
 C476 C 0.89198 0.58635 0.38617
 C477 C 0.87430 0.56710 0.35286
 C478 C 0.84709 0.58130 0.32837
 H479 H 0.79858 0.61424 0.28465
 H480 H 0.85833 0.68442 0.40241
 H481 H 0.89553 0.63537 0.42021
 H482 H 0.83394 0.56584 0.30287
 H483 H 0.81157 0.70945 0.35914
 H484 H 0.88155 0.54093 0.34564
 C485 C 0.33649 0.13058 0.25332
 C486 C 0.32097 0.15818 0.27724
 C487 C 0.33291 0.16549 0.32102
 C488 C 0.35820 0.14492 0.34101
 C489 C 0.37344 0.11749 0.31644
 C490 C 0.36277 0.11087 0.27245
 C491 C 0.39793 0.09629 0.33694
 C492 C 0.40576 0.10113 0.38236
 C493 C 0.39043 0.12831 0.40661
 C494 C 0.36735 0.15046 0.38588
 H495 H 0.32076 0.18565 0.34104
 H496 H 0.37420 0.08997 0.25308
 H497 H 0.40918 0.07485 0.31843
 H498 H 0.35573 0.17121 0.40536
 H499 H 0.32921 0.12463 0.21915
 H500 H 0.39608 0.13217 0.44177
 C501 C 0.28958 0.61997 -0.18434
 C502 C 0.30375 0.65076 -0.20151
 C503 C 0.34001 0.65935 -0.19315
 C504 C 0.36139 0.63783 -0.16838
 C505 C 0.34614 0.60791 -0.14998
 C506 C 0.31035 0.59914 -0.15833
 C507 C 0.36707 0.58699 -0.12394
 C508 C 0.40350 0.59472 -0.11785
 C509 C 0.41896 0.62371 -0.13753
 C510 C 0.39789 0.64550 -0.16202
 H511 H 0.35217 0.68209 -0.20732
 H512 H 0.29833 0.57616 -0.14465
 H513 H 0.35534 0.56414 -0.10947
 H514 H 0.41018 0.66812 -0.17632
 H515 H 0.26172 0.61267 -0.18876
 H516 H 0.44717 0.62973 -0.13332
 C517 C 1.20096 -0.17854 -0.13012
 C518 C 1.21577 -0.16348 -0.16872
 C519 C 1.20277 -0.13200 -0.18223
 C520 C 1.17496 -0.11607 -0.15816
 C521 C 1.15985 -0.13162 -0.11976
 C522 C 1.17330 -0.16272 -0.10580
 C523 C 1.13119 -0.11607 -0.09655
 C524 C 1.11736 -0.08533 -0.11157
 C525 C 1.13303 -0.06992 -0.14937
 C526 C 1.16156 -0.08511 -0.17242
 H527 H 1.21351 -0.12038 -0.21232
 H528 H 1.16219 -0.17498 -0.07637
 H529 H 1.11931 -0.12815 -0.06741
 H530 H 1.17288 -0.07283 -0.20172
 H531 H 1.21079 -0.20261 -0.11875
 H532 H 1.12297 -0.04617 -0.16153
 C533 C 1.18829 0.31935 0.36115
 C534 C 1.19843 0.33236 0.31920
 C535 C 1.18121 0.36130 0.30382
 C536 C 1.15550 0.37795 0.33045
 C537 C 1.14580 0.36515 0.37292
 C538 C 1.16210 0.33556 0.38774
 C539 C 1.12022 0.38238 0.39972
 C540 C 1.10469 0.41232 0.38447
 C541 C 1.11476 0.42463 0.34217
 C542 C 1.13976 0.40756 0.31536
 H543 H 1.18808 0.37116 0.27109
 H544 H 1.15506 0.32529 0.42016
 H545 H 1.11261 0.37266 0.43228
 H546 H 1.14698 0.41768 0.28290
 H547 H 1.20127 0.29718 0.37389
 H548 H 1.10316 0.44754 0.32951
 C549 C 0.66401 -0.13911 0.24410
 C550 C 0.68123 -0.16306 0.27024
 C551 C 0.66955 -0.16771 0.31464
 C552 C 0.64197 -0.14804 0.33328
 C553 C 0.62519 -0.12350 0.30713
 C554 C 0.63606 -0.11962 0.26232
 C555 C 0.59926 -0.10216 0.32699
 C556 C 0.59128 -0.10436 0.37291
 C557 C 0.60729 -0.12952 0.39810
 C558 C 0.63208 -0.15151 0.37834
 H559 H 0.68300 -0.18567 0.33538
 H560 H 0.62355 -0.10098 0.24172
 H561 H 0.58741 -0.08230 0.30771
 H562 H 0.64466 -0.17022 0.39878
 H563 H 0.67225 -0.13540 0.20961
 H564 H 0.60148 -0.13134 0.43361
 C565 C 0.66375 0.35707 -0.25247
 C566 C 0.68086 0.33333 -0.22588
 C567 C 0.66866 0.32865 -0.18170
 C568 C 0.64089 0.34836 -0.16358
 C569 C 0.62439 0.37286 -0.19010
 C570 C 0.63560 0.37654 -0.23480
 C571 C 0.59854 0.39447 -0.17066
 C572 C 0.59038 0.39262 -0.12477
 C573 C 0.60595 0.36741 -0.09923
 C574 C 0.63064 0.34511 -0.11860
 H575 H 0.68196 0.31077 -0.16068
 H576 H 0.62328 0.39510 -0.25570
 H577 H 0.58702 0.41438 -0.19019
 H578 H 0.64298 0.32644 -0.09787
 H579 H 0.67232 0.36071 -0.28686
 H580 H 0.60001 0.36586 -0.06372
 C581 C 1.11763 0.21740 -0.17773
 C582 C 1.14900 0.20785 -0.20160
 C583 C 1.15948 0.17335 -0.20007
 C584 C 1.13910 0.14927 -0.17567
 C585 C 1.10867 0.15989 -0.15074
 C586 C 1.09813 0.19389 -0.15214
 C587 C 1.08914 0.13631 -0.12487
 C588 C 1.09866 0.10182 -0.12489
 C589 C 1.12797 0.09103 -0.15121
 C590 C 1.14839 0.11467 -0.17593
 H591 H 1.18258 0.16472 -0.21933
 H592 H 1.07473 0.20239 -0.13332
 H593 H 1.06613 0.14469 -0.10516
 H594 H 1.17141 0.10591 -0.19526
 H595 H 1.10890 0.24357 -0.17679
 H596 H 1.13560 0.06452 -0.15169
 C597 C 1.11366 0.69193 0.27536
 C598 C 1.14900 0.69915 0.28953
 C599 C 1.16298 0.67848 0.32314
 C600 C 1.14212 0.65233 0.34268
 C601 C 1.10693 0.64560 0.32783
 C602 C 1.09314 0.66536 0.29391
 C603 C 1.08575 0.62003 0.34826
 C604 C 1.09897 0.60201 0.38437
 C605 C 1.13385 0.60894 0.39908
 C606 C 1.15549 0.63351 0.37798
 H607 H 1.18935 0.68384 0.33638
 H608 H 1.06622 0.66052 0.28199
 H609 H 1.05844 0.61527 0.33763
 H610 H 1.18231 0.63848 0.39010
 H611 H 1.10194 0.70599 0.24870
 H612 H 1.14413 0.59564 0.42739
 C613 C 0.62165 0.17645 0.25587
 C614 C 0.65159 0.19092 0.27756
 C615 C 0.66177 0.17803 0.31878
 C616 C 0.64177 0.15162 0.33871
 C617 C 0.61133 0.13763 0.31702
 C618 C 0.60172 0.15001 0.27539
 C619 C 0.59090 0.11168 0.33747
 C620 C 0.60066 0.09949 0.37926
 C621 C 0.63108 0.11347 0.40038
 C622 C 0.65142 0.13933 0.38033
 H623 H 0.68455 0.18928 0.33601
 H624 H 0.57862 0.13949 0.25813
 H625 H 0.56757 0.10096 0.32086
 H626 H 0.67464 0.14977 0.39744
 H627 H 0.61356 0.18576 0.22381
 H628 H 0.63914 0.10447 0.43261
 C629 C 0.61032 0.68568 -0.23131
 C630 C 0.64417 0.69645 -0.21510
 C631 C 0.65855 0.67849 -0.17933
 C632 C 0.63924 0.65156 -0.15949
 C633 C 0.60529 0.64157 -0.17592
 C634 C 0.59127 0.65860 -0.21207
 C635 C 0.58581 0.61489 -0.15571
 C636 C 0.59974 0.59831 -0.11888
 C637 C 0.63351 0.60850 -0.10270
 C638 C 0.65312 0.63481 -0.12288
 H639 H 0.68386 0.68646 -0.16498
 H640 H 0.56547 0.65103 -0.22549
 H641 H 0.55977 0.60727 -0.16838
 H642 H 0.67907 0.64215 -0.10969
 H643 H 0.59872 0.69727 -0.26005
 H644 H 0.64486 0.59608 -0.07436
 C645 C 0.82179 -0.14780 -0.22354
 C646 C 0.83357 -0.18145 -0.21960
 C647 C 0.86414 -0.18742 -0.19447
 C648 C 0.88244 -0.16044 -0.17298
 C649 C 0.87064 -0.12657 -0.17708
 C650 C 0.84033 -0.12056 -0.20275
 C651 C 0.88883 -0.09968 -0.15444
 C652 C 0.91771 -0.10678 -0.12676
 C653 C 0.92912 -0.14054 -0.12338
 C654 C 0.91195 -0.16703 -0.14658
 H655 H 0.87311 -0.21331 -0.19057
 H656 H 0.83071 -0.09488 -0.20629
 H657 H 0.87970 -0.07372 -0.15677
 H658 H 0.92131 -0.19282 -0.14308
 H659 H 0.79839 -0.14257 -0.24298
 H660 H 0.95142 -0.14651 -0.10238
 C661 C 0.82762 0.35028 0.27168
 C662 C 0.83938 0.31682 0.27746
 C663 C 0.86845 0.31142 0.30536
 C664 C 0.88516 0.33881 0.32799
 C665 C 0.87338 0.37249 0.32207
 C666 C 0.84468 0.37793 0.29347
 C667 C 0.88992 0.39981 0.34578
 C668 C 0.91705 0.39334 0.37632
 C669 C 0.92844 0.35973 0.38156
 C670 C 0.91296 0.33281 0.35734
 H671 H 0.87733 0.28566 0.31061
 H672 H 0.83510 0.40345 0.28850
 H673 H 0.88082 0.42565 0.34191
 H674 H 0.92228 0.30718 0.36228
 H675 H 0.80531 0.35502 0.25014
 H676 H 0.94948 0.35420 0.40468
 C677 C 0.37956 -0.18342 0.26260
 C678 C 0.34943 -0.19711 0.28535
 C679 C 0.34050 -0.18416 0.32824
 C680 C 0.36082 -0.15757 0.34778
 C681 C 0.39084 -0.14377 0.32446
 C682 C 0.40011 -0.15704 0.28199
 C683 C 0.41079 -0.11672 0.34382
 C684 C 0.40085 -0.10314 0.38604
 C685 C 0.37112 -0.11732 0.40900
 C686 C 0.35136 -0.14433 0.39013
 H687 H 0.31771 -0.19483 0.34651
 H688 H 0.42298 -0.14676 0.26354
 H689 H 0.43367 -0.10598 0.32581
 H690 H 0.32846 -0.15465 0.40850
 H691 H 0.38684 -0.19263 0.22935
 H692 H 0.36300 -0.10742 0.44163
 C693 C 0.38121 0.31461 -0.23623
 C694 C 0.34713 0.30490 -0.21868
 C695 C 0.33500 0.32159 -0.17898
 C696 C 0.35606 0.34688 -0.15767
 C697 C 0.38983 0.35632 -0.17606
 C698 C 0.40211 0.34000 -0.21532
 C699 C 0.41070 0.38191 -0.15488
 C700 C 0.39828 0.39797 -0.11523
 C701 C 0.36482 0.38801 -0.09695
 C702 C 0.34388 0.36278 -0.11798
 H703 H 0.30982 0.31410 -0.16315
 H704 H 0.42787 0.34703 -0.23011
 H705 H 0.43653 0.38927 -0.16922
 H706 H 0.31810 0.35578 -0.10323
 H707 H 0.39150 0.30378 -0.26731
 H708 H 0.35461 0.39994 -0.06645
 C709 C 1.17384 -0.15380 0.22339
 C710 C 1.15651 -0.18623 0.22227
 C711 C 1.12259 -0.18880 0.20207
 C712 C 1.10758 -0.16062 0.18154
 C713 C 1.12574 -0.12866 0.18220
 C714 C 1.15855 -0.12547 0.20398
 C715 C 1.11141 -0.10091 0.15960
 C716 C 1.07990 -0.10541 0.13503
 C717 C 1.06190 -0.13716 0.13519
 C718 C 1.07531 -0.16436 0.15863
 H719 H 1.10875 -0.21323 0.19916
 H720 H 1.17279 -0.10116 0.20529
 H721 H 1.12564 -0.07658 0.15906
 H722 H 1.06099 -0.18865 0.15764
 H723 H 1.19905 -0.14981 0.24018
 H724 H 1.03754 -0.14107 0.11641
 C725 C 1.15607 0.30534 0.65457
 C726 C 1.15478 0.30917 0.70129
 C727 C 1.13714 0.33719 0.72102
 C728 C 1.12091 0.36129 0.69400
 C729 C 1.12180 0.35675 0.64694
 C730 C 1.13952 0.32876 0.62760
 C731 C 1.10464 0.38002 0.61993
 C732 C 1.08670 0.40808 0.63904
 C733 C 1.08688 0.41309 0.68569
 C734 C 1.10370 0.38980 0.71298
 H735 H 1.13643 0.34031 0.75712
 H736 H 1.14057 0.32498 0.59161
 H737 H 1.10486 0.37600 0.58395
 H738 H 1.10290 0.39387 0.74892
 H739 H 1.16971 0.28391 0.63899
 H740 H 1.07313 0.43447 0.70118
 C741 C 0.60694 -0.18519 0.72443
 C742 C 0.64158 -0.19390 0.70853
 C743 C 0.65578 -0.17673 0.67098
 C744 C 0.63586 -0.15222 0.64949
 C745 C 0.60137 -0.14377 0.66602
 C746 C 0.58726 -0.16029 0.70362
 C747 C 0.58156 -0.11905 0.64453
 C748 C 0.59569 -0.10312 0.60630
 C749 C 0.62979 -0.11213 0.58974
 C750 C 0.64977 -0.13635 0.61126
 H751 H 0.68161 -0.18357 0.65665
 H752 H 0.56094 -0.15398 0.71695
 H753 H 0.55520 -0.11236 0.65739
 H754 H 0.67610 -0.14266 0.59797
 H755 H 0.59529 -0.19662 0.75407
 H756 H 0.64127 -0.10016 0.56034
 C757 C 0.61713 0.31655 0.22685
 C758 C 0.64777 0.30383 0.20465
 C759 C 0.65780 0.31651 0.16265
 C760 C 0.63746 0.34153 0.14284
 C761 C 0.60674 0.35437 0.16540
 C762 C 0.59683 0.34172 0.20745
 C763 C 0.58660 0.37968 0.14557
 C764 C 0.59691 0.39226 0.10354
 C765 C 0.62724 0.37897 0.08125
 C766 C 0.64735 0.35384 0.10072
 H767 H 0.68108 0.30641 0.14503
 H768 H 0.57339 0.35124 0.22526
 H769 H 0.56324 0.38977 0.16298
 H770 H 0.67073 0.34417 0.08293
 H771 H 0.60906 0.30715 0.25938
 H772 H 0.63567 0.38821 0.04877
 C773 C 0.86712 0.21762 0.15498
 C774 C 0.84509 0.20665 0.19060
 C775 C 0.84340 0.17177 0.20082
 C776 C 0.86414 0.14818 0.17597
 C777 C 0.88583 0.15964 0.13985
 C778 C 0.88708 0.19433 0.12959
 C779 C 0.90633 0.13635 0.11475
 C780 C 0.90645 0.10170 0.12570
 C781 C 0.88528 0.09043 0.16200
 C782 C 0.86398 0.11345 0.18669
 H783 H 0.82656 0.16324 0.22848
 H784 H 0.90368 0.20348 0.10208
 H785 H 0.92287 0.14547 0.08713
 H786 H 0.84768 0.10417 0.21438
 H787 H 0.86850 0.24432 0.14645
 H788 H 0.88504 0.06384 0.17104
 C789 C 0.85648 0.72014 0.65533
 C790 C 0.83541 0.70916 0.69181
 C791 C 0.83412 0.67433 0.70219
 C792 C 0.85450 0.65080 0.67681
 C793 C 0.87542 0.66226 0.64000
 C794 C 0.87607 0.69688 0.62941
 C795 C 0.89594 0.63908 0.61474
 C796 C 0.89688 0.60457 0.62627
 C797 C 0.87625 0.59328 0.66302
 C798 C 0.85493 0.61616 0.68786
 H799 H 0.81801 0.66582 0.73052
 H800 H 0.89204 0.70604 0.60135
 H801 H 0.91200 0.64822 0.58672
 H802 H 0.83919 0.60688 0.71604
 H803 H 0.85754 0.74683 0.64671
 H804 H 0.87662 0.56680 0.67250
 C805 C 0.32251 0.18838 0.64534
 C806 C 0.33771 0.19942 0.68594
 C807 C 0.36933 0.18424 0.70002
 C808 C 0.38548 0.15839 0.67404
 C809 C 0.36983 0.14736 0.63342
 C810 C 0.33839 0.16259 0.61935
 C811 C 0.38575 0.12115 0.60777
 C812 C 0.41709 0.10577 0.62228
 C813 C 0.43259 0.11717 0.66249
 C814 C 0.41693 0.14322 0.68816
 H815 H 0.38108 0.19215 0.73153
 H816 H 0.32609 0.15458 0.58823
 H817 H 0.37359 0.11258 0.57679
 H818 H 0.42932 0.15139 0.71916
 H819 H 0.29847 0.19999 0.63341
 H820 H 0.45675 0.10574 0.67437
 C821 C 0.32205 0.68339 0.15243
 C822 C 0.33787 0.69494 0.19245
 C823 C 0.36993 0.68009 0.20577
 C824 C 0.38592 0.65420 0.17959
 C825 C 0.36968 0.64277 0.13953
 C826 C 0.33776 0.65756 0.12627
 C827 C 0.38558 0.61670 0.11351
 C828 C 0.41750 0.60182 0.12709
 C829 C 0.43350 0.61353 0.16686
 C830 C 0.41786 0.63945 0.19287
 H831 H 0.38223 0.68838 0.23678
 H832 H 0.32498 0.64925 0.09559
 H833 H 0.37297 0.60788 0.08292
 H834 H 0.43072 0.64789 0.22345
 H835 H 0.29771 0.69471 0.14092
 H836 H 0.45809 0.60251 0.17807
   
