data_POSCAR
  _audit_creation_date              2014-09-24
  _audit_creation_method            'ToBaCCo'
  _symmetry_space_group_name_H-M    'P1'
  _symmetry_Int_Tables_number       1
  _symmetry_cell_setting            triclinic
  loop_
  _symmetry_equiv_pos_as_xyz
 x,y,z
_cell_length_a 13.9271
_cell_length_b 14.4697
_cell_length_c 11.6204
_cell_angle_alpha 84.247800
_cell_angle_beta 83.445000
_cell_angle_gamma 88.789100
loop_
  _atom_site_label
  _atom_site_type_symbol
  _atom_site_fract_x
  _atom_site_fract_y
  _atom_site_fract_z
C1 C -0.09710 0.49784 0.19364
 C2 C -0.01272 0.54429 0.13907
 C3 C -0.01085 0.64083 0.12803
 C4 C -0.08596 0.69031 0.18331
 C5 C -0.16492 0.64213 0.24955
 C6 C -0.17368 0.54568 0.24970
 C7 C 0.07915 0.49167 0.12569
 C8 C 0.07015 0.39800 0.10802
 C9 C 0.09146 0.33025 0.19605
 C10 C 0.13455 0.36044 0.28914
 C11 C 0.17722 0.44741 0.28064
 C12 C 0.15085 0.51504 0.19495
 H13 H -0.10053 0.42269 0.20258
 H14 H 0.05253 0.67609 0.08425
 H15 H 0.02155 0.37966 0.04814
 H16 H 0.16984 0.58669 0.19938
 H17 H -0.21955 0.68047 0.29714
 H18 H 0.13721 0.32002 0.36900
 C19 C -0.13700 0.47079 0.72005
 C20 C -0.05651 0.46690 0.78213
 C21 C -0.01097 0.38289 0.80995
 C22 C -0.02847 0.30527 0.75670
 C23 C -0.10390 0.30996 0.68169
 C24 C -0.16489 0.39207 0.67120
 C25 C 0.00338 0.54840 0.77760
 C26 C -0.02815 0.62757 0.82964
 C27 C 0.02856 0.70722 0.81168
 C28 C 0.11654 0.70621 0.73712
 C29 C 0.15426 0.62134 0.69526
 C30 C 0.09440 0.54514 0.71383
 H31 H -0.17247 0.53701 0.70090
 H32 H 0.05185 0.38201 0.85728
 H33 H -0.09842 0.62828 0.88060
 H34 H 0.11778 0.48246 0.67437
 H35 H -0.11536 0.25140 0.63415
 H36 H 0.15062 0.77117 0.71081
 C37 C 0.41961 -0.10057 0.48350
 C38 C 0.37898 -0.01732 0.51392
 C39 C 0.32051 -0.01297 0.62049
 C40 C 0.28974 -0.09399 0.68677
 C41 C 0.32704 -0.17861 0.65020
 C42 C 0.39229 -0.18220 0.54995
 C43 C 0.35775 0.05052 0.42036
 C44 C 0.29052 0.02244 0.35037
 C45 C 0.20695 0.07465 0.33711
 C46 C 0.19471 0.15729 0.39487
 C47 C 0.27544 0.19597 0.44184
 C48 C 0.35794 0.14100 0.44635
 H49 H 0.45841 -0.10343 0.39731
 H50 H 0.28739 0.05210 0.64349
 H51 H 0.29391 -0.04771 0.32461
 H52 H 0.41773 0.16389 0.48668
 H53 H 0.29971 -0.24213 0.69209
 H54 H 0.12218 0.18408 0.40798
 C55 C 0.62426 -0.13726 0.53132
 C56 C 0.64692 -0.04312 0.52450
 C57 C 0.69728 0.00309 0.42359
 C58 C 0.72296 -0.04448 0.32790
 C59 C 0.69440 -0.13813 0.33300
 C60 C 0.64500 -0.18561 0.43394
 C61 C 0.63988 0.00454 0.62800
 C62 C 0.71659 -0.01223 0.69509
 C63 C 0.75926 0.06206 0.73564
 C64 C 0.71769 0.15024 0.72024
 C65 C 0.63788 0.16592 0.65862
 C66 C 0.59515 0.09145 0.61902
 H67 H 0.59413 -0.17324 0.61338
 H68 H 0.72197 0.07376 0.42277
 H69 H 0.75540 -0.07809 0.69415
 H70 H 0.53984 0.10400 0.56195
 H71 H 0.72152 -0.17654 0.26307
 H72 H 0.75312 0.20830 0.74483
 C73 C 0.48888 0.18854 1.19911
 C74 C 0.49869 0.12559 1.11662
 C75 C 0.41795 0.08184 1.09424
 C76 C 0.33046 0.12941 1.10498
 C77 C 0.32563 0.21706 1.15198
 C78 C 0.40748 0.24643 1.20203
 C79 C 0.55848 0.16444 1.01428
 C80 C 0.65569 0.15900 1.02393
 C81 C 0.71542 0.22605 0.96618
 C82 C 0.67707 0.30423 0.90375
 C83 C 0.57926 0.30689 0.88280
 C84 C 0.52009 0.23426 0.93620
 H85 H 0.55350 0.20952 1.23310
 H86 H 0.42790 0.02647 1.03779
 H87 H 0.68301 0.10838 1.08754
 H88 H 0.44379 0.23690 0.92602
 H89 H 0.26225 0.26023 1.14929
 H90 H 0.72454 0.35898 0.86389
 C91 C 0.52661 0.74539 1.07513
 C92 C 0.52468 0.82085 0.99089
 C93 C 0.60455 0.87493 0.95621
 C94 C 0.68961 0.85222 1.00313
 C95 C 0.69609 0.76920 1.07578
 C96 C 0.61253 0.71663 1.11699
 C97 C 0.44910 0.82125 0.91861
 C98 C 0.35787 0.84307 0.96881
 C99 C 0.28158 0.78570 0.96108
 C100 C 0.29850 0.70248 0.90602
 C101 C 0.39119 0.68645 0.84497
 C102 C 0.46261 0.75197 0.84421
 H103 H 0.46132 0.70562 1.10206
 H104 H 0.59910 0.93650 0.89589
 H105 H 0.34819 0.89663 1.02779
 H106 H 0.53481 0.73922 0.80273
 H107 H 0.76339 0.75127 1.10523
 H108 H 0.24016 0.65464 0.90440
 B109 B 1.03471 1.11135 0.05808
 B110 B 1.05039 1.09950 -0.08840
 B111 B 1.12032 1.03719 0.00278
 B112 B 1.04874 1.00514 0.13001
 B113 B 0.93467 1.04651 0.11484
 B114 B 0.93953 1.10835 -0.01701
 B115 B 0.97940 0.92396 -0.05197
 B116 B 0.96217 0.93424 0.09371
 B117 B 0.89478 0.99933 0.00178
 B118 B 0.96609 1.03198 -0.12000
 B119 B 1.07731 0.98644 -0.10639
 B120 B 1.07496 0.92593 0.02846
 B121 B 0.59793 0.46679 0.41784
 B122 B 0.58813 0.47337 0.56241
 B123 B 0.57221 0.57058 0.47326
 B124 B 0.51639 0.53852 0.36101
 B125 B 0.49211 0.42329 0.38529
 B126 B 0.53691 0.38396 0.51001
 B127 B 0.38931 0.50714 0.56185
 B128 B 0.40332 0.49951 0.41557
 B129 B 0.41611 0.40300 0.51046
 B130 B 0.47562 0.43444 0.62187
 B131 B 0.49445 0.55008 0.59787
 B132 B 0.45119 0.59001 0.46953
 N133 N 1.06825 1.23388 0.19029
 N134 N 1.06138 1.20676 0.09048
 N135 N 0.91967 0.78078 0.18130
 N136 N 0.91930 0.86380 0.19168
 N137 N 1.02847 1.23273 -0.21894
 N138 N 1.08757 1.17368 -0.18680
 N139 N 0.99054 0.78244 -0.14539
 N140 N 0.93879 0.84344 -0.10491
 N141 N 1.13749 1.03600 0.28940
 N142 N 1.07609 0.98888 0.25498
 N143 N 1.21685 0.90983 -0.21478
 N144 N 1.14712 0.96859 -0.21465
 N145 N 0.79026 0.99123 0.23113
 N146 N 0.85719 1.05257 0.22243
 N147 N 0.84998 1.05413 -0.24708
 N148 N 0.93636 1.04602 -0.24088
 N149 N 1.26607 1.09734 0.04689
 N150 N 1.22588 1.05658 -0.02037
 N151 N 0.80769 1.21297 -0.03313
 N152 N 0.89436 1.20438 -0.03339
 N153 N 1.19739 0.81013 0.01129
 N154 N 1.12264 0.83379 0.06598
 N155 N 0.74964 0.92019 -0.00009
 N156 N 0.78893 0.99485 -0.00539
 N157 N 0.75267 0.49682 0.30567
 N158 N 0.69321 0.43867 0.35109
 N159 N 0.24678 0.46007 0.36006
 N160 N 0.32102 0.51130 0.33725
 N161 N 0.74765 0.39728 0.61137
 N162 N 0.68232 0.46135 0.62506
 N163 N 0.25044 0.60977 0.63421
 N164 N 0.28881 0.52851 0.62586
 N165 N 0.60939 0.64590 0.21372
 N166 N 0.53504 0.59449 0.24239
 N167 N 0.40763 0.61593 0.76608
 N168 N 0.48619 0.61160 0.69748
 N169 N 0.40850 0.32843 0.26258
 N170 N 0.48788 0.35668 0.29236
 N171 N 0.55056 0.37428 0.79226
 N172 N 0.47229 0.37796 0.74324
 N173 N 0.64275 0.72290 0.44678
 N174 N 0.65532 0.63871 0.46019
 N175 N 0.60931 0.25888 0.62530
 N176 N 0.57302 0.28435 0.53136
 N177 N 0.40219 0.74269 0.49678
 N178 N 0.40619 0.68141 0.43227
 N179 N 0.28663 0.29247 0.46459
 N180 N 0.35411 0.31347 0.52436
   
