data_POSCAR
  _audit_creation_date              2014-09-24
  _audit_creation_method            'ToBaCCo'
  _symmetry_space_group_name_H-M    'P1'
  _symmetry_Int_Tables_number       1
  _symmetry_cell_setting            triclinic
  loop_
  _symmetry_equiv_pos_as_xyz
 x,y,z
_cell_length_a 34.0809
_cell_length_b 34.0515
_cell_length_c 33.4886
_cell_angle_alpha 87.850600
_cell_angle_beta 89.180100
_cell_angle_gamma 89.419700
loop_
  _atom_site_label
  _atom_site_type_symbol
  _atom_site_fract_x
  _atom_site_fract_y
  _atom_site_fract_z
C1 C 0.73721 0.67808 0.95131
 H2 H 0.76399 0.67771 0.93358
 C3 C 0.70304 0.69514 0.93533
 H4 H 0.70392 0.70797 0.90526
 C5 C 0.70271 0.65879 1.01061
 H6 H 0.70197 0.64353 1.03939
 C7 C 0.66811 0.67560 0.99595
 H8 H 0.64169 0.67391 1.01425
 N9 N 0.73628 0.65970 0.98807
 C10 C 0.85441 0.63816 1.03431
 H11 H 0.85130 0.60710 1.04150
 C12 C 0.88879 0.65719 1.04397
 H13 H 0.91184 0.64072 1.05921
 C14 C 0.82718 0.69753 1.00721
 H15 H 0.80292 0.71303 0.99310
 C16 C 0.86098 0.71794 1.01694
 H17 H 0.86256 0.74927 1.01037
 Zn18 Zn 0.77979 0.62837 1.00525
 N19 N 0.82464 0.65831 1.01597
 C20 C 0.82986 0.59019 0.95081
 N21 N 0.79204 0.59320 0.96399
 C22 C 0.76261 0.57441 0.94555
 C23 C 0.77084 0.55169 0.91233
 C24 C 0.83942 0.56725 0.91850
 C25 C 0.76203 0.62436 1.08614
 C26 C 0.74554 0.60932 1.12177
 C27 C 0.73965 0.54665 1.09123
 C28 C 0.75596 0.56321 1.05600
 N29 N 0.76537 0.60179 1.05373
 H30 H 0.85282 0.60612 0.96467
 H31 H 0.73265 0.57789 0.95603
 H32 H 0.74727 0.53719 0.89754
 H33 H 0.86969 0.56539 0.90835
 H34 H 0.76997 0.65504 1.08348
 H35 H 0.74099 0.63016 1.14488
 H36 H 0.73353 0.51566 1.09111
 H37 H 0.75989 0.54551 1.03007
 C38 C 0.89230 0.69762 1.03556
 C39 C 0.66763 0.69312 0.95740
 C40 C 0.73201 0.57003 1.12490
 C41 C 0.80976 0.54791 0.89872
 C42 C 0.67258 0.30758 0.51833
 H43 H 0.69760 0.29120 0.50745
 C44 C 0.63770 0.28807 0.52849
 H45 H 0.63628 0.25655 0.52566
 C46 C 0.64357 0.36861 0.53452
 H47 H 0.64625 0.40007 0.53679
 C48 C 0.60827 0.35039 0.54493
 H49 H 0.58414 0.36800 0.55605
 N50 N 0.67497 0.34708 0.52218
 C51 C 0.78037 0.36093 0.45528
 H52 H 0.76972 0.38768 0.44078
 C53 C 0.81328 0.34263 0.43940
 H54 H 0.82692 0.35550 0.41265
 C55 C 0.77775 0.31402 0.50925
 H56 H 0.76416 0.30368 0.53703
 C57 C 0.81092 0.29443 0.49409
 H58 H 0.82222 0.26845 0.50980
 Zn59 Zn 0.72022 0.37666 0.50920
 N60 N 0.76273 0.34623 0.48922
 C61 C 0.76961 0.42500 0.55088
 N62 N 0.73834 0.40075 0.55515
 C63 C 0.72400 0.38956 0.59194
 C64 C 0.74212 0.40191 0.62641
 C65 C 0.78820 0.43849 0.58445
 C66 C 0.68957 0.39503 0.43638
 C67 C 0.68120 0.41641 0.40135
 C68 C 0.70375 0.47501 0.43212
 C69 C 0.71169 0.45231 0.46692
 N70 N 0.70526 0.41290 0.46794
 H71 H 0.78110 0.43259 0.52135
 H72 H 0.69987 0.36926 0.59471
 H73 H 0.73152 0.39103 0.65533
 H74 H 0.81324 0.45760 0.58028
 H75 H 0.68468 0.36367 0.43811
 H76 H 0.66866 0.40138 0.37670
 H77 H 0.70992 0.50615 0.43123
 H78 H 0.72387 0.46600 0.49249
 C79 C 0.82874 0.30859 0.45834
 C80 C 0.60508 0.30953 0.54240
 C81 C 0.68901 0.45680 0.39848
 C82 C 0.77531 0.42593 0.62290
 C83 C 0.24072 -0.16881 0.04371
 H84 H 0.26806 -0.17312 0.05935
 C85 C 0.20669 -0.18683 0.05876
 H86 H 0.20855 -0.20591 0.08527
 C87 C 0.20477 -0.13735 -0.00857
 H88 H 0.20362 -0.11697 -0.03400
 C89 C 0.17003 -0.15447 0.00565
 H90 H 0.14280 -0.14695 -0.00917
 N91 N 0.23925 -0.14442 0.01064
 C92 C 0.36092 -0.13105 -0.03192
 H93 H 0.35964 -0.10035 -0.04101
 C94 C 0.39463 -0.15282 -0.04043
 H95 H 0.41881 -0.13824 -0.05594
 C96 C 0.32935 -0.18784 -0.00493
 H97 H 0.30352 -0.20180 0.00769
 C98 C 0.36267 -0.21083 -0.01282
 H99 H 0.36216 -0.24202 -0.00532
 Zn100 Zn 0.28430 -0.11545 -0.00710
 N101 N 0.32912 -0.14855 -0.01430
 C102 C 0.32464 -0.05069 0.02327
 N103 N 0.29525 -0.07683 0.03059
 C104 C 0.27481 -0.07733 0.06582
 C105 C 0.28586 -0.05340 0.09650
 C106 C 0.33649 -0.02597 0.05306
 C107 C 0.26665 -0.11828 -0.08591
 C108 C 0.24907 -0.10644 -0.12152
 C109 C 0.24871 -0.03950 -0.09997
 C110 C 0.26550 -0.05302 -0.06399
 N111 N 0.27247 -0.09205 -0.05724
 H112 H 0.33956 -0.04948 -0.00536
 H113 H 0.25086 -0.09740 0.07098
 H114 H 0.27077 -0.05629 0.12512
 H115 H 0.36071 -0.00619 0.04700
 H116 H 0.27334 -0.14905 -0.07992
 H117 H 0.24456 -0.12862 -0.14328
 H118 H 0.24088 -0.00868 -0.10285
 H119 H 0.27043 -0.03269 -0.04059
 C120 C 0.39588 -0.19336 -0.03107
 C121 C 0.17052 -0.17909 0.04015
 C122 C 0.23734 -0.06681 -0.12840
 C123 C 0.31796 -0.02824 0.09080
 C124 C 0.18057 0.16845 0.43840
 H125 H 0.20735 0.17309 0.42120
 C126 C 0.14621 0.18826 0.42714
 H127 H 0.14699 0.20732 0.40056
 C128 C 0.14731 0.13667 0.49286
 H129 H 0.14789 0.11689 0.51881
 C130 C 0.11234 0.15640 0.48304
 H131 H 0.08654 0.15151 0.50172
 N132 N 0.18035 0.14238 0.47009
 C133 C 0.30347 0.14882 0.47842
 H134 H 0.30908 0.13033 0.45350
 C135 C 0.33462 0.16900 0.49453
 H136 H 0.36379 0.16480 0.48213
 C137 C 0.25926 0.17491 0.52594
 H138 H 0.22996 0.17617 0.53872
 C139 C 0.28950 0.19593 0.54276
 H140 H 0.28289 0.21403 0.56793
 Zn141 Zn 0.22758 0.11424 0.48197
 N142 N 0.26709 0.15040 0.49562
 C143 C 0.27731 0.06134 0.44451
 N144 N 0.24507 0.08452 0.43828
 C145 C 0.22832 0.08812 0.40163
 C146 C 0.24672 0.07161 0.36860
 C147 C 0.29676 0.04457 0.41234
 C148 C 0.23862 0.08257 0.56035
 C149 C 0.22866 0.05951 0.59413
 C150 C 0.18103 0.02634 0.55494
 C151 C 0.19184 0.05018 0.52191
 N152 N 0.21895 0.07874 0.52568
 H153 H 0.28961 0.05841 0.47409
 H154 H 0.20195 0.10548 0.39742
 H155 H 0.23497 0.07718 0.33902
 H156 H 0.32429 0.02904 0.41706
 H157 H 0.26114 0.10439 0.56243
 H158 H 0.24288 0.06481 0.62210
 H159 H 0.15825 0.00477 0.55187
 H160 H 0.17735 0.04719 0.49367
 C161 C 0.32820 0.19174 0.52821
 C162 C 0.11126 0.18236 0.44946
 C163 C 0.19854 0.03192 0.59201
 C164 C 0.28209 0.05094 0.37380
 C165 C 0.16064 0.45376 0.22409
 H166 H 0.16457 0.43959 0.25324
 C167 C 0.17794 0.43755 0.19035
 H168 H 0.19613 0.41149 0.19421
 C169 C 0.13184 0.50474 0.18399
 H170 H 0.11306 0.53042 0.18144
 C171 C 0.14794 0.48911 0.14939
 H172 H 0.14107 0.50304 0.12074
 N173 N 0.13801 0.48670 0.22036
 C174 C 0.12557 0.53394 0.33933
 H175 H 0.09413 0.53859 0.33888
 C176 C 0.14714 0.54667 0.37130
 H177 H 0.13232 0.56147 0.39539
 C178 C 0.18347 0.51091 0.30737
 H179 H 0.19757 0.49790 0.28190
 C180 C 0.20628 0.52317 0.33904
 H181 H 0.23789 0.51974 0.33780
 Zn182 Zn 0.11014 0.50470 0.26549
 N183 N 0.14385 0.51664 0.30808
 C184 C 0.08094 0.44770 0.31982
 N185 N 0.07524 0.46439 0.28285
 C186 C 0.04824 0.44984 0.25784
 C187 C 0.02516 0.41764 0.27022
 C188 C 0.05886 0.41565 0.33320
 C189 C 0.10880 0.58350 0.24810
 C190 C 0.09638 0.61927 0.23125
 C191 C 0.03294 0.59095 0.21998
 C192 C 0.04655 0.55548 0.23771
 N193 N 0.08435 0.55223 0.25019
 H194 H 0.10362 0.45825 0.33870
 H195 H 0.04523 0.46264 0.22799
 H196 H 0.00373 0.40647 0.25009
 H197 H 0.06505 0.40231 0.36232
 H198 H 0.13878 0.58010 0.25790
 H199 H 0.11683 0.64342 0.22892
 H200 H 0.00363 0.59263 0.20796
 H201 H 0.02759 0.53024 0.23956
 C202 C 0.18792 0.54159 0.37115
 C203 C 0.17094 0.45469 0.15214
 C204 C 0.05861 0.62290 0.21537
 C205 C 0.03036 0.40018 0.30849
 C206 C -0.17834 0.04799 0.20193
 H207 H -0.17874 0.06450 0.22891
 C208 C -0.20104 0.06079 0.16951
 H209 H -0.21765 0.08764 0.17295
 C210 C -0.15219 -0.00418 0.16505
 H211 H -0.13283 -0.02938 0.16322
 C212 C -0.17473 0.00725 0.13197
 H213 H -0.17283 -0.01079 0.10616
 N214 N -0.15376 0.01662 0.19890
 C215 C -0.12334 -0.03589 0.31481
 H216 H -0.09326 -0.04330 0.30744
 C217 C -0.13979 -0.05049 0.35053
 H218 H -0.12200 -0.06956 0.36966
 C219 C -0.18310 -0.00420 0.29729
 H220 H -0.19998 0.01365 0.27634
 C221 C -0.20064 -0.01767 0.33333
 H222 H -0.23075 -0.00942 0.33977
 Zn223 Zn -0.11826 0.00378 0.24094
 N224 N -0.14496 -0.01334 0.28882
 C225 C -0.06371 0.04497 0.28481
 N226 N -0.08729 0.04805 0.25237
 C227 C -0.09127 0.08275 0.23117
 C228 C -0.07449 0.11692 0.24492
 C229 C -0.04633 0.07834 0.29948
 C230 C -0.09844 -0.07489 0.22990
 C231 C -0.07572 -0.10631 0.21701
 C232 C -0.02678 -0.06007 0.19250
 C233 C -0.05007 -0.02951 0.20673
 N234 N -0.08526 -0.03746 0.22473
 H235 H -0.06031 0.01708 0.30083
 H236 H -0.10913 0.08454 0.20480
 H237 H -0.08057 0.14496 0.22981
 H238 H -0.03037 0.07610 0.32724
 H239 H -0.12694 -0.08027 0.24350
 H240 H -0.08686 -0.13593 0.22056
 H241 H 0.00071 -0.05352 0.17717
 H242 H -0.04061 0.00061 0.20253
 C243 C -0.17887 -0.04122 0.36065
 C244 C -0.19914 0.04101 0.13302
 C245 C -0.03973 -0.09892 0.19762
 C246 C -0.05297 0.11495 0.28024
 C247 C 0.33850 0.54936 0.71452
 H248 H 0.34023 0.56668 0.74071
 C249 C 0.32196 0.56601 0.67991
 H250 H 0.31151 0.59612 0.68024
 C251 C 0.35174 0.49015 0.68185
 H252 H 0.36346 0.46054 0.68260
 C253 C 0.33518 0.50564 0.64651
 H254 H 0.33396 0.48757 0.62065
 N255 N 0.35374 0.51232 0.71482
 C256 C 0.36938 0.47315 0.83996
 H257 H 0.40101 0.47528 0.84083
 C258 C 0.34842 0.46144 0.87439
 H259 H 0.36432 0.45402 0.90144
 C260 C 0.31082 0.47859 0.80279
 H261 H 0.29647 0.48516 0.77469
 C262 C 0.28862 0.46681 0.83662
 H263 H 0.25708 0.46453 0.83428
 Zn264 Zn 0.38321 0.49426 0.76017
 N265 N 0.35053 0.48088 0.80497
 C266 C 0.39617 0.56324 0.79766
 N267 N 0.41541 0.53601 0.77585
 C268 C 0.45419 0.53993 0.76634
 C269 C 0.47470 0.57302 0.77801
 C270 C 0.41533 0.59651 0.80974
 C271 C 0.40274 0.41370 0.76400
 C272 C 0.41623 0.37859 0.74833
 C273 C 0.45129 0.41617 0.69693
 C274 C 0.43711 0.45069 0.71357
 N275 N 0.41231 0.44883 0.74582
 H276 H 0.36562 0.55913 0.80571
 H277 H 0.46920 0.51778 0.74949
 H278 H 0.50537 0.57613 0.76979
 H279 H 0.39930 0.61750 0.82738
 H280 H 0.38231 0.41254 0.78893
 H281 H 0.40631 0.35080 0.76143
 H282 H 0.46875 0.41781 0.66965
 H283 H 0.44324 0.47876 0.69875
 C284 C 0.30751 0.45758 0.87297
 C285 C 0.32037 0.54428 0.64507
 C286 C 0.43981 0.37975 0.71381
 C287 C 0.45498 0.60208 0.79958
 C288 C 0.68628 0.98419 0.70214
 H289 H 0.69995 0.99224 0.72956
 C290 C 0.70935 0.97093 0.67032
 H291 H 0.74091 0.96876 0.67319
 C292 C 0.62834 0.97403 0.66559
 H293 H 0.59663 0.97424 0.66452
 C294 C 0.65018 0.96178 0.63288
 H295 H 0.63526 0.95234 0.60660
 N296 N 0.64651 0.98519 0.69918
 C297 C 0.63300 0.99604 0.82330
 H298 H 0.61483 0.97027 0.82628
 C299 C 0.64959 1.01102 0.85744
 H300 H 0.64318 0.99618 0.88585
 C301 C 0.65964 1.04785 0.78285
 H302 H 0.66323 1.06211 0.75362
 C303 C 0.67650 1.06406 0.81615
 H304 H 0.69420 1.08999 0.81114
 Zn305 Zn 0.61178 0.99717 0.74150
 N306 N 0.63812 1.01462 0.78696
 C307 C 0.61205 0.91972 0.76482
 N308 N 0.58671 0.94930 0.75449
 C309 C 0.54742 0.94316 0.75281
 C310 C 0.53216 0.90629 0.76400
 C311 C 0.59818 0.88270 0.77629
 C312 C 0.58712 1.05770 0.68925
 C313 C 0.56350 1.08795 0.67395
 C314 C 0.51953 1.07846 0.73060
 C315 C 0.54413 1.04791 0.74486
 N316 N 0.57678 1.03762 0.72357
 H317 H 0.64322 0.92538 0.76522
 H318 H 0.52791 0.96676 0.74322
 H319 H 0.50076 0.90195 0.76328
 H320 H 0.61895 0.86037 0.78646
 H321 H 0.61423 1.05088 0.67387
 H322 H 0.57267 1.10362 0.64671
 H323 H 0.49339 1.08613 0.74744
 H324 H 0.53719 1.03242 0.77282
 C325 C 0.67118 1.04619 0.85467
 C326 C 0.69106 0.95962 0.63531
 C327 C 0.52896 1.09842 0.69431
 C328 C 0.55769 0.87568 0.77670
 C329 C 0.05843 0.18277 -0.16845
 H330 H 0.07243 0.21104 -0.17244
 C331 C 0.07408 0.15004 -0.18731
 H332 H 0.10045 0.15368 -0.20538
 C333 C 0.00869 0.14356 -0.13785
 H334 H -0.01609 0.14061 -0.11759
 C335 C 0.02286 0.11029 -0.15669
 H336 H 0.00772 0.08273 -0.15163
 N337 N 0.02621 0.17906 -0.14431
 C338 C -0.02482 0.29535 -0.12841
 H339 H -0.02523 0.29268 -0.09611
 C340 C -0.04117 0.32840 -0.14744
 H341 H -0.05440 0.35114 -0.12973
 C342 C -0.00817 0.26812 -0.19066
 H343 H 0.00423 0.24414 -0.20713
 C344 C -0.02409 0.30124 -0.21114
 H345 H -0.02423 0.30269 -0.24349
 Zn346 Zn 0.00759 0.22322 -0.11616
 N347 N -0.00924 0.26583 -0.14996
 C348 C 0.06872 0.27244 -0.10412
 N349 N 0.04900 0.24244 -0.08524
 C350 C 0.06008 0.22813 -0.04851
 C351 C 0.09074 0.24602 -0.02845
 C352 C 0.09898 0.29103 -0.08535
 C353 C -0.06701 0.20014 -0.11346
 C354 C -0.10361 0.18791 -0.09998
 C355 C -0.08298 0.19660 -0.03226
 C356 C -0.04605 0.20843 -0.04740
 N357 N -0.03863 0.20885 -0.08743
 H358 H 0.06092 0.28225 -0.13401
 H359 H 0.04504 0.20326 -0.03463
 H360 H 0.09873 0.23537 0.00123
 H361 H 0.11375 0.31529 -0.10085
 H362 H -0.06087 0.20237 -0.14525
 H363 H -0.12512 0.18287 -0.12261
 H364 H -0.08698 0.19491 -0.00018
 H365 H -0.02350 0.21687 -0.02716
 C366 C -0.04134 0.33141 -0.18918
 C367 C 0.05615 0.11304 -0.18175
 C368 C -0.11240 0.18443 -0.05860
 C369 C 0.10979 0.27855 -0.04675
 C370 C 0.46395 0.24119 0.17212
 H371 H 0.44817 0.26881 0.17394
 C372 C 0.44932 0.20758 0.19201
 H373 H 0.42291 0.21011 0.21010
 C374 C 0.51668 0.20440 0.14514
 H375 H 0.54250 0.20306 0.12613
 C376 C 0.50263 0.16988 0.16389
 H377 H 0.51771 0.14241 0.15857
 N378 N 0.49667 0.23894 0.14865
 C379 C 0.54286 0.35715 0.12439
 H380 H 0.54885 0.35509 0.09273
 C381 C 0.55275 0.39115 0.14379
 H382 H 0.56737 0.41458 0.12686
 C383 C 0.51761 0.32839 0.18476
 H384 H 0.50390 0.30392 0.20068
 C385 C 0.52673 0.36206 0.20532
 H386 H 0.51961 0.36300 0.23687
 Zn387 Zn 0.51011 0.28295 0.11499
 N388 N 0.52537 0.32669 0.14488
 C389 C 0.45373 0.33522 0.08153
 N390 N 0.46473 0.29679 0.08520
 C391 C 0.44115 0.26784 0.07242
 C392 C 0.40421 0.27708 0.05667
 C393 C 0.41724 0.34567 0.06610
 C394 C 0.58942 0.27372 0.09205
 C395 C 0.62057 0.25565 0.07206
 C396 C 0.57377 0.22658 0.02867
 C397 C 0.54359 0.24552 0.04916
 N398 N 0.55178 0.26771 0.08086
 H399 H 0.47239 0.35786 0.09211
 H400 H 0.45010 0.23740 0.07645
 H401 H 0.38491 0.25372 0.04848
 H402 H 0.40846 0.37635 0.06468
 H403 H 0.59516 0.29057 0.11803
 H404 H 0.65019 0.25888 0.08268
 H405 H 0.56668 0.20744 0.00475
 H406 H 0.51350 0.24062 0.04120
 C407 C 0.54450 0.39416 0.18481
 C408 C 0.46780 0.17092 0.18679
 C409 C 0.61267 0.23062 0.04091
 C410 C 0.39152 0.31636 0.05467
 C411 C 0.97986 0.67853 0.70589
 H412 H 0.98795 0.70242 0.72440
 C413 C 0.96519 0.64348 0.72354
 H414 H 0.96164 0.64066 0.75569
 C415 C 0.97258 0.65354 0.64130
 H416 H 0.97530 0.65784 0.60921
 C417 C 0.95812 0.61836 0.65750
 H418 H 0.94985 0.59559 0.63760
 N419 N 0.98280 0.68286 0.66537
 C420 C 0.99398 0.80656 0.66202
 H421 H 0.97044 0.81009 0.64096
 C422 C 1.00847 0.83980 0.67974
 H423 H 0.99568 0.86834 0.67227
 C424 C 1.04220 0.76616 0.69379
 H425 H 1.05600 0.73757 0.69795
 C426 C 1.05782 0.79870 0.71188
 H427 H 1.08345 0.79488 0.73042
 Zn428 Zn 0.99886 0.72864 0.63604
 N429 N 1.01149 0.77079 0.66858
 C430 C 0.92244 0.75107 0.62559
 N431 N 0.95566 0.74375 0.60407
 C432 C 0.95668 0.74875 0.56353
 C433 C 0.92409 0.76476 0.54352
 C434 C 0.88959 0.76736 0.60698
 C435 C 1.06382 0.68278 0.61739
 C436 C 1.09786 0.67123 0.59765
 C437 C 1.09344 0.72968 0.55482
 C438 C 1.05936 0.74050 0.57596
 N439 N 1.04460 0.71632 0.60574
 H440 H 0.92235 0.74624 0.65771
 H441 H 0.98300 0.74169 0.54686
 H442 H 0.92563 0.77074 0.51154
 H443 H 0.86414 0.77529 0.62480
 H444 H 1.05312 0.66502 0.64252
 H445 H 1.11259 0.64445 0.60789
 H446 H 1.10416 0.74845 0.53032
 H447 H 1.04457 0.76796 0.56836
 C448 C 1.04167 0.83627 0.70380
 C449 C 0.95340 0.61322 0.69903
 C450 C 1.11262 0.69410 0.56517
 C451 C 0.89067 0.77531 0.56570
 C452 C 0.54654 0.73267 0.32543
 H453 H 0.56397 0.75905 0.32530
 C454 C 0.55944 0.70048 0.30389
 H455 H 0.58712 0.70248 0.28774
 C456 C 0.49108 0.69729 0.34946
 H457 H 0.46499 0.69555 0.36806
 C458 C 0.50256 0.66465 0.32791
 H459 H 0.48442 0.63873 0.32963
 N460 N 0.51328 0.73032 0.34827
 C461 C 0.47914 0.85134 0.37329
 H462 H 0.48170 0.85013 0.40548
 C463 C 0.46779 0.88639 0.35353
 H464 H 0.46070 0.91128 0.37150
 C465 C 0.48357 0.81887 0.31213
 H466 H 0.48993 0.79249 0.29618
 C467 C 0.47157 0.85307 0.29117
 H468 H 0.47006 0.85225 0.25897
 Zn469 Zn 0.50137 0.77244 0.38241
 N470 N 0.48682 0.81856 0.35249
 C471 C 0.56906 0.81461 0.39619
 N472 N 0.54811 0.78313 0.41049
 C473 C 0.56269 0.75864 0.43992
 C474 C 0.59866 0.76682 0.45755
 C475 C 0.60535 0.82317 0.41211
 C476 C 0.42331 0.75734 0.39424
 C477 C 0.38949 0.74104 0.41137
 C478 C 0.42424 0.72990 0.47313
 C479 C 0.45775 0.74662 0.45466
 N480 N 0.45708 0.75831 0.41528
 H481 H 0.55823 0.83269 0.37151
 H482 H 0.54682 0.73253 0.44938
 H483 H 0.60976 0.74771 0.48147
 H484 H 0.62146 0.84846 0.40045
 H485 H 0.42336 0.76705 0.36311
 H486 H 0.36360 0.73857 0.39328
 H487 H 0.42575 0.71828 0.50362
 H488 H 0.48450 0.74836 0.47131
 C489 C 0.46297 0.88775 0.31172
 C490 C 0.53778 0.66545 0.30552
 C491 C 0.39012 0.72555 0.45074
 C492 C 0.62036 0.79934 0.44328
 C493 C 0.38705 0.02528 0.23743
 C494 C 0.13017 0.97580 0.74442
 C495 C 0.62326 0.52639 0.25291
 C496 C 0.87091 0.47121 0.75758
 C497 C 0.23533 0.37535 0.01229
 C498 C 0.73671 0.12146 0.99209
 C499 C 0.25704 0.62541 0.50097
 C500 C 0.76039 0.87296 0.50413
 C501 C -0.02981 0.25234 0.37707
 C502 C 1.02427 0.76547 0.11706
 C503 C 0.46474 0.24073 0.61876
 C504 C 0.52089 0.73731 0.87650
 C505 C 0.45266 -0.04003 0.30632
 C506 C 0.44801 -0.07796 0.29141
 C507 C 0.42571 -0.08115 0.25666
 C508 C 0.40747 -0.04841 0.23867
 C509 C 0.41214 -0.01026 0.25316
 C510 C 0.43512 -0.00694 0.28754
 H511 H 0.47023 -0.03544 0.33235
 H512 H 0.41925 -0.10945 0.24481
 H513 H 0.38786 -0.05418 0.21460
 H514 H 0.43850 0.02136 0.30072
 C515 C 0.89667 0.36787 0.79902
 C516 C 0.93700 0.36452 0.79155
 C517 C 0.95636 0.39484 0.76999
 C518 C 0.93585 0.42920 0.75800
 C519 C 0.89571 0.43399 0.76815
 C520 C 0.87625 0.40171 0.78694
 H521 H 0.88114 0.34459 0.81533
 H522 H 0.98752 0.39248 0.76362
 H523 H 0.95162 0.45169 0.74101
 H524 H 0.84511 0.40345 0.79369
 C525 C 0.09096 1.08172 0.76089
 C526 C 0.07225 1.07768 0.79831
 C527 C 0.07012 1.03985 0.81669
 C528 C 0.08685 1.00723 0.79830
 C529 C 0.10648 1.01119 0.76097
 C530 C 0.10843 1.04953 0.74304
 H531 H 0.09280 1.11010 0.74535
 H532 H 0.05669 1.03547 0.84597
 H533 H 0.08570 0.97884 0.81395
 H534 H 0.12465 1.05594 0.71574
 C535 C 0.54809 0.59205 0.30614
 C536 C 0.55379 0.62917 0.28724
 C537 C 0.57725 0.63140 0.25237
 C538 C 0.59768 0.59831 0.23925
 C539 C 0.59617 0.56218 0.26138
 C540 C 0.56810 0.55896 0.29272
 H541 H 0.52995 0.58871 0.33280
 H542 H 0.58052 0.65900 0.23559
 H543 H 0.61509 0.60175 0.21219
 H544 H 0.56417 0.53121 0.30909
 C545 C 0.55614 0.46702 0.18686
 C546 C 0.55673 0.42960 0.20611
 C547 C 0.57174 0.42601 0.24491
 C548 C 0.58972 0.45785 0.26207
 C549 C 0.59510 0.49366 0.24002
 C550 C 0.57443 0.49879 0.20394
 H551 H 0.54295 0.47142 0.15780
 H552 H 0.57161 0.39805 0.26137
 H553 H 0.60069 0.45334 0.29199
 H554 H 0.57549 0.52663 0.18723
 C555 C 0.10311 0.87411 0.70813
 C556 C 0.06269 0.87184 0.71540
 C557 C 0.04284 0.90448 0.73082
 C558 C 0.06347 0.93834 0.74017
 C559 C 0.10457 0.94013 0.73438
 C560 C 0.12350 0.90773 0.71682
 H561 H 0.11899 0.85001 0.69492
 H562 H 0.01137 0.90371 0.73574
 H563 H 0.04691 0.96283 0.75145
 H564 H 0.15483 0.90815 0.71086
 C565 C 0.94647 0.55588 0.74898
 C566 C 0.93299 0.57771 0.71540
 C567 C 0.89914 0.56544 0.69650
 C568 C 0.87996 0.53147 0.70956
 C569 C 0.89449 0.50739 0.74150
 C570 C 0.92714 0.52138 0.76217
 H571 H 0.97209 0.56523 0.76470
 H572 H 0.88694 0.58265 0.67171
 H573 H 0.85299 0.52492 0.69469
 H574 H 0.93767 0.50556 0.78860
 C575 C 0.40763 0.13124 0.20121
 C576 C 0.44865 0.13390 0.20166
 C577 C 0.47058 0.10039 0.21396
 C578 C 0.45180 0.06519 0.22566
 C579 C 0.41048 0.06292 0.22621
 C580 C 0.38901 0.09659 0.21321
 H581 H 0.38964 0.15570 0.19052
 H582 H 0.50231 0.10127 0.21439
 H583 H 0.46990 0.03992 0.23347
 H584 H 0.35727 0.09588 0.21221
 C585 C 0.25663 0.41260 -0.09690
 C586 C 0.28543 0.44093 -0.09171
 C587 C 0.29538 0.45018 -0.05260
 C588 C 0.27773 0.43065 -0.01953
 C589 C 0.24901 0.40160 -0.02432
 C590 C 0.23918 0.39294 -0.06403
 H591 H 0.24916 0.40381 -0.12657
 H592 H 0.31760 0.47186 -0.04751
 H593 H 0.28759 0.43727 0.01003
 H594 H 0.21962 0.36937 -0.07059
 C595 C 0.82741 0.93592 0.43240
 C596 C 0.80365 0.94271 0.39895
 C597 C 0.76395 0.93224 0.40222
 C598 C 0.74952 0.91256 0.43680
 C599 C 0.77476 0.90045 0.46837
 C600 C 0.81336 0.91530 0.46629
 H601 H 0.85746 0.94591 0.43227
 H602 H 0.74418 0.93793 0.37764
 H603 H 0.71858 0.90578 0.43809
 H604 H 0.83379 0.91089 0.49013
 C605 C 0.79279 0.04626 1.05927
 C606 C 0.78074 0.05591 1.09837
 C607 C 0.74940 0.08300 1.10164
 C608 C 0.73366 0.10239 1.06807
 C609 C 0.74717 0.09452 1.02904
 C610 C 0.77631 0.06512 1.02550
 H611 H 0.81699 0.02633 1.05397
 H612 H 0.73669 0.09012 1.13023
 H613 H 0.71210 0.12494 1.07384
 H614 H 0.78817 0.05844 0.99633
 C615 C 0.27090 0.58779 0.61079
 C616 C 0.30310 0.56220 0.60791
 C617 C 0.31941 0.55579 0.56980
 C618 C 0.30407 0.57520 0.53556
 C619 C 0.27154 0.60104 0.53829
 C620 C 0.25605 0.60742 0.57707
 H621 H 0.25731 0.59332 0.63948
 H622 H 0.34482 0.53678 0.56657
 H623 H 0.31802 0.57055 0.50685
 H624 H 0.23290 0.62851 0.58245
 C625 C 0.21442 0.60133 0.39955
 C626 C 0.21088 0.56052 0.40185
 C627 C 0.22510 0.53930 0.43541
 C628 C 0.24174 0.55905 0.46705
 C629 C 0.24473 0.60048 0.46537
 C630 C 0.23087 0.62098 0.43075
 H631 H 0.20304 0.61818 0.37409
 H632 H 0.22171 0.50772 0.43789
 H633 H 0.25014 0.54182 0.49332
 H634 H 0.23178 0.65278 0.42855
 C635 C 0.69230 0.10450 0.88947
 C636 C 0.68609 0.06368 0.88927
 C637 C 0.69452 0.04139 0.92473
 C638 C 0.71011 0.05903 0.95818
 C639 C 0.71806 0.09958 0.95730
 C640 C 0.70740 0.12197 0.92275
 H641 H 0.68431 0.12380 0.86447
 H642 H 0.69073 0.00989 0.92655
 H643 H 0.71594 0.04057 0.98439
 H644 H 0.71182 0.15346 0.92124
 C645 C 0.73056 0.90415 0.61043
 C646 C 0.71342 0.94106 0.60306
 C647 C 0.71276 0.95704 0.56392
 C648 C 0.72911 0.93627 0.53237
 C649 C 0.74618 0.89862 0.53914
 C650 C 0.74586 0.88290 0.57898
 H651 H 0.72999 0.89074 0.64029
 H652 H 0.69861 0.98518 0.55766
 H653 H 0.72695 0.94942 0.50264
 H654 H 0.75604 0.85322 0.58575
 C655 C 0.18857 0.39453 0.11474
 C656 C 0.18592 0.43562 0.11549
 C657 C 0.19686 0.45781 0.08083
 C658 C 0.21132 0.43937 0.04680
 C659 C 0.21657 0.39821 0.04707
 C660 C 0.20361 0.37625 0.08130
 H661 H 0.17893 0.37622 0.14003
 H662 H 0.19481 0.48956 0.08007
 H663 H 0.21843 0.45768 0.02076
 H664 H 0.20613 0.34449 0.08246
 C665 C -0.13498 0.28668 0.39816
 C666 C -0.13688 0.28879 0.43983
 C667 C -0.10459 0.27535 0.46239
 C668 C -0.07028 0.26182 0.44327
 C669 C -0.06778 0.26142 0.40113
 C670 C -0.10095 0.27408 0.37921
 H671 H -0.15958 0.29606 0.37990
 H672 H -0.10515 0.27707 0.49461
 H673 H -0.04543 0.25359 0.46154
 H674 H -0.10014 0.27465 0.34684
 C675 C 0.46802 0.79862 0.95482
 C676 C 0.43011 0.78280 0.95546
 C677 C 0.42462 0.74619 0.93850
 C678 C 0.45492 0.72861 0.91671
 C679 C 0.49079 0.74832 0.90964
 C680 C 0.49810 0.78133 0.93265
 H681 H 0.47381 0.82581 0.96933
 H682 H 0.39617 0.73232 0.93955
 H683 H 0.44895 0.70076 0.90380
 H684 H 0.52605 0.79613 0.93012
 C685 C 1.12849 0.80483 0.10007
 C686 C 1.13328 0.80603 0.05843
 C687 C 1.10172 0.79476 0.03486
 C688 C 1.06635 0.78202 0.05265
 C689 C 1.06199 0.77947 0.09462
 C690 C 1.09356 0.79196 0.11777
 H691 H 1.15154 0.81454 0.11918
 H692 H 1.10437 0.79570 0.00259
 H693 H 1.04271 0.77465 0.03326
 H694 H 1.09114 0.79132 0.15008
 C695 C 0.53161 0.30619 0.55089
 C696 C 0.56894 0.28936 0.55711
 C697 C 0.57201 0.25477 0.58081
 C698 C 0.53889 0.23803 0.59907
 C699 C 0.50099 0.25473 0.59352
 C700 C 0.49826 0.28934 0.56905
 H701 H 0.52828 0.33297 0.53275
 H702 H 0.60047 0.24177 0.58725
 H703 H 0.54411 0.21322 0.61935
 H704 H 0.47021 0.30407 0.56505
 C705 C 0.39621 0.22040 0.52990
 C706 C 0.36194 0.20765 0.55015
 C707 C 0.36131 0.20699 0.59209
 C708 C 0.39399 0.21846 0.61317
 C709 C 0.42856 0.23143 0.59324
 C710 C 0.42919 0.23158 0.55104
 H711 H 0.39785 0.22115 0.49758
 H712 H 0.33602 0.19618 0.60889
 H713 H 0.39260 0.21675 0.64553
 H714 H 0.45527 0.23907 0.53388
 C715 C 0.96491 0.70338 0.04577
 C716 C 0.92677 0.71875 0.05008
 C717 C 0.92098 0.75207 0.07263
 C718 C 0.95213 0.76847 0.09246
 C719 C 0.99078 0.75288 0.08938
 C720 C 0.99645 0.72026 0.06500
 H721 H 0.97010 0.67747 0.02858
 H722 H 0.89171 0.76391 0.07727
 H723 H 0.94459 0.79191 0.11204
 H724 H 1.02516 0.70660 0.06247
 C725 C 0.62816 0.74071 0.91476
 C726 C 0.62996 0.70657 0.93939
 C727 C 0.59555 0.68472 0.94601
 C728 C 0.56078 0.69568 0.92684
 C729 C 0.55957 0.72788 0.89909
 C730 C 0.59338 0.75168 0.89555
 H731 H 0.65369 0.75917 0.91052
 H732 H 0.59570 0.65835 0.96509
 H733 H 0.53495 0.67790 0.93232
 H734 H 0.59348 0.77910 0.87834
 C735 C 0.07564 0.24001 0.41797
 C736 C 0.07413 0.20273 0.43703
 C737 C 0.03738 0.18443 0.44151
 C738 C 0.00355 0.20210 0.42515
 C739 C 0.00545 0.23829 0.40317
 C740 C 0.04240 0.25704 0.40067
 H741 H 0.10304 0.25572 0.41497
 H742 H 0.03495 0.15553 0.45585
 H743 H -0.02385 0.18631 0.42753
 H744 H 0.04712 0.28410 0.38361
 C745 C 0.49103 0.16168 0.70126
 C746 C 0.50448 0.13108 0.67751
 C747 C 0.49831 0.13391 0.63622
 C748 C 0.48323 0.16830 0.61848
 C749 C 0.47421 0.20127 0.64138
 C750 C 0.47543 0.19625 0.68346
 H751 H 0.49458 0.15981 0.73336
 H752 H 0.50715 0.11018 0.61729
 H753 H 0.48126 0.17023 0.58621
 H754 H 0.46587 0.21916 0.70288
 C755 C 1.01181 0.67716 0.19277
 C756 C 1.04855 0.65834 0.19038
 C757 C 1.07653 0.67316 0.16294
 C758 C 1.06904 0.70697 0.13979
 C759 C 1.03341 0.72825 0.14382
 C760 C 1.00418 0.71138 0.16937
 H761 H 0.98927 0.66574 0.21301
 H762 H 1.10435 0.65806 0.15879
 H763 H 1.09144 0.71541 0.11811
 H764 H 0.97546 0.72511 0.17152
 C765 C 0.98912 0.87026 0.13800
 C766 C 0.98176 0.86858 0.17917
 C767 C 0.99174 0.83448 0.20164
 C768 C 1.00736 0.80170 0.18286
 C769 C 1.01133 0.80171 0.14080
 C770 C 1.00371 0.83737 0.11910
 H771 H 0.98167 0.89638 0.12013
 H772 H 0.98700 0.83311 0.23372
 H773 H 1.01563 0.77666 0.20164
 H774 H 1.00741 0.83908 0.08690
 C775 C 0.41690 0.33250 0.66538
 C776 C 0.44592 0.34376 0.69154
 C777 C 0.48023 0.32117 0.69537
 C778 C 0.48534 0.28748 0.67306
 C779 C 0.45602 0.27520 0.64679
 C780 C 0.42198 0.29915 0.64293
 H781 H 0.39051 0.35021 0.66164
 H782 H 0.50317 0.32987 0.71517
 H783 H 0.51268 0.27119 0.67575
 H784 H 0.39947 0.29356 0.62159
 C785 C 0.45554 0.67400 0.81233
 C786 C 0.47518 0.63756 0.81302
 C787 C 0.51282 0.63495 0.82932
 C788 C 0.52891 0.66712 0.84784
 C789 C 0.50704 0.70236 0.85193
 C790 C 0.47150 0.70602 0.83090
 H791 H 0.42716 0.67744 0.79843
 H792 H 0.52923 0.60755 0.82926
 H793 H 0.55819 0.66358 0.85934
 H794 H 0.45483 0.73327 0.83090
 C795 C -0.07571 0.16175 0.32951
 C796 C -0.04669 0.15082 0.30227
 C797 C -0.01218 0.17270 0.29853
 C798 C -0.00719 0.20569 0.32183
 C799 C -0.03703 0.21810 0.34856
 C800 C -0.07079 0.19421 0.35273
 H801 H -0.10200 0.14432 0.33362
 H802 H 0.01104 0.16386 0.27826
 H803 H 0.02031 0.22131 0.31946
 H804 H -0.09339 0.19907 0.37494
 C805 C 0.00023 0.33390 0.29784
 C806 C 0.00798 0.36506 0.32290
 C807 C -0.00253 0.36101 0.36341
 C808 C -0.01604 0.32539 0.37942
 C809 C -0.02014 0.29237 0.35549
 C810 C -0.01444 0.29816 0.31381
 H811 H 0.00719 0.33643 0.26621
 H812 H 0.00142 0.38495 0.38331
 H813 H -0.02115 0.32292 0.41140
 H814 H -0.01997 0.27523 0.29333
 C815 C 0.56362 0.80276 0.79052
 C816 C 0.54267 0.83818 0.79472
 C817 C 0.50983 0.83842 0.82035
 C818 C 0.50088 0.80548 0.84456
 C819 C 0.52567 0.77187 0.84527
 C820 C 0.55473 0.76979 0.81497
 H821 H 0.58804 0.80105 0.76960
 H822 H 0.49225 0.86480 0.82358
 H823 H 0.47505 0.80739 0.86346
 H824 H 0.57251 0.74344 0.81231
 C825 C 0.70787 0.57721 0.19360
 C826 C 0.71040 0.55643 0.15762
 C827 C 0.68780 0.52179 0.15651
 C828 C 0.66134 0.51134 0.18714
 C829 C 0.65485 0.53549 0.21996
 C830 C 0.68105 0.56667 0.22407
 H831 H 0.72674 0.60152 0.19941
 H832 H 0.68800 0.50301 0.13133
 H833 H 0.64588 0.48410 0.18429
 H834 H 0.67981 0.58387 0.25063
 C835 C 0.20708 1.00072 0.66061
 C836 C 0.18247 1.01281 0.62908
 C837 C 0.14176 1.00996 0.63447
 C838 C 0.12593 0.99721 0.67111
 C839 C 0.15018 0.98768 0.70402
 C840 C 0.19121 0.98789 0.69752
 H841 H 0.23867 1.00163 0.65686
 H842 H 0.12190 1.01934 0.61096
 H843 H 0.09428 0.99645 0.67448
 H844 H 0.21143 0.97848 0.72054
 C845 C 0.18745 0.91580 0.82568
 C846 C 0.21345 0.94356 0.84049
 C847 C 0.21144 0.98225 0.82367
 C848 C 0.18577 0.99189 0.79235
 C849 C 0.16013 0.96376 0.77743
 C850 C 0.16064 0.92600 0.79626
 H851 H 0.18482 0.88653 0.83914
 H852 H 0.23084 1.00496 0.83312
 H853 H 0.18575 1.02163 0.77970
 H854 H 0.13966 0.90371 0.78981
 C855 C 0.66212 0.51639 0.36136
 C856 C 0.68015 0.47924 0.36077
 C857 C 0.68664 0.46202 0.32376
 C858 C 0.67092 0.47909 0.28895
 C859 C 0.64716 0.51322 0.29034
 C860 C 0.64671 0.53367 0.32639
 H861 H 0.65801 0.53123 0.38917
 H862 H 0.70233 0.43431 0.32197
 H863 H 0.67457 0.46381 0.26134
 H864 H 0.63332 0.56239 0.32851
 C865 C 0.78026 0.44289 0.69559
 C866 C 0.79838 0.43546 0.65856
 C867 C 0.83942 0.43626 0.65570
 C868 C 0.86165 0.44663 0.68801
 C869 C 0.84380 0.45696 0.72449
 C870 C 0.80274 0.45289 0.72842
 H871 H 0.74867 0.44158 0.69907
 H872 H 0.85460 0.42886 0.62834
 H873 H 0.89323 0.44782 0.68418
 H874 H 0.78769 0.45750 0.75647
 C875 C 0.31032 0.00600 0.15581
 C876 C 0.33464 -0.00834 0.12530
 C877 C 0.37545 -0.00705 0.12979
 C878 C 0.39143 0.00547 0.16507
 C879 C 0.36719 0.01576 0.19767
 C880 C 0.32637 0.01846 0.19135
 H881 H 0.27876 0.00693 0.15249
 H882 H 0.39519 -0.01775 0.10694
 H883 H 0.42305 0.00485 0.16799
 H884 H 0.30649 0.02979 0.21361
 C885 C 0.30365 0.01056 0.31615
 C886 C 0.30763 0.04374 0.33912
 C887 C 0.33714 0.07075 0.32959
 C888 C 0.36208 0.06535 0.29702
 C889 C 0.35770 0.03302 0.27214
 C890 C 0.32899 0.00483 0.28350
 H891 H 0.28140 -0.01104 0.32380
 H892 H 0.34112 0.09604 0.34778
 H893 H 0.38538 0.08637 0.29237
 H894 H 0.32614 -0.02163 0.26687
 C895 C 0.84985 0.49583 0.86754
 C896 C 0.82029 0.52443 0.86387
 C897 C 0.80482 0.53364 0.82607
 C898 C 0.81988 0.51541 0.79219
 C899 C 0.84964 0.48625 0.79542
 C900 C 0.86455 0.47735 0.83402
 H901 H 0.86279 0.48893 0.89636
 H902 H 0.78275 0.55655 0.82247
 H903 H 0.80924 0.52520 0.76316
 H904 H 0.88924 0.45764 0.83865
 C905 C 0.17824 0.70417 0.52959
 C906 C 0.14736 0.67949 0.54262
 C907 C 0.15073 0.63917 0.53648
 C908 C 0.18537 0.62325 0.52188
 C909 C 0.21815 0.64700 0.51193
 C910 C 0.21312 0.68817 0.51374
 H911 H 0.17606 0.73560 0.53310
 H912 H 0.12693 0.61943 0.54453
 H913 H 0.18729 0.59160 0.52025
 H914 H 0.23600 0.70817 0.50411
 C915 C 0.63723 0.16408 1.02508
 C916 C 0.64383 0.20456 1.02541
 C917 C 0.68066 0.21909 1.01328
 C918 C 0.71066 0.19337 1.00147
 C919 C 0.70494 0.15226 1.00326
 C920 C 0.66717 0.13844 1.01418
 H921 H 0.60917 0.15206 1.03461
 H922 H 0.68611 0.25039 1.01276
 H923 H 0.73793 0.20616 0.99103
 H924 H 0.66119 0.10723 1.01525
 C925 C 0.83090 0.14476 0.92994
 C926 C 0.85227 0.16950 0.95445
 C927 C 0.83579 0.17695 0.99251
 C928 C 0.79866 0.16242 1.00392
 C929 C 0.77648 0.13983 0.97802
 C930 C 0.79466 0.12988 0.94163
 H931 H 0.84299 0.13406 0.90231
 H932 H 0.85021 0.19551 1.01316
 H933 H 0.78703 0.16896 1.03322
 H934 H 0.78208 0.10917 0.92194
 C935 C 0.33836 0.70488 0.50239
 C936 C 0.35730 0.70025 0.46531
 C937 C 0.34506 0.67027 0.44110
 C938 C 0.31370 0.64645 0.45253
 C939 C 0.29185 0.65260 0.48809
 C940 C 0.30623 0.68109 0.51378
 H941 H 0.34801 0.72717 0.52217
 H942 H 0.36034 0.66478 0.41323
 H943 H 0.30747 0.62275 0.43311
 H944 H 0.29236 0.68507 0.54265
 C945 C 0.65782 0.82331 0.50044
 C946 C 0.65773 0.81019 0.46146
 C947 C 0.69221 0.81262 0.43831
 C948 C 0.72573 0.82993 0.45326
 C949 C 0.72530 0.84710 0.49117
 C950 C 0.69091 0.84157 0.51509
 H951 H 0.63141 0.82160 0.51879
 H952 H 0.69273 0.80238 0.40807
 H953 H 0.75152 0.83206 0.43406
 H954 H 0.68813 0.85243 0.54479
 C955 C 0.13654 0.34222 -0.02699
 C956 C 0.13983 0.30119 -0.02627
 C957 C 0.17320 0.28311 -0.00938
 C958 C 0.20403 0.30603 0.00412
 C959 C 0.20220 0.34752 0.00024
 C960 C 0.16697 0.36493 -0.01370
 H961 H 0.11068 0.35686 -0.03903
 H962 H 0.17602 0.25139 -0.00797
 H963 H 0.22905 0.29100 0.01716
 H964 H 0.16370 0.39662 -0.01571
 C965 C 0.32975 0.35128 0.07119
 C966 C 0.35039 0.32700 0.04535
 C967 C 0.33214 0.31502 0.01062
 C968 C 0.29434 0.32887 0.00110
 C969 C 0.27344 0.35411 0.02666
 C970 C 0.29234 0.36492 0.06196
 H971 H 0.34317 0.36079 0.09829
 H972 H 0.34776 0.29648 -0.00996
 H973 H 0.28191 0.32110 -0.02707
 H974 H 0.27969 0.38579 0.08205
 C975 C 0.83291 0.78410 0.52062
 C976 C 0.85917 0.79943 0.54755
 C977 C 0.85441 0.83809 0.55920
 C978 C 0.82353 0.86111 0.54467
 C979 C 0.79554 0.84625 0.51833
 C980 C 0.80133 0.80706 0.50636
 H981 H 0.83625 0.75407 0.51147
 H982 H 0.87461 0.85046 0.57993
 H983 H 0.82134 0.89093 0.55469
 H984 H 0.78170 0.79325 0.48644
   
