data_POSCAR
  _audit_creation_date              2014-09-24
  _audit_creation_method            'ToBaCCo'
  _symmetry_space_group_name_H-M    'P1'
  _symmetry_Int_Tables_number       1
  _symmetry_cell_setting            triclinic
  loop_
  _symmetry_equiv_pos_as_xyz
 x,y,z
_cell_length_a 34.6224
_cell_length_b 34.0858
_cell_length_c 33.8361
_cell_angle_alpha 90.278300
_cell_angle_beta 90.543100
_cell_angle_gamma 89.806200
loop_
  _atom_site_label
  _atom_site_type_symbol
  _atom_site_fract_x
  _atom_site_fract_y
  _atom_site_fract_z
O1 O 0.37196 0.42402 0.01705
 O2 O 0.41194 0.36084 -0.06245
 O3 O 0.37029 0.42289 -0.06272
 O4 O 0.42568 0.36680 0.00986
 O5 O 0.37627 0.32683 0.01801
 O6 O 0.31870 0.38673 -0.05199
 O7 O 0.36049 0.32297 -0.05748
 O8 O 0.32420 0.38214 0.02446
 Cu9 Cu 0.39897 0.39856 -0.02410
 Cu10 Cu 0.34005 0.35078 -0.01602
 C11 C 0.34110 0.41360 0.03431
 C12 C 0.39256 0.33086 -0.07319
 C13 C 0.33523 0.41483 -0.06985
 C14 C 0.41121 0.33650 0.02515
 O15 O 0.63285 0.58731 0.05362
 O16 O 0.58015 0.63701 -0.02595
 O17 O 0.62943 0.57876 -0.02325
 O18 O 0.59162 0.65114 0.04938
 O19 O 0.64255 0.68849 0.03915
 O20 O 0.67875 0.61819 -0.03298
 O21 O 0.62964 0.67646 -0.03547
 O22 O 0.68390 0.62452 0.04357
 Cu23 Cu 0.60353 0.60979 0.01441
 Cu24 Cu 0.66370 0.65556 0.00249
 C25 C 0.66715 0.59709 0.06221
 C26 C 0.59540 0.66541 -0.04394
 C27 C 0.66099 0.58654 -0.04058
 C28 C 0.61098 0.68221 0.05644
 O29 O 0.68920 0.37238 0.97395
 O30 O 0.63230 0.32282 1.05221
 O31 O 0.69154 0.37204 1.05153
 O32 O 0.62406 0.33494 0.97688
 O33 O 0.65866 0.28069 0.97079
 O34 O 0.72931 0.32057 1.04337
 O35 O 0.66942 0.27057 1.04433
 O36 O 0.72171 0.31731 0.96433
 Cu37 Cu 0.65604 0.35592 1.01470
 Cu38 Cu 0.69904 0.29288 1.00618
 C39 C 0.71444 0.35251 0.95509
 C40 C 0.64116 0.28746 1.06081
 C41 C 0.72236 0.35353 1.05971
 C42 C 0.62943 0.30159 0.96127
 O43 O 0.38338 0.67993 1.03084
 O44 O 0.35263 0.61327 0.94994
 O45 O 0.39223 0.68181 0.95637
 O46 O 0.35497 0.61280 1.02902
 O47 O 0.29698 0.63928 1.02223
 O48 O 0.33459 0.70895 0.94919
 O49 O 0.29625 0.64348 0.94675
 O50 O 0.32706 0.71029 1.02628
 Cu51 Cu 0.37591 0.64340 0.99032
 Cu52 Cu 0.30813 0.67871 0.98594
 C53 C 0.36002 0.70638 1.04249
 C54 C 0.31874 0.61639 0.93535
 C55 C 0.37026 0.70738 0.94076
 C56 C 0.31956 0.61406 1.03796
 O57 O 0.04950 0.35645 0.38708
 O58 O -0.02864 0.38696 0.32002
 O59 O -0.02565 0.35143 0.38749
 O60 O 0.04653 0.38963 0.31739
 O61 O 0.04956 0.33130 0.28893
 O62 O -0.02503 0.29472 0.35576
 O63 O -0.02568 0.33032 0.28821
 O64 O 0.04969 0.29793 0.35880
 Cu65 Cu 0.01040 0.37693 0.35595
 Cu66 Cu 0.01258 0.30781 0.31990
 C67 C 0.06219 0.32161 0.38509
 C68 C -0.04050 0.36415 0.29276
 C69 C -0.03798 0.31655 0.38319
 C70 C 0.06022 0.36680 0.29111
 O71 O 0.03072 0.66840 0.60946
 O72 O -0.04156 0.59425 0.63727
 O73 O -0.03821 0.65022 0.58412
 O74 O 0.02840 0.61151 0.66018
 O75 O 0.00387 0.65209 0.70451
 O76 O -0.05924 0.69410 0.62703
 O77 O -0.06552 0.63695 0.67979
 O78 O 0.00901 0.70875 0.65557
 Cu79 Cu -0.00300 0.62690 0.61826
 Cu80 Cu -0.03100 0.67703 0.67093
 C81 C 0.03257 0.70080 0.62826
 C82 C -0.06539 0.60296 0.66423
 C83 C -0.05903 0.67983 0.59217
 C84 C 0.02755 0.62513 0.69521
 O85 O 0.97681 0.69730 0.36257
 O86 O 1.05064 0.62971 0.32766
 O87 O 1.05087 0.69532 0.36333
 O88 O 0.97562 0.63762 0.31036
 O89 O 0.98390 0.67483 0.25790
 O90 O 1.05679 0.73215 0.31026
 O91 O 1.05657 0.66424 0.27292
 O92 O 0.98111 0.73257 0.30821
 Cu93 Cu 1.01186 0.66110 0.34546
 Cu94 Cu 1.02046 0.70460 0.28227
 C95 C 0.96631 0.72639 0.34193
 C96 C 1.06622 0.63518 0.29454
 C97 C 1.06660 0.72388 0.34535
 C98 C 0.96738 0.64652 0.27464
 O99 O 0.95844 0.31023 0.63187
 O100 O 1.03023 0.36072 0.69410
 O101 O 1.03290 0.30642 0.63957
 O102 O 0.95469 0.36156 0.69044
 O103 O 0.95035 0.31375 0.73399
 O104 O 1.02902 0.26045 0.68507
 O105 O 1.02560 0.31471 0.73950
 O106 O 0.95409 0.26354 0.67667
 Cu107 Cu 0.99440 0.33954 0.65962
 Cu108 Cu 0.98944 0.28346 0.71322
 C109 C 0.94430 0.27809 0.64355
 C110 C 1.04028 0.34645 0.72722
 C111 C 1.04417 0.27380 0.65392
 C112 C 0.93910 0.34665 0.72086
 O113 O 0.39069 0.03285 0.35282
 O114 O 0.31715 -0.03285 0.39491
 O115 O 0.38111 -0.04343 0.35695
 O116 O 0.32629 0.04232 0.39171
 O117 O 0.29375 0.04398 0.33528
 O118 O 0.35021 -0.04056 0.29959
 O119 O 0.28551 -0.03204 0.33793
 O120 O 0.35776 0.03492 0.29667
 Cu121 Cu 0.35724 -0.00031 0.37970
 Cu122 Cu 0.31854 0.00168 0.31171
 C123 C 0.38665 0.04521 0.31763
 C124 C 0.28877 -0.04366 0.37342
 C125 C 0.37507 -0.05647 0.32228
 C126 C 0.30031 0.05739 0.36974
 O127 O 0.62436 0.03554 0.67157
 O128 O 0.67362 -0.04164 0.61328
 O129 O 0.63185 -0.03975 0.67720
 O130 O 0.66322 0.03377 0.60577
 O131 O 0.71807 0.03965 0.63910
 O132 O 0.68327 -0.02840 0.71463
 O133 O 0.72493 -0.03547 0.65215
 O134 O 0.67899 0.04667 0.70395
 Cu135 Cu 0.64290 -0.00395 0.63831
 Cu136 Cu 0.70680 0.00665 0.68084
 C137 C 0.64364 0.05434 0.69761
 C138 C 0.70748 -0.05220 0.62368
 C139 C 0.65153 -0.04597 0.70842
 C140 C 0.69646 0.04870 0.60992
 O141 O 0.36963 0.96724 0.69812
 O142 O 0.31269 1.04538 0.64798
 O143 O 0.36390 1.04303 0.70438
 O144 O 0.32633 0.97064 0.63485
 O145 O 0.27559 0.96097 0.67264
 O146 O 0.31688 1.03093 0.74612
 O147 O 0.26508 1.03496 0.68958
 O148 O 0.31931 0.95481 0.73565
 Cu149 Cu 0.34787 1.00765 0.66735
 Cu150 Cu 0.28937 0.99433 0.71491
 C151 C 0.35367 0.94751 0.72538
 C152 C 0.27911 1.05362 0.66087
 C153 C 0.34765 1.04914 0.73720
 C154 C 0.29466 0.95364 0.64141
 O155 O 0.58509 0.97998 0.35095
 O156 O 0.66576 1.04369 0.38490
 O157 O 0.59695 1.05558 0.35080
 O158 O 0.64218 0.97128 0.39844
 O159 O 0.67897 0.96206 0.34618
 O160 O 0.62602 1.04160 0.29455
 O161 O 0.69316 1.03653 0.32672
 O162 O 0.61815 0.96667 0.29706
 Cu163 Cu 0.62014 1.01448 0.37631
 Cu164 Cu 0.65752 0.99972 0.31142
 C165 C 0.58857 0.96166 0.31822
 C166 C 0.69302 1.05148 0.36104
 C167 C 0.60287 1.06271 0.31470
 C168 C 0.66895 0.95288 0.38115
 C169 C 0.85806 0.81068 0.46375
 C170 C 0.85000 0.81106 0.50483
 C171 C 0.82072 0.83563 0.51922
 C172 C 0.79779 0.85897 0.49404
 C173 C 0.80536 0.85807 0.45299
 C174 C 0.83570 0.83491 0.43869
 H175 H 0.84209 0.83696 0.40757
 H176 H 0.81687 0.83729 0.55090
 C177 C 0.16008 0.20640 0.48816
 C178 C 0.16216 0.21526 0.52903
 C179 C 0.19175 0.19781 0.55190
 C180 C 0.21842 0.17153 0.53501
 C181 C 0.21599 0.16266 0.49418
 C182 C 0.18642 0.18001 0.47150
 H183 H 0.18272 0.17217 0.44066
 H184 H 0.19437 0.20485 0.58307
 C185 C 0.14351 0.79773 0.52215
 C186 C 0.15869 0.79419 0.48370
 C187 C 0.18600 0.82138 0.47051
 C188 C 0.19879 0.85242 0.49492
 C189 C 0.18422 0.85517 0.53391
 C190 C 0.15625 0.82856 0.54658
 H191 H 0.14420 0.83243 0.57576
 H192 H 0.19788 0.81758 0.44125
 C193 C 0.86335 0.19451 0.50272
 C194 C 0.85732 0.19181 0.46127
 C195 C 0.82950 0.16534 0.44623
 C196 C 0.80774 0.14108 0.47133
 C197 C 0.81600 0.14241 0.51238
 C198 C 0.84348 0.16850 0.52719
 H199 H 0.85006 0.16765 0.55857
 H200 H 0.82586 0.16314 0.41453
 C201 C 0.49242 0.85217 0.79846
 C202 C 0.53265 0.84782 0.79303
 C203 C 0.55403 0.82315 0.81811
 C204 C 0.53635 0.80184 0.84807
 C205 C 0.49582 0.80486 0.85308
 C206 C 0.47454 0.83057 0.82856
 H207 H 0.44426 0.83534 0.83445
 H208 H 0.58486 0.81978 0.81385
 C209 C 0.46134 0.15896 0.19510
 C210 C 0.50201 0.15906 0.19803
 C211 C 0.52284 0.19037 0.18189
 C212 C 0.50426 0.22069 0.16068
 C213 C 0.46330 0.21996 0.15730
 C214 C 0.44266 0.18951 0.17504
 H215 H 0.41138 0.18915 0.17254
 H216 H 0.55397 0.19042 0.18525
 C217 C 0.52132 0.14170 0.80012
 C218 C 0.48182 0.15217 0.80101
 C219 C 0.46910 0.18047 0.82830
 C220 C 0.49491 0.19833 0.85527
 C221 C 0.53391 0.18552 0.85617
 C222 C 0.54638 0.15733 0.82894
 H223 H 0.57618 0.14754 0.83033
 H224 H 0.43882 0.18855 0.82840
 C225 C 0.51046 0.83237 0.21105
 C226 C 0.46968 0.83503 0.21176
 C227 C 0.44725 0.80461 0.19547
 C228 C 0.46458 0.77172 0.17782
 C229 C 0.50528 0.76859 0.17769
 C230 C 0.52765 0.79898 0.19419
 H231 H 0.55889 0.79674 0.19372
 H232 H 0.41603 0.80730 0.19523
 C233 C 0.79191 0.48183 0.85074
 C234 C 0.78762 0.52297 0.84707
 C235 C 0.80953 0.54295 0.81932
 C236 C 0.83580 0.52371 0.79480
 C237 C 0.83993 0.48234 0.79700
 C238 C 0.81742 0.46186 0.82499
 H239 H 0.82216 0.43082 0.82928
 H240 H 0.80705 0.57468 0.81771
 C241 C 0.20855 0.47686 0.14152
 C242 C 0.20284 0.51610 0.12938
 C243 C 0.17537 0.53940 0.14816
 C244 C 0.15336 0.52503 0.17911
 C245 C 0.15832 0.48580 0.19188
 C246 C 0.18622 0.46222 0.17273
 H247 H 0.19087 0.43220 0.18194
 H248 H 0.17065 0.56926 0.13809
 C249 C 0.79893 0.52378 0.16549
 C250 C 0.79432 0.48253 0.16787
 C251 C 0.81433 0.46201 0.19775
 C252 C 0.83883 0.48154 0.22469
 C253 C 0.84323 0.52267 0.22219
 C254 C 0.82325 0.54314 0.19239
 H255 H 0.82613 0.57472 0.19032
 H256 H 0.81028 0.43070 0.20081
 C257 C 0.19771 0.52649 0.83059
 C258 C 0.20012 0.48523 0.83388
 C259 C 0.17975 0.46148 0.80708
 C260 C 0.15669 0.47783 0.77697
 C261 C 0.15469 0.51911 0.77325
 C262 C 0.17495 0.54288 0.80036
 H263 H 0.17298 0.57454 0.79797
 H264 H 0.18161 0.42988 0.81010
 C265 C 0.32383 0.43894 0.06501
 C266 C 0.29015 0.42961 0.08178
 C267 C 0.26944 0.45698 0.10798
 C268 C 0.23346 0.44892 0.11959
 H269 H 0.27619 0.40214 0.07411
 H270 H 0.28318 0.48413 0.11665
 H271 H 0.33763 0.46660 0.07214
 H272 H 0.22129 0.42040 0.11271
 C273 C 0.68684 0.57589 0.09437
 C274 C 0.72493 0.57721 0.10057
 C275 C 0.74270 0.55337 0.13210
 C276 C 0.78080 0.54776 0.13406
 H277 H 0.74308 0.59459 0.08150
 H278 H 0.72429 0.53931 0.15355
 H279 H 0.66933 0.55706 0.11267
 H280 H 0.79952 0.56298 0.11377
 C281 C 0.73539 0.36954 0.92160
 C282 C 0.74027 0.40808 0.91741
 C283 C 0.76160 0.42415 0.88355
 C284 C 0.77374 0.46130 0.88450
 H285 H 0.72901 0.42804 0.93959
 H286 H 0.76616 0.40599 0.85764
 H287 H 0.74855 0.34957 0.90060
 H288 H 0.76887 0.47806 0.91129
 C289 C 0.30504 0.58772 0.90559
 C290 C 0.26758 0.58551 0.89558
 C291 C 0.25272 0.55617 0.86723
 C292 C 0.21475 0.55358 0.86014
 H293 H 0.24705 0.60539 0.90920
 H294 H 0.27277 0.53751 0.85153
 H295 H 0.32556 0.56720 0.89303
 H296 H 0.19533 0.57425 0.87423
 C297 C 0.09138 0.30883 0.41416
 C298 C 0.09759 0.27095 0.42179
 C299 C 0.12597 0.25857 0.45189
 C300 C 0.12892 0.22091 0.46199
 H301 H 0.08104 0.24873 0.40611
 H302 H 0.14519 0.28006 0.46517
 H303 H 0.10671 0.33107 0.43104
 H304 H 0.11097 0.19929 0.44713
 C305 C 0.06223 0.72975 0.61868
 C306 C 0.07747 0.73156 0.58276
 C307 C 0.10656 0.76122 0.57316
 C308 C 0.11293 0.77033 0.53545
 H309 H 0.06750 0.71167 0.55973
 H310 H 0.12305 0.77463 0.59693
 H311 H 0.07026 0.75125 0.64097
 H312 H 0.09521 0.75606 0.51311
 C313 C 0.93609 0.75281 0.35682
 C314 C 0.92739 0.75446 0.39524
 C315 C 0.89470 0.77816 0.40923
 C316 C 0.89123 0.78781 0.44753
 H317 H 0.94427 0.73786 0.41658
 H318 H 0.87299 0.78642 0.38767
 H319 H 0.92056 0.77105 0.33583
 H320 H 0.91389 0.77852 0.46768
 C321 C 0.91562 0.25745 0.61916
 C322 C 0.91573 0.25841 0.57965
 C323 C 0.88608 0.23652 0.55755
 C324 C 0.89214 0.22126 0.52154
 H325 H 0.93826 0.27372 0.56398
 H326 H 0.85902 0.23116 0.57241
 H327 H 0.89478 0.23931 0.63423
 H328 H 0.91907 0.22712 0.50669
 C329 C 0.41573 0.07204 0.30124
 C330 C 0.41330 0.08516 0.26406
 C331 C 0.44124 0.11349 0.24826
 C332 C 0.43680 0.12755 0.21162
 H333 H 0.38979 0.07547 0.24503
 H334 H 0.46441 0.12412 0.26718
 H335 H 0.43928 0.08160 0.32026
 H336 H 0.41191 0.11845 0.19420
 C337 C 0.62549 0.08526 0.72146
 C338 C 0.58759 0.08646 0.72838
 C339 C 0.57203 0.11590 0.75597
 C340 C 0.53639 0.11310 0.77063
 H341 H 0.56856 0.06455 0.71552
 H342 H 0.59055 0.13996 0.76500
 H343 H 0.64443 0.10597 0.73637
 H344 H 0.51783 0.08950 0.76050
 C345 C 0.37445 0.91563 0.74578
 C346 C 0.41284 0.91202 0.74550
 C347 C 0.43225 0.88074 0.76836
 C348 C 0.47037 0.88197 0.77510
 H349 H 0.43010 0.93310 0.72960
 H350 H 0.41507 0.85688 0.77963
 H351 H 0.35757 0.89553 0.76332
 H352 H 0.48623 0.90638 0.76291
 C353 C 0.55814 0.93404 0.30509
 C354 C 0.56104 0.91370 0.27123
 C355 C 0.53198 0.88439 0.25878
 C356 C 0.53664 0.86410 0.22511
 H357 H 0.58581 0.91820 0.25243
 H358 H 0.50778 0.87848 0.27784
 H359 H 0.53343 0.92968 0.32397
 H360 H 0.56258 0.86893 0.20809
 C361 C 0.40741 0.30416 0.89649
 C362 C 0.44093 0.28535 0.90167
 C363 C 0.45329 0.25479 0.87357
 C364 C 0.48063 0.22863 0.88336
 H365 H 0.45827 0.29105 0.92795
 H366 H 0.43983 0.25393 0.84455
 H367 H 0.38844 0.29610 0.87214
 H368 H 0.49394 0.23049 0.91242
 C369 C 0.57225 0.68561 0.92561
 C370 C 0.58208 0.72037 0.91086
 C371 C 0.55590 0.74125 0.88350
 C372 C 0.56222 0.77871 0.87430
 H373 H 0.60858 0.73444 0.92060
 H374 H 0.53071 0.72627 0.87169
 H375 H 0.54499 0.67247 0.91680
 H376 H 0.58851 0.79271 0.88474
 C377 C 0.37141 0.73346 0.07452
 C378 C 0.39893 0.72410 0.10079
 C379 C 0.41390 0.75305 0.12952
 C380 C 0.44064 0.74249 0.15620
 H381 H 0.41196 0.69513 0.09988
 H382 H 0.40597 0.78366 0.12622
 H383 H 0.35711 0.76174 0.07632
 H384 H 0.44856 0.71181 0.15818
 C385 C 0.61865 0.26401 0.08890
 C386 C 0.58442 0.27434 0.10389
 C387 C 0.56238 0.24492 0.12640
 C388 C 0.52784 0.25235 0.14246
 H389 H 0.57204 0.30295 0.09783
 H390 H 0.57398 0.21538 0.12762
 H391 H 0.62994 0.23497 0.09530
 H392 H 0.51562 0.28153 0.13981
 C393 C 0.25499 0.08433 0.64257
 C394 C 0.26658 0.10673 0.61272
 C395 C 0.23894 0.13352 0.59313
 C396 C 0.24828 0.15252 0.56019
 H397 H 0.29562 0.10373 0.60136
 H398 H 0.20947 0.13490 0.60364
 H399 H 0.22581 0.08770 0.65349
 H400 H 0.27730 0.14956 0.54875
 C401 C 0.72324 0.07650 0.37201
 C402 C 0.72952 0.08818 0.40930
 C403 C 0.76170 0.11478 0.41958
 C404 C 0.77830 0.11295 0.45544
 H405 H 0.71167 0.07711 0.43293
 H406 H 0.77054 0.13615 0.39800
 H407 H 0.74334 0.08546 0.34939
 H408 H 0.76865 0.08971 0.47457
 C409 C 0.72710 0.91541 0.60345
 C410 C 0.72818 0.91237 0.56415
 C411 C 0.75220 0.88166 0.54594
 C412 C 0.76944 0.88723 0.51117
 H413 H 0.71403 0.93419 0.54577
 H414 H 0.75719 0.85503 0.56253
 H415 H 0.74448 0.89570 0.62140
 H416 H 0.76357 0.91423 0.49541
 C417 C 0.25914 0.92987 0.38920
 C418 C 0.25845 0.91890 0.42712
 C419 C 0.22884 0.89146 0.44135
 C420 C 0.22708 0.88141 0.47954
 H421 H 0.28004 0.92991 0.44773
 H422 H 0.20824 0.87959 0.42022
 H423 H 0.23713 0.91912 0.36891
 H424 H 0.24678 0.89558 0.49999
 C425 C 0.06894 0.36703 0.75203
 C426 C 0.08819 0.39817 0.73878
 C427 C 0.11487 0.42024 0.76455
 C428 C 0.13316 0.45189 0.75097
 H429 H 0.08352 0.40821 0.70874
 H430 H 0.11786 0.41182 0.79527
 H431 H 0.07404 0.35662 0.78186
 H432 H 0.12842 0.46032 0.72051
 C433 C 0.09534 0.60691 0.28135
 C434 C 0.09914 0.59775 0.24332
 C435 C 0.12621 0.56698 0.23086
 C436 C 0.12364 0.55174 0.19465
 H437 H 0.08093 0.61194 0.22134
 H438 H 0.14863 0.55701 0.25109
 H439 H 0.11158 0.59080 0.30355
 H440 H 0.10215 0.56293 0.17405
 C441 C 0.92865 0.37737 0.26573
 C442 C 0.90740 0.40905 0.27414
 C443 C 0.87989 0.42585 0.24549
 C444 C 0.86083 0.45879 0.25454
 H445 H 0.91170 0.42416 0.30212
 H446 H 0.87768 0.41329 0.21606
 H447 H 0.92390 0.36146 0.23831
 H448 H 0.86449 0.47119 0.28384
 C449 C 0.90804 0.57276 0.67903
 C450 C 0.89212 0.57692 0.71463
 C451 C 0.86895 0.54617 0.73350
 C452 C 0.86123 0.54985 0.77197
 H453 H 0.89796 0.60336 0.73160
 H454 H 0.85824 0.52144 0.71646
 H455 H 0.90418 0.54579 0.66240
 H456 H 0.87151 0.57580 0.78749
 C457 C 0.67658 0.56004 0.93207
 C458 C 0.71020 0.56748 0.91422
 C459 C 0.72899 0.53987 0.88678
 C460 C 0.76470 0.54787 0.87432
 H461 H 0.72535 0.59460 0.92076
 H462 H 0.71418 0.51345 0.87732
 H463 H 0.66152 0.53284 0.92586
 H464 H 0.77772 0.57551 0.88316
 C465 C 0.31533 0.43730 0.90226
 C466 C 0.27720 0.43476 0.89637
 C467 C 0.25808 0.45851 0.86572
 C468 C 0.22024 0.46559 0.86684
 H469 H 0.25981 0.41567 0.91452
 H470 H 0.27504 0.46976 0.84153
 H471 H 0.33161 0.45849 0.88539
 H472 H 0.20298 0.45355 0.89038
 C473 C 0.30575 0.58749 0.06547
 C474 C 0.26808 0.58091 0.06995
 C475 C 0.25436 0.55447 0.10071
 C476 C 0.22213 0.53382 0.09542
 H477 H 0.24695 0.59466 0.05055
 H478 H 0.26987 0.55323 0.12869
 H479 H 0.32643 0.57049 0.08260
 H480 H 0.20639 0.53542 0.06763
 C481 C 0.74915 0.36970 0.08634
 C482 C 0.74410 0.40555 0.10207
 C483 C 0.77265 0.42383 0.12895
 C484 C 0.76792 0.46128 0.14023
 H485 H 0.71852 0.42248 0.09447
 H486 H 0.79753 0.40700 0.13869
 H487 H 0.77510 0.35319 0.09346
 H488 H 0.74354 0.47711 0.12801
 C489 C 0.91915 0.69708 0.56185
 C490 C 0.90135 0.73175 0.56619
 C491 C 0.88135 0.75112 0.53283
 C492 C 0.87266 0.78932 0.53513
 H493 H 0.90314 0.74724 0.59424
 H494 H 0.87367 0.73425 0.50671
 H495 H 0.91873 0.68290 0.53308
 H496 H 0.87943 0.80494 0.56233
 C497 C 0.93428 0.30219 0.40918
 C498 C 0.92008 0.26574 0.40595
 C499 C 0.89283 0.24968 0.43489
 C500 C 0.88185 0.21215 0.43212
 H501 H 0.92965 0.24663 0.38222
 H502 H 0.88261 0.26813 0.45878
 H503 H 0.92448 0.32109 0.43295
 H504 H 0.89075 0.19513 0.40659
 C505 C 0.07323 0.25164 0.63593
 C506 C 0.08994 0.26134 0.60179
 C507 C 0.11974 0.23556 0.58435
 C508 C 0.13323 0.24165 0.54793
 H509 H 0.08121 0.28772 0.58626
 H510 H 0.12973 0.21042 0.60111
 H511 H 0.08201 0.22461 0.65030
 H512 H 0.12122 0.26566 0.53097
 C513 C 0.09422 0.74738 0.36398
 C514 C 0.10813 0.74008 0.40014
 C515 C 0.13223 0.76928 0.42086
 C516 C 0.14552 0.76215 0.45722
 H517 H 0.09977 0.71370 0.41565
 H518 H 0.13535 0.79827 0.40823
 H519 H 0.10400 0.77328 0.34853
 H520 H 0.14120 0.73333 0.46985
 C521 C 0.63710 0.92692 0.73837
 C522 C 0.60369 0.90808 0.73338
 C523 C 0.58727 0.88448 0.76513
 C524 C 0.55241 0.86839 0.76060
 H525 H 0.58733 0.91141 0.70609
 H526 H 0.60270 0.88223 0.79305
 H527 H 0.65343 0.92362 0.76566
 H528 H 0.53688 0.87236 0.73292
 C529 C 0.39693 0.90919 0.30867
 C530 C 0.40634 0.90460 0.27079
 C531 C 0.42728 0.86951 0.25753
 C532 C 0.44963 0.87055 0.22570
 H533 H 0.39927 0.92727 0.24951
 H534 H 0.42504 0.84264 0.27439
 H535 H 0.40668 0.88800 0.33040
 H536 H 0.45428 0.89791 0.21029
 C537 C 0.58300 0.09627 0.29665
 C538 C 0.57073 0.09573 0.25921
 C539 C 0.55016 0.12975 0.24268
 C540 C 0.52342 0.12523 0.21444
 H541 H 0.57436 0.06955 0.24126
 H542 H 0.55571 0.15867 0.25494
 H543 H 0.57631 0.12126 0.31536
 H544 H 0.51552 0.09600 0.20457
 C545 C 0.36563 0.07687 0.76540
 C546 C 0.39680 0.09745 0.75501
 C547 C 0.41977 0.12050 0.78350
 C548 C 0.45412 0.13450 0.77263
 H549 H 0.40736 0.09529 0.72500
 H550 H 0.41027 0.12329 0.81382
 H551 H 0.35465 0.07883 0.79523
 H552 H 0.46379 0.12961 0.74261
 C553 C 0.59708 0.71239 0.08403
 C554 C 0.56754 0.70698 0.10834
 C555 C 0.55340 0.73978 0.13278
 C556 C 0.52442 0.73487 0.15795
 H557 H 0.55313 0.67881 0.10937
 H558 H 0.56516 0.76884 0.12821
 H559 H 0.61177 0.74045 0.08404
 H560 H 0.51242 0.70582 0.16139
 C561 C 0.43632 0.31175 0.04977
 C562 C 0.42266 0.28794 0.07735
 C563 C 0.44916 0.26229 0.09956
 C564 C 0.43992 0.24927 0.13533
 H565 H 0.39207 0.28773 0.08392
 H566 H 0.47591 0.25334 0.08582
 H567 H 0.46724 0.31365 0.04536
 H568 H 0.41204 0.25731 0.14738
 C569 C 0.60105 0.28771 0.93197
 C570 C 0.59933 0.25044 0.92006
 C571 C 0.56927 0.23778 0.89187
 C572 C 0.56297 0.19977 0.88511
 H573 H 0.61937 0.22896 0.93207
 H574 H 0.55209 0.25973 0.87661
 H575 H 0.57990 0.30862 0.92097
 H576 H 0.58172 0.17820 0.89897
 C577 C 0.38605 0.73547 0.91237
 C578 C 0.42368 0.74401 0.91189
 C579 C 0.43983 0.76998 0.88169
 C580 C 0.47610 0.78312 0.88504
 H581 H 0.44300 0.73126 0.93377
 H582 H 0.42253 0.77642 0.85567
 H583 H 0.36636 0.74972 0.89185
 H584 H 0.49253 0.77572 0.91138
 C585 C 0.68862 0.92139 0.40292
 C586 C 0.72507 0.91102 0.39585
 C587 C 0.74537 0.88436 0.42312
 C588 C 0.78386 0.88226 0.42387
 H589 H 0.74083 0.92477 0.37211
 H590 H 0.72877 0.86783 0.44431
 H591 H 0.67400 0.90932 0.42831
 H592 H 0.80024 0.89757 0.40159
 C593 C 0.28106 0.92478 0.61219
 C594 C 0.24387 0.91622 0.60670
 C595 C 0.23254 0.88791 0.57579
 C596 C 0.19625 0.88576 0.56249
 H597 H 0.22190 0.93094 0.62399
 H598 H 0.25429 0.86841 0.56366
 H599 H 0.30245 0.91167 0.59295
 H600 H 0.17408 0.90382 0.57592
 C601 C 0.27701 0.09043 0.38438
 C602 C 0.27532 0.09898 0.42289
 C603 C 0.25009 0.13043 0.43777
 C604 C 0.24204 0.13267 0.47633
 H605 H 0.29155 0.08146 0.44399
 H606 H 0.23824 0.15138 0.41699
 H607 H 0.25938 0.10668 0.36343
 H608 H 0.25506 0.11103 0.49571
 C609 C 0.71003 0.07645 0.58013
 C610 C 0.74711 0.08652 0.57832
 C611 C 0.76129 0.11254 0.54732
 C612 C 0.79915 0.11547 0.54144
 H613 H 0.76774 0.07423 0.59921
 H614 H 0.74102 0.12892 0.52913
 H615 H 0.68961 0.08741 0.55831
 H616 H 0.81902 0.10012 0.56100
 C617 C 0.93897 0.62434 0.25108
 C618 C 0.91835 0.59441 0.26471
 C619 C 0.89164 0.57369 0.23766
 C620 C 0.86923 0.54442 0.24986
 H621 H 0.92134 0.58520 0.29520
 H622 H 0.89106 0.58202 0.20678
 H623 H 0.93514 0.63316 0.22052
 H624 H 0.87098 0.53566 0.28051
 C625 C 0.90715 0.36659 0.74153
 C626 C 0.90192 0.40547 0.74157
 C627 C 0.87033 0.42350 0.76472
 C628 C 0.87060 0.46182 0.77377
 H629 H 0.92182 0.42409 0.72580
 H630 H 0.84689 0.40498 0.77425
 H631 H 0.88851 0.34855 0.75945
 H632 H 0.89481 0.47894 0.76363
 C633 C 0.05405 0.60980 0.72580
 C634 C 0.08062 0.58237 0.71800
 C635 C 0.10612 0.56690 0.74939
 C636 C 0.13074 0.53758 0.74187
 H637 H 0.08325 0.57070 0.68827
 H638 H 0.10369 0.57846 0.77918
 H639 H 0.05155 0.62137 0.75557
 H640 H 0.13186 0.52549 0.71224
 C641 C 0.08830 0.38106 0.26200
 C642 C 0.09894 0.41865 0.25957
 C643 C 0.12502 0.43187 0.22799
 C644 C 0.13402 0.46986 0.22426
 H645 H 0.08755 0.44001 0.28029
 H646 H 0.13543 0.41044 0.20689
 H647 H 0.09955 0.36000 0.24089
 H648 H 0.12143 0.49029 0.24506
   
