data_POSCAR
  _audit_creation_date              2014-09-24
  _audit_creation_method            'ToBaCCo'
  _symmetry_space_group_name_H-M    'P1'
  _symmetry_Int_Tables_number       1
  _symmetry_cell_setting            triclinic
  loop_
  _symmetry_equiv_pos_as_xyz
 x,y,z
_cell_length_a 22.4954
_cell_length_b 22.5090
_cell_length_c 15.0924
_cell_angle_alpha 89.040200
_cell_angle_beta 90.972200
_cell_angle_gamma 87.840000
loop_
  _atom_site_label
  _atom_site_type_symbol
  _atom_site_fract_x
  _atom_site_fract_y
  _atom_site_fract_z
C1 C 0.30920 0.18334 0.30659
 C2 C 0.25474 0.21495 0.30769
 C3 C 0.20296 0.18795 0.27771
 C4 C 0.20788 0.13357 0.23476
 C5 C 0.26462 0.10493 0.22642
 C6 C 0.31515 0.12907 0.26503
 C7 C 0.25565 0.27972 0.31625
 C8 C 0.30091 0.30873 0.27348
 C9 C 0.29458 0.36776 0.24795
 C10 C 0.24064 0.40027 0.27094
 C11 C 0.19646 0.37241 0.32377
 C12 C 0.20653 0.31203 0.34693
 H13 H 0.34777 0.20135 0.33939
 H14 H 0.16058 0.21255 0.27603
 H15 H 0.33894 0.28325 0.24968
 H16 H 0.17326 0.28779 0.38214
 H17 H 0.26850 0.06127 0.19725
 H18 H 0.23354 0.44603 0.24885
 C19 C 0.79865 0.70166 0.23006
 C20 C 0.75720 0.73026 0.17177
 C21 C 0.70656 0.70111 0.14377
 C22 C 0.69308 0.64653 0.18107
 C23 C 0.73609 0.61712 0.23971
 C24 C 0.78938 0.64531 0.26451
 C25 C 0.75723 0.79511 0.16588
 C26 C 0.81119 0.82403 0.16848
 C27 C 0.81483 0.87894 0.20935
 C28 C 0.76440 0.90298 0.25135
 C29 C 0.70909 0.87621 0.24062
 C30 C 0.70503 0.82556 0.19073
 H31 H 0.83745 0.72460 0.25275
 H32 H 0.67502 0.72358 0.09828
 H33 H 0.85058 0.80312 0.14020
 H34 H 0.66298 0.80348 0.18973
 H35 H 0.72798 0.57330 0.26646
 H36 H 0.76690 0.94471 0.28583
 C37 C 0.79810 0.19931 0.70168
 C38 C 0.73958 0.22154 0.68482
 C39 C 0.69236 0.18323 0.68792
 C40 C 0.70239 0.12401 0.71217
 C41 C 0.76093 0.10196 0.72882
 C42 C 0.80913 0.13976 0.72370
 C43 C 0.72741 0.28585 0.68536
 C44 C 0.77072 0.32298 0.65418
 C45 C 0.78140 0.37723 0.69416
 C46 C 0.73938 0.39725 0.75906
 C47 C 0.68829 0.36229 0.78072
 C48 C 0.68322 0.30762 0.74108
 H49 H 0.83445 0.22934 0.70790
 H50 H 0.64768 0.19938 0.66974
 H51 H 0.80169 0.30460 0.60674
 H52 H 0.64919 0.27845 0.76373
 H53 H 0.76892 0.05539 0.74639
 H54 H 0.74666 0.43854 0.79261
 C55 C 0.30303 0.68504 0.73642
 C56 C 0.25459 0.71892 0.70271
 C57 C 0.20465 0.69163 0.66978
 C58 C 0.19805 0.63071 0.68124
 C59 C 0.24679 0.59610 0.72010
 C60 C 0.30099 0.62408 0.74568
 C61 C 0.25326 0.78288 0.71647
 C62 C 0.30659 0.81222 0.71674
 C63 C 0.30960 0.87038 0.74483
 C64 C 0.25675 0.90072 0.76861
 C65 C 0.20231 0.87170 0.76628
 C66 C 0.20077 0.81294 0.74100
 H67 H 0.34097 0.70695 0.76393
 H68 H 0.16846 0.71918 0.64125
 H69 H 0.34605 0.79062 0.68938
 H70 H 0.15967 0.78974 0.74737
 H71 H 0.24233 0.54881 0.73089
 H72 H 0.25752 0.94717 0.78645
 C73 C 0.18269 0.30725 0.71326
 C74 C 0.21743 0.25472 0.72238
 C75 C 0.19466 0.20580 0.76595
 C76 C 0.13666 0.20799 0.79616
 C77 C 0.10126 0.26073 0.78605
 C78 C 0.12552 0.31184 0.74774
 C79 C 0.28079 0.25429 0.70194
 C80 C 0.31235 0.30113 0.73445
 C81 C 0.37182 0.29332 0.75800
 C82 C 0.40279 0.23884 0.73374
 C83 C 0.37221 0.19369 0.68725
 C84 C 0.31072 0.20264 0.67320
 H85 H 0.19983 0.34462 0.67652
 H86 H 0.22203 0.16546 0.77606
 H87 H 0.28798 0.34070 0.75553
 H88 H 0.28494 0.16732 0.64597
 H89 H 0.05483 0.26113 0.80424
 H90 H 0.44936 0.23144 0.75139
 C91 C 0.70323 0.79094 0.78559
 C92 C 0.73217 0.74837 0.84222
 C93 C 0.70441 0.69719 0.86821
 C94 C 0.64920 0.68461 0.83326
 C95 C 0.61846 0.72875 0.77704
 C96 C 0.64592 0.78272 0.75279
 C97 C 0.79629 0.74936 0.85310
 C98 C 0.82228 0.80263 0.87054
 C99 C 0.87807 0.81489 0.83631
 C100 C 0.90860 0.76991 0.78749
 C101 C 0.88393 0.71282 0.78029
 C102 C 0.82927 0.70274 0.81683
 H103 H 0.72645 0.82986 0.76413
 H104 H 0.72850 0.66503 0.91105
 H105 H 0.79488 0.83697 0.90115
 H106 H 0.80816 0.66122 0.80297
 H107 H 0.57420 0.72104 0.75147
 H108 H 0.95012 0.77895 0.75549
 C109 C 0.68687 0.29469 0.28230
 C110 C 0.72303 0.24442 0.29934
 C111 C 0.69833 0.19001 0.32071
 C112 C 0.63644 0.18404 0.31897
 C113 C 0.59995 0.23503 0.29109
 C114 C 0.62634 0.29128 0.27279
 C115 C 0.78569 0.24969 0.27825
 C116 C 0.81338 0.30171 0.30018
 C117 C 0.86693 0.31643 0.26284
 C118 C 0.89698 0.27538 0.20899
 C119 C 0.86982 0.22179 0.18891
 C120 C 0.81373 0.20987 0.22170
 H121 H 0.70699 0.33605 0.26431
 H122 H 0.72769 0.15164 0.33514
 H123 H 0.79245 0.33166 0.34711
 H124 H 0.79216 0.16942 0.20353
 H125 H 0.55239 0.23090 0.28303
 H126 H 0.94173 0.28332 0.18743
 C127 C 0.18392 0.79845 0.20408
 C128 C 0.20727 0.74640 0.24387
 C129 C 0.17042 0.70060 0.26569
 C130 C 0.10933 0.70888 0.25709
 C131 C 0.08451 0.76500 0.22927
 C132 C 0.12247 0.80921 0.19828
 C133 C 0.27086 0.73869 0.25872
 C134 C 0.30347 0.78397 0.29626
 C135 C 0.36556 0.78272 0.29349
 C136 C 0.39396 0.73308 0.25000
 C137 C 0.35944 0.68489 0.21657
 C138 C 0.29863 0.68835 0.22486
 H139 H 0.21411 0.83223 0.18304
 H140 H 0.18928 0.65974 0.29558
 H141 H 0.27972 0.82206 0.32363
 H142 H 0.27186 0.65467 0.19501
 H143 H 0.03675 0.77329 0.22960
 H144 H 0.44166 0.73215 0.24154
 N145 N 1.11458 0.07050 0.08404
 N146 N 1.16654 0.09019 0.10733
 N147 N 1.06118 -0.04839 0.15402
 N148 N 1.05622 -0.10275 0.19892
 N149 N 1.10466 -0.05206 0.09716
 N150 N 1.13223 -0.10459 0.10354
 N151 N 1.07581 0.07686 0.14747
 N152 N 1.10335 0.10578 0.21822
 C153 C 1.15956 0.11222 0.18814
 C154 C 1.10245 -0.13512 0.16590
 N155 N 0.89706 -0.02801 0.07946
 N156 N 0.84977 -0.05868 0.09254
 N157 N 0.94830 0.09241 0.13645
 N158 N 0.94563 0.14100 0.18382
 N159 N 0.90799 0.09488 0.07248
 N160 N 0.87618 0.14509 0.07523
 N161 N 0.93328 -0.03086 0.14840
 N162 N 0.91071 -0.06468 0.21163
 Mn163 Mn 1.00469 0.02234 0.14835
 C164 C 0.85860 -0.08155 0.17405
 C165 C 0.90089 0.17373 0.14400
 N166 N 1.10790 -0.05598 -0.08972
 N167 N 1.15675 -0.08742 -0.10428
 N168 N 1.07102 0.07157 -0.16830
 N169 N 1.06993 0.12337 -0.21058
 N170 N 1.11222 0.06916 -0.10492
 N171 N 1.14073 0.11931 -0.10412
 N172 N 1.07344 -0.05235 -0.16074
 N173 N 1.10001 -0.08034 -0.22677
 Mn174 Mn 1.10985 0.00798 -0.00376
 C175 C 1.15135 -0.10266 -0.18871
 C176 C 1.11374 0.15245 -0.16993
 N177 N 0.90895 0.08893 -0.11380
 N178 N 0.86053 0.11950 -0.13796
 N179 N 0.94431 -0.04720 -0.16335
 N180 N 0.94486 -0.10277 -0.19158
 N181 N 0.90068 -0.03662 -0.10810
 N182 N 0.86866 -0.08771 -0.09947
 N183 N 0.94181 0.07641 -0.18245
 N184 N 0.91336 0.09534 -0.25616
 Mn185 Mn 0.90364 0.02990 -0.01752
 Mn186 Mn 1.00784 0.01188 -0.16994
 Cl187 Cl 1.00651 0.01799 -0.01042
 C188 C 0.86352 0.12371 -0.22591
 C189 C 0.89738 -0.12698 -0.15256
 N190 N 1.04854 0.40446 0.60285
 N191 N 1.07439 0.35298 0.62393
 N192 N 0.92072 0.45139 0.66478
 N193 N 0.86963 0.44889 0.70868
 N194 N 0.92258 0.41169 0.60160
 N195 N 0.87316 0.38195 0.60120
 N196 N 1.04734 0.44021 0.67025
 N197 N 1.07430 0.41010 0.74373
 C198 C 1.08883 0.35600 0.70973
 C199 C 0.84000 0.40450 0.66834
 N200 N 0.92410 0.61942 0.60387
 N201 N 0.90782 0.67264 0.63293
 N202 N 1.05372 0.56980 0.66180
 N203 N 1.10804 0.56582 0.69829
 N204 N 1.04977 0.61269 0.60054
 N205 N 1.10156 0.63817 0.59489
 N206 N 0.92985 0.58130 0.67106
 N207 N 0.91805 0.60894 0.74600
 Mn208 Mn 0.98789 0.51052 0.66786
 C209 C 0.90571 0.66597 0.72106
 C210 C 1.13759 0.60930 0.65635
 N211 N 0.92909 0.41094 0.41344
 N212 N 0.90323 0.36169 0.39449
 N213 N 1.05988 0.45196 0.35593
 N214 N 1.11205 0.44826 0.31504
 N215 N 1.05545 0.40885 0.41525
 N216 N 1.10733 0.37314 0.41423
 N217 N 0.93609 0.44337 0.34192
 N218 N 0.91655 0.41516 0.27113
 Mn219 Mn 0.98870 0.40928 0.50827
 C220 C 0.89603 0.36437 0.30673
 C221 C 1.14097 0.39892 0.35104
 N222 N 1.04071 0.62007 0.41132
 N223 N 1.06046 0.67185 0.38676
 N224 N 0.92070 0.57106 0.34550
 N225 N 0.87384 0.57229 0.29135
 N226 N 0.91573 0.61264 0.40614
 N227 N 0.86508 0.64401 0.39179
 N228 N 1.04412 0.58213 0.34654
 N229 N 1.06642 0.60833 0.27571
 Mn230 Mn 0.98185 0.61629 0.50553
 Mn231 Mn 0.99070 0.51232 0.34668
 Cl232 Cl 0.98710 0.51253 0.50746
 C233 C 1.07526 0.66458 0.30250
 C234 C 0.83871 0.61747 0.32079
 N235 N 0.61707 0.03074 0.59161
 N236 N 0.66607 0.05856 0.60469
 N237 N 0.56802 -0.08737 0.66619
 N238 N 0.57125 -0.13242 0.72413
 N239 N 0.60904 -0.09362 0.60515
 N240 N 0.64196 -0.14299 0.62257
 N241 N 0.58038 0.03745 0.65723
 N242 N 0.60446 0.07176 0.71798
 C243 C 0.65830 0.08354 0.68269
 C244 C 0.61714 -0.16771 0.69622
 N245 N 0.40489 -0.07396 0.59721
 N246 N 0.35283 -0.09274 0.61858
 N247 N 0.45046 0.05380 0.65183
 N248 N 0.44723 0.10478 0.69534
 N249 N 0.40791 0.05195 0.59099
 N250 N 0.37489 0.10195 0.59211
 N251 N 0.43971 -0.07016 0.66740
 N252 N 0.40812 -0.08761 0.74237
 Mn253 Mn 0.50977 -0.01613 0.66197
 C254 C 0.35412 -0.09903 0.70640
 C255 C 0.39944 0.13486 0.65748
 N256 N 0.61261 -0.09037 0.41063
 N257 N 0.66850 -0.10954 0.38285
 N258 N 0.56933 0.04200 0.34448
 N259 N 0.56815 0.09557 0.30541
 N260 N 0.61264 0.03676 0.40469
 N261 N 0.64191 0.08683 0.40634
 N262 N 0.57670 -0.08306 0.34099
 N263 N 0.60588 -0.09578 0.26770
 Mn264 Mn 0.61280 -0.02974 0.50299
 C265 C 0.66215 -0.11006 0.29498
 C266 C 0.61439 0.12329 0.34394
 N267 N 0.40478 0.04210 0.40511
 N268 N 0.35636 0.07393 0.38780
 N269 N 0.44734 -0.08691 0.34489
 N270 N 0.44262 -0.13572 0.29685
 N271 N 0.40660 -0.08440 0.40666
 N272 N 0.37296 -0.13147 0.40074
 N273 N 0.43924 0.03887 0.33649
 N274 N 0.41346 0.06874 0.26832
 Mn275 Mn 0.40616 -0.01649 0.49983
 Mn276 Mn 0.50808 -0.02211 0.34077
 Cl277 Cl 0.50929 -0.02162 0.50146
 C278 C 0.36174 0.09022 0.30352
 C279 C 0.39574 -0.16375 0.33221
 N280 N 0.42853 0.58009 -0.12560
 N281 N 0.39948 0.62142 -0.17549
 N282 N 0.38737 0.56672 0.06148
 N283 N 0.35345 0.58793 0.12652
 N284 N 0.43256 0.60174 0.05522
 N285 N 0.43189 0.64516 0.11205
 N286 N 0.39712 0.53236 -0.12576
 N287 N 0.34794 0.53856 -0.18250
 C288 C 0.35006 0.59479 -0.21008
 C289 C 0.38264 0.63710 0.15707
 N290 N 0.41598 0.39012 0.09872
 N291 N 0.39272 0.35748 0.16285
 N292 N 0.39823 0.40994 -0.09398
 N293 N 0.36446 0.38713 -0.15696
 N294 N 0.44664 0.37611 -0.08481
 N295 N 0.44684 0.32783 -0.14110
 N296 N 0.38178 0.43829 0.08781
 N297 N 0.33517 0.43955 0.13960
 Mn298 Mn 0.38985 0.48728 -0.01661
 C299 C 0.34212 0.38940 0.18772
 C300 C 0.39499 0.33653 -0.18497
 N301 N 0.55893 0.59768 0.07779
 N302 N 0.59324 0.64309 0.09628
 N303 N 0.60591 0.55009 -0.06752
 N304 N 0.64890 0.58797 -0.08293
 N305 N 0.55753 0.57097 -0.10950
 N306 N 0.56953 0.61805 -0.16571
 N307 N 0.58204 0.54990 0.11876
 N308 N 0.62728 0.56243 0.17056
 Mn309 Mn 0.49457 0.58799 -0.02645
 C310 C 0.63546 0.61992 0.15542
 C311 C 0.62508 0.62974 -0.14288
 N312 N 0.57494 0.37858 -0.05385
 N313 N 0.59697 0.34670 -0.12722
 N314 N 0.58599 0.41953 0.13710
 N315 N 0.62392 0.39401 0.19616
 N316 N 0.54025 0.38527 0.13080
 N317 N 0.54423 0.33901 0.18536
 N318 N 0.61101 0.42265 -0.04371
 N319 N 0.65428 0.42380 -0.10102
 Mn320 Mn 0.49450 0.38126 0.02182
 Mn321 Mn 0.59663 0.48545 0.03753
 Cl322 Cl 0.49348 0.48487 0.00486
 C323 C 0.64666 0.37724 -0.15227
 C324 C 0.59614 0.34418 0.22710
   
