data_POSCAR
  _audit_creation_date              2014-09-24
  _audit_creation_method            'ToBaCCo'
  _symmetry_space_group_name_H-M    'P1'
  _symmetry_Int_Tables_number       1
  _symmetry_cell_setting            triclinic
  loop_
  _symmetry_equiv_pos_as_xyz
 x,y,z
_cell_length_a 36.1668
_cell_length_b 34.8649
_cell_length_c 30.7474
_cell_angle_alpha 89.700700
_cell_angle_beta 89.784800
_cell_angle_gamma 121.619300
loop_
  _atom_site_label
  _atom_site_type_symbol
  _atom_site_fract_x
  _atom_site_fract_y
  _atom_site_fract_z
C1 C -0.01093 0.48546 0.00668
 C2 C 0.00487 0.45784 0.00047
 C3 C 0.04234 0.46387 0.02570
 C4 C -0.01435 0.42033 -0.03132
 C5 C -0.04887 0.47980 -0.01775
 C6 C 0.00948 0.52333 0.03799
 C7 C 0.08224 0.47968 0.00458
 C8 C 0.11893 0.48962 0.02848
 C9 C 0.11594 0.48264 0.07368
 C10 C 0.07547 0.46474 0.09454
 C11 C 0.03894 0.45580 0.07072
 C12 C -0.02271 0.42710 -0.07428
 C13 C -0.04632 0.39046 -0.10175
 C14 C -0.06040 0.34627 -0.08762
 C15 C -0.04795 0.34035 -0.04596
 C16 C -0.02566 0.37693 -0.01800
 C17 C -0.08886 0.43876 -0.01737
 C18 C -0.12279 0.43290 -0.04388
 C19 C -0.11768 0.46825 -0.07077
 C20 C -0.07816 0.50997 -0.06930
 C21 C -0.04423 0.51566 -0.04304
 C22 C -0.01580 0.52596 0.07118
 C23 C 0.00318 0.56037 0.10185
 C24 C 0.04785 0.59266 0.09994
 C25 C 0.07292 0.59069 0.06602
 C26 C 0.05378 0.55672 0.03495
 H27 H 0.08526 0.48592 -0.03018
 H28 H 0.14970 0.50297 0.01166
 H29 H 0.07247 0.45927 0.12940
 H30 H 0.00823 0.44339 0.08739
 H31 H -0.01238 0.46059 -0.08610
 H32 H -0.05333 0.39712 -0.13413
 H33 H -0.01882 0.37097 0.01478
 H34 H -0.09334 0.41087 0.00249
 H35 H -0.15247 0.40026 -0.04378
 H36 H -0.07298 0.53831 -0.08876
 H37 H -0.01376 0.54775 -0.04347
 H38 H -0.05010 0.50076 0.07386
 H39 H -0.01692 0.56087 0.12774
 H40 H 0.10728 0.61562 0.06330
 H41 H 0.07359 0.55628 0.00872
 H42 H -0.05771 0.30729 -0.03347
 C43 C 0.54847 0.55075 -0.01086
 C44 C 0.50830 0.51257 -0.01158
 C45 C 0.49408 0.47905 -0.04690
 C46 C 0.47481 0.50169 0.02229
 C47 C 0.55940 0.58846 0.01935
 C48 C 0.58428 0.55757 -0.04024
 C49 C 0.46069 0.47359 -0.07404
 C50 C 0.44292 0.43956 -0.10485
 C51 C 0.45782 0.40980 -0.10900
 C52 C 0.49255 0.41624 -0.08297
 C53 C 0.51044 0.45059 -0.05182
 C54 C 0.45730 0.52883 0.02946
 C55 C 0.42440 0.51610 0.06064
 C56 C 0.40789 0.47554 0.08414
 C57 C 0.42556 0.44866 0.07677
 C58 C 0.45866 0.46163 0.04622
 C59 C 0.55383 0.58226 0.06466
 C60 C 0.56349 0.61859 0.09157
 C61 C 0.58053 0.66192 0.07376
 C62 C 0.58763 0.66834 0.02876
 C63 C 0.57688 0.63193 0.00183
 C64 C 0.62465 0.57052 -0.02185
 C65 C 0.65941 0.57800 -0.04801
 C66 C 0.65424 0.57182 -0.09303
 C67 C 0.61412 0.55920 -0.11175
 C68 C 0.57965 0.55315 -0.08565
 H69 H 0.44779 0.49535 -0.07077
 H70 H 0.41696 0.43624 -0.12504
 H71 H 0.50454 0.39367 -0.08541
 H72 H 0.53602 0.45416 -0.03082
 H73 H 0.46879 0.55947 0.01071
 H74 H 0.41102 0.53722 0.06544
 H75 H 0.47165 0.44019 0.04105
 H76 H 0.54182 0.54938 0.07914
 H77 H 0.55832 0.61302 0.12632
 H78 H 0.60050 0.70135 0.01422
 H79 H 0.58183 0.63761 -0.03294
 H80 H 0.62920 0.57462 0.01300
 H81 H 0.69006 0.58757 -0.03292
 H82 H 0.60977 0.55493 -0.14660
 H83 H 0.54958 0.54520 -0.10097
 H84 H 0.41397 0.41758 0.09476
 C85 C 0.49704 1.01478 0.00761
 C86 C 0.45903 1.01435 0.00873
 C87 C 0.42166 0.98224 0.03706
 C88 C 0.45197 1.04504 -0.01909
 C89 C 0.53609 1.05103 -0.01559
 C90 C 0.50065 0.97888 0.02971
 C91 C 0.37938 0.95903 0.02007
 C92 C 0.34380 0.93077 0.04666
 C93 C 0.34995 0.92420 0.09037
 C94 C 0.39203 0.94681 0.10746
 C95 C 0.42747 0.97646 0.08132
 C96 C 0.45982 1.04830 -0.06419
 C97 C 0.44846 1.07330 -0.09053
 C98 C 0.42784 1.09421 -0.07238
 C99 C 0.42078 1.09170 -0.02731
 C100 C 0.43304 1.06766 -0.00088
 C101 C 0.55116 1.09646 -0.00776
 C102 C 0.58489 1.13038 -0.03280
 C103 C 0.60490 1.11983 -0.06625
 C104 C 0.59118 1.07406 -0.07204
 C105 C 0.55724 1.04018 -0.04699
 C106 C 0.53122 0.98992 0.06272
 C107 C 0.52968 0.95600 0.08870
 C108 C 0.49766 0.91052 0.08184
 C109 C 0.46918 0.89955 0.04667
 C110 C 0.47082 0.93338 0.02073
 H111 H 0.37389 0.96310 -0.01379
 H112 H 0.31149 0.91359 0.03298
 H113 H 0.39725 0.94266 0.14138
 H114 H 0.45935 0.99519 0.09578
 H115 H 0.47331 1.03023 -0.07922
 H116 H 0.45377 1.07436 -0.12532
 H117 H 0.42659 1.06557 0.03376
 H118 H 0.53601 1.10566 0.01716
 H119 H 0.59456 1.16466 -0.02560
 H120 H 0.60546 1.06372 -0.09670
 H121 H 0.54638 1.00529 -0.05327
 H122 H 0.55462 1.02485 0.06999
 H123 H 0.55223 0.96561 0.11536
 H124 H 0.44500 0.86487 0.03956
 H125 H 0.44751 0.92419 -0.00520
 H126 H 0.40526 1.10789 -0.01255
 C127 C 0.99972 0.48094 0.50622
 C128 C 1.00042 0.44339 0.49503
 C129 C 1.02683 0.44493 0.45691
 C130 C 0.97787 0.40220 0.52275
 C131 C 0.96385 0.47754 0.53313
 C132 C 1.03537 0.52592 0.49111
 C133 C 1.02463 0.46452 0.41776
 C134 C 1.05720 0.47874 0.38638
 C135 C 1.09124 0.47085 0.39194
 C136 C 1.08991 0.44543 0.42846
 C137 C 1.05840 0.43334 0.46113
 C138 C 0.95060 0.35948 0.50471
 C139 C 0.92533 0.32209 0.53192
 C140 C 0.92707 0.32725 0.57731
 C141 C 0.95648 0.36940 0.59511
 C142 C 0.98203 0.40631 0.56815
 C143 C 0.97250 0.50624 0.56850
 C144 C 0.93860 0.50041 0.59546
 C145 C 0.89543 0.46591 0.58734
 C146 C 0.88684 0.43839 0.55093
 C147 C 0.92061 0.44431 0.52404
 C148 C 1.07838 0.53809 0.49853
 C149 C 1.11186 0.57065 0.47253
 C150 C 1.10318 0.59254 0.43910
 C151 C 1.06092 0.58517 0.43653
 C152 C 1.02713 0.55175 0.46222
 H153 H 0.99942 0.47204 0.41300
 H154 H 1.05548 0.49599 0.35783
 H155 H 1.11518 0.43812 0.43376
 H156 H 1.06044 0.41771 0.49081
 H157 H 0.94731 0.35552 0.46977
 H158 H 0.90286 0.28982 0.51749
 H159 H 1.00390 0.43868 0.58278
 H160 H 1.00557 0.53221 0.57603
 H161 H 0.94639 0.52223 0.62323
 H162 H 0.85401 0.41233 0.54289
 H163 H 0.91303 0.42247 0.49628
 H164 H 1.08543 0.51923 0.52163
 H165 H 1.14415 0.57707 0.47782
 H166 H 1.05275 0.60184 0.41206
 H167 H 0.99412 0.54309 0.45642
 H168 H 0.95908 0.37404 0.63001
 C169 C 0.51800 0.51143 0.49129
 C170 C 0.55936 0.54795 0.49072
 C171 C 0.57298 0.58650 0.46013
 C172 C 0.59359 0.55206 0.52070
 C173 C 0.50229 0.47431 0.52381
 C174 C 0.48443 0.50498 0.45928
 C175 C 0.56608 0.58029 0.41509
 C176 C 0.57748 0.61707 0.38768
 C177 C 0.59764 0.66082 0.40457
 C178 C 0.60658 0.66729 0.44915
 C179 C 0.59407 0.63044 0.47670
 C180 C 0.63441 0.56439 0.50337
 C181 C 0.66786 0.57027 0.53044
 C182 C 0.66101 0.56317 0.57541
 C183 C 0.62026 0.55072 0.59300
 C184 C 0.58709 0.54612 0.56598
 C185 C 0.46469 0.46262 0.54781
 C186 C 0.44409 0.42343 0.57289
 C187 C 0.46094 0.39532 0.57505
 C188 C 0.49993 0.40804 0.55309
 C189 C 0.52023 0.44708 0.52703
 C190 C 0.46948 0.53486 0.45600
 C191 C 0.43340 0.52396 0.43009
 C192 C 0.41127 0.48256 0.40827
 C193 C 0.42718 0.45360 0.41062
 C194 C 0.46344 0.46479 0.43562
 H195 H 0.55143 0.54701 0.40120
 H196 H 0.57079 0.61141 0.35324
 H197 H 0.62185 0.70066 0.46298
 H198 H 0.60020 0.63616 0.51123
 H199 H 0.64042 0.56954 0.46866
 H200 H 0.69891 0.57965 0.51608
 H201 H 0.55657 0.53829 0.58050
 H202 H 0.45029 0.48309 0.54572
 H203 H 0.41445 0.41470 0.59009
 H204 H 0.51336 0.38665 0.55431
 H205 H 0.54877 0.45506 0.50817
 H206 H 0.48469 0.56567 0.47460
 H207 H 0.42155 0.54674 0.42880
 H208 H 0.41118 0.42184 0.39355
 H209 H 0.47434 0.44123 0.43774
 H210 H 0.61448 0.54571 0.62773
 C211 C 0.46400 -0.00604 0.50547
 C212 C 0.50625 0.00523 0.50441
 C213 C 0.53899 0.03969 0.53347
 C214 C 0.51980 -0.02088 0.47809
 C215 C 0.43085 -0.04405 0.47909
 C216 C 0.44841 0.01633 0.53500
 C217 C 0.57035 0.08193 0.51658
 C218 C 0.59956 0.11578 0.54437
 C219 C 0.59861 0.10729 0.58916
 C220 C 0.56817 0.06440 0.60578
 C221 C 0.53819 0.03091 0.57813
 C222 C 0.52191 -0.01752 0.43257
 C223 C 0.52579 -0.04889 0.40778
 C224 C 0.52549 -0.08540 0.42820
 C225 C 0.52597 -0.08673 0.47400
 C226 C 0.52419 -0.05421 0.49859
 C227 C 0.42263 -0.08763 0.48571
 C228 C 0.39739 -0.12169 0.45638
 C229 C 0.37763 -0.11363 0.42104
 C230 C 0.38210 -0.07105 0.41739
 C231 C 0.40910 -0.03634 0.44582
 C232 C 0.41292 -0.01027 0.56268
 C233 C 0.39773 0.00966 0.59101
 C234 C 0.41783 0.05670 0.59247
 C235 C 0.45340 0.08350 0.56483
 C236 C 0.46816 0.06344 0.53586
 H237 H 0.57132 0.08899 0.48211
 H238 H 0.62313 0.14846 0.53081
 H239 H 0.56687 0.05721 0.64025
 H240 H 0.51412 -0.00169 0.59149
 H241 H 0.51851 0.00806 0.41627
 H242 H 0.52550 -0.04641 0.37270
 H243 H 0.52280 -0.05716 0.53373
 H244 H 0.43713 -0.09487 0.51279
 H245 H 0.39307 -0.15445 0.46203
 H246 H 0.36720 -0.06342 0.39099
 H247 H 0.41440 -0.00304 0.44082
 H248 H 0.39716 -0.04661 0.56270
 H249 H 0.37053 -0.01185 0.61221
 H250 H 0.46904 0.11982 0.56483
 H251 H 0.49469 0.08467 0.51389
 H252 H 0.52752 -0.11299 0.49120
 O253 O 0.26209 0.43780 0.29245
 O254 O 0.20530 0.45554 0.20274
 O255 O 0.26375 0.43370 0.20841
 O256 O 0.20021 0.45470 0.28714
 O257 O 0.24849 0.52774 0.28277
 O258 O 0.31534 0.50581 0.20775
 O259 O 0.25779 0.52727 0.19943
 O260 O 0.31162 0.51053 0.29263
 Cu261 Cu 0.22786 0.43822 0.24800
 Cu262 Cu 0.28856 0.52521 0.24617
 C263 C 0.29665 0.47102 0.30758
 C264 C 0.22242 0.49442 0.18535
 C265 C 0.30013 0.46577 0.19466
 C266 C 0.21270 0.49488 0.29711
 O267 O 0.60085 0.80182 0.19991
 O268 O 0.56845 0.84723 0.29040
 O269 O 0.60681 0.80159 0.28444
 O270 O 0.56053 0.84523 0.20561
 O271 O 0.49733 0.78133 0.21175
 O272 O 0.54439 0.73636 0.28675
 O273 O 0.50719 0.78138 0.29725
 O274 O 0.53765 0.73758 0.20404
 Cu275 Cu 0.59040 0.83053 0.24459
 Cu276 Cu 0.51492 0.75298 0.25017
 C277 C 0.57491 0.76204 0.18673
 C278 C 0.53292 0.82131 0.31021
 C279 C 0.58350 0.76137 0.29861
 C280 C 0.52094 0.82030 0.19509
 O281 O 0.22249 0.80993 0.22728
 O282 O 0.17488 0.72199 0.31232
 O283 O 0.24695 0.79887 0.30442
 O284 O 0.15129 0.73103 0.23507
 O285 O 0.18485 0.70024 0.20449
 O286 O 0.27805 0.76431 0.27631
 O287 O 0.20742 0.68953 0.28280
 O288 O 0.25788 0.77951 0.20019
 Cu289 Cu 0.19567 0.76894 0.27239
 Cu290 Cu 0.23494 0.72996 0.23728
 C291 C 0.24875 0.81004 0.19975
 C292 C 0.18399 0.69145 0.31253
 C293 C 0.27792 0.79159 0.30329
 C294 C 0.15191 0.70400 0.20801
 O295 O 0.78617 0.57232 0.78917
 O296 O 0.82740 0.52486 0.71004
 O297 O 0.78747 0.56859 0.70442
 O298 O 0.82306 0.52551 0.79469
 O299 O 0.75891 0.46230 0.79502
 O300 O 0.72339 0.50523 0.70503
 O301 O 0.76356 0.46125 0.71010
 O302 O 0.72190 0.50919 0.78885
 Cu303 Cu 0.81243 0.55419 0.74956
 Cu304 Cu 0.73559 0.47800 0.74976
 C305 C 0.74713 0.54899 0.80239
 C306 C 0.80253 0.48507 0.69650
 C307 C 0.74931 0.54424 0.68951
 C308 C 0.79682 0.48657 0.81036
 O309 O 0.36838 0.17145 0.79129
 O310 O 0.37582 0.23673 0.69424
 O311 O 0.36521 0.15769 0.70783
 O312 O 0.37635 0.24805 0.77684
 O313 O 0.44753 0.27915 0.77884
 O314 O 0.43650 0.19038 0.70386
 O315 O 0.44733 0.27071 0.69452
 O316 O 0.43926 0.20039 0.78861
 Cu317 Cu 0.36433 0.20007 0.74240
 Cu318 Cu 0.44990 0.23820 0.74123
 C319 C 0.40251 0.17491 0.80659
 C320 C 0.41275 0.26577 0.67865
 C321 C 0.39861 0.15857 0.69369
 C322 C 0.41336 0.27867 0.79003
 O323 O 0.71856 0.16810 0.71837
 O324 O 0.80775 0.20790 0.79740
 O325 O 0.72392 0.17201 0.80312
 O326 O 0.80147 0.20114 0.71224
 O327 O 0.81206 0.26957 0.70984
 O328 O 0.73472 0.24048 0.80014
 O329 O 0.81816 0.27614 0.79313
 O330 O 0.72946 0.23662 0.71509
 Cu331 Cu 0.76189 0.18038 0.75822
 Cu332 Cu 0.77442 0.26247 0.75436
 C333 C 0.70947 0.19598 0.70277
 C334 C 0.82819 0.24902 0.80864
 C335 C 0.71632 0.20140 0.81718
 C336 C 0.81972 0.24032 0.69547
 N337 N 0.22238 0.53652 0.11996
 N338 N 0.19462 0.53296 0.09011
 C339 C 0.15545 0.49614 0.09901
 C340 C 0.15848 0.47505 0.13602
 C341 C 0.20155 0.50176 0.14812
 H342 H 0.13305 0.44482 0.15194
 H343 H 0.25505 0.56227 0.12079
 H344 H 0.20234 0.55603 0.06472
 N345 N 0.62248 0.76939 0.12446
 N346 N 0.62385 0.74307 0.09457
 C347 C 0.59067 0.70050 0.10167
 C348 C 0.56696 0.69971 0.13752
 C349 C 0.58811 0.74415 0.15079
 H350 H 0.53783 0.67115 0.15124
 H351 H 0.64432 0.80412 0.12620
 H352 H 0.64723 0.75427 0.06986
 N353 N 0.24977 0.86725 0.15026
 N354 N 0.27606 0.89664 0.12063
 C355 C 0.31236 0.89489 0.11841
 C356 C 0.30890 0.86262 0.14737
 C357 C 0.26865 0.84585 0.16677
 H358 H 0.33235 0.85291 0.15354
 H359 H 0.21931 0.86172 0.15858
 H360 H 0.26949 0.91800 0.10289
 N361 N 0.79610 0.42462 0.64833
 N362 N 0.82044 0.41961 0.61954
 C363 C 0.85948 0.45837 0.61665
 C364 C 0.85986 0.48928 0.64516
 C365 C 0.81907 0.46656 0.66440
 H366 H 0.88570 0.52372 0.65064
 H367 H 0.76432 0.39964 0.65666
 H368 H 0.81029 0.38977 0.60277
 N369 N 0.37949 0.29213 0.62538
 N370 N 0.39213 0.32651 0.59854
 C371 C 0.43586 0.35179 0.59821
 C372 C 0.45189 0.33240 0.62586
 C373 C 0.41486 0.29486 0.64283
 H374 H 0.48535 0.34546 0.63469
 H375 H 0.34707 0.26821 0.63269
 H376 H 0.37096 0.33286 0.58145
 N377 N 0.67113 0.21034 0.64403
 N378 N 0.64262 0.18715 0.61343
 C379 C 0.62916 0.14329 0.61839
 C380 C 0.65002 0.13828 0.65366
 C381 C 0.67659 0.18169 0.66876
 H382 H 0.64771 0.10776 0.66538
 H383 H 0.68748 0.24533 0.64694
 H384 H 0.63286 0.20133 0.58950
 N385 N 0.36569 0.13360 0.87456
 N386 N 0.37286 0.11338 0.90695
 C387 C 0.41076 0.11574 0.89954
 C388 C 0.42875 0.13886 0.86083
 C389 C 0.39908 0.14960 0.84617
 H390 H 0.45884 0.14647 0.84542
 H391 H 0.33844 0.13647 0.87218
 H392 H 0.35149 0.09733 0.93303
 N393 N 0.75702 0.60479 0.85833
 N394 N 0.73256 0.61064 0.88621
 C395 C 0.69074 0.57817 0.87996
 C396 C 0.68839 0.55023 0.84688
 C397 C 0.73120 0.56814 0.83432
 H398 H 0.65985 0.52013 0.83498
 H399 H 0.79086 0.62485 0.85676
 H400 H 0.74450 0.63623 0.90930
 N401 N 0.87155 0.23882 0.86223
 N402 N 0.90290 0.26646 0.89249
 C403 C 0.91192 0.30898 0.88631
 C404 C 0.88662 0.30909 0.85242
 C405 C 0.86146 0.26483 0.83894
 H406 H 0.88431 0.33711 0.84078
 H407 H 0.85719 0.20394 0.86035
 H408 H 0.91638 0.25503 0.91521
 N409 N 0.50588 0.81011 0.38590
 N410 N 0.50631 0.83681 0.41968
 C411 C 0.52239 0.87892 0.40381
 C412 C 0.53315 0.87992 0.35999
 C413 C 0.52263 0.83646 0.35038
 H414 H 0.54802 0.90870 0.33815
 H415 H 0.49646 0.77631 0.38897
 H416 H 0.49372 0.82453 0.45071
 N417 N 0.30688 0.42146 0.35771
 N418 N 0.33718 0.42437 0.38367
 C419 C 0.37028 0.46763 0.38498
 C420 C 0.36040 0.49360 0.35883
 C421 C 0.32000 0.46274 0.34177
 H422 H 0.38075 0.52915 0.35124
 H423 H 0.27831 0.39135 0.35010
 H424 H 0.33525 0.39689 0.39973
 N425 N 0.19127 0.64013 0.36256
 N426 N 0.17011 0.61458 0.39951
 C427 C 0.13498 0.61784 0.40710
 C428 C 0.13378 0.64620 0.37570
 C429 C 0.16933 0.65919 0.34875
 H430 H 0.11033 0.65637 0.37255
 H431 H 0.21966 0.64414 0.34912
 H432 H 0.17890 0.59398 0.41527
 N433 N 0.78442 0.42969 0.86724
 N434 N 0.80657 0.42490 0.89866
 C435 C 0.84725 0.46156 0.89911
 C436 C 0.85074 0.49089 0.86623
 C437 C 0.81031 0.46939 0.84693
 H438 H 0.87868 0.52314 0.85698
 H439 H 0.75203 0.40608 0.86006
 H440 H 0.79344 0.39688 0.91932
 N441 N 0.38055 0.31698 0.82626
 N442 N 0.39204 0.35125 0.85235
 C443 C 0.43453 0.37066 0.86174
 C444 C 0.45085 0.34735 0.84051
 C445 C 0.41535 0.31364 0.81821
 H446 H 0.48361 0.35396 0.84109
 H447 H 0.34917 0.29620 0.81433
 H448 H 0.37055 0.36029 0.86412
 N449 N 0.67952 0.22043 0.87394
 N450 N 0.64887 0.19781 0.90689
 C451 C 0.63696 0.15395 0.90627
 C452 C 0.66020 0.14830 0.87311
 C453 C 0.68607 0.19034 0.85388
 H454 H 0.65871 0.11775 0.86346
 H455 H 0.69428 0.25471 0.86664
 H456 H 0.63716 0.21333 0.92673
 N457 N 0.17443 0.53478 0.31262
 N458 N 0.13802 0.52580 0.33678
 C459 C 0.12643 0.48956 0.36245
 C460 C 0.15474 0.47458 0.35477
 C461 C 0.18369 0.50327 0.32313
 H462 H 0.15282 0.44477 0.36805
 H463 H 0.18873 0.55894 0.28785
 H464 H 0.12381 0.54522 0.33527
 N465 N 0.63794 0.76832 0.35271
 N466 N 0.64148 0.74177 0.38106
 C467 C 0.60742 0.69936 0.37625
 C468 C 0.58102 0.69893 0.34360
 C469 C 0.60132 0.74333 0.32979
 H470 H 0.55014 0.67078 0.33308
 H471 H 0.65944 0.80311 0.35031
 H472 H 0.66647 0.75281 0.40366
 N473 N 0.33508 0.79327 0.34827
 N474 N 0.36132 0.81834 0.38275
 C475 C 0.35528 0.85294 0.38956
 C476 C 0.32486 0.85025 0.35997
 C477 C 0.31290 0.81237 0.33523
 H478 H 0.31173 0.87183 0.35765
 H479 H 0.33193 0.76360 0.33667
 H480 H 0.38313 0.81180 0.39817
 N481 N 0.46106 0.81144 0.14825
 N482 N 0.45512 0.83470 0.11802
 C483 C 0.49240 0.87480 0.11230
 C484 C 0.52341 0.87704 0.14049
 C485 C 0.50216 0.83614 0.16254
 H486 H 0.55680 0.90419 0.14416
 H487 H 0.43724 0.77914 0.15873
 H488 H 0.42559 0.82327 0.10240
 N489 N 0.31358 0.41375 0.15250
 N490 N 0.34187 0.41624 0.12365
 C491 C 0.37136 0.45998 0.11521
 C492 C 0.36137 0.48658 0.13998
 C493 C 0.32457 0.45579 0.16326
 H494 H 0.37845 0.52297 0.14111
 H495 H 0.28723 0.38364 0.16451
 H496 H 0.34028 0.38822 0.10958
 N497 N 0.07550 0.67366 0.18493
 N498 N 0.04795 0.64412 0.15669
 C499 C 0.06839 0.62768 0.13368
 C500 C 0.11081 0.64765 0.14805
 C501 C 0.11387 0.67637 0.18064
 H502 H 0.13559 0.64124 0.13726
 H503 H 0.06781 0.69108 0.20709
 H504 H 0.01582 0.63568 0.15335
 N505 N 0.35333 0.08383 0.65950
 N506 N 0.35825 0.05697 0.63328
 C507 C 0.40046 0.07713 0.62183
 C508 C 0.42354 0.11888 0.64191
 C509 C 0.39228 0.12159 0.66564
 H510 H 0.45801 0.14346 0.63986
 H511 H 0.32365 0.07615 0.67303
 H512 H 0.33279 0.02567 0.62302
 N513 N 0.76203 0.59632 0.62767
 N514 N 0.73884 0.60096 0.59733
 C515 C 0.69661 0.56926 0.60365
 C516 C 0.69276 0.54307 0.63946
 C517 C 0.73507 0.56124 0.65353
 H518 H 0.66353 0.51425 0.65270
 H519 H 0.79580 0.61637 0.62998
 H520 H 0.75188 0.62558 0.57287
 N521 N 0.85220 0.22313 0.63210
 N522 N 0.88007 0.24606 0.60026
 C523 C 0.89619 0.29032 0.60638
 C524 C 0.87750 0.29571 0.64332
 C525 C 0.84980 0.25246 0.65857
 H526 H 0.88222 0.32672 0.65644
 H527 H 0.83437 0.18804 0.63485
 H528 H 0.88766 0.23150 0.57487
   
