data_POSCAR
  _audit_creation_date              2014-09-24
  _audit_creation_method            'ToBaCCo'
  _symmetry_space_group_name_H-M    'P1'
  _symmetry_Int_Tables_number       1
  _symmetry_cell_setting            triclinic
  loop_
  _symmetry_equiv_pos_as_xyz
 x,y,z
_cell_length_a 53.4493
_cell_length_b 36.8992
_cell_length_c 36.7423
_cell_angle_alpha 90.075000
_cell_angle_beta 89.665700
_cell_angle_gamma 89.778100
loop_
  _atom_site_label
  _atom_site_type_symbol
  _atom_site_fract_x
  _atom_site_fract_y
  _atom_site_fract_z
C1 C 1.25132 0.24642 0.25172
 C2 C 0.75075 -0.25084 0.24617
 C3 C 0.75009 0.25139 -0.25115
 C4 C 1.25000 -0.25196 -0.25077
 C5 C 0.25055 0.25378 0.74865
 C6 C 0.75048 0.74806 0.75517
 C7 C 0.74934 0.25171 0.25211
 C8 C 0.25002 0.75577 0.25078
 O9 O 1.03584 0.06470 0.06533
 O10 O 1.06346 0.03272 0.02954
 C11 C 1.05837 0.05566 0.05542
 O12 O 0.96664 -0.06428 0.06266
 O13 O 0.93839 -0.02988 0.03076
 C14 C 0.94398 -0.05499 0.05408
 O15 O 1.03647 -0.06180 0.06337
 O16 O 1.06366 -0.02821 0.02876
 C17 C 1.05892 -0.05219 0.05365
 O18 O 0.96616 0.06928 0.06275
 O19 O 0.93817 0.03450 0.03123
 C20 C 0.94352 0.06006 0.05419
 Zr21 Zr 1.00090 0.04771 0.04524
 O22 O 1.00009 0.04265 0.10253
 O23 O 1.00332 0.10486 0.04828
 Zr24 Zr 1.00123 -0.04302 0.04482
 O25 O 1.00140 -0.03638 0.10195
 O26 O 1.00162 -0.10011 0.04987
 O27 O 1.02366 0.00230 0.05132
 O28 O 0.97897 0.00230 0.05220
 O29 O 0.96482 0.06726 -0.06487
 O30 O 0.93753 0.03423 -0.02985
 C31 C 0.94242 0.05833 -0.05452
 O32 O 1.03503 -0.06008 -0.06882
 O33 O 1.06303 -0.02761 -0.03494
 C34 C 1.05765 -0.05091 -0.06013
 O35 O 0.96512 -0.06312 -0.06418
 O36 O 0.93770 -0.02902 -0.03015
 C37 C 0.94261 -0.05388 -0.05417
 O38 O 1.03468 0.06574 -0.06837
 O39 O 1.06283 0.03300 -0.03468
 C40 C 1.05733 0.05661 -0.05952
 Zr41 Zr 1.00005 0.04866 -0.04633
 O42 O 0.99936 0.05387 -0.10362
 O43 O 1.00198 0.10584 -0.04164
 Zr44 Zr 1.00025 -0.04290 -0.04709
 O45 O 0.99746 -0.04287 -0.10456
 O46 O 1.00265 -0.10019 -0.04687
 Zr47 Zr 1.03810 0.00255 -0.00217
 Zr48 Zr 0.96307 0.00249 0.00001
 O49 O 0.97836 0.00281 -0.05290
 O50 O 1.02235 0.00291 -0.05471
 O51 O 0.97802 0.05533 0.00005
 O52 O 1.02255 -0.04972 -0.00190
 O53 O 1.02237 0.05487 -0.00111
 O54 O 0.97847 -0.05024 -0.00055
 H55 H 0.96769 0.00232 0.07371
 H56 H 1.03391 -0.07099 -0.00252
 H57 H 0.96696 0.00254 -0.07405
 H58 H 1.03364 0.07613 -0.00111
 H59 H 1.00650 -0.11008 0.02590
 H60 H 0.98881 -0.10931 -0.03143
 H61 H 1.01094 -0.02716 -0.11414
 H62 H 0.99426 0.03020 -0.11364
 H63 H 0.98554 0.11476 -0.03280
 H64 H 0.99205 0.11479 0.02949
 H65 H 0.99985 0.06769 0.11230
 H66 H 1.00086 -0.06114 0.11230
 O67 O 1.03366 0.56774 0.56278
 O68 O 1.06211 0.53472 0.52934
 C69 C 1.05642 0.55865 0.55398
 O70 O 0.96477 0.43793 0.56304
 O71 O 0.93731 0.47048 0.52798
 C72 C 0.94232 0.44654 0.55276
 O73 O 1.03444 0.44038 0.56659
 O74 O 1.06240 0.47317 0.53243
 C75 C 1.05704 0.44974 0.55755
 O76 O 0.96369 0.57113 0.55706
 O77 O 0.93683 0.53444 0.52566
 C78 C 0.94132 0.56102 0.54781
 Zr79 Zr 0.99913 0.54937 0.54208
 O80 O 0.99708 0.54714 0.59949
 O81 O 1.00116 0.60663 0.54232
 Zr82 Zr 0.99974 0.45865 0.54588
 O83 O 0.99873 0.46808 0.60261
 O84 O 0.99974 0.40185 0.55366
 O85 O 1.02189 0.50444 0.55147
 O86 O 0.97723 0.50406 0.54999
 O87 O 0.96584 0.56363 0.42953
 O88 O 0.93791 0.53184 0.46465
 C89 C 0.94326 0.55508 0.43940
 O90 O 1.03639 0.43669 0.43484
 O91 O 1.06350 0.47075 0.46864
 C92 C 1.05878 0.44638 0.44415
 O93 O 0.96663 0.43272 0.43672
 O94 O 0.93825 0.46841 0.46720
 C95 C 0.94389 0.44220 0.44504
 O96 O 1.03597 0.56124 0.42875
 O97 O 1.06322 0.53154 0.46639
 C98 C 1.05847 0.55323 0.43953
 Zr99 Zr 1.00067 0.54596 0.45045
 O100 O 1.00091 0.54886 0.39299
 O101 O 1.00267 0.60328 0.45257
 Zr102 Zr 1.00112 0.45460 0.45398
 O103 O 0.99952 0.45237 0.39644
 O104 O 1.00382 0.39740 0.45652
 Zr105 Zr 1.03765 0.50226 0.49877
 Zr106 Zr 0.96266 0.50164 0.49705
 O107 O 0.97920 0.49972 0.44494
 O108 O 1.02329 0.50010 0.44543
 O109 O 0.97743 0.55458 0.49536
 O110 O 1.02222 0.44997 0.50060
 O111 O 1.02173 0.55447 0.49649
 O112 O 0.97824 0.44914 0.49970
 H113 H 0.96546 0.50490 0.57093
 H114 H 1.03362 0.42876 0.50136
 H115 H 0.96829 0.49835 0.42329
 H116 H 1.03292 0.57580 0.49582
 H117 H 1.00670 0.39078 0.53128
 H118 H 0.99040 0.38886 0.47304
 H119 H 1.01354 0.46704 0.38681
 H120 H 0.99711 0.52434 0.38382
 H121 H 0.98606 0.61263 0.46015
 H122 H 0.98994 0.61546 0.52292
 H123 H 0.99657 0.57264 0.60796
 H124 H 0.99787 0.44386 0.61413
 O125 O 0.53684 0.06328 0.56523
 O126 O 0.56422 0.02845 0.53174
 C127 C 0.55928 0.05336 0.55573
 O128 O 0.46728 -0.06823 0.56699
 O129 O 0.43922 -0.03380 0.53493
 C130 C 0.44463 -0.05902 0.55818
 O131 O 0.53725 -0.06464 0.56891
 O132 O 0.56442 -0.03279 0.53269
 C133 C 0.55971 -0.05585 0.55844
 O134 O 0.46710 0.06549 0.56499
 O135 O 0.43915 0.03048 0.53352
 C136 C 0.44451 0.05610 0.55635
 Zr137 Zr 0.50182 0.04376 0.54743
 O138 O 0.50216 0.03815 0.60465
 O139 O 0.50161 0.10095 0.55149
 Zr140 Zr 0.50199 -0.04698 0.54940
 O141 O 0.50139 -0.04024 0.60652
 O142 O 0.50441 -0.10400 0.55424
 O143 O 0.52454 -0.00149 0.55473
 O144 O 0.47979 -0.00141 0.55552
 O145 O 0.46596 0.06227 0.43864
 O146 O 0.43848 0.02868 0.47265
 C147 C 0.44348 0.05332 0.44853
 O148 O 0.53608 -0.06792 0.43723
 O149 O 0.56400 -0.03361 0.46964
 C150 C 0.55866 -0.05810 0.44560
 O151 O 0.46575 -0.07057 0.44168
 O152 O 0.43848 -0.03448 0.47382
 C153 C 0.44327 -0.06049 0.45103
 O154 O 0.53563 0.05844 0.43322
 O155 O 0.56368 0.02689 0.46804
 C156 C 0.55828 0.04958 0.44229
 Zr157 Zr 0.50096 0.04178 0.45543
 O158 O 0.49767 0.04030 0.39804
 O159 O 0.50332 0.09903 0.45429
 Zr160 Zr 0.50102 -0.04953 0.45749
 O161 O 0.49787 -0.05012 0.40006
 O162 O 0.50372 -0.10679 0.45826
 Zr163 Zr 0.53885 -0.00279 0.50116
 Zr164 Zr 0.46394 -0.00251 0.50328
 O165 O 0.47912 -0.00391 0.45033
 O166 O 0.52331 -0.00415 0.44856
 O167 O 0.47914 0.05012 0.50186
 O168 O 0.52322 -0.05504 0.50297
 O169 O 0.52312 0.04950 0.50055
 O170 O 0.47920 -0.05533 0.50422
 H171 H 0.46850 -0.00098 0.57701
 H172 H 0.53435 -0.07657 0.50324
 H173 H 0.46766 -0.00434 0.42923
 H174 H 0.53439 0.07071 0.49943
 H175 H 0.49396 -0.11439 0.53476
 H176 H 0.48988 -0.11597 0.47363
 H177 H 0.51262 -0.03745 0.38993
 H178 H 0.51128 0.02465 0.38853
 H179 H 0.49015 0.10860 0.47077
 H180 H 0.50791 0.11052 0.52810
 H181 H 0.50143 0.06310 0.61461
 H182 H 0.50121 -0.06501 0.61690
 O183 O 0.53259 0.56709 0.06677
 O184 O 0.56087 0.53197 0.03516
 C185 C 0.55526 0.55704 0.05864
 O186 O 0.46334 0.43522 0.06487
 O187 O 0.43609 0.46954 0.03131
 C188 C 0.44094 0.44429 0.05484
 O189 O 0.53281 0.43964 0.07170
 O190 O 0.56101 0.47074 0.03654
 C191 C 0.55550 0.44826 0.06246
 O192 O 0.46251 0.56910 0.06160
 O193 O 0.43553 0.53320 0.02937
 C194 C 0.44009 0.55925 0.05215
 Zr195 Zr 0.49810 0.54757 0.04695
 O196 O 0.49667 0.54269 0.10421
 O197 O 0.49768 0.60479 0.05064
 Zr198 Zr 0.49834 0.45680 0.04951
 O199 O 0.49595 0.46403 0.10650
 O200 O 0.50071 0.39985 0.05499
 O201 O 0.52063 0.50238 0.05588
 O202 O 0.47599 0.50236 0.05411
 O203 O 0.46558 0.56551 -0.06389
 O204 O 0.43730 0.53197 -0.03119
 C205 C 0.44287 0.55655 -0.05506
 O206 O 0.53564 0.43525 -0.06061
 O207 O 0.56263 0.46963 -0.02666
 C208 C 0.55798 0.44505 -0.05095
 O209 O 0.46553 0.43347 -0.06155
 O210 O 0.43732 0.46836 -0.02969
 C211 C 0.44287 0.44307 -0.05292
 O212 O 0.53585 0.56119 -0.06520
 O213 O 0.56253 0.53004 -0.02779
 C214 C 0.55817 0.55234 -0.05424
 Zr215 Zr 0.50017 0.54506 -0.04507
 O216 O 0.49844 0.54333 -0.10260
 O217 O 0.50269 0.60228 -0.04642
 Zr218 Zr 0.50008 0.45370 -0.04249
 O219 O 0.49885 0.45223 -0.10006
 O220 O 0.50246 0.39644 -0.04033
 Zr221 Zr 0.53650 0.50062 0.00324
 Zr222 Zr 0.46174 0.50088 0.00095
 O223 O 0.47843 0.49935 -0.05109
 O224 O 0.52261 0.49904 -0.05031
 O225 O 0.47690 0.55358 -0.00004
 O226 O 0.52089 0.44839 0.00441
 O227 O 0.52085 0.55297 0.00142
 O228 O 0.47694 0.44810 0.00296
 H229 H 0.46403 0.50285 0.07483
 H230 H 0.53207 0.42694 0.00553
 H231 H 0.46764 0.49896 -0.07292
 H232 H 0.53216 0.57416 0.00082
 H233 H 0.49187 0.38929 0.03397
 H234 H 0.48739 0.38755 -0.02745
 H235 H 0.51341 0.46597 -0.10932
 H236 H 0.51246 0.52796 -0.11127
 H237 H 0.48917 0.61196 -0.03060
 H238 H 0.50521 0.61422 0.02796
 H239 H 0.49534 0.56775 0.11376
 H240 H 0.49539 0.43937 0.11708
 C241 C 1.19606 0.18535 0.18915
 C242 C 1.20845 0.16879 0.21835
 C243 C 1.22625 0.18784 0.23839
 C244 C 1.23280 0.22371 0.22903
 C245 C 1.21936 0.24052 0.20068
 C246 C 1.20165 0.22149 0.18067
 C247 C 1.17661 0.16557 0.16854
 C248 C 1.15442 0.18330 0.15840
 C249 C 1.13587 0.16478 0.13951
 C250 C 1.13898 0.12804 0.13040
 C251 C 1.16128 0.11033 0.14012
 C252 C 1.17990 0.12891 0.15910
 C253 C 1.11865 0.10832 0.11164
 C254 C 1.12386 0.08386 0.08317
 C255 C 1.10437 0.06640 0.06495
 C256 C 1.07932 0.07306 0.07493
 C257 C 1.07426 0.09702 0.10386
 C258 C 1.09366 0.11436 0.12197
 H259 H 1.20384 0.14138 0.22640
 H260 H 1.23437 0.17452 0.26172
 H261 H 1.22274 0.26862 0.19383
 H262 H 1.19232 0.23514 0.15845
 H263 H 1.15118 0.21139 0.16563
 H264 H 1.11904 0.17930 0.13197
 H265 H 1.16412 0.08196 0.13368
 H266 H 1.19691 0.11465 0.16625
 H267 H 1.14296 0.07884 0.07451
 H268 H 1.10890 0.04804 0.04284
 H269 H 1.05524 0.10258 0.11258
 H270 H 1.08908 0.13245 0.14428
 C271 C 1.19442 0.68834 0.68639
 C272 C 1.20167 0.72339 0.67620
 C273 C 1.21966 0.74200 0.69609
 C274 C 1.23166 0.72569 0.72605
 C275 C 1.22346 0.69100 0.73696
 C276 C 1.20542 0.67239 0.71704
 C277 C 1.17471 0.66905 0.66595
 C278 C 1.17693 0.63179 0.65859
 C279 C 1.15808 0.61358 0.63987
 C280 C 1.13662 0.63228 0.62828
 C281 C 1.13453 0.66959 0.63537
 C282 C 1.15335 0.68777 0.65403
 C283 C 1.11622 0.61296 0.60939
 C284 C 1.09115 0.62072 0.61808
 C285 C 1.07180 0.60301 0.60014
 C286 C 1.07707 0.57707 0.57308
 C287 C 1.10218 0.56908 0.56455
 C288 C 1.12156 0.58684 0.58256
 H289 H 1.19337 0.73653 0.65283
 H290 H 1.22422 0.76941 0.68803
 H291 H 1.23050 0.67837 0.76140
 H292 H 1.19951 0.64591 0.72632
 H293 H 1.19331 0.61677 0.66718
 H294 H 1.16008 0.58476 0.63503
 H295 H 1.11833 0.68478 0.62638
 H296 H 1.15098 0.71639 0.65967
 H297 H 1.08647 0.64028 0.63907
 H298 H 1.05270 0.60970 0.60757
 H299 H 1.10688 0.54926 0.54383
 H300 H 1.14072 0.58057 0.57510
 C301 C 0.69745 0.18789 0.68276
 C302 C 0.69617 0.22590 0.68435
 C303 C 0.71347 0.24560 0.70460
 C304 C 0.73267 0.22817 0.72436
 C305 C 0.73351 0.18987 0.72306
 C306 C 0.71652 0.17025 0.70213
 C307 C 0.67852 0.16677 0.66198
 C308 C 0.67053 0.13253 0.67430
 C309 C 0.65222 0.11328 0.65548
 C310 C 0.64111 0.12812 0.62438
 C311 C 0.64907 0.16204 0.61178
 C312 C 0.66776 0.18099 0.63012
 C313 C 0.62047 0.10896 0.60607
 C314 C 0.59748 0.12659 0.60082
 C315 C 0.57756 0.10833 0.58472
 C316 C 0.58044 0.07234 0.57283
 C317 C 0.60361 0.05488 0.57750
 C318 C 0.62338 0.07291 0.59444
 H319 H 0.68142 0.24058 0.67065
 H320 H 0.71169 0.27485 0.70530
 H321 H 0.74684 0.17432 0.73850
 H322 H 0.71833 0.14103 0.70137
 H323 H 0.67789 0.12092 0.69908
 H324 H 0.64611 0.08729 0.66586
 H325 H 0.64084 0.17382 0.58763
 H326 H 0.67376 0.20679 0.61923
 H327 H 0.59482 0.15431 0.60982
 H328 H 0.55995 0.12249 0.58123
 H329 H 0.60627 0.02712 0.56866
 H330 H 0.64101 0.05888 0.59822
 C331 C 0.69595 0.69048 0.18060
 C332 C 0.69614 0.72838 0.18167
 C333 C 0.71440 0.74662 0.20140
 C334 C 0.73293 0.72753 0.22105
 C335 C 0.73236 0.68919 0.21971
 C336 C 0.71438 0.67105 0.19924
 C337 C 0.67563 0.67117 0.16196
 C338 C 0.68100 0.64473 0.13560
 C339 C 0.66160 0.62623 0.11840
 C340 C 0.63647 0.63331 0.12785
 C341 C 0.63131 0.65958 0.15471
 C342 C 0.65068 0.67856 0.17128
 C343 C 0.61570 0.61353 0.10988
 C344 C 0.59264 0.63090 0.10363
 C345 C 0.57293 0.61229 0.08751
 C346 C 0.57597 0.57613 0.07651
 C347 C 0.59902 0.55876 0.08212
 C348 C 0.61861 0.57714 0.09899
 H349 H 0.68197 0.74386 0.16749
 H350 H 0.71381 0.77596 0.20207
 H351 H 0.74504 0.67258 0.23523
 H352 H 0.71420 0.64169 0.19923
 H353 H 0.70020 0.63879 0.12801
 H354 H 0.66631 0.60672 0.09742
 H355 H 0.61231 0.66518 0.16343
 H356 H 0.64622 0.69851 0.19201
 H357 H 0.58985 0.65911 0.11072
 H358 H 0.55544 0.62646 0.08295
 H359 H 0.60174 0.53077 0.07402
 H360 H 0.63589 0.56262 0.10394
 C361 C 0.80551 -0.18588 0.18593
 C362 C 0.78680 -0.20413 0.16687
 C363 C 0.76897 -0.22466 0.18550
 C364 C 0.76882 -0.22636 0.22399
 C365 C 0.78777 -0.20737 0.24270
 C366 C 0.80589 -0.18762 0.22395
 C367 C 0.82539 -0.16656 0.16612
 C368 C 0.85046 -0.17632 0.17135
 C369 C 0.86944 -0.15848 0.15243
 C370 C 0.86378 -0.12988 0.12847
 C371 C 0.83853 -0.12019 0.12338
 C372 C 0.81950 -0.13865 0.14177
 C373 C 0.88419 -0.11021 0.10923
 C374 C 0.88072 -0.09640 0.07390
 C375 C 0.90003 -0.07803 0.05604
 C376 C 0.92335 -0.07381 0.07279
 C377 C 0.92690 -0.08758 0.10795
 C378 C 0.90749 -0.10518 0.12612
 H379 H 0.78657 -0.20359 0.13739
 H380 H 0.75597 -0.23976 0.16913
 H381 H 0.78870 -0.20834 0.27212
 H382 H 0.82032 -0.17377 0.23912
 H383 H 0.85529 -0.19818 0.18970
 H384 H 0.88854 -0.16743 0.15636
 H385 H 0.83344 -0.09797 0.10568
 H386 H 0.80019 -0.13073 0.13754
 H387 H 0.86323 -0.10024 0.05974
 H388 H 0.89689 -0.06776 0.02887
 H389 H 0.94461 -0.08417 0.12171
 H390 H 0.91072 -0.11447 0.15363
 C391 C 0.80327 0.31740 0.68551
 C392 C 0.80415 0.31593 0.72369
 C393 C 0.78668 0.29571 0.74334
 C394 C 0.76769 0.27588 0.72568
 C395 C 0.76724 0.27708 0.68721
 C396 C 0.78442 0.29796 0.66763
 C397 C 0.82239 0.33818 0.66447
 C398 C 0.83079 0.32589 0.63016
 C399 C 0.84931 0.34472 0.61103
 C400 C 0.86019 0.37578 0.62607
 C401 C 0.85179 0.38836 0.66005
 C402 C 0.83291 0.37002 0.67887
 C403 C 0.88100 0.39418 0.60708
 C404 C 0.90370 0.39983 0.62515
 C405 C 0.92370 0.41643 0.60723
 C406 C 0.92118 0.42841 0.57116
 C407 C 0.89834 0.42316 0.55318
 C408 C 0.87849 0.40574 0.57088
 H409 H 0.81873 0.32968 0.73856
 H410 H 0.78815 0.29509 0.77272
 H411 H 0.75409 0.26159 0.67149
 H412 H 0.78292 0.29863 0.63828
 H413 H 0.82361 0.30115 0.61841
 H414 H 0.85573 0.33437 0.58498
 H415 H 0.85982 0.41250 0.67197
 H416 H 0.82658 0.38088 0.70472
 H417 H 0.90606 0.39089 0.65299
 H418 H 0.94105 0.42035 0.62179
 H419 H 0.89597 0.43206 0.52533
 H420 H 0.86109 0.40164 0.55651
 C421 C 0.30574 -0.19212 0.68613
 C422 C 0.29919 -0.18113 0.72146
 C423 C 0.28121 -0.20012 0.74130
 C424 C 0.26847 -0.22978 0.72584
 C425 C 0.27605 -0.24154 0.69086
 C426 C 0.29415 -0.22267 0.67113
 C427 C 0.32530 -0.17254 0.66555
 C428 C 0.34405 -0.19181 0.64677
 C429 C 0.36302 -0.17337 0.62837
 C430 C 0.36350 -0.13532 0.62824
 C431 C 0.34452 -0.11603 0.64651
 C432 C 0.32564 -0.13449 0.66513
 C433 C 0.38415 -0.11587 0.60991
 C434 C 0.37928 -0.08536 0.58823
 C435 C 0.39890 -0.06694 0.57123
 C436 C 0.42377 -0.07852 0.57586
 C437 C 0.42856 -0.10904 0.59762
 C438 C 0.40895 -0.12756 0.61438
 H439 H 0.30849 -0.15839 0.73414
 H440 H 0.27730 -0.19167 0.76897
 H441 H 0.26836 -0.26577 0.67877
 H442 H 0.29916 -0.23205 0.64410
 H443 H 0.34435 -0.22116 0.64695
 H444 H 0.37732 -0.18885 0.61421
 H445 H 0.34460 -0.08668 0.64705
 H446 H 0.31126 -0.11904 0.67917
 H447 H 0.36027 -0.07601 0.58414
 H448 H 0.39457 -0.04354 0.55462
 H449 H 0.44749 -0.11873 0.60173
 H450 H 0.41322 -0.15074 0.63132
 C451 C 0.30452 0.30819 0.18545
 C452 C 0.29968 0.31784 0.22175
 C453 C 0.28266 0.29805 0.24269
 C454 C 0.26917 0.26895 0.22751
 C455 C 0.27515 0.25844 0.19149
 C456 C 0.29226 0.27809 0.17066
 C457 C 0.32311 0.32849 0.16353
 C458 C 0.34072 0.30982 0.14199
 C459 C 0.35889 0.32876 0.12243
 C460 C 0.35977 0.36678 0.12386
 C461 C 0.34180 0.38555 0.14468
 C462 C 0.32370 0.36656 0.16449
 C463 C 0.38022 0.38651 0.10522
 C464 C 0.37544 0.41824 0.08527
 C465 C 0.39507 0.43692 0.06837
 C466 C 0.41984 0.42440 0.07156
 C467 C 0.42449 0.39259 0.09147
 C468 C 0.40492 0.37385 0.10799
 H469 H 0.30953 0.34017 0.23425
 H470 H 0.27995 0.30556 0.27093
 H471 H 0.26699 0.23461 0.17929
 H472 H 0.29595 0.26965 0.14290
 H473 H 0.34084 0.28049 0.14098
 H474 H 0.37241 0.31365 0.10635
 H475 H 0.34220 0.41484 0.14645
 H476 H 0.31018 0.38161 0.18062
 H477 H 0.35651 0.42843 0.08257
 H478 H 0.39089 0.46135 0.05323
 H479 H 0.44332 0.38209 0.09439
 H480 H 0.40918 0.34973 0.12358
 C481 C 0.80340 0.18597 -0.18773
 C482 C 0.78425 0.20529 -0.16988
 C483 C 0.76706 0.22602 -0.18948
 C484 C 0.76779 0.22717 -0.22796
 C485 C 0.78713 0.20751 -0.24559
 C486 C 0.80461 0.18744 -0.22590
 C487 C 0.82249 0.16532 -0.16664
 C488 C 0.83333 0.13346 -0.18093
 C489 C 0.85214 0.11520 -0.16202
 C490 C 0.86016 0.12790 -0.12806
 C491 C 0.84897 0.15899 -0.11313
 C492 C 0.83051 0.17773 -0.13235
 C493 C 0.88096 0.10968 -0.10903
 C494 C 0.87830 0.09827 -0.07277
 C495 C 0.89819 0.08114 -0.05500
 C496 C 0.92121 0.07605 -0.07298
 C497 C 0.92387 0.08784 -0.10913
 C498 C 0.90385 0.10415 -0.12710
 H499 H 0.78251 0.20463 -0.14053
 H500 H 0.75366 0.24143 -0.17375
 H501 H 0.78884 0.20812 -0.27497
 H502 H 0.81944 0.17377 -0.24074
 H503 H 0.82730 0.12253 -0.20676
 H504 H 0.86044 0.09105 -0.17385
 H505 H 0.85511 0.16944 -0.08712
 H506 H 0.82307 0.20249 -0.12070
 H507 H 0.86075 0.10230 -0.05840
 H508 H 0.89571 0.07238 -0.02709
 H509 H 0.94137 0.08402 -0.12369
 H510 H 0.90632 0.11298 -0.15500
 C511 C 0.80380 0.68152 0.30708
 C512 C 0.78511 0.70101 0.32574
 C513 C 0.76785 0.72224 0.30692
 C514 C 0.76804 0.72366 0.26847
 C515 C 0.78669 0.70344 0.24998
 C516 C 0.80428 0.68288 0.26889
 C517 C 0.82331 0.66112 0.32739
 C518 C 0.83378 0.62905 0.31302
 C519 C 0.85293 0.61097 0.33136
 C520 C 0.86161 0.62415 0.36477
 C521 C 0.85091 0.65560 0.37964
 C522 C 0.83214 0.67413 0.36098
 C523 C 0.88228 0.60574 0.38369
 C524 C 0.87953 0.59501 0.42011
 C525 C 0.89930 0.57808 0.43815
 C526 C 0.92229 0.57244 0.42026
 C527 C 0.92506 0.58345 0.38389
 C528 C 0.90510 0.59962 0.36562
 H529 H 0.78391 0.70029 0.35515
 H530 H 0.75496 0.73801 0.32319
 H531 H 0.78792 0.70424 0.22055
 H532 H 0.81872 0.66896 0.25348
 H533 H 0.82716 0.61779 0.28764
 H534 H 0.86088 0.58653 0.31963
 H535 H 0.85759 0.66638 0.40523
 H536 H 0.82504 0.69914 0.37255
 H537 H 0.86202 0.59952 0.43444
 H538 H 0.89677 0.56995 0.46625
 H539 H 0.94256 0.57919 0.36948
 H540 H 0.90758 0.60796 0.33758
 C541 C 0.30555 0.18214 0.31342
 C542 C 0.29383 0.21226 0.32955
 C543 C 0.27636 0.23272 0.31025
 C544 C 0.26937 0.22293 0.27454
 C545 C 0.28215 0.19360 0.25805
 C546 C 0.29962 0.17315 0.27737
 C547 C 0.32477 0.16126 0.33359
 C548 C 0.34685 0.14993 0.31599
 C549 C 0.36544 0.13163 0.33521
 C550 C 0.36243 0.12427 0.37250
 C551 C 0.34014 0.13491 0.38999
 C552 C 0.32151 0.15330 0.37074
 C553 C 0.38289 0.10658 0.39308
 C554 C 0.37786 0.07945 0.41893
 C555 C 0.39745 0.06233 0.43740
 C556 C 0.42243 0.07212 0.43041
 C557 C 0.42731 0.09975 0.40506
 C558 C 0.40781 0.11674 0.38667
 H559 H 0.29877 0.22073 0.35680
 H560 H 0.26884 0.25673 0.32325
 H561 H 0.27853 0.18640 0.23001
 H562 H 0.30851 0.15028 0.26401
 H563 H 0.35004 0.15596 0.28751
 H564 H 0.38228 0.12333 0.32087
 H565 H 0.33737 0.12979 0.41874
 H566 H 0.30457 0.16137 0.38493
 H567 H 0.35883 0.07095 0.42427
 H568 H 0.39305 0.04114 0.45674
 H569 H 0.44628 0.10824 0.39917
 H570 H 0.41224 0.13806 0.36748
 C571 C 0.30412 0.68435 -0.18878
 C572 C 0.29303 0.71528 -0.17329
 C573 C 0.27532 0.73529 -0.19257
 C574 C 0.26753 0.72427 -0.22752
 C575 C 0.27948 0.69385 -0.24328
 C576 C 0.29717 0.67385 -0.22399
 C577 C 0.32378 0.66419 -0.16894
 C578 C 0.34536 0.65205 -0.18731
 C579 C 0.36431 0.63415 -0.16850
 C580 C 0.36214 0.62804 -0.13089
 C581 C 0.34042 0.63974 -0.11255
 C582 C 0.32144 0.65769 -0.13139
 C583 C 0.38269 0.61007 -0.11087
 C584 C 0.37755 0.58402 -0.08403
 C585 C 0.39707 0.56677 -0.06567
 C586 C 0.42211 0.57527 -0.07379
 C587 C 0.42718 0.60164 -0.10037
 C588 C 0.40769 0.61883 -0.11868
 H589 H 0.29872 0.72479 -0.14670
 H590 H 0.26832 0.76001 -0.18030
 H591 H 0.27527 0.68564 -0.27086
 H592 H 0.30554 0.65026 -0.23677
 H593 H 0.34783 0.65703 -0.21614
 H594 H 0.38070 0.62503 -0.18343
 H595 H 0.33833 0.63564 -0.08352
 H596 H 0.30490 0.66648 -0.11661
 H597 H 0.35845 0.57653 -0.07767
 H598 H 0.39250 0.54659 -0.04533
 H599 H 0.44623 0.60901 -0.10718
 H600 H 0.41220 0.63925 -0.13879
 C601 C 1.19592 -0.18748 -0.18843
 C602 C 1.20778 -0.17261 -0.21907
 C603 C 1.22540 -0.19275 -0.23874
 C604 C 1.23236 -0.22797 -0.22758
 C605 C 1.21959 -0.24309 -0.19753
 C606 C 1.20198 -0.22295 -0.17789
 C607 C 1.17636 -0.16670 -0.16864
 C608 C 1.15422 -0.18383 -0.15742
 C609 C 1.13539 -0.16417 -0.13979
 C610 C 1.13828 -0.12694 -0.13305
 C611 C 1.16055 -0.10985 -0.14383
 C612 C 1.17940 -0.12955 -0.16155
 C613 C 1.11786 -0.10612 -0.11529
 C614 C 1.12302 -0.08046 -0.08810
 C615 C 1.10352 -0.06202 -0.07047
 C616 C 1.07849 -0.06889 -0.07979
 C617 C 1.07345 -0.09398 -0.10759
 C618 C 1.09290 -0.11235 -0.12512
 H619 H 1.20277 -0.14581 -0.22862
 H620 H 1.23303 -0.18087 -0.26327
 H621 H 1.22315 -0.27078 -0.18930
 H622 H 1.19297 -0.23527 -0.15454
 H623 H 1.15122 -0.21232 -0.16288
 H624 H 1.11856 -0.17815 -0.13136
 H625 H 1.16319 -0.08114 -0.13917
 H626 H 1.19639 -0.11575 -0.16965
 H627 H 1.14210 -0.07530 -0.07985
 H628 H 1.10804 -0.04285 -0.04919
 H629 H 1.05443 -0.09974 -0.11568
 H630 H 1.08840 -0.13147 -0.14647
 C631 C 1.19791 0.30997 0.31666
 C632 C 1.21005 0.32582 0.28673
 C633 C 1.22742 0.30605 0.26615
 C634 C 1.23380 0.27009 0.27560
 C635 C 1.22074 0.25407 0.30490
 C636 C 1.20344 0.27385 0.32549
 C637 C 1.17853 0.33040 0.33737
 C638 C 1.15634 0.31318 0.34832
 C639 C 1.13761 0.33251 0.36654
 C640 C 1.14055 0.36958 0.37415
 C641 C 1.16292 0.38672 0.36385
 C642 C 1.18171 0.36733 0.34556
 C643 C 1.11991 0.39028 0.39170
 C644 C 1.12467 0.41606 0.41899
 C645 C 1.10490 0.43467 0.43593
 C646 C 1.08001 0.42785 0.42581
 C647 C 1.07541 0.40251 0.39806
 C648 C 1.09509 0.38403 0.38123
 H649 H 1.20546 0.35318 0.27840
 H650 H 1.23520 0.31884 0.24220
 H651 H 1.22393 0.22593 0.31187
 H652 H 1.19429 0.26073 0.34827
 H653 H 1.15316 0.28489 0.34206
 H654 H 1.12073 0.31843 0.37459
 H655 H 1.16564 0.41531 0.36915
 H656 H 1.19872 0.38122 0.33779
 H657 H 1.14363 0.42129 0.42774
 H658 H 1.10909 0.45404 0.45718
 H659 H 1.05652 0.39677 0.38929
 H660 H 1.09085 0.36491 0.35976
 C661 C 0.69760 -0.18886 0.31376
 C662 C 0.69666 -0.22682 0.31173
 C663 C 0.71415 -0.24606 0.29100
 C664 C 0.73321 -0.22814 0.27130
 C665 C 0.73371 -0.18987 0.27306
 C666 C 0.71650 -0.17071 0.29444
 C667 C 0.67841 -0.16829 0.33489
 C668 C 0.66978 -0.13435 0.32262
 C669 C 0.65114 -0.11563 0.34177
 C670 C 0.64041 -0.13078 0.37310
 C671 C 0.64901 -0.16442 0.38564
 C672 C 0.66801 -0.18283 0.36696
 C673 C 0.61965 -0.11209 0.39195
 C674 C 0.59695 -0.13015 0.39782
 C675 C 0.57698 -0.11236 0.41486
 C676 C 0.57961 -0.07648 0.42698
 C677 C 0.60245 -0.05853 0.42146
 C678 C 0.62225 -0.07610 0.40366
 H679 H 0.68200 -0.24180 0.32540
 H680 H 0.71264 -0.27531 0.28986
 H681 H 0.74689 -0.17401 0.25756
 H682 H 0.71797 -0.14149 0.29555
 H683 H 0.67690 -0.12259 0.29768
 H684 H 0.64453 -0.08982 0.33150
 H685 H 0.64107 -0.17635 0.41000
 H686 H 0.67453 -0.20845 0.37771
 H687 H 0.59458 -0.15786 0.38874
 H688 H 0.55960 -0.12682 0.41901
 H689 H 0.60487 -0.03080 0.43046
 H690 H 0.63967 -0.06178 0.39935
 C691 C 0.69670 0.31392 -0.18392
 C692 C 0.69570 0.27594 -0.18597
 C693 C 0.71313 0.25657 -0.20677
 C694 C 0.73221 0.27433 -0.22660
 C695 C 0.73267 0.31263 -0.22505
 C696 C 0.71552 0.33192 -0.20360
 C697 C 0.67779 0.33462 -0.16218
 C698 C 0.66938 0.36895 -0.17372
 C699 C 0.65105 0.38777 -0.15395
 C700 C 0.64037 0.37239 -0.12267
 C701 C 0.64880 0.33839 -0.11082
 C702 C 0.66750 0.31988 -0.13011
 C703 C 0.61964 0.39098 -0.10342
 C704 C 0.59696 0.37286 -0.09756
 C705 C 0.57691 0.39058 -0.08064
 C706 C 0.57936 0.42651 -0.06855
 C707 C 0.60223 0.44448 -0.07380
 C708 C 0.62213 0.42698 -0.09154
 H709 H 0.68111 0.26101 -0.17211
 H710 H 0.71163 0.22732 -0.20767
 H711 H 0.74587 0.32840 -0.24058
 H712 H 0.71707 0.36114 -0.20256
 H713 H 0.67640 0.38097 -0.19859
 H714 H 0.64458 0.41383 -0.16376
 H715 H 0.64092 0.32621 -0.08654
 H716 H 0.67386 0.29400 -0.11980
 H717 H 0.59462 0.34517 -0.10673
 H718 H 0.55952 0.37607 -0.07674
 H719 H 0.60452 0.47226 -0.06486
 H720 H 0.63952 0.44139 -0.09580
 C721 C 1.19653 0.19057 -0.18674
 C722 C 1.19556 0.22860 -0.18784
 C723 C 1.21335 0.24823 -0.20749
 C724 C 1.23272 0.23067 -0.22715
 C725 C 1.23330 0.19235 -0.22623
 C726 C 1.21582 0.17281 -0.20587
 C727 C 1.17705 0.16952 -0.16675
 C728 C 1.16910 0.13552 -0.17973
 C729 C 1.15039 0.11624 -0.16152
 C730 C 1.13883 0.13086 -0.13045
 C731 C 1.14668 0.16460 -0.11726
 C732 C 1.16577 0.18355 -0.13495
 C733 C 1.11804 0.11152 -0.11249
 C734 C 1.09488 0.12888 -0.10758
 C735 C 1.07501 0.11068 -0.09101
 C736 C 1.07814 0.07506 -0.07832
 C737 C 1.10140 0.05775 -0.08300
 C738 C 1.12112 0.07571 -0.10040
 H739 H 1.18067 0.24338 -0.17428
 H740 H 1.21178 0.27750 -0.20791
 H741 H 1.24677 0.17672 -0.24161
 H742 H 1.21743 0.14357 -0.20541
 H743 H 1.17685 0.12408 -0.20449
 H744 H 1.14439 0.09037 -0.17230
 H745 H 1.13809 0.17616 -0.09310
 H746 H 1.17171 0.20917 -0.12359
 H747 H 1.09212 0.15643 -0.11693
 H748 H 1.05732 0.12471 -0.08749
 H749 H 1.10425 0.03027 -0.07352
 H750 H 1.13890 0.06191 -0.10395
 C751 C 1.19882 0.68517 0.30949
 C752 C 1.19093 0.70431 0.27879
 C753 C 1.20749 0.72592 0.25920
 C754 C 1.23267 0.73099 0.27047
 C755 C 1.24112 0.70772 0.29867
 C756 C 1.22435 0.68583 0.31842
 C757 C 1.17995 0.66529 0.33175
 C758 C 1.18419 0.62975 0.34407
 C759 C 1.16516 0.61061 0.36222
 C760 C 1.14156 0.62671 0.36847
 C761 C 1.13783 0.66275 0.35737
 C762 C 1.15670 0.68171 0.33928
 C763 C 1.12060 0.60624 0.38579
 C764 C 1.09595 0.61081 0.37328
 C765 C 1.07594 0.59324 0.39034
 C766 C 1.07998 0.57043 0.42037
 C767 C 1.10471 0.56510 0.43239
 C768 C 1.12477 0.58277 0.41528
 H769 H 1.17172 0.70256 0.26975
 H770 H 1.20006 0.73874 0.23510
 H771 H 1.26064 0.70756 0.30641
 H772 H 1.23122 0.67026 0.34125
 H773 H 1.20187 0.61636 0.33857
 H774 H 1.16865 0.58286 0.37032
 H775 H 1.12020 0.67640 0.36263
 H776 H 1.15303 0.70934 0.33089
 H777 H 1.09207 0.62806 0.35015
 H778 H 1.05725 0.59781 0.38008
 H779 H 1.10857 0.54774 0.45544
 H780 H 1.14347 0.57879 0.42576
 C781 C 0.69525 0.18504 0.31153
 C782 C 0.70702 0.17163 0.28005
 C783 C 0.72458 0.19251 0.26137
 C784 C 0.73155 0.22712 0.27423
 C785 C 0.71875 0.24095 0.30499
 C786 C 0.70123 0.21996 0.32377
 C787 C 0.67604 0.16320 0.33064
 C788 C 0.67542 0.16154 0.36884
 C789 C 0.65698 0.14142 0.38675
 C790 C 0.63871 0.12282 0.36679
 C791 C 0.63949 0.12424 0.32860
 C792 C 0.65797 0.14416 0.31072
 C793 C 0.61836 0.10304 0.38567
 C794 C 0.62338 0.08125 0.41612
 C795 C 0.60396 0.06332 0.43422
 C796 C 0.57911 0.06711 0.42238
 C797 C 0.57420 0.08870 0.39173
 C798 C 0.59360 0.10639 0.37356
 H799 H 0.70254 0.14496 0.26969
 H800 H 0.73228 0.18157 0.23638
 H801 H 0.72221 0.26827 0.31442
 H802 H 0.69183 0.23146 0.34730
 H803 H 0.68924 0.17572 0.38484
 H804 H 0.65668 0.14105 0.41622
 H805 H 0.62577 0.10991 0.31254
 H806 H 0.65784 0.14524 0.28127
 H807 H 0.64235 0.07794 0.42580
 H808 H 0.60838 0.04689 0.45774
 H809 H 0.55530 0.09220 0.38183
 H810 H 0.58914 0.12334 0.35043
 C811 C 0.70300 0.67832 -0.17696
 C812 C 0.70274 0.71608 -0.17307
 C813 C 0.71877 0.73757 -0.19385
 C814 C 0.73548 0.72209 -0.21957
 C815 C 0.73729 0.68387 -0.22063
 C816 C 0.72081 0.66235 -0.20025
 C817 C 0.68380 0.65614 -0.15811
 C818 C 0.66966 0.63076 -0.17767
 C819 C 0.64974 0.61261 -0.16095
 C820 C 0.64383 0.61905 -0.12418
 C821 C 0.65850 0.64355 -0.10432
 C822 C 0.67815 0.66213 -0.12119
 C823 C 0.62202 0.60109 -0.10678
 C824 C 0.62424 0.58523 -0.07223
 C825 C 0.60357 0.56909 -0.05543
 C826 C 0.58009 0.56895 -0.07256
 C827 C 0.57787 0.58485 -0.10714
 C828 C 0.59868 0.60051 -0.12420
 H829 H 0.68931 0.72916 -0.15514
 H830 H 0.71725 0.76674 -0.19127
 H831 H 0.75103 0.67012 -0.23728
 H832 H 0.72190 0.63313 -0.20278
 H833 H 0.67348 0.62593 -0.20625
 H834 H 0.63884 0.59365 -0.17678
 H835 H 0.65426 0.64915 -0.07600
 H836 H 0.68879 0.68151 -0.10550
 H837 H 0.64205 0.58514 -0.05831
 H838 H 0.60592 0.55715 -0.02875
 H839 H 0.56008 0.58505 -0.12110
 H840 H 0.59642 0.61283 -0.15072
 C841 C 0.79970 -0.18834 -0.17405
 C842 C 0.79920 -0.22635 -0.17276
 C843 C 0.78259 -0.24587 -0.19427
 C844 C 0.76578 -0.22821 -0.21797
 C845 C 0.76435 -0.19002 -0.21592
 C846 C 0.78144 -0.17039 -0.19487
 C847 C 0.82002 -0.16800 -0.15528
 C848 C 0.81584 -0.13340 -0.14021
 C849 C 0.83540 -0.11427 -0.12379
 C850 C 0.85960 -0.12935 -0.12180
 C851 C 0.86362 -0.16411 -0.13645
 C852 C 0.84423 -0.18295 -0.15321
 C853 C 0.88070 -0.10911 -0.10484
 C854 C 0.90521 -0.11272 -0.11866
 C855 C 0.92521 -0.09494 -0.10217
 C856 C 0.92125 -0.07257 -0.07169
 C857 C 0.89671 -0.06819 -0.05831
 C858 C 0.87671 -0.08644 -0.07450
 H859 H 0.81212 -0.24125 -0.15578
 H860 H 0.78371 -0.27518 -0.19381
 H861 H 0.75060 -0.17481 -0.23094
 H862 H 0.78085 -0.14110 -0.19602
 H863 H 0.79744 -0.12108 -0.14093
 H864 H 0.83160 -0.08742 -0.11318
 H865 H 0.88180 -0.17701 -0.13491
 H866 H 0.84845 -0.20913 -0.16511
 H867 H 0.90900 -0.12911 -0.14253
 H868 H 0.94378 -0.09855 -0.11355
 H869 H 0.89294 -0.05094 -0.03506
 H870 H 0.85821 -0.08325 -0.06279
 C871 C 0.80457 0.31184 0.31543
 C872 C 0.79802 0.32278 0.28020
 C873 C 0.77994 0.30395 0.26067
 C874 C 0.76721 0.27418 0.27608
 C875 C 0.77446 0.26276 0.31118
 C876 C 0.79256 0.28171 0.33076
 C877 C 0.82470 0.33085 0.33539
 C878 C 0.82226 0.33840 0.37275
 C879 C 0.84137 0.35621 0.39139
 C880 C 0.86337 0.36656 0.37307
 C881 C 0.86576 0.35899 0.33572
 C882 C 0.84665 0.34136 0.31710
 C883 C 0.88385 0.38515 0.39264
 C884 C 0.90890 0.37573 0.38560
 C885 C 0.92832 0.39398 0.40291
 C886 C 0.92316 0.42215 0.42768
 C887 C 0.89806 0.43121 0.43517
 C888 C 0.87861 0.41285 0.41787
 H889 H 0.80703 0.34583 0.26757
 H890 H 0.77602 0.31250 0.23311
 H891 H 0.76682 0.23849 0.32328
 H892 H 0.79784 0.27194 0.35743
 H893 H 0.80547 0.33082 0.38746
 H894 H 0.83910 0.36145 0.42022
 H895 H 0.88236 0.36702 0.32078
 H896 H 0.84921 0.33551 0.28843
 H897 H 0.91350 0.35410 0.36674
 H898 H 0.94740 0.38610 0.39664
 H899 H 0.89341 0.45276 0.45409
 H900 H 0.85948 0.42089 0.42359
 C901 C 0.29978 -0.17956 0.31715
 C902 C 0.30042 -0.17803 0.27904
 C903 C 0.28341 -0.19762 0.25831
 C904 C 0.26518 -0.22038 0.27472
 C905 C 0.26260 -0.21775 0.31310
 C906 C 0.28001 -0.19839 0.33394
 C907 C 0.32030 -0.16267 0.33873
 C908 C 0.31566 -0.14576 0.37246
 C909 C 0.33527 -0.13005 0.39218
 C910 C 0.35999 -0.13087 0.37865
 C911 C 0.36453 -0.14791 0.34500
 C912 C 0.34505 -0.16373 0.32551
 C913 C 0.38101 -0.11375 0.39899
 C914 C 0.40513 -0.12927 0.39823
 C915 C 0.42523 -0.11219 0.41533
 C916 C 0.42174 -0.07932 0.43406
 C917 C 0.39753 -0.06424 0.43574
 C918 C 0.37745 -0.08115 0.41831
 H919 H 0.31451 -0.16225 0.26501
 H920 H 0.28538 -0.19667 0.22896
 H921 H 0.24752 -0.23083 0.32758
 H922 H 0.27839 -0.19917 0.36331
 H923 H 0.29685 -0.14422 0.38345
 H924 H 0.33107 -0.11753 0.41817
 H925 H 0.38316 -0.14865 0.33332
 H926 H 0.34952 -0.17713 0.30004
 H927 H 0.40854 -0.15474 0.38438
 H928 H 0.44354 -0.12479 0.41385
 H929 H 0.39417 -0.03885 0.44980
 H930 H 0.35928 -0.06812 0.41915
 C931 C 0.30369 0.31839 -0.18741
 C932 C 0.28441 0.29942 -0.16971
 C933 C 0.26714 0.27912 -0.18949
 C934 C 0.26795 0.27809 -0.22795
 C935 C 0.28723 0.29772 -0.24543
 C936 C 0.30481 0.31729 -0.22560
 C937 C 0.32306 0.33815 -0.16617
 C938 C 0.33436 0.36963 -0.18023
 C939 C 0.35349 0.38694 -0.16125
 C940 C 0.36134 0.37370 -0.12743
 C941 C 0.34973 0.34300 -0.11273
 C942 C 0.33099 0.32515 -0.13205
 C943 C 0.38216 0.39126 -0.10806
 C944 C 0.37901 0.40367 -0.07219
 C945 C 0.39874 0.42071 -0.05420
 C946 C 0.42208 0.42471 -0.07152
 C947 C 0.42528 0.41169 -0.10718
 C948 C 0.40539 0.39548 -0.12545
 H949 H 0.28269 0.29992 -0.14036
 H950 H 0.25367 0.26385 -0.17393
 H951 H 0.28895 0.29725 -0.27482
 H952 H 0.31969 0.33072 -0.24035
 H953 H 0.32844 0.38102 -0.20592
 H954 H 0.36210 0.41084 -0.17286
 H955 H 0.35572 0.33220 -0.08679
 H956 H 0.32322 0.30063 -0.12059
 H957 H 0.36119 0.40064 -0.05838
 H958 H 0.39585 0.43043 -0.02665
 H959 H 0.44303 0.41468 -0.12121
 H960 H 0.40819 0.38588 -0.15305
 C961 C 1.20183 -0.17287 0.18866
 C962 C 1.22128 -0.19166 0.17078
 C963 C 1.23826 -0.21308 0.19039
 C964 C 1.23549 -0.21797 0.22851
 C965 C 1.21769 -0.19531 0.24631
 C966 C 1.20116 -0.17354 0.22682
 C967 C 1.18155 -0.15410 0.16803
 C968 C 1.15682 -0.15449 0.18140
 C969 C 1.13748 -0.13772 0.16231
 C970 C 1.14209 -0.12047 0.12887
 C971 C 1.16681 -0.11996 0.11537
 C972 C 1.18630 -0.13652 0.13473
 C973 C 1.12106 -0.10338 0.10838
 C974 C 1.12451 -0.07104 0.08872
 C975 C 1.10445 -0.05462 0.07058
 C976 C 1.08041 -0.06996 0.07193
 C977 C 1.07701 -0.10242 0.09123
 C978 C 1.09707 -0.11902 0.10896
 H979 H 1.22295 -0.19089 0.14142
 H980 H 1.25312 -0.22601 0.17513
 H981 H 1.21566 -0.19609 0.27566
 H982 H 1.18736 -0.15789 0.24180
 H983 H 1.15222 -0.16831 0.20651
 H984 H 1.11885 -0.13818 0.17400
 H985 H 1.17107 -0.10724 0.08955
 H986 H 1.20509 -0.13537 0.12367
 H987 H 1.14258 -0.05793 0.08799
 H988 H 1.10768 -0.02951 0.05608
 H989 H 1.05882 -0.11522 0.09244
 H990 H 1.09375 -0.14434 0.12300
 C991 C 1.19713 0.31701 0.68336
 C992 C 1.19644 0.27897 0.68428
 C993 C 1.21411 0.25934 0.70405
 C994 C 1.23306 0.27689 0.72405
 C995 C 1.23344 0.31521 0.72317
 C996 C 1.21609 0.33477 0.70268
 C997 C 1.17763 0.33804 0.66345
 C998 C 1.16929 0.37193 0.67658
 C999 C 1.15045 0.39108 0.65859
 C1000 C 1.13916 0.37644 0.62758
 C1001 C 1.14743 0.34284 0.61419
 C1002 C 1.16665 0.32403 0.63166
 C1003 C 1.11819 0.39556 0.60991
 C1004 C 1.09520 0.37798 0.60536
 C1005 C 1.07517 0.39595 0.58904
 C1006 C 1.07797 0.43157 0.57622
 C1007 C 1.10106 0.44910 0.58055
 C1008 C 1.12093 0.43137 0.59772
 H1009 H 1.18182 0.26416 0.67056
 H1010 H 1.21272 0.23006 0.70438
 H1011 H 1.24662 0.33081 0.73872
 H1012 H 1.21750 0.36401 0.70233
 H1013 H 1.17680 0.38336 0.70133
 H1014 H 1.14413 0.41684 0.66951
 H1015 H 1.13906 0.33126 0.59007
 H1016 H 1.17289 0.29852 0.62016
 H1017 H 1.09271 0.35041 0.61480
 H1018 H 1.05763 0.38174 0.58577
 H1019 H 1.10364 0.47659 0.57095
 H1020 H 1.13856 0.44535 0.60099
 C1021 C 0.69930 -0.19115 0.68369
 C1022 C 0.72494 -0.18290 0.68463
 C1023 C 0.74121 -0.20256 0.70716
 C1024 C 0.73219 -0.22999 0.73063
 C1025 C 0.70656 -0.23911 0.72768
 C1026 C 0.69047 -0.21968 0.70526
 C1027 C 0.68142 -0.17039 0.66071
 C1028 C 0.66192 -0.18851 0.64280
 C1029 C 0.64313 -0.16912 0.62509
 C1030 C 0.64342 -0.13108 0.62451
 C1031 C 0.66360 -0.11288 0.64068
 C1032 C 0.68240 -0.13236 0.65869
 C1033 C 0.62215 -0.11079 0.60832
 C1034 C 0.62621 -0.08101 0.58528
 C1035 C 0.60597 -0.06295 0.56926
 C1036 C 0.58122 -0.07400 0.57634
 C1037 C 0.57724 -0.10332 0.60002
 C1038 C 0.59744 -0.12155 0.61568
 H1039 H 0.73246 -0.16161 0.66757
 H1040 H 0.76094 -0.19603 0.70665
 H1041 H 0.69847 -0.26170 0.74212
 H1042 H 0.67087 -0.22699 0.70512
 H1043 H 0.66094 -0.21782 0.64302
 H1044 H 0.62815 -0.18391 0.61213
 H1045 H 0.66427 -0.08355 0.64068
 H1046 H 0.69709 -0.11760 0.67237
 H1047 H 0.64506 -0.07222 0.57903
 H1048 H 0.60974 -0.04050 0.55112
 H1049 H 0.55848 -0.11260 0.60614
 H1050 H 0.59372 -0.14408 0.63376
 C1051 C 0.69403 0.31658 0.19327
 C1052 C 0.70071 0.28179 0.18111
 C1053 C 0.71863 0.26145 0.19968
 C1054 C 0.73118 0.27580 0.23015
 C1055 C 0.72357 0.31028 0.24293
 C1056 C 0.70555 0.33051 0.22447
 C1057 C 0.67442 0.33769 0.17426
 C1058 C 0.65584 0.35617 0.19421
 C1059 C 0.63697 0.37529 0.17635
 C1060 C 0.63634 0.37650 0.13815
 C1061 C 0.65511 0.35843 0.11817
 C1062 C 0.67391 0.33910 0.13605
 C1063 C 0.61580 0.39574 0.11923
 C1064 C 0.59097 0.39194 0.13131
 C1065 C 0.57146 0.40921 0.11305
 C1066 C 0.57633 0.43083 0.08236
 C1067 C 0.60123 0.43502 0.07054
 C1068 C 0.62075 0.41753 0.08872
 H1069 H 0.69154 0.26988 0.15781
 H1070 H 0.72260 0.23419 0.19033
 H1071 H 0.73110 0.32157 0.26771
 H1072 H 0.70053 0.35710 0.23476
 H1073 H 0.65562 0.35527 0.22367
 H1074 H 0.62286 0.38923 0.19242
 H1075 H 0.65496 0.35863 0.08870
 H1076 H 0.68812 0.32534 0.12002
 H1077 H 0.58658 0.37499 0.15451
 H1078 H 0.55252 0.40541 0.12292
 H1079 H 0.60565 0.45150 0.04702
 H1080 H 0.63975 0.42121 0.07905
 C1081 C 0.80484 0.19164 0.18765
 C1082 C 0.79265 0.22179 0.17255
 C1083 C 0.77460 0.24089 0.19260
 C1084 C 0.76761 0.22960 0.22794
 C1085 C 0.78067 0.20003 0.24319
 C1086 C 0.79865 0.18101 0.22319
 C1087 C 0.82473 0.17221 0.16708
 C1088 C 0.84675 0.16130 0.18470
 C1089 C 0.86561 0.14318 0.16556
 C1090 C 0.86295 0.13557 0.12832
 C1091 C 0.84087 0.14627 0.11065
 C1092 C 0.82197 0.16453 0.12984
 C1093 C 0.88336 0.11690 0.10813
 C1094 C 0.87814 0.08932 0.08291
 C1095 C 0.89761 0.07095 0.06508
 C1096 C 0.92269 0.07989 0.07210
 C1097 C 0.92780 0.10795 0.09685
 C1098 C 0.90838 0.12621 0.11462
 H1099 H 0.79767 0.23135 0.14564
 H1100 H 0.76671 0.26506 0.18059
 H1101 H 0.77695 0.19161 0.27091
 H1102 H 0.80780 0.15798 0.23567
 H1103 H 0.84956 0.16722 0.21326
 H1104 H 0.88228 0.13489 0.18002
 H1105 H 0.83840 0.14100 0.08190
 H1106 H 0.80510 0.17238 0.11564
 H1107 H 0.85901 0.08141 0.07758
 H1108 H 0.89302 0.04951 0.04613
 H1109 H 0.94686 0.11579 0.10274
 H1110 H 0.91297 0.14779 0.13340
 C1111 C 0.80106 0.69327 0.67714
 C1112 C 0.81001 0.72037 0.70033
 C1113 C 0.79410 0.73791 0.72484
 C1114 C 0.76855 0.72831 0.72813
 C1115 C 0.75936 0.70265 0.70293
 C1116 C 0.77547 0.68476 0.67842
 C1117 C 0.81881 0.67403 0.65236
 C1118 C 0.81827 0.63610 0.64883
 C1119 C 0.83711 0.61782 0.62935
 C1120 C 0.85687 0.63712 0.61302
 C1121 C 0.85664 0.67514 0.61506
 C1122 C 0.83785 0.69335 0.63441
 C1123 C 0.87832 0.61783 0.59555
 C1124 C 0.90294 0.62969 0.60151
 C1125 C 0.92329 0.61138 0.58594
 C1126 C 0.91959 0.58075 0.56386
 C1127 C 0.89494 0.56899 0.55766
 C1128 C 0.87455 0.58724 0.57345
 H1129 H 0.82958 0.72786 0.69989
 H1130 H 0.80227 0.75943 0.74071
 H1131 H 0.73965 0.69600 0.70269
 H1132 H 0.76787 0.66458 0.66018
 H1133 H 0.80395 0.62046 0.66255
 H1134 H 0.83682 0.58849 0.62842
 H1135 H 0.87125 0.69084 0.60207
 H1136 H 0.83850 0.72264 0.63594
 H1137 H 0.90652 0.65282 0.61885
 H1138 H 0.94197 0.62121 0.59137
 H1139 H 0.89136 0.54551 0.54079
 H1140 H 0.85582 0.57760 0.56812
 C1141 C 0.30469 0.18795 0.68620
 C1142 C 0.30527 0.18957 0.72438
 C1143 C 0.28749 0.20971 0.74371
 C1144 C 0.26849 0.22939 0.72572
 C1145 C 0.26833 0.22807 0.68725
 C1146 C 0.28582 0.20721 0.66797
 C1147 C 0.32413 0.16715 0.66557
 C1148 C 0.33270 0.17924 0.63135
 C1149 C 0.35151 0.16038 0.61263
 C1150 C 0.36252 0.12953 0.62805
 C1151 C 0.35400 0.11716 0.66195
 C1152 C 0.33480 0.13550 0.68033
 C1153 C 0.38344 0.11090 0.60939
 C1154 C 0.40639 0.10642 0.62720
 C1155 C 0.42638 0.08916 0.60963
 C1156 C 0.42357 0.07534 0.57427
 C1157 C 0.40051 0.07957 0.55654
 C1158 C 0.38068 0.09765 0.57382
 H1159 H 0.31985 0.17599 0.73952
 H1160 H 0.28872 0.21040 0.77311
 H1161 H 0.25514 0.24342 0.67135
 H1162 H 0.28455 0.20641 0.63860
 H1163 H 0.32539 0.20383 0.61934
 H1164 H 0.35803 0.17048 0.58659
 H1165 H 0.36214 0.09316 0.67411
 H1166 H 0.32835 0.12477 0.70611
 H1167 H 0.40888 0.11665 0.65458
 H1168 H 0.44391 0.08604 0.62395
 H1169 H 0.39793 0.06924 0.52921
 H1170 H 0.36309 0.10085 0.55969
 C1171 C 0.29949 0.68768 0.18574
 C1172 C 0.30804 0.70410 0.21760
 C1173 C 0.29196 0.72449 0.23947
 C1174 C 0.26672 0.73132 0.22929
 C1175 C 0.25761 0.71042 0.19970
 C1176 C 0.27386 0.68957 0.17779
 C1177 C 0.31787 0.66967 0.16111
 C1178 C 0.31436 0.63412 0.14846
 C1179 C 0.33338 0.61640 0.12864
 C1180 C 0.35615 0.63406 0.12090
 C1181 C 0.35892 0.67028 0.13206
 C1182 C 0.34012 0.68773 0.15202
 C1183 C 0.37745 0.61472 0.10279
 C1184 C 0.40216 0.62126 0.11401
 C1185 C 0.42235 0.60358 0.09733
 C1186 C 0.41847 0.57856 0.06907
 C1187 C 0.39376 0.57177 0.05787
 C1188 C 0.37349 0.58965 0.07453
 H1189 H 0.32744 0.70128 0.22560
 H1190 H 0.29984 0.73522 0.26427
 H1191 H 0.23801 0.71163 0.19245
 H1192 H 0.26656 0.67596 0.15400
 H1193 H 0.29740 0.61957 0.15520
 H1194 H 0.33063 0.58847 0.12062
 H1195 H 0.37582 0.68513 0.12573
 H1196 H 0.34312 0.71538 0.16087
 H1197 H 0.40594 0.63973 0.13621
 H1198 H 0.44103 0.60928 0.10698
 H1199 H 0.39006 0.55270 0.03615
 H1200 H 0.35476 0.58417 0.06498
   
