data_POSCAR
  _audit_creation_date              2014-09-24
  _audit_creation_method            'ToBaCCo'
  _symmetry_space_group_name_H-M    'P1'
  _symmetry_Int_Tables_number       1
  _symmetry_cell_setting            triclinic
  loop_
  _symmetry_equiv_pos_as_xyz
 x,y,z
_cell_length_a 33.8695
_cell_length_b 34.3151
_cell_length_c 64.6966
_cell_angle_alpha 88.825600
_cell_angle_beta 90.551300
_cell_angle_gamma 119.410400
loop_
  _atom_site_label
  _atom_site_type_symbol
  _atom_site_fract_x
  _atom_site_fract_y
  _atom_site_fract_z
C1 C 0.02386 0.07020 0.52722
 H2 H 0.05579 0.07019 0.52707
 C3 C 0.01920 0.10128 0.53903
 H4 H 0.04755 0.12520 0.54808
 C5 C -0.05159 0.04021 0.51496
 H6 H -0.07867 0.01708 0.50516
 C7 C -0.05766 0.07083 0.52654
 H8 H -0.08955 0.07097 0.52579
 N9 N -0.01126 0.04049 0.51552
 C10 C 0.02133 -0.06529 0.50432
 H11 H 0.02183 -0.06455 0.48760
 C12 C 0.02677 -0.09788 0.51521
 H13 H 0.03175 -0.12221 0.50689
 C14 C 0.01197 -0.03594 0.53564
 H15 H 0.00487 -0.01260 0.54351
 C16 C 0.01723 -0.06802 0.54713
 H17 H 0.01467 -0.06899 0.56384
 Zn18 Zn 0.00058 0.00332 0.49847
 N19 N 0.01396 -0.03527 0.51462
 C20 C 0.09019 0.04158 0.48213
 N21 N 0.05016 0.04189 0.48150
 C22 C 0.04519 0.07264 0.46983
 C23 C 0.08140 0.10485 0.45818
 C24 C 0.12735 0.07332 0.47071
 C25 C -0.08829 -0.06457 0.49256
 C26 C -0.12581 -0.09614 0.48165
 C27 C -0.08512 -0.06386 0.44973
 C28 C -0.04834 -0.03284 0.46126
 N29 N -0.05056 -0.03385 0.48228
 H30 H 0.09376 0.01757 0.49189
 H31 H 0.01322 0.07259 0.46993
 H32 H 0.07732 0.12962 0.44918
 H33 H 0.15938 0.07346 0.47155
 H34 H -0.08872 -0.06514 0.50928
 H35 H -0.15536 -0.12092 0.49006
 H36 H -0.08264 -0.06331 0.43302
 H37 H -0.01764 -0.00895 0.45342
 C38 C 0.02428 -0.09948 0.53680
 C39 C -0.02181 0.10178 0.53858
 C40 C -0.12407 -0.09606 0.46004
 C41 C 0.12292 0.10540 0.45874
 C42 C 1.08129 0.03669 0.14380
 H43 H 1.08098 0.06805 0.14406
 C44 C 1.11371 0.03313 0.13210
 H45 H 1.13841 0.06178 0.12323
 C46 C 1.05038 -0.03861 0.15559
 H47 H 1.02625 -0.06612 0.16511
 C48 C 1.08232 -0.04358 0.14408
 H49 H 1.08249 -0.07508 0.14460
 N50 N 1.05041 0.00110 0.15518
 C51 C 0.94075 0.03062 0.16479
 H52 H 0.93984 0.03036 0.18151
 C53 C 0.90858 0.03610 0.15336
 H54 H 0.88291 0.04034 0.16126
 C55 C 0.97393 0.02330 0.13402
 H56 H 0.99862 0.01705 0.12656
 C57 C 0.94236 0.02864 0.12201
 H58 H 0.94312 0.02696 0.10532
 Zn59 Zn 1.01084 0.01131 0.17174
 N60 N 0.97251 0.02430 0.15502
 C61 C 1.04672 0.09898 0.18799
 N62 N 1.04798 0.05992 0.18880
 C63 C 1.07874 0.05533 0.20077
 C64 C 1.10995 0.09090 0.21258
 C65 C 1.07745 0.13548 0.19956
 C66 C 0.94256 -0.07713 0.17762
 C67 C 0.91039 -0.11476 0.18854
 C68 C 0.94061 -0.07530 0.22040
 C69 C 0.97228 -0.03838 0.20889
 N70 N 0.97261 -0.03994 0.18788
 H71 H 1.02276 0.10230 0.17800
 H72 H 1.07948 0.02416 0.20082
 H73 H 1.13474 0.08713 0.22183
 H74 H 1.07685 0.16673 0.19860
 H75 H 0.94299 -0.07710 0.16090
 H76 H 0.88609 -0.14397 0.18024
 H77 H 0.93994 -0.07357 0.23709
 H78 H 0.99559 -0.00814 0.21672
 C79 C 0.90920 0.03474 0.13179
 C80 C 1.11434 -0.00728 0.13231
 C81 C 0.90920 -0.11367 0.21010
 C82 C 1.10950 0.13141 0.21185
 C83 C 0.03628 0.95974 0.85752
 H84 H 0.00472 0.92841 0.85719
 C85 C 0.07259 0.96310 0.86921
 H86 H 0.06902 0.93434 0.87802
 C87 C 0.08003 1.03512 0.84588
 H88 H 0.08304 1.06275 0.83641
 C89 C 0.11728 1.03991 0.85739
 H90 H 0.14881 1.07136 0.85692
 N91 N 0.04052 0.99546 0.84620
 C92 C -0.09866 0.96644 0.83639
 H93 H -0.09973 0.96690 0.81967
 C94 C -0.13594 0.96098 0.84775
 H95 H -0.16594 0.95695 0.83974
 C96 C -0.05743 0.97325 0.86722
 H97 H -0.02636 0.97929 0.87473
 C98 C -0.09394 0.96792 0.87919
 H99 H -0.09096 0.96941 0.89589
 Zn100 Zn -0.00964 0.98555 0.82958
 N101 N -0.06041 0.97251 0.84622
 C102 C -0.06165 0.89813 0.81307
 N103 N -0.02148 0.93712 0.81239
 C104 C 0.01348 0.94175 0.80046
 C105 C 0.00883 0.90631 0.78854
 C106 C -0.06770 0.86177 0.80138
 C107 C 0.00999 1.07406 0.82394
 C108 C 0.01514 1.11191 0.81313
 C109 C 0.00561 1.07306 0.78114
 C110 C 0.00063 1.03589 0.79255
 N111 N 0.00283 1.03705 0.81357
 H112 H -0.08860 0.89478 0.82303
 H113 H 0.04529 0.97284 0.80053
 H114 H 0.03707 0.91011 0.77931
 H115 H -0.09946 0.83058 0.80222
 H116 H 0.01066 1.07372 0.84066
 H117 H 0.02007 1.14097 0.82152
 H118 H 0.00300 1.07167 0.76443
 H119 H -0.00629 1.00580 0.78461
 C120 C -0.13340 0.96211 0.86935
 C121 C 0.11349 1.00346 0.86908
 C122 C 0.01257 1.11124 0.79155
 C123 C -0.03200 0.86589 0.78911
 C124 C 0.50336 -0.00029 0.01064
 C125 C 0.50118 -0.00374 -0.01035
 C126 C 0.46501 -0.00105 -0.02244
 C127 C 0.53490 -0.01028 -0.02213
 C128 C 0.54410 0.00629 0.02236
 C129 C 0.46505 -0.00298 0.02281
 C130 C 0.43899 -0.03435 -0.03670
 C131 C 0.40464 -0.03220 -0.04795
 C132 C 0.39623 0.00343 -0.04518
 C133 C 0.42254 0.03714 -0.03125
 C134 C 0.45690 0.03505 -0.02001
 C135 C 0.54416 -0.04483 -0.01659
 C136 C 0.57639 -0.05037 -0.02753
 C137 C 0.59931 -0.02179 -0.04424
 C138 C 0.58963 0.01214 -0.05009
 C139 C 0.55746 0.01777 -0.03914
 C140 C 0.58749 0.04087 0.01679
 C141 C 0.62570 0.04651 0.02770
 C142 C 0.62090 0.01799 0.04443
 C143 C 0.57773 -0.01599 0.05030
 C144 C 0.53949 -0.02172 0.03937
 C145 C 0.47281 0.03030 0.03711
 C146 C 0.43685 0.02811 0.04846
 C147 C 0.39286 -0.00755 0.04577
 C148 C 0.38499 -0.04123 0.03180
 C149 C 0.42092 -0.03909 0.02045
 H150 H 0.44488 -0.06229 -0.03889
 H151 H 0.38450 -0.05842 -0.05872
 H152 H 0.41645 0.06497 -0.02907
 H153 H 0.47718 0.06154 -0.00939
 H154 H 0.52648 -0.06741 -0.00379
 H155 H 0.58346 -0.07687 -0.02295
 H156 H 0.55062 0.04441 -0.04373
 H157 H 0.59173 0.06342 0.00398
 H158 H 0.65894 0.07306 0.02310
 H159 H 0.57365 -0.03815 0.06327
 H160 H 0.50635 -0.04839 0.04399
 H161 H 0.50660 0.05825 0.03925
 H162 H 0.44329 0.05430 0.05926
 H163 H 0.35112 -0.06908 0.02967
 H164 H 0.41435 -0.06557 0.00981
 H165 H 0.60710 0.03435 -0.06304
 C166 C -0.01091 0.49144 0.67446
 C167 C -0.00956 0.49281 0.65338
 C168 C -0.01410 0.45426 0.64143
 C169 C -0.00327 0.53298 0.64147
 C170 C -0.01691 0.52487 0.68628
 C171 C -0.00617 0.45659 0.68650
 C172 C 0.01780 0.46078 0.62612
 C173 C 0.01435 0.42434 0.61533
 C174 C -0.02119 0.38114 0.61963
 C175 C -0.05365 0.37455 0.63454
 C176 C -0.05030 0.41092 0.64530
 C177 C 0.03254 0.57567 0.64623
 C178 C 0.03765 0.61351 0.63540
 C179 C 0.00739 0.60907 0.61955
 C180 C -0.02773 0.56657 0.61441
 C181 C -0.03294 0.52866 0.62526
 C182 C -0.05248 0.53354 0.68147
 C183 C -0.05714 0.56602 0.69215
 C184 C -0.02666 0.58981 0.70791
 C185 C 0.00818 0.58060 0.71314
 C186 C 0.01294 0.54815 0.70243
 C187 C -0.03793 0.43110 0.70188
 C188 C -0.03414 0.39752 0.71282
 C189 C 0.00161 0.38937 0.70861
 C190 C 0.03391 0.41528 0.69362
 C191 C 0.03021 0.44888 0.68270
 H192 H 0.04579 0.49393 0.62282
 H193 H 0.03959 0.42979 0.60378
 H194 H -0.08140 0.34129 0.63792
 H195 H -0.07576 0.40528 0.65676
 H196 H 0.05635 0.57966 0.65840
 H197 H 0.06507 0.64622 0.63943
 H198 H -0.06057 0.49605 0.62127
 H199 H -0.07641 0.51534 0.66934
 H200 H -0.08434 0.57275 0.68804
 H201 H 0.03188 0.59876 0.72535
 H202 H 0.04040 0.54179 0.70646
 H203 H -0.06605 0.43670 0.70512
 H204 H -0.05924 0.37772 0.72445
 H205 H 0.06184 0.40940 0.69032
 H206 H 0.05559 0.46875 0.67121
 H207 H -0.05126 0.56278 0.60212
 C208 C 0.50570 0.50911 0.34671
 C209 C 0.50609 0.50955 0.32563
 C210 C 0.54577 0.54378 0.31374
 C211 C 0.46689 0.47576 0.31368
 C212 C 0.47173 0.46946 0.35867
 C213 C 0.53922 0.54826 0.35857
 C214 C 0.53981 0.56878 0.29778
 C215 C 0.57732 0.60197 0.28706
 C216 C 0.62103 0.61019 0.29207
 C217 C 0.62709 0.58469 0.30763
 C218 C 0.58967 0.55150 0.31834
 C219 C 0.42277 0.46767 0.31776
 C220 C 0.38578 0.43472 0.30707
 C221 C 0.39253 0.40988 0.29201
 C222 C 0.43648 0.41852 0.28748
 C223 C 0.47354 0.45144 0.29820
 C224 C 0.46504 0.42654 0.35458
 C225 C 0.43180 0.38909 0.36521
 C226 C 0.40525 0.39414 0.38021
 C227 C 0.41253 0.43690 0.38478
 C228 C 0.44576 0.47444 0.37412
 C229 C 0.56457 0.54263 0.37448
 C230 C 0.59732 0.57971 0.38510
 C231 C 0.60472 0.62266 0.38003
 C232 C 0.57879 0.62835 0.36454
 C233 C 0.54604 0.59135 0.35394
 H234 H 0.50625 0.56317 0.29393
 H235 H 0.57228 0.62146 0.27500
 H236 H 0.66075 0.59063 0.31156
 H237 H 0.59493 0.53199 0.33031
 H238 H 0.41699 0.48665 0.32935
 H239 H 0.35194 0.42845 0.31062
 H240 H 0.50728 0.45734 0.29474
 H241 H 0.48531 0.42206 0.34301
 H242 H 0.42658 0.35618 0.36163
 H243 H 0.39222 0.44116 0.39641
 H244 H 0.45057 0.50723 0.37758
 H245 H 0.55966 0.50969 0.37836
 H246 H 0.61715 0.57496 0.39711
 H247 H 0.58408 0.66140 0.36056
 H248 H 0.52623 0.59632 0.34200
 H249 H 0.44204 0.39953 0.27580
 C250 C -0.02841 0.27390 0.58962
 C251 C -0.02485 0.27494 0.56781
 C252 C -0.02558 0.23840 0.55751
 C253 C -0.02980 0.20106 0.56908
 C254 C -0.03409 0.19971 0.59087
 C255 C -0.03343 0.23623 0.60117
 C256 C -0.03767 0.23417 0.62297
 C257 C -0.04246 0.19708 0.63427
 C258 C -0.04301 0.16142 0.62420
 C259 C -0.03887 0.16254 0.60275
 C260 C -0.02181 0.24028 0.53569
 C261 C -0.01745 0.27719 0.52438
 C262 C -0.01671 0.31292 0.53445
 C263 C -0.02035 0.31200 0.55592
 C264 C -0.02830 0.16480 0.55859
 C265 C -0.02601 0.13552 0.54962
 C266 C -0.02620 0.31186 0.60018
 C267 C -0.02402 0.34347 0.60898
 H268 H -0.03744 0.26108 0.63150
 H269 H -0.04582 0.19598 0.65092
 H270 H -0.04672 0.13269 0.63305
 H271 H -0.03958 0.13396 0.59561
 H272 H -0.02227 0.21329 0.52714
 H273 H -0.01463 0.27806 0.50770
 H274 H -0.01332 0.34152 0.52560
 H275 H -0.01964 0.34059 0.56305
 C276 C 0.73165 0.71044 0.26239
 C277 C 0.75987 0.75061 0.27289
 C278 C 0.79765 0.78607 0.26253
 C279 C 0.80692 0.78120 0.24174
 C280 C 0.77912 0.74076 0.23136
 C281 C 0.74138 0.70528 0.24172
 C282 C 0.71397 0.66525 0.23100
 C283 C 0.72359 0.66040 0.21062
 C284 C 0.76049 0.69510 0.20049
 C285 C 0.78804 0.73490 0.21065
 C286 C 0.82530 0.82595 0.27331
 C287 C 0.81585 0.83068 0.29373
 C288 C 0.77887 0.79604 0.30385
 C289 C 0.75111 0.75637 0.29363
 C290 C 0.84408 0.81821 0.23080
 C291 C 0.87422 0.84915 0.22149
 C292 C 0.69239 0.67468 0.27279
 C293 C 0.65977 0.64516 0.28149
 H294 H 0.68491 0.63730 0.23823
 H295 H 0.70229 0.62955 0.20266
 H296 H 0.76782 0.69117 0.18466
 H297 H 0.81639 0.76090 0.20213
 H298 H 0.85447 0.85382 0.26610
 H299 H 0.83734 0.86141 0.30175
 H300 H 0.77159 0.79994 0.31969
 H301 H 0.72278 0.73036 0.30216
 C302 C 0.29308 0.00677 -0.07727
 C303 C 0.29135 0.04706 -0.07944
 C304 C 0.25498 0.04745 -0.09043
 C305 C 0.22057 0.00755 -0.09917
 C306 C 0.22235 -0.03272 -0.09702
 C307 C 0.25872 -0.03310 -0.08605
 C308 C 0.25976 -0.07376 -0.08411
 C309 C 0.22584 -0.11293 -0.09276
 C310 C 0.19026 -0.11257 -0.10348
 C311 C 0.18836 -0.07304 -0.10564
 C312 C 0.25396 0.08809 -0.09240
 C313 C 0.28790 0.12726 -0.08375
 C314 C 0.32344 0.12688 -0.07299
 C315 C 0.32532 0.08733 -0.07081
 C316 C 0.18322 0.00768 -0.11033
 C317 C 0.15172 0.00655 -0.11967
 C318 C 0.33000 0.00618 -0.06593
 C319 C 0.36035 0.00516 -0.05649
 H320 H 0.28674 -0.07575 -0.07592
 H321 H 0.22717 -0.14372 -0.09113
 H322 H 0.16398 -0.14309 -0.11017
 H323 H 0.15998 -0.07450 -0.11412
 H324 H 0.22700 0.09003 -0.10064
 H325 H 0.28661 0.15807 -0.08540
 H326 H 0.34971 0.15739 -0.06630
 H327 H 0.35364 0.08870 -0.06231
 C328 C 0.02024 0.72052 0.58910
 C329 C 0.02012 0.72228 0.56722
 C330 C 0.02296 0.76036 0.55671
 C331 C 0.02584 0.79642 0.56814
 C332 C 0.02668 0.79496 0.59003
 C333 C 0.02391 0.75691 0.60054
 C334 C 0.02473 0.75618 0.62242
 C335 C 0.02821 0.79202 0.63360
 C336 C 0.03081 0.82918 0.62332
 C337 C 0.03006 0.83081 0.60178
 C338 C 0.02264 0.76128 0.53482
 C339 C 0.01960 0.72563 0.52365
 C340 C 0.01680 0.68839 0.53393
 C341 C 0.01703 0.68655 0.55546
 C342 C 0.02657 0.83430 0.55737
 C343 C 0.02617 0.86499 0.54814
 C344 C 0.01596 0.68105 0.59983
 C345 C 0.01212 0.64819 0.60876
 H346 H 0.02280 0.72801 0.63112
 H347 H 0.02895 0.79098 0.65032
 H348 H 0.03348 0.85692 0.63207
 H349 H 0.03226 0.86047 0.59447
 H350 H 0.02480 0.78953 0.52611
 H351 H 0.01941 0.72691 0.50691
 H352 H 0.01444 0.66078 0.52518
 H353 H 0.01482 0.65688 0.56276
 C354 C 0.28355 0.30989 0.26238
 C355 C 0.24665 0.27705 0.27408
 C356 C 0.20962 0.24118 0.26391
 C357 C 0.20969 0.23845 0.24210
 C358 C 0.24621 0.27178 0.23038
 C359 C 0.28326 0.30758 0.24055
 C360 C 0.31950 0.34035 0.22851
 C361 C 0.31911 0.33785 0.20703
 C362 C 0.28288 0.30286 0.19709
 C363 C 0.24676 0.27011 0.20854
 C364 C 0.17325 0.20859 0.27594
 C365 C 0.17338 0.21143 0.29740
 C366 C 0.20951 0.24656 0.30734
 C367 C 0.24586 0.27904 0.29590
 C368 C 0.17303 0.20073 0.23173
 C369 C 0.14349 0.16922 0.22283
 C370 C 0.32212 0.34563 0.27279
 C371 C 0.35426 0.37507 0.28148
 H372 H 0.34843 0.36823 0.23554
 H373 H 0.34709 0.36321 0.19807
 H374 H 0.28273 0.30108 0.18040
 H375 H 0.21933 0.24360 0.20009
 H376 H 0.14434 0.18071 0.26890
 H377 H 0.14525 0.18626 0.30637
 H378 H 0.20937 0.24869 0.32401
 H379 H 0.27319 0.30572 0.30433
 C380 C 0.69583 -0.03550 -0.07588
 C381 C 0.69262 -0.03999 -0.09762
 C382 C 0.72722 -0.04256 -0.10876
 C383 C 0.76484 -0.04058 -0.09808
 C384 C 0.76763 -0.03693 -0.07629
 C385 C 0.73300 -0.03440 -0.06515
 C386 C 0.73661 -0.03057 -0.04338
 C387 C 0.77337 -0.02930 -0.03292
 C388 C 0.80724 -0.03174 -0.04381
 C389 C 0.80459 -0.03550 -0.06526
 C390 C 0.72337 -0.04684 -0.13051
 C391 C 0.68640 -0.04854 -0.14095
 C392 C 0.65258 -0.04602 -0.13006
 C393 C 0.65548 -0.04178 -0.10865
 C394 C 0.80131 -0.04080 -0.10961
 C395 C 0.83184 -0.03999 -0.11939
 C396 C 0.66137 -0.03113 -0.06461
 C397 C 0.63296 -0.02705 -0.05532
 H398 H 0.71109 -0.02860 -0.03423
 H399 H 0.77556 -0.02645 -0.01627
 H400 H 0.83572 -0.03074 -0.03561
 H401 H 0.83172 -0.03737 -0.07305
 H402 H 0.74879 -0.04899 -0.13966
 H403 H 0.68399 -0.05184 -0.15759
 H404 H 0.62392 -0.04736 -0.13825
 H405 H 0.62829 -0.03998 -0.10086
 C406 C 0.28799 -0.01098 0.07825
 C407 C 0.29392 0.02881 0.08725
 C408 C 0.25772 0.02845 0.09835
 C409 C 0.21581 -0.01171 0.10039
 C410 C 0.20993 -0.05152 0.09145
 C411 C 0.24613 -0.05115 0.08033
 C412 C 0.23943 -0.09134 0.07149
 C413 C 0.19816 -0.13078 0.07358
 C414 C 0.16278 -0.13114 0.08446
 C415 C 0.16841 -0.09206 0.09332
 C416 C 0.26445 0.06868 0.10718
 C417 C 0.30574 0.10810 0.10512
 C418 C 0.34113 0.10844 0.09428
 C419 C 0.33549 0.06936 0.08542
 C420 C 0.17887 -0.01178 0.11163
 C421 C 0.14894 -0.01056 0.12102
 C422 C 0.32491 -0.01038 0.06676
 C423 C 0.35581 -0.00934 0.05721
 H424 H 0.26596 -0.09272 0.06289
 H425 H 0.19361 -0.16123 0.06672
 H426 H 0.13079 -0.16187 0.08604
 H427 H 0.13992 -0.09398 0.10164
 H428 H 0.23796 0.07015 0.11576
 H429 H 0.31028 0.13855 0.11198
 H430 H 0.37314 0.13914 0.09273
 H431 H 0.36404 0.07133 0.07714
 C432 C 0.70422 0.73215 0.40921
 C433 C 0.69797 0.74140 0.42977
 C434 C 0.73327 0.77869 0.43999
 C435 C 0.77462 0.80651 0.42957
 C436 C 0.78056 0.79775 0.40888
 C437 C 0.74527 0.76043 0.39867
 C438 C 0.75212 0.75216 0.37802
 C439 C 0.79268 0.77996 0.36776
 C440 C 0.82714 0.81650 0.37773
 C441 C 0.82135 0.82545 0.39805
 C442 C 0.72632 0.78712 0.46059
 C443 C 0.68564 0.75953 0.47080
 C444 C 0.65112 0.72308 0.46081
 C445 C 0.65702 0.71395 0.44053
 C446 C 0.81153 0.84310 0.44041
 C447 C 0.84235 0.87271 0.44970
 C448 C 0.66869 0.69330 0.39899
 C449 C 0.63939 0.66101 0.39044
 H450 H 0.72629 0.72419 0.36960
 H451 H 0.79740 0.77307 0.35200
 H452 H 0.85855 0.83801 0.36968
 H453 H 0.84912 0.85429 0.40515
 H454 H 0.75214 0.81511 0.46900
 H455 H 0.68088 0.76648 0.48655
 H456 H 0.61957 0.70175 0.46880
 H457 H 0.62917 0.68522 0.43341
 C458 C 0.01088 0.28853 0.73922
 C459 C 0.01048 0.28657 0.76111
 C460 C 0.01252 0.25086 0.77165
 C461 C 0.01491 0.21728 0.76025
 C462 C 0.01588 0.21954 0.73836
 C463 C 0.01390 0.25530 0.72782
 C464 C 0.01488 0.25683 0.70594
 C465 C 0.01775 0.22398 0.69479
 C466 C 0.01959 0.18898 0.70510
 C467 C 0.01867 0.18660 0.72664
 C468 C 0.01196 0.24956 0.79354
 C469 C 0.00944 0.28260 0.80468
 C470 C 0.00742 0.31750 0.79437
 C471 C 0.00791 0.31964 0.77284
 C472 C 0.01519 0.17991 0.77105
 C473 C 0.01455 0.14871 0.78026
 C474 C 0.00774 0.32445 0.72846
 C475 C 0.00497 0.35414 0.71948
 H476 H 0.01352 0.28339 0.69722
 H477 H 0.01860 0.22574 0.67807
 H478 H 0.02180 0.16353 0.69637
 H479 H 0.02027 0.15877 0.73397
 H480 H 0.01351 0.22311 0.80227
 H481 H 0.00907 0.28109 0.82141
 H482 H 0.00548 0.34308 0.80310
 H483 H 0.00630 0.34746 0.76552
 C484 C 0.73228 0.03212 0.07615
 C485 C 0.76815 0.03130 0.06546
 C486 C 0.80570 0.03393 0.07666
 C487 C 0.80714 0.03740 0.09845
 C488 C 0.77169 0.03910 0.10909
 C489 C 0.73414 0.03644 0.09790
 C490 C 0.69898 0.03795 0.10889
 C491 C 0.70088 0.04201 0.13031
 C492 C 0.73760 0.04463 0.14125
 C493 C 0.77269 0.04319 0.13084
 C494 C 0.84103 0.03278 0.06566
 C495 C 0.83935 0.02920 0.04421
 C496 C 0.80267 0.02667 0.03327
 C497 C 0.76737 0.02766 0.04369
 C498 C 0.84425 0.03771 0.11002
 C499 C 0.87432 0.03697 0.11984
 C500 C 0.69306 0.02761 0.06483
 C501 C 0.66025 0.02342 0.05551
 H502 H 0.66973 0.03607 0.10106
 H503 H 0.67371 0.04314 0.13846
 H504 H 0.73892 0.04779 0.15789
 H505 H 0.80056 0.04540 0.14003
 H506 H 0.87030 0.03473 0.07349
 H507 H 0.86669 0.02842 0.03604
 H508 H 0.80156 0.02395 0.01661
 H509 H 0.73957 0.02563 0.03450
 C510 C 0.30397 0.28349 0.40931
 C511 C 0.27198 0.24745 0.39738
 C512 C 0.23564 0.20970 0.40731
 C513 C 0.23157 0.20817 0.42912
 C514 C 0.26405 0.24385 0.44107
 C515 C 0.30033 0.28163 0.43113
 C516 C 0.33222 0.31699 0.44339
 C517 C 0.32841 0.31507 0.46486
 C518 C 0.29295 0.27812 0.47458
 C519 C 0.26104 0.24284 0.46290
 C520 C 0.20392 0.17422 0.39506
 C521 C 0.20807 0.17592 0.37360
 C522 C 0.24367 0.21276 0.36389
 C523 C 0.27532 0.24825 0.37556
 C524 C 0.19333 0.17066 0.43926
 C525 C 0.16135 0.14036 0.44797
 C526 C 0.34019 0.32272 0.39913
 C527 C 0.37001 0.35535 0.39061
 H528 H 0.36042 0.34643 0.43655
 H529 H 0.35311 0.34240 0.47400
 H530 H 0.29014 0.27678 0.49126
 H531 H 0.23411 0.21480 0.47118
 H532 H 0.17572 0.14481 0.40192
 H533 H 0.18356 0.14846 0.36446
 H534 H 0.24684 0.21384 0.34723
 H535 H 0.30242 0.27619 0.36730
 C536 C -0.03705 0.68851 0.73772
 C537 C -0.03799 0.72347 0.72610
 C538 C -0.03923 0.75904 0.73642
 C539 C -0.03962 0.75937 0.75830
 C540 C -0.03971 0.72389 0.76991
 C541 C -0.03837 0.68838 0.75959
 C542 C -0.03817 0.65344 0.77153
 C543 C -0.03931 0.65355 0.79306
 C544 C -0.04065 0.68825 0.80315
 C545 C -0.04084 0.72310 0.79179
 C546 C -0.03982 0.79377 0.72448
 C547 C -0.03934 0.79331 0.70294
 C548 C -0.03824 0.75849 0.69285
 C549 C -0.03750 0.72391 0.70422
 C550 C -0.03832 0.79688 0.76890
 C551 C -0.03613 0.82823 0.77797
 C552 C -0.03384 0.65318 0.72722
 C553 C -0.03073 0.62412 0.71847
 H554 H -0.03719 0.62569 0.76439
 H555 H -0.03916 0.62655 0.80195
 H556 H -0.04156 0.68817 0.81987
 H557 H -0.04198 0.74930 0.80035
 H558 H -0.04078 0.82152 0.73163
 H559 H -0.03988 0.82010 0.69404
 H560 H -0.03801 0.75822 0.67613
 H561 H -0.03666 0.69755 0.69566
   
