data_POSCAR
  _audit_creation_date              2014-09-24
  _audit_creation_method            'ToBaCCo'
  _symmetry_space_group_name_H-M    'P1'
  _symmetry_Int_Tables_number       1
  _symmetry_cell_setting            triclinic
  loop_
  _symmetry_equiv_pos_as_xyz
 x,y,z
_cell_length_a 22.9616
_cell_length_b 23.7160
_cell_length_c 25.8238
_cell_angle_alpha 91.737200
_cell_angle_beta 91.486300
_cell_angle_gamma 89.562600
loop_
  _atom_site_label
  _atom_site_type_symbol
  _atom_site_fract_x
  _atom_site_fract_y
  _atom_site_fract_z
Si1 Si 0.25025 0.48968 1.01241
 Si2 Si 0.77169 0.50670 0.00097
 Si3 Si -0.01705 0.25662 0.49588
 Si4 Si 0.98778 0.74427 0.51459
 Si5 Si 0.47256 0.02577 0.24126
 Si6 Si 0.49367 -0.02207 0.75067
 C7 C 0.33620 0.05170 0.45136
 H8 H 0.34164 0.07105 0.48964
 C9 C 0.37655 0.06207 0.41345
 H10 H 0.41351 0.08902 0.42254
 C11 C 0.28355 -0.01004 0.39369
 H12 H 0.24822 -0.03933 0.38667
 C13 C 0.32231 0.00026 0.35416
 H14 H 0.31682 -0.02156 0.31695
 N15 N 0.29147 0.01539 0.44128
 C16 C 0.15511 0.05614 0.54987
 H17 H 0.15526 0.01867 0.57275
 C18 C 0.11127 0.09665 0.55611
 H19 H 0.07777 0.09066 0.58415
 C20 C 0.19568 0.10770 0.48243
 H21 H 0.22757 0.11092 0.45265
 C22 C 0.15235 0.14906 0.48721
 H23 H 0.15148 0.18408 0.46127
 Zn24 Zn 0.24517 -0.00016 0.49866
 N25 N 0.19565 0.06193 0.51299
 C26 C 0.29182 0.01101 0.60229
 N27 N 0.29667 -0.01471 0.55477
 C28 C 0.34116 -0.05109 0.54422
 C29 C 0.38433 -0.06137 0.58169
 C30 C 0.33357 0.00093 0.64133
 C31 C 0.15288 -0.05959 0.45030
 C32 C 0.10934 -0.10036 0.44691
 C33 C 0.15711 -0.14881 0.51737
 C34 C 0.20010 -0.10740 0.51916
 N35 N 0.19660 -0.06334 0.48656
 H36 H 0.25651 0.04028 0.60964
 H37 H 0.34398 -0.07070 0.50599
 H38 H 0.42101 -0.08843 0.57231
 H39 H 0.33049 0.02298 0.67849
 H40 H 0.15019 -0.02334 0.42589
 H41 H 0.07338 -0.09595 0.41933
 H42 H 0.15905 -0.18231 0.54494
 H43 H 0.23438 -0.10897 0.54853
 C44 C 0.10882 0.14282 0.52373
 C45 C 0.37001 0.03598 0.36449
 C46 C 0.11042 -0.14452 0.48161
 C47 C 0.38092 -0.03497 0.63056
 C48 C 0.63219 0.04215 0.55238
 H49 H 0.63003 0.07232 0.52178
 C50 C 0.59341 0.04637 0.59285
 H51 H 0.56077 0.07957 0.59348
 C52 C 0.67647 -0.03907 0.58829
 H53 H 0.70831 -0.07273 0.58584
 C54 C 0.63837 -0.03639 0.62957
 H55 H 0.64112 -0.06814 0.65879
 N56 N 0.67285 0.00018 0.55101
 C57 C 0.80673 0.07347 0.45964
 H58 H 0.80802 0.04458 0.42645
 C59 C 0.84585 0.11826 0.46420
 H60 H 0.87705 0.12380 0.43408
 C61 C 0.76656 0.09961 0.54063
 H62 H 0.73701 0.09127 0.57126
 C63 C 0.80493 0.14478 0.54675
 H64 H 0.80428 0.17130 0.58161
 Zn65 Zn 0.72148 -0.00046 0.49362
 N66 N 0.76820 0.06493 0.49765
 C67 C 0.67072 0.03747 0.39827
 N68 N 0.67153 -0.00290 0.43459
 C69 C 0.63293 -0.04618 0.43225
 C70 C 0.59106 -0.05004 0.39235
 C71 C 0.62935 0.03520 0.35758
 C72 C 0.81063 -0.06957 0.53252
 C73 C 0.85060 -0.11419 0.53216
 C74 C 0.80980 -0.14627 0.44933
 C75 C 0.77042 -0.10118 0.45134
 N76 N 0.77145 -0.06404 0.49261
 H77 H 0.70103 0.07209 0.40149
 H78 H 0.63414 -0.07717 0.46216
 H79 H 0.55968 -0.08394 0.39140
 H80 H 0.62820 0.06820 0.32951
 H81 H 0.81128 -0.03877 0.56430
 H82 H 0.88200 -0.11756 0.56392
 H83 H 0.80945 -0.17509 0.41599
 H84 H 0.74009 -0.09524 0.41930
 C85 C 0.84546 0.15404 0.50865
 C86 C 0.59628 0.00687 0.63178
 C87 C 0.85049 -0.15290 0.48985
 C88 C 0.58863 -0.00885 0.35490
 C89 C 0.46828 0.15225 1.02774
 H90 H 0.44934 0.14729 0.98911
 C91 C 0.45582 0.11312 1.06491
 H92 H 0.42791 0.07764 1.05482
 C93 C 0.52932 0.20342 1.08758
 H94 H 0.55870 0.23811 1.09583
 C95 C 0.51669 0.16576 1.12654
 H96 H 0.53690 0.17134 1.16467
 N97 N 0.50513 0.19582 1.03922
 C98 C 0.45946 0.33227 0.93659
 H99 H 0.49668 0.33331 0.91181
 C100 C 0.41697 0.37479 0.93413
 H101 H 0.42140 0.40866 0.90735
 C102 C 0.41015 0.28931 1.00447
 H103 H 0.40838 0.25692 1.03288
 C104 C 0.36675 0.33075 1.00314
 H105 H 0.33191 0.32959 1.03053
 Zn106 Zn 0.51985 0.24158 0.98211
 N107 N 0.45592 0.29134 0.97216
 C108 C 0.49046 0.19001 0.88370
 N109 N 0.52814 0.19079 0.92520
 C110 C 0.57001 0.15040 0.93089
 C111 C 0.57467 0.10630 0.89438
 C112 C 0.49311 0.14605 0.84653
 C113 C 0.59040 0.32839 1.02722
 C114 C 0.63576 0.36758 1.02807
 C115 C 0.67716 0.31759 0.95483
 C116 C 0.63107 0.27963 0.95517
 N117 N 0.58837 0.28593 0.99058
 H118 H 0.45682 0.22197 0.88064
 H119 H 0.59855 0.15156 0.96490
 H120 H 0.60694 0.07338 0.90004
 H121 H 0.46159 0.14460 0.81462
 H122 H 0.55523 0.33354 1.05408
 H123 H 0.63548 0.40247 1.05608
 H124 H 0.70952 0.31345 0.92516
 H125 H 0.62813 0.24703 0.92521
 C126 C 0.37080 0.37494 0.96846
 C127 C 0.47998 0.11966 1.11478
 C128 C 0.67910 0.36282 0.99063
 C129 C 0.53513 0.10310 0.85250
 C130 C 0.44714 0.84094 -0.04711
 H131 H 0.41798 0.84129 -0.01486
 C132 C 0.43773 0.87825 -0.08711
 H133 H 0.40156 0.90777 -0.08568
 C134 C 0.53108 0.80319 -0.08752
 H135 H 0.56808 0.77483 -0.08691
 C136 C 0.52318 0.83993 -0.12851
 H137 H 0.55421 0.83937 -0.15937
 N138 N 0.49287 0.80411 -0.04813
 C139 C 0.42811 0.67371 0.04993
 H140 H 0.45933 0.67463 0.08205
 C141 C 0.38408 0.63311 0.04739
 H142 H 0.38141 0.60295 0.07785
 C143 C 0.39556 0.70962 -0.03054
 H144 H 0.40125 0.73780 -0.06200
 C145 C 0.35082 0.67020 -0.03435
 H146 H 0.32203 0.66882 -0.06824
 Zn147 Zn 0.49925 0.75844 0.01041
 N148 N 0.43341 0.71054 0.01096
 C149 C 0.46007 0.81602 0.10283
 N150 N 0.50276 0.81011 0.06748
 C151 C 0.54860 0.84610 0.06758
 C152 C 0.55249 0.89084 0.10368
 C153 C 0.46209 0.86069 0.13958
 C154 C 0.57892 0.67727 -0.03042
 C155 C 0.62573 0.63919 -0.02798
 C156 C 0.64598 0.67180 0.06007
 C157 C 0.59986 0.71015 0.05560
 N158 N 0.56713 0.71207 0.01095
 H159 H 0.42347 0.78755 0.10128
 H160 H 0.58134 0.84088 0.03840
 H161 H 0.58842 0.92006 0.10260
 H162 H 0.42711 0.86605 0.16663
 H163 H 0.55099 0.67794 -0.06477
 H164 H 0.63379 0.61076 -0.06064
 H165 H 0.67030 0.66908 0.09641
 H166 H 0.58864 0.73655 0.08872
 C167 C 0.34544 0.63081 0.00424
 C168 C 0.47592 0.87804 -0.12821
 C169 C 0.65917 0.63582 0.01814
 C170 C 0.50852 0.89910 0.13947
 C171 C 1.07789 0.46215 0.18019
 H172 H 1.04591 0.42882 0.17861
 C173 C 1.12052 0.46364 0.14276
 H174 H 1.12140 0.43097 0.11259
 C175 C 1.11363 0.54681 0.22010
 H176 H 1.10964 0.58012 0.24927
 C177 C 1.15721 0.54977 0.18350
 H178 H 1.18703 0.58497 0.18491
 N179 N 1.07491 0.50356 0.21760
 C180 C 0.96773 0.43489 0.33648
 H181 H 0.93375 0.46674 0.33679
 C182 C 0.96811 0.39276 0.37290
 H183 H 0.93375 0.39204 0.40078
 C184 C 1.05536 0.39913 0.30110
 H185 H 1.09011 0.40291 0.27402
 C186 C 1.05753 0.35621 0.33715
 H187 H 1.09349 0.32642 0.33731
 Zn188 Zn 1.01008 0.50245 0.26116
 N189 N 1.01094 0.43747 0.30165
 C190 C 0.90456 0.46041 0.21531
 N191 N 0.94266 0.50417 0.21718
 C192 C 0.93838 0.54616 0.18249
 C193 C 0.89597 0.54390 0.14263
 C194 C 0.86113 0.45688 0.17646
 C195 C 1.05948 0.56179 0.34346
 C196 C 1.06282 0.59911 0.38603
 C197 C 0.97078 0.63994 0.35850
 C198 C 0.96926 0.60177 0.31596
 N199 N 1.01308 0.56337 0.30975
 H200 H 0.90948 0.42666 0.24225
 H201 H 0.96987 0.57991 0.18426
 H202 H 0.89459 0.57648 0.11416
 H203 H 0.83234 0.42089 0.17414
 H204 H 1.09298 0.52996 0.33815
 H205 H 1.09925 0.59653 0.41337
 H206 H 0.93503 0.66933 0.36410
 H207 H 0.93216 0.60127 0.28929
 C208 C 1.01393 0.35322 0.37386
 C209 C 1.16029 0.50844 0.14388
 C210 C 1.01780 0.63787 0.39441
 C211 C 0.85758 0.49801 0.13883
 C212 C -0.06276 0.45794 0.82687
 H213 H -0.03335 0.42208 0.82632
 C214 C -0.10554 0.46253 0.86450
 H215 H -0.10911 0.42976 0.89250
 C216 C -0.09113 0.54624 0.79344
 H217 H -0.08402 0.57996 0.76722
 C218 C -0.13474 0.55221 0.83006
 H219 H -0.16131 0.59013 0.83134
 N220 N -0.05561 0.49998 0.79291
 C221 C 0.05829 0.43618 0.67087
 H222 H 0.09273 0.46661 0.67761
 C223 C 0.06056 0.39854 0.62856
 H224 H 0.09701 0.39964 0.60283
 C225 C -0.03292 0.39988 0.69451
 H226 H -0.06992 0.40188 0.71958
 C227 C -0.03243 0.36134 0.65215
 H228 H -0.06897 0.33334 0.64500
 Zn229 Zn 0.01189 0.49784 0.75139
 N230 N 0.01193 0.43664 0.70257
 C231 C 0.11255 0.44612 0.79671
 N232 N 0.07741 0.49265 0.79745
 C233 C 0.08436 0.53409 0.83461
 C234 C 0.12719 0.52911 0.87367
 C235 C 0.15601 0.43951 0.83505
 C236 C -0.02863 0.56776 0.67463
 C237 C -0.02752 0.61000 0.63833
 C238 C 0.06388 0.64216 0.67665
 C239 C 0.06091 0.59920 0.71260
 N240 N 0.01513 0.56297 0.71074
 H241 H 0.10547 0.41291 0.76775
 H242 H 0.05519 0.57014 0.83487
 H243 H 0.13087 0.56174 0.90378
 H244 H 0.18246 0.40151 0.83518
 H245 H -0.06380 0.53761 0.67327
 H246 H -0.06245 0.61238 0.60950
 H247 H 0.10091 0.67019 0.67760
 H248 H 0.09604 0.59373 0.74071
 C249 C 0.01461 0.36136 0.61831
 C250 C -0.14132 0.51087 0.86689
 C251 C 0.01961 0.64744 0.63871
 C252 C 0.16293 0.48071 0.87456
 N253 N 0.05042 0.21878 0.49391
 N254 N 0.05872 0.17900 0.52520
 N255 N 0.72682 0.56695 -0.01201
 N256 N 0.70146 0.59192 0.02545
 N257 N 0.93083 -0.20473 0.52188
 N258 N 0.89356 -0.19663 0.48565
 N259 N 0.29208 0.42629 1.00406
 N260 N 0.33268 0.42305 0.97153
 N261 N 0.92635 0.20632 0.48416
 N262 N 0.88817 0.19719 0.51750
 N263 N 0.29968 0.54625 0.02727
 N264 N 0.30376 0.58656 -0.00367
 N265 N 0.05484 -0.21802 0.51643
 N266 N 0.06102 -0.18077 0.48264
 N267 N 0.72346 0.45005 1.01378
 N268 N 0.72133 0.40616 0.98439
 N269 N 0.47677 0.08449 1.19961
 N270 N 0.47092 0.07627 1.15094
 N271 N -0.01591 0.69468 0.56533
 N272 N 0.02412 0.68910 0.59979
 N273 N 0.50135 0.92174 -0.20528
 N274 N 0.46812 0.91948 -0.16692
 N275 N 0.97863 0.30753 0.44630
 N276 N 1.01782 0.31139 0.41274
 N277 N 0.46969 0.96138 0.20335
 N278 N 0.51033 0.94862 0.17260
 N279 N -0.02363 0.29238 0.55761
 N280 N 0.01570 0.32752 0.57145
 N281 N 0.49452 0.04329 0.78664
 N282 N 0.53511 0.05336 0.81983
 N283 N 0.98030 0.70702 0.45356
 N284 N 1.01984 0.67178 0.44118
 N285 N 1.20154 0.48095 0.06437
 N286 N 1.20139 0.51453 0.10363
 N287 N 0.55241 -0.02560 0.70696
 N288 N 0.55353 0.00954 0.67092
 N289 N -0.18346 0.48901 0.94676
 N290 N -0.18041 0.52155 0.90869
 N291 N 0.40945 0.02928 0.28047
 N292 N 0.41611 0.04034 0.32869
 N293 N 0.20663 0.50470 0.95589
 N294 N 0.20220 0.47020 0.91740
 N295 N 0.53569 0.02666 0.28310
 N296 N 0.54169 -0.01028 0.31742
 N297 N 0.81863 0.52109 0.05623
 N298 N 0.81821 0.48972 0.09528
 N299 N 0.42707 -0.02585 0.71355
 N300 N 0.42973 -0.03899 0.66564
   
