data_POSCAR
  _audit_creation_date              2014-09-24
  _audit_creation_method            'ToBaCCo'
  _symmetry_space_group_name_H-M    'P1'
  _symmetry_Int_Tables_number       1
  _symmetry_cell_setting            triclinic
  loop_
  _symmetry_equiv_pos_as_xyz
 x,y,z
_cell_length_a 14.3877
_cell_length_b 13.6797
_cell_length_c 14.5261
_cell_angle_alpha 89.246400
_cell_angle_beta 92.564600
_cell_angle_gamma 91.818600
loop_
  _atom_site_label
  _atom_site_type_symbol
  _atom_site_fract_x
  _atom_site_fract_y
  _atom_site_fract_z
C1 C -0.11859 0.53861 0.33886
 C2 C -0.03970 0.54213 0.28890
 C3 C -0.00634 0.62630 0.24679
 C4 C -0.04782 0.71410 0.26110
 C5 C -0.12565 0.71383 0.31956
 C6 C -0.16598 0.62334 0.35266
 C7 C 0.01280 0.45739 0.28509
 C8 C -0.01267 0.38924 0.21877
 C9 C 0.04371 0.31202 0.20624
 C10 C 0.12456 0.30201 0.26600
 C11 C 0.15603 0.37961 0.32570
 C12 C 0.09511 0.45394 0.33832
 H13 H -0.13862 0.46967 0.37096
 H14 H 0.05628 0.62335 0.20809
 H15 H -0.07374 0.39978 0.17344
 H16 H 0.11179 0.51176 0.38710
 H17 H -0.15896 0.78163 0.33227
 H18 H 0.16672 0.23899 0.26118
 C19 C -0.11910 0.49536 0.69509
 C20 C -0.03253 0.45693 0.71497
 C21 C -0.02370 0.37147 0.76702
 C22 C -0.09619 0.33766 0.82028
 C23 C -0.18304 0.38576 0.80963
 C24 C -0.19662 0.45988 0.74059
 C25 C 0.04590 0.52494 0.72483
 C26 C 0.03651 0.60103 0.78622
 C27 C 0.11317 0.64305 0.83393
 C28 C 0.20302 0.60666 0.81538
 C29 C 0.21290 0.53516 0.74514
 C30 C 0.13256 0.49446 0.70258
 H31 H -0.12176 0.56256 0.65508
 H32 H 0.04564 0.34507 0.78149
 H33 H -0.03276 0.61688 0.80658
 H34 H 0.13543 0.43148 0.65862
 H35 H -0.24088 0.36168 0.84999
 H36 H 0.26467 0.63805 0.85040
 C37 C 0.24572 -0.13714 0.50077
 C38 C 0.20939 -0.04661 0.52098
 C39 C 0.16823 -0.02900 0.60303
 C40 C 0.16047 -0.10447 0.66657
 C41 C 0.19139 -0.19854 0.64391
 C42 C 0.23951 -0.21440 0.56294
 C43 C 0.22565 0.03155 0.45757
 C44 C 0.19224 0.01709 0.36838
 C45 C 0.23829 0.05868 0.29479
 C46 C 0.31833 0.12043 0.31511
 C47 C 0.34389 0.14509 0.40853
 C48 C 0.29725 0.09828 0.47881
 H49 H 0.27955 -0.14510 0.43639
 H50 H 0.14617 0.04392 0.61733
 H51 H 0.13864 -0.03968 0.35704
 H52 H 0.32225 0.10659 0.54994
 H53 H 0.18606 -0.25681 0.69364
 H54 H 0.35661 0.15315 0.25963
 C55 C 0.70054 -0.09343 0.46109
 C56 C 0.76301 -0.01858 0.43770
 C57 C 0.78448 -0.00008 0.34693
 C58 C 0.74444 -0.05655 0.27575
 C59 C 0.67150 -0.12461 0.29831
 C60 C 0.65107 -0.14553 0.39255
 C61 C 0.79011 0.05307 0.50628
 C62 C 0.82628 0.02255 0.59244
 C63 C 0.82992 0.08745 0.66522
 C64 C 0.80173 0.18522 0.64746
 C65 C 0.76489 0.21562 0.56101
 C66 C 0.76118 0.14879 0.49017
 H67 H 0.68290 -0.10245 0.53249
 H68 H 0.83054 0.06185 0.33261
 H69 H 0.84472 -0.05303 0.60300
 H70 H 0.73036 0.16935 0.42350
 H71 H 0.63463 -0.16433 0.24370
 H72 H 0.80339 0.23704 0.70201
 C73 C 0.47967 0.32595 1.10871
 C74 C 0.45769 0.27497 1.02811
 C75 C 0.36911 0.23395 1.00794
 C76 C 0.29861 0.24758 1.06770
 C77 C 0.31950 0.30835 1.14467
 C78 C 0.41076 0.34194 1.16834
 C79 C 0.52938 0.25824 0.96673
 C80 C 0.61087 0.21860 1.00138
 C81 C 0.67293 0.18235 0.94225
 C82 C 0.65486 0.19624 0.84470
 C83 C 0.57833 0.25355 0.81124
 C84 C 0.51289 0.27625 0.87379
 H85 H 0.54942 0.35608 1.12305
 H86 H 0.35825 0.18766 0.94833
 H87 H 0.62141 0.20730 1.07529
 H88 H 0.44767 0.30809 0.85095
 H89 H 0.26605 0.33034 1.18667
 H90 H 0.70195 0.16986 0.79681
 C91 C 0.51618 0.68816 1.10988
 C92 C 0.53846 0.73898 1.03075
 C93 C 0.62991 0.76746 1.01275
 C94 C 0.70397 0.73801 1.07038
 C95 C 0.68134 0.67912 1.14837
 C96 C 0.58684 0.65774 1.16965
 C97 C 0.46749 0.75629 0.96071
 C98 C 0.39130 0.81063 0.98007
 C99 C 0.33823 0.85114 0.90799
 C100 C 0.36153 0.82955 0.81511
 C101 C 0.43040 0.75978 0.79719
 C102 C 0.48430 0.72747 0.87200
 H103 H 0.44433 0.66688 1.12143
 H104 H 0.64056 0.81253 0.95241
 H105 H 0.38112 0.83102 1.05073
 H106 H 0.54491 0.68462 0.86209
 H107 H 0.73643 0.65252 1.19378
 H108 H 0.32482 0.86386 0.75792
 B109 B 0.98562 1.08895 0.04647
 B110 B 1.05810 1.00215 0.08866
 B111 B 0.93699 0.98150 0.08153
 B112 B 0.89637 1.03175 -0.01785
 B113 B 0.98864 1.08725 -0.06919
 B114 B 1.08792 1.06640 -0.00698
 B115 B 1.01409 0.88473 -0.05894
 B116 B 0.94353 0.97519 -0.10592
 B117 B 1.05838 0.99442 -0.10066
 B118 B 1.10416 0.94386 -0.00117
 B119 B 1.01210 0.89215 0.05837
 B120 B 0.91323 0.90874 -0.00975
 B121 B 0.59389 0.52124 0.45139
 B122 B 0.59418 0.52221 0.56790
 B123 B 0.54313 0.61524 0.50283
 B124 B 0.48916 0.56249 0.40821
 B125 B 0.50404 0.44267 0.41189
 B126 B 0.57129 0.41530 0.50822
 B127 B 0.40706 0.48755 0.56525
 B128 B 0.40100 0.48563 0.44748
 B129 B 0.45392 0.39375 0.50632
 B130 B 0.51017 0.44172 0.60154
 B131 B 0.49297 0.56873 0.59852
 B132 B 0.42607 0.59270 0.50139
 C133 C 1.02591 1.25757 0.11948
 C134 C 0.97129 1.17766 0.11506
 H135 H 1.06176 1.28247 0.05935
 H136 H 0.93000 1.16250 0.17418
 C137 C 0.98583 0.79893 0.21550
 C138 C 1.01821 0.79942 0.12809
 H139 H 0.97428 0.86587 0.24913
 H140 H 1.02831 0.73104 0.09400
 C141 C 0.91909 1.25965 -0.11611
 C142 C 0.98318 1.18942 -0.12609
 H143 H 0.87329 1.25359 -0.06044
 H144 H 1.02768 1.19315 -0.18383
 C145 C 1.09926 0.71938 -0.10235
 C146 C 1.02385 0.77932 -0.10758
 H147 H 1.15693 0.73691 -0.05551
 H148 H 0.96831 0.76647 -0.15875
 C149 C 1.20424 1.03500 0.20469
 C150 C 1.11172 1.01732 0.18610
 H151 H 1.25194 1.03843 0.14931
 H152 H 1.06454 1.02480 0.24079
 C153 C 1.13199 0.91329 -0.23917
 C154 C 1.10160 0.99575 -0.20184
 H155 H 1.14722 0.85410 -0.19497
 H156 H 1.09305 1.06060 -0.24387
 C157 C 0.78339 0.95378 0.18135
 C158 C 0.87393 0.98184 0.17089
 H159 H 0.73931 0.93364 0.12227
 H160 H 0.91410 1.00502 0.23105
 C161 C 0.85559 1.05933 -0.24395
 C162 C 0.89314 0.97555 -0.20929
 H163 H 0.84417 1.11529 -0.19678
 H164 H 0.90478 0.91467 -0.25354
 C165 C 1.21320 1.19446 0.05960
 C166 C 1.17834 1.14010 -0.01189
 H167 H 1.17647 1.19137 0.12091
 H168 H 1.21257 1.14175 -0.07656
 C169 C 0.75187 1.14048 -0.01388
 C170 C 0.79202 1.06252 -0.04417
 H171 H 0.77920 1.17099 0.05078
 H172 H 0.75454 1.02145 -0.09804
 C173 C 1.26667 0.91503 -0.07160
 C174 C 1.20856 0.90223 -0.00007
 H175 H 1.25346 0.97147 -0.12181
 H176 H 1.22262 0.84674 0.05201
 C177 C 0.79661 0.77327 0.05673
 C178 C 0.82379 0.83401 -0.01310
 H179 H 0.84523 0.75858 0.11210
 H180 H 0.77933 0.84440 -0.07381
 C181 C 0.74915 0.61719 0.39817
 C182 C 0.69417 0.53399 0.40528
 H183 H 0.72885 0.68395 0.42588
 H184 H 0.71355 0.46764 0.37260
 C185 C 0.25295 0.38712 0.36887
 C186 C 0.29709 0.47191 0.39799
 H187 H 0.29067 0.32183 0.36819
 H188 H 0.26133 0.53970 0.38862
 C189 C 0.70926 0.49649 0.71214
 C190 C 0.69023 0.53567 0.62698
 H191 H 0.65389 0.47803 0.75705
 H192 H 0.74649 0.55765 0.58423
 C193 C 0.30512 0.50551 0.71185
 C194 C 0.31555 0.47346 0.62410
 H195 H 0.36479 0.52285 0.75626
 H196 H 0.25499 0.45659 0.58020
 C197 C 0.56255 0.59703 0.24983
 C198 C 0.49082 0.61117 0.30609
 H199 H 0.60843 0.53770 0.26138
 H200 H 0.43914 0.66469 0.28781
 C201 C 0.44911 0.72045 0.70327
 C202 C 0.48829 0.63178 0.69140
 H203 H 0.42793 0.76404 0.64434
 H204 H 0.51136 0.58995 0.75093
 C205 C 0.43086 0.40173 0.25024
 C206 C 0.50095 0.38773 0.31412
 H207 H 0.38242 0.45887 0.25730
 H208 H 0.55282 0.33418 0.30249
 C209 C 0.56493 0.29387 0.71471
 C210 C 0.51953 0.37911 0.69647
 H211 H 0.59461 0.25416 0.66071
 H212 H 0.49318 0.41807 0.75326
 C213 C 0.58348 0.78223 0.41667
 C214 C 0.58660 0.72600 0.49568
 H215 H 0.53276 0.76691 0.36326
 H216 H 0.63776 0.74300 0.55035
 C217 C 0.72201 0.31302 0.54800
 C218 C 0.63756 0.32274 0.50529
 H219 H 0.75626 0.37365 0.58222
 H220 H 0.60532 0.25837 0.47408
 C221 C 0.28594 0.69723 0.55145
 C222 C 0.35609 0.68290 0.49390
 H223 H 0.27087 0.64247 0.60110
 H224 H 0.37608 0.73900 0.44518
 C225 C 0.41698 0.22030 0.43418
 C226 C 0.40618 0.28595 0.50241
 H227 H 0.47273 0.22790 0.38808
 H228 H 0.34795 0.27604 0.54657
   
