data_POSCAR
  _audit_creation_date              2014-09-24
  _audit_creation_method            'ToBaCCo'
  _symmetry_space_group_name_H-M    'P1'
  _symmetry_Int_Tables_number       1
  _symmetry_cell_setting            triclinic
  loop_
  _symmetry_equiv_pos_as_xyz
 x,y,z
_cell_length_a 32.7034
_cell_length_b 32.5446
_cell_length_c 32.6213
_cell_angle_alpha 89.933500
_cell_angle_beta 90.052900
_cell_angle_gamma 89.943000
loop_
  _atom_site_label
  _atom_site_type_symbol
  _atom_site_fract_x
  _atom_site_fract_y
  _atom_site_fract_z
C1 C 0.24420 0.39962 0.00087
 C2 C 0.26106 0.38693 0.03792
 C3 C 0.29192 0.35710 0.03848
 C4 C 0.30518 0.33804 0.00161
 C5 C 0.28642 0.35100 -0.03567
 C6 C 0.25703 0.38232 -0.03591
 C7 C 0.33836 0.30555 0.00188
 C8 C 0.35693 0.29235 -0.03523
 C9 C 0.38689 0.26168 -0.03515
 C10 C 0.40045 0.24509 0.00175
 C11 C 0.38396 0.25812 0.03879
 C12 C 0.35246 0.28739 0.03908
 H13 H 0.22101 0.42357 0.00071
 H14 H 0.30524 0.34979 0.06783
 H15 H 0.29390 0.33736 -0.06481
 H16 H 0.34912 0.30562 -0.06450
 H17 H 0.42444 0.22195 0.00173
 H18 H 0.33960 0.29524 0.06845
 C19 C 0.75574 0.60135 -0.00362
 C20 C 0.74315 0.61807 0.03344
 C21 C 0.71380 0.64928 0.03404
 C22 C 0.69469 0.66282 -0.00273
 C23 C 0.70766 0.64441 -0.04015
 C24 C 0.73863 0.61457 -0.04039
 C25 C 0.66158 0.69535 -0.00177
 C26 C 0.64743 0.71448 -0.03836
 C27 C 0.61610 0.74387 -0.03717
 C28 C 0.59984 0.75612 0.00028
 C29 C 0.61344 0.73858 0.03669
 C30 C 0.64325 0.70774 0.03584
 H31 H 0.77893 0.57743 -0.00382
 H32 H 0.70661 0.66233 0.06350
 H33 H 0.69402 0.65221 -0.06924
 H34 H 0.66022 0.70721 -0.06794
 H35 H 0.57594 0.77933 0.00116
 H36 H 0.65108 0.69376 0.06475
 C37 C 0.75574 0.39899 1.00396
 C38 C 0.74317 0.38229 0.96687
 C39 C 0.71382 0.35115 0.96620
 C40 C 0.69469 0.33765 1.00293
 C41 C 0.70762 0.35605 1.04038
 C42 C 0.73860 0.38582 1.04068
 C43 C 0.66157 0.30520 1.00189
 C44 C 0.64740 0.28611 1.03845
 C45 C 0.61606 0.25679 1.03719
 C46 C 0.59982 0.24458 0.99970
 C47 C 0.61345 0.26207 0.96332
 C48 C 0.64326 0.29284 0.96425
 H49 H 0.77893 0.42287 1.00421
 H50 H 0.70665 0.33811 0.93672
 H51 H 0.69397 0.34828 1.06943
 H52 H 0.66017 0.29335 1.06806
 H53 H 0.57591 0.22141 0.99877
 H54 H 0.65111 0.30680 0.93534
 C55 C 0.24485 0.60110 0.99924
 C56 C 0.26150 0.61360 0.96207
 C57 C 0.29222 0.64353 0.96126
 C58 C 0.30555 0.66281 0.99803
 C59 C 0.28697 0.65000 1.03539
 C60 C 0.25773 0.61866 1.03583
 C61 C 0.33863 0.69536 0.99758
 C62 C 0.35710 0.70887 1.03464
 C63 C 0.38694 0.73959 1.03444
 C64 C 0.40046 0.75596 0.99747
 C65 C 0.38407 0.74261 0.96047
 C66 C 0.35271 0.71325 0.96029
 H67 H 0.22179 0.57711 0.99972
 H68 H 0.30536 0.65076 0.93184
 H69 H 0.29443 0.66369 1.06449
 H70 H 0.34932 0.69581 1.06399
 H71 H 0.42436 0.77914 0.99740
 H72 H 0.33996 0.70511 0.93093
 C73 C -0.00176 0.24425 0.39683
 C74 C 0.03514 0.26145 0.38456
 C75 C 0.03549 0.29316 0.35553
 C76 C -0.00140 0.30690 0.33680
 C77 C -0.03850 0.28799 0.34953
 C78 C -0.03849 0.25771 0.38003
 C79 C -0.00122 0.34070 0.30486
 C80 C -0.03812 0.36004 0.29197
 C81 C -0.03773 0.39079 0.26188
 C82 C -0.00069 0.40413 0.24564
 C83 C 0.03602 0.38657 0.25824
 C84 C 0.03592 0.35444 0.28678
 H85 H -0.00194 0.22045 0.42020
 H86 H 0.06471 0.30679 0.34865
 H87 H -0.06768 0.29609 0.33644
 H88 H -0.06737 0.35212 0.30497
 H89 H -0.00034 0.42861 0.22295
 H90 H 0.06504 0.34074 0.29409
 C91 C -0.00204 0.75537 0.60364
 C92 C 0.03488 0.73801 0.61577
 C93 C 0.03532 0.70628 0.64478
 C94 C -0.00150 0.69270 0.66364
 C95 C -0.03862 0.71177 0.65105
 C96 C -0.03871 0.74206 0.62056
 C97 C -0.00122 0.65887 0.69554
 C98 C -0.03809 0.63962 0.70846
 C99 C -0.03762 0.60886 0.73854
 C100 C -0.00054 0.59541 0.75472
 C101 C 0.03614 0.61289 0.74209
 C102 C 0.03596 0.64504 0.71357
 H103 H -0.00230 0.77917 0.58027
 H104 H 0.06454 0.69250 0.65154
 H105 H -0.06775 0.70378 0.66425
 H106 H -0.06738 0.64761 0.69549
 H107 H -0.00014 0.57094 0.77742
 H108 H 0.06506 0.65870 0.70625
 C109 C 1.00192 0.75479 0.40296
 C110 C 0.96508 0.73831 0.38954
 C111 C 0.96482 0.70850 0.35867
 C112 C 1.00175 0.69611 0.33921
 C113 C 1.03879 0.71439 0.35299
 C114 C 1.03873 0.74266 0.38533
 C115 C 1.00165 0.66444 0.30527
 C116 C 1.03857 0.64580 0.29160
 C117 C 1.03824 0.61694 0.25977
 C118 C 1.00132 0.60474 0.24247
 C119 C 0.96461 0.62139 0.25597
 C120 C 0.96457 0.65176 0.28629
 H121 H 1.00186 0.77726 0.42758
 H122 H 0.93562 0.69536 0.35081
 H123 H 1.06788 0.70741 0.33911
 H124 H 1.06772 0.65262 0.30547
 H125 H 1.00103 0.58141 0.21866
 H126 H 0.93536 0.66476 0.29442
 C127 C 1.00219 0.24460 0.59835
 C128 C 0.96532 0.26113 0.61162
 C129 C 0.96500 0.29095 0.64251
 C130 C 1.00190 0.30331 0.66206
 C131 C 1.03896 0.28497 0.64837
 C132 C 1.03892 0.25668 0.61609
 C133 C 1.00178 0.33501 0.69597
 C134 C 1.03871 0.35351 0.70980
 C135 C 1.03835 0.38244 0.74157
 C136 C 1.00142 0.39480 0.75870
 C137 C 0.96470 0.37827 0.74507
 C138 C 0.96467 0.34787 0.71477
 H139 H 1.00232 0.22215 0.57374
 H140 H 0.93578 0.30412 0.65028
 H141 H 1.06809 0.29189 0.66219
 H142 H 1.06788 0.34654 0.69608
 H143 H 1.00111 0.41817 0.78247
 H144 H 0.93546 0.33501 0.70651
 C145 C 0.40005 -0.00359 0.24397
 C146 C 0.38749 0.03358 0.26072
 C147 C 0.35763 0.03417 0.29138
 C148 C 0.33824 -0.00271 0.30436
 C149 C 0.35120 -0.04014 0.28595
 C150 C 0.38264 -0.04043 0.25677
 C151 C 0.30529 -0.00211 0.33688
 C152 C 0.29228 -0.03887 0.35656
 C153 C 0.26140 -0.03803 0.38624
 C154 C 0.24442 -0.00076 0.39820
 C155 C 0.25717 0.03586 0.38038
 C156 C 0.28652 0.03535 0.34920
 H157 H 0.42402 -0.00379 0.22090
 H158 H 0.35053 0.06358 0.30480
 H159 H 0.33739 -0.06923 0.29361
 H160 H 0.30588 -0.06829 0.34984
 H161 H 0.22126 -0.00021 0.42204
 H162 H 0.29399 0.06439 0.33517
 C163 C 0.59957 0.00413 0.75564
 C164 C 0.61230 0.04088 0.73808
 C165 C 0.64212 0.04067 0.70735
 C166 C 0.66124 0.00337 0.69510
 C167 C 0.64815 -0.03356 0.71440
 C168 C 0.61679 -0.03306 0.74362
 C169 C 0.69405 0.00296 0.66245
 C170 C 0.70682 -0.03437 0.64372
 C171 C 0.73767 -0.03451 0.61401
 C172 C 0.75484 0.00232 0.60103
 C173 C 0.74230 0.03946 0.61787
 C174 C 0.71298 0.03996 0.64907
 H175 H 0.57563 0.00452 0.77874
 H176 H 0.64940 0.06976 0.69331
 H177 H 0.66180 -0.06291 0.70740
 H178 H 0.69308 -0.06353 0.65121
 H179 H 0.77800 0.00210 0.57719
 H180 H 0.70564 0.06939 0.66230
 C181 C 0.39931 1.00374 0.75449
 C182 C 0.38714 0.96640 0.73786
 C183 C 0.35743 0.96548 0.70698
 C184 C 0.33783 1.00219 0.69369
 C185 C 0.35042 1.03977 0.71202
 C186 C 0.38167 1.04036 0.74139
 C187 C 0.30507 1.00127 0.66095
 C188 C 0.29201 1.03786 0.64092
 C189 C 0.26121 1.03675 0.61105
 C190 C 0.24445 0.99929 0.59928
 C191 C 0.25729 0.96285 0.61750
 C192 C 0.28649 0.96368 0.64884
 H193 H 0.42314 1.00433 0.77770
 H194 H 0.35063 0.93598 0.69363
 H195 H 0.33650 1.06879 0.70419
 H196 H 0.30554 1.06732 0.64759
 H197 H 0.22132 0.99836 0.57535
 H198 H 0.29400 0.93479 0.66320
 C199 C 0.59963 0.99661 0.24436
 C200 C 0.61235 0.95982 0.26193
 C201 C 0.64215 0.95996 0.29273
 C202 C 0.66126 0.99722 0.30505
 C203 C 0.64817 1.03419 0.28574
 C204 C 0.61684 1.03376 0.25644
 C205 C 0.69407 0.99754 0.33778
 C206 C 0.70690 1.03485 0.35650
 C207 C 0.73775 1.03490 0.38629
 C208 C 0.75485 0.99801 0.39932
 C209 C 0.74226 0.96090 0.38247
 C210 C 0.71295 0.96049 0.35121
 H211 H 0.57571 0.99628 0.22119
 H212 H 0.64942 0.93085 0.30677
 H213 H 0.66180 1.06351 0.29280
 H214 H 0.69323 1.06405 0.34897
 H215 H 0.77801 0.99815 0.42321
 H216 H 0.70557 0.93108 0.33799
 O217 O 0.82792 0.88755 0.53930
 O218 O 0.88732 0.82844 0.46508
 O219 O 0.83181 0.88535 0.46073
 O220 O 0.88501 0.83216 0.54363
 O221 O 0.83823 0.78313 0.54390
 O222 O 0.78338 0.83797 0.46031
 O223 O 0.84010 0.77985 0.46424
 O224 O 0.77991 0.83976 0.54000
 Cu225 Cu 0.86271 0.86313 0.50221
 Cu226 Cu 0.80551 0.80523 0.50213
 C227 C 0.79366 0.87432 0.55166
 C228 C 0.87439 0.79395 0.45262
 C229 C 0.79830 0.87153 0.44710
 C230 C 0.87152 0.79832 0.55713
 O231 O 0.11250 0.17040 0.46023
 O232 O 0.17179 0.11150 0.53505
 O233 O 0.11471 0.16684 0.53882
 O234 O 0.16771 0.11306 0.45644
 O235 O 0.21637 0.16019 0.45580
 O236 O 0.16160 0.21577 0.53880
 O237 O 0.21988 0.15921 0.53551
 O238 O 0.15994 0.21877 0.45908
 Cu239 Cu 0.13698 0.13571 0.49765
 Cu240 Cu 0.19435 0.19342 0.49723
 C241 C 0.12556 0.20478 0.44756
 C242 C 0.20603 0.12478 0.54746
 C243 C 0.12830 0.20069 0.55212
 C244 C 0.20134 0.12660 0.44286
 O245 O 0.11212 0.82833 0.53927
 O246 O 0.17127 0.88632 0.46381
 O247 O 0.11375 0.83153 0.46067
 O248 O 0.16752 0.88541 0.54244
 O249 O 0.21598 0.83797 0.54314
 O250 O 0.16030 0.78219 0.46083
 O251 O 0.21905 0.83819 0.46341
 O252 O 0.15934 0.77966 0.54056
 Cu253 Cu 0.13649 0.86267 0.50152
 Cu254 Cu 0.19355 0.80453 0.50206
 C255 C 0.12509 0.79394 0.55213
 C256 C 0.20534 0.87266 0.45131
 C257 C 0.12701 0.79746 0.44756
 C258 C 0.20118 0.87175 0.55594
 O259 O 0.82813 0.11253 0.46116
 O260 O 0.88759 0.17136 0.53558
 O261 O 0.83196 0.11469 0.53975
 O262 O 0.88526 0.16778 0.45700
 O263 O 0.83853 0.21695 0.45667
 O264 O 0.78361 0.16224 0.54012
 O265 O 0.84044 0.22011 0.53636
 O266 O 0.78017 0.16047 0.46042
 Cu267 Cu 0.86292 0.13682 0.49835
 Cu268 Cu 0.80580 0.19491 0.49837
 C269 C 0.79388 0.12587 0.44876
 C270 C 0.87470 0.20587 0.54805
 C271 C 0.79847 0.12863 0.55333
 C272 C 0.87181 0.20168 0.44351
 O273 O 0.46305 0.89029 0.82926
 O274 O 0.53994 0.83404 0.88822
 O275 O 0.54137 0.89102 0.83271
 O276 O 0.46113 0.83398 0.88589
 O277 O 0.46259 0.78547 0.83853
 O278 O 0.54369 0.84390 0.78396
 O279 O 0.54248 0.78579 0.84062
 O280 O 0.46434 0.84293 0.78072
 Cu281 Cu 0.50111 0.86699 0.86382
 Cu282 Cu 0.50342 0.80954 0.80609
 C283 C 0.45139 0.87693 0.79473
 C284 C 0.55390 0.80030 0.87490
 C285 C 0.55549 0.87789 0.79905
 C286 C 0.44875 0.79988 0.87198
 O287 O 0.46320 0.11018 0.17001
 O288 O 0.54005 0.16659 0.11148
 O289 O 0.54153 0.10964 0.16701
 O290 O 0.46125 0.16656 0.11344
 O291 O 0.46236 0.21502 0.16087
 O292 O 0.54353 0.15674 0.21580
 O293 O 0.54226 0.21483 0.15911
 O294 O 0.46416 0.15749 0.21861
 Cu295 Cu 0.50128 0.13359 0.13568
 Cu296 Cu 0.50319 0.19100 0.19346
 C297 C 0.45138 0.12348 0.20450
 C298 C 0.55385 0.20035 0.12489
 C299 C 0.55550 0.12279 0.20074
 C300 C 0.44869 0.20062 0.12734
 O301 O 0.53666 0.11749 0.82780
 O302 O 0.46031 0.17349 0.88703
 O303 O 0.45815 0.11740 0.83072
 O304 O 0.53839 0.17315 0.88500
 O305 O 0.53738 0.22246 0.83830
 O306 O 0.45621 0.16524 0.78255
 O307 O 0.45825 0.22259 0.84013
 O308 O 0.53591 0.16547 0.77976
 Cu309 Cu 0.49859 0.14053 0.86225
 Cu310 Cu 0.49685 0.19886 0.80521
 C311 C 0.54862 0.13122 0.79352
 C312 C 0.44712 0.20783 0.87441
 C313 C 0.44409 0.13116 0.79724
 C314 C 0.55054 0.20768 0.87191
 O315 O 0.53680 0.88352 0.17188
 O316 O 0.46042 0.82787 0.11233
 O317 O 0.45829 0.88402 0.16860
 O318 O 0.53849 0.82783 0.11471
 O319 O 0.53721 0.77855 0.16143
 O320 O 0.45609 0.83626 0.21682
 O321 O 0.45807 0.77883 0.15928
 O322 O 0.53578 0.83556 0.21995
 Cu323 Cu 0.49873 0.86066 0.13727
 Cu324 Cu 0.49667 0.80239 0.19435
 C325 C 0.54863 0.86974 0.20622
 C326 C 0.44709 0.79361 0.12493
 C327 C 0.44412 0.87038 0.20205
 C328 C 0.55050 0.79325 0.12787
 O329 O 0.88695 0.53659 0.82946
 O330 O 0.83222 0.45932 0.88895
 O331 O 0.88764 0.45776 0.83265
 O332 O 0.82948 0.53805 0.88496
 O333 O 0.78146 0.53567 0.83728
 O334 O 0.84058 0.45415 0.78405
 O335 O 0.78403 0.45578 0.84146
 O336 O 0.84023 0.53399 0.78049
 Cu337 Cu 0.86376 0.49843 0.86374
 Cu338 Cu 0.80667 0.49479 0.80588
 C339 C 0.87389 0.54750 0.79457
 C340 C 0.79878 0.44485 0.87586
 C341 C 0.87447 0.44272 0.79936
 C342 C 0.79523 0.54967 0.87090
 O343 O 0.17117 0.46438 0.11363
 O344 O 0.11314 0.54113 0.17099
 O345 O 0.16785 0.54321 0.11337
 O346 O 0.11333 0.46233 0.16808
 O347 O 0.16003 0.46221 0.21716
 O348 O 0.21646 0.54369 0.16054
 O349 O 0.16052 0.54211 0.21938
 O350 O 0.21910 0.46375 0.16149
 Cu351 Cu 0.13669 0.50275 0.13677
 Cu352 Cu 0.19393 0.50296 0.19457
 C353 C 0.20520 0.45160 0.12725
 C354 C 0.12638 0.55404 0.20514
 C355 C 0.20165 0.55649 0.12677
 C356 C 0.12651 0.44925 0.20216
 O357 O 0.83217 0.54089 0.11157
 O358 O 0.88685 0.46345 0.17110
 O359 O 0.82939 0.46218 0.11552
 O360 O 0.88756 0.54229 0.16802
 O361 O 0.84048 0.54596 0.21652
 O362 O 0.78137 0.46462 0.16312
 O363 O 0.84013 0.46611 0.21998
 O364 O 0.78396 0.54449 0.15895
 Cu365 Cu 0.86368 0.50171 0.13682
 Cu366 Cu 0.80657 0.50542 0.19457
 C367 C 0.79872 0.55542 0.12459
 C368 C 0.87378 0.45252 0.20595
 C369 C 0.79514 0.45061 0.12951
 C370 C 0.87437 0.55732 0.20129
 O371 O 0.17149 0.53560 0.88702
 O372 O 0.11332 0.45858 0.83016
 O373 O 0.16806 0.45676 0.88788
 O374 O 0.11355 0.53740 0.83258
 O375 O 0.16017 0.53703 0.78352
 O376 O 0.21666 0.45583 0.84080
 O377 O 0.16068 0.45710 0.78184
 O378 O 0.21935 0.53577 0.83918
 Cu379 Cu 0.13693 0.49714 0.86415
 Cu380 Cu 0.19410 0.49636 0.80641
 C381 C 0.20549 0.54822 0.87332
 C382 C 0.12653 0.44538 0.79612
 C383 C 0.20185 0.44331 0.87464
 C384 C 0.12669 0.55020 0.79842
 C385 C 0.24562 0.40603 0.07455
 C386 C 0.22880 0.42527 0.10120
 C387 C 0.76008 0.60081 0.07035
 C388 C 0.77651 0.58207 0.09763
 C389 C 0.76012 0.39952 0.93000
 C390 C 0.77656 0.41824 0.90277
 C391 C 0.24598 0.59422 0.92560
 C392 C 0.22912 0.57476 0.89913
 C393 C 0.07185 0.24565 0.40328
 C394 C 0.09883 0.22864 0.42199
 C395 C 0.07152 0.75360 0.59685
 C396 C 0.09842 0.77041 0.57795
 C397 C 0.92823 0.75352 0.40837
 C398 C 0.90117 0.77022 0.42711
 C399 C 0.92852 0.24604 0.59260
 C400 C 0.90147 0.22946 0.57371
 C401 C 0.40648 0.07036 0.24524
 C402 C 0.42545 0.09722 0.22836
 C403 C 0.59351 0.07805 0.75290
 C404 C 0.57458 0.10510 0.76955
 C405 C 0.40634 0.92981 0.75363
 C406 C 0.42541 0.90308 0.77071
 C407 C 0.59355 0.92271 0.24704
 C408 C 0.57461 0.89574 0.23030
 C409 C 0.40390 0.24715 0.92965
 C410 C 0.42187 0.23091 0.90183
 C411 C 0.59941 0.76048 0.92828
 C412 C 0.58058 0.77746 0.90136
 C413 C 0.40392 0.75430 0.06960
 C414 C 0.42186 0.77060 0.09742
 C415 C 0.59936 0.24021 0.07170
 C416 C 0.58052 0.22323 0.09855
 C417 C 0.24648 0.07129 0.59248
 C418 C 0.22978 0.09825 0.57335
 C419 C 0.75307 0.07202 0.40476
 C420 C 0.76994 0.09918 0.42333
 C421 C 0.75294 0.92832 0.59556
 C422 C 0.76976 0.90110 0.57703
 C423 C 0.24597 0.92542 0.40577
 C424 C 0.22911 0.89880 0.42513
 C425 C 0.07306 0.40026 0.75629
 C426 C 0.10008 0.41918 0.77284
 C427 C 0.07295 0.59908 0.24512
 C428 C 0.09997 0.58017 0.22854
 C429 C 0.92737 0.40844 0.24711
 C430 C 0.90013 0.42693 0.23024
 C431 C 0.92750 0.59133 0.75337
 C432 C 0.90027 0.57296 0.77027
 C433 C 0.75400 0.59582 0.92264
 C434 C 0.77109 0.57648 0.89614
 C435 C 0.24110 0.39815 0.92877
 C436 C 0.22456 0.41653 0.90122
 C437 C 0.24099 0.60206 0.07320
 C438 C 0.22436 0.58344 0.10046
 C439 C 0.75394 0.40454 0.07768
 C440 C 0.77101 0.42385 0.10422
 C441 C 0.92422 0.75905 0.60373
 C442 C 0.89732 0.77579 0.58471
 C443 C 0.92449 0.24081 0.39693
 C444 C 0.89762 0.22414 0.41596
 C445 C 0.07588 0.23990 0.59891
 C446 C 0.10266 0.22326 0.57973
 C447 C 0.07377 0.75847 0.40155
 C448 C 0.10096 0.77492 0.42032
 C449 C 0.60081 0.93193 0.76004
 C450 C 0.58232 0.90459 0.77672
 C451 C 0.39850 0.92421 0.24096
 C452 C 0.41707 0.89679 0.22449
 C453 C 0.60086 0.06879 0.23996
 C454 C 0.58235 0.09612 0.22320
 C455 C 0.39819 0.07781 0.75805
 C456 C 0.41694 0.10499 0.77467
 C457 C 0.59535 0.75333 0.07418
 C458 C 0.57670 0.76976 0.10153
 C459 C 0.40169 0.24112 0.07561
 C460 C 0.42117 0.22398 0.10203
 C461 C 0.59538 0.24737 0.92579
 C462 C 0.57674 0.23103 0.89838
 C463 C 0.40178 0.75943 0.92360
 C464 C 0.42126 0.77651 0.89719
 C465 C 0.75923 0.92394 0.39987
 C466 C 0.77589 0.89717 0.41925
 C467 C 0.24053 0.92524 0.60146
 C468 C 0.22386 0.89791 0.58299
 C469 C 0.24036 0.07330 0.39679
 C470 C 0.22377 0.10051 0.41553
 C471 C 0.75932 0.07636 0.60050
 C472 C 0.77603 0.10306 0.58115
 C473 C 0.92765 0.60418 0.23930
 C474 C 0.90073 0.58491 0.22301
 C475 C 0.92774 0.39565 0.76156
 C476 C 0.90082 0.41503 0.77774
 C477 C 0.07330 0.59587 0.75880
 C478 C 0.10044 0.57711 0.77550
 C479 C 0.07314 0.40355 0.24155
 C480 C 0.10026 0.42230 0.22492
   
