data_POSCAR
  _audit_creation_date              2014-09-24
  _audit_creation_method            'ToBaCCo'
  _symmetry_space_group_name_H-M    'P1'
  _symmetry_Int_Tables_number       1
  _symmetry_cell_setting            triclinic
  loop_
  _symmetry_equiv_pos_as_xyz
 x,y,z
_cell_length_a 38.9116
_cell_length_b 32.5988
_cell_length_c 28.5779
_cell_angle_alpha 89.921900
_cell_angle_beta 89.921100
_cell_angle_gamma 89.824000
loop_
  _atom_site_label
  _atom_site_type_symbol
  _atom_site_fract_x
  _atom_site_fract_y
  _atom_site_fract_z
Si1 Si 1.25471 0.24442 0.25427
 Si2 Si 0.74268 -0.25189 0.24879
 Si3 Si 0.75032 0.25009 -0.25773
 Si4 Si 1.25079 -0.24777 -0.25138
 Si5 Si 0.24961 0.24787 0.74679
 Si6 Si 0.74677 0.74804 0.75647
 Si7 Si 0.74517 0.25115 0.26285
 Si8 Si 0.25376 0.75341 0.24834
 O9 O 1.04759 0.07555 0.08505
 O10 O 1.08471 0.03509 0.04254
 C11 C 1.07822 0.06381 0.07278
 O12 O 0.95074 -0.07012 0.09375
 O13 O 0.91144 -0.03326 0.05075
 C14 C 0.91946 -0.06017 0.08256
 O15 O 1.04668 -0.06694 0.09375
 O16 O 1.08446 -0.03365 0.04496
 C17 C 1.07759 -0.05807 0.07979
 O18 O 0.95175 0.07854 0.08783
 O19 O 0.91197 0.03934 0.04910
 C20 C 0.92032 0.06804 0.07844
 Zr21 Zr 0.99890 0.05404 0.06345
 O22 O 1.00060 0.04995 0.13721
 O23 O 0.99851 0.11893 0.06641
 Zr24 Zr 0.99820 -0.04892 0.06710
 O25 O 0.99688 -0.04818 0.14113
 O26 O 1.00112 -0.11380 0.06730
 O27 O 1.02965 0.00244 0.07283
 O28 O 0.96858 0.00331 0.07525
 O29 O 0.94803 0.07367 -0.07688
 O30 O 0.91012 0.03727 -0.03129
 C31 C 0.91722 0.06409 -0.06356
 O32 O 1.04179 -0.07265 -0.07923
 O33 O 1.08200 -0.03685 -0.03746
 C34 C 1.07332 -0.06371 -0.06888
 O35 O 0.94678 -0.07356 -0.07267
 O36 O 0.90953 -0.03423 -0.02903
 C37 C 0.91613 -0.06231 -0.06012
 O38 O 1.04308 0.06929 -0.08391
 O39 O 1.08282 0.03416 -0.04009
 C40 C 1.07448 0.05964 -0.07337
 Zr41 Zr 0.99604 0.05099 -0.05413
 O42 O 0.99145 0.04946 -0.12794
 O43 O 0.99934 0.11581 -0.05513
 Zr44 Zr 0.99517 -0.05239 -0.04983
 O45 O 0.99337 -0.06086 -0.12316
 O46 O 0.99525 -0.11647 -0.03872
 Zr47 Zr 1.04895 0.00020 0.00380
 Zr48 Zr 0.94524 0.00197 0.00886
 O49 O 0.96555 -0.00035 -0.05936
 O50 O 1.02608 -0.00146 -0.06303
 O51 O 0.96670 0.06127 0.00577
 O52 O 1.02700 -0.05866 0.00741
 O53 O 1.02763 0.05960 0.00281
 O54 O 0.96553 -0.05812 0.01031
 H55 H 0.95398 0.00421 0.10367
 H56 H 1.04242 -0.08292 0.00785
 H57 H 0.94984 -0.00055 -0.08658
 H58 H 1.04330 0.08342 0.00076
 H59 H 0.98114 -0.12418 0.04954
 H60 H 0.99539 -0.12912 -0.07022
 H61 H 0.98622 -0.03445 -0.13709
 H62 H 1.00912 0.03023 -0.13991
 H63 H 0.98078 0.12658 -0.03481
 H64 H 1.00958 0.12924 0.03760
 H65 H 1.00037 0.07855 0.14889
 H66 H 1.01229 -0.02590 0.15151
 O67 O 1.05271 0.57775 0.57548
 O68 O 1.08986 0.53844 0.53167
 C69 C 1.08328 0.56705 0.56195
 O70 O 0.95651 0.42633 0.57553
 O71 O 0.91693 0.46758 0.53866
 C72 C 0.92519 0.43687 0.56543
 O73 O 1.05221 0.43055 0.57752
 O74 O 1.08969 0.46850 0.53280
 C75 C 1.08288 0.44075 0.56403
 O76 O 0.95748 0.58091 0.57770
 O77 O 0.91745 0.54115 0.54054
 C78 C 0.92598 0.57062 0.56886
 Zr79 Zr 1.00427 0.55535 0.55472
 O80 O 1.00571 0.54792 0.62813
 O81 O 1.00490 0.61990 0.56195
 Zr82 Zr 1.00371 0.45281 0.55549
 O83 O 1.00178 0.45729 0.62938
 O84 O 1.00651 0.38820 0.56101
 O85 O 1.03537 0.50382 0.56270
 O86 O 0.97365 0.50441 0.56526
 O87 O 0.95323 0.57868 0.41623
 O88 O 0.91538 0.54182 0.46123
 C89 C 0.92242 0.56930 0.42969
 O90 O 1.04738 0.43140 0.40945
 O91 O 1.08744 0.46739 0.45126
 C92 C 1.07885 0.44002 0.42041
 O93 O 0.95236 0.43072 0.41621
 O94 O 0.91484 0.46946 0.46002
 C95 C 0.92167 0.44151 0.42894
 O96 O 1.04816 0.57366 0.40707
 O97 O 1.08781 0.53799 0.45060
 C98 C 1.07949 0.56394 0.41791
 Zr99 Zr 1.00121 0.55507 0.43689
 O100 O 0.99625 0.55442 0.36313
 O101 O 1.00478 0.61988 0.43658
 Zr102 Zr 1.00065 0.45220 0.43784
 O103 O 1.00047 0.44823 0.36383
 O104 O 1.00037 0.38759 0.44411
 Zr105 Zr 1.05416 0.50326 0.49340
 Zr106 Zr 0.95059 0.50464 0.49870
 O107 O 0.97056 0.50408 0.43025
 O108 O 1.03152 0.50317 0.42647
 O109 O 0.97214 0.56393 0.49727
 O110 O 1.03208 0.44444 0.49509
 O111 O 1.03264 0.56257 0.49402
 O112 O 0.97148 0.44482 0.49800
 H113 H 0.95840 0.50425 0.59307
 H114 H 1.04691 0.41969 0.49435
 H115 H 0.95438 0.50468 0.40355
 H116 H 1.04783 0.58684 0.49224
 H117 H 0.99691 0.37703 0.53166
 H118 H 1.00046 0.37668 0.41177
 H119 H 0.98412 0.46885 0.35159
 H120 H 1.01242 0.53346 0.35102
 H121 H 0.98653 0.63057 0.45746
 H122 H 1.01073 0.63138 0.53094
 H123 H 1.00542 0.57598 0.64138
 H124 H 1.02354 0.46999 0.63979
 O125 O 0.56260 -0.06498 0.58450
 O126 O 0.53058 -0.10963 0.54023
 C127 C 0.55490 -0.10143 0.57005
 O128 O 0.43900 0.05038 0.59139
 O129 O 0.47013 0.09810 0.55016
 C130 C 0.44689 0.08782 0.58093
 O131 O 0.44124 -0.06261 0.59101
 O132 O 0.46982 -0.10836 0.54363
 C133 C 0.44829 -0.09940 0.57687
 O134 O 0.56490 0.04797 0.58744
 O135 O 0.53336 0.09681 0.54815
 C136 C 0.55747 0.08563 0.57702
 Zr137 Zr 0.54329 -0.00733 0.56426
 O138 O 0.53996 -0.00627 0.63827
 O139 O 0.59753 -0.01087 0.56756
 Zr140 Zr 0.45795 -0.00540 0.56582
 O141 O 0.45818 -0.00369 0.63990
 O142 O 0.40363 -0.00588 0.56335
 O143 O 0.50034 -0.04412 0.57269
 O144 O 0.50123 0.02987 0.57498
 O145 O 0.56686 0.05235 0.43275
 O146 O 0.53364 0.09928 0.47221
 C147 C 0.55970 0.08943 0.44583
 O148 O 0.43618 -0.05671 0.42278
 O149 O 0.46669 -0.10571 0.46325
 C150 C 0.44250 -0.09443 0.43435
 O151 O 0.43662 0.05574 0.42865
 O152 O 0.46933 0.10052 0.47187
 C153 C 0.44516 0.09227 0.44180
 O154 O 0.56061 -0.05987 0.42049
 O155 O 0.52815 -0.10707 0.46061
 C156 C 0.55254 -0.09711 0.43175
 Zr157 Zr 0.54178 -0.00339 0.44568
 O158 O 0.53464 0.00418 0.37270
 O159 O 0.59520 -0.00686 0.43276
 Zr160 Zr 0.45679 -0.00151 0.44790
 O161 O 0.45974 0.00405 0.37413
 O162 O 0.40248 -0.00195 0.44549
 Zr163 Zr 0.49929 -0.06665 0.50347
 Zr164 Zr 0.50089 0.05781 0.50859
 O165 O 0.49987 0.03479 0.43987
 O166 O 0.49869 -0.03994 0.43606
 O167 O 0.55005 0.03041 0.50647
 O168 O 0.45037 -0.03888 0.50586
 O169 O 0.54879 -0.04054 0.50334
 O170 O 0.45090 0.03326 0.50859
 H171 H 0.50180 0.04759 0.60312
 H172 H 0.42930 -0.05585 0.50665
 H173 H 0.50036 0.05509 0.41401
 H174 H 0.56985 -0.05763 0.50217
 H175 H 0.39561 -0.00740 0.59624
 H176 H 0.39430 0.00891 0.47584
 H177 H 0.46814 -0.02240 0.36149
 H178 H 0.53080 -0.02335 0.35914
 H179 H 0.60644 -0.00930 0.46364
 H180 H 0.60657 0.00575 0.54132
 H181 H 0.53322 -0.03399 0.64899
 H182 H 0.47378 -0.02567 0.65091
 O183 O 0.54661 0.56675 0.08543
 O184 O 0.58440 0.52844 0.04167
 C185 C 0.57738 0.55646 0.07237
 O186 O 0.44857 0.41717 0.07339
 O187 O 0.41071 0.46136 0.03760
 C188 C 0.41777 0.42942 0.06293
 O189 O 0.54406 0.41956 0.08052
 O190 O 0.58313 0.45853 0.03991
 C191 C 0.57521 0.42960 0.06921
 O192 O 0.45140 0.57474 0.07918
 O193 O 0.41206 0.53520 0.04034
 C194 C 0.42015 0.56531 0.06780
 Zr195 Zr 0.49825 0.54559 0.06231
 O196 O 0.49409 0.53574 0.13537
 O197 O 0.50134 0.60912 0.07618
 Zr198 Zr 0.49664 0.44331 0.05718
 O199 O 0.49235 0.44436 0.13106
 O200 O 0.49849 0.37851 0.05852
 O201 O 0.52866 0.49335 0.06897
 O202 O 0.46678 0.49502 0.06841
 O203 O 0.45127 0.57584 -0.07677
 O204 O 0.41203 0.53679 -0.03665
 C205 C 0.42012 0.56584 -0.06557
 O206 O 0.54436 0.42888 -0.08879
 O207 O 0.58342 0.46117 -0.04170
 C208 C 0.57559 0.43682 -0.07596
 O209 O 0.44887 0.42657 -0.08452
 O210 O 0.41091 0.46367 -0.03962
 C211 C 0.41807 0.43667 -0.07150
 O212 O 0.54692 0.57182 -0.07869
 O213 O 0.58462 0.53066 -0.03811
 C214 C 0.57767 0.56046 -0.06671
 Zr215 Zr 0.49866 0.55015 -0.05624
 O216 O 0.50158 0.54884 -0.13033
 O217 O 0.50106 0.61499 -0.05691
 Zr218 Zr 0.49675 0.44764 -0.06074
 O219 O 0.49427 0.44993 -0.13469
 O220 O 0.49377 0.38267 -0.06227
 Zr221 Zr 0.54914 0.49543 0.00055
 Zr222 Zr 0.44590 0.49829 0.00064
 O223 O 0.46734 0.50010 -0.06698
 O224 O 0.52865 0.49842 -0.06760
 O225 O 0.46837 0.55704 0.00324
 O226 O 0.52656 0.43696 -0.00230
 O227 O 0.52803 0.55496 0.00335
 O228 O 0.46612 0.43830 -0.00223
 H229 H 0.45035 0.49460 0.09496
 H230 H 0.54165 0.41248 -0.00366
 H231 H 0.45171 0.50127 -0.09427
 H232 H 0.54286 0.57959 0.00409
 H233 H 0.49018 0.36912 0.02765
 H234 H 0.51655 0.37089 -0.05467
 H235 H 0.51015 0.47172 -0.14520
 H236 H 0.47824 0.54497 -0.14321
 H237 H 0.48646 0.62495 -0.03091
 H238 H 0.50319 0.62292 0.04546
 H239 H 0.51744 0.52980 0.14732
 H240 H 0.51420 0.45522 0.14361
 C241 C 1.18433 0.15693 0.16665
 C242 C 1.18210 0.20016 0.16240
 C243 C 1.20474 0.22532 0.18721
 C244 C 1.22843 0.20849 0.21861
 C245 C 1.23091 0.16585 0.22316
 C246 C 1.20923 0.14019 0.19721
 C247 C 1.15891 0.13130 0.14007
 C248 C 1.15997 0.08799 0.13889
 C249 C 1.13445 0.06575 0.11544
 C250 C 1.10716 0.08626 0.09357
 C251 C 1.10654 0.12916 0.09312
 C252 C 1.13240 0.15173 0.11526
 C253 C 1.15640 0.21824 0.13501
 C254 C 1.13168 0.19459 0.11271
 H255 H 1.15469 0.25134 0.13200
 H256 H 1.11167 0.21013 0.09310
 H257 H 1.20283 0.25840 0.18376
 H258 H 1.24918 0.15237 0.24726
 H259 H 1.13537 0.03253 0.11574
 H260 H 1.08574 0.14499 0.07533
 H261 H 1.21166 0.10753 0.20246
 H262 H 1.18016 0.07087 0.15597
 C263 C 1.18622 0.66540 0.65243
 C264 C 1.18305 0.70857 0.64827
 C265 C 1.20419 0.73440 0.67488
 C266 C 1.22667 0.71788 0.70816
 C267 C 1.22938 0.67517 0.71270
 C268 C 1.20979 0.64922 0.68484
 C269 C 1.16236 0.63880 0.62501
 C270 C 1.16520 0.59562 0.62370
 C271 C 1.14021 0.57204 0.60132
 C272 C 1.11186 0.59110 0.58056
 C273 C 1.10994 0.63400 0.57899
 C274 C 1.13530 0.65797 0.60021
 C275 C 1.15746 0.72559 0.61979
 C276 C 1.13352 0.70082 0.59721
 H277 H 1.15489 0.75860 0.61667
 H278 H 1.11319 0.71545 0.57730
 H279 H 1.20175 0.76744 0.67171
 H280 H 1.24601 0.66132 0.73851
 H281 H 1.14232 0.53892 0.60179
 H282 H 1.08842 0.64866 0.56151
 H283 H 1.21242 0.61666 0.69068
 H284 H 1.18630 0.57955 0.64003
 C285 C 0.66366 0.17662 0.66835
 C286 C 0.68401 0.20371 0.64131
 C287 C 0.71207 0.22401 0.66208
 C288 C 0.72025 0.21677 0.70916
 C289 C 0.70147 0.18795 0.73473
 C290 C 0.67362 0.16796 0.71469
 C291 C 0.63273 0.15757 0.64627
 C292 C 0.60943 0.13329 0.67177
 C293 C 0.58300 0.11277 0.64908
 C294 C 0.57862 0.11649 0.60069
 C295 C 0.59975 0.14332 0.57529
 C296 C 0.62683 0.16404 0.59791
 C297 C 0.67602 0.21035 0.59404
 C298 C 0.64849 0.19028 0.57256
 H299 H 0.69166 0.23082 0.57309
 H300 H 0.64396 0.19557 0.53563
 H301 H 0.72658 0.24641 0.64225
 H302 H 0.70741 0.18211 0.77116
 H303 H 0.56681 0.09221 0.66914
 H304 H 0.59653 0.14601 0.53772
 H305 H 0.66006 0.14626 0.73633
 H306 H 0.61160 0.12885 0.70903
 C307 C 0.68251 0.66011 0.15054
 C308 C 0.67584 0.70288 0.14988
 C309 C 0.69675 0.72969 0.17533
 C310 C 0.72278 0.71427 0.20410
 C311 C 0.73033 0.67225 0.20333
 C312 C 0.71071 0.64546 0.17649
 C313 C 0.65751 0.63210 0.12702
 C314 C 0.66201 0.58911 0.12470
 C315 C 0.63627 0.56414 0.10610
 C316 C 0.60555 0.58158 0.09029
 C317 C 0.60155 0.62426 0.09023
 C318 C 0.62736 0.64961 0.10782
 C319 C 0.64686 0.71836 0.12685
 C320 C 0.62282 0.69221 0.10688
 H321 H 0.64182 0.75108 0.12622
 H322 H 0.60002 0.70553 0.09120
 H323 H 0.69062 0.76215 0.17636
 H324 H 0.75037 0.65943 0.22507
 H325 H 0.63993 0.53121 0.10524
 H326 H 0.57817 0.63776 0.07633
 H327 H 0.71692 0.61325 0.17860
 H328 H 0.68499 0.57421 0.13729
 C329 C 0.81609 -0.15437 0.18161
 C330 C 0.78902 -0.17092 0.15463
 C331 C 0.76614 -0.19929 0.17484
 C332 C 0.76923 -0.21032 0.22211
 C333 C 0.79471 -0.19190 0.24936
 C334 C 0.81789 -0.16433 0.22953
 C335 C 0.84203 -0.12756 0.15776
 C336 C 0.87243 -0.11460 0.17990
 C337 C 0.89697 -0.09205 0.15543
 C338 C 0.89166 -0.08096 0.10859
 C339 C 0.86098 -0.09244 0.08652
 C340 C 0.83670 -0.11681 0.11026
 C341 C 0.78519 -0.15928 0.10766
 C342 C 0.80808 -0.13211 0.08627
 H343 H 0.76417 -0.17139 0.08708
 H344 H 0.80399 -0.12412 0.04987
 H345 H 0.74644 -0.21312 0.15347
 H346 H 0.79761 -0.19995 0.28590
 H347 H 0.92046 -0.08348 0.17319
 H348 H 0.85685 -0.08423 0.05022
 H349 H 0.83716 -0.15149 0.25225
 H350 H 0.87834 -0.12272 0.21558
 C351 C 0.82340 0.33034 0.64923
 C352 C 0.79686 0.34915 0.67543
 C353 C 0.77442 0.32494 0.70229
 C354 C 0.77770 0.28204 0.70285
 C355 C 0.80228 0.26345 0.67407
 C356 C 0.82497 0.28716 0.64770
 C357 C 0.84890 0.35724 0.62475
 C358 C 0.87870 0.34150 0.60327
 C359 C 0.90290 0.36777 0.58363
 C360 C 0.89785 0.41032 0.58403
 C361 C 0.86786 0.42654 0.60407
 C362 C 0.84382 0.40033 0.62561
 C363 C 0.79309 0.39194 0.67488
 C364 C 0.81569 0.41692 0.64978
 H365 H 0.77241 0.40638 0.69431
 H366 H 0.81175 0.44984 0.65067
 H367 H 0.75466 0.33973 0.72298
 H368 H 0.80441 0.23050 0.67216
 H369 H 0.92590 0.35472 0.56817
 H370 H 0.86417 0.45952 0.60500
 H371 H 0.84355 0.27106 0.62647
 H372 H 0.88440 0.30912 0.60252
 C373 C 0.34305 -0.18548 0.67293
 C374 C 0.31666 -0.20350 0.64588
 C375 C 0.28734 -0.21963 0.66805
 C376 C 0.28378 -0.21731 0.71681
 C377 C 0.30927 -0.19789 0.74309
 C378 C 0.33841 -0.18198 0.72160
 C379 C 0.37444 -0.16990 0.64850
 C380 C 0.40262 -0.15325 0.67277
 C381 C 0.42908 -0.13397 0.64853
 C382 C 0.42855 -0.13183 0.59970
 C383 C 0.40257 -0.15192 0.57483
 C384 C 0.37533 -0.17081 0.59897
 C385 C 0.31986 -0.20542 0.59706
 C386 C 0.34831 -0.18883 0.57405
 H387 H 0.29970 -0.21919 0.57624
 H388 H 0.34907 -0.18988 0.53615
 H389 H 0.26801 -0.23510 0.64745
 H390 H 0.30787 -0.19708 0.78082
 H391 H 0.44892 -0.11826 0.66808
 H392 H 0.40195 -0.14966 0.53695
 H393 H 0.35715 -0.16769 0.74396
 H394 H 0.40411 -0.15319 0.71043
 C395 C 0.31634 0.32613 0.14938
 C396 C 0.29433 0.34498 0.18241
 C397 C 0.27456 0.32068 0.21267
 C398 C 0.27662 0.27778 0.21057
 C399 C 0.29543 0.25946 0.17445
 C400 C 0.31526 0.28321 0.14429
 C401 C 0.34051 0.35258 0.12226
 C402 C 0.36702 0.33605 0.09446
 C403 C 0.39138 0.36158 0.07407
 C404 C 0.38946 0.40409 0.07998
 C405 C 0.36232 0.42129 0.10550
 C406 C 0.33840 0.39571 0.12792
 C407 C 0.29276 0.38784 0.18559
 C408 C 0.31392 0.41272 0.15825
 H409 H 0.27532 0.40236 0.21016
 H410 H 0.31221 0.44569 0.16257
 H411 H 0.25822 0.33547 0.23814
 H412 H 0.29500 0.22660 0.16944
 H413 H 0.41231 0.34802 0.05431
 H414 H 0.36129 0.45425 0.11055
 H415 H 0.32965 0.26737 0.11754
 H416 H 0.37040 0.30348 0.08975
 C417 C 0.81911 0.15833 -0.17133
 C418 C 0.80042 0.18931 -0.14761
 C419 C 0.77966 0.21697 -0.17305
 C420 C 0.77732 0.21416 -0.22195
 C421 C 0.79427 0.18199 -0.24479
 C422 C 0.81502 0.15459 -0.22009
 C423 C 0.84250 0.13092 -0.14352
 C424 C 0.86441 0.10181 -0.16464
 C425 C 0.88750 0.07905 -0.13782
 C426 C 0.88900 0.08401 -0.08926
 C427 C 0.86666 0.11182 -0.06735
 C428 C 0.84384 0.13587 -0.09428
 C429 C 0.80259 0.19237 -0.09875
 C430 C 0.82353 0.16599 -0.07265
 H431 H 0.78799 0.21571 -0.08038
 H432 H 0.82448 0.16991 -0.03502
 H433 H 0.76535 0.24037 -0.15460
 H434 H 0.79106 0.17736 -0.28197
 H435 H 0.90495 0.05803 -0.15522
 H436 H 0.86845 0.11640 -0.02987
 H437 H 0.82733 0.13056 -0.23989
 H438 H 0.86504 0.09708 -0.20195
 C439 C 0.81798 0.66547 0.33494
 C440 C 0.82650 0.67927 0.28932
 C441 C 0.80364 0.70420 0.26439
 C442 C 0.77243 0.71625 0.28425
 C443 C 0.76387 0.70316 0.32941
 C444 C 0.78638 0.67798 0.35462
 C445 C 0.84331 0.63868 0.36024
 C446 C 0.83730 0.62209 0.40523
 C447 C 0.86251 0.59843 0.42769
 C448 C 0.89419 0.59116 0.40587
 C449 C 0.89986 0.60640 0.36064
 C450 C 0.87488 0.62978 0.33776
 C451 C 0.85785 0.66842 0.26880
 C452 C 0.88164 0.64443 0.29264
 H453 H 0.86428 0.67903 0.23391
 H454 H 0.90579 0.63729 0.27547
 H455 H 0.81011 0.71423 0.22927
 H456 H 0.73962 0.71193 0.34511
 H457 H 0.85759 0.58679 0.46258
 H458 H 0.92405 0.60019 0.34307
 H459 H 0.77863 0.66875 0.38931
 H460 H 0.81351 0.62728 0.42373
 C461 C 0.34278 0.18604 0.34518
 C462 C 0.34309 0.18259 0.29580
 C463 C 0.31570 0.19821 0.26929
 C464 C 0.28822 0.21854 0.29082
 C465 C 0.28757 0.22154 0.33971
 C466 C 0.31443 0.20548 0.36667
 C467 C 0.37223 0.16783 0.37221
 C468 C 0.37362 0.16733 0.42158
 C469 C 0.39964 0.14576 0.44489
 C470 C 0.42530 0.12533 0.41968
 C471 C 0.42540 0.12779 0.37077
 C472 C 0.39897 0.14830 0.34690
 C473 C 0.37078 0.16372 0.27298
 C474 C 0.39818 0.14712 0.29795
 H475 H 0.37113 0.16142 0.23514
 H476 H 0.41869 0.13220 0.27865
 H477 H 0.31617 0.19478 0.23175
 H478 H 0.26641 0.23651 0.35738
 H479 H 0.39807 0.14229 0.48241
 H480 H 0.44470 0.11088 0.35121
 H481 H 0.31262 0.20888 0.40412
 H482 H 0.35393 0.18145 0.44276
 C483 C 0.32005 0.66592 -0.16158
 C484 C 0.32680 0.67336 -0.20955
 C485 C 0.30529 0.69905 -0.23523
 C486 C 0.27746 0.71867 -0.21396
 C487 C 0.27071 0.71223 -0.16648
 C488 C 0.29178 0.68589 -0.14038
 C489 C 0.34398 0.63798 -0.13562
 C490 C 0.33902 0.62647 -0.08842
 C491 C 0.36317 0.60166 -0.06555
 C492 C 0.39268 0.58846 -0.08926
 C493 C 0.39715 0.59843 -0.13640
 C494 C 0.37305 0.62254 -0.15980
 C495 C 0.35528 0.65578 -0.23170
 C496 C 0.37821 0.63131 -0.20716
 H497 H 0.36030 0.66170 -0.26842
 H498 H 0.40034 0.61905 -0.22556
 H499 H 0.31037 0.70398 -0.27215
 H500 H 0.24913 0.72722 -0.14969
 H501 H 0.35938 0.59390 -0.02903
 H502 H 0.41970 0.58739 -0.15495
 H503 H 0.28577 0.68189 -0.10381
 H504 H 0.31692 0.63650 -0.06865
 C505 C 1.17581 -0.16286 -0.16567
 C506 C 1.16298 -0.19158 -0.19842
 C507 C 1.18556 -0.21739 -0.22287
 C508 C 1.22109 -0.21470 -0.21629
 C509 C 1.23385 -0.18694 -0.18328
 C510 C 1.21159 -0.16126 -0.15825
 C511 C 1.15058 -0.13576 -0.14041
 C512 C 1.16026 -0.10633 -0.10668
 C513 C 1.13543 -0.08235 -0.08381
 C514 C 1.10041 -0.08701 -0.09416
 C515 C 1.09078 -0.11586 -0.12815
 C516 C 1.11528 -0.14018 -0.15091
 C517 C 1.12768 -0.19437 -0.20689
 C518 C 1.10437 -0.16914 -0.18377
 H519 H 1.11790 -0.21633 -0.23198
 H520 H 1.07728 -0.17249 -0.19166
 H521 H 1.17515 -0.23957 -0.24702
 H522 H 1.26105 -0.18507 -0.17639
 H523 H 1.14365 -0.06048 -0.05765
 H524 H 1.06388 -0.12000 -0.13672
 H525 H 1.22287 -0.14038 -0.13342
 H526 H 1.18678 -0.10160 -0.09722
 C527 C 1.18091 0.33089 0.33863
 C528 C 1.16781 0.29732 0.31281
 C529 C 1.19023 0.26992 0.29058
 C530 C 1.22571 0.27614 0.29184
 C531 C 1.23892 0.30797 0.31928
 C532 C 1.21685 0.33515 0.34245
 C533 C 1.15579 0.36058 0.35988
 C534 C 1.16571 0.39516 0.38633
 C535 C 1.14096 0.42171 0.40532
 C536 C 1.10584 0.41462 0.39794
 C537 C 1.09597 0.38055 0.37118
 C538 C 1.12035 0.35356 0.35265
 C539 C 1.13238 0.29180 0.30800
 C540 C 1.10916 0.31942 0.32732
 H541 H 1.12243 0.26605 0.28830
 H542 H 1.08195 0.31403 0.32216
 H543 H 1.17968 0.24447 0.27117
 H544 H 1.26642 0.31269 0.32141
 H545 H 1.14932 0.44756 0.42612
 H546 H 1.06896 0.37420 0.36543
 H547 H 1.22836 0.35972 0.36213
 H548 H 1.19235 0.40200 0.39307
 C549 C 0.65795 -0.19379 0.34519
 C550 C 0.64848 -0.22139 0.30941
 C551 C 0.67395 -0.24013 0.28187
 C552 C 0.70870 -0.22983 0.28747
 C553 C 0.71802 -0.20246 0.32276
 C554 C 0.69308 -0.18475 0.35149
 C555 C 0.63005 -0.17351 0.37292
 C556 C 0.63706 -0.14733 0.41073
 C557 C 0.61078 -0.12493 0.43153
 C558 C 0.57687 -0.12844 0.41580
 C559 C 0.56884 -0.15701 0.38104
 C560 C 0.59536 -0.17982 0.35957
 C561 C 0.61365 -0.22884 0.30014
 C562 C 0.58767 -0.20785 0.32402
 H563 H 0.60639 -0.25000 0.27268
 H564 H 0.56119 -0.21335 0.31419
 H565 H 0.66633 -0.26218 0.25575
 H566 H 0.74469 -0.19453 0.32815
 H567 H 0.61718 -0.10321 0.45884
 H568 H 0.54251 -0.15981 0.36910
 H569 H 0.70184 -0.16328 0.37750
 H570 H 0.66271 -0.14281 0.42395
 C571 C 0.67834 0.33975 -0.17389
 C572 C 0.66562 0.31507 -0.21068
 C573 C 0.68743 0.28806 -0.23426
 C574 C 0.72222 0.28495 -0.22252
 C575 C 0.73540 0.31045 -0.18749
 C576 C 0.71367 0.33730 -0.16296
 C577 C 0.65343 0.36736 -0.14881
 C578 C 0.66244 0.39181 -0.10997
 C579 C 0.63754 0.41548 -0.08676
 C580 C 0.60325 0.41540 -0.10196
 C581 C 0.59453 0.39223 -0.14147
 C582 C 0.61892 0.36804 -0.16436
 C583 C 0.63120 0.31754 -0.22435
 C584 C 0.60841 0.34373 -0.20194
 H585 H 0.62168 0.29886 -0.25286
 H586 H 0.58194 0.34439 -0.21372
 H587 H 0.67700 0.27017 -0.26268
 H588 H 0.76257 0.30991 -0.17938
 H589 H 0.64498 0.43306 -0.05631
 H590 H 0.56823 0.39199 -0.15400
 H591 H 0.72498 0.35614 -0.13610
 H592 H 0.68831 0.39233 -0.09646
 C593 C 1.17199 0.16006 -0.17600
 C594 C 1.20568 0.16451 -0.15823
 C595 C 1.22921 0.19084 -0.18099
 C596 C 1.21907 0.21382 -0.22034
 C597 C 1.18520 0.21051 -0.23624
 C598 C 1.16203 0.18406 -0.21467
 C599 C 1.14782 0.13112 -0.15190
 C600 C 1.11502 0.12227 -0.16968
 C601 C 1.09237 0.09760 -0.14475
 C602 C 1.10154 0.08061 -0.10132
 C603 C 1.13513 0.08689 -0.08457
 C604 C 1.15839 0.11191 -0.10981
 C605 C 1.21524 0.14326 -0.11748
 C606 C 1.19194 0.11818 -0.09334
 H607 H 1.24092 0.14674 -0.10344
 H608 H 1.20039 0.10329 -0.06144
 H609 H 1.25513 0.19381 -0.16771
 H610 H 1.17625 0.22810 -0.26584
 H611 H 1.06707 0.09247 -0.15938
 H612 H 1.14276 0.07355 -0.05140
 H613 H 1.13631 0.18336 -0.22860
 H614 H 1.10615 0.13426 -0.20272
 C615 C 1.17704 0.66661 0.31997
 C616 C 1.20753 0.67782 0.34365
 C617 C 1.23087 0.70516 0.32252
 C618 C 1.22399 0.72170 0.27810
 C619 C 1.19337 0.71123 0.25539
 C620 C 1.17021 0.68420 0.27590
 C621 C 1.15300 0.63704 0.34315
 C622 C 1.12260 0.62339 0.32163
 C623 C 1.09980 0.59816 0.34558
 C624 C 1.10672 0.58527 0.39141
 C625 C 1.13786 0.59662 0.41244
 C626 C 1.16096 0.62263 0.38868
 C627 C 1.21440 0.66171 0.38821
 C628 C 1.19150 0.63500 0.41038
 H629 H 1.23768 0.67025 0.40650
 H630 H 1.19777 0.62395 0.44513
 H631 H 1.25445 0.71297 0.34050
 H632 H 1.18750 0.72338 0.22098
 H633 H 1.07616 0.58932 0.32839
 H634 H 1.14334 0.58684 0.44795
 H635 H 1.14721 0.67754 0.25644
 H636 H 1.11553 0.63227 0.28661
 C637 C 0.66289 0.19360 0.36285
 C638 C 0.69595 0.17548 0.35829
 C639 C 0.72097 0.19368 0.32959
 C640 C 0.71361 0.22983 0.30533
 C641 C 0.68182 0.24926 0.31217
 C642 C 0.65663 0.23135 0.34038
 C643 C 0.63576 0.17083 0.38979
 C644 C 0.60113 0.18404 0.39325
 C645 C 0.57610 0.15895 0.41408
 C646 C 0.58526 0.12044 0.43184
 C647 C 0.61996 0.10862 0.43171
 C648 C 0.64499 0.13289 0.41031
 C649 C 0.70360 0.13874 0.38136
 C650 C 0.67873 0.11807 0.40714
 H651 H 0.72901 0.12523 0.37854
 H652 H 0.68571 0.08913 0.42334
 H653 H 0.74584 0.17912 0.32514
 H654 H 0.67608 0.27807 0.29499
 H655 H 0.54946 0.16864 0.41406
 H656 H 0.62725 0.07910 0.44629
 H657 H 0.63236 0.24716 0.34358
 H658 H 0.59265 0.21279 0.37845
 C659 C 0.68214 0.66583 -0.14376
 C660 C 0.70792 0.64737 -0.17172
 C661 C 0.72951 0.67203 -0.19937
 C662 C 0.72537 0.71475 -0.19948
 C663 C 0.70185 0.73295 -0.16881
 C664 C 0.68067 0.70892 -0.14093
 C665 C 0.65644 0.63883 -0.12024
 C666 C 0.62714 0.65476 -0.09770
 C667 C 0.60214 0.62868 -0.08012
 C668 C 0.60586 0.58614 -0.08367
 C669 C 0.63546 0.56951 -0.10427
 C670 C 0.66038 0.59570 -0.12383
 C671 C 0.71108 0.60454 -0.17307
 C672 C 0.68813 0.57924 -0.14896
 H673 H 0.73120 0.59033 -0.19377
 H674 H 0.69129 0.54628 -0.15172
 H675 H 0.74826 0.65782 -0.22225
 H676 H 0.69869 0.76598 -0.16807
 H677 H 0.57951 0.64189 -0.06381
 H678 H 0.63811 0.53650 -0.10727
 H679 H 0.66272 0.72477 -0.11855
 H680 H 0.62231 0.68720 -0.09463
 C681 C 0.81481 -0.15473 -0.16417
 C682 C 0.79573 -0.18421 -0.13883
 C683 C 0.77465 -0.21223 -0.16262
 C684 C 0.77155 -0.21110 -0.21158
 C685 C 0.78970 -0.18115 -0.23650
 C686 C 0.81099 -0.15325 -0.21327
 C687 C 0.83914 -0.12754 -0.13762
 C688 C 0.86141 -0.09958 -0.15985
 C689 C 0.88546 -0.07741 -0.13398
 C690 C 0.88747 -0.08175 -0.08530
 C691 C 0.86477 -0.10832 -0.06243
 C692 C 0.84100 -0.13166 -0.08825
 C693 C 0.79834 -0.18622 -0.08995
 C694 C 0.82023 -0.16032 -0.06521
 H695 H 0.78347 -0.20856 -0.07049
 H696 H 0.82160 -0.16356 -0.02751
 H697 H 0.76171 -0.23576 -0.14269
 H698 H 0.78852 -0.18012 -0.27424
 H699 H 0.90312 -0.05727 -0.15218
 H700 H 0.86699 -0.11260 -0.02497
 H701 H 0.82462 -0.13127 -0.23448
 H702 H 0.86143 -0.09528 -0.19726
 C703 C 0.82249 0.34076 0.33392
 C704 C 0.79415 0.32582 0.35989
 C705 C 0.77101 0.29828 0.33906
 C706 C 0.77611 0.28529 0.29286
 C707 C 0.80461 0.29915 0.26777
 C708 C 0.82757 0.32651 0.28787
 C709 C 0.84644 0.37028 0.35690
 C710 C 0.87454 0.38763 0.33314
 C711 C 0.89780 0.41225 0.35671
 C712 C 0.89350 0.42088 0.40433
 C713 C 0.86442 0.40618 0.42791
 C714 C 0.84089 0.38066 0.40448
 C715 C 0.78935 0.33824 0.40642
 C716 C 0.81241 0.36475 0.42838
 H717 H 0.76770 0.32679 0.42639
 H718 H 0.80795 0.37277 0.46468
 H719 H 0.74902 0.28732 0.35865
 H720 H 0.80891 0.28919 0.23208
 H721 H 0.91984 0.42397 0.33775
 H722 H 0.86105 0.41290 0.46480
 H723 H 0.84907 0.33587 0.26666
 H724 H 0.87951 0.38214 0.29658
 C725 C 0.33806 -0.19325 0.34434
 C726 C 0.30515 -0.17457 0.34158
 C727 C 0.27933 -0.19161 0.31341
 C728 C 0.28539 -0.22745 0.28774
 C729 C 0.31719 -0.24756 0.29310
 C730 C 0.34331 -0.23056 0.32058
 C731 C 0.36585 -0.17176 0.37157
 C732 C 0.40043 -0.18547 0.37383
 C733 C 0.42577 -0.16183 0.39628
 C734 C 0.41699 -0.12424 0.41680
 C735 C 0.38242 -0.11189 0.41709
 C736 C 0.35714 -0.13465 0.39427
 C737 C 0.29824 -0.13847 0.36626
 C738 C 0.32357 -0.11917 0.39237
 H739 H 0.27294 -0.12450 0.36477
 H740 H 0.31702 -0.09083 0.41013
 H741 H 0.25477 -0.17619 0.31105
 H742 H 0.32232 -0.27632 0.27552
 H743 H 0.45230 -0.17196 0.39577
 H744 H 0.37534 -0.08314 0.43368
 H745 H 0.36745 -0.24684 0.32253
 H746 H 0.40852 -0.21357 0.35715
 C747 C 0.32134 0.33742 -0.17211
 C748 C 0.29697 0.31444 -0.14619
 C749 C 0.27526 0.28644 -0.16936
 C750 C 0.27814 0.28112 -0.21786
 C751 C 0.30243 0.30370 -0.24298
 C752 C 0.32376 0.33133 -0.22067
 C753 C 0.34417 0.36669 -0.14682
 C754 C 0.36894 0.39063 -0.17016
 C755 C 0.39172 0.41471 -0.14511
 C756 C 0.39001 0.41641 -0.09637
 C757 C 0.36418 0.39490 -0.07251
 C758 C 0.34136 0.36961 -0.09752
 C759 C 0.29471 0.31957 -0.09756
 C760 C 0.31657 0.34639 -0.07371
 H761 H 0.27610 0.30217 -0.07754
 H762 H 0.31424 0.34867 -0.03601
 H763 H 0.25609 0.26945 -0.14993
 H764 H 0.30467 0.30060 -0.28058
 H765 H 0.41144 0.43146 -0.16390
 H766 H 0.36309 0.39611 -0.03461
 H767 H 0.34185 0.34746 -0.24243
 H768 H 0.37190 0.39065 -0.20762
 C769 C 1.18232 -0.15012 0.18048
 C770 C 1.20920 -0.16781 0.15380
 C771 C 1.23230 -0.19579 0.17479
 C772 C 1.22920 -0.20620 0.22241
 C773 C 1.20331 -0.18723 0.24895
 C774 C 1.18035 -0.15953 0.22854
 C775 C 1.15642 -0.12327 0.15602
 C776 C 1.12713 -0.10730 0.17873
 C777 C 1.10238 -0.08523 0.15388
 C778 C 1.10622 -0.07764 0.10585
 C779 C 1.13597 -0.09187 0.08306
 C780 C 1.16070 -0.11531 0.10759
 C781 C 1.21233 -0.15817 0.10613
 C782 C 1.18885 -0.13223 0.08368
 H783 H 1.23308 -0.17130 0.08565
 H784 H 1.19227 -0.12624 0.04665
 H785 H 1.25196 -0.21011 0.15350
 H786 H 1.19976 -0.19500 0.28551
 H787 H 1.07974 -0.07442 0.17230
 H788 H 1.13894 -0.08660 0.04580
 H789 H 1.16085 -0.14655 0.25094
 H790 H 1.12227 -0.11244 0.21540
 C791 C 1.18381 0.34075 0.65822
 C792 C 1.18690 0.29932 0.64377
 C793 C 1.20788 0.27192 0.66902
 C794 C 1.22468 0.28480 0.70972
 C795 C 1.22104 0.32560 0.72433
 C796 C 1.20124 0.35333 0.69880
 C797 C 1.16042 0.36878 0.63140
 C798 C 1.15688 0.41098 0.64157
 C799 C 1.13256 0.43498 0.61813
 C800 C 1.11143 0.41743 0.58423
 C801 C 1.11581 0.37615 0.57206
 C802 C 1.14042 0.35183 0.59495
 C803 C 1.16792 0.28515 0.60549
 C804 C 1.14473 0.31065 0.58212
 H805 H 1.17017 0.25347 0.59441
 H806 H 1.12979 0.29786 0.55371
 H807 H 1.21011 0.24018 0.65810
 H808 H 1.23286 0.33627 0.75627
 H809 H 1.12939 0.46692 0.62765
 H810 H 1.09953 0.36285 0.54531
 H811 H 1.19904 0.38408 0.71235
 H812 H 1.17228 0.42591 0.66782
 C813 C 0.65756 -0.19995 0.66144
 C814 C 0.69208 -0.18780 0.65370
 C815 C 0.71873 -0.20377 0.68170
 C816 C 0.71157 -0.23150 0.71782
 C817 C 0.67762 -0.24517 0.72355
 C818 C 0.65097 -0.22951 0.69613
 C819 C 0.62954 -0.17997 0.63317
 C820 C 0.59409 -0.18762 0.64030
 C821 C 0.56900 -0.16444 0.61679
 C822 C 0.57885 -0.13368 0.58546
 C823 C 0.61383 -0.12785 0.57578
 C824 C 0.63914 -0.15020 0.59963
 C825 C 0.69975 -0.15935 0.61852
 C826 C 0.67387 -0.14109 0.59195
 H827 H 0.72614 -0.15040 0.61205
 H828 H 0.68111 -0.11847 0.56594
 H829 H 0.74497 -0.19444 0.67535
 H830 H 0.67117 -0.26834 0.74905
 H831 H 0.54211 -0.16883 0.62518
 H832 H 0.62140 -0.10366 0.55178
 H833 H 0.62543 -0.24091 0.70274
 H834 H 0.58522 -0.20998 0.66536
 C835 C 0.67837 0.33150 0.16240
 C836 C 0.66986 0.28999 0.17131
 C837 C 0.69151 0.26553 0.19884
 C838 C 0.72083 0.28223 0.21949
 C839 C 0.72937 0.32320 0.21067
 C840 C 0.70863 0.34751 0.18209
 C841 C 0.65363 0.35722 0.13499
 C842 C 0.66016 0.39840 0.12250
 C843 C 0.63504 0.42188 0.09993
 C844 C 0.60291 0.40488 0.08990
 C845 C 0.59682 0.36348 0.10008
 C846 C 0.62193 0.33950 0.12197
 C847 C 0.63896 0.27368 0.15480
 C848 C 0.61525 0.29811 0.13125
 H849 H 0.63247 0.24192 0.16165
 H850 H 0.59115 0.28447 0.12051
 H851 H 0.68449 0.23404 0.20644
 H852 H 0.75157 0.33714 0.22665
 H853 H 0.64037 0.45362 0.09150
 H854 H 0.57232 0.34985 0.09100
 H855 H 0.71607 0.37908 0.17734
 H856 H 0.68431 0.41309 0.13007
 C857 C 0.81525 0.15840 0.18086
 C858 C 0.82404 0.17158 0.22653
 C859 C 0.80132 0.19649 0.25219
 C860 C 0.77051 0.21029 0.23234
 C861 C 0.76161 0.19706 0.18737
 C862 C 0.78347 0.17110 0.16204
 C863 C 0.84099 0.13325 0.15388
 C864 C 0.83442 0.11691 0.10903
 C865 C 0.85990 0.09509 0.08477
 C866 C 0.89264 0.08962 0.10427
 C867 C 0.89909 0.10486 0.14931
 C868 C 0.87354 0.12595 0.17438
 C869 C 0.85611 0.16149 0.24553
 C870 C 0.88049 0.13970 0.21979
 H871 H 0.86289 0.17165 0.28041
 H872 H 0.90526 0.13361 0.23569
 H873 H 0.80851 0.20693 0.28681
 H874 H 0.73815 0.20750 0.17102
 H875 H 0.85419 0.08317 0.05029
 H876 H 0.92407 0.09990 0.16518
 H877 H 0.77558 0.16254 0.12724
 H878 H 0.80983 0.12061 0.09215
 C879 C 0.82248 0.66735 0.66740
 C880 C 0.83509 0.69594 0.70049
 C881 C 0.81226 0.72024 0.72650
 C882 C 0.77679 0.71687 0.72011
 C883 C 0.76409 0.68893 0.68729
 C884 C 0.78660 0.66439 0.66113
 C885 C 0.84803 0.64150 0.64093
 C886 C 0.83859 0.61159 0.60762
 C887 C 0.86367 0.58835 0.58420
 C888 C 0.89873 0.59441 0.59333
 C889 C 0.90816 0.62409 0.62650
 C890 C 0.88338 0.64738 0.65016
 C891 C 0.87044 0.70008 0.70778
 C892 C 0.89405 0.67641 0.68310
 H893 H 0.88005 0.72200 0.73304
 H894 H 0.92116 0.68082 0.69008
 H895 H 0.82229 0.74135 0.75228
 H896 H 0.73665 0.68583 0.68217
 H897 H 0.85559 0.56572 0.55881
 H898 H 0.93507 0.62921 0.63427
 H899 H 0.77547 0.64329 0.63644
 H900 H 0.81205 0.60568 0.59923
 C901 C 0.33997 0.18261 0.66836
 C902 C 0.32958 0.16963 0.71357
 C903 C 0.30084 0.18748 0.73522
 C904 C 0.28153 0.21758 0.71230
 C905 C 0.29078 0.22929 0.66677
 C906 C 0.31964 0.21202 0.64493
 C907 C 0.37164 0.16356 0.64726
 C908 C 0.38595 0.17591 0.60396
 C909 C 0.41345 0.15404 0.58396
 C910 C 0.42665 0.11918 0.60636
 C911 C 0.41494 0.10954 0.65152
 C912 C 0.38778 0.13126 0.67202
 C913 C 0.34794 0.13897 0.73710
 C914 C 0.37606 0.11973 0.71645
 H915 H 0.33999 0.12906 0.77167
 H916 H 0.38877 0.09526 0.73554
 H917 H 0.29417 0.17871 0.77061
 H918 H 0.27676 0.25324 0.64876
 H919 H 0.42306 0.16296 0.54995
 H920 H 0.42577 0.08331 0.66976
 H921 H 0.32587 0.22235 0.61006
 H922 H 0.37570 0.20163 0.58463
 C923 C 0.31674 0.67099 0.15012
 C924 C 0.32579 0.71263 0.15681
 C925 C 0.30436 0.73868 0.18300
 C926 C 0.27501 0.72325 0.20537
 C927 C 0.26566 0.68224 0.19764
 C928 C 0.28596 0.65660 0.17001
 C929 C 0.34157 0.64333 0.12523
 C930 C 0.33463 0.60170 0.11551
 C931 C 0.35986 0.57642 0.09580
 C932 C 0.39256 0.59198 0.08587
 C933 C 0.39913 0.63376 0.09324
 C934 C 0.37388 0.65954 0.11224
 C935 C 0.35722 0.72737 0.13997
 C936 C 0.38099 0.70124 0.11882
 H937 H 0.36418 0.75922 0.14500
 H938 H 0.40552 0.71377 0.10802
 H939 H 0.31199 0.77023 0.18893
 H940 H 0.24334 0.66891 0.21408
 H941 H 0.35412 0.54440 0.08954
 H942 H 0.42409 0.64625 0.08421
 H943 H 0.27790 0.62514 0.16656
 H944 H 0.31007 0.58800 0.12315
   
