data_POSCAR
  _audit_creation_date              2014-09-24
  _audit_creation_method            'ToBaCCo'
  _symmetry_space_group_name_H-M    'P1'
  _symmetry_Int_Tables_number       1
  _symmetry_cell_setting            triclinic
  loop_
  _symmetry_equiv_pos_as_xyz
 x,y,z
_cell_length_a 49.5170
_cell_length_b 49.7986
_cell_length_c 49.8866
_cell_angle_alpha 89.983900
_cell_angle_beta 90.029400
_cell_angle_gamma 89.941300
loop_
  _atom_site_label
  _atom_site_type_symbol
  _atom_site_fract_x
  _atom_site_fract_y
  _atom_site_fract_z
N1 N 0.29495 0.36722 1.34719
 N2 N 0.29503 0.34789 1.36507
 C3 C 0.27485 0.35216 1.38268
 C4 C 0.26150 0.37570 1.37561
 C5 C 0.27501 0.38463 1.35291
 H6 H 0.27068 0.33941 1.39969
 H7 H 0.27056 0.40223 1.34106
 Cu8 Cu 0.32240 0.31986 1.36415
 Cu9 Cu 0.32036 0.36816 1.31754
 Cu10 Cu 0.36992 0.31878 1.31583
 N11 N 0.34993 0.29205 1.36290
 N12 N 0.36886 0.29194 1.34445
 C13 C 0.38540 0.27087 1.34872
 C14 C 0.37633 0.25682 1.37110
 C15 C 0.35370 0.27106 1.37944
 H16 H 0.40253 0.26608 1.33620
 H17 H 0.34095 0.26672 1.39642
 N18 N 0.36710 0.34769 1.28874
 N19 N 0.34772 0.36591 1.28913
 C20 C 0.35018 0.38187 1.26753
 C21 C 0.37225 0.37352 1.25285
 C22 C 0.38264 0.35187 1.26692
 H23 H 0.33703 0.39856 1.26287
 H24 H 0.39983 0.33972 1.26129
 H25 H 0.32928 0.32726 1.31639
 H26 H 0.35165 0.34877 1.33752
 N27 N 1.20625 0.63797 0.85082
 N28 N 1.20688 0.66004 0.86525
 C29 C 1.22849 0.65918 0.88166
 C30 C 1.24191 0.63510 0.87761
 C31 C 1.22712 0.62213 0.85790
 H32 H 1.23359 0.67452 0.89614
 H33 H 1.23124 0.60265 0.84924
 Cu34 Cu 1.17838 0.68697 0.86303
 Cu35 Cu 1.17856 0.63159 0.82386
 Cu36 Cu 1.12487 0.67595 0.82254
 N37 N 1.14686 0.71049 0.86294
 N38 N 1.12569 0.70544 0.84794
 C39 C 1.10643 0.72384 0.85286
 C40 C 1.11598 0.74175 0.87199
 C41 C 1.14189 0.73253 0.87780
 H42 H 1.08688 0.72392 0.84323
 H43 H 1.15602 0.74090 0.89203
 N44 N 1.12773 0.64508 0.79824
 N45 N 1.14861 0.62862 0.79805
 C46 C 1.14542 0.61074 0.77801
 C47 C 1.12119 0.61606 0.76523
 C48 C 1.11056 0.63795 0.77860
 H49 H 1.15959 0.59496 0.77311
 H50 H 1.09208 0.64845 0.77371
 H51 H 1.16664 0.67122 0.81804
 H52 H 1.14971 0.65166 0.84538
 N53 N 0.70331 -0.12978 0.14951
 N54 N 0.70234 -0.14744 0.12996
 C55 C 0.72300 -0.14287 0.11300
 C56 C 0.73789 -0.12135 0.12260
 C57 C 0.72465 -0.11356 0.14580
 H58 H 0.72740 -0.15487 0.09551
 H59 H 0.73027 -0.09752 0.15927
 Cu60 Cu 0.67480 -0.17523 0.12958
 Cu61 Cu 0.67789 -0.12996 0.17927
 Cu62 Cu 0.62948 -0.18023 0.17939
 N63 N 0.64691 -0.20268 0.12920
 N64 N 0.62991 -0.20508 0.14925
 C65 C 0.61353 -0.22611 0.14471
 C66 C 0.62029 -0.23745 0.12017
 C67 C 0.64157 -0.22181 0.11089
 H68 H 0.59760 -0.23227 0.15815
 H69 H 0.65283 -0.22448 0.09257
 N70 N 0.63228 -0.15293 0.20786
 N71 N 0.65041 -0.13354 0.20758
 C72 C 0.64665 -0.11776 0.22918
 C73 C 0.62511 -0.12767 0.24383
 C74 C 0.61654 -0.15002 0.22967
 H75 H 0.65881 -0.10042 0.23399
 H76 H 0.59973 -0.16291 0.23461
 H77 H 0.67000 -0.17073 0.17798
 H78 H 0.64642 -0.14839 0.15902
 N79 N -0.20736 1.13265 -0.34487
 N80 N -0.20766 1.15303 -0.36163
 C81 C -0.22923 1.15070 -0.37797
 C82 C -0.24330 1.12768 -0.37093
 C83 C -0.22875 1.11681 -0.34983
 H84 H -0.23438 1.16481 -0.39364
 H85 H -0.23308 1.09843 -0.33914
 Cu86 Cu -0.17994 1.18077 -0.36058
 Cu87 Cu -0.17916 1.12767 -0.31814
 Cu88 Cu -0.12407 1.16949 -0.32367
 N89 N -0.14716 1.20186 -0.36529
 N90 N -0.12491 1.19593 -0.35222
 C91 C -0.10523 1.21294 -0.35960
 C92 C -0.11572 1.23105 -0.37801
 C93 C -0.14254 1.22334 -0.38106
 H94 H -0.08524 1.21304 -0.35091
 H95 H -0.15758 1.23243 -0.39390
 N96 N -0.12708 1.14189 -0.29574
 N97 N -0.14826 1.12606 -0.29328
 C98 C -0.14495 1.11045 -0.27143
 C99 C -0.12058 1.11701 -0.25944
 C100 C -0.10984 1.13698 -0.27549
 H101 H -0.15957 1.09602 -0.26429
 H102 H -0.09099 1.14746 -0.27244
 H103 H -0.16540 1.16671 -0.31605
 H104 H -0.15161 1.14491 -0.34355
 N105 N 0.70688 0.63404 0.64181
 N106 N 0.70675 0.65592 0.62708
 C107 C 0.72694 0.65450 0.60902
 C108 C 0.74057 0.63046 0.61276
 C109 C 0.72718 0.61804 0.63376
 H110 H 0.73151 0.66997 0.59451
 H111 H 0.73165 0.59866 0.64244
 Cu112 Cu 0.68055 0.68438 0.63304
 Cu113 Cu 0.68076 0.62773 0.67022
 Cu114 Cu 0.62759 0.67242 0.67378
 N115 N 0.64839 0.70678 0.63250
 N116 N 0.62735 0.70137 0.64761
 C117 C 0.60781 0.71952 0.64269
 C118 C 0.61723 0.73743 0.62370
 C119 C 0.64310 0.72878 0.61770
 H120 H 0.58845 0.72010 0.65271
 H121 H 0.65688 0.73761 0.60339
 N122 N 0.63170 0.64197 0.69863
 N123 N 0.65211 0.62498 0.69744
 C124 C 0.64984 0.60712 0.71760
 C125 C 0.62692 0.61324 0.73232
 C126 C 0.61595 0.63545 0.71961
 H127 H 0.66419 0.59127 0.72167
 H128 H 0.59793 0.64627 0.72532
 H129 H 0.65142 0.64870 0.64923
 H130 H 0.66882 0.66701 0.67718
 N131 N 0.79391 0.36894 0.14802
 N132 N 0.79556 0.35000 0.12975
 C133 C 0.77421 0.35214 0.11305
 C134 C 0.75831 0.37346 0.12153
 C135 C 0.77152 0.38356 0.14377
 H136 H 0.77046 0.33919 0.09607
 H137 H 0.76566 0.40076 0.15564
 Cu138 Cu 0.82586 0.32493 0.12973
 Cu139 Cu 0.82125 0.37426 0.17542
 Cu140 Cu 0.87614 0.33120 0.17494
 N141 N 0.85645 0.30026 0.13031
 N142 N 0.87653 0.30361 0.14725
 C143 C 0.89540 0.28466 0.14277
 C144 C 0.88655 0.26833 0.12217
 C145 C 0.86171 0.27875 0.11476
 H146 H 0.91389 0.28248 0.15410
 H147 H 0.84869 0.27137 0.09901
 N148 N 0.87184 0.36034 0.20142
 N149 N 0.85087 0.37669 0.20155
 C150 C 0.85338 0.39401 0.22211
 C151 C 0.87701 0.38826 0.23576
 C152 C 0.88819 0.36675 0.22204
 H153 H 0.83877 0.40931 0.22717
 H154 H 0.90683 0.35649 0.22676
 H155 H 0.85298 0.35807 0.15363
 H156 H 0.83480 0.33479 0.17678
 N157 N 0.28852 0.13972 0.84532
 N158 N 0.28748 0.16135 0.86037
 C159 C 0.26534 0.16022 0.87596
 C160 C 0.25184 0.13653 0.87058
 C161 C 0.26717 0.12396 0.85103
 H162 H 0.25984 0.17512 0.89074
 H163 H 0.26307 0.10484 0.84161
 Cu164 Cu 0.31554 0.18858 0.85961
 Cu165 Cu 0.31735 0.13393 0.81943
 Cu166 Cu 0.37036 0.17917 0.82056
 N167 N 0.34680 0.21210 0.86130
 N168 N 0.36826 0.20839 0.84631
 C169 C 0.38645 0.22778 0.85167
 C170 C 0.37580 0.24461 0.87116
 C171 C 0.35060 0.23388 0.87676
 H172 H 0.40582 0.22960 0.84188
 H173 H 0.33602 0.24124 0.89107
 N174 N 0.36891 0.14848 0.79577
 N175 N 0.34840 0.13161 0.79482
 C176 C 0.35266 0.11388 0.77484
 C177 C 0.37714 0.11977 0.76282
 C178 C 0.38687 0.14178 0.77667
 H179 H 0.33900 0.09786 0.76942
 H180 H 0.40532 0.15260 0.77253
 H181 H 0.34549 0.15370 0.84264
 H182 H 0.32910 0.17341 0.81508
 N183 N 0.20262 0.86685 0.35445
 N184 N 0.20396 0.84678 0.37151
 C185 C 0.22520 0.85066 0.38799
 C186 C 0.23763 0.87457 0.38097
 C187 C 0.22273 0.88424 0.35958
 H188 H 0.23077 0.83753 0.40434
 H189 H 0.22624 0.90258 0.34853
 Cu190 Cu 0.17681 0.81848 0.37124
 Cu191 Cu 0.17471 0.86940 0.32713
 Cu192 Cu 0.12584 0.81965 0.32653
 N193 N 0.14936 0.79049 0.37047
 N194 N 0.12933 0.79125 0.35319
 C195 C 0.11314 0.76993 0.35726
 C196 C 0.12354 0.75489 0.37826
 C197 C 0.14657 0.76863 0.38612
 H198 H 0.09527 0.76560 0.34561
 H199 H 0.16011 0.76331 0.40226
 N200 N 0.12594 0.85002 0.30112
 N201 N 0.14492 0.86860 0.30105
 C202 C 0.14003 0.88600 0.28098
 C203 C 0.11677 0.87815 0.26782
 C204 C 0.10832 0.85528 0.28118
 H205 H 0.15233 0.90332 0.27640
 H206 H 0.09092 0.84311 0.27637
 H207 H 0.14555 0.84879 0.34852
 H208 H 0.16643 0.82874 0.32459
 Zn209 Zn 0.03617 0.98818 0.00833
 Zn210 Zn 0.00385 1.03480 -0.01024
 Zn211 Zn -0.01772 0.97863 -0.01710
 Zn212 Zn -0.01368 1.00339 0.03744
 O213 O 0.00206 1.00123 0.00452
 O214 O 0.06136 1.00982 -0.00523
 O215 O -0.01485 1.03677 -0.04077
 O216 O 0.00156 0.95005 -0.02867
 O217 O 0.03759 1.04476 -0.01898
 O218 O 0.04079 0.95728 -0.00878
 O219 O -0.03033 0.99547 -0.04647
 O220 O -0.04356 0.98375 0.03966
 O221 O -0.00980 1.06053 0.01112
 O222 O -0.04702 0.96513 -0.00041
 O223 O -0.02383 1.03680 0.04592
 O224 O 0.00773 0.99184 0.06406
 O225 O 0.04526 0.98163 0.04236
 C226 C 0.06000 1.03259 -0.01653
 C227 C -0.02816 1.01968 -0.05426
 C228 C 0.02576 0.94308 -0.02369
 C229 C -0.05590 0.96870 0.02322
 C230 C -0.02137 1.05907 0.03379
 C231 C 0.03187 0.98324 0.06397
 Zn232 Zn 0.49827 -0.03392 0.48794
 Zn233 Zn 0.51364 0.00003 0.53441
 Zn234 Zn 0.52103 0.02124 0.47886
 Zn235 Zn 0.46539 0.01411 0.50171
 O236 O 0.49961 0.00042 0.50066
 O237 O 0.51166 -0.05815 0.51093
 O238 O 0.54319 0.02003 0.53726
 O239 O 0.53453 0.00262 0.45099
 O240 O 0.52370 -0.03273 0.54522
 O241 O 0.51738 -0.03781 0.45790
 O242 O 0.54959 0.03560 0.49628
 O243 O 0.46214 0.04391 0.48203
 O244 O 0.49073 0.01260 0.55910
 O245 O 0.50290 0.04914 0.46464
 O246 O 0.45477 0.02299 0.53494
 O247 O 0.44045 -0.00874 0.48913
 O248 O 0.46479 -0.04476 0.47984
 C249 C 0.52214 -0.05553 0.53399
 C250 C 0.55674 0.03384 0.52069
 C251 C 0.53166 -0.02179 0.44410
 C252 C 0.47858 0.05683 0.46737
 C253 C 0.46684 0.02170 0.55737
 C254 C 0.44222 -0.03271 0.48066
 Zn255 Zn 1.00505 0.45996 0.49039
 Zn256 Zn 1.03599 0.50874 0.50486
 Zn257 Zn 0.98036 0.51456 0.48128
 Zn258 Zn 0.98810 0.49269 0.53677
 O259 O 1.00230 0.49409 0.50321
 O260 O 1.03896 0.44997 0.48320
 O261 O 1.03843 0.53894 0.48588
 O262 O 0.96837 0.49577 0.45254
 O263 O 1.06179 0.48701 0.49213
 O264 O 0.98730 0.45612 0.45975
 O265 O 0.99777 0.54352 0.46801
 O266 O 0.95828 0.51197 0.53945
 O267 O 1.04611 0.51714 0.53829
 O268 O 0.95086 0.52761 0.49862
 O269 O 1.01047 0.50511 0.56208
 O270 O 0.97802 0.45969 0.54674
 O271 O 0.99127 0.43509 0.51234
 C272 C 1.06099 0.46291 0.48394
 C273 C 1.02184 0.55179 0.47131
 C274 C 0.97282 0.47159 0.44552
 C275 C 0.94401 0.52532 0.52310
 C276 C 1.03409 0.51488 0.56064
 C277 C 0.97993 0.43719 0.53503
 Zn278 Zn 0.49620 0.53656 0.98469
 Zn279 Zn 0.46765 0.48657 1.00061
 Zn280 Zn 0.52217 0.48302 0.97444
 Zn281 Zn 0.51626 0.50408 1.03041
 O282 O 0.50063 0.50250 0.99745
 O283 O 0.46164 0.54482 0.97771
 O284 O 0.46528 0.45693 0.98092
 O285 O 0.53321 0.50251 0.94598
 O286 O 0.44058 0.50750 0.98935
 O287 O 0.51369 0.54168 0.95399
 O288 O 0.50510 0.45400 0.96105
 O289 O 0.54750 0.48654 1.03149
 O290 O 0.45971 0.47634 1.03421
 O291 O 0.55229 0.47034 0.99050
 O292 O 0.49631 0.48902 1.05609
 O293 O 0.52329 0.53759 1.04125
 O294 O 0.50873 0.56179 1.00700
 C295 C 0.44013 0.53116 0.97992
 C296 C 0.48146 0.44498 0.96522
 C297 C 0.52839 0.52674 0.93945
 C298 C 0.56070 0.47296 1.01444
 C299 C 0.47330 0.47788 1.05573
 C300 C 0.51967 0.56013 1.02995
 C301 C 1.23035 0.41369 0.38093
 C302 C 1.20841 0.42574 0.39375
 C303 C 1.19453 0.41221 0.41402
 C304 C 1.20316 0.38652 0.42181
 C305 C 1.22544 0.37458 0.40939
 C306 C 1.23931 0.38787 0.38855
 N307 N 1.17173 0.42494 0.42621
 N308 N 1.15505 0.41213 0.44078
 C309 C 1.13234 0.42514 0.45286
 C310 C 1.11096 0.40951 0.46243
 C311 C 1.08781 0.42174 0.47286
 C312 C 1.08601 0.44987 0.47440
 C313 C 1.10792 0.46550 0.46567
 C314 C 1.13081 0.45326 0.45476
 H315 H 1.24037 0.42498 0.36534
 H316 H 1.20197 0.44561 0.38764
 H317 H 1.19275 0.37572 0.43755
 H318 H 1.23128 0.35471 0.41593
 H319 H 1.11196 0.38782 0.46117
 H320 H 1.07129 0.40921 0.47959
 H321 H 1.10707 0.48721 0.46658
 H322 H 1.14722 0.46574 0.44770
 C323 C 0.28389 0.64309 0.90473
 C324 C 0.30693 0.63364 0.91798
 C325 C 0.31257 0.60612 0.91895
 C326 C 0.29486 0.58802 0.90638
 C327 C 0.27198 0.59745 0.89286
 C328 C 0.26622 0.62510 0.89189
 N329 N 0.33671 0.59713 0.93208
 N330 N 0.34117 0.57238 0.93672
 C331 C 0.36565 0.56302 0.94890
 C332 C 0.36761 0.53599 0.95627
 C333 C 0.39155 0.52584 0.96712
 C334 C 0.41419 0.54256 0.97045
 C335 C 0.41212 0.56979 0.96324
 C336 C 0.38800 0.57999 0.95268
 H337 H 0.28020 0.66451 0.90417
 H338 H 0.32047 0.64781 0.92749
 H339 H 0.29885 0.56664 0.90674
 H340 H 0.25871 0.58304 0.88338
 H341 H 0.35060 0.52266 0.95333
 H342 H 0.39255 0.50472 0.97224
 H343 H 0.42923 0.58314 0.96545
 H344 H 0.38703 0.60094 0.94696
 C345 C -0.22096 0.90763 0.12685
 C346 C -0.19710 0.91832 0.11655
 C347 C -0.18853 0.91177 0.09070
 C348 C -0.20415 0.89420 0.07505
 C349 C -0.22810 0.88340 0.08537
 C350 C -0.23682 0.89005 0.11140
 N351 N -0.16393 0.92333 0.08110
 N352 N -0.15446 0.91904 0.05778
 C353 C -0.12965 0.93124 0.04935
 C354 C -0.12002 0.92671 0.02334
 C355 C -0.09596 0.93871 0.01469
 C356 C -0.08115 0.95542 0.03205
 C357 C -0.09090 0.95978 0.05816
 C358 C -0.11485 0.94785 0.06672
 H359 H -0.22673 0.91305 0.14704
 H360 H -0.18517 0.93180 0.12880
 H361 H -0.19789 0.88887 0.05495
 H362 H -0.23983 0.87006 0.07283
 H363 H -0.13124 0.91398 0.00973
 H364 H -0.08902 0.93500 -0.00555
 H365 H -0.08008 0.97254 0.07206
 H366 H -0.12179 0.95172 0.08693
 C367 C 0.72338 0.12446 0.59100
 C368 C 0.70006 0.11340 0.57950
 C369 C 0.68461 0.09462 0.59388
 C370 C 0.69265 0.08723 0.61970
 C371 C 0.71594 0.09807 0.63110
 C372 C 0.73167 0.11674 0.61689
 N373 N 0.66078 0.08253 0.58303
 N374 N 0.65224 0.08663 0.55929
 C375 C 0.62818 0.07368 0.54977
 C376 C 0.61992 0.07728 0.52313
 C377 C 0.59669 0.06441 0.51345
 C378 C 0.58131 0.04781 0.53041
 C379 C 0.58965 0.04443 0.55715
 C380 C 0.61279 0.05716 0.56671
 H381 H 0.73510 0.13869 0.57946
 H382 H 0.69418 0.11942 0.55948
 H383 H 0.68083 0.07286 0.63099
 H384 H 0.72144 0.09190 0.65117
 H385 H 0.63158 0.08995 0.50983
 H386 H 0.59080 0.06743 0.49276
 H387 H 0.57835 0.03179 0.57079
 H388 H 0.61862 0.05400 0.58739
 C389 C 0.37439 0.22098 0.40480
 C390 C 0.38508 0.19786 0.41650
 C391 C 0.40898 0.18658 0.40690
 C392 C 0.42222 0.19863 0.38512
 C393 C 0.41144 0.22175 0.37315
 C394 C 0.38733 0.23341 0.38286
 N395 N 0.41903 0.16285 0.41969
 N396 N 0.44150 0.15197 0.41373
 C397 C 0.45051 0.12809 0.42713
 C398 C 0.47630 0.11791 0.42172
 C399 C 0.48559 0.09477 0.43478
 C400 C 0.46904 0.08132 0.45337
 C401 C 0.44309 0.09154 0.45859
 C402 C 0.43394 0.11470 0.44569
 H403 H 0.35582 0.22874 0.41310
 H404 H 0.37467 0.18867 0.43325
 H405 H 0.44076 0.19017 0.37733
 H406 H 0.42226 0.23043 0.35644
 H407 H 0.48927 0.12801 0.40746
 H408 H 0.50565 0.08738 0.43028
 H409 H 0.42984 0.08173 0.47280
 H410 H 0.41389 0.12208 0.45022
 C411 C 0.92609 0.25530 0.61198
 C412 C 0.93944 0.27754 0.60132
 C413 C 0.92484 0.29845 0.58960
 C414 C 0.89664 0.29644 0.58754
 C415 C 0.88324 0.27377 0.59742
 C416 C 0.89773 0.25309 0.61037
 N417 N 0.93907 0.32149 0.57998
 N418 N 0.92790 0.34446 0.57853
 C419 C 0.94197 0.36739 0.56837
 C420 C 0.93240 0.39306 0.57462
 C421 C 0.94542 0.41583 0.56460
 C422 C 0.96783 0.41318 0.54752
 C423 C 0.97743 0.38738 0.54126
 C424 C 0.96480 0.36464 0.55186
 H425 H 0.93826 0.23973 0.62111
 H426 H 0.96123 0.27879 0.60275
 H427 H 0.88503 0.31232 0.57819
 H428 H 0.86148 0.27308 0.59570
 H429 H 0.91481 0.39541 0.58731
 H430 H 0.93746 0.43549 0.56953
 H431 H 0.99465 0.38481 0.52812
 H432 H 0.97245 0.34494 0.54669
 C433 C 0.07615 0.77118 -0.12560
 C434 C 0.06281 0.79342 -0.11475
 C435 C 0.07515 0.80898 -0.09495
 C436 C 0.10103 0.80185 -0.08581
 C437 C 0.11445 0.77969 -0.09662
 C438 C 0.10232 0.76399 -0.11684
 N439 N 0.06140 0.83218 -0.08477
 N440 N 0.07250 0.84740 -0.06753
 C441 C 0.05992 0.87100 -0.05699
 C442 C 0.07427 0.88625 -0.03836
 C443 C 0.06309 0.90956 -0.02761
 C444 C 0.03711 0.91811 -0.03528
 C445 C 0.02262 0.90275 -0.05409
 C446 C 0.03397 0.87933 -0.06492
 H447 H 0.06582 0.75998 -0.14105
 H448 H 0.04286 0.79867 -0.12197
 H449 H 0.11101 0.81350 -0.07039
 H450 H 0.13434 0.77510 -0.08894
 H451 H 0.09430 0.88003 -0.03218
 H452 H 0.07485 0.92084 -0.01319
 H453 H 0.00265 0.90888 -0.06050
 H454 H 0.02254 0.86784 -0.07944
 C455 C 0.61517 0.73309 1.08105
 C456 C 0.60328 0.71091 1.06862
 C457 C 0.58481 0.69493 1.08249
 C458 C 0.57787 0.70162 1.10892
 C459 C 0.58931 0.72409 1.12125
 C460 C 0.60835 0.74013 1.10759
 N461 N 0.57344 0.67205 1.06932
 N462 N 0.56109 0.65370 1.08215
 C463 C 0.54968 0.63092 1.06886
 C464 C 0.54289 0.60824 1.08396
 C465 C 0.53289 0.58523 1.07138
 C466 C 0.52896 0.58482 1.04348
 C467 C 0.53496 0.60794 1.02846
 C468 C 0.54551 0.63072 1.04100
 H469 H 0.62938 0.74481 1.06950
 H470 H 0.60869 0.70598 1.04817
 H471 H 0.56347 0.68961 1.11998
 H472 H 0.58345 0.72839 1.14167
 H473 H 0.54593 0.60821 1.10546
 H474 H 0.52828 0.56775 1.08344
 H475 H 0.53217 0.60816 1.00693
 H476 H 0.55042 0.64813 1.02895
 C477 C 0.36410 0.39854 1.21016
 C478 C 0.37337 0.41043 1.18655
 C479 C 0.40082 0.40980 1.18008
 C480 C 0.41897 0.39643 1.19721
 C481 C 0.40962 0.38408 1.22064
 C482 C 0.38214 0.38533 1.22749
 N483 N 0.40971 0.42300 1.15616
 N484 N 0.43455 0.42757 1.15157
 C485 C 0.44350 0.44062 1.12758
 C486 C 0.47043 0.44877 1.12577
 C487 C 0.47993 0.46143 1.10265
 C488 C 0.46266 0.46580 1.08068
 C489 C 0.43556 0.45756 1.08251
 C490 C 0.42600 0.44521 1.10585
 H491 H 0.34275 0.39953 1.21474
 H492 H 0.35919 0.42054 1.17343
 H493 H 0.44029 0.39554 1.19250
 H494 H 0.42396 0.37412 1.23368
 H495 H 0.48411 0.44530 1.14237
 H496 H 0.50095 0.46734 1.10180
 H497 H 0.42179 0.46060 1.06592
 H498 H 0.40508 0.43898 1.10677
 C499 C 0.59593 -0.13210 0.28469
 C500 C 0.58476 -0.12156 0.30814
 C501 C 0.59069 -0.09532 0.31616
 C502 C 0.60816 -0.07962 0.30050
 C503 C 0.61946 -0.09017 0.27706
 C504 C 0.61342 -0.11653 0.26884
 N505 N 0.57857 -0.08520 0.34016
 N506 N 0.58228 -0.06133 0.34851
 C507 C 0.56977 -0.05176 0.37258
 C508 C 0.57377 -0.02510 0.38053
 C509 C 0.56149 -0.01522 0.40381
 C510 C 0.54502 -0.03198 0.41955
 C511 C 0.54121 -0.05879 0.41153
 C512 C 0.55342 -0.06858 0.38830
 H513 H 0.59100 -0.15252 0.27918
 H514 H 0.57137 -0.13386 0.32011
 H515 H 0.61301 -0.05925 0.30630
 H516 H 0.63264 -0.07750 0.26528
 H517 H 0.58633 -0.01193 0.36859
 H518 H 0.56486 0.00551 0.40944
 H519 H 0.52868 -0.07227 0.42315
 H520 H 0.55002 -0.08928 0.38264
 C521 C -0.08929 1.12097 -0.22025
 C522 C -0.07813 1.11099 -0.19658
 C523 C -0.08620 1.08610 -0.18647
 C524 C -0.10594 1.07122 -0.20020
 C525 C -0.11733 1.08130 -0.22389
 C526 C -0.10897 1.10623 -0.23424
 N527 N -0.07399 1.07673 -0.16219
 N528 N -0.07868 1.05372 -0.15212
 C529 C -0.06596 1.04541 -0.12765
 C530 C -0.07034 1.01940 -0.11794
 C531 C -0.05805 1.01086 -0.09411
 C532 C -0.04124 1.02836 -0.07955
 C533 C -0.03702 1.05450 -0.08935
 C534 C -0.04917 1.06292 -0.11315
 H535 H -0.08266 1.14041 -0.22733
 H536 H -0.06306 1.12269 -0.18605
 H537 H -0.11256 1.05194 -0.19267
 H538 H -0.13238 1.06943 -0.23422
 H539 H -0.08324 1.00571 -0.12889
 H540 H -0.06178 0.99063 -0.08707
 H541 H -0.02423 1.06851 -0.07867
 H542 H -0.04546 1.08316 -0.12016
 C543 C 1.08094 0.60223 0.73845
 C544 C 1.06932 0.58953 0.71636
 C545 C 1.08551 0.57644 0.69750
 C546 C 1.11363 0.57557 0.70129
 C547 C 1.12530 0.58796 0.72366
 C548 C 1.10906 0.60178 0.74221
 N549 N 1.07282 0.56452 0.67464
 N550 N 1.08618 0.55572 0.65471
 C551 C 1.07305 0.54423 0.63185
 C552 C 1.08804 0.53972 0.60852
 C553 C 1.07546 0.53000 0.58538
 C554 C 1.04766 0.52420 0.58538
 C555 C 1.03281 0.52804 0.60909
 C556 C 1.04534 0.53813 0.63208
 H557 H 1.06788 0.61230 0.75266
 H558 H 1.04761 0.59017 0.71373
 H559 H 1.12653 0.56540 0.68702
 H560 H 1.14701 0.58727 0.72608
 H561 H 1.10942 0.54426 0.60813
 H562 H 1.08747 0.52711 0.56748
 H563 H 1.01138 0.52375 0.60974
 H564 H 1.03336 0.54126 0.64995
 C565 C 0.77227 0.63127 0.57324
 C566 C 0.79493 0.62133 0.55962
 C567 C 0.81026 0.60042 0.57063
 C568 C 0.80257 0.58949 0.59547
 C569 C 0.77999 0.59926 0.60898
 C570 C 0.76453 0.62026 0.59808
 N571 N 0.83356 0.59055 0.55663
 N572 N 0.84830 0.57249 0.56721
 C573 C 0.87188 0.56130 0.55502
 C574 C 0.88684 0.54290 0.56997
 C575 C 0.91010 0.53137 0.55943
 C576 C 0.91894 0.53789 0.53342
 C577 C 0.90373 0.55628 0.51816
 C578 C 0.88032 0.56803 0.52895
 H579 H 0.76073 0.64735 0.56419
 H580 H 0.80058 0.62997 0.54051
 H581 H 0.81404 0.57335 0.60455
 H582 H 0.77493 0.59048 0.62815
 H583 H 0.88045 0.53755 0.59004
 H584 H 0.92114 0.51721 0.57176
 H585 H 0.91002 0.56170 0.49809
 H586 H 0.86889 0.58223 0.51703
 C587 C 0.71579 0.40027 1.12475
 C588 C 0.69278 0.41162 1.11330
 C589 C 0.68666 0.40725 1.08633
 C590 C 0.70361 0.39076 1.07084
 C591 C 0.72668 0.37917 1.08236
 C592 C 0.73318 0.38413 1.10938
 N593 N 0.66338 0.42032 1.07544
 N594 N 0.65606 0.41852 1.05105
 C595 C 0.63257 0.43260 1.04171
 C596 C 0.62407 0.42964 1.01507
 C597 C 0.60091 0.44302 1.00585
 C598 C 0.58597 0.45961 1.02322
 C599 C 0.59486 0.46275 1.04981
 C600 C 0.61782 0.44942 1.05895
 H601 H 0.71989 0.40421 1.14569
 H602 H 0.67976 0.42417 1.12545
 H603 H 0.69920 0.38710 1.04990
 H604 H 0.73973 0.36691 1.06997
 H605 H 0.63526 0.41680 1.00153
 H606 H 0.59458 0.44017 0.98526
 H607 H 0.58391 0.47537 1.06376
 H608 H 0.62393 0.45221 1.07960
 C609 C 0.20861 1.14467 -0.10469
 C610 C 0.18560 1.13530 -0.09147
 C611 C 0.18087 1.10773 -0.08904
 C612 C 0.19915 1.08949 -0.10064
 C613 C 0.22194 1.09885 -0.11429
 C614 C 0.22706 1.12654 -0.11618
 N615 N 0.15746 1.09878 -0.07473
 N616 N 0.15462 1.07443 -0.06756
 C617 C 0.13114 1.06508 -0.05364
 C618 C 0.13113 1.03893 -0.04347
 C619 C 0.10831 1.02874 -0.03060
 C620 C 0.08485 1.04448 -0.02798
 C621 C 0.08501 1.07092 -0.03790
 C622 C 0.10803 1.08121 -0.05052
 H623 H 0.21186 1.16612 -0.10607
 H624 H 0.17159 1.14954 -0.08275
 H625 H 0.19581 1.06805 -0.09918
 H626 H 0.23585 1.08441 -0.12283
 H627 H 0.14880 1.02632 -0.04576
 H628 H 0.10882 1.00825 -0.02332
 H629 H 0.06725 1.08352 -0.03623
 H630 H 0.10757 1.10152 -0.05827
 C631 C 0.26503 -0.08459 0.39162
 C632 C 0.28725 -0.07225 0.40366
 C633 C 0.30621 -0.08748 0.41783
 C634 C 0.30251 -0.11537 0.42021
 C635 C 0.28005 -0.12773 0.40846
 C636 C 0.26118 -0.11247 0.39388
 N637 N 0.32902 -0.07412 0.42936
 N638 N 0.34890 -0.08681 0.43944
 C639 C 0.37162 -0.07306 0.45075
 C640 C 0.39488 -0.08770 0.45712
 C641 C 0.41780 -0.07466 0.46705
 C642 C 0.41765 -0.04671 0.47115
 C643 C 0.39402 -0.03215 0.46536
 C644 C 0.37125 -0.04517 0.45508
 H645 H 0.25073 -0.07221 0.38079
 H646 H 0.28986 -0.05074 0.40175
 H647 H 0.31690 -0.12756 0.43112
 H648 H 0.27772 -0.14925 0.41041
 H649 H 0.39539 -0.10920 0.45393
 H650 H 0.43566 -0.08645 0.47142
 H651 H 0.39329 -0.01061 0.46824
 H652 H 0.35345 -0.03342 0.45043
 C653 C 0.57473 -0.23916 0.60991
 C654 C 0.56123 -0.21675 0.59957
 C655 C 0.57558 -0.19355 0.59275
 C656 C 0.60380 -0.19317 0.59578
 C657 C 0.61740 -0.21582 0.60543
 C658 C 0.60295 -0.23892 0.61279
 N659 N 0.56123 -0.17084 0.58236
 N660 N 0.57127 -0.14733 0.58287
 C661 C 0.55761 -0.12467 0.57153
 C662 C 0.56615 -0.09882 0.57846
 C663 C 0.55398 -0.07629 0.56691
 C664 C 0.53345 -0.07932 0.54769
 C665 C 0.52478 -0.10529 0.54084
 C666 C 0.53658 -0.12781 0.55286
 H667 H 0.56315 -0.25680 0.61526
 H668 H 0.53950 -0.21733 0.59717
 H669 H 0.61533 -0.17552 0.59039
 H670 H 0.63915 -0.21510 0.60760
 H671 H 0.58238 -0.09616 0.59277
 H672 H 0.56117 -0.05651 0.57244
 H673 H 0.50897 -0.10818 0.52611
 H674 H 0.52975 -0.14763 0.54709
 C675 C 1.12840 0.71387 0.40708
 C676 C 1.11806 0.69027 0.41816
 C677 C 1.09173 0.68201 0.41236
 C678 C 1.07569 0.69763 0.39513
 C679 C 1.08603 0.72127 0.38394
 C680 C 1.11251 0.72972 0.38985
 N681 N 1.08197 0.65778 0.42438
 N682 N 1.05819 0.64881 0.42069
 C683 C 1.04932 0.62446 0.43326
 C684 C 1.02284 0.61547 0.42918
 C685 C 1.01373 0.59184 0.44146
 C686 C 1.03108 0.57681 0.45804
 C687 C 1.05767 0.58593 0.46199
 C688 C 1.06669 0.60946 0.44977
 H689 H 1.14892 0.71948 0.41192
 H690 H 1.13062 0.67835 0.43139
 H691 H 1.05523 0.69163 0.39038
 H692 H 1.07313 0.73301 0.37092
 H693 H 1.00923 0.62684 0.41651
 H694 H 0.99315 0.58538 0.43801
 H695 H 1.07161 0.57490 0.47461
 H696 H 1.08726 0.61591 0.45327
 C697 C -0.07123 1.24350 0.11002
 C698 C -0.05811 1.22102 0.09937
 C699 C -0.07302 1.19898 0.09027
 C700 C -0.10138 1.19990 0.09134
 C701 C -0.11454 1.22266 0.10132
 C702 C -0.09957 1.24457 0.11095
 N703 N -0.05907 1.17597 0.07995
 N704 N -0.07029 1.15302 0.07892
 C705 C -0.05702 1.12990 0.06804
 C706 C -0.06694 1.10442 0.07447
 C707 C -0.05485 1.08140 0.06387
 C708 C -0.03300 1.08353 0.04602
 C709 C -0.02315 1.10916 0.03939
 C710 C -0.03488 1.13219 0.05056
 H711 H -0.05924 1.26020 0.11719
 H712 H -0.03625 1.22059 0.09859
 H713 H -0.11333 1.18315 0.08424
 H714 H -0.13640 1.22291 0.10199
 H715 H -0.08408 1.10242 0.08780
 H716 H -0.06303 1.06193 0.06913
 H717 H -0.00637 1.11136 0.02565
 H718 H -0.02704 1.15174 0.04514
 C719 C 0.37307 0.28521 0.90079
 C720 C 0.38436 0.30820 0.91209
 C721 C 0.41083 0.31565 0.90607
 C722 C 0.42618 0.29971 0.88853
 C723 C 0.41490 0.27655 0.87717
 C724 C 0.38814 0.26902 0.88316
 N725 N 0.42127 0.33953 0.91812
 N726 N 0.44497 0.34847 0.91393
 C727 C 0.45401 0.37263 0.92674
 C728 C 0.48018 0.38215 0.92193
 C729 C 0.48929 0.40571 0.93434
 C730 C 0.47227 0.42009 0.95178
 C731 C 0.44602 0.41042 0.95649
 C732 C 0.43700 0.38700 0.94413
 H733 H 0.35243 0.28039 0.90588
 H734 H 0.37236 0.32038 0.92558
 H735 H 0.44676 0.30513 0.88363
 H736 H 0.42720 0.26462 0.86379
 H737 H 0.49351 0.37128 0.90858
 H738 H 0.50962 0.41263 0.93033
 H739 H 0.43234 0.42095 0.96978
 H740 H 0.41667 0.38015 0.94823
 C741 C 0.62634 0.57413 0.76428
 C742 C 0.61678 0.56159 0.78753
 C743 C 0.59771 0.57440 0.80382
 C744 C 0.58826 0.60001 0.79655
 C745 C 0.59770 0.61250 0.77333
 C746 C 0.61686 0.59974 0.75689
 N747 N 0.58817 0.56120 0.82754
 N748 N 0.57139 0.57263 0.84313
 C749 C 0.56114 0.56040 0.86700
 C750 C 0.54367 0.57535 0.88314
 C751 C 0.53316 0.56440 0.90664
 C752 C 0.53986 0.53807 0.91445
 C753 C 0.55740 0.52297 0.89814
 C754 C 0.56802 0.53407 0.87458
 H755 H 0.64093 0.56362 0.75202
 H756 H 0.62424 0.54185 0.79288
 H757 H 0.57358 0.61043 0.80881
 H758 H 0.59013 0.63231 0.76854
 H759 H 0.53821 0.59564 0.87745
 H760 H 0.51970 0.57661 0.91865
 H761 H 0.56293 0.50265 0.90360
 H762 H 0.58147 0.52212 0.86232
 C763 C 0.41794 0.10769 0.73579
 C764 C 0.42996 0.09570 0.71347
 C765 C 0.41416 0.08254 0.69431
 C766 C 0.38608 0.08091 0.69802
 C767 C 0.37404 0.09256 0.72059
 C768 C 0.38984 0.10633 0.73955
 N769 N 0.42716 0.07132 0.67125
 N770 N 0.41402 0.06261 0.65111
 C771 C 0.42741 0.05157 0.62815
 C772 C 0.41247 0.04654 0.60487
 C773 C 0.42519 0.03671 0.58183
 C774 C 0.45309 0.03138 0.58188
 C775 C 0.46792 0.03592 0.60549
 C776 C 0.45525 0.04607 0.62837
 H777 H 0.43068 0.11788 0.75018
 H778 H 0.45163 0.09698 0.71087
 H779 H 0.37347 0.07074 0.68350
 H780 H 0.35234 0.09131 0.72286
 H781 H 0.39100 0.05065 0.60446
 H782 H 0.41320 0.03331 0.56399
 H783 H 0.48944 0.03205 0.60618
 H784 H 0.46723 0.04968 0.64616
 C785 C 0.07640 0.88768 0.23893
 C786 C 0.06442 0.90033 0.21688
 C787 C 0.07985 0.91639 0.19972
 C788 C 0.10749 0.91993 0.20499
 C789 C 0.11941 0.90760 0.22720
 C790 C 0.10402 0.89127 0.24437
 N791 N 0.06710 0.92864 0.17700
 N792 N 0.08064 0.94053 0.15887
 C793 C 0.06809 0.95264 0.13600
 C794 C 0.08425 0.96034 0.11434
 C795 C 0.07254 0.97074 0.09106
 C796 C 0.04440 0.97408 0.08928
 C797 C 0.02827 0.96721 0.11143
 C798 C 0.03999 0.95638 0.13455
 H799 H 0.06397 0.87541 0.25189
 H800 H 0.04309 0.89745 0.21303
 H801 H 0.11986 0.93224 0.19200
 H802 H 0.14078 0.91056 0.23068
 H803 H 0.10593 0.95764 0.11527
 H804 H 0.08549 0.97594 0.07436
 H805 H 0.00653 0.96947 0.11060
 H806 H 0.02710 0.95073 0.15114
 C807 C 0.87767 0.42704 0.26798
 C808 C 0.88708 0.43936 0.29139
 C809 C 0.90620 0.42649 0.30756
 C810 C 0.91610 0.40116 0.29986
 C811 C 0.90685 0.38891 0.27640
 C812 C 0.88740 0.40163 0.26025
 N813 N 0.91513 0.43930 0.33173
 N814 N 0.93118 0.42745 0.34777
 C815 C 0.94080 0.43926 0.37211
 C816 C 0.95753 0.42384 0.38856
 C817 C 0.96767 0.43437 0.41238
 C818 C 0.96133 0.46077 0.42029
 C819 C 0.94438 0.47632 0.40376
 C820 C 0.93412 0.46562 0.37981
 H821 H 0.86289 0.43755 0.25592
 H822 H 0.87934 0.45890 0.29703
 H823 H 0.93091 0.39075 0.31200
 H824 H 0.91464 0.36928 0.27124
 H825 H 0.96277 0.40351 0.38282
 H826 H 0.98064 0.42178 0.42454
 H827 H 0.93912 0.49669 0.40928
 H828 H 0.92116 0.47790 0.36734
   
