data_POSCAR
  _audit_creation_date              2014-09-24
  _audit_creation_method            'ToBaCCo'
  _symmetry_space_group_name_H-M    'P1'
  _symmetry_Int_Tables_number       1
  _symmetry_cell_setting            triclinic
  loop_
  _symmetry_equiv_pos_as_xyz
 x,y,z
_cell_length_a 17.1103
_cell_length_b 17.0210
_cell_length_c 17.0182
_cell_angle_alpha 115.249000
_cell_angle_beta 70.910800
_cell_angle_gamma 68.803200
loop_
  _atom_site_label
  _atom_site_type_symbol
  _atom_site_fract_x
  _atom_site_fract_y
  _atom_site_fract_z
O1 O 0.53531 0.55530 0.11545
 O2 O 0.34082 0.55620 0.06727
 O3 O 0.46551 0.43827 0.08780
 O4 O 0.40786 0.67252 0.09712
 O5 O 0.52471 0.56447 -0.07522
 O6 O 0.58454 0.32936 -0.08392
 O7 O 0.45786 0.44443 -0.10505
 O8 O 0.65219 0.44597 -0.05684
 Cu9 Cu 0.42627 0.56567 0.10907
 Cu10 Cu 0.56658 0.43529 -0.09788
 C11 C 0.62643 0.50190 0.03764
 C12 C 0.36617 0.49965 -0.02706
 C13 C 0.53315 0.34440 0.00069
 C14 C 0.45721 0.65830 0.01251
 O15 O -0.08967 0.68553 0.60670
 O16 O -0.11567 0.47052 0.57449
 O17 O -0.06160 0.57430 0.67163
 O18 O -0.11819 0.56188 0.47662
 O19 O 0.04364 0.43015 0.34567
 O20 O 0.10118 0.44785 0.53995
 O21 O 0.04621 0.34684 0.43939
 O22 O 0.06978 0.56364 0.46662
 Cu23 Cu -0.11247 0.58398 0.59191
 Cu24 Cu 0.08127 0.43846 0.43665
 C25 C -0.00674 0.66156 0.53968
 C26 C -0.03951 0.37283 0.50447
 C27 C 0.03022 0.51041 0.63779
 C28 C -0.04681 0.49562 0.37834
 O29 O 0.41337 0.11595 0.68591
 O30 O 0.46598 0.10209 0.45064
 O31 O 0.33125 0.10650 0.58177
 O32 O 0.54240 0.12587 0.56424
 O33 O 0.65001 -0.05078 0.45800
 O34 O 0.43718 -0.07025 0.47636
 O35 O 0.57452 -0.07435 0.34757
 O36 O 0.52239 -0.06024 0.58169
 Cu37 Cu 0.42804 0.13038 0.58079
 Cu38 Cu 0.55642 -0.08166 0.45608
 C39 C 0.46027 0.02982 0.67351
 C40 C 0.52801 0.01113 0.35925
 C41 C 0.34802 0.01543 0.53145
 C42 C 0.63184 0.04135 0.50893
 O43 O 0.41164 0.02596 -0.06469
 O44 O 0.39531 0.08540 0.17679
 O45 O 0.39880 0.17311 0.08561
 O46 O 0.41505 -0.06952 0.02396
 O47 O 0.58333 -0.16385 -0.06766
 O48 O 0.56729 0.07735 -0.00778
 O49 O 0.56362 -0.01061 0.08629
 O50 O 0.58014 -0.07244 -0.15619
 Cu51 Cu 0.38805 0.06256 0.06413
 Cu52 Cu 0.59060 -0.05185 -0.04513
 C53 C 0.49837 -0.03130 -0.15078
 C54 C 0.47664 0.04751 0.17263
 C55 C 0.48070 0.16574 0.04770
 C56 C 0.50208 -0.15764 -0.03123
 O57 O -0.15828 0.55647 1.06831
 O58 O 0.02716 0.61239 1.08269
 O59 O -0.06624 0.61981 0.98580
 O60 O -0.06989 0.55328 1.16598
 O61 O 0.05910 0.38516 1.02847
 O62 O 0.06126 0.45127 0.84797
 O63 O 0.15423 0.44459 0.94248
 O64 O -0.03125 0.38799 0.92973
 Cu65 Cu -0.07923 0.60278 1.08917
 Cu66 Cu 0.07333 0.40050 0.92368
 C67 C -0.12609 0.46277 0.99556
 C68 C 0.12207 0.53755 1.01661
 C69 C -0.00414 0.54659 0.88638
 C70 C -0.00472 0.45806 1.12782
 O71 O 0.11075 -0.20981 0.36935
 O72 O 0.07744 0.00603 0.34935
 O73 O 0.20307 -0.11833 0.36421
 O74 O -0.01499 -0.09025 0.35089
 O75 O -0.12055 0.03183 0.52461
 O76 O 0.09821 0.00269 0.53820
 O77 O -0.02879 0.12648 0.52314
 O78 O 0.00394 -0.08976 0.54328
 Cu79 Cu 0.10363 -0.11423 0.34126
 Cu80 Cu -0.02240 0.02999 0.54980
 C81 C 0.06226 -0.18655 0.45955
 C82 C 0.02100 0.10252 0.43273
 C83 C 0.18771 -0.06193 0.45341
 C84 C -0.10422 -0.02683 0.43519
 C85 C -0.29894 0.51032 1.05813
 C86 C -0.19868 0.44155 0.98276
 H87 H -0.32777 0.57819 1.13543
 H88 H -0.16946 0.37098 0.90714
 C89 C 0.29417 0.49421 0.95398
 C90 C 0.19454 0.55751 1.03164
 H91 H 0.32092 0.43433 0.87386
 H92 H 0.16538 0.62259 1.11066
 C93 C -0.00320 -0.25577 0.54432
 C94 C 0.07184 -0.27369 0.46474
 H95 H -0.06969 -0.17400 0.60993
 H96 H 0.13562 -0.35517 0.39518
 C97 C -0.04991 0.29045 0.50449
 C98 C 0.01936 0.18555 0.42374
 H99 H -0.11360 0.31690 0.57570
 H100 H 0.08053 0.15924 0.35076
 C101 C 0.44479 0.03611 -0.23777
 C102 C 0.50527 -0.04694 -0.24498
 H103 H 0.38708 0.11392 -0.16048
 H104 H 0.56955 -0.12285 -0.32153
 C105 C 0.54416 0.00242 0.26505
 C106 C 0.46856 0.06936 0.26921
 H107 H 0.61446 -0.06836 0.18912
 H108 H 0.39508 0.13462 0.34430
 C109 C 0.43805 -0.24743 0.01858
 C110 C 0.51073 -0.25391 -0.05077
 H111 H 0.36846 -0.16967 0.08853
 H112 H 0.58375 -0.33081 -0.11570
 C113 C 0.54925 0.25154 -0.00413
 C114 C 0.47397 0.26053 0.06526
 H115 H 0.61882 0.17309 -0.07282
 H116 H 0.40121 0.33811 0.12889
 C117 C -0.28599 0.05111 0.50828
 C118 C -0.18777 -0.02722 0.42864
 H119 H -0.30684 0.12328 0.57622
 H120 H -0.16757 -0.09634 0.35806
 C121 C 0.26207 0.01175 0.53646
 C122 C 0.27499 -0.06958 0.45668
 H123 H 0.18562 0.08359 0.60194
 H124 H 0.35134 -0.13775 0.38707
 C125 C -0.06838 0.50221 1.30353
 C126 C 0.00283 0.43303 1.19899
 H127 H -0.14024 0.57261 1.33627
 H128 H 0.07349 0.36097 1.16577
 C129 C 0.05402 0.50161 0.71069
 C130 C -0.01438 0.57151 0.81579
 H131 H 0.12595 0.43019 0.67630
 H132 H -0.08480 0.64470 0.85042
   
