data_POSCAR
  _audit_creation_date              2014-09-24
  _audit_creation_method            'ToBaCCo'
  _symmetry_space_group_name_H-M    'P1'
  _symmetry_Int_Tables_number       1
  _symmetry_cell_setting            triclinic
  loop_
  _symmetry_equiv_pos_as_xyz
 x,y,z
_cell_length_a 18.2085
_cell_length_b 40.6189
_cell_length_c 38.8029
_cell_angle_alpha 89.945500
_cell_angle_beta 90.012300
_cell_angle_gamma 90.354300
loop_
  _atom_site_label
  _atom_site_type_symbol
  _atom_site_fract_x
  _atom_site_fract_y
  _atom_site_fract_z
O1 O 0.28743 0.28111 0.20769
 O2 O 0.33511 0.21661 0.27034
 O3 O 0.28745 0.21715 0.20722
 O4 O 0.33451 0.28077 0.27120
 O5 O 0.21990 0.28015 0.29004
 O6 O 0.17283 0.21655 0.22608
 O7 O 0.22051 0.21596 0.28921
 O8 O 0.17278 0.28052 0.22649
 Cu9 Cu 0.32270 0.24903 0.23727
 Cu10 Cu 0.18502 0.24829 0.25992
 C11 C 0.22198 0.29154 0.20633
 C12 C 0.28578 0.20525 0.29020
 C13 C 0.22217 0.20613 0.20583
 C14 C 0.28514 0.29119 0.29143
 O15 O 0.67314 0.28305 0.27244
 O16 O 0.72046 0.21958 0.20865
 O17 O 0.67316 0.21908 0.27217
 O18 O 0.72101 0.28379 0.20934
 O19 O 0.83555 0.28383 0.22830
 O20 O 0.78777 0.21918 0.29106
 O21 O 0.83502 0.21965 0.22758
 O22 O 0.78772 0.28314 0.29138
 Cu23 Cu 0.68546 0.25131 0.23867
 Cu24 Cu 0.82308 0.25140 0.26143
 C25 C 0.72243 0.29378 0.29269
 C26 C 0.78570 0.20891 0.20734
 C27 C 0.72233 0.20839 0.29240
 C28 C 0.78627 0.29487 0.20838
 O29 O 0.77817 0.78238 0.71123
 O30 O 0.82589 0.71891 0.77507
 O31 O 0.77809 0.71816 0.71170
 O32 O 0.82534 0.78283 0.77445
 O33 O 0.71077 0.78258 0.79336
 O34 O 0.66350 0.71790 0.73056
 O35 O 0.71130 0.71863 0.79397
 O36 O 0.66358 0.78214 0.73012
 Cu37 Cu 0.81335 0.75053 0.74114
 Cu38 Cu 0.67570 0.75022 0.76385
 C39 C 0.71297 0.79313 0.71004
 C40 C 0.77678 0.70825 0.79547
 C41 C 0.71283 0.70714 0.71051
 C42 C 0.77605 0.79361 0.79451
 O43 O 0.16322 0.78165 0.77084
 O44 O 0.21047 0.71715 0.70814
 O45 O 0.16330 0.71740 0.77138
 O46 O 0.21101 0.78109 0.70745
 O47 O 0.32561 0.78146 0.72636
 O48 O 0.27787 0.71781 0.79029
 O49 O 0.32506 0.71754 0.72708
 O50 O 0.27781 0.78204 0.78973
 Cu51 Cu 0.17542 0.74935 0.73761
 Cu52 Cu 0.31307 0.74982 0.76034
 C53 C 0.21255 0.79271 0.79088
 C54 C 0.27575 0.70648 0.70702
 C55 C 0.21267 0.70670 0.79148
 C56 C 0.27650 0.79182 0.70593
 C57 C 1.03876 0.02277 0.01999
 C58 C 0.96128 0.02254 0.02077
 C59 C 0.92183 0.00127 -0.00085
 C60 C 0.95935 -0.02018 -0.02281
 C61 C 1.03683 -0.02076 -0.02271
 C62 C 1.07628 0.00092 -0.00153
 H63 H 1.13583 0.00079 -0.00178
 H64 H 0.86228 0.00140 -0.00059
 C65 C 0.53682 0.52066 0.52303
 C66 C 0.45933 0.51989 0.52295
 C67 C 0.42169 0.49846 0.50080
 C68 C 0.46100 0.47738 0.47917
 C69 C 0.53848 0.47732 0.48013
 C70 C 0.57613 0.49916 0.50184
 H71 H 0.63569 0.49944 0.50223
 H72 H 0.36214 0.49819 0.50040
 C73 C -0.03433 0.48215 0.02593
 C74 C 0.04160 0.47770 0.02057
 C75 C 0.07895 0.49712 -0.00368
 C76 C 0.04082 0.52089 -0.02263
 C77 C -0.03510 0.52532 -0.01722
 C78 C -0.07241 0.50593 0.00702
 H79 H -0.13081 0.50927 0.01108
 H80 H 0.13732 0.49372 -0.00780
 C81 C 0.46469 0.97465 0.51746
 C82 C 0.54075 0.97930 0.52265
 C83 C 0.57901 1.00307 0.50348
 C84 C 0.54166 1.02227 0.47922
 C85 C 0.46560 1.01760 0.47407
 C86 C 0.42739 0.99383 0.49321
 H87 H 0.36888 0.99032 0.48931
 H88 H 0.63748 1.00663 0.50744
 C89 C 1.13114 0.09169 0.08343
 C90 C 1.09074 0.12127 0.08637
 C91 C 1.10898 0.14444 0.11243
 C92 C 1.16923 0.13850 0.13459
 C93 C 1.21058 0.10927 0.13120
 C94 C 1.19124 0.08572 0.10562
 C95 C 1.23258 0.05646 0.10302
 C96 C 1.29159 0.05064 0.12503
 C97 C 1.31065 0.07369 0.15000
 C98 C 1.27079 0.10271 0.15316
 C99 C 1.06550 0.17303 0.11597
 C100 C 1.00600 0.17866 0.09420
 C101 C 0.98905 0.15632 0.06826
 C102 C 1.03098 0.12802 0.06415
 C103 C 1.18879 0.16260 0.16067
 C104 C 1.20465 0.18295 0.18204
 C105 C 1.10588 0.06630 0.05988
 C106 C 1.07900 0.04583 0.04120
 H107 H 1.21993 0.03789 0.08390
 H108 H 1.32273 0.02814 0.12268
 H109 H 1.35653 0.06905 0.16703
 H110 H 1.28756 0.11986 0.17303
 H111 H 1.07663 0.19119 0.13569
 H112 H 0.97299 0.20051 0.09744
 H113 H 0.94287 0.16082 0.05136
 H114 H 1.01559 0.11140 0.04358
 C115 C 0.62427 0.58995 0.58763
 C116 C 0.58318 0.61937 0.59019
 C117 C 0.60020 0.64273 0.61627
 C118 C 0.65994 0.63713 0.63883
 C119 C 0.70179 0.60799 0.63591
 C120 C 0.68368 0.58426 0.61032
 C121 C 0.72557 0.55513 0.60818
 C122 C 0.78393 0.54960 0.63065
 C123 C 0.80179 0.57282 0.65563
 C124 C 0.76137 0.60173 0.65835
 C125 C 0.55609 0.67116 0.61937
 C126 C 0.49717 0.67648 0.59717
 C127 C 0.48143 0.65398 0.57122
 C128 C 0.52400 0.62582 0.56753
 C129 C 0.67879 0.66159 0.66468
 C130 C 0.69434 0.68224 0.68579
 C131 C 0.60063 0.56448 0.56379
 C132 C 0.57524 0.54390 0.54478
 H133 H 0.71385 0.53642 0.58907
 H134 H 0.81551 0.52719 0.62864
 H135 H 0.84717 0.56841 0.67302
 H136 H 0.77719 0.61901 0.67826
 H137 H 0.56627 0.68944 0.63909
 H138 H 0.46367 0.69823 0.60008
 H139 H 0.43571 0.65824 0.55398
 H140 H 0.50954 0.60906 0.54694
 C141 C -0.12336 0.41972 0.09737
 C142 C -0.18771 0.40090 0.09140
 C143 C -0.20704 0.37497 0.11434
 C144 C -0.16157 0.36790 0.14299
 C145 C -0.09741 0.38688 0.14909
 C146 C -0.07885 0.41319 0.12651
 C147 C -0.01475 0.43200 0.13329
 C148 C 0.03067 0.42453 0.16108
 C149 C 0.01314 0.39846 0.18285
 C150 C -0.05029 0.37988 0.17716
 C151 C -0.27148 0.35636 0.10775
 C152 C -0.31549 0.36316 0.07925
 C153 C -0.29647 0.38849 0.05678
 C154 C -0.23333 0.40722 0.06266
 C155 C -0.18077 0.34122 0.16625
 C156 C -0.19641 0.31927 0.18589
 C157 C -0.09853 0.44349 0.07192
 C158 C -0.07267 0.46193 0.05077
 H159 H 0.00132 0.45248 0.11706
 H160 H 0.08001 0.43889 0.16559
 H161 H 0.04887 0.39260 0.20426
 H162 H -0.06162 0.35987 0.19483
 H163 H -0.28845 0.33637 0.12445
 H164 H -0.36458 0.34867 0.07458
 H165 H -0.33084 0.39367 0.03469
 H166 H -0.22088 0.42676 0.04456
 C167 C 0.37282 0.90426 0.57942
 C168 C 0.30866 0.90952 0.59915
 C169 C 0.28827 0.88660 0.62520
 C170 C 0.33248 0.85867 0.63147
 C171 C 0.39647 0.85330 0.61159
 C172 C 0.41613 0.87591 0.58516
 C173 C 0.48011 0.86992 0.56547
 C174 C 0.52434 0.84279 0.57223
 C175 C 0.50569 0.82094 0.59841
 C176 C 0.44236 0.82591 0.61783
 C177 C 0.22407 0.89248 0.64474
 C178 C 0.18130 0.92024 0.63874
 C179 C 0.20134 0.94268 0.61330
 C180 C 0.26427 0.93751 0.59365
 C181 C 0.31216 0.83539 0.65827
 C182 C 0.29567 0.81572 0.68025
 C183 C 0.39873 0.92942 0.55574
 C184 C 0.42542 0.95027 0.53743
 H185 H 0.49702 0.88624 0.54486
 H186 H 0.57361 0.83885 0.55722
 H187 H 0.54046 0.80002 0.60372
 H188 H 0.43015 0.80821 0.63791
 H189 H 0.20634 0.87578 0.66487
 H190 H 0.13237 0.92438 0.65394
 H191 H 0.16793 0.96420 0.60873
 H192 H 0.27755 0.95556 0.57405
 C193 C -0.12678 0.59575 -0.07860
 C194 C -0.08314 0.62423 -0.08436
 C195 C -0.10285 0.64688 -0.11064
 C196 C -0.16723 0.64142 -0.13034
 C197 C -0.21177 0.61336 -0.12403
 C198 C -0.19134 0.59040 -0.09814
 C199 C -0.23608 0.56229 -0.09260
 C200 C -0.29940 0.55704 -0.11206
 C201 C -0.31948 0.57951 -0.13735
 C202 C -0.27637 0.60739 -0.14339
 C203 C -0.05665 0.67441 -0.11692
 C204 C 0.00705 0.67947 -0.09768
 C205 C 0.02577 0.65757 -0.07164
 C206 C -0.01876 0.63032 -0.06484
 C207 C -0.18756 0.66472 -0.15701
 C208 C -0.20406 0.68439 -0.17891
 C209 C -0.10089 0.57056 -0.05510
 C210 C -0.07425 0.54970 -0.03697
 H211 H -0.22278 0.54420 -0.07311
 H212 H -0.33308 0.53542 -0.10746
 H213 H -0.36872 0.57531 -0.15240
 H214 H -0.29416 0.62413 -0.16339
 H215 H -0.06890 0.69216 -0.13689
 H216 H 0.04205 0.70051 -0.10301
 H217 H 0.07532 0.66159 -0.05676
 H218 H -0.00179 0.61396 -0.04435
 C219 C 0.37660 1.07950 0.40256
 C220 C 0.31262 1.09818 0.40863
 C221 C 0.29341 1.12400 0.38564
 C222 C 0.33863 1.13108 0.35685
 C223 C 0.40241 1.11222 0.35065
 C224 C 0.42084 1.08604 0.37328
 C225 C 0.48456 1.06735 0.36640
 C226 C 0.52974 1.07484 0.33846
 C227 C 0.51234 1.10079 0.31665
 C228 C 0.44927 1.11924 0.32243
 C229 C 0.22935 1.14247 0.39234
 C230 C 0.18559 1.13566 0.42097
 C231 C 0.20449 1.11045 0.44348
 C232 C 0.26726 1.09185 0.43751
 C233 C 0.31959 1.15767 0.33357
 C234 C 0.30403 1.17955 0.31395
 C235 C 0.40141 1.05590 0.42805
 C236 C 0.42725 1.03761 0.44923
 H237 H 0.50051 1.04697 0.38267
 H238 H 0.57880 1.06058 0.33388
 H239 H 0.54789 1.10667 0.29512
 H240 H 0.43802 1.13916 0.30471
 H241 H 0.21248 1.16237 0.37561
 H242 H 0.13678 1.15004 0.42572
 H243 H 0.17032 1.10525 0.46568
 H244 H 0.27964 1.07240 0.45565
 C245 C 1.12401 -0.09007 -0.08679
 C246 C 1.18385 -0.08430 -0.10928
 C247 C 1.20199 -0.10806 -0.13473
 C248 C 1.15974 -0.13731 -0.13771
 C249 C 1.09957 -0.14299 -0.11534
 C250 C 1.08251 -0.11960 -0.08940
 C251 C 1.02289 -0.12613 -0.06693
 C252 C 0.97996 -0.15441 -0.07069
 C253 C 0.99575 -0.17695 -0.09651
 C254 C 1.05508 -0.17155 -0.11851
 C255 C 1.26201 -0.10172 -0.15698
 C256 C 1.30282 -0.07270 -0.15421
 C257 C 1.28494 -0.04945 -0.12937
 C258 C 1.22615 -0.05505 -0.10709
 C259 C 1.17857 -0.16178 -0.16344
 C260 C 1.19410 -0.18242 -0.18447
 C261 C 1.10041 -0.06459 -0.06312
 C262 C 1.07510 -0.04400 -0.04425
 H263 H 1.00838 -0.10935 -0.04645
 H264 H 0.93391 -0.15874 -0.05359
 H265 H 0.96196 -0.19879 -0.09946
 H266 H 1.06529 -0.18986 -0.13814
 H267 H 1.27788 -0.11902 -0.17678
 H268 H 1.34853 -0.06822 -0.17146
 H269 H 1.31682 -0.02695 -0.12733
 H270 H 1.21443 -0.03632 -0.08809
 C271 C 0.63040 0.40894 0.41652
 C272 C 0.69082 0.41516 0.39451
 C273 C 0.71008 0.39176 0.36888
 C274 C 0.66836 0.36243 0.36525
 C275 C 0.60778 0.35624 0.38723
 C276 C 0.58960 0.37927 0.41335
 C277 C 0.52951 0.37226 0.43539
 C278 C 0.48721 0.34387 0.43104
 C279 C 0.50411 0.32168 0.40504
 C280 C 0.56392 0.32756 0.38346
 C281 C 0.77062 0.39857 0.34709
 C282 C 0.81086 0.42768 0.35049
 C283 C 0.79188 0.45058 0.37551
 C284 C 0.73255 0.44452 0.39734
 C285 C 0.68794 0.33845 0.33916
 C286 C 0.70384 0.31821 0.31779
 C287 C 0.60529 0.43415 0.44015
 C288 C 0.57856 0.45447 0.45888
 H289 H 0.51414 0.38875 0.45599
 H290 H 0.44079 0.33918 0.44781
 H291 H 0.47082 0.29975 0.40162
 H292 H 0.57500 0.30951 0.36367
 H293 H 0.78734 0.38155 0.32718
 H294 H 0.85698 0.43251 0.33359
 H295 H 0.82331 0.47315 0.37804
 H296 H 0.71997 0.46298 0.41652
 C297 C 0.86688 -0.08400 -0.09178
 C298 C 0.90749 -0.08813 -0.12262
 C299 C 0.88928 -0.11411 -0.14560
 C300 C 0.82878 -0.13503 -0.13831
 C301 C 0.78717 -0.13045 -0.10788
 C302 C 0.80653 -0.10493 -0.08446
 C303 C 0.76494 -0.10112 -0.05396
 C304 C 0.70565 -0.12188 -0.04681
 C305 C 0.68656 -0.14679 -0.06974
 C306 C 0.72667 -0.15114 -0.09997
 C307 C 0.93303 -0.11880 -0.17534
 C308 C 0.99271 -0.09821 -0.18231
 C309 C 1.00957 -0.07235 -0.16022
 C310 C 0.96741 -0.06715 -0.13079
 C311 C 0.80926 -0.16108 -0.16226
 C312 C 0.79347 -0.18248 -0.18249
 C313 C 0.89217 -0.06033 -0.06636
 C314 C 0.91908 -0.04154 -0.04586
 H315 H 0.77760 -0.08200 -0.03544
 H316 H 0.67431 -0.11861 -0.02337
 H317 H 0.64046 -0.16285 -0.06407
 H318 H 0.70987 -0.17091 -0.11696
 H319 H 0.92196 -0.13851 -0.19338
 H320 H 1.02593 -0.10231 -0.20502
 H321 H 1.05587 -0.05637 -0.16577
 H322 H 0.98274 -0.04670 -0.11442
 C323 C 0.37335 0.41343 0.40887
 C324 C 0.31302 0.39226 0.41549
 C325 C 0.29478 0.36696 0.39162
 C326 C 0.33746 0.36282 0.36144
 C327 C 0.39806 0.38391 0.35491
 C328 C 0.41517 0.40968 0.37834
 C329 C 0.47518 0.43086 0.37089
 C330 C 0.51847 0.42604 0.34175
 C331 C 0.50268 0.40039 0.31923
 C332 C 0.44294 0.37963 0.32547
 C333 C 0.23424 0.34606 0.39882
 C334 C 0.19301 0.34999 0.42878
 C335 C 0.21100 0.37468 0.45214
 C336 C 0.27030 0.39565 0.44571
 C337 C 0.31873 0.33713 0.33691
 C338 C 0.30335 0.31605 0.31625
 C339 C 0.39712 0.43704 0.43468
 C340 C 0.42258 0.45587 0.45556
 H341 H 0.48971 0.45115 0.38763
 H342 H 0.56481 0.44217 0.33676
 H343 H 0.53677 0.39660 0.29675
 H344 H 0.43273 0.36008 0.30713
 H345 H 0.21826 0.32644 0.38147
 H346 H 0.14690 0.33376 0.43390
 H347 H 0.17881 0.37763 0.47537
 H348 H 0.28209 0.41458 0.46455
 C349 C 0.12721 0.58300 -0.09511
 C350 C 0.08173 0.58893 -0.12407
 C351 C 0.09889 0.61506 -0.14712
 C352 C 0.16267 0.63448 -0.14169
 C353 C 0.20908 0.62805 -0.11320
 C354 C 0.19113 0.60229 -0.08978
 C355 C 0.23769 0.59661 -0.06122
 C356 C 0.30042 0.61579 -0.05598
 C357 C 0.31810 0.64093 -0.07891
 C358 C 0.27315 0.64711 -0.10724
 C359 C 0.05079 0.62145 -0.17498
 C360 C -0.01225 0.60244 -0.18003
 C361 C -0.02841 0.57654 -0.15783
 C362 C 0.01800 0.56966 -0.13023
 C363 C 0.18068 0.66090 -0.16552
 C364 C 0.19563 0.68260 -0.18560
 C365 C 0.10378 0.55937 -0.06921
 C366 C 0.07876 0.54101 -0.04773
 H367 H 0.22629 0.57724 -0.04278
 H368 H 0.33553 0.61109 -0.03403
 H369 H 0.36689 0.65576 -0.07473
 H370 H 0.28909 0.66698 -0.12431
 H371 H 0.06104 0.64131 -0.19298
 H372 H -0.04875 0.60784 -0.20130
 H373 H -0.07744 0.56183 -0.16185
 H374 H 0.00299 0.54928 -0.11364
 C375 C 0.63090 1.09358 0.41753
 C376 C 0.69452 1.08890 0.39725
 C377 C 0.71351 1.11226 0.37138
 C378 C 0.66845 1.14006 0.36582
 C379 C 0.60493 1.14482 0.38622
 C380 C 0.58669 1.12177 0.41247
 C381 C 0.52318 1.12720 0.43268
 C382 C 0.47805 1.15416 0.42660
 C383 C 0.49531 1.17643 0.40059
 C384 C 0.55815 1.17204 0.38067
 C385 C 0.77722 1.10695 0.35132
 C386 C 0.82085 1.07933 0.35661
 C387 C 0.80217 1.05647 0.38187
 C388 C 0.73975 1.06107 0.40203
 C389 C 0.68758 1.16389 0.33933
 C390 C 0.70341 1.18400 0.31766
 C391 C 0.60640 1.06801 0.44110
 C392 C 0.58055 1.04688 0.45934
 H393 H 0.50735 1.11054 0.45318
 H394 H 0.42916 1.15766 0.44200
 H395 H 0.45984 1.19723 0.39581
 H396 H 0.56928 1.19005 0.36076
 H397 H 0.79390 1.12400 0.33131
 H398 H 0.86939 1.07565 0.34102
 H399 H 0.83625 1.03507 0.38588
 H400 H 0.72755 1.04270 0.42145
 C401 C 0.13063 0.40637 0.08169
 C402 C 0.19461 0.41115 0.10180
 C403 C 0.21362 0.38776 0.12753
 C404 C 0.16822 0.35982 0.13313
 C405 C 0.10436 0.35496 0.11290
 C406 C 0.08609 0.37804 0.08678
 C407 C 0.02222 0.37251 0.06672
 C408 C -0.02322 0.34541 0.07285
 C409 C -0.00592 0.32310 0.09873
 C410 C 0.05726 0.32760 0.11848
 C411 C 0.27770 0.39317 0.14743
 C412 C 0.32168 0.42091 0.14209
 C413 C 0.30299 0.44379 0.11697
 C414 C 0.24020 0.43910 0.09698
 C415 C 0.18732 0.33599 0.15952
 C416 C 0.20311 0.31589 0.18113
 C417 C 0.10616 0.43196 0.05830
 C418 C 0.08037 0.45310 0.04022
 H419 H 0.00636 0.38919 0.04633
 H420 H -0.07237 0.34183 0.05757
 H421 H -0.04163 0.30220 0.10354
 H422 H 0.06840 0.30955 0.13830
 H423 H 0.29440 0.37610 0.16733
 H424 H 0.37050 0.42467 0.15755
 H425 H 0.33734 0.46530 0.11292
 H426 H 0.22800 0.45750 0.07765
 C427 C 0.62710 0.91771 0.59520
 C428 C 0.69062 0.89853 0.58977
 C429 C 0.70844 0.87290 0.61324
 C430 C 0.66229 0.86646 0.64188
 C431 C 0.59892 0.88577 0.64741
 C432 C 0.58190 0.91179 0.62431
 C433 C 0.51859 0.93095 0.63057
 C434 C 0.47242 0.92406 0.65832
 C435 C 0.48843 0.89827 0.68057
 C436 C 0.55109 0.87938 0.67543
 C437 C 0.77210 0.85395 0.60717
 C438 C 0.81679 0.86013 0.57871
 C439 C 0.79924 0.88516 0.55574
 C440 C 0.73690 0.90422 0.56107
 C441 C 0.68013 0.84013 0.66574
 C442 C 0.69499 0.81850 0.68581
 C443 C 0.60370 0.94119 0.56926
 C444 C 0.57870 0.95939 0.54776
 H445 H 0.50371 0.95123 0.61394
 H446 H 0.42369 0.93868 0.66241
 H447 H 0.45212 0.89287 0.70196
 H448 H 0.56124 0.85960 0.69347
 H449 H 0.78792 0.83417 0.62427
 H450 H 0.86528 0.84540 0.57445
 H451 H 0.83414 0.88986 0.53367
 H452 H 0.72559 0.92351 0.54259
 C453 C 0.87391 0.08662 0.09053
 C454 C 0.81393 0.10758 0.08367
 C455 C 0.79575 0.13292 0.10738
 C456 C 0.83815 0.13730 0.13766
 C457 C 0.89843 0.11643 0.14443
 C458 C 0.91547 0.09062 0.12115
 C459 C 0.97512 0.06965 0.12884
 C460 C 1.01817 0.07471 0.15807
 C461 C 1.00247 0.10041 0.18044
 C462 C 0.94305 0.12097 0.17395
 C463 C 0.73556 0.15362 0.09993
 C464 C 0.69463 0.14945 0.06988
 C465 C 0.71256 0.12473 0.04667
 C466 C 0.77152 0.10396 0.05335
 C467 C 0.81940 0.16300 0.16205
 C468 C 0.80399 0.18408 0.18262
 C469 C 0.89760 0.06294 0.06490
 C470 C 0.92297 0.04407 0.04418
 H471 H 0.98958 0.04933 0.11223
 H472 H 1.06426 0.05874 0.16325
 H473 H 1.03637 0.10439 0.20299
 H474 H 0.93289 0.14055 0.19219
 H475 H 0.71964 0.17326 0.11716
 H476 H 0.64879 0.16552 0.06457
 H477 H 0.68060 0.12160 0.02336
 H478 H 0.78327 0.08498 0.03461
 C479 C 0.36712 0.58326 0.59192
 C480 C 0.30718 0.60408 0.58450
 C481 C 0.28796 0.62948 0.60795
 C482 C 0.32930 0.63408 0.63851
 C483 C 0.38938 0.61328 0.64590
 C484 C 0.40744 0.58740 0.62288
 C485 C 0.46693 0.56654 0.63116
 C486 C 0.50884 0.57176 0.66072
 C487 C 0.49214 0.59752 0.68284
 C488 C 0.43286 0.61798 0.67577
 C489 C 0.22789 0.65005 0.59993
 C490 C 0.18805 0.64569 0.56958
 C491 C 0.20701 0.62090 0.54663
 C492 C 0.26588 0.60025 0.55387
 C493 C 0.30989 0.66001 0.66249
 C494 C 0.29415 0.68133 0.68271
 C495 C 0.39234 0.55974 0.56649
 C496 C 0.41917 0.54108 0.54599
 H497 H 0.48213 0.54617 0.61475
 H498 H 0.55482 0.55586 0.66634
 H499 H 0.52516 0.60162 0.70565
 H500 H 0.42190 0.63762 0.69384
 H501 H 0.21120 0.66974 0.61694
 H502 H 0.14228 0.66167 0.56384
 H503 H 0.17589 0.61762 0.52310
 H504 H 0.27845 0.58122 0.53533
   
