data_POSCAR
  _audit_creation_date              2014-09-24
  _audit_creation_method            'ToBaCCo'
  _symmetry_space_group_name_H-M    'P1'
  _symmetry_Int_Tables_number       1
  _symmetry_cell_setting            triclinic
  loop_
  _symmetry_equiv_pos_as_xyz
 x,y,z
_cell_length_a 34.5897
_cell_length_b 42.8989
_cell_length_c 35.2328
_cell_angle_alpha 90.248400
_cell_angle_beta 90.460600
_cell_angle_gamma 84.459700
loop_
  _atom_site_label
  _atom_site_type_symbol
  _atom_site_fract_x
  _atom_site_fract_y
  _atom_site_fract_z
C1 C 1.22732 0.22780 0.19651
 C2 C 1.25186 0.24912 0.17381
 C3 C 1.27215 0.26831 0.19575
 C4 C 1.26625 0.26423 0.23873
 C5 C 1.25584 0.21035 0.22420
 C6 C 1.27606 0.22918 0.24616
 C7 C 1.20180 0.25089 0.22129
 C8 C 1.22196 0.26971 0.24368
 H9 H 1.25141 0.25047 0.14320
 H10 H 1.28283 0.27954 0.25685
 H11 H 1.25899 0.18507 0.22692
 H12 H 1.17040 0.25207 0.22117
 C13 C 0.73346 -0.27479 0.19346
 C14 C 0.75826 -0.25392 0.17037
 C15 C 0.77798 -0.23412 0.19198
 C16 C 0.77150 -0.23730 0.23498
 C17 C 0.76161 -0.29152 0.22207
 C18 C 0.78133 -0.27211 0.24370
 C19 C 0.70746 -0.25127 0.21717
 C20 C 0.72716 -0.23194 0.23923
 H21 H 0.75805 -0.25295 0.13975
 H22 H 0.78766 -0.22151 0.25284
 H23 H 0.76440 -0.31668 0.22606
 H24 H 0.67608 -0.25050 0.21700
 C25 C 0.72857 0.22786 -0.30824
 C26 C 0.74841 0.25136 -0.32828
 C27 C 0.76898 0.27127 -0.30355
 C28 C 0.76501 0.26345 -0.26296
 C29 C 0.75860 0.21102 -0.28537
 C30 C 0.77854 0.23009 -0.26010
 C31 C 0.70346 0.24627 -0.28180
 C32 C 0.72284 0.26611 -0.25668
 H33 H 0.74851 0.25353 -0.35871
 H34 H 0.78070 0.27815 -0.24353
 H35 H 0.76426 0.18568 -0.28605
 H36 H 0.67240 0.24486 -0.28145
 C37 C 1.23278 -0.27262 -0.30231
 C38 C 1.25739 -0.25159 -0.32540
 C39 C 1.27711 -0.23181 -0.30376
 C40 C 1.27068 -0.23501 -0.26077
 C41 C 1.26118 -0.28929 -0.27388
 C42 C 1.28083 -0.26982 -0.25228
 C43 C 1.20674 -0.24927 -0.27847
 C44 C 1.22633 -0.22985 -0.25645
 H45 H 1.25756 -0.25079 -0.35602
 H46 H 1.28677 -0.21917 -0.24290
 H47 H 1.26469 -0.31451 -0.27046
 H48 H 1.17537 -0.24867 -0.27859
 C49 C 0.23058 0.22208 0.80085
 C50 C 0.25408 0.24063 0.82497
 C51 C 0.27548 0.26249 0.80482
 C52 C 0.26938 0.26105 0.76353
 C53 C 0.20495 0.24669 0.77818
 C54 C 0.22499 0.26694 0.75837
 C55 C 0.25875 0.20641 0.77174
 C56 C 0.27893 0.22656 0.75219
 H57 H 0.25429 0.23909 0.85546
 H58 H 0.28499 0.27732 0.74638
 H59 H 0.17352 0.24801 0.77808
 H60 H 0.26156 0.18142 0.76617
 C61 C 0.72077 0.72565 0.80591
 C62 C 0.73722 0.75056 0.82673
 C63 C 0.75909 0.77031 0.80387
 C64 C 0.75942 0.76103 0.76339
 C65 C 0.69795 0.74107 0.77517
 C66 C 0.71815 0.76182 0.75249
 C67 C 0.75340 0.70875 0.78661
 C68 C 0.77470 0.72780 0.76270
 H69 H 0.73605 0.75193 0.85740
 H70 H 0.77624 0.77570 0.74543
 H71 H 0.67072 0.73326 0.76552
 H72 H 0.75740 0.68338 0.78527
 C73 C 0.72951 0.22496 0.30344
 C74 C 0.75588 0.24377 0.32825
 C75 C 0.77598 0.26409 0.30827
 C76 C 0.76828 0.26342 0.26509
 C77 C 0.70395 0.25031 0.28194
 C78 C 0.72397 0.27017 0.26157
 C79 C 0.75638 0.20913 0.27335
 C80 C 0.77642 0.22902 0.25331
 H81 H 0.75652 0.24313 0.35889
 H82 H 0.78458 0.27967 0.24846
 H83 H 0.67250 0.25190 0.28229
 H84 H 0.75834 0.18420 0.26749
 C85 C 0.22656 0.72359 0.29871
 C86 C 0.25149 0.74368 0.32336
 C87 C 0.27078 0.76449 0.30333
 C88 C 0.26382 0.76296 0.26007
 C89 C 0.20013 0.74791 0.27637
 C90 C 0.21935 0.76832 0.25590
 C91 C 0.25448 0.70817 0.26930
 C92 C 0.27384 0.72848 0.24917
 H93 H 0.25153 0.74349 0.35401
 H94 H 0.27961 0.77954 0.24342
 H95 H 0.16874 0.74877 0.27675
 H96 H 0.25804 0.68311 0.26427
 N97 N 1.06526 0.02414 0.03654
 N98 N 1.09186 0.04405 0.04006
 N99 N 1.03161 -0.03530 0.06676
 N100 N 1.03817 -0.05497 0.09526
 N101 N 1.05851 -0.04051 0.04081
 N102 N 1.08415 -0.06384 0.05110
 N103 N 1.03864 0.02925 0.06271
 N104 N 1.04647 0.05268 0.08496
 C105 C 1.07974 0.06172 0.07040
 C106 C 1.07074 -0.07294 0.08494
 N107 N 0.92115 -0.02024 0.03957
 N108 N 0.89587 -0.04099 0.04490
 N109 N 0.95564 0.04169 0.06208
 N110 N 0.95204 0.06544 0.08606
 N111 N 0.92814 0.04464 0.03609
 N112 N 0.90482 0.07046 0.04199
 N113 N 0.94834 -0.02297 0.06590
 N114 N 0.94232 -0.04554 0.08980
 Mn115 Mn 0.99348 0.00318 0.06472
 C116 C 0.90941 -0.05653 0.07651
 C117 C 0.92042 0.08337 0.07308
 N118 N 1.05800 -0.04398 -0.04107
 N119 N 1.08436 -0.06736 -0.04909
 N120 N 1.03805 0.02353 -0.07124
 N121 N 1.04538 0.04558 -0.09548
 N122 N 1.06484 0.02058 -0.04457
 N123 N 1.09095 0.04056 -0.04975
 N124 N 1.03102 -0.04109 -0.06764
 N125 N 1.03842 -0.06243 -0.09434
 Mn126 Mn 1.06199 -0.01006 -0.00209
 C127 C 1.07143 -0.07898 -0.08209
 C128 C 1.07853 0.05598 -0.08165
 N129 N 0.92801 0.04147 -0.04597
 N130 N 0.90602 0.06769 -0.05377
 N131 N 0.94729 -0.02884 -0.06843
 N132 N 0.93851 -0.05135 -0.09179
 N133 N 0.92046 -0.02355 -0.04240
 N134 N 0.89286 -0.04246 -0.04726
 N135 N 0.95476 0.03578 -0.07199
 N136 N 0.95161 0.05769 -0.09818
 Mn137 Mn 0.92389 0.01068 -0.00318
 Mn138 Mn 0.99274 -0.00272 -0.07021
 Cl139 Cl 0.99298 0.00018 -0.00271
 C140 C 0.92131 0.07759 -0.08646
 C141 C 0.90448 -0.05977 -0.07815
 N142 N 1.06845 0.52327 0.54345
 N143 N 1.09437 0.54367 0.54682
 N144 N 1.03565 0.46281 0.57127
 N145 N 1.04268 0.44258 0.59908
 N146 N 1.06255 0.45856 0.54515
 N147 N 1.08869 0.43534 0.55474
 N148 N 1.04211 0.52755 0.57003
 N149 N 1.04961 0.55096 0.59252
 C150 C 1.08234 0.56076 0.57756
 C151 C 1.07552 0.42528 0.58824
 N152 N 0.92487 0.47795 0.54545
 N153 N 0.89849 0.45820 0.55116
 N154 N 0.95873 0.53921 0.57065
 N155 N 0.95401 0.56105 0.59702
 N156 N 0.93120 0.54320 0.54473
 N157 N 0.90709 0.56822 0.55287
 N158 N 0.95220 0.47450 0.57159
 N159 N 0.94506 0.45245 0.59587
 Mn160 Mn 0.99716 0.50101 0.57123
 C161 C 0.91146 0.44243 0.58277
 C162 C 0.92206 0.57927 0.58549
 N163 N 1.06157 0.45754 0.46309
 N164 N 1.08768 0.43422 0.45417
 N165 N 1.04045 0.52589 0.43615
 N166 N 1.04752 0.54799 0.41199
 N167 N 1.06770 0.52242 0.46229
 N168 N 1.09404 0.54224 0.45677
 N169 N 1.03437 0.46116 0.43682
 N170 N 1.04132 0.44038 0.40940
 Mn171 Mn 1.06543 0.49032 0.50351
 C172 C 1.07434 0.42340 0.42086
 C173 C 1.08102 0.55805 0.42524
 N174 N 0.93031 0.54194 0.46239
 N175 N 0.90746 0.56785 0.45552
 N176 N 0.95105 0.47291 0.43727
 N177 N 0.94474 0.44951 0.41444
 N178 N 0.92410 0.47675 0.46337
 N179 N 0.89867 0.45584 0.45892
 N180 N 0.95741 0.53772 0.43649
 N181 N 0.95397 0.56065 0.41156
 Mn182 Mn 0.92703 0.51006 0.50396
 Mn183 Mn 0.99573 0.49942 0.43635
 Cl184 Cl 0.99629 0.50014 0.50379
 C185 C 0.92285 0.57939 0.42381
 C186 C 0.91196 0.43905 0.42812
 N187 N 0.57158 0.02175 0.53573
 N188 N 0.59702 0.04266 0.53833
 N189 N 0.53957 -0.03888 0.56490
 N190 N 0.54579 -0.06013 0.59174
 N191 N 0.56625 -0.04307 0.53859
 N192 N 0.59164 -0.06709 0.54710
 N193 N 0.54556 0.02598 0.56260
 N194 N 0.55278 0.04977 0.58453
 C195 C 0.58497 0.05992 0.56897
 C196 C 0.57815 -0.07775 0.58013
 N197 N 0.42861 -0.02434 0.54017
 N198 N 0.40293 -0.04463 0.54605
 N199 N 0.46228 0.03753 0.56387
 N200 N 0.45861 0.06085 0.58850
 N201 N 0.43440 0.04068 0.53825
 N202 N 0.41086 0.06621 0.54499
 N203 N 0.45624 -0.02739 0.56603
 N204 N 0.45013 -0.04978 0.59018
 Mn205 Mn 0.50090 -0.00069 0.56476
 C206 C 0.41672 -0.06032 0.57741
 C207 C 0.42658 0.07873 0.57627
 N208 N 0.56401 -0.04498 0.45667
 N209 N 0.59009 -0.06838 0.44805
 N210 N 0.54230 0.02303 0.42874
 N211 N 0.54831 0.04607 0.40544
 N212 N 0.56967 0.01978 0.45481
 N213 N 0.59490 0.04055 0.45017
 N214 N 0.53659 -0.04179 0.43058
 N215 N 0.54336 -0.06295 0.40357
 Mn216 Mn 0.56824 -0.01176 0.49644
 C217 C 0.57652 -0.07968 0.41513
 C218 C 0.58129 0.05673 0.41922
 N219 N 0.43249 0.03884 0.45614
 N220 N 0.40943 0.06466 0.44941
 N221 N 0.45297 -0.03053 0.43167
 N222 N 0.44511 -0.05355 0.40872
 N223 N 0.42662 -0.02620 0.45829
 N224 N 0.40018 -0.04621 0.45419
 N225 N 0.45902 0.03444 0.42972
 N226 N 0.45492 0.05716 0.40449
 Mn227 Mn 0.43001 0.00733 0.49821
 Mn228 Mn 0.49767 -0.00374 0.42975
 Cl229 Cl 0.49915 -0.00229 0.49729
 C230 C 0.42400 0.07596 0.41716
 C231 C 0.41206 -0.06316 0.42313
 N232 N 0.56956 0.52063 0.03899
 N233 N 0.59593 0.54067 0.04244
 N234 N 0.53587 0.46107 0.06767
 N235 N 0.54251 0.44127 0.09595
 N236 N 0.56272 0.45607 0.04160
 N237 N 0.58852 0.43280 0.05177
 N238 N 0.54289 0.52562 0.06517
 N239 N 0.55060 0.54910 0.08743
 C240 C 0.58379 0.55825 0.07278
 C241 C 0.57510 0.42348 0.08550
 N242 N 0.42567 0.47585 0.04112
 N243 N 0.39980 0.45565 0.04670
 N244 N 0.45948 0.53784 0.06511
 N245 N 0.45559 0.56132 0.08953
 N246 N 0.43188 0.54086 0.03923
 N247 N 0.40835 0.56648 0.04548
 N248 N 0.45278 0.47297 0.06750
 N249 N 0.44616 0.45072 0.09167
 Mn250 Mn 0.49773 0.49944 0.06674
 C251 C 0.41296 0.44012 0.07842
 C252 C 0.42374 0.57918 0.07681
 N253 N 0.56238 0.45426 -0.04069
 N254 N 0.58816 0.43059 -0.04933
 N255 N 0.54187 0.52302 -0.06794
 N256 N 0.54784 0.54702 -0.08980
 N257 N 0.56932 0.51871 -0.04205
 N258 N 0.59489 0.53936 -0.04576
 N259 N 0.53522 0.45797 -0.06700
 N260 N 0.54153 0.43669 -0.09389
 Mn261 Mn 0.56634 0.48722 -0.00053
 C262 C 0.57435 0.41951 -0.08231
 C263 C 0.58124 0.55680 -0.07571
 N264 N 0.43144 0.53900 -0.04261
 N265 N 0.40915 0.56526 -0.04901
 N266 N 0.45180 0.46987 -0.06730
 N267 N 0.44467 0.44657 -0.09014
 N268 N 0.42520 0.47391 -0.04088
 N269 N 0.39937 0.45336 -0.04495
 N270 N 0.45857 0.53475 -0.06846
 N271 N 0.45560 0.55796 -0.09303
 Mn272 Mn 0.42802 0.50744 -0.00081
 Mn273 Mn 0.49684 0.49642 -0.06811
 Cl274 Cl 0.49719 0.49754 -0.00069
 C275 C 0.42475 0.57692 -0.08051
 C276 C 0.41182 0.43647 -0.07589
 C277 C 1.16433 0.15927 0.13623
 C278 C 1.15368 0.16926 0.17331
 C279 C 1.17417 0.19142 0.19208
 C280 C 1.20456 0.20508 0.17420
 C281 C 1.21531 0.19481 0.13749
 C282 C 1.19538 0.17243 0.11866
 C283 C 1.14251 0.13464 0.11777
 C284 C 1.15193 0.12192 0.08166
 C285 C 1.13136 0.09837 0.06625
 C286 C 1.10071 0.08718 0.08623
 C287 C 1.09068 0.09995 0.12186
 C288 C 1.11154 0.12323 0.13791
 C289 C 1.12281 0.15698 0.19169
 C290 C 1.10197 0.13465 0.17424
 H291 H 1.11457 0.16478 0.22005
 H292 H 1.07831 0.12588 0.18966
 H293 H 1.16664 0.19779 0.22108
 H294 H 1.23983 0.20327 0.12334
 H295 H 1.13950 0.08888 0.03859
 H296 H 1.06712 0.09128 0.13756
 H297 H 1.20505 0.16557 0.09057
 H298 H 1.17526 0.12953 0.06501
 C299 C 1.16801 0.65863 0.64023
 C300 C 1.16049 0.66719 0.67842
 C301 C 1.18183 0.68925 0.69623
 C302 C 1.20997 0.70415 0.67642
 C303 C 1.21749 0.69546 0.63850
 C304 C 1.19673 0.67315 0.62060
 C305 C 1.14546 0.63411 0.62268
 C306 C 1.15217 0.62271 0.58553
 C307 C 1.13129 0.59911 0.57095
 C308 C 1.10293 0.58656 0.59280
 C309 C 1.09539 0.59807 0.62950
 C310 C 1.11675 0.62139 0.64475
 C311 C 1.13179 0.65368 0.69876
 C312 C 1.11013 0.63147 0.68216
 H313 H 1.12593 0.66042 0.72799
 H314 H 1.08824 0.62169 0.69908
 H315 H 1.17658 0.69484 0.72590
 H316 H 1.23994 0.70511 0.62249
 H317 H 1.13746 0.59061 0.54243
 H318 H 1.07365 0.58826 0.64659
 H319 H 1.20386 0.66754 0.59148
 H320 H 1.17371 0.63131 0.56740
 C321 C 0.66702 0.15965 0.63252
 C322 C 0.66253 0.16497 0.67185
 C323 C 0.68332 0.18697 0.69018
 C324 C 0.70736 0.20593 0.67010
 C325 C 0.71155 0.20058 0.63071
 C326 C 0.69164 0.17787 0.61227
 C327 C 0.64556 0.13459 0.61454
 C328 C 0.65060 0.12519 0.57636
 C329 C 0.63076 0.10098 0.56148
 C330 C 0.60502 0.08604 0.58410
 C331 C 0.59937 0.09544 0.62183
 C332 C 0.61995 0.11901 0.63739
 C333 C 0.63721 0.14841 0.69295
 C334 C 0.61584 0.12631 0.67593
 H335 H 0.63360 0.15280 0.72310
 H336 H 0.59642 0.11424 0.69343
 H337 H 0.68071 0.18943 0.72075
 H338 H 0.73078 0.21300 0.61371
 H339 H 0.63551 0.09395 0.53218
 H340 H 0.57989 0.08363 0.63955
 H341 H 0.69599 0.17491 0.58214
 H342 H 0.67018 0.13580 0.55779
 C343 C 0.66937 0.65616 0.13570
 C344 C 0.66068 0.66549 0.17344
 C345 C 0.68176 0.68767 0.19137
 C346 C 0.71072 0.70199 0.17205
 C347 C 0.71941 0.69252 0.13461
 C348 C 0.69894 0.67007 0.11661
 C349 C 0.64706 0.63150 0.11808
 C350 C 0.65488 0.61929 0.08146
 C351 C 0.63405 0.59568 0.06680
 C352 C 0.60466 0.58391 0.08804
 C353 C 0.59613 0.59618 0.12422
 C354 C 0.61739 0.61951 0.13956
 C355 C 0.63111 0.65263 0.19322
 C356 C 0.60966 0.63034 0.17650
 H357 H 0.62436 0.65997 0.22209
 H358 H 0.58703 0.62111 0.19297
 H359 H 0.67568 0.69375 0.22077
 H360 H 0.74262 0.70165 0.11913
 H361 H 0.64102 0.58656 0.03869
 H362 H 0.57359 0.58698 0.14087
 H363 H 0.70698 0.66384 0.08787
 H364 H 0.67723 0.62730 0.06383
 C365 C 0.83815 -0.15973 0.14499
 C366 C 0.80422 -0.16893 0.12717
 C367 C 0.78507 -0.19334 0.14242
 C368 C 0.79914 -0.20904 0.17537
 C369 C 0.83274 -0.19997 0.19299
 C370 C 0.85211 -0.17571 0.17803
 C371 C 0.85741 -0.13324 0.12793
 C372 C 0.89119 -0.12216 0.14347
 C373 C 0.90784 -0.09730 0.12667
 C374 C 0.89136 -0.08279 0.09398
 C375 C 0.85782 -0.09365 0.07815
 C376 C 0.84079 -0.11865 0.09482
 C377 C 0.78934 -0.15359 0.09440
 C378 C 0.80724 -0.12903 0.07857
 H379 H 0.76336 -0.16066 0.08077
 H380 H 0.79453 -0.11792 0.05322
 H381 H 0.75858 -0.19959 0.12899
 H382 H 0.84434 -0.21187 0.21826
 H383 H 0.93380 -0.08940 0.13942
 H384 H 0.84492 -0.08264 0.05281
 H385 H 0.87784 -0.16985 0.19284
 H386 H 0.90523 -0.13228 0.16857
 C387 C 0.83143 0.34447 0.65293
 C388 C 0.80063 0.33327 0.63195
 C389 C 0.78026 0.30930 0.64661
 C390 C 0.78949 0.29596 0.68249
 C391 C 0.81964 0.30785 0.70357
 C392 C 0.84033 0.33157 0.68903
 C393 C 0.85293 0.36972 0.63571
 C394 C 0.88515 0.38164 0.65340
 C395 C 0.90413 0.40510 0.63608
 C396 C 0.89141 0.41744 0.60084
 C397 C 0.85952 0.40567 0.58289
 C398 C 0.84047 0.38186 0.59983
 C399 C 0.78997 0.34615 0.59646
 C400 C 0.80928 0.37003 0.58088
 H401 H 0.76621 0.33768 0.58044
 H402 H 0.79981 0.37922 0.55337
 H403 H 0.75609 0.30212 0.63017
 H404 H 0.82892 0.29810 0.73075
 H405 H 0.92878 0.41372 0.65047
 H406 H 0.84967 0.41484 0.55548
 H407 H 0.86333 0.33931 0.70648
 H408 H 0.89629 0.37308 0.68047
 C409 C 0.34063 -0.15985 0.64832
 C410 C 0.30613 -0.16816 0.63074
 C411 C 0.28578 -0.19167 0.64643
 C412 C 0.29917 -0.20732 0.67961
 C413 C 0.33320 -0.19903 0.69714
 C414 C 0.35379 -0.17567 0.68174
 C415 C 0.36133 -0.13443 0.63061
 C416 C 0.39595 -0.12441 0.64567
 C417 C 0.41387 -0.10046 0.62827
 C418 C 0.39780 -0.08586 0.59546
 C419 C 0.36354 -0.09576 0.58006
 C420 C 0.34527 -0.11982 0.59730
 C421 C 0.29191 -0.15286 0.59771
 C422 C 0.31103 -0.12922 0.58138
 H423 H 0.26547 -0.15924 0.58429
 H424 H 0.29877 -0.11808 0.55586
 H425 H 0.25898 -0.19732 0.63309
 H426 H 0.34426 -0.21093 0.72261
 H427 H 0.44040 -0.09329 0.64064
 H428 H 0.35096 -0.08468 0.55462
 H429 H 0.37983 -0.17038 0.69644
 H430 H 0.40967 -0.13469 0.67084
 C431 C 0.33594 0.34064 0.14870
 C432 C 0.30137 0.33257 0.13104
 C433 C 0.28089 0.30902 0.14650
 C434 C 0.29425 0.29300 0.17948
 C435 C 0.32839 0.30105 0.19705
 C436 C 0.34907 0.32450 0.18191
 C437 C 0.35680 0.36611 0.13121
 C438 C 0.39139 0.37603 0.14648
 C439 C 0.40950 0.39997 0.12922
 C440 C 0.39371 0.41465 0.09634
 C441 C 0.35942 0.40489 0.08079
 C442 C 0.34092 0.38087 0.09791
 C443 C 0.28727 0.34808 0.09810
 C444 C 0.30662 0.37167 0.08189
 H445 H 0.26079 0.34188 0.08460
 H446 H 0.29447 0.38293 0.05641
 H447 H 0.25403 0.30360 0.13310
 H448 H 0.33950 0.28889 0.22232
 H449 H 0.43600 0.40704 0.14176
 H450 H 0.34701 0.41605 0.05533
 H451 H 0.37520 0.32956 0.19662
 H452 H 0.40492 0.36570 0.17170
 C453 C 0.85153 0.17787 -0.18237
 C454 C 0.85457 0.17189 -0.22176
 C455 C 0.83183 0.19058 -0.24739
 C456 C 0.80697 0.21635 -0.23495
 C457 C 0.80807 0.22496 -0.19647
 C458 C 0.82953 0.20552 -0.17023
 C459 C 0.87112 0.15390 -0.15574
 C460 C 0.86391 0.15377 -0.11636
 C461 C 0.88032 0.12915 -0.09347
 C462 C 0.90500 0.10468 -0.10923
 C463 C 0.91315 0.10519 -0.14808
 C464 C 0.89553 0.12880 -0.17149
 C465 C 0.87947 0.14679 -0.23544
 C466 C 0.90041 0.12622 -0.21079
 H467 H 0.88251 0.14278 -0.26571
 H468 H 0.91908 0.10699 -0.22278
 H469 H 0.83302 0.18469 -0.27738
 H470 H 0.78965 0.24491 -0.18601
 H471 H 0.87357 0.12915 -0.06351
 H472 H 0.93163 0.08609 -0.16065
 H473 H 0.82788 0.21196 -0.14058
 H474 H 0.84461 0.17184 -0.10315
 C475 C 0.85041 0.67892 0.32921
 C476 C 0.81041 0.68763 0.33538
 C477 C 0.78855 0.70602 0.30852
 C478 C 0.80596 0.71571 0.27543
 C479 C 0.84589 0.70895 0.27037
 C480 C 0.86807 0.69089 0.29707
 C481 C 0.87143 0.65577 0.35584
 C482 C 0.91012 0.64324 0.35010
 C483 C 0.92703 0.61922 0.37314
 C484 C 0.90611 0.60731 0.40280
 C485 C 0.86835 0.62075 0.41019
 C486 C 0.85067 0.64446 0.38660
 C487 C 0.79204 0.67669 0.36729
 C488 C 0.81182 0.65574 0.39250
 H489 H 0.76156 0.68374 0.37227
 H490 H 0.79600 0.64732 0.41620
 H491 H 0.75749 0.71130 0.31216
 H492 H 0.85954 0.71630 0.24477
 H493 H 0.95639 0.60942 0.36711
 H494 H 0.85195 0.61163 0.43304
 H495 H 0.89856 0.68567 0.29127
 H496 H 0.92745 0.65089 0.32727
 C497 C 0.34902 0.17714 0.32626
 C498 C 0.31015 0.18758 0.33564
 C499 C 0.28727 0.20704 0.31054
 C500 C 0.30251 0.21604 0.27604
 C501 C 0.34148 0.20737 0.26769
 C502 C 0.36469 0.18830 0.29261
 C503 C 0.37082 0.15319 0.35138
 C504 C 0.40834 0.13928 0.34283
 C505 C 0.42586 0.11487 0.36496
 C506 C 0.40673 0.10388 0.39642
 C507 C 0.37020 0.11855 0.40636
 C508 C 0.35193 0.14274 0.38384
 C509 C 0.29376 0.17733 0.36902
 C510 C 0.31428 0.15553 0.39272
 H511 H 0.26418 0.18564 0.37642
 H512 H 0.29992 0.14777 0.41771
 H513 H 0.25690 0.21366 0.31669
 H514 H 0.35341 0.21407 0.24092
 H515 H 0.45425 0.10413 0.35690
 H516 H 0.35519 0.11021 0.43065
 H517 H 0.39428 0.18168 0.28429
 H518 H 0.42425 0.14624 0.31860
 C519 C 0.35283 0.67951 -0.17064
 C520 C 0.31385 0.69004 -0.16179
 C521 C 0.29132 0.70928 -0.18734
 C522 C 0.30699 0.71787 -0.22180
 C523 C 0.34610 0.70926 -0.22957
 C524 C 0.36900 0.69048 -0.20415
 C525 C 0.37411 0.65545 -0.14534
 C526 C 0.41164 0.64136 -0.15348
 C527 C 0.42844 0.61657 -0.13155
 C528 C 0.40854 0.60540 -0.10071
 C529 C 0.37214 0.62039 -0.09096
 C530 C 0.35459 0.64496 -0.11330
 C531 C 0.29694 0.67992 -0.12863
 C532 C 0.31695 0.65799 -0.10478
 H533 H 0.26729 0.68834 -0.12162
 H534 H 0.30215 0.65021 -0.08006
 H535 H 0.26084 0.71588 -0.18168
 H536 H 0.35834 0.71569 -0.25631
 H537 H 0.45681 0.60562 -0.13936
 H538 H 0.35660 0.61195 -0.06707
 H539 H 0.39870 0.68380 -0.21206
 H540 H 0.42806 0.64842 -0.17731
 C541 C 1.16414 -0.16606 -0.17872
 C542 C 1.14899 -0.17120 -0.21541
 C543 C 1.17007 -0.19122 -0.24089
 C544 C 1.20611 -0.20670 -0.23045
 C545 C 1.22161 -0.20114 -0.19450
 C546 C 1.20095 -0.18105 -0.16887
 C547 C 1.14023 -0.14483 -0.15216
 C548 C 1.15236 -0.13822 -0.11493
 C549 C 1.12945 -0.11751 -0.09179
 C550 C 1.09389 -0.10303 -0.10510
 C551 C 1.08102 -0.11014 -0.14163
 C552 C 1.10387 -0.13069 -0.16522
 C553 C 1.11275 -0.15659 -0.22647
 C554 C 1.09068 -0.13675 -0.20192
 H555 H 1.10122 -0.16057 -0.25459
 H556 H 1.06285 -0.12591 -0.21187
 H557 H 1.15823 -0.19487 -0.26897
 H558 H 1.24923 -0.21307 -0.18570
 H559 H 1.13994 -0.11241 -0.06361
 H560 H 1.05352 -0.09907 -0.15214
 H561 H 1.21412 -0.17791 -0.14145
 H562 H 1.17955 -0.14847 -0.10326
 C563 C 1.16272 0.33443 0.32266
 C564 C 1.14657 0.32944 0.28635
 C565 C 1.16652 0.30892 0.26055
 C566 C 1.20246 0.29286 0.27026
 C567 C 1.21883 0.29816 0.30592
 C568 C 1.19929 0.31867 0.33186
 C569 C 1.14009 0.35635 0.34950
 C570 C 1.15331 0.36294 0.38637
 C571 C 1.13150 0.38416 0.40985
 C572 C 1.09598 0.39923 0.39725
 C573 C 1.08212 0.39229 0.36101
 C574 C 1.10385 0.37118 0.33710
 C575 C 1.11051 0.34477 0.27595
 C576 C 1.08961 0.36520 0.30077
 H577 H 1.09819 0.34091 0.24813
 H578 H 1.06187 0.37655 0.29131
 H579 H 1.15396 0.30550 0.23273
 H580 H 1.24634 0.28578 0.31423
 H581 H 1.14277 0.38911 0.43777
 H582 H 1.05465 0.40380 0.35102
 H583 H 1.21314 0.32161 0.35899
 H584 H 1.18050 0.35223 0.39752
 C585 C 0.66636 -0.16791 0.31764
 C586 C 0.65064 -0.17298 0.28116
 C587 C 0.67115 -0.19320 0.25547
 C588 C 0.70721 -0.20888 0.26550
 C589 C 0.72316 -0.20349 0.30130
 C590 C 0.70307 -0.18325 0.32712
 C591 C 0.64317 -0.14636 0.34437
 C592 C 0.65597 -0.13979 0.38138
 C593 C 0.63377 -0.11876 0.40471
 C594 C 0.59826 -0.10391 0.39181
 C595 C 0.58470 -0.11094 0.35550
 C596 C 0.60685 -0.13184 0.33172
 C597 C 0.61445 -0.15802 0.27051
 C598 C 0.59303 -0.13787 0.29524
 H599 H 0.60247 -0.16195 0.24257
 H600 H 0.56523 -0.12676 0.28560
 H601 H 0.65893 -0.19677 0.22754
 H602 H 0.75075 -0.21562 0.30984
 H603 H 0.64477 -0.11374 0.43272
 H604 H 0.55722 -0.09959 0.34532
 H605 H 0.71664 -0.18023 0.35437
 H606 H 0.68315 -0.15031 0.39275
 C607 C 0.65738 0.32943 -0.18241
 C608 C 0.69722 0.32092 -0.17485
 C609 C 0.71926 0.30041 -0.19962
 C610 C 0.70197 0.28772 -0.23188
 C611 C 0.66245 0.29724 -0.23926
 C612 C 0.64068 0.31755 -0.21515
 C613 C 0.63474 0.35125 -0.15565
 C614 C 0.59493 0.36084 -0.16101
 C615 C 0.57545 0.38234 -0.13647
 C616 C 0.59483 0.39462 -0.10565
 C617 C 0.63409 0.38437 -0.09901
 C618 C 0.65423 0.36293 -0.12394
 C619 C 0.71472 0.33292 -0.14260
 C620 C 0.69373 0.35353 -0.11777
 H621 H 0.74521 0.32646 -0.13658
 H622 H 0.70872 0.36236 -0.09345
 H623 H 0.74936 0.29370 -0.19255
 H624 H 0.64790 0.29025 -0.26469
 H625 H 0.54507 0.38968 -0.14194
 H626 H 0.64928 0.39379 -0.07518
 H627 H 0.61083 0.32381 -0.22316
 H628 H 0.57821 0.35240 -0.18414
 C629 C 1.16233 0.15185 -0.15025
 C630 C 1.19201 0.16383 -0.12825
 C631 C 1.21400 0.18669 -0.14339
 C632 C 1.20697 0.19800 -0.18055
 C633 C 1.17872 0.18467 -0.20266
 C634 C 1.15652 0.16231 -0.18779
 C635 C 1.13929 0.12772 -0.13302
 C636 C 1.10773 0.11571 -0.15182
 C637 C 1.08779 0.09268 -0.13492
 C638 C 1.09882 0.08103 -0.09898
 C639 C 1.12959 0.09333 -0.07962
 C640 C 1.14960 0.11671 -0.09617
 C641 C 1.20012 0.15244 -0.09154
 C642 C 1.17965 0.12916 -0.07601
 H643 H 1.22297 0.16140 -0.07468
 H644 H 1.18736 0.12089 -0.04766
 H645 H 1.23713 0.19472 -0.12627
 H646 H 1.17384 0.19155 -0.23198
 H647 H 1.06389 0.08376 -0.15023
 H648 H 1.13792 0.08479 -0.05151
 H649 H 1.13544 0.15318 -0.20645
 H650 H 1.09784 0.12380 -0.17949
 C651 C 1.16178 0.65319 0.35150
 C652 C 1.19206 0.66573 0.37203
 C653 C 1.21288 0.68872 0.35551
 C654 C 1.20415 0.69945 0.31841
 C655 C 1.17545 0.68553 0.29766
 C656 C 1.15434 0.66307 0.31392
 C657 C 1.13981 0.62914 0.37024
 C658 C 1.10752 0.61696 0.35308
 C659 C 1.08845 0.59414 0.37126
 C660 C 1.10103 0.58279 0.40693
 C661 C 1.13260 0.59520 0.42475
 C662 C 1.15176 0.61851 0.40686
 C663 C 1.20187 0.65476 0.40862
 C664 C 1.18249 0.63139 0.42546
 H665 H 1.22523 0.66413 0.42433
 H666 H 1.19149 0.62347 0.45362
 H667 H 1.23644 0.69739 0.37145
 H668 H 1.16933 0.69202 0.26840
 H669 H 1.06389 0.58516 0.35711
 H670 H 1.14210 0.58691 0.45264
 H671 H 1.13282 0.65342 0.29628
 H672 H 1.09630 0.62483 0.32576
 C673 C 0.66134 0.15533 0.35267
 C674 C 0.69064 0.16770 0.37480
 C675 C 0.71239 0.19069 0.35963
 C676 C 0.70574 0.20134 0.32222
 C677 C 0.67762 0.18792 0.30011
 C678 C 0.65555 0.16556 0.31505
 C679 C 0.63885 0.13085 0.36970
 C680 C 0.60766 0.11847 0.35071
 C681 C 0.58864 0.09474 0.36713
 C682 C 0.60024 0.08278 0.40275
 C683 C 0.63036 0.09562 0.42250
 C684 C 0.64944 0.11972 0.40643
 C685 C 0.69876 0.15645 0.41157
 C686 C 0.67893 0.13269 0.42686
 H687 H 0.72128 0.16576 0.42856
 H688 H 0.68676 0.12440 0.45518
 H689 H 0.73511 0.19929 0.37680
 H690 H 0.67286 0.19465 0.27072
 H691 H 0.56513 0.08544 0.35161
 H692 H 0.63898 0.08687 0.45044
 H693 H 0.63472 0.15619 0.29633
 H694 H 0.59743 0.12673 0.32323
 C695 C 0.65708 0.66163 -0.13265
 C696 C 0.69803 0.65939 -0.13001
 C697 C 0.71873 0.68154 -0.14829
 C698 C 0.69922 0.70599 -0.16990
 C699 C 0.65832 0.71057 -0.16688
 C700 C 0.63758 0.68847 -0.14922
 C701 C 0.63626 0.63539 -0.11748
 C702 C 0.59652 0.63283 -0.12462
 C703 C 0.57875 0.60714 -0.11132
 C704 C 0.60002 0.58375 -0.09014
 C705 C 0.63957 0.58608 -0.08282
 C706 C 0.65803 0.61121 -0.09720
 C707 C 0.71800 0.63478 -0.10967
 C708 C 0.69829 0.61161 -0.09280
 H709 H 0.74935 0.63333 -0.10687
 H710 H 0.71504 0.59304 -0.07738
 H711 H 0.75021 0.67899 -0.14694
 H712 H 0.64180 0.73090 -0.17893
 H713 H 0.54822 0.60569 -0.11740
 H714 H 0.65632 0.56773 -0.06702
 H715 H 0.60631 0.69272 -0.14898
 H716 H 0.57896 0.64999 -0.14122
 C717 C 0.81696 -0.15606 -0.14508
 C718 C 0.82963 -0.16889 -0.18043
 C719 C 0.81004 -0.19265 -0.19786
 C720 C 0.77811 -0.20462 -0.18017
 C721 C 0.76577 -0.19128 -0.14511
 C722 C 0.78463 -0.16753 -0.12799
 C723 C 0.83882 -0.13104 -0.12716
 C724 C 0.82806 -0.11650 -0.09231
 C725 C 0.84944 -0.09350 -0.07669
 C726 C 0.88224 -0.08435 -0.09515
 C727 C 0.89328 -0.09864 -0.12991
 C728 C 0.87175 -0.12171 -0.14607
 C729 C 0.86224 -0.15832 -0.19785
 C730 C 0.88288 -0.13539 -0.18101
 H731 H 0.87217 -0.16810 -0.22487
 H732 H 0.90800 -0.12823 -0.19563
 H733 H 0.82135 -0.20267 -0.22421
 H734 H 0.74050 -0.19837 -0.13084
 H735 H 0.84025 -0.08290 -0.04988
 H736 H 0.91848 -0.09167 -0.14456
 H737 H 0.77334 -0.15857 -0.10125
 H738 H 0.80321 -0.12244 -0.07660
 C739 C 0.83923 0.33579 0.35909
 C740 C 0.80555 0.32654 0.37670
 C741 C 0.78563 0.30265 0.36054
 C742 C 0.79854 0.28777 0.32670
 C743 C 0.83205 0.29678 0.30948
 C744 C 0.85225 0.32036 0.32542
 C745 C 0.85905 0.36197 0.37677
 C746 C 0.89262 0.37297 0.36139
 C747 C 0.90955 0.39780 0.37836
 C748 C 0.89361 0.41245 0.41112
 C749 C 0.86043 0.40151 0.42703
 C750 C 0.84310 0.37644 0.41014
 C751 C 0.79155 0.34152 0.40999
 C752 C 0.80989 0.36592 0.42631
 H753 H 0.76579 0.33441 0.42351
 H754 H 0.79772 0.37684 0.45192
 H755 H 0.75928 0.29638 0.37374
 H756 H 0.84279 0.28548 0.28357
 H757 H 0.93525 0.40567 0.36555
 H758 H 0.84800 0.41256 0.45246
 H759 H 0.87774 0.32626 0.31072
 H760 H 0.90627 0.36286 0.33621
 C761 C 0.32929 -0.16257 0.35781
 C762 C 0.34402 -0.17663 0.32375
 C763 C 0.32496 -0.20047 0.30611
 C764 C 0.29140 -0.21074 0.32207
 C765 C 0.27689 -0.19664 0.35575
 C766 C 0.29548 -0.17299 0.37341
 C767 C 0.35024 -0.13707 0.37564
 C768 C 0.33777 -0.12154 0.40940
 C769 C 0.35799 -0.09774 0.42466
 C770 C 0.39123 -0.08875 0.40685
 C771 C 0.40415 -0.10419 0.37339
 C772 C 0.38392 -0.12815 0.35768
 C773 C 0.37760 -0.16677 0.30751
 C774 C 0.39710 -0.14309 0.32409
 H775 H 0.38897 -0.17750 0.28148
 H776 H 0.42290 -0.13632 0.31032
 H777 H 0.33653 -0.21129 0.28020
 H778 H 0.25049 -0.20345 0.36826
 H779 H 0.34747 -0.08629 0.45056
 H780 H 0.42986 -0.09744 0.35940
 H781 H 0.28267 -0.16312 0.39909
 H782 H 0.31244 -0.12730 0.42448
 C783 C 0.33401 0.33375 -0.14009
 C784 C 0.34418 0.32404 -0.17740
 C785 C 0.32518 0.30032 -0.19538
 C786 C 0.29617 0.28537 -0.17662
 C787 C 0.28758 0.29449 -0.13884
 C788 C 0.30596 0.31822 -0.12102
 C789 C 0.35372 0.36006 -0.12249
 C790 C 0.34363 0.37294 -0.08660
 C791 C 0.36250 0.39770 -0.07168
 C792 C 0.39211 0.41015 -0.09193
 C793 C 0.40246 0.39752 -0.12767
 C794 C 0.38320 0.37294 -0.14325
 C795 C 0.37346 0.33794 -0.19651
 C796 C 0.39282 0.36158 -0.17966
 H797 H 0.38164 0.33037 -0.22497
 H798 H 0.41530 0.37146 -0.19566
 H799 H 0.33429 0.29300 -0.22361
 H800 H 0.26513 0.28462 -0.12300
 H801 H 0.35392 0.40705 -0.04408
 H802 H 0.42508 0.40718 -0.14373
 H803 H 0.29750 0.32415 -0.09230
 H804 H 0.32097 0.36453 -0.06972
 C805 C 1.15487 -0.16232 0.18623
 C806 C 1.19076 -0.17726 0.17347
 C807 C 1.21237 -0.19927 0.19672
 C808 C 1.19856 -0.20672 0.23255
 C809 C 1.16365 -0.19111 0.24553
 C810 C 1.14211 -0.16921 0.22284
 C811 C 1.13201 -0.13978 0.16021
 C812 C 1.09537 -0.12471 0.16982
 C813 C 1.07544 -0.10356 0.14496
 C814 C 1.09133 -0.09686 0.10981
 C815 C 1.12742 -0.11222 0.09949
 C816 C 1.14779 -0.13364 0.12436
 C817 C 1.20463 -0.17033 0.13752
 C818 C 1.18373 -0.14886 0.11360
 H819 H 1.23213 -0.18166 0.12772
 H820 H 1.19583 -0.14423 0.08614
 H821 H 1.23929 -0.21130 0.18644
 H822 H 1.15284 -0.19590 0.27346
 H823 H 1.04754 -0.09216 0.15352
 H824 H 1.13987 -0.10729 0.07228
 H825 H 1.11555 -0.15811 0.23455
 H826 H 1.08150 -0.12879 0.19637
 C827 C 1.16130 0.33677 0.68913
 C828 C 1.19697 0.32162 0.67611
 C829 C 1.21856 0.29953 0.69929
 C830 C 1.20493 0.29237 0.73530
 C831 C 1.17056 0.30852 0.74869
 C832 C 1.14906 0.33045 0.72607
 C833 C 1.13809 0.35895 0.66305
 C834 C 1.10119 0.37347 0.67264
 C835 C 1.08088 0.39435 0.64782
 C836 C 1.09662 0.40137 0.61271
 C837 C 1.13290 0.38641 0.60227
 C838 C 1.15362 0.36514 0.62710
 C839 C 1.21057 0.32844 0.64001
 C840 C 1.18956 0.34998 0.61620
 H841 H 1.23795 0.31703 0.63003
 H842 H 1.20147 0.35458 0.58865
 H843 H 1.24519 0.28717 0.68880
 H844 H 1.16005 0.30401 0.77682
 H845 H 1.05279 0.40534 0.65644
 H846 H 1.14516 0.39151 0.57503
 H847 H 1.12292 0.34199 0.73812
 H848 H 1.08733 0.36908 0.69911
 C849 C 0.65593 -0.17430 0.67592
 C850 C 0.69669 -0.18037 0.67272
 C851 C 0.71756 -0.20156 0.69772
 C852 C 0.69821 -0.21758 0.72569
 C853 C 0.65737 -0.21173 0.72746
 C854 C 0.63674 -0.19071 0.70318
 C855 C 0.63483 -0.15043 0.65036
 C856 C 0.59483 -0.14100 0.65387
 C857 C 0.57669 -0.11783 0.63050
 C858 C 0.59765 -0.10366 0.60269
 C859 C 0.63738 -0.11318 0.59833
 C860 C 0.65624 -0.13605 0.62244
 C861 C 0.71627 -0.16528 0.64450
 C862 C 0.69643 -0.14390 0.61962
 H863 H 0.74745 -0.17005 0.64157
 H864 H 0.71295 -0.13286 0.59836
 H865 H 0.74864 -0.20575 0.69438
 H866 H 0.64058 -0.22219 0.74887
 H867 H 0.54603 -0.11080 0.63441
 H868 H 0.65389 -0.10197 0.57718
 H869 H 0.60568 -0.18756 0.70663
 H870 H 0.57703 -0.15062 0.67495
 C871 C 0.66045 0.33794 0.18975
 C872 C 0.69618 0.32250 0.17736
 C873 C 0.71771 0.30115 0.20143
 C874 C 0.70403 0.29508 0.23775
 C875 C 0.66967 0.31161 0.25056
 C876 C 0.64818 0.33280 0.22702
 C877 C 0.63722 0.35917 0.16270
 C878 C 0.60012 0.37367 0.17158
 C879 C 0.57988 0.39381 0.14592
 C880 C 0.59590 0.40004 0.11070
 C881 C 0.63228 0.38495 0.10089
 C882 C 0.65292 0.36442 0.12656
 C883 C 0.70990 0.32827 0.14099
 C884 C 0.68896 0.34909 0.11631
 H885 H 0.73735 0.31663 0.13152
 H886 H 0.70097 0.35295 0.08860
 H887 H 0.74432 0.28847 0.19139
 H888 H 0.65914 0.30790 0.27890
 H889 H 0.55166 0.40488 0.15401
 H890 H 0.64471 0.38943 0.07353
 H891 H 0.62204 0.34473 0.23861
 H892 H 0.58608 0.36984 0.19812
 C893 C 0.84516 0.18241 0.16637
 C894 C 0.80445 0.18844 0.16157
 C895 C 0.78243 0.20602 0.18884
 C896 C 0.80038 0.21777 0.22089
 C897 C 0.84082 0.21401 0.22430
 C898 C 0.86314 0.19658 0.19725
 C899 C 0.86676 0.15964 0.13975
 C900 C 0.90633 0.14912 0.14475
 C901 C 0.92397 0.12517 0.12202
 C902 C 0.90289 0.11142 0.09335
 C903 C 0.86415 0.12293 0.08660
 C904 C 0.84576 0.14640 0.11001
 C905 C 0.78572 0.17564 0.13064
 C906 C 0.80602 0.15534 0.10516
 H907 H 0.75465 0.18073 0.12664
 H908 H 0.78998 0.14543 0.08227
 H909 H 0.75101 0.20913 0.18633
 H910 H 0.85495 0.22305 0.24901
 H911 H 0.95403 0.11682 0.12758
 H912 H 0.84760 0.11232 0.06460
 H913 H 0.89414 0.19359 0.20178
 H914 H 0.92380 0.15819 0.16693
 C915 C 0.84698 0.67545 0.68443
 C916 C 0.84883 0.66829 0.72357
 C917 C 0.82622 0.68680 0.74939
 C918 C 0.80268 0.71358 0.73754
 C919 C 0.80476 0.72300 0.69949
 C920 C 0.82605 0.70380 0.67300
 C921 C 0.86708 0.65216 0.65726
 C922 C 0.86141 0.65346 0.61752
 C923 C 0.87899 0.62981 0.59384
 C924 C 0.90338 0.60494 0.60923
 C925 C 0.90955 0.60381 0.64857
 C926 C 0.89076 0.62642 0.67260
 C927 C 0.87267 0.64235 0.73680
 C928 C 0.89408 0.62238 0.71191
 H929 H 0.87474 0.63733 0.76692
 H930 H 0.91211 0.60260 0.72360
 H931 H 0.82665 0.68011 0.77907
 H932 H 0.78734 0.74362 0.68934
 H933 H 0.87369 0.63102 0.56352
 H934 H 0.92767 0.58431 0.66083
 H935 H 0.82527 0.71108 0.64368
 H936 H 0.84263 0.67204 0.60451
 C937 C 0.35067 0.17851 0.66859
 C938 C 0.31065 0.18655 0.66117
 C939 C 0.28792 0.20489 0.68730
 C940 C 0.30445 0.21530 0.72087
 C941 C 0.34443 0.20937 0.72705
 C942 C 0.36747 0.19130 0.70111
 C943 C 0.37259 0.15520 0.64280
 C944 C 0.41132 0.14311 0.64986
 C945 C 0.42910 0.11901 0.62740
 C946 C 0.40900 0.10657 0.59705
 C947 C 0.37116 0.11950 0.58851
 C948 C 0.35265 0.14326 0.61145
 C949 C 0.29311 0.17493 0.62878
 C950 C 0.31375 0.15397 0.60428
 H951 H 0.26262 0.18148 0.62283
 H952 H 0.29855 0.14506 0.58013
 H953 H 0.25684 0.20947 0.68276
 H954 H 0.35744 0.21720 0.75304
 H955 H 0.45846 0.10959 0.63439
 H956 H 0.35536 0.11000 0.56513
 H957 H 0.39794 0.18664 0.70779
 H958 H 0.42800 0.15120 0.67328
 C959 C 0.34680 0.67989 0.16702
 C960 C 0.30695 0.68807 0.15885
 C961 C 0.28385 0.70666 0.18446
 C962 C 0.29984 0.71718 0.21824
 C963 C 0.33969 0.71110 0.22513
 C964 C 0.36309 0.69280 0.19971
 C965 C 0.36905 0.65631 0.14181
 C966 C 0.40757 0.64408 0.14965
 C967 C 0.42560 0.61975 0.12770
 C968 C 0.40597 0.60720 0.09711
 C969 C 0.36837 0.62026 0.08781
 C970 C 0.34959 0.64426 0.11022
 C971 C 0.28994 0.67632 0.12625
 C972 C 0.31089 0.65510 0.10228
 H973 H 0.25959 0.68296 0.11972
 H974 H 0.29608 0.64610 0.07795
 H975 H 0.25286 0.71131 0.17938
 H976 H 0.35227 0.71898 0.25132
 H977 H 0.45478 0.61024 0.13528
 H978 H 0.35293 0.61068 0.06424
 H979 H 0.39343 0.68805 0.20696
 H980 H 0.42388 0.65224 0.17328
   
