data_POSCAR
  _audit_creation_date              2014-09-24
  _audit_creation_method            'ToBaCCo'
  _symmetry_space_group_name_H-M    'P1'
  _symmetry_Int_Tables_number       1
  _symmetry_cell_setting            triclinic
  loop_
  _symmetry_equiv_pos_as_xyz
 x,y,z
_cell_length_a 26.5226
_cell_length_b 32.2508
_cell_length_c 28.2296
_cell_angle_alpha 89.366700
_cell_angle_beta 87.956600
_cell_angle_gamma 87.232600
loop_
  _atom_site_label
  _atom_site_type_symbol
  _atom_site_fract_x
  _atom_site_fract_y
  _atom_site_fract_z
N1 N 0.31052 0.26302 0.20640
 N2 N 0.27451 0.29231 0.20337
 C3 C 0.28265 0.31493 0.16373
 C4 C 0.32641 0.29923 0.14115
 C5 C 0.34333 0.26640 0.16921
 H6 H 0.25943 0.34158 0.15279
 H7 H 0.37696 0.24657 0.16316
 Cu8 Cu 0.22290 0.30020 0.25343
 Cu9 Cu 0.31253 0.22354 0.25906
 Cu10 Cu 0.20274 0.22237 0.32989
 N11 N 0.17957 0.30839 0.30991
 N12 N 0.17069 0.27750 0.33934
 C13 C 0.13682 0.29065 0.37324
 C14 C 0.12436 0.33213 0.36478
 C15 C 0.15217 0.34244 0.32438
 H16 H 0.12196 0.27137 0.40153
 H17 H 0.15140 0.37212 0.30615
 N18 N 0.25455 0.17655 0.32874
 N19 N 0.29681 0.17736 0.30263
 C20 C 0.32520 0.14247 0.31107
 C21 C 0.29970 0.11889 0.34435
 C22 C 0.25510 0.14136 0.35484
 H23 H 0.36209 0.13511 0.29492
 H24 H 0.22584 0.13323 0.38046
 H25 H 0.23575 0.22481 0.26089
 H26 H 0.26423 0.25313 0.30983
 N27 N 0.69562 -0.26161 0.20947
 N28 N 0.69680 -0.30124 0.22116
 C29 C 0.67556 -0.32250 0.18672
 C30 C 0.66209 -0.29450 0.15117
 C31 C 0.67607 -0.25640 0.16651
 H32 H 0.67128 -0.35570 0.18705
 H33 H 0.66959 -0.22666 0.14910
 Cu34 Cu 0.72998 -0.32061 0.27855
 Cu35 Cu 0.71285 -0.21861 0.25273
 Cu36 Cu 0.74432 -0.25190 0.36457
 N37 N 0.77820 -0.33163 0.32866
 N38 N 0.78408 -0.30401 0.36172
 C39 C 0.82039 -0.31793 0.39070
 C40 C 0.83836 -0.35644 0.37510
 C41 C 0.81060 -0.36447 0.33575
 H42 H 0.83294 -0.30109 0.42071
 H43 H 0.81441 -0.39156 0.31341
 N44 N 0.72222 -0.19455 0.35068
 N45 N 0.71023 -0.18154 0.30789
 C46 C 0.69328 -0.14151 0.31029
 C47 C 0.69564 -0.12893 0.35673
 C48 C 0.71440 -0.16317 0.38133
 H49 H 0.67939 -0.12322 0.28073
 H50 H 0.72041 -0.16549 0.41898
 H51 H 0.76226 -0.25285 0.29489
 H52 H 0.69286 -0.25537 0.30886
 N53 N 0.72085 0.28808 0.79255
 N54 N 0.73698 0.32528 0.78305
 C55 C 0.71455 0.35255 0.81388
 C56 C 0.68279 0.33110 0.84416
 C57 C 0.68787 0.29026 0.82983
 H58 H 0.71991 0.38558 0.81361
 H59 H 0.66798 0.26426 0.84441
 Cu60 Cu 0.78509 0.33432 0.73080
 Cu61 Cu 0.74204 0.24015 0.75434
 Cu62 Cu 0.78910 0.26572 0.64217
 N63 N 0.82667 0.34236 0.67369
 N64 N 0.82918 0.31489 0.63948
 C65 C 0.86027 0.32800 0.60425
 C66 C 0.87789 0.36581 0.61712
 C67 C 0.85574 0.37408 0.66132
 H68 H 0.86883 0.31154 0.57153
 H69 H 0.86053 0.40102 0.68288
 N70 N 0.76173 0.21128 0.65809
 N71 N 0.74545 0.20117 0.70122
 C72 C 0.72738 0.16289 0.70056
 C73 C 0.73253 0.14828 0.65481
 C74 C 0.75466 0.17957 0.62880
 H75 H 0.70956 0.14764 0.73062
 H76 H 0.76342 0.17976 0.59109
 H77 H 0.80296 0.26098 0.71172
 H78 H 0.73733 0.27951 0.69796
 N79 N 0.32045 -0.29276 0.79934
 N80 N 0.28988 -0.32369 0.79884
 C81 C 0.29884 -0.34875 0.83654
 C82 C 0.33727 -0.33257 0.86151
 C83 C 0.35004 -0.29715 0.83686
 H84 H 0.28010 -0.37720 0.84438
 H85 H 0.37934 -0.27643 0.84504
 Cu86 Cu 0.24503 -0.32922 0.74613
 Cu87 Cu 0.32214 -0.25024 0.74986
 Cu88 Cu 0.21308 -0.24245 0.68594
 N89 N 0.19674 -0.32968 0.69554
 N90 N 0.18490 -0.29531 0.67207
 C91 C 0.15147 -0.30329 0.63910
 C92 C 0.14198 -0.34497 0.64172
 C93 C 0.17119 -0.36095 0.67804
 H94 H 0.13542 -0.28040 0.61493
 H95 H 0.17379 -0.39278 0.69056
 N96 N 0.26082 -0.19778 0.68811
 N97 N 0.30321 -0.20114 0.71127
 C98 C 0.32977 -0.16719 0.70234
 C99 C 0.30291 -0.14158 0.67171
 C100 C 0.25940 -0.16183 0.66348
 H101 H 0.36675 -0.16225 0.71557
 H102 H 0.23010 -0.15212 0.63950
 H103 H 0.24678 -0.25377 0.75125
 H104 H 0.27954 -0.27434 0.69617
 N105 N 0.69536 -0.26849 0.79818
 N106 N 0.73308 -0.29629 0.80136
 C107 C 0.72492 -0.32059 0.83970
 C108 C 0.67929 -0.30763 0.86107
 C109 C 0.66142 -0.27463 0.83382
 H110 H 0.74942 -0.34656 0.85034
 H111 H 0.62652 -0.25634 0.83960
 Cu112 Cu 0.78679 -0.30068 0.75284
 Cu113 Cu 0.69300 -0.22650 0.74814
 Cu114 Cu 0.79976 -0.22312 0.67446
 N115 N 0.82653 -0.30848 0.69401
 N116 N 0.83075 -0.27811 0.66288
 C117 C 0.85968 -0.29159 0.62553
 C118 C 0.87452 -0.33261 0.63386
 C119 C 0.85296 -0.34241 0.67771
 H120 H 0.86961 -0.27277 0.59494
 H121 H 0.85601 -0.37190 0.69626
 N122 N 0.74853 -0.17735 0.67891
 N123 N 0.70714 -0.17878 0.70614
 C124 C 0.67878 -0.14346 0.69985
 C125 C 0.70354 -0.11902 0.66685
 C126 C 0.74758 -0.14141 0.65433
 H127 H 0.64240 -0.13640 0.71718
 H128 H 0.77617 -0.13274 0.62830
 H129 H 0.74081 -0.25576 0.69747
 H130 H 0.76982 -0.22580 0.74492
 N131 N 0.29662 0.27442 0.79455
 N132 N 0.27581 0.31148 0.78598
 C133 C 0.28976 0.33810 0.81887
 C134 C 0.32110 0.31666 0.84954
 C135 C 0.32467 0.27625 0.83328
 H136 H 0.27963 0.37098 0.81946
 H137 H 0.34684 0.25041 0.84779
 Cu138 Cu 0.23623 0.32179 0.73032
 Cu139 Cu 0.28579 0.22700 0.75404
 Cu140 Cu 0.24223 0.25391 0.64227
 N141 N 0.19571 0.33106 0.67500
 N142 N 0.19864 0.30434 0.64005
 C143 C 0.17009 0.31910 0.60455
 C144 C 0.14814 0.35702 0.61821
 C145 C 0.16505 0.36367 0.66309
 H146 H 0.16636 0.30378 0.57104
 H147 H 0.15656 0.39067 0.68485
 N148 N 0.27098 0.19825 0.65839
 N149 N 0.28669 0.18755 0.70091
 C150 C 0.30342 0.14737 0.70021
 C151 C 0.29762 0.13228 0.65519
 C152 C 0.27697 0.16527 0.62969
 H153 H 0.31905 0.13048 0.73002
 H154 H 0.26695 0.16524 0.59290
 H155 H 0.29071 0.26543 0.69733
 H156 H 0.22567 0.24908 0.71280
 N157 N 0.29205 -0.28450 0.20842
 N158 N 0.26515 -0.31765 0.21159
 C159 C 0.28218 -0.34502 0.17829
 C160 C 0.32192 -0.32797 0.15313
 C161 C 0.32712 -0.28953 0.17308
 H162 H 0.26736 -0.37527 0.17328
 H163 H 0.35453 -0.26701 0.16293
 Cu164 Cu 0.21132 -0.32204 0.25970
 Cu165 Cu 0.27906 -0.23728 0.25009
 Cu166 Cu 0.21218 -0.25947 0.35449
 N167 N 0.17347 -0.33409 0.31790
 N168 N 0.17476 -0.31021 0.35527
 C169 C 0.14578 -0.32606 0.39055
 C170 C 0.12543 -0.36169 0.37429
 C171 C 0.14377 -0.36591 0.32808
 H172 H 0.13951 -0.31250 0.42526
 H173 H 0.13615 -0.39031 0.30374
 N174 N 0.25191 -0.20943 0.34568
 N175 N 0.27593 -0.20053 0.30533
 C176 C 0.29832 -0.16425 0.30966
 C177 C 0.28795 -0.14961 0.35486
 C178 C 0.25848 -0.17891 0.37684
 H179 H 0.32109 -0.14979 0.28219
 H180 H 0.24291 -0.17791 0.41275
 H181 H 0.26602 -0.27923 0.30355
 H182 H 0.20915 -0.24871 0.28339
 N183 N 0.70777 0.26681 0.17907
 N184 N 0.72929 0.30247 0.18305
 C185 C 0.71383 0.32836 0.14821
 C186 C 0.68031 0.30795 0.12151
 C187 C 0.67734 0.26895 0.14189
 H188 H 0.72418 0.36027 0.14408
 H189 H 0.65385 0.24440 0.13132
 Cu190 Cu 0.77163 0.31315 0.23601
 Cu191 Cu 0.71898 0.22152 0.22457
 Cu192 Cu 0.73799 0.26176 0.33490
 N193 N 0.79978 0.32547 0.29663
 N194 N 0.78613 0.30522 0.33531
 C195 C 0.81052 0.31948 0.37224
 C196 C 0.84128 0.35015 0.35577
 C197 C 0.83351 0.35344 0.30763
 H198 H 0.80649 0.30808 0.40830
 H199 H 0.85128 0.37426 0.28256
 N200 N 0.71186 0.20651 0.32547
 N201 N 0.70921 0.18948 0.28337
 C202 C 0.69950 0.14908 0.28901
 C203 C 0.69510 0.14075 0.33707
 C204 C 0.70280 0.17776 0.35908
 H205 H 0.69697 0.12730 0.26042
 H206 H 0.70576 0.18252 0.39674
 H207 H 0.70626 0.26913 0.26915
 H208 H 0.77102 0.24412 0.27206
 C209 C 0.32594 -0.03638 0.46476
 C210 C 0.32880 0.00720 0.46176
 C211 C 0.32982 0.03036 0.50335
 C212 C 0.32836 0.01158 0.54850
 C213 C 0.32809 -0.03223 0.55146
 C214 C 0.32631 -0.05542 0.50976
 H215 H 0.32596 -0.08890 0.51263
 H216 H 0.33201 0.06368 0.50003
 C217 C 0.67359 -0.00606 0.55200
 C218 C 0.68152 0.03684 0.54860
 C219 C 0.68251 0.05569 0.50338
 C220 C 0.67811 0.03276 0.46167
 C221 C 0.67120 -0.01037 0.46568
 C222 C 0.66845 -0.02887 0.51077
 H223 H 0.66284 -0.06186 0.51394
 H224 H 0.68849 0.08848 0.50050
 C225 C 0.45030 0.34442 -0.03515
 C226 C 0.45146 0.33506 0.01374
 C227 C 0.49834 0.33222 0.03564
 C228 C 0.54336 0.33986 0.00995
 C229 C 0.54144 0.34979 -0.03860
 C230 C 0.49518 0.35148 -0.06082
 H231 H 0.49406 0.35836 -0.09844
 H232 H 0.49970 0.32591 0.07332
 C233 C 0.46210 0.63833 -0.01522
 C234 C 0.46044 0.64062 0.03477
 C235 C 0.50477 0.64857 0.05831
 C236 C 0.55017 0.65507 0.03296
 C237 C 0.55221 0.65087 -0.01658
 C238 C 0.50836 0.64242 -0.04012
 H239 H 0.50979 0.64044 -0.07843
 H240 H 0.50293 0.65298 0.09633
 C241 C -0.04351 0.45374 0.41211
 C242 C 0.00937 0.45034 0.41562
 C243 C 0.03632 0.48657 0.41843
 C244 C 0.01124 0.52587 0.41829
 C245 C -0.04162 0.52915 0.41382
 C246 C -0.06837 0.49293 0.41075
 H247 H -0.10899 0.49515 0.40752
 H248 H 0.07706 0.48423 0.42055
 C249 C 0.03874 0.47640 0.56657
 C250 C -0.01434 0.47750 0.56542
 C251 C -0.04157 0.51579 0.56741
 C252 C -0.01677 0.55293 0.57100
 C253 C 0.03635 0.55178 0.57396
 C254 C 0.06352 0.51343 0.57145
 H255 H 0.10421 0.51228 0.57413
 H256 H -0.08246 0.51662 0.56735
 N257 N 0.36281 0.35229 0.03503
 N258 N 0.32863 0.34390 0.06870
 C259 C 0.35064 0.31556 0.09775
 C260 C 0.39936 0.30680 0.08091
 N261 N 0.40555 0.33035 0.04163
 H262 H 0.42779 0.28608 0.09629
 N263 N 0.60454 0.71209 0.04237
 N264 N 0.63362 0.72734 0.07434
 C265 C 0.63751 0.69880 0.10941
 C266 C 0.60978 0.66531 0.09796
 N267 N 0.58977 0.67501 0.05579
 H268 H 0.60197 0.63818 0.11942
 N269 N 0.60501 0.39279 -0.07576
 N270 N 0.64292 0.38902 -0.10757
 C271 C 0.64789 0.34847 -0.11891
 C272 C 0.61203 0.32744 -0.09310
 N273 N 0.58647 0.35609 -0.06646
 H274 H 0.60375 0.29496 -0.09495
 N275 N 0.38314 0.60898 -0.03926
 N276 N 0.34921 0.61556 -0.07236
 C277 C 0.36252 0.64978 -0.09678
 C278 C 0.40539 0.66391 -0.07770
 N279 N 0.41697 0.63789 -0.04182
 H280 H 0.42710 0.68989 -0.08955
 N281 N 0.02460 0.37735 0.43802
 N282 N 0.05493 0.34514 0.42554
 C283 C 0.08679 0.35872 0.39110
 C284 C 0.07532 0.40029 0.38305
 N285 N 0.03624 0.41067 0.41289
 H286 H 0.09241 0.42066 0.35702
 N287 N 0.05466 0.62473 0.56104
 N288 N 0.08264 0.65327 0.57882
 C289 C 0.10932 0.63453 0.61347
 C290 C 0.09714 0.59341 0.61614
 N291 N 0.06254 0.58870 0.58307
 H292 H 0.11069 0.56963 0.64057
 N293 N -0.06299 0.59983 0.44052
 N294 N -0.09569 0.63100 0.43142
 C295 C -0.12301 0.61909 0.39496
 C296 C -0.10607 0.57961 0.38199
 N297 N -0.06850 0.56878 0.41120
 H298 H -0.11993 0.56042 0.35452
 N299 N -0.03693 0.40989 0.53637
 N300 N -0.06591 0.37912 0.54949
 C301 C -0.08907 0.39027 0.59105
 C302 C -0.07361 0.42892 0.60293
 N303 N -0.04111 0.43996 0.56798
 H304 H -0.08427 0.44710 0.63403
 N305 N 0.36857 0.02946 0.38724
 N306 N 0.36264 0.05986 0.35562
 C307 C 0.31816 0.08002 0.36681
 C308 C 0.29692 0.06094 0.40602
 N309 N 0.32914 0.02920 0.41736
 H310 H 0.26326 0.07089 0.42645
 N311 N 0.67540 0.05267 0.63375
 N312 N 0.68858 0.08169 0.66319
 C313 C 0.71355 0.10965 0.63678
 C314 C 0.71531 0.09690 0.59042
 N315 N 0.69092 0.06120 0.58974
 H316 H 0.73274 0.11231 0.56027
 N317 N 0.36912 -0.05663 0.62314
 N318 N 0.36417 -0.08637 0.65555
 C319 C 0.32005 -0.10381 0.64787
 C320 C 0.29804 -0.08378 0.60997
 N321 N 0.32945 -0.05421 0.59585
 H322 H 0.26443 -0.09180 0.59214
 N323 N 0.64207 -0.02879 0.38718
 N324 N 0.64811 -0.05996 0.35686
 C325 C 0.67971 -0.08854 0.37690
 C326 C 0.69284 -0.07411 0.42009
 N327 N 0.66921 -0.03658 0.42506
 H328 H 0.71749 -0.08928 0.44541
 N329 N 0.64292 0.63955 -0.03249
 N330 N 0.67788 0.64958 -0.06478
 C331 C 0.65438 0.67414 -0.09698
 C332 C 0.60397 0.67872 -0.08371
 N333 N 0.59837 0.65667 -0.04334
 H334 H 0.57426 0.69617 -0.10160
 N335 N 0.37560 0.38039 -0.06583
 N336 N 0.34083 0.37422 -0.09722
 C337 C 0.34821 0.33464 -0.11184
 C338 C 0.38852 0.31665 -0.08843
 N339 N 0.40410 0.34607 -0.05975
 H340 H 0.40674 0.28621 -0.09379
 N341 N 0.38173 0.60966 0.06167
 N342 N 0.34435 0.61678 0.09347
 C343 C 0.35322 0.65296 0.11447
 C344 C 0.39708 0.66775 0.09468
 N345 N 0.41355 0.64005 0.06172
 H346 H 0.41582 0.69549 0.10388
 N347 N 0.62459 0.36731 0.02826
 N348 N 0.66172 0.36002 0.05787
 C349 C 0.65047 0.32560 0.08280
 C350 C 0.60527 0.31208 0.06783
 N351 N 0.59036 0.33891 0.03374
 H352 H 0.58457 0.28605 0.08125
 N353 N -0.04737 0.62178 0.54496
 N354 N -0.07644 0.65343 0.56121
 C355 C -0.09456 0.64196 0.60442
 C356 C -0.07597 0.60219 0.61410
 N357 N -0.04629 0.59103 0.57638
 H358 H -0.08199 0.58362 0.64581
 N359 N -0.08412 0.39280 0.44362
 N360 N -0.11572 0.36506 0.43002
 C361 C -0.12460 0.37331 0.38406
 C362 C -0.09753 0.40693 0.36980
 N363 N -0.07243 0.41780 0.40789
 H364 H -0.09695 0.42256 0.33567
 N365 N 0.07052 0.40981 0.53399
 N366 N 0.09963 0.37727 0.54664
 C367 C 0.11537 0.38517 0.59041
 C368 C 0.09534 0.42353 0.60414
 N369 N 0.06740 0.43768 0.56816
 H370 H 0.09999 0.43948 0.63713
 N371 N 0.04370 0.58640 0.45605
 N372 N 0.07427 0.61680 0.44561
 C373 C 0.09094 0.61112 0.40032
 C374 C 0.06975 0.57629 0.38329
 N375 N 0.04031 0.56208 0.41897
 H376 H 0.07487 0.56267 0.34847
 N377 N 0.63500 -0.02822 0.62713
 N378 N 0.64112 -0.05906 0.65820
 C379 C 0.68508 -0.07955 0.64585
 C380 C 0.70578 -0.06024 0.60659
 N381 N 0.67382 -0.02812 0.59629
 H382 H 0.73875 -0.07037 0.58528
 N383 N 0.34165 -0.05353 0.38076
 N384 N 0.33246 -0.08323 0.35062
 C385 C 0.30547 -0.11122 0.37502
 C386 C 0.29839 -0.09776 0.42102
 N387 N 0.32154 -0.06156 0.42329
 H388 H 0.27828 -0.11282 0.44992
 N389 N 0.70438 0.03595 0.37726
 N390 N 0.70865 0.06385 0.34266
 C391 C 0.69094 0.10038 0.36074
 C392 C 0.67562 0.09407 0.40715
 N393 N 0.68419 0.05335 0.41628
 H394 H 0.66067 0.11726 0.43198
 N395 N 0.34019 0.02734 0.63272
 N396 N 0.33265 0.05896 0.66227
 C397 C 0.31135 0.09051 0.63713
 C398 C 0.30597 0.07726 0.59157
 N399 N 0.32457 0.03769 0.58992
 H400 H 0.28975 0.09486 0.56254
   
