data_POSCAR
  _audit_creation_date              2014-09-24
  _audit_creation_method            'ToBaCCo'
  _symmetry_space_group_name_H-M    'P1'
  _symmetry_Int_Tables_number       1
  _symmetry_cell_setting            triclinic
  loop_
  _symmetry_equiv_pos_as_xyz
 x,y,z
_cell_length_a 32.5250
_cell_length_b 32.5251
_cell_length_c 28.9765
_cell_angle_alpha 89.949900
_cell_angle_beta 89.947500
_cell_angle_gamma 90.079600
loop_
  _atom_site_label
  _atom_site_type_symbol
  _atom_site_fract_x
  _atom_site_fract_y
  _atom_site_fract_z
O1 O -0.04269 0.31994 0.03805
 O2 O 0.03959 0.31572 -0.05119
 O3 O -0.04229 0.31540 -0.05125
 O4 O 0.03949 0.32057 0.03817
 O5 O 0.03841 0.25270 0.04201
 O6 O -0.04083 0.24757 -0.04641
 O7 O 0.03846 0.24790 -0.04651
 O8 O -0.04091 0.25209 0.04202
 Cu9 Cu -0.00149 0.32492 -0.00698
 Cu10 Cu -0.00117 0.24343 -0.00175
 C11 C -0.05629 0.28617 0.05416
 C12 C 0.05346 0.28074 -0.06303
 C13 C -0.05592 0.28028 -0.06297
 C14 C 0.05336 0.28698 0.05426
 O15 O 0.54314 0.81594 0.44963
 O16 O 0.46114 0.82071 0.53900
 O17 O 0.54334 0.81999 0.53898
 O18 O 0.46132 0.81648 0.44959
 O19 O 0.46196 0.74861 0.45385
 O20 O 0.54130 0.75212 0.54242
 O21 O 0.46191 0.75282 0.54240
 O22 O 0.54131 0.74809 0.45390
 Cu23 Cu 0.50229 0.82529 0.49394
 Cu24 Cu 0.50155 0.74377 0.49857
 C25 C 0.55659 0.78087 0.43760
 C26 C 0.44706 0.78705 0.55484
 C27 C 0.55679 0.78612 0.55483
 C28 C 0.44729 0.78160 0.43750
 O29 O 1.04478 0.68184 0.03928
 O30 O 0.96290 0.68453 -0.05035
 O31 O 1.04474 0.68573 -0.05008
 O32 O 0.96254 0.68046 0.03911
 O33 O 0.96296 0.74836 0.04221
 O34 O 1.04247 0.75356 -0.04611
 O35 O 0.96317 0.75240 -0.04634
 O36 O 1.04230 0.74967 0.04247
 Cu37 Cu 1.00382 0.67613 -0.00583
 Cu38 Cu 1.00263 0.75763 -0.00154
 C39 C 1.05804 0.71584 0.05505
 C40 C 0.94871 0.71928 -0.06260
 C41 C 1.05804 0.72090 -0.06225
 C42 C 0.94826 0.71404 0.05477
 O43 O 0.45677 0.18342 0.44996
 O44 O 0.53863 0.17848 0.53931
 O45 O 0.45641 0.17924 0.53931
 O46 O 0.53857 0.18295 0.44992
 O47 O 0.53790 0.25081 0.45425
 O48 O 0.45844 0.24710 0.54277
 O49 O 0.53780 0.24636 0.54276
 O50 O 0.45861 0.25126 0.45427
 Cu51 Cu 0.49754 0.17400 0.49427
 Cu52 Cu 0.49825 0.25553 0.49895
 C53 C 0.44336 0.21852 0.43794
 C54 C 0.55266 0.21212 0.55516
 C55 C 0.44293 0.21309 0.55516
 C56 C 0.55259 0.21786 0.43786
 O57 O 0.67963 0.03790 -0.03805
 O58 O 0.68524 -0.04431 0.05115
 O59 O 0.68416 0.03756 0.05133
 O60 O 0.68039 -0.04427 -0.03812
 O61 O 0.74824 -0.04204 -0.04199
 O62 O 0.75201 0.03722 0.04652
 O63 O 0.75304 -0.04208 0.04646
 O64 O 0.74750 0.03728 -0.04198
 Cu65 Cu 0.67534 -0.00335 0.00701
 Cu66 Cu 0.75684 -0.00231 0.00179
 C67 C 0.71317 0.05206 -0.05416
 C68 C 0.72045 -0.05764 0.06293
 C69 C 0.71905 0.05173 0.06311
 C70 C 0.71422 -0.05759 -0.05420
 O71 O 0.18316 0.46102 0.55042
 O72 O 0.17952 0.54301 0.46094
 O73 O 0.17914 0.46081 0.46099
 O74 O 0.18367 0.54286 0.55031
 O75 O 0.25152 0.54133 0.54608
 O76 O 0.24703 0.46191 0.45766
 O77 O 0.24739 0.54130 0.45755
 O78 O 0.25103 0.46198 0.54621
 Cu79 Cu 0.17436 0.50195 0.50602
 Cu80 Cu 0.25589 0.50160 0.50146
 C81 C 0.21805 0.44715 0.56253
 C82 C 0.21337 0.55661 0.44509
 C83 C 0.21284 0.44690 0.44518
 C84 C 0.21872 0.55646 0.56236
 O85 O 0.31450 1.04479 0.05024
 O86 O 0.31965 0.96298 -0.03932
 O87 O 0.31843 1.04521 -0.03914
 O88 O 0.31568 0.96295 0.05015
 O89 O 0.24780 0.96321 0.04625
 O90 O 0.25060 1.04257 -0.04236
 O91 O 0.25175 0.96324 -0.04232
 O92 O 0.24668 1.04251 0.04623
 Cu93 Cu 0.32407 1.00408 0.00580
 Cu94 Cu 0.24258 1.00277 0.00156
 C95 C 0.27937 1.05803 0.06244
 C96 C 0.28605 0.94868 -0.05500
 C97 C 0.28443 1.05843 -0.05487
 C98 C 0.28092 0.94871 0.06241
 O99 O 0.82058 0.45668 0.46073
 O100 O 0.81686 0.53858 0.55011
 O101 O 0.81610 0.45679 0.55004
 O102 O 0.82109 0.53890 0.46071
 O103 O 0.75321 0.53793 0.45726
 O104 O 0.74826 0.45845 0.54567
 O105 O 0.74900 0.53774 0.54579
 O106 O 0.75272 0.45856 0.45721
 Cu107 Cu 0.82568 0.49771 0.50575
 Cu108 Cu 0.74415 0.49822 0.50104
 C109 C 0.78674 0.44315 0.44488
 C110 C 0.78195 0.55248 0.56217
 C111 C 0.78098 0.44325 0.56203
 C112 C 0.78746 0.55289 0.44486
 C113 C 0.21480 0.22174 0.13720
 C114 C 0.24372 0.19880 0.16139
 C115 C 0.25506 0.21090 0.20591
 C116 C 0.23850 0.24707 0.22626
 C117 C 0.20748 0.26844 0.20136
 C118 C 0.19486 0.25488 0.15777
 C119 C 0.25253 0.26116 0.27344
 C120 C 0.23140 0.29246 0.29822
 C121 C 0.24505 0.30515 0.34179
 C122 C 0.27805 0.28501 0.36241
 C123 C 0.30070 0.25579 0.33832
 C124 C 0.28850 0.24438 0.29388
 H125 H 0.20522 0.21161 0.10320
 H126 H 0.27591 0.19106 0.22429
 H127 H 0.19220 0.29509 0.21512
 H128 H 0.20486 0.30789 0.28439
 H129 H 0.28828 0.29459 0.39637
 H130 H 0.30815 0.22330 0.27558
 C131 C 0.78602 0.77860 0.13710
 C132 C 0.75690 0.80136 0.16124
 C133 C 0.74550 0.78917 0.20574
 C134 C 0.76219 0.75309 0.22617
 C135 C 0.79345 0.73195 0.20138
 C136 C 0.80613 0.74561 0.15776
 C137 C 0.74803 0.73891 0.27333
 C138 C 0.76917 0.70764 0.29813
 C139 C 0.75543 0.69487 0.34168
 C140 C 0.72233 0.71488 0.36227
 C141 C 0.69965 0.74406 0.33814
 C142 C 0.71194 0.75556 0.29371
 H143 H 0.79561 0.78881 0.10310
 H144 H 0.72449 0.80888 0.22407
 H145 H 0.80889 0.70542 0.21523
 H146 H 0.79576 0.69227 0.28433
 H147 H 0.71203 0.70522 0.39621
 H148 H 0.69227 0.77660 0.27538
 C149 C 0.78280 0.21856 0.13754
 C150 C 0.80228 0.25220 0.15772
 C151 C 0.78940 0.26593 0.20118
 C152 C 0.75877 0.24415 0.22638
 C153 C 0.74264 0.20764 0.20645
 C154 C 0.75410 0.19541 0.16202
 C155 C 0.74467 0.25816 0.27350
 C156 C 0.70821 0.24189 0.29358
 C157 C 0.69599 0.25330 0.33806
 C158 C 0.71908 0.28207 0.36238
 C159 C 0.75265 0.30164 0.34204
 C160 C 0.76639 0.28881 0.29859
 H161 H 0.79251 0.20829 0.10364
 H162 H 0.80408 0.29310 0.21460
 H163 H 0.72204 0.18770 0.22520
 H164 H 0.68832 0.22123 0.27493
 H165 H 0.70883 0.29177 0.39630
 H166 H 0.79350 0.30356 0.28506
 C167 C 0.21715 0.78213 0.13741
 C168 C 0.19729 0.74872 0.15770
 C169 C 0.21006 0.73484 0.20117
 C170 C 0.24105 0.75621 0.22619
 C171 C 0.25749 0.79261 0.20615
 C172 C 0.24606 0.80501 0.16176
 C173 C 0.25523 0.74192 0.27322
 C174 C 0.29167 0.75815 0.29332
 C175 C 0.30393 0.74655 0.33773
 C176 C 0.28087 0.71767 0.36201
 C177 C 0.24738 0.69808 0.34166
 C178 C 0.23365 0.71102 0.29822
 H179 H 0.20755 0.79250 0.10350
 H180 H 0.19500 0.70790 0.21471
 H181 H 0.27832 0.81236 0.22475
 H182 H 0.31154 0.77894 0.27476
 H183 H 0.29110 0.70790 0.39590
 H184 H 0.20664 0.69616 0.28465
 C185 C 0.71461 0.27743 0.63751
 C186 C 0.69455 0.24429 0.65811
 C187 C 0.70720 0.23060 0.70168
 C188 C 0.73835 0.25186 0.72650
 C189 C 0.75502 0.28803 0.70614
 C190 C 0.74370 0.30023 0.66166
 C191 C 0.75246 0.23773 0.77363
 C192 C 0.78864 0.25436 0.79382
 C193 C 0.80087 0.24304 0.83827
 C194 C 0.77808 0.21398 0.86259
 C195 C 0.74491 0.19390 0.84216
 C196 C 0.73119 0.20656 0.79859
 H197 H 0.70504 0.28767 0.60354
 H198 H 0.69184 0.20394 0.71549
 H199 H 0.77595 0.30781 0.72453
 H200 H 0.80841 0.27527 0.77532
 H201 H 0.78836 0.20443 0.89655
 H202 H 0.70452 0.19121 0.78489
 C203 C 0.28485 0.72214 0.63768
 C204 C 0.30507 0.75517 0.65820
 C205 C 0.29243 0.76894 0.70174
 C206 C 0.26103 0.74796 0.72661
 C207 C 0.24415 0.71188 0.70630
 C208 C 0.25559 0.69951 0.66188
 C209 C 0.24695 0.76230 0.77373
 C210 C 0.21100 0.74548 0.79443
 C211 C 0.19886 0.75706 0.83885
 C212 C 0.22159 0.78640 0.86271
 C213 C 0.25446 0.80664 0.84181
 C214 C 0.26801 0.79388 0.79820
 H215 H 0.29443 0.71184 0.60375
 H216 H 0.30804 0.79544 0.71548
 H217 H 0.22299 0.69228 0.72465
 H218 H 0.19131 0.72424 0.77639
 H219 H 0.21144 0.79605 0.89668
 H220 H 0.29439 0.80949 0.78412
 C221 C 0.28196 0.28073 0.63797
 C222 C 0.25311 0.30376 0.66222
 C223 C 0.24151 0.29153 0.70665
 C224 C 0.25768 0.25514 0.72683
 C225 C 0.28846 0.23350 0.70184
 C226 C 0.30144 0.24721 0.65836
 C227 C 0.24350 0.24114 0.77399
 C228 C 0.26507 0.21042 0.79917
 C229 C 0.25135 0.19775 0.84274
 C230 C 0.21795 0.21749 0.86305
 C231 C 0.19489 0.24617 0.83860
 C232 C 0.20710 0.25747 0.79405
 H233 H 0.29175 0.29098 0.60406
 H234 H 0.22077 0.31139 0.72520
 H235 H 0.30320 0.20646 0.71544
 H236 H 0.29203 0.19550 0.78565
 H237 H 0.20773 0.20793 0.89706
 H238 H 0.18725 0.27811 0.77536
 C239 C 0.71774 0.71858 0.63766
 C240 C 0.74664 0.69559 0.66186
 C241 C 0.75823 0.70779 0.70625
 C242 C 0.74201 0.74412 0.72642
 C243 C 0.71118 0.76575 0.70149
 C244 C 0.69819 0.75204 0.65806
 C245 C 0.75623 0.75811 0.77350
 C246 C 0.73448 0.78857 0.79880
 C247 C 0.74830 0.80139 0.84221
 C248 C 0.78199 0.78201 0.86230
 C249 C 0.80514 0.75344 0.83779
 C250 C 0.79282 0.74203 0.79335
 H251 H 0.70796 0.70834 0.60378
 H252 H 0.77902 0.68797 0.72478
 H253 H 0.69645 0.79279 0.71508
 H254 H 0.70728 0.80319 0.78547
 H255 H 0.79229 0.79171 0.89619
 H256 H 0.81272 0.72151 0.77455
 C257 C 0.27987 0.15919 0.09207
 C258 C 0.30791 0.12354 0.10847
 C259 C 0.27538 0.09259 0.09173
 C260 C 0.24765 0.12791 0.07513
 C261 C 0.25432 0.09272 0.13922
 C262 C 0.28653 0.12453 0.15661
 C263 C 0.25857 0.15963 0.13951
 C264 C 0.22648 0.12820 0.12267
 H265 H 0.29024 0.18678 0.07269
 H266 H 0.34153 0.12120 0.10242
 H267 H 0.23125 0.12947 0.04164
 H268 H 0.24390 0.06504 0.15840
 H269 H 0.30254 0.12341 0.19039
 H270 H 0.19279 0.13020 0.12846
 C271 C 0.78908 0.62127 0.65778
 C272 C 0.75687 0.58948 0.64042
 C273 C 0.77822 0.58891 0.59309
 C274 C 0.81071 0.61992 0.60982
 C275 C 0.75069 0.62423 0.57604
 C276 C 0.72924 0.62490 0.62339
 C277 C 0.76132 0.65632 0.64020
 C278 C 0.78288 0.65554 0.59293
 H279 H 0.80491 0.62029 0.69167
 H280 H 0.74629 0.56194 0.65974
 H281 H 0.84435 0.61741 0.60401
 H282 H 0.73459 0.62553 0.54234
 H283 H 0.69552 0.62705 0.62892
 H284 H 0.79342 0.68298 0.57340
 C285 C 0.71391 0.87545 0.15687
 C286 C 0.74594 0.90740 0.13931
 C287 C 0.72463 0.90767 0.09201
 C288 C 0.69226 0.87656 0.10893
 C289 C 0.75236 0.87250 0.07505
 C290 C 0.77379 0.87208 0.12240
 C291 C 0.74188 0.84050 0.13942
 C292 C 0.72032 0.84104 0.09217
 H293 H 0.69807 0.87641 0.19079
 H294 H 0.75638 0.93503 0.15849
 H295 H 0.65861 0.87884 0.10318
 H296 H 0.76855 0.87113 0.04138
 H297 H 0.80751 0.87014 0.12789
 H298 H 0.70994 0.81349 0.07281
 C299 C 0.21080 0.37819 0.65815
 C300 C 0.24307 0.40995 0.64075
 C301 C 0.22175 0.41063 0.59344
 C302 C 0.18921 0.37964 0.61021
 C303 C 0.24924 0.37530 0.57637
 C304 C 0.27066 0.37451 0.62369
 C305 C 0.23851 0.34311 0.64055
 C306 C 0.21699 0.34400 0.59330
 H307 H 0.19495 0.37914 0.69206
 H308 H 0.25368 0.43744 0.66006
 H309 H 0.15558 0.38221 0.60445
 H310 H 0.26536 0.37402 0.54265
 H311 H 0.30437 0.37230 0.62918
 H312 H 0.20641 0.31661 0.57378
 C313 C 0.84007 0.28449 0.08388
 C314 C 0.87360 0.31649 0.09672
 C315 C 0.90698 0.28458 0.08512
 C316 C 0.87372 0.25294 0.07208
 C317 C 0.90707 0.26894 0.13518
 C318 C 0.87295 0.30053 0.14750
 C319 C 0.84001 0.26861 0.13389
 C320 C 0.87387 0.23721 0.12211
 H321 H 0.81231 0.29074 0.06276
 H322 H 0.87398 0.34928 0.08608
 H323 H 0.87392 0.23286 0.04116
 H324 H 0.93491 0.26260 0.15612
 H325 H 0.87230 0.32019 0.17877
 H326 H 0.87404 0.20432 0.13242
 C327 C 0.34349 0.78726 0.58471
 C328 C 0.37772 0.81838 0.59789
 C329 C 0.41037 0.78586 0.58583
 C330 C 0.37642 0.75509 0.57246
 C331 C 0.41019 0.76973 0.63570
 C332 C 0.37680 0.80194 0.64846
 C333 C 0.34315 0.77089 0.63453
 C334 C 0.37628 0.73887 0.62229
 H335 H 0.31583 0.79433 0.56375
 H336 H 0.37882 0.85125 0.58765
 H337 H 0.37614 0.73535 0.54126
 H338 H 0.43792 0.76257 0.65648
 H339 H 0.37663 0.82131 0.67998
 H340 H 0.37574 0.70588 0.63221
 C341 C 0.12602 0.76452 0.12183
 C342 C 0.12642 0.74899 0.07173
 C343 C 0.09275 0.71768 0.08447
 C344 C 0.09234 0.73311 0.13456
 C345 C 0.12562 0.68531 0.09625
 C346 C 0.15961 0.71700 0.08375
 C347 C 0.15945 0.73271 0.13381
 C348 C 0.12604 0.70111 0.14708
 H349 H 0.12613 0.79738 0.13224
 H350 H 0.12675 0.76928 0.04094
 H351 H 0.06440 0.73971 0.15528
 H352 H 0.12499 0.65256 0.08552
 H353 H 0.18747 0.71049 0.06285
 H354 H 0.12624 0.68134 0.17831
 C355 C 0.62303 0.19720 0.64858
 C356 C 0.58950 0.22931 0.63595
 C357 C 0.58934 0.21329 0.58607
 C358 C 0.62212 0.18087 0.59800
 C359 C 0.62317 0.24422 0.57262
 C360 C 0.62327 0.26033 0.62246
 C361 C 0.65654 0.22841 0.63457
 C362 C 0.65623 0.21215 0.58474
 H363 H 0.62330 0.17777 0.68008
 H364 H 0.56176 0.23632 0.65682
 H365 H 0.62114 0.14802 0.58773
 H366 H 0.62335 0.26405 0.54145
 H367 H 0.62370 0.29330 0.63240
 H368 H 0.68389 0.20524 0.56368
 C369 C 0.69784 0.12233 0.85222
 C370 C 0.73001 0.08885 0.86482
 C371 C 0.71415 0.08874 0.91479
 C372 C 0.68166 0.12148 0.90291
 C373 C 0.74509 0.12263 0.92791
 C374 C 0.76105 0.12267 0.87798
 C375 C 0.72907 0.15590 0.86591
 C376 C 0.71296 0.15565 0.91584
 H377 H 0.67832 0.12253 0.82083
 H378 H 0.73699 0.06108 0.84400
 H379 H 0.64884 0.12051 0.91336
 H380 H 0.76501 0.12289 0.95897
 H381 H 0.79399 0.12309 0.86786
 H382 H 0.70607 0.18333 0.93684
 C383 C 0.19936 0.62719 0.35157
 C384 C 0.23102 0.59322 0.36415
 C385 C 0.21509 0.59329 0.41409
 C386 C 0.18310 0.62652 0.40222
 C387 C 0.24650 0.62669 0.42734
 C388 C 0.26253 0.62657 0.37743
 C389 C 0.23105 0.66027 0.36538
 C390 C 0.21488 0.66019 0.41527
 H391 H 0.17988 0.62772 0.32015
 H392 H 0.23761 0.56538 0.34331
 H393 H 0.15026 0.62600 0.41263
 H394 H 0.26638 0.62660 0.45844
 H395 H 0.29548 0.62653 0.36735
 H396 H 0.20838 0.68795 0.43630
 C397 C 0.30110 0.87861 0.85119
 C398 C 0.26879 0.91187 0.86412
 C399 C 0.28501 0.91204 0.91392
 C400 C 0.31763 0.87953 0.90170
 C401 C 0.25440 0.87793 0.92740
 C402 C 0.23808 0.87783 0.87764
 C403 C 0.27020 0.84482 0.86524
 C404 C 0.28666 0.84515 0.91500
 H405 H 0.32040 0.87857 0.81959
 H406 H 0.26148 0.93961 0.84336
 H407 H 0.35052 0.88071 0.91179
 H408 H 0.23470 0.87750 0.95868
 H409 H 0.20507 0.87720 0.86788
 H410 H 0.29389 0.81750 0.93594
 C411 C 0.80084 0.37234 0.35174
 C412 C 0.76924 0.40643 0.36409
 C413 C 0.78502 0.40644 0.41405
 C414 C 0.81694 0.37308 0.40242
 C415 C 0.75347 0.37317 0.42742
 C416 C 0.73759 0.37321 0.37749
 C417 C 0.76901 0.33939 0.36567
 C418 C 0.78503 0.33954 0.41559
 H419 H 0.82041 0.37167 0.32036
 H420 H 0.76280 0.43424 0.34309
 H421 H 0.84976 0.37354 0.41287
 H422 H 0.73348 0.37340 0.45846
 H423 H 0.70467 0.37331 0.36736
 H424 H 0.79138 0.31181 0.43677
 C425 C 0.12441 0.22843 0.87740
 C426 C 0.12375 0.24992 0.92470
 C427 C 0.08814 0.27711 0.90776
 C428 C 0.08866 0.25572 0.86049
 C429 C 0.11875 0.30990 0.89071
 C430 C 0.15469 0.28239 0.90745
 C431 C 0.15551 0.26076 0.86024
 C432 C 0.12012 0.28819 0.84280
 H433 H 0.12681 0.19472 0.87197
 H434 H 0.12541 0.23381 0.95840
 H435 H 0.06115 0.24484 0.84139
 H436 H 0.11599 0.34352 0.89640
 H437 H 0.18211 0.29322 0.92675
 H438 H 0.11891 0.30394 0.80884
 C439 C 0.62580 0.78727 0.34218
 C440 C 0.59362 0.75539 0.35948
 C441 C 0.59312 0.77669 0.40680
 C442 C 0.62454 0.80886 0.39013
 C443 C 0.62807 0.74875 0.42394
 C444 C 0.62868 0.72735 0.37660
 C445 C 0.66050 0.75912 0.35985
 C446 C 0.65980 0.78062 0.40710
 H447 H 0.62509 0.80316 0.30829
 H448 H 0.56603 0.74513 0.34011
 H449 H 0.62237 0.84251 0.39591
 H450 H 0.62908 0.73260 0.45765
 H451 H 0.63048 0.69362 0.37109
 H452 H 0.68729 0.79084 0.42669
 C453 C 0.84563 0.71737 0.90652
 C454 C 0.88150 0.68988 0.88960
 C455 C 0.91223 0.72263 0.90639
 C456 C 0.87665 0.74982 0.92345
 C457 C 0.91144 0.74403 0.85907
 C458 C 0.87994 0.71156 0.84166
 C459 C 0.84463 0.73898 0.85927
 C460 C 0.87577 0.77132 0.87614
 H461 H 0.81830 0.70654 0.92605
 H462 H 0.88431 0.65627 0.89534
 H463 H 0.87517 0.76587 0.95717
 H464 H 0.93888 0.75489 0.83976
 H465 H 0.88105 0.69579 0.80773
 H466 H 0.87334 0.80502 0.87067
 C467 C 0.34025 0.21901 0.40733
 C468 C 0.37548 0.19071 0.39040
 C469 C 0.40693 0.22278 0.40711
 C470 C 0.37200 0.25078 0.42420
 C471 C 0.40662 0.24415 0.35978
 C472 C 0.37440 0.21237 0.34245
 C473 C 0.33973 0.24059 0.36007
 C474 C 0.37159 0.27225 0.37686
 H475 H 0.31268 0.20883 0.42687
 H476 H 0.37755 0.15704 0.39619
 H477 H 0.37095 0.26688 0.45790
 H478 H 0.43428 0.25436 0.34045
 H479 H 0.37516 0.19653 0.30855
 H480 H 0.36988 0.30599 0.37134
 C481 C 0.71629 0.83890 0.91617
 C482 C 0.74777 0.87276 0.92769
 C483 C 0.71592 0.90580 0.91482
 C484 C 0.68409 0.87221 0.90349
 C485 C 0.73129 0.90603 0.86466
 C486 C 0.76322 0.87304 0.87756
 C487 C 0.73189 0.83899 0.86605
 C488 C 0.69977 0.87171 0.85261
 H489 H 0.71026 0.81108 0.93736
 H490 H 0.76805 0.87308 0.95844
 H491 H 0.65136 0.87237 0.91436
 H492 H 0.73741 0.93394 0.84366
 H493 H 0.79606 0.87343 0.86702
 H494 H 0.67994 0.87094 0.82148
 C495 C 0.21284 0.34334 0.41524
 C496 C 0.24494 0.37639 0.42755
 C497 C 0.21413 0.41024 0.41417
 C498 C 0.18167 0.37747 0.40205
 C499 C 0.23030 0.41022 0.36431
 C500 C 0.26121 0.37641 0.37773
 C501 C 0.22924 0.34316 0.36543
 C502 C 0.19816 0.37670 0.35149
 H503 H 0.20578 0.31563 0.43620
 H504 H 0.26467 0.37613 0.45876
 H505 H 0.14879 0.37839 0.41225
 H506 H 0.23745 0.43801 0.34354
 H507 H 0.29420 0.37603 0.36784
 H508 H 0.17882 0.37652 0.31996
 C509 C 0.23569 0.12640 0.87856
 C510 C 0.26714 0.09289 0.86575
 C511 C 0.28259 0.09322 0.91582
 C512 C 0.25124 0.12672 0.92865
 C513 C 0.31491 0.12626 0.90409
 C514 C 0.29909 0.12676 0.85328
 C515 C 0.26745 0.16000 0.86663
 C516 C 0.28318 0.16008 0.91668
 H517 H 0.20283 0.12641 0.86817
 H518 H 0.26056 0.06499 0.84498
 H519 H 0.23094 0.12687 0.95943
 H520 H 0.34766 0.12572 0.91480
 H521 H 0.31884 0.12714 0.82203
 H522 H 0.28965 0.18791 0.93761
 C523 C 0.73928 0.62351 0.37747
 C524 C 0.77025 0.58978 0.36403
 C525 C 0.78629 0.58962 0.41390
 C526 C 0.75541 0.62341 0.42730
 C527 C 0.81875 0.62246 0.40189
 C528 C 0.80240 0.62336 0.35131
 C529 C 0.77124 0.65683 0.36528
 C530 C 0.78752 0.65652 0.41510
 H531 H 0.70631 0.62389 0.36755
 H532 H 0.76319 0.56204 0.34319
 H533 H 0.73560 0.62356 0.45849
 H534 H 0.85161 0.62154 0.41213
 H535 H 0.82182 0.62367 0.31980
 H536 H 0.79448 0.68419 0.43612
 C537 C 0.12817 0.77397 0.87745
 C538 C 0.09287 0.74581 0.86098
 C539 C 0.09268 0.72497 0.90858
 C540 C 0.12782 0.75301 0.92511
 C541 C 0.12381 0.69257 0.89209
 C542 C 0.12486 0.71375 0.84384
 C543 C 0.15978 0.74203 0.86086
 C544 C 0.15930 0.72094 0.90841
 H545 H 0.13005 0.80765 0.87147
 H546 H 0.06521 0.75595 0.84169
 H547 H 0.12919 0.76957 0.95851
 H548 H 0.12158 0.65897 0.89834
 H549 H 0.12391 0.69757 0.81015
 H550 H 0.18688 0.71086 0.92790
 C551 C 0.62146 0.21089 0.34212
 C552 C 0.62001 0.18915 0.39003
 C553 C 0.58910 0.22162 0.40691
 C554 C 0.58979 0.24308 0.35962
 C555 C 0.62452 0.24909 0.42397
 C556 C 0.65573 0.21691 0.40694
 C557 C 0.65662 0.23858 0.35972
 C558 C 0.62530 0.27065 0.37668
 H559 H 0.62044 0.19514 0.30818
 H560 H 0.61739 0.15551 0.39574
 H561 H 0.56230 0.25374 0.34037
 H562 H 0.62588 0.26512 0.45771
 H563 H 0.68311 0.20630 0.42640
 H564 H 0.62756 0.30438 0.37124
 C565 C 0.84087 0.27992 0.90688
 C566 C 0.87252 0.24814 0.92381
 C567 C 0.90754 0.27598 0.90637
 C568 C 0.87620 0.30806 0.88959
 C569 C 0.90693 0.25443 0.85920
 C570 C 0.87181 0.22649 0.87662
 C571 C 0.84007 0.25817 0.85977
 C572 C 0.87483 0.28623 0.84180
 H573 H 0.81343 0.29025 0.92648
 H574 H 0.87150 0.23215 0.95762
 H575 H 0.87848 0.34175 0.89514
 H576 H 0.93447 0.24406 0.83980
 H577 H 0.86989 0.19273 0.87134
 H578 H 0.87555 0.30194 0.80780
 C579 C 0.34418 0.78268 0.40665
 C580 C 0.37536 0.75043 0.42357
 C581 C 0.41081 0.77794 0.40655
 C582 C 0.37992 0.81049 0.38978
 C583 C 0.41015 0.75666 0.35921
 C584 C 0.37461 0.72905 0.37622
 C585 C 0.34331 0.76119 0.35937
 C586 C 0.37850 0.78893 0.34182
 H587 H 0.31678 0.79325 0.42618
 H588 H 0.37396 0.73428 0.45727
 H589 H 0.38256 0.84411 0.39558
 H590 H 0.43765 0.74606 0.33989
 H591 H 0.37234 0.69534 0.37070
 H592 H 0.37956 0.80480 0.30792
 C593 C 0.22863 0.87579 0.12361
 C594 C 0.25623 0.91126 0.14068
 C595 C 0.27749 0.91213 0.09329
 C596 C 0.24999 0.87673 0.07622
 C597 C 0.31006 0.88120 0.10985
 C598 C 0.28852 0.87956 0.15787
 C599 C 0.26080 0.84444 0.14026
 C600 C 0.28227 0.84551 0.09294
 H601 H 0.19493 0.87348 0.12920
 H602 H 0.24562 0.93867 0.16010
 H603 H 0.23382 0.87546 0.04256
 H604 H 0.34368 0.88389 0.10398
 H605 H 0.30440 0.88047 0.19174
 H606 H 0.29283 0.81820 0.07330
 C607 C 0.72720 0.37114 0.62304
 C608 C 0.75524 0.40626 0.64015
 C609 C 0.77669 0.40673 0.59286
 C610 C 0.74875 0.37171 0.57574
 C611 C 0.80875 0.37537 0.60965
 C612 C 0.78702 0.37415 0.65756
 C613 C 0.75887 0.33938 0.63991
 C614 C 0.78052 0.34005 0.59269
 H615 H 0.69345 0.36930 0.62849
 H616 H 0.74496 0.43386 0.65946
 H617 H 0.73268 0.37062 0.54201
 H618 H 0.84243 0.37757 0.60393
 H619 H 0.80281 0.37493 0.69148
 H620 H 0.79076 0.31255 0.57317
 C621 C 0.71778 0.15487 0.09350
 C622 C 0.75005 0.12374 0.07651
 C623 C 0.72275 0.08827 0.09389
 C624 C 0.69019 0.11910 0.11073
 C625 C 0.74429 0.08916 0.14107
 C626 C 0.77169 0.12472 0.12370
 C627 C 0.73953 0.15596 0.14061
 C628 C 0.71201 0.12075 0.15853
 H629 H 0.70703 0.18217 0.07394
 H630 H 0.76601 0.12506 0.04270
 H631 H 0.65654 0.11632 0.10518
 H632 H 0.75508 0.06175 0.16042
 H633 H 0.80542 0.12714 0.12898
 H634 H 0.69632 0.11977 0.19254
 C635 C 0.27217 0.62859 0.62348
 C636 C 0.24409 0.59345 0.64056
 C637 C 0.22283 0.59298 0.59320
 C638 C 0.25081 0.62803 0.57612
 C639 C 0.19068 0.62431 0.60986
 C640 C 0.21222 0.62554 0.65784
 C641 C 0.24042 0.66034 0.64022
 C642 C 0.21896 0.65967 0.59293
 H643 H 0.30590 0.63043 0.62903
 H644 H 0.25432 0.56585 0.65994
 H645 H 0.26700 0.62915 0.54242
 H646 H 0.15703 0.62210 0.60404
 H647 H 0.19630 0.62475 0.69172
 H648 H 0.20877 0.68716 0.57333
 C649 C 0.84462 0.71352 0.08444
 C650 C 0.87760 0.74575 0.07219
 C651 C 0.91151 0.71505 0.08569
 C652 C 0.87882 0.68246 0.09774
 C653 C 0.91125 0.73117 0.13552
 C654 C 0.87740 0.76197 0.12199
 C655 C 0.84421 0.72988 0.13422
 C656 C 0.87781 0.69890 0.14828
 H657 H 0.81700 0.70639 0.06342
 H658 H 0.87738 0.76551 0.04097
 H659 H 0.87990 0.64959 0.08757
 H660 H 0.93896 0.73839 0.15636
 H661 H 0.87687 0.79496 0.13183
 H662 H 0.87758 0.67953 0.17983
 C663 C 0.37212 0.19909 0.64856
 C664 C 0.37280 0.18289 0.59792
 C665 C 0.40620 0.21482 0.58608
 C666 C 0.40626 0.23070 0.63602
 C667 C 0.37295 0.24632 0.57276
 C668 C 0.33928 0.21474 0.58479
 C669 C 0.33920 0.23086 0.63468
 C670 C 0.37307 0.26229 0.62266
 H671 H 0.37146 0.17957 0.67999
 H672 H 0.37317 0.15005 0.58754
 H673 H 0.43409 0.23722 0.65691
 H674 H 0.37318 0.26623 0.54166
 H675 H 0.31153 0.20831 0.56371
 H676 H 0.37324 0.29523 0.63272
 C677 C 0.12362 0.30224 0.14776
 C678 C 0.12290 0.31826 0.09701
 C679 C 0.08994 0.28587 0.08532
 C680 C 0.08991 0.27017 0.13536
 C681 C 0.12360 0.25474 0.07227
 C682 C 0.15684 0.28678 0.08413
 C683 C 0.15697 0.27083 0.13412
 C684 C 0.12352 0.23895 0.12226
 H685 H 0.12397 0.32186 0.17907
 H686 H 0.12215 0.35105 0.08642
 H687 H 0.06209 0.26338 0.15624
 H688 H 0.12373 0.23467 0.04134
 H689 H 0.18457 0.29347 0.06306
 H690 H 0.12372 0.20604 0.13252
 C691 C 0.62744 0.80009 0.64823
 C692 C 0.62682 0.81631 0.59756
 C693 C 0.59347 0.78435 0.58578
 C694 C 0.59335 0.76845 0.63574
 C695 C 0.62677 0.75289 0.57250
 C696 C 0.66039 0.78450 0.58448
 C697 C 0.66042 0.76837 0.63440
 C698 C 0.62660 0.73690 0.62243
 H699 H 0.62803 0.81960 0.67963
 H700 H 0.62643 0.84915 0.58714
 H701 H 0.56549 0.76189 0.65665
 H702 H 0.62661 0.73298 0.54143
 H703 H 0.68816 0.79097 0.56338
 H704 H 0.62645 0.70396 0.63254
   
