data_POSCAR
  _audit_creation_date              2014-09-24
  _audit_creation_method            'ToBaCCo'
  _symmetry_space_group_name_H-M    'P1'
  _symmetry_Int_Tables_number       1
  _symmetry_cell_setting            triclinic
  loop_
  _symmetry_equiv_pos_as_xyz
 x,y,z
_cell_length_a 40.8397
_cell_length_b 38.1490
_cell_length_c 20.0055
_cell_angle_alpha 90.124000
_cell_angle_beta 90.263200
_cell_angle_gamma 89.995000
loop_
  _atom_site_label
  _atom_site_type_symbol
  _atom_site_fract_x
  _atom_site_fract_y
  _atom_site_fract_z
C1 C 0.17890 0.22626 0.22377
 C2 C 0.16591 0.25961 0.21004
 C3 C 0.18151 0.29039 0.23239
 C4 C 0.21058 0.28760 0.27134
 C5 C 0.22624 0.25465 0.27740
 C6 C 0.21092 0.22415 0.25166
 C7 C 0.22853 0.19246 0.25213
 C8 C 0.25940 0.19028 0.28086
 C9 C 0.27485 0.22000 0.30823
 C10 C 0.25732 0.25213 0.30939
 C11 C 0.22426 0.31662 0.30498
 C12 C 0.25340 0.31351 0.34126
 C13 C 0.27056 0.28160 0.34313
 C14 C 0.30029 0.27800 0.37887
 C15 C 0.31782 0.24656 0.37557
 C16 C 0.30660 0.21798 0.33757
 H17 H 0.21887 0.16893 0.22910
 H18 H 0.27057 0.16461 0.28281
 H19 H 0.21209 0.34181 0.30512
 H20 H 0.26265 0.33648 0.36703
 H21 H 0.14267 0.26175 0.18406
 H22 H 0.34157 0.24537 0.39997
 C23 C 0.68728 0.21861 0.30506
 C24 C 0.67273 0.24878 0.33236
 C25 C 0.68855 0.28128 0.33174
 C26 C 0.71945 0.28454 0.30086
 C27 C 0.73561 0.25417 0.27714
 C28 C 0.72007 0.22096 0.28136
 C29 C 0.73855 0.19086 0.26598
 C30 C 0.77041 0.19343 0.24254
 C31 C 0.78556 0.22620 0.23460
 C32 C 0.76778 0.25691 0.25071
 C33 C 0.73475 0.31733 0.29383
 C34 C 0.76535 0.32021 0.26383
 C35 C 0.78220 0.29033 0.24118
 C36 C 0.81335 0.29284 0.21037
 C37 C 0.83113 0.26211 0.19746
 C38 C 0.81813 0.22900 0.21134
 H39 H 0.72901 0.16477 0.27376
 H40 H 0.78288 0.16929 0.23012
 H41 H 0.72295 0.34116 0.31063
 H42 H 0.77605 0.34608 0.26025
 H43 H 0.64829 0.24741 0.35317
 H44 H 0.85545 0.26393 0.17624
 C45 C 0.81261 0.79168 0.79073
 C46 C 0.82904 0.76026 0.80695
 C47 C 0.81498 0.72737 0.79530
 C48 C 0.78261 0.72526 0.77046
 C49 C 0.76649 0.75608 0.74879
 C50 C 0.78196 0.78922 0.75618
 C51 C 0.76743 0.81839 0.72450
 C52 C 0.73717 0.81579 0.69244
 C53 C 0.72049 0.78369 0.68909
 C54 C 0.73529 0.75352 0.71728
 C55 C 0.76610 0.69296 0.76622
 C56 C 0.73517 0.69062 0.73739
 C57 C 0.71966 0.72045 0.71122
 C58 C 0.68912 0.71794 0.67818
 C59 C 0.67435 0.74806 0.65247
 C60 C 0.68990 0.78064 0.65614
 H61 H 0.77974 0.84343 0.72215
 H62 H 0.72705 0.83919 0.66984
 H63 H 0.77691 0.66913 0.78558
 H64 H 0.72361 0.66510 0.73520
 H65 H 0.85290 0.76095 0.83075
 H66 H 0.65156 0.74566 0.62470
 C67 C 0.30737 0.78438 0.65614
 C68 C 0.32625 0.75397 0.66177
 C69 C 0.31465 0.72444 0.69533
 C70 C 0.28291 0.72503 0.72352
 C71 C 0.26389 0.75611 0.72025
 C72 C 0.27615 0.78590 0.68635
 C73 C 0.25673 0.81621 0.68308
 C74 C 0.22659 0.81775 0.71530
 C75 C 0.21482 0.78929 0.75317
 C76 C 0.23245 0.75731 0.75053
 C77 C 0.26956 0.69530 0.75439
 C78 C 0.23830 0.69610 0.78134
 C79 C 0.21869 0.72641 0.77752
 C80 C 0.18615 0.72688 0.80235
 C81 C 0.17094 0.75954 0.81246
 C82 C 0.18520 0.79128 0.79075
 H83 H 0.26482 0.83918 0.65613
 H84 H 0.21231 0.84140 0.70913
 H85 H 0.28288 0.67086 0.75729
 H86 H 0.22985 0.67270 0.80641
 H87 H 0.35037 0.75323 0.63928
 H88 H 0.14751 0.76003 0.83731
 O89 O 0.96851 0.01503 0.08491
 O90 O 1.03046 -0.03851 -0.00037
 O91 O 1.03132 0.01435 0.08260
 O92 O 0.96667 -0.03756 0.00173
 O93 O 0.96616 -0.00061 -0.08324
 O94 O 1.03038 0.05227 -0.00053
 O95 O 1.03134 -0.00050 -0.08356
 O96 O 0.96757 0.05192 0.00009
 Cu97 Cu 0.99930 -0.01561 0.05026
 Cu98 Cu 0.99882 0.02912 -0.05115
 C99 C 0.95790 0.04294 0.05787
 C100 C 1.04196 -0.02817 -0.05568
 C101 C 1.04125 0.04266 0.05616
 C102 C 0.95508 -0.02759 -0.05393
 O103 O 0.53239 0.44462 0.59898
 O104 O 0.47245 0.50814 0.65907
 O105 O 0.46803 0.44421 0.61375
 O106 O 0.53460 0.50868 0.63877
 O107 O 0.52856 0.52530 0.53358
 O108 O 0.46056 0.46370 0.51108
 O109 O 0.46572 0.52824 0.55665
 O110 O 0.52418 0.46135 0.49461
 Cu111 Cu 0.50231 0.47415 0.63786
 Cu112 Cu 0.49365 0.49643 0.51361
 C113 C 0.53940 0.44279 0.53738
 C114 C 0.45952 0.52979 0.61894
 C115 C 0.45270 0.44327 0.55826
 C116 C 0.54329 0.52736 0.58941
 O117 O 0.03410 0.51653 -0.07373
 O118 O -0.03192 0.46443 -0.00042
 O119 O -0.02883 0.51782 -0.07944
 O120 O 0.03222 0.46319 0.00654
 O121 O 0.03208 0.49983 0.09229
 O122 O -0.03096 0.55336 0.00759
 O123 O -0.03272 0.49948 0.08770
 O124 O 0.03234 0.55345 0.01123
 Cu125 Cu 0.00155 0.48664 -0.04500
 Cu126 Cu 0.00008 0.52986 0.05901
 C127 C 0.04405 0.54428 -0.04495
 C128 C -0.04393 0.47340 0.05535
 C129 C -0.04016 0.54506 -0.05114
 C130 C 0.04311 0.47271 0.06319
 O131 O 0.53097 1.00264 0.33578
 O132 O 0.46574 0.94346 0.39007
 O133 O 0.46827 1.00528 0.33786
 O134 O 0.53051 0.94150 0.39033
 O135 O 0.53167 0.96488 0.49136
 O136 O 0.46897 1.02883 0.43870
 O137 O 0.46736 0.96633 0.49150
 O138 O 0.53232 1.02702 0.43589
 Cu139 Cu 0.49870 0.97039 0.35377
 Cu140 Cu 0.50024 0.99892 0.47476
 C141 C 0.54243 1.02540 0.37588
 C142 C 0.45490 0.94519 0.44932
 C143 C 0.45828 1.02830 0.37894
 C144 C 0.54231 0.94282 0.44912
 C145 C 1.12250 0.16061 0.14577
 C146 C 1.12346 0.13488 0.19374
 C147 C 1.14067 0.13842 0.25324
 C148 C 1.15839 0.16941 0.26313
 C149 C 1.15929 0.19606 0.21331
 C150 C 1.13989 0.19188 0.15465
 O151 O 1.10453 0.15174 0.09280
 C152 C 1.09405 0.11973 0.10785
 C153 C 1.10503 0.10827 0.16904
 C154 C 1.09726 0.07554 0.19479
 C155 C 1.07693 0.05380 0.15625
 C156 C 1.06475 0.06504 0.09321
 C157 C 1.07377 0.09849 0.06851
 H158 H 1.14054 0.11802 0.29075
 H159 H 1.17141 0.17268 0.31002
 H160 H 1.13966 0.21144 0.11552
 H161 H 1.10634 0.06713 0.24307
 H162 H 1.07033 0.02840 0.17613
 H163 H 1.06483 0.10798 0.02084
 C164 C 0.63153 0.64084 0.66696
 C165 C 0.64505 0.62318 0.61372
 C166 C 0.67347 0.63417 0.58204
 C167 C 0.68842 0.66486 0.60574
 C168 C 0.67459 0.68388 0.65954
 C169 C 0.64585 0.67168 0.69091
 O170 O 0.60387 0.62649 0.68838
 C171 C 0.59975 0.59935 0.64748
 C172 C 0.62418 0.59638 0.60060
 C173 C 0.62367 0.57138 0.54997
 C174 C 0.59678 0.54859 0.54729
 C175 C 0.57155 0.55084 0.59546
 C176 C 0.57318 0.57629 0.64680
 H177 H 0.68346 0.61995 0.53993
 H178 H 0.71024 0.67444 0.58124
 H179 H 0.63469 0.68620 0.73141
 H180 H 0.64290 0.56998 0.51301
 H181 H 0.59553 0.52917 0.50777
 H182 H 0.55378 0.57888 0.68321
 C183 C -0.12722 0.36654 0.17406
 C184 C -0.14620 0.38730 0.13323
 C185 C -0.17847 0.37920 0.11702
 C186 C -0.19172 0.34841 0.14393
 C187 C -0.17285 0.32671 0.18692
 C188 C -0.14006 0.33602 0.20205
 O189 O -0.09651 0.37773 0.17958
 C190 C -0.09610 0.40615 0.14136
 C191 C -0.12595 0.41318 0.11204
 C192 C -0.13068 0.44053 0.06717
 C193 C -0.10342 0.46117 0.05111
 C194 C -0.07242 0.45419 0.08009
 C195 C -0.06868 0.42658 0.12640
 H196 H -0.19266 0.39550 0.08347
 H197 H -0.21646 0.34101 0.13021
 H198 H -0.12482 0.31953 0.23334
 H199 H -0.15428 0.44521 0.04401
 H200 H -0.10617 0.48201 0.01481
 H201 H -0.04496 0.42029 0.14765
 C202 C 0.36395 0.85508 0.59472
 C203 C 0.35189 0.85980 0.53103
 C204 C 0.32408 0.84267 0.50728
 C205 C 0.30841 0.81919 0.55057
 C206 C 0.32091 0.81324 0.61571
 C207 C 0.34887 0.83167 0.63834
 O208 O 0.39132 0.87287 0.60656
 C209 C 0.39682 0.88899 0.54895
 C210 C 0.37354 0.88163 0.50096
 C211 C 0.37564 0.89387 0.43575
 C212 C 0.40279 0.91460 0.41934
 C213 C 0.42687 0.92304 0.46816
 C214 C 0.42366 0.91025 0.53411
 H215 H 0.31525 0.84658 0.45676
 H216 H 0.28733 0.80462 0.53276
 H217 H 0.35923 0.82686 0.68740
 H218 H 0.35729 0.88728 0.39860
 H219 H 0.40493 0.92435 0.36874
 H220 H 0.44193 0.91587 0.57205
 C221 C -0.12929 0.65862 -0.12849
 C222 C -0.12564 0.63642 -0.18223
 C223 C -0.14020 0.64255 -0.24401
 C224 C -0.15954 0.67270 -0.25059
 C225 C -0.16438 0.69566 -0.19559
 C226 C -0.14868 0.68869 -0.13380
 O227 O -0.11270 0.64827 -0.07477
 C228 C -0.09834 0.61888 -0.09511
 C229 C -0.10559 0.61047 -0.16038
 C230 C -0.09312 0.58093 -0.19203
 C231 C -0.07207 0.55926 -0.15509
 C232 C -0.06374 0.56747 -0.08780
 C233 C -0.07733 0.59774 -0.05741
 H234 H -0.13661 0.62491 -0.28579
 H235 H -0.17085 0.67826 -0.29849
 H236 H -0.15163 0.70604 -0.09134
 H237 H -0.09924 0.57489 -0.24347
 H238 H -0.06197 0.53630 -0.17935
 H239 H -0.07147 0.60486 -0.00633
 C240 C 0.36754 1.14701 0.36840
 C241 C 0.36943 1.13255 0.30558
 C242 C 0.35204 1.14552 0.25126
 C243 C 0.33141 1.17429 0.26234
 C244 C 0.32791 1.18918 0.32731
 C245 C 0.34720 1.17566 0.38063
 O246 O 0.38615 1.13065 0.41310
 C247 C 0.40004 1.10529 0.37760
 C248 C 0.39058 1.10532 0.31156
 C249 C 0.40188 1.08089 0.26553
 C250 C 0.42397 1.05542 0.28845
 C251 C 0.43434 1.05486 0.35635
 C252 C 0.42205 1.08027 0.40150
 H253 H 0.35437 1.13402 0.20201
 H254 H 0.31849 1.18529 0.21989
 H255 H 0.34547 1.18613 0.43084
 H256 H 0.39397 1.08141 0.21383
 H257 H 0.43309 1.03629 0.25309
 H258 H 0.42939 1.08063 0.45357
 C259 C 1.12260 -0.14130 -0.16197
 C260 C 1.14243 -0.11299 -0.14916
 C261 C 1.17628 -0.11466 -0.15390
 C262 C 1.19025 -0.14669 -0.17326
 C263 C 1.17044 -0.17625 -0.19046
 C264 C 1.13585 -0.17307 -0.18354
 O265 O 1.09118 -0.13495 -0.15013
 C266 C 1.09120 -0.10182 -0.12964
 C267 C 1.12193 -0.08701 -0.12901
 C268 C 1.12759 -0.05255 -0.10907
 C269 C 1.10053 -0.03274 -0.08803
 C270 C 1.06890 -0.04790 -0.08600
 C271 C 1.06409 -0.08285 -0.10738
 H272 H 1.19151 -0.09240 -0.14102
 H273 H 1.21669 -0.14860 -0.17255
 H274 H 1.11931 -0.19428 -0.19590
 H275 H 1.15199 -0.04147 -0.10900
 H276 H 1.10431 -0.00607 -0.07095
 H277 H 1.04014 -0.09499 -0.10557
 C278 C 0.62727 0.34815 0.39269
 C279 C 0.64251 0.35886 0.45071
 C280 C 0.67325 0.34688 0.47024
 C281 C 0.68877 0.32241 0.42875
 C282 C 0.67330 0.31033 0.36949
 C283 C 0.64217 0.32350 0.35097
 O284 O 0.59783 0.36237 0.38422
 C285 C 0.59434 0.38227 0.43833
 C286 C 0.62093 0.38073 0.48075
 C287 C 0.62197 0.39798 0.54190
 C288 C 0.59454 0.41778 0.56009
 C289 C 0.56701 0.42044 0.51684
 C290 C 0.56699 0.40260 0.45474
 H291 H 0.68462 0.35562 0.51632
 H292 H 0.71237 0.31198 0.44358
 H293 H 0.62973 0.31418 0.30644
 H294 H 0.64304 0.39601 0.57472
 H295 H 0.59495 0.43158 0.60746
 H296 H 0.54619 0.40399 0.42108
 C297 C 0.87414 -0.13955 -0.16397
 C298 C 0.85389 -0.11308 -0.14275
 C299 C 0.82006 -0.11645 -0.14144
 C300 C 0.80652 -0.14829 -0.16345
 C301 C 0.82665 -0.17587 -0.18856
 C302 C 0.86123 -0.17107 -0.18766
 O303 O 0.90572 -0.13192 -0.15746
 C304 C 0.90538 -0.09984 -0.13169
 C305 C 0.87425 -0.08695 -0.12231
 C306 C 0.86824 -0.05402 -0.09490
 C307 C 0.89542 -0.03382 -0.07547
 C308 C 0.92759 -0.04706 -0.08298
 C309 C 0.93271 -0.08041 -0.11178
 H310 H 0.80464 -0.09569 -0.12226
 H311 H 0.78033 -0.15174 -0.15865
 H312 H 0.87787 -0.19091 -0.20606
 H313 H 0.84354 -0.04447 -0.08778
 H314 H 0.89148 -0.00844 -0.05248
 H315 H 0.95711 -0.09118 -0.11687
 C316 C 0.35393 0.35264 0.43465
 C317 C 0.35063 0.35010 0.50295
 C318 C 0.32907 0.32675 0.53295
 C319 C 0.31082 0.30455 0.49091
 C320 C 0.31446 0.30616 0.42061
 C321 C 0.33592 0.33089 0.39199
 O322 O 0.37696 0.37514 0.41635
 C323 C 0.38857 0.38692 0.47425
 C324 C 0.37345 0.37235 0.52882
 C325 C 0.38325 0.37949 0.59418
 C326 C 0.40957 0.40276 0.60364
 C327 C 0.42531 0.41845 0.54811
 C328 C 0.41444 0.41039 0.48251
 H329 H 0.32720 0.32487 0.58677
 H330 H 0.29489 0.28507 0.51293
 H331 H 0.33981 0.33172 0.33851
 H332 H 0.37131 0.36730 0.63635
 H333 H 0.41753 0.40868 0.65411
 H334 H 0.42619 0.42148 0.43900
 C335 C 0.12962 0.66048 -0.12334
 C336 C 0.13277 0.63391 -0.16932
 C337 C 0.15234 0.63659 -0.22552
 C338 C 0.16983 0.66778 -0.23436
 C339 C 0.16806 0.69562 -0.18682
 C340 C 0.14680 0.69190 -0.13112
 O341 O 0.10932 0.65255 -0.07386
 C342 C 0.09948 0.62028 -0.08919
 C343 C 0.11318 0.60776 -0.14715
 C344 C 0.10616 0.57479 -0.17307
 C345 C 0.08382 0.55391 -0.13816
 C346 C 0.06897 0.56618 -0.07841
 C347 C 0.07722 0.59987 -0.05339
 H348 H 0.15389 0.61552 -0.26169
 H349 H 0.18429 0.67048 -0.27929
 H350 H 0.14455 0.71220 -0.09352
 H351 H 0.11728 0.56558 -0.21888
 H352 H 0.07790 0.52828 -0.15819
 H353 H 0.06622 0.61015 -0.00829
 C354 C 0.63001 1.14600 0.34785
 C355 C 0.63149 1.12646 0.29019
 C356 C 0.65023 1.13616 0.23556
 C357 C 0.66860 1.16708 0.24087
 C358 C 0.66846 1.18748 0.30061
 C359 C 0.64803 1.17689 0.35426
 O360 O 0.61039 1.13226 0.39362
 C361 C 0.59924 1.10340 0.36407
 C362 C 0.61144 1.09868 0.30074
 C363 C 0.60287 1.07040 0.26051
 C364 C 0.58054 1.04611 0.28636
 C365 C 0.56727 1.05043 0.35143
 C366 C 0.57706 1.07948 0.39096
 H367 H 0.65053 1.12063 0.19024
 H368 H 0.68251 1.17548 0.19781
 H369 H 0.64705 1.19150 0.40067
 H370 H 0.61284 1.06727 0.21082
 H371 H 0.57343 1.02407 0.25534
 H372 H 0.56729 1.08371 0.44054
 C373 C 0.12141 0.36252 0.18728
 C374 C 0.14227 0.38696 0.16037
 C375 C 0.17591 0.38187 0.15665
 C376 C 0.18858 0.35025 0.18148
 C377 C 0.16775 0.32482 0.21094
 C378 C 0.13359 0.33128 0.21382
 O379 O 0.09005 0.37135 0.18163
 C380 C 0.09114 0.40206 0.15058
 C381 C 0.12255 0.41291 0.13692
 C382 C 0.12936 0.44375 0.10268
 C383 C 0.10269 0.46403 0.08098
 C384 C 0.07018 0.45299 0.09327
 C385 C 0.06423 0.42172 0.12888
 H386 H 0.19173 0.40108 0.13360
 H387 H 0.21455 0.34522 0.17649
 H388 H 0.11692 0.31219 0.23470
 H389 H 0.15426 0.45159 0.09202
 H390 H 0.10724 0.48779 0.05297
 H391 H 0.03953 0.41256 0.13764
 C392 C 0.63279 0.85125 0.59458
 C393 C 0.64385 0.85481 0.53006
 C394 C 0.67111 0.83705 0.50595
 C395 C 0.68723 0.81409 0.54973
 C396 C 0.67572 0.80920 0.61571
 C397 C 0.64831 0.82825 0.63879
 O398 O 0.60593 0.86982 0.60670
 C399 C 0.59979 0.88518 0.54843
 C400 C 0.62211 0.87655 0.49979
 C401 C 0.61929 0.88793 0.43408
 C402 C 0.59247 0.90930 0.41785
 C403 C 0.56949 0.91924 0.46736
 C404 C 0.57332 0.90712 0.53376
 H405 H 0.67920 0.84014 0.45486
 H406 H 0.70790 0.79906 0.53170
 H407 H 0.63875 0.82424 0.68858
 H408 H 0.63690 0.88033 0.39649
 H409 H 0.58988 0.91857 0.36697
 H410 H 0.55593 0.91400 0.57230
 C411 C 0.87240 0.15903 0.13631
 C412 C 0.87761 0.13813 0.19134
 C413 C 0.86513 0.14603 0.25411
 C414 C 0.84612 0.17646 0.26023
 C415 C 0.83955 0.19787 0.20382
 C416 C 0.85335 0.18932 0.14117
 O417 O 0.88696 0.14705 0.08161
 C418 C 0.90155 0.11793 0.10258
 C419 C 0.89643 0.11123 0.16922
 C420 C 0.90940 0.08212 0.20152
 C421 C 0.92881 0.05916 0.16376
 C422 C 0.93508 0.06580 0.09515
 C423 C 0.92093 0.09558 0.06416
 H424 H 0.86984 0.12936 0.29680
 H425 H 0.83607 0.18321 0.30858
 H426 H 0.84892 0.20543 0.09755
 H427 H 0.90498 0.07740 0.25403
 H428 H 0.93950 0.03665 0.18848
 H429 H 0.92525 0.10150 0.01204
 C430 C 0.36960 0.64852 0.64972
 C431 C 0.37858 0.63699 0.71225
 C432 C 0.36789 0.65290 0.77084
 C433 C 0.34691 0.68183 0.76473
 C434 C 0.33670 0.69374 0.70085
 C435 C 0.34853 0.67706 0.64252
 O436 O 0.38299 0.63004 0.60056
 C437 C 0.40076 0.60626 0.63282
 C438 C 0.39876 0.60937 0.70121
 C439 C 0.41528 0.58726 0.74480
 C440 C 0.43481 0.56090 0.71683
 C441 C 0.43768 0.55719 0.64632
 C442 C 0.42025 0.58030 0.60377
 H443 H 0.37559 0.64352 0.81945
 H444 H 0.33848 0.69496 0.80951
 H445 H 0.34140 0.68601 0.59322
 H446 H 0.41329 0.59025 0.79845
 H447 H 0.44798 0.54364 0.75039
 H448 H 0.42189 0.57826 0.54990
   
