data_POSCAR
  _audit_creation_date              2014-09-24
  _audit_creation_method            'ToBaCCo'
  _symmetry_space_group_name_H-M    'P1'
  _symmetry_Int_Tables_number       1
  _symmetry_cell_setting            triclinic
  loop_
  _symmetry_equiv_pos_as_xyz
 x,y,z
_cell_length_a 55.4268
_cell_length_b 54.3221
_cell_length_c 54.7523
_cell_angle_alpha 89.838400
_cell_angle_beta 89.902600
_cell_angle_gamma 89.785600
loop_
  _atom_site_label
  _atom_site_type_symbol
  _atom_site_fract_x
  _atom_site_fract_y
  _atom_site_fract_z
Si1 Si 0.24608 0.50117 0.99999
 Si2 Si 0.74957 0.49594 0.00148
 Si3 Si -0.00000 0.24893 0.51128
 Si4 Si 1.00068 0.75247 0.49064
 Si5 Si 0.50046 0.00606 0.24946
 Si6 Si 0.49799 -0.00853 0.74853
 C7 C 0.28843 0.02054 0.47074
 H8 H 0.28872 0.03401 0.48525
 C9 C 0.30528 0.02187 0.45181
 H10 H 0.31855 0.03645 0.45183
 C11 C 0.27143 -0.01552 0.45372
 H12 H 0.25849 -0.03030 0.45475
 C13 C 0.28813 -0.01504 0.43460
 H14 H 0.28762 -0.02928 0.42081
 N15 N 0.27185 0.00214 0.47128
 C16 C 0.21301 0.02826 0.51755
 H17 H 0.21142 0.01270 0.52983
 C18 C 0.19670 0.04781 0.51923
 H19 H 0.18248 0.04705 0.53279
 C20 C 0.23279 0.04736 0.48416
 H21 H 0.24658 0.04694 0.47022
 C22 C 0.21690 0.06735 0.48524
 H23 H 0.21903 0.08236 0.47238
 Zn24 Zn 0.25089 0.00029 0.49852
 N25 N 0.23068 0.02841 0.50030
 C26 C 0.26778 0.01332 0.54588
 N27 N 0.27046 -0.00228 0.52668
 C28 C 0.28829 -0.01952 0.52633
 C29 C 0.30443 -0.02150 0.54578
 C30 C 0.28335 0.01179 0.56586
 C31 C 0.21366 -0.02680 0.47781
 C32 C 0.19683 -0.04571 0.47574
 C33 C 0.21508 -0.06565 0.51067
 C34 C 0.23153 -0.04627 0.51214
 N35 N 0.23048 -0.02736 0.49584
 H36 H 0.25374 0.02714 0.54569
 H37 H 0.29024 -0.03143 0.51065
 H38 H 0.31891 -0.03487 0.54470
 H39 H 0.28068 0.02419 0.58107
 H40 H 0.21313 -0.01141 0.46524
 H41 H 0.18353 -0.04491 0.46130
 H42 H 0.21580 -0.08030 0.52411
 H43 H 0.24476 -0.04614 0.52660
 C44 C 0.19847 0.06771 0.50289
 C45 C 0.30537 0.00380 0.43354
 C46 C 0.19727 -0.06537 0.49244
 C47 C 0.30216 -0.00565 0.56592
 C48 C 0.71368 0.01990 0.53377
 H49 H 0.71574 0.03654 0.52308
 C50 C 0.69758 0.01943 0.55341
 H51 H 0.68721 0.03580 0.55767
 C52 C 0.72395 -0.02196 0.54043
 H53 H 0.73375 -0.03825 0.53491
 C54 C 0.70795 -0.02329 0.56012
 H55 H 0.70611 -0.04048 0.56999
 N56 N 0.72669 -0.00050 0.52787
 C57 C 0.77978 0.03541 0.48126
 H58 H 0.77685 0.02526 0.46456
 C59 C 0.79625 0.05474 0.48157
 H60 H 0.80522 0.05970 0.46470
 C61 C 0.77131 0.04101 0.52327
 H62 H 0.76201 0.03512 0.53963
 C63 C 0.78816 0.06006 0.52458
 H64 H 0.79156 0.06851 0.54210
 Zn65 Zn 0.74703 0.00136 0.50012
 N66 N 0.76743 0.02917 0.50180
 C67 C 0.72392 0.02413 0.45933
 N68 N 0.72658 0.00302 0.47250
 C69 C 0.71345 -0.01737 0.46728
 C70 C 0.69727 -0.01727 0.44776
 C71 C 0.70791 0.02507 0.43968
 C72 C 0.78008 -0.03256 0.51889
 C73 C 0.79665 -0.05193 0.51860
 C74 C 0.78851 -0.05746 0.47565
 C75 C 0.77157 -0.03836 0.47694
 N76 N 0.76768 -0.02639 0.49837
 H77 H 0.73383 0.04044 0.46430
 H78 H 0.71547 -0.03373 0.47842
 H79 H 0.68679 -0.03362 0.44410
 H80 H 0.70621 0.04197 0.42928
 H81 H 0.77707 -0.02235 0.53556
 H82 H 0.80564 -0.05684 0.53545
 H83 H 0.79191 -0.06603 0.45816
 H84 H 0.76216 -0.03256 0.46062
 C85 C 0.80101 0.06720 0.50353
 C86 C 0.69452 -0.00240 0.56683
 C87 C 0.80143 -0.06452 0.49668
 C88 C 0.69433 0.00417 0.43366
 C89 C 0.47909 0.21342 1.01989
 H90 H 0.46636 0.21186 1.00502
 C91 C 0.47842 0.19661 1.03920
 H92 H 0.46496 0.18221 1.03925
 C93 C 0.51254 0.23375 1.03757
 H94 H 0.52621 0.24781 1.03658
 C95 C 0.51226 0.21755 1.05744
 H96 H 0.52569 0.21937 1.07166
 N97 N 0.49605 0.23143 1.01933
 C98 C 0.46709 0.28770 0.97044
 H99 H 0.48042 0.28736 0.95599
 C100 C 0.44777 0.30420 0.96922
 H101 H 0.44615 0.31602 0.95336
 C102 C 0.45324 0.27244 1.00850
 H103 H 0.45573 0.26035 1.02400
 C104 C 0.43388 0.28899 1.00826
 H105 H 0.42180 0.28945 1.02379
 Zn106 Zn 0.49692 0.25150 0.99103
 N107 N 0.46936 0.27210 0.98976
 C108 C 0.48110 0.23068 0.94597
 N109 N 0.49807 0.22998 0.96389
 C110 C 0.51575 0.21255 0.96397
 C111 C 0.51682 0.19486 0.94556
 C112 C 0.48166 0.21349 0.92704
 C113 C 0.52506 0.28971 1.00914
 C114 C 0.54438 0.30604 1.01029
 C115 C 0.56155 0.28648 0.97466
 C116 C 0.54189 0.27045 0.97424
 N117 N 0.52425 0.27222 0.99147
 H118 H 0.46676 0.24416 0.94654
 H119 H 0.52881 0.21219 0.97863
 H120 H 0.53094 0.18103 0.94599
 H121 H 0.46778 0.21402 0.91315
 H122 H 0.51062 0.29091 1.02242
 H123 H 0.54484 0.31953 1.02480
 H124 H 0.57523 0.28501 0.96061
 H125 H 0.54063 0.25681 0.95999
 C126 C 0.43093 0.30526 0.98844
 C127 C 0.49523 0.19853 1.05821
 C128 C 0.56296 0.30460 0.99287
 C129 C 0.49954 0.19514 0.92686
 C130 C 0.48128 0.78360 -0.02406
 H131 H 0.46770 0.78460 -0.00988
 C132 C 0.48037 0.79983 -0.04382
 H133 H 0.46580 0.81311 -0.04491
 C134 C 0.51684 0.76504 -0.03969
 H135 H 0.53128 0.75177 -0.03774
 C136 C 0.51660 0.78090 -0.05983
 H137 H 0.53093 0.77968 -0.07323
 N138 N 0.49929 0.76664 -0.02236
 C139 C 0.47007 0.71001 0.02586
 H140 H 0.48317 0.71010 0.04049
 C141 C 0.45079 0.69355 0.02661
 H142 H 0.44901 0.68102 0.04192
 C143 C 0.45697 0.72555 -0.01240
 H144 H 0.45965 0.73775 -0.02777
 C145 C 0.43770 0.70908 -0.01261
 H146 H 0.42544 0.70899 -0.02799
 Zn147 Zn 0.49985 0.74678 0.00603
 N148 N 0.47261 0.72583 0.00672
 C149 C 0.48336 0.76679 0.05134
 N150 N 0.49999 0.76839 0.03312
 C151 C 0.51669 0.78664 0.03283
 C152 C 0.51713 0.80424 0.05134
 C153 C 0.48337 0.78378 0.07044
 C154 C 0.52834 0.70817 -0.01078
 C155 C 0.54740 0.69134 -0.01095
 C156 C 0.56465 0.71240 0.02366
 C157 C 0.54513 0.72878 0.02326
 N158 N 0.52751 0.72637 0.00619
 H159 H 0.46987 0.75252 0.05106
 H160 H 0.52943 0.78777 0.01787
 H161 H 0.53016 0.81899 0.05024
 H162 H 0.47024 0.78182 0.08495
 H163 H 0.51396 0.70658 -0.02401
 H164 H 0.54773 0.67695 -0.02460
 H165 H 0.57831 0.71425 0.03764
 H166 H 0.54391 0.74312 0.03685
 C167 C 0.43444 0.69289 0.00710
 C168 C 0.49827 0.79870 -0.06197
 C169 C 0.56578 0.69322 0.00654
 C170 C 0.50030 0.80300 0.07055
 C171 C 1.03059 0.47126 0.21503
 H172 H 1.01838 0.45576 0.21538
 C173 C 1.05028 0.47123 0.19910
 H174 H 1.05317 0.45565 0.18714
 C175 C 1.04113 0.51083 0.22963
 H176 H 1.03727 0.52636 0.24130
 C177 C 1.06082 0.51174 0.21369
 H178 H 1.07223 0.52788 0.21345
 N179 N 1.02652 0.49076 0.23002
 C180 C 0.97940 0.45854 0.28533
 H181 H 0.96412 0.47093 0.28409
 C182 C 0.97916 0.43924 0.30222
 H183 H 0.96361 0.43685 0.31398
 C184 C 1.01874 0.44739 0.27230
 H185 H 1.03436 0.45098 0.26104
 C186 C 1.01940 0.42807 0.28918
 H187 H 1.03538 0.41662 0.29044
 Zn188 Zn 0.99861 0.49006 0.24990
 N189 N 0.99891 0.46213 0.27066
 C190 C 0.95664 0.46977 0.22786
 N191 N 0.97169 0.48948 0.22865
 C192 C 0.96874 0.50893 0.21324
 C193 C 0.94952 0.50950 0.19682
 C194 C 0.93736 0.46942 0.21147
 C195 C 1.01540 0.51925 0.28766
 C196 C 1.01578 0.53858 0.30438
 C197 C 0.97989 0.55520 0.28543
 C198 C 0.97999 0.53533 0.26926
 N199 N 0.99773 0.51798 0.27052
 H200 H 0.95972 0.45412 0.23967
 H201 H 0.98138 0.52405 0.21375
 H202 H 0.94741 0.52515 0.18470
 H203 H 0.92545 0.45367 0.21113
 H204 H 1.02913 0.50507 0.28842
 H205 H 1.03000 0.53932 0.31789
 H206 H 0.96560 0.56881 0.28434
 H207 H 0.96572 0.53369 0.25598
 C208 C 0.99944 0.42388 0.30443
 C209 C 1.06555 0.49175 0.19819
 C210 C 0.99787 0.55686 0.30335
 C211 C 0.93355 0.48956 0.19581
 C212 C -0.03068 0.49282 0.78968
 H213 H -0.01557 0.48027 0.79140
 C214 C -0.04993 0.49134 0.80608
 H215 H -0.04928 0.47772 0.82053
 C216 C -0.04904 0.52660 0.76943
 H217 H -0.04848 0.54057 0.75540
 C218 C -0.06879 0.52562 0.78528
 H219 H -0.08346 0.53859 0.78280
 N220 N -0.03059 0.51019 0.77176
 C221 C 0.01496 0.48335 0.71260
 H222 H 0.02744 0.49853 0.71089
 C223 C 0.01608 0.46382 0.69612
 H224 H 0.02974 0.46392 0.68196
 C225 C -0.01810 0.46497 0.73309
 H226 H -0.03168 0.46569 0.74724
 C227 C -0.01756 0.44501 0.71707
 H228 H -0.03082 0.43055 0.71905
 Zn229 Zn -0.00298 0.51142 0.75134
 N230 N -0.00186 0.48354 0.73070
 C231 C 0.04366 0.49710 0.76835
 N232 N 0.02440 0.51225 0.77194
 C233 C 0.02358 0.52799 0.79117
 C234 C 0.04249 0.52872 0.80794
 C235 C 0.06319 0.49755 0.78443
 C236 C -0.02130 0.54158 0.71398
 C237 C -0.02138 0.56113 0.69736
 C238 C 0.01541 0.57601 0.71568
 C239 C 0.01459 0.55639 0.73219
 N240 N -0.00354 0.53962 0.73100
 H241 H 0.04394 0.48459 0.75307
 H242 H 0.00792 0.53966 0.79373
 H243 H 0.04093 0.54081 0.82354
 H244 H 0.07850 0.48565 0.78089
 H245 H -0.03517 0.52765 0.71305
 H246 H -0.03541 0.56222 0.68367
 H247 H 0.03010 0.58905 0.71664
 H248 H 0.02877 0.55424 0.74555
 C249 C -0.00036 0.44432 0.69822
 C250 C -0.06940 0.50787 0.80402
 C251 C -0.00268 0.57846 0.69793
 C252 C 0.06272 0.51333 0.80476
 C253 C 0.06817 0.19808 0.50896
 C254 C 0.05865 0.20823 0.48737
 C255 C 0.03876 0.22405 0.48820
 C256 C 0.02809 0.23009 0.51062
 C257 C 0.03772 0.22036 0.53225
 C258 C 0.05768 0.20457 0.53146
 C259 C 0.08827 0.18001 0.50787
 C260 C 0.10723 0.18077 0.52484
 C261 C 0.12588 0.16337 0.52394
 C262 C 0.12590 0.14479 0.50610
 C263 C 0.10691 0.14409 0.48914
 C264 C 0.08835 0.16150 0.48999
 C265 C 0.14534 0.12588 0.50536
 C266 C 0.15436 0.11738 0.48289
 C267 C 0.17180 0.09877 0.48211
 C268 C 0.18072 0.08826 0.50379
 C269 C 0.17204 0.09710 0.52628
 C270 C 0.15455 0.11568 0.52706
 H271 H 0.06650 0.20377 0.46979
 H272 H 0.03145 0.23110 0.47124
 H273 H 0.02944 0.22450 0.54970
 H274 H 0.06441 0.19677 0.54836
 H275 H 0.10777 0.19498 0.53866
 H276 H 0.14042 0.16460 0.53706
 H277 H 0.10610 0.12974 0.47549
 H278 H 0.07374 0.16016 0.47696
 H279 H 0.14788 0.12509 0.46585
 H280 H 0.17788 0.09223 0.46448
 H281 H 0.17876 0.08961 0.54332
 H282 H 0.14783 0.12165 0.54466
 C283 C 0.69497 0.56195 0.00712
 C284 C 0.68677 0.53765 0.00457
 C285 C 0.70309 0.51813 0.00286
 C286 C 0.72801 0.52242 0.00349
 C287 C 0.73632 0.54666 0.00590
 C288 C 0.71997 0.56628 0.00768
 C289 C 0.67734 0.58253 0.00901
 C290 C 0.68128 0.60495 -0.00324
 C291 C 0.66381 0.62361 -0.00270
 C292 C 0.64204 0.62017 0.01002
 C293 C 0.63843 0.59807 0.02286
 C294 C 0.65589 0.57951 0.02241
 C295 C 0.62268 0.63908 0.00921
 C296 C 0.59861 0.63199 0.00555
 C297 C 0.58024 0.64960 0.00461
 C298 C 0.58549 0.67470 0.00742
 C299 C 0.60954 0.68185 0.01117
 C300 C 0.62800 0.66420 0.01191
 H301 H 0.66766 0.53371 0.00361
 H302 H 0.69599 0.49973 0.00101
 H303 H 0.75548 0.55041 0.00665
 H304 H 0.72686 0.58476 0.00987
 H305 H 0.69751 0.60776 -0.01391
 H306 H 0.66697 0.64040 -0.01291
 H307 H 0.62203 0.59512 0.03321
 H308 H 0.65255 0.56270 0.03252
 H309 H 0.59401 0.61279 0.00313
 H310 H 0.56184 0.64352 0.00196
 H311 H 0.61410 0.70109 0.01324
 H312 H 0.64639 0.67015 0.01489
 C313 C 0.93518 -0.19252 0.48770
 C314 C 0.95863 -0.18496 0.48133
 C315 C 0.97794 -0.20148 0.48209
 C316 C 0.97428 -0.22612 0.48871
 C317 C 0.95077 -0.23418 0.49366
 C318 C 0.93146 -0.21749 0.49357
 C319 C 0.91503 -0.17422 0.48876
 C320 C 0.89112 -0.18098 0.48346
 C321 C 0.87235 -0.16372 0.48498
 C322 C 0.87703 -0.13912 0.49140
 C323 C 0.90100 -0.13235 0.49631
 C324 C 0.91961 -0.14967 0.49537
 C325 C 0.85719 -0.12053 0.49311
 C326 C 0.85857 -0.10113 0.51000
 C327 C 0.84066 -0.08305 0.51100
 C328 C 0.82037 -0.08412 0.49564
 C329 C 0.81866 -0.10386 0.47912
 C330 C 0.83691 -0.12168 0.47771
 H331 H 0.96221 -0.16621 0.47572
 H332 H 0.99571 -0.19482 0.47737
 H333 H 0.94739 -0.25328 0.49814
 H334 H 0.91377 -0.22412 0.49868
 H335 H 0.88682 -0.19957 0.47798
 H336 H 0.85413 -0.16980 0.48136
 H337 H 0.90557 -0.11355 0.50079
 H338 H 0.93760 -0.14372 0.50013
 H339 H 0.87352 -0.09981 0.52260
 H340 H 0.84306 -0.06800 0.52365
 H341 H 0.80318 -0.10565 0.46725
 H342 H 0.83525 -0.13611 0.46425
 C343 C 0.29933 0.43492 0.99231
 C344 C 0.30102 0.45548 0.97682
 C345 C 0.28430 0.47466 0.97857
 C346 C 0.26585 0.47378 0.99608
 C347 C 0.26379 0.45309 1.01129
 C348 C 0.28030 0.43364 1.00925
 C349 C 0.31808 0.41551 0.99153
 C350 C 0.31181 0.39058 0.98977
 C351 C 0.32976 0.37241 0.98875
 C352 C 0.35434 0.37880 0.98993
 C353 C 0.36043 0.40383 0.99213
 C354 C 0.34253 0.42196 0.99269
 C355 C 0.37361 0.35959 0.98894
 C356 C 0.39589 0.36461 0.97767
 C357 C 0.41435 0.34706 0.97752
 C358 C 0.41095 0.32375 0.98820
 C359 C 0.38849 0.31851 0.99901
 C360 C 0.37013 0.33624 0.99953
 H361 H 0.31545 0.45677 0.96351
 H362 H 0.28616 0.49052 0.96670
 H363 H 0.24980 0.45209 1.02504
 H364 H 0.27876 0.41801 1.02148
 H365 H 0.29304 0.38523 0.98872
 H366 H 0.32434 0.35342 0.98667
 H367 H 0.37906 0.40949 0.99376
 H368 H 0.34776 0.44106 0.99445
 H369 H 0.39915 0.38216 0.96888
 H370 H 0.43145 0.35203 0.96937
 H371 H 0.38500 0.30066 1.00708
 H372 H 0.35336 0.33174 1.00862
 C373 C 0.93466 0.19418 0.51342
 C374 C 0.93096 0.21923 0.50778
 C375 C 0.95025 0.23579 0.50793
 C376 C 0.97372 0.22755 0.51300
 C377 C 0.97739 0.20279 0.51920
 C378 C 0.95810 0.18638 0.51972
 C379 C 0.91452 0.17605 0.51214
 C380 C 0.91911 0.15154 0.50527
 C381 C 0.90049 0.13438 0.50414
 C382 C 0.87651 0.14129 0.50915
 C383 C 0.87182 0.16585 0.51583
 C384 C 0.89059 0.18294 0.51751
 C385 C 0.85667 0.12287 0.50731
 C386 C 0.83638 0.12402 0.52277
 C387 C 0.81815 0.10633 0.52127
 C388 C 0.81990 0.08672 0.50460
 C389 C 0.84018 0.08565 0.48916
 C390 C 0.85807 0.10361 0.49025
 H391 H 0.91331 0.22601 0.50262
 H392 H 0.94690 0.25491 0.50341
 H393 H 0.99514 0.19589 0.52370
 H394 H 0.96167 0.16753 0.52504
 H395 H 0.93711 0.14550 0.50044
 H396 H 0.90507 0.11559 0.49947
 H397 H 0.85360 0.17204 0.51952
 H398 H 0.88628 0.20151 0.52320
 H399 H 0.83470 0.13835 0.53636
 H400 H 0.80267 0.10813 0.53321
 H401 H 0.84261 0.07068 0.47638
 H402 H 0.87304 0.10229 0.47760
 C403 C 0.30132 0.56595 0.00530
 C404 C 0.30339 0.54499 0.02035
 C405 C 0.28634 0.52616 0.01914
 C406 C 0.26705 0.52771 0.00271
 C407 C 0.26485 0.54849 -0.01233
 C408 C 0.28163 0.56756 -0.01084
 C409 C 0.32001 0.58560 0.00590
 C410 C 0.32658 0.59819 -0.01557
 C411 C 0.34452 0.61617 -0.01520
 C412 C 0.35674 0.62178 0.00657
 C413 C 0.35009 0.60929 0.02808
 C414 C 0.33185 0.59159 0.02779
 C415 C 0.37656 0.64025 0.00672
 C416 C 0.38041 0.65539 0.02717
 C417 C 0.39930 0.67238 0.02737
 C418 C 0.41446 0.67492 0.00698
 C419 C 0.41058 0.66005 -0.01352
 C420 C 0.39199 0.64276 -0.01359
 H421 H 0.31852 0.54277 0.03264
 H422 H 0.28854 0.51008 0.03067
 H423 H 0.25038 0.55004 -0.02544
 H424 H 0.27916 0.58354 -0.02243
 H425 H 0.31819 0.59389 -0.03287
 H426 H 0.34878 0.62567 -0.03205
 H427 H 0.35925 0.61284 0.04515
 H428 H 0.32705 0.58261 0.04478
 H429 H 0.36868 0.65435 0.04296
 H430 H 0.40185 0.68384 0.04332
 H431 H 0.42226 0.66147 -0.02934
 H432 H 0.39001 0.63109 -0.02944
 C433 C 0.06734 -0.19517 0.49153
 C434 C 0.05405 -0.19988 0.51291
 C435 C 0.03467 -0.21620 0.51258
 C436 C 0.02829 -0.22820 0.49095
 C437 C 0.04157 -0.22377 0.46959
 C438 C 0.06108 -0.20750 0.46991
 C439 C 0.08693 -0.17664 0.49159
 C440 C 0.10881 -0.18109 0.47933
 C441 C 0.12707 -0.16337 0.47926
 C442 C 0.12369 -0.14076 0.49124
 C443 C 0.10182 -0.13636 0.50351
 C444 C 0.08368 -0.15411 0.50372
 C445 C 0.14274 -0.12166 0.49086
 C446 C 0.13663 -0.09683 0.48705
 C447 C 0.15437 -0.07866 0.48729
 C448 C 0.17865 -0.08489 0.49145
 C449 C 0.18483 -0.10975 0.49511
 C450 C 0.16706 -0.12797 0.49470
 H451 H 0.05857 -0.19080 0.52987
 H452 H 0.02439 -0.21911 0.52918
 H453 H 0.03649 -0.23225 0.45251
 H454 H 0.07073 -0.20391 0.45307
 H455 H 0.11185 -0.19836 0.46996
 H456 H 0.14368 -0.16717 0.46952
 H457 H 0.09881 -0.11922 0.51311
 H458 H 0.06691 -0.15004 0.51308
 H459 H 0.11807 -0.09145 0.48379
 H460 H 0.14902 -0.05965 0.48468
 H461 H 0.20342 -0.11510 0.49817
 H462 H 0.17226 -0.14695 0.49786
 C463 C 0.69921 0.42738 0.99895
 C464 C 0.70532 0.43999 0.97736
 C465 C 0.72129 0.45983 0.97799
 C466 C 0.73156 0.46722 1.00014
 C467 C 0.72609 0.45428 1.02159
 C468 C 0.71009 0.43448 1.02101
 C469 C 0.68042 0.40798 0.99870
 C470 C 0.66267 0.40735 1.01704
 C471 C 0.64409 0.39010 1.01617
 C472 C 0.64285 0.37304 0.99699
 C473 C 0.66087 0.37331 0.97890
 C474 C 0.67943 0.39067 0.97970
 C475 C 0.62247 0.35545 0.99563
 C476 C 0.62639 0.33074 0.98919
 C477 C 0.60711 0.31423 0.98821
 C478 C 0.58349 0.32211 0.99356
 C479 C 0.57959 0.34691 0.99974
 C480 C 0.59885 0.36336 1.00080
 H481 H 0.69698 0.43519 0.96016
 H482 H 0.72499 0.46989 0.96131
 H483 H 0.73357 0.45992 1.03894
 H484 H 0.70590 0.42497 1.03789
 H485 H 0.66277 0.42063 1.03175
 H486 H 0.63061 0.39014 1.03052
 H487 H 0.66029 0.36048 0.96382
 H488 H 0.69297 0.39061 0.96542
 H489 H 0.64443 0.32407 0.98535
 H490 H 0.61076 0.29518 0.98370
 H491 H 0.56158 0.35372 1.00347
 H492 H 0.59521 0.38241 1.00536
 C493 C 0.49771 0.07087 1.19321
 C494 C 0.51885 0.06638 1.20679
 C495 C 0.51960 0.04756 1.22427
 C496 C 0.49930 0.03284 1.22839
 C497 C 0.47823 0.03719 1.21498
 C498 C 0.47730 0.05622 1.19783
 C499 C 0.49711 0.09013 1.17378
 C500 C 0.48374 0.08643 1.15230
 C501 C 0.48322 0.10430 1.13394
 C502 C 0.49639 0.12623 1.13630
 C503 C 0.50980 0.12996 1.15776
 C504 C 0.51005 0.11220 1.17632
 C505 C 0.49626 0.14493 1.11633
 C506 C 0.49709 0.17027 1.12158
 C507 C 0.49692 0.18771 1.10273
 C508 C 0.49553 0.18020 1.07827
 C509 C 0.49466 0.15497 1.07296
 C510 C 0.49521 0.13754 1.09173
 H511 H 0.53507 0.07690 1.20342
 H512 H 0.53626 0.04410 1.23399
 H513 H 0.46247 0.02579 1.21773
 H514 H 0.46057 0.05936 1.18814
 H515 H 0.47387 0.06953 1.14944
 H516 H 0.47234 0.10091 1.11791
 H517 H 0.52042 0.14646 1.16013
 H518 H 0.52031 0.11586 1.19271
 H519 H 0.49751 0.17669 1.14027
 H520 H 0.49744 0.20709 1.10726
 H521 H 0.49398 0.14872 1.05420
 H522 H 0.49515 0.11823 1.08690
 C523 C 0.00237 0.70282 0.56084
 C524 C 0.02112 0.70203 0.54350
 C525 C 0.02056 0.71723 0.52290
 C526 C 0.00139 0.73368 0.51921
 C527 C -0.01670 0.73551 0.53704
 C528 C -0.01639 0.72003 0.55750
 C529 C 0.00220 0.68542 0.58194
 C530 C -0.00720 0.69252 0.60478
 C531 C -0.00783 0.67585 0.62430
 C532 C 0.00126 0.65187 0.62151
 C533 C 0.01084 0.64479 0.59885
 C534 C 0.01113 0.66128 0.57925
 C535 C 0.00053 0.63405 0.64199
 C536 C 0.02109 0.62012 0.64796
 C537 C 0.02017 0.60251 0.66657
 C538 C -0.00143 0.59822 0.67931
 C539 C -0.02196 0.61230 0.67349
 C540 C -0.02093 0.63023 0.65513
 H541 H 0.03631 0.68966 0.54581
 H542 H 0.03518 0.71604 0.50986
 H543 H -0.03118 0.74871 0.53531
 H544 H -0.03117 0.72122 0.57039
 H545 H -0.01385 0.71104 0.60770
 H546 H -0.01513 0.68177 0.64169
 H547 H 0.01763 0.62627 0.59616
 H548 H 0.01796 0.65490 0.56184
 H549 H 0.03786 0.62285 0.63815
 H550 H 0.03618 0.59175 0.67058
 H551 H -0.03878 0.60939 0.68314
 H552 H -0.03705 0.64065 0.65074
 C553 C 0.49740 0.92342 -0.19925
 C554 C 0.51935 0.93408 -0.20658
 C555 C 0.51958 0.95378 -0.22307
 C556 C 0.49792 0.96303 -0.23258
 C557 C 0.47604 0.95218 -0.22573
 C558 C 0.47577 0.93244 -0.20935
 C559 C 0.49693 0.90394 -0.18015
 C560 C 0.47903 0.90426 -0.16193
 C561 C 0.47907 0.88670 -0.14328
 C562 C 0.49706 0.86843 -0.14229
 C563 C 0.51476 0.86784 -0.16070
 C564 C 0.51471 0.88543 -0.17942
 C565 C 0.49756 0.85045 -0.12180
 C566 C 0.50341 0.82559 -0.12587
 C567 C 0.50372 0.80876 -0.10648
 C568 C 0.49812 0.81645 -0.08263
 C569 C 0.49243 0.84132 -0.07857
 C570 C 0.49218 0.85812 -0.09790
 H571 H 0.53628 0.92785 -0.19885
 H572 H 0.53662 0.96225 -0.22779
 H573 H 0.45908 0.95934 -0.23253
 H574 H 0.45860 0.92447 -0.20431
 H575 H 0.46527 0.91845 -0.16174
 H576 H 0.46498 0.88745 -0.12957
 H577 H 0.52897 0.85412 -0.16035
 H578 H 0.52861 0.88455 -0.19331
 H579 H 0.50737 0.81905 -0.14412
 H580 H 0.50793 0.78966 -0.11020
 H581 H 0.48851 0.84790 -0.06033
 H582 H 0.48810 0.87723 -0.09406
 C583 C 1.00078 0.30042 0.44250
 C584 C 0.98315 0.28195 0.44466
 C585 C 0.98296 0.26609 0.46485
 C586 C 1.00009 0.26871 0.48345
 C587 C 1.01805 0.28662 0.48105
 C588 C 1.01847 0.30225 0.46080
 C589 C 1.00067 0.31791 0.42151
 C590 C 1.00747 0.34260 0.42486
 C591 C 1.00766 0.35906 0.40524
 C592 C 1.00074 0.35135 0.38185
 C593 C 0.99364 0.32682 0.37843
 C594 C 0.99375 0.31022 0.39801
 C595 C 1.00082 0.36903 0.36122
 C596 C 0.98079 0.37103 0.34564
 C597 C 0.98040 0.38870 0.32701
 C598 C 1.00019 0.40439 0.32340
 C599 C 1.02044 0.40196 0.33861
 C600 C 1.02069 0.38456 0.35743
 H601 H 0.96921 0.27999 0.43099
 H602 H 0.96943 0.25186 0.46574
 H603 H 1.03184 0.28858 0.49488
 H604 H 1.03276 0.31572 0.45944
 H605 H 1.01234 0.34937 0.44276
 H606 H 1.01283 0.37799 0.40843
 H607 H 0.98840 0.32041 0.36050
 H608 H 0.98876 0.29129 0.39465
 H609 H 0.96520 0.35936 0.34829
 H610 H 0.96464 0.39014 0.31543
 H611 H 1.03584 0.41398 0.33634
 H612 H 1.03640 0.38325 0.36910
 C613 C 0.49935 0.93876 0.19659
 C614 C 0.47904 0.94415 0.21103
 C615 C 0.47938 0.96398 0.22726
 C616 C 0.49997 0.97876 0.22913
 C617 C 0.52004 0.97375 0.21434
 C618 C 0.51988 0.95369 0.19845
 C619 C 0.49900 0.91796 0.17922
 C620 C 0.51812 0.90098 0.17861
 C621 C 0.51807 0.88165 0.16182
 C622 C 0.49908 0.87913 0.14498
 C623 C 0.47992 0.89621 0.14573
 C624 C 0.47980 0.91529 0.16280
 C625 C 0.49945 0.85909 0.12645
 C626 C 0.47790 0.84796 0.11873
 C627 C 0.47818 0.82979 0.10072
 C628 C 0.50005 0.82196 0.09017
 C629 C 0.52164 0.83275 0.09823
 C630 C 0.52133 0.85118 0.11597
 H631 H 0.46297 0.93294 0.20981
 H632 H 0.46342 0.96792 0.23796
 H633 H 0.53587 0.98534 0.21513
 H634 H 0.53561 0.95012 0.18721
 H635 H 0.53300 0.90256 0.19130
 H636 H 0.53287 0.86860 0.16218
 H637 H 0.46523 0.89522 0.13278
 H638 H 0.46499 0.92836 0.16277
 H639 H 0.46074 0.85324 0.12662
 H640 H 0.46115 0.82222 0.09479
 H641 H 0.53887 0.82696 0.09086
 H642 H 0.53826 0.85952 0.12115
 C643 C 0.00117 0.30566 0.57538
 C644 C 0.02279 0.29690 0.56505
 C645 C 0.02237 0.27943 0.54639
 C646 C 0.00038 0.27018 0.53786
 C647 C -0.02121 0.27851 0.54836
 C648 C -0.02084 0.29607 0.56698
 C649 C 0.00154 0.32537 0.59415
 C650 C -0.01470 0.32504 0.61390
 C651 C -0.01477 0.34405 0.63108
 C652 C 0.00140 0.36382 0.62891
 C653 C 0.01782 0.36398 0.60931
 C654 C 0.01786 0.34503 0.59213
 C655 C 0.00097 0.38438 0.64676
 C656 C 0.00414 0.40881 0.63885
 C657 C 0.00377 0.42819 0.65555
 C658 C 0.00014 0.42364 0.68056
 C659 C -0.00313 0.39925 0.68850
 C660 C -0.00268 0.37983 0.67179
 H661 H 0.04006 0.30365 0.57130
 H662 H 0.03927 0.27347 0.53839
 H663 H -0.03841 0.27192 0.54192
 H664 H -0.03782 0.30269 0.57427
 H665 H -0.02733 0.31004 0.61612
 H666 H -0.02780 0.34348 0.64583
 H667 H 0.03072 0.37877 0.60728
 H668 H 0.03039 0.34604 0.57698
 H669 H 0.00652 0.41300 0.61965
 H670 H 0.00592 0.44682 0.64883
 H671 H -0.00567 0.39516 0.70769
 H672 H -0.00484 0.36121 0.67852
 C673 C 0.49668 0.05874 0.80214
 C674 C 0.49651 0.03444 0.81105
 C675 C 0.49680 0.01453 0.79503
 C676 C 0.49747 0.01838 0.76971
 C677 C 0.49794 0.04257 0.76068
 C678 C 0.49745 0.06258 0.77672
 C679 C 0.49621 0.07982 0.81943
 C680 C 0.50975 0.10120 0.81480
 C681 C 0.51005 0.12048 0.83170
 C682 C 0.49701 0.11866 0.85364
 C683 C 0.48316 0.09754 0.85808
 C684 C 0.48265 0.07842 0.84113
 C685 C 0.49818 0.13843 0.87218
 C686 C 0.50173 0.13247 0.89689
 C687 C 0.50252 0.15093 0.91455
 C688 C 0.49953 0.17574 0.90789
 C689 C 0.49604 0.18175 0.88316
 C690 C 0.49555 0.16326 0.86543
 H691 H 0.49648 0.03075 0.83049
 H692 H 0.49660 -0.00385 0.80265
 H693 H 0.49868 0.04598 0.74120
 H694 H 0.49739 0.08103 0.76920
 H695 H 0.52063 0.10278 0.79844
 H696 H 0.52101 0.13652 0.82794
 H697 H 0.47261 0.09588 0.87467
 H698 H 0.47155 0.06252 0.84502
 H699 H 0.50402 0.11348 0.90254
 H700 H 0.50501 0.14578 0.93350
 H701 H 0.49382 0.20076 0.87756
 H702 H 0.49268 0.16831 0.84650
 C703 C 1.00077 0.69480 0.42716
 C704 C 0.97946 0.70748 0.43343
 C705 C 0.97954 0.72530 0.45181
 C706 C 1.00084 0.73064 0.46445
 C707 C 1.02217 0.71830 0.45808
 C708 C 1.02221 0.70075 0.43950
 C709 C 1.00052 0.67500 0.40839
 C710 C 1.01516 0.65397 0.41114
 C711 C 1.01472 0.63515 0.39384
 C712 C 0.99937 0.63661 0.37346
 C713 C 0.98475 0.65766 0.37066
 C714 C 0.98541 0.67665 0.38783
 C715 C 0.99854 0.61618 0.35540
 C716 C 0.99523 0.62101 0.33035
 C717 C 0.99470 0.60174 0.31346
 C718 C 0.99779 0.57728 0.32121
 C719 C 1.00100 0.57239 0.34617
 C720 C 1.00120 0.59157 0.36308
 H721 H 0.96252 0.70317 0.42464
 H722 H 0.96279 0.73441 0.45640
 H723 H 1.03890 0.72222 0.46743
 H724 H 1.03909 0.69183 0.43483
 H725 H 1.02675 0.65181 0.42689
 H726 H 1.02655 0.61947 0.39643
 H727 H 0.97250 0.65933 0.35537
 H728 H 0.97412 0.69269 0.38491
 H729 H 0.99350 0.63971 0.32369
 H730 H 0.99240 0.60599 0.29426
 H731 H 1.00306 0.55363 0.35263
 H732 H 1.00319 0.58705 0.38224
 C733 C 1.19480 0.49536 0.06769
 C734 C 1.19129 0.48058 0.04692
 C735 C 1.20714 0.48194 0.02711
 C736 C 1.22664 0.49824 0.02752
 C737 C 1.23039 0.51290 0.04815
 C738 C 1.21475 0.51132 0.06815
 C739 C 1.17731 0.49464 0.08838
 C740 C 1.17141 0.51621 0.10127
 C741 C 1.15432 0.51576 0.12006
 C742 C 1.14239 0.49380 0.12626
 C743 C 1.14849 0.47217 0.11356
 C744 C 1.16582 0.47256 0.09500
 C745 C 1.12324 0.49358 0.14541
 C746 C 1.12007 0.47294 0.16067
 C747 C 1.10143 0.47239 0.17790
 C748 C 1.08579 0.49260 0.18053
 C749 C 1.08918 0.51341 0.16569
 C750 C 1.10757 0.51383 0.14821
 H751 H 1.17592 0.46842 0.04564
 H752 H 1.20386 0.47062 0.01122
 H753 H 1.24525 0.52570 0.04888
 H754 H 1.21830 0.52266 0.08396
 H755 H 1.17961 0.53364 0.09654
 H756 H 1.15043 0.53270 0.12968
 H757 H 1.13951 0.45496 0.11758
 H758 H 1.17016 0.45550 0.08578
 H759 H 1.13204 0.45721 0.15941
 H760 H 1.09932 0.45623 0.18933
 H761 H 1.07715 0.52909 0.16714
 H762 H 1.10909 0.52983 0.13649
 C763 C 0.56597 -0.00807 0.69760
 C764 C 0.54969 -0.02783 0.69725
 C765 C 0.52974 -0.02807 0.71287
 C766 C 0.52563 -0.00857 0.72907
 C767 C 0.54233 0.01073 0.73013
 C768 C 0.56224 0.01107 0.71443
 C769 C 0.58634 -0.00712 0.68000
 C770 C 0.59201 0.01497 0.66792
 C771 C 0.61037 0.01566 0.65042
 C772 C 0.62354 -0.00572 0.64464
 C773 C 0.61815 -0.02772 0.65706
 C774 C 0.59972 -0.02842 0.67451
 C775 C 0.64233 -0.00519 0.62524
 C776 C 0.64468 -0.02488 0.60878
 C777 C 0.66179 -0.02409 0.59003
 C778 C 0.67690 -0.00355 0.58724
 C779 C 0.67472 0.01604 0.60380
 C780 C 0.65766 0.01522 0.62262
 H781 H 0.55203 -0.04281 0.68445
 H782 H 0.51751 -0.04348 0.71212
 H783 H 0.54009 0.02566 0.74292
 H784 H 0.57476 0.02628 0.71546
 H785 H 0.58177 0.03160 0.67151
 H786 H 0.61378 0.03281 0.64092
 H787 H 0.62823 -0.04440 0.65335
 H788 H 0.59599 -0.04562 0.68378
 H789 H 0.63288 -0.04067 0.61001
 H790 H 0.66278 -0.03930 0.57732
 H791 H 0.68635 0.03195 0.60231
 H792 H 0.65658 0.03050 0.63523
 C793 C -0.19967 0.50023 0.93319
 C794 C -0.21285 0.52106 0.94058
 C795 C -0.22864 0.51973 0.96046
 C796 C -0.23119 0.49768 0.97357
 C797 C -0.21853 0.47671 0.96583
 C798 C -0.20296 0.47793 0.94577
 C799 C -0.18196 0.50194 0.91297
 C800 C -0.18086 0.48371 0.89488
 C801 C -0.16356 0.48497 0.87631
 C802 C -0.14678 0.50435 0.87560
 C803 C -0.14806 0.52266 0.89369
 C804 C -0.16553 0.52153 0.91207
 C805 C -0.12765 0.50519 0.85649
 C806 C -0.11986 0.52781 0.84678
 C807 C -0.10114 0.52867 0.82968
 C808 C -0.08987 0.50691 0.82163
 C809 C -0.09801 0.48426 0.83095
 C810 C -0.11656 0.48342 0.84824
 H811 H -0.21091 0.53839 0.93094
 H812 H -0.23849 0.53608 0.96560
 H813 H -0.22060 0.45934 0.97529
 H814 H -0.19300 0.46160 0.94048
 H815 H -0.19350 0.46856 0.89502
 H816 H -0.16341 0.47081 0.86244
 H817 H -0.13518 0.53758 0.89404
 H818 H -0.16578 0.53564 0.92601
 H819 H -0.12822 0.54493 0.85242
 H820 H -0.09520 0.54647 0.82314
 H821 H -0.09003 0.46710 0.82491
 H822 H -0.12186 0.46569 0.85551
 C823 C 0.43691 0.00574 0.30573
 C824 C 0.45183 -0.01504 0.30267
 C825 C 0.47065 -0.01478 0.28569
 C826 C 0.47462 0.00601 0.27109
 C827 C 0.45991 0.02681 0.27403
 C828 C 0.44120 0.02669 0.29120
 C829 C 0.41722 0.00564 0.32425
 C830 C 0.39514 0.01763 0.31963
 C831 C 0.37670 0.01750 0.33709
 C832 C 0.37985 0.00516 0.35943
 C833 C 0.40185 -0.00682 0.36409
 C834 C 0.42037 -0.00648 0.34677
 C835 C 0.36029 0.00476 0.37791
 C836 C 0.35430 -0.01728 0.38991
 C837 C 0.33620 -0.01763 0.40769
 C838 C 0.32391 0.00410 0.41402
 C839 C 0.32983 0.02613 0.40196
 C840 C 0.34775 0.02643 0.38395
 H841 H 0.44889 -0.03161 0.31328
 H842 H 0.48208 -0.03089 0.28389
 H843 H 0.46311 0.04336 0.26351
 H844 H 0.43045 0.04321 0.29345
 H845 H 0.39195 0.02681 0.30235
 H846 H 0.35980 0.02667 0.33296
 H847 H 0.40487 -0.01614 0.38134
 H848 H 0.43729 -0.01544 0.35120
 H849 H 0.36357 -0.03427 0.38545
 H850 H 0.33215 -0.03482 0.41686
 H851 H 0.32051 0.04310 0.40641
 H852 H 0.35214 0.04369 0.37508
 C853 C 0.19157 0.50854 0.93514
 C854 C 0.19240 0.52638 0.95373
 C855 C 0.20885 0.52418 0.97293
 C856 C 0.22528 0.50455 0.97358
 C857 C 0.22474 0.48682 0.95508
 C858 C 0.20799 0.48871 0.93611
 C859 C 0.17334 0.51027 0.91519
 C860 C 0.17867 0.50167 0.89153
 C861 C 0.16126 0.50252 0.87310
 C862 C 0.13831 0.51242 0.87777
 C863 C 0.13302 0.52143 0.90116
 C864 C 0.15024 0.52015 0.91973
 C865 C 0.11970 0.51291 0.85846
 C866 C 0.10713 0.53473 0.85315
 C867 C 0.08907 0.53502 0.83537
 C868 C 0.08282 0.51334 0.82285
 C869 C 0.09560 0.49153 0.82822
 C870 C 0.11398 0.49139 0.84566
 H871 H 0.18038 0.54212 0.95350
 H872 H 0.20874 0.53783 0.98731
 H873 H 0.23686 0.47117 0.95548
 H874 H 0.20757 0.47427 0.92255
 H875 H 0.19636 0.49443 0.88714
 H876 H 0.16577 0.49567 0.85510
 H877 H 0.11531 0.52888 0.90522
 H878 H 0.14520 0.52645 0.93777
 H879 H 0.11144 0.55161 0.86266
 H880 H 0.08009 0.55229 0.83140
 H881 H 0.09105 0.47436 0.81941
 H882 H 0.12329 0.47429 0.84967
 C883 C 0.56675 0.00644 0.30209
 C884 C 0.56230 -0.01414 0.28725
 C885 C 0.54287 -0.01417 0.27101
 C886 C 0.52769 0.00642 0.26918
 C887 C 0.53209 0.02702 0.28383
 C888 C 0.55151 0.02710 0.30006
 C889 C 0.58664 0.00604 0.32023
 C890 C 0.60077 0.02707 0.32426
 C891 C 0.61895 0.02687 0.34193
 C892 C 0.62341 0.00563 0.35597
 C893 C 0.60944 -0.01547 0.35176
 C894 C 0.59127 -0.01527 0.33411
 C895 C 0.64218 0.00558 0.37530
 C896 C 0.65701 -0.01514 0.37895
 C897 C 0.67409 -0.01550 0.39769
 C898 C 0.67674 0.00486 0.41323
 C899 C 0.66212 0.02571 0.40939
 C900 C 0.64504 0.02607 0.39064
 H901 H 0.57379 -0.03027 0.28828
 H902 H 0.53950 -0.03054 0.26039
 H903 H 0.52027 0.04292 0.28295
 H904 H 0.55419 0.04307 0.31152
 H905 H 0.59787 0.04365 0.31362
 H906 H 0.62965 0.04329 0.34450
 H907 H 0.61215 -0.03199 0.36255
 H908 H 0.58043 -0.03163 0.33175
 H909 H 0.65551 -0.03105 0.36718
 H910 H 0.68536 -0.03168 0.39993
 H911 H 0.66345 0.04154 0.42128
 H912 H 0.63363 0.04216 0.38855
 C913 C 0.80248 0.49237 0.06797
 C914 C 0.78561 0.51164 0.06615
 C915 C 0.76929 0.51248 0.04672
 C916 C 0.76991 0.49437 0.02853
 C917 C 0.78636 0.47481 0.03065
 C918 C 0.80246 0.47375 0.05023
 C919 C 0.82048 0.49199 0.08793
 C920 C 0.82524 0.47021 0.10095
 C921 C 0.84278 0.46975 0.11926
 C922 C 0.85618 0.49098 0.12473
 C923 C 0.85125 0.51279 0.11171
 C924 C 0.83350 0.51332 0.09363
 C925 C 0.87554 0.49032 0.14356
 C926 C 0.87992 0.51090 0.15844
 C927 C 0.89869 0.51061 0.17544
 C928 C 0.91331 0.48963 0.17819
 C929 C 0.90873 0.46889 0.16372
 C930 C 0.89015 0.46927 0.14649
 H931 H 0.78500 0.52599 0.07983
 H932 H 0.75638 0.52739 0.04604
 H933 H 0.78685 0.46032 0.01717
 H934 H 0.81529 0.45870 0.05119
 H935 H 0.81523 0.45359 0.09708
 H936 H 0.84574 0.45276 0.12922
 H937 H 0.86150 0.52937 0.11505
 H938 H 0.83040 0.53025 0.08361
 H939 H 0.86875 0.52723 0.15708
 H940 H 0.90168 0.52673 0.18663
 H941 H 0.91993 0.45259 0.16530
 H942 H 0.88763 0.45326 0.13507
 C943 C 0.43166 -0.00995 0.69545
 C944 C 0.43674 0.01132 0.70909
 C945 C 0.45611 0.01171 0.72540
 C946 C 0.47110 -0.00896 0.72807
 C947 C 0.46578 -0.03036 0.71492
 C948 C 0.44624 -0.03091 0.69888
 C949 C 0.41158 -0.01015 0.67742
 C950 C 0.41394 -0.02318 0.65536
 C951 C 0.39534 -0.02304 0.63818
 C952 C 0.37408 -0.00964 0.64250
 C953 C 0.37160 0.00337 0.66449
 C954 C 0.39008 0.00299 0.68184
 C955 C 0.35483 -0.00878 0.62379
 C956 C 0.34449 0.01379 0.61684
 C957 C 0.32726 0.01478 0.59826
 C958 C 0.31976 -0.00683 0.58641
 C959 C 0.32976 -0.02949 0.59385
 C960 C 0.34722 -0.03042 0.61221
 H961 H 0.42606 0.02789 0.70683
 H962 H 0.45936 0.02834 0.73558
 H963 H 0.47653 -0.04685 0.71726
 H964 H 0.44250 -0.04786 0.68926
 H965 H 0.43039 -0.03306 0.65106
 H966 H 0.39782 -0.03293 0.62120
 H967 H 0.35525 0.01365 0.66833
 H968 H 0.38742 0.01284 0.69879
 H969 H 0.35028 0.03077 0.62530
 H970 H 0.32033 0.03260 0.59275
 H971 H 0.32408 -0.04655 0.58551
 H972 H 0.35473 -0.04809 0.61747
   
