data_POSCAR
  _audit_creation_date              2014-09-24
  _audit_creation_method            'ToBaCCo'
  _symmetry_space_group_name_H-M    'P1'
  _symmetry_Int_Tables_number       1
  _symmetry_cell_setting            triclinic
  loop_
  _symmetry_equiv_pos_as_xyz
 x,y,z
_cell_length_a 28.5408
_cell_length_b 28.5469
_cell_length_c 28.5792
_cell_angle_alpha 90.331200
_cell_angle_beta 89.700000
_cell_angle_gamma 89.640200
loop_
  _atom_site_label
  _atom_site_type_symbol
  _atom_site_fract_x
  _atom_site_fract_y
  _atom_site_fract_z
C1 C 0.58833 0.37901 0.00108
 C2 C 0.62217 0.41278 0.00338
 C3 C 0.59912 0.45576 0.00232
 N4 N 0.55239 0.44908 -0.00045
 C5 C 0.54559 0.40227 -0.00117
 C6 C 0.62163 0.49981 0.00204
 C7 C 0.59815 0.54371 -0.00044
 C8 C 0.62045 0.58607 -0.00835
 C9 C 0.58637 0.62016 -0.00860
 C10 C 0.54385 0.59802 -0.00083
 N11 N 0.55150 0.55148 0.00481
 C12 C 0.49991 0.62156 0.00118
 C13 C 0.45584 0.59907 0.00142
 C14 C 0.41285 0.62212 0.00218
 C15 C 0.37910 0.58825 0.00001
 C16 C 0.40240 0.54548 -0.00187
 N17 N 0.44920 0.55230 -0.00105
 C18 C 0.38001 0.50144 -0.00318
 C19 C 0.40331 0.45744 -0.00285
 C20 C 0.38073 0.41479 0.00185
 C21 C 0.41483 0.38068 0.00197
 C22 C 0.45757 0.40317 -0.00265
 N23 N 0.45011 0.44991 -0.00640
 C24 C 0.50156 0.37986 -0.00271
 H25 H 0.59456 0.34157 0.00128
 H26 H 0.65954 0.40639 0.00523
 H27 H 0.47514 0.47482 -0.01388
 H28 H 0.65751 0.59185 -0.01386
 H29 H 0.59227 0.65711 -0.01433
 H30 H 0.40643 0.65951 0.00376
 H31 H 0.34165 0.59447 0.00005
 H32 H 0.40876 0.34350 0.00579
 H33 H 0.52697 0.52715 0.01554
 H34 H 0.34349 0.40879 0.00556
 C35 C -0.00107 0.58828 0.62179
 C36 C 0.00134 0.62217 0.58812
 C37 C 0.00136 0.59915 0.54518
 N38 N -0.00088 0.55239 0.55178
 C39 C -0.00232 0.54554 0.59849
 C40 C 0.00180 0.62167 0.50117
 C41 C 0.00024 0.59818 0.45731
 C42 C -0.00660 0.62044 0.41476
 C43 C -0.00659 0.58625 0.38083
 C44 C 0.00025 0.54379 0.40326
 N45 N 0.00515 0.55147 0.44980
 C46 C 0.00181 0.49985 0.37999
 C47 C 0.00143 0.45582 0.40233
 C48 C 0.00134 0.41299 0.37913
 C49 C -0.00109 0.37914 0.41286
 C50 C -0.00228 0.40231 0.45566
 N51 N -0.00075 0.44908 0.44901
 C52 C -0.00338 0.37987 0.49960
 C53 C -0.00263 0.40323 0.54347
 C54 C 0.00301 0.38075 0.58602
 C55 C 0.00304 0.41488 0.62003
 C56 C -0.00258 0.45752 0.59756
 N57 N -0.00684 0.44998 0.55096
 C58 C -0.00333 0.50149 0.62081
 H59 H -0.00155 0.59448 0.65919
 H60 H 0.00261 0.65955 0.59455
 H61 H -0.01541 0.47489 0.52624
 H62 H -0.01165 0.65753 0.40876
 H63 H -0.01164 0.59208 0.34380
 H64 H 0.00254 0.40672 0.34175
 H65 H -0.00165 0.34173 0.40654
 H66 H 0.00741 0.40890 0.65712
 H67 H 0.01495 0.52680 0.47435
 H68 H 0.00736 0.34357 0.59200
 C69 C 0.37921 -0.00141 0.58793
 C70 C 0.41297 -0.00356 0.62180
 C71 C 0.45596 -0.00272 0.59885
 N72 N 0.44930 -0.00020 0.55214
 C73 C 0.40249 0.00054 0.54526
 C74 C 0.50003 -0.00248 0.62140
 C75 C 0.54392 -0.00027 0.59791
 C76 C 0.58636 0.00749 0.62013
 C77 C 0.62039 0.00758 0.58606
 C78 C 0.59816 -0.00014 0.54361
 N79 N 0.55160 -0.00558 0.55129
 C80 C 0.62163 -0.00226 0.49970
 C81 C 0.59912 -0.00253 0.45564
 C82 C 0.62219 -0.00329 0.41273
 C83 C 0.58833 -0.00114 0.37896
 C84 C 0.54554 0.00073 0.40216
 N85 N 0.55235 -0.00009 0.44892
 C86 C 0.50149 0.00201 0.37971
 C87 C 0.45753 0.00167 0.40303
 C88 C 0.41484 -0.00317 0.38053
 C89 C 0.38078 -0.00324 0.41462
 C90 C 0.40333 0.00157 0.45728
 N91 N 0.45005 0.00536 0.44978
 C92 C 0.38007 0.00182 0.50124
 H93 H 0.34176 -0.00152 0.59410
 H94 H 0.40655 -0.00519 0.65912
 H95 H 0.47496 0.01298 0.47478
 H96 H 0.59223 0.01301 0.65714
 H97 H 0.65739 0.01316 0.59193
 H98 H 0.65960 -0.00484 0.40637
 H99 H 0.59458 -0.00118 0.34157
 H100 H 0.34359 -0.00712 0.40858
 H101 H 0.52721 -0.01619 0.52677
 H102 H 0.40878 -0.00699 0.34335
 O103 O 0.46206 -0.00086 -0.06504
 O104 O 0.46224 0.00018 0.06394
 O105 O 0.46226 0.06415 -0.00070
 O106 O 0.46203 -0.06483 -0.00038
 O107 O 0.53931 -0.06546 -0.00091
 O108 O 0.53953 0.06353 -0.00121
 O109 O 0.53951 -0.00045 0.06343
 O110 O 0.53933 -0.00147 -0.06556
 Cu111 Cu 0.45442 -0.00028 -0.00050
 Cu112 Cu 0.54715 -0.00103 -0.00112
 C113 C 0.50067 -0.00132 -0.08741
 C114 C 0.50090 0.00003 0.08580
 C115 C 0.50093 0.08595 -0.00102
 C116 C 0.50063 -0.08726 -0.00057
 O117 O -0.06536 0.53917 1.00134
 O118 O 0.06364 0.53940 1.00001
 O119 O -0.00121 0.53939 0.93635
 O120 O -0.00052 0.53917 1.06503
 O121 O 0.00012 0.46190 1.06444
 O122 O -0.00059 0.46212 0.93576
 O123 O 0.06427 0.46213 0.99942
 O124 O -0.06473 0.46190 1.00077
 Cu125 Cu -0.00092 0.54704 1.00074
 Cu126 Cu -0.00017 0.45426 1.00005
 C127 C -0.08716 0.50049 1.00125
 C128 C 0.08606 0.50081 0.99948
 C129 C -0.00104 0.50079 0.91400
 C130 C -0.00007 0.50050 1.08679
 O131 O 0.00037 -0.06536 0.46192
 O132 O -0.00087 0.06360 0.46172
 O133 O 0.06426 -0.00065 0.46194
 O134 O -0.06476 -0.00111 0.46175
 O135 O -0.06528 -0.00052 0.53893
 O136 O 0.06373 -0.00008 0.53912
 O137 O -0.00139 0.06419 0.53889
 O138 O -0.00016 -0.06479 0.53910
 Cu139 Cu -0.00020 -0.00094 0.45410
 Cu140 Cu -0.00083 -0.00024 0.54674
 C141 C 0.00030 -0.08718 0.50054
 C142 C -0.00133 0.08600 0.50027
 C143 C 0.08611 -0.00027 0.50056
 C144 C -0.08713 -0.00090 0.50031
 C145 C -0.23766 0.50021 1.00205
 C146 C -0.21344 0.54267 1.00210
 C147 C -0.16446 0.54282 1.00191
 C148 C -0.33029 0.49998 1.00210
 C149 C -0.16376 0.45788 1.00163
 C150 C -0.21274 0.45784 1.00183
 C151 C -0.28804 0.50010 1.00211
 C152 C -0.13904 0.50040 1.00164
 H153 H -0.23243 0.57566 1.00226
 H154 H -0.14652 0.57613 1.00191
 H155 H -0.14528 0.42464 1.00142
 H156 H -0.23118 0.42478 1.00178
 C157 C 0.23656 0.50109 0.99798
 C158 C 0.21165 0.54346 0.99849
 C159 C 0.16266 0.54342 0.99897
 C160 C 0.32919 0.50129 0.99720
 C161 C 0.16336 0.45848 0.99842
 C162 C 0.21235 0.45863 0.99794
 C163 C 0.28695 0.50119 0.99754
 C164 C 0.13795 0.50090 0.99894
 H165 H 0.23009 0.57652 0.99854
 H166 H 0.14418 0.57666 0.99937
 H167 H 0.14542 0.42517 0.99838
 H168 H 0.23133 0.42563 0.99756
 C169 C 0.00135 -0.23765 0.50078
 C170 C 0.00105 -0.21277 0.54311
 C171 C 0.00074 -0.16380 0.54308
 C172 C 0.00169 -0.33026 0.50099
 C173 C 0.00106 -0.16443 0.45824
 C174 C 0.00136 -0.21340 0.45837
 C175 C 0.00156 -0.28802 0.50087
 C176 C 0.00073 -0.13906 0.50062
 H177 H 0.00102 -0.23124 0.57613
 H178 H 0.00048 -0.14535 0.57630
 H179 H 0.00106 -0.14647 0.42497
 H180 H 0.00158 -0.23235 0.42541
 C181 C -0.00254 0.23647 0.49998
 C182 C -0.00215 0.21158 0.45766
 C183 C -0.00177 0.16260 0.45771
 C184 C -0.00311 0.32907 0.49977
 C185 C -0.00220 0.16326 0.54254
 C186 C -0.00257 0.21224 0.54240
 C187 C -0.00287 0.28684 0.49988
 C188 C -0.00179 0.13788 0.50017
 H189 H -0.00212 0.23003 0.42464
 H190 H -0.00146 0.14414 0.42450
 H191 H -0.00222 0.14531 0.57582
 H192 H -0.00286 0.23120 0.57535
 C193 C 0.50044 -0.00210 -0.23789
 C194 C 0.54289 -0.00216 -0.21360
 C195 C 0.54302 -0.00195 -0.16465
 C196 C 0.50022 -0.00237 -0.33052
 C197 C 0.45809 -0.00160 -0.16407
 C198 C 0.45806 -0.00182 -0.21302
 C199 C 0.50035 -0.00226 -0.28828
 C200 C 0.50059 -0.00165 -0.13929
 H201 H 0.57590 -0.00237 -0.23250
 H202 H 0.57633 -0.00198 -0.14669
 H203 H 0.42483 -0.00137 -0.14566
 H204 H 0.42499 -0.00177 -0.23147
 C205 C 0.50112 0.00106 0.23627
 C206 C 0.45867 0.00119 0.21198
 C207 C 0.45855 0.00087 0.16303
 C208 C 0.50132 0.00167 0.32889
 C209 C 0.54348 0.00027 0.16246
 C210 C 0.54350 0.00060 0.21141
 C211 C 0.50121 0.00139 0.28667
 C212 C 0.50098 0.00041 0.13768
 H213 H 0.42566 0.00155 0.23088
 H214 H 0.42523 0.00098 0.14507
 H215 H 0.57674 -0.00009 0.14405
 H216 H 0.57657 0.00049 0.22986
 C217 C 0.50034 -0.23774 0.00025
 C218 C 0.45797 -0.21282 0.00051
 C219 C 0.45801 -0.16385 0.00021
 C220 C 0.50010 -0.33036 0.00087
 C221 C 0.54296 -0.16455 -0.00063
 C222 C 0.54281 -0.21353 -0.00034
 C223 C 0.50023 -0.28812 0.00059
 C224 C 0.50053 -0.13914 -0.00035
 H225 H 0.42489 -0.23125 0.00095
 H226 H 0.42476 -0.14536 0.00044
 H227 H 0.57628 -0.14663 -0.00107
 H228 H 0.57581 -0.23251 -0.00055
 C229 C 0.50120 0.23643 -0.00169
 C230 C 0.45873 0.21221 -0.00127
 C231 C 0.45859 0.16324 -0.00102
 C232 C 0.50141 0.32904 -0.00232
 C233 C 0.54354 0.16255 -0.00159
 C234 C 0.54358 0.21152 -0.00184
 C235 C 0.50130 0.28682 -0.00202
 C236 C 0.50102 0.13783 -0.00120
 H237 H 0.42573 0.23119 -0.00115
 H238 H 0.42527 0.14530 -0.00072
 H239 H 0.57680 0.14407 -0.00173
 H240 H 0.57665 0.22996 -0.00216
 C241 C -0.23764 -0.00160 0.50009
 C242 C -0.21336 -0.00102 0.54249
 C243 C -0.16437 -0.00078 0.54262
 C244 C -0.33028 -0.00205 0.49988
 C245 C -0.16380 -0.00168 0.45778
 C246 C -0.21278 -0.00193 0.45776
 C247 C -0.28803 -0.00185 0.50000
 C248 C -0.13902 -0.00111 0.50023
 H249 H -0.23230 -0.00075 0.57545
 H250 H -0.14639 -0.00034 0.57588
 H251 H -0.14536 -0.00195 0.42456
 H252 H -0.23127 -0.00237 0.42474
 C253 C 0.23662 0.00063 0.50084
 C254 C 0.21235 0.00012 0.45843
 C255 C 0.16337 -0.00020 0.45828
 C256 C 0.32924 0.00138 0.50106
 C257 C 0.16276 0.00046 0.54312
 C258 C 0.21174 0.00079 0.54316
 C259 C 0.28701 0.00103 0.50094
 C260 C 0.13800 -0.00002 0.50065
 H261 H 0.23130 -0.00001 0.42547
 H262 H 0.14540 -0.00057 0.42501
 H263 H 0.14431 0.00061 0.57633
 H264 H 0.23021 0.00118 0.57619
 C265 C 0.00096 0.50022 1.23692
 C266 C 0.00033 0.54269 1.21276
 C267 C -0.00001 0.54284 1.16387
 C268 C 0.00155 0.50001 1.32931
 C269 C 0.00087 0.45788 1.16321
 C270 C 0.00122 0.45785 1.21210
 C271 C 0.00129 0.50012 1.28717
 C272 C 0.00026 0.50041 1.13855
 H273 H 0.00011 0.57568 1.23171
 H274 H -0.00049 0.57615 1.14594
 H275 H 0.00110 0.42464 1.14477
 H276 H 0.00169 0.42479 1.23054
 C277 C -0.00222 0.50107 0.76388
 C278 C -0.00162 0.45860 0.78804
 C279 C -0.00121 0.45845 0.83693
 C280 C -0.00297 0.50129 0.67149
 C281 C -0.00198 0.54341 0.83758
 C282 C -0.00239 0.54344 0.78869
 C283 C -0.00264 0.50117 0.71363
 C284 C -0.00140 0.50088 0.86225
 H285 H -0.00147 0.42561 0.76909
 H286 H -0.00076 0.42514 0.85486
 H287 H -0.00214 0.57665 0.85602
 H288 H -0.00284 0.57650 0.77025
   
