data_POSCAR
  _audit_creation_date              2014-09-24
  _audit_creation_method            'ToBaCCo'
  _symmetry_space_group_name_H-M    'P1'
  _symmetry_Int_Tables_number       1
  _symmetry_cell_setting            triclinic
  loop_
  _symmetry_equiv_pos_as_xyz
 x,y,z
_cell_length_a 58.9243
_cell_length_b 58.9251
_cell_length_c 48.6277
_cell_angle_alpha 90.034500
_cell_angle_beta 89.919100
_cell_angle_gamma 90.799800
loop_
  _atom_site_label
  _atom_site_type_symbol
  _atom_site_fract_x
  _atom_site_fract_y
  _atom_site_fract_z
O1 O 0.02558 0.29024 -0.02926
 O2 O -0.01859 0.29034 0.02457
 O3 O 0.02585 0.29055 0.02419
 O4 O -0.01886 0.29004 -0.02887
 O5 O -0.01902 0.25259 -0.02860
 O6 O 0.02526 0.25310 0.02449
 O7 O -0.01874 0.25294 0.02493
 O8 O 0.02501 0.25280 -0.02902
 Cu9 Cu 0.00353 0.29406 -0.00237
 Cu10 Cu 0.00309 0.24913 -0.00203
 C11 C 0.03288 0.27146 -0.03830
 C12 C -0.02630 0.27162 0.03399
 C13 C 0.03320 0.27185 0.03338
 C14 C -0.02661 0.27118 -0.03776
 O15 O 0.52104 0.79025 0.47391
 O16 O 0.47662 0.79035 0.52736
 O17 O 0.52104 0.78997 0.52730
 O18 O 0.47662 0.79046 0.47387
 O19 O 0.47606 0.75302 0.47360
 O20 O 0.52001 0.75253 0.52714
 O21 O 0.47597 0.75290 0.52716
 O22 O 0.52010 0.75281 0.47364
 Cu23 Cu 0.49889 0.79403 0.50063
 Cu24 Cu 0.49795 0.74908 0.50036
 C25 C 0.52822 0.77148 0.46470
 C26 C 0.46868 0.77162 0.53637
 C27 C 0.52814 0.77112 0.53630
 C28 C 0.46874 0.77178 0.46462
 O29 O 0.97558 0.71266 -0.02736
 O30 O 1.02039 0.71250 0.02557
 O31 O 0.97603 0.71163 0.02630
 O32 O 1.01978 0.71343 -0.02788
 O33 O 1.01873 0.75079 -0.02776
 O34 O 0.97675 0.74904 0.02830
 O35 O 1.02059 0.74994 0.02595
 O36 O 0.97440 0.74996 -0.02479
 Cu37 Cu 0.99796 0.70880 -0.00096
 Cu38 Cu 0.99767 0.75368 0.00042
 C39 C 0.96700 0.73136 -0.03482
 C40 C 1.02819 0.73124 0.03475
 C41 C 0.96904 0.73005 0.03672
 C42 C 1.02669 0.73243 -0.03728
 O43 O 0.48055 0.20991 0.46998
 O44 O 0.52530 0.20884 0.52288
 O45 O 0.48089 0.20856 0.52356
 O46 O 0.52477 0.21036 0.46944
 O47 O 0.52424 0.24778 0.47023
 O48 O 0.48192 0.24596 0.52588
 O49 O 0.52578 0.24628 0.52388
 O50 O 0.47992 0.24729 0.47280
 Cu51 Cu 0.50287 0.20565 0.49631
 Cu52 Cu 0.50306 0.25058 0.49825
 C53 C 0.47235 0.22880 0.46272
 C54 C 0.53323 0.22741 0.53236
 C55 C 0.47398 0.22699 0.53406
 C56 C 0.53194 0.22941 0.46049
 O57 O 0.71177 -0.02397 0.03038
 O58 O 0.71121 0.02013 -0.02339
 O59 O 0.71061 -0.02426 -0.02304
 O60 O 0.71217 0.02035 0.03018
 O61 O 0.74958 0.02138 0.02760
 O62 O 0.74804 -0.02448 -0.02362
 O63 O 0.74855 0.01933 -0.02549
 O64 O 0.74920 -0.02300 0.03000
 Cu65 Cu 0.70767 -0.00195 0.00368
 Cu66 Cu 0.75259 -0.00174 0.00213
 C67 C 0.73063 -0.03099 0.03942
 C68 C 0.72981 0.02723 -0.03382
 C69 C 0.72910 -0.03205 -0.03235
 C70 C 0.73117 0.02878 0.03755
 O71 O 0.21096 0.52050 0.47368
 O72 O 0.21226 0.47609 0.52706
 O73 O 0.21098 0.52040 0.52741
 O74 O 0.21209 0.47626 0.47367
 O75 O 0.24951 0.47807 0.47333
 O76 O 0.24843 0.52225 0.52675
 O77 O 0.24968 0.47797 0.52711
 O78 O 0.24841 0.52229 0.47402
 Cu79 Cu 0.20781 0.49815 0.50049
 Cu80 Cu 0.25277 0.50016 0.50031
 C81 C 0.22950 0.52917 0.46503
 C82 C 0.23123 0.46939 0.53615
 C83 C 0.22953 0.52911 0.53592
 C84 C 0.23101 0.46960 0.46433
 O85 O 0.28962 1.02208 0.02762
 O86 O 0.28981 0.97805 -0.02641
 O87 O 0.28987 1.02250 -0.02586
 O88 O 0.28979 0.97765 0.02701
 O89 O 0.25234 0.97732 0.02698
 O90 O 0.25247 1.02178 -0.02600
 O91 O 0.25236 0.97777 -0.02651
 O92 O 0.25222 1.02132 0.02758
 Cu93 Cu 0.29353 1.00014 0.00059
 Cu94 Cu 0.24862 0.99951 0.00050
 C95 C 0.27084 1.02927 0.03689
 C96 C 0.27105 0.97037 -0.03565
 C97 C 0.27115 1.02986 -0.03503
 C98 C 0.27101 0.96980 0.03600
 O99 O 0.79171 0.47691 0.47699
 O100 O 0.79061 0.52042 0.53148
 O101 O 0.79126 0.47608 0.53040
 O102 O 0.79103 0.52130 0.47799
 O103 O 0.75359 0.52007 0.47757
 O104 O 0.75381 0.47523 0.53008
 O105 O 0.75317 0.51922 0.53113
 O106 O 0.75426 0.47607 0.47655
 Cu107 Cu 0.79492 0.49880 0.50425
 Cu108 Cu 0.74997 0.49755 0.50378
 C109 C 0.77313 0.46903 0.46749
 C110 C 0.77167 0.52724 0.54064
 C111 C 0.77253 0.46792 0.53918
 C112 C 0.77224 0.52841 0.46882
 O113 O 0.23704 0.26435 0.21496
 O114 O 0.28700 0.25182 0.25768
 O115 O 0.26695 0.23218 0.21626
 O116 O 0.25745 0.28414 0.25651
 O117 O 0.23488 0.26499 0.28464
 O118 O 0.24538 0.21276 0.24525
 O119 O 0.26487 0.23334 0.28699
 O120 O 0.21540 0.24444 0.24337
 Cu121 Cu 0.26427 0.26008 0.23344
 Cu122 Cu 0.23797 0.23691 0.26793
 C123 C 0.21770 0.25626 0.22170
 C124 C 0.28435 0.24075 0.27989
 C125 C 0.25775 0.21359 0.22383
 C126 C 0.24463 0.28345 0.27754
 O127 O 0.75640 0.78461 0.24808
 O128 O 0.76643 0.73358 0.28973
 O129 O 0.78697 0.75351 0.24855
 O130 O 0.73543 0.76472 0.28901
 O131 O 0.71522 0.74406 0.25990
 O132 O 0.76670 0.73285 0.21951
 O133 O 0.74597 0.71311 0.26068
 O134 O 0.73594 0.76418 0.21899
 Cu135 Cu 0.76332 0.76115 0.27181
 Cu136 Cu 0.73894 0.73651 0.23681
 C137 C 0.74461 0.78311 0.22629
 C138 C 0.75780 0.71464 0.28244
 C139 C 0.78562 0.74140 0.22698
 C140 C 0.71652 0.75616 0.28147
 O141 O 0.78823 0.24720 0.24070
 O142 O 0.73591 0.23728 0.28054
 O143 O 0.75557 0.21713 0.23959
 O144 O 0.76843 0.26761 0.28190
 O145 O 0.74894 0.28874 0.25317
 O146 O 0.73763 0.23872 0.20983
 O147 O 0.71692 0.25825 0.25115
 O148 O 0.76963 0.26933 0.21222
 Cu149 Cu 0.76396 0.24020 0.26362
 Cu150 Cu 0.74137 0.26587 0.22866
 C151 C 0.78789 0.25987 0.21958
 C152 C 0.71747 0.24610 0.27273
 C153 C 0.74469 0.21940 0.21725
 C154 C 0.76055 0.28675 0.27500
 O155 O 0.24946 0.71490 0.25949
 O156 O 0.26257 0.76534 0.21709
 O157 O 0.28206 0.74512 0.25851
 O158 O 0.23028 0.73475 0.21796
 O159 O 0.21084 0.75577 0.24695
 O160 O 0.26299 0.76713 0.28675
 O161 O 0.24270 0.78643 0.24556
 O162 O 0.23099 0.73653 0.28880
 Cu163 Cu 0.25805 0.73790 0.23537
 Cu164 Cu 0.23491 0.76356 0.26991
 C165 C 0.23829 0.71722 0.28165
 C166 C 0.25457 0.78447 0.22390
 C167 C 0.28141 0.75783 0.27961
 C168 C 0.21172 0.74358 0.22541
 O169 O 0.71540 0.24983 0.74471
 O170 O 0.76663 0.26108 0.78610
 O171 O 0.74648 0.28123 0.74530
 O172 O 0.73514 0.22951 0.78573
 O173 O 0.75567 0.20972 0.75657
 O174 O 0.76691 0.26145 0.71602
 O175 O 0.78687 0.24112 0.75681
 O176 O 0.73566 0.22979 0.71552
 Cu177 Cu 0.73889 0.25737 0.76845
 Cu178 Cu 0.76330 0.23353 0.73328
 C179 C 0.71681 0.23808 0.72288
 C180 C 0.78551 0.25293 0.77860
 C181 C 0.75846 0.28017 0.72361
 C182 C 0.74361 0.21079 0.77819
 O183 O 0.28034 0.74612 0.74112
 O184 O 0.22792 0.73661 0.78092
 O185 O 0.24747 0.71625 0.73994
 O186 O 0.26073 0.76666 0.78227
 O187 O 0.24149 0.78795 0.75347
 O188 O 0.22963 0.73797 0.71024
 O189 O 0.20914 0.75783 0.75159
 O190 O 0.26188 0.76830 0.71256
 Cu191 Cu 0.25599 0.73927 0.76400
 Cu192 Cu 0.23362 0.76512 0.72903
 C193 C 0.28009 0.75878 0.71999
 C194 C 0.20959 0.74569 0.77317
 C195 C 0.23661 0.71860 0.71759
 C196 C 0.25311 0.78589 0.77528
 O197 O 0.21814 0.24334 0.75453
 O198 O 0.26951 0.23177 0.71397
 O199 O 0.24857 0.21216 0.75514
 O200 O 0.23885 0.26326 0.71350
 O201 O 0.25949 0.28358 0.74253
 O202 O 0.26927 0.23245 0.78414
 O203 O 0.28994 0.25230 0.74300
 O204 O 0.23856 0.26385 0.78358
 Cu205 Cu 0.24175 0.23561 0.73132
 Cu206 Cu 0.26636 0.26007 0.76626
 C207 C 0.21958 0.25542 0.77612
 C208 C 0.28850 0.24019 0.72143
 C209 C 0.26042 0.21359 0.77690
 C210 C 0.24762 0.28215 0.72080
 O211 O 0.73193 0.76253 0.71818
 O212 O 0.78186 0.75102 0.76138
 O213 O 0.76230 0.73085 0.72008
 O214 O 0.75177 0.78282 0.75972
 O215 O 0.72923 0.76358 0.78778
 O216 O 0.74105 0.71122 0.74919
 O217 O 0.75982 0.73261 0.79089
 O218 O 0.71044 0.74235 0.74648
 Cu219 Cu 0.75910 0.75878 0.73693
 Cu220 Cu 0.73297 0.73544 0.77144
 C221 C 0.71268 0.75414 0.72477
 C222 C 0.77924 0.74019 0.78377
 C223 C 0.75349 0.71213 0.72784
 C224 C 0.73879 0.78210 0.78060
 C225 C 0.26971 0.08085 0.09767
 C226 C 0.29040 0.07378 0.08637
 C227 C 0.29087 0.05651 0.06662
 C228 C 0.27058 0.04615 0.05735
 C229 C 0.24989 0.05328 0.06882
 C230 C 0.24950 0.07027 0.08884
 C231 C 0.26906 0.09948 0.11811
 N232 N 0.25031 0.10266 0.13384
 N233 N 0.24939 0.11982 0.15162
 C234 C 0.26713 0.13461 0.15432
 N235 N 0.28593 0.13138 0.13867
 N236 N 0.28691 0.11413 0.12099
 C237 C 0.26562 0.15427 0.17320
 C238 C 0.28050 0.17298 0.17034
 C239 C 0.27813 0.19213 0.18702
 C240 C 0.26106 0.19286 0.20720
 C241 C 0.24661 0.17390 0.21061
 C242 C 0.24877 0.15487 0.19367
 H243 H 0.30628 0.08155 0.09285
 H244 H 0.30715 0.05155 0.05837
 H245 H 0.23388 0.04575 0.06239
 H246 H 0.23326 0.07539 0.09705
 H247 H 0.29363 0.17307 0.15473
 H248 H 0.28958 0.20646 0.18398
 H249 H 0.23326 0.17397 0.22594
 H250 H 0.23712 0.14069 0.19650
 C251 C 0.76946 0.57916 0.60286
 C252 C 0.78982 0.57462 0.58892
 C253 C 0.79066 0.55751 0.56902
 C254 C 0.77108 0.54477 0.56240
 C255 C 0.75078 0.54918 0.57648
 C256 C 0.75000 0.56609 0.59659
 C257 C 0.76831 0.59779 0.62326
 N258 N 0.75012 0.59964 0.64027
 N259 N 0.74869 0.61684 0.65795
 C260 C 0.76535 0.63297 0.65928
 N261 N 0.78359 0.63105 0.64237
 N262 N 0.78507 0.61379 0.62478
 C263 C 0.76320 0.65270 0.67796
 C264 C 0.77721 0.67199 0.67453
 C265 C 0.77426 0.69116 0.69101
 C266 C 0.75742 0.69137 0.71150
 C267 C 0.74385 0.67186 0.71547
 C268 C 0.74662 0.65277 0.69878
 H269 H 0.80513 0.58432 0.59334
 H270 H 0.80655 0.55451 0.55850
 H271 H 0.73543 0.53958 0.57193
 H272 H 0.73403 0.56918 0.60688
 H273 H 0.79012 0.67252 0.65867
 H274 H 0.78505 0.70591 0.68752
 H275 H 0.73071 0.67152 0.73107
 H276 H 0.73563 0.63813 0.70204
 C277 C 0.73215 0.91592 0.10018
 C278 C 0.71193 0.92081 0.08620
 C279 C 0.71133 0.93834 0.06685
 C280 C 0.73100 0.95116 0.06081
 C281 C 0.75116 0.94639 0.07492
 C282 C 0.75169 0.92906 0.09452
 C283 C 0.73300 0.89695 0.12011
 N284 N 0.75077 0.89500 0.13767
 N285 N 0.75183 0.87764 0.15513
 C286 C 0.73523 0.86142 0.15569
 N287 N 0.71742 0.86339 0.13818
 N288 N 0.71630 0.88082 0.12081
 C289 C 0.73685 0.84173 0.17450
 C290 C 0.72314 0.82229 0.17053
 C291 C 0.72548 0.80331 0.18750
 C292 C 0.74138 0.80348 0.20901
 C293 C 0.75472 0.82311 0.21337
 C294 C 0.75257 0.84197 0.19621
 H295 H 0.69656 0.91108 0.09017
 H296 H 0.69555 0.94158 0.05626
 H297 H 0.76658 0.95602 0.07078
 H298 H 0.76756 0.92571 0.10487
 H299 H 0.71090 0.82153 0.15395
 H300 H 0.71492 0.78846 0.18367
 H301 H 0.76715 0.82376 0.22974
 H302 H 0.76331 0.85671 0.19992
 C303 C 0.23362 0.41563 0.59597
 C304 C 0.21335 0.42028 0.58198
 C305 C 0.21246 0.43799 0.56290
 C306 C 0.23189 0.45126 0.55716
 C307 C 0.25212 0.44671 0.57126
 C308 C 0.25294 0.42919 0.59057
 C309 C 0.23477 0.39650 0.61566
 N310 N 0.25262 0.39463 0.63311
 N311 N 0.25395 0.37716 0.65037
 C312 C 0.23753 0.36075 0.65082
 N313 N 0.21965 0.36264 0.63341
 N314 N 0.21827 0.38018 0.61624
 C315 C 0.23942 0.34095 0.66942
 C316 C 0.22578 0.32147 0.66542
 C317 C 0.22829 0.30243 0.68224
 C318 C 0.24431 0.30256 0.70362
 C319 C 0.25761 0.32221 0.70798
 C320 C 0.25528 0.34114 0.69098
 H321 H 0.19814 0.41022 0.58574
 H322 H 0.19664 0.44105 0.55232
 H323 H 0.26736 0.45668 0.56735
 H324 H 0.26884 0.42603 0.60094
 H325 H 0.21343 0.32074 0.64896
 H326 H 0.21775 0.28756 0.67841
 H327 H 0.27014 0.32283 0.72425
 H328 H 0.26598 0.35591 0.69470
 C329 C 0.92162 0.27095 0.09421
 C330 C 0.93175 0.25068 0.08574
 C331 C 0.94893 0.25091 0.06592
 C332 C 0.95668 0.27150 0.05429
 C333 C 0.94677 0.29186 0.06322
 C334 C 0.92933 0.29155 0.08278
 C335 C 0.90281 0.27047 0.11446
 N336 N 0.88864 0.28834 0.11704
 N337 N 0.87125 0.28752 0.13457
 C338 C 0.86740 0.26885 0.15039
 N339 N 0.88171 0.25108 0.14799
 N340 N 0.89900 0.25185 0.13035
 C341 C 0.84762 0.26750 0.16918
 C342 C 0.84645 0.25077 0.18973
 C343 C 0.82731 0.24871 0.20659
 C344 C 0.80877 0.26316 0.20304
 C345 C 0.81007 0.28014 0.18279
 C346 C 0.82935 0.28239 0.16616
 H347 H 0.92614 0.23451 0.09408
 H348 H 0.95609 0.23486 0.05975
 H349 H 0.95223 0.30807 0.05485
 H350 H 0.92193 0.30747 0.08899
 H351 H 0.86028 0.23911 0.19269
 H352 H 0.82681 0.23543 0.22197
 H353 H 0.79608 0.29158 0.17963
 H354 H 0.82970 0.29544 0.15049
 C355 C 0.41521 0.77083 0.59680
 C356 C 0.42752 0.75111 0.59116
 C357 C 0.44495 0.75142 0.57164
 C358 C 0.45064 0.77152 0.55757
 C359 C 0.43864 0.79137 0.56357
 C360 C 0.42101 0.79099 0.58286
 C361 C 0.39610 0.77019 0.61664
 N362 N 0.38080 0.78721 0.61750
 N363 N 0.36318 0.78622 0.63468
 C364 C 0.36018 0.76822 0.65182
 N365 N 0.37560 0.75130 0.65112
 N366 N 0.39315 0.75224 0.63385
 C367 C 0.34016 0.76666 0.67022
 C368 C 0.33917 0.75034 0.69129
 C369 C 0.31987 0.74816 0.70786
 C370 C 0.30104 0.76208 0.70356
 C371 C 0.30214 0.77862 0.68278
 C372 C 0.32154 0.78098 0.66639
 H373 H 0.42346 0.73528 0.60147
 H374 H 0.45394 0.73587 0.56755
 H375 H 0.44261 0.80711 0.55302
 H376 H 0.41192 0.80650 0.58681
 H377 H 0.35325 0.73912 0.69488
 H378 H 0.31953 0.73523 0.72368
 H379 H 0.28793 0.78965 0.67903
 H380 H 0.32174 0.79370 0.65033
 C381 C 0.08079 0.73196 0.09618
 C382 C 0.06856 0.75168 0.09033
 C383 C 0.05157 0.75143 0.07032
 C384 C 0.04622 0.73138 0.05592
 C385 C 0.05826 0.71158 0.06195
 C386 C 0.07546 0.71190 0.08175
 C387 C 0.09921 0.73248 0.11690
 N388 N 0.11451 0.71549 0.11828
 N389 N 0.13146 0.71634 0.13638
 C390 C 0.13375 0.73414 0.15398
 N391 N 0.11832 0.75103 0.15276
 N392 N 0.10145 0.75023 0.13457
 C393 C 0.15309 0.73556 0.17339
 C394 C 0.15328 0.75162 0.19479
 C395 C 0.17205 0.75378 0.21221
 C396 C 0.19114 0.74009 0.20841
 C397 C 0.19078 0.72374 0.18736
 C398 C 0.17191 0.72141 0.17015
 H399 H 0.07228 0.76744 0.10098
 H400 H 0.04253 0.76694 0.06623
 H401 H 0.05454 0.69588 0.05117
 H402 H 0.08453 0.69640 0.08582
 H403 H 0.13901 0.76271 0.19795
 H404 H 0.17184 0.76656 0.22821
 H405 H 0.20520 0.71289 0.18397
 H406 H 0.17232 0.70888 0.15387
 C407 C 0.58606 0.22717 0.59341
 C408 C 0.57357 0.24688 0.58838
 C409 C 0.55649 0.24693 0.56851
 C410 C 0.55128 0.22718 0.55346
 C411 C 0.56355 0.20737 0.55869
 C412 C 0.58087 0.20740 0.57834
 C413 C 0.60457 0.22743 0.61399
 N414 N 0.62032 0.21082 0.61440
 N415 N 0.63735 0.21150 0.63241
 C416 C 0.63924 0.22874 0.65086
 N417 N 0.62337 0.24523 0.65059
 N418 N 0.60643 0.24461 0.63250
 C419 C 0.65857 0.23003 0.67027
 C420 C 0.65822 0.24526 0.69253
 C421 C 0.67690 0.24739 0.71004
 C422 C 0.69645 0.23454 0.70552
 C423 C 0.69667 0.21900 0.68358
 C424 C 0.67787 0.21668 0.66623
 H425 H 0.57719 0.26242 0.59954
 H426 H 0.54728 0.26244 0.56503
 H427 H 0.55994 0.19190 0.54737
 H428 H 0.59013 0.19192 0.58179
 H429 H 0.64356 0.25570 0.69632
 H430 H 0.67620 0.25953 0.72674
 H431 H 0.71148 0.20881 0.67962
 H432 H 0.67870 0.20481 0.64926
 C433 C 0.73032 0.07849 0.90509
 C434 C 0.70984 0.07161 0.91757
 C435 C 0.70954 0.05441 0.93741
 C436 C 0.72981 0.04396 0.94558
 C437 C 0.75027 0.05088 0.93288
 C438 C 0.75048 0.06779 0.91279
 C439 C 0.73090 0.09705 0.88457
 N440 N 0.74912 0.09990 0.86773
 N441 N 0.75009 0.11702 0.84990
 C442 C 0.73294 0.13211 0.84825
 N443 N 0.71465 0.12922 0.86501
 N444 N 0.71361 0.11200 0.88274
 C445 C 0.73463 0.15172 0.82929
 C446 C 0.72074 0.17070 0.83287
 C447 C 0.72343 0.18980 0.81605
 C448 C 0.73985 0.19019 0.79506
 C449 C 0.75328 0.17095 0.79097
 C450 C 0.75079 0.15199 0.80799
 H451 H 0.69401 0.07949 0.91196
 H452 H 0.69343 0.04959 0.94662
 H453 H 0.76626 0.04328 0.93843
 H454 H 0.76656 0.07276 0.90365
 H455 H 0.70817 0.17105 0.84912
 H456 H 0.71279 0.20434 0.81964
 H457 H 0.76610 0.17074 0.77499
 H458 H 0.76167 0.13760 0.80459
 C459 C 0.22863 0.58462 0.40782
 C460 C 0.21127 0.56804 0.40728
 C461 C 0.21140 0.54996 0.42598
 C462 C 0.22924 0.54788 0.44490
 C463 C 0.24681 0.56422 0.44498
 C464 C 0.24636 0.58256 0.42687
 C465 C 0.22829 0.60423 0.38896
 N466 N 0.23733 0.62450 0.39692
 N467 N 0.23743 0.64221 0.37994
 C468 C 0.22872 0.64030 0.35421
 N469 N 0.21970 0.62001 0.34618
 N470 N 0.21936 0.60234 0.36331
 C471 C 0.22962 0.65987 0.33527
 C472 C 0.23181 0.65662 0.30678
 C473 C 0.23444 0.67527 0.28919
 C474 C 0.23432 0.69747 0.29976
 C475 C 0.23133 0.70068 0.32815
 C476 C 0.22928 0.68206 0.34576
 H477 H 0.19738 0.56932 0.39284
 H478 H 0.19769 0.53754 0.42552
 H479 H 0.26067 0.56308 0.45950
 H480 H 0.26000 0.59505 0.42760
 H481 H 0.23222 0.63966 0.29820
 H482 H 0.23666 0.67236 0.26737
 H483 H 0.23129 0.71761 0.33685
 H484 H 0.22750 0.68503 0.36764
 C485 C 0.26957 0.91743 0.90332
 C486 C 0.25034 0.93068 0.90827
 C487 C 0.25091 0.94791 0.92798
 C488 C 0.27082 0.95252 0.94295
 C489 C 0.29021 0.93959 0.93767
 C490 C 0.28955 0.92210 0.91819
 C491 C 0.26852 0.89862 0.88312
 N492 N 0.28433 0.88205 0.88310
 N493 N 0.28285 0.86476 0.86548
 C494 C 0.26557 0.86340 0.84705
 N495 N 0.24989 0.88007 0.84694
 N496 N 0.25131 0.89728 0.86463
 C497 C 0.26339 0.84389 0.82795
 C498 C 0.24834 0.84481 0.80559
 C499 C 0.24542 0.82614 0.78820
 C500 C 0.25730 0.80600 0.79290
 C501 C 0.27260 0.80514 0.81502
 C502 C 0.27571 0.82394 0.83228
 H503 H 0.23466 0.92749 0.89725
 H504 H 0.23572 0.95763 0.93151
 H505 H 0.30578 0.94273 0.94895
 H506 H 0.30467 0.91226 0.91477
 H507 H 0.23868 0.85995 0.80157
 H508 H 0.23349 0.82736 0.77136
 H509 H 0.28204 0.78988 0.81912
 H510 H 0.28740 0.82267 0.84935
 C511 C 0.77317 0.41688 0.40551
 C512 C 0.75357 0.42955 0.41060
 C513 C 0.75362 0.44651 0.43067
 C514 C 0.77335 0.45140 0.44585
 C515 C 0.79308 0.43902 0.44047
 C516 C 0.79295 0.42182 0.42063
 C517 C 0.77273 0.39838 0.38488
 N518 N 0.78898 0.38224 0.38465
 N519 N 0.78808 0.36521 0.36662
 C520 C 0.77098 0.36370 0.34797
 N521 N 0.75486 0.37995 0.34808
 N522 N 0.75569 0.39689 0.36618
 C523 C 0.76943 0.34443 0.32845
 C524 C 0.75455 0.34531 0.30593
 C525 C 0.75214 0.32678 0.28823
 C526 C 0.76438 0.30683 0.29278
 C527 C 0.77955 0.30605 0.31502
 C528 C 0.78215 0.32472 0.33259
 H529 H 0.73803 0.42613 0.39939
 H530 H 0.73818 0.45581 0.43428
 H531 H 0.80853 0.44239 0.45190
 H532 H 0.80834 0.41241 0.41711
 H533 H 0.74460 0.36028 0.30205
 H534 H 0.74030 0.32792 0.27130
 H535 H 0.78926 0.29094 0.31902
 H536 H 0.79373 0.32349 0.34978
 C537 C 0.08613 0.27011 0.90104
 C538 C 0.07280 0.25064 0.90637
 C539 C 0.05545 0.25114 0.92596
 C540 C 0.05082 0.27121 0.94040
 C541 C 0.06384 0.29082 0.93471
 C542 C 0.08142 0.29024 0.91537
 C543 C 0.10512 0.26919 0.88109
 N544 N 0.12154 0.28562 0.88070
 N545 N 0.13902 0.28432 0.86338
 C546 C 0.14075 0.26662 0.84563
 N547 N 0.12423 0.25031 0.84587
 N548 N 0.10683 0.25154 0.86327
 C549 C 0.16054 0.26469 0.82697
 C550 C 0.16019 0.24897 0.80522
 C551 C 0.17918 0.24636 0.78834
 C552 C 0.19905 0.25924 0.79300
 C553 C 0.19933 0.27520 0.81449
 C554 C 0.18022 0.27799 0.83120
 H555 H 0.07601 0.23484 0.89577
 H556 H 0.04566 0.23578 0.92981
 H557 H 0.06070 0.30653 0.94557
 H558 H 0.09132 0.30555 0.91165
 H559 H 0.14527 0.23854 0.80130
 H560 H 0.17844 0.23390 0.77197
 H561 H 0.21437 0.28542 0.81854
 H562 H 0.18107 0.29022 0.84780
 C563 C 0.58204 0.77027 0.40482
 C564 C 0.56857 0.75082 0.40976
 C565 C 0.55102 0.75128 0.42908
 C566 C 0.54635 0.77128 0.44364
 C567 C 0.55950 0.79087 0.43833
 C568 C 0.57727 0.79033 0.41925
 C569 C 0.60124 0.76941 0.38516
 N570 N 0.61767 0.78582 0.38513
 N571 N 0.63532 0.78458 0.36805
 C572 C 0.63720 0.76696 0.35021
 N573 N 0.62067 0.75067 0.35010
 N574 N 0.60309 0.75184 0.36725
 C575 C 0.65715 0.76511 0.33180
 C576 C 0.65698 0.74947 0.30997
 C577 C 0.67609 0.74695 0.29329
 C578 C 0.69591 0.75985 0.29822
 C579 C 0.69601 0.77573 0.31980
 C580 C 0.67678 0.77842 0.33632
 H581 H 0.57183 0.73508 0.39906
 H582 H 0.54113 0.73593 0.43265
 H583 H 0.55633 0.80652 0.44929
 H584 H 0.58727 0.80563 0.41582
 H585 H 0.64210 0.73903 0.30583
 H586 H 0.67548 0.73455 0.27685
 H587 H 0.71100 0.78596 0.32405
 H588 H 0.67748 0.79060 0.35299
 C589 C 0.91221 0.73181 0.90898
 C590 C 0.91889 0.75173 0.92272
 C591 C 0.93735 0.75170 0.94070
 C592 C 0.94913 0.73153 0.94606
 C593 C 0.94229 0.71154 0.93223
 C594 C 0.92423 0.71179 0.91356
 C595 C 0.89247 0.73195 0.89037
 N596 N 0.89219 0.71928 0.86702
 N597 N 0.87440 0.71974 0.85012
 C598 C 0.85611 0.73260 0.85617
 N599 N 0.85634 0.74511 0.87963
 N600 N 0.87423 0.74490 0.89631
 C601 C 0.83641 0.73331 0.83753
 C602 C 0.81442 0.73547 0.84829
 C603 C 0.79576 0.73694 0.83073
 C604 C 0.79883 0.73695 0.80210
 C605 C 0.82081 0.73476 0.79130
 C606 C 0.83943 0.73259 0.80890
 H607 H 0.90993 0.76741 0.91936
 H608 H 0.94200 0.76745 0.95088
 H609 H 0.95093 0.69569 0.93565
 H610 H 0.91930 0.69620 0.90323
 H611 H 0.81168 0.73598 0.87032
 H612 H 0.77898 0.73875 0.83953
 H613 H 0.82356 0.73470 0.76927
 H614 H 0.85625 0.73105 0.80015
 C615 C 0.41672 0.23007 0.40583
 C616 C 0.41948 0.24727 0.42559
 C617 C 0.43786 0.24706 0.44366
 C618 C 0.45353 0.22935 0.44277
 C619 C 0.45075 0.21206 0.42310
 C620 C 0.43266 0.21259 0.40452
 C621 C 0.39712 0.23035 0.38698
 N622 N 0.39860 0.22153 0.36123
 N623 N 0.38093 0.22218 0.34418
 C624 C 0.36102 0.23141 0.35236
 N625 N 0.35952 0.24005 0.37818
 N626 N 0.37725 0.23963 0.39509
 C627 C 0.34145 0.23249 0.33352
 C628 C 0.31926 0.23237 0.34408
 C629 C 0.30069 0.23433 0.32648
 C630 C 0.30398 0.23700 0.29805
 C631 C 0.32616 0.23696 0.28744
 C632 C 0.34474 0.23443 0.30500
 H633 H 0.40750 0.26100 0.42693
 H634 H 0.43956 0.26052 0.45873
 H635 H 0.46266 0.19826 0.42199
 H636 H 0.43085 0.19910 0.38952
 H637 H 0.31626 0.23079 0.36598
 H638 H 0.28376 0.23442 0.33520
 H639 H 0.32913 0.23894 0.26558
 H640 H 0.36170 0.23466 0.29638
 C641 C 0.72838 0.91497 0.90667
 C642 C 0.70851 0.92020 0.92127
 C643 C 0.70863 0.93760 0.94086
 C644 C 0.72869 0.94991 0.94650
 C645 C 0.74851 0.94470 0.93186
 C646 C 0.74833 0.92753 0.91206
 C647 C 0.72852 0.89627 0.88631
 N648 N 0.74612 0.89409 0.86848
 N649 N 0.74666 0.87692 0.85071
 C650 C 0.72967 0.86112 0.85006
 N651 N 0.71200 0.86333 0.86780
 N652 N 0.71141 0.88059 0.88551
 C653 C 0.73090 0.84146 0.83113
 C654 C 0.71662 0.82240 0.83483
 C655 C 0.71888 0.80325 0.81809
 C656 C 0.73531 0.80286 0.79713
 C657 C 0.74911 0.82219 0.79289
 C658 C 0.74700 0.84122 0.80978
 H659 H 0.69285 0.91088 0.91754
 H660 H 0.69309 0.94121 0.95185
 H661 H 0.76421 0.95395 0.93565
 H662 H 0.76395 0.92389 0.90127
 H663 H 0.70405 0.82202 0.85109
 H664 H 0.70795 0.78865 0.82181
 H665 H 0.76194 0.82241 0.77692
 H666 H 0.75818 0.85568 0.80627
 C667 C 0.23272 0.41660 0.40335
 C668 C 0.21245 0.42155 0.41725
 C669 C 0.21182 0.43897 0.43676
 C670 C 0.23151 0.45167 0.44301
 C671 C 0.25175 0.44682 0.42901
 C672 C 0.25232 0.42957 0.40928
 C673 C 0.23354 0.39774 0.38321
 N674 N 0.25165 0.39539 0.36619
 N675 N 0.25264 0.37811 0.34857
 C676 C 0.23559 0.36238 0.34731
 N677 N 0.21744 0.36477 0.36426
 N678 N 0.21641 0.38211 0.38179
 C679 C 0.23711 0.34267 0.32847
 C680 C 0.22246 0.32382 0.33166
 C681 C 0.22469 0.30472 0.31486
 C682 C 0.24144 0.30414 0.29429
 C683 C 0.25571 0.32321 0.29062
 C684 C 0.25365 0.34222 0.30762
 H685 H 0.19703 0.41195 0.41310
 H686 H 0.19597 0.44227 0.44722
 H687 H 0.26719 0.45636 0.43331
 H688 H 0.26823 0.42617 0.39901
 H689 H 0.20955 0.32360 0.34753
 H690 H 0.21339 0.29032 0.31815
 H691 H 0.26882 0.32327 0.27499
 H692 H 0.26513 0.35650 0.30452
 C693 C 0.27055 0.08216 0.90519
 C694 C 0.25025 0.07155 0.91371
 C695 C 0.25045 0.05435 0.93345
 C696 C 0.27104 0.04705 0.94492
 C697 C 0.29142 0.05750 0.93602
 C698 C 0.29113 0.07498 0.91656
 C699 C 0.27011 0.10084 0.88485
 N700 N 0.28792 0.11559 0.88234
 N701 N 0.28717 0.13277 0.86457
 C702 C 0.26865 0.13581 0.84844
 N703 N 0.25094 0.12094 0.85080
 N704 N 0.25162 0.10386 0.86868
 C705 C 0.26744 0.15525 0.82924
 C706 C 0.25118 0.15536 0.80812
 C707 C 0.24932 0.17408 0.79071
 C708 C 0.26346 0.19325 0.79425
 C709 C 0.27992 0.19305 0.81513
 C710 C 0.28200 0.17418 0.83232
 H711 H 0.23409 0.07677 0.90543
 H712 H 0.23439 0.04677 0.93962
 H713 H 0.30763 0.05242 0.94429
 H714 H 0.30707 0.08277 0.91032
 H715 H 0.23979 0.14099 0.80511
 H716 H 0.23643 0.17374 0.77485
 H717 H 0.29111 0.20756 0.81830
 H718 H 0.29467 0.17464 0.84843
 C719 C 0.77088 0.58207 0.40879
 C720 C 0.75144 0.56863 0.41394
 C721 C 0.75193 0.55121 0.43338
 C722 C 0.77195 0.54662 0.44789
 C723 C 0.79151 0.55980 0.44246
 C724 C 0.79094 0.57744 0.42324
 C725 C 0.77003 0.60102 0.38882
 N726 N 0.78652 0.61737 0.38837
 N727 N 0.78535 0.63475 0.37093
 C728 C 0.76771 0.63645 0.35311
 N729 N 0.75133 0.62000 0.35343
 N730 N 0.75244 0.60269 0.37095
 C731 C 0.76599 0.65609 0.33425
 C732 C 0.75034 0.65570 0.31246
 C733 C 0.74804 0.67453 0.29529
 C734 C 0.76117 0.69429 0.29970
 C735 C 0.77702 0.69461 0.32128
 C736 C 0.77949 0.67567 0.33827
 H737 H 0.73569 0.57178 0.40324
 H738 H 0.73661 0.54130 0.43702
 H739 H 0.80718 0.55669 0.45336
 H740 H 0.80623 0.58742 0.41969
 H741 H 0.73975 0.64085 0.30871
 H742 H 0.73566 0.67376 0.27887
 H743 H 0.78743 0.70956 0.32515
 H744 H 0.79168 0.67654 0.35490
 C745 C 0.07750 0.73448 0.90094
 C746 C 0.07029 0.71370 0.91234
 C747 C 0.05331 0.71299 0.93241
 C748 C 0.04328 0.73311 0.94191
 C749 C 0.05046 0.75391 0.93030
 C750 C 0.06725 0.75455 0.90995
 C751 C 0.09597 0.73525 0.88026
 N752 N 0.09967 0.75408 0.86468
 N753 N 0.11668 0.75495 0.84662
 C754 C 0.13078 0.73709 0.84349
 N755 N 0.12704 0.71825 0.85900
 N756 N 0.10995 0.71732 0.87694
 C757 C 0.15032 0.73846 0.82434
 C758 C 0.16842 0.72332 0.82686
 C759 C 0.18751 0.72545 0.80993
 C760 C 0.18878 0.74255 0.78985
 C761 C 0.17039 0.75726 0.78675
 C762 C 0.15143 0.75534 0.80395
 H763 H 0.07777 0.69793 0.90573
 H764 H 0.04829 0.69662 0.94071
 H765 H 0.04317 0.76978 0.93692
 H766 H 0.07248 0.77085 0.90164
 H767 H 0.16811 0.71015 0.84239
 H768 H 0.20139 0.71382 0.81274
 H769 H 0.17092 0.77065 0.77150
 H770 H 0.13770 0.76718 0.80139
 C771 C 0.58416 0.23196 0.39847
 C772 C 0.57878 0.21150 0.41198
 C773 C 0.56159 0.21059 0.43179
 C774 C 0.54955 0.23020 0.43877
 C775 C 0.55479 0.25063 0.42513
 C776 C 0.57181 0.25148 0.40509
 C777 C 0.60289 0.23308 0.37813
 N778 N 0.60555 0.25136 0.36137
 N779 N 0.62279 0.25263 0.34365
 C780 C 0.63817 0.23571 0.34205
 N781 N 0.63546 0.21739 0.35873
 N782 N 0.61815 0.21607 0.37634
 C783 C 0.65792 0.23757 0.32324
 C784 C 0.67662 0.22328 0.32653
 C785 C 0.69581 0.22585 0.30986
 C786 C 0.69663 0.24257 0.28928
 C787 C 0.67770 0.25645 0.28546
 C788 C 0.65860 0.25407 0.30237
 H789 H 0.58790 0.19614 0.40729
 H790 H 0.55797 0.19460 0.44195
 H791 H 0.54576 0.26601 0.42999
 H792 H 0.57556 0.26753 0.39513
 H793 H 0.67668 0.21042 0.34243
 H794 H 0.71011 0.21484 0.31324
 H795 H 0.67784 0.26953 0.26981
 H796 H 0.64442 0.26527 0.29921
 C797 C 0.91960 0.26916 0.90248
 C798 C 0.92468 0.28934 0.91678
 C799 C 0.94244 0.29016 0.93584
 C800 C 0.95526 0.27074 0.94125
 C801 C 0.95026 0.25062 0.92682
 C802 C 0.93273 0.24989 0.90753
 C803 C 0.90044 0.26798 0.88282
 N804 N 0.89844 0.25036 0.86492
 N805 N 0.88091 0.24887 0.84776
 C806 C 0.86454 0.26487 0.84784
 N807 N 0.86656 0.28254 0.86567
 N808 N 0.88418 0.28410 0.88275
 C809 C 0.84465 0.26266 0.82938
 C810 C 0.82511 0.27559 0.83389
 C811 C 0.80595 0.27260 0.81726
 C812 C 0.80602 0.25682 0.79558
 C813 C 0.82573 0.24428 0.79070
 C814 C 0.84477 0.24708 0.80749
 H815 H 0.91494 0.30451 0.91327
 H816 H 0.94588 0.30589 0.94669
 H817 H 0.95989 0.23540 0.93046
 H818 H 0.92923 0.23406 0.89694
 H819 H 0.82444 0.28771 0.85061
 H820 H 0.79104 0.28257 0.82148
 H821 H 0.82632 0.23196 0.77419
 H822 H 0.85958 0.23693 0.80337
 C823 C 0.41545 0.77102 0.40409
 C824 C 0.42090 0.79108 0.41844
 C825 C 0.43848 0.79148 0.43777
 C826 C 0.45076 0.77174 0.44340
 C827 C 0.44539 0.75174 0.42892
 C828 C 0.42804 0.75142 0.40938
 C829 C 0.39645 0.77030 0.38415
 N830 N 0.39394 0.75254 0.36655
 N831 N 0.37652 0.75149 0.34917
 C832 C 0.36077 0.76810 0.34872
 N833 N 0.36331 0.78592 0.36625
 N834 N 0.38081 0.78702 0.38355
 C835 C 0.34091 0.76637 0.33011
 C836 C 0.32199 0.78030 0.33398
 C837 C 0.30277 0.77775 0.31735
 C838 C 0.30214 0.76139 0.29632
 C839 C 0.32128 0.74787 0.29201
 C840 C 0.34039 0.75025 0.30879
 H841 H 0.41158 0.80649 0.41477
 H842 H 0.44220 0.80714 0.44864
 H843 H 0.45460 0.73628 0.43271
 H844 H 0.42425 0.73566 0.39876
 H845 H 0.32181 0.79287 0.35023
 H846 H 0.28831 0.78847 0.32114
 H847 H 0.32134 0.73508 0.27600
 H848 H 0.35472 0.73933 0.30516
 C849 C 0.26961 0.91616 0.09603
 C850 C 0.25024 0.92920 0.09110
 C851 C 0.25076 0.94662 0.07167
 C852 C 0.27074 0.95163 0.05697
 C853 C 0.29024 0.93887 0.06218
 C854 C 0.28964 0.92119 0.08138
 C855 C 0.26869 0.89725 0.11607
 N856 N 0.28477 0.88094 0.11610
 N857 N 0.28347 0.86361 0.13367
 C858 C 0.26612 0.86196 0.15202
 N859 N 0.25016 0.87837 0.15210
 N860 N 0.25139 0.89561 0.13446
 C861 C 0.26418 0.84246 0.17113
 C862 C 0.24906 0.84321 0.19347
 C863 C 0.24637 0.82455 0.21089
 C864 C 0.25857 0.80459 0.20625
 C865 C 0.27395 0.80390 0.18416
 C866 C 0.27683 0.82270 0.16686
 H867 H 0.23452 0.92572 0.10196
 H868 H 0.23548 0.95621 0.06818
 H869 H 0.30587 0.94231 0.05110
 H870 H 0.30486 0.91152 0.08479
 H871 H 0.23916 0.85820 0.19745
 H872 H 0.23437 0.82564 0.22771
 H873 H 0.28364 0.78877 0.18010
 H874 H 0.28859 0.82157 0.14980
 C875 C 0.77166 0.41407 0.59895
 C876 C 0.75205 0.42667 0.59377
 C877 C 0.75239 0.44417 0.57442
 C878 C 0.77242 0.44968 0.56005
 C879 C 0.79215 0.43735 0.56553
 C880 C 0.79174 0.41962 0.58465
 C881 C 0.77097 0.39501 0.61879
 N882 N 0.78753 0.37919 0.61901
 N883 N 0.78645 0.36166 0.63629
 C884 C 0.76884 0.35930 0.65418
 N885 N 0.75240 0.37523 0.65410
 N886 N 0.75341 0.39267 0.63673
 C887 C 0.76716 0.33947 0.67282
 C888 C 0.75159 0.33933 0.69475
 C889 C 0.74918 0.32026 0.71161
 C890 C 0.76212 0.30081 0.70677
 C891 C 0.77794 0.30105 0.68511
 C892 C 0.78053 0.32023 0.66841
 H893 H 0.73629 0.42279 0.60436
 H894 H 0.73693 0.45342 0.57072
 H895 H 0.80782 0.44118 0.55473
 H896 H 0.80715 0.41028 0.58825
 H897 H 0.74111 0.35391 0.69881
 H898 H 0.73683 0.32061 0.72811
 H899 H 0.78820 0.28633 0.68092
 H900 H 0.79265 0.31978 0.65167
 C901 C 0.73296 0.08506 0.09369
 C902 C 0.75031 0.08220 0.07424
 C903 C 0.74995 0.06358 0.05648
 C904 C 0.73194 0.04775 0.05736
 C905 C 0.71451 0.05061 0.07675
 C906 C 0.71518 0.06896 0.09504
 C907 C 0.73336 0.10497 0.11213
 N908 N 0.72422 0.10380 0.13777
 N909 N 0.72500 0.12175 0.15446
 C910 C 0.73466 0.14162 0.14602
 N911 N 0.74361 0.14281 0.12031
 N912 N 0.74307 0.12481 0.10376
 C913 C 0.73591 0.16149 0.16449
 C914 C 0.73633 0.18354 0.15354
 C915 C 0.73845 0.20238 0.17083
 C916 C 0.74076 0.19951 0.19935
 C917 C 0.74018 0.17747 0.21036
 C918 C 0.73748 0.15863 0.19310
 H919 H 0.76427 0.09430 0.07288
 H920 H 0.76353 0.06183 0.04161
 H921 H 0.70046 0.03860 0.07785
 H922 H 0.70156 0.07084 0.10980
 H923 H 0.73504 0.18621 0.13156
 H924 H 0.73896 0.21918 0.16181
 H925 H 0.74187 0.17483 0.23229
 H926 H 0.73729 0.14180 0.20204
 C927 C 0.22839 0.58493 0.59274
 C928 C 0.24631 0.58264 0.57392
 C929 C 0.24688 0.56416 0.55599
 C930 C 0.22926 0.54787 0.55603
 C931 C 0.21127 0.55014 0.57478
 C932 C 0.21101 0.56836 0.59327
 C933 C 0.22785 0.60473 0.61133
 N934 N 0.21843 0.60315 0.63679
 N935 N 0.21852 0.62099 0.65367
 C936 C 0.22775 0.64117 0.64558
 N937 N 0.23696 0.64278 0.62004
 N938 N 0.23711 0.62489 0.60331
 C939 C 0.22841 0.66092 0.66430
 C940 C 0.22847 0.68304 0.65359
 C941 C 0.23031 0.70179 0.67107
 C942 C 0.23269 0.69877 0.69955
 C943 C 0.23238 0.67665 0.71034
 C944 C 0.22995 0.65789 0.69289
 H945 H 0.25998 0.59511 0.57320
 H946 H 0.26087 0.56289 0.54162
 H947 H 0.19751 0.53777 0.57520
 H948 H 0.19697 0.56980 0.60754
 H949 H 0.22719 0.68585 0.63163
 H950 H 0.23062 0.71865 0.66220
 H951 H 0.23413 0.67388 0.73225
 H952 H 0.23004 0.64100 0.70165
 C953 C 0.91746 0.72924 0.09947
 C954 C 0.92174 0.70963 0.08392
 C955 C 0.93878 0.70972 0.06385
 C956 C 0.95166 0.72951 0.05869
 C957 C 0.94749 0.74904 0.07438
 C958 C 0.93069 0.74887 0.09465
 C959 C 0.89895 0.72951 0.12010
 N960 N 0.89756 0.74669 0.13863
 N961 N 0.88048 0.74745 0.15654
 C962 C 0.86399 0.73112 0.15662
 N963 N 0.86543 0.71386 0.13818
 N964 N 0.88258 0.71304 0.12034
 C965 C 0.84443 0.73266 0.17567
 C966 C 0.82479 0.71929 0.17150
 C967 C 0.80580 0.72186 0.18842
 C968 C 0.80613 0.73768 0.21006
 C969 C 0.82599 0.75057 0.21474
 C970 C 0.84489 0.74817 0.19765
 H971 H 0.91190 0.69421 0.08720
 H972 H 0.94159 0.69443 0.05205
 H973 H 0.95721 0.76453 0.07097
 H974 H 0.92780 0.76428 0.10620
 H975 H 0.82387 0.70721 0.15474
 H976 H 0.79077 0.71162 0.18436
 H977 H 0.82677 0.76291 0.23123
 H978 H 0.85979 0.75864 0.20154
 C979 C 0.42157 0.22655 0.59582
 C980 C 0.42571 0.20699 0.58012
 C981 C 0.44305 0.20693 0.56042
 C982 C 0.45638 0.22651 0.55579
 C983 C 0.45237 0.24598 0.57167
 C984 C 0.43527 0.24595 0.59156
 C985 C 0.40274 0.22704 0.61604
 N986 N 0.40145 0.24409 0.63476
 N987 N 0.38413 0.24508 0.65230
 C988 C 0.36728 0.22912 0.65181
 N989 N 0.36861 0.21199 0.63318
 N990 N 0.38601 0.21094 0.61571
 C991 C 0.34753 0.23091 0.67056
 C992 C 0.32769 0.21793 0.66597
 C993 C 0.30860 0.22070 0.68271
 C994 C 0.30902 0.23632 0.70456
 C995 C 0.32906 0.24884 0.70959
 C996 C 0.34805 0.24624 0.69271
 H997 H 0.41551 0.19174 0.58298
 H998 H 0.44573 0.19169 0.54845
 H999 H 0.46242 0.26130 0.56866
 H1000 H 0.43251 0.26132 0.60325
 H1001 H 0.32671 0.20599 0.64907
 H1002 H 0.29343 0.21075 0.67837
 H1003 H 0.32994 0.26103 0.72624
 H1004 H 0.36309 0.25642 0.69691
 C1005 C 0.08658 0.27089 0.09366
 C1006 C 0.08218 0.29081 0.07882
 C1007 C 0.06458 0.29130 0.05954
 C1008 C 0.05126 0.27177 0.05446
 C1009 C 0.05563 0.25190 0.06937
 C1010 C 0.07298 0.25151 0.08887
 C1011 C 0.10542 0.27006 0.11375
 N1012 N 0.10653 0.25285 0.13222
 N1013 N 0.12371 0.25166 0.14987
 C1014 C 0.14061 0.26756 0.14972
 N1015 N 0.13950 0.28484 0.13129
 N1016 N 0.12222 0.28609 0.11371
 C1017 C 0.16005 0.26566 0.16883
 C1018 C 0.18015 0.27832 0.16457
 C1019 C 0.19886 0.27549 0.18188
 C1020 C 0.19773 0.26014 0.20398
 C1021 C 0.17744 0.24792 0.20859
 C1022 C 0.15887 0.25056 0.19116
 H1023 H 0.09230 0.30604 0.08212
 H1024 H 0.06163 0.30684 0.04830
 H1025 H 0.04561 0.23661 0.06599
 H1026 H 0.07595 0.23586 0.09988
 H1027 H 0.18162 0.29006 0.14752
 H1028 H 0.21425 0.28519 0.17785
 H1029 H 0.17601 0.23594 0.22541
 H1030 H 0.14361 0.24065 0.19513
 C1031 C 0.58155 0.76913 0.59656
 C1032 C 0.57714 0.78928 0.58219
 C1033 C 0.55953 0.79009 0.56295
 C1034 C 0.54618 0.77067 0.55743
 C1035 C 0.55053 0.75057 0.57188
 C1036 C 0.56791 0.74984 0.59135
 C1037 C 0.60044 0.76799 0.61657
 N1038 N 0.60173 0.75041 0.63451
 N1039 N 0.61895 0.74902 0.65210
 C1040 C 0.63570 0.76509 0.65242
 N1041 N 0.63441 0.78272 0.63451
 N1042 N 0.61710 0.78417 0.61700
 C1043 C 0.65514 0.76307 0.67152
 C1044 C 0.67505 0.77613 0.66769
 C1045 C 0.69372 0.77339 0.68507
 C1046 C 0.69276 0.75772 0.70684
 C1047 C 0.67270 0.74502 0.71099
 C1048 C 0.65416 0.74757 0.69346
 H1049 H 0.58728 0.80445 0.58581
 H1050 H 0.55661 0.80581 0.55207
 H1051 H 0.54049 0.73534 0.56816
 H1052 H 0.57088 0.73403 0.60200
 H1053 H 0.67638 0.78818 0.65094
 H1054 H 0.70893 0.78347 0.68139
 H1055 H 0.67142 0.73278 0.72755
 H1056 H 0.63905 0.73732 0.69709
   
