data_POSCAR
  _audit_creation_date              2014-09-24
  _audit_creation_method            'ToBaCCo'
  _symmetry_space_group_name_H-M    'P1'
  _symmetry_Int_Tables_number       1
  _symmetry_cell_setting            triclinic
  loop_
  _symmetry_equiv_pos_as_xyz
 x,y,z
_cell_length_a 39.5529
_cell_length_b 40.2295
_cell_length_c 40.3115
_cell_angle_alpha 89.958600
_cell_angle_beta 90.061700
_cell_angle_gamma 90.041900
loop_
  _atom_site_label
  _atom_site_type_symbol
  _atom_site_fract_x
  _atom_site_fract_y
  _atom_site_fract_z
C1 C 0.34247 0.38523 1.36454
 C2 C 0.36812 0.38719 1.34058
 C3 C 0.39252 0.36257 1.33888
 C4 C 0.39175 0.33579 1.36118
 C5 C 0.36622 0.33375 1.38448
 C6 C 0.34133 0.35844 1.38602
 C7 C 0.31464 0.40470 1.37117
 N8 N 0.29648 0.39001 1.39580
 C9 C 0.31264 0.36166 1.40495
 C10 C 0.37088 0.30477 1.40193
 N11 N 0.39876 0.28915 1.38993
 C12 C 0.41166 0.30791 1.36487
 C13 C 0.41241 0.36935 1.31175
 N14 N 0.40059 0.39732 1.29686
 C15 C 0.37364 0.40855 1.31442
 H16 H 0.30763 0.42733 1.35833
 H17 H 0.30405 0.34446 1.42383
 H18 H 0.35500 0.29569 1.42185
 H19 H 0.43370 0.30165 1.35024
 H20 H 0.43306 0.35424 1.30268
 H21 H 0.35824 0.42977 1.30775
 C22 C 1.16808 0.62011 0.86060
 C23 C 1.14524 0.62060 0.83403
 C24 C 1.11957 0.64388 0.83325
 C25 C 1.11682 0.66739 0.85876
 C26 C 1.13917 0.66673 0.88524
 C27 C 1.16510 0.64287 0.88616
 C28 C 1.19601 0.60092 0.86705
 N29 N 1.21032 0.61145 0.89585
 C30 C 1.19152 0.63710 0.90781
 C31 C 1.13107 0.69309 0.90556
 N32 N 1.10489 0.71005 0.89163
 C33 C 1.09600 0.69439 0.86305
 C34 C 1.10124 0.63843 0.80469
 N35 N 1.11548 0.61265 0.78809
 C36 C 1.14254 0.60172 0.80569
 H37 H 1.20556 0.58109 0.85150
 H38 H 1.19699 0.65097 0.93020
 H39 H 1.14417 0.70015 0.92808
 H40 H 1.07622 0.70238 0.84624
 H41 H 1.07935 0.65232 0.79643
 H42 H 1.15876 0.58127 0.79858
 C43 C 0.65515 -0.11252 0.13407
 C44 C 0.62962 -0.11088 0.15815
 C45 C 0.60568 -0.13595 0.16024
 C46 C 0.60682 -0.16290 0.13819
 C47 C 0.63225 -0.16462 0.11476
 C48 C 0.65664 -0.13946 0.11283
 C49 C 0.68269 -0.09268 0.12725
 N50 N 0.70104 -0.10729 0.10274
 C51 C 0.68527 -0.13594 0.09384
 C52 C 0.62816 -0.19390 0.09771
 N53 N 0.60071 -0.21002 0.11006
 C54 C 0.58751 -0.19128 0.13495
 C55 C 0.58596 -0.12941 0.18754
 N56 N 0.59745 -0.10115 0.20215
 C57 C 0.62399 -0.08951 0.18424
 H58 H 0.68945 -0.06991 0.13995
 H59 H 0.69414 -0.15320 0.07518
 H60 H 0.64416 -0.20285 0.07785
 H61 H 0.56572 -0.19789 0.14980
 H62 H 0.56573 -0.14490 0.19696
 H63 H 0.63913 -0.06801 0.19066
 C64 C -0.16259 1.11338 -0.36492
 C65 C -0.14153 1.11522 -0.33699
 C66 C -0.12060 1.14244 -0.33263
 C67 C -0.11963 1.16759 -0.35668
 C68 C -0.13963 1.16528 -0.38479
 C69 C -0.16171 1.13820 -0.38870
 C70 C -0.18822 1.09191 -0.37341
 N71 N -0.20330 1.10326 -0.40155
 C72 C -0.18689 1.13132 -0.41138
 C73 C -0.13332 1.19311 -0.40374
 N74 N -0.11018 1.21228 -0.38766
 C75 C -0.10190 1.19694 -0.35872
 C76 C -0.10444 1.13848 -0.30262
 N77 N -0.11467 1.10928 -0.28908
 C78 C -0.13734 1.09484 -0.30984
 H79 H -0.19644 1.07061 -0.35909
 H80 H -0.19396 1.14668 -0.43234
 H81 H -0.14494 1.19906 -0.42735
 H82 H -0.08396 1.20622 -0.34064
 H83 H -0.08639 1.15542 -0.29154
 H84 H -0.15020 1.07152 -0.30521
 C85 C 0.66543 0.61795 0.64118
 C86 C 0.64270 0.61859 0.66780
 C87 C 0.61722 0.64209 0.66864
 C88 C 0.61458 0.66569 0.64313
 C89 C 0.63681 0.66482 0.61663
 C90 C 0.66250 0.64078 0.61566
 C91 C 0.69339 0.59878 0.63476
 N92 N 0.70763 0.60944 0.60603
 C93 C 0.68891 0.63510 0.59408
 C94 C 0.62906 0.69129 0.59634
 N95 N 0.60320 0.70859 0.61029
 C96 C 0.59414 0.69303 0.63888
 C97 C 0.59903 0.63679 0.69728
 N98 N 0.61316 0.61088 0.71385
 C99 C 0.64001 0.59974 0.69616
 H100 H 0.70313 0.57900 0.65028
 H101 H 0.69459 0.64913 0.57184
 H102 H 0.64224 0.69821 0.57383
 H103 H 0.57457 0.70132 0.65572
 H104 H 0.57733 0.65087 0.70563
 H105 H 0.65612 0.57917 0.70325
 C106 C 0.84289 0.38554 0.13837
 C107 C 0.86859 0.38744 0.16233
 C108 C 0.89298 0.36278 0.16406
 C109 C 0.89214 0.33602 0.14177
 C110 C 0.86654 0.33405 0.11848
 C111 C 0.84168 0.35877 0.11692
 C112 C 0.81505 0.40504 0.13174
 N113 N 0.79681 0.39038 0.10713
 C114 C 0.81294 0.36202 0.09799
 C115 C 0.87111 0.30512 0.10101
 N116 N 0.89901 0.28942 0.11296
 C117 C 0.91202 0.30811 0.13803
 C118 C 0.91291 0.36954 0.19121
 N119 N 0.90113 0.39752 0.20607
 C120 C 0.87418 0.40879 0.18847
 H121 H 0.80809 0.42766 0.14457
 H122 H 0.80428 0.34483 0.07914
 H123 H 0.85516 0.29611 0.08109
 H124 H 0.93410 0.30179 0.15263
 H125 H 0.93356 0.35441 0.20032
 H126 H 0.85880 0.43002 0.19509
 C127 C 0.33184 0.11810 0.85714
 C128 C 0.35556 0.11804 0.83135
 C129 C 0.38161 0.14099 0.83123
 C130 C 0.38387 0.16472 0.85659
 C131 C 0.36060 0.16463 0.88227
 C132 C 0.33435 0.14108 0.88255
 C133 C 0.30343 0.09930 0.86291
 N134 N 0.28849 0.11025 0.89122
 C135 C 0.30728 0.13581 0.90347
 C136 C 0.36822 0.19122 0.90248
 N137 N 0.39508 0.20761 0.88933
 C138 C 0.40485 0.19160 0.86132
 C139 C 0.40069 0.13514 0.80327
 N140 N 0.38657 0.10943 0.78640
 C141 C 0.35885 0.09894 0.80323
 H142 H 0.29409 0.07937 0.84734
 H143 H 0.30142 0.14992 0.92559
 H144 H 0.35438 0.19891 0.92432
 H145 H 0.42523 0.19941 0.84518
 H146 H 0.42294 0.14878 0.79554
 H147 H 0.34248 0.07873 0.79568
 C148 C 0.15826 0.88697 0.36249
 C149 C 0.13266 0.88870 0.33841
 C150 C 0.10841 0.86388 0.33661
 C151 C 0.10932 0.83710 0.35893
 C152 C 0.13481 0.83532 0.38235
 C153 C 0.15949 0.86021 0.38399
 C154 C 0.18602 0.90660 0.36919
 N155 N 0.20421 0.89200 0.39387
 C156 C 0.18814 0.86358 0.40299
 C157 C 0.13041 0.80631 0.39977
 N158 N 0.10277 0.79042 0.38763
 C159 C 0.08969 0.80897 0.36255
 C160 C 0.08854 0.87053 0.30940
 N161 N 0.10022 0.89859 0.29455
 C162 C 0.12706 0.91001 0.31222
 H163 H 0.19299 0.92923 0.35633
 H164 H 0.19681 0.84640 0.42187
 H165 H 0.14630 0.79730 0.41973
 H166 H 0.06778 0.80234 0.34785
 H167 H 0.06799 0.85527 0.30024
 H168 H 0.14233 0.93137 0.30564
 Zn169 Zn -0.01212 0.95942 0.02010
 Zn170 Zn -0.04300 1.02108 -0.00711
 Zn171 Zn 0.02482 1.02447 0.02551
 Zn172 Zn 0.01606 0.99035 -0.04070
 O173 O -0.00343 0.99890 -0.00050
 O174 O -0.05635 0.95214 0.02646
 O175 O -0.04379 1.06022 0.01300
 O176 O 0.03572 1.00428 0.06407
 O177 O -0.07906 0.99899 0.00813
 O178 O 0.00674 0.95727 0.06012
 O179 O 0.00626 1.06380 0.03729
 O180 O 0.05678 1.00933 -0.04400
 O181 O -0.05111 1.03004 -0.04980
 O182 O 0.06382 1.03432 0.00460
 O183 O -0.00813 1.00573 -0.07517
 O184 O 0.02289 0.94692 -0.04823
 O185 O 0.00384 0.92414 -0.00190
 C186 C -0.08189 0.97049 0.02130
 C187 C -0.02261 1.07590 0.03063
 C188 C 0.02614 0.97662 0.07609
 C189 C 0.07433 1.02688 -0.02425
 C190 C -0.03526 1.02251 -0.07605
 C191 C 0.01771 0.92163 -0.03012
 Zn192 Zn 0.49075 -0.04179 0.47885
 Zn193 Zn 0.52035 -0.00984 0.53872
 Zn194 Zn 0.52650 0.02378 0.47229
 Zn195 Zn 0.45944 0.01913 0.50665
 O196 O 0.49937 -0.00210 0.49906
 O197 O 0.50678 -0.07667 0.50140
 O198 O 0.56160 0.00804 0.54008
 O199 O 0.53594 0.00398 0.43326
 O200 O 0.52637 -0.05325 0.54725
 O201 O 0.50920 -0.04414 0.43868
 O202 O 0.56662 0.03328 0.49141
 O203 O 0.45800 0.05895 0.48762
 O204 O 0.49788 0.00704 0.57349
 O205 O 0.50728 0.06314 0.46189
 O206 O 0.45143 0.02644 0.54970
 O207 O 0.42358 -0.00284 0.49089
 O208 O 0.44657 -0.04942 0.47244
 C209 C 0.52068 -0.07881 0.52967
 C210 C 0.57855 0.02524 0.51959
 C211 C 0.52717 -0.02419 0.42188
 C212 C 0.47864 0.07504 0.46971
 C213 C 0.46931 0.02125 0.57531
 C214 C 0.42094 -0.03120 0.47746
 Zn215 Zn 0.98233 0.49151 0.54133
 Zn216 Zn 0.97556 0.52433 0.47464
 Zn217 Zn 1.04310 0.51954 0.50835
 Zn218 Zn 1.01070 0.45848 0.48167
 O219 O 1.00283 0.49854 0.50141
 O220 O 0.94178 0.51048 0.54321
 O221 O 0.99518 0.56320 0.46334
 O222 O 1.05171 0.52751 0.55128
 O223 O 0.93596 0.53488 0.49422
 O224 O 1.00560 0.50816 0.57565
 O225 O 1.04481 0.55901 0.48851
 O226 O 1.05478 0.45013 0.47526
 O227 O 0.96526 0.50407 0.43602
 O228 O 1.07845 0.49684 0.49271
 O229 O 0.99198 0.45598 0.44157
 O230 O 0.99390 0.42409 0.50454
 O231 O 0.97502 0.44839 0.55016
 C232 C 0.92470 0.52771 0.52286
 C233 C 1.02408 0.57496 0.47056
 C234 C 1.03415 0.52245 0.57710
 C235 C 1.08067 0.46821 0.47980
 C236 C 0.97384 0.47581 0.42479
 C237 C 0.97984 0.42256 0.53276
 Zn238 Zn 0.48150 0.49023 0.96165
 Zn239 Zn 0.47517 0.52360 1.02804
 Zn240 Zn 0.51053 0.45779 1.02148
 Zn241 Zn 0.54250 0.51874 0.99410
 O242 O 0.50233 0.49767 1.00139
 O243 O 0.44083 0.50909 0.95976
 O244 O 0.46494 0.50348 1.06676
 O245 O 0.49432 0.42308 0.99872
 O246 O 0.43552 0.53412 1.00844
 O247 O 0.47458 0.44695 0.95315
 O248 O 0.49168 0.45537 1.06149
 O249 O 0.57809 0.49640 1.00991
 O250 O 0.49481 0.56256 1.03903
 O251 O 0.55465 0.44989 1.02815
 O252 O 0.54417 0.55843 1.01344
 O253 O 0.55077 0.52633 0.95107
 O254 O 0.50448 0.50678 0.92709
 C255 C 0.42400 0.52668 0.97995
 C256 C 0.47350 0.47524 1.07813
 C257 C 0.48013 0.42122 0.97055
 C258 C 0.58046 0.46797 1.02328
 C259 C 0.52355 0.57441 1.03143
 C260 C 0.53301 0.52110 0.92539
 C261 C 1.20702 0.42302 0.43342
 N262 N 1.22541 0.44247 0.41264
 N263 N 1.25460 0.43166 0.40022
 C264 C 1.26676 0.40118 0.40853
 N265 N 1.24844 0.38191 0.42963
 N266 N 1.21899 0.39251 0.44162
 C267 C 1.17452 0.43464 0.44641
 N268 N 1.15006 0.41260 0.45513
 N269 N 1.12013 0.42323 0.46596
 C270 C 1.11386 0.45625 0.46898
 N271 N 1.13845 0.47826 0.46061
 N272 N 1.16817 0.46765 0.44930
 C273 C 0.29767 0.57451 0.93504
 N274 N 0.28073 0.59925 0.95080
 N275 N 0.25200 0.61125 0.93819
 C276 C 0.23916 0.59891 0.90939
 N277 N 0.25609 0.57401 0.89390
 N278 N 0.28476 0.56211 0.90643
 C279 C 0.32998 0.56173 0.94776
 N280 N 0.34770 0.53937 0.92959
 N281 N 0.37744 0.52814 0.94016
 C282 C 0.39062 0.53870 0.96939
 N283 N 0.37285 0.56095 0.98779
 N284 N 0.34305 0.57232 0.97712
 C285 C -0.20936 0.92609 0.06563
 N286 N -0.22116 0.89550 0.05749
 N287 N -0.25067 0.88481 0.06926
 C288 C -0.26927 0.90407 0.09007
 N289 N -0.25732 0.93467 0.09829
 N290 N -0.22803 0.94557 0.08609
 C291 C -0.17660 0.93761 0.05314
 N292 N -0.16996 0.97059 0.05029
 N293 N -0.13996 0.98103 0.03948
 C294 C -0.11538 0.95887 0.03160
 N295 N -0.12197 0.92588 0.03457
 N296 N -0.15216 0.91544 0.04489
 C297 C 0.70852 0.06731 0.56014
 N298 N 0.72305 0.05284 0.58701
 N299 N 0.75224 0.06412 0.59899
 C300 C 0.76806 0.09047 0.58470
 N301 N 0.75370 0.10471 0.55750
 N302 N 0.72450 0.09331 0.54542
 C303 C 0.67528 0.05584 0.54852
 N304 N 0.66110 0.06812 0.52034
 N305 N 0.63039 0.05822 0.51077
 C306 C 0.61272 0.03589 0.52920
 N307 N 0.62697 0.02364 0.55729
 N308 N 0.65766 0.03337 0.56673
 C309 C 0.43524 0.20056 0.42357
 N310 N 0.45149 0.21716 0.39894
 N311 N 0.43963 0.24617 0.38789
 C312 C 0.41113 0.25965 0.40112
 N313 N 0.39508 0.24299 0.42582
 N314 N 0.40685 0.21402 0.43676
 C315 C 0.44741 0.16826 0.43563
 N316 N 0.42878 0.15104 0.45803
 N317 N 0.43903 0.12149 0.46888
 C318 C 0.46838 0.10805 0.45789
 N319 N 0.48722 0.12530 0.43556
 N320 N 0.47687 0.15490 0.42457
 C321 C 0.92908 0.29994 0.57924
 N322 N 0.93549 0.28921 0.61053
 N323 N 0.92280 0.26048 0.62128
 C324 C 0.90275 0.24162 0.60133
 N325 N 0.89614 0.25259 0.57009
 N326 N 0.90926 0.28109 0.55918
 C327 C 0.94316 0.33150 0.56732
 N328 N 0.94776 0.33678 0.53437
 N329 N 0.96016 0.36558 0.52347
 C330 C 0.96799 0.39029 0.54508
 N331 N 0.96327 0.38507 0.57803
 N332 N 0.95134 0.35607 0.58897
 C333 C 0.06480 0.79695 -0.07451
 N334 N 0.08654 0.77920 -0.05536
 N335 N 0.09962 0.75075 -0.06637
 C336 C 0.09104 0.73871 -0.09674
 N337 N 0.06890 0.75634 -0.11564
 N338 N 0.05625 0.78504 -0.10485
 C339 C 0.05150 0.82895 -0.06298
 N340 N 0.04861 0.83542 -0.03007
 N341 N 0.03716 0.86475 -0.01964
 C342 C 0.02868 0.88883 -0.04175
 N343 N 0.03171 0.88242 -0.07467
 N344 N 0.04264 0.85290 -0.08510
 C345 C 0.56599 0.70028 1.07755
 N346 N 0.54942 0.71681 1.10198
 N347 N 0.56072 0.74616 1.11269
 C348 C 0.58895 0.76008 1.09930
 N349 N 0.60534 0.74347 1.07480
 N350 N 0.59413 0.71415 1.06421
 C351 C 0.55428 0.66773 1.06572
 N352 N 0.57323 0.65055 1.04358
 N353 N 0.56322 0.62091 1.03275
 C354 C 0.53381 0.60733 1.04351
 N355 N 0.51469 0.62452 1.06560
 N356 N 0.52479 0.65420 1.07658
 C357 C 0.43297 0.43359 1.20592
 N358 N 0.44678 0.40566 1.21907
 N359 N 0.43676 0.39438 1.24852
 C360 C 0.41249 0.41057 1.26594
 N361 N 0.39878 0.43866 1.25287
 N362 N 0.40889 0.45001 1.22341
 C363 C 0.44349 0.44505 1.17291
 N364 N 0.43160 0.47394 1.15987
 N365 N 0.44109 0.48377 1.12966
 C366 C 0.46263 0.46493 1.11139
 N367 N 0.47443 0.43609 1.12447
 N368 N 0.46507 0.42635 1.15464
 C369 C 0.56591 -0.06524 0.29344
 N370 N 0.55221 -0.09334 0.28051
 N371 N 0.56193 -0.10450 0.25095
 C372 C 0.58577 -0.08802 0.23318
 N373 N 0.59936 -0.05977 0.24602
 N374 N 0.58956 -0.04854 0.27560
 C375 C 0.55580 -0.05392 0.32661
 N376 N 0.56778 -0.02501 0.33951
 N377 N 0.55873 -0.01533 0.36988
 C378 C 0.53754 -0.03433 0.38843
 N379 N 0.52564 -0.06319 0.37548
 N380 N 0.53457 -0.07278 0.34515
 C381 C -0.08233 1.07120 -0.19899
 N382 N -0.08940 1.05057 -0.22471
 N383 N -0.10013 1.06278 -0.25360
 C384 C -0.10359 1.09609 -0.25794
 N385 N -0.09624 1.11672 -0.23230
 N386 N -0.08607 1.10447 -0.20325
 C387 C -0.07074 1.05793 -0.16707
 N388 N -0.07735 1.07458 -0.13855
 N389 N -0.06653 1.06287 -0.10952
 C390 C -0.04824 1.03438 -0.10800
 N391 N -0.04145 1.01778 -0.13654
 N392 N -0.05278 1.02921 -0.16555
 C393 C 1.08142 0.57263 0.69940
 N394 N 1.11438 0.56980 0.70837
 N395 N 1.12530 0.58252 0.73695
 C396 C 1.10375 0.59897 0.75736
 N397 N 1.07082 0.60200 0.74827
 N398 N 1.05982 0.58888 0.71990
 C399 C 1.06934 0.55866 0.66793
 N400 N 1.03600 0.55209 0.66336
 N401 N 1.02492 0.53990 0.63462
 C402 C 1.04672 0.53420 0.60927
 N403 N 1.08007 0.54085 0.61380
 N404 N 1.09122 0.55263 0.64271
 C405 C 0.79755 0.57354 0.56714
 N406 N 0.77981 0.59733 0.55072
 N407 N 0.75074 0.60874 0.56299
 C408 C 0.73836 0.59671 0.59208
 N409 N 0.75606 0.57280 0.60830
 N410 N 0.78508 0.56148 0.59609
 C411 C 0.83017 0.56141 0.55470
 N412 N 0.84855 0.53992 0.57333
 N413 N 0.87851 0.52920 0.56292
 C414 C 0.89125 0.53944 0.53340
 N415 N 0.87284 0.56083 0.51455
 N416 N 0.84282 0.57169 0.52507
 C417 C 0.70717 0.42330 1.06961
 N418 N 0.72562 0.44278 1.09032
 N419 N 0.75488 0.43200 1.10270
 C420 C 0.76704 0.40153 1.09442
 N421 N 0.74865 0.38224 1.07339
 N422 N 0.71915 0.39280 1.06144
 C423 C 0.67455 0.43482 1.05670
 N424 N 0.65010 0.41269 1.04819
 N425 N 0.62010 0.42320 1.03738
 C426 C 0.61373 0.45619 1.03415
 N427 N 0.63831 0.47829 1.04231
 N428 N 0.66811 0.46780 1.05361
 C429 C 0.20030 1.07424 -0.07061
 N430 N 0.21327 1.06171 -0.09911
 N431 N 0.24218 1.07333 -0.11138
 C432 C 0.25928 1.09808 -0.09572
 N433 N 0.24631 1.11058 -0.06708
 N434 N 0.21739 1.09885 -0.05473
 C435 C 0.16793 1.06166 -0.05784
 N436 N 0.15545 1.07207 -0.02822
 N437 N 0.12577 1.06081 -0.01723
 C438 C 0.10748 1.03886 -0.03554
 N439 N 0.12002 1.02849 -0.06508
 N440 N 0.14970 1.03961 -0.07598
 C441 C 0.29387 -0.07516 0.43143
 N442 N 0.27549 -0.05563 0.41070
 N443 N 0.24620 -0.06637 0.39831
 C444 C 0.23397 -0.09684 0.40661
 N445 N 0.25229 -0.11616 0.42768
 N446 N 0.28181 -0.10563 0.43963
 C447 C 0.32656 -0.06378 0.44427
 N448 N 0.35087 -0.08604 0.45275
 N449 N 0.38096 -0.07570 0.46350
 C450 C 0.38755 -0.04275 0.46670
 N451 N 0.36311 -0.02051 0.45858
 N452 N 0.33321 -0.03083 0.44734
 C453 C 0.56496 -0.20383 0.57597
 N454 N 0.55622 -0.21538 0.60640
 N455 N 0.56823 -0.24432 0.61737
 C456 C 0.58990 -0.26252 0.59855
 N457 N 0.59865 -0.25082 0.56811
 N458 N 0.58620 -0.22216 0.55693
 C459 C 0.55236 -0.17169 0.56407
 N460 N 0.54949 -0.16564 0.53107
 N461 N 0.53877 -0.13620 0.52019
 C462 C 0.53106 -0.11158 0.54190
 N463 N 0.53407 -0.11756 0.57492
 N464 N 0.54427 -0.14719 0.58582
 C465 C 1.06701 0.69983 0.42218
 N466 N 1.09615 0.71299 0.43414
 N467 N 1.10750 0.74207 0.42302
 C468 C 1.09022 0.75910 0.39942
 N469 N 1.06101 0.74596 0.38737
 N470 N 1.04958 0.71683 0.39859
 C471 C 1.05513 0.66757 0.43463
 N472 N 1.02509 0.65444 0.42476
 N473 N 1.01488 0.62499 0.43627
 C474 C 1.03442 0.60766 0.45797
 N475 N 1.06437 0.62086 0.46777
 N476 N 1.07450 0.65025 0.45637
 C477 C -0.06491 1.20093 0.07883
 N478 N -0.09338 1.21452 0.06586
 N479 N -0.10501 1.24345 0.07698
 C480 C -0.08873 1.25995 0.10165
 N481 N -0.06015 1.24634 0.11467
 N482 N -0.04842 1.21736 0.10343
 C483 C -0.05298 1.16869 0.06644
 N484 N -0.02330 1.15518 0.07685
 N485 N -0.01319 1.12568 0.06537
 C486 C -0.03253 1.10871 0.04321
 N487 N -0.06210 1.12230 0.03291
 N488 N -0.07208 1.15172 0.04423
 C489 C 0.43426 0.29673 0.92392
 N490 N 0.43743 0.28817 0.89151
 N491 N 0.42529 0.25929 0.88054
 C492 C 0.40914 0.23812 0.90147
 N493 N 0.40587 0.24674 0.93387
 N494 N 0.41841 0.27543 0.94493
 C495 C 0.44710 0.32881 0.93588
 N496 N 0.45324 0.33367 0.96866
 N497 N 0.46434 0.36297 0.97958
 C498 C 0.46928 0.38860 0.95819
 N499 N 0.46304 0.38378 0.92542
 N500 N 0.45237 0.35434 0.91444
 C501 C 0.57947 0.57099 0.80271
 N502 N 0.55782 0.58736 0.78229
 N503 N 0.56870 0.60045 0.75387
 C504 C 0.60155 0.59729 0.74465
 N505 N 0.62315 0.58072 0.76498
 N506 N 0.61236 0.56802 0.79362
 C507 C 0.56757 0.55707 0.83426
 N508 N 0.58962 0.55100 0.85938
 N509 N 0.57867 0.53927 0.88837
 C510 C 0.54534 0.53271 0.89309
 N511 N 0.52335 0.53843 0.86785
 N512 N 0.53424 0.55058 0.83902
 C513 C 0.42177 0.06967 0.69810
 N514 N 0.38870 0.06676 0.70662
 N515 N 0.37745 0.07933 0.73511
 C516 C 0.39876 0.09570 0.75589
 N517 N 0.43180 0.09876 0.74728
 N518 N 0.44314 0.08581 0.71899
 C519 C 0.43406 0.05613 0.66655
 N520 N 0.46747 0.04993 0.66196
 N521 N 0.47864 0.03817 0.63308
 C522 C 0.45684 0.03256 0.60765
 N523 N 0.42345 0.03883 0.61222
 N524 N 0.41223 0.05018 0.64123
 C525 C 0.06750 0.93493 0.20369
 N526 N 0.09195 0.95113 0.22098
 N527 N 0.10218 0.93976 0.25041
 C528 C 0.08824 0.91185 0.26364
 N529 N 0.06361 0.89587 0.24642
 N530 N 0.05347 0.90718 0.21702
 C531 C 0.05679 0.94643 0.17073
 N532 N 0.03438 0.92819 0.15291
 N533 N 0.02481 0.93794 0.12280
 C534 C 0.03724 0.96634 0.10931
 N535 N 0.05963 0.98473 0.12713
 N536 N 0.06930 0.97489 0.15730
 C537 C 0.93350 0.43387 0.29700
 N538 N 0.90948 0.45031 0.27936
 N539 N 0.89939 0.43893 0.24991
 C540 C 0.91305 0.41079 0.23698
 N541 N 0.93726 0.39457 0.25454
 N542 N 0.94726 0.40588 0.28398
 C543 C 0.94398 0.44539 0.33001
 N544 N 0.96550 0.42672 0.34843
 N545 N 0.97481 0.43652 0.37860
 C546 C 0.96302 0.46541 0.39152
 N547 N 0.94154 0.48423 0.37309
 N548 N 0.93210 0.47433 0.34288
   
