data_POSCAR
  _audit_creation_date              2014-09-24
  _audit_creation_method            'ToBaCCo'
  _symmetry_space_group_name_H-M    'P1'
  _symmetry_Int_Tables_number       1
  _symmetry_cell_setting            triclinic
  loop_
  _symmetry_equiv_pos_as_xyz
 x,y,z
_cell_length_a 57.2908
_cell_length_b 57.2489
_cell_length_c 21.5572
_cell_angle_alpha 89.985400
_cell_angle_beta 89.956100
_cell_angle_gamma 119.981900
loop_
  _atom_site_label
  _atom_site_type_symbol
  _atom_site_fract_x
  _atom_site_fract_y
  _atom_site_fract_z
C1 C 0.19038 0.50755 0.49718
 C2 C 0.20197 0.50603 0.44153
 C3 C 0.22659 0.50635 0.44198
 C4 C 0.24090 0.50974 0.49809
 C5 C 0.22891 0.51198 0.55370
 C6 C 0.20355 0.51007 0.55326
 C7 C 0.26773 0.51057 0.49872
 C8 C 0.27914 0.50789 0.55487
 C9 C 0.30409 0.50892 0.55523
 C10 C 0.31750 0.51129 0.49966
 C11 C 0.30653 0.51329 0.44365
 C12 C 0.28230 0.51370 0.44310
 H13 H 0.17091 0.50652 0.49691
 H14 H 0.23398 0.50357 0.39816
 H15 H 0.23882 0.51519 0.59797
 H16 H 0.26896 0.50462 0.59881
 H17 H 0.33643 0.51124 0.49993
 H18 H 0.27528 0.51641 0.39875
 C19 C 0.48805 -0.31946 0.49952
 C20 C 0.48668 -0.30799 0.44359
 C21 C 0.48643 -0.28361 0.44357
 C22 C 0.48895 -0.26950 0.49969
 C23 C 0.49092 -0.28148 0.55564
 C24 C 0.48987 -0.30646 0.55545
 C25 C 0.48997 -0.24251 0.49987
 C26 C 0.48824 -0.23041 0.55594
 C27 C 0.49017 -0.20502 0.55593
 C28 C 0.49253 -0.19177 0.50007
 C29 C 0.49367 -0.20337 0.44420
 C30 C 0.49303 -0.22814 0.44398
 H31 H 0.48804 -0.33845 0.49947
 H32 H 0.48431 -0.27614 0.39925
 H33 H 0.49367 -0.27171 0.59992
 H34 H 0.48539 -0.24016 0.60030
 H35 H 0.49366 -0.17228 0.50011
 H36 H 0.49524 -0.23550 0.39963
 C37 C 1.31633 0.80908 0.49855
 C38 C 1.30284 0.79810 0.44294
 C39 C 1.27823 0.77377 0.44332
 C40 C 1.26737 0.75925 0.49924
 C41 C 1.28197 0.77058 0.55472
 C42 C 1.30578 0.79560 0.55438
 C43 C 1.24102 0.73286 0.49982
 C44 C 1.22644 0.72206 0.55571
 C45 C 1.20216 0.69740 0.55610
 C46 C 1.19128 0.68381 0.50054
 C47 C 1.20481 0.69432 0.44473
 C48 C 1.22980 0.71817 0.44439
 H49 H 1.33500 0.82832 0.49857
 H50 H 1.26777 0.76676 0.39970
 H51 H 1.27525 0.76038 0.59875
 H52 H 1.23336 0.73261 0.59926
 H53 H 1.17208 0.66511 0.50055
 H54 H 1.24004 0.72484 0.40039
 C55 C 0.80689 0.48921 0.49879
 C56 C 0.79604 0.49203 0.44340
 C57 C 0.77212 0.49304 0.44396
 C58 C 0.75780 0.48979 0.50004
 C59 C 0.76903 0.48626 0.55547
 C60 C 0.79371 0.48674 0.55478
 C61 C 0.73174 0.49042 0.50076
 C62 C 0.72101 0.49419 0.55678
 C63 C 0.69667 0.49445 0.55721
 C64 C 0.68332 0.49234 0.50160
 C65 C 0.69372 0.48927 0.44571
 C66 C 0.71726 0.48755 0.44529
 H67 H 0.82586 0.48926 0.49838
 H68 H 0.76533 0.49673 0.40031
 H69 H 0.75906 0.48316 0.59968
 H70 H 0.73136 0.49729 0.60044
 H71 H 0.66485 0.49329 0.50165
 H72 H 0.72383 0.48399 0.40119
 C73 C 0.50704 0.31627 0.50282
 C74 C 0.51044 0.30594 0.44716
 C75 C 0.51250 0.28256 0.44731
 C76 C 0.50962 0.26817 0.50306
 C77 C 0.50552 0.27882 0.55871
 C78 C 0.50496 0.30301 0.55863
 C79 C 0.51052 0.24223 0.50306
 C80 C 0.51406 0.23114 0.55880
 C81 C 0.51370 0.20646 0.55861
 C82 C 0.51134 0.19322 0.50272
 C83 C 0.50850 0.20397 0.44717
 C84 C 0.50738 0.22783 0.44729
 H85 H 0.50585 0.33462 0.50256
 H86 H 0.51633 0.27604 0.40344
 H87 H 0.50240 0.26854 0.60253
 H88 H 0.51707 0.24126 0.60278
 H89 H 0.51136 0.17426 0.50243
 H90 H 0.50365 0.23449 0.40352
 C91 C 0.68195 0.19376 0.50029
 C92 C 0.69498 0.20519 0.44459
 C93 C 0.71962 0.22943 0.44474
 C94 C 0.73121 0.24339 0.50095
 C95 C 0.71707 0.23145 0.55678
 C96 C 0.69306 0.20661 0.55628
 C97 C 0.75774 0.26977 0.50139
 C98 C 0.77176 0.28128 0.55758
 C99 C 0.79616 0.30582 0.55770
 C100 C 0.80766 0.31875 0.50189
 C101 C 0.79473 0.30769 0.44595
 C102 C 0.76976 0.28384 0.44553
 H103 H 0.66321 0.17461 0.50011
 H104 H 0.72937 0.23667 0.40050
 H105 H 0.72418 0.24090 0.60132
 H106 H 0.76440 0.27150 0.60176
 H107 H 0.82693 0.33739 0.50181
 H108 H 0.76027 0.27679 0.40102
 O109 O 0.96408 0.44197 0.11411
 O110 O 0.93416 0.44758 0.05449
 C111 C 0.93976 0.43583 0.09874
 O112 O 1.03923 0.56160 0.10754
 O113 O 1.06882 0.55438 0.05044
 C114 C 1.06347 0.56741 0.09200
 O115 O 0.96356 0.52188 0.11248
 O116 O 0.93353 0.48599 0.05357
 C117 C 0.93921 0.50367 0.09722
 O118 O 1.03912 0.47691 0.10537
 O119 O 1.06892 0.51436 0.05021
 C120 C 1.06340 0.49546 0.09067
 Zr121 Zr 1.00143 0.47092 0.07547
 O122 O 1.00403 0.46905 0.17291
 O123 O 0.99999 0.43351 0.06524
 Zr124 Zr 1.00134 0.53009 0.07680
 O125 O 1.00421 0.53215 0.17482
 O126 O 0.99849 0.56555 0.07479
 O127 O 0.97755 0.48856 0.08899
 O128 O 1.02464 0.51209 0.08752
 O129 O 1.03872 0.47703 -0.11074
 O130 O 1.06856 0.51430 -0.05536
 C131 C 1.06304 0.49561 -0.09615
 O132 O 0.96341 0.52196 -0.11568
 O133 O 0.93384 0.48627 -0.05578
 C134 C 0.93918 0.50360 -0.09995
 O135 O 1.03867 0.56200 -0.10985
 O136 O 1.06866 0.55464 -0.05499
 C137 C 1.06300 0.56791 -0.09534
 O138 O 0.96301 0.44151 -0.11486
 O139 O 0.93328 0.44746 -0.05483
 C140 C 0.93873 0.43543 -0.09885
 Zr141 Zr 1.00099 0.47109 -0.08007
 O142 O 1.00374 0.47202 -0.17809
 O143 O 0.99823 0.43282 -0.07881
 Zr144 Zr 1.00106 0.53026 -0.07907
 O145 O 1.00383 0.53305 -0.17690
 O146 O 0.99782 0.56551 -0.07525
 Zr147 Zr 0.96097 0.48047 -0.00103
 Zr148 Zr 1.04148 0.52079 -0.00215
 O149 O 1.02431 0.51235 -0.09145
 O150 O 0.97708 0.48872 -0.09161
 O151 O 1.02552 0.47869 -0.00267
 O152 O 0.97757 0.52258 -0.00080
 O153 O 0.97745 0.45486 -0.00185
 O154 O 1.02546 0.54691 -0.00135
 H155 H 1.03656 0.51787 0.12434
 H156 H 0.96517 0.52995 -0.00072
 H157 H 1.03616 0.51832 -0.12848
 H158 H 0.96504 0.43509 -0.00152
 H159 H 1.01462 0.57962 0.05297
 H160 H 1.01412 0.57971 -0.05433
 H161 H 0.99105 0.51500 -0.19354
 H162 H 0.98899 0.47448 -0.19442
 H163 H 1.01245 0.43412 -0.05063
 H164 H 0.99995 0.42701 0.10786
 H165 H 0.99634 0.47968 0.19050
 H166 H 0.98936 0.51505 0.19152
 O167 O 0.44136 0.47871 0.11336
 O168 O 0.44734 0.51442 0.05341
 C169 C 0.43537 0.49702 0.09755
 O170 O 0.56148 0.52288 0.10765
 O171 O 0.55410 0.48586 0.05135
 C172 C 0.56722 0.50435 0.09254
 O173 O 0.52183 0.55866 0.11411
 O174 O 0.48619 0.55272 0.05452
 C175 C 0.50356 0.56465 0.09862
 O176 O 0.47712 0.43858 0.10842
 O177 O 0.51405 0.44582 0.05168
 C178 C 0.49559 0.43276 0.09313
 Zr179 Zr 0.47075 0.47013 0.07746
 O180 O 0.47116 0.46765 0.17537
 O181 O 0.43239 0.43477 0.07463
 Zr182 Zr 0.52997 0.52928 0.07688
 O183 O 0.53283 0.52923 0.17475
 O184 O 0.56527 0.56766 0.07247
 O185 O 0.48843 0.51168 0.08955
 O186 O 0.51199 0.48806 0.08859
 O187 O 0.47642 0.43823 -0.10875
 O188 O 0.51371 0.44558 -0.05363
 C189 C 0.49480 0.43229 -0.09393
 O190 O 0.52136 0.55872 -0.11461
 O191 O 0.48561 0.55275 -0.05493
 C192 C 0.50313 0.56478 -0.09885
 O193 O 0.56153 0.52337 -0.10940
 O194 O 0.55423 0.48610 -0.05395
 C195 C 0.56747 0.50496 -0.09454
 O196 O 0.44130 0.47856 -0.11423
 O197 O 0.44723 0.51439 -0.05489
 C198 C 0.43522 0.49681 -0.09868
 Zr199 Zr 0.47066 0.47007 -0.07841
 O200 O 0.47098 0.46745 -0.17630
 O201 O 0.43221 0.43479 -0.07545
 Zr202 Zr 0.52972 0.52921 -0.07907
 O203 O 0.53177 0.52829 -0.17703
 O204 O 0.56495 0.56766 -0.07766
 Zr205 Zr 0.48020 0.51975 -0.00080
 Zr206 Zr 0.52041 0.47948 -0.00103
 O207 O 0.51185 0.48796 -0.09041
 O208 O 0.48822 0.51158 -0.09120
 O209 O 0.47832 0.45341 -0.00052
 O210 O 0.52225 0.54531 -0.00100
 O211 O 0.45465 0.47765 -0.00042
 O212 O 0.54653 0.52166 -0.00124
 H213 H 0.51796 0.48216 0.12554
 H214 H 0.52959 0.56508 -0.00099
 H215 H 0.51780 0.48195 -0.12722
 H216 H 0.43490 0.47034 -0.00035
 H217 H 0.57965 0.56530 0.05323
 H218 H 0.57880 0.56599 -0.05390
 H219 H 0.51437 0.52523 -0.19354
 H220 H 0.47526 0.48523 -0.19307
 H221 H 0.43416 0.42079 -0.05299
 H222 H 0.43458 0.42051 0.05418
 H223 H 0.47477 0.48523 0.19207
 H224 H 0.51481 0.52399 0.19160
 O225 O 0.47746 0.03669 0.11533
 O226 O 0.51322 0.06654 0.05610
 C227 C 0.49564 0.06097 0.09989
 O228 O 0.52275 -0.03838 0.10891
 O229 O 0.48552 -0.06823 0.05342
 C230 C 0.50434 -0.06269 0.09392
 O231 O 0.55820 0.03729 0.11450
 O232 O 0.55221 0.06713 0.05507
 C233 C 0.56424 0.06161 0.09888
 O234 O 0.43783 -0.03830 0.10884
 O235 O 0.44528 -0.06816 0.05350
 C236 C 0.43196 -0.06261 0.09398
 Zr237 Zr 0.46959 -0.00066 0.07851
 O238 O 0.46699 -0.00373 0.17640
 O239 O 0.43433 0.00252 0.07520
 Zr240 Zr 0.52875 -0.00058 0.07892
 O241 O 0.52796 -0.00360 0.17685
 O242 O 0.56719 0.00257 0.07694
 O243 O 0.51111 0.02330 0.09115
 O244 O 0.48753 -0.02394 0.09035
 O245 O 0.43829 -0.03838 -0.10844
 O246 O 0.44557 -0.06808 -0.05191
 C247 C 0.43251 -0.06266 -0.09320
 O248 O 0.55824 0.03740 -0.11294
 O249 O 0.55227 0.06717 -0.05313
 C250 C 0.56426 0.06170 -0.09717
 O251 O 0.52276 -0.03838 -0.10795
 O252 O 0.48567 -0.06812 -0.05182
 C253 C 0.50429 -0.06267 -0.09286
 O254 O 0.47858 0.03753 -0.11363
 O255 O 0.51411 0.06718 -0.05338
 C256 C 0.49687 0.06181 -0.09775
 Zr257 Zr 0.46978 -0.00050 -0.07743
 O258 O 0.46719 -0.00330 -0.17532
 O259 O 0.43449 0.00263 -0.07415
 Zr260 Zr 0.52891 -0.00058 -0.07702
 O261 O 0.52889 -0.00341 -0.17489
 O262 O 0.56731 0.00254 -0.07357
 Zr263 Zr 0.51933 0.03957 0.00080
 Zr264 Zr 0.47916 -0.04087 0.00082
 O265 O 0.48772 -0.02383 -0.08874
 O266 O 0.51130 0.02334 -0.08961
 O267 O 0.45302 -0.02487 0.00050
 O268 O 0.54487 0.02303 0.00092
 O269 O 0.47728 0.02307 0.00056
 O270 O 0.52127 -0.02484 0.00097
 H271 H 0.48150 -0.03594 0.12711
 H272 H 0.56462 0.03547 0.00090
 H273 H 0.48186 -0.03568 -0.12570
 H274 H 0.46999 0.03554 0.00041
 H275 H 0.56536 -0.01326 0.05418
 H276 H 0.56512 -0.01388 -0.05294
 H277 H 0.52456 0.01005 -0.19170
 H278 H 0.48508 0.00998 -0.19196
 H279 H 0.42018 -0.01390 -0.05409
 H280 H 0.42031 -0.01354 0.05319
 H281 H 0.48485 0.00955 0.19307
 H282 H 0.52490 0.01075 0.19348
 C283 C 1.13207 0.51936 0.16274
 C284 C 1.12646 0.49776 0.20236
 C285 C 1.10095 0.47466 0.20143
 C286 C 1.08081 0.47347 0.16295
 C287 C 1.18894 0.50420 0.38725
 C288 C 1.11192 0.51817 0.12384
 C289 C 1.14569 0.49997 0.24832
 C290 C 1.16052 0.50142 0.28969
 C291 C 1.17646 0.50288 0.34108
 C292 C 1.08586 0.49546 0.12470
 H293 H 1.15169 0.53746 0.16344
 H294 H 1.09630 0.45790 0.23217
 H295 H 1.06104 0.45560 0.16462
 H296 H 1.11646 0.53543 0.09502
 C297 C 0.51898 0.61909 0.21794
 C298 C 0.49690 0.62303 0.21109
 C299 C 0.47781 0.60909 0.16477
 C300 C 0.48044 0.59076 0.12654
 C301 C 0.48696 0.67973 0.38958
 C302 C 0.52158 0.60072 0.18009
 C303 C 0.49309 0.63985 0.25488
 C304 C 0.49044 0.65322 0.29450
 C305 C 0.48811 0.66798 0.34426
 C306 C 0.50208 0.58596 0.13463
 H307 H 0.53385 0.62972 0.25371
 H308 H 0.46057 0.61189 0.15918
 H309 H 0.46513 0.57984 0.09189
 H310 H 0.53857 0.59769 0.18742
 C311 C 0.38666 -0.13136 0.16583
 C312 C 0.37054 -0.12567 0.20478
 C313 C 0.37311 -0.10008 0.20356
 C314 C 0.39234 -0.07994 0.16544
 C315 C 0.31400 -0.18862 0.38884
 C316 C 0.40591 -0.11121 0.12729
 C317 C 0.35328 -0.14492 0.25049
 C318 C 0.33975 -0.15983 0.29166
 C319 C 0.32518 -0.17594 0.34284
 C320 C 0.40939 -0.08507 0.12786
 H321 H 0.38499 -0.15106 0.16677
 H322 H 0.36088 -0.09539 0.23375
 H323 H 0.39436 -0.06010 0.16682
 H324 H 0.41875 -0.11579 0.09907
 C325 C 0.90168 0.52242 0.21322
 C326 C 0.87550 0.50051 0.20854
 C327 C 0.86972 0.48016 0.16504
 C328 C 0.89024 0.48150 0.12716
 C329 C 0.81006 0.49401 0.38641
 C330 C 0.92218 0.52374 0.17577
 C331 C 0.85539 0.49823 0.25208
 C332 C 0.83983 0.49677 0.29161
 C333 C 0.82308 0.49533 0.34126
 C334 C 0.91682 0.50309 0.13294
 H335 H 0.90643 0.53818 0.24702
 H336 H 0.84954 0.46298 0.16141
 H337 H 0.88544 0.46531 0.09464
 H338 H 0.94234 0.54075 0.18132
 C339 C 0.47808 0.37630 0.20808
 C340 C 0.50136 0.37417 0.20638
 C341 C 0.52180 0.38956 0.16371
 C342 C 0.51935 0.40772 0.12448
 C343 C 0.51057 0.31905 0.38994
 C344 C 0.47566 0.39451 0.16923
 C345 C 0.50500 0.35792 0.25216
 C346 C 0.50751 0.34502 0.29320
 C347 C 0.50963 0.33067 0.34415
 C348 C 0.49654 0.41090 0.12794
 H349 H 0.46214 0.36451 0.24098
 H350 H 0.53997 0.38818 0.16211
 H351 H 0.53578 0.41998 0.09319
 H352 H 0.45776 0.39629 0.17288
 C353 C 0.60949 0.13138 0.16604
 C354 C 0.62421 0.12589 0.20972
 C355 C 0.62030 0.09983 0.21464
 C356 C 0.60133 0.07915 0.17734
 C357 C 0.68269 0.19139 0.38762
 C358 C 0.59052 0.11068 0.12830
 C359 C 0.64178 0.14614 0.25319
 C360 C 0.65574 0.16176 0.29275
 C361 C 0.67093 0.17847 0.34245
 C362 C 0.58589 0.08420 0.13437
 H363 H 0.61222 0.15147 0.16215
 H364 H 0.63145 0.09531 0.24853
 H365 H 0.59843 0.05908 0.18312
 H366 H 0.57900 0.11525 0.09567
 C367 C 0.48244 0.10127 -0.21794
 C368 C 0.50441 0.12728 -0.21002
 C369 C 0.52310 0.13225 -0.16284
 C370 C 0.52015 0.11113 -0.12472
 C371 C 0.51408 0.19416 -0.38751
 C372 C 0.47952 0.08014 -0.18020
 C373 C 0.50846 0.14812 -0.25341
 C374 C 0.51115 0.16426 -0.29278
 C375 C 0.51329 0.18136 -0.34232
 C376 C 0.49859 0.08470 -0.13378
 H377 H 0.46788 0.09718 -0.25441
 H378 H 0.54025 0.15227 -0.15640
 H379 H 0.53513 0.11539 -0.08929
 H380 H 0.46261 0.06013 -0.18836
 C381 C 0.61293 0.48155 -0.16572
 C382 C 0.62896 0.50326 -0.20502
 C383 C 0.62624 0.52620 -0.20440
 C384 C 0.60697 0.52714 -0.16649
 C385 C 0.68558 0.49664 -0.38864
 C386 C 0.59364 0.48248 -0.12739
 C387 C 0.64628 0.50123 -0.25053
 C388 C 0.65984 0.49980 -0.29157
 C389 C 0.67442 0.49820 -0.34265
 C390 C 0.59003 0.50507 -0.12848
 H391 H 0.61472 0.46359 -0.16620
 H392 H 0.63839 0.54304 -0.23487
 H393 H 0.60485 0.54489 -0.16833
 H394 H 0.58090 0.46513 -0.09883
 C395 C 0.90049 0.37938 -0.21465
 C396 C 0.87446 0.37549 -0.20972
 C397 C 0.86897 0.39016 -0.16585
 C398 C 0.88966 0.40910 -0.12801
 C399 C 0.80924 0.31740 -0.38836
 C400 C 0.92116 0.39831 -0.17727
 C401 C 0.85427 0.35800 -0.25336
 C402 C 0.83871 0.34412 -0.29308
 C403 C 0.82208 0.32902 -0.34298
 C404 C 0.91612 0.41374 -0.13419
 H405 H 0.90501 0.36825 -0.24865
 H406 H 0.84890 0.38744 -0.16193
 H407 H 0.88509 0.42059 -0.09526
 H408 H 0.94121 0.40121 -0.18310
 C409 C 0.47895 -0.13204 -0.16292
 C410 C 0.49977 -0.12691 -0.20448
 C411 C 0.52296 -0.10142 -0.20570
 C412 C 0.52493 -0.08082 -0.16741
 C413 C 0.49071 -0.19168 -0.38692
 C414 C 0.48093 -0.11147 -0.12425
 C415 C 0.49655 -0.14679 -0.24986
 C416 C 0.49420 -0.16226 -0.29061
 C417 C 0.49197 -0.17890 -0.34129
 C418 C 0.50368 -0.08542 -0.12721
 H419 H 0.46083 -0.15165 -0.16177
 H420 H 0.53918 -0.09718 -0.23776
 H421 H 0.54279 -0.06108 -0.17067
 H422 H 0.46420 -0.11571 -0.09390
 C423 C 0.37914 0.47871 -0.21460
 C424 C 0.37506 0.50075 -0.20973
 C425 C 0.38970 0.52100 -0.16610
 C426 C 0.40876 0.51942 -0.12833
 C427 C 0.31630 0.50730 -0.38774
 C428 C 0.39820 0.47715 -0.17728
 C429 C 0.35735 0.50323 -0.25320
 C430 C 0.34331 0.50476 -0.29277
 C431 C 0.32805 0.50615 -0.34251
 C432 C 0.41355 0.49767 -0.13431
 H433 H 0.36805 0.46299 -0.24843
 H434 H 0.38682 0.53827 -0.16225
 H435 H 0.42021 0.53554 -0.09570
 H436 H 0.40122 0.46005 -0.18300
 C437 C 1.13166 0.61348 -0.16711
 C438 C 1.12590 0.62957 -0.20596
 C439 C 1.10027 0.62687 -0.20481
 C440 C 1.08015 0.60752 -0.16686
 C441 C 1.18885 0.68625 -0.38982
 C442 C 1.11154 0.59412 -0.12874
 C443 C 1.14514 0.64693 -0.25157
 C444 C 1.16003 0.66049 -0.29269
 C445 C 1.17615 0.67507 -0.34384
 C446 C 1.08536 0.59051 -0.12935
 H447 H 1.15141 0.61529 -0.16795
 H448 H 1.09554 0.63912 -0.23487
 H449 H 1.06029 0.60541 -0.16826
 H450 H 1.11618 0.58133 -0.10052
 C451 C 0.86887 0.47726 -0.16501
 C452 C 0.87382 0.49614 -0.21180
 C453 C 0.89974 0.51828 -0.21939
 C454 C 0.92084 0.52117 -0.18173
 C455 C 0.80679 0.48631 -0.38858
 C456 C 0.88995 0.48018 -0.12698
 C457 C 0.85304 0.49209 -0.25516
 C458 C 0.83691 0.48937 -0.29442
 C459 C 0.81973 0.48716 -0.34371
 C460 C 0.91631 0.50190 -0.13577
 H461 H 0.84890 0.45998 -0.15888
 H462 H 0.90381 0.53298 -0.25557
 H463 H 0.94081 0.53820 -0.18955
 H464 H 0.88572 0.46503 -0.09190
 C465 C 0.47304 0.37298 -0.20210
 C466 C 0.49605 0.37042 -0.20350
 C467 C 0.51798 0.38672 -0.16517
 C468 C 0.51721 0.40614 -0.12706
 C469 C 0.50263 0.31407 -0.38740
 C470 C 0.47225 0.39238 -0.16443
 C471 C 0.49797 0.35309 -0.24907
 C472 C 0.49936 0.33959 -0.29021
 C473 C 0.50099 0.32513 -0.34140
 C474 C 0.49455 0.40960 -0.12747
 H475 H 0.45603 0.36060 -0.23187
 H476 H 0.53601 0.38507 -0.16632
 H477 H 0.53472 0.41911 -0.09932
 H478 H 0.45443 0.39438 -0.16569
 C479 C 0.60865 0.13173 -0.16374
 C480 C 0.62303 0.12656 -0.20896
 C481 C 0.61938 0.10062 -0.21492
 C482 C 0.60086 0.07970 -0.17722
 C483 C 0.67999 0.19320 -0.38693
 C484 C 0.59017 0.11083 -0.12566
 C485 C 0.63994 0.14708 -0.25272
 C486 C 0.65336 0.16307 -0.29229
 C487 C 0.66817 0.18017 -0.34188
 C488 C 0.58567 0.08444 -0.13287
 H489 H 0.61122 0.15172 -0.15897
 H490 H 0.63035 0.09637 -0.24991
 H491 H 0.59805 0.05970 -0.18380
 H492 H 0.57889 0.11520 -0.09187
 C493 C 1.13228 0.52082 -0.16648
 C494 C 1.12708 0.49994 -0.20789
 C495 C 1.10161 0.47675 -0.20880
 C496 C 1.08107 0.47485 -0.17050
 C497 C 1.19088 0.50944 -0.39271
 C498 C 1.11176 0.51894 -0.12784
 C499 C 1.14672 0.50321 -0.25390
 C500 C 1.16195 0.50567 -0.29528
 C501 C 1.17830 0.50805 -0.34664
 C502 C 1.08572 0.49618 -0.13055
 H503 H 1.15189 0.53893 -0.16565
 H504 H 1.09731 0.46051 -0.24082
 H505 H 1.06133 0.45701 -0.17355
 H506 H 1.11605 0.53577 -0.09773
 C507 C 0.47860 0.61008 -0.16568
 C508 C 0.49844 0.62437 -0.21046
 C509 C 0.52047 0.62031 -0.21596
 C510 C 0.52236 0.60154 -0.17828
 C511 C 0.49111 0.68175 -0.39067
 C512 C 0.48052 0.59129 -0.12755
 C513 C 0.49551 0.64159 -0.25453
 C514 C 0.49372 0.65525 -0.29469
 C515 C 0.49219 0.67015 -0.34507
 C516 C 0.50217 0.58643 -0.13437
 H517 H 0.46136 0.61296 -0.16128
 H518 H 0.53586 0.63117 -0.25066
 H519 H 0.53939 0.59846 -0.18458
 H520 H 0.46469 0.58007 -0.09409
 C521 C 0.37621 -0.10160 -0.20798
 C522 C 0.37392 -0.12709 -0.20561
 C523 C 0.38915 -0.13216 -0.16262
 C524 C 0.40730 -0.11152 -0.12364
 C525 C 0.31898 -0.19147 -0.38860
 C526 C 0.39442 -0.08092 -0.16937
 C527 C 0.35771 -0.14703 -0.25111
 C528 C 0.34486 -0.16249 -0.29201
 C529 C 0.33058 -0.17895 -0.34287
 C530 C 0.41065 -0.08546 -0.12775
 H531 H 0.36456 -0.09744 -0.24116
 H532 H 0.38762 -0.15179 -0.16056
 H533 H 0.41945 -0.11572 -0.09209
 H534 H 0.39635 -0.06118 -0.17348
 C535 C 0.52509 -0.10064 0.20347
 C536 C 0.50204 -0.12620 0.20396
 C537 C 0.48046 -0.13169 0.16455
 C538 C 0.48163 -0.11136 0.12626
 C539 C 0.49548 -0.18947 0.38716
 C540 C 0.52626 -0.08032 0.16561
 C541 C 0.49978 -0.14564 0.24939
 C542 C 0.49828 -0.16064 0.29039
 C543 C 0.49677 -0.17680 0.34137
 C544 C 0.50430 -0.08525 0.12760
 H545 H 0.54184 -0.09613 0.23403
 H546 H 0.46242 -0.15136 0.16492
 H547 H 0.46438 -0.11581 0.09761
 H548 H 0.54408 -0.06051 0.16752
 C549 C 0.38032 0.48122 0.21535
 C550 C 0.37682 0.50360 0.20913
 C551 C 0.39125 0.52303 0.16371
 C552 C 0.40964 0.52043 0.12573
 C553 C 0.31983 0.51337 0.38687
 C554 C 0.39877 0.47864 0.17776
 C555 C 0.36000 0.50741 0.25279
 C556 C 0.34660 0.51006 0.29229
 C557 C 0.33175 0.51233 0.34184
 C558 C 0.41402 0.49847 0.13324
 H559 H 0.36930 0.46608 0.25046
 H560 H 0.38878 0.54051 0.15868
 H561 H 0.42094 0.53598 0.09175
 H562 H 0.40145 0.46139 0.18451
 C563 C 1.13292 0.61063 0.16148
 C564 C 1.12789 0.62591 0.20446
 C565 C 1.10246 0.62369 0.20681
 C566 C 1.08179 0.60552 0.16817
 C567 C 1.19197 0.68101 0.38772
 C568 C 1.11228 0.59250 0.12246
 C569 C 1.14781 0.64212 0.25000
 C570 C 1.16319 0.65501 0.29099
 C571 C 1.17954 0.66934 0.34195
 C572 C 1.08628 0.58925 0.12653
 H573 H 1.15250 0.61210 0.15946
 H574 H 1.09832 0.63537 0.24003
 H575 H 1.06207 0.60363 0.17236
 H576 H 1.11640 0.58027 0.09096
 C577 C 0.51945 0.13063 0.16710
 C578 C 0.49928 0.12488 0.21111
 C579 C 0.47739 0.09870 0.21623
 C580 C 0.47591 0.07815 0.17879
 C581 C 0.50649 0.18992 0.39031
 C582 C 0.51796 0.11005 0.12922
 C583 C 0.50181 0.14494 0.25495
 C584 C 0.50344 0.16040 0.29487
 C585 C 0.50507 0.17698 0.34496
 C586 C 0.49638 0.08345 0.13549
 H587 H 0.53662 0.15081 0.16312
 H588 H 0.46177 0.09399 0.25043
 H589 H 0.45897 0.05797 0.18477
 H590 H 0.53404 0.11480 0.09638
 C591 C 0.61057 0.47831 0.16239
 C592 C 0.62593 0.49873 0.20501
 C593 C 0.62375 0.52200 0.20693
 C594 C 0.60551 0.52440 0.16827
 C595 C 0.68059 0.48919 0.38870
 C596 C 0.59240 0.48074 0.12334
 C597 C 0.64207 0.49501 0.25078
 C598 C 0.65486 0.49242 0.29187
 C599 C 0.66906 0.49020 0.34290
 C600 C 0.58916 0.50352 0.12699
 H601 H 0.61198 0.46016 0.16070
 H602 H 0.63550 0.53790 0.23986
 H603 H 0.60367 0.54228 0.17207
 H604 H 0.58016 0.46433 0.09207
 C605 C 0.86980 0.39147 0.16550
 C606 C 0.87500 0.37735 0.21128
 C607 C 0.90099 0.38120 0.21774
 C608 C 0.92190 0.39967 0.17994
 C609 C 0.80817 0.32064 0.38912
 C610 C 0.89068 0.40991 0.12735
 C611 C 0.85445 0.36048 0.25500
 C612 C 0.83842 0.34710 0.29451
 C613 C 0.82125 0.33238 0.34406
 C614 C 0.91711 0.41458 0.13498
 H615 H 0.84977 0.38873 0.16030
 H616 H 0.90524 0.37041 0.25314
 H617 H 0.94193 0.40264 0.18682
 H618 H 0.88626 0.42100 0.09313
   
