data_POSCAR
  _audit_creation_date              2014-09-24
  _audit_creation_method            'ToBaCCo'
  _symmetry_space_group_name_H-M    'P1'
  _symmetry_Int_Tables_number       1
  _symmetry_cell_setting            triclinic
  loop_
  _symmetry_equiv_pos_as_xyz
 x,y,z
_cell_length_a 31.4728
_cell_length_b 31.6187
_cell_length_c 37.1601
_cell_angle_alpha 88.951300
_cell_angle_beta 90.099800
_cell_angle_gamma 90.210800
loop_
  _atom_site_label
  _atom_site_type_symbol
  _atom_site_fract_x
  _atom_site_fract_y
  _atom_site_fract_z
Si1 Si 1.24405 0.24784 0.25199
 Si2 Si 0.74326 -0.25079 0.25098
 Si3 Si 0.74184 0.25210 -0.25022
 Si4 Si 1.24412 -0.24685 -0.25111
 Si5 Si 0.25958 0.24507 0.75083
 Si6 Si 0.75969 0.74355 0.74801
 Si7 Si 0.76104 0.25659 0.25128
 Si8 Si 0.25507 0.75198 0.24897
 O9 O 1.07810 0.04854 0.02492
 O10 O 0.91679 -0.04916 0.02624
 O11 O 0.94803 0.08040 0.02299
 O12 O 1.04697 -0.08107 0.02606
 O13 O 0.92445 0.02226 0.04431
 O14 O 1.06987 -0.02262 0.04552
 O15 O 0.97570 -0.07277 0.04612
 O16 O 1.01933 0.07234 0.04383
 C17 C 1.05772 0.06728 0.04848
 C18 C 0.93727 -0.06791 0.05041
 C19 C 0.92949 0.06062 0.04765
 C20 C 1.06583 -0.06109 0.04989
 O21 O 1.07820 -0.04886 -0.02402
 O22 O 0.91663 0.04807 -0.02623
 O23 O 1.04695 0.08049 -0.02544
 O24 O 0.94814 -0.08129 -0.02286
 O25 O 0.92465 -0.02326 -0.04422
 O26 O 1.07013 0.02212 -0.04448
 O27 O 1.01946 -0.07266 -0.04346
 O28 O 0.97552 0.07215 -0.04595
 Co29 Co 1.06663 -0.00022 0.00047
 Co30 Co 0.92806 -0.00052 0.00005
 Co31 Co 0.99748 0.06883 -0.00100
 Co32 Co 0.99757 -0.06941 0.00132
 O33 O 0.99743 -0.00032 0.00021
 C34 C 1.05791 -0.06753 -0.04782
 C35 C 0.93699 0.06734 -0.05023
 C36 C 1.06569 0.06045 -0.04912
 C37 C 0.92971 -0.06157 -0.04758
 O38 O 1.08143 0.53444 0.53877
 O39 O 0.90855 0.45761 0.51175
 O40 O 0.96728 0.57871 0.52988
 O41 O 1.03019 0.43522 0.55355
 O42 O 0.93819 0.51985 0.54513
 O43 O 1.08836 0.45631 0.52966
 O44 O 0.95842 0.44186 0.54620
 O45 O 1.04281 0.58567 0.51563
 C46 C 1.06887 0.57184 0.53896
 C47 C 0.92046 0.43749 0.53868
 C48 C 0.94633 0.55713 0.55211
 C49 C 1.06915 0.43828 0.55470
 O50 O 1.08215 0.46710 0.46120
 O51 O 0.89584 0.53407 0.48753
 O52 O 1.02432 0.56323 0.44642
 O53 O 0.96491 0.42318 0.47322
 O54 O 0.94113 0.48367 0.45297
 O55 O 1.08449 0.54629 0.46927
 O56 O 1.04201 0.41530 0.48280
 O57 O 0.95078 0.56009 0.45956
 Co58 Co 1.07660 0.50103 0.49990
 Co59 Co 0.94221 0.50307 0.49891
 Co60 Co 0.99708 0.56569 0.48921
 Co61 Co 0.99916 0.43434 0.51274
 O62 O 1.00650 0.49920 0.50125
 C63 C 1.06935 0.42952 0.46057
 C64 C 0.91140 0.56274 0.46603
 C65 C 1.06345 0.56201 0.44403
 C66 C 0.94724 0.44503 0.44858
 O67 O 0.57674 0.01881 0.54418
 O68 O 0.43075 -0.02287 0.54373
 O69 O 0.48040 0.07019 0.54225
 O70 O 0.52792 -0.07403 0.54334
 O71 O 0.42224 0.04816 0.52099
 O72 O 0.58601 -0.05141 0.52180
 O73 O 0.45599 -0.08140 0.52589
 O74 O 0.55200 0.07782 0.52523
 C75 C 0.57043 0.05671 0.54926
 C76 C 0.43660 -0.06099 0.54915
 C77 C 0.44180 0.06600 0.54553
 C78 C 0.56667 -0.07047 0.54634
 O79 O 0.57697 -0.02066 0.45380
 O80 O 0.43104 0.01979 0.45316
 O81 O 0.52824 0.07136 0.45398
 O82 O 0.48005 -0.07313 0.45480
 O83 O 0.42195 -0.05132 0.47586
 O84 O 0.58623 0.04948 0.47603
 O85 O 0.55182 -0.07989 0.47230
 O86 O 0.45634 0.07844 0.47117
 Co87 Co 0.57371 -0.00098 0.49894
 Co88 Co 0.43426 -0.00152 0.49845
 Co89 Co 0.50422 0.06730 0.49817
 Co90 Co 0.50396 -0.06998 0.49905
 O91 O 0.50401 -0.00131 0.49866
 C92 C 0.57012 -0.05843 0.44840
 C93 C 0.43696 0.05795 0.44783
 C94 C 0.56703 0.06829 0.45130
 C95 C 0.44137 -0.06947 0.45151
 O96 O 0.57814 0.55084 0.02329
 O97 O 0.41643 0.45285 0.02810
 O98 O 0.44822 0.58235 0.02300
 O99 O 0.54659 0.42119 0.02833
 O100 O 0.42501 0.52454 0.04539
 O101 O 0.57057 0.48021 0.04583
 O102 O 0.47526 0.42999 0.04856
 O103 O 0.51976 0.57493 0.04260
 C104 C 0.55814 0.56966 0.04698
 C105 C 0.43678 0.43488 0.05272
 C106 C 0.42997 0.56300 0.04810
 C107 C 0.56614 0.44193 0.05129
 O108 O 0.57771 0.45163 -0.02283
 O109 O 0.41585 0.54913 -0.02512
 O110 O 0.54597 0.58117 -0.02734
 O111 O 0.44765 0.41987 -0.02043
 O112 O 0.42385 0.47751 -0.04245
 O113 O 0.56936 0.52223 -0.04517
 O114 O 0.51881 0.42718 -0.04123
 O115 O 0.47423 0.57199 -0.04652
 Co116 Co 0.56647 0.50122 0.00034
 Co117 Co 0.42777 0.50101 0.00143
 Co118 Co 0.49705 0.57012 -0.00180
 Co119 Co 0.49708 0.43201 0.00354
 O120 O 0.49711 0.50108 0.00088
 C121 C 0.55720 0.43226 -0.04605
 C122 C 0.43563 0.56708 -0.05009
 C123 C 0.56488 0.56048 -0.05057
 C124 C 0.42938 0.43921 -0.04545
 C125 C 1.16526 0.17110 0.17792
 N126 N 1.18098 0.13476 0.16450
 N127 N 1.15890 0.11311 0.14032
 C128 C 1.12043 0.12714 0.12887
 N129 N 1.10467 0.16343 0.14234
 N130 N 1.12675 0.18508 0.16652
 C131 C 1.18994 0.19543 0.20260
 C132 C 1.21117 0.21619 0.22273
 C133 C 1.09776 0.10515 0.10139
 C134 C 1.07921 0.08741 0.07760
 C135 C 1.16567 0.68554 0.66820
 N136 N 1.16831 0.69883 0.63335
 N137 N 1.14717 0.67861 0.60771
 C138 C 1.12263 0.64453 0.61616
 N139 N 1.11991 0.63129 0.65102
 N140 N 1.14105 0.65152 0.67667
 C141 C 1.18985 0.70643 0.69546
 C142 C 1.21097 0.72443 0.71757
 C143 C 1.10223 0.62091 0.58835
 C144 C 1.08628 0.59953 0.56539
 C145 C 0.66459 0.16616 0.68235
 N146 N 0.62712 0.17923 0.66802
 N147 N 0.60716 0.15592 0.64367
 C148 C 0.62410 0.11887 0.63289
 N149 N 0.66149 0.10572 0.64732
 N150 N 0.68144 0.12902 0.67168
 C151 C 0.68797 0.19302 0.70600
 C152 C 0.70867 0.21623 0.72453
 C153 C 0.60446 0.09567 0.60450
 C154 C 0.58863 0.07726 0.57972
 C155 C 0.66653 0.67033 0.17742
 N156 N 0.68485 0.63836 0.15929
 N157 N 0.66276 0.61718 0.13484
 C158 C 0.62172 0.62736 0.12781
 N159 N 0.60338 0.65925 0.14601
 N160 N 0.62547 0.68043 0.17046
 C161 C 0.69097 0.69470 0.20212
 C162 C 0.71174 0.71595 0.22215
 C163 C 0.59879 0.60625 0.10008
 C164 C 0.57997 0.58920 0.07612
 C165 C 0.82949 -0.17517 0.18036
 N166 N 0.81984 -0.13414 0.17304
 N167 N 0.84236 -0.11186 0.14895
 C168 C 0.87518 -0.12999 0.13148
 N169 N 0.88492 -0.17098 0.13888
 N170 N 0.86240 -0.19326 0.16296
 C171 C 0.80339 -0.19985 0.20434
 C172 C 0.78029 -0.22047 0.22360
 C173 C 0.89760 -0.10701 0.10386
 C174 C 0.91591 -0.08858 0.07984
 C175 C 0.80799 0.32930 0.66528
 N176 N 0.81954 0.30992 0.63455
 N177 N 0.83883 0.33167 0.60817
 C178 C 0.84690 0.37357 0.61160
 N179 N 0.83529 0.39298 0.64231
 N180 N 0.81599 0.37122 0.66870
 C181 C 0.78755 0.30559 0.69374
 C182 C 0.76998 0.28491 0.71693
 C183 C 0.87040 0.39633 0.58433
 C184 C 0.89201 0.41523 0.56257
 C185 C 0.32862 -0.16711 0.67976
 N186 N 0.31698 -0.12744 0.66948
 N187 N 0.34000 -0.10562 0.64542
 C188 C 0.37532 -0.12283 0.63092
 N189 N 0.38703 -0.16244 0.64129
 N190 N 0.36402 -0.18426 0.66535
 C191 C 0.30216 -0.19177 0.70353
 C192 C 0.27934 -0.21320 0.72245
 C193 C 0.39821 -0.10059 0.60310
 C194 C 0.41637 -0.08232 0.57887
 C195 C 0.32369 0.33158 0.18186
 N196 N 0.30655 0.36443 0.16297
 N197 N 0.33000 0.38642 0.13932
 C198 C 0.37130 0.37624 0.13387
 N199 N 0.38846 0.34346 0.15284
 N200 N 0.36501 0.32148 0.17649
 C201 C 0.29777 0.30610 0.20550
 C202 C 0.27610 0.28366 0.22458
 C203 C 0.39552 0.39787 0.10648
 C204 C 0.41497 0.41520 0.08248
 C205 C 0.82734 0.17611 -0.17869
 N206 N 0.81772 0.13495 -0.17151
 N207 N 0.84050 0.11260 -0.14767
 C208 C 0.87362 0.13071 -0.13026
 N209 N 0.88330 0.17183 -0.13749
 N210 N 0.86052 0.19419 -0.16133
 C211 C 0.80125 0.20080 -0.20281
 C212 C 0.77836 0.22146 -0.22231
 C213 C 0.89661 0.10742 -0.10302
 C214 C 0.91533 0.08861 -0.07935
 C215 C 0.80617 0.67438 0.33805
 N216 N 0.80117 0.63185 0.34096
 N217 N 0.81911 0.61032 0.36810
 C218 C 0.84226 0.63073 0.39328
 N219 N 0.84718 0.67327 0.39040
 N220 N 0.82924 0.69480 0.36326
 C221 C 0.78694 0.69761 0.30892
 C222 C 0.77026 0.71769 0.28502
 C223 C 0.86428 0.60723 0.42077
 C224 C 0.88464 0.58712 0.44248
 C225 C 0.32813 0.16631 0.31952
 N226 N 0.31549 0.12697 0.33008
 N227 N 0.33871 0.10446 0.35346
 C228 C 0.37527 0.12061 0.36696
 N229 N 0.38798 0.15990 0.35630
 N230 N 0.36477 0.18241 0.33292
 C231 C 0.30165 0.19171 0.29647
 C232 C 0.27890 0.21368 0.27806
 C233 C 0.39833 0.09784 0.39427
 C234 C 0.41662 0.07930 0.41824
 C235 C 0.32238 0.66973 -0.17966
 N236 N 0.36443 0.67804 -0.17571
 N237 N 0.38758 0.65623 -0.15176
 C238 C 0.36939 0.62543 -0.13104
 N239 N 0.32736 0.61704 -0.13506
 N240 N 0.30421 0.63885 -0.15900
 C241 C 0.29696 0.69508 -0.20376
 C242 C 0.27569 0.71743 -0.22323
 C243 C 0.39360 0.60389 -0.10357
 C244 C 0.41326 0.58665 -0.07963
 C245 C 1.16569 -0.17001 -0.17734
 N246 N 1.12672 -0.18375 -0.16673
 N247 N 1.10466 -0.16238 -0.14251
 C248 C 1.12088 -0.12662 -0.12818
 N249 N 1.15981 -0.11283 -0.13884
 N250 N 1.18187 -0.13420 -0.16306
 C251 C 1.19033 -0.19414 -0.20203
 C252 C 1.21148 -0.21488 -0.22210
 C253 C 1.09814 -0.10493 -0.10068
 C254 C 1.07951 -0.08743 -0.07690
 C255 C 1.16597 0.31581 0.33202
 N256 N 1.16646 0.30146 0.36664
 N257 N 1.14537 0.32195 0.39201
 C258 C 1.12306 0.35735 0.38348
 N259 N 1.12250 0.37165 0.34884
 N260 N 1.14359 0.35117 0.32347
 C261 C 1.19014 0.29464 0.30512
 C262 C 1.21119 0.27649 0.28323
 C263 C 1.10270 0.38103 0.41109
 C264 C 1.08678 0.40228 0.43399
 C265 C 0.66332 -0.16490 0.31456
 N266 N 0.67924 -0.12702 0.32466
 N267 N 0.65896 -0.10411 0.34890
 C268 C 0.62221 -0.11846 0.36375
 N269 N 0.60616 -0.15622 0.35350
 N270 N 0.62645 -0.17913 0.32926
 C271 C 0.68756 -0.19159 0.29184
 C272 C 0.70907 -0.21483 0.27436
 C273 C 0.60287 -0.09609 0.39245
 C274 C 0.58754 -0.07836 0.41761
 C275 C 0.66385 0.32918 -0.17611
 N276 N 0.67965 0.36554 -0.16254
 N277 N 0.65780 0.38681 -0.13811
 C278 C 0.61947 0.37237 -0.12651
 N279 N 0.60363 0.33605 -0.14013
 N280 N 0.62548 0.31478 -0.16456
 C281 C 0.68835 0.30514 -0.20103
 C282 C 0.70937 0.28440 -0.22123
 C283 C 0.59692 0.39414 -0.09888
 C284 C 0.57850 0.41185 -0.07508
 C285 C 1.17648 0.16685 -0.17773
 N286 N 1.14088 0.18406 -0.16375
 N287 N 1.11751 0.16233 -0.13991
 C288 C 1.12906 0.12272 -0.12937
 N289 N 1.16460 0.10546 -0.14342
 N290 N 1.18797 0.12720 -0.16727
 C291 C 1.20288 0.19116 -0.20174
 C292 C 1.22540 0.21221 -0.22119
 C293 C 1.10553 0.10042 -0.10202
 C294 C 1.08675 0.08202 -0.07825
 C295 C 1.17486 0.67168 0.31736
 N296 N 1.18961 0.63424 0.33057
 N297 N 1.16632 0.61119 0.35362
 C298 C 1.12753 0.62482 0.36411
 N299 N 1.11274 0.66222 0.35083
 N300 N 1.13603 0.68527 0.32778
 C301 C 1.20089 0.69759 0.29405
 C302 C 1.22307 0.71977 0.27511
 C303 C 1.10384 0.60154 0.39095
 C304 C 1.08482 0.58290 0.41456
 C305 C 0.68102 0.17852 0.32617
 N306 N 0.69544 0.14099 0.33948
 N307 N 0.67221 0.11849 0.36296
 C308 C 0.63380 0.13278 0.37381
 N309 N 0.61935 0.17028 0.36046
 N310 N 0.64258 0.19279 0.33699
 C311 C 0.70659 0.20336 0.30167
 C312 C 0.72823 0.22445 0.28140
 C313 C 0.60960 0.10941 0.40028
 C314 C 0.58981 0.09031 0.42317
 C315 C 0.67654 0.66563 -0.17983
 N316 N 0.63999 0.68220 -0.16702
 N317 N 0.61658 0.66057 -0.14310
 C318 C 0.62900 0.62170 -0.13129
 N319 N 0.66550 0.60509 -0.14416
 N320 N 0.68891 0.62671 -0.16808
 C321 C 0.70289 0.68990 -0.20407
 C322 C 0.72538 0.71086 -0.22370
 C323 C 0.60525 0.59955 -0.10385
 C324 C 0.58624 0.58145 -0.07997
 C325 C 0.83266 -0.17381 -0.17805
 N326 N 0.81548 -0.13708 -0.16678
 N327 N 0.83547 -0.11389 -0.14234
 C328 C 0.87326 -0.12672 -0.12844
 N329 N 0.89049 -0.16340 -0.13978
 N330 N 0.87049 -0.18659 -0.16421
 C331 C 0.81003 -0.19987 -0.20292
 C332 C 0.79043 -0.22218 -0.22307
 C333 C 0.89368 -0.10293 -0.10074
 C334 C 0.91037 -0.08364 -0.07681
 C335 C 0.84528 0.33640 0.31912
 N336 N 0.87901 0.31906 0.33665
 N337 N 0.90171 0.34184 0.35967
 C338 C 0.89148 0.38272 0.36581
 N339 N 0.85784 0.40010 0.34818
 N340 N 0.83514 0.37732 0.32516
 C341 C 0.81904 0.31100 0.29624
 C342 C 0.79633 0.28943 0.27782
 C343 C 0.91325 0.40590 0.39325
 C344 C 0.92986 0.42442 0.41769
 C345 C 0.33203 -0.17323 0.32231
 N346 N 0.31588 -0.13762 0.33675
 N347 N 0.33795 -0.11628 0.36118
 C348 C 0.37686 -0.12988 0.37195
 N349 N 0.39303 -0.16545 0.35746
 N350 N 0.37097 -0.18679 0.33304
 C351 C 0.30740 -0.19727 0.29720
 C352 C 0.28621 -0.21790 0.27681
 C353 C 0.39991 -0.10788 0.39938
 C354 C 0.41897 -0.09000 0.42292
 C355 C 0.33578 0.32482 -0.17580
 N356 N 0.32459 0.36577 -0.17139
 N357 N 0.34425 0.38926 -0.14701
 C358 C 0.37568 0.37247 -0.12631
 N359 N 0.38696 0.33155 -0.13079
 N360 N 0.36729 0.30806 -0.15517
 C361 C 0.31281 0.29892 -0.20041
 C362 C 0.29241 0.27722 -0.22038
 C363 C 0.39513 0.39689 -0.09865
 C364 C 0.41095 0.41669 -0.07470
 C365 C 1.17652 -0.16938 0.17805
 N366 N 1.19122 -0.13194 0.16462
 N367 N 1.16830 -0.10976 0.14075
 C368 C 1.12997 -0.12431 0.12959
 N369 N 1.11522 -0.16171 0.14308
 N370 N 1.13814 -0.18390 0.16694
 C371 C 1.20213 -0.19436 0.20235
 C372 C 1.22387 -0.21600 0.22205
 C373 C 1.10638 -0.10152 0.10240
 C374 C 1.08737 -0.08283 0.07883
 C375 C 1.18153 0.32859 0.67993
 N376 N 1.13936 0.32131 0.67568
 N377 N 1.11677 0.34471 0.65248
 C378 C 1.13569 0.37608 0.63291
 N379 N 1.17784 0.38343 0.63723
 N380 N 1.20043 0.36004 0.66043
 C381 C 1.20624 0.30212 0.70350
 C382 C 1.22731 0.27948 0.72274
 C383 C 1.11201 0.39933 0.60631
 C384 C 1.09232 0.41777 0.58314
 C385 C 0.68022 -0.17940 0.67225
 N386 N 0.64344 -0.19553 0.65915
 N387 N 0.62024 -0.17332 0.63551
 C388 C 0.63307 -0.13426 0.62429
 N389 N 0.66982 -0.11811 0.63743
 N390 N 0.69303 -0.14032 0.66107
 C391 C 0.70577 -0.20383 0.69697
 C392 C 0.72729 -0.22464 0.71746
 C393 C 0.60900 -0.11112 0.59765
 C394 C 0.58932 -0.09223 0.57462
 C395 C 0.67881 0.33571 0.17933
 N396 N 0.64058 0.32070 0.16834
 N397 N 0.61724 0.34265 0.14462
 C398 C 0.63137 0.38031 0.13119
 N399 N 0.66956 0.39536 0.14225
 N400 N 0.69290 0.37341 0.16596
 C401 C 0.70492 0.31101 0.20344
 C402 C 0.72714 0.28973 0.22301
 C403 C 0.60743 0.40274 0.10403
 C404 C 0.58809 0.42098 0.08041
 C405 C 0.83319 0.17379 0.17735
 N406 N 0.81545 0.13720 0.16599
 N407 N 0.83519 0.11377 0.14172
 C408 C 0.87327 0.12621 0.12807
 N409 N 0.89105 0.16275 0.13949
 N410 N 0.87131 0.18618 0.16376
 C411 C 0.81090 0.20005 0.20214
 C412 C 0.79155 0.22243 0.22227
 C413 C 0.89350 0.10214 0.10054
 C414 C 0.91011 0.08269 0.07676
 C415 C 0.84403 0.66296 0.68187
 N416 N 0.83212 0.62294 0.67385
 N417 N 0.85501 0.60022 0.65111
 C418 C 0.89062 0.61675 0.63578
 N419 N 0.90261 0.65672 0.64392
 N420 N 0.87972 0.67943 0.66666
 C421 C 0.81764 0.68852 0.70420
 C422 C 0.79487 0.71032 0.72214
 C423 C 0.91249 0.59415 0.60826
 C424 C 0.92910 0.57640 0.58354
 C425 C 0.33609 0.16726 0.67673
 N426 N 0.31764 0.13412 0.66002
 N427 N 0.33887 0.11288 0.63521
 C428 C 0.37917 0.12419 0.62637
 N429 N 0.39766 0.15727 0.64314
 N430 N 0.37643 0.17851 0.66795
 C431 C 0.31237 0.19159 0.70183
 C432 C 0.29182 0.21260 0.72207
 C433 C 0.40126 0.10276 0.59843
 C434 C 0.41975 0.08554 0.57446
 C435 C 0.33072 0.67504 0.17705
 N436 N 0.36321 0.69242 0.15786
 N437 N 0.38391 0.66969 0.13367
 C438 C 0.37276 0.62888 0.12791
 N439 N 0.34032 0.61147 0.14715
 N440 N 0.31962 0.63420 0.17134
 C441 C 0.30693 0.70018 0.20173
 C442 C 0.28614 0.72146 0.22172
 C443 C 0.39365 0.60507 0.10055
 C444 C 0.41056 0.58556 0.07695
   
