data_POSCAR
  _audit_creation_date              2014-09-24
  _audit_creation_method            'ToBaCCo'
  _symmetry_space_group_name_H-M    'P1'
  _symmetry_Int_Tables_number       1
  _symmetry_cell_setting            triclinic
  loop_
  _symmetry_equiv_pos_as_xyz
 x,y,z
_cell_length_a 29.7078
_cell_length_b 29.6487
_cell_length_c 29.6951
_cell_angle_alpha 89.984000
_cell_angle_beta 89.986300
_cell_angle_gamma 90.066000
loop_
  _atom_site_label
  _atom_site_type_symbol
  _atom_site_fract_x
  _atom_site_fract_y
  _atom_site_fract_z
N1 N 0.62429 0.62501 0.62574
 N2 N 0.87621 0.37457 0.12573
 N3 N 0.37578 0.12514 -0.12567
 N4 N 0.12416 0.87495 0.37429
 N5 N 0.07133 0.19622 0.10544
 N6 N 0.05535 0.17938 0.14317
 C7 C 0.01994 0.20432 0.15662
 C8 C 0.01302 0.23793 0.12513
 C9 C 0.04607 0.23173 0.09302
 H10 H 0.00006 0.19804 0.18648
 H11 H 0.05170 0.25200 0.06325
 Cu12 Cu 0.08129 0.12544 0.16976
 Cu13 Cu 0.12489 0.17230 0.07637
 Cu14 Cu 0.17303 0.07729 0.12462
 N15 N 0.10778 0.07146 0.19581
 N16 N 0.14431 0.05344 0.17855
 C17 C 0.15622 0.01736 0.20327
 C18 C 0.12528 0.01218 0.23775
 C19 C 0.09492 0.04709 0.23190
 H20 H 0.18483 -0.00401 0.19619
 H21 H 0.06600 0.05447 0.25271
 N22 N 0.19711 0.10643 0.06997
 N23 N 0.17930 0.14308 0.05213
 C24 C 0.20394 0.15544 0.01609
 C25 C 0.23864 0.12486 0.01070
 C26 C 0.23318 0.09419 0.04539
 H27 H 0.19690 0.18425 -0.00506
 H28 H 0.25440 0.06549 0.05254
 H29 H 0.11600 0.10669 0.09769
 H30 H 0.15258 0.14343 0.13325
 N31 N 0.42824 0.80310 0.60601
 N32 N 0.44530 0.82093 0.64279
 C33 C 0.48139 0.79660 0.65558
 C34 C 0.48743 0.76186 0.62498
 C35 C 0.45307 0.76716 0.59394
 H36 H 0.50218 0.80392 0.68455
 H37 H 0.44623 0.74605 0.56505
 Cu38 Cu 0.41918 0.87507 0.66909
 Cu39 Cu 0.37452 0.82711 0.57701
 Cu40 Cu 0.32697 0.92282 0.62460
 N41 N 0.39265 0.92897 0.69546
 N42 N 0.35600 0.94686 0.67831
 C43 C 0.34404 0.98292 0.70304
 C44 C 0.37512 0.98831 0.73734
 C45 C 0.40563 0.95353 0.73138
 H46 H 0.31519 1.00402 0.69618
 H47 H 0.43470 0.94635 0.75207
 N48 N 0.30259 0.89338 0.57024
 N49 N 0.32011 0.85644 0.55269
 C50 C 0.29537 0.84405 0.51674
 C51 C 0.26091 0.87487 0.51110
 C52 C 0.26661 0.90572 0.54557
 H53 H 0.30225 0.81509 0.49575
 H54 H 0.24565 0.93469 0.55247
 H55 H 0.38364 0.89314 0.59735
 H56 H 0.34735 0.85690 0.63369
 N57 N 0.92790 0.69688 0.39328
 N58 N 0.94443 0.67959 0.35602
 C59 C 0.98055 0.70394 0.34321
 C60 C 0.98711 0.73814 0.37432
 C61 C 0.95308 0.73249 0.40565
 H62 H 1.00100 0.69699 0.31391
 H63 H 0.94670 0.75311 0.43499
 Cu64 Cu 0.91738 0.62603 0.32959
 Cu65 Cu 0.87439 0.67265 0.42269
 Cu66 Cu 0.82692 0.57655 0.37537
 N67 N 0.89171 0.57170 0.30342
 N68 N 0.85591 0.55284 0.32143
 C69 C 0.84446 0.51632 0.29716
 C70 C 0.87487 0.51175 0.26210
 C71 C 0.90453 0.54747 0.26727
 H72 H 0.81631 0.49448 0.30482
 H73 H 0.93294 0.55549 0.24597
 N74 N 0.80274 0.60593 0.42985
 N75 N 0.82021 0.64300 0.44726
 C76 C 0.79546 0.65547 0.48315
 C77 C 0.76103 0.62457 0.48892
 C78 C 0.76676 0.59358 0.45458
 H79 H 0.80225 0.68460 0.50396
 H80 H 0.74576 0.56459 0.44773
 H81 H 0.88374 0.60675 0.40180
 H82 H 0.84622 0.64275 0.36656
 N83 N 0.57158 0.30365 -0.10528
 N84 N 0.55473 0.32130 -0.14219
 C85 C 0.51877 0.29678 -0.15514
 C86 C 0.51261 0.26216 -0.12444
 C87 C 0.54676 0.26764 -0.09322
 H88 H 0.49824 0.30385 -0.18435
 H89 H 0.55357 0.24654 -0.06432
 Cu90 Cu 0.58121 0.37517 -0.16868
 Cu91 Cu 0.62525 0.32770 -0.07620
 Cu92 Cu 0.67357 0.42286 -0.12445
 N93 N 0.60770 0.42904 -0.19516
 N94 N 0.64451 0.44684 -0.17818
 C95 C 0.65658 0.48282 -0.20303
 C96 C 0.62540 0.48823 -0.23723
 C97 C 0.59476 0.45352 -0.23112
 H98 H 0.68559 0.50382 -0.19635
 H99 H 0.56564 0.44632 -0.25175
 N100 N 0.69777 0.39351 -0.07000
 N101 N 0.67963 0.35708 -0.05195
 C102 C 0.70403 0.34488 -0.01575
 C103 C 0.73907 0.37520 -0.01050
 C104 C 0.73398 0.40560 -0.04552
 H105 H 0.69654 0.31630 0.00557
 H106 H 0.75537 0.43416 -0.05292
 H107 H 0.61672 0.39359 -0.09707
 H108 H 0.65281 0.35692 -0.13308
 C109 C -0.07648 0.31883 0.08525
 C110 C -0.08934 0.34004 0.12567
 C111 C -0.06807 0.32695 0.16600
 C112 C -0.03497 0.29353 0.16586
 C113 C -0.02225 0.27275 0.12543
 C114 C -0.04317 0.28562 0.08516
 H115 H -0.09195 0.32809 0.05358
 H116 H -0.07712 0.34242 0.19774
 H117 H -0.01876 0.28444 0.19722
 H118 H -0.03422 0.26956 0.05366
 C119 C 0.57751 0.68109 0.66578
 C120 C 0.58989 0.65936 0.62563
 C121 C 0.56844 0.67158 0.58533
 C122 C 0.53505 0.70473 0.58517
 C123 C 0.52279 0.72670 0.62526
 C124 C 0.54448 0.71464 0.66556
 H125 H 0.59375 0.67228 0.69721
 H126 H 0.57736 0.65514 0.55402
 H127 H 0.51927 0.71352 0.55352
 H128 H 0.53552 0.73067 0.69706
 C129 C 1.06859 0.82781 0.41452
 C130 C 1.08979 0.84052 0.37422
 C131 C 1.07715 0.81926 0.33390
 C132 C 1.04406 0.78570 0.33393
 C133 C 1.02261 0.77318 0.37423
 C134 C 1.03518 0.79463 0.41451
 H135 H 1.07768 0.84391 0.44596
 H136 H 1.09317 0.82846 0.30245
 H137 H 1.03485 0.77006 0.30231
 H138 H 1.01960 0.78544 0.44616
 C139 C 0.43139 0.17185 -0.08503
 C140 C 0.41021 0.15950 -0.12545
 C141 C 0.42287 0.18111 -0.16558
 C142 C 0.45595 0.21467 -0.16527
 C143 C 0.47736 0.22687 -0.12486
 C144 C 0.46482 0.20502 -0.08477
 H145 H 0.42222 0.15553 -0.05372
 H146 H 0.40680 0.17223 -0.19709
 H147 H 0.46512 0.23063 -0.19675
 H148 H 0.48038 0.21396 -0.05305
 C149 C 0.08421 -0.06875 0.32773
 C150 C 0.12430 -0.09060 0.33997
 C151 C 0.16459 -0.07844 0.31846
 C152 C 0.16481 -0.04520 0.28514
 C153 C 0.12481 -0.02309 0.27300
 C154 C 0.08449 -0.03509 0.29474
 H155 H 0.05280 -0.07755 0.34403
 H156 H 0.19583 -0.09499 0.32728
 H157 H 0.19645 -0.03642 0.26932
 H158 H 0.05306 -0.01893 0.28588
 C159 C 0.66488 0.57849 -0.31850
 C160 C 0.62449 0.59074 -0.33975
 C161 C 0.58439 0.56903 -0.32716
 C162 C 0.58471 0.53548 -0.29409
 C163 C 0.62507 0.52339 -0.27260
 C164 C 0.66514 0.54531 -0.28509
 H165 H 0.69616 0.59490 -0.32761
 H166 H 0.55290 0.57784 -0.34325
 H167 H 0.55325 0.51947 -0.28494
 H168 H 0.69685 0.53649 -0.26946
 C169 C 0.33543 1.07852 0.81844
 C170 C 0.37571 1.09081 0.83988
 C171 C 0.41586 1.06917 0.82748
 C172 C 0.41568 1.03563 0.79439
 C173 C 0.37540 1.02351 0.77270
 C174 C 0.33530 1.04538 0.78501
 H175 H 0.30412 1.09489 0.82739
 H176 H 0.44727 1.07802 0.84373
 H177 H 0.44717 1.01965 0.78540
 H178 H 0.30366 1.03653 0.76923
 C179 C 0.83670 0.41777 0.18451
 C180 C 0.87591 0.40930 0.15964
 C181 C 0.91473 0.43487 0.16821
 C182 C 0.91441 0.46829 0.20138
 C183 C 0.87526 0.47659 0.22669
 C184 C 0.83643 0.45092 0.21789
 H185 H 0.80646 0.39830 0.17835
 H186 H 0.94520 0.42892 0.14911
 H187 H 0.94501 0.48711 0.20755
 H188 H 0.80564 0.45660 0.23649
 C189 C 0.32912 0.08481 -0.06975
 C190 C 0.34134 0.12510 -0.09140
 C191 C 0.31963 0.16534 -0.07927
 C192 C 0.28607 0.16524 -0.04628
 C193 C 0.27397 0.12497 -0.02442
 C194 C 0.29594 0.08477 -0.03640
 H195 H 0.34557 0.05344 -0.07849
 H196 H 0.32846 0.19676 -0.09565
 H197 H 0.27005 0.19682 -0.03752
 H198 H 0.28710 0.05315 -0.02045
 C199 C 0.67087 0.58453 0.56991
 C200 C 0.65856 0.62492 0.59128
 C201 C 0.68010 0.66518 0.57878
 C202 C 0.71354 0.66505 0.54568
 C203 C 0.72574 0.62469 0.52410
 C204 C 0.70396 0.58445 0.53646
 H205 H 0.65459 0.55312 0.57896
 H206 H 0.67125 0.69666 0.59497
 H207 H 0.72941 0.69665 0.53663
 H208 H 0.71288 0.55276 0.52073
 C209 C 0.83275 0.41406 0.06706
 C210 C 0.84140 0.37481 0.09195
 C211 C 0.81602 0.33583 0.08344
 C212 C 0.78268 0.33598 0.05027
 C213 C 0.77420 0.37513 0.02491
 C214 C 0.79963 0.41418 0.03369
 H215 H 0.85207 0.44444 0.07319
 H216 H 0.82208 0.30533 0.10254
 H217 H 0.76407 0.30521 0.04416
 H218 H 0.79380 0.44498 0.01507
 C219 C 0.17081 0.91519 0.43028
 C220 C 0.15849 0.87491 0.40868
 C221 C 0.18003 0.83462 0.42094
 C222 C 0.21348 0.83463 0.45403
 C223 C 0.22567 0.87488 0.47586
 C224 C 0.20389 0.91515 0.46372
 H225 H 0.15451 0.94661 0.42143
 H226 H 0.17116 0.80321 0.40460
 H227 H 0.22935 0.80301 0.46289
 H228 H 0.21280 0.94677 0.47962
   
