data_POSCAR
  _audit_creation_date              2014-09-24
  _audit_creation_method            'ToBaCCo'
  _symmetry_space_group_name_H-M    'P1'
  _symmetry_Int_Tables_number       1
  _symmetry_cell_setting            triclinic
  loop_
  _symmetry_equiv_pos_as_xyz
 x,y,z
_cell_length_a 60.8587
_cell_length_b 59.7105
_cell_length_c 60.9711
_cell_angle_alpha 89.681000
_cell_angle_beta 90.185900
_cell_angle_gamma 89.969600
loop_
  _atom_site_label
  _atom_site_type_symbol
  _atom_site_fract_x
  _atom_site_fract_y
  _atom_site_fract_z
C1 C 0.60868 0.64122 0.62544
 C2 C 0.60902 0.62481 0.64195
 C3 C 0.62559 0.60849 0.64223
 C4 C 0.64183 0.60862 0.62596
 C5 C 0.64148 0.62504 0.60945
 C6 C 0.62491 0.64133 0.60920
 H7 H 0.59641 0.62476 0.65450
 H8 H 0.65468 0.59602 0.62611
 H9 H 0.62464 0.65403 0.59641
 C10 C 0.89191 0.35806 0.12646
 C11 C 0.87560 0.35789 0.11017
 C12 C 0.85885 0.37400 0.11032
 C13 C 0.85840 0.39028 0.12677
 C14 C 0.87468 0.39048 0.14306
 C15 C 0.89143 0.37437 0.14290
 H16 H 0.87591 0.34531 0.09740
 H17 H 0.84544 0.40276 0.12688
 H18 H 0.90404 0.37458 0.15553
 C19 C 0.39136 0.14052 -0.12653
 C20 C 0.39102 0.12415 -0.14290
 C21 C 0.37443 0.10789 -0.14307
 C22 C 0.35818 0.10801 -0.12685
 C23 C 0.35850 0.12438 -0.11047
 C24 C 0.37510 0.14063 -0.11032
 H25 H 0.40361 0.12406 -0.15545
 H26 H 0.34533 0.09543 -0.12697
 H27 H 0.37536 0.15330 -0.09764
 C28 C 0.10641 0.85867 0.37391
 C29 C 0.12269 0.85856 0.39023
 C30 C 0.13910 0.87500 0.39021
 C31 C 0.13924 0.89158 0.37386
 C32 C 0.12299 0.89173 0.35753
 C33 C 0.10658 0.87528 0.35755
 H34 H 0.12262 0.84574 0.40292
 H35 H 0.15194 0.90431 0.37385
 H36 H 0.09401 0.87544 0.34489
 N37 N 0.10386 0.16473 0.11616
 N38 N 0.09738 0.15744 0.13549
 C39 C 0.07970 0.16930 0.14185
 C40 C 0.07500 0.18475 0.12563
 C41 C 0.09055 0.18151 0.10957
 H42 H 0.07094 0.16686 0.15708
 H43 H 0.09204 0.19065 0.09428
 Cu44 Cu 0.11261 0.13328 0.15062
 Cu45 Cu 0.12906 0.15196 0.10112
 Cu46 Cu 0.15217 0.10450 0.12449
 N47 N 0.12313 0.10460 0.16153
 N48 N 0.13859 0.09339 0.15130
 C49 C 0.14279 0.07430 0.16241
 C50 C 0.12918 0.07363 0.18043
 C51 C 0.11690 0.09301 0.17948
 H52 H 0.15481 0.06186 0.15777
 H53 H 0.10443 0.09827 0.19095
 N54 N 0.16349 0.11842 0.09743
 N55 N 0.15468 0.13655 0.08851
 C56 C 0.16610 0.14210 0.07039
 C57 C 0.18278 0.12672 0.06791
 C58 C 0.18076 0.11196 0.08522
 H59 H 0.16268 0.15630 0.05983
 H60 H 0.19119 0.09769 0.08868
 H61 H 0.12368 0.12056 0.11454
 H62 H 0.14523 0.13823 0.12792
 N63 N 0.39820 0.83828 0.61433
 N64 N 0.40654 0.84712 0.63224
 C65 C 0.42448 0.83534 0.63828
 C66 C 0.42737 0.81835 0.62337
 C67 C 0.41051 0.82059 0.60839
 H68 H 0.43470 0.83881 0.65241
 H69 H 0.40745 0.81017 0.59425
 Cu70 Cu 0.39317 0.87315 0.64586
 Cu71 Cu 0.37206 0.85036 0.60007
 Cu72 Cu 0.34840 0.89731 0.62348
 N73 N 0.37998 0.89979 0.65851
 N74 N 0.36247 0.90915 0.64968
 C75 C 0.35678 0.92720 0.66154
 C76 C 0.37153 0.92913 0.67860
 C77 C 0.38605 0.91159 0.67631
 H78 H 0.34299 0.93809 0.65802
 H79 H 0.39993 0.90779 0.68680
 N80 N 0.33656 0.88288 0.59697
 N81 N 0.34557 0.86499 0.58805
 C82 C 0.33376 0.85913 0.57025
 C83 C 0.31664 0.87405 0.56798
 C84 C 0.31878 0.88887 0.58507
 H85 H 0.33730 0.84509 0.55970
 H86 H 0.30816 0.90293 0.58853
 H87 H 0.37644 0.88289 0.61069
 H88 H 0.35841 0.86449 0.62774
 N89 N 0.89951 0.66004 0.38557
 N90 N 0.90824 0.65061 0.36820
 C91 C 0.92604 0.66245 0.36201
 C92 C 0.92847 0.68008 0.37631
 C93 C 0.91146 0.67815 0.39105
 H94 H 0.93646 0.65861 0.34820
 H95 H 0.90805 0.68910 0.40470
 Cu96 Cu 0.89544 0.62385 0.35535
 Cu97 Cu 0.87335 0.64817 0.39977
 Cu98 Cu 0.84968 0.60100 0.37669
 N99 N 0.88168 0.59768 0.34231
 N100 N 0.86379 0.58882 0.35074
 C101 C 0.85773 0.57103 0.33867
 C102 C 0.87264 0.56874 0.32187
 C103 C 0.88761 0.58581 0.32454
 H104 H 0.84359 0.56056 0.34185
 H105 H 0.90170 0.58927 0.31431
 N106 N 0.83784 0.61573 0.40296
 N107 N 0.84686 0.63371 0.41176
 C108 C 0.83508 0.63975 0.42945
 C109 C 0.81796 0.62487 0.43176
 C110 C 0.82008 0.60987 0.41483
 H111 H 0.83865 0.65386 0.43990
 H112 H 0.80947 0.59577 0.41147
 H113 H 0.87752 0.61530 0.39014
 H114 H 0.86033 0.63354 0.37195
 N115 N 0.60127 0.33782 -0.11534
 N116 N 0.59304 0.34677 -0.13335
 C117 C 0.57521 0.33498 -0.13951
 C118 C 0.57227 0.31785 -0.12458
 C119 C 0.58899 0.32003 -0.10945
 H120 H 0.56510 0.33854 -0.15373
 H121 H 0.59196 0.30950 -0.09526
 Cu122 Cu 0.60640 0.37298 -0.14691
 Cu123 Cu 0.62722 0.34988 -0.10088
 Cu124 Cu 0.65085 0.39713 -0.12420
 N125 N 0.61956 0.39979 -0.15951
 N126 N 0.63695 0.40915 -0.15055
 C127 C 0.64265 0.42732 -0.16240
 C128 C 0.62804 0.42935 -0.17960
 C129 C 0.61359 0.41173 -0.17738
 H130 H 0.65635 0.43824 -0.15879
 H131 H 0.59982 0.40797 -0.18798
 N132 N 0.66253 0.38252 -0.09755
 N133 N 0.65352 0.36451 -0.08866
 C134 C 0.66520 0.35855 -0.07073
 C135 C 0.68223 0.37352 -0.06836
 C136 C 0.68017 0.38848 -0.08551
 H137 H 0.66164 0.34441 -0.06018
 H138 H 0.69075 0.40261 -0.08891
 H139 H 0.62276 0.38248 -0.11162
 H140 H 0.64104 0.36430 -0.12846
 C141 C -0.09177 0.34244 0.12628
 C142 C -0.07730 0.32864 0.12615
 C143 C -0.05999 0.31221 0.12601
 C144 C -0.06397 0.29075 0.11778
 C145 C -0.04716 0.27478 0.11766
 C146 C -0.02613 0.28008 0.12575
 C147 C -0.02231 0.30171 0.13398
 C148 C -0.03914 0.31765 0.13411
 C149 C -0.00825 0.26313 0.12563
 C150 C 0.01333 0.26930 0.12000
 C151 C 0.03016 0.25335 0.11995
 C152 C 0.02566 0.23105 0.12551
 C153 C 0.00425 0.22474 0.13111
 C154 C -0.01261 0.24066 0.13116
 C155 C 0.04302 0.21468 0.12553
 C156 C 0.05760 0.20100 0.12556
 H157 H -0.08004 0.28639 0.11142
 H158 H -0.05054 0.25837 0.11096
 H159 H -0.00639 0.30621 0.14059
 H160 H -0.03591 0.33419 0.14058
 H161 H 0.01715 0.28639 0.11539
 H162 H 0.04667 0.25840 0.11553
 H163 H 0.00060 0.20754 0.13551
 H164 H -0.02899 0.23545 0.13584
 C165 C 0.59164 0.65794 0.62515
 C166 C 0.57735 0.67193 0.62492
 C167 C 0.56027 0.68861 0.62467
 C168 C 0.56326 0.70872 0.61317
 C169 C 0.54668 0.72494 0.61293
 C170 C 0.52686 0.72123 0.62421
 C171 C 0.52402 0.70095 0.63572
 C172 C 0.54062 0.68476 0.63594
 C173 C 0.50923 0.73845 0.62399
 C174 C 0.48704 0.73216 0.62196
 C175 C 0.47046 0.74838 0.62179
 C176 C 0.47582 0.77108 0.62365
 C177 C 0.49784 0.77752 0.62567
 C178 C 0.51445 0.76133 0.62583
 C179 C 0.45874 0.78775 0.62353
 C180 C 0.44443 0.80172 0.62344
 H181 H 0.57838 0.71183 0.60434
 H182 H 0.54925 0.74025 0.60370
 H183 H 0.50907 0.69772 0.64479
 H184 H 0.53817 0.66928 0.64495
 H185 H 0.48252 0.71473 0.62023
 H186 H 0.45347 0.74322 0.62016
 H187 H 0.50217 0.79504 0.62719
 H188 H 0.53134 0.76668 0.62770
 C189 C 1.09045 0.84269 0.37395
 C190 C 1.07633 0.82852 0.37401
 C191 C 1.05950 0.81161 0.37414
 C192 C 1.06399 0.79029 0.38269
 C193 C 1.04764 0.77385 0.38286
 C194 C 1.02655 0.77854 0.37449
 C195 C 1.02221 0.80003 0.36592
 C196 C 1.03859 0.81644 0.36575
 C197 C 1.00915 0.76110 0.37473
 C198 C 0.98736 0.76668 0.38011
 C199 C 0.97101 0.75024 0.38040
 C200 C 0.97619 0.72804 0.37529
 C201 C 0.99780 0.72233 0.36989
 C202 C 1.01419 0.73873 0.36961
 C203 C 0.95936 0.71113 0.37563
 C204 C 0.94526 0.69696 0.37593
 H205 H 1.08011 0.78639 0.38928
 H206 H 1.05141 0.75757 0.38983
 H207 H 1.00623 0.80407 0.35910
 H208 H 1.03496 0.83287 0.35904
 H209 H 0.98302 0.78368 0.38441
 H210 H 0.95434 0.75483 0.38467
 H211 H 1.00198 0.70520 0.36585
 H212 H 1.03074 0.73397 0.36512
 C213 C 0.40841 0.15722 -0.12636
 C214 C 0.42268 0.17120 -0.12621
 C215 C 0.43972 0.18790 -0.12601
 C216 C 0.45013 0.19354 -0.10630
 C217 C 0.46669 0.20976 -0.10609
 C218 C 0.47305 0.22058 -0.12563
 C219 C 0.46247 0.21479 -0.14536
 C220 C 0.44593 0.19855 -0.14553
 C221 C 0.49063 0.23782 -0.12542
 C222 C 0.48863 0.25740 -0.13823
 C223 C 0.50519 0.27362 -0.13803
 C224 C 0.52396 0.27049 -0.12505
 C225 C 0.52612 0.25108 -0.11226
 C226 C 0.50957 0.23485 -0.11242
 C227 C 0.54100 0.28719 -0.12488
 C228 C 0.55527 0.30118 -0.12473
 H229 H 0.44540 0.18544 -0.09109
 H230 H 0.47431 0.21405 -0.09060
 H231 H 0.46720 0.22260 -0.16070
 H232 H 0.43803 0.19427 -0.16089
 H233 H 0.47413 0.26032 -0.14818
 H234 H 0.50332 0.28862 -0.14795
 H235 H 0.54061 0.24847 -0.10220
 H236 H 0.51173 0.21983 -0.10261
 C237 C 0.12318 -0.09123 0.34075
 C238 C 0.12340 -0.07693 0.32672
 C239 C 0.12373 -0.05983 0.31000
 C240 C 0.12707 -0.03743 0.31573
 C241 C 0.12750 -0.02081 0.29950
 C242 C 0.12461 -0.02640 0.27728
 C243 C 0.12123 -0.04898 0.27169
 C244 C 0.12079 -0.06557 0.28796
 C245 C 0.12519 -0.00876 0.26002
 C246 C 0.13592 -0.01264 0.23997
 C247 C 0.13659 0.00403 0.22380
 C248 C 0.12656 0.02477 0.22741
 C249 C 0.11580 0.02878 0.24725
 C250 C 0.11512 0.01214 0.26346
 C251 C 0.12741 0.04197 0.21081
 C252 C 0.12819 0.05641 0.19693
 H253 H 0.12943 -0.03282 0.33273
 H254 H 0.13042 -0.00363 0.30429
 H255 H 0.11867 -0.05377 0.25478
 H256 H 0.11813 -0.08286 0.28335
 H257 H 0.14407 -0.02844 0.23694
 H258 H 0.14503 0.00077 0.20852
 H259 H 0.10794 0.04476 0.25019
 H260 H 0.10649 0.01554 0.27859
 C261 C 0.62589 0.59250 -0.34174
 C262 C 0.62613 0.57834 -0.32757
 C263 C 0.62639 0.56144 -0.31066
 C264 C 0.60766 0.55767 -0.29792
 C265 C 0.60786 0.54121 -0.28152
 C266 C 0.62685 0.52830 -0.27763
 C267 C 0.64561 0.53225 -0.29052
 C268 C 0.64536 0.54870 -0.30693
 C269 C 0.62708 0.51079 -0.26024
 C270 C 0.64566 0.50784 -0.24672
 C271 C 0.64584 0.49135 -0.23035
 C272 C 0.62750 0.47758 -0.22728
 C273 C 0.60894 0.48036 -0.24064
 C274 C 0.60871 0.49686 -0.25700
 C275 C 0.62771 0.46058 -0.21045
 C276 C 0.62787 0.44634 -0.19636
 H277 H 0.59290 0.56748 -0.30063
 H278 H 0.59326 0.53878 -0.27169
 H279 H 0.66038 0.52240 -0.28812
 H280 H 0.65993 0.55145 -0.31674
 H281 H 0.65993 0.51848 -0.24861
 H282 H 0.66027 0.48937 -0.22007
 H283 H 0.59468 0.46975 -0.23844
 H284 H 0.59428 0.49851 -0.26732
 C285 C 0.37410 1.09108 0.84012
 C286 C 0.37384 1.07700 0.82603
 C287 C 0.37355 1.06019 0.80921
 C288 C 0.35619 1.04488 0.80807
 C289 C 0.35590 1.02853 0.79174
 C290 C 0.37301 1.02728 0.77633
 C291 C 0.39040 1.04276 0.77762
 C292 C 0.39064 1.05910 0.79396
 C293 C 0.37274 1.00990 0.75899
 C294 C 0.39219 0.99871 0.75311
 C295 C 0.39191 0.98234 0.73681
 C296 C 0.37222 0.97695 0.72615
 C297 C 0.35280 0.98799 0.73186
 C298 C 0.35303 1.00436 0.74818
 C299 C 0.37196 0.96010 0.70937
 C300 C 0.37176 0.94597 0.69533
 H301 H 0.34291 1.04554 0.81984
 H302 H 0.34244 1.01669 0.79136
 H303 H 0.40366 1.04241 0.76583
 H304 H 0.40413 1.07091 0.79465
 H305 H 0.40755 1.00239 0.76133
 H306 H 0.40703 0.97384 0.73255
 H307 H 0.33748 0.98400 0.72367
 H308 H 0.33785 1.01288 0.75213
 C309 C 0.87424 0.40724 0.15992
 C310 C 0.87391 0.42128 0.17404
 C311 C 0.87356 0.43805 0.19090
 C312 C 0.86518 0.45941 0.18635
 C313 C 0.86492 0.47574 0.20269
 C314 C 0.87304 0.47090 0.22383
 C315 C 0.88139 0.44935 0.22824
 C316 C 0.88165 0.43306 0.21187
 C317 C 0.87284 0.48826 0.24119
 C318 C 0.86725 0.48262 0.26291
 C319 C 0.86714 0.49896 0.27924
 C320 C 0.87263 0.52113 0.27411
 C321 C 0.87820 0.52692 0.25256
 C322 C 0.87830 0.51061 0.23620
 C323 C 0.87260 0.53792 0.29095
 C324 C 0.87260 0.55198 0.30506
 H325 H 0.85882 0.46344 0.17018
 H326 H 0.85812 0.49207 0.19887
 H327 H 0.88802 0.44520 0.24426
 H328 H 0.88824 0.41659 0.21555
 H329 H 0.86270 0.46563 0.26721
 H330 H 0.86275 0.49431 0.29586
 H331 H 0.88254 0.54402 0.24842
 H332 H 0.88296 0.51542 0.21971
 C333 C 0.34181 0.12450 -0.09381
 C334 C 0.32785 0.12463 -0.07983
 C335 C 0.31120 0.12483 -0.06312
 C336 C 0.30793 0.14404 -0.05050
 C337 C 0.29179 0.14425 -0.03424
 C338 C 0.27871 0.12521 -0.03037
 C339 C 0.28214 0.10598 -0.04316
 C340 C 0.29828 0.10581 -0.05943
 C341 C 0.26160 0.12540 -0.01305
 C342 C 0.25839 0.10656 0.00054
 C343 C 0.24235 0.10681 0.01690
 C344 C 0.22930 0.12584 0.01988
 C345 C 0.23233 0.14465 0.00643
 C346 C 0.24837 0.14445 -0.00993
 C347 C 0.21286 0.12611 0.03679
 C348 C 0.19911 0.12637 0.05098
 H349 H 0.31789 0.15883 -0.05318
 H350 H 0.28975 0.15920 -0.02448
 H351 H 0.27216 0.09116 -0.04077
 H352 H 0.30064 0.09087 -0.06915
 H353 H 0.26850 0.09177 -0.00127
 H354 H 0.24018 0.09218 0.02726
 H355 H 0.22227 0.15945 0.00857
 H356 H 0.25024 0.15910 -0.02030
 C357 C 0.65812 0.62512 0.59273
 C358 C 0.67205 0.62518 0.57872
 C359 C 0.68867 0.62521 0.56199
 C360 C 0.70970 0.61692 0.56664
 C361 C 0.72585 0.61692 0.55039
 C362 C 0.72117 0.62521 0.52924
 C363 C 0.69997 0.63351 0.52473
 C364 C 0.68385 0.63351 0.54101
 C365 C 0.73831 0.62518 0.51195
 C366 C 0.73297 0.61942 0.49022
 C367 C 0.74912 0.61937 0.47397
 C368 C 0.77081 0.62508 0.47919
 C369 C 0.77629 0.63085 0.50074
 C370 C 0.76017 0.63090 0.51702
 C371 C 0.78742 0.62501 0.46245
 C372 C 0.80135 0.62494 0.44844
 H373 H 0.71358 0.61040 0.58282
 H374 H 0.74192 0.61016 0.55429
 H375 H 0.69594 0.64027 0.50870
 H376 H 0.66764 0.64002 0.53725
 H377 H 0.71636 0.61467 0.48586
 H378 H 0.74471 0.61481 0.45735
 H379 H 0.79302 0.63536 0.50494
 H380 H 0.76474 0.63569 0.53352
 C381 C 0.84214 0.37385 0.09357
 C382 C 0.82816 0.37376 0.07952
 C383 C 0.81147 0.37367 0.06275
 C384 C 0.79528 0.39032 0.06238
 C385 C 0.77909 0.39030 0.04605
 C386 C 0.77889 0.37358 0.02987
 C387 C 0.79523 0.35690 0.03041
 C388 C 0.81141 0.35697 0.04674
 C389 C 0.76172 0.37356 0.01249
 C390 C 0.75204 0.35336 0.00565
 C391 C 0.73590 0.35337 -0.01072
 C392 C 0.72924 0.37353 -0.02048
 C393 C 0.73876 0.39371 -0.01380
 C394 C 0.75489 0.39375 0.00258
 C395 C 0.71265 0.37351 -0.03736
 C396 C 0.69876 0.37351 -0.05150
 H397 H 0.79513 0.40329 0.07473
 H398 H 0.76657 0.40318 0.04626
 H399 H 0.79569 0.34399 0.01802
 H400 H 0.82391 0.34405 0.04684
 H401 H 0.75674 0.33759 0.01316
 H402 H 0.72859 0.33766 -0.01572
 H403 H 0.73377 0.40941 -0.02130
 H404 H 0.76223 0.40953 0.00727
 C405 C 0.15580 0.87488 0.40697
 C406 C 0.16980 0.87479 0.42100
 C407 C 0.18652 0.87470 0.43774
 C408 C 0.19695 0.89468 0.44363
 C409 C 0.21319 0.89461 0.45989
 C410 C 0.21925 0.87452 0.47048
 C411 C 0.20867 0.85452 0.46443
 C412 C 0.19241 0.85463 0.44818
 C413 C 0.23651 0.87443 0.48776
 C414 C 0.25214 0.85707 0.48882
 C415 C 0.26839 0.85701 0.50508
 C416 C 0.26923 0.87426 0.52050
 C417 C 0.25377 0.89160 0.51960
 C418 C 0.23752 0.89170 0.50334
 C419 C 0.28596 0.87418 0.53724
 C420 C 0.29996 0.87411 0.55127
 H421 H 0.19255 0.91029 0.43561
 H422 H 0.22123 0.91022 0.46398
 H423 H 0.21275 0.83885 0.47247
 H424 H 0.18440 0.83908 0.44378
 H425 H 0.25198 0.84370 0.47689
 H426 H 0.28032 0.84354 0.50559
 H427 H 0.25424 0.90500 0.53150
 H428 H 0.22556 0.90514 0.50314
   
