data_POSCAR
  _audit_creation_date              2014-09-24
  _audit_creation_method            'ToBaCCo'
  _symmetry_space_group_name_H-M    'P1'
  _symmetry_Int_Tables_number       1
  _symmetry_cell_setting            triclinic
  loop_
  _symmetry_equiv_pos_as_xyz
 x,y,z
_cell_length_a 19.7797
_cell_length_b 19.8603
_cell_length_c 22.5527
_cell_angle_alpha 90.008900
_cell_angle_beta 90.199900
_cell_angle_gamma 120.128400
loop_
  _atom_site_label
  _atom_site_type_symbol
  _atom_site_fract_x
  _atom_site_fract_y
  _atom_site_fract_z
O1 O 0.32814 0.55327 0.31791
 O2 O 0.19636 0.54942 0.29817
 C3 C 0.18709 0.59809 0.32869
 O4 O 0.22328 0.67039 0.31765
 O5 O 0.35133 0.80179 0.29833
 C6 C 0.40964 0.81140 0.32905
 O7 O 0.44598 0.77538 0.31822
 O8 O 0.44964 0.64788 0.29892
 C9 C 0.40077 0.58966 0.32919
 O10 O 0.35105 0.54960 0.20016
 O11 O 0.22306 0.55315 0.18037
 C12 C 0.18642 0.58889 0.16898
 O13 O 0.19618 0.64694 0.19982
 O14 O 0.32806 0.77472 0.18050
 C15 C 0.40070 0.81101 0.16971
 O16 O 0.44959 0.80178 0.20038
 O17 O 0.44595 0.67062 0.18107
 C18 C 0.40947 0.59829 0.16990
 Cr19 Cr 0.27670 0.55546 0.24916
 Cr20 Cr 0.27677 0.72141 0.24907
 Cr21 Cr 0.44368 0.72186 0.24964
 O22 O 0.33241 0.66625 0.24934
 O23 O 0.54984 0.35189 0.70071
 O24 O 0.55351 0.22440 0.68141
 C25 C 0.58993 0.18847 0.67048
 O26 O 0.64832 0.19813 0.70112
 O27 O 0.77644 0.32955 0.68204
 C28 C 0.81252 0.40183 0.67095
 O29 O 0.80312 0.45049 0.70138
 O30 O 0.67130 0.44654 0.68172
 C31 C 0.59868 0.41012 0.67044
 O32 O 0.55357 0.32919 0.81856
 O33 O 0.54989 0.19801 0.79925
 C34 C 0.59874 0.18861 0.82982
 O35 O 0.67136 0.22481 0.81899
 O36 O 0.80324 0.35260 0.79994
 C37 C 0.81282 0.41075 0.83039
 O38 O 0.77666 0.44690 0.81918
 O39 O 0.64849 0.45023 0.79950
 C40 C 0.59004 0.40152 0.82973
 Cr41 Cr 0.55584 0.27793 0.75000
 Cr42 Cr 0.72278 0.27833 0.75052
 Cr43 Cr 0.72283 0.44442 0.75044
 O44 O 0.66715 0.33357 0.75033
 C45 C 0.48669 -0.02753 0.47460
 C46 C 0.52683 -0.06726 0.46149
 C47 C 0.50161 -0.11962 0.41371
 C48 C 0.43667 -0.13243 0.37907
 C49 C 0.39720 -0.09186 0.39296
 C50 C 0.42198 -0.03938 0.44065
 C51 C 0.51289 0.02748 0.52488
 C52 C 0.47275 0.06720 0.53800
 C53 C 0.49797 0.11955 0.58579
 C54 C 0.56290 0.13234 0.62043
 C55 C 0.60238 0.09178 0.60653
 C56 C 0.57761 0.03932 0.55883
 C57 C 0.38327 0.00143 0.45516
 C58 C 0.40824 0.05384 0.50299
 C59 C 0.59134 -0.05389 0.49649
 C60 C 0.61632 -0.00148 0.54432
 H61 H 0.33324 -0.00721 0.42932
 H62 H 0.37678 0.08414 0.51265
 H63 H 0.62281 -0.08420 0.48684
 H64 H 0.66635 0.00715 0.57016
 H65 H 0.53248 -0.15044 0.40367
 H66 H 0.34710 -0.10119 0.36684
 H67 H 0.46710 0.15037 0.59584
 H68 H 0.65248 0.10110 0.63264
 C69 C 1.02710 0.51432 0.47460
 C70 C 1.03844 0.46146 0.44080
 C71 C 1.09051 0.48907 0.39296
 C72 C 1.13117 0.56900 0.37877
 C73 C 1.11885 0.62113 0.41325
 C74 C 1.06690 0.59408 0.46118
 C75 C 0.97254 0.48561 0.52506
 C76 C 0.96119 0.53847 0.55884
 C77 C 0.90912 0.51086 0.60669
 C78 C 0.86845 0.43093 0.62088
 C79 C 0.88079 0.37881 0.58640
 C80 C 0.93274 0.40585 0.53848
 C81 C 1.05404 0.64522 0.49603
 C82 C 1.00205 0.61788 0.54403
 C83 C 0.99758 0.38205 0.45562
 C84 C 0.94560 0.35471 0.50362
 H85 H 1.08441 0.70692 0.48614
 H86 H 0.99380 0.65927 0.56974
 H87 H 1.00583 0.34066 0.42991
 H88 H 0.91523 0.29302 0.51351
 H89 H 1.09948 0.44831 0.36698
 H90 H 1.14976 0.68275 0.40299
 H91 H 0.90014 0.55162 0.63266
 H92 H 0.84988 0.31719 0.59666
 C93 C 0.48522 0.51294 0.47470
 C94 C 0.40504 0.47292 0.46122
 C95 C 0.37775 0.49805 0.41348
 C96 C 0.43005 0.56278 0.37923
 C97 C 0.51041 0.60214 0.39350
 C98 C 0.53826 0.57746 0.44116
 C99 C 0.51421 0.48682 0.52494
 C100 C 0.59439 0.52685 0.53842
 C101 C 0.62168 0.50172 0.58616
 C102 C 0.56938 0.43699 0.62041
 C103 C 0.48903 0.39762 0.60614
 C104 C 0.46117 0.42230 0.55848
 C105 C 0.61809 0.61605 0.45603
 C106 C 0.64569 0.59116 0.50382
 C107 C 0.35374 0.40860 0.49582
 C108 C 0.38134 0.38371 0.54361
 H109 H 0.65962 0.66593 0.43050
 H110 H 0.70771 0.62253 0.51376
 H111 H 0.29173 0.37723 0.48588
 H112 H 0.33981 0.33383 0.56914
 H113 H 0.31582 0.46726 0.40314
 H114 H 0.55131 0.65208 0.36769
 H115 H 0.68362 0.53251 0.59649
 H116 H 0.44813 0.34768 0.63195
 C117 C 0.48520 -0.02783 1.02474
 C118 C 0.40500 -0.06802 1.03767
 C119 C 0.37769 -0.12047 1.08522
 C120 C 0.42998 -0.13288 1.11983
 C121 C 0.51035 -0.09187 1.10610
 C122 C 0.53822 -0.03931 1.05863
 C123 C 0.51421 0.02732 0.97471
 C124 C 0.59440 0.06752 0.96179
 C125 C 0.62172 0.11999 0.91425
 C126 C 0.56943 0.13243 0.87966
 C127 C 0.48907 0.09141 0.89338
 C128 C 0.46118 0.03882 0.94083
 C129 C 0.61807 0.00197 1.04431
 C130 C 0.64569 0.05450 0.99672
 C131 C 0.35371 -0.05500 1.00273
 C132 C 0.38133 -0.00246 0.95515
 H133 H 0.65959 -0.00639 1.07011
 H134 H 0.70772 0.08517 0.98721
 H135 H 0.29168 -0.08567 1.01225
 H136 H 0.33982 0.00589 0.92935
 H137 H 0.31574 -0.15164 1.09514
 H138 H 0.55125 -0.10089 1.13218
 H139 H 0.68367 0.15116 0.90434
 H140 H 0.44817 0.10045 0.86730
 C141 C 1.02942 0.51400 1.02686
 C142 C 1.04053 0.57788 1.06095
 C143 C 1.09308 0.60272 1.10882
 C144 C 1.13501 0.56424 1.12307
 C145 C 1.12244 0.49979 1.08785
 C146 C 1.06994 0.47466 1.03995
 C147 C 0.97426 0.48781 0.97640
 C148 C 0.96311 0.42385 0.94230
 C149 C 0.91050 0.39906 0.89446
 C150 C 0.86913 0.43779 0.88056
 C151 C 0.88125 0.50199 0.91536
 C152 C 0.93372 0.52719 0.96329
 C153 C 1.05725 0.41089 1.00477
 C154 C 1.00472 0.38589 0.95680
 C155 C 0.99888 0.61584 1.04644
 C156 C 0.94637 0.59092 0.99846
 H157 H 1.08819 0.37999 1.01439
 H158 H 0.99664 0.33645 0.93085
 H159 H 1.00693 0.66527 1.07240
 H160 H 0.91543 0.62180 0.98882
 H161 H 1.10119 0.65231 1.13468
 H162 H 1.15348 0.46889 1.09732
 H163 H 0.90172 0.34955 0.86824
 H164 H 0.84980 0.53228 0.90532
 C165 C 0.48660 0.51431 1.02485
 C166 C 0.52684 0.59414 1.03831
 C167 C 0.50158 0.62127 1.08590
 C168 C 0.43649 0.56917 1.12003
 C169 C 0.39691 0.48917 1.10578
 C170 C 0.42173 0.46147 1.05826
 C171 C 0.51287 0.48549 0.97477
 C172 C 0.47263 0.40566 0.96131
 C173 C 0.49791 0.37853 0.91372
 C174 C 0.56300 0.43064 0.87960
 C175 C 0.60257 0.51064 0.89384
 C176 C 0.57774 0.53833 0.94135
 C177 C 0.38293 0.38199 1.04343
 C178 C 0.40796 0.35455 0.99578
 C179 C 0.59151 0.64525 1.00383
 C180 C 0.61654 0.61781 0.95619
 H181 H 0.33278 0.34062 1.06886
 H182 H 0.37642 0.29281 0.98586
 H183 H 0.62305 0.70700 1.01376
 H184 H 0.66669 0.65918 0.93076
 H185 H 0.53254 0.68294 1.09622
 H186 H 0.34670 0.44842 1.13149
 H187 H 0.46696 0.31686 0.90341
 H188 H 0.65278 0.55139 0.86813
   
