data_POSCAR
  _audit_creation_date              2014-09-24
  _audit_creation_method            'ToBaCCo'
  _symmetry_space_group_name_H-M    'P1'
  _symmetry_Int_Tables_number       1
  _symmetry_cell_setting            triclinic
  loop_
  _symmetry_equiv_pos_as_xyz
 x,y,z
_cell_length_a 45.4176
_cell_length_b 45.2134
_cell_length_c 45.2199
_cell_angle_alpha 89.990500
_cell_angle_beta 90.032400
_cell_angle_gamma 89.997000
loop_
  _atom_site_label
  _atom_site_type_symbol
  _atom_site_fract_x
  _atom_site_fract_y
  _atom_site_fract_z
C1 C 0.20810 1.23083 0.18730
 C2 C 0.22991 1.20888 0.18759
 C3 C 0.22976 1.18734 0.20940
 C4 C 0.20780 1.18749 0.23118
 C5 C 0.18623 1.20918 0.23090
 C6 C 0.18638 1.23098 0.20883
 C7 C 0.20189 1.25347 0.16789
 N8 N 0.17708 1.26717 0.17730
 C9 C 0.16730 1.25371 0.20218
 C10 C 0.16694 1.20296 0.25355
 N11 N 0.17645 1.17816 0.26739
 C12 C 0.20129 1.16839 0.25400
 C13 C 0.25243 1.16806 0.20328
 N14 N 0.26615 1.17753 0.17844
 C15 C 0.25267 1.20235 0.16857
 H16 H 0.21403 1.25908 0.14805
 H17 H 0.14743 1.25954 0.21408
 H18 H 0.14711 1.21507 0.25908
 H19 H 0.21324 1.14853 0.25994
 H20 H 0.25808 1.14824 0.21548
 H21 H 0.25854 1.21427 0.14865
 C22 C 0.79280 0.76876 0.18710
 C23 C 0.77084 0.79056 0.18720
 C24 C 0.77079 0.81222 0.20888
 C25 C 0.79271 0.81233 0.23074
 C26 C 0.81442 0.79078 0.23065
 C27 C 0.81447 0.76887 0.20871
 C28 C 0.79921 0.74606 0.16784
 N29 N 0.82408 0.73258 0.17740
 C30 C 0.83372 0.74623 0.20225
 C31 C 0.83361 0.79725 0.25334
 N32 N 0.82391 0.82205 0.26701
 C33 C 0.79904 0.83158 0.25348
 C34 C 0.74801 0.83131 0.20258
 N35 N 0.73440 0.82161 0.17776
 C36 C 0.74808 0.79683 0.16806
 H37 H 0.78715 0.74027 0.14799
 H38 H 0.85359 0.74060 0.21424
 H39 H 0.85350 0.78529 0.25900
 H40 H 0.78693 0.85139 0.25928
 H41 H 0.74220 0.85115 0.21466
 H42 H 0.74233 0.78477 0.14819
 C43 C 0.79136 1.23082 -0.18714
 C44 C 0.76942 1.20899 -0.18711
 C45 C 0.76932 1.18728 -0.20874
 C46 C 0.79114 1.18714 -0.23067
 C47 C 0.81283 1.20871 -0.23070
 C48 C 0.81294 1.23068 -0.20881
 C49 C 0.79782 1.25356 -0.16795
 N50 N 0.82264 1.26705 -0.17761
 C51 C 0.83219 1.25335 -0.20246
 C52 C 0.83194 1.20220 -0.25343
 N53 N 0.82220 1.17735 -0.26700
 C54 C 0.79740 1.16783 -0.25337
 C55 C 0.74659 1.16817 -0.20232
 N56 N 0.73308 1.17791 -0.17747
 C57 C 0.74676 1.20274 -0.16789
 H58 H 0.78583 1.25939 -0.14808
 H59 H 0.85202 1.25897 -0.21452
 H60 H 0.85179 1.21416 -0.25918
 H61 H 0.78529 1.14799 -0.25908
 H62 H 0.74076 1.14829 -0.21432
 H63 H 0.74109 1.21484 -0.14802
 C64 C 0.20808 0.76937 -0.18764
 C65 C 0.22997 0.79123 -0.18756
 C66 C 0.23004 0.81299 -0.20916
 C67 C 0.20820 0.81314 -0.23109
 C68 C 0.18655 0.79153 -0.23118
 C69 C 0.18649 0.76952 -0.20933
 C70 C 0.20166 0.74657 -0.16849
 N71 N 0.17685 0.73306 -0.17821
 C72 C 0.16728 0.74680 -0.20304
 C73 C 0.16741 0.79806 -0.25390
 N74 N 0.17710 0.82296 -0.26742
 C75 C 0.20190 0.83248 -0.25377
 C76 C 0.25274 0.83211 -0.20270
 N77 N 0.26628 0.82235 -0.17786
 C78 C 0.25265 0.79749 -0.16831
 H79 H 0.21365 0.74072 -0.14863
 H80 H 0.14746 0.74117 -0.21513
 H81 H 0.14757 0.78609 -0.25968
 H82 H 0.21397 0.85236 -0.25943
 H83 H 0.25854 0.85202 -0.21467
 H84 H 0.25835 0.78536 -0.14847
 C85 C 0.54490 1.04073 -0.00873
 H86 H 0.54576 1.04073 0.01518
 C87 C 0.56467 1.05799 -0.02488
 H88 H 0.58077 1.07145 -0.01341
 C89 C 0.52339 1.02260 -0.05298
 H90 H 0.50768 1.00835 -0.06386
 C91 C 0.54278 1.03953 -0.06997
 H92 H 0.54176 1.03848 -0.09389
 N93 N 0.52467 1.02364 -0.02291
 C94 C 0.45506 1.00904 0.04186
 H95 H 0.45431 0.98512 0.04188
 C96 C 0.43522 1.02512 0.05911
 H97 H 0.41918 1.01359 0.07257
 C98 C 0.47636 1.05337 0.02370
 H99 H 0.49201 1.06430 0.00944
 C100 C 0.45690 1.07029 0.04061
 H101 H 0.45780 1.09421 0.03953
 Zn102 Zn 0.49997 0.99968 0.00079
 N103 N 0.47522 1.02329 0.02476
 C104 C 0.52373 0.97679 0.05444
 N105 N 0.52486 0.97577 0.02437
 C106 C 0.54505 0.95874 0.01009
 C107 C 0.56495 0.94151 0.02614
 C108 C 0.54326 0.95989 0.07134
 C109 C 0.45487 0.99023 -0.04010
 C110 C 0.43502 0.97412 -0.05731
 C111 C 0.45690 0.92898 -0.03895
 C112 C 0.47639 0.94594 -0.02207
 N113 N 0.47515 0.97601 -0.02309
 H114 H 0.50805 0.99099 0.06540
 H115 H 0.54578 0.95875 -0.01383
 H116 H 0.58102 0.92810 0.01459
 H117 H 0.54237 0.96092 0.09526
 H118 H 0.45405 1.01415 -0.04009
 H119 H 0.41889 0.98562 -0.07072
 H120 H 0.45789 0.90506 -0.03791
 H121 H 0.49213 0.93503 -0.00788
 C122 C 0.43613 1.05602 0.05843
 C123 C 0.56361 1.05734 -0.05577
 C124 C 0.43603 0.94322 -0.05669
 C125 C 0.56406 0.94213 0.05703
 C126 C -0.00896 0.54510 1.04012
 H127 H 0.01484 0.54590 1.04011
 C128 C -0.02498 0.56502 1.05737
 H129 H -0.01351 0.58118 1.07079
 C130 C -0.05309 0.52357 1.02206
 H131 H -0.06396 0.50780 1.00785
 C132 C -0.06994 0.54312 1.03897
 H133 H -0.09376 0.54215 1.03794
 N134 N -0.02315 0.52479 1.02308
 C135 C 0.04119 0.45465 1.00867
 H136 H 0.04120 0.45382 0.98476
 C137 C 0.05835 0.43474 1.02481
 H138 H 0.07173 0.41857 1.01333
 C139 C 0.02316 0.47620 1.05292
 H140 H 0.00899 0.49198 1.06381
 C141 C 0.03998 0.45667 1.06991
 H142 H 0.03893 0.45766 1.09382
 Zn143 Zn 0.00038 0.49986 0.99918
 N144 N 0.02420 0.47497 1.02286
 C145 C 0.05386 0.52354 0.97630
 N146 N 0.02392 0.52475 0.97524
 C147 C 0.00975 0.54505 0.95817
 C148 C 0.02578 0.56498 0.94094
 C149 C 0.07073 0.54308 0.95940
 C150 C -0.04045 0.45467 0.98978
 C151 C -0.05764 0.43476 0.97369
 C152 C -0.03930 0.45662 0.92853
 C153 C -0.02244 0.47616 0.94547
 N154 N -0.02346 0.47496 0.97554
 H155 H 0.06473 0.50777 0.99054
 H156 H -0.01406 0.54586 0.95816
 H157 H 0.01433 0.58114 0.92750
 H158 H 0.09454 0.54212 0.96046
 H159 H -0.04044 0.45388 1.01369
 H160 H -0.07103 0.41862 0.98520
 H161 H -0.03827 0.45758 0.90462
 H162 H -0.00827 0.49191 0.93455
 C163 C 0.05770 0.43575 1.05570
 C164 C -0.05574 0.56403 1.05674
 C165 C -0.05702 0.43573 0.94279
 C166 C 0.05654 0.56400 0.94160
 C167 C 1.04039 -0.00886 0.54536
 H168 H 1.04031 0.01505 0.54623
 C169 C 1.05761 -0.02497 0.56524
 H170 H 1.07095 -0.01347 0.58144
 C171 C 1.02252 -0.05315 0.52370
 H172 H 1.00840 -0.06407 0.50789
 C173 C 1.03941 -0.07011 0.54320
 H174 H 1.03845 -0.09403 0.54216
 N175 N 1.02346 -0.02308 0.52500
 C176 C 1.00896 0.04167 0.45499
 H177 H 0.98515 0.04164 0.45415
 C178 C 1.02499 0.05896 0.43512
 H179 H 1.01354 0.07240 0.41895
 C180 C 1.05306 0.02359 0.47655
 H181 H 1.06393 0.00934 0.49231
 C182 C 1.06994 0.04054 0.45706
 H183 H 1.09375 0.03951 0.45805
 Zn184 Zn 0.99960 0.00057 0.50011
 N185 N 1.02313 0.02459 0.47529
 C186 C 0.97664 0.05419 0.52384
 N187 N 0.97569 0.02411 0.52501
 C188 C 0.95873 0.00979 0.54526
 C189 C 0.94149 0.02581 0.56517
 C190 C 0.95972 0.07106 0.54338
 C191 C 0.99038 -0.04035 0.45481
 C192 C 0.97441 -0.05763 0.43486
 C193 C 0.92939 -0.03938 0.45673
 C194 C 0.94620 -0.02243 0.47631
 N195 N 0.97614 -0.02337 0.47513
 H196 H 0.99079 0.06517 0.50811
 H197 H 0.95880 -0.01412 0.54603
 H198 H 0.92812 0.01424 0.58129
 H199 H 0.96069 0.09498 0.54245
 H200 H 1.01418 -0.04028 0.45404
 H201 H 0.98592 -0.07101 0.41870
 H202 H 0.90558 -0.03842 0.45768
 H203 H 0.93528 -0.00827 0.49209
 C204 C 1.05575 0.05834 0.43614
 C205 C 1.05707 -0.05587 0.56416
 C206 C 0.94365 -0.05710 0.43582
 C207 C 0.94203 0.05672 0.56423
 C208 C 0.16343 0.28897 1.16326
 C209 C 0.15087 0.30861 1.15035
 C210 C 0.13562 0.33170 1.13469
 C211 C 0.11032 0.34454 1.14691
 C212 C 0.09495 0.36631 1.13125
 C213 C 0.10481 0.37532 1.10331
 C214 C 0.13024 0.36264 1.09119
 C215 C 0.14561 0.34088 1.10685
 C216 C 0.08845 0.39698 1.08676
 C217 C 0.07454 0.41483 1.07271
 H218 H 0.10236 0.33755 1.16838
 H219 H 0.07527 0.37591 1.14079
 H220 H 0.13801 0.36939 1.06957
 H221 H 0.16510 0.33104 1.09717
 C222 C -0.16210 0.71079 1.16354
 C223 C -0.14938 0.69117 1.15080
 C224 C -0.13393 0.66808 1.13535
 C225 C -0.10654 0.65825 1.14571
 C226 C -0.09107 0.63649 1.13018
 C227 C -0.10291 0.62447 1.10421
 C228 C -0.13040 0.63414 1.09396
 C229 C -0.14588 0.65590 1.10950
 C230 C -0.08654 0.60280 1.08770
 C231 C -0.07261 0.58496 1.07369
 H232 H -0.09707 0.66757 1.16563
 H233 H -0.06980 0.62923 1.13825
 H234 H -0.13972 0.62505 1.07386
 H235 H -0.16699 0.66340 1.10124
 C236 C -0.16351 0.28887 0.83618
 C237 C -0.15079 0.30853 0.84888
 C238 C -0.13538 0.33165 0.86434
 C239 C -0.14599 0.34195 0.89154
 C240 C -0.13049 0.36373 0.90705
 C241 C -0.10433 0.37530 0.89542
 C242 C -0.09384 0.36517 0.86810
 C243 C -0.10934 0.34338 0.85259
 C244 C -0.08788 0.39697 0.91185
 C245 C -0.07391 0.41482 0.92584
 H246 H -0.16606 0.33297 0.90087
 H247 H -0.13876 0.37134 0.92819
 H248 H -0.07359 0.37391 0.85894
 H249 H -0.10090 0.33552 0.83161
 C250 C 0.16303 0.71118 0.83551
 C251 C 0.15030 0.69147 0.84812
 C252 C 0.13483 0.66830 0.86342
 C253 C 0.14700 0.65558 0.88890
 C254 C 0.13150 0.63375 0.90433
 C255 C 0.10377 0.62455 0.89433
 C256 C 0.09171 0.63710 0.86871
 C257 C 0.10720 0.65893 0.85329
 C258 C 0.08737 0.60283 0.91075
 C259 C 0.07343 0.58495 0.92471
 H260 H 0.16831 0.66272 0.89698
 H261 H 0.14100 0.62425 0.92415
 H262 H 0.07024 0.63021 0.86083
 H263 H 0.09755 0.66868 0.83366
 C264 C 1.16254 0.16448 0.28924
 C265 C 1.14974 0.15190 0.30891
 C266 C 1.13421 0.13661 0.33205
 C267 C 1.14654 0.11139 0.34512
 C268 C 1.13099 0.09596 0.36691
 C269 C 1.10305 0.10570 0.37572
 C270 C 1.09082 0.13106 0.36282
 C271 C 1.10637 0.14649 0.34103
 C272 C 1.08662 0.08926 0.39739
 C273 C 1.07265 0.07528 0.41523
 H274 H 1.16801 0.10352 0.33829
 H275 H 1.14062 0.07633 0.37669
 H276 H 1.06920 0.13874 0.36940
 H277 H 1.09659 0.16592 0.33101
 C278 C 1.16337 -0.16309 0.71077
 C279 C 1.15075 -0.15024 0.69114
 C280 C 1.13542 -0.13464 0.66806
 C281 C 1.14518 -0.10666 0.65904
 C282 C 1.12972 -0.09105 0.63730
 C283 C 1.10444 -0.10336 0.62448
 C284 C 1.09481 -0.13144 0.63333
 C285 C 1.11027 -0.14705 0.65507
 C286 C 1.08798 -0.08687 0.60285
 C287 C 1.07399 -0.07284 0.58504
 H288 H 1.16455 -0.09682 0.66899
 H289 H 1.13731 -0.06932 0.63068
 H290 H 1.07525 -0.14113 0.62362
 H291 H 1.10249 -0.16864 0.66194
 C292 C 0.83767 -0.16408 0.28884
 C293 C 0.85034 -0.15133 0.30851
 C294 C 0.86574 -0.13588 0.33164
 C295 C 0.85336 -0.11053 0.34440
 C296 C 0.86878 -0.09497 0.36620
 C297 C 0.89664 -0.10469 0.37531
 C298 C 0.90892 -0.13017 0.36271
 C299 C 0.89350 -0.14574 0.34092
 C300 C 0.91295 -0.08814 0.39701
 C301 C 0.92683 -0.07408 0.41487
 H302 H 0.83195 -0.10268 0.33733
 H303 H 0.85912 -0.07525 0.37574
 H304 H 0.93048 -0.13784 0.36954
 H305 H 0.90331 -0.16526 0.33114
 C306 C 0.83588 0.16343 0.71117
 C307 C 0.84846 0.15061 0.69150
 C308 C 0.86373 0.13504 0.66838
 C309 C 0.85494 0.10641 0.66046
 C310 C 0.87036 0.09088 0.63867
 C311 C 0.89465 0.10391 0.62470
 C312 C 0.90330 0.13263 0.63245
 C313 C 0.88787 0.14817 0.65424
 C314 C 0.91111 0.08753 0.60301
 C315 C 0.92510 0.07360 0.58516
 H316 H 0.83635 0.09603 0.67130
 H317 H 0.86353 0.06865 0.63291
 H318 H 0.92209 0.14289 0.62184
 H319 H 0.89490 0.17026 0.66025
 C320 C 0.28926 1.16285 0.16411
 C321 C 0.30894 1.15006 0.15161
 C322 C 0.33208 1.13453 0.13640
 C323 C 0.34514 1.14698 0.11125
 C324 C 0.36693 1.13144 0.09589
 C325 C 0.37575 1.10338 0.10563
 C326 C 0.36287 1.09103 0.13093
 C327 C 0.34108 1.10657 0.14628
 C328 C 0.39742 1.08694 0.08925
 C329 C 0.41525 1.07295 0.07531
 H330 H 0.33829 1.16854 0.10337
 H331 H 0.37669 1.14115 0.07631
 H332 H 0.36946 1.06932 0.13860
 H333 H 0.33107 1.09671 0.16566
 C334 C 0.71001 1.16345 -0.16284
 C335 C 0.69037 1.15086 -0.15008
 C336 C 0.66728 1.13558 -0.13455
 C337 C 0.65469 1.11004 -0.14671
 C338 C 0.63296 1.09462 -0.13113
 C339 C 0.62375 1.10468 -0.10333
 C340 C 0.63617 1.13036 -0.09128
 C341 C 0.65789 1.14578 -0.10686
 C342 C 0.60217 1.08824 -0.08682
 C343 C 0.58441 1.07427 -0.07278
 H344 H 0.66185 1.10191 -0.16807
 H345 H 0.62356 1.07474 -0.14061
 H346 H 0.62927 1.13829 -0.06976
 H347 H 0.66754 1.16546 -0.09721
 C348 C 0.28936 0.83681 -0.16323
 C349 C 0.30901 0.84944 -0.15050
 C350 C 0.33212 0.86480 -0.13506
 C351 C 0.34349 0.89123 -0.14654
 C352 C 0.36524 0.90670 -0.13103
 C353 C 0.37572 0.89580 -0.10400
 C354 C 0.36453 0.86925 -0.09264
 C355 C 0.34277 0.85378 -0.10814
 C356 C 0.39736 0.91225 -0.08755
 C357 C 0.41516 0.92625 -0.07358
 H358 H 0.33535 0.89999 -0.16729
 H359 H 0.37369 0.92725 -0.13997
 H360 H 0.37242 0.86067 -0.07171
 H361 H 0.33408 0.83341 -0.09903
 C362 C 0.71123 0.83606 0.16326
 C363 C 0.69150 0.84865 0.15061
 C364 C 0.66831 0.86394 0.13521
 C365 C 0.65588 0.88955 0.14739
 C366 C 0.63405 0.90497 0.13195
 C367 C 0.62455 0.89484 0.10425
 C368 C 0.63680 0.86909 0.09219
 C369 C 0.65863 0.85367 0.10764
 C370 C 0.60285 0.91127 0.08788
 C371 C 0.58499 0.92523 0.07394
 H372 H 0.66326 0.89773 0.16866
 H373 H 0.62478 0.92490 0.14144
 H374 H 0.62968 0.86111 0.07076
 H375 H 0.66814 0.83394 0.09798
   
