data_POSCAR
  _audit_creation_date              2014-09-24
  _audit_creation_method            'ToBaCCo'
  _symmetry_space_group_name_H-M    'P1'
  _symmetry_Int_Tables_number       1
  _symmetry_cell_setting            triclinic
  loop_
  _symmetry_equiv_pos_as_xyz
 x,y,z
_cell_length_a 17.5654
_cell_length_b 17.7436
_cell_length_c 17.2478
_cell_angle_alpha 90.535500
_cell_angle_beta 89.006100
_cell_angle_gamma 89.298000
loop_
  _atom_site_label
  _atom_site_type_symbol
  _atom_site_fract_x
  _atom_site_fract_y
  _atom_site_fract_z
O1 O 0.58998 0.12933 0.01908
 O2 O 0.41084 -0.06260 -0.13956
 O3 O 0.60164 0.05113 -0.10208
 O4 O 0.35516 0.10626 0.04186
 O5 O 0.55225 -0.04991 -0.15155
 O6 O 0.46087 0.15566 0.01662
 O7 O 0.34649 0.03114 -0.08240
 O8 O 0.69045 0.05730 0.01148
 C9 C 0.66134 0.12364 0.02745
 C10 C 0.35759 -0.01260 -0.13981
 C11 C 0.58918 0.01034 -0.16043
 C12 C 0.39118 0.16042 0.01569
 O13 O 0.43414 0.07205 0.15290
 O14 O 0.56488 -0.14449 -0.02448
 O15 O 0.61952 -0.04760 0.07972
 O16 O 0.33922 -0.08763 -0.00766
 O17 O 0.43655 -0.15822 -0.01645
 O18 O 0.57205 0.04231 0.14853
 O19 O 0.36796 -0.02323 0.11431
 O20 O 0.65556 -0.07589 -0.05633
 Co21 Co 0.51164 0.09100 0.07804
 Co22 Co 0.49168 -0.09514 -0.07679
 Co23 Co 0.60505 0.00396 -0.00812
 Co24 Co 0.36576 0.00635 0.01616
 O25 O 0.48926 -0.00291 0.00163
 C26 C 0.38932 0.01776 0.16780
 C27 C 0.63228 -0.14070 -0.04420
 C28 C 0.61526 -0.01408 0.14286
 C29 C 0.36721 -0.15174 -0.00959
 O30 O -0.13007 0.41651 -0.03497
 O31 O 0.06664 0.57032 0.16858
 O32 O 0.06472 0.34898 0.09544
 O33 O -0.08472 0.64849 -0.00387
 O34 O 0.04286 0.44278 0.16667
 O35 O -0.14993 0.55034 -0.00634
 O36 O -0.03615 0.61749 0.12412
 O37 O -0.06535 0.36127 0.05425
 C38 C -0.12627 0.36894 0.01931
 C39 C 0.00507 0.60508 0.18051
 C40 C 0.04885 0.37400 0.16075
 C41 C -0.14795 0.62012 -0.00621
 O42 O -0.04750 0.58619 -0.12248
 O43 O 0.16285 0.42361 0.05780
 O44 O -0.01762 0.35529 -0.08832
 O45 O 0.10046 0.64256 0.06508
 O46 O 0.16766 0.54931 0.03904
 O47 O -0.02045 0.45790 -0.14652
 O48 O 0.04791 0.64153 -0.06880
 O49 O 0.11510 0.38252 -0.04731
 Co50 Co -0.07792 0.50205 -0.06891
 Co51 Co 0.10087 0.49705 0.09970
 Co52 Co 0.02377 0.37769 0.00436
 Co53 Co 0.00789 0.62316 0.02837
 O54 O 0.01294 0.50034 0.01530
 C55 C 0.00527 0.63392 -0.12623
 C56 C 0.17204 0.39087 -0.00616
 C57 C -0.01953 0.38897 -0.15028
 C58 C 0.16036 0.61778 0.03726
 O59 O -0.03719 -0.16729 0.48555
 O60 O 0.14066 0.02549 0.56125
 O61 O 0.10503 -0.04951 0.39272
 O62 O 0.01373 -0.07822 0.65432
 O63 O 0.13591 0.06020 0.42843
 O64 O -0.08520 -0.12988 0.61138
 O65 O 0.06914 0.04119 0.65899
 O66 O -0.01441 -0.11877 0.37447
 C67 C -0.02055 -0.17571 0.41602
 C68 C 0.13260 0.02236 0.63203
 C69 C 0.15491 -0.00046 0.39702
 C70 C -0.02681 -0.13424 0.65164
 O71 O -0.17662 -0.02385 0.54143
 O72 O 0.01327 0.14948 0.45750
 O73 O -0.09052 0.01175 0.35899
 O74 O -0.06596 0.10705 0.62174
 O75 O 0.04285 0.14739 0.59075
 O76 O -0.14280 -0.07990 0.41835
 O77 O -0.12610 -0.00966 0.65060
 O78 O 0.02581 0.07841 0.35776
 Co79 Co -0.10080 -0.09032 0.51426
 Co80 Co 0.07280 0.08459 0.51015
 Co81 Co 0.00510 -0.01815 0.38469
 Co82 Co -0.02610 0.01340 0.63297
 O83 O -0.01266 -0.00314 0.50985
 C84 C -0.18313 -0.00274 0.60948
 C85 C 0.01544 0.14271 0.38626
 C86 C -0.14594 -0.02989 0.36811
 C87 C -0.02111 0.16012 0.62042
 C88 C -0.22898 0.19319 0.08408
 C89 C -0.29160 0.19155 0.03550
 C90 C -0.30951 0.25854 -0.00430
 C91 C -0.25838 0.31960 -0.00529
 C92 C -0.18910 0.31547 0.03495
 C93 C -0.17916 0.25325 0.08391
 C94 C -0.11256 0.20196 0.09755
 C95 C -0.16784 0.13657 0.09865
 H96 H -0.35986 0.26151 -0.03957
 H97 H -0.27058 0.36736 -0.04187
 H98 H -0.08607 0.21261 0.15464
 H99 H -0.07253 0.19863 0.04722
 H100 H -0.17414 0.11053 0.15673
 H101 H -0.15882 0.09624 0.04953
 C102 C 0.34660 0.71358 -0.00788
 C103 C 0.32088 0.78901 -0.00975
 C104 C 0.24180 0.80190 -0.01483
 C105 C 0.19109 0.74341 -0.00833
 C106 C 0.21666 0.67004 0.00684
 C107 C 0.29502 0.65491 0.00128
 C108 C 0.34572 0.61327 0.05493
 C109 C 0.40215 0.67698 0.04507
 H110 H 0.21776 0.85796 -0.01971
 H111 H 0.13119 0.75756 -0.00935
 H112 H 0.36648 0.55888 0.02943
 H113 H 0.32127 0.60962 0.11468
 H114 H 0.45544 0.65921 0.01396
 H115 H 0.41068 0.71019 0.09917
 C116 C 0.30996 0.23940 -0.07207
 C117 C 0.35338 0.23195 -0.00523
 C118 C 0.35525 0.29457 0.04502
 C119 C 0.30238 0.35429 0.03679
 C120 C 0.24572 0.35127 -0.02085
 C121 C 0.25677 0.29747 -0.07982
 C122 C 0.20275 0.24747 -0.12098
 C123 C 0.26128 0.18473 -0.11243
 H124 H 0.39148 0.29371 0.09521
 H125 H 0.29982 0.39733 0.08173
 H126 H 0.19490 0.26406 -0.18226
 H127 H 0.14947 0.23713 -0.08756
 H128 H 0.28760 0.16618 -0.16853
 H129 H 0.24240 0.14023 -0.07231
 C130 C -0.24628 0.79407 -0.08091
 C131 C -0.31855 0.79128 -0.04747
 C132 C -0.34128 0.72175 -0.01459
 C133 C -0.28797 0.66179 -0.00509
 C134 C -0.21135 0.67126 -0.02776
 C135 C -0.19399 0.73660 -0.07026
 C136 C -0.13027 0.79187 -0.06481
 C137 C -0.18801 0.85416 -0.07813
 H138 H -0.39841 0.71569 0.00893
 H139 H -0.30510 0.61151 0.02536
 H140 H -0.08801 0.78611 -0.11300
 H141 H -0.10637 0.79565 -0.00584
 H142 H -0.18041 0.88241 -0.13497
 H143 H -0.19524 0.89246 -0.02715
 C144 C -0.07999 -0.32317 0.27489
 C145 C -0.01063 -0.35939 0.25715
 C146 C 0.04878 -0.35060 0.31096
 C147 C 0.04308 -0.29564 0.37066
 C148 C -0.02277 -0.25028 0.37850
 C149 C -0.08586 -0.27003 0.33431
 C150 C -0.13972 -0.22219 0.28967
 C151 C -0.13376 -0.28054 0.22491
 H152 H 0.10295 -0.37932 0.30156
 H153 H 0.09279 -0.28319 0.40456
 H154 H -0.11419 -0.16778 0.27311
 H155 H -0.19722 -0.21842 0.31747
 H156 H -0.10638 -0.25837 0.17132
 H157 H -0.18765 -0.31134 0.21584
 C158 C 0.00593 0.35368 0.70975
 C159 C -0.03656 0.34695 0.77855
 C160 C -0.08924 0.28792 0.78332
 C161 C -0.08937 0.23049 0.72698
 C162 C -0.03708 0.23067 0.66427
 C163 C 0.00667 0.29592 0.65437
 C164 C 0.08981 0.30531 0.63778
 C165 C 0.08851 0.36890 0.69758
 H166 H -0.12465 0.28171 0.83492
 H167 H -0.12303 0.18146 0.73872
 H168 H 0.10108 0.32497 0.57772
 H169 H 0.12472 0.25599 0.65580
 H170 H 0.09817 0.42521 0.67176
 H171 H 0.12267 0.35670 0.74969
 C172 C 0.08848 0.25535 0.22111
 C173 C 0.04796 0.32334 0.22695
 C174 C 0.00561 0.33799 0.29598
 C175 C -0.00432 0.28011 0.35125
 C176 C 0.02714 0.20771 0.33645
 C177 C 0.07775 0.19937 0.27380
 C178 C 0.09026 0.13806 0.21488
 C179 C 0.10259 0.20009 0.15615
 H180 H -0.02372 0.39152 0.30455
 H181 H -0.04005 0.29037 0.40214
 H182 H 0.03797 0.10516 0.20401
 H183 H 0.14248 0.10394 0.22543
 H184 H 0.05760 0.20093 0.11201
 H185 H 0.16202 0.20206 0.13304
 C186 C 0.05814 -0.25778 0.80877
 C187 C 0.00674 -0.31786 0.81315
 C188 C -0.05329 -0.31829 0.75892
 C189 C -0.06347 -0.25943 0.70622
 C190 C -0.01268 -0.19908 0.70328
 C191 C 0.04846 -0.19975 0.75472
 C192 C 0.13097 -0.19961 0.73312
 C193 C 0.14162 -0.26291 0.79007
 H194 H -0.09554 -0.36228 0.75933
 H195 H -0.11182 -0.26099 0.66814
 H196 H 0.15925 -0.14677 0.75112
 H197 H 0.14217 -0.21700 0.67182
 H198 H 0.17736 -0.24624 0.83941
 H199 H 0.15849 -0.31741 0.76195
 C200 C 0.23706 0.02615 0.81749
 C201 C 0.30847 -0.00686 0.80136
 C202 C 0.32304 -0.03236 0.72434
 C203 C 0.26760 -0.02129 0.66616
 C204 C 0.19590 0.01149 0.68562
 C205 C 0.18322 0.03590 0.76157
 C206 C 0.11896 0.01596 0.81491
 C207 C 0.17773 0.00189 0.87555
 H208 H 0.37716 -0.05870 0.70867
 H209 H 0.27966 -0.04036 0.60738
 H210 H 0.08880 -0.03593 0.79715
 H211 H 0.08156 0.06549 0.82864
 H212 H 0.18323 -0.05865 0.88998
 H213 H 0.16963 0.04026 0.92605
 C214 C -0.34400 -0.02535 0.28323
 C215 C -0.32910 -0.03254 0.20335
 C216 C -0.25275 -0.04640 0.17985
 C217 C -0.19337 -0.04264 0.23328
 C218 C -0.20884 -0.02956 0.31255
 C219 C -0.28542 -0.02676 0.33694
 C220 C -0.32565 0.03030 0.38762
 C221 C -0.38923 0.03181 0.32872
 H222 H -0.23786 -0.05334 0.11900
 H223 H -0.13512 -0.04866 0.21229
 H224 H -0.29437 0.08428 0.39164
 H225 H -0.34349 0.00625 0.44430
 H226 H -0.39443 0.08662 0.29841
 H227 H -0.44361 0.00865 0.35150
 C228 C 0.34050 0.05987 0.30114
 C229 C 0.35231 0.00383 0.24472
 C230 C 0.31221 -0.06450 0.25615
 C231 C 0.25178 -0.06933 0.31104
 C232 C 0.23091 -0.00649 0.35726
 C233 C 0.28185 0.05461 0.35634
 C234 C 0.26859 0.13805 0.35614
 C235 C 0.33150 0.14314 0.29472
 H236 H 0.32136 -0.11163 0.21657
 H237 H 0.21711 -0.11938 0.31161
 H238 H 0.28390 0.16474 0.41220
 H239 H 0.21183 0.15449 0.33459
 H240 H 0.38243 0.17349 0.31526
 H241 H 0.31049 0.16069 0.23706
 C242 C -0.37392 -0.02986 0.70356
 C243 C -0.37286 0.02453 0.76356
 C244 C -0.32132 0.08422 0.75434
 C245 C -0.26422 0.08065 0.69569
 C246 C -0.25761 0.01796 0.64520
 C247 C -0.31791 -0.03267 0.64535
 C248 C -0.31635 -0.11673 0.64331
 C249 C -0.37713 -0.11406 0.70692
 H250 H -0.31925 0.12897 0.79736
 H251 H -0.22109 0.12312 0.69444
 H252 H -0.26125 -0.14104 0.66262
 H253 H -0.33722 -0.13959 0.58746
 H254 H -0.35668 -0.13711 0.76270
 H255 H -0.43291 -0.13582 0.68785
   
