data_POSCAR
  _audit_creation_date              2014-09-24
  _audit_creation_method            'ToBaCCo'
  _symmetry_space_group_name_H-M    'P1'
  _symmetry_Int_Tables_number       1
  _symmetry_cell_setting            triclinic
  loop_
  _symmetry_equiv_pos_as_xyz
 x,y,z
_cell_length_a 31.0359
_cell_length_b 30.8003
_cell_length_c 45.0262
_cell_angle_alpha 89.996500
_cell_angle_beta 90.003300
_cell_angle_gamma 89.997900
loop_
  _atom_site_label
  _atom_site_type_symbol
  _atom_site_fract_x
  _atom_site_fract_y
  _atom_site_fract_z
B1 B 0.27184 0.23549 0.28137
 B2 B 0.22067 0.22556 0.27273
 B3 B 0.23665 0.27615 0.27948
 B4 B 0.28691 0.28316 0.26618
 B5 B 0.30156 0.23471 0.25036
 B6 B 0.26009 0.19866 0.25491
 B7 B 0.23112 0.26566 0.22084
 B8 B 0.28231 0.27554 0.22945
 B9 B 0.26633 0.22494 0.22268
 B10 B 0.21607 0.21795 0.23601
 B11 B 0.20144 0.26639 0.25183
 B12 B 0.24291 0.30244 0.24730
 B13 B 0.73375 0.77460 0.22249
 B14 B 0.71778 0.72399 0.22922
 B15 B 0.76899 0.73390 0.22067
 B16 B 0.78399 0.78160 0.23586
 B17 B 0.73994 0.80086 0.25472
 B18 B 0.69848 0.76481 0.25014
 B19 B 0.76336 0.72337 0.27931
 B20 B 0.77933 0.77397 0.27258
 B21 B 0.72815 0.76401 0.28116
 B22 B 0.71312 0.71635 0.26595
 B23 B 0.75716 0.69710 0.24711
 B24 B 0.79861 0.73316 0.25169
 B25 B 0.72827 0.23598 -0.28106
 B26 B 0.77945 0.22601 -0.27245
 B27 B 0.76349 0.27661 -0.27921
 B28 B 0.71325 0.28366 -0.26588
 B29 B 0.69859 0.23523 -0.25004
 B30 B 0.74004 0.19915 -0.25460
 B31 B 0.76908 0.26614 -0.22057
 B32 B 0.71788 0.27606 -0.22914
 B33 B 0.73384 0.22545 -0.22238
 B34 B 0.78409 0.21842 -0.23573
 B35 B 0.79872 0.26684 -0.25158
 B36 B 0.75728 0.30292 -0.24703
 B37 B 0.27185 0.76443 -0.28138
 B38 B 0.22066 0.77440 -0.27280
 B39 B 0.23663 0.72380 -0.27950
 B40 B 0.28686 0.71678 -0.26613
 B41 B 0.30151 0.76525 -0.25034
 B42 B 0.26005 0.80131 -0.25496
 B43 B 0.23099 0.73439 -0.22087
 B44 B 0.28219 0.72446 -0.22941
 B45 B 0.26623 0.77508 -0.22271
 B46 B 0.21599 0.78208 -0.23609
 B47 B 0.20137 0.73362 -0.25189
 B48 B 0.24281 0.69756 -0.24729
 B49 B 1.23396 1.27466 0.72245
 B50 B 1.21963 1.22331 0.72823
 B51 B 1.27076 1.23540 0.72085
 B52 B 1.28335 1.28321 0.73690
 B53 B 1.23785 1.30024 0.75511
 B54 B 1.19796 1.26279 0.74926
 B55 B 1.26317 1.22305 0.77922
 B56 B 1.27749 1.27440 0.77344
 B57 B 1.22639 1.26226 0.78085
 B58 B 1.21377 1.21448 0.76478
 B59 B 1.25927 1.19746 0.74659
 B60 B 1.29914 1.23493 0.75243
 B61 B 0.76613 0.72477 0.72271
 B62 B 0.78041 0.77616 0.72839
 B63 B 0.72929 0.76400 0.72106
 B64 B 0.71676 0.71624 0.73720
 B65 B 0.76229 0.69931 0.75542
 B66 B 0.80214 0.73679 0.74949
 B67 B 0.73692 0.77657 0.77939
 B68 B 0.72264 0.72518 0.77372
 B69 B 0.77374 0.73740 0.78109
 B70 B 0.78629 0.78513 0.76492
 B71 B 0.74077 0.80204 0.74673
 B72 B 0.70093 0.76456 0.75264
 B73 B 1.23399 0.72531 0.27761
 B74 B 1.21969 0.77668 0.27183
 B75 B 1.27081 0.76456 0.27924
 B76 B 1.28340 0.71675 0.26318
 B77 B 1.23790 0.69974 0.24494
 B78 B 1.19803 0.73722 0.25077
 B79 B 1.26330 0.77693 0.22087
 B80 B 1.27758 0.72557 0.22664
 B81 B 1.22650 0.73774 0.21920
 B82 B 1.21389 0.78552 0.23527
 B83 B 1.25937 0.80251 0.25349
 B84 B 1.29923 0.76502 0.24767
 B85 B 0.76613 1.27510 0.27733
 B86 B 0.78042 1.22373 0.27154
 B87 B 0.72931 1.23586 0.27896
 B88 B 0.71672 1.28367 0.26291
 B89 B 0.76221 1.30068 0.24467
 B90 B 0.80208 1.26319 0.25050
 B91 B 0.73681 1.22350 0.22059
 B92 B 0.72253 1.27486 0.22637
 B93 B 0.77361 1.26269 0.21893
 B94 B 0.78622 1.21490 0.23500
 B95 B 0.74074 1.19791 0.25321
 B96 B 0.70088 1.23540 0.24740
 O97 O 0.45147 1.08178 0.02236
 O98 O 0.54851 0.91808 0.02230
 O99 O 0.41695 0.94859 0.01856
 O100 O 0.58303 1.05128 0.01856
 O101 O 0.47560 0.92571 0.03647
 O102 O 0.52438 1.07413 0.03650
 O103 O 0.57401 0.97865 0.03726
 O104 O 0.42599 1.02118 0.03730
 C105 C 0.43126 1.06042 0.04143
 C106 C 0.56874 0.93941 0.04137
 C107 C 0.43638 0.92993 0.03897
 C108 C 0.56361 1.06994 0.03898
 O109 O 0.54854 1.08178 -0.02234
 O110 O 0.45140 0.91814 -0.02237
 O111 O 0.41697 1.05136 -0.01856
 O112 O 0.58297 0.94856 -0.01862
 O113 O 0.52430 0.92574 -0.03653
 O114 O 0.47562 1.07419 -0.03649
 O115 O 0.57399 1.02119 -0.03731
 O116 O 0.42594 0.97876 -0.03730
 Co117 Co 0.50000 1.07053 0.00001
 Co118 Co 0.49995 0.92936 -0.00003
 Co119 Co 0.42936 0.99997 -0.00000
 Co120 Co 0.57061 0.99992 -0.00003
 O121 O 0.49998 0.99994 -0.00001
 C122 C 0.56875 1.06044 -0.04141
 C123 C 0.43119 0.93952 -0.04143
 C124 C 0.43639 1.07000 -0.03898
 C125 C 0.56353 0.92992 -0.03903
 O126 O 0.95137 0.58176 0.52239
 O127 O 1.04860 0.41814 0.52232
 O128 O 0.91701 0.44853 0.51860
 O129 O 1.08296 0.55137 0.51860
 O130 O 0.97570 0.42571 0.53648
 O131 O 1.02428 0.57418 0.53651
 O132 O 1.07402 0.47874 0.53728
 O133 O 0.92597 0.52113 0.53733
 C134 C 0.93116 0.56038 0.54145
 C135 C 1.06885 0.43948 0.54137
 C136 C 0.93648 0.42985 0.53899
 C137 C 1.06351 0.57005 0.53899
 O138 O 1.04847 0.58185 0.47768
 O139 O 0.95146 0.41812 0.47765
 O140 O 0.91692 0.55130 0.48147
 O141 O 1.08301 0.44866 0.48139
 O142 O 1.02434 0.42580 0.46350
 O143 O 0.97556 0.57418 0.46355
 O144 O 1.07395 0.52127 0.46272
 O145 O 0.92595 0.47872 0.46274
 Co146 Co 0.99993 0.57055 0.50003
 Co147 Co 1.00002 0.42938 0.49999
 Co148 Co 0.92935 0.49993 0.50003
 Co149 Co 1.07059 0.50001 0.50000
 O150 O 0.99997 0.49997 0.50002
 C151 C 1.06872 0.56053 0.45862
 C152 C 0.93119 0.43947 0.45861
 C153 C 0.93634 0.56999 0.46106
 C154 C 1.06357 0.42996 0.46100
 O155 O 1.05453 0.47805 0.05095
 O156 O 1.05451 0.52201 -0.05090
 O157 O 1.05365 0.42556 -0.01661
 O158 O 1.05375 0.57451 0.01668
 O159 O 1.02816 0.44925 -0.05707
 O160 O 1.02826 0.55083 0.05714
 O161 O 1.03218 0.58236 -0.03357
 O162 O 1.03211 0.41772 0.03364
 C163 C 1.05933 0.43846 0.04832
 C164 C 1.05935 0.56160 -0.04827
 C165 C 1.05669 0.42875 -0.04378
 C166 C 1.05679 0.57132 0.04384
 O167 O 0.94655 0.52192 0.05100
 O168 O 0.94647 0.47826 -0.05089
 O169 O 0.94729 0.42558 0.01660
 O170 O 0.94737 0.57463 -0.01651
 O171 O 0.97283 0.55103 -0.05700
 O172 O 0.97281 0.44912 0.05709
 O173 O 0.96895 0.58230 0.03375
 O174 O 0.96884 0.41786 -0.03365
 Co175 Co 1.00054 0.49999 0.04854
 Co176 Co 1.00049 0.50013 -0.04846
 Co177 Co 1.00048 0.42937 -0.00000
 Co178 Co 1.00056 0.57076 0.00009
 O179 O 1.00052 0.50006 0.00004
 C180 C 0.94173 0.56152 0.04840
 C181 C 0.94163 0.43867 -0.04829
 C182 C 0.94425 0.42871 0.04377
 C183 C 0.94432 0.57150 -0.04368
 O184 O 0.55408 0.97703 0.55090
 O185 O 0.55418 1.02304 0.44927
 O186 O 0.55417 0.92537 0.48409
 O187 O 0.55410 1.07468 0.51605
 O188 O 0.52985 0.94996 0.44339
 O189 O 0.52970 1.05011 0.55673
 O190 O 0.53057 1.08306 0.46594
 O191 O 0.53054 0.91701 0.53418
 C192 C 0.55812 0.93735 0.54868
 C193 C 0.55819 1.06273 0.45147
 C194 C 0.55806 0.92932 0.45699
 C195 C 0.55794 1.07074 0.54316
 O196 O 0.44684 1.02288 0.55085
 O197 O 0.44696 0.97714 0.44917
 O198 O 0.44690 0.92530 0.51592
 O199 O 0.44689 1.07469 0.48412
 O200 O 0.47130 1.05023 0.44342
 O201 O 0.47121 0.94980 0.55665
 O202 O 0.47042 1.08295 0.53424
 O203 O 0.47054 0.91709 0.46583
 Co204 Co 0.50046 0.99996 0.54840
 Co205 Co 0.50057 1.00009 0.45170
 Co206 Co 0.50054 0.92908 0.50001
 Co207 Co 0.50050 1.07096 0.50008
 O208 O 0.50052 1.00002 0.50005
 C209 C 0.44278 1.06256 0.54866
 C210 C 0.44293 0.93746 0.45137
 C211 C 0.44299 0.92920 0.54303
 C212 C 0.44303 1.07079 0.45701
 O213 O 1.07912 1.03603 0.46771
 O214 O 0.91983 1.03617 0.53226
 O215 O 0.94734 1.02353 0.44234
 O216 O 1.05159 1.02350 0.55766
 O217 O 0.92576 1.05281 0.48165
 O218 O 1.07321 1.05271 0.51833
 O219 O 0.98070 1.05535 0.55085
 O220 O 1.01829 1.05528 0.44910
 C221 C 1.05728 1.06194 0.45231
 C222 C 0.94172 1.06206 0.54766
 C223 C 0.92864 1.05404 0.45446
 C224 C 1.07038 1.05394 0.54552
 O225 O 1.07917 0.96410 0.53216
 O226 O 0.91966 0.96419 0.46784
 O227 O 1.05136 0.97667 0.44226
 O228 O 0.94750 0.97680 0.55774
 O229 O 0.92576 0.94755 0.51845
 O230 O 1.07307 0.94743 0.48156
 O231 O 1.01838 0.94495 0.55086
 O232 O 0.98045 0.94494 0.44916
 Co233 Co 1.06913 1.00007 0.49994
 Co234 Co 0.92977 1.00017 0.50005
 Co235 Co 0.99937 1.00011 0.45137
 Co236 Co 0.99953 1.00015 0.54862
 O237 O 0.99945 1.00013 0.50000
 C238 C 1.05735 0.93823 0.54761
 C239 C 0.94147 0.93827 0.45242
 C240 C 1.07013 0.94619 0.45437
 C241 C 0.92872 0.94633 0.54564
 O242 O 0.57311 0.55281 -0.01815
 O243 O 0.42566 0.55275 0.01822
 O244 O 0.48022 0.55513 -0.05076
 O245 O 0.51854 0.55505 0.05088
 O246 O 0.41943 0.53555 -0.03237
 O247 O 0.57933 0.53555 0.03245
 O248 O 0.44754 0.52386 0.05765
 O249 O 0.55122 0.52399 -0.05759
 C250 C 0.57011 0.55430 -0.04533
 C251 C 0.42872 0.55423 0.04541
 C252 C 0.44119 0.56156 -0.04774
 C253 C 0.55757 0.56151 0.04785
 O254 O 0.57315 0.44727 0.01819
 O255 O 0.42568 0.44724 -0.01816
 O256 O 0.51855 0.44500 -0.05082
 O257 O 0.48029 0.44490 0.05082
 O258 O 0.41948 0.46444 0.03244
 O259 O 0.57934 0.46455 -0.03241
 O260 O 0.55128 0.47608 0.05764
 O261 O 0.44753 0.47615 -0.05759
 Co262 Co 0.56916 0.50004 0.00002
 Co263 Co 0.42964 0.50000 0.00003
 Co264 Co 0.49938 0.50006 -0.04855
 Co265 Co 0.49941 0.49998 0.04861
 O266 O 0.49940 0.50002 0.00003
 C267 C 0.57017 0.44578 0.04537
 C268 C 0.42871 0.44578 -0.04534
 C269 C 0.55758 0.43859 -0.04781
 C270 C 0.44126 0.43845 0.04780
 C271 C 0.32347 1.16091 0.15048
 C272 C 0.37226 1.15884 0.15606
 C273 C 0.39461 1.13848 0.13407
 C274 C 0.36602 1.12218 0.10862
 C275 C 0.34115 1.16245 0.09802
 C276 C 0.31877 1.18283 0.12005
 C277 C 0.30967 1.11362 0.14556
 C278 C 0.33203 1.09326 0.12355
 C279 C 0.30013 1.18275 0.17451
 C280 C 0.28322 1.20095 0.19512
 C281 C 0.39009 1.10013 0.08496
 C282 C 0.40939 1.08194 0.06532
 H283 H 0.38790 1.17239 0.17553
 H284 H 0.42936 1.13454 0.13472
 H285 H 0.34127 1.17404 0.07525
 H286 H 0.29977 1.21189 0.11618
 H287 H 0.28453 1.09756 0.15822
 H288 H 0.32606 1.05972 0.11737
 C289 C 0.82296 0.66041 0.65054
 C290 C 0.84061 0.69165 0.62692
 C291 C 0.86305 0.67140 0.60488
 C292 C 0.86564 0.62190 0.60863
 C293 C 0.81858 0.60683 0.61120
 C294 C 0.79614 0.62710 0.63324
 C295 C 0.86247 0.63515 0.66165
 C296 C 0.88487 0.61492 0.63964
 C297 C 0.79960 0.68221 0.67459
 C298 C 0.78278 0.70050 0.69520
 C299 C 0.88981 0.59997 0.58496
 C300 C 0.90920 0.58187 0.56533
 H301 H 0.83582 0.72657 0.62742
 H302 H 0.87754 0.68899 0.58653
 H303 H 0.80416 0.58240 0.59693
 H304 H 0.76252 0.62008 0.63786
 H305 H 0.87202 0.63334 0.68482
 H306 H 0.91359 0.59580 0.64394
 C307 C 0.67664 0.83874 0.15031
 C308 C 0.68105 0.81667 0.11991
 C309 C 0.65865 0.83709 0.09789
 C310 C 0.63406 0.87753 0.10848
 C311 C 0.66829 0.90633 0.12326
 C312 C 0.69067 0.88593 0.14525
 C313 C 0.62790 0.84110 0.15601
 C314 C 0.60553 0.86150 0.13404
 C315 C 0.69999 0.81685 0.17432
 C316 C 0.71689 0.79862 0.19493
 C317 C 0.60996 0.89963 0.08485
 C318 C 0.59064 0.91785 0.06523
 H319 H 0.69987 0.78750 0.11604
 H320 H 0.65834 0.82540 0.07515
 H321 H 0.67441 0.93981 0.11700
 H322 H 0.71598 0.90190 0.15781
 H323 H 0.61229 0.82772 0.17555
 H324 H 0.57081 0.86564 0.13477
 C325 C 1.17712 0.33900 0.65025
 C326 C 1.12823 0.33157 0.65182
 C327 C 1.10583 0.35193 0.62985
 C328 C 1.13447 0.37773 0.60842
 C329 C 1.16768 0.34474 0.59692
 C330 C 1.19011 0.32436 0.61893
 C331 C 1.18268 0.38851 0.65022
 C332 C 1.16027 0.40886 0.62823
 C333 C 1.20047 0.31713 0.67428
 C334 C 1.21730 0.29885 0.69489
 C335 C 1.11030 0.39977 0.58479
 C336 C 1.09087 0.41795 0.56520
 H337 H 1.11261 0.31180 0.66863
 H338 H 1.07103 0.34967 0.62787
 H339 H 1.17299 0.33789 0.57355
 H340 H 1.21457 0.30002 0.61446
 H341 H 1.20253 0.40603 0.66605
 H342 H 1.16090 0.44384 0.62525
 C343 C 0.67673 1.16124 -0.15024
 C344 C 0.66735 1.19039 -0.12336
 C345 C 0.64493 1.16995 -0.10138
 C346 C 0.63412 1.12239 -0.10846
 C347 C 0.67768 1.10105 -0.11553
 C348 C 0.70008 1.12149 -0.13750
 C349 C 0.63247 1.14429 -0.16015
 C350 C 0.61009 1.12387 -0.13820
 C351 C 0.70009 1.18318 -0.17423
 C352 C 0.71699 1.20144 -0.19482
 C353 C 0.61001 1.10025 -0.08486
 C354 C 0.59067 1.08201 -0.06526
 H355 H 0.67742 1.22407 -0.12173
 H356 H 0.63575 1.18616 -0.08093
 H357 H 0.68985 1.07241 -0.10425
 H358 H 0.73144 1.11041 -0.14503
 H359 H 0.61977 1.14806 -0.18247
 H360 H 0.57827 1.11015 -0.14172
 C361 C 1.17702 0.66096 0.34975
 C362 C 1.17535 0.68684 0.37886
 C363 C 1.15288 0.66650 0.40086
 C364 C 1.13431 0.62228 0.39157
 C365 C 1.17320 0.59621 0.38029
 C366 C 1.19565 0.61655 0.35830
 C367 C 1.12969 0.65207 0.34185
 C368 C 1.10727 0.63174 0.36381
 C369 C 1.20041 0.68282 0.32574
 C370 C 1.21728 0.70111 0.30514
 C371 C 1.11012 0.60026 0.41519
 C372 C 1.09071 0.58208 0.43478
 H373 H 1.19037 0.71837 0.38189
 H374 H 1.14866 0.68062 0.42275
 H375 H 1.18230 0.56454 0.38883
 H376 H 1.22398 0.60235 0.34802
 H377 H 1.11504 0.66108 0.32083
 H378 H 1.07345 0.62331 0.36161
 C379 C 0.32333 0.83913 -0.15050
 C380 C 0.31938 0.81666 -0.12020
 C381 C 0.34176 0.83702 -0.09817
 C382 C 0.36590 0.87782 -0.10862
 C383 C 0.33128 0.90647 -0.12311
 C384 C 0.30891 0.88613 -0.14513
 C385 C 0.37200 0.84201 -0.15637
 C386 C 0.39436 0.86235 -0.13438
 C387 C 0.29998 0.81730 -0.17454
 C388 C 0.28308 0.79911 -0.19515
 C389 C 0.38999 0.89985 -0.08496
 C390 C 0.40930 0.91801 -0.06533
 H391 H 0.30086 0.78726 -0.11643
 H392 H 0.34237 0.82506 -0.07549
 H393 H 0.32491 0.93982 -0.11665
 H394 H 0.28336 0.90201 -0.15750
 H395 H 0.38757 0.82901 -0.17606
 H396 H 0.42904 0.86682 -0.13523
 C397 C 0.82305 0.33928 0.34956
 C398 C 0.81500 0.31991 0.38047
 C399 C 0.83742 0.34022 0.40252
 C400 C 0.86569 0.37786 0.39146
 C401 C 0.83474 0.40800 0.37462
 C402 C 0.81233 0.38772 0.35260
 C403 C 0.87215 0.33756 0.34544
 C404 C 0.89454 0.35784 0.36744
 C405 C 0.79969 0.31749 0.32551
 C406 C 0.78284 0.29926 0.30488
 C407 C 0.88984 0.39983 0.41513
 C408 C 0.90922 0.41796 0.43475
 H409 H 0.79376 0.29256 0.38464
 H410 H 0.83535 0.33027 0.42560
 H411 H 0.83078 0.44227 0.37958
 H412 H 0.78915 0.40458 0.33871
 H413 H 0.88795 0.32161 0.32690
 H414 H 0.92949 0.35930 0.36774
 C415 C 1.17465 0.32508 0.14661
 C416 C 1.16970 0.37341 0.15425
 C417 C 1.14925 0.39688 0.13288
 C418 C 1.13570 0.36984 0.10585
 C419 C 1.10838 0.33270 0.11864
 C420 C 1.12882 0.30923 0.14002
 C421 C 1.19791 0.32444 0.11648
 C422 C 1.17737 0.34803 0.09499
 C423 C 1.19574 0.30057 0.17048
 C424 C 1.21176 0.28296 0.19169
 C425 C 1.11217 0.39526 0.08348
 C426 C 1.08973 0.41563 0.06660
 H427 H 1.18151 0.38799 0.17465
 H428 H 1.14354 0.43153 0.13496
 H429 H 1.07579 0.32538 0.11143
 H430 H 1.11377 0.28184 0.15110
 H431 H 1.22785 0.30718 0.11243
 H432 H 1.18970 0.35098 0.07252
 C433 C 0.67116 0.82201 0.64709
 C434 C 0.67310 0.80123 0.61613
 C435 C 0.65293 0.82521 0.59471
 C436 C 0.63293 0.86754 0.60644
 C437 C 0.67014 0.89161 0.62167
 C438 C 0.69025 0.86767 0.64303
 C439 C 0.62312 0.82948 0.65312
 C440 C 0.60308 0.85333 0.63182
 C441 C 0.69205 0.79727 0.67090
 C442 C 0.70847 0.77997 0.69207
 C443 C 0.60991 0.89343 0.58411
 C444 C 0.58796 0.91418 0.56716
 H445 H 0.68905 0.77062 0.61143
 H446 H 0.65158 0.81511 0.57163
 H447 H 0.68005 0.92438 0.61601
 H448 H 0.71747 0.87995 0.65565
 H449 H 0.60624 0.81699 0.67245
 H450 H 0.56903 0.86129 0.63293
 C451 C 1.17450 0.67500 -0.14664
 C452 C 1.12827 0.69010 -0.14057
 C453 C 1.10787 0.66661 -0.11919
 C454 C 1.13561 0.63020 -0.10586
 C455 C 1.17668 0.65297 -0.09481
 C456 C 1.19719 0.67657 -0.11631
 C457 C 1.17057 0.62646 -0.15394
 C458 C 1.15015 0.60297 -0.13255
 C459 C 1.19556 0.69952 -0.17052
 C460 C 1.21158 0.71712 -0.19173
 C461 C 1.11212 0.60477 -0.08349
 C462 C 1.08972 0.58441 -0.06658
 H463 H 1.11292 0.71701 -0.15201
 H464 H 1.07501 0.67345 -0.11233
 H465 H 1.18865 0.65062 -0.07222
 H466 H 1.22674 0.69443 -0.11215
 H467 H 1.18302 0.61176 -0.17411
 H468 H 1.14511 0.56819 -0.13441
 C469 C 0.67134 1.17779 0.35298
 C470 C 0.62493 1.19226 0.35905
 C471 C 0.60486 1.16845 0.38043
 C472 C 0.63312 1.13239 0.39371
 C473 C 0.67388 1.15569 0.40477
 C474 C 0.69404 1.17961 0.38329
 C475 C 0.66807 1.12922 0.34564
 C476 C 0.64800 1.10540 0.36700
 C477 C 0.69220 1.20249 0.32913
 C478 C 0.70857 1.21980 0.30795
 C479 C 0.61007 1.10658 0.41606
 C480 C 0.58807 1.08588 0.43301
 H481 H 0.60922 1.21899 0.34765
 H482 H 0.57193 1.17481 0.38731
 H483 H 0.68593 1.15343 0.42735
 H484 H 0.72337 1.19784 0.38746
 H485 H 0.68073 1.11473 0.32546
 H486 H 0.64346 1.07055 0.36512
 C487 C 0.82583 0.67462 0.14652
 C488 C 0.83194 0.62656 0.15454
 C489 C 0.85254 0.60313 0.13321
 C490 C 0.86507 0.62995 0.10584
 C491 C 0.89179 0.66790 0.11810
 C492 C 0.87120 0.69133 0.13944
 C493 C 0.80207 0.67420 0.11657
 C494 C 0.82276 0.65066 0.09512
 C495 C 0.80457 0.69907 0.17035
 C496 C 0.78843 0.71663 0.19154
 C497 C 0.88875 0.60460 0.08352
 C498 C 0.91127 0.58429 0.06666
 H499 H 0.82080 0.61210 0.17515
 H500 H 0.85904 0.56866 0.13555
 H501 H 0.92409 0.67579 0.11057
 H502 H 0.88584 0.71925 0.15016
 H503 H 0.77174 0.69077 0.11260
 H504 H 0.81014 0.64704 0.07278
 C505 C 0.32901 1.17737 0.64693
 C506 C 0.33894 1.13052 0.65636
 C507 C 0.35914 1.10675 0.63505
 C508 C 0.36749 1.13204 0.60629
 C509 C 0.39269 1.17256 0.61600
 C510 C 0.37249 1.19635 0.63734
 C511 C 0.30279 1.17300 0.61812
 C512 C 0.32308 1.14910 0.59669
 C513 C 0.30801 1.20204 0.67073
 C514 C 0.29155 1.21933 0.69188
 C515 C 0.39069 1.10629 0.58399
 C516 C 0.41280 1.08564 0.56708
 H517 H 0.33060 1.11710 0.67791
 H518 H 0.36808 1.07301 0.63834
 H519 H 0.42370 1.18185 0.60680
 H520 H 0.38613 1.22597 0.64641
 H521 H 0.27116 1.18730 0.61488
 H522 H 0.30883 1.14289 0.57509
 C523 C 0.82585 0.32550 -0.14643
 C524 C 0.87509 0.32279 -0.14823
 C525 C 0.89562 0.34622 -0.12691
 C526 C 0.86502 0.37021 -0.10575
 C527 C 0.83522 0.33477 -0.09324
 C528 C 0.81455 0.31122 -0.11469
 C529 C 0.81556 0.37428 -0.14736
 C530 C 0.83616 0.39777 -0.12600
 C531 C 0.80462 0.30103 -0.17026
 C532 C 0.78851 0.28344 -0.19144
 C533 C 0.88865 0.39559 -0.08342
 C534 C 0.91115 0.41591 -0.06656
 H535 H 0.89237 0.30398 -0.16479
 H536 H 0.93051 0.34744 -0.12525
 H537 H 0.83058 0.32887 -0.06969
 H538 H 0.79220 0.28519 -0.10952
 H539 H 0.79369 0.38902 -0.16326
 H540 H 0.83196 0.43259 -0.12361
 C541 C 0.32923 0.82251 0.35312
 C542 C 0.37790 0.81443 0.35469
 C543 C 0.39813 0.83822 0.37599
 C544 C 0.36777 0.86787 0.39371
 C545 C 0.33281 0.83744 0.40604
 C546 C 0.31247 0.81355 0.38463
 C547 C 0.32454 0.87179 0.34898
 C548 C 0.34479 0.89560 0.37029
 C549 C 0.30816 0.79786 0.32934
 C550 C 0.29163 0.78059 0.30821
 C551 C 0.39096 0.89365 0.41601
 C552 C 0.41302 0.91434 0.43292
 H553 H 0.39499 0.79187 0.34039
 H554 H 0.43258 0.83601 0.37990
 H555 H 0.32461 0.83506 0.42942
 H556 H 0.28683 0.79072 0.38965
 H557 H 0.30655 0.88668 0.33097
 H558 H 0.34418 0.93084 0.37053
 C559 C 1.15214 1.16810 0.34216
 C560 C 1.11901 1.13305 0.33448
 C561 C 1.10002 1.11510 0.35876
 C562 C 1.11605 1.13397 0.38837
 C563 C 1.10866 1.18310 0.38584
 C564 C 1.12773 1.20112 0.36147
 C565 C 1.18412 1.14609 0.36338
 C566 C 1.16512 1.12811 0.38768
 C567 C 1.17311 1.18696 0.31619
 C568 C 1.19239 1.20292 0.29582
 C569 C 1.09553 1.11300 0.41383
 C570 C 1.07825 1.09182 0.43283
 H571 H 1.11107 1.12325 0.31197
 H572 H 1.07571 1.08986 0.35704
 H573 H 1.09027 1.20202 0.40175
 H574 H 1.12562 1.23553 0.35643
 H575 H 1.21868 1.14486 0.35967
 H576 H 1.18338 1.11153 0.40484
 C577 C 0.66027 0.66581 -0.15457
 C578 C 0.64604 0.61879 -0.15951
 C579 C 0.62893 0.60000 -0.13488
 C580 C 0.62770 0.63001 -0.10763
 C581 C 0.60300 0.67048 -0.11800
 C582 C 0.62018 0.68935 -0.14272
 C583 C 0.69152 0.66405 -0.12809
 C584 C 0.67437 0.64515 -0.10338
 C585 C 0.67911 0.68553 -0.18110
 C586 C 0.69650 0.70202 -0.20213
 C587 C 0.60875 0.60800 -0.08192
 C588 C 0.59182 0.58571 -0.06332
 H589 H 0.64910 0.60172 -0.18050
 H590 H 0.61736 0.56672 -0.13482
 H591 H 0.57480 0.68336 -0.10679
 H592 H 0.60672 0.71843 -0.15271
 H593 H 0.72411 0.67683 -0.12865
 H594 H 0.69223 0.64166 -0.08279
 C595 C 0.84756 1.16840 0.65800
 C596 C 0.88079 1.13341 0.66559
 C597 C 0.89960 1.11541 0.64126
 C598 C 0.88329 1.13418 0.61169
 C599 C 0.89063 1.18333 0.61412
 C600 C 0.87176 1.20139 0.63855
 C601 C 0.81542 1.14629 0.63694
 C602 C 0.83423 1.12827 0.61259
 C603 C 0.82679 1.18731 0.68402
 C604 C 0.80764 1.20332 0.70444
 C605 C 0.90363 1.11317 0.58618
 C606 C 0.92081 1.09196 0.56715
 H607 H 0.88894 1.12368 0.68808
 H608 H 0.92394 1.09020 0.64292
 H609 H 0.90884 1.20223 0.59810
 H610 H 0.87386 1.23582 0.64352
 H611 H 0.78089 1.14503 0.64079
 H612 H 0.81585 1.11162 0.59552
 C613 C 0.33960 0.66604 0.15488
 C614 C 0.37431 0.63221 0.16173
 C615 C 0.39119 0.61340 0.13702
 C616 C 0.37172 0.63021 0.10781
 C617 C 0.37810 0.67961 0.10878
 C618 C 0.36113 0.69851 0.13360
 C619 C 0.30610 0.64214 0.13583
 C620 C 0.32299 0.62328 0.11108
 C621 C 0.32099 0.68579 0.18148
 C622 C 0.30372 0.70233 0.20253
 C623 C 0.39042 0.60813 0.08204
 C624 C 0.40718 0.58575 0.06341
 H625 H 0.38482 0.62383 0.18400
 H626 H 0.41625 0.58884 0.13818
 H627 H 0.39430 0.69807 0.09154
 H628 H 0.36286 0.73322 0.13766
 H629 H 0.27205 0.64031 0.14127
 H630 H 0.30344 0.60539 0.09527
 C631 C 1.15225 0.83188 0.65768
 C632 C 1.12723 0.87347 0.66465
 C633 C 1.10825 0.89147 0.64039
 C634 C 1.11616 0.86612 0.61151
 C635 C 1.10058 0.81979 0.61803
 C636 C 1.11964 0.80171 0.64238
 C637 C 1.18432 0.84457 0.63318
 C638 C 1.16531 0.86263 0.60888
 C639 C 1.17321 0.81298 0.68365
 C640 C 1.19245 0.79702 0.70405
 C641 C 1.09563 0.88713 0.58606
 C642 C 1.07833 0.90833 0.56707
 H643 H 1.12459 0.88753 0.68668
 H644 H 1.08929 0.92105 0.64167
 H645 H 1.07695 0.80266 0.60467
 H646 H 1.11234 0.76905 0.64993
 H647 H 1.21889 0.83958 0.63473
 H648 H 1.18354 0.87312 0.58960
 C649 C 0.66018 0.33430 0.15469
 C650 C 0.63797 0.30185 0.13372
 C651 C 0.62081 0.32070 0.10894
 C652 C 0.62769 0.37002 0.10769
 C653 C 0.67653 0.37646 0.11057
 C654 C 0.69363 0.35765 0.13528
 C655 C 0.62594 0.36856 0.16164
 C656 C 0.60887 0.38732 0.13697
 C657 C 0.67898 0.31460 0.18124
 C658 C 0.69636 0.29809 0.20227
 C659 C 0.60879 0.39203 0.08196
 C660 C 0.59187 0.41435 0.06335
 H661 H 0.63594 0.26721 0.13796
 H662 H 0.60415 0.30225 0.09191
 H663 H 0.69601 0.39399 0.09453
 H664 H 0.72777 0.35916 0.14045
 H665 H 0.61589 0.37727 0.18395
 H666 H 0.58410 0.41217 0.13820
 C667 C 0.84732 0.83164 0.34218
 C668 C 0.87137 0.79868 0.36175
 C669 C 0.89020 0.81682 0.38617
 C670 C 0.88297 0.86600 0.38847
 C671 C 0.83393 0.87204 0.38747
 C672 C 0.81516 0.85394 0.36312
 C673 C 0.88068 0.86650 0.33456
 C674 C 0.89943 0.88457 0.35889
 C675 C 0.82661 0.81266 0.31615
 C676 C 0.80750 0.79663 0.29572
 C677 C 0.90328 0.88709 0.41397
 C678 C 0.92048 0.90835 0.43297
 H679 H 0.87338 0.76422 0.35687
 H680 H 0.90831 0.79796 0.40227
 H681 H 0.81552 0.88881 0.40447
 H682 H 0.78065 0.85525 0.35921
 H683 H 0.88894 0.87609 0.31207
 H684 H 0.92385 0.90971 0.35722
 C685 C 0.33952 0.33393 -0.15479
 C686 C 0.36149 0.30152 -0.13367
 C687 C 0.37848 0.32044 -0.10886
 C688 C 0.37168 0.36977 -0.10774
 C689 C 0.32288 0.37630 -0.11082
 C690 C 0.30596 0.35743 -0.13556
 C691 C 0.37389 0.36810 -0.16167
 C692 C 0.39079 0.38692 -0.13697
 C693 C 0.32089 0.31417 -0.18138
 C694 C 0.30361 0.29764 -0.20244
 C695 C 0.39040 0.39187 -0.08197
 C696 C 0.40717 0.41426 -0.06335
 H697 H 0.36349 0.26686 -0.13783
 H698 H 0.39496 0.30202 -0.09173
 H699 H 0.30329 0.39393 -0.09490
 H700 H 0.27186 0.35898 -0.14088
 H701 H 0.38416 0.37669 -0.18396
 H702 H 0.41562 0.41170 -0.13815
 C703 C 1.16962 0.31636 -0.14315
 C704 C 1.12310 0.30185 -0.13749
 C705 C 1.10344 0.32394 -0.11510
 C706 C 1.13215 0.35848 -0.10049
 C707 C 1.14714 0.38757 -0.12613
 C708 C 1.16680 0.36548 -0.14850
 C709 C 1.19252 0.31168 -0.11303
 C710 C 1.17275 0.33389 -0.09052
 C711 C 1.18997 0.29359 -0.16807
 C712 C 1.20591 0.27761 -0.18988
 C713 C 1.10934 0.38291 -0.07731
 C714 C 1.08715 0.40375 -0.06057
 H715 H 1.10705 0.27631 -0.14990
 H716 H 1.07051 0.31728 -0.10835
 H717 H 1.14298 0.42257 -0.12659
 H718 H 1.17949 0.38159 -0.16810
 H719 H 1.22170 0.29285 -0.10973
 H720 H 1.18495 0.33406 -0.06793
 C721 C 0.67311 0.81927 0.35754
 C722 C 0.66953 0.86836 0.35231
 C723 C 0.64959 0.89003 0.37476
 C724 C 0.63511 0.86059 0.40037
 C725 C 0.67611 0.83657 0.41022
 C726 C 0.69616 0.81478 0.38762
 C727 C 0.62683 0.80402 0.36325
 C728 C 0.60690 0.82569 0.38571
 C729 C 0.69358 0.79676 0.33252
 C730 C 0.70909 0.78055 0.31062
 C731 C 0.61189 0.88453 0.42363
 C732 C 0.58922 0.90489 0.44036
 H733 H 0.68190 0.88476 0.33273
 H734 H 0.64489 0.92497 0.37440
 H735 H 0.68835 0.83679 0.43280
 H736 H 0.72561 0.79635 0.39084
 H737 H 0.61113 0.77829 0.35082
 H738 H 0.57410 0.81846 0.39250
 C739 C 0.83090 0.68366 -0.14293
 C740 C 0.87976 0.67967 -0.14690
 C741 C 0.89954 0.65768 -0.12458
 C742 C 0.86864 0.64169 -0.10031
 C743 C 0.83463 0.61477 -0.11682
 C744 C 0.81479 0.63682 -0.13920
 C745 C 0.82478 0.70471 -0.11227
 C746 C 0.84471 0.68259 -0.08979
 C747 C 0.81036 0.70633 -0.16782
 C748 C 0.79429 0.72220 -0.18963
 C749 C 0.89156 0.61732 -0.07715
 C750 C 0.91381 0.59650 -0.06043
 H751 H 0.89736 0.69309 -0.16562
 H752 H 0.93412 0.65229 -0.12421
 H753 H 0.82653 0.58146 -0.11124
 H754 H 0.78966 0.62239 -0.15277
 H755 H 0.80632 0.73414 -0.10854
 H756 H 0.84334 0.69308 -0.06680
 C757 C 0.32719 1.18034 0.35769
 C758 C 0.33142 1.13134 0.35229
 C759 C 0.35156 1.10976 0.37471
 C760 C 0.36555 1.13919 0.40045
 C761 C 0.32421 1.16260 0.41030
 C762 C 0.30397 1.18429 0.38774
 C763 C 0.37324 1.19615 0.36354
 C764 C 0.39337 1.17458 0.38597
 C765 C 0.30652 1.20277 0.33270
 C766 C 0.29091 1.21894 0.31082
 C767 C 0.38898 1.11537 0.42368
 C768 C 0.41178 1.09511 0.44039
 H769 H 0.31935 1.11493 0.33263
 H770 H 0.35672 1.07490 0.37423
 H771 H 0.31190 1.16206 0.43286
 H772 H 0.27427 1.20232 0.39097
 H773 H 0.38865 1.22219 0.35123
 H774 H 0.42604 1.18218 0.39285
 C775 C 1.16978 0.68369 0.14318
 C776 C 1.12352 0.69873 0.13717
 C777 C 1.10385 0.67663 0.11478
 C778 C 1.13231 0.64156 0.10052
 C779 C 1.14663 0.61258 0.12641
 C780 C 1.16629 0.63467 0.14877
 C781 C 1.19310 0.68774 0.11317
 C782 C 1.17332 0.66552 0.09067
 C783 C 1.19013 0.70646 0.16810
 C784 C 1.20605 0.72243 0.18992
 C785 C 1.10949 0.61713 0.07736
 C786 C 1.08728 0.59630 0.06062
 H787 H 1.10764 0.72461 0.14934
 H788 H 1.07109 0.68363 0.10780
 H789 H 1.14202 0.57764 0.12703
 H790 H 1.17854 0.61863 0.16853
 H791 H 1.22254 0.70618 0.10994
 H792 H 1.18579 0.66494 0.06815
 C793 C 0.67315 1.18067 0.64260
 C794 C 0.62687 1.19593 0.63693
 C795 C 0.60690 1.17428 0.61448
 C796 C 0.63507 1.13936 0.59980
 C797 C 0.64959 1.10991 0.62539
 C798 C 0.66957 1.13157 0.64783
 C799 C 0.69615 1.18515 0.61250
 C800 C 0.67605 1.16337 0.58992
 C801 C 0.69367 1.20318 0.66761
 C802 C 0.70921 1.21941 0.68949
 C803 C 0.61180 1.11546 0.57655
 C804 C 0.58910 1.09513 0.55981
 H805 H 0.61119 1.22166 0.64938
 H806 H 0.57408 1.18151 0.60772
 H807 H 0.64487 1.07498 0.62576
 H808 H 0.68198 1.11517 0.66740
 H809 H 0.72560 1.20357 0.60926
 H810 H 0.68826 1.16316 0.56733
 C811 C 0.83063 0.31664 0.14295
 C812 C 0.83400 0.36569 0.14845
 C813 C 0.85382 0.38771 0.12612
 C814 C 0.86840 0.35864 0.10036
 C815 C 0.82750 0.33456 0.09039
 C816 C 0.80757 0.31242 0.11286
 C817 C 0.87696 0.30164 0.13716
 C818 C 0.89679 0.32367 0.11481
 C819 C 0.81011 0.29393 0.16784
 C820 C 0.79409 0.27800 0.18965
 C821 C 0.89138 0.38300 0.07723
 C822 C 0.91368 0.40378 0.06052
 H823 H 0.82156 0.38180 0.16812
 H824 H 0.85836 0.42266 0.12668
 H825 H 0.81523 0.33502 0.06782
 H826 H 0.77818 0.29392 0.10955
 H827 H 0.89277 0.27583 0.14945
 H828 H 0.92961 0.31669 0.10797
 C829 C 0.32728 0.81948 0.64231
 C830 C 0.37648 0.81554 0.64312
 C831 C 0.39658 0.83711 0.62072
 C832 C 0.36562 0.86065 0.59955
 C833 C 0.33840 0.89011 0.61963
 C834 C 0.31826 0.86849 0.64207
 C835 C 0.31415 0.80363 0.61122
 C836 C 0.33440 0.82532 0.58867
 C837 C 0.30661 0.79706 0.66730
 C838 C 0.29097 0.78091 0.68917
 C839 C 0.38901 0.88450 0.57633
 C840 C 0.41177 0.90481 0.55963
 H841 H 0.39406 0.79725 0.65981
 H842 H 0.43139 0.83725 0.61827
 H843 H 0.33492 0.92485 0.61635
 H844 H 0.29750 0.88474 0.65799
 H845 H 0.29092 0.77792 0.60729
 H846 H 0.32854 0.81818 0.56541
 C847 C 0.32205 1.16188 -0.14830
 C848 C 0.37089 1.16341 -0.15372
 C849 C 0.39452 1.14489 -0.13162
 C850 C 0.36703 1.12666 -0.10623
 C851 C 0.33534 1.09520 -0.12117
 C852 C 0.31169 1.11373 -0.14330
 C853 C 0.31556 1.18356 -0.11794
 C854 C 0.33922 1.16502 -0.09579
 C855 C 0.29752 1.18194 -0.17246
 C856 C 0.28005 1.19924 -0.19319
 C857 C 0.39255 1.10661 -0.08249
 C858 C 0.41310 1.08997 -0.06283
 H859 H 0.38564 1.17797 -0.17319
 H860 H 0.42947 1.14353 -0.13216
 H861 H 0.33179 1.06134 -0.11491
 H862 H 0.28785 1.09580 -0.15599
 H863 H 0.29445 1.21114 -0.11421
 H864 H 0.33835 1.17670 -0.07305
 C865 C 0.82237 0.66237 0.35180
 C866 C 0.87075 0.65939 0.34491
 C867 C 0.89429 0.64078 0.36701
 C868 C 0.86719 0.62698 0.39387
 C869 C 0.83212 0.59711 0.38115
 C870 C 0.80855 0.61574 0.35901
 C871 C 0.81968 0.68694 0.38139
 C872 C 0.84327 0.66831 0.40354
 C873 C 0.79790 0.68248 0.32764
 C874 C 0.78040 0.69973 0.30691
 C875 C 0.89260 0.60681 0.41761
 C876 C 0.91308 0.59006 0.43725
 H877 H 0.88527 0.67107 0.32448
 H878 H 0.92895 0.63648 0.36552
 H879 H 0.82632 0.56422 0.38885
 H880 H 0.78253 0.59886 0.34777
 H881 H 0.80112 0.71645 0.38462
 H882 H 0.84489 0.68185 0.42577
 C883 C 0.67789 1.16222 0.14816
 C884 C 0.68851 1.11414 0.14311
 C885 C 0.66487 1.09552 0.12100
 C886 C 0.63294 1.12683 0.10615
 C887 C 0.66049 1.16537 0.09570
 C888 C 0.68414 1.18400 0.11782
 C889 C 0.62907 1.16346 0.15369
 C890 C 0.60546 1.14485 0.13162
 C891 C 0.70241 1.18236 0.17230
 C892 C 0.71989 1.19969 0.19301
 C893 C 0.60744 1.10668 0.08244
 C894 C 0.58690 1.08997 0.06281
 H895 H 0.71251 1.09632 0.15573
 H896 H 0.66860 1.06170 0.11470
 H897 H 0.66120 1.17712 0.07297
 H898 H 0.70508 1.21171 0.11407
 H899 H 0.61432 1.17790 0.17320
 H900 H 0.57052 1.14330 0.13222
 C901 C 1.17756 0.66267 0.64811
 C902 C 1.16981 0.69283 0.62150
 C903 C 1.14619 0.67418 0.59939
 C904 C 1.13266 0.62721 0.60611
 C905 C 1.10883 0.62955 0.63589
 C906 C 1.13241 0.64820 0.65796
 C907 C 1.19854 0.62186 0.63501
 C908 C 1.17492 0.60319 0.61291
 C909 C 1.20207 0.68283 0.67222
 C910 C 1.21959 0.70012 0.69293
 C911 C 1.10723 0.60699 0.58241
 C912 C 1.08676 0.59018 0.56279
 H913 H 1.18177 0.72592 0.62016
 H914 H 1.13787 0.69129 0.57911
 H915 H 1.07627 0.61770 0.63934
 H916 H 1.12002 0.65232 0.68033
 H917 H 1.22921 0.60881 0.64241
 H918 H 1.18536 0.57408 0.60137
 C919 C 0.67797 0.83793 -0.14824
 C920 C 0.63622 0.85943 -0.15916
 C921 C 0.61255 0.87795 -0.13709
 C922 C 0.63290 0.87317 -0.10623
 C923 C 0.67842 0.89230 -0.10932
 C924 C 0.70213 0.87375 -0.13143
 C925 C 0.66354 0.80562 -0.12426
 C926 C 0.63982 0.82416 -0.10216
 C927 C 0.70254 0.81784 -0.17237
 C928 C 0.72003 0.80048 -0.19306
 C929 C 0.60735 0.89324 -0.08252
 C930 C 0.58680 0.90991 -0.06288
 H931 H 0.62613 0.86003 -0.18225
 H932 H 0.58221 0.89441 -0.14125
 H933 H 0.69091 0.91812 -0.09535
 H934 H 0.73492 0.88362 -0.13641
 H935 H 0.67138 0.77126 -0.12456
 H936 H 0.62725 0.80565 -0.08356
 C937 C 1.17755 0.33726 0.35189
 C938 C 1.12939 0.34142 0.34460
 C939 C 1.10582 0.36010 0.36667
 C940 C 1.13270 0.37278 0.39389
 C941 C 1.16863 0.40214 0.38175
 C942 C 1.19222 0.38345 0.35965
 C943 C 1.17918 0.31207 0.38128
 C944 C 1.15558 0.33077 0.40339
 C945 C 1.20205 0.31708 0.32777
 C946 C 1.21957 0.29979 0.30707
 C947 C 1.10728 0.39303 0.41759
 C948 C 1.08681 0.40984 0.43720
 H949 H 1.11501 0.33046 0.32393
 H950 H 1.07130 0.36518 0.36491
 H951 H 1.17498 0.43474 0.38981
 H952 H 1.21879 0.39998 0.34879
 H953 H 1.19706 0.28211 0.38439
 H954 H 1.15326 0.31683 0.42548
 C955 C 0.32217 0.83807 0.14836
 C956 C 0.37105 0.83590 0.15352
 C957 C 0.39464 0.85442 0.13141
 C958 C 0.36709 0.87328 0.10626
 C959 C 0.33593 0.90492 0.12154
 C960 C 0.31231 0.88639 0.14369
 C961 C 0.31510 0.81684 0.11792
 C962 C 0.33873 0.83537 0.09575
 C963 C 0.29767 0.81801 0.17254
 C964 C 0.28021 0.80073 0.19328
 C965 C 0.39258 0.89332 0.08250
 C966 C 0.41310 0.90996 0.06283
 H967 H 0.38584 0.82092 0.17283
 H968 H 0.42961 0.85535 0.13177
 H969 H 0.33269 0.93889 0.11549
 H970 H 0.28881 0.90444 0.15660
 H971 H 0.29363 0.78955 0.11414
 H972 H 0.33748 0.82397 0.07295
 C973 C 0.82256 0.33749 0.64827
 C974 C 0.87085 0.34099 0.65534
 C975 C 0.89440 0.35958 0.63323
 C976 C 0.86740 0.37283 0.60619
 C977 C 0.83195 0.40251 0.61863
 C978 C 0.80837 0.38391 0.64077
 C979 C 0.82033 0.31258 0.61880
 C980 C 0.84393 0.33118 0.59664
 C981 C 0.79807 0.31741 0.67244
 C982 C 0.78056 0.30020 0.69318
 C983 C 0.89281 0.39298 0.58245
 C984 C 0.91326 0.40975 0.56281
 H985 H 0.88530 0.32967 0.67589
 H986 H 0.92900 0.36422 0.63483
 H987 H 0.82590 0.43525 0.61072
 H988 H 0.78211 0.40067 0.65182
 H989 H 0.80206 0.28286 0.61565
 H990 H 0.84585 0.31741 0.57449
 C991 C 1.15834 1.16435 0.65600
 C992 C 1.14493 1.19750 0.63216
 C993 C 1.12831 1.17894 0.60711
 C994 C 1.12689 1.12918 0.60848
 C995 C 1.10145 1.11863 0.63688
 C996 C 1.11799 1.13711 0.66183
 C997 C 1.18986 1.13366 0.64020
 C998 C 1.17332 1.11516 0.61522
 C999 C 1.17657 1.18377 0.68283
 C1000 C 1.19362 1.20014 0.70403
 C1001 C 1.10852 1.10746 0.58246
 C1002 C 1.09191 1.08531 0.56364
 H1003 H 1.14826 1.23239 0.63474
 H1004 H 1.11743 1.19786 0.58820
 H1005 H 1.07276 1.09846 0.63731
 H1006 H 1.10357 1.13280 0.68360
 H1007 H 1.22240 1.12720 0.64789
 H1008 H 1.19171 1.09291 0.60148
 C1009 C 0.65043 0.66665 0.15925
 C1010 C 0.61422 0.63460 0.16646
 C1011 C 0.59582 0.61679 0.14191
 C1012 C 0.61547 0.63279 0.11255
 C1013 C 0.66385 0.62336 0.11525
 C1014 C 0.68225 0.64119 0.13982
 C1015 C 0.63007 0.70031 0.13829
 C1016 C 0.61160 0.68243 0.11365
 C1017 C 0.67078 0.68541 0.18549
 C1018 C 0.68969 0.70135 0.20604
 C1019 C 0.59552 0.61202 0.08679
 C1020 C 0.57851 0.59106 0.06756
 H1021 H 0.60386 0.62666 0.18884
 H1022 H 0.56960 0.59353 0.14327
 H1023 H 0.68211 0.60454 0.09921
 H1024 H 0.71628 0.63758 0.14488
 H1025 H 0.63017 0.73504 0.14244
 H1026 H 0.59592 0.70177 0.09664
 C1027 C 1.15808 0.83566 0.34393
 C1028 C 1.13111 0.80423 0.36286
 C1029 C 1.11443 0.82281 0.38787
 C1030 C 1.12649 0.87086 0.39139
 C1031 C 1.11166 0.89257 0.36238
 C1032 C 1.12826 0.87407 0.33748
 C1033 C 1.19249 0.85350 0.36521
 C1034 C 1.17587 0.87204 0.39017
 C1035 C 1.17644 0.81622 0.31715
 C1036 C 1.19360 0.79985 0.29599
 C1037 C 1.10810 0.89260 0.41739
 C1038 C 1.09154 0.91478 0.43622
 H1039 H 1.12565 0.77043 0.35713
 H1040 H 1.09475 0.80495 0.40362
 H1041 H 1.08987 0.92014 0.36150
 H1042 H 1.12075 0.88571 0.31531
 H1043 H 1.22689 0.85163 0.36105
 H1044 H 1.19600 0.88597 0.40743
 C1045 C 0.65054 0.33352 -0.15921
 C1046 C 0.62438 0.37448 -0.16590
 C1047 C 0.60596 0.39230 -0.14137
 C1048 C 0.61554 0.36741 -0.11254
 C1049 C 0.66483 0.36502 -0.11081
 C1050 C 0.68327 0.34715 -0.13537
 C1051 C 0.61920 0.30281 -0.14319
 C1052 C 0.60071 0.32070 -0.11857
 C1053 C 0.67091 0.31473 -0.18543
 C1054 C 0.68981 0.29875 -0.20597
 C1055 C 0.59557 0.38816 -0.08679
 C1056 C 0.57854 0.40908 -0.06754
 H1057 H 0.62059 0.38827 -0.18794
 H1058 H 0.58633 0.42146 -0.14242
 H1059 H 0.68358 0.37612 -0.09192
 H1060 H 0.71787 0.34295 -0.13755
 H1061 H 0.61227 0.26993 -0.15048
 H1062 H 0.57797 0.30319 -0.10471
 C1063 C 0.84148 1.16473 0.34383
 C1064 C 0.87831 1.13297 0.33764
 C1065 C 0.89468 1.11446 0.36262
 C1066 C 0.87263 1.12950 0.39142
 C1067 C 0.82457 1.12009 0.38667
 C1068 C 0.80819 1.13863 0.36165
 C1069 C 0.85999 1.19777 0.36604
 C1070 C 0.87645 1.17918 0.39113
 C1071 C 0.82340 1.18417 0.31696
 C1072 C 0.80642 1.20055 0.29573
 C1073 C 0.89082 1.10773 0.41748
 C1074 C 0.90728 1.08550 0.43632
 H1075 H 0.89055 1.12571 0.31561
 H1076 H 0.92105 1.09130 0.36195
 H1077 H 0.80507 1.10079 0.40172
 H1078 H 0.77464 1.13514 0.35521
 H1079 H 0.86011 1.23262 0.36239
 H1080 H 0.89061 1.19803 0.40901
 C1081 C 0.34908 0.66701 -0.15929
 C1082 C 0.38471 0.63427 -0.16640
 C1083 C 0.40289 0.61639 -0.14179
 C1084 C 0.38362 0.63301 -0.11248
 C1085 C 0.33508 0.62439 -0.11505
 C1086 C 0.31690 0.64229 -0.13968
 C1087 C 0.37007 0.70052 -0.13852
 C1088 C 0.38832 0.68257 -0.11382
 C1089 C 0.32896 0.68583 -0.18559
 C1090 C 0.31020 0.70181 -0.20619
 C1091 C 0.40335 0.61217 -0.08668
 C1092 C 0.42027 0.59116 -0.06743
 H1093 H 0.39486 0.62593 -0.18876
 H1094 H 0.42870 0.59266 -0.14309
 H1095 H 0.31657 0.60605 -0.09889
 H1096 H 0.28279 0.63922 -0.14466
 H1097 H 0.37051 0.73520 -0.14283
 H1098 H 0.40437 0.70181 -0.09693
 C1099 C 0.84144 0.83533 0.65612
 C1100 C 0.88248 0.81307 0.64469
 C1101 C 0.89894 0.83179 0.61968
 C1102 C 0.87264 0.87083 0.60865
 C1103 C 0.87010 0.90170 0.63541
 C1104 C 0.85371 0.88305 0.66031
 C1105 C 0.81022 0.83489 0.62960
 C1106 C 0.82664 0.85363 0.60460
 C1107 C 0.82333 0.81575 0.68294
 C1108 C 0.80637 0.79931 0.70415
 C1109 C 0.89086 0.89268 0.58263
 C1110 C 0.90735 0.91491 0.56380
 H1111 H 0.89712 0.78495 0.65516
 H1112 H 0.92770 0.81973 0.60872
 H1113 H 0.88027 0.93543 0.63481
 H1114 H 0.84985 0.90070 0.68102
 H1115 H 0.77815 0.82083 0.63035
 H1116 H 0.80870 0.85571 0.58395
 C1117 C 0.34926 0.33302 0.15938
 C1118 C 0.36967 0.29944 0.13839
 C1119 C 0.38790 0.31739 0.11369
 C1120 C 0.38376 0.36701 0.11256
 C1121 C 0.40349 0.38315 0.14185
 C1122 C 0.38534 0.36527 0.16647
 C1123 C 0.31719 0.35829 0.14001
 C1124 C 0.33535 0.37619 0.11538
 C1125 C 0.32915 0.31420 0.18568
 C1126 C 0.31037 0.29821 0.20626
 C1127 C 0.40347 0.38784 0.08675
 C1128 C 0.42036 0.40885 0.06750
 H1129 H 0.36975 0.26472 0.14255
 H1130 H 0.40356 0.29811 0.09664
 H1131 H 0.42959 0.40656 0.14313
 H1132 H 0.39578 0.37330 0.18882
 H1133 H 0.28317 0.36171 0.14516
 H1134 H 0.31690 0.39489 0.09937
   
