data_POSCAR
  _audit_creation_date              2014-09-24
  _audit_creation_method            'ToBaCCo'
  _symmetry_space_group_name_H-M    'P1'
  _symmetry_Int_Tables_number       1
  _symmetry_cell_setting            triclinic
  loop_
  _symmetry_equiv_pos_as_xyz
 x,y,z
_cell_length_a 30.6211
_cell_length_b 30.6213
_cell_length_c 30.6212
_cell_angle_alpha 90.000000
_cell_angle_beta 90.000000
_cell_angle_gamma 89.999900
loop_
  _atom_site_label
  _atom_site_type_symbol
  _atom_site_fract_x
  _atom_site_fract_y
  _atom_site_fract_z
N1 N 0.31048 0.31050 1.31049
 N2 N 1.18953 0.68955 0.81049
 N3 N 0.68953 -0.18950 0.18953
 N4 N -0.18951 1.18955 -0.31047
 N5 N 0.69354 0.69356 0.69355
 N6 N 0.80647 0.30649 0.19356
 N7 N 0.30647 0.19356 0.80647
 N8 N 0.19355 0.80649 0.30647
 Zn9 Zn 0.00036 1.05588 -0.02098
 Zn10 Zn -0.03479 0.96524 -0.03478
 Zn11 Zn 0.05586 0.97904 0.00037
 Zn12 Zn -0.02099 1.00038 0.05587
 O13 O 0.00000 1.00003 0.00001
 O14 O -0.03224 1.06150 -0.06880
 O15 O -0.00511 0.92018 -0.05850
 O16 O 0.09501 1.01700 -0.02090
 O17 O -0.05850 0.99491 -0.07984
 O18 O 0.05362 1.07423 -0.03656
 O19 O 0.06148 0.93121 -0.03223
 O20 O 0.01697 0.97912 0.09502
 O21 O -0.07985 0.94152 -0.00511
 O22 O 0.07421 0.96346 0.05362
 O23 O -0.06881 0.96778 0.06148
 O24 O -0.03656 1.05364 0.07421
 O25 O -0.02090 1.09504 0.01698
 C26 C -0.05509 1.03481 -0.09060
 C27 C 0.03478 0.90942 -0.05508
 C28 C 0.09042 1.05534 -0.03576
 C29 C 0.05532 0.96426 0.09042
 C30 C -0.09060 0.94494 0.03479
 C31 C -0.03576 1.09044 0.05533
 Zn32 Zn 0.49966 -0.05583 0.47902
 Zn33 Zn 0.53481 0.03482 0.46522
 Zn34 Zn 0.44416 0.02102 0.50036
 Zn35 Zn 0.52101 -0.00033 0.55586
 O36 O 0.50002 0.00003 0.50001
 O37 O 0.53226 -0.06145 0.43119
 O38 O 0.50513 0.07988 0.44150
 O39 O 0.40501 -0.01694 0.47910
 O40 O 0.55852 0.00515 0.42016
 O41 O 0.44640 -0.07417 0.46344
 O42 O 0.43854 0.06884 0.46776
 O43 O 0.48305 0.02094 0.59501
 O44 O 0.57987 0.05854 0.49489
 O45 O 0.42581 0.03660 0.55362
 O46 O 0.56883 0.03227 0.56148
 O47 O 0.53658 -0.05358 0.57421
 O48 O 0.52092 -0.09498 0.51698
 C49 C 0.55511 -0.03475 0.40940
 C50 C 0.46524 0.09064 0.44492
 C51 C 0.40960 -0.05528 0.46424
 C52 C 0.44470 0.03580 0.59042
 C53 C 0.59062 0.05512 0.53478
 C54 C 0.53578 -0.09038 0.55532
 Zn55 Zn 1.02100 0.50038 0.44416
 Zn56 Zn 1.03480 0.46524 0.53481
 Zn57 Zn 0.99966 0.55589 0.52101
 Zn58 Zn 0.94415 0.47904 0.49966
 O59 O 1.00001 0.50003 0.50002
 O60 O 1.06883 0.46779 0.43854
 O61 O 1.05852 0.49491 0.57987
 O62 O 1.02092 0.59504 0.48305
 O63 O 1.07986 0.44152 0.50513
 O64 O 1.03658 0.55364 0.42581
 O65 O 1.03226 0.56150 0.56883
 O66 O 0.90500 0.51700 0.52093
 O67 O 1.00513 0.42018 0.55852
 O68 O 0.94640 0.57423 0.53658
 O69 O 0.93854 0.43121 0.53226
 O70 O 0.92581 0.46346 0.44641
 O71 O 0.98304 0.47912 0.40501
 C72 C 1.09062 0.44494 0.46524
 C73 C 1.05510 0.53481 0.59062
 C74 C 1.03578 0.59044 0.44470
 C75 C 0.90960 0.55534 0.53578
 C76 C 0.96524 0.40942 0.55511
 C77 C 0.94470 0.46426 0.40960
 Zn78 Zn 0.50036 0.44417 1.02101
 Zn79 Zn 0.47901 0.49967 0.94416
 Zn80 Zn 0.46521 0.53482 1.03481
 Zn81 Zn 0.55586 0.52102 0.99966
 O82 O 0.50000 0.50003 1.00002
 O83 O 0.47909 0.40502 0.98305
 O84 O 0.43119 0.53227 0.93854
 O85 O 0.44150 0.50514 1.07987
 O86 O 0.46344 0.44642 0.92581
 O87 O 0.46776 0.43855 1.06883
 O88 O 0.42015 0.55853 1.00513
 O89 O 0.56148 0.56884 1.03226
 O90 O 0.51697 0.52094 0.90501
 O91 O 0.49489 0.57988 1.05852
 O92 O 0.57421 0.53659 0.94641
 O93 O 0.59501 0.48306 1.02093
 O94 O 0.55361 0.42582 1.03658
 C95 C 0.46424 0.40961 0.94470
 C96 C 0.40940 0.55512 0.96524
 C97 C 0.44491 0.46525 1.09062
 C98 C 0.53478 0.59063 1.05511
 C99 C 0.55532 0.53579 0.90960
 C100 C 0.59042 0.44471 1.03578
 C101 C 1.28135 0.33043 0.33891
 C102 C 1.25506 0.34740 0.36285
 C103 C 1.22284 0.36706 0.38934
 C104 C 1.19413 0.38400 0.41027
 C105 C 1.15918 0.40432 0.43245
 C106 C 1.12833 0.42237 0.44898
 C107 C 0.21866 0.66963 0.83891
 C108 C 0.24495 0.65266 0.86285
 C109 C 0.27718 0.63299 0.88934
 C110 C 0.30589 0.61605 0.91027
 C111 C 0.34084 0.59573 0.93245
 C112 C 0.37168 0.57768 0.94898
 C113 C -0.28134 0.83043 0.16111
 C114 C -0.25505 0.84740 0.13717
 C115 C -0.22282 0.86706 0.11069
 C116 C -0.19411 0.88400 0.08975
 C117 C -0.15916 0.90432 0.06757
 C118 C -0.12832 0.92237 0.05105
 C119 C 0.78136 0.16963 0.66112
 C120 C 0.75507 0.15266 0.63717
 C121 C 0.72284 0.13300 0.61069
 C122 C 0.69413 0.11606 0.58975
 C123 C 0.65918 0.09573 0.56757
 C124 C 0.62833 0.07769 0.55105
 C125 C 0.33890 0.28137 0.33042
 C126 C 0.36285 0.25508 0.34739
 C127 C 0.38933 0.22286 0.36705
 C128 C 0.41027 0.19414 0.38398
 C129 C 0.43245 0.15919 0.40430
 C130 C 0.44897 0.12835 0.42235
 C131 C 0.83890 0.21869 0.66961
 C132 C 0.86285 0.24497 0.65264
 C133 C 0.88933 0.27720 0.63298
 C134 C 0.91027 0.30591 0.61604
 C135 C 0.93245 0.34086 0.59572
 C136 C 0.94897 0.37171 0.57767
 C137 C 0.16111 0.71869 -0.16958
 C138 C 0.13717 0.74497 -0.15261
 C139 C 0.11069 0.77720 -0.13295
 C140 C 0.08975 0.80591 -0.11601
 C141 C 0.06757 0.84086 -0.09569
 C142 C 0.05105 0.87171 -0.07765
 C143 C 0.66111 0.78137 1.16961
 C144 C 0.63717 0.75508 1.15264
 C145 C 0.61069 0.72285 1.13298
 C146 C 0.58975 0.69414 1.11604
 C147 C 0.56757 0.65919 1.09572
 C148 C 0.55104 0.62835 1.07767
 C149 C 0.33041 0.33892 1.28136
 C150 C 0.34738 0.36286 1.25507
 C151 C 0.36704 0.38934 1.22284
 C152 C 0.38398 0.41028 1.19413
 C153 C 0.40430 0.43246 1.15918
 C154 C 0.42235 0.44899 1.12834
 C155 C 0.66961 -0.16108 0.21866
 C156 C 0.65264 -0.13714 0.24495
 C157 C 0.63298 -0.11065 0.27718
 C158 C 0.61604 -0.08972 0.30589
 C159 C 0.59572 -0.06754 0.34084
 C160 C 0.57767 -0.05101 0.37169
 C161 C -0.16959 1.16114 -0.28133
 C162 C -0.15262 1.13719 -0.25504
 C163 C -0.13296 1.11071 -0.22282
 C164 C -0.11602 1.08977 -0.19410
 C165 C -0.09570 1.06759 -0.15915
 C166 C -0.07765 1.05107 -0.12831
 C167 C 1.16961 0.66114 0.78136
 C168 C 1.15264 0.63719 0.75507
 C169 C 1.13298 0.61071 0.72285
 C170 C 1.11604 0.58977 0.69413
 C171 C 1.09572 0.56759 0.65918
 C172 C 1.07767 0.55107 0.62834
 C173 C 0.72250 0.67248 0.66583
 C174 C 0.74849 0.65448 0.64235
 C175 C 0.78015 0.63371 0.61608
 C176 C 0.80826 0.61604 0.59497
 C177 C 0.84242 0.59525 0.57207
 C178 C 0.87259 0.57724 0.55434
 C179 C 0.77751 0.32757 1.16584
 C180 C 0.75153 0.34557 1.14235
 C181 C 0.71986 0.36634 1.11608
 C182 C 0.69175 0.38401 1.09497
 C183 C 0.65759 0.40481 1.07207
 C184 C 0.62743 0.42282 1.05434
 C185 C 0.27751 1.17248 -0.16581
 C186 C 0.25153 1.15448 -0.14232
 C187 C 0.21987 1.13371 -0.11606
 C188 C 0.19175 1.11604 -0.09495
 C189 C 0.15760 1.09525 -0.07204
 C190 C 0.12743 1.07724 -0.05431
 C191 C 0.22251 -0.17243 0.33419
 C192 C 0.24849 -0.15443 0.35768
 C193 C 0.28015 -0.13366 0.38394
 C194 C 0.30827 -0.11599 0.40505
 C195 C 0.34242 -0.09519 0.42796
 C196 C 0.37259 -0.07718 0.44569
 C197 C 0.66583 -0.27748 0.67247
 C198 C 0.64234 -0.25149 0.65447
 C199 C 0.61608 -0.21983 0.63370
 C200 C 0.59497 -0.19172 0.61603
 C201 C 0.57206 -0.15756 0.59523
 C202 C 0.55434 -0.12739 0.57722
 C203 C 1.16583 0.77753 0.32756
 C204 C 1.14234 0.75155 0.34556
 C205 C 1.11608 0.71989 0.36633
 C206 C 1.09496 0.69177 0.38400
 C207 C 1.07206 0.65762 0.40479
 C208 C 1.05433 0.62745 0.42281
 C209 C -0.16581 1.27753 0.17247
 C210 C -0.14232 1.25155 0.15447
 C211 C -0.11606 1.21989 0.13370
 C212 C -0.09495 1.19177 0.11603
 C213 C -0.07204 1.15762 0.09523
 C214 C -0.05432 1.12745 0.07722
 C215 C 0.33419 0.22252 0.82755
 C216 C 0.35768 0.24851 0.84556
 C217 C 0.38394 0.28017 0.86633
 C218 C 0.40505 0.30828 0.88400
 C219 C 0.42796 0.34244 0.90479
 C220 C 0.44568 0.37260 0.92281
 C221 C 0.67246 0.66584 0.72251
 C222 C 0.65446 0.64236 0.74850
 C223 C 0.63369 0.61609 0.78016
 C224 C 0.61602 0.59498 0.80827
 C225 C 0.59522 0.57208 0.84243
 C226 C 0.57721 0.55435 0.87259
 C227 C 0.32755 0.16584 0.77751
 C228 C 0.34556 0.14235 0.75153
 C229 C 0.36633 0.11609 0.71987
 C230 C 0.38400 0.09498 0.69175
 C231 C 0.40479 0.07208 0.65760
 C232 C 0.42281 0.05435 0.62743
 C233 C 0.17246 0.83421 0.27751
 C234 C 0.15446 0.85770 0.25153
 C235 C 0.13369 0.88396 0.21987
 C236 C 0.11602 0.90507 0.19176
 C237 C 0.09523 0.92798 0.15760
 C238 C 0.07721 0.94571 0.12743
 C239 C 0.82755 0.33421 0.22251
 C240 C 0.84555 0.35770 0.24850
 C241 C 0.86632 0.38396 0.28016
 C242 C 0.88399 0.40507 0.30827
 C243 C 0.90479 0.42798 0.34243
 C244 C 0.92280 0.44571 0.37259
   
