data_POSCAR
  _audit_creation_date              2014-09-24
  _audit_creation_method            'ToBaCCo'
  _symmetry_space_group_name_H-M    'P1'
  _symmetry_Int_Tables_number       1
  _symmetry_cell_setting            triclinic
  loop_
  _symmetry_equiv_pos_as_xyz
 x,y,z
_cell_length_a 33.8216
_cell_length_b 33.8223
_cell_length_c 33.8222
_cell_angle_alpha 89.839500
_cell_angle_beta 90.565200
_cell_angle_gamma 89.694700
loop_
  _atom_site_label
  _atom_site_type_symbol
  _atom_site_fract_x
  _atom_site_fract_y
  _atom_site_fract_z
O1 O 0.55412 0.49936 0.03231
 O2 O 0.44518 0.50025 0.03250
 O3 O 0.49948 0.44541 0.03241
 O4 O 0.49982 0.55419 0.03241
 O5 O 0.49904 0.55438 -0.03280
 O6 O 0.49870 0.44560 -0.03280
 O7 O 0.44440 0.50045 -0.03265
 O8 O 0.55335 0.49955 -0.03290
 Cu9 Cu 0.49972 0.49978 0.03893
 Cu10 Cu 0.49879 0.50001 -0.03932
 C11 C 0.57241 0.49932 -0.00033
 C12 C 0.42600 0.50050 -0.00004
 C13 C 0.49903 0.42686 -0.00020
 C14 C 0.49950 0.57293 -0.00020
 O15 O -0.03234 0.55543 0.49935
 O16 O -0.03245 0.44648 0.49958
 O17 O -0.03255 0.50094 0.55385
 O18 O -0.03225 0.50098 0.44507
 O19 O 0.03296 0.50057 0.44590
 O20 O 0.03266 0.50053 0.55467
 O21 O 0.03275 0.44608 0.50041
 O22 O 0.03281 0.55503 0.50018
 Cu23 Cu -0.03893 0.50100 0.49938
 Cu24 Cu 0.03932 0.50051 0.50037
 C25 C 0.00025 0.57401 0.49975
 C26 C 0.00013 0.42760 0.50002
 C27 C 0.00000 0.50074 0.57291
 C28 C 0.00041 0.50076 0.42684
 O29 O 0.50010 0.03241 0.55511
 O30 O 0.49976 0.03245 0.44616
 O31 O 0.44554 0.03239 0.50027
 O32 O 0.55433 0.03249 0.50101
 O33 O 0.55474 -0.03272 0.50120
 O34 O 0.44595 -0.03282 0.50046
 O35 O 0.50017 -0.03276 0.44635
 O36 O 0.50051 -0.03273 0.55530
 Cu37 Cu 0.49989 0.03896 0.50062
 Cu38 Cu 0.50039 -0.03928 0.50085
 C39 C 0.50036 -0.00016 0.57400
 C40 C 0.49990 -0.00015 0.42758
 C41 C 0.42710 -0.00024 0.50023
 C42 C 0.57318 -0.00010 0.50123
 C43 C 0.49843 0.10227 -0.07410
 C44 C 0.50039 0.07372 -0.10272
 C45 C 0.50098 0.03756 -0.08327
 N46 N 0.49954 0.04324 -0.04377
 C47 C 0.49801 0.08271 -0.03799
 C48 C 0.50158 0.00040 -0.10230
 C49 C 0.50065 -0.03662 -0.08259
 C50 C 0.49529 -0.07255 -0.10154
 C51 C 0.49531 -0.10124 -0.07276
 C52 C 0.50070 -0.08226 -0.03679
 N53 N 0.50460 -0.04291 -0.04314
 C54 C 0.50177 -0.10188 0.00029
 C55 C 0.50136 -0.08293 0.03751
 C56 C 0.50094 -0.10249 0.07362
 C57 C 0.49906 -0.07394 0.10224
 C58 C 0.49849 -0.03778 0.08278
 N59 N 0.49989 -0.04346 0.04329
 C60 C 0.49795 -0.00062 0.10181
 C61 C 0.49883 0.03640 0.08210
 C62 C 0.50418 0.07233 0.10105
 C63 C 0.50408 0.10103 0.07227
 C64 C 0.49867 0.08204 0.03630
 N65 N 0.49483 0.04269 0.04266
 C66 C 0.49755 0.10166 -0.00078
 H67 H 0.49769 0.13385 -0.07934
 H68 H 0.50104 0.07904 -0.13428
 H69 H 0.48698 0.02185 0.02170
 H70 H 0.49121 -0.07763 -0.13290
 H71 H 0.49127 -0.13255 -0.07782
 H72 H 0.50165 -0.13407 0.07886
 H73 H 0.49843 -0.07926 0.13380
 H74 H 0.50809 0.13234 0.07732
 H75 H 0.51245 -0.02208 -0.02218
 H76 H 0.50828 0.07742 0.13240
 C77 C -0.07405 0.50100 0.89727
 C78 C -0.10256 0.49903 0.92574
 C79 C -0.08295 0.49863 0.96195
 N80 N -0.04348 0.50022 0.95640
 C81 C -0.03786 0.50164 0.91694
 C82 C -0.10183 0.49810 0.99906
 C83 C -0.08196 0.49924 1.03613
 C84 C -0.10077 0.50469 1.07200
 C85 C -0.07187 0.50485 1.10077
 C86 C -0.03598 0.49948 1.08191
 N87 N -0.04250 0.49542 1.04255
 C88 C 0.00118 0.49856 1.10165
 C89 C 0.03832 0.49901 1.08282
 C90 C 0.07451 0.49954 1.10248
 C91 C 0.10302 0.50141 1.07402
 C92 C 0.08342 0.50186 1.03780
 N93 N 0.04394 0.50040 1.04336
 C94 C 0.10230 0.50236 1.00069
 C95 C 0.08242 0.50135 0.96362
 C96 C 0.10122 0.49600 0.92773
 C97 C 0.07232 0.49594 0.89895
 C98 C 0.03644 0.50126 0.91784
 N99 N 0.04297 0.50520 0.95721
 C100 C -0.00072 0.50220 0.89810
 H101 H -0.07941 0.50162 0.86568
 H102 H -0.13414 0.49823 0.92033
 H103 H 0.02209 0.51301 0.97799
 H104 H -0.13209 0.50870 1.07698
 H105 H -0.07679 0.50899 1.13207
 H106 H 0.07987 0.49891 1.13408
 H107 H 0.13461 0.50212 1.07943
 H108 H 0.07725 0.49188 0.86765
 H109 H -0.02164 0.48753 1.02179
 H110 H 0.13255 0.49199 0.92273
 C111 C 0.10258 -0.07420 0.49852
 C112 C 0.07409 -0.10282 0.50037
 C113 C 0.03792 -0.08332 0.50112
 N114 N 0.04353 -0.04381 0.49986
 C115 C 0.08297 -0.03806 0.49830
 C116 C 0.00079 -0.10230 0.50172
 C117 C -0.03626 -0.08252 0.50100
 C118 C -0.07228 -0.10134 0.49572
 C119 C -0.10100 -0.07252 0.49597
 C120 C -0.08195 -0.03666 0.50141
 N121 N -0.04253 -0.04314 0.50512
 C122 C -0.10159 0.00043 0.50267
 C123 C -0.08269 0.03762 0.50226
 C124 C -0.10230 0.07376 0.50195
 C125 C -0.07381 0.10238 0.50003
 C126 C -0.03765 0.08288 0.49934
 N127 N -0.04325 0.04337 0.50070
 C128 C -0.00052 0.10186 0.49874
 C129 C 0.03653 0.08208 0.49956
 C130 C 0.07254 0.10090 0.50495
 C131 C 0.10126 0.07208 0.50477
 C132 C 0.08222 0.03622 0.49926
 N133 N 0.04281 0.04270 0.49544
 C134 C 0.10187 -0.00087 0.49800
 H135 H 0.13415 -0.07947 0.49770
 H136 H 0.07945 -0.13439 0.50087
 H137 H 0.02187 0.02190 0.48752
 H138 H -0.07740 -0.13262 0.49155
 H139 H -0.13238 -0.07747 0.49204
 H140 H -0.13387 0.07904 0.50275
 H141 H -0.07918 0.13395 0.49946
 H142 H 0.13263 0.07702 0.50879
 H143 H -0.02157 -0.02232 0.51295
 H144 H 0.07765 0.13218 0.50915
 C145 C -0.32081 0.49864 1.03526
 C146 C -0.30046 0.49864 0.99943
 C147 C -0.32165 0.49882 0.96368
 C148 C -0.36301 0.49901 0.96371
 C149 C -0.38376 0.49903 0.99958
 C150 C -0.36217 0.49883 1.03538
 C151 C -0.25786 0.49848 0.99935
 C152 C -0.22220 0.49837 0.99929
 C153 C -0.18045 0.49826 0.99922
 C154 C -0.14477 0.49819 0.99915
 H155 H -0.30472 0.49850 1.06312
 H156 H -0.30621 0.49882 0.93576
 H157 H -0.37871 0.49917 0.93565
 H158 H -0.37720 0.49884 1.06350
 C159 C 0.32126 0.50130 0.96441
 C160 C 0.30093 0.50131 1.00023
 C161 C 0.32212 0.50109 1.03595
 C162 C 0.36347 0.50084 1.03594
 C163 C 0.38439 0.50081 1.00005
 C164 C 0.36261 0.50105 0.96425
 C165 C 0.25833 0.50152 1.00032
 C166 C 0.22267 0.50168 1.00041
 C167 C 0.18091 0.50189 1.00052
 C168 C 0.14524 0.50209 1.00060
 H169 H 0.30514 0.50147 0.93657
 H170 H 0.30667 0.50110 1.06387
 H171 H 0.37895 0.50066 1.06413
 H172 H 0.37742 0.50104 0.93599
 C173 C -0.03544 -0.32146 0.49950
 C174 C 0.00034 -0.30092 0.50004
 C175 C 0.03610 -0.32190 0.50040
 C176 C 0.03615 -0.36325 0.50026
 C177 C 0.00028 -0.38438 0.49976
 C178 C -0.03555 -0.36281 0.49936
 C179 C 0.00038 -0.25832 0.50031
 C180 C 0.00043 -0.22266 0.50058
 C181 C 0.00051 -0.18091 0.50093
 C182 C 0.00062 -0.14524 0.50127
 H183 H -0.06331 -0.30551 0.49922
 H184 H 0.06399 -0.30629 0.50082
 H185 H 0.06436 -0.37856 0.50058
 H186 H -0.06379 -0.37778 0.49897
 C187 C 0.03582 0.32102 0.50043
 C188 C 0.00000 0.30048 0.49992
 C189 C -0.03577 0.32148 0.49950
 C190 C -0.03577 0.36284 0.49957
 C191 C 0.00009 0.38378 0.50005
 C192 C 0.03590 0.36238 0.50050
 C193 C -0.00005 0.25789 0.49975
 C194 C -0.00012 0.22223 0.49958
 C195 C -0.00022 0.18047 0.49933
 C196 C -0.00034 0.14480 0.49908
 H197 H 0.06369 0.30507 0.50075
 H198 H -0.06367 0.30589 0.49910
 H199 H -0.06384 0.37838 0.49922
 H200 H 0.06401 0.37756 0.50087
 C201 C 0.50088 -0.03590 -0.32158
 C202 C 0.50072 -0.00012 -0.30093
 C203 C 0.50043 0.03564 -0.32181
 C204 C 0.50031 0.03570 -0.36316
 C205 C 0.50048 -0.00015 -0.38440
 C206 C 0.50076 -0.03599 -0.36293
 C207 C 0.50087 -0.00010 -0.25833
 C208 C 0.50101 -0.00005 -0.22267
 C209 C 0.50118 0.00006 -0.18091
 C210 C 0.50135 0.00019 -0.14524
 H211 H 0.50111 -0.06377 -0.30571
 H212 H 0.50031 0.06352 -0.30611
 H213 H 0.50009 0.06392 -0.37839
 H214 H 0.50090 -0.06422 -0.37799
 C215 C 0.49920 0.03564 0.32112
 C216 C 0.49932 -0.00015 0.30045
 C217 C 0.49965 -0.03594 0.32133
 C218 C 0.49986 -0.03599 0.36268
 C219 C 0.49973 -0.00015 0.38375
 C220 C 0.49940 0.03568 0.36248
 C221 C 0.49906 -0.00016 0.25785
 C222 C 0.49883 -0.00020 0.22219
 C223 C 0.49854 -0.00029 0.18043
 C224 C 0.49828 -0.00041 0.14476
 H225 H 0.49894 0.06352 0.30527
 H226 H 0.49974 -0.06383 0.30564
 H227 H 0.50011 -0.06407 0.37813
 H228 H 0.49930 0.06377 0.37776
 C229 C 0.50054 -0.32098 0.03561
 C230 C 0.50025 -0.30015 -0.00019
 C231 C 0.49966 -0.32076 -0.03599
 C232 C 0.49939 -0.36208 -0.03604
 C233 C 0.49970 -0.38332 -0.00019
 C234 C 0.50027 -0.36230 0.03566
 C235 C 0.50057 -0.25764 -0.00017
 C236 C 0.50086 -0.22203 -0.00013
 C237 C 0.50119 -0.18036 -0.00004
 C238 C 0.50146 -0.14474 0.00009
 H239 H 0.50100 -0.30528 0.06350
 H240 H 0.49942 -0.30490 -0.06387
 H241 H 0.49895 -0.37737 -0.06413
 H242 H 0.50053 -0.37775 0.06374
 C243 C 0.49902 0.32054 0.03557
 C244 C 0.49848 0.29994 -0.00024
 C245 C 0.49814 0.32077 -0.03603
 C246 C 0.49832 0.36210 -0.03606
 C247 C 0.49886 0.38311 -0.00021
 C248 C 0.49921 0.36187 0.03563
 C249 C 0.49827 0.25743 -0.00026
 C250 C 0.49810 0.22182 -0.00032
 C251 C 0.49790 0.18014 -0.00044
 C252 C 0.49774 0.14452 -0.00057
 H253 H 0.49929 0.30467 0.06345
 H254 H 0.49772 0.30509 -0.06392
 H255 H 0.49804 0.37755 -0.06415
 H256 H 0.49962 0.37714 0.06373
 C257 C -0.32083 0.03580 0.50177
 C258 C -0.29989 0.00001 0.50198
 C259 C -0.32038 -0.03581 0.50196
 C260 C -0.36171 -0.03589 0.50173
 C261 C -0.38307 -0.00006 0.50151
 C262 C -0.36216 0.03580 0.50154
 C263 C -0.25737 0.00006 0.50217
 C264 C -0.22176 0.00011 0.50231
 C265 C -0.18008 0.00019 0.50246
 C266 C -0.14446 0.00028 0.50256
 H267 H -0.30523 0.06369 0.50178
 H268 H -0.30443 -0.06367 0.50211
 H269 H -0.37690 -0.06399 0.50171
 H270 H -0.37770 0.06388 0.50137
 C271 C 0.32065 0.03545 0.49935
 C272 C 0.30017 -0.00038 0.49928
 C273 C 0.32112 -0.03616 0.49953
 C274 C 0.36245 -0.03615 0.49985
 C275 C 0.38335 -0.00028 0.49992
 C276 C 0.36198 0.03554 0.49966
 C277 C 0.25765 -0.00044 0.49897
 C278 C 0.22204 -0.00050 0.49871
 C279 C 0.18036 -0.00061 0.49843
 C280 C 0.14474 -0.00071 0.49822
 H281 H 0.30469 0.06331 0.49916
 H282 H 0.30552 -0.06406 0.49949
 H283 H 0.37800 -0.06423 0.50004
 H284 H 0.37717 0.06364 0.49971
 C285 C -0.03509 0.50061 1.32018
 C286 C 0.00077 0.50026 1.29992
 C287 C 0.03651 0.50015 1.32109
 C288 C 0.03644 0.50036 1.36242
 C289 C 0.00053 0.50067 1.38309
 C290 C -0.03526 0.50082 1.36151
 C291 C 0.00088 0.49995 1.25741
 C292 C 0.00097 0.49966 1.22180
 C293 C 0.00105 0.49929 1.18013
 C294 C 0.00112 0.49896 1.14451
 H295 H -0.06293 0.50070 1.30405
 H296 H 0.06444 0.49988 1.30567
 H297 H 0.06449 0.50024 1.37814
 H298 H -0.06339 0.50106 1.37651
 C299 C 0.03552 0.50076 0.67956
 C300 C -0.00034 0.50106 0.69983
 C301 C -0.03609 0.50121 0.67866
 C302 C -0.03602 0.50108 0.63734
 C303 C -0.00012 0.50080 0.61666
 C304 C 0.03567 0.50062 0.63824
 C305 C -0.00045 0.50127 0.74234
 C306 C -0.00053 0.50146 0.77795
 C307 C -0.00062 0.50171 0.81962
 C308 C -0.00067 0.50192 0.85524
 H309 H 0.06336 0.50064 0.69569
 H310 H -0.06401 0.50145 0.69409
 H311 H -0.06407 0.50122 0.62162
 H312 H 0.06381 0.50041 0.62322
   
