data_POSCAR
  _audit_creation_date              2014-09-24
  _audit_creation_method            'ToBaCCo'
  _symmetry_space_group_name_H-M    'P1'
  _symmetry_Int_Tables_number       1
  _symmetry_cell_setting            triclinic
  loop_
  _symmetry_equiv_pos_as_xyz
 x,y,z
_cell_length_a 42.2864
_cell_length_b 41.5381
_cell_length_c 41.8064
_cell_angle_alpha 89.652600
_cell_angle_beta 90.098300
_cell_angle_gamma 89.938900
loop_
  _atom_site_label
  _atom_site_type_symbol
  _atom_site_fract_x
  _atom_site_fract_y
  _atom_site_fract_z
N1 N 0.58888 0.67778 0.61059
 N2 N 0.57678 0.66488 0.63660
 C3 C 0.55117 0.68198 0.64532
 C4 C 0.54701 0.70704 0.62369
 C5 C 0.57149 0.70357 0.60198
 H6 H 0.53677 0.67673 0.66602
 H7 H 0.57609 0.71841 0.58118
 Cu8 Cu 0.59554 0.62696 0.65662
 Cu9 Cu 0.62601 0.65998 0.58964
 Cu10 Cu 0.65856 0.59100 0.62312
 N11 N 0.61383 0.58779 0.67461
 N12 N 0.63816 0.57366 0.66117
 C13 C 0.64585 0.54716 0.67811
 C14 C 0.62528 0.54436 0.70388
 C15 C 0.60525 0.57078 0.70070
 H16 H 0.66526 0.53141 0.67212
 H17 H 0.58574 0.57720 0.71604
 N18 N 0.67593 0.61211 0.58470
 N19 N 0.66357 0.63839 0.57193
 C20 C 0.68083 0.64702 0.54622
 C21 C 0.70533 0.62518 0.54262
 C22 C 0.70140 0.60338 0.56750
 H23 H 0.67613 0.66793 0.53147
 H24 H 0.71592 0.58257 0.57264
 H25 H 0.61844 0.61321 0.60498
 H26 H 0.64548 0.63845 0.62976
 N27 N 0.91214 0.32328 0.11120
 N28 N 0.92559 0.33736 0.13573
 C29 C 0.95156 0.32058 0.14424
 C30 C 0.95468 0.29436 0.12395
 C31 C 0.92899 0.29702 0.10330
 H32 H 0.96685 0.32700 0.16389
 H33 H 0.92296 0.28134 0.08370
 Cu34 Cu 0.90782 0.37618 0.15441
 Cu35 Cu 0.87415 0.34031 0.09088
 Cu36 Cu 0.84106 0.40863 0.12423
 N37 N 0.88806 0.41373 0.17358
 N38 N 0.86209 0.42636 0.16160
 C39 C 0.85361 0.45193 0.17923
 C40 C 0.87538 0.45560 0.20373
 C41 C 0.89691 0.43083 0.19936
 H42 H 0.83288 0.46652 0.17471
 H43 H 0.91763 0.42578 0.21371
 N44 N 0.82322 0.38719 0.08639
 N45 N 0.83580 0.36117 0.07370
 C46 C 0.81844 0.35249 0.04813
 C47 C 0.79366 0.37406 0.04450
 C48 C 0.79751 0.39572 0.06926
 H49 H 0.82340 0.33185 0.03335
 H50 H 0.78290 0.41643 0.07424
 H51 H 0.88065 0.38769 0.10408
 H52 H 0.85665 0.36192 0.13161
 N53 N 0.41301 0.17521 -0.10987
 N54 N 0.42595 0.16144 -0.13485
 C55 C 0.45203 0.17801 -0.14328
 C56 C 0.45567 0.20360 -0.12245
 C57 C 0.43040 0.20094 -0.10153
 H58 H 0.46692 0.17221 -0.16343
 H59 H 0.42493 0.21652 -0.08169
 Cu60 Cu 0.40654 0.12388 -0.15430
 Cu61 Cu 0.37421 0.15922 -0.09030
 Cu62 Cu 0.33875 0.09314 -0.12595
 N63 N 0.38713 0.08634 -0.17374
 N64 N 0.35989 0.07530 -0.16330
 C65 C 0.35091 0.05031 -0.18152
 C66 C 0.37392 0.04519 -0.20440
 C67 C 0.39662 0.06843 -0.19873
 H68 H 0.32954 0.03647 -0.17801
 H69 H 0.41812 0.07226 -0.21219
 N70 N 0.32129 0.11453 -0.08785
 N71 N 0.33490 0.13949 -0.07416
 C72 C 0.31784 0.14802 -0.04839
 C73 C 0.29221 0.12745 -0.04560
 C74 C 0.29523 0.10654 -0.07112
 H75 H 0.32368 0.16781 -0.03282
 H76 H 0.27992 0.08658 -0.07681
 H77 H 0.37876 0.11187 -0.10466
 H78 H 0.35580 0.13937 -0.13146
 N79 N 0.08796 0.82195 0.38963
 N80 N 0.07523 0.83566 0.36431
 C81 C 0.04929 0.81902 0.35572
 C82 C 0.04548 0.79324 0.37673
 C83 C 0.07069 0.79604 0.39793
 H84 H 0.03454 0.82521 0.33549
 H85 H 0.07611 0.78069 0.41815
 Cu86 Cu 0.09412 0.87368 0.34481
 Cu87 Cu 0.12565 0.83902 0.41035
 Cu88 Cu 0.15891 0.90759 0.37670
 N89 N 0.11287 0.91224 0.32625
 N90 N 0.13818 0.92538 0.33890
 C91 C 0.14633 0.95145 0.32154
 C92 C 0.12502 0.95492 0.29653
 C93 C 0.10409 0.92952 0.30036
 H94 H 0.16654 0.96649 0.32660
 H95 H 0.08386 0.92412 0.28551
 N96 N 0.17640 0.88601 0.41494
 N97 N 0.16374 0.85998 0.42781
 C98 C 0.18091 0.85124 0.45362
 C99 C 0.20565 0.87275 0.45717
 C100 C 0.20199 0.89445 0.43216
 H101 H 0.17593 0.83056 0.46857
 H102 H 0.21668 0.91510 0.42706
 H103 H 0.11901 0.88620 0.39587
 H104 H 0.14460 0.86055 0.37006
 N105 N 0.12422 0.12594 0.12483
 N106 N 0.37550 0.87500 0.62593
 N107 N 0.87592 0.62510 0.37489
 N108 N 0.62444 0.37442 -0.12522
 C109 C 0.02672 0.22287 0.12439
 C110 C 0.00123 0.22099 0.10292
 C111 C -0.02244 0.24449 0.10272
 C112 C -0.02143 0.27056 0.12415
 C113 C 0.00418 0.27223 0.14574
 C114 C 0.02791 0.24879 0.14576
 C115 C 0.05196 0.19791 0.12449
 C116 C 0.06541 0.18715 0.15343
 C117 C 0.08914 0.16372 0.15352
 C118 C 0.09984 0.15037 0.12470
 C119 C 0.08641 0.16105 0.09577
 C120 C 0.06280 0.18461 0.09565
 H121 H -0.04158 0.24175 0.08579
 H122 H 0.00641 0.29173 0.16257
 H123 H 0.09925 0.15603 0.17612
 H124 H 0.09412 0.15101 0.07325
 H125 H 0.04749 0.25126 0.16228
 H126 H 0.05734 0.19655 0.17610
 H127 H -0.00071 0.20104 0.08648
 H128 H 0.05328 0.19266 0.07291
 C129 C 0.47378 0.77936 0.62377
 C130 C 0.47056 0.75108 0.64207
 C131 C 0.49434 0.72769 0.64211
 C132 C 0.52184 0.73196 0.62371
 C133 C 0.52501 0.76026 0.60536
 C134 C 0.50129 0.78373 0.60547
 C135 C 0.44848 0.80415 0.62381
 C136 C 0.45607 0.83706 0.62551
 C137 C 0.43216 0.86032 0.62612
 C138 C 0.40026 0.85111 0.62498
 C139 C 0.39263 0.81834 0.62283
 C140 C 0.41649 0.79506 0.62238
 H141 H 0.49093 0.70616 0.65636
 H142 H 0.54592 0.76449 0.59107
 H143 H 0.43846 0.88553 0.62752
 H144 H 0.36814 0.81083 0.62186
 H145 H 0.50428 0.80515 0.59090
 H146 H 0.48049 0.84476 0.62689
 H147 H 0.44977 0.74719 0.65668
 H148 H 0.40993 0.76994 0.62064
 C149 C 0.97330 0.72203 0.37612
 C150 C 0.97257 0.74785 0.35430
 C151 C 0.99632 0.77122 0.35441
 C152 C 1.02148 0.76960 0.37656
 C153 C 1.02198 0.74370 0.39852
 C154 C 0.99831 0.72024 0.39820
 C155 C 0.94810 0.69705 0.37582
 C156 C 0.93683 0.68361 0.40458
 C157 C 0.91329 0.66003 0.40426
 C158 C 0.90032 0.64948 0.37521
 C159 C 0.91144 0.66297 0.34647
 C160 C 0.93513 0.68639 0.34675
 H161 H 0.99447 0.79062 0.33718
 H162 H 1.04076 0.74101 0.41590
 H163 H 0.90526 0.64989 0.42673
 H164 H 0.90169 0.65540 0.32376
 H165 H 0.99991 0.70038 0.41502
 H166 H 0.94596 0.69157 0.42741
 H167 H 0.95334 0.75030 0.33732
 H168 H 0.94354 0.69586 0.32414
 C169 C 0.52821 0.27659 -0.12370
 C170 C 0.53118 0.24884 -0.14250
 C171 C 0.50773 0.22515 -0.14206
 C172 C 0.48070 0.22867 -0.12282
 C173 C 0.47777 0.25648 -0.10403
 C174 C 0.50123 0.28014 -0.10447
 C175 C 0.55313 0.30177 -0.12412
 C176 C 0.56247 0.31692 -0.09565
 C177 C 0.58581 0.34069 -0.09604
 C178 C 0.60030 0.34984 -0.12488
 C179 C 0.59106 0.33470 -0.15334
 C180 C 0.56771 0.31091 -0.15298
 H181 H 0.51104 0.20398 -0.15661
 H182 H 0.45721 0.26031 -0.08919
 H183 H 0.59251 0.35212 -0.07383
 H184 H 0.60205 0.34125 -0.17582
 H185 H 0.49802 0.30149 -0.09009
 H186 H 0.55197 0.31014 -0.07299
 H187 H 0.55191 0.24519 -0.15722
 H188 H 0.56079 0.29995 -0.17535
 C189 C 0.12468 0.02793 0.22269
 C190 C 0.10571 0.00035 0.21984
 C191 C 0.10577 -0.02329 0.24378
 C192 C 0.12483 -0.01992 0.27115
 C193 C 0.14379 0.00772 0.27398
 C194 C 0.14371 0.03135 0.25004
 C195 C 0.12459 0.05307 0.19727
 C196 C 0.15290 0.06809 0.18786
 C197 C 0.15278 0.09187 0.16408
 C198 C 0.12437 0.10115 0.14922
 C199 C 0.09609 0.08607 0.15847
 C200 C 0.09619 0.06230 0.18226
 H201 H 0.09112 -0.04434 0.24053
 H202 H 0.15850 0.01140 0.29482
 H203 H 0.17484 0.10325 0.15740
 H204 H 0.07394 0.09271 0.14720
 H205 H 0.15821 0.05257 0.25318
 H206 H 0.17522 0.06124 0.19868
 H207 H 0.09114 -0.00322 0.19884
 H208 H 0.07395 0.05144 0.18921
 C209 C 0.62459 0.47206 -0.22368
 C210 C 0.64591 0.47033 -0.24932
 C211 C 0.64618 0.49409 -0.27312
 C212 C 0.62496 0.52029 -0.27210
 C213 C 0.60350 0.52179 -0.24636
 C214 C 0.60341 0.49808 -0.22249
 C215 C 0.62453 0.44686 -0.19825
 C216 C 0.59594 0.43612 -0.18476
 C217 C 0.59593 0.41249 -0.16083
 C218 C 0.62446 0.39892 -0.14995
 C219 C 0.65302 0.40956 -0.16345
 C220 C 0.65307 0.43332 -0.18725
 H221 H 0.66301 0.49146 -0.29235
 H222 H 0.58682 0.54137 -0.24414
 H223 H 0.57361 0.40485 -0.15067
 H224 H 0.67532 0.39936 -0.15562
 H225 H 0.58699 0.50043 -0.20279
 H226 H 0.57352 0.44572 -0.19295
 H227 H 0.66220 0.45031 -0.25128
 H228 H 0.67553 0.44134 -0.19677
 C229 C 0.37469 0.97256 0.72294
 C230 C 0.40317 0.98359 0.73618
 C231 C 0.40295 1.00752 0.75954
 C232 C 0.37420 1.02023 0.77058
 C233 C 0.34570 1.00890 0.75754
 C234 C 0.34597 0.98552 0.73363
 C235 C 0.37494 0.94754 0.69803
 C236 C 0.36033 0.95322 0.66840
 C237 C 0.36085 0.92967 0.64468
 C238 C 0.37532 0.89961 0.65038
 C239 C 0.38963 0.89399 0.68036
 C240 C 0.38976 0.91786 0.70377
 H241 H 0.42523 1.01571 0.76935
 H242 H 0.32323 1.01846 0.76547
 H243 H 0.35003 0.93507 0.62178
 H244 H 0.40058 0.87104 0.68581
 H245 H 0.32375 0.97722 0.72374
 H246 H 0.34897 0.97611 0.66346
 H247 H 0.42558 0.97393 0.72814
 H248 H 0.40097 0.91298 0.72662
 C249 C 0.87575 0.52797 0.27730
 C250 C 0.89480 0.50036 0.28020
 C251 C 0.89472 0.47692 0.25635
 C252 C 0.87555 0.48051 0.22904
 C253 C 0.85651 0.50814 0.22616
 C254 C 0.85663 0.53159 0.24998
 C255 C 0.87580 0.55290 0.30263
 C256 C 0.84747 0.56793 0.31188
 C257 C 0.84754 0.59153 0.33555
 C258 C 0.87590 0.60060 0.35050
 C259 C 0.90420 0.58552 0.34139
 C260 C 0.90417 0.56194 0.31769
 H261 H 0.90943 0.45583 0.25961
 H262 H 0.84174 0.51197 0.20534
 H263 H 0.82545 0.60291 0.34211
 H264 H 0.92631 0.59200 0.35273
 H265 H 0.84207 0.55283 0.24678
 H266 H 0.82518 0.56121 0.30105
 H267 H 0.90944 0.49663 0.30117
 H268 H 0.92642 0.55109 0.31085
 C269 C 0.22027 0.12700 0.02752
 C270 C 0.21694 0.10800 0.00004
 C271 C 0.24019 0.10821 -0.02369
 C272 C 0.26738 0.12741 -0.02050
 C273 C 0.27064 0.14645 0.00702
 C274 C 0.24737 0.14626 0.03072
 C275 C 0.19559 0.12672 0.05275
 C276 C 0.18634 0.15545 0.06771
 C277 C 0.16302 0.15518 0.09135
 C278 C 0.14847 0.12620 0.10053
 C279 C 0.15777 0.09746 0.08571
 C280 C 0.18106 0.09771 0.06205
 H281 H 0.23657 0.09348 -0.04461
 H282 H 0.29132 0.16130 0.01059
 H283 H 0.15634 0.17758 0.10259
 H284 H 0.14679 0.07486 0.09235
 H285 H 0.25084 0.16082 0.05183
 H286 H 0.19685 0.17822 0.06084
 H287 H 0.19610 0.09328 -0.00335
 H288 H 0.18795 0.07514 0.05125
 C289 C 0.77833 0.62532 0.47064
 C290 C 0.75136 0.64482 0.46707
 C291 C 0.72770 0.64478 0.49038
 C292 C 0.73044 0.62524 0.51783
 C293 C 0.75745 0.60576 0.52137
 C294 C 0.78110 0.60581 0.49807
 C295 C 0.80346 0.62529 0.44586
 C296 C 0.81818 0.59636 0.43686
 C297 C 0.84189 0.59633 0.41363
 C298 C 0.85141 0.62520 0.39891
 C299 C 0.83671 0.65411 0.40781
 C300 C 0.81298 0.65417 0.43104
 H301 H 0.70713 0.65983 0.48659
 H302 H 0.76066 0.59069 0.54231
 H303 H 0.85297 0.57377 0.40721
 H304 H 0.84355 0.67662 0.39662
 H305 H 0.80183 0.59091 0.50177
 H306 H 0.81111 0.57368 0.44754
 H307 H 0.74831 0.65977 0.44598
 H308 H 0.80235 0.67688 0.43769
 C309 C 0.72103 0.37424 -0.02811
 C310 C 0.71810 0.39362 -0.00086
 C311 C 0.74162 0.39356 0.02267
 C312 C 0.76866 0.37409 0.01952
 C313 C 0.77156 0.35470 -0.00778
 C314 C 0.74803 0.35478 -0.03130
 C315 C 0.69603 0.37429 -0.05311
 C316 C 0.68668 0.34542 -0.06772
 C317 C 0.66322 0.34548 -0.09129
 C318 C 0.64862 0.37439 -0.10077
 C319 C 0.65786 0.40324 -0.08614
 C320 C 0.68133 0.40321 -0.06257
 H321 H 0.73832 0.40854 0.04347
 H322 H 0.79215 0.33968 -0.01130
 H323 H 0.65653 0.32297 -0.10232
 H324 H 0.64679 0.42578 -0.09295
 H325 H 0.75121 0.33995 -0.05227
 H326 H 0.69727 0.32271 -0.06068
 H327 H 0.69736 0.40852 0.00253
 H328 H 0.68824 0.42588 -0.05202
 C329 C 0.27815 0.87260 0.52986
 C330 C 0.28175 0.89093 0.50175
 C331 C 0.25824 0.89100 0.47823
 C332 C 0.23058 0.87266 0.48220
 C333 C 0.22701 0.85429 0.51034
 C334 C 0.25049 0.85434 0.53393
 C335 C 0.30319 0.87260 0.55478
 C336 C 0.29528 0.87427 0.58740
 C337 C 0.31896 0.87493 0.61076
 C338 C 0.35096 0.87387 0.60195
 C339 C 0.35890 0.87172 0.56947
 C340 C 0.33527 0.87120 0.54610
 H341 H 0.26197 0.90527 0.45684
 H342 H 0.20597 0.84005 0.51435
 H343 H 0.31242 0.87632 0.63574
 H344 H 0.38347 0.87082 0.56226
 H345 H 0.24717 0.83975 0.55522
 H346 H 0.27079 0.87563 0.59480
 H347 H 0.30265 0.90554 0.49809
 H348 H 0.34208 0.86946 0.52121
   
