data_POSCAR
  _audit_creation_date              2014-09-24
  _audit_creation_method            'ToBaCCo'
  _symmetry_space_group_name_H-M    'P1'
  _symmetry_Int_Tables_number       1
  _symmetry_cell_setting            triclinic
  loop_
  _symmetry_equiv_pos_as_xyz
 x,y,z
_cell_length_a 23.1232
_cell_length_b 23.2002
_cell_length_c 22.7685
_cell_angle_alpha 90.261400
_cell_angle_beta 90.813000
_cell_angle_gamma 90.110700
loop_
  _atom_site_label
  _atom_site_type_symbol
  _atom_site_fract_x
  _atom_site_fract_y
  _atom_site_fract_z
N1 N 0.16795 1.28425 0.08265
 N2 N 0.12297 1.27205 0.11555
 C3 C 0.08192 1.31242 0.10627
 C4 C 0.10259 1.35144 0.06563
 C5 C 0.15699 1.33207 0.05150
 H6 H 0.04094 1.31412 0.12853
 H7 H 0.18682 1.35176 0.02136
 Cu8 Cu 0.12342 1.20796 0.17316
 Cu9 Cu 0.23911 1.23893 0.08286
 Cu10 Cu 0.25276 1.14413 0.19106
 N11 N 0.14287 1.16295 0.24320
 N12 N 0.19604 1.14487 0.25281
 C13 C 0.20022 1.12274 0.30706
 C14 C 0.14610 1.12443 0.33182
 C15 C 0.11024 1.14945 0.28990
 H16 H 0.23900 1.10398 0.32593
 H17 H 0.06488 1.15977 0.29416
 N18 N 0.29426 1.13412 0.11805
 N19 N 0.28972 1.17237 0.07584
 C20 C 0.32457 1.15724 0.03159
 C21 C 0.35186 1.10640 0.04672
 C22 C 0.33175 1.09284 0.10191
 H23 H 0.32986 1.18158 -0.00841
 H24 H 0.34433 1.05649 0.12876
 H25 H 0.18588 1.17917 0.11547
 H26 H 0.20728 1.23611 0.16999
 N27 N 0.83895 0.72981 0.16402
 N28 N 0.87517 0.72967 0.20910
 C29 C 0.90735 0.68134 0.20710
 C30 C 0.89043 0.64998 0.15797
 C31 C 0.84700 0.68196 0.13165
 H32 H 0.94246 0.67118 0.23716
 H33 H 0.82460 0.67246 0.09071
 Cu34 Cu 0.88140 0.79630 0.26127
 Cu35 Cu 0.78837 0.79478 0.14695
 Cu36 Cu 0.76830 0.88604 0.26557
 N37 N 0.88289 0.86501 0.31090
 N38 N 0.83811 0.89984 0.31211
 C39 C 0.84973 0.94414 0.34860
 C40 C 0.90496 0.93706 0.37121
 C41 C 0.92491 0.88622 0.34667
 H42 H 0.82039 0.97936 0.35727
 H43 H 0.96692 0.86675 0.35352
 N44 N 0.71525 0.88315 0.19750
 N45 N 0.72388 0.84989 0.15129
 C46 C 0.68268 0.86083 0.11044
 C47 C 0.64685 0.90331 0.13208
 C48 C 0.66861 0.91642 0.18729
 H49 H 0.67963 0.84023 0.06780
 H50 H 0.65284 0.94913 0.21701
 H51 H 0.82192 0.86045 0.20098
 H52 H 0.77879 0.80122 0.23429
 N53 N 0.80748 1.26664 -0.11273
 N54 N 0.84932 1.27988 -0.14876
 C55 C 0.87556 1.32843 -0.12979
 C56 C 0.84839 1.34663 -0.07935
 C57 C 0.80533 1.30661 -0.06974
 H58 H 0.91241 1.34827 -0.15038
 H59 H 0.77598 1.30566 -0.03319
 Cu60 Cu 0.86685 1.23141 -0.21567
 Cu61 Cu 0.76180 1.19667 -0.12249
 Cu62 Cu 0.80354 1.10140 -0.23193
 N63 N 0.89701 1.17417 -0.26917
 N64 N 0.87162 1.12383 -0.27660
 C65 C 0.90059 1.09350 -0.31730
 C66 C 0.94662 1.12678 -0.33591
 C67 C 0.94316 1.17755 -0.30433
 H68 H 0.88908 1.05059 -0.33216
 H69 H 0.97167 1.21442 -0.30726
 N70 N 0.73613 1.08746 -0.18119
 N71 N 0.72110 1.12382 -0.13929
 C72 C 0.67536 1.10232 -0.11097
 C73 C 0.66063 1.05006 -0.13608
 C74 C 0.69981 1.04178 -0.18065
 H75 H 0.65433 1.12298 -0.07440
 H76 H 0.70218 1.00489 -0.20970
 H77 H 0.82872 1.15073 -0.16070
 H78 H 0.77350 1.18241 -0.21173
 N79 N 0.10506 0.73468 -0.10671
 N80 N 0.06939 0.74244 -0.15146
 C81 C 0.02551 0.70437 -0.14801
 C82 C 0.03431 0.67142 -0.09823
 C83 C 0.08496 0.69198 -0.07289
 H84 H -0.00942 0.70022 -0.17988
 H85 H 0.10666 0.67588 -0.03391
 Cu86 Cu 0.08506 0.80046 -0.21070
 Cu87 Cu 0.17653 0.77843 -0.09780
 Cu88 Cu 0.22690 0.82327 -0.23226
 N89 N 0.11233 0.84044 -0.27973
 N90 N 0.16796 0.84333 -0.29068
 C91 C 0.17537 0.86782 -0.34341
 C92 C 0.12166 0.88347 -0.36542
 C93 C 0.08242 0.86571 -0.32383
 H94 H 0.21699 0.87757 -0.36215
 H95 H 0.03589 0.87033 -0.32567
 N96 N 0.27562 0.82222 -0.16011
 N97 N 0.25636 0.80406 -0.10912
 C98 C 0.29803 0.81093 -0.06789
 C99 C 0.34533 0.83598 -0.09386
 C100 C 0.32977 0.84287 -0.15227
 H101 H 0.29311 0.80151 -0.02175
 H102 H 0.35516 0.86309 -0.18601
 H103 H 0.17195 0.84116 -0.16527
 H104 H 0.18050 0.76318 -0.18460
 C105 C 0.50157 0.96558 -0.01936
 C106 C -0.03815 0.50402 1.01651
 C107 C 1.04925 0.03360 0.50068
 N108 N 0.06227 0.47657 0.99179
 N109 N 0.10039 0.43563 1.00366
 C110 C 0.07604 0.40072 1.04353
 C111 C 0.02185 0.42181 1.05618
 N112 N 0.01491 0.46938 1.02303
 H113 H -0.01013 0.40369 1.08510
 N114 N -0.01847 0.53223 1.12036
 N115 N -0.03627 0.57108 1.15896
 C116 C -0.08167 0.59837 1.13389
 C117 C -0.09144 0.57480 1.07905
 N118 N -0.05106 0.53377 1.07202
 H119 H -0.12203 0.58884 1.04567
 N120 N -0.13220 0.45426 1.03143
 N121 N -0.16314 0.41198 1.00721
 C122 C -0.13501 0.39542 0.95850
 C123 C -0.08617 0.42875 0.95346
 N124 N -0.08586 0.46505 0.99966
 H125 H -0.05252 0.42530 0.92106
 N126 N -0.06268 0.55390 0.92271
 N127 N -0.04508 0.59871 0.89166
 C128 C -0.00011 0.62220 0.92158
 C129 C 0.00924 0.59068 0.97183
 N130 N -0.03022 0.54801 0.97077
 H131 H 0.04169 0.59768 1.00586
 N132 N 1.14453 0.07409 0.47534
 N133 N 1.17207 0.09681 0.43051
 C134 C 1.13246 0.10430 0.38737
 C135 C 1.07949 0.08534 0.40710
 N136 N 1.08922 0.06518 0.46196
 H137 H 1.03905 0.08313 0.38268
 N138 N 1.13076 -0.03528 0.50748
 N139 N 1.15208 -0.07470 0.54344
 C140 C 1.11164 -0.08425 0.58413
 C141 C 1.06425 -0.05008 0.57134
 N142 N 1.07865 -0.01844 0.52401
 H143 H 1.02591 -0.04503 0.59737
 N144 N 0.94999 0.04951 0.46287
 N145 N 0.91065 0.02480 0.42830
 C146 C 0.93360 -0.02518 0.40942
 C147 C 0.98852 -0.03044 0.43355
 N148 N 0.99681 0.01687 0.46727
 H149 H 1.01947 -0.06475 0.42705
 N150 N 1.05758 0.12219 0.56189
 N151 N 1.03058 0.14844 0.60543
 C152 C 0.98713 0.11332 0.62150
 C153 C 0.98856 0.06461 0.58681
 N154 N 1.03311 0.07169 0.54991
 H155 H 0.95835 0.02892 0.58627
 N156 N 0.45973 1.05880 -0.05225
 N157 N 0.41987 1.09651 -0.03642
 C158 C 0.39562 1.07574 0.01262
 C159 C 0.42138 1.02386 0.02607
 N160 N 0.46194 1.01516 -0.01490
 H161 H 0.41240 0.99568 0.06261
 N162 N 0.55296 0.94203 -0.11243
 N163 N 0.59584 0.96312 -0.14418
 C164 C 0.61382 1.01185 -0.11691
 C165 C 0.58103 1.01981 -0.06776
 N166 N 0.54322 0.97585 -0.06654
 H167 H 0.58451 1.05393 -0.03530
 N168 N 0.45824 0.87195 0.00730
 N169 N 0.41623 0.83704 -0.01087
 C170 C 0.39744 0.85718 -0.06313
 C171 C 0.42922 0.90562 -0.07650
 N172 N 0.46683 0.91350 -0.03139
 H173 H 0.42236 0.93504 -0.11270
 N174 N 0.53073 0.99228 0.08294
 N175 N 0.56886 0.97676 0.12383
 C176 C 0.59835 0.93175 0.10177
 C177 C 0.57711 0.92006 0.04614
 N178 N 0.53467 0.95858 0.03601
 H179 H 0.59179 0.88772 0.01537
   
