data_POSCAR
  _audit_creation_date              2014-09-24
  _audit_creation_method            'ToBaCCo'
  _symmetry_space_group_name_H-M    'P1'
  _symmetry_Int_Tables_number       1
  _symmetry_cell_setting            triclinic
  loop_
  _symmetry_equiv_pos_as_xyz
 x,y,z
_cell_length_a 29.7479
_cell_length_b 29.7403
_cell_length_c 8.0569
_cell_angle_alpha 89.456500
_cell_angle_beta 90.138800
_cell_angle_gamma 89.872300
loop_
  _atom_site_label
  _atom_site_type_symbol
  _atom_site_fract_x
  _atom_site_fract_y
  _atom_site_fract_z
O1 O 0.19636 0.20559 0.33731
 O2 O 0.28233 0.29075 0.43093
 O3 O 0.19838 0.29405 0.33791
 O4 O 0.27941 0.20377 0.43397
 O5 O 0.29898 0.20257 0.17028
 O6 O 0.21896 0.29380 0.07511
 O7 O 0.30289 0.29024 0.16797
 O8 O 0.21630 0.20624 0.07371
 Cu9 Cu 0.23660 0.24876 0.41073
 Cu10 Cu 0.26148 0.24839 0.09589
 C11 C 0.19217 0.19076 0.19074
 C12 C 0.30770 0.30466 0.31470
 C13 C 0.19501 0.30963 0.19121
 C14 C 0.30284 0.18731 0.31752
 O15 O 0.69894 0.29396 0.16066
 O16 O 0.78108 0.20503 0.07085
 O17 O 0.69673 0.20648 0.15922
 O18 O 0.78316 0.29165 0.07141
 O19 O 0.80109 0.29138 0.33705
 O20 O 0.71552 0.20527 0.42426
 O21 O 0.80016 0.20393 0.33570
 O22 O 0.71700 0.29219 0.42639
 Cu23 Cu 0.73768 0.24941 0.08982
 Cu24 Cu 0.76067 0.24796 0.40668
 C25 C 0.69345 0.30797 0.30756
 C26 C 0.80534 0.18985 0.18868
 C27 C 0.69097 0.19162 0.30580
 C28 C 0.80737 0.30585 0.19009
 O29 O 0.69602 0.70676 0.83712
 O30 O 0.78272 0.79056 0.93169
 O31 O 0.69950 0.79427 0.84013
 O32 O 0.78010 0.70286 0.92673
 O33 O 0.79833 0.70281 0.66176
 O34 O 0.71869 0.79491 0.57564
 O35 O 0.80194 0.79109 0.66731
 O36 O 0.71429 0.70792 0.57192
 Cu37 Cu 0.73750 0.74834 0.90978
 Cu38 Cu 0.76077 0.74906 0.59347
 C39 C 0.68991 0.69329 0.68980
 C40 C 0.80662 0.80585 0.81369
 C41 C 0.69557 0.81049 0.69445
 C42 C 0.80281 0.68680 0.80755
 O43 O 0.29945 0.79248 0.84997
 O44 O 0.21691 0.70340 0.93468
 O45 O 0.30087 0.70494 0.84334
 O46 O 0.21595 0.79072 0.94173
 O47 O 0.19669 0.79320 0.67741
 O48 O 0.28085 0.70673 0.57944
 O49 O 0.19685 0.70499 0.67093
 O50 O 0.27990 0.79377 0.58549
 Cu51 Cu 0.26048 0.74754 0.91838
 Cu52 Cu 0.23612 0.74970 0.60251
 C53 C 0.30372 0.80849 0.70422
 C54 C 0.19276 0.68891 0.81661
 C55 C 0.30569 0.69143 0.69545
 C56 C 0.19217 0.80728 0.82483
 O57 O 1.04309 -0.05423 0.09407
 O58 O 0.95635 0.03094 0.17970
 O59 O 0.95490 -0.05313 0.08938
 O60 O 1.04350 0.02938 0.18215
 O61 O 1.04421 0.04900 -0.08274
 O62 O 0.95629 -0.03366 -0.17543
 O63 O 0.95671 0.05013 -0.08548
 O64 O 1.04358 -0.03451 -0.17074
 Cu65 Cu 0.99920 -0.01419 0.16228
 Cu66 Cu 1.00015 0.00992 -0.15452
 C67 C 1.05859 -0.05851 -0.05162
 C68 C 0.94196 0.05541 0.06075
 C69 C 0.94043 -0.05751 -0.05797
 C70 C 1.05913 0.05322 0.06401
 O71 O 0.54367 0.44807 0.58616
 O72 O 0.45540 0.53128 0.67704
 O73 O 0.45619 0.44690 0.59076
 O74 O 0.54215 0.53211 0.67650
 O75 O 0.54126 0.55188 0.41179
 O76 O 0.45582 0.46561 0.32513
 O77 O 0.45397 0.55003 0.41146
 O78 O 0.54278 0.46784 0.32148
 Cu79 Cu 0.49946 0.48727 0.65848
 Cu80 Cu 0.49834 0.51106 0.34153
 C81 C 0.55803 0.44343 0.43898
 C82 C 0.43997 0.55532 0.55865
 C83 C 0.44165 0.44121 0.44429
 C84 C 0.55590 0.55710 0.55854
 O85 O -0.04907 0.54764 0.08078
 O86 O 0.04248 0.46779 0.17607
 O87 O 0.03925 0.55093 0.08226
 O88 O -0.04448 0.46363 0.17566
 O89 O -0.04439 0.44479 -0.08865
 O90 O 0.04053 0.53122 -0.18110
 O91 O 0.04320 0.44808 -0.08737
 O92 O -0.04712 0.52887 -0.18330
 Cu93 Cu -0.00332 0.50997 0.15436
 Cu94 Cu -0.00210 0.48610 -0.16099
 C95 C -0.06377 0.55193 -0.06657
 C96 C 0.05871 0.44447 0.05909
 C97 C 0.05510 0.55525 -0.06314
 C98 C -0.05848 0.43898 0.05860
 O99 O 0.45535 0.94675 0.42902
 O100 O 0.53953 1.03328 0.32798
 O101 O 0.54369 0.94952 0.42421
 O102 O 0.45256 1.02984 0.33197
 O103 O 0.45224 1.04971 0.59531
 O104 O 0.54371 0.96971 0.68694
 O105 O 0.53979 1.05350 0.59083
 O106 O 0.45612 0.96670 0.69210
 Cu107 Cu 0.49794 0.98733 0.35262
 Cu108 Cu 0.49818 1.01208 0.66719
 C109 C 0.44071 0.94246 0.57623
 C110 C 0.55375 1.05852 0.44304
 C111 C 0.55952 0.94605 0.57023
 C112 C 0.43658 1.05329 0.44900
 C113 C 1.13993 0.12997 0.28736
 C114 C 1.16024 0.15398 0.15734
 C115 C 1.15154 0.13954 -0.00589
 C116 C 1.11941 0.10590 -0.03638
 C117 C 1.09562 0.08557 0.09577
 C118 C 1.10863 0.09648 0.25744
 C119 C 1.08084 0.10945 0.40350
 C120 C 1.11511 0.14623 0.43613
 H121 H 1.16807 0.15546 -0.11059
 H122 H 1.11214 0.09701 -0.16368
 H123 H 1.08063 0.08282 0.50127
 H124 H 1.04714 0.12259 0.36734
 H125 H 1.13453 0.14075 0.55267
 H126 H 1.10133 0.18075 0.41865
 C127 C 0.64028 0.65061 0.49459
 C128 C 0.65351 0.66094 0.65665
 C129 C 0.62954 0.64051 0.78819
 C130 C 0.59729 0.60708 0.75672
 C131 C 0.58794 0.59363 0.59288
 C132 C 0.60813 0.61798 0.46358
 C133 C 0.63234 0.60177 0.31338
 C134 C 0.66758 0.63753 0.34742
 H135 H 0.63703 0.64883 0.91584
 H136 H 0.58076 0.59090 0.86088
 H137 H 0.61288 0.60821 0.19759
 H138 H 0.64524 0.56684 0.32854
 H139 H 0.66837 0.66451 0.25103
 H140 H 0.70095 0.62336 0.38234
 C141 C -0.14666 0.34949 -0.00360
 C142 C -0.15794 0.33654 0.15880
 C143 C -0.13122 0.35392 0.28884
 C144 C -0.09828 0.38679 0.25660
 C145 C -0.09075 0.40259 0.09356
 C146 C -0.11370 0.38128 -0.03535
 C147 C -0.13920 0.40086 -0.17872
 C148 C -0.17539 0.36600 -0.14381
 H149 H -0.13688 0.34368 0.41648
 H150 H -0.07970 0.40069 0.35982
 H151 H -0.12163 0.39553 -0.29860
 H152 H -0.15042 0.43598 -0.15635
 H153 H -0.17863 0.34068 -0.24374
 H154 H -0.20764 0.38088 -0.10103
 C155 C 0.34645 0.85922 0.51203
 C156 C 0.33608 0.84514 0.67357
 C157 C 0.35681 0.86807 0.80586
 C158 C 0.39030 0.90051 0.77495
 C159 C 0.40415 0.91028 0.61118
 C160 C 0.37976 0.89074 0.48170
 C161 C 0.39550 0.86697 0.33006
 C162 C 0.35891 0.83241 0.36322
 H163 H 0.34832 0.85992 0.93325
 H164 H 0.40656 0.91642 0.87941
 H165 H 0.43008 0.85312 0.34400
 H166 H 0.38958 0.88716 0.21523
 H167 H 0.37222 0.79851 0.39624
 H168 H 0.33193 0.83278 0.26747
 C169 C -0.15971 0.63379 -0.00382
 C170 C -0.16765 0.65075 -0.16420
 C171 C -0.14530 0.62925 -0.29666
 C172 C -0.11272 0.59573 -0.26570
 C173 C -0.10112 0.58339 -0.10168
 C174 C -0.12711 0.60131 0.02655
 C175 C -0.11357 0.62205 0.18704
 C176 C -0.14934 0.65768 0.15402
 H177 H -0.15163 0.63933 -0.42415
 H178 H -0.09499 0.58136 -0.36987
 H179 H -0.07876 0.63559 0.18443
 H180 H -0.12143 0.59999 0.29521
 H181 H -0.13527 0.69186 0.13245
 H182 H -0.17774 0.65608 0.24329
 C183 C 0.35539 1.12988 0.22179
 C184 C 0.33245 1.15157 0.35044
 C185 C 0.33958 1.13490 0.51343
 C186 C 0.37271 1.10199 0.54566
 C187 C 0.39890 1.08438 0.41559
 C188 C 0.38732 1.09688 0.25333
 C189 C 0.41621 1.11212 0.11248
 C190 C 0.38122 1.14842 0.07791
 H191 H 0.32141 1.14881 0.61746
 H192 H 0.37891 1.09163 0.67293
 H193 H 0.41821 1.08661 0.01279
 H194 H 0.44911 1.12566 0.15448
 H195 H 0.36320 1.14377 -0.04175
 H196 H 0.39380 1.18303 0.10009
 C197 C 1.13890 -0.13578 -0.27297
 C198 C 1.16166 -0.15793 -0.14305
 C199 C 1.15401 -0.14214 0.01952
 C200 C 1.12090 -0.10924 0.04972
 C201 C 1.09523 -0.09083 -0.08198
 C202 C 1.10701 -0.10283 -0.24344
 C203 C 1.07823 -0.11763 -0.38472
 C204 C 1.11320 -0.15388 -0.41706
 H205 H 1.17203 -0.15645 0.12448
 H206 H 1.11456 -0.09926 0.17647
 H207 H 1.07636 -0.09183 -0.48529
 H208 H 1.04527 -0.13123 -0.34331
 H209 H 1.13134 -0.14893 -0.53629
 H210 H 1.10055 -0.18855 -0.39415
 C211 C 0.64466 0.35153 0.50187
 C212 C 0.65813 0.34165 0.33991
 C213 C 0.63427 0.36244 0.20822
 C214 C 0.60147 0.39544 0.23979
 C215 C 0.59149 0.40812 0.40387
 C216 C 0.61206 0.38378 0.53296
 C217 C 0.63608 0.40009 0.68367
 C218 C 0.67183 0.36474 0.64957
 H219 H 0.64191 0.35436 0.08059
 H220 H 0.58476 0.41167 0.13567
 H221 H 0.61677 0.39333 0.79913
 H222 H 0.64847 0.43516 0.66916
 H223 H 0.67307 0.33767 0.74561
 H224 H 0.70499 0.37927 0.61526
 C225 C 0.84848 -0.14361 0.00657
 C226 C 0.83887 -0.15758 -0.15497
 C227 C 0.85878 -0.13339 -0.28718
 C228 C 0.89092 -0.09979 -0.25617
 C229 C 0.90417 -0.08994 -0.09226
 C230 C 0.88055 -0.11091 0.03709
 C231 C 0.89714 -0.13462 0.18957
 C232 C 0.86192 -0.17044 0.15626
 H233 H 0.85058 -0.14129 -0.41463
 H234 H 0.90672 -0.08304 -0.36067
 H235 H 0.89041 -0.11509 0.30384
 H236 H 0.93223 -0.14708 0.17670
 H237 H 0.83492 -0.17143 0.25138
 H238 H 0.87652 -0.20370 0.12432
 C239 C 0.36778 0.35778 0.22077
 C240 C 0.34375 0.33722 0.34996
 C241 C 0.35649 0.34750 0.51396
 C242 C 0.38903 0.38074 0.54500
 C243 C 0.40916 0.40480 0.41280
 C244 C 0.39949 0.39082 0.25128
 C245 C 0.38601 0.41738 0.10098
 C246 C 0.35125 0.38113 0.06742
 H247 H 0.34042 0.33093 0.61828
 H248 H 0.39702 0.38878 0.67250
 H249 H 0.41314 0.41861 0.00640
 H250 H 0.37093 0.45049 0.13215
 H251 H 0.35843 0.36151 -0.04626
 H252 H 0.31599 0.39318 0.07906
 C253 C 0.13952 0.62964 -0.28244
 C254 C 0.16024 0.65246 -0.15165
 C255 C 0.14994 0.63830 0.01144
 C256 C 0.11606 0.60623 0.04050
 C257 C 0.09209 0.58722 -0.09293
 C258 C 0.10658 0.59757 -0.25384
 C259 C 0.08026 0.61192 -0.40325
 C260 C 0.11635 0.64714 -0.43451
 H261 H 0.16647 0.65344 0.11690
 H262 H 0.10777 0.59741 0.16750
 H263 H 0.04700 0.62654 -0.37106
 H264 H 0.07938 0.58541 -0.49957
 H265 H 0.10402 0.68222 -0.42028
 H266 H 0.13615 0.64088 -0.54885
 C267 C 0.64028 1.14989 0.50091
 C268 C 0.65427 1.15945 0.33873
 C269 C 0.62994 1.13961 0.20777
 C270 C 0.59645 1.10731 0.24075
 C271 C 0.58624 1.09457 0.40545
 C272 C 0.60703 1.11844 0.53331
 C273 C 0.63025 1.10177 0.68651
 C274 C 0.66675 1.13625 0.65087
 H275 H 0.63798 1.14758 0.07984
 H276 H 0.57970 1.09136 0.13741
 H277 H 0.64203 1.06641 0.67560
 H278 H 0.61071 1.10914 0.80052
 H279 H 0.69972 1.12090 0.61917
 H280 H 0.66821 1.16342 0.74458
 C281 C 0.14266 0.37040 0.28531
 C282 C 0.16363 0.34709 0.15636
 C283 C 0.15451 0.36161 -0.00751
 C284 C 0.12119 0.39432 -0.03945
 C285 C 0.09664 0.41357 0.09189
 C286 C 0.11026 0.40302 0.25395
 C287 C 0.08319 0.38933 0.40173
 C288 C 0.11867 0.35350 0.43600
 H289 H 0.17132 0.34613 -0.11154
 H290 H 0.11347 0.40311 -0.16713
 H291 H 0.04985 0.37528 0.36746
 H292 H 0.08233 0.41596 0.49758
 H293 H 0.10592 0.31863 0.42141
 H294 H 0.13813 0.35951 0.55160
 C295 C 0.65372 0.86255 0.50280
 C296 C 0.66444 0.84838 0.66416
 C297 C 0.64496 0.87218 0.79679
 C298 C 0.61191 0.90530 0.76666
 C299 C 0.59728 0.91492 0.60339
 C300 C 0.62079 0.89473 0.47323
 C301 C 0.60417 0.87120 0.32217
 C302 C 0.64034 0.83594 0.35453
 H303 H 0.65382 0.86399 0.92399
 H304 H 0.59626 0.92154 0.87155
 H305 H 0.61001 0.89120 0.20701
 H306 H 0.56944 0.85802 0.33715
 H307 H 0.66699 0.83573 0.25803
 H308 H 0.62662 0.80231 0.38814
 C309 C 0.86559 0.13671 0.28383
 C310 C 0.84119 0.15692 0.15424
 C311 C 0.85447 0.14726 -0.00956
 C312 C 0.88798 0.11489 -0.04026
 C313 C 0.90866 0.09115 0.09208
 C314 C 0.89828 0.10451 0.25364
 C315 C 0.88531 0.07731 0.40261
 C316 C 0.84946 0.11264 0.43577
 H317 H 0.83826 0.16379 -0.11410
 H318 H 0.89637 0.10730 -0.16768
 H319 H 0.91230 0.07653 0.49827
 H320 H 0.87123 0.04394 0.36980
 H321 H 0.85587 0.13217 0.55034
 H322 H 0.81458 0.09979 0.42228
 C323 C 0.36543 0.63725 0.78661
 C324 C 0.34131 0.65846 0.65847
 C325 C 0.35386 0.64883 0.49392
 C326 C 0.38643 0.61565 0.46111
 C327 C 0.40682 0.59108 0.59202
 C328 C 0.39724 0.60433 0.75433
 C329 C 0.38384 0.57705 0.90259
 C330 C 0.34896 0.61316 0.93800
 H331 H 0.33774 0.66595 0.39048
 H332 H 0.39440 0.60823 0.33319
 H333 H 0.41096 0.57531 0.99760
 H334 H 0.36888 0.54413 0.86887
 H335 H 0.35606 0.63220 1.05314
 H336 H 0.31374 0.60123 0.92484
   
