data_POSCAR
  _audit_creation_date              2014-09-24
  _audit_creation_method            'ToBaCCo'
  _symmetry_space_group_name_H-M    'P1'
  _symmetry_Int_Tables_number       1
  _symmetry_cell_setting            triclinic
  loop_
  _symmetry_equiv_pos_as_xyz
 x,y,z
_cell_length_a 44.5485
_cell_length_b 44.6533
_cell_length_c 15.9220
_cell_angle_alpha 89.965700
_cell_angle_beta 89.982100
_cell_angle_gamma 120.010800
loop_
  _atom_site_label
  _atom_site_type_symbol
  _atom_site_fract_x
  _atom_site_fract_y
  _atom_site_fract_z
C1 C 0.18665 0.50137 0.42434
 C2 C 0.17109 0.50089 0.50095
 C3 C 0.18656 0.50107 0.57747
 C4 C 0.21870 0.50188 0.57828
 C5 C 0.23483 0.50240 0.50089
 C6 C 0.21878 0.50214 0.42350
 C7 C 0.23522 0.50252 0.34770
 C8 C 0.26672 0.50303 0.34771
 C9 C 0.28296 0.50320 0.42347
 C10 C 0.26698 0.50297 0.50086
 C11 C 0.23507 0.50206 0.65404
 C12 C 0.26661 0.50262 0.65398
 C13 C 0.28299 0.50302 0.57815
 C14 C 0.31490 0.50332 0.57697
 C15 C 0.33025 0.50362 0.50035
 C16 C 0.31475 0.50345 0.42420
 H17 H 0.22377 0.50238 0.28761
 H18 H 0.27827 0.50326 0.28770
 H19 H 0.22354 0.50172 0.71417
 H20 H 0.27810 0.50269 0.71396
 H21 H 0.14633 0.50017 0.50102
 H22 H 0.35466 0.50362 0.49977
 C23 C 0.49577 -0.18997 0.57594
 C24 C 0.49587 -0.17459 0.49966
 C25 C 0.49590 -0.18979 0.42325
 C26 C 0.49561 -0.22153 0.42202
 C27 C 0.49544 -0.23757 0.49922
 C28 C 0.49554 -0.22171 0.57668
 C29 C 0.49556 -0.23788 0.65236
 C30 C 0.49562 -0.26906 0.65216
 C31 C 0.49564 -0.28517 0.57622
 C32 C 0.49547 -0.26932 0.49894
 C33 C 0.49565 -0.23752 0.34607
 C34 C 0.49564 -0.26873 0.34573
 C35 C 0.49562 -0.28503 0.42139
 C36 C 0.49591 -0.31655 0.42209
 C37 C 0.49600 -0.33185 0.49846
 C38 C 0.49598 -0.31665 0.57499
 H39 H 0.49559 -0.22649 0.71239
 H40 H 0.49569 -0.28047 0.71213
 H41 H 0.49572 -0.22597 0.28620
 H42 H 0.49571 -0.28000 0.28558
 H43 H 0.49626 -0.15007 0.49976
 H44 H 0.49642 -0.35601 0.49833
 C45 C 1.18741 0.68648 0.57844
 C46 C 1.17203 0.67141 0.50175
 C47 C 1.18764 0.68667 0.42544
 C48 C 1.21969 0.71790 0.42471
 C49 C 1.23570 0.73355 0.50206
 C50 C 1.21952 0.71782 0.57941
 C51 C 1.23582 0.73391 0.65519
 C52 C 1.26730 0.76488 0.65516
 C53 C 1.28370 0.78094 0.57935
 C54 C 1.26782 0.76510 0.50200
 C55 C 1.23606 0.73390 0.34891
 C56 C 1.26756 0.76484 0.34882
 C57 C 1.28386 0.78091 0.42458
 C58 C 1.31572 0.81246 0.42547
 C59 C 1.33105 0.82767 0.50193
 C60 C 1.31552 0.81251 0.57835
 H61 H 1.22427 0.72265 0.71525
 H62 H 1.27873 0.77623 0.71520
 H63 H 1.22457 0.72262 0.28888
 H64 H 1.27908 0.77614 0.28875
 H65 H 1.14730 0.64741 0.50127
 H66 H 1.35545 0.85206 0.50195
 C67 C 0.68629 0.49945 0.57954
 C68 C 0.67104 0.49962 0.50295
 C69 C 0.68615 0.49915 0.42651
 C70 C 0.71746 0.49841 0.42571
 C71 C 0.73325 0.49814 0.50304
 C72 C 0.71763 0.49864 0.58042
 C73 C 0.73382 0.49845 0.65617
 C74 C 0.76482 0.49790 0.65604
 C75 C 0.78079 0.49753 0.58018
 C76 C 0.76482 0.49759 0.50292
 C77 C 0.73343 0.49805 0.34986
 C78 C 0.76444 0.49757 0.34974
 C79 C 0.78055 0.49738 0.42546
 C80 C 0.81209 0.49716 0.42610
 C81 C 0.82745 0.49698 0.50220
 C82 C 0.81241 0.49724 0.57888
 H83 H 0.72261 0.49877 0.71629
 H84 H 0.77624 0.49781 0.71600
 H85 H 0.72207 0.49821 0.28987
 H86 H 0.77576 0.49737 0.28969
 H87 H 0.64701 0.50033 0.50266
 H88 H 0.85186 0.49699 0.50155
 C89 C 0.49914 0.18673 0.57801
 C90 C 0.49914 0.17134 0.50170
 C91 C 0.49931 0.18665 0.42511
 C92 C 0.49956 0.21840 0.42402
 C93 C 0.49964 0.23438 0.50122
 C94 C 0.49945 0.21850 0.57864
 C95 C 0.49947 0.23470 0.65432
 C96 C 0.49957 0.26595 0.65413
 C97 C 0.49963 0.28212 0.57821
 C98 C 0.49970 0.26619 0.50100
 C99 C 0.49961 0.23449 0.34810
 C100 C 0.49963 0.26569 0.34785
 C101 C 0.49962 0.28191 0.42350
 C102 C 0.49943 0.31341 0.42396
 C103 C 0.49944 0.32888 0.50015
 C104 C 0.49951 0.31375 0.57697
 H105 H 0.49938 0.22329 0.71441
 H106 H 0.49955 0.27736 0.71411
 H107 H 0.49959 0.22302 0.28819
 H108 H 0.49962 0.27701 0.28771
 H109 H 0.49880 0.14685 0.50194
 H110 H 0.49919 0.35309 0.49946
 C111 C 0.81119 0.31448 0.57865
 C112 C 0.82647 0.33004 0.50243
 C113 C 0.81148 0.31467 0.42593
 C114 C 0.78008 0.28277 0.42474
 C115 C 0.76415 0.26667 0.50197
 C116 C 0.77977 0.28261 0.57939
 C117 C 0.76370 0.26623 0.65508
 C118 C 0.73281 0.23464 0.65491
 C119 C 0.71691 0.21827 0.57899
 C120 C 0.73274 0.23448 0.50175
 C121 C 0.76431 0.26650 0.34883
 C122 C 0.73346 0.23489 0.34858
 C123 C 0.71732 0.21845 0.42425
 C124 C 0.68619 0.18631 0.42473
 C125 C 0.67083 0.17066 0.50094
 C126 C 0.68568 0.18608 0.57775
 H127 H 0.77493 0.27775 0.71513
 H128 H 0.72147 0.22307 0.71490
 H129 H 0.77576 0.27811 0.28895
 H130 H 0.72235 0.22338 0.28845
 H131 H 0.85076 0.35447 0.50266
 H132 H 0.64690 0.14588 0.50027
 O133 O 0.95302 0.52736 -0.15746
 O134 O 0.91439 0.48214 -0.07516
 C135 C 0.92186 0.50415 -0.13576
 O136 O 1.04931 0.47068 -0.14850
 O137 O 1.08792 0.51794 -0.07162
 C138 C 1.08045 0.49434 -0.12813
 O139 O 0.95213 0.42495 -0.15323
 O140 O 0.91359 0.43249 -0.07248
 C141 C 0.92100 0.41743 -0.13191
 O142 O 1.04951 0.57857 -0.14946
 O143 O 1.08802 0.56990 -0.07199
 C144 C 1.08064 0.58602 -0.12888
 Zr145 Zr 1.00118 0.53871 -0.10488
 O146 O 1.00257 0.54423 -0.23691
 O147 O 0.99988 0.58504 -0.08949
 Zr148 Zr 1.00097 0.46264 -0.10484
 O149 O 1.00401 0.46248 -0.23751
 O150 O 0.99728 0.41351 -0.09941
 O151 O 0.97047 0.48540 -0.12177
 O152 O 1.03098 0.51555 -0.12073
 O153 O 1.04944 0.57896 0.14821
 O154 O 1.08799 0.56990 0.07188
 C155 C 1.08056 0.58621 0.12804
 O156 O 0.95294 0.42577 0.15745
 O157 O 0.91436 0.43268 0.07574
 C158 C 0.92181 0.41801 0.13607
 O159 O 1.04982 0.47162 0.14955
 O160 O 1.08840 0.51869 0.07181
 C161 C 1.08097 0.49527 0.12893
 O162 O 0.95281 0.52819 0.15566
 O163 O 0.91437 0.48235 0.07503
 C164 C 0.92174 0.50466 0.13467
 Zr165 Zr 1.00102 0.53872 0.10524
 O166 O 1.00453 0.54258 0.23776
 O167 O 0.99759 0.58429 0.09832
 Zr168 Zr 1.00116 0.46281 0.10564
 O169 O 1.00457 0.46142 0.23792
 O170 O 0.99739 0.41368 0.09735
 Zr171 Zr 0.94912 0.47476 0.00030
 Zr172 Zr 1.05305 0.52656 0.00016
 O173 O 1.03091 0.51567 0.12121
 O174 O 0.97042 0.48546 0.12233
 O175 O 1.03253 0.56011 0.00004
 O176 O 0.97050 0.44207 0.00062
 O177 O 0.97035 0.52875 -0.00004
 O178 O 1.03243 0.47251 0.00034
 H179 H 1.04609 0.52303 -0.17104
 H180 H 0.95445 0.41673 0.00099
 H181 H 1.04590 0.52323 0.17169
 H182 H 0.95426 0.53803 -0.00039
 H183 H 1.01844 0.41651 -0.07146
 H184 H 1.01976 0.41721 0.07577
 H185 H 0.99051 0.47092 0.26128
 H186 H 0.98779 0.51961 0.26083
 H187 H 1.01818 0.60183 0.06726
 H188 H 0.99914 0.59319 -0.14691
 H189 H 1.00406 0.52457 -0.26049
 H190 H 0.98625 0.46747 -0.25990
 O191 O 0.52749 0.57504 -0.15813
 O192 O 0.48191 0.56825 -0.07668
 C193 C 0.50414 0.58285 -0.13690
 O194 O 0.47082 0.42237 -0.15180
 O195 O 0.51809 0.43106 -0.07461
 C196 C 0.49451 0.41494 -0.13134
 O197 O 0.42490 0.47308 -0.15826
 O198 O 0.43213 0.51874 -0.07718
 C199 C 0.41729 0.49653 -0.13716
 O200 O 0.57884 0.52985 -0.14878
 O201 O 0.56977 0.48239 -0.07198
 C202 C 0.58617 0.50610 -0.12825
 Zr203 Zr 0.53877 0.53831 -0.10536
 O204 O 0.54512 0.54325 -0.23716
 O205 O 0.58514 0.58586 -0.08839
 Zr206 Zr 0.46249 0.46236 -0.10783
 O207 O 0.46290 0.45965 -0.24052
 O208 O 0.41322 0.41691 -0.10295
 O209 O 0.48541 0.51568 -0.12359
 O210 O 0.51558 0.48546 -0.12249
 O211 O 0.57786 0.52913 0.14850
 O212 O 0.56886 0.48170 0.07197
 C213 C 0.58508 0.50528 0.12858
 O214 O 0.42444 0.47264 0.15356
 O215 O 0.43179 0.51843 0.07261
 C216 C 0.41686 0.49612 0.13241
 O217 O 0.46993 0.42160 0.14644
 O218 O 0.51752 0.43057 0.07016
 C219 C 0.49372 0.41427 0.12633
 O220 O 0.52702 0.57491 0.15530
 O221 O 0.48149 0.56797 0.07365
 C222 C 0.50360 0.58261 0.13400
 Zr223 Zr 0.53792 0.53762 0.10432
 O224 O 0.54161 0.53793 0.23684
 O225 O 0.58366 0.58660 0.09808
 Zr226 Zr 0.46167 0.46162 0.10245
 O227 O 0.45975 0.45637 0.23466
 O228 O 0.41239 0.41639 0.09253
 Zr229 Zr 0.47420 0.52600 -0.00177
 Zr230 Zr 0.52605 0.47393 -0.00156
 O231 O 0.51459 0.48468 0.11932
 O232 O 0.48445 0.51489 0.12024
 O233 O 0.55978 0.52795 -0.00036
 O234 O 0.44141 0.47196 -0.00284
 O235 O 0.52835 0.55874 -0.00068
 O236 O 0.47188 0.44045 -0.00275
 H237 H 0.52330 0.47807 -0.17272
 H238 H 0.41602 0.46265 -0.00314
 H239 H 0.52184 0.47709 0.17003
 H240 H 0.53766 0.58407 -0.00056
 H241 H 0.41625 0.39852 -0.07663
 H242 H 0.41592 0.39765 0.07058
 H243 H 0.46895 0.47978 0.25847
 H244 H 0.51830 0.53065 0.25955
 H245 H 0.60153 0.58348 0.06885
 H246 H 0.59363 0.59494 -0.14553
 H247 H 0.52619 0.52179 -0.26169
 H248 H 0.46890 0.48272 -0.26249
 O249 O 0.52730 -0.04820 0.15541
 O250 O 0.48154 -0.08676 0.07442
 C251 C 0.50389 -0.07928 0.13419
 O252 O 0.47067 0.04812 0.15119
 O253 O 0.51768 0.08661 0.07310
 C254 C 0.49425 0.07919 0.13030
 O255 O 0.42487 -0.04835 0.15789
 O256 O 0.43184 -0.08683 0.07624
 C257 C 0.41719 -0.07940 0.13669
 O258 O 0.57860 0.04811 0.14720
 O259 O 0.56930 0.08663 0.07172
 C260 C 0.58580 0.07918 0.12741
 Zr261 Zr 0.53850 -0.00013 0.10327
 O262 O 0.54488 0.00088 0.23501
 O263 O 0.58486 -0.00135 0.08531
 Zr264 Zr 0.46231 -0.00016 0.10702
 O265 O 0.46292 0.00293 0.23972
 O266 O 0.41304 -0.00386 0.10290
 O267 O 0.48518 -0.03068 0.12208
 O268 O 0.51541 0.02965 0.12106
 O269 O 0.57741 0.04827 -0.15041
 O270 O 0.56862 0.08674 -0.07329
 C271 C 0.58476 0.07935 -0.13013
 O272 O 0.42401 -0.04819 -0.15463
 O273 O 0.43123 -0.08676 -0.07388
 C274 C 0.41635 -0.07926 -0.13357
 O275 O 0.46954 0.04827 -0.14679
 O276 O 0.51730 0.08669 -0.07101
 C277 C 0.49340 0.07932 -0.12674
 O278 O 0.52654 -0.04834 -0.15709
 O279 O 0.48094 -0.08681 -0.07539
 C280 C 0.50310 -0.07940 -0.13567
 Zr281 Zr 0.53733 -0.00013 -0.10652
 O282 O 0.54033 0.00336 -0.23916
 O283 O 0.58308 -0.00348 -0.10227
 Zr284 Zr 0.46116 -0.00010 -0.10306
 O285 O 0.45856 0.00322 -0.23506
 O286 O 0.41194 -0.00401 -0.09153
 Zr287 Zr 0.47376 -0.05211 0.00024
 Zr288 Zr 0.52581 0.05174 0.00022
 O289 O 0.51407 0.02961 -0.12069
 O290 O 0.48384 -0.03070 -0.12173
 O291 O 0.55943 0.03127 -0.00178
 O292 O 0.44101 -0.03076 0.00216
 O293 O 0.52790 -0.03084 -0.00161
 O294 O 0.47163 0.03123 0.00217
 H295 H 0.52311 0.04470 0.17135
 H296 H 0.41562 -0.04681 0.00273
 H297 H 0.52133 0.04452 -0.17131
 H298 H 0.53725 -0.04685 -0.00202
 H299 H 0.41603 0.01754 0.07659
 H300 H 0.41562 0.01847 -0.07075
 H301 H 0.46942 -0.00943 -0.25937
 H302 H 0.51733 -0.01377 -0.26145
 H303 H 0.60085 0.01706 -0.07167
 H304 H 0.59337 -0.00217 0.14225
 H305 H 0.52672 0.00462 0.25989
 H306 H 0.46928 -0.01394 0.26139
 C307 C 1.16932 0.50061 0.35260
 C308 C 1.15221 0.49972 0.29287
 C309 C 1.12981 0.49839 0.22832
 C310 C 1.10862 0.49705 0.17900
 C311 C 0.49684 0.66685 0.35080
 C312 C 0.49798 0.65015 0.29269
 C313 C 0.49968 0.62837 0.23099
 C314 C 0.50138 0.60820 0.18372
 C315 C 0.33259 -0.17006 0.35425
 C316 C 0.34944 -0.15232 0.29606
 C317 C 0.37133 -0.12898 0.23413
 C318 C 0.39157 -0.10719 0.18663
 C319 C 0.83055 0.49802 0.35082
 C320 C 0.84845 0.49912 0.29285
 C321 C 0.87194 0.50081 0.23121
 C322 C 0.89386 0.50249 0.18404
 C323 C 0.49866 0.33080 0.34808
 C324 C 0.49776 0.34707 0.28864
 C325 C 0.49647 0.36825 0.22461
 C326 C 0.49524 0.38824 0.17581
 C327 C 0.66903 0.16797 0.34888
 C328 C 0.65289 0.15066 0.28952
 C329 C 0.63181 0.12804 0.22560
 C330 C 0.61185 0.10675 0.17688
 C331 C 0.49829 0.16843 -0.34631
 C332 C 0.49736 0.15107 -0.28728
 C333 C 0.49606 0.12836 -0.22390
 C334 C 0.49484 0.10697 -0.17569
 C335 C 0.66986 0.50052 -0.34887
 C336 C 0.65364 0.50167 -0.28952
 C337 C 0.63241 0.50318 -0.22579
 C338 C 0.61234 0.50454 -0.17734
 C339 C 0.82961 0.33217 -0.34620
 C340 C 0.84754 0.34911 -0.28854
 C341 C 0.87111 0.37115 -0.22741
 C342 C 0.89308 0.39155 -0.18074
 C343 C 0.49669 -0.17135 -0.34903
 C344 C 0.49779 -0.15317 -0.29180
 C345 C 0.49941 -0.12935 -0.23122
 C346 C 0.50102 -0.10729 -0.18480
 C347 C 0.33181 0.50257 -0.35207
 C348 C 0.34883 0.50160 -0.29437
 C349 C 0.37098 0.50011 -0.23325
 C350 C 0.39144 0.49859 -0.18646
 C351 C 1.16990 0.66986 -0.35001
 C352 C 1.15252 0.65348 -0.29074
 C353 C 1.12978 0.63213 -0.22700
 C354 C 1.10838 0.61206 -0.17839
 C355 C 0.83012 0.49800 -0.35025
 C356 C 0.84818 0.49898 -0.29271
 C357 C 0.87191 0.50049 -0.23182
 C358 C 0.89394 0.50205 -0.18515
 C359 C 0.49896 0.33056 -0.35165
 C360 C 0.49826 0.34712 -0.29257
 C361 C 0.49718 0.36866 -0.22908
 C362 C 0.49605 0.38884 -0.18068
 C363 C 0.66894 0.16855 -0.35085
 C364 C 0.65244 0.15115 -0.29176
 C365 C 0.63097 0.12840 -0.22823
 C366 C 0.61083 0.10701 -0.17972
 C367 C 1.16912 0.50000 -0.35080
 C368 C 1.15191 0.49886 -0.29111
 C369 C 1.12938 0.49734 -0.22679
 C370 C 1.10810 0.49596 -0.17777
 C371 C 0.49707 0.66675 -0.35397
 C372 C 0.49836 0.65013 -0.29590
 C373 C 0.50021 0.62849 -0.23417
 C374 C 0.50197 0.60839 -0.18681
 C375 C 0.33214 -0.16996 -0.35049
 C376 C 0.34878 -0.15218 -0.29230
 C377 C 0.37049 -0.12881 -0.23048
 C378 C 0.39067 -0.10700 -0.18317
 C379 C 0.49703 -0.17103 0.34840
 C380 C 0.49832 -0.15285 0.29100
 C381 C 0.50013 -0.12910 0.23012
 C382 C 0.50183 -0.10708 0.18344
 C383 C 0.33240 0.50265 0.34896
 C384 C 0.34919 0.50158 0.29099
 C385 C 0.37099 0.49994 0.22926
 C386 C 0.39119 0.49828 0.18198
 C387 C 1.16932 0.66936 0.34968
 C388 C 1.15207 0.65318 0.29028
 C389 C 1.12951 0.63211 0.22625
 C390 C 1.10821 0.61220 0.17745
 C391 C 0.49873 0.16831 0.34968
 C392 C 0.49801 0.15093 0.29090
 C393 C 0.49692 0.12821 0.22771
 C394 C 0.49578 0.10685 0.17949
 C395 C 0.66858 0.49994 0.35081
 C396 C 0.65218 0.50085 0.29156
 C397 C 0.63091 0.50218 0.22755
 C398 C 0.61096 0.50352 0.17858
 C399 C 0.83017 0.33262 0.35103
 C400 C 0.84826 0.34974 0.29361
 C401 C 0.87193 0.37190 0.23253
 C402 C 0.89391 0.39228 0.18561
   
