data_POSCAR
  _audit_creation_date              2014-09-24
  _audit_creation_method            'ToBaCCo'
  _symmetry_space_group_name_H-M    'P1'
  _symmetry_Int_Tables_number       1
  _symmetry_cell_setting            triclinic
  loop_
  _symmetry_equiv_pos_as_xyz
 x,y,z
_cell_length_a 27.3318
_cell_length_b 26.6308
_cell_length_c 34.9422
_cell_angle_alpha 90.167900
_cell_angle_beta 89.986900
_cell_angle_gamma 90.101100
loop_
  _atom_site_label
  _atom_site_type_symbol
  _atom_site_fract_x
  _atom_site_fract_y
  _atom_site_fract_z
B1 B 0.27279 0.21434 0.28571
 B2 B 0.21678 0.19907 0.26993
 B3 B 0.22786 0.25856 0.28317
 B4 B 0.28621 0.27335 0.27036
 B5 B 0.30983 0.22176 0.24784
 B6 B 0.26647 0.17551 0.24754
 B7 B 0.23075 0.25424 0.20631
 B8 B 0.28715 0.26970 0.22166
 B9 B 0.27519 0.21039 0.20857
 B10 B 0.21751 0.19546 0.22173
 B11 B 0.19413 0.24691 0.24378
 B12 B 0.23736 0.29342 0.24404
 B13 B 0.72357 0.76047 0.21460
 B14 B 0.70453 0.70252 0.22583
 B15 B 0.76335 0.71191 0.21336
 B16 B 0.78108 0.76868 0.23065
 B17 B 0.73244 0.79332 0.25480
 B18 B 0.68496 0.75189 0.25205
 B19 B 0.75966 0.70600 0.29035
 B20 B 0.77763 0.76430 0.27877
 B21 B 0.71936 0.75430 0.29160
 B22 B 0.70149 0.69754 0.27429
 B23 B 0.75000 0.67288 0.24996
 B24 B 0.79765 0.71462 0.25286
 B25 B 0.72367 0.23965 -0.21357
 B26 B 0.70874 0.29859 -0.22519
 B27 B 0.76624 0.28687 -0.21110
 B28 B 0.78203 0.22915 -0.22782
 B29 B 0.73346 0.20684 -0.25367
 B30 B 0.68789 0.25037 -0.25218
 B31 B 0.76579 0.29304 -0.28807
 B32 B 0.78100 0.23397 -0.27627
 B33 B 0.72380 0.24675 -0.29048
 B34 B 0.70766 0.30397 -0.27342
 B35 B 0.75625 0.32617 -0.24814
 B36 B 0.80215 0.28258 -0.24983
 B37 B 0.27024 0.78515 -0.29311
 B38 B 0.21562 0.80180 -0.27522
 B39 B 0.22367 0.74249 -0.28985
 B40 B 0.28163 0.72486 -0.27925
 B41 B 0.30857 0.77442 -0.25687
 B42 B 0.26750 0.82257 -0.25408
 B43 B 0.23026 0.74475 -0.21315
 B44 B 0.28473 0.72681 -0.23068
 B45 B 0.27700 0.78630 -0.21633
 B46 B 0.21913 0.80430 -0.22705
 B47 B 0.19209 0.75449 -0.24932
 B48 B 0.23307 0.70630 -0.25170
 B49 B 1.22087 1.26500 0.71778
 B50 B 1.20062 1.20713 0.72800
 B51 B 1.25923 1.21513 0.71493
 B52 B 1.27879 1.27085 0.73323
 B53 B 1.23127 1.29579 0.75882
 B54 B 1.18276 1.25569 0.75548
 B55 B 1.25751 1.20633 0.79165
 B56 B 1.27632 1.26462 0.78119
 B57 B 1.21808 1.25515 0.79465
 B58 B 1.19869 1.19988 0.77618
 B59 B 1.24589 1.17521 0.75077
 B60 B 1.29457 1.21553 0.75386
 B61 B 0.77287 0.71332 0.78550
 B62 B 0.71485 0.69949 0.77376
 B63 B 0.72883 0.75786 0.78804
 B64 B 0.78473 0.77310 0.77098
 B65 B 0.80501 0.72302 0.74551
 B66 B 0.76126 0.67689 0.74687
 B67 B 0.72168 0.75728 0.71078
 B68 B 0.77928 0.77251 0.72293
 B69 B 0.76617 0.71346 0.70846
 B70 B 0.70977 0.69829 0.72538
 B71 B 0.68943 0.74848 0.75133
 B72 B 0.73250 0.79441 0.74941
 B73 B 1.22710 0.73705 0.28978
 B74 B 1.21171 0.79622 0.27805
 B75 B 1.26951 0.78297 0.29123
 B76 B 1.28405 0.72572 0.27405
 B77 B 1.23471 0.70406 0.24899
 B78 B 1.18932 0.74786 0.25228
 B79 B 1.26696 0.78993 0.21433
 B80 B 1.28210 0.73081 0.22600
 B81 B 1.22412 0.74404 0.21270
 B82 B 1.20945 0.80137 0.23021
 B83 B 1.25914 0.82265 0.25450
 B84 B 1.30431 0.77862 0.25201
 B85 B 0.77809 1.27555 0.20422
 B86 B 0.71926 1.28149 0.21804
 B87 B 0.74121 1.22521 0.20447
 B88 B 0.79966 1.21991 0.22010
 B89 B 0.81334 1.27442 0.24338
 B90 B 0.76342 1.31269 0.24199
 B91 B 0.73781 1.22824 0.28145
 B92 B 0.79661 1.22320 0.26841
 B93 B 0.77500 1.27953 0.28125
 B94 B 0.71645 1.28414 0.26598
 B95 B 0.70286 1.22957 0.24224
 B96 B 0.75312 1.19169 0.24391
 O97 O 0.49448 1.08892 0.04180
 O98 O 0.52568 0.91051 0.04843
 O99 O 0.42535 0.99058 0.05211
 O100 O 0.59741 1.00655 0.04598
 O101 O 0.44315 0.91501 0.03610
 O102 O 0.57718 1.07968 0.02549
 O103 O 0.59404 0.92004 0.02244
 O104 O 0.42580 1.07218 0.01915
 C105 C 0.44980 1.09127 0.04523
 C106 C 0.57007 0.90466 0.05014
 C107 C 0.42577 0.94527 0.05998
 C108 C 0.59795 1.05284 0.05017
 O109 O 0.55175 1.06997 -0.05083
 O110 O 0.46288 0.91418 -0.04219
 O111 O 0.42515 1.02653 -0.04721
 O112 O 0.58709 0.95473 -0.04894
 O113 O 0.54448 0.89261 -0.02874
 O114 O 0.46992 1.09174 -0.03646
 O115 O 0.61358 1.03656 -0.02569
 O116 O 0.40331 0.94916 -0.01541
 Co117 Co 0.52181 1.07466 -0.00464
 Co118 Co 0.49547 0.91594 0.00290
 Co119 Co 0.42910 1.00797 0.00209
 Co120 Co 0.58842 0.98103 -0.00145
 O121 O 0.50876 0.99491 -0.00049
 C122 C 0.59627 1.06268 -0.05174
 C123 C 0.41872 0.92338 -0.04222
 C124 C 0.43787 1.06954 -0.05631
 C125 C 0.57302 0.91085 -0.05315
 O126 O 0.95760 0.58708 0.53060
 O127 O 1.06380 0.40460 0.53153
 O128 O 0.91507 0.43244 0.51871
 O129 O 1.10655 0.55728 0.51817
 O130 O 0.98148 0.40889 0.54277
 O131 O 1.04224 0.58023 0.54523
 O132 O 1.09275 0.47607 0.54894
 O133 O 0.92241 0.51737 0.54618
 C134 C 0.93049 0.56247 0.55280
 C135 C 1.08489 0.43120 0.55621
 C136 C 0.93675 0.41108 0.54518
 C137 C 1.08739 0.57934 0.54527
 O138 O 1.06295 0.58732 0.46664
 O139 O 0.96131 0.40226 0.46515
 O140 O 0.91362 0.55495 0.47670
 O141 O 1.10894 0.43517 0.48106
 O142 O 1.04601 0.41214 0.45221
 O143 O 0.97984 0.58110 0.45338
 O144 O 1.09373 0.51620 0.45021
 O145 O 0.92453 0.47067 0.44933
 Co146 Co 1.01072 0.57592 0.49908
 Co147 Co 1.01296 0.41487 0.49772
 Co148 Co 0.92843 0.49393 0.49782
 Co149 Co 1.09026 0.49602 0.49948
 O150 O 1.01021 0.49522 0.49856
 C151 C 1.08724 0.56141 0.44331
 C152 C 0.93428 0.42607 0.44248
 C153 C 0.93500 0.57789 0.45078
 C154 C 1.09116 0.41352 0.45317
 O155 O 1.07198 0.47845 0.06559
 O156 O 1.06722 0.52944 -0.06740
 O157 O 1.07197 0.41568 -0.01244
 O158 O 1.07873 0.59122 0.01487
 O159 O 1.04812 0.44453 -0.06688
 O160 O 1.05499 0.56381 0.06931
 O161 O 1.04137 0.59977 -0.04894
 O162 O 1.03794 0.41013 0.05237
 C163 C 1.07299 0.43232 0.06723
 C164 C 1.07187 0.57537 -0.06745
 C165 C 1.07891 0.42063 -0.04743
 C166 C 1.08645 0.58594 0.04957
 O167 O 0.95532 0.54353 0.06534
 O168 O 0.94877 0.46760 -0.06022
 O169 O 0.94788 0.42226 0.02345
 O170 O 0.95351 0.59573 -0.01792
 O171 O 0.96918 0.55463 -0.06969
 O172 O 0.97284 0.45831 0.07456
 O173 O 0.98961 0.60874 0.04477
 O174 O 0.98236 0.40244 -0.03922
 Co175 Co 1.01355 0.51039 0.06258
 Co176 Co 1.00832 0.49965 -0.05981
 Co177 Co 1.01013 0.42278 0.00574
 Co178 Co 1.01559 0.58880 -0.00132
 O179 O 1.01182 0.50551 0.00170
 C180 C 0.95534 0.58976 0.06309
 C181 C 0.94860 0.42125 -0.05790
 C182 C 0.94049 0.43405 0.05726
 C183 C 0.94385 0.58652 -0.05190
 O184 O 0.55996 0.96968 0.56609
 O185 O 0.56974 1.04847 0.43996
 O186 O 0.56876 0.92127 0.47643
 O187 O 0.57164 1.09107 0.52163
 O188 O 0.54967 0.96370 0.42646
 O189 O 0.54729 1.05468 0.57318
 O190 O 0.53567 1.11344 0.46001
 O191 O 0.53164 0.90450 0.53953
 C192 C 0.56012 0.92369 0.56307
 C193 C 0.56962 1.09473 0.44170
 C194 C 0.57738 0.93282 0.44272
 C195 C 0.57887 1.08024 0.55570
 O196 O 0.44542 1.03927 0.56391
 O197 O 0.45147 0.98799 0.43194
 O198 O 0.44393 0.91784 0.51028
 O199 O 0.44688 1.09838 0.48816
 O200 O 0.46959 1.07212 0.43299
 O201 O 0.46110 0.95052 0.56527
 O202 O 0.48427 1.10472 0.55171
 O203 O 0.47944 0.91683 0.44587
 Co204 Co 0.50336 1.00440 0.56095
 Co205 Co 0.51018 1.01735 0.43894
 Co206 Co 0.50625 0.92519 0.49359
 Co207 Co 0.50930 1.09124 0.50465
 O208 O 0.50727 1.00900 0.49957
 C209 C 0.44796 1.08544 0.56659
 C210 C 0.44721 0.94211 0.43005
 C211 C 0.43509 0.92180 0.54504
 C212 C 0.43964 1.09613 0.45317
 O213 O 1.06496 1.06019 0.47063
 O214 O 0.90054 1.05974 0.52454
 O215 O 0.96559 1.05884 0.43228
 O216 O 1.00224 1.06936 0.56435
 O217 O 0.89619 1.04220 0.45939
 O218 O 1.07117 1.05158 0.53697
 O219 O 0.92383 1.02531 0.57446
 O220 O 1.04406 1.01868 0.42272
 C221 C 1.06567 1.05553 0.43561
 C222 C 0.90308 1.06115 0.55966
 C223 C 0.92207 1.06934 0.43764
 C224 C 1.04589 1.07989 0.55833
 O225 O 1.06900 0.94603 0.52698
 O226 O 0.90261 0.93762 0.47653
 O227 O 1.00422 0.93076 0.43744
 O228 O 0.96795 0.93910 0.56761
 O229 O 0.89785 0.95501 0.54137
 O230 O 1.07306 0.95522 0.46138
 O231 O 1.04581 0.98477 0.57532
 O232 O 0.92425 0.97179 0.42611
 Co233 Co 1.06232 1.00309 0.49916
 Co234 Co 0.90642 0.99884 0.50035
 Co235 Co 0.98454 0.99539 0.43742
 Co236 Co 0.98486 1.00412 0.56304
 O237 O 0.98453 1.00057 0.50005
 C238 C 1.06797 0.94896 0.56195
 C239 C 0.90434 0.93580 0.44144
 C240 C 1.04874 0.92396 0.44181
 C241 C 0.92442 0.92761 0.56241
 O242 O 0.58132 0.53330 -0.03437
 O243 O 0.41223 0.55841 0.03513
 O244 O 0.43159 0.52454 -0.07810
 O245 O 0.50484 0.56726 0.05821
 O246 O 0.40584 0.56244 -0.02953
 O247 O 0.57425 0.54943 0.03416
 O248 O 0.43454 0.51797 0.08310
 O249 O 0.51820 0.55674 -0.06929
 C250 C 0.56231 0.56132 -0.05996
 C251 C 0.40955 0.55252 0.07004
 C252 C 0.41029 0.56083 -0.06456
 C253 C 0.54861 0.57790 0.05432
 O254 O 0.55871 0.45116 0.04883
 O255 O 0.39372 0.45856 -0.03559
 O256 O 0.54618 0.46635 -0.07027
 O257 O 0.47054 0.43588 0.05954
 O258 O 0.39951 0.45489 0.03564
 O259 O 0.56456 0.43116 -0.01867
 O260 O 0.52559 0.49058 0.09757
 O261 O 0.45932 0.43598 -0.06839
 Co262 Co 0.56261 0.49213 0.00643
 Co263 Co 0.40900 0.50746 0.00135
 Co264 Co 0.48858 0.49652 -0.06485
 Co265 Co 0.48921 0.50128 0.05580
 O266 O 0.48496 0.50064 -0.00219
 C267 C 0.56098 0.46330 0.08410
 C268 C 0.41518 0.42974 -0.05962
 C269 C 0.56221 0.42916 -0.05403
 C270 C 0.42609 0.42611 0.05567
 C271 C 0.27468 1.16105 0.14370
 C272 C 0.30167 1.18498 0.17270
 C273 C 0.35322 1.18580 0.17002
 C274 C 0.37727 1.16351 0.13906
 C275 C 0.34969 1.13970 0.11014
 C276 C 0.29846 1.13874 0.11262
 C277 C 0.37383 1.11681 0.07940
 C278 C 0.42528 1.11712 0.07726
 C279 C 0.45241 1.14118 0.10606
 C280 C 0.42854 1.16437 0.13671
 H281 H 0.37505 1.20412 0.19184
 H282 H 0.27681 1.12044 0.09066
 H283 H 0.35247 1.09831 0.05735
 H284 H 0.45017 1.18264 0.15871
 H285 H 0.23522 1.15917 0.14507
 H286 H 0.49201 1.14185 0.10496
 C287 C 0.76145 0.66778 0.64104
 C288 C 0.79001 0.68575 0.67168
 C289 C 0.84021 0.67291 0.67223
 C290 C 0.86181 0.64521 0.64281
 C291 C 0.83296 0.62744 0.61222
 C292 C 0.78273 0.63909 0.61152
 C293 C 0.85515 0.59841 0.58320
 C294 C 0.90580 0.58850 0.58443
 C295 C 0.93399 0.60725 0.61466
 C296 C 0.91211 0.63485 0.64390
 H297 H 0.86337 0.68326 0.69604
 H298 H 0.75982 0.62564 0.58835
 H299 H 0.83356 0.58466 0.55933
 H300 H 0.93468 0.64864 0.66718
 H301 H 0.72252 0.67511 0.64022
 H302 H 0.97306 0.60046 0.61558
 C303 C 0.73356 0.80802 0.14916
 C304 C 0.70272 0.78986 0.17823
 C305 C 0.65203 0.79843 0.17527
 C306 C 0.63242 0.82444 0.14431
 C307 C 0.66351 0.84266 0.11523
 C308 C 0.71411 0.83412 0.11787
 C309 C 0.64327 0.86911 0.08425
 C310 C 0.59241 0.87730 0.08235
 C311 C 0.56216 0.85881 0.11162
 C312 C 0.58194 0.83256 0.14224
 H313 H 0.62713 0.78459 0.19693
 H314 H 0.73862 0.84778 0.09586
 H315 H 0.66691 0.88325 0.06181
 H316 H 0.55770 0.81871 0.16440
 H317 H 0.77267 0.80229 0.15062
 H318 H 0.52294 0.86457 0.11087
 C319 C 1.23303 0.30909 0.65141
 C320 C 1.20187 0.29778 0.68226
 C321 C 1.15406 0.31774 0.68215
 C322 C 1.13782 0.34822 0.65203
 C323 C 1.16942 0.35873 0.62106
 C324 C 1.21691 0.33890 0.62102
 C325 C 1.15266 0.38828 0.59047
 C326 C 1.10478 0.40731 0.59063
 C327 C 1.07392 0.39742 0.62171
 C328 C 1.09030 0.36818 0.65228
 H329 H 1.12921 0.30994 0.70554
 H330 H 1.24170 0.34663 0.59756
 H331 H 1.17619 0.39526 0.56606
 H332 H 1.06558 0.36055 0.67581
 H333 H 1.27008 0.29517 0.65071
 H334 H 1.03678 0.41154 0.62191
 C335 C 0.64287 1.21495 -0.17836
 C336 C 0.69450 1.21011 -0.18000
 C337 C 0.71692 1.17556 -0.15498
 C338 C 0.68802 1.14675 -0.12938
 C339 C 0.63663 1.15307 -0.12878
 C340 C 0.61471 1.18754 -0.15302
 C341 C 0.60732 1.12469 -0.10414
 C342 C 0.62812 1.08963 -0.07931
 C343 C 0.67928 1.08303 -0.07976
 C344 C 0.70897 1.11127 -0.10463
 H345 H 0.75620 1.17030 -0.15600
 H346 H 0.57537 1.19280 -0.15293
 H347 H 0.56805 1.13046 -0.10404
 H348 H 0.74818 1.10547 -0.10439
 H349 H 0.62305 1.23996 -0.19705
 H350 H 0.69637 1.05633 -0.06067
 C351 C 1.20301 0.73018 0.36250
 C352 C 1.20605 0.70743 0.32619
 C353 C 1.18725 0.65833 0.32162
 C354 C 1.16385 0.63366 0.35184
 C355 C 1.15834 0.65834 0.38734
 C356 C 1.17875 0.70622 0.39261
 C357 C 1.13239 0.63469 0.41687
 C358 C 1.11334 0.58603 0.41170
 C359 C 1.12066 0.56099 0.37685
 C360 C 1.14518 0.58490 0.34691
 H361 H 1.18952 0.63922 0.29430
 H362 H 1.17533 0.72547 0.41983
 H363 H 1.12768 0.65375 0.44409
 H364 H 1.14952 0.56531 0.31990
 H365 H 1.21707 0.76764 0.36728
 H366 H 1.10659 0.52332 0.37260
 C367 C 0.36095 0.80026 -0.18324
 C368 C 0.30993 0.80942 -0.18285
 C369 C 0.29038 0.83998 -0.15383
 C370 C 0.32144 0.86083 -0.12585
 C371 C 0.37226 0.85070 -0.12702
 C372 C 0.39148 0.82029 -0.15563
 C373 C 0.40356 0.87132 -0.09970
 C374 C 0.38515 0.90225 -0.07087
 C375 C 0.33466 0.91256 -0.06955
 C376 C 0.30299 0.89193 -0.09685
 H377 H 0.25155 0.84796 -0.15322
 H378 H 0.43031 0.81213 -0.15683
 H379 H 0.44239 0.86331 -0.10099
 H380 H 0.26427 0.90036 -0.09534
 H381 H 0.37800 0.77686 -0.20477
 H382 H 0.31967 0.93655 -0.04740
 C383 C 0.76679 0.33972 0.34122
 C384 C 0.79663 0.31055 0.31709
 C385 C 0.84777 0.31214 0.32277
 C386 C 0.86866 0.34112 0.35186
 C387 C 0.83861 0.37105 0.37549
 C388 C 0.78760 0.36990 0.37004
 C389 C 0.86032 0.40096 0.40424
 C390 C 0.91132 0.39941 0.41017
 C391 C 0.94038 0.36871 0.38688
 C392 C 0.91940 0.34035 0.35761
 H393 H 0.87199 0.29058 0.30455
 H394 H 0.76383 0.39238 0.38800
 H395 H 0.83764 0.42390 0.42276
 H396 H 0.94282 0.31722 0.33981
 H397 H 0.72749 0.33999 0.33741
 H398 H 0.97949 0.36682 0.39136
 C399 C 1.17088 0.25078 0.14736
 C400 C 1.20459 0.27840 0.16946
 C401 C 1.20855 0.33057 0.16297
 C402 C 1.17816 0.35494 0.13672
 C403 C 1.14334 0.32708 0.11574
 C404 C 1.14093 0.27479 0.12050
 C405 C 1.11017 0.35233 0.09178
 C406 C 1.11098 0.40517 0.08918
 C407 C 1.14689 0.43211 0.10939
 C408 C 1.18036 0.40725 0.13273
 H409 H 1.23358 0.35313 0.17986
 H410 H 1.11438 0.25274 0.10468
 H411 H 1.08270 0.33104 0.07628
 H412 H 1.20695 0.42914 0.14866
 H413 H 1.16575 0.21100 0.15205
 H414 H 1.14822 0.47265 0.10807
 C415 C 0.71641 0.78554 0.63825
 C416 C 0.69433 0.78250 0.67464
 C417 C 0.64904 0.80685 0.68008
 C418 C 0.62711 0.83450 0.65062
 C419 C 0.64981 0.83757 0.61437
 C420 C 0.69429 0.81243 0.60843
 C421 C 0.62794 0.86647 0.58516
 C422 C 0.58424 0.89272 0.59241
 C423 C 0.56212 0.88904 0.62849
 C424 C 0.58318 0.86012 0.65728
 H425 H 0.63120 0.80599 0.70774
 H426 H 0.71265 0.81461 0.58100
 H427 H 0.64503 0.86913 0.55724
 H428 H 0.56527 0.85813 0.68491
 H429 H 0.75186 0.76900 0.63308
 H430 H 0.52812 0.90843 0.63433
 C431 C 1.17925 0.75096 -0.14927
 C432 C 1.20547 0.72119 -0.17550
 C433 C 1.20379 0.66854 -0.17134
 C434 C 1.17429 0.64600 -0.14359
 C435 C 1.14656 0.67606 -0.11837
 C436 C 1.15036 0.72860 -0.12077
 C437 C 1.11422 0.65293 -0.09237
 C438 C 1.10884 0.60022 -0.09204
 C439 C 1.13750 0.57108 -0.11696
 C440 C 1.17026 0.59364 -0.14215
 H441 H 1.22370 0.64448 -0.19092
 H442 H 1.12952 0.75240 -0.10160
 H443 H 1.09225 0.67591 -0.07337
 H444 H 1.19120 0.57013 -0.16149
 H445 H 1.17938 0.79145 -0.15166
 H446 H 1.13351 0.53073 -0.11795
 C447 C 0.72636 1.14608 0.32118
 C448 C 0.71564 1.19782 0.31721
 C449 C 0.68178 1.21957 0.34255
 C450 C 0.65739 1.18963 0.36978
 C451 C 0.66735 1.13754 0.37202
 C452 C 0.70286 1.11657 0.34830
 C453 C 0.64031 1.10674 0.39682
 C454 C 0.60294 1.12722 0.41933
 C455 C 0.59482 1.17948 0.41833
 C456 C 0.62175 1.21035 0.39381
 H457 H 0.67286 1.25906 0.34008
 H458 H 0.71138 1.07689 0.34980
 H459 H 0.64712 1.06669 0.39753
 H460 H 0.61366 1.25015 0.39286
 H461 H 0.75250 1.12752 0.30273
 H462 H 0.56638 1.19643 0.43563
 C463 C 0.77753 0.63559 0.16729
 C464 C 0.78947 0.68568 0.17697
 C465 C 0.83004 0.70800 0.15865
 C466 C 0.85879 0.68031 0.13251
 C467 C 0.84656 0.62990 0.12398
 C468 C 0.80514 0.60843 0.14082
 C469 C 0.87702 0.60106 0.10005
 C470 C 0.92032 0.62149 0.08496
 C471 C 0.93122 0.67228 0.09241
 C472 C 0.90080 0.70138 0.11591
 H473 H 0.84098 0.74586 0.16620
 H474 H 0.79525 0.56978 0.13478
 H475 H 0.86745 0.56250 0.09373
 H476 H 0.91085 0.73998 0.12189
 H477 H 0.74770 0.61624 0.18132
 H478 H 0.96418 0.68918 0.08098
 C479 C 0.26925 1.13852 0.66835
 C480 C 0.28352 1.18800 0.67825
 C481 C 0.32563 1.20791 0.66077
 C482 C 0.35356 1.17863 0.63528
 C483 C 0.33950 1.12862 0.62684
 C484 C 0.29650 1.10952 0.64279
 C485 C 0.36964 1.09797 0.60387
 C486 C 0.41365 1.11699 0.58906
 C487 C 0.42620 1.16745 0.59652
 C488 C 0.39665 1.19782 0.61942
 H489 H 0.33850 1.24502 0.66868
 H490 H 0.28500 1.07133 0.63680
 H491 H 0.35938 1.05932 0.59815
 H492 H 0.40806 1.23606 0.62535
 H493 H 0.23823 1.12069 0.68192
 H494 H 0.45977 1.18335 0.58534
 C495 C 0.77994 0.36744 -0.16903
 C496 C 0.79100 0.31597 -0.17497
 C497 C 0.82906 0.29493 -0.15308
 C498 C 0.85632 0.32519 -0.12729
 C499 C 0.84528 0.37687 -0.12311
 C500 C 0.80622 0.39709 -0.14342
 C501 C 0.87444 0.40809 -0.09976
 C502 C 0.91477 0.38838 -0.08014
 C503 C 0.92441 0.33648 -0.08327
 C504 C 0.89567 0.30532 -0.10662
 H505 H 0.83895 0.25592 -0.15733
 H506 H 0.79700 0.43651 -0.14061
 H507 H 0.86637 0.44784 -0.09755
 H508 H 0.90490 0.26589 -0.10909
 H509 H 0.75179 0.38615 -0.18535
 H510 H 0.95520 0.32001 -0.06841
 C511 C 0.31987 0.77444 0.35518
 C512 C 0.29660 0.80560 0.32826
 C513 C 0.30506 0.85768 0.33045
 C514 C 0.33733 0.87814 0.35715
 C515 C 0.36205 0.84661 0.38307
 C516 C 0.35204 0.79480 0.38252
 C517 C 0.39753 0.86743 0.40779
 C518 C 0.40831 0.91923 0.40631
 C519 C 0.38241 0.94989 0.38077
 C520 C 0.34712 0.92969 0.35664
 H521 H 0.28960 0.88280 0.30960
 H522 H 0.37046 0.76983 0.40222
 H523 H 0.41729 0.84344 0.42743
 H524 H 0.32849 0.95426 0.33673
 H525 H 0.31483 0.73412 0.35411
 H526 H 0.39056 0.98949 0.37846
 C527 C 1.14973 1.12947 0.28129
 C528 C 1.18219 1.16519 0.29659
 C529 C 1.18356 1.17177 0.33671
 C530 C 1.15324 1.14460 0.36091
 C531 C 1.12105 1.10869 0.34538
 C532 C 1.11949 1.10125 0.30553
 C533 C 1.09151 1.08063 0.37010
 C534 C 1.09397 1.08822 0.41005
 C535 C 1.12538 1.12493 0.42501
 C536 C 1.15494 1.15292 0.40057
 H537 H 1.20811 1.19860 0.34977
 H538 H 1.09487 1.07373 0.29315
 H539 H 1.06718 1.05239 0.35828
 H540 H 1.17949 1.18074 0.41268
 H541 H 1.14764 1.12332 0.25069
 H542 H 1.12782 1.13123 0.45559
 C543 C 0.64181 0.63844 -0.21352
 C544 C 0.68165 0.66576 -0.19887
 C545 C 0.68891 0.66709 -0.15888
 C546 C 0.65749 0.64198 -0.13408
 C547 C 0.61699 0.61583 -0.14910
 C548 C 0.60957 0.61385 -0.18881
 C549 C 0.58478 0.59185 -0.12411
 C550 C 0.59361 0.59208 -0.08446
 C551 C 0.63446 0.61729 -0.06974
 C552 C 0.66586 0.64293 -0.09442
 H553 H 0.71786 0.68930 -0.14636
 H554 H 0.57867 0.59360 -0.20071
 H555 H 0.55381 0.57136 -0.13568
 H556 H 0.69710 0.66274 -0.08261
 H557 H 0.63470 0.63707 -0.24398
 H558 H 0.64196 0.61711 -0.03930
 C559 C 0.84566 1.16318 0.71193
 C560 C 0.81526 1.20049 0.69652
 C561 C 0.81231 1.20499 0.65628
 C562 C 0.83675 1.17168 0.63206
 C563 C 0.86585 1.13355 0.64799
 C564 C 0.87093 1.13016 0.68787
 C565 C 0.88822 1.09857 0.62381
 C566 C 0.88141 1.10070 0.58385
 C567 C 0.85330 1.13949 0.56817
 C568 C 0.83115 1.17488 0.59216
 H569 H 0.78924 1.23303 0.64327
 H570 H 0.89340 1.10109 0.70048
 H571 H 0.91006 1.06893 0.63631
 H572 H 0.80886 1.20413 0.57959
 H573 H 0.84901 1.15854 0.74258
 H574 H 0.84783 1.14193 0.53753
 C575 C 0.34496 0.65795 0.21873
 C576 C 0.31763 0.69648 0.20130
 C577 C 0.31834 0.70073 0.16135
 C578 C 0.34159 0.66458 0.13898
 C579 C 0.36734 0.62496 0.15666
 C580 C 0.36996 0.62277 0.19657
 C581 C 0.38912 0.58773 0.13414
 C582 C 0.38486 0.58957 0.09422
 C583 C 0.35894 0.62899 0.07692
 C584 C 0.33764 0.66635 0.09914
 H585 H 0.29740 0.72949 0.14723
 H586 H 0.38983 0.59288 0.21064
 H587 H 0.40924 0.55750 0.14759
 H588 H 0.31767 0.69630 0.08520
 H589 H 0.34590 0.65364 0.24949
 H590 H 0.35542 0.63116 0.04609
 C591 C 1.14990 0.87261 0.71522
 C592 C 1.18118 0.83643 0.69934
 C593 C 1.18164 0.82971 0.65931
 C594 C 1.15195 0.85741 0.63557
 C595 C 1.12095 0.89398 0.65146
 C596 C 1.11995 0.90143 0.69133
 C597 C 1.09231 0.92281 0.62700
 C598 C 1.09490 0.91545 0.58709
 C599 C 1.12495 0.87803 0.57176
 C600 C 1.15343 0.84906 0.59596
 H601 H 1.20531 0.80256 0.64578
 H602 H 1.09619 0.92950 0.70392
 H603 H 1.06887 0.95164 0.63900
 H604 H 1.17711 0.82064 0.58370
 H605 H 1.14861 0.87865 0.74586
 H606 H 1.12716 0.87193 0.54115
 C607 C 0.63821 0.28703 0.17901
 C608 C 0.67998 0.31143 0.19362
 C609 C 0.68679 0.36273 0.18596
 C610 C 0.65513 0.38811 0.16142
 C611 C 0.61530 0.36217 0.14472
 C612 C 0.60654 0.31197 0.15429
 C613 C 0.58489 0.38700 0.11884
 C614 C 0.59347 0.43748 0.11023
 C615 C 0.63191 0.46366 0.12765
 C616 C 0.66299 0.43895 0.15296
 H617 H 0.71684 0.38318 0.19870
 H618 H 0.57560 0.29185 0.14232
 H619 H 0.55433 0.36744 0.10569
 H620 H 0.69316 0.45942 0.16576
 H621 H 0.63086 0.24801 0.18549
 H622 H 0.63807 0.50299 0.12132
 C623 C 0.84584 0.83146 0.29064
 C624 C 0.81266 0.79665 0.30615
 C625 C 0.80835 0.79345 0.34638
 C626 C 0.83441 0.82585 0.37043
 C627 C 0.86625 0.86163 0.35429
 C628 C 0.87252 0.86351 0.31450
 C629 C 0.89010 0.89602 0.37811
 C630 C 0.88213 0.89579 0.41793
 C631 C 0.85160 0.85907 0.43395
 C632 C 0.82790 0.82421 0.41031
 H633 H 0.78335 0.76703 0.35936
 H634 H 0.89709 0.89071 0.30175
 H635 H 0.91390 0.92395 0.36539
 H636 H 0.80360 0.79678 0.42309
 H637 H 0.85043 0.83496 0.26000
 H638 H 0.84514 0.85814 0.46452
 C639 C 0.35042 0.32479 -0.20754
 C640 C 0.31323 0.29481 -0.19174
 C641 C 0.30779 0.29359 -0.15158
 C642 C 0.33503 0.32549 -0.12807
 C643 C 0.37160 0.35593 -0.14446
 C644 C 0.37987 0.35452 -0.18402
 C645 C 0.39845 0.38833 -0.12115
 C646 C 0.38776 0.39263 -0.08195
 C647 C 0.35069 0.36318 -0.06581
 C648 C 0.32506 0.32889 -0.08867
 H649 H 0.28124 0.26906 -0.13834
 H650 H 0.40800 0.37768 -0.19691
 H651 H 0.42651 0.41183 -0.13387
 H652 H 0.29659 0.30611 -0.07583
 H653 H 0.35650 0.32598 -0.23813
 H654 H 0.34196 0.36643 -0.03568
 C655 C 1.16391 0.24734 -0.14336
 C656 C 1.19429 0.27718 -0.16661
 C657 C 1.20035 0.32830 -0.15686
 C658 C 1.17604 0.34932 -0.12528
 C659 C 1.14373 0.31952 -0.10339
 C660 C 1.13872 0.26831 -0.11223
 C661 C 1.11507 0.34218 -0.07456
 C662 C 1.11844 0.39417 -0.06778
 C663 C 1.15314 0.42251 -0.08786
 C664 C 1.18184 0.40035 -0.11632
 H665 H 1.22343 0.35226 -0.17422
 H666 H 1.11434 0.24473 -0.09567
 H667 H 1.08772 0.32029 -0.05951
 H668 H 1.20703 0.42360 -0.13243
 H669 H 1.15822 0.20801 -0.14986
 H670 H 1.15639 0.46239 -0.08258
 C671 C 0.66696 0.75196 0.35527
 C672 C 0.69520 0.77988 0.32921
 C673 C 0.69859 0.83241 0.33483
 C674 C 0.67297 0.85660 0.36443
 C675 C 0.64411 0.82822 0.38998
 C676 C 0.64214 0.77575 0.38553
 C677 C 0.61587 0.85315 0.41810
 C678 C 0.61483 0.90611 0.41972
 C679 C 0.64447 0.93358 0.39454
 C680 C 0.67393 0.90913 0.36765
 H681 H 0.72007 0.85519 0.31544
 H682 H 0.62000 0.75324 0.40467
 H683 H 0.59222 0.83166 0.43684
 H684 H 0.69584 0.93147 0.34822
 H685 H 0.66274 0.71186 0.35169
 H686 H 0.64377 0.97422 0.39502
 C687 C 0.79760 0.62975 -0.18060
 C688 C 0.79969 0.68298 -0.18027
 C689 C 0.82634 0.70654 -0.15065
 C690 C 0.85175 0.67724 -0.12328
 C691 C 0.85104 0.62419 -0.12613
 C692 C 0.82308 0.60104 -0.15432
 C693 C 0.87933 0.59474 -0.10145
 C694 C 0.90792 0.61720 -0.07301
 C695 C 0.90649 0.66972 -0.06849
 C696 C 0.87893 0.69957 -0.09362
 H697 H 0.82811 0.74712 -0.14929
 H698 H 0.82132 0.56045 -0.15642
 H699 H 0.88018 0.55425 -0.10498
 H700 H 0.87986 0.74003 -0.09045
 H701 H 0.77640 0.60915 -0.20152
 H702 H 0.92871 0.68786 -0.04681
 C703 C 0.29072 1.13410 0.32636
 C704 C 0.29578 1.18689 0.32313
 C705 C 0.32379 1.21212 0.35127
 C706 C 0.34760 1.18462 0.38064
 C707 C 0.34291 1.13171 0.38189
 C708 C 0.31349 1.10719 0.35524
 C709 C 0.36974 1.10349 0.40844
 C710 C 0.40203 1.12689 0.43387
 C711 C 0.40487 1.17965 0.43423
 C712 C 0.37775 1.20833 0.40792
 H713 H 0.32844 1.25246 0.34957
 H714 H 0.30927 1.06671 0.35592
 H715 H 0.36741 1.06293 0.40812
 H716 H 0.38201 1.24878 0.40783
 H717 H 0.26945 1.11249 0.30606
 H718 H 0.43034 1.19845 0.45324
 C719 C 1.15948 0.75018 0.15751
 C720 C 1.19750 0.72270 0.17486
 C721 C 1.20800 0.67434 0.16047
 C722 C 1.18299 0.65501 0.12852
 C723 C 1.14520 0.68334 0.11150
 C724 C 1.13400 0.73097 0.12606
 C725 C 1.11709 0.66220 0.08190
 C726 C 1.12577 0.61282 0.06959
 C727 C 1.16486 0.58580 0.08525
 C728 C 1.19359 0.60686 0.11433
 H729 H 1.23458 0.65084 0.17471
 H730 H 1.10475 0.75299 0.11364
 H731 H 1.08594 0.68253 0.07060
 H732 H 1.22266 0.58468 0.12684
 H733 H 1.14904 0.78677 0.16827
 H734 H 1.17151 0.54748 0.07630
 C735 C 0.67342 1.25322 0.64557
 C736 C 0.70023 1.22346 0.67125
 C737 C 0.70267 1.17122 0.66452
 C738 C 0.67753 1.14901 0.63395
 C739 C 0.65008 1.17925 0.60876
 C740 C 0.64912 1.23144 0.61436
 C741 C 0.62155 1.15639 0.58008
 C742 C 0.61856 1.10376 0.57770
 C743 C 0.64704 1.07417 0.60216
 C744 C 0.67712 1.09663 0.62958
 H745 H 0.72287 1.14716 0.68381
 H746 H 0.62792 1.25522 0.59552
 H747 H 0.59855 1.17925 0.56183
 H748 H 0.69798 1.07294 0.64872
 H749 H 0.66966 1.29313 0.65020
 H750 H 0.64450 1.03358 0.60096
 C751 C 0.81943 0.26982 0.13655
 C752 C 0.80135 0.30007 0.16653
 C753 C 0.80962 0.35216 0.16493
 C754 C 0.83606 0.37352 0.13480
 C755 C 0.85434 0.34280 0.10502
 C756 C 0.84486 0.29105 0.10579
 C757 C 0.88475 0.36386 0.07673
 C758 C 0.89880 0.41456 0.07936
 C759 C 0.87924 0.44476 0.10852
 C760 C 0.84732 0.42477 0.13551
 H761 H 0.79838 0.37623 0.18829
 H762 H 0.85898 0.26669 0.08350
 H763 H 0.90080 0.34007 0.05486
 H764 H 0.83380 0.44879 0.15825
 H765 H 0.81508 0.22943 0.13730
 H766 H 0.89071 0.48341 0.11159
 C767 C 0.28707 0.86886 0.66982
 C768 C 0.29274 0.81581 0.67040
 C769 C 0.32148 0.79383 0.64120
 C770 C 0.34529 0.82464 0.61363
 C771 C 0.34049 0.87754 0.61568
 C772 C 0.31033 0.89887 0.64316
 C773 C 0.36753 0.90890 0.59138
 C774 C 0.39915 0.88859 0.56408
 C775 C 0.40187 0.83602 0.56015
 C776 C 0.37537 0.80427 0.58485
 H777 H 0.32658 0.75350 0.64068
 H778 H 0.30571 0.93926 0.64482
 H779 H 0.36549 0.94938 0.59469
 H780 H 0.37966 0.76398 0.58225
 H781 H 0.26526 0.88857 0.69080
 H782 H 0.42671 0.81952 0.53952
 C783 C 0.25802 1.14133 -0.15098
 C784 C 0.28331 1.17606 -0.17387
 C785 C 0.33449 1.18078 -0.16867
 C786 C 0.35959 1.15305 -0.14118
 C787 C 0.33416 1.11773 -0.11880
 C788 C 0.28324 1.11227 -0.12377
 C789 C 0.36031 1.08889 -0.09195
 C790 C 0.41106 1.09658 -0.08657
 C791 C 0.43538 1.13273 -0.10855
 C792 C 0.41004 1.16024 -0.13600
 H793 H 0.35578 1.20593 -0.18635
 H794 H 0.26299 1.08538 -0.10677
 H795 H 0.34108 1.06163 -0.07452
 H796 H 0.42984 1.18762 -0.15292
 H797 H 0.21905 1.13582 -0.15464
 H798 H 0.47415 1.13950 -0.10460
 C799 C 0.75723 0.64833 0.35218
 C800 C 0.78425 0.67765 0.32627
 C801 C 0.83556 0.68013 0.33098
 C802 C 0.85926 0.65504 0.36064
 C803 C 0.83198 0.62603 0.38673
 C804 C 0.78083 0.62297 0.38227
 C805 C 0.85660 0.60056 0.41640
 C806 C 0.90805 0.60400 0.41986
 C807 C 0.93429 0.63318 0.39345
 C808 C 0.91018 0.65849 0.36425
 H809 H 0.85788 0.70194 0.31154
 H810 H 0.75915 0.60062 0.40182
 H811 H 0.83591 0.57812 0.43656
 H812 H 0.93149 0.68075 0.34435
 H813 H 0.71807 0.64435 0.34896
 H814 H 0.97371 0.63660 0.39538
 C815 C 0.71082 1.22246 0.13315
 C816 C 0.72119 1.19636 0.16718
 C817 C 0.70809 1.14516 0.16944
 C818 C 0.68260 1.12160 0.13955
 C819 C 0.67034 1.14919 0.10651
 C820 C 0.68559 1.19921 0.10322
 C821 C 0.64237 1.12654 0.07759
 C822 C 0.62704 1.07631 0.08098
 C823 C 0.64057 1.04870 0.11346
 C824 C 0.66790 1.07125 0.14263
 H825 H 0.71574 1.12376 0.19505
 H826 H 0.67676 1.22085 0.07794
 H827 H 0.63272 1.14798 0.05236
 H828 H 0.67716 1.04946 0.16774
 H829 H 0.71976 1.26180 0.13021
 H830 H 0.62941 1.00986 0.11652
 C831 C 1.13968 0.72479 0.67693
 C832 C 1.19100 0.71741 0.67696
 C833 C 1.21118 0.68427 0.64996
 C834 C 1.18058 0.65836 0.62417
 C835 C 1.12931 0.66613 0.62494
 C836 C 1.10945 0.69993 0.65112
 C837 C 1.09855 0.63978 0.59971
 C838 C 1.11845 0.60574 0.57346
 C839 C 1.16948 0.59814 0.57288
 C840 C 1.20021 0.62415 0.59795
 H841 H 1.25029 0.67765 0.64961
 H842 H 1.07035 0.70657 0.65213
 H843 H 1.05938 0.64614 0.60025
 H844 H 1.23928 0.61744 0.59683
 H845 H 1.12218 0.74980 0.69715
 H846 H 1.18587 0.57206 0.55283
 C847 C 0.73716 0.81888 -0.15339
 C848 C 0.70788 0.78491 -0.17422
 C849 C 0.65763 0.78166 -0.16516
 C850 C 0.63687 0.81265 -0.13698
 C851 C 0.66630 0.84838 -0.11784
 C852 C 0.71657 0.85041 -0.12566
 C853 C 0.64485 0.88164 -0.09144
 C854 C 0.59465 0.87834 -0.08292
 C855 C 0.56614 0.84135 -0.10095
 C856 C 0.58686 0.80928 -0.12822
 H857 H 0.63401 0.75630 -0.18094
 H858 H 0.73983 0.87718 -0.11093
 H859 H 0.66734 0.90928 -0.07684
 H860 H 0.56383 0.78172 -0.14233
 H861 H 0.77574 0.82295 -0.15962
 H862 H 0.52767 0.83761 -0.09416
 C863 C 1.14453 0.27688 0.31712
 C864 C 1.19599 0.28419 0.31689
 C865 C 1.21643 0.31619 0.34473
 C866 C 1.18588 0.34043 0.37172
 C867 C 1.13464 0.33223 0.37094
 C868 C 1.11461 0.30009 0.34377
 C869 C 1.10384 0.35639 0.39721
 C870 C 1.12327 0.38895 0.42466
 C871 C 1.17427 0.39708 0.42554
 C872 C 1.20526 0.37311 0.39931
 H873 H 1.25555 0.32283 0.34505
 H874 H 1.07552 0.29321 0.34280
 H875 H 1.06480 0.34943 0.39649
 H876 H 1.24428 0.38018 0.40063
 H877 H 1.12643 0.25271 0.29663
 H878 H 1.19032 0.42208 0.44657
 C879 C 0.26692 0.82355 0.14337
 C880 C 0.29011 0.82085 0.17921
 C881 C 0.33423 0.84786 0.18446
 C882 C 0.35535 0.87513 0.15449
 C883 C 0.33265 0.87529 0.11824
 C884 C 0.28827 0.84979 0.11306
 C885 C 0.35515 0.90034 0.08771
 C886 C 0.39960 0.92577 0.09324
 C887 C 0.42122 0.92700 0.12952
 C888 C 0.39926 0.90171 0.16004
 H889 H 0.35254 0.84806 0.21193
 H890 H 0.27006 0.85005 0.08552
 H891 H 0.33880 0.89921 0.05943
 H892 H 0.41705 0.90211 0.18775
 H893 H 0.23272 0.80487 0.13820
 H894 H 0.45591 0.94594 0.13383
 C895 C 0.76334 0.35176 0.65130
 C896 C 0.79041 0.32119 0.67628
 C897 C 0.84119 0.31663 0.67028
 C898 C 0.86405 0.33958 0.63919
 C899 C 0.83652 0.36935 0.61376
 C900 C 0.78614 0.37547 0.62022
 C901 C 0.86009 0.39264 0.58267
 C902 C 0.91073 0.38614 0.57696
 C903 C 0.93727 0.35580 0.60238
 C904 C 0.91422 0.33288 0.63322
 H905 H 0.86333 0.29424 0.68944
 H906 H 0.76442 0.39865 0.60132
 H907 H 0.83927 0.41598 0.56323
 H908 H 0.93570 0.30981 0.65240
 H909 H 0.72472 0.35792 0.65591
 H910 H 0.97607 0.34960 0.59838
 C911 C 1.12065 1.15578 0.71337
 C912 C 1.16142 1.18229 0.69947
 C913 C 1.16620 1.18871 0.65955
 C914 C 1.13295 1.16717 0.63404
 C915 C 1.09254 1.14015 0.64829
 C916 C 1.08630 1.13521 0.68801
 C917 C 1.06067 1.11636 0.62255
 C918 C 1.07061 1.11673 0.58299
 C919 C 1.11038 1.14444 0.56909
 C920 C 1.14076 1.17048 0.59441
 H921 H 1.19675 1.20924 0.64776
 H922 H 1.05547 1.11446 0.69943
 H923 H 1.03060 1.09406 0.63352
 H924 H 1.17181 1.19105 0.58314
 H925 H 1.11521 1.15085 0.74382
 H926 H 1.11888 1.14443 0.53880
 C927 C 0.62433 0.65095 0.21035
 C928 C 0.66632 0.67582 0.19684
 C929 C 0.67208 0.68092 0.15680
 C930 C 0.63780 0.66137 0.13102
 C931 C 0.59604 0.63633 0.14494
 C932 C 0.58952 0.63146 0.18470
 C933 C 0.56293 0.61464 0.11882
 C934 C 0.57269 0.61540 0.07915
 C935 C 0.61372 0.64165 0.06573
 C936 C 0.64549 0.66533 0.09141
 H937 H 0.70332 0.70044 0.14511
 H938 H 0.55770 0.61220 0.19595
 H939 H 0.53200 0.59340 0.12954
 H940 H 0.67747 0.68455 0.08035
 H941 H 0.61803 0.64695 0.24078
 H942 H 0.62242 0.64174 0.03549
 C943 C 1.18767 0.88138 0.30919
 C944 C 1.17719 0.83007 0.30423
 C945 C 1.13808 0.80886 0.32493
 C946 C 1.11572 0.83601 0.35457
 C947 C 1.13120 0.88567 0.36213
 C948 C 1.16564 0.90867 0.33839
 C949 C 1.11122 0.91211 0.39278
 C950 C 1.07426 0.89070 0.41520
 C951 C 1.05748 0.84205 0.40701
 C952 C 1.07886 0.81436 0.37725
 H953 H 1.12674 0.77052 0.31947
 H954 H 1.17612 0.94755 0.34277
 H955 H 1.12275 0.95055 0.39804
 H956 H 1.06622 0.77645 0.37167
 H957 H 1.21394 0.90047 0.29128
 H958 H 1.02781 0.82582 0.42341
 C959 C 0.63222 0.35435 -0.20954
 C960 C 0.67256 0.32699 -0.19630
 C961 C 0.67825 0.32028 -0.15634
 C962 C 0.64560 0.34087 -0.13026
 C963 C 0.60554 0.36844 -0.14390
 C964 C 0.59876 0.37477 -0.18349
 C965 C 0.57437 0.39133 -0.11764
 C966 C 0.58489 0.39040 -0.07808
 C967 C 0.62319 0.36055 -0.06459
 C968 C 0.65312 0.33523 -0.09067
 H969 H 0.70768 0.29787 -0.14491
 H970 H 0.56797 0.39605 -0.19426
 H971 H 0.54414 0.41346 -0.12833
 H972 H 0.68373 0.31359 -0.07999
 H973 H 0.62612 0.35938 -0.23990
 H974 H 0.63189 0.35946 -0.03436
 C975 C 0.87101 1.16421 0.28314
 C976 C 0.83313 1.19501 0.29667
 C977 C 0.82564 1.19900 0.33652
 C978 C 0.85187 1.17006 0.36210
 C979 C 0.88920 1.13854 0.34834
 C980 C 0.89940 1.13662 0.30892
 C981 C 0.91404 1.10794 0.37411
 C982 C 0.89994 1.10667 0.41284
 C983 C 0.86273 1.13797 0.42627
 C984 C 0.83941 1.17044 0.40109
 H985 H 0.79742 1.22283 0.34821
 H986 H 0.92805 1.11244 0.29798
 H987 H 0.94240 1.08298 0.36366
 H988 H 0.81040 1.19439 0.41175
 H989 H 0.87810 1.16070 0.25277
 H990 H 0.85164 1.13700 0.45603
 C991 C 0.34517 0.65097 -0.21971
 C992 C 0.31705 0.69025 -0.20439
 C993 C 0.31572 0.69624 -0.16420
 C994 C 0.34063 0.66422 -0.13987
 C995 C 0.36818 0.62456 -0.15533
 C996 C 0.37067 0.61835 -0.19533
 C997 C 0.39183 0.59149 -0.13038
 C998 C 0.38763 0.59760 -0.09031
 C999 C 0.36069 0.63784 -0.07547
 C1000 C 0.33738 0.67102 -0.10012
 H1001 H 0.29428 0.72545 -0.15095
 H1002 H 0.39178 0.58796 -0.20768
 H1003 H 0.41271 0.56052 -0.14217
 H1004 H 0.31625 0.70165 -0.08809
 H1005 H 0.34698 0.64508 -0.25034
 H1006 H 0.35714 0.64327 -0.04486
 C1007 C 0.78467 0.85801 0.68754
 C1008 C 0.80729 0.81182 0.69630
 C1009 C 0.85095 0.79917 0.67741
 C1010 C 0.86853 0.82908 0.64740
 C1011 C 0.84282 0.87297 0.63701
 C1012 C 0.80183 0.88782 0.65790
 C1013 C 0.85926 0.90232 0.60659
 C1014 C 0.90254 0.88993 0.58750
 C1015 C 0.92859 0.84673 0.59806
 C1016 C 0.91120 0.81592 0.62743
 H1017 H 0.87083 0.76591 0.68536
 H1018 H 0.78242 0.92203 0.65086
 H1019 H 0.84008 0.93666 0.59940
 H1020 H 0.93160 0.78258 0.63509
 H1021 H 0.75164 0.87012 0.70187
 H1022 H 0.96282 0.83751 0.58408
 C1023 C 0.35912 0.33416 0.20928
 C1024 C 0.32255 0.30254 0.19431
 C1025 C 0.31825 0.29880 0.15405
 C1026 C 0.34756 0.32710 0.12947
 C1027 C 0.38392 0.35880 0.14478
 C1028 C 0.38975 0.36176 0.18475
 C1029 C 0.41245 0.38811 0.11981
 C1030 C 0.40319 0.38769 0.08006
 C1031 C 0.36686 0.35602 0.06530
 C1032 C 0.33993 0.32511 0.08973
 H1033 H 0.29158 0.27410 0.14115
 H1034 H 0.41746 0.38605 0.19705
 H1035 H 0.43970 0.41355 0.13144
 H1036 H 0.31184 0.30103 0.07769
 H1037 H 0.36413 0.33757 0.23991
 H1038 H 0.35881 0.35588 0.03496
   
