data_POSCAR
  _audit_creation_date              2014-09-24
  _audit_creation_method            'ToBaCCo'
  _symmetry_space_group_name_H-M    'P1'
  _symmetry_Int_Tables_number       1
  _symmetry_cell_setting            triclinic
  loop_
  _symmetry_equiv_pos_as_xyz
 x,y,z
_cell_length_a 25.1293
_cell_length_b 25.1826
_cell_length_c 26.0237
_cell_angle_alpha 90.122300
_cell_angle_beta 89.669900
_cell_angle_gamma 89.990100
loop_
  _atom_site_label
  _atom_site_type_symbol
  _atom_site_fract_x
  _atom_site_fract_y
  _atom_site_fract_z
C1 C 0.32459 0.38852 1.38608
 N2 N 0.35668 0.35305 1.40971
 C3 C 0.40298 0.33631 1.38802
 N4 N 0.41654 0.35487 1.34061
 C5 C 0.38558 0.39149 1.31663
 N6 N 0.34051 0.40910 1.34024
 C7 C 1.17747 0.61877 0.89061
 N8 N 1.15738 0.59931 0.84601
 C9 C 1.11570 0.62335 0.82253
 N10 N 1.09471 0.66834 0.84345
 C11 C 1.11364 0.68833 0.88847
 N12 N 1.15585 0.66385 0.91057
 C13 C 0.67938 -0.10546 0.11888
 N14 N 0.64921 -0.14452 0.09773
 C15 C 0.60278 -0.16099 0.11982
 N16 N 0.58704 -0.13712 0.16410
 C17 C 0.61487 -0.09611 0.18444
 N18 N 0.66109 -0.08058 0.16194
 C19 C -0.17279 1.12234 -0.37966
 N20 N -0.15367 1.16827 -0.39919
 C21 C -0.11823 1.19872 -0.37324
 N22 N -0.10071 1.18113 -0.32669
 C23 C -0.11977 1.13499 -0.30649
 N24 N -0.15576 1.10599 -0.33314
 C25 C 0.67584 0.62623 0.61602
 N26 N 0.64991 0.66644 0.59221
 C27 C 0.60463 0.68749 0.61245
 N28 N 0.58658 0.66858 0.65829
 C29 C 0.61153 0.62781 0.68231
 N30 N 0.65683 0.60755 0.66147
 C31 C 0.83194 0.40948 0.11398
 N32 N 0.85693 0.36723 0.09173
 C33 C 0.89952 0.34347 0.11403
 N34 N 0.91535 0.36112 0.16091
 C35 C 0.88985 0.40185 0.18479
 N36 N 0.84858 0.42613 0.16097
 C37 C 0.33335 0.11827 0.89704
 N38 N 0.34864 0.09798 0.85095
 C39 C 0.38914 0.12021 0.82385
 N40 N 0.41534 0.16269 0.84368
 C41 C 0.40048 0.18320 0.88990
 N42 N 0.35873 0.16166 0.91584
 C43 C 0.17548 0.90993 0.39263
 N44 N 0.15833 0.93161 0.34798
 C45 C 0.12226 0.90625 0.31830
 N46 N 0.10236 0.85891 0.33383
 C47 C 0.11954 0.83545 0.37761
 N48 N 0.15609 0.86154 0.40681
 Zn49 Zn -0.06085 1.04866 -0.00722
 Zn50 Zn 0.03431 0.99970 -0.05807
 Zn51 Zn 0.04473 1.05694 0.04297
 Zn52 Zn -0.01155 0.95230 0.03687
 O53 O 0.00186 1.01441 0.00362
 O54 O -0.07216 1.06003 -0.07341
 O55 O 0.09952 1.02735 -0.06158
 O56 O 0.01648 1.12139 0.05587
 O57 O -0.00199 1.02483 -0.11227
 O58 O -0.06286 1.11333 0.02035
 O59 O 0.10808 1.06868 0.01321
 O60 O 0.01885 0.94987 0.09852
 O61 O 0.04535 0.92998 -0.06873
 O62 O 0.05988 1.02758 0.10377
 O63 O 0.01333 0.89554 0.00315
 O64 O -0.08074 0.94070 0.04753
 O65 O -0.11798 1.01344 0.01652
 C66 C -0.04620 1.04926 -0.11398
 C67 C 0.12697 1.05378 -0.02977
 C68 C -0.02848 1.14071 0.04398
 C69 C 0.04806 0.98254 0.12245
 C70 C 0.03706 0.89036 -0.03971
 C71 C -0.12165 0.96836 0.03791
 Zn72 Zn 0.48176 -0.04535 0.46769
 Zn73 Zn 0.53345 -0.00637 0.56307
 Zn74 Zn 0.54819 0.05351 0.46462
 Zn75 Zn 0.44289 0.05298 0.51810
 O76 O 0.50170 0.01373 0.50328
 O77 O 0.50193 -0.10585 0.49777
 O78 O 0.59970 0.01803 0.56784
 O79 O 0.56193 0.02401 0.40311
 O80 O 0.54007 -0.07658 0.56879
 O81 O 0.51088 -0.04751 0.40527
 O82 O 0.61132 0.06215 0.49540
 O83 O 0.44621 0.11811 0.49205
 O84 O 0.49876 0.01617 0.61960
 O85 O 0.52403 0.11944 0.45187
 O86 O 0.43258 0.06141 0.58522
 O87 O 0.38274 0.02447 0.49440
 O88 O 0.41148 -0.04969 0.45804
 C89 C 0.52702 -0.11427 0.53910
 C90 C 0.62886 0.04541 0.53803
 C91 C 0.54359 -0.01756 0.38195
 C92 C 0.48124 0.14226 0.46579
 C93 C 0.45694 0.04409 0.62424
 C94 C 0.37401 -0.01809 0.46979
 Zn95 Zn 0.94258 0.48320 0.48792
 Zn96 Zn 1.04589 0.47319 0.54375
 Zn97 Zn 1.03944 0.52782 0.44130
 Zn98 Zn 0.99103 0.57923 0.53398
 O99 O 1.00502 0.51585 0.50200
 O100 O 0.93815 0.42088 0.51785
 O101 O 1.10877 0.45649 0.51424
 O102 O 1.00488 0.50355 0.38583
 O103 O 1.01407 0.40990 0.55841
 O104 O 0.93242 0.46964 0.42131
 O105 O 1.10241 0.49569 0.43857
 O106 O 1.01424 0.63579 0.49780
 O107 O 1.06043 0.50463 0.60465
 O108 O 1.05093 0.59646 0.43006
 O109 O 1.02115 0.58299 0.59579
 O110 O 0.92133 0.58898 0.54738
 O111 O 0.88607 0.51793 0.51114
 C112 C 0.96871 0.39255 0.54475
 C113 C 1.12744 0.46635 0.46978
 C114 C 0.96118 0.47884 0.38219
 C115 C 1.03852 0.63811 0.45487
 C116 C 1.04758 0.55007 0.62224
 C117 C 0.88137 0.55993 0.53754
 Zn118 Zn 0.56320 0.55061 0.98903
 Zn119 Zn 0.52298 0.45004 1.03501
 Zn120 Zn 0.45731 0.54984 1.04263
 Zn121 Zn 0.47154 0.49503 0.94202
 O122 O 0.50370 0.51137 1.00241
 O123 O 0.62312 0.51980 1.01105
 O124 O 0.49142 0.44371 1.09648
 O125 O 0.48292 0.61452 1.05894
 O126 O 0.59309 0.44571 1.04659
 O127 O 0.56151 0.61293 1.02113
 O128 O 0.44242 0.51681 1.10220
 O129 O 0.40523 0.51929 0.93835
 O130 O 0.50445 0.39128 1.00018
 O131 O 0.39376 0.56049 1.01259
 O132 O 0.46578 0.42553 0.93156
 O133 O 0.50450 0.52240 0.88756
 O134 O 0.57182 0.56601 0.92193
 C135 C 0.63097 0.47715 1.03576
 C136 C 0.45824 0.47279 1.12038
 C137 C 0.52726 0.63646 1.04904
 C138 C 0.37613 0.54521 0.96937
 C139 C 0.47996 0.38584 0.95798
 C140 C 0.54428 0.55298 0.88310
 C141 C 1.24341 0.36995 0.44027
 C142 C 1.27538 0.40382 0.40831
 C143 C 1.25677 0.45515 0.39765
 C144 C 1.21022 0.47447 0.41959
 C145 C 1.17902 0.44325 0.45245
 C146 C 1.19515 0.39010 0.46276
 C147 C 1.25507 0.31518 0.44666
 C148 C 1.22311 0.28258 0.47694
 C149 C 1.17741 0.30261 0.49982
 C150 C 1.16284 0.35525 0.49209
 H151 H 1.28708 0.29543 0.42674
 H152 H 1.23309 0.24103 0.48143
 H153 H 1.15210 0.27671 0.52240
 H154 H 1.12519 0.36701 0.50842
 H155 H 1.27935 0.48179 0.37319
 H156 H 1.19832 0.51472 0.41049
 C157 C 0.23741 0.54063 0.90774
 C158 C 0.22195 0.59491 0.91478
 C159 C 0.25371 0.62723 0.94657
 C160 C 0.30224 0.60961 0.96539
 C161 C 0.32101 0.55873 0.95403
 C162 C 0.28756 0.52280 0.92710
 C163 C 0.20301 0.50245 0.88550
 C164 C 0.21872 0.44975 0.87932
 C165 C 0.26800 0.43304 0.89681
 C166 C 0.30174 0.46873 0.92126
 H167 H 0.16263 0.51149 0.87493
 H168 H 0.19182 0.42136 0.86207
 H169 H 0.27948 0.39178 0.89288
 H170 H 0.33797 0.45273 0.93708
 H171 H 0.24291 0.66809 0.95457
 H172 H 0.32657 0.63713 0.98706
 C173 C -0.23822 0.87488 0.06656
 C174 C -0.27108 0.90949 0.09703
 C175 C -0.25341 0.96184 0.10570
 C176 C -0.20633 0.98066 0.08425
 C177 C -0.17442 0.94801 0.05358
 C178 C -0.19091 0.89532 0.04307
 C179 C -0.24836 0.81970 0.06154
 C180 C -0.21713 0.78769 0.02967
 C181 C -0.17425 0.80916 0.00305
 C182 C -0.16078 0.86228 0.00993
 H183 H -0.27861 0.79953 0.08347
 H184 H -0.22606 0.74580 0.02595
 H185 H -0.15049 0.78423 -0.02208
 H186 H -0.12663 0.87713 -0.01105
 H187 H -0.27671 0.98935 0.12868
 H188 H -0.19400 1.02095 0.09281
 C189 C 0.77611 0.08877 0.54218
 C190 C 0.78110 0.09604 0.59604
 C191 C 0.73881 0.08183 0.62834
 C192 C 0.69092 0.06433 0.60842
 C193 C 0.68334 0.05958 0.55528
 C194 C 0.72707 0.06962 0.52153
 C195 C 0.81932 0.09848 0.50854
 C196 C 0.81450 0.08992 0.45588
 C197 C 0.76725 0.07033 0.43581
 C198 C 0.72415 0.05962 0.46813
 H199 H 0.85759 0.11142 0.52254
 H200 H 0.84801 0.09748 0.43061
 H201 H 0.76423 0.06256 0.39500
 H202 H 0.68956 0.04202 0.45064
 H203 H 0.74171 0.08686 0.66957
 H204 H 0.65870 0.05634 0.63515
 C205 C 0.42933 0.28491 0.46574
 C206 C 0.43287 0.29579 0.41196
 C207 C 0.46309 0.26118 0.38082
 C208 C 0.48135 0.21283 0.39978
 C209 C 0.47091 0.19786 0.45058
 C210 C 0.44772 0.23520 0.48488
 C211 C 0.41059 0.32322 0.50146
 C212 C 0.40669 0.31160 0.55367
 C213 C 0.42297 0.26247 0.57192
 C214 C 0.44407 0.22486 0.53819
 H215 H 0.40092 0.36328 0.49011
 H216 H 0.39201 0.34136 0.58029
 H217 H 0.42066 0.25398 0.61263
 H218 H 0.45901 0.18850 0.55474
 H219 H 0.46859 0.26890 0.34020
 H220 H 0.50057 0.18533 0.37349
 C221 C 0.87885 0.27090 0.55990
 C222 C 0.90032 0.24748 0.60559
 C223 C 0.94428 0.27271 0.62873
 C224 C 0.96723 0.31824 0.60773
 C225 C 0.94914 0.33928 0.56130
 C226 C 0.90730 0.31267 0.53506
 C227 C 0.82904 0.25605 0.53862
 C228 C 0.81368 0.27338 0.49013
 C229 C 0.84651 0.30700 0.46224
 C230 C 0.89252 0.32695 0.48456
 H231 H 0.79984 0.23320 0.55938
 H232 H 0.77617 0.26047 0.47410
 H233 H 0.83546 0.31910 0.42386
 H234 H 0.91655 0.35309 0.46146
 H235 H 0.96147 0.25738 0.66378
 H236 H 0.99911 0.33756 0.62846
 C237 C 0.09943 0.75117 -0.03727
 C238 C 0.09143 0.73520 -0.08961
 C239 C 0.06252 0.76951 -0.12185
 C240 C 0.04565 0.81935 -0.10510
 C241 C 0.05671 0.83722 -0.05544
 C242 C 0.08495 0.80363 -0.02138
 C243 C 0.11892 0.71599 0.00073
 C244 C 0.13074 0.73380 0.05010
 C245 C 0.12252 0.78659 0.06335
 C246 C 0.09954 0.82122 0.02827
 H247 H 0.12330 0.67396 -0.00595
 H248 H 0.14633 0.70640 0.07826
 H249 H 0.13277 0.80050 0.10142
 H250 H 0.09375 0.86181 0.04061
 H251 H 0.05439 0.75887 -0.16139
 H252 H 0.02390 0.84444 -0.13145
 C253 C 0.52808 0.77147 1.12182
 C254 C 0.57524 0.79417 1.09957
 C255 C 0.59882 0.76727 1.05791
 C256 C 0.58136 0.71771 1.04237
 C257 C 0.54032 0.69097 1.06831
 C258 C 0.51360 0.71779 1.10940
 C259 C 0.49409 0.80044 1.15525
 C260 C 0.45256 0.77569 1.18146
 C261 C 0.44340 0.72184 1.17475
 C262 C 0.47327 0.69307 1.13910
 H263 H 0.49715 0.84283 1.16009
 H264 H 0.42754 0.79842 1.20742
 H265 H 0.41216 0.70241 1.19650
 H266 H 0.46444 0.65138 1.13650
 H267 H 0.63264 0.78364 1.03739
 H268 H 0.60174 0.69954 1.01001
 C269 C 0.36401 0.42018 1.22467
 C270 C 0.40108 0.41187 1.26511
 C271 C 0.45505 0.42304 1.25638
 C272 C 0.47259 0.44323 1.20949
 C273 C 0.43671 0.45384 1.16995
 C274 C 0.38193 0.44234 1.17713
 C275 C 0.31005 0.40476 1.22919
 C276 C 0.27438 0.41335 1.18924
 C277 C 0.29164 0.43628 1.14357
 C278 C 0.34490 0.45016 1.13716
 H279 H 0.29482 0.38455 1.26268
 H280 H 0.23319 0.40146 1.19350
 H281 H 0.26380 0.44244 1.11255
 H282 H 0.35669 0.46629 1.10035
 H283 H 0.48403 0.41645 1.28636
 H284 H 0.51467 0.45104 1.20413
 C285 C 0.58948 -0.01687 0.24042
 C286 C 0.59708 -0.07226 0.23343
 C287 C 0.58610 -0.10700 0.27391
 C288 C 0.56910 -0.08802 0.32127
 C289 C 0.56177 -0.03353 0.32991
 C290 C 0.57108 0.00276 0.28896
 C291 C 0.59755 0.01923 0.19965
 C292 C 0.58810 0.07332 0.20642
 C293 C 0.56945 0.09241 0.25335
 C294 C 0.56046 0.05766 0.29411
 H295 H 0.61029 0.00613 0.16198
 H296 H 0.59444 0.10049 0.17479
 H297 H 0.56121 0.13435 0.25802
 H298 H 0.54397 0.07447 0.32889
 H299 H 0.59144 -0.14943 0.26904
 H300 H 0.56205 -0.11644 0.35178
 C301 C -0.14080 1.09703 -0.21880
 C302 C -0.10327 1.11639 -0.25521
 C303 C -0.04886 1.11249 -0.24483
 C304 C -0.03113 1.08891 -0.19968
 C305 C -0.06725 1.06785 -0.16381
 C306 C -0.12269 1.07019 -0.17411
 C307 C -0.19611 1.10438 -0.22548
 C308 C -0.23269 1.08185 -0.19152
 C309 C -0.21506 1.05171 -0.15031
 C310 C -0.16072 1.04574 -0.14155
 H311 H -0.21165 1.12827 -0.25641
 H312 H -0.27492 1.08741 -0.19749
 H313 H -0.24362 1.03316 -0.12474
 H314 H -0.14920 1.02096 -0.10967
 H315 H -0.01979 1.12699 -0.27233
 H316 H 0.01126 1.08779 -0.19236
 C317 C 1.03978 0.59876 0.76177
 C318 C 1.09496 0.60147 0.77341
 C319 C 1.13206 0.58292 0.73701
 C320 C 1.11594 0.56481 0.68889
 C321 C 1.06220 0.56510 0.67531
 C322 C 1.02341 0.58111 0.71210
 C323 C 1.00027 0.61121 0.79878
 C324 C 0.94637 0.60849 0.78666
 C325 C 0.93053 0.59233 0.73799
 C326 C 0.96843 0.57824 0.70114
 H327 H 1.01013 0.62174 0.83780
 H328 H 0.91669 0.61829 0.81546
 H329 H 0.88859 0.58978 0.72901
 H330 H 0.95404 0.56410 0.66450
 H331 H 1.17424 0.58379 0.74534
 H332 H 1.14589 0.55215 0.66136
 C333 C 0.74091 0.55130 0.59552
 C334 C 0.72649 0.60581 0.59423
 C335 C 0.76250 0.64291 0.57395
 C336 C 0.81244 0.62736 0.55619
 C337 C 0.82834 0.57419 0.55836
 C338 C 0.79306 0.53570 0.57964
 C339 C 0.70456 0.51168 0.61145
 C340 C 0.72038 0.45885 0.61575
 C341 C 0.77248 0.44434 0.60438
 C342 C 0.80861 0.48217 0.58667
 H343 H 0.66340 0.52066 0.61989
 H344 H 0.69215 0.42909 0.62841
 H345 H 0.78492 0.40346 0.60894
 H346 H 0.84880 0.46880 0.57955
 H347 H 0.75224 0.68468 0.57258
 H348 H 0.83891 0.65720 0.54040
 C349 C 0.76681 0.48412 1.10206
 C350 C 0.78642 0.43206 1.09057
 C351 C 0.75677 0.39989 1.05680
 C352 C 0.70696 0.41547 1.03933
 C353 C 0.68515 0.46430 1.05366
 C354 C 0.71503 0.49937 1.08500
 C355 C 0.79807 0.52260 1.12775
 C356 C 0.77716 0.57209 1.14090
 C357 C 0.72514 0.58494 1.12812
 C358 C 0.69432 0.54923 1.10024
 H359 H 0.83951 0.51613 1.13629
 H360 H 0.80159 0.60076 1.16093
 H361 H 0.70891 0.62321 1.13895
 H362 H 0.65429 0.56134 1.09081
 H363 H 0.77047 0.36062 1.04596
 H364 H 0.68476 0.38860 1.01492
 C365 C 0.27129 1.04330 -0.07591
 C366 C 0.28463 1.09808 -0.07741
 C367 C 0.24835 1.13552 -0.05800
 C368 C 0.19812 1.12015 -0.04093
 C369 C 0.18245 1.06695 -0.04314
 C370 C 0.21958 1.02765 -0.05900
 C371 C 0.30855 1.00358 -0.08951
 C372 C 0.29477 0.94998 -0.08783
 C373 C 0.24413 0.93476 -0.07183
 C374 C 0.20691 0.97299 -0.05712
 H375 H 0.34901 1.01325 -0.10022
 H376 H 0.32379 0.92004 -0.09836
 H377 H 0.23386 0.89305 -0.07006
 H378 H 0.16869 0.95912 -0.04335
 H379 H 0.25790 1.17748 -0.05835
 H380 H 0.17037 1.15040 -0.02806
 C381 C 0.23342 -0.01214 0.41331
 C382 C 0.21809 -0.06642 0.41972
 C383 C 0.25100 -0.09960 0.44921
 C384 C 0.30072 -0.08263 0.46562
 C385 C 0.31916 -0.03158 0.45437
 C386 C 0.28524 0.00464 0.42870
 C387 C 0.19805 0.02646 0.39362
 C388 C 0.21488 0.07830 0.38433
 C389 C 0.26692 0.09314 0.39493
 C390 C 0.30186 0.05692 0.41700
 H391 H 0.15659 0.01776 0.38680
 H392 H 0.18737 0.10711 0.36882
 H393 H 0.28004 0.13323 0.38686
 H394 H 0.34178 0.07059 0.42454
 H395 H 0.24040 -0.14060 0.45655
 H396 H 0.32578 -0.11031 0.48620
 C397 C 0.58703 -0.25429 0.53616
 C398 C 0.57915 -0.26877 0.58883
 C399 C 0.54778 -0.23526 0.62007
 C400 C 0.53034 -0.18622 0.60261
 C401 C 0.54254 -0.16887 0.55302
 C402 C 0.57074 -0.20296 0.51899
 C403 C 0.60859 -0.28997 0.49939
 C404 C 0.61934 -0.27373 0.44923
 C405 C 0.60820 -0.22206 0.43415
 C406 C 0.58395 -0.18695 0.46842
 H407 H 0.61555 -0.33128 0.50796
 H408 H 0.63633 -0.30148 0.42186
 H409 H 0.61739 -0.20940 0.39537
 H410 H 0.57583 -0.14739 0.45459
 H411 H 0.53926 -0.24513 0.65978
 H412 H 0.50823 -0.16080 0.62875
 C413 C 1.07424 0.74808 0.35942
 C414 C 1.09951 0.78529 0.39331
 C415 C 1.10289 0.77223 0.44586
 C416 C 1.08079 0.72577 0.46532
 C417 C 1.05426 0.69015 0.43330
 C418 C 1.04898 0.70201 0.38034
 C419 C 1.07596 0.75295 0.30511
 C420 C 1.04789 0.71820 0.27351
 C421 C 1.01850 0.67700 0.29476
 C422 C 1.01929 0.66853 0.34754
 H423 H 1.10055 0.78165 0.28564
 H424 H 1.04922 0.72316 0.23220
 H425 H 0.99609 0.65063 0.27011
 H426 H 0.99619 0.63563 0.36230
 H427 H 1.12201 0.79868 0.47297
 H428 H 1.08551 0.71700 0.50579
 C429 C -0.08077 1.28386 0.03852
 C430 C -0.07600 1.29812 0.09159
 C431 C -0.04784 1.26345 0.12416
 C432 C -0.03111 1.21365 0.10746
 C433 C -0.04144 1.19636 0.05754
 C434 C -0.06441 1.23215 0.02187
 C435 C -0.09800 1.32044 0.00078
 C436 C -0.10300 1.30547 -0.05054
 C437 C -0.08916 1.25454 -0.06611
 C438 C -0.06918 1.21847 -0.03068
 H439 H -0.10530 1.36171 0.00934
 H440 H -0.11652 1.33402 -0.07864
 H441 H -0.09233 1.24343 -0.10619
 H442 H -0.05602 1.18053 -0.04548
 H443 H -0.04141 1.27309 0.16423
 H444 H -0.01220 1.18731 0.13471
 C445 C 0.47965 0.23951 0.91688
 C446 C 0.42430 0.23306 0.90846
 C447 C 0.38986 0.27592 0.91656
 C448 C 0.40924 0.32499 0.93189
 C449 C 0.46360 0.33262 0.94066
 C450 C 0.49952 0.28985 0.93325
 C451 C 0.51558 0.19695 0.91023
 C452 C 0.56994 0.20412 0.91837
 C453 C 0.58944 0.25353 0.93328
 C454 C 0.55474 0.29614 0.94066
 H455 H 0.50206 0.15784 0.89906
 H456 H 0.59709 0.17116 0.91301
 H457 H 0.63171 0.25885 0.93922
 H458 H 0.57160 0.33392 0.95185
 H459 H 0.34751 0.27162 0.91008
 H460 H 0.38131 0.35731 0.93756
 C461 C 0.53606 0.60231 0.74372
 C462 C 0.59122 0.60727 0.73216
 C463 C 0.62858 0.59440 0.76998
 C464 C 0.61256 0.57768 0.81860
 C465 C 0.55855 0.57386 0.83155
 C466 C 0.51964 0.58822 0.79450
 C467 C 0.49663 0.60999 0.70587
 C468 C 0.44274 0.60896 0.71869
 C469 C 0.42691 0.60019 0.76918
 C470 C 0.46473 0.58996 0.80682
 H471 H 0.50661 0.61582 0.66589
 H472 H 0.41312 0.61550 0.68933
 H473 H 0.38503 0.60080 0.77920
 H474 H 0.45017 0.58456 0.84556
 H475 H 0.67081 0.59777 0.76202
 H476 H 0.64281 0.56722 0.84631
 C477 C 0.36482 0.08518 0.73508
 C478 C 0.40351 0.09950 0.77234
 C479 C 0.45762 0.09306 0.76075
 C480 C 0.47402 0.07306 0.71336
 C481 C 0.43684 0.05838 0.67604
 C482 C 0.38163 0.06222 0.68755
 C483 C 0.30984 0.09441 0.74310
 C484 C 0.27235 0.07721 0.70750
 C485 C 0.28861 0.05082 0.66318
 C486 C 0.34259 0.04333 0.65310
 H487 H 0.29499 0.11577 0.77618
 H488 H 0.23041 0.08412 0.71453
 H489 H 0.25926 0.03653 0.63618
 H490 H 0.35308 0.02184 0.61851
 H491 H 0.48761 0.10381 0.78866
 H492 H 0.51629 0.07035 0.70529
 C493 C 0.14377 0.94596 0.23064
 C494 C 0.10633 0.92844 0.26817
 C495 C 0.05195 0.92940 0.25684
 C496 C 0.03397 0.94803 0.20981
 C497 C 0.06973 0.96665 0.17262
 C498 C 0.12520 0.96561 0.18256
 C499 C 0.19929 0.94193 0.23851
 C500 C 0.23536 0.95834 0.20090
 C501 C 0.21720 0.97794 0.15432
 C502 C 0.16281 0.98110 0.14482
 H503 H 0.21578 0.92499 0.27297
 H504 H 0.27770 0.95506 0.20766
 H505 H 0.24545 0.98996 0.12500
 H506 H 0.15093 0.99491 0.10733
 H507 H 0.02301 0.91543 0.28474
 H508 H -0.00840 0.94781 0.20228
 C509 C 0.91874 0.38282 0.27646
 C510 C 0.90670 0.41934 0.23660
 C511 C 0.91282 0.47396 0.24561
 C512 C 0.93141 0.49277 0.29266
 C513 C 0.94458 0.45746 0.33199
 C514 C 0.93978 0.40205 0.32366
 C515 C 0.90934 0.32770 0.27118
 C516 C 0.92411 0.29232 0.30969
 C517 C 0.94830 0.31091 0.35415
 C518 C 0.95614 0.36520 0.36122
 H519 H 0.88971 0.31129 0.23794
 H520 H 0.91698 0.25021 0.30489
 H521 H 0.96050 0.28320 0.38357
 H522 H 0.97551 0.37802 0.39611
 H523 H 0.90374 0.50236 0.21569
 H524 H 0.93517 0.53521 0.29858
   
