data_POSCAR
  _audit_creation_date              2014-09-24
  _audit_creation_method            'ToBaCCo'
  _symmetry_space_group_name_H-M    'P1'
  _symmetry_Int_Tables_number       1
  _symmetry_cell_setting            triclinic
  loop_
  _symmetry_equiv_pos_as_xyz
 x,y,z
_cell_length_a 37.9835
_cell_length_b 45.5009
_cell_length_c 20.9580
_cell_angle_alpha 90.066000
_cell_angle_beta 89.804800
_cell_angle_gamma 120.121200
loop_
  _atom_site_label
  _atom_site_type_symbol
  _atom_site_fract_x
  _atom_site_fract_y
  _atom_site_fract_z
C1 C 0.48402 0.90623 0.50488
 C2 C 0.49678 0.92508 0.56202
 C3 C 0.51151 0.96035 0.55857
 C4 C 0.50896 0.97601 0.50212
 C5 C 0.49370 0.95585 0.44696
 C6 C 0.48246 0.92141 0.44761
 C7 C 0.52071 1.01285 0.50191
 C8 C 0.53306 1.03231 0.44531
 C9 C 0.54135 1.06626 0.44428
 C10 C 0.54022 1.08138 0.50240
 C11 C 0.53084 1.06327 0.55985
 C12 C 0.51924 1.02881 0.55869
 H13 H 0.47186 0.87904 0.50500
 H14 H 0.52578 0.97577 0.60016
 H15 H 0.49001 0.96652 0.40315
 H16 H 0.53477 1.02066 0.40142
 H17 H 0.54977 1.10816 0.50393
 H18 H 0.50906 1.01472 0.60288
 C19 C 0.09303 0.57112 0.49858
 C20 C 0.07358 0.55661 0.55705
 C21 C 0.03158 0.53205 0.55599
 C22 C 0.00868 0.52355 0.49905
 C23 C 0.02926 0.53982 0.44235
 C24 C 0.07139 0.56182 0.44122
 C25 C -0.03591 0.49688 0.49791
 C26 C -0.05476 0.48023 0.44045
 C27 C -0.09640 0.45554 0.43755
 C28 C -0.11858 0.44511 0.49500
 C29 C -0.10070 0.46077 0.55301
 C30 C -0.06000 0.48726 0.55381
 H31 H 0.12577 0.58742 0.49645
 H32 H 0.01661 0.52008 0.60000
 H33 H 0.01323 0.53517 0.39768
 H34 H -0.03690 0.48514 0.39754
 H35 H -0.15075 0.42648 0.49466
 H36 H -0.04755 0.49986 0.59863
 C37 C 0.48804 0.57525 0.49852
 C38 C 0.50141 0.56948 0.55720
 C39 C 0.52289 0.55159 0.55694
 C40 C 0.52780 0.53679 0.50054
 C41 C 0.51415 0.54360 0.44273
 C42 C 0.49566 0.56356 0.44140
 C43 C 0.54528 0.51333 0.50241
 C44 C 0.55730 0.50358 0.44584
 C45 C 0.56907 0.47883 0.44681
 C46 C 0.57185 0.46529 0.50515
 C47 C 0.56264 0.47591 0.56211
 C48 C 0.54849 0.49902 0.56058
 H49 H 0.47406 0.59094 0.49632
 H50 H 0.53394 0.54795 0.60168
 H51 H 0.51683 0.53326 0.39788
 H52 H 0.55700 0.51431 0.40016
 H53 H 0.58227 0.44705 0.50640
 H54 H 0.53924 0.50460 0.60551
 O55 O 0.40399 0.66170 -0.05280
 O56 O 0.42363 0.72432 -0.07393
 C57 C 0.41373 0.74621 -0.08829
 O58 O 0.38724 0.74972 -0.05733
 O59 O 0.31220 0.70270 -0.07831
 C60 C 0.28571 0.67214 -0.09020
 O61 O 0.28131 0.64747 -0.05609
 O62 O 0.33761 0.63185 -0.07405
 C63 C 0.37422 0.64052 -0.08652
 O64 O 0.40493 0.67291 0.07372
 O65 O 0.42779 0.73662 0.05369
 C66 C 0.40859 0.74883 0.08316
 O67 O 0.37269 0.74144 0.06893
 O68 O 0.29677 0.69658 0.04944
 C69 C 0.28236 0.66923 0.08170
 O70 O 0.29107 0.64623 0.07051
 O71 O 0.34453 0.62713 0.05393
 C72 C 0.37719 0.64280 0.08602
 Cr73 Cr 0.41297 0.69851 0.00019
 Cr74 Cr 0.34270 0.72124 -0.00421
 Cr75 Cr 0.31530 0.63991 -0.00139
 O76 O 0.35701 0.68658 -0.00119
 O77 O 0.56302 0.30840 -0.05053
 O78 O 0.55876 0.25044 -0.06823
 C79 C 0.57682 0.23462 -0.08477
 O80 O 0.60833 0.23820 -0.05673
 O81 O 0.67776 0.29350 -0.07402
 C82 C 0.69714 0.32488 -0.08743
 O83 O 0.69332 0.34690 -0.05565
 O84 O 0.62697 0.34979 -0.06842
 C85 C 0.58931 0.33431 -0.08114
 O86 O 0.56585 0.30040 0.07723
 O87 O 0.55875 0.24141 0.05993
 C88 C 0.58305 0.23397 0.08734
 O89 O 0.61971 0.24590 0.07033
 O90 O 0.68999 0.29984 0.05414
 C91 C 0.69865 0.32668 0.08502
 O92 O 0.68432 0.34578 0.07191
 O93 O 0.61983 0.35147 0.05924
 C94 C 0.58817 0.33151 0.09097
 Cr95 Cr 0.56396 0.27604 0.00447
 Cr96 Cr 0.64795 0.27053 -0.00154
 Cr97 Cr 0.65476 0.34644 0.00175
 O98 O 0.62220 0.29764 0.00162
 C99 C 0.49086 0.87735 -0.37297
 C100 C 0.48031 0.85915 -0.31527
 C101 C 0.47046 0.87228 -0.26133
 C102 C 0.47332 0.90407 -0.26496
 C103 C 0.48393 0.92210 -0.32226
 C104 C 0.49166 0.90869 -0.37808
 C105 C 0.45695 0.85310 -0.20504
 C106 C 0.45329 0.82092 -0.20188
 C107 C 0.46503 0.80841 -0.25475
 C108 C 0.47846 0.82760 -0.31114
 C109 C 0.46229 0.77657 -0.25070
 C110 C 0.44690 0.75686 -0.19556
 C111 C 0.43350 0.76846 -0.14389
 C112 C 0.43731 0.80076 -0.14706
 H113 H 0.49860 0.86695 -0.41359
 H114 H 0.46607 0.91458 -0.22390
 H115 H 0.48304 0.94549 -0.32315
 H116 H 0.44850 0.86292 -0.16418
 H117 H 0.48654 0.81764 -0.35219
 H118 H 0.47141 0.76667 -0.29055
 H119 H 0.44418 0.73200 -0.19415
 H120 H 0.42747 0.81006 -0.10710
 C121 C 0.13056 0.59836 -0.37706
 C122 C 0.15345 0.60724 -0.32063
 C123 C 0.14247 0.58305 -0.27130
 C124 C 0.10832 0.55070 -0.27862
 C125 C 0.08537 0.54212 -0.33451
 C126 C 0.09619 0.56560 -0.38521
 C127 C 0.16592 0.59148 -0.21560
 C128 C 0.20011 0.62395 -0.20838
 C129 C 0.21055 0.64850 -0.25698
 C130 C 0.18720 0.63998 -0.31287
 C131 C 0.24445 0.68107 -0.24908
 C132 C 0.26829 0.68906 -0.19411
 C133 C 0.25879 0.66457 -0.14619
 C134 C 0.22429 0.63211 -0.15352
 H135 H 0.13895 0.61758 -0.41362
 H136 H 0.09957 0.53180 -0.24129
 H137 H 0.06036 0.51631 -0.33863
 H138 H 0.15771 0.57272 -0.17808
 H139 H 0.19549 0.65870 -0.35046
 H140 H 0.25282 0.70024 -0.28573
 H141 H 0.29473 0.71420 -0.18981
 H142 H 0.21642 0.61301 -0.11681
 C143 C 0.45631 0.58182 -0.37807
 C144 C 0.44689 0.59235 -0.32081
 C145 C 0.47475 0.60340 -0.26970
 C146 C 0.51108 0.60277 -0.27619
 C147 C 0.51981 0.59134 -0.33276
 C148 C 0.49282 0.58101 -0.38504
 C149 C 0.46578 0.61477 -0.21295
 C150 C 0.42883 0.61452 -0.20631
 C151 C 0.40036 0.60229 -0.25679
 C152 C 0.40971 0.59159 -0.31385
 C153 C 0.36302 0.60115 -0.24954
 C154 C 0.35416 0.61259 -0.19327
 C155 C 0.38266 0.62577 -0.14345
 C156 C 0.41992 0.62644 -0.15016
 H157 H 0.43403 0.57271 -0.41609
 H158 H 0.53284 0.61115 -0.23747
 H159 H 0.54871 0.59214 -0.33609
 H160 H 0.48745 0.62372 -0.17401
 H161 H 0.38804 0.58264 -0.35280
 H162 H 0.34079 0.59170 -0.28763
 H163 H 0.32536 0.61200 -0.18950
 H164 H 0.44202 0.63636 -0.11189
 C165 C 0.52481 0.10535 -0.36942
 C166 C 0.53444 0.12437 -0.31275
 C167 C 0.55665 0.11909 -0.26448
 C168 C 0.56769 0.09424 -0.27271
 C169 C 0.55795 0.07543 -0.32900
 C170 C 0.53700 0.08109 -0.37826
 C171 C 0.56819 0.13916 -0.20928
 C172 C 0.55781 0.16447 -0.20151
 C173 C 0.53448 0.16909 -0.24869
 C174 C 0.52297 0.14903 -0.30407
 C175 C 0.52361 0.19407 -0.24001
 C176 C 0.53649 0.21479 -0.18585
 C177 C 0.56079 0.21111 -0.13970
 C178 C 0.57096 0.18558 -0.14763
 H179 H 0.50834 0.10969 -0.40692
 H180 H 0.58461 0.08982 -0.23614
 H181 H 0.56812 0.05721 -0.33496
 H182 H 0.58578 0.13542 -0.17282
 H183 H 0.50565 0.15295 -0.34075
 H184 H 0.50558 0.19789 -0.27547
 H185 H 0.52831 0.23432 -0.18091
 H186 H 0.58935 0.18228 -0.11205
 C187 C 0.85031 0.41478 -0.37392
 C188 C 0.82606 0.40385 -0.31873
 C189 C 0.82617 0.42809 -0.27632
 C190 C 0.85103 0.46284 -0.28945
 C191 C 0.87520 0.47351 -0.34445
 C192 C 0.87482 0.44962 -0.38740
 C193 C 0.80126 0.41721 -0.22181
 C194 C 0.77628 0.38239 -0.20915
 C195 C 0.77667 0.35819 -0.25110
 C196 C 0.80153 0.36907 -0.30561
 C197 C 0.75190 0.32346 -0.23809
 C198 C 0.72656 0.31270 -0.18446
 C199 C 0.72538 0.33646 -0.14280
 C200 C 0.75065 0.37137 -0.15542
 H201 H 0.85023 0.39619 -0.40643
 H202 H 0.85152 0.48177 -0.25746
 H203 H 0.89358 0.50046 -0.35413
 H204 H 0.80112 0.43580 -0.18953
 H205 H 0.80158 0.35048 -0.33802
 H206 H 0.75189 0.30458 -0.26968
 H207 H 0.70744 0.28568 -0.17610
 H208 H 0.75024 0.39003 -0.12369
 C209 C 0.55065 0.42852 -0.36439
 C210 C 0.55975 0.41674 -0.30848
 C211 C 0.58838 0.44032 -0.26486
 C212 C 0.60597 0.47525 -0.27649
 C213 C 0.59619 0.48674 -0.33172
 C214 C 0.56917 0.46351 -0.37652
 C215 C 0.59942 0.42861 -0.21091
 C216 C 0.58169 0.39365 -0.19942
 C217 C 0.55163 0.37012 -0.24141
 C218 C 0.54111 0.38180 -0.29597
 C219 C 0.53290 0.33523 -0.22842
 C220 C 0.54438 0.32370 -0.17504
 C221 C 0.57534 0.34682 -0.13460
 C222 C 0.59375 0.38180 -0.14680
 H223 H 0.52956 0.41058 -0.39885
 H224 H 0.62771 0.49367 -0.24336
 H225 H 0.61081 0.51381 -0.34065
 H226 H 0.62200 0.44668 -0.17819
 H227 H 0.51870 0.36373 -0.32888
 H228 H 0.50960 0.31685 -0.25979
 H229 H 0.52993 0.29662 -0.16639
 H230 H 0.61734 0.39974 -0.11522
 C231 C 0.85040 0.40978 0.37191
 C232 C 0.82917 0.39865 0.31403
 C233 C 0.84091 0.42116 0.26161
 C234 C 0.87513 0.45362 0.26659
 C235 C 0.89679 0.46424 0.32363
 C236 C 0.88414 0.44296 0.37798
 C237 C 0.81795 0.41108 0.20534
 C238 C 0.78393 0.37841 0.20023
 C239 C 0.77369 0.35507 0.25114
 C240 C 0.79612 0.36545 0.30798
 C241 C 0.74075 0.32189 0.24462
 C242 C 0.71744 0.31225 0.18897
 C243 C 0.72616 0.33584 0.13981
 C244 C 0.75963 0.36880 0.14531
 H245 H 0.84097 0.39223 0.41171
 H246 H 0.88475 0.47110 0.22666
 H247 H 0.92191 0.49012 0.32593
 H248 H 0.82634 0.42874 0.16579
 H249 H 0.78757 0.34786 0.34766
 H250 H 0.73271 0.30357 0.28283
 H251 H 0.69156 0.28674 0.18528
 H252 H 0.76651 0.38691 0.10699
 C253 C 0.53903 0.10941 0.37686
 C254 C 0.54864 0.12823 0.32008
 C255 C 0.57218 0.12384 0.27279
 C256 C 0.58412 0.09960 0.28191
 C257 C 0.57325 0.08009 0.33762
 C258 C 0.55120 0.08507 0.38664
 C259 C 0.58337 0.14372 0.21721
 C260 C 0.57029 0.16725 0.20755
 C261 C 0.54499 0.17040 0.25344
 C262 C 0.53476 0.15119 0.30977
 C263 C 0.53056 0.19290 0.24237
 C264 C 0.54176 0.21265 0.18697
 C265 C 0.56823 0.21073 0.14247
 C266 C 0.58222 0.18782 0.15281
 H267 H 0.52058 0.11287 0.41231
 H268 H 0.60203 0.09579 0.24599
 H269 H 0.58411 0.06235 0.34330
 H270 H 0.60215 0.14083 0.18148
 H271 H 0.51602 0.15411 0.34552
 H272 H 0.51089 0.19544 0.27679
 H273 H 0.53086 0.23032 0.17991
 H274 H 0.60237 0.18603 0.11823
 C275 C 0.55914 0.43095 0.37667
 C276 C 0.56735 0.41832 0.32103
 C277 C 0.59449 0.44116 0.27487
 C278 C 0.61226 0.47629 0.28473
 C279 C 0.60359 0.48866 0.34018
 C280 C 0.57736 0.46611 0.38683
 C281 C 0.60355 0.42849 0.21993
 C282 C 0.58558 0.39329 0.21048
 C283 C 0.55777 0.37055 0.25613
 C284 C 0.54894 0.38319 0.31115
 C285 C 0.53942 0.33544 0.24623
 C286 C 0.54883 0.32287 0.19201
 C287 C 0.57700 0.34515 0.14679
 C288 C 0.59514 0.38044 0.15629
 H289 H 0.53839 0.41342 0.41214
 H290 H 0.63301 0.49418 0.24978
 H291 H 0.61801 0.51586 0.34727
 H292 H 0.62467 0.44599 0.18476
 H293 H 0.52790 0.36570 0.34641
 H294 H 0.51797 0.31768 0.28067
 H295 H 0.53453 0.29561 0.18608
 H296 H 0.61673 0.39792 0.12163
 C297 C 0.12443 0.60436 0.36612
 C298 C 0.14762 0.61162 0.30980
 C299 C 0.14002 0.58495 0.26710
 C300 C 0.10846 0.55192 0.27983
 C301 C 0.08533 0.54502 0.33531
 C302 C 0.09345 0.57093 0.37944
 C303 C 0.16455 0.59150 0.21295
 C304 C 0.19639 0.62445 0.20031
 C305 C 0.20299 0.65151 0.24114
 C306 C 0.17869 0.64489 0.29592
 C307 C 0.23420 0.68461 0.22678
 C308 C 0.25924 0.69065 0.17347
 C309 C 0.25389 0.66360 0.13447
 C310 C 0.22212 0.63062 0.14780
 H311 H 0.13071 0.62447 0.39988
 H312 H 0.10214 0.53126 0.24745
 H313 H 0.06194 0.51903 0.34499
 H314 H 0.15918 0.57086 0.18107
 H315 H 0.18427 0.66549 0.32803
 H316 H 0.23955 0.70574 0.25717
 H317 H 0.28366 0.71628 0.16392
 H318 H 0.21756 0.60971 0.11733
 C319 C 0.48163 0.87938 0.36947
 C320 C 0.46567 0.85871 0.31527
 C321 C 0.43373 0.85885 0.28098
 C322 C 0.41900 0.88018 0.30053
 C323 C 0.43538 0.90093 0.35405
 C324 C 0.46649 0.90049 0.38924
 C325 C 0.41682 0.83751 0.22801
 C326 C 0.43162 0.81622 0.20846
 C327 C 0.46424 0.81667 0.24160
 C328 C 0.48096 0.83782 0.29502
 C329 C 0.47934 0.79574 0.22092
 C330 C 0.46189 0.77418 0.16851
 C331 C 0.42877 0.77293 0.13633
 C332 C 0.41404 0.79429 0.15644
 H333 H 0.50588 0.87917 0.39624
 H334 H 0.39462 0.88065 0.27469
 H335 H 0.42311 0.91682 0.36885
 H336 H 0.39201 0.83735 0.20222
 H337 H 0.50568 0.83790 0.32093
 H338 H 0.50444 0.79585 0.24555
 H339 H 0.47373 0.75793 0.15403
 H340 H 0.38877 0.79384 0.13161
 C341 C 0.44778 0.56983 0.36822
 C342 C 0.44052 0.58315 0.31261
 C343 C 0.47268 0.60158 0.26884
 C344 C 0.51094 0.60501 0.27993
 C345 C 0.51770 0.59124 0.33486
 C346 C 0.48651 0.57420 0.37995
 C347 C 0.46629 0.61673 0.21527
 C348 C 0.42798 0.61323 0.20425
 C349 C 0.39529 0.59345 0.24633
 C350 C 0.40186 0.57878 0.30056
 C351 C 0.35663 0.58892 0.23365
 C352 C 0.35056 0.60430 0.18042
 C353 C 0.38322 0.62506 0.13992
 C354 C 0.42185 0.62933 0.15191
 H355 H 0.42358 0.55649 0.40283
 H356 H 0.53582 0.61883 0.24668
 H357 H 0.54780 0.59500 0.34341
 H358 H 0.49120 0.63145 0.18246
 H359 H 0.37702 0.56423 0.33356
 H360 H 0.33116 0.57363 0.26505
 H361 H 0.32056 0.60076 0.17181
 H362 H 0.44701 0.64499 0.12019
   
