data_POSCAR
  _audit_creation_date              2014-09-24
  _audit_creation_method            'ToBaCCo'
  _symmetry_space_group_name_H-M    'P1'
  _symmetry_Int_Tables_number       1
  _symmetry_cell_setting            triclinic
  loop_
  _symmetry_equiv_pos_as_xyz
 x,y,z
_cell_length_a 32.8586
_cell_length_b 32.9705
_cell_length_c 33.0198
_cell_angle_alpha 90.000600
_cell_angle_beta 89.956600
_cell_angle_gamma 89.881900
loop_
  _atom_site_label
  _atom_site_type_symbol
  _atom_site_fract_x
  _atom_site_fract_y
  _atom_site_fract_z
O1 O 0.27997 1.03582 0.46002
 O2 O 0.29183 0.96460 0.54546
 O3 O 0.29551 0.95844 0.46725
 O4 O 0.27848 1.04317 0.53831
 O5 O 0.21254 1.03079 0.53749
 O6 O 0.22938 0.94659 0.46591
 O7 O 0.22566 0.95311 0.54471
 O8 O 0.21405 1.02283 0.45853
 Cu9 Cu 0.29305 1.00180 0.50304
 Cu10 Cu 0.21380 0.98719 0.50176
 C11 C 0.24501 1.04094 0.44440
 C12 C 0.26073 0.94640 0.55935
 C13 C 0.26531 0.93829 0.45426
 C14 C 0.24259 1.05159 0.54999
 O15 O 0.79211 -0.02959 0.45707
 O16 O 0.77195 0.04930 0.53311
 O17 O 0.78868 -0.02704 0.53627
 O18 O 0.77434 0.04722 0.45438
 O19 O 0.70887 0.03208 0.45224
 O20 O 0.72365 -0.04343 0.53351
 O21 O 0.70668 0.03310 0.53289
 O22 O 0.72668 -0.04466 0.45530
 Cu23 Cu 0.78832 0.01147 0.49527
 Cu24 Cu 0.70972 -0.00684 0.49316
 C25 C 0.76286 -0.05044 0.44306
 C26 C 0.73616 0.05367 0.54679
 C27 C 0.75870 -0.04771 0.54918
 C28 C 0.73927 0.05183 0.43905
 O29 O 0.22494 0.45012 0.96155
 O30 O 0.21462 0.52452 1.04430
 O31 O 0.21294 0.52786 0.96395
 O32 O 0.22517 0.44680 1.03945
 O33 O 0.29121 0.45869 1.04191
 O34 O 0.27958 0.53693 0.96302
 O35 O 0.28083 0.53621 1.04195
 O36 O 0.29153 0.45908 0.96232
 Cu37 Cu 0.21261 0.48677 1.00233
 Cu38 Cu 0.29247 0.49870 1.00216
 C39 C 0.26015 0.44176 0.94802
 C40 C 0.24612 0.54243 1.05753
 C41 C 0.24428 0.54533 0.94988
 C42 C 0.26008 0.43934 1.05415
 O43 O 0.45856 0.27380 1.03605
 O44 O 0.53635 0.26729 0.95569
 O45 O 0.46215 0.27851 0.95477
 O46 O 0.54197 0.26410 1.03082
 O47 O 0.51955 0.20219 1.04145
 O48 O 0.44882 0.21277 0.95534
 O49 O 0.52692 0.20089 0.95499
 O50 O 0.44227 0.20947 1.02634
 Cu51 Cu 0.49972 0.27774 0.99660
 Cu52 Cu 0.48680 0.19924 0.99492
 C53 C 0.43555 0.24350 1.04281
 C54 C 0.54400 0.23254 0.94114
 C55 C 0.44269 0.24813 0.94116
 C56 C 0.54349 0.23109 1.05034
 O57 O 0.46894 0.79513 -0.03578
 O58 O 0.54993 0.78188 0.03979
 O59 O 0.54842 0.78349 -0.03784
 O60 O 0.47121 0.79239 0.04295
 O61 O 0.46295 0.72595 0.04217
 O62 O 0.53739 0.71758 -0.04099
 O63 O 0.54111 0.71549 0.03785
 O64 O 0.45927 0.72888 -0.03698
 Cu65 Cu 0.51036 0.79493 0.00230
 Cu66 Cu 0.49916 0.71535 0.00030
 C67 C 0.45010 0.76429 -0.04906
 C68 C 0.55957 0.74646 0.05140
 C69 C 0.55636 0.74892 -0.05300
 C70 C 0.45424 0.76059 0.05664
 O71 O 1.03903 0.45314 0.30830
 O72 O 0.96287 0.53543 0.30901
 O73 O 0.95879 0.45755 0.30670
 O74 O 1.04278 0.53083 0.31205
 O75 O 1.04338 0.53537 0.24538
 O76 O 0.96160 0.45872 0.23985
 O77 O 0.96482 0.53772 0.24215
 O78 O 1.04105 0.45586 0.24143
 Cu79 Cu 1.00064 0.49388 0.31571
 Cu80 Cu 1.00301 0.49700 0.23549
 C81 C 1.05342 0.44107 0.27470
 C82 C 0.95064 0.55028 0.27563
 C83 C 0.94556 0.44603 0.27249
 C84 C 1.05744 0.54577 0.27972
 O85 O -0.04307 0.45591 0.76694
 O86 O 0.03358 0.53816 0.77134
 O87 O -0.04918 0.53071 0.77850
 O88 O 0.03379 0.45737 0.76583
 O89 O 0.02614 0.46147 0.69945
 O90 O -0.04054 0.55104 0.71553
 O91 O 0.03604 0.53836 0.70455
 O92 O -0.05328 0.47239 0.70288
 Cu93 Cu -0.00483 0.49619 0.77757
 Cu94 Cu -0.00893 0.50647 0.69885
 C95 C -0.06250 0.45164 0.73392
 C96 C 0.04937 0.55061 0.73834
 C97 C -0.05847 0.55421 0.74957
 C98 C 0.04243 0.44523 0.73045
 O99 O 0.45483 0.96027 0.20533
 O100 O 0.53845 1.03309 0.19805
 O101 O 0.53326 0.95391 0.19797
 O102 O 0.45929 1.03756 0.21188
 O103 O 0.46796 1.03370 0.27803
 O104 O 0.54425 0.95376 0.26402
 O105 O 0.54539 1.03273 0.26459
 O106 O 0.46498 0.95461 0.27124
 Cu107 Cu 0.49586 0.99673 0.19664
 Cu108 Cu 0.50655 0.99327 0.27609
 C109 C 0.44566 0.94491 0.23928
 C110 C 0.55586 1.04572 0.22988
 C111 C 0.55150 0.93996 0.22895
 C112 C 0.45052 1.04942 0.24755
 O113 O 1.03646 0.29398 0.53662
 O114 O 0.95924 0.30585 0.45615
 O115 O 0.95765 0.30491 0.53467
 O116 O 1.03874 0.30049 0.45885
 O117 O 1.03262 0.23389 0.45515
 O118 O 0.95071 0.23835 0.53180
 O119 O 0.95361 0.23921 0.45262
 O120 O 1.02855 0.22751 0.53360
 Cu121 Cu 0.99861 0.30800 0.49684
 Cu122 Cu 0.99061 0.22808 0.49283
 C123 C 1.04545 0.25849 0.54879
 C124 C 0.94327 0.27429 0.44075
 C125 C 0.94039 0.27260 0.54633
 C126 C 1.04998 0.26663 0.44445
 O127 O -0.03028 0.79337 0.53722
 O128 O 0.05062 0.77284 0.46319
 O129 O -0.02540 0.79068 0.45834
 O130 O 0.04658 0.77594 0.54225
 O131 O 0.03065 0.71087 0.54468
 O132 O -0.04199 0.72579 0.46096
 O133 O 0.03458 0.70774 0.46389
 O134 O -0.04604 0.72827 0.53863
 Cu135 Cu 0.01207 0.78971 0.50024
 Cu136 Cu -0.00672 0.71137 0.50229
 C137 C -0.05193 0.76440 0.55056
 C138 C 0.05529 0.73706 0.44995
 C139 C -0.04579 0.76074 0.44525
 C140 C 0.05012 0.74117 0.55829
 O141 O 0.72968 0.46046 1.03329
 O142 O 0.71981 0.53926 0.95502
 O143 O 0.72939 0.46074 0.95433
 O144 O 0.72101 0.53812 1.03456
 O145 O 0.78765 0.54688 1.03275
 O146 O 0.79615 0.46827 0.95403
 O147 O 0.78650 0.54743 0.95437
 O148 O 0.79645 0.46817 1.03244
 Cu149 Cu 0.71824 0.49901 0.99417
 Cu150 Cu 0.79838 0.50850 0.99320
 C151 C 0.76478 0.45088 1.04620
 C152 C 0.75134 0.55688 0.94147
 C153 C 0.76431 0.45083 0.94101
 C154 C 0.75298 0.55544 1.04744
 O155 O 0.44962 1.03652 0.74551
 O156 O 0.53106 0.96013 0.74389
 O157 O 0.45404 0.95961 0.74754
 O158 O 0.53184 1.04002 0.74333
 O159 O 0.54069 1.03434 0.80939
 O160 O 0.44906 0.97071 0.81333
 O161 O 0.52903 0.95828 0.81080
 O162 O 0.46541 1.05069 0.80876
 Cu163 Cu 0.49188 0.99993 0.73807
 Cu164 Cu 0.49512 1.00318 0.81758
 C165 C 0.44514 1.05825 0.77688
 C166 C 0.54253 0.94494 0.77727
 C167 C 0.43713 0.95278 0.78142
 C168 C 0.55098 1.04929 0.77552
 C169 C 0.24652 0.20678 0.27466
 C170 C 0.21297 0.23370 0.27481
 C171 C 0.20967 0.26424 0.24492
 C172 C 0.24033 0.26852 0.21514
 C173 C 0.27409 0.24186 0.21549
 C174 C 0.27606 0.20947 0.24358
 C175 C 0.76178 0.78573 0.27152
 C176 C 0.79175 0.75498 0.27247
 C177 C 0.79605 0.72788 0.23956
 C178 C 0.76922 0.73078 0.20624
 C179 C 0.73938 0.76168 0.20506
 C180 C 0.73619 0.78992 0.23724
 C181 C 0.74082 0.22322 0.71198
 C182 C 0.71201 0.22113 0.74385
 C183 C 0.71501 0.24801 0.77727
 C184 C 0.74471 0.27915 0.77703
 C185 C 0.77558 0.27865 0.74718
 C186 C 0.77423 0.25014 0.71523
 C187 C 0.24344 0.78197 0.73065
 C188 C 0.21421 0.75029 0.72976
 C189 C 0.21144 0.72299 0.76287
 C190 C 0.24102 0.72420 0.79408
 C191 C 0.27394 0.75175 0.79134
 C192 C 0.27426 0.78153 0.76055
 C193 C 0.22158 0.25770 0.70769
 C194 C 0.24939 0.22479 0.70909
 C195 C 0.27400 0.21863 0.74415
 C196 C 0.27171 0.24722 0.77637
 C197 C 0.24442 0.28042 0.77439
 C198 C 0.21941 0.28588 0.73995
 C199 C 0.78319 0.76308 0.72095
 C200 C 0.75262 0.79333 0.72304
 C201 C 0.72713 0.79588 0.75747
 C202 C 0.73089 0.76694 0.78899
 C203 C 0.76201 0.73707 0.78726
 C204 C 0.78954 0.73598 0.75397
 C205 C 0.23025 0.73480 0.28962
 C206 C 0.22805 0.70767 0.25629
 C207 C 0.25821 0.70960 0.22539
 C208 C 0.29120 0.73719 0.22908
 C209 C 0.29119 0.76609 0.26075
 C210 C 0.25966 0.76621 0.28982
 C211 C 0.77666 0.25151 0.27264
 C212 C 0.74406 0.22362 0.27512
 C213 C 0.71477 0.22194 0.24353
 C214 C 0.71666 0.24986 0.21052
 C215 C 0.74602 0.28178 0.21209
 C216 C 0.77720 0.28098 0.24164
 C217 C 0.26139 0.12660 0.37364
 C218 C 0.23207 0.11880 0.34370
 N219 N 0.20727 0.08616 0.34751
 C220 C 0.21049 0.06087 0.37988
 C221 C 0.24037 0.06810 0.40946
 N222 N 0.26522 0.10085 0.40550
 N223 N 0.28495 0.16023 0.37081
 C224 C 0.28060 0.18639 0.33928
 C225 C 0.25210 0.17808 0.30870
 N226 N 0.22837 0.14444 0.31174
 H227 H 0.19036 0.03502 0.38219
 H228 H 0.29938 0.21329 0.33783
 C229 C 0.74505 0.86600 0.37027
 C230 C 0.78253 0.86392 0.34997
 N231 N 0.81336 0.88875 0.36133
 C232 C 0.80831 0.91594 0.39189
 C233 C 0.77047 0.91880 0.41168
 N234 N 0.73980 0.89350 0.40037
 N235 N 0.71431 0.84093 0.35914
 C236 C 0.71924 0.81411 0.32824
 C237 C 0.75637 0.81272 0.30712
 N238 N 0.78723 0.83762 0.31873
 H239 H 0.83330 0.93563 0.40005
 H240 H 0.69427 0.79452 0.31974
 C241 C 0.73387 0.14710 0.60852
 C242 C 0.72957 0.13093 0.64765
 N243 N 0.72422 0.09042 0.65246
 C244 C 0.72369 0.06521 0.61989
 C245 C 0.72978 0.08111 0.58093
 N246 N 0.73472 0.12178 0.57609
 N247 N 0.73801 0.18773 0.60369
 C248 C 0.73880 0.21290 0.63628
 C249 C 0.73677 0.19665 0.67566
 N250 N 0.73176 0.15590 0.68023
 H251 H 0.72033 0.03286 0.62446
 H252 H 0.74183 0.24524 0.63158
 C253 C 0.23448 0.87671 0.64362
 C254 C 0.27171 0.85700 0.65050
 N255 N 0.30501 0.86797 0.62878
 C256 C 0.30269 0.89755 0.60013
 C257 C 0.26514 0.91653 0.59226
 N258 N 0.23191 0.90560 0.61441
 N259 N 0.20145 0.86642 0.66605
 C260 C 0.20385 0.83698 0.69480
 C261 C 0.24078 0.81613 0.70095
 N262 N 0.27385 0.82695 0.67853
 H263 H 0.32962 0.90537 0.58296
 H264 H 0.17708 0.82949 0.71237
 C265 C 0.37280 0.25647 0.13475
 C266 C 0.33441 0.24412 0.12055
 N267 N 0.32965 0.23410 0.08103
 C268 C 0.36170 0.23526 0.05510
 C269 C 0.40012 0.24729 0.06923
 N270 N 0.40480 0.25793 0.10874
 N271 N 0.37787 0.26477 0.17468
 C272 C 0.34641 0.26088 0.20114
 C273 C 0.30818 0.24822 0.18699
 N274 N 0.30298 0.24051 0.14689
 H275 H 0.35745 0.22625 0.02385
 H276 H 0.35115 0.26719 0.23295
 C277 C 0.37363 0.74021 0.87220
 C278 C 0.35286 0.77724 0.86834
 N279 N 0.36494 0.80968 0.89057
 C280 C 0.39672 0.80668 0.91678
 C281 C 0.41694 0.76933 0.92148
 N282 N 0.40482 0.73697 0.89891
 N283 N 0.36231 0.70810 0.84914
 C284 C 0.33091 0.71125 0.82255
 C285 C 0.30924 0.74796 0.81939
 N286 N 0.32096 0.78014 0.84244
 H287 H 0.40555 0.83295 0.93434
 H288 H 0.32268 0.68531 0.80425
 C289 C 0.65090 0.76928 0.11261
 C290 C 0.65394 0.73460 0.13705
 N291 N 0.62694 0.70387 0.13227
 C292 C 0.59668 0.70643 0.10433
 C293 C 0.59279 0.74166 0.08067
 N294 N 0.62023 0.77219 0.08533
 N295 N 0.67834 0.79971 0.11692
 C296 C 0.70833 0.79730 0.14515
 C297 C 0.71036 0.76336 0.17082
 N298 N 0.68324 0.73263 0.16583
 H299 H 0.57538 0.68161 0.10127
 H300 H 0.72961 0.82210 0.14846
 C301 C 0.63769 0.23539 0.87951
 C302 C 0.62152 0.23539 0.84012
 N303 N 0.58076 0.23162 0.83477
 C304 C 0.55534 0.22844 0.86710
 C305 C 0.57135 0.22973 0.90646
 N306 N 0.61222 0.23321 0.91182
 N307 N 0.67850 0.23833 0.88480
 C308 C 0.70391 0.24168 0.85250
 C309 C 0.68778 0.24314 0.81303
 N310 N 0.64680 0.23974 0.80793
 H311 H 0.52282 0.22634 0.86222
 H312 H 0.73640 0.24354 0.85752
 C313 C 0.11160 0.34738 0.25230
 C314 C 0.14965 0.35666 0.26933
 N315 N 0.15474 0.39230 0.28923
 C316 C 0.12362 0.41934 0.29252
 C317 C 0.08604 0.41078 0.27426
 N318 N 0.08086 0.37492 0.25450
 N319 N 0.10601 0.31091 0.23404
 C320 C 0.13690 0.28349 0.23164
 C321 C 0.17546 0.29350 0.24695
 N322 N 0.18080 0.32977 0.26587
 H323 H 0.12846 0.44776 0.30820
 H324 H 0.13171 0.25440 0.21736
 C325 C 0.87313 0.36170 0.75374
 C326 C 0.83993 0.36895 0.72791
 N327 N 0.83959 0.40253 0.70419
 C328 C 0.87092 0.42934 0.70519
 C329 C 0.90375 0.42268 0.73166
 N330 N 0.90400 0.38893 0.75541
 N331 N 0.87416 0.32731 0.77633
 C332 C 0.84337 0.29991 0.77439
 C333 C 0.80966 0.30771 0.74944
 N334 N 0.80877 0.34207 0.72667
 H335 H 0.86987 0.45596 0.68602
 H336 H 0.84478 0.27259 0.79251
 C337 C 0.11739 0.63527 0.76839
 C338 C 0.14493 0.63600 0.73580
 N339 N 0.14110 0.60869 0.70539
 C340 C 0.11084 0.58072 0.70590
 C341 C 0.08330 0.57964 0.73854
 N342 N 0.08737 0.60696 0.76921
 N343 N 0.12062 0.66347 0.79817
 C344 C 0.15020 0.69225 0.79689
 C345 C 0.17819 0.69261 0.76461
 N346 N 0.17478 0.66432 0.73482
 H347 H 0.10837 0.55943 0.68106
 H348 H 0.15207 0.71455 0.82087
 C349 C 0.88949 0.63907 0.24345
 C350 C 0.85789 0.63891 0.27206
 N351 N 0.85800 0.61083 0.30214
 C352 C 0.88818 0.58265 0.30472
 C353 C 0.91918 0.58196 0.27537
 N354 N 0.91902 0.61029 0.24536
 N355 N 0.89043 0.66834 0.21457
 C356 C 0.86093 0.69727 0.21277
 C357 C 0.82842 0.69634 0.24042
 N358 N 0.82790 0.66715 0.26959
 H359 H 0.88739 0.56035 0.32877
 H360 H 0.86312 0.72104 0.19034
 C361 C 0.13606 0.27443 0.61360
 C362 C 0.13369 0.24087 0.63969
 N363 N 0.10290 0.21391 0.63556
 C364 C 0.07419 0.21893 0.60644
 C365 C 0.07594 0.25286 0.58072
 N366 N 0.10692 0.27991 0.58495
 N367 N 0.16753 0.30082 0.61730
 C368 C 0.19656 0.29531 0.64617
 C369 C 0.19362 0.26224 0.67287
 N370 N 0.16208 0.23593 0.66897
 H371 H 0.04996 0.19690 0.60371
 H372 H 0.22107 0.31700 0.64903
 C373 C 0.86073 0.74836 0.61967
 C374 C 0.86108 0.78432 0.64235
 N375 N 0.88826 0.81388 0.63334
 C376 C 0.91566 0.80890 0.60291
 C377 C 0.91644 0.77232 0.58102
 N378 N 0.88866 0.74298 0.58985
 N379 N 0.83327 0.71895 0.62866
 C380 C 0.80651 0.72369 0.65979
 C381 C 0.80782 0.75910 0.68345
 N382 N 0.83514 0.78856 0.67393
 H383 H 0.93737 0.83276 0.59674
 H384 H 0.78537 0.69959 0.66694
 C385 C 0.15016 0.72906 0.39029
 C386 C 0.13478 0.72948 0.35057
 N387 N 0.09394 0.72934 0.34451
 C388 C 0.06776 0.72946 0.37640
 C389 C 0.08309 0.73050 0.41605
 N390 N 0.12402 0.73027 0.42215
 N391 N 0.19098 0.72855 0.39632
 C392 C 0.21716 0.72896 0.36445
 C393 C 0.20194 0.73099 0.32466
 N394 N 0.16091 0.73102 0.31876
 H395 H 0.03528 0.73027 0.37090
 H396 H 0.24961 0.72857 0.37005
 C397 C 0.87272 0.24580 0.35824
 C398 C 0.85044 0.28169 0.35279
 N399 N 0.85982 0.31505 0.37499
 C400 C 0.89034 0.31402 0.40279
 C401 C 0.91201 0.27777 0.40913
 N402 N 0.90261 0.24453 0.38651
 N403 N 0.86398 0.21275 0.33535
 C404 C 0.83375 0.21393 0.30727
 C405 C 0.81075 0.24958 0.30229
 N406 N 0.81974 0.28258 0.32539
 H407 H 0.89694 0.34092 0.42037
 H408 H 0.82745 0.18727 0.28922
 C409 C 0.23431 0.36206 0.87311
 C410 C 0.27088 0.35837 0.85144
 N411 N 0.30346 0.38115 0.86218
 C412 C 0.30112 0.40772 0.89358
 C413 C 0.26433 0.41207 0.91498
 N414 N 0.23177 0.38897 0.90413
 N415 N 0.20194 0.33874 0.86270
 C416 C 0.20448 0.31193 0.83148
 C417 C 0.24091 0.30857 0.80938
 N418 N 0.27320 0.33208 0.81996
 H419 H 0.32754 0.42568 0.90131
 H420 H 0.17833 0.29360 0.82373
 C421 C 0.73790 0.37950 0.12874
 C422 C 0.77435 0.35786 0.13356
 N423 N 0.80727 0.36768 0.11077
 C424 C 0.80532 0.39808 0.08303
 C425 C 0.76853 0.41916 0.07729
 N426 N 0.73566 0.40932 0.10047
 N427 N 0.70529 0.37016 0.15224
 C428 C 0.70740 0.33980 0.18009
 C429 C 0.74352 0.31715 0.18408
 N430 N 0.77614 0.32704 0.16065
 H431 H 0.83195 0.40511 0.06507
 H432 H 0.68097 0.33280 0.19837
 C433 C 0.77320 0.64759 0.87860
 C434 C 0.73963 0.64804 0.85235
 N435 N 0.71038 0.61930 0.85602
 C436 C 0.71318 0.58991 0.88475
 C437 C 0.74717 0.58874 0.91056
 N438 N 0.77645 0.61774 0.90680
 N439 N 0.80186 0.67709 0.87555
 C440 C 0.79854 0.70693 0.84723
 C441 C 0.76541 0.70686 0.82033
 N442 N 0.73682 0.67723 0.82358
 H443 H 0.68943 0.56731 0.88697
 H444 H 0.82183 0.73000 0.84512
 C445 C 0.25008 0.63455 0.12119
 C446 C 0.24721 0.61780 0.16022
 N447 N 0.24146 0.57728 0.16458
 C448 C 0.23898 0.55265 0.13164
 C449 C 0.24320 0.56918 0.09269
 N450 N 0.24873 0.60982 0.08833
 N451 N 0.25449 0.67520 0.11681
 C452 C 0.25656 0.69989 0.14969
 C453 C 0.25528 0.68313 0.18891
 N454 N 0.25039 0.64232 0.19310
 H455 H 0.23514 0.52031 0.13579
 H456 H 0.25941 0.73229 0.14535
 C457 C 0.35560 0.11795 0.75238
 C458 C 0.36554 0.15547 0.76950
 N459 N 0.40029 0.15921 0.79141
 C460 C 0.42593 0.12711 0.79629
 C461 C 0.41785 0.09051 0.77591
 N462 N 0.38267 0.08691 0.75440
 N463 N 0.31826 0.11260 0.73578
 C464 C 0.29087 0.14354 0.73447
 C465 C 0.30228 0.18271 0.74744
 N466 N 0.33952 0.18715 0.76516
 H467 H 0.45350 0.13092 0.81383
 H468 H 0.26062 0.13744 0.72332
 C469 C 0.38416 0.85446 0.26576
 C470 C 0.35039 0.85944 0.24011
 N471 N 0.34818 0.89228 0.21551
 C472 C 0.37834 0.92035 0.21517
 C473 C 0.41203 0.91575 0.24099
 N474 N 0.41407 0.88289 0.26593
 N475 N 0.38699 0.82070 0.28917
 C476 C 0.35760 0.79170 0.28803
 C477 C 0.32363 0.79700 0.26278
 N478 N 0.32079 0.83088 0.23949
 H479 H 0.37600 0.94613 0.19499
 H480 H 0.36048 0.76491 0.30675
 C481 C 0.62149 0.13394 0.25276
 C482 C 0.64930 0.13286 0.22043
 N483 N 0.64571 0.10374 0.19160
 C484 C 0.61562 0.07554 0.19369
 C485 C 0.58841 0.07595 0.22656
 N486 N 0.59208 0.10521 0.25539
 N487 N 0.62393 0.16405 0.28064
 C488 C 0.65309 0.19307 0.27781
 C489 C 0.68172 0.19145 0.24616
 N490 N 0.67912 0.16122 0.21816
 H491 H 0.61335 0.05265 0.17031
 H492 H 0.65435 0.21692 0.30030
 C493 C 0.64053 0.89095 0.76753
 C494 C 0.62829 0.85025 0.77020
 N495 N 0.58844 0.84139 0.77662
 C496 C 0.56021 0.87146 0.78017
 C497 C 0.57238 0.91208 0.77672
 N498 N 0.61230 0.92088 0.77044
 N499 N 0.68042 0.89990 0.76200
 C500 C 0.70871 0.86997 0.75880
 C501 C 0.69655 0.82913 0.76053
 N502 N 0.65646 0.82030 0.76636
 H503 H 0.52854 0.86378 0.78485
 H504 H 0.74043 0.87790 0.75502
 C505 C 0.73662 0.87457 0.62453
 C506 C 0.77325 0.87338 0.64624
 N507 N 0.80463 0.89748 0.63485
 C508 C 0.80106 0.92300 0.60273
 C509 C 0.76402 0.92514 0.58129
 N510 N 0.73265 0.90068 0.59294
 N511 N 0.70577 0.84934 0.63520
 C512 C 0.71004 0.82283 0.66654
 C513 C 0.74667 0.82181 0.68853
 N514 N 0.77716 0.84760 0.67796
 H515 H 0.82670 0.94189 0.59460
 H516 H 0.68520 0.80276 0.67429
 C517 C 0.23279 0.35728 0.12232
 C518 C 0.26795 0.35370 0.14606
 N519 N 0.30059 0.37755 0.13793
 C520 C 0.29949 0.40516 0.10730
 C521 C 0.26363 0.40994 0.08438
 N522 N 0.23119 0.38563 0.09264
 N523 N 0.20113 0.33175 0.12865
 C524 C 0.20282 0.30302 0.15809
 C525 C 0.23721 0.30044 0.18332
 N526 N 0.26917 0.32584 0.17631
 H527 H 0.32596 0.42386 0.10174
 H528 H 0.17793 0.28190 0.16116
 C529 C 0.26346 0.13889 0.61457
 C530 C 0.22545 0.14511 0.63289
 N531 N 0.19348 0.12144 0.62221
 C532 C 0.19786 0.09135 0.59437
 C533 C 0.23636 0.08377 0.57700
 N534 N 0.26817 0.10818 0.58750
 N535 N 0.29523 0.16309 0.62482
 C536 C 0.29091 0.19267 0.65328
 C537 C 0.25339 0.19757 0.67327
 N538 N 0.22145 0.17380 0.66210
 H539 H 0.17173 0.07292 0.58679
 H540 H 0.31689 0.21103 0.66155
 C541 C 0.24482 0.86332 0.37319
 C542 C 0.28222 0.84289 0.37022
 N543 N 0.31366 0.85435 0.39429
 C544 C 0.30932 0.88524 0.42133
 C545 C 0.27160 0.90517 0.42498
 N546 N 0.24026 0.89360 0.40066
 N547 N 0.21374 0.85279 0.34835
 C548 C 0.21820 0.82243 0.32088
 C549 C 0.25518 0.80092 0.31857
 N550 N 0.28644 0.81195 0.34333
 H551 H 0.33485 0.89373 0.44019
 H552 H 0.19299 0.81482 0.30125
 C553 C 0.73804 0.14569 0.37758
 C554 C 0.73507 0.12988 0.33819
 N555 N 0.73088 0.08925 0.33291
 C556 C 0.73012 0.06367 0.36523
 C557 C 0.73460 0.07931 0.40452
 N558 N 0.73845 0.12006 0.40980
 N559 N 0.74103 0.18636 0.38293
 C560 C 0.74182 0.21195 0.35067
 C561 C 0.74082 0.19619 0.31104
 N562 N 0.73706 0.15533 0.30590
 H563 H 0.72749 0.03131 0.36029
 H564 H 0.74381 0.24430 0.35582
 C565 C 0.64277 0.77440 0.88264
 C566 C 0.64669 0.73912 0.85922
 N567 N 0.62124 0.70746 0.86586
 C568 C 0.59179 0.70950 0.89476
 C569 C 0.58662 0.74544 0.91736
 N570 N 0.61251 0.77703 0.91058
 N571 N 0.66945 0.80532 0.87725
 C572 C 0.69948 0.80281 0.84895
 C573 C 0.70220 0.76834 0.82394
 N574 N 0.67567 0.73723 0.82997
 H575 H 0.57209 0.68362 0.89931
 H576 H 0.72018 0.82800 0.84498
 C577 C 0.11971 0.23166 0.36317
 C578 C 0.14714 0.26419 0.36084
 N579 N 0.14231 0.29666 0.38556
 C580 C 0.11120 0.29817 0.41260
 C581 C 0.08381 0.26554 0.41535
 N582 N 0.08887 0.23288 0.39056
 N583 N 0.12372 0.19995 0.33723
 C584 C 0.15394 0.19934 0.30905
 C585 C 0.18179 0.23157 0.30716
 N586 N 0.17752 0.26332 0.33312
 H587 H 0.10811 0.32449 0.43197
 H588 H 0.15578 0.17439 0.28783
 C589 C 0.63582 0.24379 0.10925
 C590 C 0.62378 0.22882 0.14706
 N591 N 0.58672 0.21096 0.15091
 C592 C 0.56084 0.20844 0.11875
 C593 C 0.57126 0.22744 0.08199
 N594 N 0.60878 0.24454 0.07824
 N595 N 0.67473 0.25611 0.10378
 C596 C 0.70172 0.25566 0.13493
 C597 C 0.68852 0.24589 0.17449
 N598 N 0.64967 0.23182 0.17903
 H599 H 0.53132 0.19445 0.12275
 H600 H 0.73302 0.26344 0.12875
 C601 C 0.35310 0.23281 0.87462
 C602 C 0.35794 0.26448 0.84662
 N603 N 0.38963 0.29047 0.85044
 C604 C 0.41696 0.28619 0.88099
 C605 C 0.41289 0.25396 0.90854
 N606 N 0.38092 0.22796 0.90466
 N607 N 0.32072 0.20747 0.87122
 C608 C 0.29312 0.21220 0.84083
 C609 C 0.29862 0.24322 0.81217
 N610 N 0.33103 0.26855 0.81583
 H611 H 0.44206 0.30729 0.88327
 H612 H 0.26779 0.19142 0.83834
 C613 C 0.38569 0.73167 0.14130
 C614 C 0.36518 0.76823 0.14900
 N615 N 0.37492 0.80186 0.12737
 C616 C 0.40405 0.80053 0.09808
 C617 C 0.42391 0.76367 0.08946
 N618 N 0.41421 0.73010 0.11152
 N619 N 0.37655 0.69826 0.16351
 C620 C 0.34740 0.69961 0.19277
 C621 C 0.32571 0.73581 0.19966
 N622 N 0.33545 0.76935 0.17758
 H623 H 0.41099 0.82775 0.08114
 H624 H 0.34059 0.67251 0.20997
 C625 C 0.88605 0.64964 0.74441
 C626 C 0.84938 0.63927 0.76349
 N627 N 0.84516 0.60181 0.78000
 C628 C 0.87581 0.57408 0.77760
 C629 C 0.91109 0.58316 0.75509
 N630 N 0.91531 0.62096 0.73902
 N631 N 0.89255 0.68866 0.73336
 C632 C 0.86333 0.71736 0.73897
 C633 C 0.82436 0.70612 0.75305
 N634 N 0.81893 0.66714 0.76589
 H635 H 0.87165 0.54442 0.79107
 H636 H 0.87037 0.74851 0.73182
 C637 C 0.36716 0.11932 0.22681
 C638 C 0.36204 0.13811 0.26460
 N639 N 0.38606 0.12695 0.29609
 C640 C 0.41507 0.09784 0.29151
 C641 C 0.42111 0.07957 0.25332
 N642 N 0.39684 0.09103 0.22186
 N643 N 0.34175 0.12894 0.19592
 C644 C 0.31173 0.15690 0.20099
 C645 C 0.30748 0.17712 0.23834
 N646 N 0.33282 0.16690 0.26933
 H647 H 0.43358 0.08958 0.31735
 H648 H 0.29145 0.16350 0.17604
 C649 C 0.13027 0.62351 0.24995
 C650 C 0.15399 0.62689 0.28507
 N651 N 0.14440 0.60447 0.31816
 C652 C 0.11232 0.57850 0.31765
 C653 C 0.08948 0.57355 0.28184
 N654 N 0.09924 0.59636 0.24879
 N655 N 0.13792 0.64823 0.21799
 C656 C 0.16855 0.67588 0.21941
 C657 C 0.19390 0.67790 0.25375
 N658 N 0.18563 0.65328 0.28588
 H659 H 0.10559 0.56103 0.34459
 H660 H 0.17321 0.69596 0.19392
 C661 C 0.87676 0.36248 0.24130
 C662 C 0.84360 0.36846 0.26754
 N663 N 0.84477 0.39894 0.29510
 C664 C 0.87759 0.42385 0.29761
 C665 C 0.91042 0.41860 0.27081
 N666 N 0.90914 0.38804 0.24306
 N667 N 0.87651 0.33056 0.21532
 C668 C 0.84467 0.30425 0.21451
 C669 C 0.81110 0.31067 0.24013
 N670 N 0.81137 0.34281 0.26600
 H671 H 0.87775 0.44799 0.31983
 H672 H 0.84541 0.27856 0.19411
 C673 C 0.13831 0.38642 0.73399
 C674 C 0.12420 0.34680 0.72741
 N675 N 0.08418 0.34059 0.71929
 C676 C 0.05748 0.37220 0.71802
 C677 C 0.07131 0.41165 0.72595
 N678 N 0.11150 0.41783 0.73377
 N679 N 0.17847 0.39276 0.74106
 C680 C 0.20517 0.36121 0.74236
 C681 C 0.19098 0.32125 0.73749
 N682 N 0.15067 0.31519 0.72976
 H683 H 0.02557 0.36647 0.71229
 H684 H 0.23712 0.36719 0.74745
 C685 C 0.86848 0.74416 0.37458
 C686 C 0.87617 0.77349 0.34470
 N687 N 0.90825 0.79899 0.34897
 C688 C 0.93325 0.79629 0.38165
 C689 C 0.92633 0.76619 0.41099
 N690 N 0.89399 0.74081 0.40669
 N691 N 0.83556 0.71961 0.37106
 C692 C 0.81013 0.72286 0.33878
 C693 C 0.81860 0.75117 0.30817
 N694 N 0.85137 0.77604 0.31198
 H695 H 0.95884 0.81675 0.38416
 H696 H 0.78387 0.70320 0.33663
 C697 C 0.86869 0.24312 0.62794
 C698 C 0.84794 0.27972 0.63493
 N699 N 0.85791 0.31320 0.61326
 C700 C 0.88770 0.31175 0.58474
 C701 C 0.90813 0.27498 0.57712
 N702 N 0.89805 0.24146 0.59902
 N703 N 0.85928 0.20991 0.65034
 C704 C 0.82979 0.21159 0.67922
 C705 C 0.80825 0.24796 0.68559
 N706 N 0.81805 0.28119 0.66320
 H707 H 0.89501 0.33893 0.56789
 H708 H 0.82278 0.18472 0.69670
 C709 C 0.14097 0.73999 0.62432
 C710 C 0.12308 0.73878 0.66298
 N711 N 0.08204 0.73550 0.66636
 C712 C 0.05803 0.73403 0.63282
 C713 C 0.07579 0.73682 0.59423
 N714 N 0.11694 0.73971 0.59087
 N715 N 0.18201 0.74227 0.62085
 C716 C 0.20601 0.74410 0.65427
 C717 C 0.18823 0.74495 0.69309
 N718 N 0.14699 0.74183 0.69642
 H719 H 0.02531 0.73222 0.63621
 H720 H 0.23870 0.74573 0.65062
 C721 C 0.77405 0.64613 0.11008
 C722 C 0.74751 0.64030 0.14292
 N723 N 0.72227 0.60775 0.14318
 C724 C 0.72262 0.58053 0.11223
 C725 C 0.75013 0.58555 0.08004
 N726 N 0.77524 0.61835 0.07977
 N727 N 0.79783 0.67973 0.10881
 C728 C 0.79659 0.70757 0.13917
 C729 C 0.77143 0.70088 0.17288
 N730 N 0.74712 0.66751 0.17376
 H731 H 0.70240 0.55466 0.11326
 H732 H 0.81514 0.73458 0.13715
 C733 C 0.23961 0.64191 0.89291
 C734 C 0.23702 0.62778 0.85284
 N735 N 0.23530 0.58730 0.84562
 C736 C 0.23644 0.56024 0.87666
 C737 C 0.24001 0.57427 0.91662
 N738 N 0.24146 0.61486 0.92390
 N739 N 0.24080 0.68242 0.90009
 C740 C 0.24004 0.70946 0.86900
 C741 C 0.23882 0.69541 0.82878
 N742 N 0.23704 0.65474 0.82178
 H743 H 0.23544 0.52805 0.87023
 H744 H 0.24108 0.74162 0.87549
 C745 C 0.73644 0.37628 0.86149
 C746 C 0.77330 0.35552 0.85572
 N747 N 0.80671 0.36687 0.87699
 C748 C 0.80489 0.39796 0.90401
 C749 C 0.76778 0.41831 0.91057
 N750 N 0.73438 0.40685 0.88900
 N751 N 0.70335 0.36564 0.83938
 C752 C 0.70539 0.33499 0.81187
 C753 C 0.74203 0.31338 0.80661
 N754 N 0.77513 0.32443 0.82883
 H755 H 0.83196 0.40618 0.92074
 H756 H 0.67866 0.32744 0.79431
 C757 C 0.64987 0.88586 0.23268
 C758 C 0.63786 0.84565 0.22559
 N759 N 0.59823 0.83747 0.21723
 C760 C 0.56996 0.86769 0.21619
 C761 C 0.58175 0.90768 0.22471
 N762 N 0.62150 0.91581 0.23276
 N763 N 0.68962 0.89427 0.23977
 C764 C 0.71795 0.86419 0.24059
 C765 C 0.70589 0.82361 0.23521
 N766 N 0.66596 0.81546 0.22753
 H767 H 0.53842 0.86045 0.21015
 H768 H 0.74955 0.87179 0.24572
 C769 C 0.61789 0.13353 0.74246
 C770 C 0.64747 0.13355 0.77314
 N771 N 0.64525 0.10598 0.80352
 C772 C 0.61466 0.07838 0.80475
 C773 C 0.58508 0.07802 0.77398
 N774 N 0.58754 0.10563 0.74338
 N775 N 0.61947 0.16201 0.71280
 C776 C 0.64934 0.19052 0.71246
 C777 C 0.67929 0.19023 0.74286
 N778 N 0.67754 0.16161 0.77250
 H779 H 0.61353 0.05684 0.82946
 H780 H 0.64979 0.21321 0.68877
 C781 C 0.37176 0.86484 0.75751
 C782 C 0.33911 0.87047 0.78442
 N783 N 0.33968 0.90216 0.81067
 C784 C 0.37133 0.92869 0.81105
 C785 C 0.40342 0.92378 0.78331
 N786 N 0.40279 0.89189 0.75717
 N787 N 0.37217 0.83217 0.73252
 C788 C 0.34123 0.80490 0.73308
 C789 C 0.30789 0.81120 0.75897
 N790 N 0.30770 0.84382 0.78424
 H791 H 0.37100 0.95384 0.83211
 H792 H 0.34229 0.77878 0.71323
   
