data_POSCAR
  _audit_creation_date              2014-09-24
  _audit_creation_method            'ToBaCCo'
  _symmetry_space_group_name_H-M    'P1'
  _symmetry_Int_Tables_number       1
  _symmetry_cell_setting            triclinic
  loop_
  _symmetry_equiv_pos_as_xyz
 x,y,z
_cell_length_a 56.8962
_cell_length_b 59.1486
_cell_length_c 52.9799
_cell_angle_alpha 92.805500
_cell_angle_beta 90.094200
_cell_angle_gamma 93.766100
loop_
  _atom_site_label
  _atom_site_type_symbol
  _atom_site_fract_x
  _atom_site_fract_y
  _atom_site_fract_z
C1 C 0.21837 0.52268 1.03523
 H2 H 0.21847 0.53595 1.02187
 C3 C 0.20193 0.52222 1.05480
 H4 H 0.18967 0.53547 1.05638
 C5 C 0.23358 0.48879 1.04830
 H6 H 0.24535 0.47536 1.04528
 C7 C 0.21753 0.48769 1.06813
 H8 H 0.21768 0.47348 1.08026
 N9 N 0.23364 0.50602 1.03223
 C10 C 0.28974 0.53086 0.98269
 H11 H 0.28926 0.51652 0.96917
 C12 C 0.30610 0.54914 0.97993
 H13 H 0.31819 0.54860 0.96419
 C14 C 0.27438 0.54866 1.01956
 H15 H 0.26204 0.54830 1.03504
 C16 C 0.29053 0.56740 1.01752
 H17 H 0.29040 0.58135 1.03152
 Zn18 Zn 0.25252 0.50533 1.00284
 N19 N 0.27413 0.53102 1.00206
 C20 C 0.23313 0.52193 0.95864
 N21 N 0.23160 0.50489 0.97500
 C22 C 0.21387 0.48831 0.97317
 C23 C 0.19669 0.48849 0.95432
 C24 C 0.21636 0.52277 0.93953
 C25 C 0.28648 0.47780 1.02015
 C26 C 0.29980 0.45887 1.02090
 C27 C 0.28014 0.44352 0.98277
 C28 C 0.26702 0.46271 0.98288
 N29 N 0.27017 0.47920 1.00162
 H30 H 0.24696 0.53528 0.96074
 H31 H 0.21282 0.47520 0.98674
 H32 H 0.18255 0.47530 0.95342
 H33 H 0.21779 0.53668 0.92697
 H34 H 0.28888 0.49134 1.03459
 H35 H 0.31249 0.45805 1.03603
 H36 H 0.27724 0.43048 0.96782
 H37 H 0.25434 0.46436 0.96800
 C38 C 0.30661 0.56784 0.99739
 C39 C 0.20100 0.50429 1.07138
 C40 C 0.29664 0.44132 1.00212
 C41 C 0.19766 0.50605 0.93734
 C42 C 0.76057 0.50743 -0.04372
 H43 H 0.74837 0.52060 -0.04169
 C44 C 0.77596 0.50734 -0.06417
 H45 H 0.77509 0.52037 -0.07773
 C46 C 0.77730 0.47530 -0.02789
 H47 H 0.77793 0.46313 -0.01335
 C48 C 0.79316 0.47466 -0.04799
 H49 H 0.80584 0.46178 -0.04887
 N50 N 0.76147 0.49156 -0.02609
 C51 C 0.72764 0.53656 0.02035
 H52 H 0.74055 0.53584 0.03521
 C53 C 0.71434 0.55555 0.01931
 H54 H 0.71733 0.56935 0.03338
 C55 C 0.70784 0.51937 -0.01575
 H56 H 0.70538 0.50511 -0.02928
 C57 C 0.69430 0.53806 -0.01761
 H58 H 0.68140 0.53796 -0.03267
 Zn59 Zn 0.74244 0.49329 0.00313
 N60 N 0.72441 0.51911 0.00273
 C61 C 0.78090 0.51168 0.03228
 N62 N 0.76301 0.49523 0.03137
 C63 C 0.76084 0.47954 0.04929
 C64 C 0.77701 0.48007 0.06916
 C65 C 0.79755 0.51278 0.05180
 C66 C 0.72158 0.44942 -0.01230
 C67 C 0.70549 0.43066 -0.01035
 C68 C 0.68859 0.44954 0.02610
 C69 C 0.70496 0.46785 0.02347
 N70 N 0.72115 0.46742 0.00466
 H71 H 0.78243 0.52372 0.01755
 H72 H 0.74687 0.46628 0.04798
 H73 H 0.77503 0.46724 0.08303
 H74 H 0.81179 0.52587 0.05201
 H75 H 0.73434 0.44956 -0.02737
 H76 H 0.70611 0.41648 -0.02400
 H77 H 0.67595 0.45032 0.04132
 H78 H 0.70488 0.48249 0.03653
 C79 C 0.69755 0.55656 -0.00001
 C80 C 0.79275 0.49098 -0.06636
 C81 C 0.68871 0.43055 0.00910
 C82 C 0.79582 0.49672 0.07050
 C83 C -0.03102 0.27534 0.49745
 H84 H -0.04337 0.27683 0.51286
 C85 C -0.03223 0.28927 0.47705
 H86 H -0.04579 0.30129 0.47702
 C87 C 0.00199 0.25823 0.47961
 H88 H 0.01567 0.24654 0.48096
 C89 C 0.00150 0.27186 0.45885
 H90 H 0.01475 0.27009 0.44437
 N91 N -0.01418 0.26014 0.49833
 C92 C -0.04126 0.21028 0.55083
 H93 H -0.02685 0.21093 0.56425
 C94 C -0.06033 0.19441 0.55307
 H95 H -0.06048 0.18297 0.56841
 C96 C -0.05797 0.22387 0.51396
 H97 H -0.05670 0.23491 0.49832
 C98 C -0.07745 0.20839 0.51558
 H99 H -0.09103 0.20789 0.50118
 Zn100 Zn -0.01265 0.24357 0.52789
 N101 N -0.04034 0.22449 0.53140
 C102 C -0.02380 0.26629 0.57499
 N103 N -0.00874 0.26526 0.55511
 C104 C 0.00948 0.28103 0.55281
 C105 C 0.01313 0.29884 0.57083
 C106 C -0.02079 0.28390 0.59357
 C107 C 0.01339 0.20852 0.50761
 C108 C 0.03244 0.19489 0.50505
 C109 C 0.05044 0.21488 0.54176
 C110 C 0.03110 0.22821 0.54352
 N111 N 0.01327 0.22509 0.52630
 H112 H -0.03842 0.25377 0.57620
 H113 H 0.02099 0.27991 0.53663
 H114 H 0.02763 0.31130 0.56834
 H115 H -0.03315 0.28471 0.60905
 H116 H -0.00121 0.20616 0.49443
 H117 H 0.03230 0.18201 0.48980
 H118 H 0.06456 0.21783 0.55549
 H119 H 0.03042 0.24107 0.55864
 C120 C -0.07864 0.19314 0.53510
 C121 C -0.01568 0.28784 0.45739
 C122 C 0.05142 0.19811 0.52215
 C123 C -0.00226 0.30063 0.59143
 C124 C 0.99401 0.72097 0.50271
 H125 H 0.98245 0.71827 0.48646
 C126 C 0.99160 0.70659 0.52276
 H127 H 0.97805 0.69284 0.52174
 C128 C 1.02591 0.74210 0.52337
 H129 H 1.03947 0.75575 0.52338
 C130 C 1.02418 0.72806 0.54382
 H131 H 1.03638 0.73126 0.55949
 N132 N 1.01074 0.73848 0.50350
 C133 C 0.98281 0.78661 0.45336
 H134 H 0.99689 0.78853 0.43977
 C135 C 0.96304 0.79930 0.45165
 H136 H 0.96203 0.81089 0.43655
 C137 C 0.96752 0.76970 0.49002
 H138 H 0.96953 0.75862 0.50536
 C139 C 0.94749 0.78200 0.48902
 H140 H 0.93424 0.77993 0.50351
 Zn141 Zn 1.01265 0.75675 0.47518
 N142 N 0.98466 0.77212 0.47230
 C143 C 1.00156 0.73463 0.42708
 N144 N 1.01704 0.73697 0.44678
 C145 C 1.03530 0.72340 0.44825
 C146 C 1.03830 0.70630 0.42973
 C147 C 1.00395 0.71772 0.40803
 C148 C 1.03629 0.79482 0.49825
 C149 C 1.05433 0.81165 0.50272
 C150 C 1.07564 0.79560 0.46749
 C151 C 1.05712 0.77904 0.46368
 N152 N 1.03808 0.77882 0.47918
 H153 H 0.98687 0.74528 0.42654
 H154 H 1.04711 0.72542 0.46434
 H155 H 1.05267 0.69538 0.43168
 H156 H 0.99108 0.71568 0.39287
 H157 H 1.02082 0.79437 0.51011
 H158 H 1.05250 0.82412 0.51812
 H159 H 1.09067 0.79547 0.45499
 H160 H 1.05800 0.76642 0.44833
 C161 C 0.94510 0.79719 0.46976
 C162 C 1.00678 0.71007 0.54373
 C163 C 1.07440 0.81217 0.48729
 C164 C 1.02225 0.70298 0.40951
 C165 C 0.45607 -0.01701 0.26474
 H166 H 0.45844 -0.03176 0.25237
 C167 C 0.43715 -0.01711 0.28161
 H168 H 0.42485 -0.03187 0.28184
 C169 C 0.46948 0.01991 0.28008
 H170 H 0.48240 0.03414 0.27959
 C171 C 0.45066 0.02071 0.29681
 H172 H 0.44920 0.03570 0.30914
 N173 N 0.47160 0.00147 0.26412
 C174 C 0.51705 -0.03693 0.22080
 H175 H 0.53197 -0.03231 0.23301
 C176 C 0.51739 -0.05630 0.20475
 H177 H 0.53258 -0.06639 0.20533
 C178 C 0.47985 -0.02880 0.20473
 H179 H 0.46535 -0.01785 0.20480
 C180 C 0.47950 -0.04799 0.18818
 H181 H 0.46451 -0.05159 0.17567
 Zn182 Zn 0.49811 0.00267 0.24258
 N183 N 0.49832 -0.02379 0.22081
 C184 C 0.52677 -0.01291 0.27922
 N185 N 0.52482 0.00482 0.26415
 C186 C 0.54070 0.02310 0.26559
 C187 C 0.55990 0.02360 0.28224
 C188 C 0.54587 -0.01334 0.29563
 C189 C 0.47833 0.04059 0.22224
 C190 C 0.47737 0.05889 0.20673
 C191 C 0.51573 0.05091 0.19048
 C192 C 0.51598 0.03271 0.20638
 N193 N 0.49755 0.02807 0.22205
 H194 H 0.51357 -0.02696 0.27814
 H195 H 0.53846 0.03732 0.25396
 H196 H 0.57256 0.03811 0.28304
 H197 H 0.54726 -0.02784 0.30712
 H198 H 0.46347 0.03621 0.23409
 H199 H 0.46183 0.06853 0.20727
 H200 H 0.53060 0.05434 0.17821
 H201 H 0.53086 0.02222 0.20622
 C202 C 0.49843 -0.06220 0.18806
 C203 C 0.43417 0.00206 0.29771
 C204 C 0.49622 0.06430 0.19055
 C205 C 0.56280 0.00501 0.29721
 C206 C 0.53246 -0.02218 0.71553
 H207 H 0.51870 -0.03568 0.71591
 C208 C 0.55096 -0.02384 0.69850
 H209 H 0.55129 -0.03876 0.68585
 C210 C 0.54821 0.01385 0.73132
 H211 H 0.54685 0.02862 0.74393
 C212 C 0.56692 0.01305 0.71421
 H213 H 0.58002 0.02717 0.71404
 N214 N 0.53157 -0.00374 0.73177
 C215 C 0.48527 -0.03307 0.78920
 H216 H 0.47090 -0.02196 0.78936
 C217 C 0.48465 -0.05137 0.80506
 H218 H 0.46963 -0.05426 0.81728
 C219 C 0.52251 -0.04244 0.77344
 H220 H 0.53756 -0.03863 0.76166
 C221 C 0.52259 -0.06086 0.78887
 H222 H 0.53766 -0.07114 0.78833
 Zn223 Zn 0.50483 -0.00364 0.75302
 N224 N 0.50392 -0.02910 0.77361
 C225 C 0.46114 -0.02148 0.72973
 N226 N 0.47855 -0.00454 0.73093
 C227 C 0.47854 0.01303 0.71533
 C228 C 0.46001 0.01469 0.69848
 C229 C 0.44234 -0.02068 0.71273
 C230 C 0.52350 0.02811 0.79089
 C231 C 0.52376 0.04751 0.80718
 C232 C 0.48622 0.05590 0.78982
 C233 C 0.48663 0.03637 0.77404
 N234 N 0.50522 0.02307 0.77454
 H235 H 0.46179 -0.03558 0.74187
 H236 H 0.49286 0.02602 0.71635
 H237 H 0.46025 0.02905 0.68654
 H238 H 0.42845 -0.03412 0.71213
 H239 H 0.53789 0.01705 0.79128
 H240 H 0.53850 0.05129 0.81998
 H241 H 0.47118 0.06613 0.78898
 H242 H 0.47183 0.03175 0.76167
 C243 C 0.50351 -0.06559 0.80499
 C244 C 0.56849 -0.00607 0.69761
 C245 C 0.50494 0.06176 0.80668
 C246 C 0.44151 -0.00221 0.69711
 C247 C 0.22990 0.04669 0.50367
 C248 C 0.24798 0.04610 0.52510
 C249 C 0.26039 0.02707 0.52406
 C250 C 0.25359 0.01041 0.50152
 C251 C 0.24421 0.04380 0.47947
 C252 C 0.25673 0.02491 0.47825
 C253 C 0.21467 0.02460 0.50522
 C254 C 0.22686 0.00561 0.50408
 H255 H 0.25075 0.05950 0.53966
 H256 H 0.26360 -0.00511 0.50063
 H257 H 0.24513 0.05626 0.46513
 H258 H 0.19569 0.02414 0.50726
 C259 C 0.77366 -0.04390 0.48798
 C260 C 0.75561 -0.04517 0.50947
 C261 C 0.74301 -0.02635 0.51243
 C262 C 0.74952 -0.00804 0.49344
 C263 C 0.75923 -0.03928 0.46466
 C264 C 0.74644 -0.02066 0.46739
 C265 C 0.78868 -0.02196 0.49401
 C266 C 0.77623 -0.00319 0.49693
 H267 H 0.75323 -0.05949 0.52138
 H268 H 0.73931 0.00728 0.49576
 H269 H 0.75830 -0.05063 0.44796
 H270 H 0.80762 -0.02153 0.49648
 C271 C 0.45353 0.26945 1.00506
 C272 C 0.45770 0.25545 0.98049
 C273 C 0.47768 0.24388 0.98077
 C274 C 0.49193 0.24774 1.00552
 C275 C 0.45410 0.25241 1.02586
 C276 C 0.47415 0.24098 1.02620
 C277 C 0.47598 0.28477 1.00910
 C278 C 0.49606 0.27363 1.00934
 H279 H 0.44515 0.25363 0.96503
 H280 H 0.50840 0.23868 1.00582
 H281 H 0.43961 0.24938 1.03876
 H282 H 0.47590 0.30308 1.01136
 C283 C 0.54082 0.72833 -0.00951
 C284 C 0.54013 0.74495 -0.03071
 C285 C 0.52039 0.75688 -0.03074
 C286 C 0.50300 0.75094 -0.00938
 C287 C 0.53760 0.74294 0.01484
 C288 C 0.51794 0.75496 0.01489
 C289 C 0.51798 0.71345 -0.01254
 C290 C 0.49819 0.72506 -0.01246
 H291 H 0.55438 0.74742 -0.04404
 H292 H 0.48677 0.76039 -0.00941
 H293 H 0.55052 0.74473 0.02995
 H294 H 0.51756 0.69510 -0.01435
 C295 C 0.99622 0.45237 0.27710
 C296 C 0.97405 0.45468 0.26133
 C297 C 0.97525 0.47287 0.24651
 C298 C 0.99873 0.48729 0.24889
 C299 C 1.01633 0.45210 0.25784
 C300 C 1.01777 0.47044 0.24314
 C301 C 1.00034 0.47513 0.29192
 C302 C 1.00163 0.49343 0.27729
 H303 H 0.95891 0.44259 0.26162
 H304 H 0.99979 0.50224 0.23696
 H305 H 1.02873 0.43898 0.25653
 H306 H 1.00235 0.47651 0.31229
 C307 C -0.00336 0.54871 0.72901
 C308 C -0.02593 0.54506 0.74434
 C309 C -0.02632 0.52669 0.75889
 C310 C -0.00392 0.51351 0.75673
 C311 C 0.01660 0.54983 0.74861
 C312 C 0.01643 0.53137 0.76307
 C313 C -0.00092 0.52628 0.71395
 C314 C -0.00128 0.50784 0.72832
 H315 H -0.04016 0.55634 0.74392
 H316 H -0.00415 0.49844 0.76844
 H317 H 0.02999 0.56369 0.75043
 H318 H 0.00096 0.52520 0.69359
 C319 C 0.10987 0.15859 0.51435
 N320 N 0.10795 0.17311 0.53477
 N321 N 0.08942 0.18569 0.53724
 C322 C 0.07205 0.18417 0.51946
 N323 N 0.07407 0.16963 0.49905
 N324 N 0.09260 0.15709 0.49654
 C325 C 0.12990 0.14424 0.51177
 N326 N 0.13174 0.13010 0.49102
 N327 N 0.14930 0.11634 0.48897
 C328 C 0.16570 0.11619 0.50758
 N329 N 0.16400 0.13046 0.52828
 N330 N 0.14642 0.14428 0.53032
 C331 C 0.18393 0.09976 0.50588
 N332 N 0.19948 0.09806 0.52508
 N333 N 0.21472 0.08185 0.52416
 C334 C 0.21497 0.06678 0.50397
 N335 N 0.19961 0.06871 0.48468
 N336 N 0.18443 0.08490 0.48559
 C337 C 0.65744 0.61331 -0.00542
 N338 N 0.67129 0.61122 0.01512
 N339 N 0.68412 0.59328 0.01681
 C340 C 0.68351 0.57668 -0.00190
 N341 N 0.66966 0.57887 -0.02244
 N342 N 0.65690 0.59681 -0.02418
 C343 C 0.64267 0.63266 -0.00708
 N344 N 0.62949 0.63490 -0.02808
 N345 N 0.61524 0.65181 -0.02927
 C346 C 0.61363 0.66712 -0.00950
 N347 N 0.62696 0.66499 0.01144
 N348 N 0.64126 0.64810 0.01260
 C349 C 0.59652 0.68464 -0.01020
 N350 N 0.59285 0.69842 0.01048
 N351 N 0.57587 0.71291 0.01049
 C352 C 0.56197 0.71423 -0.01021
 N353 N 0.56596 0.70071 -0.03101
 N354 N 0.58290 0.68621 -0.03101
 C355 C 0.88791 -0.16140 0.46988
 N356 N 0.90465 -0.15981 0.45171
 N357 N 0.92260 -0.17319 0.45141
 C358 C 0.92454 -0.18867 0.46929
 N359 N 0.90764 -0.19035 0.48732
 N360 N 0.88969 -0.17697 0.48763
 C361 C 0.86888 -0.14578 0.47104
 N362 N 0.85275 -0.14661 0.48990
 N363 N 0.83626 -0.13162 0.49170
 C364 C 0.83532 -0.11526 0.47469
 N365 N 0.85133 -0.11457 0.45572
 N366 N 0.86780 -0.12955 0.45392
 C367 C 0.81820 -0.09779 0.47744
 N368 N 0.81863 -0.08069 0.46127
 N369 N 0.80414 -0.06403 0.46445
 C370 C 0.78860 -0.06383 0.48388
 N371 N 0.78801 -0.08106 0.49996
 N372 N 0.80256 -0.09774 0.49679
 C373 C 0.33632 0.38399 1.00432
 N374 N 0.33622 0.39924 1.02428
 N375 N 0.32359 0.41736 1.02355
 C376 C 0.31049 0.42097 1.00284
 N377 N 0.31050 0.40560 0.98290
 N378 N 0.32322 0.38748 0.98359
 C379 C 0.35101 0.36449 1.00501
 N380 N 0.35337 0.35039 0.98427
 N381 N 0.36768 0.33344 0.98472
 C382 C 0.38005 0.32991 1.00596
 N383 N 0.37747 0.34386 1.02674
 N384 N 0.36324 0.36082 1.02627
 C385 C 0.39725 0.31242 1.00612
 N386 N 0.40997 0.30974 1.02733
 N387 N 0.42706 0.29541 1.02710
 C388 C 0.43209 0.28313 1.00569
 N389 N 0.41910 0.28555 0.98455
 N390 N 0.40197 0.29990 0.98477
 C391 C 0.86868 0.14002 0.53414
 N392 N 0.86686 0.15774 0.51907
 N393 N 0.88326 0.17492 0.51983
 C394 C 0.90208 0.17508 0.53572
 N395 N 0.90361 0.15751 0.55107
 N396 N 0.88728 0.14030 0.55025
 C397 C 0.85210 0.11994 0.53161
 N398 N 0.85691 0.10076 0.54308
 N399 N 0.84323 0.08180 0.53915
 C400 C 0.82412 0.08129 0.52375
 N401 N 0.81900 0.10058 0.51258
 N402 N 0.83282 0.11956 0.51638
 C403 C 0.81062 0.05967 0.51783
 N404 N 0.78952 0.05872 0.50561
 N405 N 0.77819 0.03874 0.49931
 C406 C 0.78777 0.01908 0.50470
 N407 N 0.80878 0.02015 0.51700
 N408 N 0.81993 0.04003 0.52352
 C409 C 0.35671 0.62241 -0.01083
 N410 N 0.34096 0.62297 0.00840
 N411 N 0.32489 0.60576 0.01100
 C412 C 0.32401 0.58735 -0.00550
 N413 N 0.33971 0.58699 -0.02476
 N414 N 0.35574 0.60412 -0.02734
 C415 C 0.37544 0.64050 -0.01328
 N416 N 0.39219 0.63807 -0.03120
 N417 N 0.41020 0.65344 -0.03275
 C418 C 0.41211 0.67196 -0.01657
 N419 N 0.39516 0.67466 0.00118
 N420 N 0.37713 0.65917 0.00280
 C421 C 0.43345 0.68735 -0.01707
 N422 N 0.43551 0.70726 -0.00303
 N423 N 0.45583 0.71996 -0.00230
 C424 C 0.47481 0.71302 -0.01538
 N425 N 0.47256 0.69329 -0.02960
 N426 N 0.45227 0.68079 -0.03054
 C427 C 0.12777 -0.13589 0.49911
 N428 N 0.10817 -0.13665 0.51366
 N429 N 0.09144 -0.15328 0.51005
 C430 C 0.09355 -0.16982 0.49166
 N431 N 0.11328 -0.16915 0.47719
 N432 N 0.13008 -0.15248 0.48083
 C433 C 0.14525 -0.11659 0.50234
 N434 N 0.16516 -0.11522 0.48819
 N435 N 0.18004 -0.09680 0.49022
 C436 C 0.17544 -0.07913 0.50642
 N437 N 0.15569 -0.08068 0.52070
 N438 N 0.14093 -0.09906 0.51876
 C439 C 0.19014 -0.05777 0.50716
 N440 N 0.18180 -0.03902 0.51876
 N441 N 0.19384 -0.01905 0.51812
 C442 C 0.21482 -0.01701 0.50605
 N443 N 0.22349 -0.03584 0.49482
 N444 N 0.21127 -0.05589 0.49524
 C445 C 0.63788 0.37634 1.01554
 N446 N 0.65475 0.37533 0.99749
 N447 N 0.67108 0.39241 0.99554
 C448 C 0.67112 0.41113 1.01153
 N449 N 0.65431 0.41194 1.02965
 N450 N 0.63801 0.39493 1.03158
 C451 C 0.61885 0.35841 1.01704
 N452 N 0.60088 0.36131 1.03340
 N453 N 0.58266 0.34606 1.03389
 C454 C 0.58174 0.32722 1.01817
 N455 N 0.59989 0.32407 1.00200
 N456 N 0.61813 0.33943 1.00143
 C457 C 0.56033 0.31189 1.01737
 N458 N 0.55918 0.29169 1.00386
 N459 N 0.53894 0.27891 1.00196
 C460 C 0.51915 0.28606 1.01330
 N461 N 0.52047 0.30610 1.02698
 N462 N 0.54066 0.31869 1.02909
 C463 C 0.49258 0.11852 1.14258
 N464 N 0.51143 0.10557 1.14174
 N465 N 0.51270 0.08842 1.15702
 C466 C 0.49517 0.08355 1.17371
 N467 N 0.47639 0.09661 1.17450
 N468 N 0.47512 0.11373 1.15927
 C469 C 0.49074 0.13726 1.12560
 N470 N 0.47166 0.14988 1.12675
 N471 N 0.46959 0.16667 1.11122
 C472 C 0.48652 0.17150 1.09392
 N473 N 0.50567 0.15893 1.09277
 N474 N 0.50775 0.14211 1.10834
 C475 C 0.48376 0.18982 1.07658
 N476 N 0.50031 0.19481 1.05889
 N477 N 0.49737 0.21120 1.04297
 C478 C 0.47780 0.22318 1.04415
 N479 N 0.46133 0.21818 1.06191
 N480 N 0.46426 0.20184 1.07780
 C481 C 0.00090 0.66635 0.60377
 N482 N 0.01859 0.68288 0.60346
 N483 N 0.02038 0.69688 0.58450
 C484 C 0.00460 0.69484 0.56509
 N485 N -0.01312 0.67832 0.56554
 N486 N -0.01494 0.66436 0.58449
 C487 C -0.00075 0.65039 0.62412
 N488 N -0.01848 0.63389 0.62412
 N489 N -0.01959 0.61879 0.64197
 C490 C -0.00301 0.61964 0.66050
 N491 N 0.01465 0.63624 0.66063
 N492 N 0.01575 0.65137 0.64276
 C493 C -0.00367 0.60220 0.67928
 N494 N 0.01347 0.60210 0.69712
 N495 N 0.01343 0.58550 0.71326
 C496 C -0.00376 0.56841 0.71213
 N497 N -0.02099 0.56867 0.69441
 N498 N -0.02095 0.58524 0.67830
 C499 C 0.50486 0.87977 -0.14728
 N500 N 0.52225 0.88374 -0.16429
 N501 N 0.52167 0.90099 -0.17944
 C502 C 0.50369 0.91502 -0.17826
 N503 N 0.48621 0.91097 -0.16126
 N504 N 0.48678 0.89369 -0.14605
 C505 C 0.50602 0.86088 -0.13035
 N506 N 0.48924 0.85688 -0.11261
 N507 N 0.49081 0.83994 -0.09707
 C508 C 0.50921 0.82642 -0.09874
 N509 N 0.52590 0.83042 -0.11653
 N510 N 0.52434 0.84731 -0.13203
 C511 C 0.51152 0.80802 -0.08138
 N512 N 0.53037 0.79513 -0.08315
 N513 N 0.53302 0.77877 -0.06720
 C514 C 0.51691 0.77461 -0.04884
 N515 N 0.49796 0.78743 -0.04713
 N516 N 0.49531 0.80384 -0.06311
 C517 C 0.98463 0.33189 0.39933
 N518 N 1.00087 0.31614 0.40014
 N519 N 1.00059 0.30172 0.41870
 C520 C 0.98410 0.30248 0.43724
 N521 N 0.96775 0.31818 0.43618
 N522 N 0.96801 0.33258 0.41763
 C523 C 0.98548 0.34850 0.37961
 N524 N 0.96949 0.36453 0.37941
 N525 N 0.97074 0.38023 0.36221
 C526 C 0.98801 0.38049 0.34458
 N527 N 1.00393 0.36436 0.34465
 N528 N 1.00268 0.34864 0.36187
 C529 C 0.98983 0.39844 0.32639
 N530 N 1.00737 0.39932 0.30904
 N531 N 1.00936 0.41615 0.29319
 C532 C 0.99390 0.43273 0.29414
 N533 N 0.97632 0.43174 0.31143
 N534 N 0.97432 0.41493 0.32724
 C535 C 0.49964 0.88093 0.13972
 N536 N 0.48140 0.89459 0.13905
 N537 N 0.48090 0.91289 0.15473
 C538 C 0.49866 0.91834 0.17164
 N539 N 0.51683 0.90454 0.17221
 N540 N 0.51730 0.88624 0.15662
 C541 C 0.50070 0.86098 0.12219
 N542 N 0.51865 0.84711 0.12389
 N543 N 0.52022 0.82938 0.10765
 C544 C 0.50392 0.82484 0.08905
 N545 N 0.48587 0.83865 0.08738
 N546 N 0.48426 0.85638 0.10369
 C547 C 0.50652 0.80586 0.07052
 N548 N 0.49149 0.80205 0.05059
 N549 N 0.49479 0.78552 0.03317
 C550 C 0.51321 0.77219 0.03504
 N551 N 0.52805 0.77590 0.05513
 N552 N 0.52478 0.79240 0.07252
 C553 C 0.00414 0.35839 0.64082
 N554 N -0.01170 0.34095 0.64563
 N555 N -0.01351 0.32236 0.63027
 C556 C 0.00048 0.32051 0.60957
 N557 N 0.01647 0.33789 0.60506
 N558 N 0.01823 0.35645 0.62032
 C559 C 0.00516 0.37971 0.65626
 N560 N 0.01817 0.39801 0.64829
 N561 N 0.01818 0.41792 0.66110
 C562 C 0.00532 0.42026 0.68248
 N563 N -0.00749 0.40189 0.69072
 N564 N -0.00763 0.38195 0.67778
 C565 C 0.00432 0.44274 0.69526
 N566 N -0.00532 0.44546 0.71857
 N567 N -0.00678 0.46617 0.72940
 C568 C 0.00111 0.48483 0.71716
 N569 N 0.01079 0.48202 0.69393
 N570 N 0.01245 0.46138 0.68324
 C571 C 0.50235 0.11975 0.85548
 N572 N 0.51975 0.10532 0.85794
 N573 N 0.52077 0.08701 0.84234
 C574 C 0.50440 0.08238 0.82375
 N575 N 0.48711 0.09692 0.82132
 N576 N 0.48611 0.11522 0.83684
 C577 C 0.50050 0.13959 0.87303
 N578 N 0.48298 0.15376 0.87009
 N579 N 0.48055 0.17129 0.88640
 C580 C 0.49555 0.17535 0.90629
 N581 N 0.51319 0.16126 0.90917
 N582 N 0.51564 0.14371 0.89282
 C583 C 0.49194 0.19405 0.92491
 N584 N 0.50602 0.19765 0.94563
 N585 N 0.50181 0.21386 0.96311
 C586 C 0.48339 0.22707 0.96053
 N587 N 0.46949 0.22358 0.93966
 N588 N 0.47368 0.20740 0.92219
 C589 C 1.02380 0.64499 0.36084
 N590 N 1.00923 0.66153 0.35588
 N591 N 1.00912 0.68028 0.37092
 C592 C 1.02363 0.68321 0.39141
 N593 N 1.03842 0.66678 0.39602
 N594 N 1.03847 0.64803 0.38109
 C595 C 1.02256 0.62334 0.34598
 N596 N 1.03366 0.60557 0.35447
 N597 N 1.03134 0.58534 0.34229
 C598 C 1.01795 0.58212 0.32105
 N599 N 1.00708 0.59997 0.31228
 N600 N 1.00927 0.62023 0.32460
 C601 C 1.01433 0.55932 0.30893
 N602 N 1.00441 0.55590 0.28559
 N603 N 1.00061 0.53494 0.27528
 C604 C 1.00632 0.51670 0.28807
 N605 N 1.01625 0.52021 0.31136
 N606 N 1.02025 0.54111 0.32154
 C607 C 1.14824 0.49715 0.12433
 N608 N 1.16501 0.48192 0.12204
 N609 N 1.18223 0.48447 0.10524
 C610 C 1.18344 0.50234 0.08999
 N611 N 1.16672 0.51771 0.09256
 N612 N 1.14947 0.51517 0.10938
 C613 C 1.12879 0.49367 0.14221
 N614 N 1.11167 0.50859 0.14456
 N615 N 1.09379 0.50500 0.16042
 C616 C 1.09238 0.48633 0.17444
 N617 N 1.10952 0.47147 0.17210
 N618 N 1.12738 0.47507 0.15627
 C619 C 1.07273 0.48216 0.19190
 N620 N 1.07141 0.46322 0.20542
 N621 N 1.05380 0.45940 0.22149
 C622 C 1.03681 0.47436 0.22467
 N623 N 1.03809 0.49327 0.21107
 N624 N 1.05571 0.49710 0.19495
 C625 C 0.62276 -0.01072 0.64439
 N626 N 0.61002 -0.02956 0.65139
 N627 N 0.59292 -0.02801 0.66839
 C628 C 0.58796 -0.00759 0.67922
 N629 N 0.60087 0.01126 0.67236
 N630 N 0.61790 0.00974 0.65520
 C631 C 0.64119 -0.01262 0.62515
 N632 N 0.65149 0.00610 0.61482
 N633 N 0.66780 0.00413 0.59693
 C634 C 0.67447 -0.01663 0.58884
 N635 N 0.66425 -0.03531 0.59927
 N636 N 0.64786 -0.03335 0.61702
 C637 C 0.69232 -0.01900 0.56904
 N638 N 0.70105 -0.03947 0.56352
 N639 N 0.71718 -0.04178 0.54555
 C640 C 0.72508 -0.02377 0.53227
 N641 N 0.71628 -0.00331 0.53774
 N642 N 0.70024 -0.00095 0.55584
 C643 C -0.15623 0.49512 0.87663
 N644 N -0.17452 0.50872 0.87703
 N645 N -0.19091 0.50707 0.89486
 C646 C -0.18970 0.49175 0.91302
 N647 N -0.17148 0.47797 0.91243
 N648 N -0.15504 0.47963 0.89459
 C649 C -0.13756 0.49803 0.85775
 N650 N -0.11843 0.48545 0.85780
 N651 N -0.10105 0.48902 0.84133
 C652 C -0.10219 0.50532 0.82425
 N653 N -0.12139 0.51775 0.82412
 N654 N -0.13874 0.51418 0.84055
 C655 C -0.08272 0.51016 0.80677
 N656 N -0.08374 0.52736 0.79088
 N657 N -0.06587 0.53246 0.77555
 C658 C -0.04627 0.52055 0.77550
 N659 N -0.04529 0.50323 0.79130
 N660 N -0.06318 0.49814 0.80670
 C661 C 0.37779 0.00509 0.34840
 N662 N 0.38877 0.02430 0.33995
 N663 N 0.40661 0.02324 0.32382
 C664 C 0.41408 0.00292 0.31532
 N665 N 0.40294 -0.01636 0.32362
 N666 N 0.38519 -0.01529 0.33996
 C667 C 0.35847 0.00669 0.36662
 N668 N 0.35043 -0.01148 0.37962
 N669 N 0.33346 -0.00946 0.39679
 C670 C 0.32384 0.01075 0.40139
 N671 N 0.33177 0.02880 0.38823
 N672 N 0.34881 0.02683 0.37126
 C673 C 0.30562 0.01357 0.42069
 N674 N 0.29434 0.03307 0.42250
 N675 N 0.27851 0.03639 0.44052
 C676 C 0.27340 0.02041 0.45757
 N677 N 0.28461 0.00081 0.45572
 N678 N 0.30039 -0.00259 0.43755
 C679 C 0.14369 0.51143 0.88425
 N680 N 0.16208 0.52722 0.88623
 N681 N 0.17932 0.52531 0.90285
 C682 C 0.17888 0.50755 0.91818
 N683 N 0.16050 0.49167 0.91608
 N684 N 0.14324 0.49356 0.89942
 C685 C 0.12449 0.51401 0.86630
 N686 N 0.10603 0.49827 0.86386
 N687 N 0.08854 0.50093 0.84771
 C688 C 0.08886 0.51945 0.83351
 N689 N 0.10731 0.53515 0.83598
 N690 N 0.12479 0.53248 0.85207
 C691 C 0.06974 0.52256 0.81563
 N692 N 0.07017 0.54143 0.80204
 N693 N 0.05309 0.54430 0.78554
 C694 C 0.03490 0.52841 0.78197
 N695 N 0.03443 0.50955 0.79564
 N696 N 0.05152 0.50668 0.81220
 C697 C 0.62082 0.00212 0.34559
 N698 N 0.60959 -0.01709 0.33530
 N699 N 0.59120 -0.01604 0.31997
 C700 C 0.58341 0.00426 0.31409
 N701 N 0.59477 0.02355 0.32422
 N702 N 0.61308 0.02250 0.33982
 C703 C 0.64086 0.00045 0.36276
 N704 N 0.64889 0.01824 0.37834
 N705 N 0.66652 0.01602 0.39451
 C706 C 0.67683 -0.00401 0.39547
 N707 N 0.66890 -0.02165 0.37973
 N708 N 0.65120 -0.01950 0.36378
 C709 C 0.69581 -0.00719 0.41354
 N710 N 0.70790 -0.02617 0.41125
 N711 N 0.72431 -0.03007 0.42810
 C712 C 0.72924 -0.01522 0.44804
 N713 N 0.71724 0.00390 0.45031
 N714 N 0.70085 0.00789 0.43330
 C715 C 0.84770 0.49516 0.12672
 N716 N 0.82819 0.48070 0.12670
 N717 N 0.81162 0.48144 0.10906
 C718 C 0.81386 0.49669 0.09072
 N719 N 0.83334 0.51130 0.09089
 N720 N 0.84996 0.51055 0.10855
 C721 C 0.86633 0.49346 0.14562
 N722 N 0.88648 0.50712 0.14539
 N723 N 0.90366 0.50480 0.16205
 C724 C 0.90127 0.48873 0.17949
 N725 N 0.88107 0.47520 0.17977
 N726 N 0.86394 0.47752 0.16315
 C727 C 0.92036 0.48533 0.19732
 N728 N 0.91790 0.46839 0.21365
 N729 N 0.93531 0.46461 0.22938
 C730 C 0.95587 0.47763 0.22944
 N731 N 0.95830 0.49470 0.21320
 N732 N 0.94086 0.49847 0.19739
 C733 C 0.38542 0.00428 0.64700
 N734 N 0.39928 0.02266 0.65535
 N735 N 0.41701 0.02048 0.67125
 C736 C 0.42153 -0.00013 0.67963
 N737 N 0.40753 -0.01855 0.67142
 N738 N 0.38986 -0.01640 0.65531
 C739 C 0.36615 0.00700 0.62914
 N740 N 0.35485 -0.01121 0.61671
 N741 N 0.33778 -0.00838 0.60008
 C742 C 0.33133 0.01274 0.59543
 N743 N 0.34255 0.03089 0.60798
 N744 N 0.35969 0.02808 0.62443
 C745 C 0.31269 0.01616 0.57705
 N746 N 0.30408 0.03691 0.57553
 N747 N 0.28738 0.04031 0.55877
 C748 C 0.27876 0.02314 0.54272
 N749 N 0.28742 0.00238 0.54419
 N750 N 0.30403 -0.00108 0.56110
   
