data_POSCAR
  _audit_creation_date              2014-09-24
  _audit_creation_method            'ToBaCCo'
  _symmetry_space_group_name_H-M    'P1'
  _symmetry_Int_Tables_number       1
  _symmetry_cell_setting            triclinic
  loop_
  _symmetry_equiv_pos_as_xyz
 x,y,z
_cell_length_a 23.3930
_cell_length_b 23.3943
_cell_length_c 43.9739
_cell_angle_alpha 90.004000
_cell_angle_beta 90.002000
_cell_angle_gamma 120.001700
loop_
  _atom_site_label
  _atom_site_type_symbol
  _atom_site_fract_x
  _atom_site_fract_y
  _atom_site_fract_z
Zn1 Zn 0.95786 0.04317 1.01351
 Zn2 Zn 1.08548 0.04230 1.01351
 Zn3 Zn 0.95697 -0.08534 1.01373
 Zn4 Zn 0.99986 -0.00040 0.95820
 O5 O 1.00004 -0.00007 0.99977
 O6 O 1.01009 0.11364 1.03644
 O7 O 1.10379 -0.00967 1.03659
 O8 O 0.88680 -0.10332 1.03684
 O9 O 1.10442 0.11276 1.03655
 O10 O 0.88768 -0.00810 1.03674
 O11 O 1.00858 -0.10401 1.03685
 O12 O 0.95927 -0.08190 0.94256
 O13 O 1.14499 0.07200 0.98329
 O14 O 0.92700 -0.14522 0.98366
 O15 O 1.08118 0.04038 0.94235
 O16 O 0.95893 0.03998 0.94235
 O17 O 0.92787 0.07273 0.98329
 C18 C 1.06971 0.13783 1.04465
 C19 C 1.06839 -0.06922 1.04491
 C20 C 0.86272 -0.06776 1.04502
 C21 C 0.93085 -0.13829 0.95501
 C22 C 1.13773 0.06859 0.95466
 C23 C 0.93094 0.06853 0.95466
 Zn24 Zn 0.04210 0.95677 0.51359
 Zn25 Zn -0.08545 0.95785 0.51357
 Zn26 Zn 0.04316 1.08536 0.51361
 Zn27 Zn -0.00000 1.00004 0.45822
 O28 O -0.00005 1.00000 0.49978
 O29 O -0.01013 0.88651 0.53663
 O30 O -0.10356 1.01005 0.53659
 O31 O 0.11336 1.10338 0.53670
 O32 O -0.10442 0.88748 0.53670
 O33 O 0.11244 1.00815 0.53674
 O34 O -0.00829 1.10432 0.53670
 O35 O 0.04076 1.08142 0.44246
 O36 O -0.14506 0.92811 0.48338
 O37 O 0.07317 1.14505 0.48346
 O38 O -0.08135 0.95941 0.44241
 O39 O 0.04063 0.95932 0.44244
 O40 O 0.07182 0.92684 0.48342
 C41 C -0.06973 0.86242 0.54486
 C42 C -0.06806 1.06965 0.54482
 C43 C 0.13746 1.06788 0.54492
 C44 C 0.06929 1.13790 0.45482
 C45 C -0.13787 0.93139 0.45475
 C46 C 0.06857 0.93076 0.45478
 O47 O 0.42711 0.76377 0.21513
 O48 O 0.31795 0.76592 0.22430
 C49 C 0.26735 0.72465 0.20952
 O50 O 0.23628 0.66333 0.21496
 O51 O 0.23397 0.55193 0.22410
 C52 C 0.27533 0.54271 0.20936
 O53 O 0.33662 0.57296 0.21488
 O54 O 0.44798 0.68200 0.22423
 C55 C 0.45741 0.73279 0.20960
 O56 O 0.44743 0.76620 0.27562
 O57 O 0.33565 0.76295 0.28480
 C58 C 0.27435 0.73152 0.29027
 O59 O 0.23329 0.68089 0.27546
 O60 O 0.23652 0.57232 0.28461
 C61 C 0.26796 0.54249 0.29012
 O62 O 0.31866 0.55208 0.27536
 O63 O 0.42722 0.66377 0.28469
 C64 C 0.45701 0.72500 0.29031
 Cr65 Cr 0.38018 0.76099 0.24995
 Cr66 Cr 0.23873 0.61899 0.24978
 Cr67 Cr 0.38075 0.61955 0.24978
 O68 O 0.33323 0.66651 0.24983
 O69 O 0.76353 0.42716 0.78480
 O70 O 0.76643 0.31849 0.77540
 C71 C 0.72521 0.26781 0.79013
 O72 O 0.66393 0.23658 0.78462
 O73 O 0.55234 0.23375 0.77546
 C74 C 0.54291 0.27492 0.79026
 O75 O 0.57290 0.33621 0.78479
 O76 O 0.68164 0.44780 0.77562
 C77 C 0.73223 0.45709 0.79039
 O78 O 0.76628 0.44814 0.72433
 O79 O 0.76367 0.33667 0.71493
 C80 C 0.73251 0.27540 0.70938
 O81 O 0.68184 0.23409 0.72410
 O82 O 0.57289 0.23669 0.71496
 C83 C 0.54273 0.26784 0.70952
 O84 O 0.55220 0.31850 0.72429
 O85 O 0.66373 0.42743 0.71511
 C86 C 0.72503 0.45761 0.70962
 Cr87 Cr 0.76126 0.38076 0.74986
 Cr88 Cr 0.61961 0.23899 0.74978
 Cr89 Cr 0.61948 0.38063 0.74994
 O90 O 0.66678 0.33346 0.74985
 C91 C 0.09850 0.19465 0.06411
 C92 C 0.12244 0.24169 0.08090
 C93 C 0.15063 0.29696 0.10146
 C94 C 0.21529 0.32210 0.11212
 C95 C 0.24170 0.37390 0.13315
 C96 C 0.20357 0.40077 0.14360
 C97 C 0.13917 0.37612 0.13269
 C98 C 0.11276 0.32432 0.11166
 C99 C 0.22962 0.45195 0.16630
 C100 C 0.25085 0.49391 0.18573
 H101 H 0.24493 0.30116 0.10446
 H102 H 0.29147 0.39243 0.14152
 H103 H 0.10917 0.39638 0.14070
 H104 H 0.06263 0.30510 0.10365
 C105 C 0.80618 0.90452 0.06465
 C106 C 0.75937 0.88183 0.08157
 C107 C 0.70437 0.85546 0.10227
 C108 C 0.69183 0.89833 0.11955
 C109 C 0.63996 0.87295 0.14052
 C110 C 0.60038 0.80457 0.14432
 C111 C 0.61252 0.76165 0.12685
 C112 C 0.66443 0.78705 0.10587
 C113 C 0.54882 0.77869 0.16683
 C114 C 0.50655 0.75748 0.18612
 H115 H 0.72255 0.95131 0.11703
 H116 H 0.63119 0.90658 0.15400
 H117 H 0.58237 0.70870 0.12969
 H118 H 0.67382 0.75346 0.09270
 C119 C 0.09650 0.90216 0.06443
 C120 C 0.11964 0.87830 0.08124
 C121 C 0.14669 0.85010 0.10181
 C122 C 0.10757 0.78496 0.11194
 C123 C 0.13289 0.75843 0.13293
 C124 C 0.19744 0.79692 0.14389
 C125 C 0.23680 0.86184 0.13352
 C126 C 0.21147 0.88837 0.11253
 C127 C 0.22246 0.77068 0.16654
 C128 C 0.24311 0.74929 0.18594
 H129 H 0.05733 0.75501 0.10389
 H130 H 0.10196 0.70827 0.14089
 H131 H 0.28669 0.89212 0.14193
 H132 H 0.24207 0.93887 0.10493
 C133 C 0.90150 0.80571 0.56438
 C134 C 0.87762 0.75875 0.58122
 C135 C 0.84952 0.70358 0.60183
 C136 C 0.78517 0.67891 0.61279
 C137 C 0.75886 0.62715 0.63384
 C138 C 0.79681 0.59984 0.64400
 C139 C 0.86091 0.62403 0.63279
 C140 C 0.88721 0.67579 0.61175
 C141 C 0.77084 0.54861 0.66667
 C142 C 0.74961 0.50656 0.68607
 H143 H 0.75567 0.70017 0.60535
 H144 H 0.70933 0.60898 0.64244
 H145 H 0.89077 0.60343 0.64058
 H146 H 0.93710 0.69463 0.60349
 C147 C 0.19414 0.09582 0.56448
 C148 C 0.24109 0.11895 0.58132
 C149 C 0.29629 0.14616 0.60192
 C150 C 0.32251 0.21090 0.61264
 C151 C 0.37437 0.23646 0.63364
 C152 C 0.40026 0.19739 0.64400
 C153 C 0.37450 0.13287 0.63305
 C154 C 0.32262 0.10731 0.61205
 C155 C 0.45162 0.22271 0.66661
 C156 C 0.49374 0.24354 0.68598
 H157 H 0.30239 0.24130 0.60503
 H158 H 0.39375 0.28633 0.64204
 H159 H 0.39398 0.10215 0.64099
 H160 H 0.30259 0.05712 0.60399
 C161 C 0.90395 0.09846 0.56430
 C162 C 0.88084 0.12240 0.58108
 C163 C 0.85373 0.15059 0.60162
 C164 C 0.89311 0.21536 0.61216
 C165 C 0.86766 0.24180 0.63314
 C166 C 0.80271 0.20358 0.64366
 C167 C 0.76310 0.13906 0.63287
 C168 C 0.78855 0.11262 0.61189
 C169 C 0.77753 0.22964 0.66633
 C170 C 0.75679 0.25089 0.68575
 H171 H 0.94363 0.24509 0.60444
 H172 H 0.89879 0.29166 0.64142
 H173 H 0.71289 0.10899 0.64094
 H174 H 0.75773 0.06242 0.60396
 C175 C 0.19500 0.09754 0.93549
 C176 C 0.24230 0.12157 0.91886
 C177 C 0.29773 0.14982 0.89840
 C178 C 0.32444 0.21528 0.88861
 C179 C 0.37618 0.24172 0.86755
 C180 C 0.40142 0.20282 0.85620
 C181 C 0.37525 0.13763 0.86627
 C182 C 0.32351 0.11118 0.88732
 C183 C 0.45242 0.22893 0.83343
 C184 C 0.49424 0.25024 0.81393
 H185 H 0.30471 0.24551 0.89694
 H186 H 0.39590 0.29212 0.85984
 H187 H 0.39424 0.10704 0.85756
 H188 H 0.30306 0.06045 0.89465
 C189 C 0.90244 0.80423 0.93597
 C190 C 0.87913 0.75682 0.91941
 C191 C 0.85194 0.70134 0.89897
 C192 C 0.89080 0.67484 0.88908
 C193 C 0.86556 0.62321 0.86796
 C194 C 0.80138 0.59788 0.85665
 C195 C 0.76222 0.62381 0.86685
 C196 C 0.78745 0.67544 0.88796
 C197 C 0.77660 0.54712 0.83377
 C198 C 0.75618 0.50552 0.81417
 H199 H 0.94081 0.69468 0.89736
 H200 H 0.89634 0.60368 0.86016
 H201 H 0.71260 0.60474 0.85817
 H202 H 0.75707 0.69573 0.89536
 C203 C 0.90193 0.09678 0.93547
 C204 C 0.87792 0.12001 0.91881
 C205 C 0.84975 0.14717 0.89829
 C206 C 0.88800 0.21210 0.88775
 C207 C 0.86168 0.23744 0.86665
 C208 C 0.79700 0.19797 0.85601
 C209 C 0.75850 0.13330 0.86681
 C210 C 0.78482 0.10795 0.88791
 C211 C 0.77103 0.22301 0.83324
 C212 C 0.74980 0.24364 0.81376
 H213 H 0.93835 0.24276 0.89553
 H214 H 0.89196 0.28744 0.85837
 H215 H 0.70852 0.10228 0.85865
 H216 H 0.75490 0.05760 0.89581
 C217 C 0.80483 0.90249 0.43559
 C218 C 0.75753 0.87845 0.41896
 C219 C 0.70212 0.85011 0.39849
 C220 C 0.67489 0.88800 0.38814
 C221 C 0.62313 0.86149 0.36709
 C222 C 0.59841 0.79700 0.35629
 C223 C 0.62512 0.75884 0.36691
 C224 C 0.67688 0.78535 0.38796
 C225 C 0.54741 0.77090 0.33352
 C226 C 0.50562 0.74960 0.31401
 H227 H 0.69420 0.93821 0.39603
 H228 H 0.60299 0.89150 0.35894
 H229 H 0.60654 0.70901 0.35863
 H230 H 0.69775 0.75571 0.39571
 C231 C 0.09780 0.19523 0.43568
 C232 C 0.12116 0.24250 0.41904
 C233 C 0.14833 0.29783 0.39852
 C234 C 0.10958 0.32451 0.38871
 C235 C 0.13479 0.37608 0.36757
 C236 C 0.19886 0.40119 0.35615
 C237 C 0.23790 0.37504 0.36624
 C238 C 0.21269 0.32347 0.38738
 C239 C 0.22366 0.45208 0.33333
 C240 C 0.24406 0.49384 0.31380
 H241 H 0.05967 0.30489 0.39709
 H242 H 0.10409 0.39577 0.35984
 H243 H 0.28742 0.39392 0.35747
 H244 H 0.24299 0.30304 0.39472
 C245 C 0.09736 0.90224 0.43563
 C246 C 0.12123 0.87884 0.41899
 C247 C 0.14933 0.85157 0.39848
 C248 C 0.21474 0.89027 0.38865
 C249 C 0.24108 0.86493 0.36755
 C250 C 0.20210 0.80079 0.35621
 C251 C 0.13692 0.76182 0.36632
 C252 C 0.11058 0.78716 0.38741
 C253 C 0.22817 0.77586 0.33344
 C254 C 0.24955 0.75541 0.31394
 H255 H 0.24505 0.94022 0.39697
 H256 H 0.29146 0.89557 0.35981
 H257 H 0.10626 0.71225 0.35761
 H258 H 0.05986 0.75690 0.39477
   
