data_POSCAR
  _audit_creation_date              2014-09-24
  _audit_creation_method            'ToBaCCo'
  _symmetry_space_group_name_H-M    'P1'
  _symmetry_Int_Tables_number       1
  _symmetry_cell_setting            triclinic
  loop_
  _symmetry_equiv_pos_as_xyz
 x,y,z
_cell_length_a 33.7135
_cell_length_b 33.6757
_cell_length_c 33.3361
_cell_angle_alpha 90.353300
_cell_angle_beta 90.099700
_cell_angle_gamma 120.130200
loop_
  _atom_site_label
  _atom_site_type_symbol
  _atom_site_fract_x
  _atom_site_fract_y
  _atom_site_fract_z
C1 C 0.52498 0.07138 0.05350
 H2 H 0.55753 0.07234 0.05282
 C3 C 0.52018 0.10343 0.07651
 H4 H 0.54906 0.12914 0.09376
 C5 C 0.44788 0.03755 0.03092
 H6 H 0.42011 0.01241 0.01250
 C7 C 0.44162 0.06906 0.05358
 H8 H 0.40891 0.06787 0.05283
 N9 N 0.48906 0.03917 0.03146
 C10 C 0.52063 -0.07029 0.01295
 H11 H 0.51989 -0.07225 -0.01947
 C12 C 0.52785 -0.10104 0.03533
 H13 H 0.53287 -0.12673 0.02017
 C14 C 0.51343 -0.03548 0.07248
 H15 H 0.50679 -0.01061 0.08687
 C16 C 0.52052 -0.06559 0.09598
 H17 H 0.51972 -0.06353 0.12839
 Zn18 Zn 0.50051 -0.00041 -0.00072
 N19 N 0.51376 -0.03825 0.03173
 C20 C 0.59045 0.03586 -0.03308
 N21 N 0.55092 0.03752 -0.03378
 C22 C 0.54678 0.06848 -0.05679
 C23 C 0.58306 0.09901 -0.08083
 C24 C 0.62766 0.06589 -0.05669
 C25 C 0.40993 -0.07086 -0.01294
 C26 C 0.37137 -0.10264 -0.03469
 C27 C 0.41304 -0.07006 -0.09605
 C28 C 0.45081 -0.03893 -0.07312
 N29 N 0.44854 -0.03976 -0.03234
 H30 H 0.59346 0.01177 -0.01389
 H31 H 0.51524 0.06955 -0.05622
 H32 H 0.57947 0.12360 -0.09901
 H33 H 0.65912 0.06460 -0.05591
 H34 H 0.40940 -0.07128 0.01950
 H35 H 0.34097 -0.12750 -0.01885
 H36 H 0.41545 -0.06934 -0.12850
 H37 H 0.48212 -0.01481 -0.08799
 C38 C 0.52762 -0.09874 0.07722
 C39 C 0.47818 0.10232 0.07648
 C40 C 0.37301 -0.10234 -0.07666
 C41 C 0.62386 0.09773 -0.08073
 C42 C -0.07145 0.47557 0.61328
 H43 H -0.07226 0.44304 0.61329
 C44 C -0.10335 0.48067 0.59053
 H45 H -0.12877 0.45205 0.57282
 C46 C -0.03822 0.55224 0.63730
 H47 H -0.01338 0.57970 0.65619
 C48 C -0.06957 0.55880 0.61494
 H49 H -0.06857 0.59144 0.61637
 N50 N -0.03962 0.51112 0.63591
 C51 C 0.06966 0.47937 0.65342
 H52 H 0.07123 0.47941 0.68584
 C53 C 0.10060 0.47254 0.63081
 H54 H 0.12603 0.46714 0.64578
 C55 C 0.03563 0.48788 0.59417
 H56 H 0.01097 0.49486 0.58000
 C57 C 0.06594 0.48121 0.57043
 H58 H 0.06426 0.48267 0.53805
 Zn59 Zn -0.00039 0.49909 0.66772
 N60 N 0.03790 0.48667 0.63489
 C61 C -0.03717 0.40817 0.69783
 N62 N -0.03871 0.44778 0.69972
 C63 C -0.07013 0.45118 0.72281
 C64 C -0.10148 0.41390 0.74548
 C65 C -0.06799 0.36999 0.72007
 C66 C 0.06959 0.58952 0.68154
 C67 C 0.10102 0.62769 0.70394
 C68 C 0.06793 0.58472 0.76454
 C69 C 0.03711 0.54734 0.74102
 N70 N 0.03838 0.55043 0.70029
 H71 H -0.01272 0.40577 0.67857
 H72 H -0.07109 0.48281 0.72318
 H73 H -0.12661 0.41681 0.76353
 H74 H -0.06694 0.33841 0.71816
 H75 H 0.07037 0.59074 0.64911
 H76 H 0.12604 0.65853 0.68879
 H77 H 0.06707 0.58187 0.79692
 H78 H 0.01288 0.51567 0.75535
 C79 C 0.09878 0.47363 0.58895
 C80 C -0.10247 0.52260 0.59144
 C81 C 0.10026 0.62516 0.74580
 C82 C -0.10050 0.37292 0.74399
 C83 C 0.54534 0.47771 0.38941
 H84 H 0.51361 0.44516 0.38781
 C85 C 0.58125 0.48241 0.41364
 H86 H 0.57718 0.45346 0.43092
 C87 C 0.58988 0.55493 0.36806
 H88 H 0.59336 0.58280 0.34968
 C89 C 0.62675 0.56109 0.39193
 H90 H 0.65843 0.59381 0.39216
 N91 N 0.55010 0.51375 0.36744
 C92 C 0.40951 0.48175 0.34534
 H93 H 0.40908 0.48232 0.31290
 C94 C 0.37092 0.47445 0.36686
 H95 H 0.34055 0.46918 0.35102
 C96 C 0.45011 0.48953 0.40580
 H97 H 0.48133 0.49648 0.42090
 C98 C 0.41230 0.48236 0.42845
 H99 H 0.41438 0.48336 0.46091
 Zn100 Zn 0.50011 0.50231 0.33388
 N101 N 0.44801 0.48894 0.36499
 C102 C 0.44735 0.41226 0.29992
 N103 N 0.48862 0.45193 0.30056
 C104 C 0.52468 0.45633 0.27878
 C105 C 0.51991 0.42014 0.25473
 C106 C 0.44113 0.37511 0.27621
 C107 C 0.52120 0.59309 0.32190
 C108 C 0.52860 0.63152 0.30013
 C109 C 0.52061 0.58940 0.23881
 C110 C 0.51334 0.55176 0.26170
 N111 N 0.51389 0.55429 0.30249
 H112 H 0.41946 0.40907 0.31815
 H113 H 0.55729 0.48798 0.28040
 H114 H 0.54888 0.42391 0.23760
 H115 H 0.40833 0.34352 0.27595
 H116 H 0.52059 0.59386 0.35434
 H117 H 0.53391 0.66212 0.31577
 H118 H 0.51959 0.58695 0.20636
 H119 H 0.50629 0.52031 0.24679
 C120 C 0.37245 0.47493 0.40879
 C121 C 0.62232 0.52442 0.41484
 C122 C 0.52811 0.62953 0.25821
 C123 C 0.47781 0.37917 0.25348
 C124 C 0.26484 0.46346 0.47470
 C125 C 0.22821 0.46512 0.45552
 C126 C 0.19288 0.46498 0.47885
 C127 C 0.19440 0.46317 0.52122
 C128 C 0.23041 0.46030 0.54034
 C129 C 0.26574 0.46046 0.51701
 C130 C 0.30155 0.45788 0.53681
 C131 C 0.30240 0.45517 0.57847
 C132 C 0.26785 0.45501 0.60128
 C133 C 0.23220 0.45757 0.58260
 C134 C 0.15676 0.46697 0.45902
 C135 C 0.15556 0.46900 0.41732
 C136 C 0.19010 0.46913 0.39451
 C137 C 0.22611 0.46725 0.41323
 C138 C 0.15983 0.46578 0.54516
 C139 C 0.13169 0.46887 0.56511
 C140 C 0.30235 0.46639 0.45106
 C141 C 0.33403 0.46977 0.43165
 H142 H 0.32916 0.45781 0.52035
 H143 H 0.33002 0.45317 0.59312
 H144 H 0.26866 0.45289 0.63363
 H145 H 0.20607 0.45726 0.60162
 H146 H 0.12907 0.46688 0.47547
 H147 H 0.12766 0.47046 0.40264
 H148 H 0.18900 0.47070 0.36213
 H149 H 0.25214 0.46736 0.39420
 C150 C 0.53914 0.73638 0.19163
 C151 C 0.53788 0.77343 0.21067
 C152 C 0.53776 0.80846 0.18718
 C153 C 0.53890 0.80623 0.14479
 C154 C 0.54135 0.76980 0.12580
 C155 C 0.54146 0.73477 0.14929
 C156 C 0.54360 0.69853 0.12961
 C157 C 0.54561 0.69697 0.08791
 C158 C 0.54551 0.73123 0.06495
 C159 C 0.54339 0.76730 0.08351
 C160 C 0.53616 0.84499 0.20687
 C161 C 0.53477 0.84688 0.24858
 C162 C 0.53489 0.81264 0.27155
 C163 C 0.53640 0.77624 0.25297
 C164 C 0.53602 0.84052 0.12076
 C165 C 0.53269 0.86850 0.10086
 C166 C 0.53643 0.69916 0.21547
 C167 C 0.53318 0.66772 0.23509
 H168 H 0.54383 0.67112 0.14618
 H169 H 0.54728 0.66902 0.07335
 H170 H 0.54710 0.72986 0.03258
 H171 H 0.54346 0.79318 0.06437
 H172 H 0.53608 0.87248 0.19030
 H173 H 0.53360 0.87509 0.26315
 H174 H 0.53381 0.81427 0.30394
 H175 H 0.53651 0.75045 0.27211
 C176 C 0.19739 0.73230 0.81299
 C177 C 0.23366 0.77068 0.79372
 C178 C 0.26934 0.80626 0.81696
 C179 C 0.26852 0.80324 0.85933
 C180 C 0.23169 0.76538 0.87863
 C181 C 0.19602 0.72980 0.85539
 C182 C 0.15970 0.69216 0.87535
 C183 C 0.15864 0.68975 0.91708
 C184 C 0.19352 0.72454 0.93981
 C185 C 0.22972 0.76200 0.92097
 C186 C 0.30540 0.84414 0.79701
 C187 C 0.30617 0.84682 0.75530
 C188 C 0.27128 0.81204 0.73258
 C189 C 0.23537 0.77432 0.75140
 C190 C 0.30626 0.83829 0.88294
 C191 C 0.33808 0.86697 0.90241
 C192 C 0.16233 0.69476 0.78919
 C193 C 0.13374 0.66322 0.76941
 H194 H 0.13175 0.66428 0.85897
 H195 H 0.13060 0.66073 0.93187
 H196 H 0.19254 0.72252 0.97222
 H197 H 0.25602 0.78824 0.93993
 H198 H 0.33329 0.87208 0.81339
 H199 H 0.33399 0.87605 0.74053
 H200 H 0.27203 0.81429 0.70018
 H201 H 0.20898 0.74817 0.73244
 C202 C 0.72680 0.53175 0.48322
 C203 C 0.77135 0.57087 0.48361
 C204 C 0.80693 0.57059 0.50637
 C205 C 0.79773 0.53118 0.52855
 C206 C 0.75301 0.49228 0.52860
 C207 C 0.71745 0.49258 0.50588
 C208 C 0.67306 0.45320 0.50630
 C209 C 0.66407 0.41468 0.52851
 C210 C 0.69884 0.41439 0.55072
 C211 C 0.74285 0.45263 0.55087
 C212 C 0.85121 0.61003 0.50621
 C213 C 0.86011 0.64867 0.48420
 C214 C 0.82533 0.64894 0.46195
 C215 C 0.78139 0.61057 0.46153
 C216 C 0.83422 0.53004 0.55079
 C217 C 0.86364 0.52755 0.56930
 C218 C 0.69069 0.53115 0.45895
 C219 C 0.65994 0.52903 0.43880
 H220 H 0.64484 0.45174 0.48954
 H221 H 0.62993 0.38489 0.52849
 H222 H 0.69169 0.38438 0.56793
 H223 H 0.76871 0.45071 0.56866
 H224 H 0.87933 0.61143 0.52310
 H225 H 0.89418 0.67857 0.48442
 H226 H 0.83243 0.67905 0.44491
 H227 H 0.75543 0.61240 0.44381
 C228 C 0.47037 0.27395 0.18554
 C229 C 0.51066 0.28209 0.16534
 C230 C 0.51076 0.24631 0.14260
 C231 C 0.47055 0.20259 0.14016
 C232 C 0.43011 0.19461 0.15996
 C233 C 0.43002 0.23041 0.18274
 C234 C 0.38925 0.22161 0.20237
 C235 C 0.34966 0.17865 0.19957
 C236 C 0.34975 0.14366 0.17730
 C237 C 0.38943 0.15135 0.15766
 C238 C 0.55153 0.25524 0.12279
 C239 C 0.59102 0.29827 0.12536
 C240 C 0.59092 0.33326 0.14758
 C241 C 0.55132 0.32547 0.16740
 C242 C 0.47130 0.16590 0.11766
 C243 C 0.47351 0.13635 0.09892
 C244 C 0.47096 0.31030 0.20967
 C245 C 0.47312 0.34127 0.22968
 H246 H 0.38754 0.24779 0.22002
 H247 H 0.31875 0.17250 0.21476
 H248 H 0.31890 0.11036 0.17521
 H249 H 0.38784 0.12310 0.14066
 H250 H 0.55336 0.22916 0.10510
 H251 H 0.62187 0.30449 0.11001
 H252 H 0.62169 0.36664 0.14948
 H253 H 0.55299 0.35382 0.18428
 C254 C -0.19884 0.26285 0.80587
 C255 C -0.18830 0.24783 0.84181
 C256 C -0.22401 0.21215 0.86440
 C257 C -0.27002 0.19176 0.85091
 C258 C -0.28040 0.20589 0.81437
 C259 C -0.24471 0.24153 0.79178
 C260 C -0.25598 0.25528 0.75548
 C261 C -0.30120 0.23439 0.74188
 C262 C -0.33610 0.19955 0.76398
 C263 C -0.32603 0.18533 0.79983
 C264 C -0.21269 0.19790 0.90036
 C265 C -0.16737 0.21828 0.91363
 C266 C -0.13246 0.25317 0.89155
 C267 C -0.14261 0.26794 0.85604
 C268 C -0.30692 0.15752 0.87523
 C269 C -0.33816 0.12984 0.89536
 C270 C -0.16293 0.30126 0.78406
 C271 C -0.13395 0.33368 0.76587
 H272 H -0.23003 0.28217 0.73719
 H273 H -0.30920 0.24530 0.71404
 H274 H -0.37117 0.18342 0.75328
 H275 H -0.35436 0.15804 0.81590
 H276 H -0.23867 0.17082 0.91851
 H277 H -0.15930 0.20693 0.94118
 H278 H -0.09732 0.26889 0.90199
 H279 H -0.11430 0.29513 0.83986
   
