data_POSCAR
  _audit_creation_date              2014-09-24
  _audit_creation_method            'ToBaCCo'
  _symmetry_space_group_name_H-M    'P1'
  _symmetry_Int_Tables_number       1
  _symmetry_cell_setting            triclinic
  loop_
  _symmetry_equiv_pos_as_xyz
 x,y,z
_cell_length_a 36.2519
_cell_length_b 19.9861
_cell_length_c 13.4780
_cell_angle_alpha 89.624600
_cell_angle_beta 90.148500
_cell_angle_gamma 90.130600
loop_
  _atom_site_label
  _atom_site_type_symbol
  _atom_site_fract_x
  _atom_site_fract_y
  _atom_site_fract_z
O1 O 0.72820 0.34137 0.57826
 O2 O 0.79639 0.28338 0.39544
 O3 O 0.73022 0.33274 0.40307
 O4 O 0.79632 0.28207 0.59674
 O5 O 0.77001 0.18266 0.60709
 O6 O 0.70600 0.23128 0.40919
 O7 O 0.77298 0.18250 0.41236
 O8 O 0.70521 0.23923 0.59170
 Cu9 Cu 0.76719 0.31848 0.49606
 Cu10 Cu 0.73710 0.19792 0.50575
 C11 C 0.70260 0.30171 0.60571
 C12 C 0.79576 0.22206 0.37096
 C13 C 0.70437 0.29207 0.38192
 C14 C 0.79436 0.22394 0.63498
 O15 O 0.27473 0.69238 0.60021
 O16 O 0.21134 0.74840 0.40719
 O17 O 0.27719 0.69350 0.40853
 O18 O 0.20928 0.74806 0.59165
 O19 O 0.23312 0.84984 0.59198
 O20 O 0.30374 0.79284 0.41675
 O21 O 0.23449 0.85050 0.41596
 O22 O 0.29673 0.79426 0.61611
 Cu23 Cu 0.24127 0.71009 0.50141
 Cu24 Cu 0.27145 0.83059 0.50757
 C25 C 0.29687 0.73286 0.64159
 C26 C 0.20915 0.81048 0.38852
 C27 C 0.30295 0.73330 0.38466
 C28 C 0.20699 0.80975 0.61273
 O29 O 0.26740 0.33021 -0.59019
 O30 O 0.20106 0.26476 -0.40548
 O31 O 0.26233 0.32674 -0.39060
 O32 O 0.19902 0.27328 -0.58775
 O33 O 0.23041 0.17983 -0.60510
 O34 O 0.29276 0.23220 -0.40372
 O35 O 0.22898 0.16676 -0.41376
 O36 O 0.29517 0.23283 -0.59450
 Cu37 Cu 0.23109 0.30951 -0.49562
 Cu38 Cu 0.26465 0.19305 -0.50382
 C39 C 0.29256 0.29263 -0.62497
 C40 C 0.20279 0.20305 -0.38277
 C41 C 0.28854 0.28886 -0.36306
 C42 C 0.20330 0.21691 -0.62917
 O43 O -0.20351 0.71900 -0.40021
 O44 O -0.26622 0.65497 -0.59285
 O45 O -0.20014 0.70708 -0.58980
 O46 O -0.26938 0.66535 -0.40172
 O47 O -0.29504 0.76476 -0.42171
 O48 O -0.22409 0.80723 -0.60744
 O49 O -0.29022 0.75565 -0.61101
 O50 O -0.22899 0.81848 -0.41546
 Cu51 Cu -0.23243 0.67646 -0.49444
 Cu52 Cu -0.26191 0.79680 -0.51558
 C53 C -0.20540 0.77998 -0.37505
 C54 C -0.28913 0.69433 -0.63428
 C55 C -0.19921 0.76487 -0.62877
 C56 C -0.29437 0.70730 -0.38100
 O57 O 0.04724 0.89307 -0.19649
 O58 O 0.08900 0.94422 -0.09443
 C59 C 0.08079 0.90648 -0.16955
 O60 O -0.05576 1.12575 -0.15476
 O61 O -0.09557 1.05640 -0.07154
 C62 C -0.08886 1.10662 -0.13033
 O63 O 0.04801 1.11628 -0.17876
 O64 O 0.08962 1.05442 -0.08786
 C65 C 0.08132 1.09743 -0.15636
 O66 O -0.05593 0.88194 -0.17360
 O67 O -0.09561 0.94302 -0.07745
 C68 C -0.08872 0.89889 -0.14461
 Zr69 Zr -0.00324 0.91652 -0.12685
 O70 O -0.00920 0.91241 -0.28271
 O71 O 0.00195 0.81098 -0.12288
 Zr72 Zr -0.00344 1.08583 -0.11747
 O73 O -0.00986 1.09465 -0.27320
 O74 O -0.00055 1.19095 -0.10298
 O75 O 0.02900 1.00207 -0.14412
 O76 O -0.03538 1.00158 -0.13871
 O77 O -0.05063 0.86511 0.16532
 O78 O -0.09255 0.92953 0.08175
 C79 C -0.08412 0.87903 0.13889
 O80 O 0.05226 1.11353 0.17925
 O81 O 0.09104 1.05160 0.08393
 C82 C 0.08527 1.09672 0.14998
 O83 O -0.05214 1.11556 0.18573
 O84 O -0.09296 1.05289 0.09512
 C85 C -0.08551 1.09734 0.16207
 O86 O 0.05131 0.88420 0.18438
 O87 O 0.09108 0.94167 0.08369
 C88 C 0.08431 0.90077 0.15670
 Zr89 Zr -0.00040 0.91002 0.12315
 O90 O -0.00528 0.90341 0.27931
 O91 O 0.00651 0.80520 0.11693
 Zr92 Zr -0.00082 1.07881 0.13243
 O93 O -0.00206 1.07025 0.28908
 O94 O 0.00131 1.18438 0.14106
 Zr95 Zr 0.05293 0.99795 -0.00138
 Zr96 Zr -0.05693 0.99697 0.00602
 O97 O -0.03289 0.99311 0.14802
 O98 O 0.03241 0.99451 0.14488
 O99 O -0.03451 0.89984 -0.00063
 O100 O 0.03004 1.09459 0.00516
 O101 O 0.03061 0.90093 -0.00464
 O102 O -0.03513 1.09470 0.01030
 H103 H -0.05249 1.00376 -0.19609
 H104 H 0.04663 1.13406 0.00394
 H105 H -0.04953 0.99005 0.20609
 H106 H 0.04813 0.86298 -0.00710
 H107 H -0.00129 1.20936 -0.17139
 H108 H -0.01411 1.20201 0.08618
 H109 H 0.02222 1.05306 0.31113
 H110 H 0.01032 0.93919 0.30758
 H111 H -0.00916 0.78895 0.06212
 H112 H -0.02223 0.79169 -0.10420
 H113 H 0.00177 0.95401 -0.30959
 H114 H 0.00880 1.06548 -0.30413
 O115 O 0.44425 0.38571 0.17881
 O116 O 0.40490 0.45350 0.09010
 C117 C 0.41150 0.40703 0.15507
 O118 O 0.55592 0.61294 0.17334
 O119 O 0.59316 0.54488 0.08073
 C120 C 0.58794 0.59098 0.14596
 O121 O 0.45290 0.61627 0.19108
 O122 O 0.40923 0.56363 0.09612
 C123 C 0.41894 0.60266 0.16816
 O124 O 0.54755 0.37459 0.17424
 O125 O 0.58916 0.43135 0.07778
 C126 C 0.58106 0.38831 0.14725
 Zr127 Zr 0.49685 0.41401 0.12273
 O128 O 0.50041 0.40891 0.27945
 O129 O 0.49104 0.30873 0.11566
 Zr130 Zr 0.50247 0.58325 0.12633
 O131 O 0.50776 0.58931 0.28212
 O132 O 0.50127 0.68920 0.11886
 O133 O 0.46718 0.50153 0.14664
 O134 O 0.53148 0.49512 0.14096
 O135 O 0.54450 0.38310 -0.19050
 O136 O 0.58760 0.43553 -0.09388
 C137 C 0.57846 0.39588 -0.16592
 O138 O 0.44926 0.62844 -0.17223
 O139 O 0.40765 0.56778 -0.07970
 C140 C 0.41594 0.61302 -0.14541
 O141 O 0.55304 0.62212 -0.16733
 O142 O 0.59215 0.55011 -0.08645
 C143 C 0.58596 0.60030 -0.14555
 O144 O 0.44126 0.38950 -0.17684
 O145 O 0.40349 0.45364 -0.07955
 C146 C 0.40890 0.40803 -0.14600
 Zr147 Zr 0.49459 0.41849 -0.12761
 O148 O 0.49047 0.41570 -0.28415
 O149 O 0.49070 0.31281 -0.12207
 Zr150 Zr 0.49999 0.58763 -0.12252
 O151 O 0.50187 0.58826 -0.27955
 O152 O 0.49969 0.69351 -0.12184
 Zr153 Zr 0.44345 0.50616 0.00353
 Zr154 Zr 0.55335 0.49474 -0.00364
 O155 O 0.52901 0.50063 -0.14542
 O156 O 0.46414 0.50661 -0.14267
 O157 O 0.52848 0.39949 -0.00493
 O158 O 0.46928 0.60056 0.00477
 O159 O 0.46346 0.40741 -0.00055
 O160 O 0.53475 0.59477 0.00027
 H161 H 0.54804 0.49304 0.19945
 H162 H 0.45374 0.64118 0.00816
 H163 H 0.54508 0.50209 -0.20469
 H164 H 0.44600 0.36933 0.00033
 H165 H 0.52553 0.70486 0.09444
 H166 H 0.51920 0.70823 -0.07542
 H167 H 0.47965 0.56435 -0.30352
 H168 H 0.50363 0.45526 -0.31067
 H169 H 0.51378 0.29537 -0.09255
 H170 H 0.51242 0.29121 0.07865
 H171 H 0.48095 0.43818 0.30662
 H172 H 0.50406 0.54357 0.30839
 C173 C 0.35424 0.41580 0.25272
 C174 C 0.32441 0.38806 0.30345
 C175 C 0.31878 0.31832 0.30703
 C176 C 0.34183 0.27684 0.24712
 C177 C 0.37261 0.30545 0.19705
 C178 C 0.37942 0.37509 0.20326
 C179 C 0.39484 0.26368 0.13852
 N180 N 0.38637 0.19806 0.12881
 N181 N 0.35693 0.17148 0.17260
 C182 C 0.33427 0.20842 0.23021
 H183 H 0.35847 0.46948 0.25519
 H184 H 0.30698 0.42163 0.34519
 H185 H 0.41834 0.28261 0.09824
 H186 H 0.30988 0.18394 0.25793
 C187 C -0.15062 0.85989 0.17417
 C188 C -0.17790 0.83504 0.23674
 C189 C -0.17067 0.78304 0.30491
 C190 C -0.13509 0.75182 0.30233
 C191 C -0.10807 0.77606 0.23434
 C192 C -0.11451 0.83612 0.17981
 C193 C -0.07562 0.73854 0.22223
 N194 N -0.06829 0.68614 0.28309
 N195 N -0.09139 0.66840 0.35500
 C196 C -0.12419 0.69955 0.36750
 H197 H -0.15757 0.90012 0.12360
 H198 H -0.20505 0.85744 0.23186
 H199 H -0.05669 0.74855 0.16264
 H200 H -0.14036 0.68309 0.42968
 C201 C 0.63834 0.57915 0.26586
 C202 C 0.66897 0.60328 0.31651
 C203 C 0.68309 0.66733 0.29611
 C204 C 0.66730 0.70587 0.21788
 C205 C 0.63543 0.68183 0.16832
 C206 C 0.62072 0.61861 0.19433
 C207 C 0.61975 0.72136 0.09259
 N208 N 0.63572 0.78028 0.06662
 N209 N 0.66623 0.80214 0.11117
 C210 C 0.68264 0.76697 0.18547
 H211 H 0.62759 0.53005 0.28480
 H212 H 0.68066 0.57270 0.37531
 H213 H 0.59539 0.70537 0.05266
 H214 H 0.70801 0.78638 0.21622
 C215 C 0.11112 1.17765 0.27086
 C216 C 0.13954 1.20900 0.32216
 C217 C 0.17653 1.19342 0.30351
 C218 C 0.18493 1.15156 0.22173
 C219 C 0.15585 1.12243 0.16447
 C220 C 0.11812 1.13201 0.19429
 C221 C 0.16623 1.08721 0.07803
 N222 N 0.20222 1.07954 0.05420
 N223 N 0.22905 1.10595 0.10856
 C224 C 0.22168 1.14227 0.19031
 H225 H 0.08316 1.18852 0.29373
 H226 H 0.13219 1.24169 0.38284
 H227 H 0.14704 1.06778 0.02520
 H228 H 0.24472 1.16580 0.22684
 C229 C 0.64235 0.40472 -0.23028
 C230 C 0.67193 0.38357 -0.28724
 C231 C 0.66856 0.32854 -0.35030
 C232 C 0.63348 0.29713 -0.36263
 C233 C 0.60535 0.31234 -0.29209
 C234 C 0.60893 0.36908 -0.22906
 C235 C 0.57650 0.26614 -0.28019
 N236 N 0.57562 0.21009 -0.33537
 N237 N 0.59959 0.20001 -0.40806
 C238 C 0.62615 0.24606 -0.43498
 H239 H 0.64621 0.44857 -0.18452
 H240 H 0.69804 0.40957 -0.27985
 H241 H 0.55657 0.27022 -0.22155
 H242 H 0.65063 0.22889 -0.50316
 C243 C 0.14558 0.91377 -0.22728
 C244 C 0.17577 0.89113 -0.28040
 C245 C 0.17273 0.83625 -0.34410
 C246 C 0.13748 0.80665 -0.36100
 C247 C 0.10857 0.82276 -0.29354
 C248 C 0.11177 0.87966 -0.23049
 C249 C 0.07927 0.77713 -0.28445
 N250 N 0.07839 0.72165 -0.34091
 N251 N 0.10304 0.71138 -0.41185
 C252 C 0.13055 0.75655 -0.43499
 H253 H 0.14916 0.95740 -0.18092
 H254 H 0.20202 0.91619 -0.26995
 H255 H 0.05890 0.78101 -0.22696
 H256 H 0.15598 0.73986 -0.50091
 C257 C 0.36242 0.61020 -0.25504
 C258 C 0.33189 0.63816 -0.30096
 C259 C 0.32374 0.70688 -0.29231
 C260 C 0.34596 0.74620 -0.22693
 C261 C 0.37695 0.71642 -0.17859
 C262 C 0.38510 0.64808 -0.19403
 C263 C 0.39846 0.75581 -0.11461
 N264 N 0.38917 0.82039 -0.09819
 N265 N 0.35965 0.84792 -0.14066
 C266 C 0.33765 0.81317 -0.20358
 H267 H 0.36936 0.55887 -0.27059
 H268 H 0.31625 0.60592 -0.34997
 H269 H 0.42237 0.73573 -0.07681
 H270 H 0.31327 0.83794 -0.23110
 C271 C -0.11277 1.17629 -0.26824
 C272 C -0.14064 1.20561 -0.32417
 C273 C -0.17731 1.20182 -0.29358
 C274 C -0.18586 1.17204 -0.20093
 C275 C -0.15724 1.14390 -0.14143
 C276 C -0.12028 1.14304 -0.17815
 C277 C -0.16691 1.11950 -0.04670
 N278 N -0.20253 1.12058 -0.01634
 N279 N -0.22930 1.14517 -0.07349
 C280 C -0.22218 1.17116 -0.16451
 H281 H -0.08512 1.17764 -0.29847
 H282 H -0.13368 1.22829 -0.39499
 H283 H -0.14677 1.10166 0.00534
 H284 H -0.24487 1.19215 -0.20656
 C285 C 0.61130 0.66217 -0.28975
 C286 C 0.63982 0.68887 -0.34641
 C287 C 0.67614 0.68743 -0.31183
 C288 C 0.68368 0.66238 -0.21566
 C289 C 0.65464 0.63553 -0.15679
 C290 C 0.61794 0.63334 -0.19593
 C291 C 0.66368 0.61371 -0.06023
 N292 N 0.69887 0.61755 -0.02643
 N293 N 0.72592 0.64227 -0.08219
 C294 C 0.71950 0.66503 -0.17542
 H295 H 0.58386 0.66190 -0.32177
 H296 H 0.63369 0.70810 -0.41999
 H297 H 0.64338 0.59562 -0.00953
 H298 H 0.74226 0.68639 -0.21636
 C299 C 0.13325 1.17592 -0.17972
 C300 C 0.16298 1.20080 -0.23411
 C301 C 0.17255 1.17246 -0.32530
 C302 C 0.15129 1.11852 -0.36342
 C303 C 0.12072 1.09416 -0.30875
 C304 C 0.11181 1.12336 -0.21661
 C305 C 0.09985 1.04114 -0.34842
 N306 N 0.10904 1.01471 -0.43731
 N307 N 0.13750 1.03796 -0.48937
 C308 C 0.15878 1.08897 -0.45590
 H309 H 0.12675 1.19803 -0.10869
 H310 H 0.17877 1.24231 -0.20469
 H311 H 0.07632 1.02048 -0.30976
 H312 H 0.18112 1.10574 -0.50241
 C313 C 0.34675 0.41216 -0.22197
 C314 C 0.31761 0.38330 -0.27369
 C315 C 0.31588 0.31386 -0.28892
 C316 C 0.34243 0.27255 -0.24031
 C317 C 0.37301 0.30260 -0.19109
 C318 C 0.37609 0.37338 -0.18720
 C319 C 0.39870 0.26061 -0.14335
 N320 N 0.39399 0.19336 -0.14429
 N321 N 0.36510 0.16522 -0.18868
 C322 C 0.33909 0.20231 -0.23587
 H323 H 0.34697 0.46560 -0.21238
 H324 H 0.29709 0.41636 -0.30572
 H325 H 0.42180 0.28041 -0.10247
 H326 H 0.31545 0.17623 -0.26521
 C327 C -0.13999 0.90479 -0.26313
 C328 C -0.16841 0.87596 -0.31756
 C329 C -0.17825 0.80845 -0.30390
 C330 C -0.16009 0.77056 -0.22832
 C331 C -0.13078 0.80019 -0.17371
 C332 C -0.12032 0.86708 -0.19356
 C333 C -0.11314 0.76215 -0.09943
 N334 N -0.12446 0.69873 -0.08037
 N335 N -0.15223 0.67104 -0.13032
 C336 C -0.17045 0.70463 -0.20312
 H337 H -0.13247 0.95645 -0.27776
 H338 H -0.18181 0.90632 -0.37388
 H339 H -0.09083 0.78255 -0.05547
 H340 H -0.19325 0.67957 -0.23831
 C341 C 0.35724 0.65570 0.17827
 C342 C 0.32967 0.68980 0.22915
 C343 C 0.33443 0.70673 0.32887
 C344 C 0.36708 0.68727 0.37923
 C345 C 0.39362 0.64770 0.33011
 C346 C 0.38952 0.63471 0.22715
 C347 C 0.42253 0.62030 0.38737
 N348 N 0.42638 0.63700 0.48416
 N349 N 0.40298 0.67843 0.52814
 C350 C 0.37349 0.70398 0.47907
 H351 H 0.35331 0.64568 0.10003
 H352 H 0.30445 0.70309 0.19053
 H353 H 0.44137 0.58402 0.35763
 H354 H 0.35549 0.73731 0.51834
 C355 C -0.11491 1.19667 0.24192
 C356 C -0.14464 1.22911 0.28719
 C357 C -0.17834 1.19563 0.30333
 C358 C -0.18270 1.13047 0.26326
 C359 C -0.15145 1.09521 0.22898
 C360 C -0.11739 1.12919 0.21391
 C361 C -0.15548 1.02622 0.21361
 N362 N -0.18942 0.99763 0.21502
 N363 N -0.21960 1.03319 0.23252
 C364 C -0.21744 1.09878 0.25593
 H365 H -0.08952 1.22429 0.23042
 H366 H -0.14044 1.27952 0.31412
 H367 H -0.13195 0.99444 0.20352
 H368 H -0.24293 1.12558 0.26719
 C369 C 0.64673 0.38946 0.20071
 C370 C 0.67597 0.36772 0.25929
 C371 C 0.67117 0.31698 0.33039
 C372 C 0.63530 0.28960 0.34658
 C373 C 0.60753 0.30387 0.27407
 C374 C 0.61212 0.35812 0.20576
 C375 C 0.57785 0.25907 0.26632
 N376 N 0.57561 0.20594 0.32828
 N377 N 0.59904 0.19794 0.40329
 C378 C 0.62653 0.24331 0.42542
 H379 H 0.65159 0.43085 0.15008
 H380 H 0.70276 0.39073 0.24839
 H381 H 0.55837 0.26148 0.20592
 C382 C 0.14890 0.91173 0.21774
 C383 C 0.17862 0.89140 0.27610
 C384 C 0.17542 0.83651 0.34083
 C385 C 0.14056 0.80423 0.35222
 C386 C 0.11311 0.81733 0.27902
 C387 C 0.11594 0.87481 0.21654
 C388 C 0.08574 0.76860 0.26435
 N389 N 0.08499 0.71316 0.32200
 N390 N 0.10769 0.70589 0.39881
 C391 C 0.13285 0.75410 0.42634
 H392 H 0.15212 0.95581 0.17144
 H393 H 0.20453 0.91817 0.26932
 H394 H 0.06713 0.77055 0.20200
   
