data_POSCAR
  _audit_creation_date              2014-09-24
  _audit_creation_method            'ToBaCCo'
  _symmetry_space_group_name_H-M    'P1'
  _symmetry_Int_Tables_number       1
  _symmetry_cell_setting            triclinic
  loop_
  _symmetry_equiv_pos_as_xyz
 x,y,z
_cell_length_a 27.2816
_cell_length_b 26.6583
_cell_length_c 27.6607
_cell_angle_alpha 90.338600
_cell_angle_beta 90.503900
_cell_angle_gamma 88.258400
loop_
  _atom_site_label
  _atom_site_type_symbol
  _atom_site_fract_x
  _atom_site_fract_y
  _atom_site_fract_z
C1 C 0.28144 0.34875 1.31810
 C2 C 0.31369 0.36678 1.28317
 C3 C 0.35843 0.34200 1.27542
 C4 C 0.37230 0.30019 1.30341
 C5 C 0.34076 0.28275 1.33775
 C6 C 0.29489 0.30646 1.34438
 C7 C 0.23629 0.36546 1.33531
 N8 N 0.22220 0.33368 1.37060
 C9 C 0.25796 0.29750 1.37606
 C10 C 0.36485 0.24438 1.36204
 N11 N 0.41043 0.23808 1.34328
 C12 C 0.41522 0.27187 1.30705
 C13 C 0.38252 0.36774 1.24037
 N14 N 0.35399 0.40785 1.22701
 C15 C 0.31190 0.40785 1.25301
 H16 H 0.21561 0.39852 1.32345
 H17 H 0.25836 0.26769 1.40245
 H18 H 0.35064 0.22335 1.39195
 H19 H 0.44788 0.27680 1.28589
 H20 H 0.41881 0.35887 1.22660
 H21 H 0.28235 0.43576 1.25035
 C22 C 1.22205 0.65818 0.83762
 C23 C 1.19232 0.63841 0.80095
 C24 C 1.14627 0.65965 0.79190
 C25 C 1.12922 0.70077 0.81935
 C26 C 1.15888 0.72103 0.85476
 C27 C 1.20550 0.69931 0.86426
 C28 C 1.26688 0.64302 0.85668
 N29 N 1.27768 0.67354 0.89459
 C30 C 1.24045 0.70839 0.89919
 C31 C 1.13248 0.75999 0.87597
 N32 N 1.08725 0.76301 0.85499
 C33 C 1.08493 0.72686 0.82026
 C34 C 1.12549 0.63282 0.75483
 N35 N 1.15774 0.59581 0.74122
 C36 C 1.19865 0.59867 0.76937
 H37 H 1.28905 0.61088 0.84502
 H38 H 1.23781 0.73713 0.92690
 H39 H 1.14471 0.78329 0.90566
 H40 H 1.05346 0.71978 0.79741
 H41 H 1.08961 0.63978 0.73878
 H42 H 1.23087 0.57416 0.76676
 C43 C 0.70366 -0.12272 0.19161
 C44 C 0.67127 -0.14026 0.22579
 C45 C 0.64593 -0.18379 0.21746
 C46 C 0.65181 -0.20934 0.17300
 C47 C 0.68450 -0.19169 0.13941
 C48 C 0.71086 -0.14843 0.14888
 C49 C 0.73564 -0.08413 0.19306
 N50 N 0.76288 -0.08605 0.15221
 C51 C 0.74766 -0.12505 0.12462
 C52 C 0.68446 -0.22370 0.10062
 N53 N 0.65189 -0.26023 0.10881
 C54 C 0.63169 -0.25188 0.15309
 C55 C 0.62033 -0.19302 0.25936
 N56 N 0.62964 -0.15562 0.29150
 C57 C 0.66028 -0.12323 0.27115
 H58 H 0.74012 -0.05824 0.22293
 H59 H 0.76353 -0.13681 0.09048
 H60 H 0.70618 -0.21975 0.06842
 H61 H 0.60472 -0.27512 0.16968
 H62 H 0.59698 -0.22430 0.26603
 H63 H 0.67456 -0.09029 0.28880
 C64 C -0.22293 1.14747 -0.33613
 C65 C -0.19622 1.13646 -0.29397
 C66 C -0.15908 1.16712 -0.27905
 C67 C -0.14810 1.20933 -0.30643
 C68 C -0.17450 1.22068 -0.34814
 C69 C -0.21265 1.18951 -0.36293
 C70 C -0.26125 1.12404 -0.35834
 N71 N -0.27538 1.15119 -0.39761
 C72 C -0.24569 1.19124 -0.40092
 C73 C -0.15423 1.26280 -0.36783
 N74 N -0.11616 1.27675 -0.33914
 C75 C -0.11265 1.24435 -0.30133
 C76 C -0.13938 1.14693 -0.23714
 N77 N -0.16399 1.10497 -0.22649
 C78 C -0.19883 1.09834 -0.26110
 H79 H -0.27861 1.09050 -0.34593
 H80 H -0.24811 1.21991 -0.42844
 H81 H -0.16544 1.28098 -0.40122
 H82 H -0.08550 1.24499 -0.27262
 H83 H -0.10929 1.16150 -0.21607
 H84 H -0.22417 1.06792 -0.26257
 C85 C 0.70949 0.63548 0.65494
 C86 C 0.67744 0.61580 0.68873
 C87 C 0.63308 0.64018 0.69795
 C88 C 0.62009 0.68448 0.67338
 C89 C 0.65212 0.70475 0.64078
 C90 C 0.69738 0.68000 0.63148
 C91 C 0.75497 0.61949 0.63913
 N92 N 0.77109 0.65330 0.60701
 C93 C 0.73633 0.69060 0.60209
 C94 C 0.62965 0.74801 0.62300
 N95 N 0.58456 0.75365 0.64332
 C96 C 0.57867 0.71507 0.67445
 C97 C 0.61102 0.61462 0.73453
 N98 N 0.64117 0.57564 0.74792
 C99 C 0.68173 0.57576 0.71978
 H100 H 0.77525 0.58605 0.65064
 H101 H 0.73906 0.72281 0.57872
 H102 H 0.64441 0.77265 0.59613
 H103 H 0.54656 0.70918 0.69614
 H104 H 0.57664 0.62499 0.75171
 H105 H 0.71314 0.55022 0.72315
 C106 C 0.79293 0.37141 0.15999
 C107 C 0.82484 0.38975 0.19568
 C108 C 0.87041 0.36659 0.20298
 C109 C 0.88465 0.32480 0.17486
 C110 C 0.85298 0.30628 0.14025
 C111 C 0.80653 0.32921 0.13335
 C112 C 0.74595 0.38539 0.14561
 N113 N 0.73037 0.35182 0.11208
 C114 C 0.76711 0.31710 0.10465
 C115 C 0.87572 0.26462 0.11979
 N116 N 0.92023 0.25719 0.14142
 C117 C 0.92587 0.29375 0.17537
 C118 C 0.89148 0.38884 0.24278
 N119 N 0.85951 0.42420 0.26040
 C120 C 0.81882 0.42537 0.23160
 H121 H 0.72418 0.41680 0.15959
 H122 H 0.76577 0.28579 0.07963
 H123 H 0.86056 0.24090 0.09183
 H124 H 0.95737 0.29756 0.19901
 H125 H 0.92599 0.37762 0.25975
 H126 H 0.78608 0.44835 0.23787
 C127 C 0.28868 0.13485 0.84888
 C128 C 0.31534 0.12499 0.80661
 C129 C 0.35126 0.15717 0.79225
 C130 C 0.36122 0.19969 0.82048
 C131 C 0.33525 0.20918 0.86252
 C132 C 0.29833 0.17692 0.87636
 C133 C 0.24845 0.11283 0.86862
 N134 N 0.23276 0.14136 0.90661
 C135 C 0.26342 0.18041 0.91182
 C136 C 0.35052 0.25416 0.88114
 N137 N 0.38457 0.27241 0.85111
 C138 C 0.39135 0.23953 0.81387
 C139 C 0.36886 0.13959 0.74846
 N140 N 0.34437 0.09772 0.73617
 C141 C 0.31153 0.08871 0.77151
 H142 H 0.23008 0.08037 0.85442
 H143 H 0.25970 0.21043 0.93814
 H144 H 0.33642 0.27329 0.91297
 H145 H 0.41561 0.24475 0.78367
 H146 H 0.39692 0.15628 0.72689
 H147 H 0.28618 0.05830 0.77165
 C148 C 0.20309 0.86677 0.30943
 C149 C 0.17111 0.85034 0.27368
 C150 C 0.15017 0.80382 0.27679
 C151 C 0.15999 0.77387 0.31779
 C152 C 0.19218 0.79054 0.35316
 C153 C 0.21431 0.83707 0.34873
 C154 C 0.23120 0.90830 0.31218
 N155 N 0.26021 0.90452 0.35217
 C156 C 0.24976 0.86125 0.37524
 C157 C 0.19484 0.75499 0.38864
 N158 N 0.16449 0.71734 0.37667
 C159 C 0.14313 0.72827 0.33323
 C160 C 0.12419 0.79707 0.23410
 N161 N 0.12902 0.83877 0.20661
 C162 C 0.15717 0.87145 0.23073
 H163 H 0.23195 0.93769 0.28543
 H164 H 0.26812 0.84730 0.40756
 H165 H 0.21584 0.75767 0.42187
 H166 H 0.11645 0.70547 0.31495
 H167 H 0.10406 0.76434 0.22354
 H168 H 0.16830 0.90728 0.21696
 Zn169 Zn 0.04982 0.97538 -0.01984
 Zn170 Zn -0.05381 0.96305 -0.01437
 Zn171 Zn -0.00069 1.00955 0.06541
 Zn172 Zn -0.01591 1.06490 -0.01888
 O173 O -0.00554 1.00296 0.00220
 O174 O 0.03771 0.93512 -0.06982
 O175 O -0.09543 0.95386 0.03511
 O176 O 0.04060 0.96378 0.09115
 O177 O -0.02972 0.90428 -0.03850
 O178 O 0.07637 0.93377 0.02483
 O179 O -0.05840 0.99926 0.09156
 O180 O -0.03725 1.10554 0.02961
 O181 O -0.08892 0.99086 -0.06214
 O182 O 0.01491 1.07193 0.08270
 O183 O -0.05908 1.06725 -0.06898
 O184 O 0.04142 1.08972 -0.03617
 O185 O 0.09270 1.02290 -0.03597
 C186 C 0.00655 0.90069 -0.06727
 C187 C -0.09447 0.97413 0.07694
 C188 C 0.06827 0.93161 0.06993
 C189 C -0.01288 1.10840 0.06898
 C190 C -0.08777 1.03312 -0.08308
 C191 C 0.08437 1.07008 -0.03985
 Zn192 Zn 0.48270 0.06260 0.52077
 Zn193 Zn 0.55101 -0.02637 0.52206
 Zn194 Zn 0.44694 -0.04018 0.51871
 Zn195 Zn 0.49600 0.00486 0.43786
 O196 O 0.49404 -0.00012 0.50105
 O197 O 0.53989 0.08888 0.53712
 O198 O 0.54162 -0.06764 0.57183
 O199 O 0.41345 -0.01189 0.56705
 O200 O 0.59270 0.02316 0.53806
 O201 O 0.44091 0.06576 0.57170
 O202 O 0.47256 -0.09819 0.54218
 O203 O 0.43709 -0.00547 0.41324
 O204 O 0.57774 -0.06713 0.47628
 O205 O 0.40327 -0.05088 0.47049
 O206 O 0.53634 -0.04064 0.41148
 O207 O 0.51172 0.06612 0.41949
 O208 O 0.45977 0.10145 0.47115
 C209 C 0.58328 0.07034 0.54114
 C210 C 0.51004 -0.10186 0.56999
 C211 C 0.41400 0.03108 0.58721
 C212 C 0.40198 -0.03085 0.42880
 C213 C 0.56706 -0.07062 0.43156
 C214 C 0.48373 0.10282 0.43180
 Zn215 Zn 0.94481 0.48324 0.51249
 Zn216 Zn 1.04696 0.45169 0.53711
 Zn217 Zn 1.02754 0.49702 0.44190
 Zn218 Zn 1.02041 0.55548 0.53436
 O219 O 1.00906 0.49654 0.50521
 O220 O 0.93497 0.43107 0.55321
 O221 O 1.07912 0.40937 0.49844
 O222 O 0.97503 0.49019 0.40224
 O223 O 1.01193 0.41463 0.57608
 O224 O 0.91660 0.47210 0.45481
 O225 O 1.06926 0.44512 0.42683
 O226 O 1.06274 0.58945 0.50012
 O227 O 1.09247 0.48038 0.57406
 O228 O 1.06127 0.55287 0.42761
 O229 O 1.04820 0.54785 0.59339
 O230 O 0.96631 0.59448 0.54166
 O231 O 0.91018 0.53628 0.53641
 C232 C 0.96634 0.40751 0.57961
 C233 C 1.08739 0.41049 0.45348
 C234 C 0.93124 0.47819 0.41168
 C235 C 1.07696 0.58620 0.45660
 C236 C 1.08443 0.51798 0.60141
 C237 C 0.92213 0.58125 0.54460
 Zn238 Zn 0.48652 0.44463 1.01495
 Zn239 Zn 0.48441 0.55571 1.03691
 Zn240 Zn 0.56832 0.50519 0.99208
 Zn241 Zn 0.48313 0.52089 0.93545
 O242 O 0.50370 0.50647 0.99582
 O243 O 0.44706 0.44937 1.06710
 O244 O 0.53486 0.59485 1.05635
 O245 O 0.59723 0.46202 1.03287
 O246 O 0.45303 0.53017 1.08746
 O247 O 0.53914 0.40590 1.03365
 O248 O 0.59124 0.56487 1.00559
 O249 O 0.53283 0.53937 0.89749
 O250 O 0.43942 0.59734 1.00926
 O251 O 0.58847 0.48952 0.93227
 O252 O 0.43580 0.56915 0.93372
 O253 O 0.45901 0.46672 0.90716
 O254 O 0.45711 0.41057 0.96620
 C255 C 0.43707 0.48648 1.09506
 C256 C 0.57663 0.59739 1.03632
 C257 C 0.58305 0.41837 1.04221
 C258 C 0.57364 0.51514 0.89616
 C259 C 0.42076 0.59870 0.96698
 C260 C 0.44989 0.42311 0.92225
 C261 C 1.18115 0.33867 0.39815
 C262 C 1.16775 0.30411 0.43236
 C263 C 1.12868 0.32572 0.45531
 C264 C 1.12071 0.37159 0.43342
 O265 O 1.15228 0.37962 0.39834
 H266 H 1.18508 0.26822 0.44096
 H267 H 1.10953 0.31082 0.48592
 C268 C 0.31731 0.66736 0.92451
 C269 C 0.32615 0.69616 0.96525
 C270 C 0.36700 0.67467 0.98620
 C271 C 0.38028 0.63482 0.95657
 O272 O 0.35029 0.63030 0.91905
 H273 H 0.30492 0.72800 0.97894
 H274 H 0.38457 0.68611 1.01955
 C275 C -0.19857 0.94321 0.14247
 C276 C -0.18243 0.98097 0.17261
 C277 C -0.14142 0.99771 0.15134
 C278 C -0.13574 0.96925 0.10985
 O279 O -0.17047 0.93620 0.10409
 H280 H -0.19777 0.99427 0.20641
 H281 H -0.11804 1.02691 0.16469
 C282 C 0.68546 0.14078 0.57366
 C283 C 0.66620 0.17259 0.53861
 C284 C 0.62524 0.14987 0.52210
 C285 C 0.62313 0.10561 0.54748
 O286 O 0.65959 0.09982 0.57889
 H287 H 0.67915 0.20867 0.52755
 H288 H 0.59969 0.16386 0.49483
 C289 C 0.44495 0.20409 0.35926
 C290 C 0.49034 0.19570 0.33841
 C291 C 0.51147 0.15713 0.36402
 C292 C 0.47781 0.14548 0.39884
 O293 O 0.43735 0.17384 0.39608
 H294 H 0.50575 0.21419 0.30761
 H295 H 0.54685 0.13896 0.35758
 C296 C 0.91509 0.31449 0.65191
 C297 C 0.95526 0.32494 0.68071
 C298 C 0.97863 0.36172 0.65733
 C299 C 0.95101 0.37167 0.61635
 O300 O 0.91211 0.34317 0.61279
 H301 H 0.96721 0.30725 0.71403
 H302 H 1.01236 0.37895 0.66847
 C303 C 0.05062 0.79588 -0.13180
 C304 C 0.00199 0.79287 -0.14592
 C305 C -0.02180 0.83150 -0.12229
 C306 C 0.01427 0.85554 -0.09676
 O307 O 0.05811 0.83401 -0.10223
 H308 H -0.01444 0.76537 -0.16940
 H309 H -0.06052 0.84150 -0.12405
 C310 C 0.64166 0.70170 1.07761
 C311 C 0.66730 0.69207 1.03548
 C312 C 0.64620 0.65149 1.01544
 C313 C 0.60889 0.63948 1.04620
 O314 O 0.60590 0.66981 1.08431
 H315 H 0.69810 0.71153 1.02108
 H316 H 0.65652 0.63295 0.98196
 C317 C 0.36791 0.44491 1.19280
 C318 C 0.35195 0.49444 1.19408
 C319 C 0.37666 0.51691 1.15785
 C320 C 0.40521 0.47921 1.13690
 O321 O 0.40013 0.43538 1.15816
 H322 H 0.32645 0.51218 1.21909
 H323 H 0.37391 0.55601 1.14757
 C324 C 0.61115 -0.14881 0.33922
 C325 C 0.61623 -0.18360 0.37569
 C326 C 0.60218 -0.15818 0.41671
 C327 C 0.58957 -0.11020 0.40156
 O328 O 0.59521 -0.10446 0.35470
 H329 H 0.63020 -0.22192 0.37295
 H330 H 0.60044 -0.17295 0.45299
 C331 C -0.15416 1.07255 -0.18613
 C332 C -0.17882 1.02907 -0.17767
 C333 C -0.15726 1.00907 -0.13744
 C334 C -0.12124 1.04185 -0.12424
 O335 O -0.11916 1.08059 -0.15374
 H336 H -0.20843 1.01335 -0.19847
 H337 H -0.16640 0.97440 -0.11996
 C338 C 1.14966 0.56086 0.70257
 C339 C 1.18018 0.52014 0.69195
 C340 C 1.15926 0.49809 0.65259
 C341 C 1.11778 0.52712 0.64223
 O342 O 1.11178 0.56525 0.67256
 H343 H 1.21352 0.50799 0.71044
 H344 H 1.17281 0.46505 0.63342
 C345 C 0.81765 0.64955 0.58342
 C346 C 0.84323 0.68990 0.56723
 C347 C 0.88664 0.66968 0.55081
 C348 C 0.88372 0.61860 0.55766
 O349 O 0.84196 0.60630 0.57763
 H350 H 0.83216 0.72920 0.56845
 H351 H 0.91670 0.68963 0.53547
 C352 C 0.68574 0.35339 1.08966
 C353 C 0.66569 0.31370 1.06479
 C354 C 0.62188 0.33201 1.04712
 C355 C 0.61911 0.38161 1.06152
 O356 O 0.65764 0.39467 1.08760
 H357 H 0.68102 0.27613 1.05990
 H358 H 0.59647 0.31252 1.02396
 C359 C 0.19090 1.13442 -0.06820
 C360 C 0.17048 1.16924 -0.03642
 C361 C 0.12741 1.14957 -0.02271
 C362 C 0.12514 1.10396 -0.04621
 O363 O 0.16361 1.09441 -0.07395
 H364 H 0.18422 1.20526 -0.02558
 H365 H 0.10085 1.16621 0.00195
 C366 C 0.29654 -0.06383 0.36424
 C367 C 0.30793 -0.02193 0.33776
 C368 C 0.34874 -0.00402 0.35927
 C369 C 0.35899 -0.03584 0.39737
 O370 O 0.32729 -0.07217 0.40083
 H371 H 0.28977 -0.00670 0.30595
 H372 H 0.36906 0.02816 0.34821
 C373 C 0.55046 -0.20971 0.63233
 C374 C 0.50198 -0.20962 0.64670
 C375 C 0.48028 -0.16889 0.62482
 C376 C 0.51721 -0.14668 0.59985
 O377 O 0.55985 -0.17132 0.60408
 H378 H 0.48401 -0.23667 0.66890
 H379 H 0.44213 -0.15674 0.62676
 C380 C 1.15394 0.67594 0.40757
 C381 C 1.18073 0.66460 0.44886
 C382 C 1.15552 0.62855 0.47129
 C383 C 1.11555 0.61996 0.44196
 O384 O 1.11425 0.64861 0.40292
 H385 H 1.21379 0.68163 0.46203
 H386 H 1.16451 0.61115 0.50564
 C387 C -0.04756 1.21869 0.13123
 C388 C -0.00423 1.20870 0.15618
 C389 C 0.01487 1.16586 0.13567
 C390 C -0.01778 1.15341 0.09952
 O391 O -0.05572 1.18531 0.09669
 H392 H 0.01117 1.22918 0.18626
 H393 H 0.04841 1.14583 0.14600
 C394 C 0.40645 0.32037 0.85602
 C395 C 0.42121 0.34848 0.81744
 C396 C 0.43795 0.39149 0.83749
 C397 C 0.43265 0.38612 0.88679
 O398 O 0.41331 0.34289 0.89828
 H399 H 0.41937 0.33903 0.77939
 H400 H 0.45321 0.42273 0.81852
 C401 C 0.63355 0.54392 0.78873
 C402 C 0.66554 0.50583 0.80358
 C403 C 0.64663 0.48904 0.84577
 C404 C 0.60460 0.51803 0.85325
 O405 O 0.59650 0.55134 0.81869
 H406 H 0.69912 0.49269 0.78656
 H407 H 0.66207 0.45983 0.86882
 C408 C 0.35178 0.06781 0.69332
 C409 C 0.32579 0.02547 0.68269
 C410 C 0.34538 0.00714 0.64102
 C411 C 0.38172 0.03962 0.62902
 O412 O 0.38582 0.07675 0.66074
 H413 H 0.29665 0.00924 0.70307
 H414 H 0.33488 -0.02645 0.62188
 C415 C 0.11051 0.84843 0.15907
 C416 C 0.11275 0.81468 0.12120
 C417 C 0.09916 0.84218 0.08138
 C418 C 0.08954 0.89023 0.09851
 O419 O 0.09652 0.89407 0.14553
 H420 H 0.12450 0.77557 0.12228
 H421 H 0.09568 0.82872 0.04456
 C422 C 0.86505 0.44963 0.30597
 C423 C 0.82641 0.46966 0.33237
 C424 C 0.84650 0.48351 0.37551
 C425 C 0.89588 0.47157 0.37194
 O426 O 0.90736 0.45079 0.32981
 H427 H 0.78799 0.47180 0.32238
 H428 H 0.82741 0.49975 0.40626
   
