data_POSCAR
  _audit_creation_date              2014-09-24
  _audit_creation_method            'ToBaCCo'
  _symmetry_space_group_name_H-M    'P1'
  _symmetry_Int_Tables_number       1
  _symmetry_cell_setting            triclinic
  loop_
  _symmetry_equiv_pos_as_xyz
 x,y,z
_cell_length_a 11.2047
_cell_length_b 11.2640
_cell_length_c 27.6837
_cell_angle_alpha 89.521700
_cell_angle_beta 90.179600
_cell_angle_gamma 119.655400
loop_
  _atom_site_label
  _atom_site_type_symbol
  _atom_site_fract_x
  _atom_site_fract_y
  _atom_site_fract_z
Si1 Si 0.18170 0.01438 0.50967
 Si2 Si 0.99682 0.19973 0.17509
 Si3 Si -0.18402 0.82960 0.84228
 O4 O 0.50272 0.04419 0.06817
 O5 O 0.24593 -0.05811 -0.03085
 O6 O 0.44352 -0.11687 -0.00479
 O7 O 0.28193 0.05108 0.05543
 O8 O 0.40688 0.24162 0.01375
 O9 O 0.58125 0.07238 -0.04496
 O10 O 0.38984 0.12850 -0.07096
 O11 O 0.63204 0.23715 0.02846
 Cu12 Cu 0.35422 -0.03930 0.02436
 Cu13 Cu 0.51519 0.18809 -0.02253
 C14 C 0.60932 0.16217 0.06537
 C15 C 0.27528 0.02008 -0.06774
 C16 C 0.54088 -0.05239 -0.03431
 C17 C 0.31634 0.17376 0.04586
 O18 O 0.06352 0.33328 0.63672
 O19 O -0.03679 0.48783 0.73578
 O20 O -0.03202 0.26203 0.72444
 O21 O 0.13442 0.58812 0.66240
 O22 O -0.05803 0.53984 0.62475
 O23 O -0.22687 0.20011 0.68585
 O24 O -0.23356 0.42212 0.69792
 O25 O -0.12903 0.28651 0.59921
 Cu26 Cu 0.05064 0.42376 0.69272
 Cu27 Cu -0.17689 0.35951 0.64817
 C28 C -0.01894 0.28148 0.60114
 C29 C -0.15624 0.47585 0.73391
 C30 C -0.15634 0.17573 0.71660
 C31 C 0.06857 0.62204 0.63367
 O32 O 0.67603 0.76062 0.30229
 O33 O 0.52008 0.50412 0.40153
 O34 O 0.74647 0.73107 0.38985
 O35 O 0.41963 0.57302 0.32767
 O36 O 0.47178 0.43321 0.28984
 O37 O 0.81199 0.60269 0.35084
 O38 O 0.58719 0.37527 0.36336
 O39 O 0.72394 0.61721 0.26439
 Cu40 Cu 0.58416 0.65561 0.35825
 Cu41 Cu 0.65230 0.49583 0.31364
 C42 C 0.72868 0.73153 0.26653
 C43 C 0.53270 0.39751 0.39954
 C44 C 0.83466 0.69492 0.38174
 C45 C 0.38758 0.47560 0.29883
 C46 C 0.08165 0.09903 0.52471
 C47 C -0.01661 0.10047 0.49513
 C48 C -0.06470 0.17234 0.51959
 C49 C 0.00888 0.21079 0.56213
 O50 O 0.09843 0.16689 0.56533
 H51 H -0.04942 0.05536 0.45987
 H52 H -0.14499 0.19316 0.50805
 C53 C 0.91329 1.01595 0.19032
 C54 C 0.91229 0.91820 0.16053
 C55 C 0.83974 0.79807 0.18490
 C56 C 0.80033 0.83109 0.22758
 O57 O 0.84432 0.96345 0.23096
 H58 H 0.95774 0.93176 0.12512
 H59 H 0.81893 0.69816 0.17318
 C60 C -0.00862 -0.08079 -0.14439
 C61 C 0.09238 -0.00078 -0.17714
 C62 C 0.21260 0.04603 -0.15265
 C63 C 0.17619 -0.01132 -0.10711
 O64 O 0.04182 -0.08906 -0.10196
 H65 H 0.08069 0.02042 -0.21449
 H66 H 0.31488 0.11395 -0.16631
 C67 C 0.19172 0.91942 0.56246
 C68 C 0.30567 0.96219 0.59128
 C69 C 0.27319 0.85682 0.62270
 C70 C 0.14155 0.75772 0.61059
 O71 O 0.09168 0.79560 0.57404
 H72 H 0.40174 1.05745 0.58902
 H73 H 0.33851 0.85167 0.65056
 C74 C 0.09081 0.30337 0.22758
 C75 C 0.04625 0.37316 0.25607
 C76 C 0.15109 0.44505 0.28745
 C77 C 0.25178 0.41344 0.27567
 O78 O 0.21531 0.32713 0.23934
 H79 H -0.04988 0.37364 0.25362
 H80 H 0.15488 0.51428 0.31507
 C81 C 0.71496 -0.17750 -0.10439
 C82 C 0.64813 -0.28895 -0.07424
 C83 C 0.57637 -0.25514 -0.04293
 C84 C 0.60505 -0.12533 -0.05646
 O85 O 0.68940 -0.07785 -0.09377
 H86 H 0.64914 -0.38440 -0.07565
 H87 H 0.50873 -0.31864 -0.01430
 C88 C 0.12344 0.24886 0.12579
 C89 C 0.19257 0.37650 0.10446
 C90 C 0.27543 0.36728 0.07025
 C91 C 0.24988 0.23462 0.07371
 O92 O 0.15845 0.16333 0.10733
 H93 H 0.18372 0.46541 0.11298
 H94 H 0.34628 0.44727 0.04618
 C95 C 1.10352 0.88813 0.46092
 C96 C 1.16164 0.81740 0.44051
 C97 C 1.06910 0.73430 0.40680
 C98 C 0.96203 0.76125 0.40960
 O99 O 0.98266 0.85389 0.44237
 H100 H 1.25937 0.82515 0.44937
 H101 H 1.07788 0.66233 0.38350
 C102 C -0.23008 -0.09382 0.79618
 C103 C -0.35940 -0.14919 0.77610
 C104 C -0.35052 -0.05600 0.74228
 C105 C -0.21647 0.04864 0.74466
 O106 O -0.14377 0.02608 0.77734
 H107 H -0.44939 -0.24547 0.78521
 H108 H -0.43172 -0.06275 0.71917
 C109 C 0.86352 0.23429 0.15179
 C110 C 0.87929 0.36323 0.14839
 C111 C 0.77862 0.35073 0.11771
 C112 C 0.70927 0.21499 0.10475
 O113 O 0.76111 0.14420 0.12506
 H114 H 0.96093 0.45689 0.16334
 H115 H 0.76276 0.43218 0.10404
 C116 C 0.34923 0.14502 0.48626
 C117 C 0.46196 0.12715 0.48368
 C118 C 0.55037 0.22656 0.45292
 C119 C 0.48456 0.29737 0.43907
 O120 O 0.36203 0.24757 0.45893
 H121 H 0.47368 0.04512 0.49929
 H122 H 0.64759 0.24084 0.43984
 C123 C -0.22273 0.66173 0.81951
 C124 C -0.35299 0.55055 0.81763
 C125 C -0.34299 0.46118 0.78737
 C126 C -0.20718 0.52490 0.77321
 O127 O -0.13413 0.64697 0.79236
 H128 H -0.44585 0.54038 0.83342
 H129 H -0.42608 0.36467 0.77484
   
