data_POSCAR
  _audit_creation_date              2014-09-24
  _audit_creation_method            'ToBaCCo'
  _symmetry_space_group_name_H-M    'P1'
  _symmetry_Int_Tables_number       1
  _symmetry_cell_setting            triclinic
  loop_
  _symmetry_equiv_pos_as_xyz
 x,y,z
_cell_length_a 30.4116
_cell_length_b 25.2320
_cell_length_c 29.0011
_cell_angle_alpha 92.448800
_cell_angle_beta 89.914600
_cell_angle_gamma 93.018500
loop_
  _atom_site_label
  _atom_site_type_symbol
  _atom_site_fract_x
  _atom_site_fract_y
  _atom_site_fract_z
C1 C 0.32460 0.25376 0.22268
 H2 H 0.33332 0.22407 0.24611
 C3 C 0.35761 0.27725 0.19594
 H4 H 0.39091 0.26434 0.19859
 C5 C 0.27167 0.30774 0.19156
 H6 H 0.23822 0.32011 0.19059
 C7 C 0.30403 0.33290 0.16438
 H8 H 0.29470 0.36328 0.14162
 N9 N 0.28220 0.26798 0.21923
 C10 C 0.16429 0.28197 0.29182
 H11 H 0.14578 0.25139 0.27174
 C12 C 0.14202 0.32034 0.31732
 H13 H 0.10645 0.31907 0.31581
 C14 C 0.23320 0.32161 0.31623
 H15 H 0.26877 0.32192 0.31522
 C16 C 0.21226 0.36094 0.34208
 H17 H 0.23192 0.39141 0.36124
 Zn18 Zn 0.23835 0.23214 0.25555
 N19 N 0.20903 0.28315 0.29189
 C20 C 0.27146 0.19161 0.33963
 N21 N 0.26707 0.18445 0.29304
 C22 C 0.28459 0.14256 0.26991
 C23 C 0.30843 0.10659 0.29324
 C24 C 0.29566 0.15658 0.36448
 C25 C 0.18033 0.21056 0.17828
 C26 C 0.15301 0.17806 0.14886
 C27 C 0.15901 0.10685 0.20111
 C28 C 0.18521 0.14093 0.22995
 N29 N 0.19685 0.19114 0.21741
 H30 H 0.25693 0.22490 0.35742
 H31 H 0.28074 0.13782 0.23286
 H32 H 0.32268 0.07410 0.27383
 H33 H 0.29902 0.16316 0.40142
 H34 H 0.18912 0.25073 0.16915
 H35 H 0.14160 0.19342 0.11696
 H36 H 0.15163 0.06634 0.21076
 H37 H 0.19690 0.12666 0.26204
 C38 C 0.16611 0.36035 0.34323
 C39 C 0.34762 0.31704 0.16614
 C40 C 0.14299 0.12510 0.15985
 C41 C 0.31505 0.11380 0.34090
 C42 C 0.81244 0.85916 0.23513
 H43 H 0.81240 0.86599 0.27221
 C44 C 0.83485 0.89551 0.20727
 H45 H 0.85165 0.93044 0.22339
 C46 C 0.79168 0.80445 0.16961
 H47 H 0.77525 0.76857 0.15509
 C48 C 0.81471 0.83889 0.14058
 H49 H 0.81388 0.82922 0.10393
 N50 N 0.79112 0.81489 0.21598
 C51 C 0.70727 0.76274 0.33012
 H52 H 0.71514 0.72140 0.32979
 C53 C 0.67831 0.78252 0.36318
 H54 H 0.66409 0.75630 0.38848
 C55 C 0.71591 0.84698 0.29716
 H56 H 0.73010 0.87179 0.27098
 C57 C 0.68657 0.86825 0.32922
 H58 H 0.67961 0.90978 0.32806
 Zn59 Zn 0.76459 0.76393 0.25508
 N60 N 0.72608 0.79520 0.29854
 C61 C 0.81547 0.73477 0.33208
 N62 N 0.81097 0.73166 0.28536
 C63 C 0.84018 0.70581 0.25825
 C64 C 0.87401 0.67913 0.27803
 C65 C 0.84897 0.70879 0.35337
 C66 C 0.69590 0.72942 0.19506
 C67 C 0.66905 0.69342 0.16837
 C68 C 0.71233 0.62254 0.19368
 C69 C 0.73819 0.65982 0.22001
 N70 N 0.73001 0.71228 0.21973
 H71 H 0.79317 0.75738 0.35306
 H72 H 0.83653 0.70497 0.22111
 H73 H 0.89622 0.65764 0.25580
 H74 H 0.85149 0.71217 0.39053
 H75 H 0.68990 0.77134 0.19575
 H76 H 0.64305 0.70845 0.14805
 H77 H 0.71966 0.58099 0.19390
 H78 H 0.76463 0.64664 0.24073
 C79 C 0.66738 0.83572 0.36277
 C80 C 0.83736 0.88505 0.15936
 C81 C 0.67722 0.63903 0.16746
 C82 C 0.87830 0.67939 0.32621
 C83 C 0.80681 0.33423 0.71222
 H84 H 0.81367 0.34320 0.74839
 C85 C 0.83288 0.35843 0.67852
 H86 H 0.85984 0.38575 0.68939
 C87 C 0.76550 0.28418 0.65472
 H88 H 0.74027 0.25399 0.64541
 C89 C 0.79084 0.30712 0.62001
 H90 H 0.78433 0.29481 0.58432
 N91 N 0.77390 0.29782 0.69986
 C92 C 0.68660 0.28399 0.81938
 H93 H 0.68558 0.24151 0.82339
 C94 C 0.66148 0.31608 0.84837
 H95 H 0.64224 0.29755 0.87520
 C96 C 0.71369 0.35888 0.77944
 H97 H 0.73349 0.37537 0.75210
 C98 C 0.68908 0.39241 0.80757
 H99 H 0.69060 0.43461 0.80183
 Zn100 Zn 0.74405 0.25992 0.74668
 N101 N 0.71229 0.30578 0.78600
 C102 C 0.78857 0.22293 0.82588
 N103 N 0.78738 0.22527 0.77914
 C104 C 0.81761 0.20132 0.75209
 C105 C 0.84997 0.17237 0.77158
 C106 C 0.82022 0.19368 0.84705
 C107 C 0.66899 0.22516 0.69527
 C108 C 0.64220 0.18886 0.66886
 C109 C 0.68618 0.11843 0.69392
 C110 C 0.71199 0.15598 0.71987
 N111 N 0.70393 0.20841 0.71883
 H112 H 0.76466 0.24297 0.84687
 H113 H 0.81605 0.20398 0.71500
 H114 H 0.87319 0.15323 0.74878
 H115 H 0.81959 0.19238 0.88421
 H116 H 0.66335 0.26713 0.69512
 H117 H 0.61630 0.20371 0.64828
 H118 H 0.69420 0.07708 0.69359
 H119 H 0.73945 0.14328 0.73937
 C120 C 0.66227 0.37120 0.84236
 C121 C 0.82514 0.34449 0.63163
 C122 C 0.65139 0.13474 0.66722
 C123 C 0.85140 0.16711 0.81966
 C124 C 0.30042 0.85646 0.74151
 H125 H 0.27425 0.87162 0.76261
 C126 C 0.32783 0.89170 0.71722
 H127 H 0.32235 0.93380 0.71966
 C128 C 0.33933 0.78348 0.71202
 H129 H 0.34332 0.74109 0.70995
 C130 C 0.36734 0.81716 0.68715
 H131 H 0.39348 0.80027 0.66694
 N132 N 0.30568 0.80326 0.73715
 C133 C 0.22465 0.77480 0.84911
 H134 H 0.24677 0.74711 0.86252
 C135 C 0.19481 0.79896 0.87882
 H136 H 0.19465 0.78990 0.91500
 C137 C 0.19722 0.81927 0.78579
 H138 H 0.19827 0.82665 0.74932
 C139 C 0.16691 0.84446 0.81428
 H140 H 0.14565 0.87177 0.79893
 Zn141 Zn 0.26559 0.75267 0.76283
 N142 N 0.22570 0.78577 0.80361
 C143 C 0.32742 0.72385 0.82777
 N144 N 0.29903 0.70428 0.79427
 C145 C 0.29646 0.65173 0.78151
 C146 C 0.32276 0.61650 0.80313
 C147 C 0.35419 0.68995 0.85052
 C148 C 0.24277 0.72538 0.66972
 C149 C 0.21963 0.69770 0.63402
 C150 C 0.17396 0.65422 0.69084
 C151 C 0.19848 0.68223 0.72558
 N152 N 0.23248 0.71657 0.71452
 H153 H 0.32957 0.76604 0.83645
 H154 H 0.27453 0.63708 0.75405
 H155 H 0.32051 0.57481 0.79232
 H156 H 0.37711 0.70678 0.87631
 H157 H 0.26914 0.75357 0.66133
 H158 H 0.22880 0.70449 0.59856
 H159 H 0.14781 0.62604 0.70037
 H160 H 0.19081 0.67614 0.76147
 C161 C 0.16536 0.83431 0.86167
 C162 C 0.36068 0.87191 0.68828
 C163 C 0.18474 0.66176 0.64433
 C164 C 0.35189 0.63533 0.83828
 C165 C 0.01119 -0.02900 -0.06038
 C166 C 0.03673 0.00373 -0.02222
 C167 C 0.01079 0.02831 0.00963
 C168 C -0.03864 0.01800 0.00065
 C169 C -0.01792 -0.06640 -0.03693
 C170 C -0.04532 -0.04304 -0.00279
 C171 C -0.01708 0.00808 -0.08097
 C172 C -0.04502 0.03497 -0.04908
 H173 H 0.07226 0.00957 -0.02246
 H174 H -0.05976 0.03858 0.02615
 H175 H -0.01832 -0.10893 -0.04422
 H176 H -0.01703 0.01354 -0.11771
 C177 C 0.02401 0.47013 0.46799
 C178 C 0.05499 0.50266 0.50140
 C179 C 0.03440 0.53925 0.52850
 C180 C -0.01535 0.53960 0.51984
 C181 C -0.01181 0.44584 0.49914
 C182 C -0.03248 0.48222 0.52635
 C183 C 0.00067 0.51112 0.44077
 C184 C -0.02016 0.54761 0.46787
 H185 H 0.08933 0.49447 0.50527
 H186 H -0.03218 0.56927 0.54206
 H187 H -0.01801 0.40339 0.50127
 H188 H -0.00126 0.50870 0.40350
 C189 C 0.51931 -0.03022 0.45472
 C190 C 0.54361 0.00714 0.49024
 C191 C 0.51697 0.02803 0.52341
 C192 C 0.46827 0.01000 0.51776
 C193 C 0.49444 -0.07201 0.48310
 C194 C 0.46816 -0.05119 0.51654
 C195 C 0.48325 0.00264 0.43552
 C196 C 0.45627 0.02347 0.46836
 H197 H 0.57867 0.01682 0.48846
 H198 H 0.44649 0.02801 0.54412
 H199 H 0.49792 -0.11432 0.47761
 H200 H 0.48017 0.00972 0.39913
 C201 C 0.52087 0.45619 -0.01752
 C202 C 0.55020 0.49187 0.01500
 C203 C 0.52791 0.52757 0.04136
 C204 C 0.47793 0.52404 0.03257
 C205 C 0.48613 0.43038 0.01384
 C206 C 0.46356 0.46577 0.04033
 C207 C 0.49554 0.49437 -0.04580
 C208 C 0.47274 0.52983 -0.01967
 H209 H 0.58565 0.49001 0.01523
 H210 H 0.45956 0.55303 0.05396
 H211 H 0.47879 0.38793 0.01293
 H212 H 0.49647 0.49345 -0.08312
 C213 C 0.13461 -0.14009 -0.10545
 C214 C 0.10102 -0.11159 -0.11791
 C215 C 0.07259 -0.08672 -0.08294
 C216 C 0.04077 -0.05559 -0.09534
 H217 H 0.09394 -0.10617 -0.15384
 H218 H 0.07796 -0.09318 -0.04670
 H219 H 0.13976 -0.14532 -0.06895
 H220 H 0.03552 -0.04994 -0.13177
 C221 C 0.14438 0.40249 0.37067
 C222 C 0.10365 0.39600 0.38778
 C223 C 0.08382 0.43834 0.41611
 C224 C 0.04568 0.42872 0.43799
 H225 H 0.08511 0.35843 0.38249
 H226 H 0.10078 0.47715 0.41989
 H227 H 0.16333 0.43931 0.37881
 H228 H 0.02874 0.38998 0.43309
 C229 C 0.63682 -0.14387 0.39826
 C230 C 0.60981 -0.10502 0.39076
 C231 C 0.57970 -0.08638 0.42705
 C232 C 0.54902 -0.05234 0.41783
 H233 H 0.60905 -0.08752 0.35732
 H234 H 0.58264 -0.10036 0.46170
 H235 H 0.63510 -0.16318 0.43096
 H236 H 0.54667 -0.03811 0.38320
 C237 C 0.63650 0.40801 -0.12842
 C238 C 0.60250 0.39256 -0.10197
 C239 C 0.57846 0.43180 -0.07427
 C240 C 0.54557 0.41656 -0.04639
 H241 H 0.59163 0.35114 -0.10086
 H242 H 0.58787 0.47371 -0.07626
 H243 H 0.64531 0.45015 -0.12969
 H244 H 0.53618 0.37465 -0.04453
 C245 C -0.11791 0.13636 -0.16329
 C246 C -0.11298 0.12358 -0.11704
 C247 C -0.08106 0.08860 -0.10566
 C248 C -0.07548 0.07215 -0.06070
 H249 H -0.13401 0.13885 -0.09008
 H250 H -0.06059 0.07364 -0.13319
 H251 H -0.09545 0.11842 -0.18784
 H252 H -0.09573 0.08854 -0.03340
 C253 C -0.08680 0.64801 0.34602
 C254 C -0.08413 0.63656 0.39059
 C255 C -0.05113 0.60045 0.40626
 C256 C -0.04922 0.58765 0.45051
 H257 H -0.10740 0.65133 0.41557
 H258 H -0.02917 0.58340 0.38098
 H259 H -0.06335 0.63110 0.32212
 H260 H -0.07066 0.60655 0.47537
 C261 C 0.34325 0.07633 0.36334
 C262 C 0.36359 0.08570 0.40398
 C263 C 0.39702 0.04944 0.41809
 C264 C 0.41939 0.05679 0.45767
 H265 H 0.35837 0.12132 0.42495
 H266 H 0.40452 0.01662 0.39454
 H267 H 0.35069 0.04065 0.34322
 H268 H 0.41048 0.08740 0.48277
 C269 C 0.38057 0.59727 -0.14066
 C270 C 0.39986 0.60535 -0.09931
 C271 C 0.42807 0.56520 -0.08141
 C272 C 0.44491 0.57000 -0.03874
 H273 H 0.39448 0.64084 -0.07822
 H274 H 0.43425 0.53065 -0.10343
 H275 H 0.38508 0.56003 -0.15976
 H276 H 0.43659 0.60335 -0.01621
 C277 C -0.13724 -0.07964 0.13239
 C278 C -0.12233 -0.09246 0.08783
 C279 C -0.09539 -0.05694 0.06343
 C280 C -0.07409 -0.07464 0.02343
 H281 H -0.12891 -0.13201 0.07271
 H282 H -0.08920 -0.01674 0.07729
 H283 H -0.12549 -0.04186 0.14837
 H284 H -0.07790 -0.11656 0.01336
 C285 C -0.14588 0.36412 0.59430
 C286 C -0.12033 0.40887 0.59784
 C287 C -0.08986 0.42284 0.56026
 C288 C -0.06563 0.46862 0.56181
 H289 H -0.12128 0.43493 0.62842
 H290 H -0.08701 0.39483 0.53119
 H291 H -0.14559 0.34034 0.56225
 H292 H -0.07035 0.49752 0.58987
 C293 C 0.38665 -0.09120 0.65911
 C294 C 0.40309 -0.10670 0.61818
 C295 C 0.42700 -0.06905 0.58851
 C296 C 0.44293 -0.08595 0.54782
 H297 H 0.39786 -0.14753 0.60546
 H298 H 0.43217 -0.02803 0.60057
 H299 H 0.38993 -0.04959 0.67018
 H300 H 0.43873 -0.12778 0.53761
 C301 C 0.38326 0.33828 0.13625
 C302 C 0.38432 0.38596 0.11769
 C303 C 0.42174 0.40190 0.08806
 C304 C 0.42684 0.45053 0.07153
 H305 H 0.35838 0.41303 0.12444
 H306 H 0.44589 0.37286 0.08009
 H307 H 0.41098 0.31349 0.13026
 H308 H 0.40393 0.48036 0.08162
 C309 C 0.11964 0.08681 0.12733
 C310 C 0.08639 0.09935 0.10051
 C311 C 0.06728 0.05983 0.06641
 C312 C 0.02831 0.06564 0.04657
 H313 H 0.07358 0.13863 0.10341
 H314 H 0.08569 0.02525 0.05732
 H315 H 0.12989 0.04624 0.12607
 H316 H 0.00843 0.09810 0.05796
 C317 C 0.16198 0.63122 0.60592
 C318 C 0.11968 0.61414 0.60747
 C319 C 0.09938 0.58325 0.56810
 C320 C 0.05596 0.57199 0.56634
 H321 H 0.09978 0.62339 0.63748
 H322 H 0.12035 0.57000 0.54015
 H323 H 0.18047 0.62422 0.57443
 H324 H 0.03512 0.58793 0.59333
 C325 C 0.62889 0.09520 0.63493
 C326 C 0.58989 0.10143 0.61520
 C327 C 0.57316 0.06281 0.57916
 C328 C 0.53286 0.06493 0.56131
 H329 H 0.57071 0.13517 0.62460
 H330 H 0.59452 0.03225 0.56673
 H331 H 0.64598 0.05946 0.62614
 H332 H 0.51045 0.09327 0.57565
 C333 C 0.65169 0.59870 0.13826
 C334 C 0.61144 0.60519 0.12131
 C335 C 0.58982 0.56336 0.09088
 C336 C 0.54925 0.56775 0.07403
 H337 H 0.59439 0.64097 0.12949
 H338 H 0.60783 0.52846 0.08216
 H339 H 0.66679 0.56130 0.13075
 H340 H 0.53075 0.60169 0.08473
   
