data_POSCAR
  _audit_creation_date              2014-09-24
  _audit_creation_method            'ToBaCCo'
  _symmetry_space_group_name_H-M    'P1'
  _symmetry_Int_Tables_number       1
  _symmetry_cell_setting            triclinic
  loop_
  _symmetry_equiv_pos_as_xyz
 x,y,z
_cell_length_a 50.1767
_cell_length_b 49.9436
_cell_length_c 49.9211
_cell_angle_alpha 89.974100
_cell_angle_beta 89.997400
_cell_angle_gamma 90.029400
loop_
  _atom_site_label
  _atom_site_type_symbol
  _atom_site_fract_x
  _atom_site_fract_y
  _atom_site_fract_z
C1 C 0.60428 0.62472 0.64586
 C2 C 0.58476 0.64481 0.64609
 C3 C 0.58474 0.66515 0.62663
 C4 C 0.60452 0.66514 0.60668
 C5 C 0.62426 0.64522 0.60628
 C6 C 0.62416 0.62493 0.62597
 C7 C 0.60421 0.60457 0.66537
 C8 C 0.62378 0.58419 0.66559
 C9 C 0.64373 0.58486 0.64555
 C10 C 0.64396 0.60493 0.62582
 C11 C 0.66371 0.60527 0.60588
 C12 C 0.66407 0.62550 0.58625
 C13 C 0.64419 0.64536 0.58660
 H14 H 0.56934 0.64445 0.66130
 H15 H 0.60484 0.68091 0.59177
 H16 H 0.58935 0.60567 0.68104
 H17 H 0.65858 0.56920 0.64437
 H18 H 0.67911 0.59007 0.60592
 H19 H 0.64409 0.66085 0.57138
 C20 C 0.89559 0.37483 0.14568
 C21 C 0.91527 0.35493 0.14607
 C22 C 0.91581 0.33434 0.12663
 C23 C 0.89589 0.33450 0.10655
 C24 C 0.87604 0.35430 0.10602
 C25 C 0.87587 0.37455 0.12564
 C26 C 0.89548 0.39513 0.16506
 C27 C 0.87586 0.41521 0.16478
 C28 C 0.85605 0.41468 0.14485
 C29 C 0.85598 0.39454 0.12523
 C30 C 0.83637 0.39408 0.10519
 C31 C 0.83626 0.37382 0.08562
 C32 C 0.85621 0.35403 0.08621
 H33 H 0.93078 0.35638 0.16106
 H34 H 0.89490 0.31859 0.09186
 H35 H 0.91057 0.39515 0.18061
 H36 H 0.84097 0.43021 0.14435
 H37 H 0.82092 0.40925 0.10509
 H38 H 0.85648 0.33853 0.07102
 C39 C 0.39459 0.12480 -0.14497
 C40 C 0.41465 0.14444 -0.14485
 C41 C 0.41515 0.16437 -0.12496
 C42 C 0.39511 0.16469 -0.10528
 C43 C 0.37492 0.14531 -0.10520
 C44 C 0.37465 0.12528 -0.12509
 C45 C 0.39416 0.10478 -0.16469
 C46 C 0.37391 0.08503 -0.16514
 C47 C 0.35419 0.08588 -0.14488
 C48 C 0.35443 0.10573 -0.12507
 C49 C 0.33467 0.10626 -0.10517
 C50 C 0.33476 0.12624 -0.08534
 C51 C 0.35502 0.14567 -0.08549
 H52 H 0.43018 0.14392 -0.15994
 H53 H 0.39508 0.18022 -0.09011
 H54 H 0.40912 0.10552 -0.18030
 H55 H 0.33904 0.07051 -0.14362
 H56 H 0.31891 0.09141 -0.10539
 H57 H 0.35548 0.16092 -0.07005
 C58 C 0.10463 0.87430 0.35555
 C59 C 0.08471 0.85452 0.35579
 C60 C 0.08409 0.83453 0.37589
 C61 C 0.10439 0.83482 0.39556
 C62 C 0.12438 0.85440 0.39548
 C63 C 0.12453 0.87424 0.37547
 C64 C 0.10492 0.89420 0.33567
 C65 C 0.12502 0.91385 0.33532
 C66 C 0.14476 0.91361 0.35531
 C67 C 0.14465 0.89398 0.37536
 C68 C 0.16447 0.89369 0.39519
 C69 C 0.16453 0.87381 0.41513
 C70 C 0.14435 0.85428 0.41513
 H71 H 0.06912 0.85564 0.34085
 H72 H 0.10555 0.81917 0.41052
 H73 H 0.08981 0.89411 0.32016
 H74 H 0.16013 0.92887 0.35539
 H75 H 0.18015 0.90863 0.39482
 H76 H 0.14404 0.83911 0.43066
 N77 N 0.09144 0.16638 0.11429
 N78 N 0.08245 0.15614 0.13682
 C79 C 0.06139 0.17062 0.14519
 C80 C 0.05677 0.19072 0.12670
 C81 C 0.07617 0.18740 0.10733
 H82 H 0.04994 0.16665 0.16311
 H83 H 0.07926 0.19973 0.08979
 Cu84 Cu 0.09860 0.12420 0.15206
 Cu85 Cu 0.12297 0.15246 0.09624
 Cu86 Cu 0.15245 0.09604 0.12398
 N87 N 0.11474 0.09225 0.16729
 N88 N 0.13595 0.08150 0.15619
 C89 C 0.14331 0.05987 0.17041
 C90 C 0.12570 0.05673 0.19150
 C91 C 0.10776 0.07763 0.18889
 H92 H 0.16003 0.04714 0.16554
 H93 H 0.09116 0.08201 0.20196
 N94 N 0.16608 0.11376 0.09147
 N95 N 0.15503 0.13540 0.08110
 C96 C 0.16933 0.14318 0.05965
 C97 C 0.19028 0.12553 0.05623
 C98 C 0.18755 0.10709 0.07672
 H99 H 0.16479 0.16036 0.04729
 H100 H 0.20063 0.09042 0.08091
 H101 H 0.11828 0.11331 0.10879
 H102 H 0.14028 0.13513 0.12958
 N103 N 0.40775 0.83337 0.61456
 N104 N 0.41783 0.84456 0.63613
 C105 C 0.43925 0.83040 0.64409
 C106 C 0.44288 0.80933 0.62645
 C107 C 0.42252 0.81188 0.60794
 H108 H 0.45148 0.83519 0.66125
 H109 H 0.41845 0.79878 0.59119
 Cu110 Cu 0.40200 0.87653 0.65166
 Cu111 Cu 0.37591 0.84705 0.59700
 Cu112 Cu 0.34660 0.90335 0.62472
 N113 N 0.38558 0.90848 0.66660
 N114 N 0.36340 0.91823 0.65651
 C115 C 0.35557 0.93936 0.67122
 C116 C 0.37400 0.94329 0.69141
 C117 C 0.39285 0.92342 0.68785
 H118 H 0.33795 0.95123 0.66738
 H119 H 0.41015 0.91980 0.70023
 N120 N 0.33263 0.88548 0.59253
 N121 N 0.34363 0.86385 0.58216
 C122 C 0.32932 0.85613 0.56069
 C123 C 0.30842 0.87385 0.55727
 C124 C 0.31117 0.89223 0.57779
 H125 H 0.33390 0.83904 0.54824
 H126 H 0.29819 0.90900 0.58193
 H127 H 0.38079 0.88639 0.60891
 H128 H 0.35973 0.86455 0.63079
 N129 N 0.90625 0.66806 0.38669
 N130 N 0.91589 0.65824 0.36427
 C131 C 0.93713 0.67297 0.35670
 C132 C 0.94110 0.69282 0.37561
 C133 C 0.92118 0.68907 0.39435
 H134 H 0.94924 0.66921 0.33918
 H135 H 0.91766 0.70097 0.41209
 Cu136 Cu 0.90028 0.62630 0.34845
 Cu137 Cu 0.87463 0.65345 0.40401
 Cu138 Cu 0.84612 0.59703 0.37526
 N139 N 0.88471 0.59436 0.33264
 N140 N 0.86338 0.58316 0.34306
 C141 C 0.85671 0.56156 0.32837
 C142 C 0.87500 0.55894 0.30777
 C143 C 0.89250 0.58010 0.31114
 H144 H 0.84010 0.54844 0.33265
 H145 H 0.90947 0.58485 0.29868
 N146 N 0.83181 0.61426 0.40785
 N147 N 0.84259 0.63589 0.41853
 C148 C 0.82813 0.64328 0.43998
 C149 C 0.80732 0.62542 0.44316
 C150 C 0.81031 0.60721 0.42246
 H151 H 0.83252 0.66033 0.45256
 H152 H 0.79744 0.59041 0.41808
 H153 H 0.87987 0.61431 0.39112
 H154 H 0.85800 0.63611 0.37021
 N155 N 0.59426 0.33117 -0.11391
 N156 N 0.58381 0.34176 -0.13559
 C157 C 0.56227 0.32731 -0.14284
 C158 C 0.55894 0.30675 -0.12452
 C159 C 0.57964 0.30986 -0.10646
 H160 H 0.54962 0.33172 -0.15980
 H161 H 0.58393 0.29733 -0.08933
 Cu162 Cu 0.59929 0.37370 -0.15161
 Cu163 Cu 0.62608 0.34560 -0.09691
 Cu164 Cu 0.65459 0.40194 -0.12575
 N165 N 0.61506 0.40562 -0.16732
 N166 N 0.63717 0.41602 -0.15772
 C167 C 0.64410 0.43736 -0.17271
 C168 C 0.62512 0.44066 -0.19251
 C169 C 0.60698 0.42023 -0.18848
 H170 H 0.66130 0.44992 -0.16912
 H171 H 0.58937 0.41625 -0.20029
 N172 N 0.66906 0.38460 -0.09332
 N173 N 0.65830 0.36298 -0.08260
 C174 C 0.67280 0.35560 -0.06117
 C175 C 0.69360 0.37348 -0.05804
 C176 C 0.69059 0.39167 -0.07876
 H177 H 0.66840 0.33859 -0.04852
 H178 H 0.70343 0.40850 -0.08315
 H179 H 0.62083 0.38500 -0.10929
 H180 H 0.64200 0.36314 -0.13090
 C181 C -0.02448 0.27335 0.12940
 C182 C -0.03607 0.28086 0.10471
 C183 C -0.05588 0.30075 0.10390
 C184 C -0.06427 0.31405 0.12740
 C185 C -0.05211 0.30661 0.15179
 C186 C -0.03267 0.28669 0.15279
 C187 C -0.00370 0.25177 0.12949
 C188 C 0.00787 0.24174 0.15321
 C189 C 0.02724 0.22172 0.15221
 C190 C 0.03584 0.21146 0.12759
 C191 C 0.02436 0.22107 0.10386
 C192 C 0.00443 0.24080 0.10465
 C193 C -0.02754 0.26878 0.08087
 C194 C -0.00755 0.24939 0.08081
 H195 H -0.03630 0.27457 0.06188
 H196 H -0.00154 0.24081 0.06181
 H197 H -0.06373 0.30658 0.08456
 H198 H -0.05824 0.31529 0.17065
 H199 H 0.03589 0.21460 0.17076
 H200 H 0.03058 0.21280 0.08478
 H201 H -0.02435 0.28209 0.17215
 H202 H 0.00219 0.24895 0.17275
 C203 C 0.52468 0.72703 0.62939
 C204 C 0.53193 0.71521 0.60465
 C205 C 0.55164 0.69525 0.60383
 C206 C 0.56416 0.68652 0.62742
 C207 C 0.55675 0.69810 0.65190
 C208 C 0.53732 0.71805 0.65294
 C209 C 0.50371 0.74844 0.62937
 C210 C 0.49576 0.76212 0.65275
 C211 C 0.47617 0.78192 0.65167
 C212 C 0.46381 0.78848 0.62737
 C213 C 0.47158 0.77504 0.60396
 C214 C 0.49152 0.75533 0.60474
 C215 C 0.51932 0.72320 0.58093
 C216 C 0.49944 0.74269 0.58100
 H217 H 0.52480 0.71413 0.56200
 H218 H 0.49022 0.74807 0.56211
 H219 H 0.55691 0.68614 0.58485
 H220 H 0.56623 0.69188 0.67037
 H221 H 0.47043 0.79185 0.67005
 H222 H 0.46243 0.78023 0.58499
 H223 H 0.53249 0.72605 0.67239
 H224 H 0.50443 0.75795 0.67206
 C225 C 1.02344 0.77443 0.37823
 C226 C 1.03089 0.78622 0.35359
 C227 C 1.05056 0.80629 0.35290
 C228 C 1.06370 0.81469 0.37649
 C229 C 1.05608 0.80255 0.40084
 C230 C 1.03641 0.78287 0.40172
 C231 C 1.00226 0.75324 0.37820
 C232 C 0.99243 0.74144 0.40188
 C233 C 0.97259 0.72192 0.40084
 C234 C 0.96229 0.71333 0.37624
 C235 C 0.97194 0.72479 0.35249
 C236 C 0.99147 0.74498 0.35333
 C237 C 1.01900 0.77756 0.32970
 C238 C 0.99994 0.75720 0.32954
 H239 H 1.02468 0.78652 0.31076
 H240 H 0.99151 0.75112 0.31050
 H241 H 1.05639 0.81427 0.33361
 H242 H 1.06449 0.80882 0.41977
 H243 H 0.96551 0.71323 0.41941
 H244 H 0.96373 0.71850 0.33342
 H245 H 1.03174 0.77456 0.42108
 H246 H 0.99956 0.74709 0.42144
 C247 C 0.47707 0.22438 -0.12236
 C248 C 0.46538 0.21707 -0.14711
 C249 C 0.44548 0.19725 -0.14795
 C250 C 0.43673 0.18473 -0.12434
 C251 C 0.44838 0.19204 -0.09988
 C252 C 0.46823 0.21154 -0.09884
 C253 C 0.49819 0.24565 -0.12227
 C254 C 0.51152 0.25376 -0.09880
 C255 C 0.53109 0.27356 -0.09971
 C256 C 0.53784 0.28601 -0.12394
 C257 C 0.52461 0.27823 -0.14747
 C258 C 0.50509 0.25801 -0.14685
 C259 C 0.47339 0.22979 -0.17081
 C260 C 0.49268 0.24992 -0.17066
 H261 H 0.46447 0.22421 -0.18978
 H262 H 0.49806 0.25921 -0.18953
 H263 H 0.43638 0.19198 -0.16693
 H264 H 0.44224 0.18247 -0.08142
 H265 H 0.54075 0.27935 -0.08121
 H266 H 0.52987 0.28750 -0.16637
 H267 H 0.47623 0.21629 -0.07938
 H268 H 0.50730 0.24503 -0.07951
 C269 C 0.12777 -0.02587 0.27340
 C270 C 0.10316 -0.03300 0.28531
 C271 C 0.10230 -0.05281 0.30529
 C272 C 0.12574 -0.06554 0.31389
 C273 C 0.15007 -0.05833 0.30210
 C274 C 0.15115 -0.03878 0.28220
 C275 C 0.12787 -0.00470 0.25210
 C276 C 0.15118 0.00314 0.23843
 C277 C 0.15030 0.02297 0.21880
 C278 C 0.12626 0.03569 0.21235
 C279 C 0.10288 0.02803 0.22575
 C280 C 0.10347 0.00781 0.24533
 C281 C 0.07963 -0.02015 0.27740
 C282 C 0.07980 -0.00007 0.25797
 H283 H 0.06077 -0.02558 0.28650
 H284 H 0.06107 0.00934 0.25266
 H285 H 0.08343 -0.05796 0.31454
 H286 H 0.16841 -0.06804 0.30814
 H287 H 0.16866 0.02860 0.20889
 H288 H 0.08411 0.03745 0.22061
 H289 H 0.17050 -0.03408 0.27411
 H290 H 0.17031 -0.00579 0.24248
 C291 C 0.62168 0.52303 -0.27450
 C292 C 0.64615 0.53067 -0.28627
 C293 C 0.64675 0.55052 -0.30627
 C294 C 0.62324 0.56366 -0.31460
 C295 C 0.59906 0.55592 -0.30240
 C296 C 0.59827 0.53605 -0.28281
 C297 C 0.62183 0.50165 -0.25338
 C298 C 0.59834 0.49154 -0.24160
 C299 C 0.59954 0.47166 -0.22200
 C300 C 0.62413 0.46162 -0.21334
 C301 C 0.64765 0.47144 -0.22490
 C302 C 0.64665 0.49099 -0.24513
 C303 C 0.66999 0.51882 -0.27768
 C304 C 0.67026 0.49964 -0.25736
 H305 H 0.68880 0.52465 -0.28663
 H306 H 0.68925 0.49127 -0.25129
 H307 H 0.66592 0.55649 -0.31423
 H308 H 0.58020 0.56438 -0.30857
 H309 H 0.58115 0.46440 -0.21326
 H310 H 0.66670 0.46337 -0.21859
 H311 H 0.57905 0.53128 -0.27444
 H312 H 0.57883 0.49852 -0.24732
 C313 C 0.37141 1.02461 0.77429
 C314 C 0.39596 1.03625 0.78184
 C315 C 0.39670 1.05629 0.80159
 C316 C 0.37324 1.06493 0.81464
 C317 C 0.34898 1.05282 0.80703
 C318 C 0.34807 1.03309 0.78733
 C319 C 0.37137 1.00355 0.75289
 C320 C 0.34778 0.99193 0.74287
 C321 C 0.34879 0.97254 0.72281
 C322 C 0.37327 0.96391 0.71252
 C323 C 0.39690 0.97525 0.72231
 C324 C 0.39611 0.99528 0.74204
 C325 C 0.41972 1.02755 0.76991
 C326 C 0.41982 1.00732 0.75066
 H327 H 0.43860 1.03640 0.77568
 H328 H 0.43875 1.00121 0.74217
 H329 H 0.41594 1.06412 0.80750
 H330 H 0.33015 1.05918 0.81541
 H331 H 0.33031 0.96393 0.71561
 H332 H 0.41588 0.96893 0.71408
 H333 H 0.32879 1.02479 0.78266
 H334 H 0.32833 0.99761 0.75005
 C335 C 0.87806 0.47720 0.22501
 C336 C 0.85352 0.46529 0.21765
 C337 C 0.85282 0.44538 0.19776
 C338 C 0.87637 0.43679 0.18523
 C339 C 0.90063 0.44861 0.19264
 C340 C 0.90154 0.46850 0.21221
 C341 C 0.87798 0.49838 0.24631
 C342 C 0.90120 0.51204 0.25443
 C343 C 0.90010 0.53163 0.27430
 C344 C 0.87591 0.53803 0.28680
 C345 C 0.85266 0.52452 0.27895
 C346 C 0.85346 0.50502 0.25868
 C347 C 0.82988 0.47307 0.23039
 C348 C 0.82988 0.49237 0.25058
 H349 H 0.81108 0.46397 0.22478
 H350 H 0.81108 0.49755 0.25991
 H351 H 0.83400 0.43613 0.19245
 H352 H 0.91906 0.44256 0.18310
 H353 H 0.91838 0.54156 0.28013
 H354 H 0.83380 0.52954 0.28825
 H355 H 0.92084 0.47664 0.21704
 H356 H 0.92042 0.50804 0.24566
 C357 C 0.27304 0.12881 -0.02513
 C358 C 0.28481 0.10411 -0.03246
 C359 C 0.30480 0.10337 -0.05215
 C360 C 0.31355 0.12700 -0.06461
 C361 C 0.30201 0.15145 -0.05714
 C362 C 0.28205 0.15240 -0.03771
 C363 C 0.25158 0.12870 -0.00420
 C364 C 0.23798 0.15205 0.00383
 C365 C 0.21808 0.15089 0.02331
 C366 C 0.21133 0.12652 0.03549
 C367 C 0.22474 0.10315 0.02769
 C368 C 0.24455 0.10401 0.00783
 C369 C 0.27672 0.08033 -0.01999
 C370 C 0.25715 0.08030 -0.00016
 H371 H 0.28574 0.06142 -0.02556
 H372 H 0.25168 0.06138 0.00894
 H373 H 0.31386 0.08441 -0.05749
 H374 H 0.30822 0.16993 -0.06662
 H375 H 0.20821 0.16926 0.02912
 H376 H 0.21942 0.08414 0.03672
 H377 H 0.27405 0.17182 -0.03285
 H378 H 0.24230 0.17140 -0.00469
 C379 C 0.72568 0.62802 0.52579
 C380 C 0.71386 0.60333 0.53310
 C381 C 0.69397 0.60257 0.55294
 C382 C 0.68537 0.62618 0.56555
 C383 C 0.69712 0.65059 0.55819
 C384 C 0.71694 0.65157 0.53862
 C385 C 0.74683 0.62800 0.50453
 C386 C 0.76033 0.65139 0.49642
 C387 C 0.77983 0.65038 0.47655
 C388 C 0.78637 0.62612 0.46405
 C389 C 0.77306 0.60268 0.47192
 C390 C 0.75359 0.60340 0.49219
 C391 C 0.72177 0.57961 0.52042
 C392 C 0.74108 0.57966 0.50031
 H393 H 0.71277 0.56069 0.52603
 H394 H 0.74638 0.56078 0.49105
 H395 H 0.68480 0.58363 0.55819
 H396 H 0.69112 0.66906 0.56781
 H397 H 0.78961 0.66881 0.47075
 H398 H 0.77819 0.58376 0.46264
 H399 H 0.72503 0.67098 0.53385
 H400 H 0.75625 0.67067 0.50518
 C401 C 0.77514 0.37113 0.02467
 C402 C 0.78682 0.39586 0.03206
 C403 C 0.80658 0.39667 0.05202
 C404 C 0.81517 0.37308 0.06470
 C405 C 0.80363 0.34863 0.05720
 C406 C 0.78395 0.34760 0.03750
 C407 C 0.75404 0.37110 0.00338
 C408 C 0.74063 0.34768 -0.00473
 C409 C 0.72113 0.34863 -0.02461
 C410 C 0.71453 0.37286 -0.03712
 C411 C 0.72775 0.39636 -0.02926
 C412 C 0.74721 0.39569 -0.00897
 C413 C 0.77888 0.41957 0.01935
 C414 C 0.75962 0.41947 -0.00082
 H415 H 0.78779 0.43852 0.02499
 H416 H 0.75428 0.43835 -0.01009
 H417 H 0.81563 0.41565 0.05735
 H418 H 0.80964 0.33016 0.06684
 H419 H 0.71140 0.33017 -0.03039
 H420 H 0.72254 0.41527 -0.03853
 H421 H 0.77601 0.32815 0.03263
 H422 H 0.74475 0.32840 0.00404
 C423 C 0.22625 0.87121 0.47531
 C424 C 0.21449 0.89593 0.46802
 C425 C 0.19455 0.89673 0.44826
 C426 C 0.18583 0.87312 0.43575
 C427 C 0.19741 0.84867 0.44316
 C428 C 0.21731 0.84766 0.46262
 C429 C 0.24759 0.87120 0.49635
 C430 C 0.26111 0.84779 0.50435
 C431 C 0.28086 0.84881 0.52398
 C432 C 0.28753 0.87308 0.53636
 C433 C 0.27423 0.89653 0.52856
 C434 C 0.25455 0.89581 0.50855
 C435 C 0.22253 0.91965 0.48064
 C436 C 0.24200 0.91957 0.50057
 H437 H 0.21352 0.93858 0.47512
 H438 H 0.24742 0.93845 0.50980
 H439 H 0.18547 0.91569 0.44295
 H440 H 0.19124 0.83020 0.43363
 H441 H 0.29066 0.83038 0.52975
 H442 H 0.27951 0.91548 0.53772
 H443 H 0.22531 0.82822 0.46742
 H444 H 0.25685 0.82849 0.49572
   
