data_POSCAR
  _audit_creation_date              2014-09-24
  _audit_creation_method            'ToBaCCo'
  _symmetry_space_group_name_H-M    'P1'
  _symmetry_Int_Tables_number       1
  _symmetry_cell_setting            triclinic
  loop_
  _symmetry_equiv_pos_as_xyz
 x,y,z
_cell_length_a 32.3224
_cell_length_b 32.3235
_cell_length_c 32.3507
_cell_angle_alpha 94.691000
_cell_angle_beta 85.232200
_cell_angle_gamma 95.897200
loop_
  _atom_site_label
  _atom_site_type_symbol
  _atom_site_fract_x
  _atom_site_fract_y
  _atom_site_fract_z
O1 O 0.55158 0.50796 0.03873
 O2 O 0.43785 0.50170 0.03217
 O3 O 0.49130 0.44810 0.03962
 O4 O 0.49813 0.56154 0.03128
 O5 O 0.50704 0.55162 -0.03721
 O6 O 0.50021 0.43818 -0.02887
 O7 O 0.44676 0.49178 -0.03631
 O8 O 0.56049 0.49804 -0.02975
 Cu9 Cu 0.49382 0.50582 0.04236
 Cu10 Cu 0.50451 0.49390 -0.03995
 C11 C 0.57522 0.50394 0.00562
 C12 C 0.42311 0.49582 -0.00321
 C13 C 0.49473 0.42401 0.00680
 C14 C 0.50361 0.57571 -0.00440
 O15 O -0.03745 0.55263 0.50911
 O16 O -0.03045 0.43919 0.50327
 O17 O -0.03009 0.49834 0.56287
 O18 O -0.03780 0.49348 0.44962
 O19 O 0.03090 0.50419 0.44001
 O20 O 0.03860 0.50905 0.55326
 O21 O 0.03823 0.44990 0.49366
 O22 O 0.03123 0.56334 0.49950
 Cu23 Cu -0.04088 0.49484 0.50721
 Cu24 Cu 0.04167 0.50770 0.49567
 C25 C -0.00433 0.57713 0.50503
 C26 C 0.00510 0.42540 0.49758
 C27 C 0.00558 0.50432 0.57716
 C28 C -0.00478 0.49818 0.42571
 O29 O 0.50349 0.03095 0.56318
 O30 O 0.50769 0.03680 0.44962
 O31 O 0.44903 0.03822 0.50962
 O32 O 0.56215 0.02948 0.50306
 O33 O 0.55036 -0.03919 0.49472
 O34 O 0.43725 -0.03045 0.50128
 O35 O 0.49590 -0.03188 0.44127
 O36 O 0.49171 -0.03772 0.55484
 Cu37 Cu 0.50678 0.04079 0.50723
 Cu38 Cu 0.49262 -0.04174 0.49722
 C39 C 0.49707 -0.00440 0.57817
 C40 C 0.50232 0.00349 0.42629
 C41 C 0.42407 0.00538 0.50629
 C42 C 0.57534 -0.00635 0.49789
 C43 C 0.50357 -0.03767 -0.08986
 C44 C 0.50666 -0.07864 -0.08046
 C45 C 0.50590 -0.08928 -0.03936
 C46 C 0.50311 -0.05789 -0.00635
 C47 C 0.50062 -0.01603 -0.01535
 C48 C 0.50066 -0.00587 -0.05723
 C49 C 0.49841 0.03586 -0.06536
 C50 C 0.49546 0.06687 -0.03310
 C51 C 0.49569 0.05762 0.00860
 C52 C 0.49820 0.01577 0.01760
 C53 C 0.50334 -0.06714 0.03535
 C54 C 0.50042 -0.03612 0.06761
 C55 C 0.49817 0.00561 0.05947
 C56 C 0.49529 0.03741 0.09210
 C57 C 0.49217 0.07838 0.08271
 C58 C 0.49289 0.08901 0.04161
 H59 H 0.49899 0.04507 -0.09682
 H60 H 0.49289 0.09823 -0.04130
 H61 H 0.50591 -0.09850 0.04355
 H62 H 0.49984 -0.04534 0.09906
 H63 H 0.50849 -0.10294 -0.10557
 H64 H 0.49035 0.10267 0.10782
 C65 C 0.03988 0.49715 0.91109
 C66 C 0.08058 0.49398 0.92125
 C67 C 0.09034 0.49438 0.96260
 C68 C 0.05826 0.49697 0.99503
 C69 C 0.01665 0.49948 0.98520
 C70 C 0.00742 0.49972 0.94310
 C71 C -0.03408 0.50192 0.93412
 C72 C -0.06577 0.50455 0.96578
 C73 C -0.05746 0.50409 1.00769
 C74 C -0.01583 0.50163 1.01753
 C75 C 0.06658 0.49652 1.03694
 C76 C 0.03490 0.49921 1.06861
 C77 C -0.00660 0.50143 1.05963
 C78 C -0.03906 0.50405 1.09164
 C79 C -0.07977 0.50713 1.08147
 C80 C -0.08954 0.50663 1.04012
 H81 H -0.04259 0.50151 0.90244
 H82 H -0.09691 0.50709 0.95695
 H83 H 0.09772 0.49396 1.04578
 H84 H 0.04341 0.49963 1.10029
 H85 H 0.10536 0.49234 0.89656
 H86 H -0.10454 0.50878 1.10616
 C87 C -0.03888 -0.09174 0.49563
 C88 C -0.08004 -0.08264 0.49382
 C89 C -0.09000 -0.04164 0.49300
 C90 C -0.05780 -0.00845 0.49324
 C91 C -0.01586 -0.01711 0.49505
 C92 C -0.00630 -0.05891 0.49602
 C93 C 0.03565 -0.06684 0.49603
 C94 C 0.06748 -0.03441 0.49622
 C95 C 0.05869 0.00732 0.49637
 C96 C 0.01668 0.01604 0.49520
 C97 C -0.06627 0.03298 0.49042
 C98 C -0.03444 0.06541 0.49052
 C99 C 0.00721 0.05776 0.49346
 C100 C 0.03982 0.09056 0.49341
 C101 C 0.08105 0.08139 0.49453
 C102 C 0.09091 0.04049 0.49636
 H103 H 0.04443 -0.09830 0.49531
 H104 H 0.09916 -0.04255 0.49562
 H105 H -0.09759 0.04078 0.48747
 H106 H -0.04286 0.09652 0.48765
 H107 H -0.10490 -0.10789 0.49387
 H108 H 0.10588 0.10667 0.49478
 C109 C -0.19738 0.54284 1.04182
 C110 C -0.21916 0.50834 1.02163
 C111 C -0.19828 0.47362 1.00666
 C112 C -0.15586 0.47328 1.01209
 C113 C -0.38055 0.50570 1.00832
 C114 C -0.15496 0.54253 1.04725
 C115 C -0.26315 0.50811 1.01730
 C116 C -0.30009 0.50766 1.01412
 C117 C -0.34345 0.50678 1.01083
 C118 C -0.13389 0.50780 1.03230
 H119 H -0.21328 0.56977 1.05370
 H120 H -0.21489 0.44667 0.99123
 H121 H -0.14021 0.44598 1.00097
 H122 H -0.13855 0.56922 1.06329
 C123 C 0.19918 0.52698 0.99599
 C124 C 0.21991 0.49214 0.98104
 C125 C 0.19798 0.45772 0.96090
 C126 C 0.15558 0.45821 0.95548
 C127 C 0.38126 0.49425 0.99424
 C128 C 0.15678 0.52750 0.99057
 C129 C 0.26388 0.49220 0.98535
 C130 C 0.30081 0.49251 0.98850
 C131 C 0.34416 0.49325 0.99176
 C132 C 0.13466 0.49304 0.97041
 H133 H 0.21590 0.55388 1.01139
 H134 H 0.21376 0.43071 0.94902
 H135 H 0.13906 0.43156 0.93947
 H136 H 0.14125 0.55488 1.00167
 C137 C -0.01097 -0.19196 0.53480
 C138 C -0.02118 -0.22081 0.50162
 C139 C -0.03650 -0.20727 0.46632
 C140 C -0.04176 -0.16513 0.46423
 C141 C -0.00707 -0.38116 0.50588
 C142 C -0.01624 -0.14976 0.53273
 C143 C -0.01661 -0.26441 0.50386
 C144 C -0.01324 -0.30109 0.50515
 C145 C -0.00975 -0.34421 0.50592
 C146 C -0.03149 -0.13605 0.49732
 H147 H 0.00072 -0.20211 0.56234
 H148 H -0.04463 -0.22933 0.44054
 H149 H -0.05392 -0.15514 0.43686
 H150 H -0.00875 -0.12782 0.55879
 C151 C 0.00450 0.19738 0.52624
 C152 C 0.02175 0.22018 0.49291
 C153 C 0.04422 0.20035 0.45945
 C154 C 0.04959 0.15797 0.45939
 C155 C 0.00795 0.38127 0.49595
 C156 C 0.00986 0.15498 0.52621
 C157 C 0.01730 0.26410 0.49345
 C158 C 0.01401 0.30097 0.49403
 C159 C 0.01058 0.34425 0.49492
 C160 C 0.03232 0.13496 0.49269
 H161 H -0.01273 0.21245 0.55240
 H162 H 0.05787 0.21772 0.43360
 H163 H 0.06733 0.14310 0.43348
 H164 H -0.00312 0.13783 0.55244
 C165 C 0.46528 -0.01216 -0.19150
 C166 C 0.49986 -0.01936 -0.21926
 C167 C 0.53589 -0.03164 -0.20448
 C168 C 0.53729 -0.03695 -0.16219
 C169 C 0.49650 -0.00671 -0.38006
 C170 C 0.46665 -0.01747 -0.14917
 C171 C 0.49818 -0.01512 -0.26304
 C172 C 0.49718 -0.01208 -0.29983
 C173 C 0.49653 -0.00900 -0.34305
 C174 C 0.50274 -0.02976 -0.13423
 H175 H 0.43716 -0.00287 -0.20263
 H176 H 0.56275 -0.03748 -0.22570
 H177 H 0.56520 -0.04687 -0.15123
 H178 H 0.43949 -0.01244 -0.12809
 C179 C 0.53378 0.01180 0.19362
 C180 C 0.49925 0.01897 0.22145
 C181 C 0.46319 0.03130 0.20676
 C182 C 0.46172 0.03667 0.16449
 C183 C 0.50290 0.00595 0.38215
 C184 C 0.53234 0.01718 0.15132
 C185 C 0.50099 0.01462 0.26520
 C186 C 0.50206 0.01148 0.30197
 C187 C 0.50279 0.00831 0.34516
 C188 C 0.49622 0.02950 0.13646
 H189 H 0.56192 0.00247 0.20468
 H190 H 0.43636 0.03710 0.22804
 H191 H 0.43378 0.04661 0.15360
 H192 H 0.55946 0.01216 0.13019
 C193 C 0.54241 -0.19703 -0.04196
 C194 C 0.50778 -0.21913 -0.02225
 C195 C 0.47276 -0.19859 -0.00759
 C196 C 0.47229 -0.15613 -0.01274
 C197 C 0.50550 -0.38018 -0.00775
 C198 C 0.54198 -0.15456 -0.04711
 C199 C 0.50780 -0.26304 -0.01785
 C200 C 0.50746 -0.29992 -0.01444
 C201 C 0.50663 -0.34317 -0.01072
 C202 C 0.50700 -0.13381 -0.03234
 H203 H 0.56958 -0.21268 -0.05360
 H204 H 0.44571 -0.21546 0.00748
 H205 H 0.44482 -0.14069 -0.00174
 H206 H 0.56882 -0.13785 -0.06266
 C207 C 0.45620 0.19669 0.04426
 C208 C 0.49080 0.21885 0.02456
 C209 C 0.52586 0.19836 0.00988
 C210 C 0.52639 0.15591 0.01501
 C211 C 0.49287 0.37990 0.01014
 C212 C 0.45670 0.15423 0.04938
 C213 C 0.49072 0.26276 0.02019
 C214 C 0.49100 0.29963 0.01680
 C215 C 0.49178 0.34289 0.01311
 C216 C 0.49172 0.13354 0.03460
 H217 H 0.42901 0.21230 0.05590
 H218 H 0.55288 0.21528 -0.00518
 H219 H 0.55389 0.14052 0.00401
 H220 H 0.42988 0.13747 0.06493
 C221 C -0.19728 -0.00785 0.52631
 C222 C -0.21988 -0.02486 0.49281
 C223 C -0.19985 -0.04693 0.45919
 C224 C -0.15741 -0.05203 0.45910
 C225 C -0.38065 -0.00985 0.49601
 C226 C -0.15485 -0.01296 0.52625
 C227 C -0.26375 -0.02033 0.49327
 C228 C -0.30056 -0.01681 0.49385
 C229 C -0.34373 -0.01295 0.49484
 C230 C -0.13459 -0.03489 0.49252
 H231 H -0.21253 0.00907 0.55257
 H232 H -0.21707 -0.06037 0.43321
 H233 H -0.14233 -0.06936 0.43302
 H234 H -0.13781 -0.00007 0.55255
 C235 C 0.20671 0.03956 0.46782
 C236 C 0.22012 0.02422 0.50317
 C237 C 0.19115 0.01381 0.53624
 C238 C 0.14894 0.01878 0.53397
 C239 C 0.38011 0.00891 0.50741
 C240 C 0.16454 0.04452 0.46551
 C241 C 0.26365 0.01955 0.50546
 C242 C 0.30026 0.01595 0.50677
 C243 C 0.34326 0.01204 0.50752
 C244 C 0.13534 0.03392 0.49845
 H245 H 0.22887 0.04783 0.44211
 H246 H 0.20122 0.00208 0.56380
 H247 H 0.12686 0.01101 0.55989
 H248 H 0.15461 0.05658 0.43806
 C249 C -0.01504 0.46542 1.19360
 C250 C -0.02215 0.50008 1.22122
 C251 C -0.03422 0.53616 1.20633
 C252 C -0.03928 0.53757 1.16400
 C253 C -0.00790 0.49732 1.38170
 C254 C -0.02010 0.46680 1.15124
 C255 C -0.01771 0.49855 1.26494
 C256 C -0.01433 0.49767 1.30167
 C257 C -0.01073 0.49719 1.34478
 C258 C -0.03204 0.50299 1.13616
 H259 H -0.00588 0.43729 1.20483
 H260 H -0.03996 0.56308 1.22746
 H261 H -0.04890 0.56556 1.15290
 H262 H -0.01500 0.43965 1.13022
 C263 C 0.01585 0.53623 0.80935
 C264 C 0.02301 0.50170 0.78157
 C265 C 0.03514 0.46555 0.79629
 C266 C 0.04019 0.46395 0.83859
 C267 C 0.00872 0.50510 0.62118
 C268 C 0.02091 0.53466 0.85168
 C269 C 0.01856 0.50343 0.73788
 C270 C 0.01518 0.50446 0.70117
 C271 C 0.01156 0.50511 0.65808
 C272 C 0.03289 0.49840 0.86658
 H273 H 0.00666 0.56441 0.79825
 H274 H 0.04091 0.43873 0.77503
 H275 H 0.04984 0.43591 0.84955
 H276 H 0.01576 0.56171 0.87282
   
