data_POSCAR
  _audit_creation_date              2014-09-24
  _audit_creation_method            'ToBaCCo'
  _symmetry_space_group_name_H-M    'P1'
  _symmetry_Int_Tables_number       1
  _symmetry_cell_setting            triclinic
  loop_
  _symmetry_equiv_pos_as_xyz
 x,y,z
_cell_length_a 51.1460
_cell_length_b 29.6825
_cell_length_c 17.5901
_cell_angle_alpha 90.045700
_cell_angle_beta 89.960800
_cell_angle_gamma 90.050200
loop_
  _atom_site_label
  _atom_site_type_symbol
  _atom_site_fract_x
  _atom_site_fract_y
  _atom_site_fract_z
C1 C 0.74905 0.24602 0.46299
 C2 C 0.74922 0.24651 0.54056
 C3 C 0.72698 0.26494 0.58524
 C4 C 0.77174 0.22860 0.58438
 C5 C 0.77001 0.22324 0.41886
 C6 C 0.72813 0.26863 0.41868
 C7 C 0.73148 0.29797 0.64038
 C8 C 0.71072 0.31667 0.68123
 C9 C 0.68449 0.30281 0.66854
 C10 C 0.68055 0.26826 0.61375
 C11 C 0.70143 0.24963 0.57333
 C12 C 0.79717 0.24470 0.57141
 C13 C 0.81839 0.22590 0.60991
 C14 C 0.81452 0.19103 0.66282
 C15 C 0.78893 0.17602 0.67744
 C16 C 0.76773 0.19476 0.63872
 C17 C 0.77610 0.17776 0.43174
 C18 C 0.79687 0.15745 0.39317
 C19 C 0.81174 0.18207 0.34027
 C20 C 0.80502 0.22718 0.32572
 C21 C 0.78430 0.24750 0.36450
 C22 C 0.71405 0.24429 0.36393
 C23 C 0.69374 0.26477 0.32370
 C24 C 0.68725 0.31011 0.33717
 C25 C 0.70186 0.33473 0.39070
 C26 C 0.72221 0.31425 0.43074
 H27 H 0.75112 0.31032 0.65034
 H28 H 0.71569 0.34394 0.71920
 H29 H 0.66159 0.25347 0.60344
 H30 H 0.69764 0.22299 0.53268
 H31 H 0.80059 0.27150 0.53084
 H32 H 0.83782 0.23874 0.59853
 H33 H 0.74823 0.18203 0.64967
 H34 H 0.76494 0.15819 0.47235
 H35 H 0.80125 0.12241 0.40452
 H36 H 0.81623 0.24714 0.28579
 H37 H 0.77985 0.28258 0.35363
 H38 H 0.71842 0.20911 0.35359
 H39 H 0.68271 0.24483 0.28332
 H40 H 0.69766 0.36993 0.40124
 H41 H 0.73325 0.33390 0.47151
 H42 H 0.78535 0.14898 0.71741
 C43 C 0.24924 0.74547 0.46051
 C44 C 0.24908 0.74498 0.53808
 C45 C 0.22819 0.76768 0.58251
 C46 C 0.27002 0.72212 0.58206
 C47 C 0.27172 0.72752 0.41648
 C48 C 0.22702 0.76401 0.41604
 C49 C 0.22232 0.81332 0.57055
 C50 C 0.20193 0.83384 0.61044
 C51 C 0.18720 0.80925 0.66373
 C52 C 0.19365 0.76391 0.67719
 C53 C 0.21401 0.74338 0.63710
 C54 C 0.28431 0.74632 0.63652
 C55 C 0.30501 0.72592 0.67516
 C56 C 0.31170 0.68081 0.66038
 C57 C 0.29683 0.65625 0.60739
 C58 C 0.27608 0.67664 0.56895
 C59 C 0.26765 0.69380 0.36188
 C60 C 0.28882 0.67509 0.32281
 C61 C 0.31443 0.69001 0.33735
 C62 C 0.31836 0.72474 0.39054
 C63 C 0.29718 0.74352 0.42938
 C64 C 0.20139 0.74860 0.42803
 C65 C 0.18055 0.76750 0.38785
 C66 C 0.18499 0.80180 0.33424
 C67 C 0.21078 0.81623 0.32087
 C68 C 0.23159 0.79740 0.36124
 H69 H 0.23344 0.83294 0.52991
 H70 H 0.19776 0.86905 0.59993
 H71 H 0.18254 0.74399 0.71741
 H72 H 0.21833 0.70819 0.64736
 H73 H 0.27988 0.78139 0.64757
 H74 H 0.31622 0.74583 0.71516
 H75 H 0.26492 0.65712 0.52827
 H76 H 0.24814 0.68115 0.35097
 H77 H 0.28520 0.64815 0.28263
 H78 H 0.33781 0.73751 0.40186
 H79 H 0.30064 0.77023 0.47014
 H80 H 0.19751 0.72212 0.46884
 H81 H 0.16097 0.75510 0.39837
 H82 H 0.21481 0.84287 0.28050
 H83 H 0.25124 0.80962 0.35096
 H84 H 0.30119 0.62122 0.59586
 C85 C 0.24876 0.25525 -0.46216
 C86 C 0.24895 0.25531 -0.53973
 C87 C 0.27142 0.27378 -0.58329
 C88 C 0.22679 0.23688 -0.58462
 C89 C 0.22768 0.23276 -0.41808
 C90 C 0.26986 0.27728 -0.41765
 C91 C 0.26739 0.30830 -0.63608
 C92 C 0.28851 0.32764 -0.67447
 C93 C 0.31441 0.31271 -0.66161
 C94 C 0.31801 0.27673 -0.60990
 C95 C 0.29681 0.25753 -0.57164
 C96 C 0.20118 0.25204 -0.57268
 C97 C 0.18035 0.23293 -0.61267
 C98 C 0.18454 0.19830 -0.66668
 C99 C 0.21064 0.18455 -0.67986
 C100 C 0.23138 0.20366 -0.63949
 C101 C 0.22150 0.18735 -0.43035
 C102 C 0.20114 0.16691 -0.39011
 C103 C 0.18649 0.19121 -0.33548
 C104 C 0.19352 0.23667 -0.32233
 C105 C 0.21383 0.25698 -0.36294
 C106 C 0.28413 0.25215 -0.36453
 C107 C 0.30496 0.27178 -0.32527
 C108 C 0.31177 0.31705 -0.33800
 C109 C 0.29690 0.34255 -0.38958
 C110 C 0.27605 0.32289 -0.42878
 H111 H 0.24785 0.32081 -0.64674
 H112 H 0.28413 0.35344 -0.71586
 H113 H 0.33724 0.26439 -0.59545
 H114 H 0.30028 0.23046 -0.53165
 H115 H 0.19731 0.27867 -0.53208
 H116 H 0.16111 0.24670 -0.60238
 H117 H 0.25105 0.19149 -0.64951
 H118 H 0.23250 0.16765 -0.47114
 H119 H 0.19774 0.13150 -0.40051
 H120 H 0.18269 0.25778 -0.28339
 H121 H 0.21833 0.29213 -0.35264
 H122 H 0.27949 0.21702 -0.35471
 H123 H 0.31575 0.25152 -0.28488
 H124 H 0.30175 0.37741 -0.40095
 H125 H 0.26498 0.34303 -0.46871
 H126 H 0.21530 0.15734 -0.71839
 C127 C -0.25081 0.75393 -0.46291
 C128 C -0.25070 0.75380 -0.54047
 C129 C -0.22832 0.77228 -0.58432
 C130 C -0.27286 0.73522 -0.58521
 C131 C -0.27174 0.73118 -0.41867
 C132 C -0.22978 0.77650 -0.41874
 C133 C -0.23249 0.80651 -0.63753
 C134 C -0.21148 0.82568 -0.67659
 C135 C -0.18555 0.81086 -0.66395
 C136 C -0.18180 0.77520 -0.61172
 C137 C -0.20290 0.75617 -0.57279
 C138 C -0.29848 0.75032 -0.57327
 C139 C -0.31927 0.73155 -0.61395
 C140 C -0.31501 0.69733 -0.66867
 C141 C -0.28891 0.68350 -0.68156
 C142 C -0.26822 0.70227 -0.64052
 C143 C -0.27775 0.68572 -0.43109
 C144 C -0.29820 0.66513 -0.39150
 C145 C -0.31313 0.68933 -0.33741
 C146 C -0.30620 0.73480 -0.32383
 C147 C -0.28579 0.75526 -0.36380
 C148 C -0.21527 0.75183 -0.36553
 C149 C -0.19442 0.77193 -0.32697
 C150 C -0.18783 0.81723 -0.34048
 C151 C -0.20296 0.84227 -0.39209
 C152 C -0.22381 0.82214 -0.43058
 H153 H -0.25207 0.81889 -0.64810
 H154 H -0.21597 0.85123 -0.71832
 H155 H -0.16252 0.76299 -0.59743
 H156 H -0.19933 0.72931 -0.53247
 H157 H -0.30239 0.77676 -0.53235
 H158 H -0.33850 0.74534 -0.60374
 H159 H -0.24854 0.69015 -0.65056
 H160 H -0.26659 0.66612 -0.47168
 H161 H -0.30150 0.62971 -0.40208
 H162 H -0.31721 0.75582 -0.28519
 H163 H -0.28142 0.79045 -0.35340
 H164 H -0.21972 0.71668 -0.35517
 H165 H -0.18344 0.75201 -0.28654
 H166 H -0.19829 0.87714 -0.40406
 H167 H -0.23505 0.84193 -0.47061
 H168 H -0.28421 0.65654 -0.72055
 O169 O -0.03604 0.92083 0.13773
 O170 O -0.06474 0.96171 0.06494
 C171 C -0.05942 0.93259 0.11746
 O172 O 0.03712 1.08169 0.13447
 O173 O 0.06614 1.03891 0.06548
 C174 C 0.06061 1.06992 0.11479
 O175 O -0.03618 1.07753 0.14128
 O176 O -0.06474 1.03752 0.06657
 C177 C -0.05953 1.06586 0.12042
 O178 O 0.03717 0.91684 0.13057
 O179 O 0.06613 0.96096 0.06381
 C180 C 0.06064 0.92918 0.11172
 Zr181 Zr 0.00056 0.94247 0.09448
 O182 O 0.00297 0.93921 0.21446
 O183 O -0.00066 0.87155 0.08441
 Zr184 Zr 0.00044 1.05639 0.09758
 O185 O 0.00323 1.05519 0.21766
 O186 O -0.00256 1.12753 0.09872
 O187 O -0.02286 0.99923 0.11055
 O188 O 0.02316 0.99939 0.11046
 O189 O 0.03737 0.91832 -0.13329
 O190 O 0.06600 0.96148 -0.06381
 C191 C 0.06074 0.93044 -0.11329
 O192 O -0.03550 1.07974 -0.13819
 O193 O -0.06449 1.03857 -0.06654
 C194 C -0.05897 1.06787 -0.11864
 O195 O 0.03772 1.08335 -0.13023
 O196 O 0.06631 1.03993 -0.06134
 C197 C 0.06108 1.07119 -0.11030
 O198 O -0.03594 0.92303 -0.14086
 O199 O -0.06489 0.96336 -0.06755
 C200 C -0.05942 0.93479 -0.12088
 Zr201 Zr 0.00082 0.94409 -0.09714
 O202 O 0.00395 0.94549 -0.21716
 O203 O -0.00165 0.87292 -0.09833
 Zr204 Zr 0.00094 1.05798 -0.09438
 O205 O 0.00405 1.05934 -0.21436
 O206 O -0.00194 1.12912 -0.09082
 Zr207 Zr -0.03839 1.00015 -0.00049
 Zr208 Zr 0.03965 1.00040 0.00088
 O209 O 0.02363 1.00113 -0.10928
 O210 O -0.02242 1.00113 -0.11110
 O211 O 0.02409 0.93469 -0.00113
 O212 O -0.02210 1.06531 0.00139
 O213 O -0.02217 0.93504 -0.00176
 O214 O 0.02404 1.06611 0.00222
 H215 H 0.03485 0.99902 0.15535
 H216 H -0.03392 1.09174 0.00187
 H217 H 0.03549 1.00139 -0.15383
 H218 H -0.03401 0.90860 -0.00252
 H219 H 0.01210 1.13958 0.06818
 H220 H 0.01326 1.14058 -0.06193
 H221 H -0.00998 1.03994 -0.23496
 H222 H -0.01097 0.96316 -0.23683
 H223 H 0.01053 0.86163 -0.05904
 H224 H -0.00061 0.85965 0.13703
 H225 H -0.01007 0.96055 0.23507
 H226 H -0.01151 1.03691 0.23704
 O227 O 0.46429 0.42289 0.14108
 O228 O 0.43548 0.46290 0.06715
 C229 C 0.44086 0.43446 0.12070
 O230 O 0.53773 0.58335 0.12888
 O231 O 0.56638 0.53947 0.06072
 C232 C 0.56111 0.57114 0.10906
 O233 O 0.46433 0.57928 0.13684
 O234 O 0.43550 0.53775 0.06521
 C235 C 0.44090 0.56722 0.11722
 O236 O 0.53770 0.41863 0.13296
 O237 O 0.56634 0.46144 0.06273
 C238 C 0.56109 0.43068 0.11266
 Zr239 Zr 0.50096 0.44354 0.09649
 O240 O 0.50368 0.44240 0.21653
 O241 O 0.49968 0.37247 0.09014
 Zr242 Zr 0.50098 0.55766 0.09384
 O243 O 0.50409 0.55875 0.21384
 O244 O 0.49807 0.62879 0.09134
 O245 O 0.47774 0.50073 0.11049
 O246 O 0.52365 0.50074 0.10879
 O247 O 0.53728 0.41569 -0.13051
 O248 O 0.56618 0.46017 -0.06417
 C249 C 0.56073 0.42816 -0.11176
 O250 O 0.46382 0.57640 -0.14161
 O251 O 0.43526 0.53639 -0.06663
 C252 C 0.44045 0.56469 -0.12055
 O253 O 0.53737 0.58079 -0.13596
 O254 O 0.56616 0.53830 -0.06607
 C255 C 0.56080 0.56894 -0.11601
 O256 O 0.46379 0.42036 -0.13747
 O257 O 0.43524 0.46195 -0.06494
 C258 C 0.44043 0.43263 -0.11733
 Zr259 Zr 0.50064 0.44181 -0.09536
 O260 O 0.50345 0.44065 -0.21543
 O261 O 0.49807 0.37066 -0.09264
 Zr262 Zr 0.50069 0.55585 -0.09842
 O263 O 0.50343 0.55486 -0.21850
 O264 O 0.49773 0.62699 -0.09926
 Zr265 Zr 0.46198 0.49974 -0.00019
 Zr266 Zr 0.53970 0.49980 -0.00137
 O267 O 0.52334 0.49868 -0.11112
 O268 O 0.47738 0.49868 -0.11143
 O269 O 0.52416 0.43407 0.00052
 O270 O 0.47813 0.56496 -0.00216
 O271 O 0.47798 0.43450 0.00117
 O272 O 0.52416 0.56559 -0.00286
 H273 H 0.53548 0.50113 0.15335
 H274 H 0.46624 0.59130 -0.00271
 H275 H 0.53511 0.49818 -0.15586
 H276 H 0.46605 0.40818 0.00192
 H277 H 0.51275 0.64024 0.06025
 H278 H 0.51266 0.63903 -0.06984
 H279 H 0.48899 0.53584 -0.23774
 H280 H 0.48892 0.45903 -0.23568
 H281 H 0.51053 0.36005 -0.05355
 H282 H 0.49979 0.36156 0.14336
 H283 H 0.49062 0.46398 0.23632
 H284 H 0.48949 0.54061 0.23446
 C285 C 0.37922 0.37506 0.22854
 C286 C 0.35596 0.39885 0.23893
 C287 C 0.33462 0.37841 0.27470
 C288 C 0.33605 0.33343 0.30122
 C289 C 0.35987 0.31002 0.28997
 C290 C 0.38111 0.33065 0.25402
 C291 C 0.40108 0.39614 0.19117
 C292 C 0.41930 0.41373 0.15937
 H293 H 0.35434 0.43344 0.21984
 H294 H 0.31749 0.39899 0.28398
 H295 H 0.36208 0.27508 0.30594
 H296 H 0.39900 0.31174 0.24555
 C297 C -0.12104 0.87271 0.22429
 C298 C -0.14427 0.89655 0.23481
 C299 C -0.16552 0.87625 0.27116
 C300 C -0.16402 0.83138 0.29814
 C301 C -0.14025 0.80789 0.28665
 C302 C -0.11908 0.82839 0.25012
 C303 C -0.09921 0.89377 0.18687
 C304 C -0.08099 0.91149 0.15534
 H305 H -0.14591 0.93109 0.21550
 H306 H -0.18263 0.89687 0.28058
 H307 H -0.13801 0.77301 0.30296
 H308 H -0.10121 0.80946 0.24159
 C309 C 0.62180 0.63512 0.21375
 C310 C 0.64674 0.63572 0.18145
 C311 C 0.66750 0.65643 0.21959
 C312 C 0.66378 0.67716 0.29136
 C313 C 0.63824 0.67651 0.32251
 C314 C 0.61760 0.65567 0.28412
 C315 C 0.60057 0.61279 0.17547
 C316 C 0.58264 0.59386 0.14448
 H317 H 0.65016 0.62020 0.12656
 H318 H 0.68617 0.65726 0.19084
 H319 H 0.63411 0.69011 0.37825
 H320 H 0.59836 0.65506 0.31000
 C321 C 0.12118 1.13445 0.21915
 C322 C 0.11713 1.15556 0.28912
 C323 C 0.13784 1.17694 0.32638
 C324 C 0.16327 1.17759 0.29446
 C325 C 0.16681 1.15627 0.22313
 C326 C 0.14600 1.13502 0.18612
 C327 C 0.09989 1.11179 0.18171
 C328 C 0.08199 1.09268 0.15088
 H329 H 0.09798 1.15501 0.31552
 H330 H 0.13385 1.19099 0.38189
 H331 H 0.18539 1.15704 0.19382
 H332 H 0.14929 1.11910 0.13148
 C333 C 0.62151 0.36409 -0.21593
 C334 C 0.61711 0.34008 -0.28288
 C335 C 0.63787 0.31936 -0.32094
 C336 C 0.66391 0.32219 -0.29313
 C337 C 0.66767 0.34652 -0.22431
 C338 C 0.64677 0.36707 -0.18661
 C339 C 0.60014 0.38635 -0.17815
 C340 C 0.58219 0.40529 -0.14734
 H341 H 0.59759 0.33796 -0.30658
 H342 H 0.63314 0.30354 -0.37448
 H343 H 0.68642 0.34851 -0.19637
 H344 H 0.65036 0.38522 -0.13415
 C345 C 0.12237 0.87042 -0.21987
 C346 C 0.12660 0.87913 -0.29707
 C347 C 0.14774 0.85939 -0.33483
 C348 C 0.16495 0.83061 -0.29578
 C349 C 0.16055 0.82208 -0.21812
 C350 C 0.13940 0.84191 -0.18043
 C351 C 0.10061 0.89097 -0.18131
 C352 C 0.08238 0.90866 -0.14980
 H353 H 0.11351 0.90109 -0.32816
 H354 H 0.15038 0.86608 -0.39485
 H355 H 0.17363 0.80049 -0.18635
 H356 H 0.13635 0.83509 -0.12058
 C357 C 0.37793 0.62104 -0.22820
 C358 C 0.36084 0.64878 -0.18732
 C359 C 0.33921 0.66804 -0.22336
 C360 C 0.33438 0.65973 -0.30086
 C361 C 0.35163 0.63164 -0.34139
 C362 C 0.37325 0.61244 -0.30524
 C363 C 0.40019 0.60131 -0.19095
 C364 C 0.41870 0.58471 -0.15921
 H365 H 0.36421 0.65549 -0.12757
 H366 H 0.32613 0.68907 -0.19044
 H367 H 0.34864 0.62512 -0.40134
 H368 H 0.38638 0.59106 -0.33744
 C369 C -0.12025 1.12847 -0.22546
 C370 C -0.14306 1.13806 -0.18460
 C371 C -0.16425 1.15861 -0.22075
 C372 C -0.16286 1.16988 -0.29832
 C373 C -0.13980 1.16022 -0.33884
 C374 C -0.11865 1.13963 -0.30259
 C375 C -0.09853 1.10707 -0.18824
 C376 C -0.08041 1.08914 -0.15673
 H377 H -0.14447 1.12966 -0.12480
 H378 H -0.18163 1.16608 -0.18788
 H379 H -0.13829 1.16790 -0.39886
 H380 H -0.10110 1.13223 -0.33478
 C381 C 0.62251 0.62870 -0.22281
 C382 C 0.63565 0.66502 -0.18980
 C383 C 0.65685 0.68493 -0.22711
 C384 C 0.66550 0.66882 -0.29866
 C385 C 0.65192 0.63181 -0.33073
 C386 C 0.63071 0.61213 -0.29319
 C387 C 0.60065 0.60824 -0.18453
 C388 C 0.58238 0.59064 -0.15297
 H389 H 0.62961 0.67784 -0.13483
 H390 H 0.66690 0.71184 -0.19774
 H391 H 0.65672 0.61883 -0.38644
 H392 H 0.62053 0.58415 -0.31954
 C393 C 0.12272 1.13083 -0.21768
 C394 C 0.13055 1.11412 -0.28832
 C395 C 0.15157 1.13371 -0.32691
 C396 C 0.16532 1.17078 -0.29567
 C397 C 0.15706 1.18701 -0.22381
 C398 C 0.13604 1.16720 -0.18545
 C399 C 0.10097 1.11055 -0.17855
 C400 C 0.08274 1.09299 -0.14677
 H401 H 0.12023 1.08612 -0.31410
 H402 H 0.15607 1.12062 -0.38276
 H403 H 0.16726 1.21397 -0.19504
 H404 H 0.13028 1.18014 -0.13031
 C405 C 0.37802 0.37586 -0.22501
 C406 C 0.35500 0.40076 -0.23380
 C407 C 0.33340 0.38167 -0.27037
 C408 C 0.33457 0.33734 -0.29855
 C409 C 0.35781 0.31260 -0.28938
 C410 C 0.37938 0.33176 -0.25284
 C411 C 0.40022 0.39554 -0.18735
 C412 C 0.41870 0.41226 -0.15557
 H413 H 0.35373 0.43490 -0.21227
 H414 H 0.31570 0.40138 -0.27582
 H415 H 0.35945 0.27865 -0.31145
 H416 H 0.39714 0.31224 -0.24651
 C417 C -0.12151 0.87749 -0.22964
 C418 C -0.14465 0.90208 -0.23851
 C419 C -0.16625 0.88254 -0.27442
 C420 C -0.16500 0.83804 -0.30183
 C421 C -0.14163 0.81362 -0.29265
 C422 C -0.12005 0.83324 -0.25678
 C423 C -0.09938 0.89752 -0.19207
 C424 C -0.08099 0.91441 -0.16001
 H425 H -0.14602 0.93631 -0.21744
 H426 H -0.18404 0.90201 -0.27986
 H427 H -0.13992 0.77956 -0.31414
 H428 H -0.10223 0.81393 -0.25033
 C429 C 0.37956 0.62759 0.22445
 C430 C 0.35672 0.63732 0.18388
 C431 C 0.33556 0.65781 0.22041
 C432 C 0.33701 0.66890 0.29808
 C433 C 0.36008 0.65910 0.33831
 C434 C 0.38120 0.63856 0.30168
 C435 C 0.40125 0.60627 0.18689
 C436 C 0.41939 0.58840 0.15524
 H437 H 0.35528 0.62907 0.12401
 H438 H 0.31818 0.66539 0.18777
 H439 H 0.36163 0.66663 0.39839
 H440 H 0.39877 0.63106 0.33365
 C441 C -0.12200 1.12242 0.22840
 C442 C -0.12667 1.11381 0.30543
 C443 C -0.14830 1.13298 0.34173
 C444 C -0.16556 1.16106 0.30136
 C445 C -0.16073 1.16940 0.22388
 C446 C -0.13910 1.15016 0.18769
 C447 C -0.09976 1.10266 0.19098
 C448 C -0.08126 1.08600 0.15914
 H449 H -0.11354 1.09243 0.33750
 H450 H -0.15129 1.12644 0.40167
 H451 H -0.17382 1.19043 0.19108
 H452 H -0.13573 1.15689 0.12794
 C453 C 0.62264 0.37114 0.21993
 C454 C 0.63976 0.34263 0.18071
 C455 C 0.66085 0.32285 0.21867
 C456 C 0.66508 0.33144 0.29639
 C457 C 0.64778 0.36024 0.33522
 C458 C 0.62671 0.37992 0.29719
 C459 C 0.60093 0.39157 0.18111
 C460 C 0.58272 0.40911 0.14940
 H461 H 0.63684 0.33574 0.12081
 H462 H 0.67400 0.30125 0.18706
 H463 H 0.65030 0.36698 0.39528
 H464 H 0.61354 0.40188 0.32812
 C465 C 0.12109 0.86523 0.21722
 C466 C 0.11880 0.85433 0.29433
 C467 C 0.13949 0.83337 0.33221
 C468 C 0.16280 0.82304 0.29341
 C469 C 0.16486 0.83391 0.21576
 C470 C 0.14413 0.85486 0.17796
 C471 C 0.09990 0.88754 0.17886
 C472 C 0.08205 0.90646 0.14766
 H473 H 0.10110 0.86236 0.32533
 H474 H 0.13744 0.82602 0.39222
 H475 H 0.18243 0.82592 0.18416
 H476 H 0.14609 0.86306 0.11821
   
