data_POSCAR
  _audit_creation_date              2014-09-24
  _audit_creation_method            'ToBaCCo'
  _symmetry_space_group_name_H-M    'P1'
  _symmetry_Int_Tables_number       1
  _symmetry_cell_setting            triclinic
  loop_
  _symmetry_equiv_pos_as_xyz
 x,y,z
_cell_length_a 42.4686
_cell_length_b 33.6233
_cell_length_c 27.3527
_cell_angle_alpha 89.921500
_cell_angle_beta 89.954400
_cell_angle_gamma 90.060600
loop_
  _atom_site_label
  _atom_site_type_symbol
  _atom_site_fract_x
  _atom_site_fract_y
  _atom_site_fract_z
O1 O 0.26898 0.28704 0.29952
 O2 O 0.21372 0.21014 0.25735
 O3 O 0.26908 0.20910 0.29862
 O4 O 0.21345 0.28631 0.25897
 O5 O 0.23565 0.28729 0.18602
 O6 O 0.29221 0.21088 0.22652
 O7 O 0.23641 0.21030 0.18476
 O8 O 0.29140 0.28794 0.22673
 Cu9 Cu 0.23929 0.24800 0.28607
 Cu10 Cu 0.26624 0.24912 0.19877
 C11 C 0.28968 0.30062 0.27037
 C12 C 0.21502 0.19785 0.21350
 C13 C 0.29047 0.19700 0.26971
 C14 C 0.21447 0.29928 0.21538
 O15 O 0.73575 0.21317 0.31360
 O16 O 0.79169 0.29033 0.27263
 O17 O 0.73573 0.29018 0.31402
 O18 O 0.79158 0.21327 0.27304
 O19 O 0.76932 0.21333 0.20018
 O20 O 0.71327 0.28957 0.24132
 O21 O 0.76879 0.29128 0.20039
 O22 O 0.71371 0.21339 0.24058
 Cu23 Cu 0.76600 0.25181 0.30058
 Cu24 Cu 0.73928 0.25196 0.21315
 C25 C 0.71475 0.20066 0.28428
 C26 C 0.78997 0.30391 0.22930
 C27 C 0.71433 0.30212 0.28506
 C28 C 0.79007 0.20028 0.22953
 O29 O 0.73672 0.78816 0.68297
 O30 O 0.79318 0.71193 0.72403
 O31 O 0.73723 0.71116 0.68357
 O32 O 0.79254 0.78901 0.72442
 O33 O 0.76941 0.78971 0.79654
 O34 O 0.71529 0.71090 0.75671
 O35 O 0.77098 0.71176 0.79698
 O36 O 0.71412 0.78703 0.75562
 Cu37 Cu 0.76724 0.75012 0.69649
 Cu38 Cu 0.74046 0.74982 0.78393
 C39 C 0.71519 0.79977 0.71191
 C40 C 0.79186 0.69902 0.76764
 C41 C 0.71633 0.69836 0.71297
 C42 C 0.79050 0.80269 0.76763
 O43 O 0.21456 0.78854 0.74467
 O44 O 0.27083 0.71198 0.70537
 O45 O 0.21498 0.71240 0.74554
 O46 O 0.27025 0.78987 0.70464
 O47 O 0.29230 0.79033 0.77765
 O48 O 0.23707 0.71239 0.81843
 O49 O 0.29312 0.71314 0.77819
 O50 O 0.23626 0.78941 0.81793
 Cu51 Cu 0.24069 0.75060 0.71757
 Cu52 Cu 0.26697 0.75137 0.80532
 C53 C 0.21520 0.80131 0.78834
 C54 C 0.29175 0.69964 0.73489
 C55 C 0.21593 0.69980 0.78935
 C56 C 0.29079 0.80328 0.73407
 C57 C 0.99735 0.06243 0.10401
 C58 C 1.02556 0.05634 0.07837
 C59 C 1.02512 0.03292 0.03582
 C60 C 0.99717 0.01425 0.01968
 C61 C 0.96923 0.02109 0.04642
 C62 C 0.96905 0.04606 0.08739
 C63 C 0.99707 -0.01141 -0.02531
 C64 C 0.96901 -0.01844 -0.05161
 C65 C 0.96871 -0.04334 -0.09262
 C66 C 0.99691 -0.05954 -0.10974
 C67 C 1.02521 -0.05347 -0.08435
 C68 C 1.02494 -0.03002 -0.04179
 H69 H 0.99713 0.08096 0.13636
 H70 H 1.04654 0.03049 0.01469
 H71 H 0.94728 0.00723 0.03607
 H72 H 0.94703 -0.00491 -0.04082
 H73 H 0.99648 -0.07807 -0.14209
 H74 H 1.04641 -0.02761 -0.02083
 C75 C 0.50012 0.55856 0.61058
 C76 C 0.52798 0.55061 0.58505
 C77 C 0.52678 0.52817 0.54189
 C78 C 0.49823 0.51131 0.52531
 C79 C 0.47052 0.51966 0.55206
 C80 C 0.47119 0.54429 0.59346
 C81 C 0.49743 0.48574 0.48017
 C82 C 0.46915 0.47948 0.45407
 C83 C 0.46835 0.45493 0.41270
 C84 C 0.49633 0.43838 0.39507
 C85 C 0.52481 0.44378 0.42012
 C86 C 0.52495 0.46661 0.46312
 H87 H 0.50082 0.57769 0.64243
 H88 H 0.54839 0.52422 0.52163
 H89 H 0.44809 0.50725 0.54144
 H90 H 0.44742 0.49347 0.46517
 H91 H 0.49564 0.42022 0.36241
 H92 H 0.54656 0.46818 0.48381
 C93 C -0.00113 0.44154 0.10987
 C94 C -0.02949 0.45624 0.09125
 C95 C -0.02916 0.48055 0.04951
 C96 C -0.00088 0.48839 0.02392
 C97 C 0.02711 0.47101 0.04196
 C98 C 0.02725 0.44867 0.08534
 C99 C -0.00050 0.51376 -0.02158
 C100 C 0.02776 0.53129 -0.03853
 C101 C 0.02861 0.55328 -0.08212
 C102 C 0.00068 0.56028 -0.10776
 C103 C -0.02803 0.54558 -0.09020
 C104 C -0.02833 0.52128 -0.04840
 H105 H -0.00137 0.42257 0.14195
 H106 H -0.05132 0.49298 0.03774
 H107 H 0.04913 0.47431 0.02263
 H108 H 0.04945 0.52829 -0.01831
 H109 H 0.00112 0.57908 -0.13998
 H110 H -0.05061 0.50855 -0.03757
 C111 C 0.49765 0.93897 0.60603
 C112 C 0.46963 0.95604 0.58935
 C113 C 0.47017 0.98067 0.54796
 C114 C 0.49816 0.98647 0.52088
 C115 C 0.52572 0.96697 0.53709
 C116 C 0.52586 0.94400 0.58006
 C117 C 0.49853 1.01185 0.47549
 C118 C 0.52693 1.02846 0.45781
 C119 C 0.52766 1.05085 0.41447
 C120 C 0.49951 1.05872 0.38967
 C121 C 0.47081 1.04466 0.40794
 C122 C 0.47053 1.02031 0.44962
 H123 H 0.49718 0.92070 0.63866
 H124 H 0.44845 0.99505 0.53758
 H125 H 0.54710 0.96832 0.51574
 H126 H 0.54876 1.02443 0.47745
 H127 H 0.49976 1.07773 0.35763
 H128 H 0.44814 1.00829 0.46117
 C129 C 1.13880 0.12839 0.15591
 C130 C 1.16680 0.13238 0.12903
 C131 C 1.19225 0.15368 0.14839
 C132 C 1.19022 0.17075 0.19522
 C133 C 1.16274 0.16477 0.22294
 C134 C 1.13724 0.14405 0.20335
 C135 C 1.11045 0.11027 0.13382
 C136 C 1.08169 0.13069 0.13560
 C137 C 1.05446 0.11365 0.11637
 C138 C 1.05519 0.07541 0.09562
 C139 C 1.08421 0.05532 0.09285
 C140 C 1.11166 0.07274 0.11150
 H141 H 1.21313 0.15776 0.12618
 H142 H 1.16036 0.17753 0.25908
 H143 H 1.03279 0.13054 0.11781
 H144 H 1.08558 0.02572 0.07746
 H145 H 1.11597 0.14095 0.22492
 H146 H 1.08035 0.16004 0.15176
 H147 H 1.16846 0.12056 0.09230
 H148 H 1.13363 0.05648 0.10978
 C149 C 0.64162 0.62366 0.65949
 C150 C 0.64026 0.64023 0.70662
 C151 C 0.66515 0.66300 0.72460
 C152 C 0.69193 0.67024 0.69575
 C153 C 0.69379 0.65286 0.64915
 C154 C 0.66897 0.62965 0.63130
 C155 C 0.61390 0.60209 0.63926
 C156 C 0.60548 0.60631 0.58974
 C157 C 0.57800 0.58870 0.57174
 C158 C 0.55819 0.56694 0.60298
 C159 C 0.56687 0.56188 0.65207
 C160 C 0.59454 0.57896 0.66993
 H161 H 0.66283 0.67621 0.76051
 H162 H 0.71419 0.65778 0.62613
 H163 H 0.57163 0.59324 0.53381
 H164 H 0.55213 0.54474 0.67665
 H165 H 0.67107 0.61676 0.59520
 H166 H 0.61949 0.62441 0.56522
 H167 H 0.61942 0.63696 0.72908
 H168 H 0.60061 0.57429 0.70793
 C169 C -0.14027 0.38305 0.17542
 C170 C -0.13759 0.36617 0.22237
 C171 C -0.16126 0.34150 0.24106
 C172 C -0.18791 0.33205 0.21277
 C173 C -0.19111 0.35001 0.16652
 C174 C -0.16786 0.37555 0.14845
 C175 C -0.11360 0.40596 0.15343
 C176 C -0.10775 0.40409 0.10277
 C177 C -0.08129 0.42244 0.08247
 C178 C -0.05964 0.44238 0.11234
 C179 C -0.06561 0.44531 0.16264
 C180 C -0.09254 0.42776 0.18290
 H181 H -0.15784 0.32838 0.27686
 H182 H -0.21152 0.34416 0.14389
 H183 H -0.07685 0.41928 0.04366
 H184 H -0.04918 0.46069 0.18628
 H185 H -0.17142 0.38892 0.11289
 H186 H -0.12277 0.38696 0.07880
 H187 H -0.11663 0.37056 0.24415
 H188 H -0.09650 0.43079 0.22179
 C189 C 0.36019 0.88534 0.67918
 C190 C 0.33053 0.88213 0.65657
 C191 C 0.30770 0.85610 0.67496
 C192 C 0.31375 0.83329 0.71694
 C193 C 0.34272 0.83783 0.74095
 C194 C 0.36577 0.86327 0.72209
 C195 C 0.38602 0.90899 0.65625
 C196 C 0.40933 0.92734 0.68509
 C197 C 0.43591 0.94450 0.66337
 C198 C 0.43942 0.94440 0.61235
 C199 C 0.41530 0.92844 0.58336
 C200 C 0.38902 0.91068 0.60502
 H201 H 0.28540 0.85352 0.65603
 H202 H 0.34812 0.82042 0.77322
 H203 H 0.45415 0.95691 0.68643
 H204 H 0.41770 0.92751 0.54394
 H205 H 0.38843 0.86426 0.74012
 H206 H 0.40750 0.92754 0.72455
 H207 H 0.32506 0.89926 0.62415
 H208 H 0.37196 0.89639 0.58149
 C209 C -0.13727 0.61898 -0.17784
 C210 C -0.16679 0.62178 -0.15462
 C211 C -0.19005 0.64720 -0.17280
 C212 C -0.18458 0.66984 -0.21514
 C213 C -0.15570 0.66582 -0.23961
 C214 C -0.13223 0.64096 -0.22099
 C215 C -0.11114 0.59557 -0.15551
 C216 C -0.08815 0.57713 -0.18488
 C217 C -0.06166 0.55940 -0.16373
 C218 C -0.05788 0.55906 -0.11277
 C219 C -0.08154 0.57554 -0.08328
 C220 C -0.10775 0.59382 -0.10436
 H221 H -0.21225 0.64939 -0.15348
 H222 H -0.15074 0.68311 -0.27217
 H223 H -0.04380 0.54660 -0.18720
 H224 H -0.07894 0.57619 -0.04390
 H225 H -0.10970 0.64028 -0.23948
 H226 H -0.09028 0.57703 -0.22431
 H227 H -0.17184 0.60469 -0.12198
 H228 H -0.12452 0.60823 -0.08046
 C229 C 0.36058 1.11854 0.32330
 C230 C 0.33284 1.12547 0.35013
 C231 C 0.30948 1.15079 0.33215
 C232 C 0.31275 1.16910 0.28611
 C233 C 0.33958 1.16023 0.25792
 C234 C 0.36335 1.13577 0.27654
 C235 C 0.38728 1.09577 0.34525
 C236 C 0.40851 1.07426 0.31576
 C237 C 0.43530 1.05657 0.33613
 C238 C 0.44097 1.05910 0.38653
 C239 C 0.41922 1.07891 0.41635
 C240 C 0.39290 1.09737 0.39597
 H241 H 0.28894 1.15618 0.35469
 H242 H 0.34305 1.17364 0.22228
 H243 H 0.45180 1.04130 0.31251
 H244 H 0.42343 1.08177 0.45525
 H245 H 0.38443 1.13179 0.25488
 H246 H 0.40474 1.07148 0.27680
 H247 H 0.32922 1.11179 0.38552
 H248 H 0.37775 1.11432 0.41996
 C249 C 1.13843 -0.12803 -0.15829
 C250 C 1.13743 -0.14464 -0.20528
 C251 C 1.16306 -0.16591 -0.22343
 C252 C 1.19012 -0.17150 -0.19469
 C253 C 1.19158 -0.15362 -0.14828
 C254 C 1.16600 -0.13178 -0.13037
 C255 C 1.10996 -0.10906 -0.13772
 C256 C 1.11136 -0.07129 -0.11603
 C257 C 1.08393 -0.05323 -0.09835
 C258 C 1.05470 -0.07291 -0.10145
 C259 C 1.05372 -0.11127 -0.12183
 C260 C 1.08096 -0.12895 -0.14010
 H261 H 1.16114 -0.17930 -0.25929
 H262 H 1.21213 -0.15737 -0.12533
 H263 H 1.08549 -0.02355 -0.08327
 H264 H 1.03188 -0.12784 -0.12351
 H265 H 1.16722 -0.11927 -0.09395
 H266 H 1.13351 -0.05541 -0.11391
 H267 H 1.11651 -0.14175 -0.22764
 H268 H 1.07945 -0.15846 -0.15580
 C269 C 0.63756 0.37119 0.34153
 C270 C 0.63620 0.35509 0.29428
 C271 C 0.66183 0.33443 0.27507
 C272 C 0.68927 0.32896 0.30298
 C273 C 0.69108 0.34638 0.34962
 C274 C 0.66550 0.36759 0.36860
 C275 C 0.60919 0.38959 0.36320
 C276 C 0.61065 0.42695 0.38590
 C277 C 0.58335 0.44449 0.40476
 C278 C 0.55416 0.42470 0.40187
 C279 C 0.55310 0.38674 0.38039
 C280 C 0.58022 0.36956 0.36096
 H281 H 0.65963 0.32138 0.23906
 H282 H 0.71192 0.34268 0.37197
 H283 H 0.58497 0.47391 0.42061
 H284 H 0.53129 0.37011 0.37873
 H285 H 0.66702 0.37972 0.40518
 H286 H 0.63276 0.44295 0.38792
 H287 H 0.61501 0.35790 0.27254
 H288 H 0.57865 0.34035 0.34447
 C289 C 0.85878 -0.11642 -0.17846
 C290 C 0.83100 -0.12414 -0.15199
 C291 C 0.80825 -0.15029 -0.17008
 C292 C 0.81213 -0.16861 -0.21594
 C293 C 0.83890 -0.15886 -0.24388
 C294 C 0.86211 -0.13362 -0.22509
 C295 C 0.88506 -0.09310 -0.15612
 C296 C 0.90643 -0.07145 -0.18534
 C297 C 0.93317 -0.05386 -0.16464
 C298 C 0.93858 -0.05656 -0.11418
 C299 C 0.91654 -0.07617 -0.08458
 C300 C 0.89030 -0.09459 -0.10528
 H301 H 0.78770 -0.15631 -0.14778
 H302 H 0.84280 -0.17223 -0.27938
 H303 H 0.94994 -0.03877 -0.18808
 H304 H 0.92058 -0.07915 -0.04564
 H305 H 0.88324 -0.12906 -0.24650
 H306 H 0.90293 -0.06870 -0.22436
 H307 H 0.82692 -0.11051 -0.11674
 H308 H 0.87503 -0.11159 -0.08144
 C309 C 0.35884 0.38287 0.32535
 C310 C 0.32943 0.37882 0.34864
 C311 C 0.30669 0.35268 0.33032
 C312 C 0.31259 0.33055 0.28780
 C313 C 0.34134 0.33582 0.26327
 C314 C 0.36428 0.36139 0.28201
 C315 C 0.38458 0.40686 0.34783
 C316 C 0.40730 0.42601 0.31853
 C317 C 0.43389 0.44350 0.33965
 C318 C 0.43800 0.44295 0.39053
 C319 C 0.41443 0.42623 0.42007
 C320 C 0.38813 0.40813 0.39899
 H321 H 0.28457 0.34953 0.34969
 H322 H 0.34664 0.31895 0.23058
 H323 H 0.45171 0.45651 0.31619
 H324 H 0.41730 0.42498 0.45939
 H325 H 0.38677 0.36298 0.26347
 H326 H 0.40501 0.42658 0.27913
 H327 H 0.32407 0.39546 0.38145
 H328 H 0.37151 0.39326 0.42284
 C329 C 0.14213 0.62682 -0.15718
 C330 C 0.16842 0.63535 -0.12771
 C331 C 0.19329 0.65845 -0.14569
 C332 C 0.19271 0.67323 -0.19388
 C333 C 0.16712 0.66293 -0.22406
 C334 C 0.14209 0.64042 -0.20582
 C335 C 0.11418 0.60563 -0.13683
 C336 C 0.09577 0.58064 -0.16661
 C337 C 0.06811 0.56346 -0.14865
 C338 C 0.05857 0.57021 -0.10028
 C339 C 0.07732 0.59400 -0.06989
 C340 C 0.10470 0.61180 -0.08806
 H341 H 0.21268 0.66527 -0.12139
 H342 H 0.16565 0.67364 -0.26136
 H343 H 0.05413 0.54480 -0.17252
 H344 H 0.07021 0.59984 -0.03255
 H345 H 0.12213 0.63506 -0.22949
 H346 H 0.10262 0.57442 -0.20394
 H347 H 0.16967 0.62457 -0.09046
 H348 H 0.11785 0.63140 -0.06425
 C349 C 0.64031 1.12549 0.33816
 C350 C 0.66792 1.13101 0.36578
 C351 C 0.69260 1.15445 0.34780
 C352 C 0.69034 1.17254 0.30160
 C353 C 0.66328 1.16583 0.27327
 C354 C 0.63852 1.14281 0.29141
 C355 C 0.61281 1.10359 0.35867
 C356 C 0.59318 1.08082 0.32812
 C357 C 0.56578 1.06327 0.34646
 C358 C 0.55763 1.06755 0.39589
 C359 C 0.57768 1.08904 0.42692
 C360 C 0.60489 1.10707 0.40847
 H361 H 0.71322 1.15893 0.37039
 H362 H 0.66067 1.17960 0.23769
 H363 H 0.55085 1.04639 0.32199
 H364 H 0.57171 1.09306 0.46510
 H365 H 0.61748 1.13989 0.26941
 H366 H 0.59886 1.07676 0.28986
 H367 H 0.67035 1.11753 0.40154
 H368 H 0.61910 1.12490 0.43292
 C369 C 0.13947 0.37347 0.16189
 C370 C 0.16714 0.36844 0.13423
 C371 C 0.19199 0.34532 0.15209
 C372 C 0.18983 0.32706 0.19821
 C373 C 0.16269 0.33329 0.22658
 C374 C 0.13778 0.35600 0.20856
 C375 C 0.11187 0.39510 0.14150
 C376 C 0.09218 0.41773 0.17210
 C377 C 0.06487 0.43539 0.15371
 C378 C 0.05689 0.43133 0.10420
 C379 C 0.07692 0.40978 0.07320
 C380 C 0.10403 0.39167 0.09169
 H381 H 0.21266 0.34122 0.12947
 H382 H 0.16017 0.31938 0.26211
 H383 H 0.04996 0.45230 0.17816
 H384 H 0.07107 0.40589 0.03497
 H385 H 0.11670 0.35858 0.23059
 H386 H 0.09777 0.42170 0.21038
 H387 H 0.16951 0.38206 0.09853
 H388 H 0.11828 0.37392 0.06722
 C389 C 0.63845 0.86927 0.65601
 C390 C 0.63708 0.85288 0.70317
 C391 C 0.66267 0.83197 0.72213
 C392 C 0.69007 0.82657 0.69408
 C393 C 0.69187 0.84420 0.64749
 C394 C 0.66633 0.86564 0.62875
 C395 C 0.61014 0.88812 0.63471
 C396 C 0.61181 0.92559 0.61217
 C397 C 0.58454 0.94365 0.59393
 C398 C 0.55520 0.92430 0.59733
 C399 C 0.55393 0.88619 0.61852
 C400 C 0.58102 0.86848 0.63730
 H401 H 0.66048 0.81877 0.75811
 H402 H 0.71268 0.84056 0.62504
 H403 H 0.58631 0.97315 0.57824
 H404 H 0.53197 0.86990 0.62052
 H405 H 0.66786 0.87799 0.59224
 H406 H 0.63404 0.94130 0.60987
 H407 H 0.61594 0.85571 0.72507
 H408 H 0.57928 0.83920 0.65365
 C409 C 0.85987 0.11873 0.17532
 C410 C 0.83029 0.12182 0.15241
 C411 C 0.80736 0.14775 0.17050
 C412 C 0.81324 0.17061 0.21244
 C413 C 0.84216 0.16629 0.23665
 C414 C 0.86530 0.14093 0.21810
 C415 C 0.88573 0.09492 0.15293
 C416 C 0.90879 0.07656 0.18223
 C417 C 0.93530 0.05896 0.16099
 C418 C 0.93899 0.05863 0.11001
 C419 C 0.91514 0.07474 0.08058
 C420 C 0.88893 0.09293 0.10175
 H421 H 0.78511 0.15017 0.15141
 H422 H 0.84743 0.18373 0.26889
 H423 H 0.95332 0.04643 0.18438
 H424 H 0.91769 0.07534 0.04117
 H425 H 0.88789 0.14005 0.23632
 H426 H 0.90679 0.07659 0.22168
 H427 H 0.82494 0.10459 0.12007
 H428 H 0.87207 0.10723 0.07789
 C429 C 0.36252 0.61914 0.68122
 C430 C 0.33290 0.62157 0.65835
 C431 C 0.30966 0.64711 0.67634
 C432 C 0.31526 0.67025 0.71814
 C433 C 0.34426 0.66657 0.74233
 C434 C 0.36770 0.64158 0.72390
 C435 C 0.38858 0.59556 0.65898
 C436 C 0.41167 0.57735 0.68838
 C437 C 0.43801 0.55927 0.66719
 C438 C 0.44155 0.55838 0.61618
 C439 C 0.41781 0.57473 0.58672
 C440 C 0.39176 0.59333 0.60782
 H441 H 0.28738 0.64901 0.65724
 H442 H 0.34932 0.68424 0.77447
 H443 H 0.45592 0.54658 0.69066
 H444 H 0.42022 0.57496 0.54729
 H445 H 0.39031 0.64114 0.74211
 H446 H 0.40971 0.57765 0.72783
 H447 H 0.32774 0.60412 0.62612
 H448 H 0.37490 0.60757 0.58389
   
