data_POSCAR
  _audit_creation_date              2014-09-24
  _audit_creation_method            'ToBaCCo'
  _symmetry_space_group_name_H-M    'P1'
  _symmetry_Int_Tables_number       1
  _symmetry_cell_setting            triclinic
  loop_
  _symmetry_equiv_pos_as_xyz
 x,y,z
_cell_length_a 34.4816
_cell_length_b 34.0623
_cell_length_c 34.6020
_cell_angle_alpha 88.251100
_cell_angle_beta 90.710800
_cell_angle_gamma 90.681200
loop_
  _atom_site_label
  _atom_site_type_symbol
  _atom_site_fract_x
  _atom_site_fract_y
  _atom_site_fract_z
N1 N 0.18387 0.17413 0.16972
 N2 N -0.18645 0.79205 0.20234
 N3 N -0.19702 0.18953 -0.20796
 N4 N 0.13939 0.87129 -0.13057
 N5 N 0.19994 1.20978 0.79339
 N6 N 0.81682 0.83826 0.83732
 N7 N 0.19224 0.79948 1.19958
 N8 N 0.85455 1.14028 1.14902
 N9 N 0.54535 0.93389 1.05276
 N10 N 0.57483 0.90936 1.05727
 N11 N 0.46785 0.96486 1.08624
 N12 N 0.44294 0.95975 1.11475
 N13 N 0.46398 0.93664 1.06141
 N14 N 0.43574 0.91219 1.07174
 N15 N 0.54833 0.96209 1.07765
 N16 N 0.57960 0.95787 1.09939
 C17 C 0.59595 0.92499 1.08666
 C18 C 0.42283 0.92697 1.10498
 N19 N 0.47163 1.07715 1.05244
 N20 N 0.44599 1.10428 1.05971
 N21 N 0.55333 1.04570 1.07082
 N22 N 0.58920 1.04224 1.08395
 N23 N 0.55199 1.07204 1.04225
 N24 N 0.58677 1.08744 1.03583
 N25 N 0.47198 1.04985 1.08004
 N26 N 0.44620 1.05733 1.10665
 Mn27 Mn 0.51015 1.00582 1.07911
 C28 C 0.43038 1.09144 1.09353
 C29 C 0.60949 1.06888 1.06247
 N30 N 0.45281 0.93456 0.97963
 N31 N 0.41978 0.91530 0.98455
 N32 N 0.52942 0.95750 0.94045
 N33 N 0.55344 0.95041 0.91229
 N34 N 0.53393 0.93181 0.96919
 N35 N 0.56154 0.90668 0.96140
 N36 N 0.44933 0.96130 0.95162
 N37 N 0.41409 0.96033 0.93629
 Mn38 Mn 0.49927 0.93366 1.01563
 C39 C 0.39620 0.93118 0.95696
 C40 C 0.57331 0.91875 0.92566
 N41 N 0.54017 1.06979 0.95962
 N42 N 0.57242 1.08954 0.95150
 N43 N 0.45340 1.04667 0.94566
 N44 N 0.42419 1.05625 0.92206
 N45 N 0.45989 1.07467 0.97030
 N46 N 0.43562 1.10381 0.96413
 N47 N 0.53455 1.04149 0.93516
 N48 N 0.56328 1.04068 0.91036
 Mn49 Mn 0.50601 1.07379 1.00618
 Mn50 Mn 0.49139 1.00171 0.94277
 Cl51 Cl 0.50166 1.00366 1.01092
 C52 C 0.58637 1.07115 0.92056
 C53 C 0.41316 1.09190 0.93434
 N54 N 0.04554 0.45613 0.05212
 N55 N 0.05266 0.42246 0.07059
 N56 N 0.06379 0.54294 0.03038
 N57 N 0.08459 0.57543 0.03439
 N58 N 0.03913 0.53827 0.05887
 N59 N 0.04203 0.56785 0.08259
 N60 N 0.06879 0.46114 0.02255
 N61 N 0.09205 0.43089 0.01993
 C62 C 0.08189 0.40717 0.05032
 C63 C 0.07092 0.59043 0.06724
 N64 N 0.02425 0.55296 -0.07623
 N65 N 0.02056 0.58753 -0.09380
 N66 N 0.05963 0.47044 -0.06000
 N67 N 0.08473 0.44375 -0.07034
 N68 N 0.03008 0.47178 -0.08428
 N69 N 0.03448 0.44665 -0.11206
 N70 N 0.05414 0.55287 -0.05235
 N71 N 0.07151 0.58775 -0.05310
 Mn72 Mn 0.06216 0.50685 -0.01490
 C73 C 0.05032 0.60887 -0.07949
 C74 C 0.06854 0.42921 -0.10292
 N75 N -0.04395 0.52889 0.06706
 N76 N -0.05056 0.55218 0.09599
 N77 N -0.06631 0.44741 0.03469
 N78 N -0.08308 0.41242 0.03429
 N79 N -0.03731 0.44757 0.05973
 N80 N -0.03413 0.41285 0.07749
 N81 N -0.07328 0.52932 0.04249
 N82 N -0.10027 0.55359 0.05357
 Mn83 Mn 0.00097 0.49278 0.05995
 C84 C -0.08555 0.56772 0.08683
 C85 C -0.06324 0.39151 0.06169
 N86 N -0.05250 0.46386 -0.07688
 N87 N -0.06089 0.44055 -0.10554
 N88 N -0.08238 0.53935 -0.03969
 N89 N -0.10352 0.57098 -0.03491
 N90 N -0.05826 0.54521 -0.06845
 N91 N -0.06240 0.58078 -0.08385
 N92 N -0.07605 0.45720 -0.04786
 N93 N -0.10092 0.42860 -0.05588
 Mn94 Mn -0.01413 0.50846 -0.07677
 Mn95 Mn -0.07499 0.49318 -0.00252
 Cl96 Cl -0.00650 0.50033 -0.00852
 C97 C -0.09073 0.41835 -0.09189
 C98 C -0.09121 0.59616 -0.06329
 N99 N 0.93826 -0.05817 0.47102
 N100 N 0.91758 -0.06630 0.43973
 N101 N 0.96723 -0.07047 0.55735
 N102 N 0.96564 -0.08536 0.59315
 N103 N 0.93938 -0.04501 0.55116
 N104 N 0.91867 -0.04135 0.58248
 N105 N 0.96522 -0.08459 0.47726
 N106 N 0.96400 -0.11093 0.45018
 C107 C 0.93391 -0.09959 0.42726
 C108 C 0.93493 -0.06687 0.60832
 N109 N 1.07810 -0.04082 0.54699
 N110 N 1.09938 -0.03447 0.57815
 N111 N 1.04769 -0.08230 0.47514
 N112 N 1.05115 -0.11155 0.45146
 N113 N 1.07284 -0.05419 0.46680
 N114 N 1.09420 -0.06368 0.43705
 N115 N 1.05150 -0.06788 0.55442
 N116 N 1.05458 -0.08110 0.59058
 Mn117 Mn 1.00791 -0.07675 0.51647
 C118 C 1.08489 -0.06024 0.60481
 C119 C 1.08022 -0.09967 0.42786
 N120 N 0.93705 0.03738 0.53644
 N121 N 0.90935 0.04717 0.55990
 N122 N 0.96168 0.05512 0.45318
 N123 N 0.95510 0.07600 0.42102
 N124 N 0.93614 0.02639 0.45686
 N125 N 0.91093 0.02751 0.42790
 N126 N 0.96379 0.06512 0.53400
 N127 N 0.95473 0.09473 0.55609
 Mn128 Mn 0.93735 -0.01003 0.50355
 C129 C 0.92080 0.08262 0.57236
 C130 C 0.92331 0.05845 0.40564
 N131 N 1.07107 0.03045 0.45219
 N132 N 1.09048 0.03044 0.41945
 N133 N 1.04881 0.06740 0.53159
 N134 N 1.05688 0.09545 0.55635
 N135 N 1.07686 0.04166 0.53181
 N136 N 1.10462 0.05136 0.55620
 N137 N 1.04411 0.05741 0.45063
 N138 N 1.04373 0.07569 0.41653
 Mn139 Mn 1.07517 -0.00586 0.49905
 Mn140 Mn 1.00468 0.06190 0.49269
 Cl141 Cl 1.00627 -0.00759 0.50296
 C142 C 1.07300 0.05900 0.39763
 C143 C 1.09190 0.08468 0.57151
 C144 C 1.15084 0.11899 0.25916
 C145 C 1.11229 0.11315 0.25019
 C146 C 1.09589 0.12528 0.21500
 C147 C 1.12014 0.14450 0.18804
 C148 C 1.15990 0.15197 0.19684
 C149 C 1.17537 0.13847 0.23297
 O150 O 1.16031 0.10651 0.29473
 C151 C 1.12694 0.09271 0.30861
 C152 C 1.09660 0.09633 0.28254
 C153 C 1.05851 0.08669 0.29196
 C154 C 1.05134 0.07331 0.32996
 C155 C 1.08213 0.06918 0.35723
 C156 C 1.12058 0.07834 0.34628
 H157 H 1.06542 0.12046 0.20866
 H158 H 1.10780 0.15397 0.16045
 H159 H 1.20530 0.14406 0.24103
 H160 H 1.03501 0.09055 0.27121
 H161 H 1.02179 0.06662 0.33837
 H162 H 1.14433 0.07648 0.36700
 C163 C 0.85237 -0.15969 0.29128
 C164 C 0.89040 -0.17130 0.29046
 C165 C 0.90497 -0.19413 0.26152
 C166 C 0.87928 -0.20555 0.23214
 C167 C 0.83967 -0.19455 0.23241
 C168 C 0.82607 -0.17132 0.26263
 O169 O 0.84465 -0.13783 0.32137
 C170 C 0.87854 -0.13580 0.34000
 C171 C 0.90734 -0.15607 0.32234
 C172 C 0.94477 -0.15899 0.33736
 C173 C 0.95291 -0.14034 0.37211
 C174 C 0.92395 -0.11877 0.39076
 C175 C 0.88624 -0.11624 0.37429
 H176 H 0.93508 -0.20276 0.26149
 H177 H 0.89010 -0.22308 0.20913
 H178 H 0.79597 -0.16281 0.26376
 H179 H 0.96684 -0.17535 0.32303
 H180 H 0.98193 -0.14239 0.38429
 H181 H 0.86354 -0.10026 0.38810
 C182 C 0.85848 0.16134 0.70500
 C183 C 0.82832 0.15075 0.68096
 C184 C 0.78963 0.15239 0.69156
 C185 C 0.78160 0.16554 0.72854
 C186 C 0.81206 0.17667 0.75393
 C187 C 0.85107 0.17491 0.74188
 O188 O 0.89316 0.15498 0.69011
 C189 C 0.88464 0.13999 0.65595
 C190 C 0.84531 0.13699 0.64907
 C191 C 0.82957 0.11970 0.61657
 C192 C 0.85534 0.10389 0.59048
 C193 C 0.89599 0.10580 0.59707
 C194 C 0.91101 0.12496 0.62983
 H195 H 0.76649 0.14328 0.67229
 H196 H 0.75175 0.16699 0.73768
 H197 H 0.87471 0.18284 0.76109
 H198 H 0.79852 0.11716 0.61217
 H199 H 0.84358 0.08897 0.56565
 H200 H 0.94185 0.12566 0.63609
 C201 C 1.11465 -0.10956 0.76500
 C202 C 1.12183 -0.06983 0.76165
 C203 C 1.13342 -0.04752 0.79286
 C204 C 1.13808 -0.06712 0.82888
 C205 C 1.13202 -0.10838 0.83280
 C206 C 1.12006 -0.12970 0.80015
 O207 O 1.10324 -0.12531 0.73214
 C208 C 1.10343 -0.09490 0.70735
 C209 C 1.11503 -0.06031 0.72379
 C210 C 1.11858 -0.02512 0.70261
 C211 C 1.10953 -0.02564 0.66296
 C212 C 1.09646 -0.06078 0.64577
 C213 C 1.09334 -0.09585 0.66830
 H214 H 1.13858 -0.01620 0.78961
 H215 H 1.14690 -0.05040 0.85367
 H216 H 1.11570 -0.16122 0.80188
 H217 H 1.12810 0.00167 0.71605
 H218 H 1.11180 0.00146 0.64587
 H219 H 1.08367 -0.12306 0.65574
 C220 C 0.28189 1.13087 1.15901
 C221 C 0.30409 1.16468 1.15616
 C222 C 0.28906 1.20182 1.16108
 C223 C 0.24930 1.20434 1.16823
 C224 C 0.22542 1.17011 1.16971
 C225 C 0.24219 1.13275 1.16604
 O226 O 0.30121 1.09891 1.15031
 C227 C 0.33618 1.11289 1.14142
 C228 C 0.33934 1.15302 1.14428
 C229 C 0.37182 1.17436 1.13208
 C230 C 0.40217 1.15351 1.11599
 C231 C 0.39970 1.11217 1.11319
 C232 C 0.36658 1.09145 1.12668
 H233 H 0.30699 1.22801 1.15811
 H234 H 0.23660 1.23303 1.17087
 H235 H 0.22436 1.10638 1.16593
 H236 H 0.37313 1.20605 1.13354
 H237 H 0.42737 1.16950 1.10528
 H238 H 0.36363 1.06001 1.12355
 C239 C 0.24100 0.90020 0.89595
 C240 C 0.23978 0.89594 0.93555
 C241 C 0.20620 0.88511 0.95522
 C242 C 0.17259 0.87810 0.93306
 C243 C 0.17341 0.88123 0.89205
 C244 C 0.20829 0.89259 0.87343
 O245 O 0.27567 0.91073 0.88283
 C246 C 0.29695 0.91294 0.91485
 C247 C 0.27648 0.90378 0.94790
 C248 C 0.29361 0.90257 0.98448
 C249 C 0.33341 0.91122 0.98700
 C250 C 0.35482 0.92143 0.95340
 C251 C 0.33628 0.92257 0.91683
 H252 H 0.20590 0.88209 0.98645
 H253 H 0.14604 0.86970 0.94766
 H254 H 0.21017 0.89460 0.84223
 H255 H 0.27706 0.89493 1.01006
 H256 H 0.34750 0.91068 1.01508
 H257 H 0.35216 0.92994 0.89074
 C258 C 0.72888 0.83365 1.14536
 C259 C 0.73730 0.87301 1.14755
 C260 C 0.77087 0.88746 1.16474
 C261 C 0.79677 0.86023 1.18111
 C262 C 0.78815 0.81927 1.18159
 C263 C 0.75384 0.80587 1.16258
 O264 O 0.69484 0.82656 1.12810
 C265 C 0.68140 0.86236 1.11975
 C266 C 0.70626 0.89160 1.13171
 C267 C 0.69669 0.93098 1.13032
 C268 C 0.65998 0.94080 1.11592
 C269 C 0.63434 0.91187 1.10111
 C270 C 0.64521 0.87183 1.10301
 H271 H 0.77687 0.91869 1.16566
 H272 H 0.82327 0.87130 1.19405
 H273 H 0.74615 0.77499 1.16237
 H274 H 0.71609 0.95320 1.14159
 H275 H 0.65129 0.97109 1.11708
 H276 H 0.62556 0.84893 1.09355
 C277 C 0.72202 1.15232 0.85509
 C278 C 0.72730 1.11250 0.85273
 C279 C 0.75853 1.09656 0.83397
 C280 C 0.78489 1.12268 0.81603
 C281 C 0.77936 1.16395 0.81646
 C282 C 0.74780 1.17891 0.83714
 O283 O 0.68951 1.16124 0.87294
 C284 C 0.67384 1.12630 0.88169
 C285 C 0.69569 1.09555 0.86960
 C286 C 0.68332 1.05658 0.87298
 C287 C 0.64698 1.04898 0.88959
 C288 C 0.62426 1.08008 0.90299
 C289 C 0.63806 1.11929 0.89932
 H290 H 0.76197 1.06511 0.83236
 H291 H 0.80889 1.11080 0.80045
 H292 H 0.74219 1.21010 0.83726
 H293 H 0.70068 1.03296 0.86253
 H294 H 0.63665 1.01887 0.89230
 H295 H 0.62090 1.14357 0.90872
 C296 C 0.13146 0.26135 0.12820
 C297 C 0.14392 0.26114 0.09057
 C298 C 0.16723 0.23179 0.07674
 C299 C 0.17877 0.20187 0.10297
 C300 C 0.16719 0.20197 0.14220
 C301 C 0.14266 0.23188 0.15478
 O302 O 0.11089 0.29281 0.13584
 C303 C 0.11055 0.31296 0.10239
 C304 C 0.13050 0.29495 0.07380
 C305 C 0.13573 0.31205 0.03719
 C306 C 0.11968 0.34923 0.02974
 C307 C 0.09867 0.36821 0.05865
 C308 C 0.09385 0.34961 0.09541
 H309 H 0.17693 0.23242 0.04710
 H310 H 0.19771 0.17916 0.09321
 H311 H 0.13421 0.23310 0.18474
 H312 H 0.15203 0.29755 0.01534
 H313 H 0.12350 0.36312 0.00145
 H314 H 0.07837 0.36364 0.11817
 C315 C -0.16426 0.27649 -0.15140
 C316 C -0.16271 0.30473 -0.18060
 C317 C -0.17338 0.29753 -0.21854
 C318 C -0.18582 0.25947 -0.22696
 C319 C -0.18692 0.22922 -0.19773
 C320 C -0.17637 0.23815 -0.15920
 O321 O -0.15142 0.28943 -0.11762
 C322 C -0.14138 0.32655 -0.12587
 C323 C -0.14758 0.33714 -0.16413
 C324 C -0.13680 0.37355 -0.17994
 C325 C -0.11853 0.40014 -0.15540
 C326 C -0.11206 0.39024 -0.11579
 C327 C -0.12411 0.35309 -0.10058
 H328 H -0.17174 0.32030 -0.24099
 H329 H -0.19418 0.25343 -0.25646
 H330 H -0.17639 0.21566 -0.13642
 H331 H -0.14139 0.38085 -0.21030
 H332 H -0.10923 0.42846 -0.16726
 H333 H -0.11862 0.34460 -0.07061
 C334 C 0.11136 0.76899 -0.09873
 C335 C 0.07248 0.76919 -0.10797
 C336 C 0.05340 0.80258 -0.12180
 C337 C 0.07555 0.83705 -0.12714
 C338 C 0.11616 0.83719 -0.11976
 C339 C 0.13406 0.80266 -0.10466
 O340 O 0.12397 0.73396 -0.08672
 C341 C 0.09241 0.71143 -0.08882
 C342 C 0.06028 0.73155 -0.10215
 C343 C 0.02498 0.71323 -0.10976
 C344 C 0.02256 0.67257 -0.10294
 C345 C 0.05476 0.65132 -0.08769
 C346 C 0.09026 0.67109 -0.08052
 H347 H 0.02271 0.80197 -0.12876
 H348 H 0.06147 0.86333 -0.13834
 H349 H 0.16503 0.80153 -0.09936
 H350 H 0.00045 0.72950 -0.12133
 H351 H -0.00454 0.65769 -0.10939
 H352 H 0.11552 0.65546 -0.06974
 C353 C -0.16412 0.70391 0.14562
 C354 C -0.16088 0.67619 0.17523
 C355 C -0.17013 0.68375 0.21323
 C356 C -0.18193 0.72182 0.22130
 C357 C -0.18357 0.75157 0.19172
 C358 C -0.17563 0.74211 0.15309
 O359 O -0.15151 0.69139 0.11209
 C360 C -0.13969 0.65519 0.12084
 C361 C -0.14442 0.64465 0.15922
 C362 C -0.13035 0.60972 0.17556
 C363 C -0.11071 0.58457 0.15131
 C364 C -0.10635 0.59440 0.11154
 C365 C -0.12136 0.62998 0.09595
 H366 H -0.16693 0.66158 0.23610
 H367 H -0.18765 0.72894 0.25096
 H368 H -0.17546 0.76454 0.13025
 H369 H -0.13346 0.60260 0.20607
 H370 H -0.09904 0.55740 0.16335
 H371 H -0.11743 0.63843 0.06581
 C372 C 1.14844 0.16194 0.71063
 C373 C 1.17954 0.15305 0.68819
 C374 C 1.21777 0.16022 0.69937
 C375 C 1.22429 0.17805 0.73489
 C376 C 1.19283 0.18791 0.75870
 C377 C 1.15431 0.17910 0.74646
 O378 O 1.11444 0.15302 0.69429
 C379 C 1.12438 0.13815 0.66076
 C380 C 1.16392 0.13751 0.65583
 C381 C 1.18102 0.12244 0.62346
 C382 C 1.15645 0.10656 0.59532
 C383 C 1.11557 0.10648 0.59961
 C384 C 1.09917 0.12311 0.63257
 H385 H 1.24172 0.15307 0.68102
 H386 H 1.25378 0.18523 0.74338
 H387 H 1.12974 0.18645 0.76390
 H388 H 1.21221 0.12211 0.62036
 H389 H 1.16933 0.09368 0.57035
 H390 H 1.06812 0.12263 0.63692
 C391 C 0.88108 -0.13007 0.75739
 C392 C 0.87147 -0.09107 0.75400
 C393 C 0.84583 -0.07350 0.77861
 C394 C 0.82866 -0.09725 0.80751
 C395 C 0.83720 -0.13801 0.81153
 C396 C 0.86496 -0.15418 0.78657
 O397 O 0.90308 -0.14167 0.72865
 C398 C 0.90727 -0.10927 0.70660
 C399 C 0.88853 -0.07753 0.72105
 C400 C 0.88599 -0.04158 0.70125
 C401 C 0.90284 -0.03832 0.66470
 C402 C 0.92186 -0.07067 0.64868
 C403 C 0.92492 -0.10647 0.67033
 H404 H 0.83828 -0.04286 0.77487
 H405 H 0.80811 -0.08409 0.82653
 H406 H 0.87139 -0.18523 0.78789
 H407 H 0.87042 -0.01730 0.71293
 H408 H 0.90029 -0.01075 0.64847
 H409 H 0.93839 -0.13187 0.65836
 C410 C 1.15329 -0.15272 0.28703
 C411 C 1.13368 -0.18396 0.30403
 C412 C 1.13240 -0.22110 0.28845
 C413 C 1.15228 -0.22630 0.25392
 C414 C 1.17267 -0.19457 0.23561
 C415 C 1.17285 -0.15713 0.25239
 O416 O 1.15098 -0.11998 0.30675
 C417 C 1.12937 -0.13082 0.33684
 C418 C 1.11791 -0.16964 0.33635
 C419 C 1.09456 -0.18708 0.36456
 C420 C 1.08246 -0.16357 0.39456
 C421 C 1.09411 -0.12351 0.39606
 C422 C 1.11804 -0.10693 0.36675
 H423 H 1.11678 -0.24522 0.30244
 H424 H 1.15196 -0.25502 0.24133
 H425 H 1.18772 -0.13230 0.23875
 H426 H 1.08576 -0.21764 0.36340
 H427 H 1.06408 -0.17669 0.41670
 H428 H 1.12707 -0.07639 0.36691
 C429 C 0.88922 0.12151 0.24971
 C430 C 0.85557 0.10693 0.26581
 C431 C 0.82076 0.10490 0.24569
 C432 C 0.82053 0.11765 0.20699
 C433 C 0.85503 0.13188 0.18837
 C434 C 0.88981 0.13452 0.21088
 O435 O 0.91941 0.11924 0.27397
 C436 C 0.90431 0.10270 0.30582
 C437 C 0.86536 0.09445 0.30207
 C438 C 0.84399 0.07492 0.33066
 C439 C 0.86358 0.06329 0.36470
 C440 C 0.90362 0.07179 0.36970
 C441 C 0.92427 0.09213 0.33994
 H442 H 0.79469 0.09331 0.25916
 H443 H 0.79315 0.11614 0.19144
 H444 H 0.91693 0.14410 0.19808
 H445 H 0.81347 0.06825 0.32662
 H446 H 0.84753 0.04773 0.38723
 H447 H 0.95499 0.09842 0.34282
 C448 C 0.14930 0.29128 -0.15713
 C449 C 0.13581 0.31273 -0.18869
 C450 C 0.14218 0.30209 -0.22648
 C451 C 0.16353 0.26802 -0.23207
 C452 C 0.17724 0.24457 -0.20012
 C453 C 0.16958 0.25651 -0.16201
 O454 O 0.14123 0.30746 -0.12371
 C455 C 0.12207 0.33970 -0.13450
 C456 C 0.11766 0.34397 -0.17397
 C457 C 0.09772 0.37498 -0.19168
 C458 C 0.08150 0.40272 -0.16772
 C459 C 0.08629 0.39955 -0.12699
 C460 C 0.10709 0.36767 -0.11010
 H461 H 0.13177 0.31984 -0.25084
 H462 H 0.16983 0.26022 -0.26140
 H463 H 0.17964 0.23951 -0.13700
 H464 H 0.09442 0.37751 -0.22280
 H465 H 0.06557 0.42697 -0.18089
 H466 H 0.11071 0.36436 -0.07904
 C467 C -0.09723 0.23605 0.12918
 C468 C -0.08981 0.23245 0.09051
 C469 C -0.09653 0.19807 0.07104
 C470 C -0.11287 0.16636 0.09185
 C471 C -0.12290 0.16929 0.13161
 C472 C -0.11340 0.20464 0.15072
 O473 O -0.09153 0.27241 0.14116
 C474 C -0.08067 0.29209 0.10924
 C475 C -0.07944 0.26890 0.07742
 C476 C -0.07296 0.28393 0.04022
 C477 C -0.06753 0.32460 0.03556
 C478 C -0.06803 0.34902 0.06792
 C479 C -0.07414 0.33259 0.10539
 H480 H -0.09072 0.19615 0.04049
 H481 H -0.11900 0.13970 0.07653
 H482 H -0.12171 0.20903 0.18032
 H483 H -0.07326 0.26518 0.01552
 H484 H -0.06305 0.33718 0.00680
 H485 H -0.07559 0.35097 0.13031
 C486 C -0.16140 0.74393 -0.11210
 C487 C -0.12417 0.75138 -0.09947
 C488 C -0.10523 0.78704 -0.10649
 C489 C -0.12543 0.81627 -0.12750
 C490 C -0.16424 0.80979 -0.14080
 C491 C -0.18243 0.77289 -0.13219
 O492 O -0.17264 0.70687 -0.10578
 C493 C -0.14184 0.69059 -0.08872
 C494 C -0.11153 0.71675 -0.08387
 C495 C -0.07558 0.70560 -0.06894
 C496 C -0.07027 0.66566 -0.05979
 C497 C -0.10049 0.63800 -0.06599
 C498 C -0.13716 0.65064 -0.07963
 H499 H -0.07558 0.79187 -0.09697
 H500 H -0.11092 0.84418 -0.13316
 H501 H -0.21130 0.76608 -0.14287
 H502 H -0.05210 0.72665 -0.06567
 H503 H -0.04220 0.65594 -0.04913
 H504 H -0.16028 0.62978 -0.08548
 C505 C 0.15861 0.72081 0.13358
 C506 C 0.12104 0.73266 0.12681
 C507 C 0.10703 0.76813 0.13930
 C508 C 0.13230 0.79175 0.16079
 C509 C 0.17063 0.77950 0.16988
 C510 C 0.18435 0.74400 0.15505
 O511 O 0.16524 0.68494 0.12118
 C512 C 0.13105 0.67386 0.10667
 C513 C 0.10296 0.70191 0.10977
 C514 C 0.06426 0.69519 0.09985
 C515 C 0.05408 0.65808 0.08605
 C516 C 0.08258 0.62901 0.08178
 C517 C 0.12171 0.63710 0.09185
 H518 H 0.07724 0.77660 0.13399
 H519 H 0.12150 0.81865 0.17234
 H520 H 0.21303 0.73344 0.16258
 H521 H 0.04251 0.71738 0.10348
 H522 H 0.02407 0.65197 0.07851
 H523 H 0.14379 0.61496 0.08958
 C524 C 0.27890 1.15442 0.84693
 C525 C 0.29994 1.18515 0.86166
 C526 C 0.28991 1.22420 0.85515
 C527 C 0.25678 1.23203 0.83246
 C528 C 0.23372 1.20101 0.81745
 C529 C 0.24522 1.16153 0.82492
 O530 O 0.29427 1.11955 0.85575
 C531 C 0.32563 1.12857 0.87664
 C532 C 0.33009 1.16836 0.88125
 C533 C 0.36035 1.18456 0.90249
 C534 C 0.38716 1.15877 0.91987
 C535 C 0.38380 1.11756 0.91530
 C536 C 0.35258 1.10222 0.89314
 H537 H 0.30735 1.24787 0.86661
 H538 H 0.24937 1.26236 0.82616
 H539 H 0.22857 1.13720 0.81363
 H540 H 0.36311 1.21597 0.90579
 H541 H 0.41086 1.17105 0.93659
 H542 H 0.34912 1.07093 0.88939
 C543 C 0.28209 0.84231 1.15341
 C544 C 0.30393 0.85017 1.18586
 C545 C 0.29230 0.83908 1.22288
 C546 C 0.25621 0.82013 1.22678
 C547 C 0.23164 0.81383 1.19408
 C548 C 0.24552 0.82426 1.15667
 O549 O 0.29878 0.85506 1.12090
 C550 C 0.33159 0.87164 1.13323
 C551 C 0.33586 0.86994 1.17279
 C552 C 0.36700 0.88747 1.19195
 C553 C 0.39507 0.90728 1.16934
 C554 C 0.39200 0.90822 1.12846
 C555 C 0.35985 0.88999 1.11021
 H556 H 0.31027 0.84501 1.24795
 H557 H 0.24697 0.81128 1.25555
 H558 H 0.22785 0.81993 1.13106
 H559 H 0.36939 0.88627 1.22318
 H560 H 0.41961 0.92106 1.18355
 H561 H 0.35674 0.89049 1.07910
 C562 C 0.76679 1.12284 1.09137
 C563 C 0.76666 1.08246 1.09088
 C564 C 0.79617 1.05985 1.10748
 C565 C 0.82667 1.07965 1.12601
 C566 C 0.82766 1.12133 1.12657
 C567 C 0.79781 1.14315 1.10778
 O568 O 0.73331 1.13846 1.08001
 C569 C 0.71151 1.10731 1.07213
 C570 C 0.73083 1.07236 1.07771
 C571 C 0.71275 1.03596 1.07427
 C572 C 0.67290 1.03560 1.06610
 C573 C 0.65193 1.07103 1.06315
 C574 C 0.67165 1.10749 1.06447
 H575 H 0.79460 1.02808 1.10817
 H576 H 0.84911 1.06279 1.14079
 H577 H 0.79693 1.17482 1.10952
 H578 H 0.72847 1.00886 1.07881
 H579 H 0.65798 1.00780 1.06286
 H580 H 0.65603 1.13490 1.06271
 C581 C 0.72013 0.85134 0.87969
 C582 C 0.69945 0.86220 0.84697
 C583 C 0.71533 0.86327 0.81032
 C584 C 0.75446 0.85361 0.80722
 C585 C 0.77735 0.84328 0.84056
 C586 C 0.75914 0.84102 0.87728
 O587 O 0.70025 0.85541 0.91200
 C588 C 0.66639 0.86930 0.89928
 C589 C 0.66456 0.87394 0.85966
 C590 C 0.63337 0.89117 0.84020
 C591 C 0.60294 0.90468 0.86247
 C592 C 0.60406 0.90052 0.90338
 C593 C 0.63596 0.88189 0.92207
 H594 H 0.69848 0.87234 0.78507
 H595 H 0.76723 0.85472 0.77877
 H596 H 0.77556 0.83438 0.90349
 H597 H 0.63303 0.89524 0.80905
 H598 H 0.57878 0.91905 0.84787
 H599 H 0.63800 0.87936 0.95330
   
