data_POSCAR
  _audit_creation_date              2014-09-24
  _audit_creation_method            'ToBaCCo'
  _symmetry_space_group_name_H-M    'P1'
  _symmetry_Int_Tables_number       1
  _symmetry_cell_setting            triclinic
  loop_
  _symmetry_equiv_pos_as_xyz
 x,y,z
_cell_length_a 51.8770
_cell_length_b 51.9970
_cell_length_c 52.1720
_cell_angle_alpha 89.982600
_cell_angle_beta 89.999100
_cell_angle_gamma 90.018400
loop_
  _atom_site_label
  _atom_site_type_symbol
  _atom_site_fract_x
  _atom_site_fract_y
  _atom_site_fract_z
N1 N 0.28059 0.22842 0.20914
 N2 N 0.27020 0.24908 0.19885
 C3 C 0.28449 0.25639 0.17852
 C4 C 0.30473 0.23938 0.17614
 C5 C 0.30176 0.22187 0.19573
 H6 H 0.28061 0.27286 0.16647
 H7 H 0.31418 0.20573 0.20000
 Cu8 Cu 0.23943 0.26463 0.21349
 Cu9 Cu 0.26641 0.21194 0.23958
 Cu10 Cu 0.21170 0.23953 0.26609
 N11 N 0.20866 0.27984 0.22845
 N12 N 0.19791 0.26993 0.24905
 C13 C 0.17745 0.28437 0.25578
 C14 C 0.17542 0.30431 0.23848
 C15 C 0.19539 0.30097 0.22137
 H16 H 0.16516 0.28082 0.27214
 H17 H 0.19999 0.31317 0.20522
 N18 N 0.22846 0.20876 0.28052
 N19 N 0.24925 0.19818 0.27038
 C20 C 0.25630 0.17785 0.28482
 C21 C 0.23915 0.17573 0.30487
 C22 C 0.22175 0.19546 0.30167
 H23 H 0.27278 0.16564 0.28120
 H24 H 0.20558 0.19986 0.31398
 H25 H 0.22887 0.22374 0.23394
 H26 H 0.24956 0.24458 0.25456
 N27 N 0.71867 -0.22890 0.20888
 N28 N 0.72898 -0.24966 0.19872
 C29 C 0.71463 -0.25710 0.17848
 C30 C 0.69443 -0.24007 0.17605
 C31 C 0.69745 -0.22240 0.19548
 H32 H 0.71852 -0.27361 0.16649
 H33 H 0.68512 -0.20615 0.19963
 Cu34 Cu 0.76003 -0.26497 0.21306
 Cu35 Cu 0.73315 -0.21223 0.23906
 Cu36 Cu 0.78787 -0.23981 0.26561
 N37 N 0.79051 -0.28044 0.22837
 N38 N 0.80138 -0.27044 0.24887
 C39 C 0.82182 -0.28493 0.25562
 C40 C 0.82365 -0.30494 0.23842
 C41 C 0.80366 -0.30166 0.22136
 H42 H 0.83424 -0.28127 0.27187
 H43 H 0.79901 -0.31386 0.20523
 N44 N 0.77135 -0.20878 0.27978
 N45 N 0.75055 -0.19821 0.26963
 C46 C 0.74363 -0.17776 0.28395
 C47 C 0.76085 -0.17557 0.30393
 C48 C 0.77817 -0.19537 0.30081
 H49 H 0.72714 -0.16556 0.28036
 H50 H 0.79433 -0.19979 0.31314
 H51 H 0.77074 -0.22415 0.23354
 H52 H 0.75005 -0.24495 0.25420
 N53 N 0.72016 0.22863 0.79080
 N54 N 0.73054 0.24929 0.80107
 C55 C 0.71631 0.25653 0.82146
 C56 C 0.69608 0.23950 0.82387
 C57 C 0.69901 0.22203 0.80425
 H58 H 0.72017 0.27301 0.83350
 H59 H 0.68658 0.20589 0.79998
 Cu60 Cu 0.76120 0.26499 0.78628
 Cu61 Cu 0.73432 0.21227 0.76032
 Cu62 Cu 0.78891 0.23996 0.73363
 N63 N 0.79185 0.28034 0.77115
 N64 N 0.80260 0.27044 0.75054
 C65 C 0.82300 0.28496 0.74373
 C66 C 0.82495 0.30490 0.76101
 C67 C 0.80506 0.30152 0.77818
 H68 H 0.83529 0.28142 0.72735
 H69 H 0.80047 0.31372 0.79433
 N70 N 0.77221 0.20908 0.71932
 N71 N 0.75142 0.19851 0.72948
 C72 C 0.74438 0.17814 0.71511
 C73 C 0.76155 0.17595 0.69509
 C74 C 0.77894 0.19570 0.69823
 H75 H 0.72792 0.16591 0.71875
 H76 H 0.79512 0.20007 0.68591
 H77 H 0.77193 0.22420 0.76581
 H78 H 0.75116 0.24496 0.74519
 N79 N 0.28052 -0.22909 0.79094
 N80 N 0.26942 -0.24898 0.80200
 C81 C 0.28281 -0.25530 0.82322
 C82 C 0.30329 -0.23852 0.82535
 C83 C 0.30135 -0.22213 0.80469
 H84 H 0.27839 -0.27118 0.83588
 H85 H 0.31440 -0.20668 0.79973
 Cu86 Cu 0.23923 -0.26503 0.78664
 Cu87 Cu 0.26822 -0.21494 0.75860
 Cu88 Cu 0.21104 -0.23982 0.73445
 N89 N 0.20907 -0.28106 0.77130
 N90 N 0.19792 -0.27082 0.75103
 C91 C 0.17756 -0.28540 0.74425
 C92 C 0.17603 -0.30570 0.76117
 C93 C 0.19614 -0.30248 0.77812
 H94 H 0.16496 -0.28159 0.72816
 H95 H 0.20094 -0.31481 0.79412
 N96 N 0.22784 -0.20881 0.72036
 N97 N 0.24977 -0.19951 0.72935
 C98 C 0.25676 -0.17902 0.71512
 C99 C 0.23842 -0.17548 0.69636
 C100 C 0.22037 -0.19453 0.70012
 H101 H 0.27402 -0.16772 0.71795
 H102 H 0.20336 -0.19797 0.68864
 H103 H 0.23029 -0.22420 0.76576
 H104 H 0.24834 -0.24669 0.74449
 N105 N 0.72037 -0.22816 0.79142
 N106 N 0.73085 -0.24874 0.80175
 C107 C 0.71681 -0.25588 0.82230
 C108 C 0.69661 -0.23885 0.82475
 C109 C 0.69934 -0.22150 0.80499
 H110 H 0.72079 -0.27228 0.83442
 H111 H 0.68682 -0.20544 0.80068
 Cu112 Cu 0.76133 -0.26442 0.78674
 Cu113 Cu 0.73424 -0.21197 0.76069
 Cu114 Cu 0.78880 -0.23974 0.73393
 N115 N 0.79196 -0.27983 0.77178
 N116 N 0.80264 -0.27003 0.75108
 C117 C 0.82306 -0.28449 0.74434
 C118 C 0.82512 -0.30429 0.76177
 C119 C 0.80526 -0.30090 0.77896
 H120 H 0.83528 -0.28104 0.72789
 H121 H 0.80076 -0.31297 0.79524
 N122 N 0.77189 -0.20908 0.71944
 N123 N 0.75112 -0.19850 0.72961
 C124 C 0.74396 -0.17828 0.71510
 C125 C 0.76103 -0.17622 0.69500
 C126 C 0.77849 -0.19588 0.69821
 H127 H 0.72751 -0.16604 0.71873
 H128 H 0.79465 -0.20026 0.68588
 H129 H 0.75119 -0.24453 0.74570
 H130 H 0.77201 -0.22367 0.76615
 N131 N 0.28041 0.22825 0.79093
 N132 N 0.27004 0.24891 0.80122
 C133 C 0.28434 0.25620 0.82153
 C134 C 0.30458 0.23920 0.82387
 C135 C 0.30161 0.22170 0.80430
 H136 H 0.28050 0.27267 0.83359
 H137 H 0.31403 0.20557 0.80001
 Cu138 Cu 0.23929 0.26453 0.78659
 Cu139 Cu 0.26617 0.21178 0.76060
 Cu140 Cu 0.21148 0.23938 0.73408
 N141 N 0.20855 0.27976 0.77157
 N142 N 0.19779 0.26984 0.75097
 C143 C 0.17737 0.28432 0.74420
 C144 C 0.17538 0.30427 0.76147
 C145 C 0.19530 0.30091 0.77860
 H146 H 0.16507 0.28077 0.72784
 H147 H 0.19989 0.31311 0.79475
 N148 N 0.22815 0.20852 0.71976
 N149 N 0.24895 0.19796 0.72990
 C150 C 0.25594 0.17757 0.71555
 C151 C 0.23876 0.17540 0.69556
 C152 C 0.22138 0.19515 0.69868
 H153 H 0.27241 0.16535 0.71917
 H154 H 0.20520 0.19951 0.68637
 H155 H 0.24932 0.24441 0.74558
 H156 H 0.22862 0.22364 0.76629
 N157 N 0.28081 -0.22788 0.20892
 N158 N 0.27057 -0.24869 0.19881
 C159 C 0.28474 -0.25590 0.17838
 C160 C 0.30477 -0.23870 0.17578
 C161 C 0.30181 -0.22115 0.19531
 H162 H 0.28094 -0.27246 0.16643
 H163 H 0.31412 -0.20488 0.19942
 Cu164 Cu 0.24015 -0.26455 0.21378
 Cu165 Cu 0.26667 -0.21150 0.23940
 Cu166 Cu 0.21202 -0.23924 0.26598
 N167 N 0.20935 -0.27976 0.22862
 N168 N 0.19840 -0.26971 0.24904
 C169 C 0.17785 -0.28408 0.25564
 C170 C 0.17598 -0.30410 0.23845
 C171 C 0.19611 -0.30089 0.22153
 H172 H 0.16534 -0.28041 0.27182
 H173 H 0.20079 -0.31314 0.20545
 N174 N 0.22870 -0.20841 0.28033
 N175 N 0.24953 -0.19784 0.27023
 C176 C 0.25656 -0.17753 0.28468
 C177 C 0.23935 -0.17542 0.30467
 C178 C 0.22195 -0.19512 0.30145
 H179 H 0.27306 -0.16532 0.28112
 H180 H 0.20575 -0.19953 0.31373
 H181 H 0.24984 -0.24401 0.25467
 H182 H 0.22911 -0.22357 0.23371
 N183 N 0.71961 0.22741 0.20851
 N184 N 0.73049 0.24762 0.19783
 C185 C 0.71665 0.25460 0.17709
 C186 C 0.69618 0.23785 0.17488
 C187 C 0.69856 0.22081 0.19496
 H188 H 0.72081 0.27083 0.16481
 H189 H 0.68575 0.20505 0.19953
 Cu190 Cu 0.76060 0.26358 0.21327
 Cu191 Cu 0.73306 0.21153 0.23963
 Cu192 Cu 0.79033 0.23660 0.26344
 N193 N 0.79072 0.27955 0.22872
 N194 N 0.80213 0.26899 0.24864
 C195 C 0.82224 0.28372 0.25575
 C196 C 0.82329 0.30458 0.23946
 C197 C 0.80316 0.30144 0.22251
 H198 H 0.83516 0.27952 0.27148
 H199 H 0.79810 0.31410 0.20686
 N200 N 0.77194 0.20768 0.27969
 N201 N 0.75004 0.19826 0.27077
 C202 C 0.74224 0.17893 0.28614
 C203 C 0.76004 0.17627 0.30555
 C204 C 0.77860 0.19465 0.30101
 H205 H 0.72502 0.16754 0.28340
 H206 H 0.79565 0.19822 0.31240
 H207 H 0.75226 0.24326 0.25430
 H208 H 0.77027 0.22165 0.23205
 C209 C 0.23912 0.02328 0.44606
 C210 C 0.23911 -0.00009 0.43293
 C211 C 0.23916 -0.02349 0.44601
 C212 C 0.23923 -0.02383 0.47308
 C213 C 0.23922 -0.00019 0.48669
 C214 C 0.23917 0.02350 0.47314
 C215 C 0.23917 0.04668 0.48700
 C216 C 0.23922 0.04662 0.51371
 C217 C 0.23928 0.02338 0.52750
 C218 C 0.23929 -0.00026 0.51389
 C219 C 0.23930 -0.04707 0.48687
 C220 C 0.23938 -0.04713 0.51358
 C221 C 0.23938 -0.02395 0.52744
 C222 C 0.23946 -0.02372 0.55452
 C223 C 0.23942 -0.00035 0.56765
 C224 C 0.23934 0.02305 0.55456
 H225 H 0.23913 0.06507 0.47727
 H226 H 0.23921 0.06498 0.52350
 H227 H 0.23931 -0.06543 0.47708
 H228 H 0.23944 -0.06553 0.52331
 H229 H 0.23908 -0.00006 0.41211
 H230 H 0.23946 -0.00038 0.58847
 C231 C 0.76058 0.02326 0.55418
 C232 C 0.76058 -0.00010 0.56735
 C233 C 0.76057 -0.02352 0.55430
 C234 C 0.76055 -0.02388 0.52723
 C235 C 0.76059 -0.00025 0.51358
 C236 C 0.76061 0.02346 0.52710
 C237 C 0.76065 0.04662 0.51320
 C238 C 0.76070 0.04653 0.48649
 C239 C 0.76069 0.02328 0.47273
 C240 C 0.76061 -0.00034 0.48638
 C241 C 0.76050 -0.04713 0.51348
 C242 C 0.76049 -0.04722 0.48676
 C243 C 0.76055 -0.02405 0.47286
 C244 C 0.76057 -0.02385 0.44578
 C245 C 0.76067 -0.00049 0.43261
 C246 C 0.76074 0.02292 0.44566
 H247 H 0.76066 0.06503 0.52290
 H248 H 0.76075 0.06488 0.47667
 H249 H 0.76046 -0.06548 0.52330
 H250 H 0.76043 -0.06562 0.47706
 H251 H 0.76058 -0.00005 0.58817
 H252 H 0.76068 -0.00054 0.41180
 C253 C 0.44551 0.23979 0.02317
 C254 C 0.43229 0.23981 -0.00011
 C255 C 0.44544 0.23978 -0.02343
 C256 C 0.47266 0.23973 -0.02377
 C257 C 0.48636 0.23971 -0.00022
 C258 C 0.47274 0.23974 0.02340
 C259 C 0.48668 0.23971 0.04650
 C260 C 0.51354 0.23972 0.04644
 C261 C 0.52740 0.23975 0.02327
 C262 C 0.51371 0.23970 -0.00029
 C263 C 0.48652 0.23971 -0.04694
 C264 C 0.51338 0.23968 -0.04701
 C265 C 0.52733 0.23969 -0.02391
 C266 C 0.55457 0.23971 -0.02368
 C267 C 0.56778 0.23977 -0.00039
 C268 C 0.55461 0.23983 0.02293
 H269 H 0.47690 0.23969 0.06483
 H270 H 0.52339 0.23971 0.06473
 H271 H 0.47666 0.23972 -0.06523
 H272 H 0.52316 0.23967 -0.06534
 H273 H 0.41135 0.23986 -0.00007
 H274 H 0.58871 0.23980 -0.00041
 C275 C 0.44601 0.76016 -0.02339
 C276 C 0.43278 0.76010 -0.00011
 C277 C 0.44592 0.76016 0.02323
 C278 C 0.47314 0.76030 0.02358
 C279 C 0.48685 0.76036 0.00003
 C280 C 0.47324 0.76029 -0.02360
 C281 C 0.48721 0.76034 -0.04669
 C282 C 0.51407 0.76043 -0.04661
 C283 C 0.52792 0.76048 -0.02344
 C284 C 0.51421 0.76048 0.00011
 C285 C 0.48699 0.76038 0.04675
 C286 C 0.51386 0.76050 0.04683
 C287 C 0.52782 0.76054 0.02374
 C288 C 0.55506 0.76062 0.02353
 C289 C 0.56828 0.76062 0.00024
 C290 C 0.55514 0.76051 -0.02309
 H291 H 0.47743 0.76030 -0.06503
 H292 H 0.52394 0.76045 -0.06490
 H293 H 0.47712 0.76033 0.06504
 H294 H 0.52363 0.76055 0.06517
 H295 H 0.41184 0.76000 -0.00016
 H296 H 0.58922 0.76065 0.00028
 C297 C 0.02309 0.44626 0.23848
 C298 C -0.00030 0.43299 0.23844
 C299 C -0.02380 0.44604 0.23845
 C300 C -0.02420 0.47320 0.23850
 C301 C -0.00054 0.48694 0.23853
 C302 C 0.02324 0.47343 0.23854
 C303 C 0.04644 0.48741 0.23860
 C304 C 0.04631 0.51421 0.23862
 C305 C 0.02298 0.52797 0.23857
 C306 C -0.00067 0.51423 0.23854
 C307 C -0.04753 0.48697 0.23851
 C308 C -0.04765 0.51377 0.23850
 C309 C -0.02445 0.52775 0.23849
 C310 C -0.02430 0.55492 0.23842
 C311 C -0.00091 0.56818 0.23846
 C312 C 0.02258 0.55512 0.23854
 H313 H 0.06491 0.47771 0.23863
 H314 H 0.06469 0.52409 0.23867
 H315 H -0.06591 0.47709 0.23852
 H316 H -0.06612 0.52347 0.23850
 H317 H -0.00021 0.41211 0.23841
 H318 H -0.00100 0.58907 0.23842
 C319 C -0.02369 0.55496 0.76131
 C320 C -0.00022 0.56808 0.76138
 C321 C 0.02319 0.55487 0.76141
 C322 C 0.02339 0.52771 0.76135
 C323 C -0.00037 0.51413 0.76130
 C324 C -0.02405 0.52781 0.76128
 C325 C -0.04736 0.51400 0.76124
 C326 C -0.04744 0.48720 0.76125
 C327 C -0.02421 0.47328 0.76129
 C328 C -0.00045 0.48685 0.76130
 C329 C 0.04661 0.51378 0.76133
 C330 C 0.04653 0.48698 0.76130
 C331 C 0.02323 0.47316 0.76130
 C332 C 0.02287 0.44600 0.76132
 C333 C -0.00061 0.43290 0.76135
 C334 C -0.02401 0.44612 0.76133
 H335 H -0.06575 0.52384 0.76120
 H336 H -0.06589 0.47746 0.76123
 H337 H 0.06506 0.52352 0.76133
 H338 H 0.06492 0.47714 0.76129
 H339 H -0.00018 0.58897 0.76141
 H340 H -0.00067 0.41202 0.76137
 C341 C 0.40052 0.22729 0.11188
 C342 C 0.38893 0.25167 0.12458
 C343 C 0.36187 0.23997 0.12170
 C344 C 0.37313 0.21561 0.10937
 C345 C 0.39716 0.23998 0.08550
 C346 C 0.37009 0.22829 0.08270
 C347 C 0.38590 0.26433 0.09784
 C348 C 0.35856 0.25263 0.09531
 C349 C 0.34172 0.23994 0.14137
 C350 C 0.32488 0.23979 0.15728
 C351 C 0.41588 0.23994 0.06449
 C352 C 0.43011 0.23988 0.04624
 H353 H 0.41800 0.21690 0.11844
 H354 H 0.39643 0.26127 0.14205
 H355 H 0.36767 0.19557 0.11429
 H356 H 0.36254 0.21867 0.06525
 H357 H 0.39136 0.28437 0.09290
 H358 H 0.34109 0.26302 0.08870
 C359 C 0.59771 0.75667 0.11449
 C360 C 0.62025 0.73717 0.11640
 C361 C 0.63880 0.75950 0.12208
 C362 C 0.61660 0.77900 0.12052
 C363 C 0.60354 0.76005 0.08582
 C364 C 0.62211 0.78236 0.09153
 C365 C 0.62576 0.74057 0.08741
 C366 C 0.64457 0.76287 0.09340
 C367 C 0.65881 0.75941 0.14192
 C368 C 0.67550 0.75956 0.15801
 C369 C 0.58477 0.76033 0.06482
 C370 C 0.57049 0.76050 0.04660
 H371 H 0.57824 0.75415 0.12294
 H372 H 0.61974 0.71855 0.12680
 H373 H 0.61309 0.79482 0.13437
 H374 H 0.62267 0.80098 0.08111
 H375 H 0.62930 0.72475 0.07356
 H376 H 0.66403 0.76539 0.08490
 C377 C 0.62914 0.22596 -0.08395
 C378 C 0.62539 0.21586 -0.11161
 C379 C 0.63874 0.24019 -0.12181
 C380 C 0.64275 0.25027 -0.09443
 C381 C 0.60313 0.23997 -0.08589
 C382 C 0.61648 0.26429 -0.09609
 C383 C 0.59906 0.22987 -0.11326
 C384 C 0.61275 0.25422 -0.12381
 C385 C 0.65901 0.24016 -0.14139
 C386 C 0.67590 0.23996 -0.15727
 C387 C 0.58428 0.23984 -0.06497
 C388 C 0.56999 0.23976 -0.04675
 H389 H 0.63568 0.21430 -0.06735
 H390 H 0.62932 0.19595 -0.11819
 H391 H 0.66089 0.25865 -0.08684
 H392 H 0.61256 0.28421 -0.08951
 H393 H 0.58090 0.22150 -0.12080
 H394 H 0.60625 0.26588 -0.14043
 C395 C 0.39261 0.73829 -0.10463
 C396 C 0.36326 0.74015 -0.09943
 C397 C 0.36101 0.76041 -0.12076
 C398 C 0.39006 0.75855 -0.12632
 C399 C 0.39715 0.76016 -0.08535
 C400 C 0.39493 0.78042 -0.10667
 C401 C 0.36809 0.76200 -0.07988
 C402 C 0.36559 0.78225 -0.10146
 C403 C 0.34048 0.76069 -0.14006
 C404 C 0.32347 0.76102 -0.15579
 C405 C 0.41620 0.76011 -0.06461
 C406 C 0.43057 0.76012 -0.04646
 H407 H 0.40398 0.72024 -0.10575
 H408 H 0.35003 0.72361 -0.09660
 H409 H 0.39883 0.75712 -0.14567
 H410 H 0.40819 0.79694 -0.10949
 H411 H 0.35926 0.76342 -0.06055
 H412 H 0.35424 0.80031 -0.10033
 C413 C 0.09619 0.38460 0.21449
 C414 C 0.12396 0.38808 0.22489
 C415 C 0.12154 0.36215 0.23884
 C416 C 0.09409 0.35841 0.22844
 C417 C 0.08575 0.39799 0.23860
 C418 C 0.08339 0.37206 0.25254
 C419 C 0.11318 0.40181 0.24903
 C420 C 0.11111 0.37554 0.26297
 C421 C 0.14101 0.34174 0.23879
 C422 C 0.15676 0.32471 0.23866
 C423 C 0.06474 0.41681 0.23851
 C424 C 0.04635 0.43098 0.23848
 H425 H 0.08992 0.38857 0.19453
 H426 H 0.14093 0.39436 0.21353
 H427 H 0.08637 0.34038 0.22004
 H428 H 0.06646 0.36574 0.26393
 H429 H 0.12083 0.41987 0.25743
 H430 H 0.11738 0.37158 0.28292
 C431 C 0.08396 0.62911 0.74807
 C432 C 0.09522 0.64220 0.77222
 C433 C 0.12246 0.63815 0.76141
 C434 C 0.11147 0.62531 0.73724
 C435 C 0.08604 0.60293 0.76159
 C436 C 0.11325 0.59881 0.75076
 C437 C 0.09702 0.61576 0.78576
 C438 C 0.12460 0.61198 0.77495
 C439 C 0.14226 0.65826 0.76130
 C440 C 0.15821 0.67512 0.76122
 C441 C 0.06484 0.58432 0.76159
 C442 C 0.04641 0.57020 0.76152
 H443 H 0.06701 0.63593 0.73700
 H444 H 0.08796 0.66023 0.78103
 H445 H 0.11759 0.62946 0.71727
 H446 H 0.12044 0.58074 0.74198
 H447 H 0.09089 0.61160 0.80572
 H448 H 0.14156 0.60519 0.78602
 C449 C -0.11025 0.60328 0.25635
 C450 C -0.10572 0.63233 0.26125
 C451 C -0.12308 0.63865 0.23824
 C452 C -0.12798 0.60992 0.23332
 C453 C -0.08699 0.60312 0.23813
 C454 C -0.10434 0.60942 0.21511
 C455 C -0.08218 0.63187 0.24304
 C456 C -0.09981 0.63845 0.22005
 C457 C -0.14271 0.65892 0.23833
 C458 C -0.15857 0.67585 0.23839
 C459 C -0.06592 0.58438 0.23818
 C460 C -0.04754 0.57021 0.23828
 H461 H -0.11436 0.58858 0.27123
 H462 H -0.10643 0.64198 0.28021
 H463 H -0.14708 0.60117 0.22931
 H464 H -0.10360 0.59976 0.19615
 H465 H -0.06310 0.64067 0.24704
 H466 H -0.09566 0.65312 0.20514
 C467 C -0.11154 0.39908 0.74559
 C468 C -0.10742 0.37081 0.73712
 C469 C -0.12222 0.36174 0.76098
 C470 C -0.12670 0.38968 0.76947
 C471 C -0.08649 0.39765 0.76122
 C472 C -0.10128 0.38859 0.78508
 C473 C -0.08209 0.36969 0.75274
 C474 C -0.09715 0.36036 0.77658
 C475 C -0.14166 0.34128 0.76091
 C476 C -0.15739 0.32422 0.76092
 C477 C -0.06554 0.41653 0.76130
 C478 C -0.04722 0.43077 0.76132
 H479 H -0.11726 0.41524 0.73290
 H480 H -0.11010 0.36326 0.71740
 H481 H -0.14531 0.39763 0.77636
 H482 H -0.09859 0.39616 0.80479
 H483 H -0.06350 0.36169 0.74584
 H484 H -0.09138 0.34424 0.78929
 C485 C 0.26246 0.09191 0.38045
 C486 C 0.24410 0.09293 0.35710
 C487 C 0.23957 0.12165 0.36228
 C488 C 0.25795 0.12095 0.38537
 C489 C 0.23932 0.08569 0.39777
 C490 C 0.23478 0.11440 0.40303
 C491 C 0.22097 0.08645 0.37466
 C492 C 0.21641 0.11546 0.37959
 C493 C 0.23958 0.14120 0.34203
 C494 C 0.23946 0.15700 0.32512
 C495 C 0.23921 0.06471 0.41653
 C496 C 0.23915 0.04643 0.43073
 H497 H 0.28141 0.08202 0.38106
 H498 H 0.24794 0.08426 0.33804
 H499 H 0.27318 0.13536 0.38953
 H500 H 0.23094 0.12300 0.42212
 H501 H 0.20573 0.07206 0.37048
 H502 H 0.19747 0.12535 0.37898
 C503 C 0.76448 0.08079 0.63117
 C504 C 0.78353 0.10367 0.63225
 C505 C 0.76079 0.12175 0.63782
 C506 C 0.74175 0.09914 0.63699
 C507 C 0.76064 0.08575 0.60237
 C508 C 0.73789 0.10381 0.60792
 C509 C 0.77971 0.10834 0.60316
 C510 C 0.75695 0.12678 0.60903
 C511 C 0.76097 0.14134 0.65802
 C512 C 0.76119 0.15718 0.67488
 C513 C 0.76060 0.06474 0.58365
 C514 C 0.76059 0.04643 0.56948
 H515 H 0.76759 0.06165 0.64007
 H516 H 0.80229 0.10377 0.64249
 H517 H 0.72615 0.09550 0.65111
 H518 H 0.71914 0.10370 0.59766
 H519 H 0.79529 0.11195 0.58903
 H520 H 0.75385 0.14595 0.60019
 C521 C 0.23656 -0.08051 0.63186
 C522 C 0.21687 -0.10278 0.63372
 C523 C 0.23919 -0.12146 0.63893
 C524 C 0.25888 -0.09945 0.63733
 C525 C 0.23949 -0.08592 0.60304
 C526 C 0.26184 -0.10458 0.60823
 C527 C 0.21978 -0.10792 0.60461
 C528 C 0.24213 -0.12695 0.61013
 C529 C 0.23895 -0.14086 0.65931
 C530 C 0.23871 -0.15665 0.67623
 C531 C 0.23955 -0.06509 0.58413
 C532 C 0.23953 -0.04685 0.56986
 H533 H 0.23427 -0.06117 0.64056
 H534 H 0.19839 -0.10218 0.64444
 H535 H 0.27494 -0.09612 0.65100
 H536 H 0.28030 -0.10517 0.59749
 H537 H 0.20374 -0.11123 0.59092
 H538 H 0.24442 -0.14632 0.60149
 C539 C 0.74622 -0.08388 0.37156
 C540 C 0.77050 -0.09437 0.35790
 C541 C 0.76025 -0.12183 0.36162
 C542 C 0.73595 -0.11162 0.37504
 C543 C 0.76032 -0.08615 0.39738
 C544 C 0.75004 -0.11360 0.40118
 C545 C 0.78460 -0.09638 0.38397
 C546 C 0.77435 -0.12417 0.38743
 C547 C 0.76033 -0.14121 0.34124
 C548 C 0.76050 -0.15691 0.32424
 C549 C 0.76039 -0.06527 0.41624
 C550 C 0.76046 -0.04701 0.43047
 H551 H 0.73463 -0.06708 0.36526
 H552 H 0.77889 -0.08662 0.33991
 H553 H 0.71593 -0.11806 0.37112
 H554 H 0.74166 -0.12129 0.41920
 H555 H 0.80462 -0.08994 0.38789
 H556 H 0.78593 -0.14098 0.39370
 C557 C 0.63071 0.74829 -0.08215
 C558 C 0.62788 0.73563 -0.10885
 C559 C 0.63929 0.75999 -0.12106
 C560 C 0.64238 0.77263 -0.09464
 C561 C 0.60369 0.76001 -0.08519
 C562 C 0.61511 0.78436 -0.09741
 C563 C 0.60053 0.74735 -0.11160
 C564 C 0.61228 0.77172 -0.12417
 C565 C 0.65955 0.76021 -0.14060
 C566 C 0.67644 0.76056 -0.15643
 C567 C 0.58487 0.76015 -0.06429
 C568 C 0.57060 0.76032 -0.04609
 H569 H 0.63806 0.73862 -0.06463
 H570 H 0.63338 0.71560 -0.11375
 H571 H 0.65980 0.78299 -0.08785
 H572 H 0.60961 0.80440 -0.09252
 H573 H 0.58309 0.73698 -0.11833
 H574 H 0.60496 0.78136 -0.14171
 C575 C 0.39178 0.21728 -0.10378
 C576 C 0.36249 0.22086 -0.09930
 C577 C 0.36167 0.23998 -0.12173
 C578 C 0.39068 0.23641 -0.12656
 C579 C 0.39703 0.23992 -0.08562
 C580 C 0.39625 0.25907 -0.10803
 C581 C 0.36802 0.24348 -0.08085
 C582 C 0.36694 0.26261 -0.10355
 C583 C 0.34154 0.23988 -0.14138
 C584 C 0.32472 0.23966 -0.15729
 C585 C 0.41576 0.23987 -0.06466
 C586 C 0.42999 0.23982 -0.04643
 H587 H 0.40224 0.19865 -0.10367
 H588 H 0.34838 0.20517 -0.09588
 H589 H 0.39973 0.23351 -0.14562
 H590 H 0.41039 0.27475 -0.11139
 H591 H 0.35892 0.24638 -0.06181
 H592 H 0.35649 0.28124 -0.10363
 C593 C 0.40324 0.76163 0.11424
 C594 C 0.38157 0.78199 0.11706
 C595 C 0.36201 0.76023 0.12147
 C596 C 0.38333 0.73987 0.11901
 C597 C 0.39743 0.76006 0.08541
 C598 C 0.37788 0.73832 0.08985
 C599 C 0.37610 0.78040 0.08793
 C600 C 0.35629 0.75866 0.09264
 C601 C 0.34179 0.76047 0.14106
 C602 C 0.32492 0.76079 0.15693
 C603 C 0.41619 0.76005 0.06446
 C604 C 0.43045 0.76008 0.04623
 H605 H 0.42275 0.76285 0.12287
 H606 H 0.38284 0.79996 0.12848
 H607 H 0.38605 0.72319 0.13202
 H608 H 0.37660 0.72034 0.07845
 H609 H 0.37336 0.79709 0.07494
 H610 H 0.33680 0.75744 0.08394
 C611 C 0.59743 0.23682 0.11388
 C612 C 0.62003 0.21737 0.11558
 C613 C 0.63859 0.23974 0.12102
 C614 C 0.61635 0.25920 0.11968
 C615 C 0.60299 0.24013 0.08515
 C616 C 0.62155 0.26251 0.09061
 C617 C 0.62525 0.22071 0.08656
 C618 C 0.64406 0.24306 0.09229
 C619 C 0.65893 0.23923 0.14046
 C620 C 0.67591 0.23864 0.15618
 C621 C 0.58424 0.24014 0.06421
 C622 C 0.57004 0.24002 0.04595
 H623 H 0.57804 0.23428 0.12251
 H624 H 0.61966 0.19880 0.12609
 H625 H 0.61295 0.27506 0.13352
 H626 H 0.62190 0.28109 0.08013
 H627 H 0.62869 0.20485 0.07274
 H628 H 0.66342 0.24565 0.08359
 C629 C -0.10598 0.60704 0.78293
 C630 C -0.10099 0.63639 0.78188
 C631 C -0.12212 0.63894 0.76143
 C632 C -0.12749 0.60989 0.76246
 C633 C -0.08621 0.60328 0.76134
 C634 C -0.10733 0.60579 0.74087
 C635 C -0.08095 0.63235 0.76031
 C636 C -0.10234 0.63515 0.73986
 C637 C -0.14158 0.65932 0.76153
 C638 C -0.15728 0.67638 0.76165
 C639 C -0.06518 0.58453 0.76132
 C640 C -0.04683 0.57036 0.76131
 H641 H -0.10730 0.59523 0.80061
 H642 H -0.09856 0.64921 0.79872
 H643 H -0.14690 0.60094 0.76333
 H644 H -0.10974 0.59293 0.72405
 H645 H -0.06156 0.64135 0.75943
 H646 H -0.10101 0.64692 0.72215
 C647 C -0.11171 0.39940 0.22339
 C648 C -0.10808 0.37098 0.21518
 C649 C -0.12273 0.36237 0.23929
 C650 C -0.12674 0.39046 0.24753
 C651 C -0.08650 0.39777 0.23874
 C652 C -0.10115 0.38918 0.26286
 C653 C -0.08258 0.36967 0.23052
 C654 C -0.09750 0.36081 0.25462
 C655 C -0.14233 0.34207 0.23954
 C656 C -0.15810 0.32505 0.23960
 C657 C -0.06534 0.41643 0.23854
 C658 C -0.04695 0.43059 0.23847
 H659 H -0.11734 0.41548 0.21056
 H660 H -0.11112 0.36326 0.19558
 H661 H -0.14514 0.39877 0.25454
 H662 H -0.09812 0.39694 0.28245
 H663 H -0.06420 0.36133 0.22347
 H664 H -0.09181 0.34476 0.26746
 C665 C 0.09650 0.38506 0.73701
 C666 C 0.12398 0.38836 0.74822
 C667 C 0.12138 0.36197 0.76126
 C668 C 0.09424 0.35840 0.75005
 C669 C 0.08535 0.39756 0.76127
 C670 C 0.08282 0.37117 0.77429
 C671 C 0.11247 0.40121 0.77251
 C672 C 0.11023 0.37449 0.78552
 C673 C 0.14092 0.34165 0.76129
 C674 C 0.15670 0.32465 0.76136
 C675 C 0.06433 0.41634 0.76129
 C676 C 0.04601 0.43057 0.76131
 H677 H 0.09066 0.38967 0.71706
 H678 H 0.14115 0.39518 0.73749
 H679 H 0.08690 0.34061 0.74082
 H680 H 0.06567 0.36432 0.78504
 H681 H 0.11974 0.41904 0.78172
 H682 H 0.11607 0.36990 0.80548
 C683 C 0.08609 0.62655 0.22035
 C684 C 0.09293 0.64403 0.24335
 C685 C 0.12162 0.63857 0.23859
 C686 C 0.11508 0.62133 0.21558
 C687 C 0.08526 0.60333 0.23855
 C688 C 0.11394 0.59778 0.23379
 C689 C 0.09182 0.62056 0.26156
 C690 C 0.12085 0.61536 0.25682
 C691 C 0.14133 0.65873 0.23852
 C692 C 0.15722 0.67562 0.23846
 C693 C 0.06409 0.58471 0.23855
 C694 C 0.04571 0.57056 0.23855
 H695 H 0.07159 0.63092 0.20532
 H696 H 0.08446 0.66323 0.24729
 H697 H 0.12488 0.62192 0.19667
 H698 H 0.12235 0.57855 0.22987
 H699 H 0.08205 0.61998 0.28048
 H700 H 0.13537 0.61102 0.27184
 C701 C 0.75777 -0.08099 0.63136
 C702 C 0.73815 -0.10334 0.63296
 C703 C 0.76054 -0.12204 0.63780
 C704 C 0.78017 -0.09995 0.63646
 C705 C 0.76061 -0.08596 0.60247
 C706 C 0.78303 -0.10464 0.60728
 C707 C 0.74097 -0.10803 0.60376
 C708 C 0.76339 -0.12708 0.60891
 C709 C 0.76058 -0.14165 0.65794
 C710 C 0.76072 -0.15749 0.67479
 C711 C 0.76062 -0.06492 0.58382
 C712 C 0.76060 -0.04661 0.56967
 H713 H 0.75547 -0.06179 0.64038
 H714 H 0.71971 -0.10297 0.64375
 H715 H 0.79626 -0.09680 0.65013
 H716 H 0.80146 -0.10498 0.59648
 H717 H 0.72490 -0.11115 0.59007
 H718 H 0.76571 -0.14631 0.59996
 C719 C 0.22468 -0.08401 0.37220
 C720 C 0.24896 -0.09380 0.35803
 C721 C 0.23966 -0.12154 0.36210
 C722 C 0.21536 -0.11204 0.37601
 C723 C 0.23941 -0.08575 0.39769
 C724 C 0.23009 -0.11348 0.40184
 C725 C 0.26370 -0.09527 0.38378
 C726 C 0.25441 -0.12335 0.38758
 C727 C 0.23971 -0.14101 0.34184
 C728 C 0.23963 -0.15676 0.32492
 C729 C 0.23929 -0.06483 0.41645
 C730 C 0.23921 -0.04657 0.43065
 H731 H 0.21241 -0.06763 0.36609
 H732 H 0.25670 -0.08588 0.33983
 H733 H 0.19548 -0.11915 0.37255
 H734 H 0.22235 -0.12134 0.42006
 H735 H 0.28358 -0.08817 0.38724
 H736 H 0.26666 -0.13976 0.39364
 C737 C 0.73656 0.10119 0.39024
 C738 C 0.75309 0.12604 0.39100
 C739 C 0.75998 0.12193 0.36265
 C740 C 0.74347 0.09743 0.36160
 C741 C 0.76052 0.08552 0.39766
 C742 C 0.76741 0.08148 0.36930
 C743 C 0.77707 0.11000 0.39875
 C744 C 0.78394 0.10624 0.37008
 C745 C 0.75979 0.14170 0.34264
 C746 C 0.75980 0.15760 0.32584
 C747 C 0.76071 0.06437 0.41619
 C748 C 0.76076 0.04602 0.43029
 H749 H 0.71711 0.09890 0.39879
 H750 H 0.74718 0.14462 0.39968
 H751 H 0.72965 0.09241 0.34614
 H752 H 0.77334 0.06292 0.36059
 H753 H 0.79088 0.11494 0.41424
 H754 H 0.80341 0.10851 0.36154
 C755 C 0.24316 0.08044 0.63153
 C756 C 0.26218 0.10333 0.63269
 C757 C 0.23941 0.12136 0.63823
 C758 C 0.22039 0.09874 0.63733
 C759 C 0.23936 0.08545 0.60275
 C760 C 0.21658 0.10347 0.60827
 C761 C 0.25841 0.10805 0.60360
 C762 C 0.23561 0.12645 0.60945
 C763 C 0.23930 0.14089 0.65845
 C764 C 0.23910 0.15668 0.67534
 C765 C 0.23934 0.06446 0.58406
 C766 C 0.23933 0.04616 0.56991
 H767 H 0.24626 0.06127 0.64039
 H768 H 0.28093 0.10343 0.64295
 H769 H 0.20478 0.09506 0.65142
 H770 H 0.19785 0.10335 0.59798
 H771 H 0.27399 0.11168 0.58947
 H772 H 0.23252 0.14564 0.60065
   
