data_POSCAR
  _audit_creation_date              2014-09-24
  _audit_creation_method            'ToBaCCo'
  _symmetry_space_group_name_H-M    'P1'
  _symmetry_Int_Tables_number       1
  _symmetry_cell_setting            triclinic
  loop_
  _symmetry_equiv_pos_as_xyz
 x,y,z
_cell_length_a 42.7197
_cell_length_b 42.6246
_cell_length_c 42.5832
_cell_angle_alpha 89.730000
_cell_angle_beta 90.153100
_cell_angle_gamma 90.275600
loop_
  _atom_site_label
  _atom_site_type_symbol
  _atom_site_fract_x
  _atom_site_fract_y
  _atom_site_fract_z
C1 C 0.20341 0.52313 1.03828
 H2 H 0.20186 0.54073 1.01996
 C3 C 0.18339 0.52447 1.06407
 H4 H 0.16635 0.54310 1.06439
 C5 C 0.22628 0.47645 1.05765
 H6 H 0.24283 0.45759 1.05488
 C7 C 0.20674 0.47684 1.08390
 H8 H 0.20962 0.45856 1.10133
 N9 N 0.22436 0.49947 1.03558
 C10 C 0.29957 0.53156 0.97458
 H11 H 0.29968 0.51247 0.95793
 C12 C 0.32243 0.55496 0.97285
 H13 H 0.34013 0.55397 0.95472
 C14 C 0.27685 0.55573 1.01903
 H15 H 0.25946 0.55556 1.03738
 C16 C 0.29915 0.57982 1.01795
 H17 H 0.29886 0.59795 1.03563
 Zn18 Zn 0.24872 0.49838 0.99858
 N19 N 0.27733 0.53237 0.99734
 C20 C 0.22442 0.52295 0.94137
 N21 N 0.22075 0.50075 0.96414
 C22 C 0.19566 0.48101 0.96418
 C23 C 0.17269 0.48349 0.94093
 C24 C 0.20220 0.52600 0.91747
 C25 C 0.29664 0.45839 1.01770
 C26 C 0.31736 0.43327 1.01561
 C27 C 0.28789 0.41402 0.97110
 C28 C 0.26778 0.43961 0.97392
 N29 N 0.27262 0.46124 0.99686
 H30 H 0.24422 0.53878 0.94202
 H31 H 0.19320 0.46375 0.98273
 H32 H 0.15276 0.46771 0.94147
 H33 H 0.20519 0.54416 0.89984
 H34 H 0.30016 0.47616 1.03544
 H35 H 0.33666 0.43145 1.03204
 H36 H 0.28433 0.39724 0.95238
 H37 H 0.24889 0.44260 0.95728
 C38 C 0.32222 0.57948 0.99463
 C39 C 0.18457 0.50102 1.08761
 C40 C 0.31323 0.41108 0.99181
 C41 C 0.17566 0.50645 0.91736
 C42 C 0.80029 0.52035 -0.03196
 H43 H 0.80295 0.53730 -0.01329
 C44 C 0.82062 0.52106 -0.05755
 H45 H 0.83910 0.53850 -0.05816
 C46 C 0.77360 0.47630 -0.05293
 H47 H 0.75548 0.45867 -0.05091
 C48 C 0.79336 0.47620 -0.07899
 H49 H 0.78983 0.45871 -0.09702
 N50 N 0.77713 0.49843 -0.03027
 C51 C 0.70149 0.53644 0.02601
 H52 H 0.69900 0.51814 0.04353
 C53 C 0.68001 0.56102 0.02480
 H54 H 0.66115 0.56186 0.04168
 C55 C 0.72865 0.55726 -0.01797
 H56 H 0.74712 0.55535 -0.03508
 C57 C 0.70787 0.58238 -0.01981
 H58 H 0.71055 0.59978 -0.03824
 Zn59 Zn 0.75081 0.49888 0.00541
 N60 N 0.72508 0.53488 0.00467
 C61 C 0.77431 0.52128 0.06375
 N62 N 0.77686 0.49880 0.04136
 C63 C 0.79945 0.47651 0.04305
 C64 C 0.82053 0.47608 0.06813
 C65 C 0.79484 0.52165 0.08934
 C66 C 0.70126 0.46252 -0.01707
 C67 C 0.68014 0.43748 -0.01823
 C68 C 0.70576 0.41488 0.02712
 C69 C 0.72637 0.44044 0.02745
 N70 N 0.72396 0.46343 0.00534
 H71 H 0.75654 0.53912 0.06171
 H72 H 0.80132 0.45929 0.02457
 H73 H 0.83873 0.45851 0.06853
 H74 H 0.79226 0.53958 0.10706
 H75 H 0.69950 0.48144 -0.03400
 H76 H 0.66200 0.43757 -0.03601
 H77 H 0.70830 0.39660 0.04466
 H78 H 0.74420 0.44187 0.04542
 C79 C 0.68301 0.58407 0.00145
 C80 C 0.81719 0.49889 -0.08166
 C81 C 0.68230 0.41309 0.00397
 C82 C 0.81840 0.49887 0.09178
 C83 C -0.01901 0.30239 0.47082
 H84 H -0.03490 0.30381 0.49050
 C85 C -0.02102 0.32418 0.44641
 H86 H -0.03920 0.34169 0.44765
 C87 C 0.02297 0.27674 0.44571
 H88 H 0.04042 0.25849 0.44582
 C89 C 0.02165 0.29791 0.42056
 H90 H 0.03882 0.29555 0.40215
 N91 N 0.00252 0.27912 0.46995
 C92 C -0.03454 0.20100 0.52446
 H93 H -0.01582 0.19788 0.54134
 C94 C -0.05956 0.17985 0.52377
 H95 H -0.05966 0.16030 0.54002
 C96 C -0.05582 0.22928 0.48145
 H97 H -0.05403 0.24824 0.46464
 C98 C -0.08133 0.20872 0.48001
 H99 H -0.09926 0.21252 0.46240
 Zn100 Zn 0.00301 0.25098 0.50437
 N101 N -0.03312 0.22515 0.50353
 C102 C -0.01832 0.27156 0.56391
 N103 N 0.00406 0.27517 0.54152
 C104 C 0.02694 0.29727 0.54435
 C105 C 0.02816 0.31661 0.57071
 C106 C -0.01796 0.29035 0.59067
 C107 C 0.03822 0.20218 0.47939
 C108 C 0.06151 0.17936 0.47865
 C109 C 0.08426 0.20216 0.52530
 C110 C 0.06042 0.22447 0.52523
 N111 N 0.03794 0.22399 0.50257
 H112 H -0.03666 0.25430 0.56098
 H113 H 0.04410 0.30005 0.52589
 H114 H 0.04624 0.33442 0.57213
 H115 H -0.03585 0.28691 0.60833
 H116 H 0.01973 0.20198 0.46198
 H117 H 0.06069 0.16166 0.46050
 H118 H 0.10192 0.20306 0.54355
 H119 H 0.05956 0.24168 0.54374
 C120 C -0.08337 0.18351 0.50128
 C121 C -0.00068 0.32225 0.42041
 C122 C 0.08472 0.17881 0.50210
 C123 C 0.00549 0.31328 0.59437
 C124 C 0.96837 0.70326 0.53536
 H125 H 0.95288 0.70305 0.51522
 C126 C 0.96393 0.68169 0.55971
 H127 H 0.94462 0.66521 0.55831
 C128 C 1.01259 0.72486 0.56126
 H129 H 1.03197 0.74122 0.56141
 C130 C 1.00902 0.70368 0.58614
 H131 H 1.02584 0.70404 0.60519
 N132 N 0.99227 0.72439 0.53661
 C133 C 0.96547 0.80037 0.47344
 H134 H 0.98576 0.80087 0.45829
 C135 C 0.94217 0.82294 0.46993
 H136 H 0.94441 0.84076 0.45184
 C137 C 0.93842 0.77730 0.51633
 H138 H 0.93753 0.76008 0.53500
 C139 C 0.91445 0.79935 0.51350
 H140 H 0.89537 0.79896 0.53012
 Zn141 Zn 0.99780 0.75104 0.50141
 N142 N 0.96325 0.77818 0.49638
 C143 C 0.98229 0.72616 0.44123
 N144 N 1.00234 0.72485 0.46607
 C145 C 1.02565 0.70332 0.46736
 C146 C 1.02993 0.68231 0.44277
 C147 C 0.98560 0.70541 0.41614
 C148 C 1.03294 0.79829 0.53007
 C149 C 1.05783 0.81920 0.53424
 C150 C 1.08372 0.79572 0.48986
 C151 C 1.05826 0.77532 0.48646
 N152 N 1.03363 0.77681 0.50659
 H153 H 0.96341 0.74293 0.44105
 H154 H 1.04095 0.70250 0.48763
 H155 H 1.04896 0.66569 0.44418
 H156 H 0.96900 0.70643 0.39693
 H157 H 1.01283 0.79931 0.54542
 H158 H 1.05686 0.83605 0.55315
 H159 H 1.10280 0.79453 0.47324
 H160 H 1.05800 0.75876 0.46736
 C161 C 0.91633 0.82254 0.49013
 C162 C 0.98445 0.68164 0.58555
 C163 C 1.08367 0.81811 0.51395
 C164 C 1.00971 0.68306 0.41669
 C165 C 0.45755 -0.02664 0.29725
 H166 H 0.47597 -0.04392 0.29868
 C167 C 0.43276 -0.02767 0.31855
 H168 H 0.43283 -0.04577 0.33625
 C169 C 0.43672 0.01885 0.27309
 H170 H 0.43857 0.03729 0.25571
 C171 C 0.41142 0.01858 0.29378
 H172 H 0.39370 0.03651 0.29140
 N173 N 0.45912 -0.00360 0.27515
 C174 C 0.52001 -0.03899 0.20167
 H175 H 0.53779 -0.02082 0.20178
 C176 C 0.52139 -0.06303 0.17966
 H177 H 0.54036 -0.06248 0.16290
 C178 C 0.47292 -0.05966 0.22250
 H179 H 0.45389 -0.05802 0.23907
 C180 C 0.47310 -0.08398 0.20058
 H181 H 0.45447 -0.10118 0.20175
 Zn182 Zn 0.49496 -0.00238 0.24918
 N183 N 0.49611 -0.03774 0.22256
 C184 C 0.55273 -0.02403 0.27438
 N185 N 0.53045 -0.00143 0.27589
 C186 C 0.53204 0.02165 0.29774
 C187 C 0.55692 0.02281 0.31907
 C188 C 0.57808 -0.02366 0.29512
 C189 C 0.47121 0.03397 0.20037
 C190 C 0.47033 0.05805 0.17812
 C191 C 0.51669 0.08046 0.20184
 C192 C 0.51666 0.05590 0.22373
 N193 N 0.49414 0.03326 0.22254
 H194 H 0.55081 -0.04261 0.25734
 H195 H 0.51367 0.03900 0.29882
 H196 H 0.55701 0.04107 0.33645
 H197 H 0.59578 -0.04161 0.29304
 H198 H 0.45393 0.01535 0.19963
 H199 H 0.45225 0.05766 0.16026
 H200 H 0.53481 0.09825 0.20319
 H201 H 0.53500 0.05465 0.24120
 C202 C 0.49744 -0.08594 0.17827
 C203 C 0.40929 -0.00469 0.31724
 C204 C 0.49351 0.08155 0.17837
 C205 C 0.58041 -0.00014 0.31807
 C206 C 0.54203 -0.02341 0.70120
 H207 H 0.52342 -0.04065 0.69962
 C208 C 0.56680 -0.02408 0.67989
 H209 H 0.56653 -0.04176 0.66193
 C210 C 0.56337 0.02159 0.72581
 H211 H 0.56173 0.03965 0.74342
 C212 C 0.58865 0.02168 0.70510
 H213 H 0.60656 0.03957 0.70754
 N214 N 0.54076 -0.00085 0.72359
 C215 C 0.48234 -0.03696 0.79920
 H216 H 0.46471 -0.01883 0.79986
 C217 C 0.48244 -0.06058 0.82197
 H218 H 0.46436 -0.06078 0.83973
 C219 C 0.52760 -0.05813 0.77540
 H220 H 0.54562 -0.05660 0.75771
 C221 C 0.52855 -0.08225 0.79771
 H222 H 0.54736 -0.09916 0.79686
 Zn223 Zn 0.50521 -0.00048 0.74995
 N224 N 0.50481 -0.03600 0.77667
 C225 C 0.44700 -0.02267 0.72614
 N226 N 0.46942 -0.00005 0.72376
 C227 C 0.46777 0.02266 0.70133
 C228 C 0.44277 0.02331 0.68016
 C229 C 0.42152 -0.02280 0.70556
 C230 C 0.52864 0.03573 0.79885
 C231 C 0.52880 0.05916 0.82159
 C232 C 0.48222 0.08085 0.79783
 C233 C 0.48296 0.05695 0.77549
 N234 N 0.50586 0.03490 0.77654
 H235 H 0.44894 -0.04084 0.74378
 H236 H 0.48623 0.04005 0.69963
 H237 H 0.44268 0.04119 0.66221
 H238 H 0.40374 -0.04080 0.70820
 H239 H 0.54622 0.01755 0.79949
 H240 H 0.54668 0.05877 0.83966
 H241 H 0.46373 0.09809 0.79665
 H242 H 0.46476 0.05558 0.75788
 C243 C 0.50610 -0.08334 0.82177
 C244 C 0.59056 -0.00124 0.68154
 C245 C 0.50507 0.08187 0.82164
 C246 C 0.41919 0.00027 0.68195
 C247 C 0.29737 0.01939 0.46395
 H248 H 0.30033 0.03651 0.48242
 C249 C 0.31704 0.02010 0.43786
 H250 H 0.33533 0.03772 0.43671
 C251 C 0.27073 -0.02522 0.44412
 H252 H 0.25288 -0.04305 0.44683
 C253 C 0.28982 -0.02530 0.41753
 H254 H 0.28610 -0.04304 0.39977
 N255 N 0.27466 -0.00291 0.46653
 C256 C 0.20148 0.03393 0.52655
 H257 H 0.20032 0.01550 0.54407
 C258 C 0.17984 0.05833 0.52706
 H259 H 0.16193 0.05815 0.54498
 C260 C 0.22517 0.05508 0.48087
 H261 H 0.24255 0.05346 0.46259
 C262 C 0.20404 0.08000 0.48056
 H263 H 0.20612 0.09745 0.46228
 Zn264 Zn 0.25006 -0.00269 0.50336
 N265 N 0.22357 0.03274 0.50371
 C266 C 0.27518 0.02022 0.56086
 N267 N 0.27768 -0.00195 0.53815
 C268 C 0.30072 -0.02382 0.53911
 C269 C 0.32210 -0.02436 0.56395
 C270 C 0.29598 0.02046 0.58621
 C271 C 0.19970 -0.04042 0.48460
 C272 C 0.17789 -0.06483 0.48676
 C273 C 0.20655 -0.08543 0.53124
 C274 C 0.22769 -0.06050 0.52840
 N275 N 0.22389 -0.03859 0.50537
 H276 H 0.25707 0.03775 0.55942
 H277 H 0.30250 -0.04083 0.52043
 H278 H 0.34050 -0.04171 0.56391
 H279 H 0.29328 0.03799 0.60430
 H280 H 0.19704 -0.02248 0.46675
 H281 H 0.15871 -0.06598 0.47015
 H282 H 0.20947 -0.10251 0.54992
 H283 H 0.24667 -0.05837 0.54505
 C284 C 0.18081 0.08186 0.50381
 C285 C 0.31338 -0.00240 0.41410
 C286 C 0.18109 -0.08739 0.51055
 C287 C 0.31980 -0.00211 0.58808
 C288 C 0.70223 0.02276 0.53449
 H289 H 0.69897 0.03941 0.51552
 C290 C 0.68249 0.02339 0.56051
 H291 H 0.66383 0.04046 0.56111
 C292 C 0.72983 -0.02054 0.55574
 H293 H 0.74813 -0.03780 0.55361
 C294 C 0.71066 -0.02069 0.58228
 H295 H 0.71473 -0.03791 0.60059
 N296 N 0.72545 0.00117 0.53266
 C297 C 0.79823 0.03996 0.47253
 H298 H 0.79983 0.02168 0.45507
 C299 C 0.81942 0.06497 0.47209
 H300 H 0.83741 0.06562 0.45424
 C301 C 0.77383 0.06013 0.51802
 H302 H 0.75638 0.05792 0.53620
 C303 C 0.79449 0.08562 0.51839
 H304 H 0.79215 0.10312 0.53652
 Zn305 Zn 0.75030 0.00170 0.49601
 N306 N 0.77603 0.03796 0.49527
 C307 C 0.72491 0.02340 0.43804
 N308 N 0.72287 0.00128 0.46106
 C309 C 0.70021 -0.02121 0.46049
 C310 C 0.67869 -0.02236 0.43579
 C311 C 0.70396 0.02303 0.41280
 C312 C 0.80167 -0.03371 0.51553
 C313 C 0.82425 -0.05720 0.51394
 C314 C 0.79574 -0.08020 0.47065
 C315 C 0.77386 -0.05606 0.47284
 N316 N 0.77725 -0.03338 0.49498
 H317 H 0.74271 0.04143 0.43918
 H318 H 0.69875 -0.03815 0.47943
 H319 H 0.66055 -0.04017 0.43619
 H320 H 0.70626 0.04059 0.39449
 H321 H 0.80397 -0.01519 0.53269
 H322 H 0.84366 -0.05690 0.53034
 H323 H 0.79304 -0.09770 0.45248
 H324 H 0.75466 -0.05511 0.45634
 C325 C 0.81788 0.08814 0.49539
 C326 C 0.68662 0.00154 0.58497
 C327 C 0.82164 -0.08063 0.49101
 C328 C 0.68046 -0.00011 0.41138
 C329 C 0.47106 0.20345 1.03607
 H330 H 0.45398 0.20297 1.01727
 C331 C 0.46988 0.18087 1.05984
 H332 H 0.45170 0.16310 1.05908
 C333 C 0.51663 0.22613 1.05846
 H334 H 0.53524 0.24335 1.05739
 C335 C 0.51636 0.20390 1.08272
 H336 H 0.53447 0.20480 1.10051
 N337 N 0.49432 0.22530 1.03562
 C338 C 0.46064 0.29786 0.97156
 H339 H 0.47981 0.29838 0.95502
 C340 C 0.43551 0.31832 0.96775
 H341 H 0.43540 0.33432 0.94794
 C342 C 0.43776 0.27625 1.01749
 H343 H 0.43902 0.26020 1.03715
 C344 C 0.41213 0.29633 1.01458
 H345 H 0.39397 0.29554 1.03224
 Zn346 Zn 0.49675 0.25111 0.99948
 N347 N 0.46121 0.27719 0.99595
 C348 C 0.47713 0.22362 0.94166
 N349 N 0.49907 0.22355 0.96486
 C350 C 0.52224 0.20181 0.96558
 C351 C 0.52397 0.17890 0.94239
 C352 C 0.47794 0.20104 0.91798
 C353 C 0.53340 0.29994 1.02369
 C354 C 0.55846 0.32105 1.02521
 C355 C 0.58124 0.29559 0.98029
 C356 C 0.55569 0.27507 0.97953
 N357 N 0.53249 0.27748 1.00115
 H358 H 0.45851 0.24067 0.94182
 H359 H 0.53902 0.20192 0.98466
 H360 H 0.54222 0.16141 0.94387
 H361 H 0.46026 0.20150 0.89974
 H362 H 0.51434 0.30168 1.04026
 H363 H 0.55800 0.33902 1.04290
 H364 H 0.59963 0.29294 0.96307
 H365 H 0.55434 0.25747 0.96142
 C366 C 0.41075 0.31773 0.98941
 C367 C 0.49309 0.18046 1.08328
 C368 C 0.58286 0.31917 1.00324
 C369 C 0.50139 0.17802 0.91837
 C370 C 0.47925 0.79699 -0.03594
 H371 H 0.46145 0.79781 -0.01794
 C372 C 0.48008 0.81996 -0.05940
 H373 H 0.46238 0.83804 -0.05962
 C374 C 0.52432 0.77269 -0.05692
 H375 H 0.54205 0.75478 -0.05539
 C376 C 0.52599 0.79515 -0.08084
 H377 H 0.54501 0.79412 -0.09755
 N378 N 0.50130 0.77411 -0.03497
 C379 C 0.46527 0.69645 0.02123
 H380 H 0.48397 0.69435 0.03829
 C381 C 0.44160 0.67380 0.02013
 H382 H 0.44193 0.65454 0.03679
 C383 C 0.44279 0.72365 -0.02189
 H384 H 0.44383 0.74258 -0.03880
 C385 C 0.41844 0.70174 -0.02357
 H386 H 0.40081 0.70412 -0.04174
 Zn387 Zn 0.50139 0.74684 0.00022
 N388 N 0.46567 0.72052 0.00017
 C389 C 0.48048 0.77003 0.05926
 N390 N 0.50233 0.77254 0.03621
 C391 C 0.52421 0.79576 0.03650
 C392 C 0.52419 0.81824 0.06017
 C393 C 0.47978 0.79190 0.08363
 C394 C 0.53696 0.69836 -0.02399
 C395 C 0.56154 0.67709 -0.02598
 C396 C 0.58532 0.70147 0.01937
 C397 C 0.56013 0.72226 0.02058
 N398 N 0.53673 0.72043 -0.00107
 H399 H 0.46310 0.75155 0.05840
 H400 H 0.54102 0.79745 0.01761
 H401 H 0.54114 0.83716 0.05910
 H402 H 0.46219 0.78940 0.10170
 H403 H 0.51785 0.69725 -0.04067
 H404 H 0.56134 0.65983 -0.04456
 H405 H 0.60352 0.70298 0.03704
 H406 H 0.55916 0.73960 0.03898
 C407 C 0.41805 0.67605 -0.00280
 C408 C 0.50403 0.81956 -0.08195
 C409 C 0.58617 0.67844 -0.00412
 C410 C 0.50144 0.81689 0.08396
 C411 C 1.04198 0.47618 0.20492
 H412 H 1.02365 0.45860 0.20410
 C413 C 1.06661 0.47519 0.18342
 H414 H 1.06658 0.45694 0.16600
 C415 C 1.06265 0.52254 0.22755
 H416 H 1.06073 0.54138 0.24427
 C417 C 1.08771 0.52235 0.20662
 H418 H 1.10519 0.54078 0.20800
 N419 N 1.04044 0.49961 0.22640
 C420 C 0.97949 0.46563 0.30117
 H421 H 0.96244 0.48432 0.30106
 C422 C 0.97682 0.44114 0.32279
 H423 H 0.95724 0.44099 0.33885
 C424 C 1.02550 0.44342 0.27997
 H425 H 1.04471 0.44475 0.26355
 C426 C 1.02395 0.41858 0.30151
 H427 H 1.04225 0.40113 0.30142
 Zn428 Zn 1.00491 0.50125 0.25282
 N429 N 1.00327 0.46615 0.28006
 C430 C 0.94676 0.47937 0.22881
 N431 N 0.96898 0.50222 0.22664
 C432 C 0.96699 0.52516 0.20446
 C433 C 0.94183 0.52581 0.18341
 C434 C 0.92116 0.47925 0.20842
 C435 C 1.03052 0.53718 0.30044
 C436 C 1.03352 0.56192 0.32150
 C437 C 0.98787 0.58587 0.29810
 C438 C 0.98576 0.56058 0.27737
 N439 N 1.00709 0.53702 0.27880
 H440 H 0.94897 0.46088 0.24605
 H441 H 0.98529 0.54272 0.20283
 H442 H 0.94145 0.54394 0.16573
 H443 H 0.90358 0.46107 0.21106
 H444 H 1.04690 0.51792 0.30130
 H445 H 1.05260 0.56166 0.33828
 H446 H 0.97038 0.60413 0.29696
 H447 H 0.96686 0.55961 0.26048
 C448 C 0.99926 0.41713 0.32330
 C449 C 1.08987 0.49860 0.18398
 C450 C 1.01201 0.58673 0.32060
 C451 C 0.91849 0.50248 0.18501
 C452 C -0.03843 0.47720 0.80170
 H453 H -0.01889 0.46130 0.80401
 C454 C -0.06271 0.47621 0.82357
 H455 H -0.06123 0.45965 0.84271
 C456 C -0.06253 0.51947 0.77481
 H457 H -0.06212 0.53673 0.75619
 C458 C -0.08733 0.51920 0.79609
 H459 H -0.10612 0.53592 0.79312
 N460 N -0.03879 0.49853 0.77787
 C461 C 0.02215 0.46088 0.70527
 H462 H 0.03856 0.48010 0.70250
 C463 C 0.02459 0.43438 0.68629
 H464 H 0.04285 0.43357 0.66875
 C465 C -0.02241 0.43945 0.73067
 H466 H -0.04098 0.44169 0.74766
 C467 C -0.02088 0.41257 0.71216
 H468 H -0.03809 0.39413 0.71552
 Zn469 Zn -0.00354 0.49998 0.75105
 N470 N -0.00092 0.46282 0.72710
 C471 C 0.05579 0.48351 0.77704
 N472 N 0.03195 0.50458 0.77730
 C473 C 0.03123 0.52830 0.79852
 C474 C 0.05505 0.53145 0.82077
 C475 C 0.08025 0.48595 0.79879
 C476 C -0.03028 0.53280 0.70102
 C477 C -0.03442 0.55729 0.67957
 C478 C 0.01027 0.58367 0.70243
 C479 C 0.01352 0.55865 0.72350
 N480 N -0.00691 0.53410 0.72269
 H481 H 0.05549 0.46428 0.76064
 H482 H 0.01167 0.54433 0.79860
 H483 H 0.05395 0.55012 0.83790
 H484 H 0.09852 0.46848 0.79897
 H485 H -0.04596 0.51279 0.70066
 H486 H -0.05358 0.55603 0.66294
 H487 H 0.02695 0.60283 0.70331
 H488 H 0.03241 0.55888 0.74042
 C489 C 0.00288 0.40973 0.68961
 C490 C -0.08760 0.49746 0.82099
 C491 C -0.01413 0.58332 0.68021
 C492 C 0.07984 0.51007 0.82104
 C493 C 0.11822 0.13866 0.47534
 C494 C 0.10828 0.15323 0.50295
 C495 C 0.12076 0.14182 0.53149
 C496 C 0.14454 0.11905 0.53170
 C497 C 0.15667 0.10697 0.50340
 C498 C 0.14197 0.11650 0.47543
 C499 C 0.15503 0.12928 0.44534
 C500 C 0.12861 0.15295 0.44514
 H501 H 0.11261 0.15074 0.55375
 H502 H 0.15409 0.11169 0.55411
 H503 H 0.15338 0.11209 0.42585
 H504 H 0.17829 0.14072 0.44828
 H505 H 0.11139 0.14899 0.42593
 H506 H 0.13672 0.17763 0.44784
 C507 C 0.62966 0.60201 -0.01387
 C508 C 0.65944 0.60888 -0.00208
 C509 C 0.66679 0.64055 0.00390
 C510 C 0.64328 0.66368 0.00236
 C511 C 0.61218 0.65556 -0.00577
 C512 C 0.60674 0.62477 -0.01584
 C513 C 0.58139 0.60208 -0.00735
 C514 C 0.60659 0.57706 -0.00515
 H515 H 0.69020 0.64710 0.01126
 H516 H 0.64926 0.68760 0.00846
 H517 H 0.56474 0.59820 -0.02707
 H518 H 0.57036 0.60751 0.01561
 H519 H 0.60440 0.55881 -0.02360
 H520 H 0.60990 0.56794 0.01911
 C521 C 0.86144 -0.15901 0.47973
 C522 C 0.89261 -0.15252 0.48768
 C523 C 0.90125 -0.12080 0.49136
 C524 C 0.87834 -0.09713 0.49153
 C525 C 0.84635 -0.10465 0.48745
 C526 C 0.83901 -0.13561 0.47925
 C527 C 0.81406 -0.15713 0.49113
 C528 C 0.83866 -0.18285 0.49180
 H529 H 0.92545 -0.11452 0.49579
 H530 H 0.88557 -0.07316 0.49588
 H531 H 0.79541 -0.16121 0.47334
 H532 H 0.80557 -0.15048 0.51484
 H533 H 0.83407 -0.20174 0.47446
 H534 H 0.84401 -0.19107 0.51599
 C535 C 0.36538 0.39231 0.97395
 C536 C 0.33625 0.38595 0.98742
 C537 C 0.32963 0.35474 0.99619
 C538 C 0.35342 0.33185 0.99559
 C539 C 0.38412 0.33981 0.98592
 C540 C 0.38861 0.36981 0.97306
 C541 C 0.41385 0.39350 0.97865
 C542 C 0.38831 0.41823 0.97958
 H543 H 0.30675 0.34852 1.00523
 H544 H 0.34805 0.30841 1.00391
 H545 H 0.42964 0.39611 0.95808
 H546 H 0.42590 0.39006 1.00159
 H547 H 0.38938 0.43497 0.95952
 H548 H 0.38580 0.42920 1.00305
 C549 C 0.87663 0.14732 0.52587
 C550 C 0.89038 0.16069 0.49930
 C551 C 0.87807 0.15054 0.47006
 C552 C 0.85401 0.12747 0.46856
 C553 C 0.84121 0.11403 0.49626
 C554 C 0.85306 0.12576 0.52442
 C555 C 0.85218 0.12118 0.55911
 C556 C 0.87861 0.14576 0.56080
 H557 H 0.88760 0.15961 0.44829
 H558 H 0.84568 0.12011 0.44572
 H559 H 0.85969 0.09725 0.56623
 H560 H 0.82992 0.12937 0.56968
 H561 H 0.90102 0.13574 0.56938
 H562 H 0.87148 0.16811 0.57199
 C563 C 0.34001 0.63500 -0.01410
 C564 C 0.34685 0.60377 -0.00666
 C565 C 0.37858 0.59563 -0.00301
 C566 C 0.40198 0.61902 -0.00246
 C567 C 0.39415 0.65098 -0.00618
 C568 C 0.36314 0.65794 -0.01420
 C569 C 0.34158 0.68219 -0.00156
 C570 C 0.31618 0.65703 -0.00133
 H571 H 0.38508 0.57140 0.00095
 H572 H 0.42600 0.61215 0.00173
 H573 H 0.33709 0.70126 -0.01887
 H574 H 0.34846 0.69021 0.02230
 H575 H 0.29704 0.66171 -0.01843
 H576 H 0.30836 0.65079 0.02276
 C577 C 0.10441 -0.12837 0.52728
 C578 C 0.10988 -0.15916 0.51745
 C579 C 0.14116 -0.16725 0.51045
 C580 C 0.16481 -0.14403 0.50936
 C581 C 0.15748 -0.11232 0.51469
 C582 C 0.12749 -0.10551 0.52571
 C583 C 0.10467 -0.08065 0.51656
 C584 C 0.07930 -0.10579 0.51829
 H585 H 0.14713 -0.19116 0.50458
 H586 H 0.18830 -0.15055 0.50257
 H587 H 0.10826 -0.07152 0.49236
 H588 H 0.10233 -0.06242 0.53496
 H589 H 0.06855 -0.11128 0.49514
 H590 H 0.06241 -0.10196 0.53769
 C591 C 0.65019 0.37130 1.03095
 C592 C 0.66001 0.38619 1.00328
 C593 C 0.64702 0.37514 0.97487
 C594 C 0.62235 0.35309 0.97496
 C595 C 0.60972 0.34157 1.00345
 C596 C 0.62541 0.35009 1.03118
 C597 C 0.61407 0.36210 1.06212
 C598 C 0.64163 0.38475 1.06195
 H599 H 0.65502 0.38436 0.95255
 H600 H 0.61211 0.34639 0.95269
 H601 H 0.61561 0.34410 1.08102
 H602 H 0.59145 0.37474 1.06057
 H603 H 0.65934 0.37939 1.08034
 H604 H 0.63463 0.40981 1.06027
 C605 C 0.46633 0.11593 1.13885
 C606 C 0.49405 0.10598 1.15333
 C607 C 0.52239 0.11851 1.14156
 C608 C 0.52228 0.14248 1.11862
 C609 C 0.49382 0.15459 1.10683
 C610 C 0.46622 0.13949 1.11630
 C611 C 0.43648 0.15303 1.12842
 C612 C 0.43660 0.12719 1.15315
 H613 H 0.54468 0.11012 1.15025
 H614 H 0.54449 0.15164 1.11045
 H615 H 0.41696 0.15071 1.11127
 H616 H 0.43976 0.17691 1.13834
 H617 H 0.41715 0.11003 1.15019
 H618 H 0.43994 0.13603 1.17746
 C619 C -0.03122 0.62813 0.60507
 C620 C -0.01945 0.65821 0.61123
 C621 C -0.01114 0.66493 0.64262
 C622 C -0.01068 0.64099 0.66560
 C623 C -0.01850 0.60975 0.65773
 C624 C -0.03076 0.60461 0.62765
 C625 C -0.02288 0.58006 0.60411
 C626 C -0.02338 0.60585 0.57935
 H627 H -0.00380 0.68833 0.64923
 H628 H -0.00308 0.64681 0.68914
 H629 H -0.04209 0.56263 0.60118
 H630 H 0.00075 0.56987 0.60797
 H631 H -0.04288 0.60323 0.56222
 H632 H -0.00004 0.61067 0.56880
 C633 C 0.52011 0.86284 -0.15834
 C634 C 0.50831 0.89288 -0.15273
 C635 C 0.49967 0.89995 -0.12158
 C636 C 0.49909 0.87642 -0.09827
 C637 C 0.50715 0.84519 -0.10550
 C638 C 0.51954 0.83965 -0.13537
 C639 C 0.51167 0.81468 -0.15858
 C640 C 0.51229 0.84010 -0.18375
 H641 H 0.49254 0.92343 -0.11531
 H642 H 0.49157 0.88260 -0.07486
 H643 H 0.48801 0.80438 -0.15474
 H644 H 0.53086 0.79736 -0.16105
 H645 H 0.48900 0.84458 -0.19455
 H646 H 0.53184 0.83738 -0.20068
 C647 C 0.98167 0.37289 0.39882
 C648 C 0.99699 0.34402 0.39514
 C649 C 1.00912 0.33784 0.36480
 C650 C 1.00886 0.36095 0.34098
 C651 C 0.99678 0.39114 0.34669
 C652 C 0.98173 0.39567 0.37544
 C653 C 0.98526 0.42182 0.39834
 C654 C 0.98530 0.39704 0.42402
 H655 H 1.01894 0.31528 0.35903
 H656 H 1.01880 0.35525 0.31839
 H657 H 0.96427 0.43711 0.39895
 H658 H 1.00800 0.43441 0.39597
 H659 H 0.96439 0.39837 0.43943
 H660 H 1.00806 0.39523 0.43663
 C661 C 0.52500 0.88391 0.13772
 C662 C 0.49757 0.89081 0.15446
 C663 C 0.47006 0.87464 0.14488
 C664 C 0.47105 0.85106 0.12180
 C665 C 0.49959 0.84238 0.10772
 C666 C 0.52595 0.86045 0.11526
 C667 C 0.55779 0.85004 0.12509
 C668 C 0.55687 0.87559 0.14976
 H669 H 0.44743 0.88023 0.15459
 H670 H 0.44936 0.83962 0.11523
 H671 H 0.57560 0.85447 0.10659
 H672 H 0.55781 0.82593 0.13518
 H673 H 0.57433 0.89452 0.14542
 H674 H 0.55637 0.86636 0.17422
 C675 C -0.02222 0.34280 0.63694
 C676 C 0.00573 0.33398 0.62238
 C677 C 0.03383 0.34619 0.63507
 C678 C 0.03319 0.36970 0.65824
 C679 C 0.00444 0.38152 0.66931
 C680 C -0.02284 0.36589 0.65976
 C681 C -0.05308 0.37879 0.64787
 C682 C -0.05240 0.35349 0.62285
 H683 H 0.05627 0.33867 0.62619
 H684 H 0.05515 0.37951 0.66639
 H685 H -0.05061 0.40295 0.63820
 H686 H -0.07239 0.37553 0.66504
 H687 H -0.04953 0.36294 0.59863
 H688 H -0.07133 0.33572 0.62565
 C689 C 0.53069 0.11558 0.86267
 C690 C 0.50350 0.10528 0.84736
 C691 C 0.47465 0.11641 0.85889
 C692 C 0.47376 0.13964 0.88233
 C693 C 0.50169 0.15234 0.89488
 C694 C 0.52981 0.13841 0.88572
 C695 C 0.55952 0.15323 0.87460
 C696 C 0.56049 0.12820 0.84931
 H697 H 0.45273 0.10760 0.84958
 H698 H 0.45119 0.14791 0.89018
 H699 H 0.57870 0.15094 0.89214
 H700 H 0.55597 0.17732 0.86515
 H701 H 0.58022 0.11155 0.85232
 H702 H 0.55749 0.13772 0.82513
 C703 C 1.02623 0.63045 0.39654
 C704 C 1.01365 0.66019 0.39072
 C705 C 1.00518 0.66724 0.35937
 C706 C 1.00567 0.64382 0.33604
 C707 C 1.01471 0.61283 0.34350
 C708 C 1.02677 0.60750 0.37364
 C709 C 1.01940 0.58205 0.39670
 C710 C 1.01879 0.60722 0.42183
 H711 H 0.99721 0.69047 0.35297
 H712 H 0.99802 0.64981 0.31252
 H713 H 1.03912 0.56536 0.39960
 H714 H 0.99616 0.57098 0.39239
 H715 H 1.03815 0.60495 0.43917
 H716 H 0.99519 0.61081 0.43215
 C717 C 1.15799 0.47433 0.13193
 C718 C 1.16401 0.50143 0.11383
 C719 C 1.14805 0.52897 0.12317
 C720 C 1.12455 0.52797 0.14627
 C721 C 1.11576 0.49945 0.16073
 C722 C 1.13419 0.47321 0.15413
 C723 C 1.12591 0.44009 0.14619
 C724 C 1.15214 0.44114 0.12224
 H725 H 1.15318 0.55154 0.11267
 H726 H 1.11223 0.54941 0.15171
 H727 H 1.10272 0.43746 0.13467
 H728 H 1.13053 0.42366 0.16600
 H729 H 1.14380 0.43926 0.09755
 H730 H 1.17189 0.42542 0.12853
 C731 C 0.63336 -0.02751 0.65003
 C732 C 0.61695 -0.00044 0.65877
 C733 C 0.62824 0.02846 0.64682
 C734 C 0.65212 0.02945 0.62408
 C735 C 0.66565 0.00155 0.61278
 C736 C 0.65741 -0.02637 0.62819
 C737 C 0.64970 -0.05790 0.61534
 C738 C 0.62292 -0.05911 0.63872
 H739 H 0.61743 0.05030 0.65366
 H740 H 0.65898 0.05200 0.61448
 H741 H 0.66832 -0.07533 0.62047
 H742 H 0.64183 -0.05692 0.59043
 H743 H 0.62582 -0.07765 0.65692
 H744 H 0.59989 -0.05888 0.62658
 C745 C -0.15316 0.47131 0.87569
 C746 C -0.16157 0.49915 0.89075
 C747 C -0.14847 0.52727 0.87890
 C748 C -0.12491 0.52664 0.85583
 C749 C -0.11349 0.49790 0.84422
 C750 C -0.12944 0.47056 0.85353
 C751 C -0.11847 0.43922 0.86502
 C752 C -0.14486 0.44001 0.88887
 H753 H -0.15555 0.54973 0.88819
 H754 H -0.11448 0.54863 0.84834
 H755 H -0.09521 0.43993 0.87669
 H756 H -0.12152 0.42058 0.84710
 H757 H -0.13657 0.44131 0.91361
 H758 H -0.16336 0.42216 0.88433
 C759 C 0.36703 -0.03142 0.34980
 C760 C 0.38299 -0.00413 0.34017
 C761 C 0.37135 0.02471 0.35144
 C762 C 0.34749 0.02555 0.37418
 C763 C 0.33436 -0.00243 0.38628
 C764 C 0.34303 -0.03044 0.37170
 C765 C 0.35135 -0.06141 0.38561
 C766 C 0.37811 -0.06240 0.36224
 H767 H 0.38184 0.04669 0.34407
 H768 H 0.34033 0.04812 0.38315
 H769 H 0.33307 -0.07949 0.38111
 H770 H 0.35923 -0.05959 0.41046
 H771 H 0.37559 -0.08149 0.34472
 H772 H 0.40116 -0.06112 0.37432
 C773 C 0.15797 0.51871 0.86233
 C774 C 0.15075 0.51082 0.89345
 C775 C 0.11876 0.50780 0.90123
 C776 C 0.09556 0.50869 0.87767
 C777 C 0.10390 0.51202 0.84583
 C778 C 0.13522 0.51895 0.83905
 C779 C 0.15718 0.50605 0.81519
 C780 C 0.18215 0.50590 0.84077
 H781 H 0.11172 0.50371 0.92531
 H782 H 0.07130 0.50502 0.88413
 H783 H 0.16215 0.52316 0.79605
 H784 H 0.15079 0.48207 0.80726
 H785 H 0.20139 0.52298 0.83635
 H786 H 0.18983 0.48194 0.84766
 C787 C 0.62329 0.02741 0.34888
 C788 C 0.60720 -0.00016 0.34057
 C789 C 0.61943 -0.02870 0.35226
 C790 C 0.64424 -0.02898 0.37411
 C791 C 0.65776 -0.00071 0.38485
 C792 C 0.64818 0.02699 0.36994
 C793 C 0.63999 0.05801 0.38349
 C794 C 0.61232 0.05838 0.36105
 H795 H 0.60882 -0.05087 0.34583
 H796 H 0.65199 -0.05133 0.38335
 H797 H 0.65784 0.07626 0.37798
 H798 H 0.63313 0.05638 0.40863
 H799 H 0.61390 0.07729 0.34305
 H800 H 0.58974 0.05693 0.37388
 C801 C 0.85051 0.52748 0.13233
 C802 C 0.84094 0.49928 0.11847
 C803 C 0.85452 0.47147 0.13022
 C804 C 0.87939 0.47263 0.15196
 C805 C 0.89159 0.50162 0.16262
 C806 C 0.87543 0.52876 0.15333
 C807 C 0.88637 0.55947 0.13994
 C808 C 0.85867 0.55817 0.11757
 H809 H 0.84682 0.44879 0.12179
 H810 H 0.89007 0.45075 0.15910
 H811 H 0.90895 0.55784 0.12716
 H812 H 0.88482 0.57888 0.15719
 H813 H 0.86550 0.55588 0.09250
 H814 H 0.84082 0.57640 0.12240
 C815 C 0.37604 0.02679 0.65074
 C816 C 0.39241 -0.00040 0.65948
 C817 C 0.38057 -0.02924 0.64814
 C818 C 0.35595 -0.03011 0.62608
 C819 C 0.34223 -0.00215 0.61485
 C820 C 0.35132 0.02578 0.62953
 C821 C 0.35911 0.05703 0.61579
 C822 C 0.38662 0.05807 0.63843
 H823 H 0.39138 -0.05115 0.65499
 H824 H 0.34853 -0.05265 0.61705
 H825 H 0.34094 0.07481 0.62104
 H826 H 0.36617 0.05562 0.59072
 H827 H 0.38461 0.07689 0.65628
 H828 H 0.40928 0.05725 0.62574
   
