data_POSCAR
  _audit_creation_date              2014-09-24
  _audit_creation_method            'ToBaCCo'
  _symmetry_space_group_name_H-M    'P1'
  _symmetry_Int_Tables_number       1
  _symmetry_cell_setting            triclinic
  loop_
  _symmetry_equiv_pos_as_xyz
 x,y,z
_cell_length_a 34.2126
_cell_length_b 34.8260
_cell_length_c 34.5851
_cell_angle_alpha 89.582500
_cell_angle_beta 90.433800
_cell_angle_gamma 89.939200
loop_
  _atom_site_label
  _atom_site_type_symbol
  _atom_site_fract_x
  _atom_site_fract_y
  _atom_site_fract_z
C1 C 0.70011 0.69003 0.96599
 H2 H 0.72845 0.70167 0.95876
 C3 C 0.66622 0.70810 0.95219
 H4 H 0.66889 0.73360 0.93431
 C5 C 0.66243 0.64201 0.99697
 H6 H 0.66088 0.61596 1.01389
 C7 C 0.62787 0.65917 0.98393
 H8 H 0.60025 0.64589 0.99117
 N9 N 0.69770 0.65698 0.98704
 C10 C 0.82180 0.65325 0.99875
 H11 H 0.82577 0.62839 0.98069
 C12 C 0.85443 0.67354 1.01154
 H13 H 0.88316 0.66411 1.00272
 C14 C 0.77968 0.69411 1.03379
 H15 H 0.75046 0.70120 1.04312
 C16 C 0.81164 0.71520 1.04744
 H17 H 0.80662 0.73870 1.06711
 Zn18 Zn 0.74404 0.62912 0.99907
 N19 N 0.78544 0.66316 1.01074
 C20 C 0.77309 0.56407 0.95836
 N21 N 0.75865 0.60037 0.95505
 C22 C 0.75752 0.61888 0.92031
 C23 C 0.77170 0.60121 0.88721
 C24 C 0.78791 0.54535 0.92592
 C25 C 0.74945 0.60781 1.07788
 C26 C 0.73869 0.58830 1.11152
 C27 C 0.70148 0.54415 1.07229
 C28 C 0.71275 0.56482 1.03942
 N29 N 0.73533 0.59673 1.04283
 H30 H 0.77460 0.55018 0.98638
 H31 H 0.74666 0.64791 0.91835
 H32 H 0.77122 0.61701 0.86013
 H33 H 0.80024 0.51688 0.92933
 H34 H 0.76782 0.63285 1.08017
 H35 H 0.74938 0.59899 1.13897
 H36 H 0.68232 0.51971 1.06848
 H37 H 0.70211 0.55631 1.01123
 C38 C 0.84974 0.70423 1.03720
 C39 C 0.62948 0.69206 0.96030
 C40 C 0.71310 0.55667 1.10940
 C41 C 0.78786 0.56423 0.88982
 C42 C 0.72980 0.32120 0.54826
 H43 H 0.75767 0.32127 0.56325
 C44 C 0.69839 0.30074 0.56385
 H45 H 0.70266 0.28461 0.59043
 C46 C 0.68959 0.34447 0.49720
 H47 H 0.68566 0.36263 0.47204
 C48 C 0.65764 0.32397 0.51140
 H49 H 0.62972 0.32648 0.49665
 N50 N 0.72455 0.34368 0.51628
 C51 C 0.83663 0.37842 0.46727
 H52 H 0.82889 0.40787 0.46086
 C53 C 0.87158 0.36374 0.45326
 H54 H 0.89057 0.38256 0.43692
 C55 C 0.81974 0.31792 0.49390
 H56 H 0.79911 0.30000 0.50912
 C57 C 0.85462 0.30191 0.48024
 H58 H 0.86041 0.27170 0.48522
 Zn59 Zn 0.76378 0.37982 0.50149
 N60 N 0.81146 0.35566 0.48723
 C61 C 0.80359 0.43948 0.54114
 N62 N 0.77370 0.41385 0.54355
 C63 C 0.75310 0.40982 0.57688
 C64 C 0.76467 0.42913 0.61031
 C65 C 0.81593 0.45966 0.57379
 C66 C 0.74654 0.38707 0.42355
 C67 C 0.73259 0.40376 0.38943
 C68 C 0.71741 0.46125 0.42509
 C69 C 0.73214 0.44350 0.45863
 N70 N 0.74584 0.40688 0.45725
 H71 H 0.81904 0.44326 0.51434
 H72 H 0.72842 0.39065 0.57816
 H73 H 0.74895 0.42405 0.63691
 H74 H 0.84100 0.47847 0.57155
 H75 H 0.75751 0.35793 0.42338
 H76 H 0.73292 0.38708 0.36314
 H77 H 0.70588 0.49015 0.42677
 H78 H 0.73186 0.45860 0.48584
 C79 C 0.88092 0.32490 0.45925
 C80 C 0.66142 0.30288 0.54594
 C81 C 0.71726 0.44116 0.38993
 C82 C 0.79735 0.45341 0.60936
 C83 C 0.19848 -0.18168 0.02575
 H84 H 0.22629 -0.19625 0.02841
 C85 C 0.16465 -0.19952 0.03936
 H86 H 0.16679 -0.22802 0.05192
 C87 C 0.16238 -0.12596 0.00861
 H88 H 0.16161 -0.09695 -0.00240
 C89 C 0.12788 -0.14277 0.02158
 H90 H 0.10104 -0.12631 0.02009
 N91 N 0.19686 -0.14532 0.01118
 C92 C 0.32126 -0.14404 0.00137
 H93 H 0.32551 -0.11927 0.01955
 C94 C 0.35369 -0.16473 -0.01106
 H95 H 0.38256 -0.15574 -0.00187
 C96 C 0.27871 -0.18420 -0.03447
 H97 H 0.24946 -0.19076 -0.04450
 C98 C 0.31036 -0.20577 -0.04758
 H99 H 0.30502 -0.22911 -0.06743
 Zn100 Zn 0.24357 -0.11865 -0.00085
 N101 N 0.28478 -0.15340 -0.01123
 C102 C 0.25362 -0.10745 0.07771
 N103 N 0.25770 -0.08952 0.04295
 C104 C 0.27402 -0.05403 0.04017
 C105 C 0.28799 -0.03565 0.07336
 C106 C 0.26683 -0.09008 0.11151
 C107 C 0.24810 -0.09960 -0.08004
 C108 C 0.23653 -0.08124 -0.11421
 C109 C 0.20081 -0.03527 -0.07621
 C110 C 0.21309 -0.05468 -0.04275
 N111 N 0.23502 -0.08713 -0.04529
 H112 H 0.24107 -0.13588 0.07911
 H113 H 0.27758 -0.04064 0.01211
 H114 H 0.30200 -0.00792 0.07050
 H115 H 0.26409 -0.10548 0.13866
 H116 H 0.26614 -0.12491 -0.08167
 H117 H 0.24628 -0.09311 -0.14135
 H118 H 0.18200 -0.01046 -0.07310
 H119 H 0.20374 -0.04470 -0.01476
 C120 C 0.34859 -0.19532 -0.03684
 C121 C 0.12884 -0.17971 0.03801
 C122 C 0.21100 -0.04949 -0.11293
 C123 C 0.28507 -0.05404 0.10959
 C124 C 0.22527 0.17750 0.45234
 H125 H 0.25382 0.18082 0.43952
 C126 C 0.19288 0.19617 0.43595
 H127 H 0.19700 0.21418 0.41066
 C128 C 0.18507 0.14846 0.49971
 H129 H 0.18183 0.12912 0.52401
 C130 C 0.15193 0.16632 0.48413
 H131 H 0.12374 0.16085 0.49708
 N132 N 0.22078 0.15394 0.48348
 C133 C 0.33503 0.13165 0.53630
 H134 H 0.33151 0.10088 0.53890
 C135 C 0.36960 0.14872 0.54867
 H136 H 0.39233 0.13089 0.56137
 C137 C 0.30932 0.19195 0.51646
 H138 H 0.28576 0.20851 0.50364
 C139 C 0.34330 0.21048 0.52953
 H140 H 0.34569 0.24138 0.52687
 Zn141 Zn 0.26336 0.12357 0.50123
 N142 N 0.30621 0.15309 0.51955
 C143 C 0.31879 0.09724 0.44847
 N144 N 0.28088 0.09303 0.45924
 C145 C 0.25595 0.07058 0.43841
 C146 C 0.26916 0.05131 0.40542
 C147 C 0.33325 0.07807 0.41661
 C148 C 0.24391 0.11455 0.57724
 C149 C 0.22904 0.09776 0.61060
 C150 C 0.21925 0.03892 0.57519
 C151 C 0.23497 0.05682 0.54238
 N152 N 0.24631 0.09420 0.54397
 H153 H 0.33802 0.11643 0.46370
 H154 H 0.22562 0.06844 0.44680
 H155 H 0.24898 0.03400 0.38875
 H156 H 0.36350 0.08252 0.40873
 H157 H 0.25275 0.14435 0.57755
 H158 H 0.22676 0.11499 0.63642
 H159 H 0.20939 0.00946 0.57335
 H160 H 0.23703 0.04127 0.51554
 C161 C 0.37420 0.18855 0.54517
 C162 C 0.15544 0.19011 0.45146
 C163 C 0.21578 0.05969 0.60976
 C164 C 0.30842 0.05500 0.39432
 C165 C 0.18241 0.47358 0.20086
 H166 H 0.19059 0.46373 0.22952
 C167 C 0.20138 0.45879 0.16863
 H168 H 0.22440 0.43782 0.17303
 C169 C 0.14070 0.51091 0.16049
 H170 H 0.11605 0.53014 0.15741
 C171 C 0.15863 0.49657 0.12743
 H172 H 0.14793 0.50552 0.09923
 N173 N 0.15234 0.49874 0.19626
 C174 C 0.12917 0.53033 0.31542
 H175 H 0.09827 0.52376 0.31478
 C176 C 0.14673 0.54213 0.34974
 H177 H 0.12894 0.54484 0.37534
 C178 C 0.18934 0.53522 0.28221
 H179 H 0.20559 0.53272 0.25566
 C180 C 0.20808 0.54782 0.31597
 H181 H 0.23888 0.55486 0.31517
 Zn182 Zn 0.12101 0.51057 0.23932
 N183 N 0.15051 0.52685 0.28267
 C184 C 0.11803 0.44260 0.27823
 N185 N 0.09558 0.46431 0.25396
 C186 C 0.06065 0.45102 0.24040
 C187 C 0.04609 0.41558 0.25350
 C188 C 0.10513 0.40713 0.29131
 C189 C 0.11032 0.58465 0.21936
 C190 C 0.09258 0.61903 0.20859
 C191 C 0.02976 0.58768 0.21252
 C192 C 0.04881 0.55383 0.22419
 N193 N 0.08855 0.55278 0.22638
 H194 H 0.14640 0.45277 0.28744
 H195 H 0.04432 0.46731 0.21911
 H196 H 0.01799 0.40554 0.24314
 H197 H 0.12360 0.39101 0.31115
 H198 H 0.14183 0.58310 0.22167
 H199 H 0.11077 0.64371 0.20240
 H200 H -0.00180 0.58806 0.20994
 H201 H 0.03179 0.52876 0.23123
 C202 C 0.18663 0.55134 0.35033
 C203 C 0.18876 0.46941 0.13124
 C204 C 0.05187 0.62072 0.20439
 C205 C 0.06854 0.39329 0.27944
 C206 C -0.18991 0.04461 0.22074
 H207 H -0.19625 0.05790 0.24817
 C208 C -0.20931 0.05700 0.18710
 H209 H -0.23080 0.07972 0.18928
 C210 C -0.15279 0.00017 0.18472
 H211 H -0.12998 -0.02121 0.18352
 C212 C -0.17108 0.01183 0.15050
 H213 H -0.16223 -0.00148 0.12374
 N214 N -0.16195 0.01694 0.21887
 C215 C -0.13728 -0.01929 0.33755
 H216 H -0.10601 -0.01489 0.33639
 C217 C -0.15415 -0.03327 0.37126
 H218 H -0.13550 -0.03972 0.39591
 C219 C -0.19899 -0.01723 0.30592
 H220 H -0.21607 -0.01135 0.28012
 C221 C -0.21709 -0.03212 0.33902
 H222 H -0.24827 -0.03743 0.33859
 Zn223 Zn -0.13049 0.00491 0.26259
 N224 N -0.15969 -0.01136 0.30588
 C225 C -0.11554 0.06864 0.30814
 N226 N -0.10226 0.04987 0.27649
 C227 C -0.07255 0.06461 0.25500
 C228 C -0.05353 0.09835 0.26661
 C229 C -0.09798 0.10247 0.32030
 C230 C -0.12022 -0.07074 0.24739
 C231 C -0.10344 -0.10427 0.23363
 C232 C -0.04245 -0.07021 0.22613
 C233 C -0.06036 -0.03724 0.24085
 N234 N -0.09899 -0.03788 0.24992
 H235 H -0.14043 0.05786 0.32380
 H236 H -0.06377 0.05049 0.22873
 H237 H -0.02963 0.10952 0.24956
 H238 H -0.10908 0.11645 0.34584
 H239 H -0.15092 -0.07045 0.25460
 H240 H -0.12155 -0.12957 0.23062
 H241 H -0.01213 -0.06898 0.21748
 H242 H -0.04374 -0.01108 0.24356
 C243 C -0.19445 -0.04035 0.37220
 C244 C -0.19922 0.04128 0.15104
 C245 C -0.06441 -0.10405 0.22162
 C246 C -0.06631 0.11763 0.29977
 C247 C 0.31274 0.53726 0.70309
 H248 H 0.30830 0.54998 0.73115
 C249 C 0.29362 0.55267 0.67063
 H250 H 0.27402 0.57678 0.67429
 C251 C 0.34614 0.49264 0.66388
 H252 H 0.36749 0.47000 0.66104
 C253 C 0.32793 0.50734 0.63071
 H254 H 0.33518 0.49535 0.60286
 N255 N 0.33897 0.50820 0.69912
 C256 C 0.36399 0.45313 0.80982
 H257 H 0.39419 0.44680 0.80349
 C258 C 0.34763 0.43843 0.84342
 H259 H 0.36591 0.42132 0.86257
 C260 C 0.30392 0.48211 0.79166
 H261 H 0.28692 0.49890 0.77126
 C262 C 0.28618 0.46784 0.82533
 H263 H 0.25563 0.47393 0.83049
 Zn264 Zn 0.37133 0.49290 0.74150
 N265 N 0.34242 0.47492 0.78486
 C266 C 0.42284 0.53248 0.79118
 N267 N 0.40220 0.53549 0.75753
 C268 C 0.40035 0.56941 0.73773
 C269 C 0.41738 0.60254 0.75306
 C270 C 0.43993 0.56486 0.80768
 C271 C 0.38385 0.41736 0.72190
 C272 C 0.40391 0.38453 0.71074
 C273 C 0.46312 0.42213 0.70695
 C274 C 0.44190 0.45433 0.71890
 N275 N 0.40292 0.45132 0.72576
 H276 H 0.42476 0.50532 0.80621
 H277 H 0.38454 0.57123 0.71064
 H278 H 0.41419 0.62954 0.73765
 H279 H 0.45488 0.56198 0.83526
 H280 H 0.35282 0.41588 0.72751
 H281 H 0.38787 0.35794 0.70756
 H282 H 0.49402 0.42495 0.70104
 H283 H 0.45638 0.48171 0.72225
 C284 C 0.30829 0.44580 0.85183
 C285 C 0.30198 0.53837 0.63369
 C286 C 0.44401 0.38663 0.70277
 C287 C 0.43630 0.60071 0.78918
 C288 C 0.68136 0.95381 0.71944
 H289 H 0.68873 0.94277 0.74789
 C290 C 0.70142 0.94052 0.68708
 H291 H 0.72449 0.91953 0.69108
 C292 C 0.64053 0.99254 0.67954
 H293 H 0.61604 1.01197 0.67656
 C294 C 0.65969 0.98001 0.64651
 H295 H 0.64987 0.99042 0.61850
 N296 N 0.65097 0.97873 0.71503
 C297 C 0.62749 0.99552 0.83759
 H298 H 0.59755 0.98603 0.83838
 C299 C 0.64580 1.00652 0.87192
 H300 H 0.62935 1.00494 0.89852
 C301 C 0.68409 1.01080 0.80172
 H302 H 0.69845 1.01354 0.77410
 C303 C 0.70352 1.02238 0.83536
 H304 H 0.73297 1.03345 0.83296
 Zn305 Zn 0.61755 0.99033 0.75691
 N306 N 0.64646 0.99839 0.80328
 C307 C 0.55021 0.95244 0.78653
 N308 N 0.58250 0.94846 0.76419
 C309 C 0.59285 0.91357 0.75003
 C310 C 0.57239 0.88060 0.76070
 C311 C 0.52882 0.92013 0.79794
 C312 C 0.61253 1.06938 0.74864
 C313 C 0.59786 1.10455 0.73562
 C314 C 0.53904 1.07217 0.71475
 C315 C 0.55478 1.03751 0.72855
 N316 N 0.59120 1.03673 0.74457
 H317 H 0.54208 0.98050 0.79701
 H318 H 0.61820 0.91078 0.73194
 H319 H 0.58242 0.85300 0.75048
 H320 H 0.50442 0.92375 0.81733
 H321 H 0.64167 1.06795 0.76083
 H322 H 0.61596 1.12989 0.73827
 H323 H 0.51054 1.07207 0.70093
 H324 H 0.53868 1.01107 0.72489
 C325 C 0.68396 1.02146 0.87110
 C326 C 0.68986 0.95282 0.64989
 C327 C 0.56103 1.10620 0.71755
 C328 C 0.54080 0.88341 0.78615
 C329 C 0.01780 0.20397 -0.19281
 H330 H 0.01546 0.23136 -0.20754
 C331 C 0.03186 0.17178 -0.21256
 H332 H 0.04038 0.17469 -0.24252
 C333 C 0.01078 0.16682 -0.13560
 H334 H 0.00329 0.16526 -0.10531
 C335 C 0.02384 0.13407 -0.15423
 H336 H 0.02626 0.10755 -0.13786
 N337 N 0.00824 0.20093 -0.15479
 C338 C -0.06168 0.29911 -0.14269
 H339 H -0.07999 0.28435 -0.12222
 C340 C -0.07586 0.33242 -0.16009
 H341 H -0.10515 0.34189 -0.15325
 C342 C -0.00079 0.30643 -0.17393
 H343 H 0.02872 0.29638 -0.17858
 C344 C -0.01369 0.34069 -0.19157
 H345 H 0.00583 0.35661 -0.21023
 Zn346 Zn -0.00782 0.24161 -0.12261
 N347 N -0.02502 0.28619 -0.15025
 C348 C 0.03070 0.28490 -0.06507
 N349 N 0.03497 0.25599 -0.09090
 C350 C 0.07066 0.24039 -0.09800
 C351 C 0.10409 0.25485 -0.07996
 C352 C 0.06344 0.30013 -0.04617
 C353 C -0.08058 0.20990 -0.11702
 C354 C -0.11439 0.19502 -0.10080
 C355 C -0.08458 0.20132 -0.03754
 C356 C -0.05157 0.21743 -0.05516
 N357 N -0.05045 0.22162 -0.09425
 H358 H 0.00209 0.29721 -0.06041
 H359 H 0.07364 0.21787 -0.11907
 H360 H 0.13229 0.24278 -0.08709
 H361 H 0.05957 0.32403 -0.02672
 H362 H -0.07849 0.21289 -0.14810
 H363 H -0.13783 0.18667 -0.12021
 H364 H -0.08468 0.19813 -0.00636
 H365 H -0.02685 0.22624 -0.03771
 C366 C -0.05188 0.35381 -0.18482
 C367 C 0.03526 0.13631 -0.19302
 C368 C -0.11701 0.19014 -0.06040
 C369 C 0.10090 0.28574 -0.05436
 C370 C 0.45843 0.21108 0.18089
 H371 H 0.44385 0.23835 0.18475
 C372 C 0.44447 0.17819 0.19963
 H373 H 0.41922 0.18055 0.21814
 C374 C 0.50770 0.17462 0.15031
 H375 H 0.53210 0.17317 0.13076
 C376 C 0.49440 0.14100 0.16800
 H377 H 0.50887 0.11407 0.16190
 N378 N 0.48896 0.20856 0.15612
 C379 C 0.52894 0.32517 0.13169
 H380 H 0.52488 0.32409 0.10066
 C381 C 0.54238 0.35872 0.14871
 H382 H 0.54896 0.38321 0.13042
 C383 C 0.52555 0.29397 0.19272
 H384 H 0.51883 0.26857 0.20957
 C385 C 0.53987 0.32699 0.21102
 H386 H 0.54420 0.32681 0.24206
 Zn387 Zn 0.50117 0.25152 0.12467
 N388 N 0.52031 0.29381 0.15368
 C389 C 0.43936 0.30226 0.11058
 N390 N 0.45394 0.26777 0.09936
 C391 C 0.43382 0.24557 0.07369
 C392 C 0.39902 0.25913 0.05657
 C393 C 0.40544 0.31698 0.09399
 C394 C 0.57839 0.24952 0.09906
 C395 C 0.61087 0.23516 0.07993
 C396 C 0.56777 0.19634 0.04094
 C397 C 0.53590 0.21168 0.06079
 N398 N 0.54173 0.23725 0.08986
 H399 H 0.45347 0.31853 0.13304
 H400 H 0.44437 0.21728 0.06667
 H401 H 0.38368 0.24161 0.03566
 H402 H 0.39503 0.34480 0.10324
 H403 H 0.58303 0.26876 0.12295
 H404 H 0.63968 0.24444 0.08902
 H405 H 0.56260 0.17475 0.01914
 H406 H 0.50689 0.20133 0.05444
 C407 C 0.54812 0.35999 0.18884
 C408 C 0.46181 0.14236 0.19231
 C409 C 0.60597 0.20728 0.05129
 C410 C 0.38505 0.29572 0.06621
 C411 C 0.97230 0.70813 0.69366
 H412 H 0.96163 0.73623 0.70157
 C413 C 0.96038 0.67569 0.71446
 H414 H 0.94052 0.67926 0.73839
 C415 C 1.00946 0.66940 0.65157
 H416 H 1.02817 0.66685 0.62677
 C417 C 0.99817 0.63623 0.67141
 H418 H 1.00839 0.60862 0.66142
 N419 N 0.99531 0.70432 0.66203
 C420 C 1.00020 0.82597 0.64958
 H421 H 0.97869 0.82776 0.62668
 C422 C 1.01307 0.85966 0.66706
 H423 H 1.00109 0.88687 0.65732
 C424 C 1.04268 0.78865 0.68910
 H425 H 1.05471 0.76088 0.69685
 C426 C 1.05633 0.82170 0.70752
 H427 H 1.07880 0.81897 0.72958
 Zn428 Zn 1.00408 0.74769 0.62959
 N429 N 1.01604 0.79149 0.65983
 C430 C 0.96119 0.78098 0.56799
 N431 N 0.95839 0.75795 0.59977
 C432 C 0.92311 0.74504 0.61223
 C433 C 0.88868 0.75727 0.59406
 C434 C 0.92747 0.79387 0.54888
 C435 C 1.08233 0.75250 0.60420
 C436 C 1.11500 0.74107 0.58333
 C437 C 1.07309 0.70094 0.54430
 C438 C 1.04119 0.71303 0.56610
 N439 N 1.04653 0.73741 0.59621
 H440 H 0.98959 0.79083 0.55862
 H441 H 0.92136 0.72649 0.63726
 H442 H 0.86090 0.74781 0.60547
 H443 H 0.93035 0.81351 0.52467
 H444 H 1.08605 0.77232 0.62775
 H445 H 1.14343 0.75229 0.59127
 H446 H 1.06844 0.68019 0.52157
 H447 H 1.01238 0.70165 0.56013
 C448 C 1.04236 0.85793 0.69564
 C449 C 0.97226 0.63898 0.70253
 C450 C 1.11081 0.71408 0.55367
 C451 C 0.89052 0.78295 0.56266
 C452 C 0.54394 0.70969 0.30766
 H453 H 0.55623 0.73769 0.30162
 C454 C 0.55860 0.67728 0.28899
 H455 H 0.58212 0.68074 0.26849
 C456 C 0.49964 0.67112 0.34303
 H457 H 0.47682 0.66858 0.36422
 C458 C 0.51355 0.63802 0.32528
 H459 H 0.50116 0.61050 0.33321
 N460 N 0.51601 0.70589 0.33520
 C461 C 0.50793 0.82684 0.34267
 H462 H 0.52959 0.82896 0.36536
 C463 C 0.49538 0.86025 0.32383
 H464 H 0.50776 0.88744 0.33269
 C465 C 0.46537 0.78904 0.30448
 H466 H 0.45325 0.76118 0.29768
 C467 C 0.45210 0.82173 0.28461
 H468 H 0.42985 0.81838 0.26246
 Zn469 Zn 0.50276 0.74894 0.36606
 N470 N 0.49162 0.79233 0.33398
 C471 C 0.53918 0.78610 0.42874
 N472 N 0.54511 0.76062 0.39974
 C473 C 0.58105 0.74519 0.39356
 C474 C 0.61331 0.75750 0.41500
 C475 C 0.57065 0.79909 0.45106
 C476 C 0.42286 0.75224 0.38755
 C477 C 0.38942 0.73973 0.40672
 C478 C 0.42995 0.69792 0.44606
 C479 C 0.46264 0.71116 0.42601
 N480 N 0.45840 0.73687 0.39648
 H481 H 0.51022 0.79760 0.43339
 H482 H 0.58520 0.72429 0.37112
 H483 H 0.64189 0.74591 0.40852
 H484 H 0.56554 0.82065 0.47285
 H485 H 0.42003 0.77330 0.36469
 H486 H 0.36128 0.75133 0.39809
 H487 H 0.43383 0.67624 0.46836
 H488 H 0.49130 0.69972 0.43288
 C489 C 0.46592 0.85831 0.29530
 C490 C 0.54426 0.64067 0.29875
 C491 C 0.39257 0.71140 0.43567
 C492 C 0.60853 0.78562 0.44345
 Si493 Si 0.37933 -0.00103 0.24642
 Si494 Si 0.12564 1.00144 0.74707
 Si495 Si 0.63195 0.49955 0.24820
 Si496 Si 0.87931 0.50248 0.75548
 Si497 Si 0.24327 0.37400 -0.00271
 Si498 Si 0.74419 0.11212 1.00360
 Si499 Si 0.24973 0.62834 0.49290
 Si500 Si 0.74731 0.86958 0.50904
 Si501 Si 0.01320 0.25556 0.36906
 Si502 Si 0.98924 0.76253 0.12595
 Si503 Si 0.51589 0.24872 0.62755
 Si504 Si 0.48525 0.74413 0.87359
 N505 N 0.41953 -0.10967 0.25337
 C506 C 0.44884 -0.10791 0.28008
 N507 N 0.45903 -0.07283 0.29405
 N508 N 0.44001 -0.04121 0.28281
 C509 C 0.41029 -0.04335 0.25681
 N510 N 0.40065 -0.07803 0.24198
 N511 N 0.89335 0.39498 0.79527
 C512 C 0.93260 0.38974 0.79781
 N513 N 0.95649 0.41881 0.78625
 N514 N 0.94149 0.45197 0.77326
 C515 C 0.90215 0.45701 0.77131
 N516 N 0.87845 0.42787 0.78218
 N517 N 0.07572 1.10597 0.75669
 C518 C 0.05307 1.10229 0.78861
 N519 N 0.05013 1.06715 0.80570
 N520 N 0.06974 1.03716 0.79215
 C521 C 0.09311 1.04117 0.76098
 N522 N 0.09547 1.07594 0.74319
 N523 N 0.55563 0.57061 0.30018
 C524 C 0.56306 0.60544 0.28378
 N525 N 0.59021 0.60758 0.25540
 N526 N 0.60938 0.57631 0.24419
 C527 C 0.60226 0.54176 0.26103
 N528 N 0.57492 0.53935 0.28908
 N529 N 0.58485 0.39365 0.24019
 C530 C 0.56435 0.39520 0.20642
 N531 N 0.56181 0.42934 0.18726
 N532 N 0.57978 0.46044 0.20071
 C533 C 0.60113 0.45854 0.23380
 N534 N 0.60305 0.42474 0.25353
 N535 N 0.05241 0.92811 0.69334
 C536 C 0.06017 0.89369 0.71061
 N537 N 0.08671 0.89250 0.74001
 N538 N 0.10497 0.92428 0.75136
 C539 C 0.09752 0.95841 0.73367
 N540 N 0.07077 0.95988 0.70461
 N541 N 0.95944 0.56912 0.70269
 C542 C 0.95456 0.60394 0.71960
 N543 N 0.92960 0.60661 0.74981
 N544 N 0.90957 0.57610 0.76185
 C545 C 0.91371 0.54171 0.74422
 N546 N 0.93932 0.53858 0.71470
 N547 N 0.41803 0.10774 0.23684
 C548 C 0.44437 0.10651 0.20772
 N549 N 0.45232 0.07201 0.19129
 N550 N 0.43427 0.04016 0.20315
 C551 C 0.40784 0.04165 0.23209
 N552 N 0.40019 0.07591 0.24883
 N553 N 0.25341 0.43587 -0.10217
 C554 C 0.29134 0.42977 -0.11212
 N555 N 0.31404 0.40791 -0.08831
 N556 N 0.29966 0.39255 -0.05620
 C557 C 0.26197 0.39848 -0.04632
 N558 N 0.23893 0.42043 -0.06980
 N559 N 0.80768 0.94246 0.44134
 C560 C 0.78836 0.94146 0.40687
 N561 N 0.75491 0.92062 0.40428
 N562 N 0.74195 0.90079 0.43469
 C563 C 0.76180 0.90131 0.46880
 N564 N 0.79460 0.92284 0.47177
 N565 N 0.79817 0.04330 1.08149
 C566 C 0.78498 0.05591 1.11621
 N567 N 0.75776 0.08440 1.11629
 N568 N 0.74482 0.09987 1.08325
 C569 C 0.75864 0.08757 1.04884
 N570 N 0.78542 0.05893 1.04847
 N571 N 0.25815 0.58489 0.60096
 C572 C 0.28642 0.55764 0.59843
 N573 N 0.30218 0.55051 0.56320
 N574 N 0.29064 0.57023 0.53196
 C575 C 0.26274 0.59770 0.53479
 N576 N 0.24650 0.60448 0.56973
 N577 N 0.18603 0.56294 0.42056
 C578 C 0.20473 0.56640 0.38616
 N579 N 0.23880 0.58635 0.38500
 N580 N 0.25297 0.60299 0.41672
 C581 C 0.23377 0.60005 0.45079
 N582 N 0.20029 0.57941 0.45229
 N583 N 0.73594 0.05591 0.90255
 C584 C 0.70074 0.03798 0.90436
 N585 N 0.68068 0.03941 0.93818
 N586 N 0.69447 0.05909 0.96824
 C587 C 0.72892 0.07806 0.96566
 N588 N 0.74966 0.07563 0.93254
 N589 N 0.69060 0.94225 0.57940
 C590 C 0.70665 0.93516 0.61483
 N591 N 0.73636 0.90935 0.61766
 N592 N 0.74912 0.89108 0.58647
 C593 C 0.73257 0.89786 0.55133
 N594 N 0.70328 0.92392 0.54823
 N595 N 0.23470 0.42453 0.10102
 C596 C 0.20460 0.44965 0.09692
 N597 N 0.18736 0.45355 0.06149
 N598 N 0.19937 0.43268 0.03161
 C599 C 0.22911 0.40723 0.03615
 N600 N 0.24667 0.40377 0.07125
 N601 N -0.06160 0.33041 0.41705
 C602 C -0.08363 0.30847 0.44113
 N603 N -0.07393 0.27084 0.44587
 N604 N -0.04408 0.25569 0.42657
 C605 C -0.02284 0.27761 0.40183
 N606 N -0.03192 0.31528 0.39771
 N607 N 0.41922 0.80156 0.94973
 C608 C 0.38288 0.78653 0.94476
 N609 N 0.37829 0.75689 0.91978
 N610 N 0.40862 0.74331 0.90016
 C611 C 0.44463 0.75892 0.90474
 N612 N 0.44951 0.78806 0.93004
 N613 N 1.09571 0.77127 0.07778
 C614 C 1.09348 0.80402 0.05631
 N615 N 1.05878 0.82306 0.05446
 N616 N 1.02781 0.81023 0.07375
 C617 C 1.03045 0.77793 0.09567
 N618 N 1.06478 0.75849 0.09711
 N619 N 0.59221 0.28210 0.54507
 C620 C 0.62642 0.28638 0.56489
 N621 N 0.62703 0.27813 0.60334
 N622 N 0.59478 0.26649 0.62128
 C623 C 0.56072 0.26242 0.60145
 N624 N 0.55998 0.27017 0.56298
 N625 N 0.44450 0.18609 0.56016
 C626 C 0.41059 0.20646 0.55951
 N627 N 0.41011 0.24179 0.57584
 N628 N 0.44190 0.25546 0.59349
 C629 C 0.47542 0.23456 0.59497
 N630 N 0.47634 0.19991 0.57748
 N631 N 0.88038 0.75041 0.08216
 C632 C 0.88441 0.72197 0.05576
 N633 N 0.92074 0.70767 0.04928
 N634 N 0.95160 0.72068 0.06882
 C635 C 0.94733 0.74857 0.09553
 N636 N 0.91130 0.76349 0.10167
 N637 N 0.55829 0.69045 0.94822
 C638 C 0.59340 0.70757 0.94198
 N639 N 0.59509 0.73724 0.91630
 N640 N 0.56317 0.74886 0.89723
 C641 C 0.52838 0.73124 0.90314
 N642 N 0.52639 0.70206 0.92916
 N643 N 0.12411 0.23276 0.40326
 C644 C 0.12027 0.20715 0.43271
 N645 N 0.08360 0.19656 0.44349
 N646 N 0.05216 0.21088 0.42540
 C647 C 0.05625 0.23644 0.39594
 N648 N 0.09274 0.24707 0.38533
 N649 N 0.51554 0.14263 0.67532
 C650 C 0.54739 0.14242 0.69899
 N651 N 0.56831 0.17541 0.70274
 N652 N 0.55824 0.20704 0.68312
 C653 C 0.52690 0.20683 0.65893
 N654 N 0.50555 0.17421 0.65565
 N655 N 0.99929 0.65517 0.16939
 C656 C 1.03353 0.65630 0.18948
 N657 N 1.05265 0.69035 0.19240
 N658 N 1.03858 0.72185 0.17531
 C659 C 1.00498 0.72041 0.15444
 N660 N 0.98533 0.68668 0.15206
 N661 N 0.98369 0.86519 0.17890
 C662 C 0.95162 0.86205 0.20163
 N663 N 0.93227 0.82798 0.20267
 N664 N 0.94408 0.79846 0.18147
 C665 C 0.97555 0.80200 0.15824
 N666 N 0.99542 0.83568 0.15756
 N667 N 0.44809 0.31696 0.69189
 C668 C 0.46472 0.35223 0.68847
 N669 N 0.49902 0.35541 0.66913
 N670 N 0.51535 0.32473 0.65294
 C671 C 0.49813 0.28975 0.65583
 N672 N 0.46446 0.28633 0.67588
 N673 N 0.45376 0.66982 0.78938
 C674 C 0.44980 0.63597 0.80888
 N675 N 0.45665 0.63540 0.84760
 N676 N 0.46695 0.66721 0.86611
 C677 C 0.47096 0.70084 0.84665
 N678 N 0.46437 0.70168 0.80792
 N679 N -0.06606 0.17590 0.33928
 C680 C -0.04728 0.15318 0.31363
 N681 N -0.01033 0.16277 0.30302
 N682 N 0.00729 0.19345 0.31816
 C683 C -0.01157 0.21566 0.34420
 N684 N -0.04858 0.20651 0.35421
 N685 N 0.01579 0.34749 0.29664
 C686 C 0.05447 0.35642 0.29563
 N687 N 0.08026 0.33246 0.31348
 N688 N 0.06802 0.30169 0.33273
 C689 C 0.02951 0.29339 0.33490
 N690 N 0.00352 0.31650 0.31602
 N691 N 0.53995 0.81331 0.79738
 C692 C 0.52339 0.84828 0.80330
 N693 N 0.49322 0.85076 0.82848
 N694 N 0.48074 0.81977 0.84750
 C695 C 0.49795 0.78515 0.84211
 N696 N 0.52753 0.78233 0.81646
 N697 N 0.67239 0.51089 0.13970
 C698 C 0.69826 0.54046 0.14188
 N699 N 0.70657 0.55505 0.17747
 N700 N 0.68878 0.54179 0.20901
 C701 C 0.66226 0.51306 0.20631
 N702 N 0.65475 0.49753 0.17123
 N703 N 0.19797 1.06177 0.67859
 C704 C 0.19648 1.04311 0.64422
 N705 N 0.17473 1.01059 0.64167
 N706 N 0.15478 0.99771 0.67208
 C707 C 0.15597 1.01682 0.70610
 N708 N 0.17815 1.04885 0.70898
 N709 N 0.20229 0.94920 0.81921
 C710 C 0.19485 0.96517 0.85426
 N711 N 0.16848 0.99439 0.85565
 N712 N 0.14961 1.00616 0.82391
 C713 C 0.15636 0.98929 0.78942
 N714 N 0.18335 0.96092 0.78746
 N715 N 0.70304 0.43982 0.31989
 C716 C 0.69945 0.45789 0.35440
 N717 N 0.67713 0.49014 0.35597
 N718 N 0.65856 0.50325 0.32452
 C719 C 0.66179 0.48472 0.29033
 N720 N 0.68458 0.45298 0.28845
 N721 N 0.80286 0.45505 0.68055
 C722 C 0.81402 0.46922 0.64559
 N723 N 0.84341 0.49541 0.64451
 N724 N 0.86127 0.50649 0.67691
 C725 C 0.85053 0.49171 0.71161
 N726 N 0.82085 0.46601 0.71294
 N727 N 0.30118 -0.05608 0.17928
 C728 C 0.30383 -0.03770 0.14457
 N729 N 0.32699 -0.00614 0.14197
 N730 N 0.34741 0.00588 0.17251
 C731 C 0.34533 -0.01310 0.20680
 N732 N 0.32158 -0.04405 0.20982
 N733 N 0.30069 0.02722 0.32873
 C734 C 0.32413 0.03691 0.35910
 N735 N 0.36337 0.03284 0.35541
 N736 N 0.37875 0.02040 0.32267
 C737 C 0.35556 0.01155 0.29219
 N738 N 0.31618 0.01478 0.29574
 N739 N 0.82799 0.51394 0.85938
 C740 C 0.80699 0.54692 0.85577
 N741 N 0.80627 0.56518 0.82087
 N742 N 0.82618 0.55142 0.79105
 C743 C 0.84759 0.51886 0.79502
 N744 N 0.84795 0.50022 0.82958
 N745 N 0.18195 0.70291 0.55058
 C746 C 0.14572 0.69718 0.53526
 N747 N 0.14187 0.67268 0.50510
 N748 N 0.17279 0.65410 0.49139
 C749 C 0.20869 0.65925 0.50735
 N750 N 0.21287 0.68422 0.53695
 N751 N 0.67683 0.19428 1.05019
 C752 C 0.64054 0.18709 1.03567
 N753 N 0.63636 0.15856 1.00938
 N754 N 0.66704 0.13768 0.99867
 C755 C 0.70299 0.14450 1.01389
 N756 N 0.70747 0.17336 1.03956
 N757 N 0.81882 0.16652 0.93275
 C758 C 0.85050 0.17447 0.95533
 N759 N 0.84875 0.16530 0.99364
 N760 N 0.81732 0.14798 1.00823
 C761 C 0.78615 0.13980 0.98524
 N762 N 0.78730 0.14973 0.94740
 N763 N 0.35980 0.66775 0.48176
 C764 C 0.35702 0.69404 0.45264
 N765 N 0.32114 0.70179 0.43730
 N766 N 0.28950 0.68356 0.45005
 C767 C 0.29255 0.65700 0.47873
 N768 N 0.32814 0.64960 0.49460
 N769 N 0.63875 0.82787 0.49231
 C770 C 0.64306 0.80291 0.46262
 N771 N 0.67955 0.79662 0.44871
 N772 N 0.71032 0.81503 0.46334
 C773 C 0.70577 0.84026 0.49259
 N774 N 0.66955 0.84617 0.50705
 N775 N 0.13372 0.33268 -0.01192
 C776 C 0.13649 0.30467 -0.03889
 N777 N 0.17234 0.29637 -0.05345
 N778 N 0.20395 0.31567 -0.04200
 C779 C 0.20089 0.34386 -0.01540
 N780 N 0.16533 0.35186 -0.00039
 N781 N 0.32010 0.29170 0.03356
 C782 C 0.35025 0.31313 0.04757
 N783 N 0.34757 0.35193 0.04554
 N784 N 0.31614 0.36880 0.03047
 C785 C 0.28585 0.34766 0.01711
 N786 N 0.28829 0.30873 0.01861
 N787 N 0.81925 0.79468 0.56377
 C788 C 0.85441 0.80072 0.54665
 N789 N 0.85624 0.82602 0.51665
 N790 N 0.82449 0.84495 0.50474
 C791 C 0.78969 0.83938 0.52238
 N792 N 0.78747 0.81367 0.55188
   
