data_POSCAR
  _audit_creation_date              2014-09-24
  _audit_creation_method            'ToBaCCo'
  _symmetry_space_group_name_H-M    'P1'
  _symmetry_Int_Tables_number       1
  _symmetry_cell_setting            triclinic
  loop_
  _symmetry_equiv_pos_as_xyz
 x,y,z
_cell_length_a 45.2279
_cell_length_b 45.2432
_cell_length_c 45.2576
_cell_angle_alpha 90.011000
_cell_angle_beta 90.026200
_cell_angle_gamma 89.982000
loop_
  _atom_site_label
  _atom_site_type_symbol
  _atom_site_fract_x
  _atom_site_fract_y
  _atom_site_fract_z
C1 C 0.28750 0.32583 0.01445
 C2 C 0.28751 0.32588 -0.01673
 C3 C 0.30640 0.30671 -0.03210
 C4 C 0.32549 0.28771 -0.01675
 C5 C 0.32543 0.28766 0.01443
 C6 C 0.30634 0.30662 0.02976
 H7 H 0.30651 0.30677 0.05374
 H8 H 0.30661 0.30694 -0.05610
 C9 C 0.71191 0.67477 0.01481
 C10 C 0.71193 0.67490 -0.01631
 C11 C 0.69297 0.69403 -0.03162
 C12 C 0.67378 0.71287 -0.01620
 C13 C 0.67379 0.71274 0.01498
 C14 C 0.69296 0.69379 0.03024
 H15 H 0.69278 0.69349 0.05421
 H16 H 0.69285 0.69387 -0.05560
 C17 C 0.71241 0.32614 0.98435
 C18 C 0.71246 0.32614 1.01553
 C19 C 0.69353 0.30700 1.03089
 C20 C 0.67438 0.28812 1.01553
 C21 C 0.67434 0.28813 0.98440
 C22 C 0.69344 0.30703 0.96903
 H23 H 0.69320 0.30721 0.94506
 H24 H 0.69331 0.30712 1.05487
 C25 C 0.28710 0.67492 0.98608
 C26 C 0.28705 0.67489 1.01726
 C27 C 0.30594 0.69404 1.03267
 C28 C 0.32507 0.71300 1.01736
 C29 C 0.32507 0.71303 0.98618
 C30 C 0.30598 0.69410 0.97081
 H31 H 0.30620 0.69393 0.94683
 H32 H 0.30611 0.69382 1.05667
 C33 C 0.01593 0.28692 0.32484
 C34 C -0.01522 0.28677 0.32468
 C35 C -0.03060 0.30559 0.30549
 C36 C -0.01525 0.32477 0.28666
 C37 C 0.01590 0.32491 0.28681
 C38 C 0.03129 0.30588 0.30580
 H39 H 0.05527 0.30620 0.30612
 H40 H -0.05458 0.30568 0.30557
 C41 C 0.01518 0.71242 0.67441
 C42 C -0.01602 0.71237 0.67429
 C43 C -0.03141 0.69341 0.69336
 C44 C -0.01606 0.67431 0.71235
 C45 C 0.01513 0.67441 0.71246
 C46 C 0.03049 0.69356 0.69360
 H47 H 0.05448 0.69342 0.69351
 H48 H -0.05542 0.69318 0.69308
 C49 C 0.98506 0.71180 0.32527
 C50 C 1.01620 0.71183 0.32526
 C51 C 1.03160 0.69297 0.30612
 C52 C 1.01626 0.67385 0.28716
 C53 C 0.98505 0.67384 0.28716
 C54 C 0.96970 0.69292 0.30612
 H55 H 0.94572 0.69272 0.30633
 H56 H 1.05560 0.69287 0.30638
 C57 C 0.98507 0.28721 0.67385
 C58 C 1.01627 0.28721 0.67392
 C59 C 1.03158 0.30616 0.69308
 C60 C 1.01616 0.32528 0.71192
 C61 C 0.98502 0.32529 0.71184
 C62 C 0.96969 0.30616 0.69292
 H63 H 0.94570 0.30637 0.69268
 H64 H 1.05558 0.30641 0.69302
 C65 C 0.32573 0.01454 0.28813
 C66 C 0.32578 -0.01665 0.28817
 C67 C 0.30670 -0.03199 0.30716
 C68 C 0.28781 -0.01661 0.32632
 C69 C 0.28780 0.01457 0.32626
 C70 C 0.30665 0.02989 0.30707
 H71 H 0.30681 0.05387 0.30722
 H72 H 0.30691 -0.05600 0.30738
 C73 C 0.67450 0.01551 0.71279
 C74 C 0.67459 -0.01563 0.71295
 C75 C 0.69374 -0.03105 0.69413
 C76 C 0.71262 -0.01575 0.67495
 C77 C 0.71254 0.01539 0.67481
 C78 C 0.69359 0.03081 0.69383
 H79 H 0.69334 0.05479 0.69351
 H80 H 0.69360 -0.05503 0.69405
 C81 C 0.32537 0.98574 0.71302
 C82 C 0.32539 1.01693 0.71296
 C83 C 0.30628 1.03226 0.69396
 C84 C 0.28738 1.01686 0.67481
 C85 C 0.28740 0.98567 0.67488
 C86 C 0.30628 0.97038 0.69409
 H87 H 0.30647 0.94639 0.69395
 H88 H 0.30647 1.05626 0.69373
 C89 C 0.67475 0.98442 0.28778
 C90 C 0.67480 1.01555 0.28775
 C91 C 0.69395 1.03092 0.30661
 C92 C 0.71289 1.01556 0.32575
 C93 C 0.71285 0.98437 0.32576
 C94 C 0.69387 0.96905 0.30667
 H95 H 0.69363 0.94507 0.30688
 H96 H 0.69372 1.05491 0.30671
 O97 O 0.89010 0.84808 0.47169
 O98 O 0.84933 0.88889 0.52919
 O99 O 0.89007 0.84806 0.52921
 O100 O 0.84935 0.88889 0.47168
 O101 O 0.81477 0.85434 0.47165
 O102 O 0.85544 0.81356 0.52913
 O103 O 0.81474 0.85434 0.52911
 O104 O 0.85548 0.81358 0.47166
 Cu105 Cu 0.87321 0.87197 0.50045
 Cu106 Cu 0.83162 0.83047 0.50039
 C107 C 0.87970 0.82390 0.46203
 C108 C 0.82510 0.87854 0.53879
 C109 C 0.87966 0.82387 0.53882
 C110 C 0.82514 0.87854 0.46202
 O111 O 0.15155 0.11056 0.52959
 O112 O 0.11073 0.15113 0.47191
 O113 O 0.15152 0.11036 0.47208
 O114 O 0.11072 0.15131 0.52944
 O115 O 0.14529 0.18586 0.52932
 O116 O 0.18606 0.14495 0.47200
 O117 O 0.14531 0.18568 0.47184
 O118 O 0.18608 0.14515 0.52947
 Cu119 Cu 0.12764 0.12735 0.50077
 Cu120 Cu 0.16917 0.16890 0.50065
 C121 C 0.17576 0.12098 0.53919
 C122 C 0.12111 0.17530 0.46220
 C123 C 0.17572 0.12071 0.46242
 C124 C 0.12109 0.17555 0.53899
 O125 O 0.11086 0.84887 0.52863
 O126 O 0.15182 0.88954 0.47116
 O127 O 0.11105 0.84875 0.47111
 O128 O 0.15158 0.88970 0.52868
 O129 O 0.18618 0.85515 0.52888
 O130 O 0.14568 0.81423 0.47136
 O131 O 0.18641 0.85498 0.47141
 O132 O 0.14550 0.81436 0.52882
 Cu133 Cu 0.12783 0.87270 0.49987
 Cu134 Cu 0.16943 0.83120 0.50014
 C135 C 0.12124 0.82470 0.53836
 C136 C 0.17608 0.87915 0.46165
 C137 C 0.12149 0.82452 0.46159
 C138 C 0.17577 0.87937 0.53843
 O139 O 0.88967 0.15043 0.52810
 O140 O 0.84878 0.10958 0.47069
 O141 O 0.88963 0.15027 0.47060
 O142 O 0.84886 0.10971 0.52821
 O143 O 0.81434 0.14435 0.52812
 O144 O 0.85508 0.18487 0.47056
 O145 O 0.81427 0.14422 0.47066
 O146 O 0.85512 0.18502 0.52802
 Cu147 Cu 0.87272 0.12650 0.49940
 Cu148 Cu 0.83122 0.16811 0.49933
 C149 C 0.87933 0.17467 0.53768
 C150 C 0.82458 0.11998 0.46104
 C151 C 0.87927 0.17447 0.46093
 C152 C 0.82468 0.12016 0.53783
 O153 O 0.47104 0.89001 0.84981
 O154 O 0.52856 0.84898 0.89042
 O155 O 0.52859 0.88978 0.84972
 O156 O 0.47101 0.84924 0.89058
 O157 O 0.47081 0.81471 0.85599
 O158 O 0.52834 0.85521 0.81517
 O159 O 0.52831 0.81445 0.85583
 O160 O 0.47084 0.85543 0.81526
 Cu161 Cu 0.49982 0.87299 0.87363
 Cu162 Cu 0.49955 0.83147 0.83208
 C163 C 0.46131 0.87968 0.82562
 C164 C 0.53809 0.82474 0.88000
 C165 C 0.53812 0.87937 0.82550
 C166 C 0.46126 0.82508 0.88022
 O167 O 0.52850 0.15116 0.11039
 O168 O 0.47104 0.11024 0.15113
 O169 O 0.47095 0.15098 0.11032
 O170 O 0.52860 0.11039 0.15114
 O171 O 0.52845 0.14500 0.18566
 O172 O 0.47086 0.18555 0.14487
 O173 O 0.47096 0.14485 0.18565
 O174 O 0.52835 0.18572 0.14495
 Cu175 Cu 0.49978 0.12720 0.12726
 Cu176 Cu 0.49964 0.16876 0.16876
 C177 C 0.53806 0.17540 0.12076
 C178 C 0.46138 0.12060 0.17532
 C179 C 0.46125 0.17517 0.12066
 C180 C 0.53819 0.12081 0.17534
 O181 O 0.52799 0.11086 0.84874
 O182 O 0.47045 0.15179 0.88937
 O183 O 0.47043 0.11098 0.84865
 O184 O 0.52801 0.15168 0.88945
 O185 O 0.52807 0.18619 0.85485
 O186 O 0.47055 0.14552 0.81408
 O187 O 0.47057 0.18630 0.85476
 O188 O 0.52806 0.14540 0.81417
 Cu189 Cu 0.49921 0.12784 0.87255
 Cu190 Cu 0.49932 0.16933 0.83098
 C191 C 0.53768 0.12120 0.82455
 C192 C 0.46086 0.17600 0.87896
 C193 C 0.46084 0.12135 0.82443
 C194 C 0.53769 0.17586 0.87907
 O195 O 0.47024 0.84867 0.11125
 O196 O 0.52793 0.88948 0.15180
 O197 O 0.52779 0.84875 0.11100
 O198 O 0.47037 0.88940 0.15205
 O199 O 0.47062 0.85478 0.18654
 O200 O 0.52799 0.81417 0.14553
 O201 O 0.52812 0.85486 0.18629
 O202 O 0.47049 0.81409 0.14578
 Cu203 Cu 0.49906 0.87257 0.12804
 Cu204 Cu 0.49933 0.83099 0.16951
 C205 C 0.46069 0.82444 0.12164
 C206 C 0.53770 0.87908 0.17594
 C207 C 0.53752 0.82455 0.12130
 C208 C 0.46087 0.87898 0.17627
 O209 O 0.84902 0.47177 0.88868
 O210 O 0.88979 0.52925 0.84784
 O211 O 0.84899 0.52930 0.88858
 O212 O 0.88982 0.47170 0.84795
 O213 O 0.85524 0.47165 0.81339
 O214 O 0.81445 0.52920 0.85398
 O215 O 0.85521 0.52915 0.81328
 O216 O 0.81447 0.47172 0.85408
 Cu217 Cu 0.87290 0.50052 0.87175
 Cu218 Cu 0.83136 0.50042 0.83019
 C219 C 0.82481 0.46212 0.87831
 C220 C 0.87941 0.53884 0.82362
 C221 C 0.82477 0.53889 0.87817
 C222 C 0.87945 0.46202 0.82376
 O223 O 0.15138 0.47194 0.11020
 O224 O 0.11058 0.52928 0.15122
 O225 O 0.15138 0.52948 0.11050
 O226 O 0.11062 0.47175 0.15094
 O227 O 0.14521 0.47161 0.18549
 O228 O 0.18593 0.52928 0.14510
 O229 O 0.14516 0.52909 0.18577
 O230 O 0.18594 0.47180 0.14479
 Cu231 Cu 0.12750 0.50063 0.12722
 Cu232 Cu 0.16905 0.50043 0.16877
 C233 C 0.17559 0.46225 0.12054
 C234 C 0.12095 0.53880 0.17546
 C235 C 0.17558 0.53906 0.12095
 C236 C 0.12101 0.46200 0.17509
 O237 O 0.84861 0.52844 0.10952
 O238 O 0.88942 0.47082 0.15017
 O239 O 0.84855 0.47090 0.10948
 O240 O 0.88945 0.52836 0.15025
 O241 O 0.85491 0.52833 0.18483
 O242 O 0.81405 0.47093 0.14410
 O243 O 0.85489 0.47085 0.18475
 O244 O 0.81411 0.52842 0.14414
 Cu245 Cu 0.87249 0.49963 0.12636
 Cu246 Cu 0.83101 0.49964 0.16794
 C247 C 0.82442 0.53808 0.11993
 C248 C 0.87908 0.46118 0.17437
 C249 C 0.82435 0.46128 0.11988
 C250 C 0.87911 0.53797 0.17448
 O251 O 0.11087 0.47116 0.84893
 O252 O 0.15141 0.52865 0.88998
 O253 O 0.11070 0.52868 0.84913
 O254 O 0.15163 0.47111 0.88973
 O255 O 0.18623 0.47138 0.85520
 O256 O 0.14534 0.52889 0.81466
 O257 O 0.18601 0.52887 0.85547
 O258 O 0.14550 0.47142 0.81445
 Cu259 Cu 0.12766 0.49988 0.87293
 Cu260 Cu 0.16926 0.50016 0.83147
 C261 C 0.12131 0.46165 0.82471
 C262 C 0.17560 0.53840 0.87969
 C263 C 0.12108 0.53843 0.82499
 C264 C 0.17589 0.46159 0.87934
 C265 C 0.26912 0.34593 0.03116
 C266 C 0.25407 0.36303 0.04498
 C267 C 0.23677 0.38340 0.06107
 C268 C 0.22229 0.40108 0.07477
 C269 C 0.20567 0.42209 0.09076
 C270 C 0.19177 0.44029 0.10438
 C271 C 0.73041 0.65463 0.03129
 C272 C 0.74557 0.63750 0.04497
 C273 C 0.76298 0.61710 0.06091
 C274 C 0.77755 0.59940 0.07449
 C275 C 0.79425 0.57835 0.09037
 C276 C 0.80820 0.56011 0.10389
 C277 C 0.73086 0.34616 0.96764
 C278 C 0.74598 0.36319 0.95382
 C279 C 0.76337 0.38347 0.93772
 C280 C 0.77793 0.40107 0.92403
 C281 C 0.79463 0.42202 0.90804
 C282 C 0.80859 0.44018 0.89444
 C283 C 0.26875 0.65483 0.96934
 C284 C 0.25373 0.63773 0.95547
 C285 C 0.23649 0.61735 0.93932
 C286 C 0.22207 0.59967 0.92558
 C287 C 0.20553 0.57863 0.90954
 C288 C 0.19170 0.56041 0.89588
 C289 C 0.03248 0.26858 0.34507
 C290 C 0.04618 0.25355 0.36229
 C291 C 0.06212 0.23627 0.38281
 C292 C 0.07568 0.22182 0.40062
 C293 C 0.09153 0.20524 0.42178
 C294 C 0.10505 0.19140 0.44010
 C295 C 0.03190 0.73088 0.65440
 C296 C 0.04573 0.74600 0.63738
 C297 C 0.06181 0.76338 0.61708
 C298 C 0.07549 0.77793 0.59946
 C299 C 0.09147 0.79460 0.57849
 C300 C 0.10508 0.80853 0.56032
 C301 C 0.96850 0.73020 0.34541
 C302 C 0.95478 0.74529 0.36256
 C303 C 0.93880 0.76263 0.38299
 C304 C 0.92520 0.77714 0.40071
 C305 C 0.90931 0.79379 0.42177
 C306 C 0.89577 0.80770 0.44001
 C307 C 0.96841 0.26874 0.65380
 C308 C 0.95464 0.25359 0.63674
 C309 C 0.93861 0.23618 0.61642
 C310 C 0.92497 0.22160 0.59879
 C311 C 0.90903 0.20487 0.57781
 C312 C 0.89545 0.19090 0.55964
 C313 C 0.34570 0.03123 0.26959
 C314 C 0.36267 0.04504 0.25439
 C315 C 0.38289 0.06113 0.23692
 C316 C 0.40045 0.07482 0.22230
 C317 C 0.42134 0.09081 0.20554
 C318 C 0.43946 0.10444 0.19156
 C319 C 0.65434 0.03211 0.73115
 C320 C 0.63718 0.04587 0.74619
 C321 C 0.61675 0.06189 0.76348
 C322 C 0.59902 0.07553 0.77795
 C323 C 0.57795 0.09148 0.79455
 C324 C 0.55970 0.10506 0.80842
 C325 C 0.34537 0.96907 0.73155
 C326 C 0.36238 0.95527 0.74674
 C327 C 0.38265 0.93920 0.76419
 C328 C 0.40025 0.92551 0.77878
 C329 C 0.42120 0.90951 0.79550
 C330 C 0.43936 0.89588 0.80945
 C331 C 0.65457 0.96788 0.26938
 C332 C 0.63739 0.95417 0.25431
 C333 C 0.61693 0.93821 0.23700
 C334 C 0.59917 0.92461 0.22252
 C335 C 0.57806 0.90872 0.20592
 C336 C 0.55977 0.89517 0.19205
 C337 C 0.34450 0.27020 0.96760
 C338 C 0.36158 0.25502 0.95389
 C339 C 0.38194 0.23758 0.93793
 C340 C 0.39961 0.22298 0.92435
 C341 C 0.42064 0.20625 0.90849
 C342 C 0.43886 0.19226 0.89499
 C343 C 0.65471 0.73037 0.96820
 C344 C 0.63757 0.74557 0.95456
 C345 C 0.61716 0.76304 0.93870
 C346 C 0.59944 0.77767 0.92520
 C347 C 0.57837 0.79444 0.90943
 C348 C 0.56011 0.80846 0.89599
 C349 C 0.34409 0.73047 0.03305
 C350 C 0.36119 0.74562 0.04677
 C351 C 0.38158 0.76302 0.06274
 C352 C 0.39929 0.77759 0.07631
 C353 C 0.42036 0.79428 0.09215
 C354 C 0.43863 0.80823 0.10563
 C355 C 0.65430 0.26963 0.03207
 C356 C 0.63722 0.25446 0.04577
 C357 C 0.61687 0.23701 0.06172
 C358 C 0.59921 0.22241 0.07530
 C359 C 0.57822 0.20565 0.09117
 C360 C 0.56003 0.19166 0.10470
 C361 C 0.26991 0.03248 0.65573
 C362 C 0.25474 0.04616 0.63861
 C363 C 0.23730 0.06208 0.61822
 C364 C 0.22270 0.07564 0.60052
 C365 C 0.20597 0.09147 0.57947
 C366 C 0.19199 0.10496 0.56123
 C367 C 0.73040 0.03122 0.34476
 C368 C 0.74559 0.04493 0.36183
 C369 C 0.76304 0.06089 0.38218
 C370 C 0.77764 0.07448 0.39985
 C371 C 0.79437 0.09036 0.42086
 C372 C 0.80834 0.10390 0.43907
 C373 C 0.73111 0.96763 0.65493
 C374 C 0.74626 0.95386 0.63788
 C375 C 0.76367 0.93782 0.61757
 C376 C 0.77824 0.92417 0.59993
 C377 C 0.79494 0.90823 0.57895
 C378 C 0.80888 0.89465 0.56076
 C379 C 0.27035 0.96775 0.34538
 C380 C 0.25518 0.95405 0.36247
 C381 C 0.23774 0.93811 0.38283
 C382 C 0.22313 0.92455 0.40049
 C383 C 0.20636 0.90870 0.42149
 C384 C 0.19236 0.89519 0.43968
 C385 C 0.03267 0.34538 0.73042
 C386 C 0.04637 0.36247 0.74560
 C387 C 0.06233 0.38283 0.76304
 C388 C 0.07592 0.40049 0.77764
 C389 C 0.09179 0.42148 0.79439
 C390 C 0.10530 0.43968 0.80840
 C391 C 0.03194 0.65486 0.26967
 C392 C 0.04570 0.63781 0.25449
 C393 C 0.06172 0.61750 0.23706
 C394 C 0.07536 0.59987 0.22247
 C395 C 0.09129 0.57890 0.20574
 C396 C 0.10485 0.56073 0.19175
 C397 C 0.96817 0.34483 0.26816
 C398 C 0.95442 0.36190 0.25301
 C399 C 0.93839 0.38225 0.23563
 C400 C 0.92474 0.39992 0.22109
 C401 C 0.90878 0.42094 0.20444
 C402 C 0.89520 0.43917 0.19053
 C403 C 0.96826 0.65526 0.72977
 C404 C 0.95453 0.63814 0.74488
 C405 C 0.93854 0.61776 0.76225
 C406 C 0.92493 0.60007 0.77679
 C407 C 0.90903 0.57905 0.79347
 C408 C 0.89549 0.56083 0.80741
 C409 C 0.73046 0.65491 0.96709
 C410 C 0.74567 0.63790 0.95333
 C411 C 0.76314 0.61762 0.93731
 C412 C 0.77776 0.60002 0.92368
 C413 C 0.79452 0.57906 0.90777
 C414 C 0.80852 0.56088 0.89423
 C415 C 0.27006 0.34496 0.96764
 C416 C 0.25489 0.36209 0.95397
 C417 C 0.23746 0.38251 0.93808
 C418 C 0.22286 0.40023 0.92457
 C419 C 0.20612 0.42130 0.90878
 C420 C 0.19214 0.43956 0.89533
 C421 C 0.26959 0.65582 0.03285
 C422 C 0.25442 0.63869 0.04649
 C423 C 0.23700 0.61827 0.06235
 C424 C 0.22243 0.60053 0.07584
 C425 C 0.20572 0.57943 0.09159
 C426 C 0.19178 0.56114 0.10501
 C427 C 0.72999 0.34512 0.03118
 C428 C 0.74521 0.36217 0.04489
 C429 C 0.76269 0.38250 0.06084
 C430 C 0.77732 0.40014 0.07442
 C431 C 0.79409 0.42112 0.09028
 C432 C 0.80809 0.43931 0.10381
 C433 C 0.96834 0.72983 0.65523
 C434 C 0.95464 0.74499 0.63813
 C435 C 0.93868 0.76240 0.61775
 C436 C 0.92510 0.77698 0.60007
 C437 C 0.90924 0.79369 0.57904
 C438 C 0.89571 0.80765 0.56082
 C439 C 0.96823 0.26826 0.34470
 C440 C 0.95450 0.25310 0.36175
 C441 C 0.93850 0.23570 0.38207
 C442 C 0.92487 0.22116 0.39971
 C443 C 0.90894 0.20450 0.42071
 C444 C 0.89537 0.19061 0.43892
 C445 C 0.03199 0.26971 0.65496
 C446 C 0.04577 0.25454 0.63793
 C447 C 0.06181 0.23711 0.61765
 C448 C 0.07546 0.22252 0.60003
 C449 C 0.09141 0.20579 0.57908
 C450 C 0.10498 0.19181 0.56092
 C451 C 0.03274 0.73032 0.34535
 C452 C 0.04646 0.74548 0.36243
 C453 C 0.06245 0.76291 0.38277
 C454 C 0.07606 0.77750 0.40042
 C455 C 0.09194 0.79424 0.42141
 C456 C 0.10546 0.80824 0.43961
 C457 C 0.65452 0.96788 0.73146
 C458 C 0.63743 0.95420 0.74663
 C459 C 0.61707 0.93827 0.76405
 C460 C 0.59939 0.92470 0.77862
 C461 C 0.57837 0.90886 0.79532
 C462 C 0.56013 0.89537 0.80928
 C463 C 0.34475 0.96768 0.27066
 C464 C 0.36180 0.95396 0.25545
 C465 C 0.38211 0.93799 0.23799
 C466 C 0.39975 0.92440 0.22336
 C467 C 0.42073 0.90853 0.20659
 C468 C 0.43891 0.89502 0.19257
 C469 C 0.65469 0.03210 0.26928
 C470 C 0.63759 0.04582 0.25414
 C471 C 0.61720 0.06180 0.23675
 C472 C 0.59951 0.07540 0.22219
 C473 C 0.57847 0.09127 0.20550
 C474 C 0.56023 0.10479 0.19156
 C475 C 0.34440 0.03261 0.73044
 C476 C 0.36148 0.04634 0.74560
 C477 C 0.38185 0.06232 0.76301
 C478 C 0.39953 0.07591 0.77758
 C479 C 0.42057 0.09178 0.79428
 C480 C 0.43881 0.10530 0.80822
 C481 C 0.65371 0.73109 0.03173
 C482 C 0.63664 0.74613 0.04559
 C483 C 0.61630 0.76342 0.06173
 C484 C 0.59866 0.77790 0.07545
 C485 C 0.57767 0.79452 0.09147
 C486 C 0.55948 0.80840 0.10512
 C487 C 0.34540 0.26913 0.03113
 C488 C 0.36237 0.25396 0.04497
 C489 C 0.38261 0.23654 0.06110
 C490 C 0.40018 0.22197 0.07484
 C491 C 0.42111 0.20527 0.09087
 C492 C 0.43928 0.19135 0.10451
 C493 C 0.65422 0.26968 0.96787
 C494 C 0.63709 0.25455 0.95416
 C495 C 0.61669 0.23717 0.93820
 C496 C 0.59899 0.22263 0.92460
 C497 C 0.57795 0.20596 0.90870
 C498 C 0.55971 0.19203 0.89516
 C499 C 0.34510 0.73149 0.96953
 C500 C 0.36214 0.74660 0.95573
 C501 C 0.38245 0.76395 0.93965
 C502 C 0.40008 0.77846 0.92596
 C503 C 0.42106 0.79508 0.90997
 C504 C 0.43927 0.80896 0.89636
 C505 C 0.73130 0.96767 0.34580
 C506 C 0.74642 0.95387 0.36285
 C507 C 0.76380 0.93781 0.38317
 C508 C 0.77834 0.92416 0.40082
 C509 C 0.79502 0.90822 0.42182
 C510 C 0.80895 0.89464 0.44003
 C511 C 0.26904 0.96893 0.65481
 C512 C 0.25400 0.95507 0.63773
 C513 C 0.23673 0.93893 0.61737
 C514 C 0.22228 0.92520 0.59970
 C515 C 0.20572 0.90918 0.57867
 C516 C 0.19187 0.89554 0.56044
 C517 C 0.26940 0.03129 0.34632
 C518 C 0.25432 0.04513 0.36337
 C519 C 0.23699 0.06124 0.38369
 C520 C 0.22248 0.07494 0.40133
 C521 C 0.20584 0.09094 0.42230
 C522 C 0.19192 0.10456 0.44048
 C523 C 0.73096 0.03186 0.65464
 C524 C 0.74607 0.04551 0.63748
 C525 C 0.76342 0.06140 0.61703
 C526 C 0.77794 0.07492 0.59928
 C527 C 0.79459 0.09072 0.57817
 C528 C 0.80850 0.10418 0.55989
 C529 C 0.96837 0.65385 0.26866
 C530 C 0.95456 0.63684 0.25348
 C531 C 0.93850 0.61658 0.23603
 C532 C 0.92483 0.59899 0.22142
 C533 C 0.90886 0.57806 0.20468
 C534 C 0.89526 0.55991 0.19070
 C535 C 0.96842 0.34541 0.73023
 C536 C 0.95468 0.36254 0.74531
 C537 C 0.93867 0.38296 0.76263
 C538 C 0.92504 0.40067 0.77713
 C539 C 0.90912 0.42173 0.79375
 C540 C 0.89555 0.43998 0.80763
 C541 C 0.03182 0.65443 0.73098
 C542 C 0.04563 0.63742 0.74616
 C543 C 0.06169 0.61715 0.76360
 C544 C 0.07536 0.59954 0.77818
 C545 C 0.09132 0.57859 0.79489
 C546 C 0.10493 0.56040 0.80883
 C547 C 0.03243 0.34508 0.26843
 C548 C 0.04611 0.36225 0.25337
 C549 C 0.06204 0.38272 0.23606
 C550 C 0.07559 0.40048 0.22158
 C551 C 0.09144 0.42160 0.20500
 C552 C 0.10495 0.43991 0.19116
   
