data_POSCAR
  _audit_creation_date              2014-09-24
  _audit_creation_method            'ToBaCCo'
  _symmetry_space_group_name_H-M    'P1'
  _symmetry_Int_Tables_number       1
  _symmetry_cell_setting            triclinic
  loop_
  _symmetry_equiv_pos_as_xyz
 x,y,z
_cell_length_a 29.2264
_cell_length_b 29.1062
_cell_length_c 16.7299
_cell_angle_alpha 89.499100
_cell_angle_beta 90.729600
_cell_angle_gamma 89.429600
loop_
  _atom_site_label
  _atom_site_type_symbol
  _atom_site_fract_x
  _atom_site_fract_y
  _atom_site_fract_z
C1 C -0.01736 0.25343 0.00327
 C2 C 0.00348 0.25791 -0.07321
 C3 C 0.05167 0.25631 -0.07687
 C4 C 0.07959 0.25000 -0.00830
 C5 C 0.05853 0.25068 0.06822
 C6 C 0.01072 0.25358 0.07209
 H7 H -0.00495 0.25322 0.13047
 H8 H 0.06794 0.25916 -0.13445
 C9 C 0.43618 0.78741 0.54589
 C10 C 0.41392 0.78581 0.47021
 C11 C 0.44020 0.77970 0.40119
 C12 C 0.48853 0.77989 0.40431
 C13 C 0.51016 0.78921 0.47884
 C14 C 0.48418 0.78990 0.54845
 H15 H 0.50207 0.79332 0.60504
 H16 H 0.42253 0.77673 0.34429
 C17 C 0.99215 0.71179 0.05150
 C18 C 1.01450 0.72230 -0.02163
 C19 C 0.98856 0.72917 -0.09196
 C20 C 0.94035 0.73357 -0.09142
 C21 C 0.91859 0.72854 -0.01680
 C22 C 0.94384 0.71372 0.05066
 H23 H 0.92505 0.70919 0.10521
 H24 H 1.00735 0.73482 -0.14619
 C25 C 0.56507 0.23082 0.57061
 C26 C 0.58048 0.22410 0.49137
 C27 C 0.54816 0.22097 0.42899
 C28 C 0.50101 0.21840 0.44465
 C29 C 0.48720 0.21515 0.52532
 C30 C 0.51871 0.22426 0.58661
 H31 H 0.50719 0.22459 0.64791
 H32 H 0.56028 0.22004 0.36823
 C33 C 0.72854 -0.03857 -0.04750
 C34 C 0.73822 -0.01630 -0.12208
 C35 C 0.74198 0.03183 -0.12379
 C36 C 0.73934 0.05830 -0.05442
 C37 C 0.73546 0.03597 0.02083
 C38 C 0.72675 -0.01150 0.02210
 H39 H 0.72128 -0.02817 0.07930
 H40 H 0.74628 0.04927 -0.18072
 C41 C 0.25498 0.44404 0.55448
 C42 C 0.24718 0.46252 0.47668
 C43 C 0.23049 0.50770 0.46873
 C44 C 0.22259 0.53522 0.53572
 C45 C 0.23443 0.51806 0.61313
 C46 C 0.24869 0.47202 0.62109
 H47 H 0.25763 0.45803 0.67941
 H48 H 0.22209 0.52119 0.40969
 C49 C 0.26782 1.02020 0.10931
 C50 C 0.27190 1.03313 0.02709
 C51 C 0.25425 1.00398 -0.03194
 C52 C 0.23610 0.96113 -0.01266
 C53 C 0.23366 0.94730 0.06791
 C54 C 0.25051 0.97619 0.12755
 H55 H 0.24535 0.96563 0.18891
 H56 H 0.25777 1.01311 -0.09455
 C57 C 0.74645 0.54547 0.48497
 C58 C 0.76577 0.55514 0.40934
 C59 C 0.78220 0.51904 0.36184
 C60 C 0.77906 0.47322 0.38763
 C61 C 0.75895 0.46346 0.46207
 C62 C 0.74361 0.49934 0.51013
 H63 H 0.72992 0.49084 0.56817
 H64 H 0.79823 0.52672 0.30525
 O65 O 0.21788 0.26003 0.19155
 O66 O 0.34094 0.25069 0.23264
 O67 O 0.27758 0.19297 0.19279
 O68 O 0.27890 0.31712 0.23960
 O69 O 0.26187 0.29969 0.36450
 O70 O 0.26699 0.17721 0.32067
 O71 O 0.32742 0.23730 0.36033
 O72 O 0.20296 0.23991 0.31617
 Cu73 Cu 0.28049 0.25699 0.20152
 Cu74 Cu 0.26355 0.23717 0.35332
 C75 C 0.18949 0.25099 0.24594
 C76 C 0.35524 0.24188 0.30303
 C77 C 0.27274 0.16406 0.24947
 C78 C 0.26889 0.32923 0.31014
 O79 O 0.69438 0.83072 0.14786
 O80 O 0.73410 0.74137 0.28719
 O81 O 0.76377 0.78495 0.16820
 O82 O 0.64898 0.78035 0.25890
 O83 O 0.62824 0.73147 0.16584
 O84 O 0.74633 0.72527 0.09270
 O85 O 0.70699 0.68671 0.20962
 O86 O 0.68110 0.77660 0.05866
 Cu87 Cu 0.70957 0.78889 0.22709
 Cu88 Cu 0.68622 0.72447 0.12511
 C89 C 0.68786 0.81857 0.07611
 C90 C 0.72945 0.69918 0.27121
 C91 C 0.77387 0.75657 0.11333
 C92 C 0.61846 0.75620 0.22522
 O93 O 0.85272 0.23158 0.20844
 O94 O 0.76766 0.22267 0.36656
 O95 O 0.79875 0.16815 0.25892
 O96 O 0.82273 0.28821 0.31381
 O97 O 0.76792 0.31303 0.23176
 O98 O 0.74505 0.19298 0.17435
 O99 O 0.71327 0.24747 0.28356
 O100 O 0.79848 0.25490 0.12357
 Cu101 Cu 0.81571 0.22573 0.29620
 Cu102 Cu 0.75062 0.25524 0.19546
 C103 C 0.83972 0.24332 0.13861
 C104 C 0.72589 0.23183 0.35145
 C105 C 0.76839 0.16033 0.20585
 C106 C 0.80010 0.32101 0.28127
 O107 O 0.11084 0.74464 0.30877
 O108 O 0.21613 0.78890 0.39962
 O109 O 0.16265 0.81523 0.28085
 O110 O 0.16357 0.71914 0.42555
 O111 O 0.20285 0.67692 0.34078
 O112 O 0.20785 0.77569 0.20123
 O113 O 0.25794 0.74524 0.32094
 O114 O 0.15126 0.70683 0.21961
 Cu115 Cu 0.15927 0.77131 0.36177
 Cu116 Cu 0.20894 0.72190 0.26197
 C117 C 0.11288 0.71871 0.24837
 C118 C 0.25487 0.77396 0.37744
 C119 C 0.18555 0.81203 0.21712
 C120 C 0.18312 0.68157 0.40750
 O121 O 0.78849 0.28324 0.60816
 O122 O 0.78724 0.19664 0.76621
 O123 O 0.73166 0.23913 0.67858
 O124 O 0.85594 0.24965 0.70685
 O125 O 0.84409 0.30019 0.80180
 O126 O 0.71981 0.29557 0.76421
 O127 O 0.77200 0.25092 0.85399
 O128 O 0.78251 0.33909 0.69646
 Cu129 Cu 0.79526 0.23712 0.68235
 Cu130 Cu 0.78119 0.30222 0.78888
 C131 C 0.78196 0.32519 0.62453
 C132 C 0.77457 0.20872 0.83516
 C133 C 0.70472 0.26605 0.71533
 C134 C 0.87111 0.27592 0.76087
 O135 O 0.22588 0.68472 0.72053
 O136 O 0.21733 0.80683 0.76711
 O137 O 0.27939 0.75611 0.70004
 O138 O 0.16996 0.73659 0.80601
 O139 O 0.20919 0.72967 0.91960
 O140 O 0.31586 0.74663 0.81557
 O141 O 0.25515 0.79494 0.88099
 O142 O 0.26114 0.67134 0.83592
 Cu143 Cu 0.21958 0.74635 0.73662
 Cu144 Cu 0.26488 0.73177 0.87239
 C145 C 0.24397 0.65712 0.77062
 C146 C 0.23358 0.82154 0.83258
 C147 C 0.31617 0.75644 0.74166
 C148 C 0.17144 0.73304 0.88205
 O149 O 0.30158 0.30047 0.74870
 O150 O 0.33042 0.20011 0.87222
 O151 O 0.35656 0.23065 0.73371
 O152 O 0.26522 0.25821 0.87581
 O153 O 0.21532 0.22405 0.79632
 O154 O 0.30851 0.18550 0.66915
 O155 O 0.27764 0.15999 0.80868
 O156 O 0.25826 0.25811 0.66972
 Cu157 Cu 0.31795 0.25213 0.81404
 Cu158 Cu 0.25979 0.20313 0.72922
 C159 C 0.27824 0.29570 0.68521
 C160 C 0.30747 0.16375 0.86449
 C161 C 0.34779 0.20288 0.67730
 C162 C 0.22499 0.24390 0.86122
 O163 O 0.70589 0.79678 0.54012
 O164 O 0.81374 0.77171 0.64314
 O165 O 0.75156 0.72131 0.57261
 O166 O 0.76071 0.84420 0.62858
 O167 O 0.71869 0.83010 0.73472
 O168 O 0.71341 0.70851 0.68363
 O169 O 0.77860 0.75952 0.75705
 O170 O 0.66729 0.78008 0.64916
 Cu171 Cu 0.76192 0.78473 0.58539
 Cu172 Cu 0.71763 0.76785 0.71811
 C173 C 0.66830 0.79279 0.57610
 C174 C 0.81536 0.76226 0.71712
 C175 C 0.73003 0.69421 0.61874
 C176 C 0.74027 0.85800 0.69095
 C177 C 0.27349 0.05196 0.17221
 C178 C 0.27796 0.04067 0.25272
 C179 C 0.27841 0.08134 0.29210
 C180 C 0.27419 0.11460 0.23347
 O181 O 0.27106 0.09711 0.16107
 H182 H 0.28115 0.00703 0.28031
 H183 H 0.28162 0.08621 0.35599
 C184 C 0.72963 0.58233 0.53922
 C185 C 0.69789 0.57573 0.59880
 C186 C 0.69402 0.61682 0.63641
 C187 C 0.72334 0.64579 0.59711
 O188 O 0.74485 0.62512 0.53817
 H189 H 0.67942 0.54481 0.61330
 H190 H 0.67224 0.62480 0.68636
 C191 C 0.72162 0.91360 -0.03749
 C192 C 0.74222 0.87881 -0.08028
 C193 C 0.72561 0.83888 -0.05044
 C194 C 0.69834 0.85144 0.01226
 O195 O 0.69687 0.89655 0.02174
 H196 H 0.76986 0.88137 -0.12235
 H197 H 0.73720 0.80458 -0.06519
 C198 C 0.27167 0.39659 0.57013
 C199 C 0.30872 0.37633 0.53348
 C200 C 0.31338 0.33413 0.56839
 C201 C 0.27964 0.33222 0.62498
 O202 O 0.25490 0.37036 0.62769
 H203 H 0.33035 0.39103 0.48808
 H204 H 0.33970 0.30865 0.55708
 C205 C 0.93558 0.24534 0.01545
 C206 C 0.90636 0.22137 -0.03477
 C207 C 0.86529 0.22047 0.00264
 C208 C 0.87284 0.24189 0.07431
 O209 O 0.91534 0.25590 0.08333
 H210 H 0.91439 0.20415 -0.08999
 H211 H 0.83457 0.20330 -0.01701
 C212 C 0.41063 0.78512 0.62259
 C213 C 0.42813 0.79824 0.69612
 C214 C 0.39523 0.78822 0.74996
 C215 C 0.35969 0.77022 0.70596
 O216 O 0.36879 0.76810 0.62878
 H217 H 0.46074 0.81373 0.70970
 H218 H 0.39656 0.79420 0.81371
 C219 C 0.01622 0.70322 0.12514
 C220 C -0.00399 0.69579 0.19898
 C221 C 0.03050 0.69713 0.25415
 C222 C 0.06960 0.70404 0.21126
 O223 O 0.06133 0.70660 0.13345
 H224 H -0.03967 0.69222 0.21351
 H225 H 0.02721 0.69593 0.31851
 C226 C 0.59573 0.24672 0.63619
 C227 C 0.58190 0.27058 0.70319
 C228 C 0.62124 0.28140 0.74350
 C229 C 0.65581 0.26310 0.69832
 O230 O 0.64054 0.24263 0.63374
 H231 H 0.54749 0.28035 0.71958
 H232 H 0.62435 0.30049 0.79848
 C233 C 0.74077 0.10890 0.93562
 C234 C 0.70969 0.13921 0.96829
 C235 C 0.72172 0.18150 0.94105
 C236 C 0.75773 0.17370 0.89045
 O237 O 0.76883 0.12965 0.88571
 H238 H 0.68105 0.13120 1.00619
 H239 H 0.70411 0.21372 0.95172
 C240 C 0.20084 0.58083 0.52131
 C241 C 0.16666 0.59984 0.56719
 C242 C 0.15582 0.64079 0.53122
 C243 C 0.18321 0.64311 0.46487
 O244 O 0.21020 0.60666 0.45820
 H245 H 0.15139 0.58545 0.62029
 H246 H 0.13053 0.66565 0.55031
 C247 C 0.22530 0.92922 0.92207
 C248 C 0.20592 0.94165 0.84926
 C249 C 0.20620 0.90251 0.80513
 C250 C 0.22623 0.86953 0.85420
 O251 O 0.23764 0.88551 0.92512
 H252 H 0.19353 0.97526 0.83052
 H253 H 0.19376 0.89854 0.74441
 C254 C 0.80220 0.43616 0.34294
 C255 C 0.84820 0.42656 0.35298
 C256 C 0.85405 0.38261 0.32704
 C257 C 0.81124 0.36869 0.30239
 O258 O 0.77977 0.40115 0.31157
 H259 H 0.87347 0.44744 0.38296
 H260 H 0.88518 0.36220 0.33014
 C261 C 0.12697 0.24262 0.97966
 C262 C 0.15626 0.21680 1.02837
 C263 C 0.19800 0.21886 0.99387
 C264 C 0.19109 0.24370 0.92451
 O265 O 0.14799 0.25684 0.91414
 H266 H 0.14796 0.19591 1.07984
 H267 H 0.22880 0.20064 1.01287
 C268 C 0.51533 0.76824 0.33111
 C269 C 0.49743 0.74835 0.26272
 C270 C 0.53374 0.74095 0.21382
 C271 C 0.57125 0.75686 0.25528
 O272 O 0.56030 0.77291 0.32620
 H273 H 0.46237 0.73906 0.25008
 H274 H 0.53297 0.72573 0.15504
 C275 C 0.91552 0.74360 0.83653
 C276 C 0.93546 0.75125 0.76274
 C277 C 0.90048 0.75871 0.71037
 C278 C 0.86118 0.75522 0.75422
 O279 O 0.86991 0.74598 0.83088
 H280 H 0.97112 0.75181 0.74680
 H281 H 0.90336 0.76610 0.64711
 C282 C 0.46686 0.22248 0.37788
 C283 C 0.47641 0.21907 0.29729
 C284 C 0.43591 0.22735 0.25828
 C285 C 0.40453 0.23508 0.31750
 O286 O 0.42313 0.23248 0.38973
 H287 H 0.50869 0.21111 0.26952
 H288 H 0.42973 0.22668 0.19438
 C289 C 0.74386 0.95949 0.80020
 C290 C 0.77653 0.97088 0.74448
 C291 C 0.77644 0.93610 0.69029
 C292 C 0.74370 0.90605 0.71667
 O293 O 0.72289 0.92096 0.78143
 H294 H 0.80027 0.99915 0.74677
 H295 H 0.80027 0.93113 0.64208
 C296 C 0.25473 0.43514 0.40352
 C297 C 0.26978 0.45227 0.33117
 C298 C 0.27633 0.41469 0.28398
 C299 C 0.26473 0.37773 0.33124
 O300 O 0.25099 0.39009 0.40269
 H301 H 0.27701 0.48763 0.31581
 H302 H 0.28936 0.41417 0.22374
 C303 C 0.29501 0.07238 0.99979
 C304 C 0.33215 0.09279 1.03677
 C305 C 0.34331 0.12885 0.98859
 C306 C 0.31285 0.12734 0.92508
 O307 O 0.28411 0.09288 0.93103
 H308 H 0.34952 0.08245 1.09164
 H309 H 0.36974 0.15390 0.99941
 C310 C 0.76945 0.60251 0.37889
 C311 C 0.80237 0.63288 0.40413
 C312 C 0.79080 0.67365 0.36846
 C313 C 0.75228 0.66474 0.32285
 O314 O 0.73931 0.62145 0.32860
 H315 H 0.83037 0.62631 0.44577
 H316 H 0.80851 0.70595 0.37428
 C317 C 0.06370 0.73327 0.97295
 C318 C 0.08440 0.76684 1.01805
 C319 C 0.12798 0.76894 0.99161
 C320 C 0.13005 0.73843 0.92942
 O321 O 0.09087 0.71724 0.91640
 H322 H 0.06919 0.78742 1.06447
 H323 H 0.15482 0.79129 1.01264
 C324 C 0.62936 0.21777 0.47173
 C325 C 0.65794 0.18622 0.50971
 C326 C 0.69881 0.18968 0.47248
 C327 C 0.69166 0.22159 0.41221
 O328 O 0.64931 0.23820 0.41050
 H329 H 0.64971 0.16325 0.55857
 H330 H 0.72955 0.16975 0.48521
 C331 C 0.97778 0.26534 0.85533
 C332 C 0.99150 0.25286 0.77938
 C333 C 0.95370 0.25847 0.73142
 C334 C 0.92017 0.27530 0.78057
 O335 O 0.93501 0.28067 0.85468
 H336 H 1.02345 0.23703 0.76194
 H337 H 0.95008 0.24832 0.66961
 C338 C 0.36401 0.79424 0.46050
 C339 C 0.34036 0.82846 0.49958
 C340 C 0.29629 0.82527 0.47342
 C341 C 0.29633 0.79001 0.41894
 O342 O 0.33748 0.77134 0.41017
 H343 H 0.35376 0.85283 0.54218
 H344 H 0.26752 0.84621 0.49167
 C345 C 0.20689 0.90690 0.09271
 C346 C 0.16121 0.90162 0.07344
 C347 C 0.14710 0.86531 0.11839
 C348 C 0.18539 0.85059 0.16031
 O349 O 0.22167 0.87608 0.14599
 H350 H 0.14027 0.92322 0.03441
 H351 H 0.11296 0.85146 0.12106
 C352 C 0.75560 0.41595 0.49243
 C353 C 0.73197 0.38180 0.45370
 C354 C 0.74113 0.34290 0.49646
 C355 C 0.76846 0.35652 0.55950
 O356 O 0.77682 0.40106 0.55821
 H357 H 0.71088 0.38492 0.40026
 H358 H 0.72810 0.30889 0.48494
 C359 C 0.74566 0.05989 0.09793
 C360 C 0.76305 0.03878 0.16657
 C361 C 0.77332 0.07358 0.21804
 C362 C 0.76106 0.11327 0.17759
 O363 O 0.74470 0.10503 0.10542
 H364 H 0.76983 0.00258 0.17671
 H365 H 0.78883 0.07045 0.27694
 C366 C 0.23718 0.54840 0.68429
 C367 C 0.24039 0.53395 0.76340
 C368 C 0.24516 0.57299 0.80720
 C369 C 0.24414 0.60821 0.75189
 O370 O 0.23974 0.59353 0.67789
 H371 H 0.23897 0.49933 0.78712
 H372 H 0.24761 0.57557 0.87160
 C373 C 0.87375 0.74958 0.00017
 C374 C 0.86637 0.79637 -0.00644
 C375 C 0.82855 0.80519 0.03760
 C376 C 0.81546 0.76312 0.06723
 O377 O 0.84279 0.72924 0.04510
 H378 H 0.88802 0.82140 -0.03511
 H379 H 0.81242 0.83828 0.04726
 C380 C 0.44124 0.20023 0.54929
 C381 C 0.41699 0.16511 0.51411
 C382 C 0.37842 0.16085 0.55830
 C383 C 0.38272 0.19288 0.61809
 O384 O 0.42082 0.21656 0.61316
 H385 H 0.42650 0.14489 0.46283
 H386 H 0.35053 0.13733 0.54821
 C387 C 0.08459 0.24953 0.14539
 C388 C 0.07098 0.22649 0.21367
 C389 C 0.10763 0.22767 0.26505
 C390 C 0.14076 0.25127 0.22434
 O391 O 0.12642 0.26567 0.15317
 H392 H 0.03957 0.20789 0.22264
 H393 H 0.11116 0.20992 0.32194
 C394 C 0.55903 0.80103 0.48716
 C395 C 0.57981 0.83521 0.44346
 C396 C 0.62376 0.83610 0.47085
 C397 C 0.62604 0.80379 0.53154
 O398 O 0.58667 0.78280 0.54257
 H399 H 0.56466 0.85655 0.39666
 H400 H 0.65087 0.85802 0.44986
   
