data_POSCAR
  _audit_creation_date              2014-09-24
  _audit_creation_method            'ToBaCCo'
  _symmetry_space_group_name_H-M    'P1'
  _symmetry_Int_Tables_number       1
  _symmetry_cell_setting            triclinic
  loop_
  _symmetry_equiv_pos_as_xyz
 x,y,z
_cell_length_a 21.3660
_cell_length_b 21.3742
_cell_length_c 21.4090
_cell_angle_alpha 93.335800
_cell_angle_beta 89.801100
_cell_angle_gamma 92.780700
loop_
  _atom_site_label
  _atom_site_type_symbol
  _atom_site_fract_x
  _atom_site_fract_y
  _atom_site_fract_z
O1 O 0.58413 0.49459 0.04593
 O2 O 0.41284 0.50495 0.03837
 O3 O 0.48893 0.41348 0.04321
 O4 O 0.50800 0.58503 0.04089
 O5 O 0.51051 0.57776 -0.06240
 O6 O 0.49663 0.40563 -0.05987
 O7 O 0.41746 0.49430 -0.06390
 O8 O 0.58894 0.48913 -0.05725
 Cu9 Cu 0.49797 0.50013 0.05249
 Cu10 Cu 0.50365 0.49089 -0.07123
 C11 C 0.61575 0.49016 -0.00435
 C12 C 0.38533 0.50201 -0.01440
 C13 C 0.48996 0.38035 -0.00792
 C14 C 0.51268 0.61066 -0.01105
 O15 O -0.04761 0.58166 0.49725
 O16 O -0.05934 0.40899 0.49285
 O17 O -0.05342 0.49811 0.58057
 O18 O -0.05643 0.49297 0.40881
 O19 O 0.04669 0.49134 0.40577
 O20 O 0.04996 0.49763 0.57790
 O21 O 0.04379 0.40725 0.49087
 O22 O 0.05485 0.57974 0.49390
 Cu23 Cu -0.06456 0.49537 0.49478
 Cu24 Cu 0.05916 0.49336 0.49159
 C25 C 0.00581 0.61084 0.49738
 C26 C -0.00965 0.37873 0.49279
 C27 C -0.00103 0.49982 0.60848
 C28 C -0.00558 0.49304 0.37802
 O29 O 0.50731 0.05168 0.58207
 O30 O 0.50548 0.05577 0.41140
 O31 O 0.41904 0.05876 0.49809
 O32 O 0.59034 0.04425 0.49526
 O33 O 0.57580 -0.05887 0.48586
 O34 O 0.40521 -0.04447 0.49276
 O35 O 0.48745 -0.04642 0.40282
 O36 O 0.49400 -0.05107 0.57544
 Cu37 Cu 0.50645 0.06295 0.49748
 Cu38 Cu 0.48915 -0.06054 0.48825
 C39 C 0.50393 -0.00000 0.60837
 C40 C 0.49489 0.00591 0.37750
 C41 C 0.38298 0.00955 0.49540
 C42 C 0.61213 -0.01008 0.49118
 O43 O 0.45241 -0.01468 -0.09725
 O44 O 0.44809 -0.00713 0.07547
 O45 O 0.44209 0.07384 -0.01026
 O46 O 0.45621 -0.09705 -0.01147
 O47 O 0.55931 -0.08371 -0.01026
 O48 O 0.54476 0.08731 -0.00307
 O49 O 0.55154 0.00316 0.07868
 O50 O 0.55526 0.00146 -0.09321
 Cu51 Cu 0.43935 -0.01296 -0.01128
 Cu52 Cu 0.56310 0.00316 -0.00702
 C53 C 0.50473 -0.00574 -0.12443
 C54 C 0.49899 -0.00076 0.10626
 C55 C 0.49092 0.10997 -0.00514
 C56 C 0.51010 -0.11945 -0.01023
 O57 O -0.08321 0.54571 0.99905
 O58 O 0.08940 0.54836 0.99636
 O59 O 0.00185 0.55232 0.91279
 O60 O 0.00276 0.54602 1.08326
 O61 O -0.00034 0.44242 1.07485
 O62 O 0.00051 0.44900 0.90292
 O63 O 0.08648 0.44466 0.98800
 O64 O -0.08574 0.44211 0.98981
 Cu65 Cu 0.00335 0.55850 0.99887
 Cu66 Cu 0.00006 0.43410 0.98782
 C67 C -0.11375 0.49315 0.99608
 C68 C 0.11711 0.49705 0.99113
 C69 C 0.00220 0.50195 0.87856
 C70 C -0.00092 0.49355 1.10818
 O71 O 0.00141 -0.09585 0.44149
 O72 O -0.00687 0.07597 0.44040
 O73 O 0.08377 -0.00084 0.44350
 O74 O -0.08839 -0.01761 0.44060
 O75 O -0.08936 -0.01312 0.54393
 O76 O 0.08259 0.00695 0.54675
 O77 O -0.00944 0.08189 0.54371
 O78 O 0.00252 -0.08900 0.54493
 Cu79 Cu -0.00215 -0.01047 0.43107
 Cu80 Cu -0.00352 -0.00284 0.55521
 C81 C 0.00363 -0.12145 0.49341
 C82 C -0.01087 0.10802 0.49198
 C83 C 0.11250 0.00716 0.49543
 C84 C -0.11820 -0.01825 0.49198
 C85 C -0.28393 0.44979 1.03913
 C86 C -0.31527 0.48789 0.99824
 C87 C -0.28003 0.52641 0.95908
 C88 C -0.21490 0.52825 0.96001
 C89 C -0.18278 0.49139 0.99989
 C90 C -0.21710 0.45283 1.04109
 C91 C -0.31720 0.40771 1.07720
 C92 C -0.28570 0.37263 1.11891
 C93 C -0.22074 0.37845 1.12345
 C94 C -0.18656 0.41800 1.08501
 H95 H -0.36756 0.40071 1.07480
 H96 H -0.31190 0.34095 1.14808
 H97 H -0.19664 0.35182 1.15664
 H98 H -0.13625 0.42136 1.09069
 H99 H -0.30323 0.55589 0.92774
 H100 H -0.18927 0.55812 0.92856
 C101 C 0.28398 0.50936 0.92638
 C102 C 0.31914 0.50555 0.98305
 C103 C 0.28562 0.50232 1.03987
 C104 C 0.22051 0.49962 1.04148
 C105 C 0.18590 0.49851 0.98647
 C106 C 0.21713 0.50203 0.92835
 C107 C 0.31207 0.52256 0.86808
 C108 C 0.27663 0.52137 0.81340
 C109 C 0.21242 0.50834 0.81514
 C110 C 0.18272 0.49938 0.87204
 H111 H 0.36073 0.53678 0.86319
 H112 H 0.29918 0.53102 0.76939
 H113 H 0.18525 0.50680 0.77243
 H114 H 0.13253 0.49057 0.87160
 H115 H 0.30971 0.50061 1.08414
 H116 H 0.19685 0.49744 1.08623
 C117 C 0.06538 -0.28413 0.51426
 C118 C 0.00951 -0.32252 0.49977
 C119 C -0.04551 -0.29224 0.48543
 C120 C -0.04601 -0.22752 0.48247
 C121 C 0.00812 -0.18990 0.49425
 C122 C 0.06430 -0.21758 0.50991
 C123 C 0.12158 -0.30850 0.53580
 C124 C 0.17506 -0.26979 0.54811
 C125 C 0.17430 -0.20585 0.54033
 C126 C 0.11949 -0.17977 0.52181
 H127 H 0.12579 -0.35676 0.54580
 H128 H 0.21736 -0.28961 0.56426
 H129 H 0.21609 -0.17613 0.54967
 H130 H 0.12064 -0.12967 0.51707
 H131 H -0.08897 -0.31884 0.47461
 H132 H -0.08940 -0.20648 0.47114
 C133 C -0.05587 0.27678 0.53404
 C134 C -0.01367 0.30948 0.49440
 C135 C 0.02620 0.27536 0.45470
 C136 C 0.02502 0.21017 0.45340
 C137 C -0.01595 0.17676 0.49190
 C138 C -0.05829 0.20982 0.53131
 C139 C -0.09474 0.30882 0.57751
 C140 C -0.13765 0.27598 0.61407
 C141 C -0.14280 0.21082 0.60835
 C142 C -0.10366 0.17785 0.56750
 H143 H -0.09215 0.35926 0.58456
 H144 H -0.16735 0.30129 0.64678
 H145 H -0.17703 0.18563 0.63604
 H146 H -0.11009 0.12731 0.56413
 H147 H 0.05866 0.29947 0.42419
 H148 H 0.05746 0.18564 0.42290
 C149 C 0.54107 0.04922 -0.28841
 C150 C 0.51012 -0.00067 -0.32587
 C151 C 0.48240 -0.05180 -0.29556
 C152 C 0.48047 -0.05220 -0.23053
 C153 C 0.50692 -0.00209 -0.19315
 C154 C 0.53673 0.04957 -0.22181
 C155 C 0.57920 0.09718 -0.31468
 C156 C 0.60554 0.14722 -0.27743
 C157 C 0.59584 0.15036 -0.21321
 C158 C 0.56228 0.10193 -0.18545
 H159 H 0.59154 0.09599 -0.36360
 H160 H 0.63387 0.18369 -0.29857
 H161 H 0.61561 0.18979 -0.18456
 H162 H 0.55661 0.10609 -0.13531
 H163 H 0.45957 -0.09107 -0.32221
 H164 H 0.45802 -0.09217 -0.20912
 C165 C 0.47950 0.06276 0.27558
 C166 C 0.49276 0.00802 0.30786
 C167 C 0.50645 -0.04714 0.27242
 C168 C 0.50834 -0.04911 0.20734
 C169 C 0.49698 0.00406 0.17514
 C170 C 0.48337 0.06065 0.20884
 C171 C 0.46147 0.11937 0.30686
 C172 C 0.45093 0.17236 0.27408
 C173 C 0.45789 0.17068 0.20955
 C174 C 0.47382 0.11545 0.17710
 H175 H 0.45397 0.12436 0.35645
 H176 H 0.43739 0.21511 0.29904
 H177 H 0.45045 0.21223 0.18447
 H178 H 0.47896 0.11610 0.12697
 H179 H 0.51672 -0.08936 0.29529
 H180 H 0.51896 -0.09261 0.18184
 C181 C 0.55837 -0.28290 0.03000
 C182 C 0.51851 -0.32026 -0.01169
 C183 C 0.47971 -0.29111 -0.05254
 C184 C 0.47799 -0.22612 -0.05122
 C185 C 0.51519 -0.18805 -0.00920
 C186 C 0.55549 -0.21626 0.03249
 C187 C 0.60158 -0.31018 0.06884
 C188 C 0.63821 -0.27314 0.11172
 C189 C 0.63265 -0.20850 0.11683
 C190 C 0.59180 -0.18012 0.07780
 H191 H 0.60823 -0.36007 0.06603
 H192 H 0.67082 -0.29477 0.14142
 H193 H 0.66042 -0.18010 0.15100
 H194 H 0.58874 -0.12989 0.08430
 H195 H 0.44905 -0.31900 -0.08465
 H196 H 0.44703 -0.20529 -0.08329
 C197 C 0.43558 0.27856 0.02306
 C198 C 0.48529 0.31142 -0.00692
 C199 C 0.53363 0.27827 -0.03502
 C200 C 0.53436 0.21353 -0.03291
 C201 C 0.48619 0.17919 -0.00353
 C202 C 0.43610 0.21189 0.02548
 C203 C 0.38488 0.31058 0.04999
 C204 C 0.33697 0.27832 0.08082
 C205 C 0.33850 0.21383 0.08542
 C206 C 0.38728 0.18080 0.05821
 H207 H 0.38144 0.36066 0.04717
 H208 H 0.29861 0.30356 0.10153
 H209 H 0.30161 0.18917 0.11028
 H210 H 0.38623 0.13115 0.06465
 H211 H 0.57204 0.30295 -0.05784
 H212 H 0.57317 0.19002 -0.05493
 C213 C -0.29009 -0.05719 0.53225
 C214 C -0.31935 -0.01620 0.49266
 C215 C -0.28245 0.02066 0.45349
 C216 C -0.21761 0.01757 0.45263
 C217 C -0.18741 -0.02221 0.49122
 C218 C -0.22364 -0.06128 0.53038
 C219 C -0.32500 -0.09303 0.57490
 C220 C -0.29572 -0.13446 0.61195
 C221 C -0.23138 -0.14101 0.60748
 C222 C -0.19549 -0.10492 0.56720
 H223 H -0.37491 -0.08914 0.58076
 H224 H -0.32318 -0.16188 0.64409
 H225 H -0.20909 -0.17400 0.63566
 H226 H -0.14581 -0.11224 0.56479
 H227 H -0.30410 0.05228 0.42320
 H228 H -0.19057 0.04783 0.42261
 C229 C 0.28288 0.05026 0.45219
 C230 C 0.31421 0.01448 0.49518
 C231 C 0.27911 -0.01947 0.53822
 C232 C 0.21404 -0.01904 0.53907
 C233 C 0.18173 0.01465 0.49630
 C234 C 0.21620 0.05159 0.45376
 C235 C 0.31612 0.08341 0.40648
 C236 C 0.28509 0.11998 0.36581
 C237 C 0.22045 0.12423 0.36977
 C238 C 0.18613 0.09052 0.41321
 H239 H 0.36609 0.08094 0.40134
 H240 H 0.31142 0.14544 0.33130
 H241 H 0.19669 0.15357 0.33881
 H242 H 0.13619 0.09617 0.41511
 H243 H 0.30235 -0.04703 0.57131
 H244 H 0.18862 -0.04687 0.57241
 C245 C -0.04771 0.53373 1.27778
 C246 C -0.00711 0.49507 1.30908
 C247 C 0.03274 0.45648 1.27384
 C248 C 0.03295 0.45530 1.20875
 C249 C -0.00685 0.49252 1.17682
 C250 C -0.04933 0.53042 1.21112
 C251 C -0.08574 0.57683 1.31085
 C252 C -0.12785 0.61161 1.27940
 C253 C -0.13283 0.60462 1.21464
 C254 C -0.09402 0.56463 1.18063
 H255 H -0.08295 0.58519 1.36100
 H256 H -0.15702 0.64392 1.30550
 H257 H -0.16648 0.63082 1.19055
 H258 H -0.10011 0.56039 1.13047
 H259 H 0.06401 0.42679 1.29696
 H260 H 0.06535 0.42594 1.18311
 C261 C 0.03724 0.55154 0.71167
 C262 C 0.00064 0.50431 0.67743
 C263 C -0.03421 0.45922 0.70932
 C264 C -0.03228 0.45919 0.77422
 C265 C 0.00409 0.50463 0.80956
 C266 C 0.04011 0.55120 0.77821
 C267 C 0.07031 0.59979 0.68111
 C268 C 0.10805 0.64475 0.71466
 C269 C 0.11352 0.64272 0.77914
 C270 C 0.08004 0.59671 0.81078
 H271 H 0.06682 0.60366 0.63123
 H272 H 0.13344 0.68113 0.69042
 H273 H 0.14380 0.67710 0.80489
 H274 H 0.08742 0.59693 0.86058
 H275 H -0.06257 0.42305 0.68367
 H276 H -0.06011 0.42349 0.79716
   
