data_POSCAR
  _audit_creation_date              2014-09-24
  _audit_creation_method            'ToBaCCo'
  _symmetry_space_group_name_H-M    'P1'
  _symmetry_Int_Tables_number       1
  _symmetry_cell_setting            triclinic
  loop_
  _symmetry_equiv_pos_as_xyz
 x,y,z
_cell_length_a 28.7321
_cell_length_b 28.7776
_cell_length_c 72.4464
_cell_angle_alpha 85.385800
_cell_angle_beta 92.534800
_cell_angle_gamma 120.082000
loop_
  _atom_site_label
  _atom_site_type_symbol
  _atom_site_fract_x
  _atom_site_fract_y
  _atom_site_fract_z
C1 C 0.00889 0.10410 0.52352
 H2 H 0.04735 0.10590 0.52306
 C3 C 0.00243 0.13769 0.53467
 H4 H 0.03597 0.16541 0.54289
 C5 C -0.08178 0.06579 0.51331
 H6 H -0.11424 0.03796 0.50484
 C7 C -0.09000 0.09882 0.52434
 H8 H -0.12895 0.09618 0.52446
 N9 N -0.03300 0.06870 0.51329
 C10 C 0.00291 -0.05907 0.50646
 H11 H 0.00559 -0.05749 0.49155
 C12 C 0.00563 -0.09992 0.51743
 H13 H 0.01086 -0.12968 0.51099
 C14 C -0.01034 -0.02421 0.53308
 H15 H -0.01831 0.00416 0.53912
 C16 C -0.00775 -0.06424 0.54452
 H17 H -0.01307 -0.06605 0.55932
 Zn18 Zn -0.01771 0.02627 0.49880
 N19 N -0.00527 -0.02246 0.51440
 C20 C 0.08918 0.07127 0.48473
 N21 N 0.04350 0.07455 0.48452
 C22 C 0.03991 0.11439 0.47429
 C23 C 0.08290 0.15240 0.46336
 C24 C 0.13329 0.10863 0.47394
 C25 C -0.12231 -0.05579 0.49081
 C26 C -0.16329 -0.09263 0.47973
 C27 C -0.10817 -0.04549 0.45279
 C28 C -0.06830 -0.00975 0.46437
 N29 N -0.07577 -0.01571 0.48302
 H30 H 0.09149 0.03985 0.49321
 H31 H 0.00331 0.11635 0.47458
 H32 H 0.07943 0.18368 0.45513
 H33 H 0.16944 0.10569 0.47400
 H34 H -0.12670 -0.06033 0.50571
 H35 H -0.19951 -0.12534 0.48615
 H36 H -0.10097 -0.04111 0.43802
 H37 H -0.03060 0.02132 0.45845
 C38 C -0.00034 -0.10278 0.53661
 C39 C -0.04744 0.13494 0.53515
 C40 C -0.15578 -0.08784 0.46055
 C41 C 0.12992 0.14941 0.46312
 C42 C 1.13530 0.05363 0.14231
 H43 H 1.13744 0.09219 0.14258
 C44 C 1.17071 0.04838 0.13129
 H45 H 1.20018 0.08294 0.12297
 C46 C 1.09423 -0.03857 0.15287
 H47 H 1.06459 -0.07213 0.16142
 C48 C 1.12901 -0.04559 0.14198
 H49 H 1.12590 -0.08471 0.14204
 N50 N 1.09765 0.01041 0.15264
 C51 C 0.96842 0.04535 0.15890
 H52 H 0.96708 0.04556 0.17379
 C53 C 0.92926 0.04923 0.14781
 H54 H 0.89787 0.05287 0.15414
 C55 C 1.00877 0.03683 0.13246
 H56 H 1.03856 0.03014 0.12655
 C57 C 0.97054 0.04070 0.12090
 H58 H 0.97152 0.03759 0.10613
 Zn59 Zn 1.05256 0.02369 0.16691
 N60 N 1.00686 0.03882 0.15111
 C61 C 1.09490 0.12790 0.18093
 N62 N 1.09825 0.08232 0.18112
 C63 C 1.13622 0.07685 0.19139
 C64 C 1.17206 0.11767 0.20240
 C65 C 1.13012 0.16987 0.19181
 C66 C 0.96860 -0.08200 0.17503
 C67 C 0.92983 -0.12488 0.18617
 C68 C 0.97215 -0.07453 0.21302
 C69 C 1.00996 -0.03263 0.20141
 N70 N 1.00736 -0.03687 0.18277
 H71 H 1.06498 0.13172 0.17243
 H72 H 1.13828 0.04039 0.19110
 H73 H 1.20179 0.11265 0.21067
 H74 H 1.12706 0.20589 0.19178
 H75 H 0.96671 -0.08383 0.16014
 H76 H 0.89820 -0.16005 0.17988
 H77 H 0.97368 -0.07018 0.22779
 H78 H 1.04000 0.00399 0.20729
 C79 C 0.93002 0.04619 0.12866
 C80 C 1.16743 -0.00167 0.13105
 C81 C 0.93132 -0.12073 0.20532
 C82 C 1.16887 0.16447 0.20268
 C83 C 0.03822 0.92703 0.85867
 H84 H 0.00168 0.88840 0.85835
 C85 C 0.08145 0.93230 0.86965
 H86 H 0.07823 0.89768 0.87789
 C87 C 0.08708 1.01937 0.84827
 H88 H 0.08913 1.05298 0.83978
 C89 C 0.13143 1.02641 0.85911
 H90 H 0.16750 1.06557 0.85908
 N91 N 0.04148 0.97031 0.84844
 C92 C -0.12450 0.93452 0.84205
 H93 H -0.12920 0.93453 0.82715
 C94 C -0.16521 0.93052 0.85311
 H95 H -0.20156 0.92699 0.84670
 C96 C -0.06995 0.94277 0.86853
 H97 H -0.03214 0.94947 0.87448
 C98 C -0.10958 0.93878 0.88007
 H99 H -0.10217 0.94178 0.89485
 Zn100 Zn -0.02006 0.95707 0.83413
 N101 N -0.07781 0.94106 0.84987
 C102 C -0.08440 0.85329 0.81957
 N103 N -0.03561 0.89920 0.81963
 C104 C 0.00606 0.90563 0.80941
 C105 C -0.00065 0.86548 0.79824
 C106 C -0.09287 0.81195 0.80852
 C107 C 0.00015 1.06287 0.82649
 C108 C 0.00250 1.10628 0.81554
 C109 C -0.01124 1.05703 0.78843
 C110 C -0.01345 1.01458 0.79986
 N111 N -0.00804 1.01806 0.81854
 H112 H -0.11668 0.84872 0.82802
 H113 H 0.04454 0.94232 0.80990
 H114 H 0.03270 0.87124 0.79004
 H115 H -0.13182 0.77563 0.80837
 H116 H 0.00311 1.06410 0.84140
 H117 H 0.00772 1.14128 0.82199
 H118 H -0.01685 1.05337 0.77362
 H119 H -0.02142 0.97821 0.79380
 C120 C -0.15729 0.93345 0.87228
 C121 C 0.12838 0.98242 0.86993
 C122 C -0.00385 1.10299 0.79635
 C123 C -0.05055 0.81833 0.79773
 C124 C 0.37178 -0.00804 -0.00935
 C125 C 0.37312 -0.00975 0.00961
 C126 C 0.41987 -0.01001 0.01510
 N127 N 0.44676 -0.00893 0.00008
 C128 C 0.41750 -0.00783 -0.01490
 C129 C 0.43751 -0.00909 0.03368
 C130 C 0.48744 -0.00440 0.03928
 C131 C 0.50914 0.00743 0.05692
 C132 C 0.55840 0.01050 0.05673
 C133 C 0.56556 0.00011 0.03900
 N134 N 0.52164 -0.00981 0.02856
 C135 C 0.61190 -0.00014 0.03321
 C136 C 0.62217 -0.00567 0.01483
 C137 C 0.66717 -0.00692 0.00934
 C138 C 0.66272 -0.01145 -0.00944
 C139 C 0.61526 -0.01259 -0.01488
 N140 N 0.59071 -0.00909 -0.00001
 C141 C 0.59517 -0.01814 -0.03323
 C142 C 0.54731 -0.01825 -0.03897
 C143 C 0.52560 -0.02864 -0.05668
 C144 C 0.47945 -0.02546 -0.05681
 C145 C 0.47376 -0.01357 -0.03916
 N146 N 0.51585 -0.00821 -0.02848
 C147 C 0.42986 -0.00882 -0.03350
 H148 H 0.34030 -0.00767 -0.01803
 H149 H 0.34330 -0.01009 0.01834
 H150 H 0.52448 0.00534 -0.01528
 H151 H 0.49180 0.01425 0.06865
 H152 H 0.58600 0.01980 0.06833
 H153 H 0.69987 -0.00478 0.01794
 H154 H 0.69124 -0.01367 -0.01808
 H155 H 0.45255 -0.03226 -0.06852
 H156 H 0.51360 -0.02335 0.01535
 H157 H 0.54112 -0.03802 -0.06830
 C158 C -0.04673 0.62569 0.65698
 C159 C -0.05286 0.61888 0.67583
 C160 C -0.05445 0.57081 0.68136
 N161 N -0.04998 0.54798 0.66644
 C162 C -0.04528 0.58133 0.65150
 C163 C -0.05728 0.55067 0.69999
 C164 C -0.05394 0.50428 0.70585
 C165 C -0.04537 0.49123 0.72406
 C166 C -0.04228 0.44511 0.72406
 C167 C -0.04942 0.43078 0.70587
 N168 N -0.05747 0.46660 0.69492
 C169 C -0.04833 0.38542 0.70011
 C170 C -0.05022 0.37305 0.68149
 C171 C -0.05021 0.32797 0.67599
 C172 C -0.05035 0.33169 0.65701
 C173 C -0.05020 0.37906 0.65147
 N174 N -0.05025 0.40402 0.66647
 C175 C -0.05076 0.39765 0.63283
 C176 C -0.04951 0.44649 0.62703
 C177 C -0.05458 0.46201 0.60876
 C178 C -0.05135 0.51129 0.60875
 C179 C -0.04475 0.52463 0.62704
 N180 N -0.04275 0.48534 0.63804
 C181 C -0.04129 0.57202 0.63291
 H182 H -0.04415 0.65931 0.64829
 H183 H -0.05505 0.64667 0.68449
 H184 H -0.03324 0.48703 0.65200
 H185 H -0.04062 0.51328 0.73608
 H186 H -0.03506 0.42477 0.73611
 H187 H -0.04993 0.29577 0.68473
 H188 H -0.05040 0.30282 0.64830
 H189 H -0.05449 0.53423 0.59666
 H190 H -0.06855 0.46354 0.68109
 H191 H -0.06034 0.43998 0.59664
 C192 C 0.37612 0.38066 0.32407
 C193 C 0.37204 0.38101 0.34284
 C194 C 0.41700 0.42752 0.34833
 N195 N 0.44828 0.45526 0.33353
 C196 C 0.42356 0.42685 0.31867
 C197 C 0.42866 0.44252 0.36682
 C198 C 0.47398 0.49037 0.37252
 C199 C 0.48740 0.50216 0.39087
 C200 C 0.53361 0.55148 0.39076
 C201 C 0.54762 0.56859 0.37236
 N202 N 0.51049 0.53156 0.36134
 C203 C 0.59417 0.61714 0.36644
 C204 C 0.61495 0.63009 0.34824
 C205 C 0.66316 0.67547 0.34293
 C206 C 0.67025 0.67205 0.32461
 C207 C 0.62591 0.62493 0.31919
 N208 N 0.59234 0.59943 0.33368
 C209 C 0.61653 0.60785 0.30095
 C210 C 0.56915 0.56247 0.29493
 C211 C 0.55554 0.55222 0.27650
 C212 C 0.50628 0.50599 0.27629
 C213 C 0.49103 0.48881 0.29461
 N214 N 0.53007 0.52306 0.30588
 C215 C 0.44214 0.44227 0.30022
 H216 H 0.34734 0.34985 0.31542
 H217 H 0.33960 0.35042 0.35143
 H218 H 0.53197 0.51782 0.32014
 H219 H 0.46633 0.47758 0.40312
 H220 H 0.55503 0.57190 0.40291
 H221 H 0.69077 0.70749 0.35142
 H222 H 0.70395 0.70135 0.31618
 H223 H 0.48404 0.48741 0.26399
 H224 H 0.50818 0.53612 0.34707
 H225 H 0.57824 0.57614 0.26439
 C226 C -0.05753 0.23438 0.57036
 C227 C -0.05721 0.21478 0.59068
 C228 C -0.05670 0.24841 0.60297
 C229 C -0.05655 0.29840 0.59377
 C230 C -0.10588 0.27636 0.58088
 C231 C -0.10639 0.24264 0.56855
 C232 C -0.00836 0.29128 0.56850
 C233 C -0.00786 0.32492 0.58080
 C234 C -0.05704 0.19825 0.55730
 C235 C -0.05415 0.16900 0.54696
 C236 C -0.05541 0.33446 0.60720
 C237 C -0.05359 0.36353 0.61864
 H238 H -0.05746 0.17766 0.59503
 H239 H -0.05650 0.24010 0.61786
 H240 H -0.13753 0.28636 0.58138
 H241 H -0.13847 0.22374 0.55849
 H242 H 0.02324 0.30407 0.55837
 H243 H 0.02416 0.36651 0.58121
 C244 C 0.81040 0.76918 0.23998
 C245 C 0.80697 0.71440 0.24417
 C246 C 0.76698 0.68071 0.25624
 C247 C 0.73442 0.70516 0.26292
 C248 C 0.71403 0.72217 0.24517
 C249 C 0.75399 0.75585 0.23311
 C250 C 0.81616 0.79168 0.25897
 C251 C 0.77626 0.75806 0.27102
 C252 C 0.85353 0.80621 0.22716
 C253 C 0.88906 0.83849 0.21699
 C254 C 0.69169 0.66950 0.27606
 C255 C 0.65719 0.64114 0.28719
 H256 H 0.83352 0.70306 0.23817
 H257 H 0.75925 0.64048 0.26059
 H258 H 0.67194 0.70886 0.24231
 H259 H 0.74612 0.77138 0.21991
 H260 H 0.84879 0.83064 0.26265
 H261 H 0.77470 0.76822 0.28501
 C262 C 0.24932 -0.00821 -0.09535
 C263 C 0.26774 -0.04805 -0.09943
 C264 C 0.30546 -0.04781 -0.08729
 C265 C 0.32104 -0.00777 -0.07226
 C266 C 0.26782 -0.02264 -0.06306
 C267 C 0.23015 -0.02288 -0.07518
 C268 C 0.30114 0.04665 -0.09503
 C269 C 0.33890 0.04688 -0.08287
 C270 C 0.20803 -0.00920 -0.10823
 C271 C 0.17255 -0.01187 -0.11841
 C272 C 0.36103 -0.00786 -0.05900
 C273 C 0.39279 -0.00830 -0.04764
 H274 H 0.25256 -0.07408 -0.11087
 H275 H 0.32261 -0.07361 -0.08832
 H276 H 0.26039 -0.03210 -0.04829
 H277 H 0.19045 -0.03254 -0.07080
 H278 H 0.30763 0.08212 -0.10358
 H279 H 0.37775 0.08257 -0.08102
 C280 C -0.01206 0.77144 0.57116
 C281 C -0.02727 0.77537 0.59078
 C282 C -0.03333 0.73405 0.60289
 C283 C -0.02362 0.69274 0.59422
 C284 C 0.03286 0.72561 0.58577
 C285 C 0.03895 0.76702 0.57364
 C286 C -0.05607 0.71590 0.56545
 C287 C -0.06215 0.67450 0.57758
 C288 C -0.00603 0.81617 0.55830
 C289 C -0.00249 0.85314 0.54817
 C290 C -0.03025 0.64859 0.60747
 C291 C -0.03554 0.61325 0.61881
 H292 H -0.03276 0.80783 0.59482
 H293 H -0.04403 0.73110 0.61730
 H294 H 0.06519 0.71706 0.58902
 H295 H 0.07646 0.79396 0.56648
 H296 H -0.08025 0.70964 0.55296
 H297 H -0.09152 0.63278 0.57549
 C298 C 0.27350 0.27705 0.23772
 C299 C 0.33019 0.28444 0.23708
 C300 C 0.36524 0.31908 0.24936
 C301 C 0.34017 0.34294 0.26107
 C302 C 0.29099 0.29413 0.27025
 C303 C 0.25597 0.25952 0.25798
 C304 C 0.28179 0.33412 0.23469
 C305 C 0.31689 0.36882 0.24699
 C306 C 0.23576 0.23898 0.22470
 C307 C 0.20499 0.20596 0.21442
 C308 C 0.37757 0.37959 0.27449
 C309 C 0.40744 0.40857 0.28596
 H310 H 0.34180 0.26429 0.22777
 H311 H 0.40686 0.32863 0.25057
 H312 H 0.28423 0.28736 0.28509
 H313 H 0.21921 0.22311 0.26232
 H314 H 0.26191 0.34622 0.22386
 H315 H 0.32712 0.41066 0.24669
 C316 C 0.74216 -0.05407 -0.09400
 C317 C 0.68327 -0.09963 -0.09346
 C318 C 0.65232 -0.09260 -0.08147
 C319 C 0.68338 -0.04073 -0.07123
 C320 C 0.70874 0.00469 -0.08655
 C321 C 0.73964 -0.00232 -0.09852
 C322 C 0.76168 -0.05082 -0.07383
 C323 C 0.73081 -0.04381 -0.06187
 C324 C 0.77633 -0.06089 -0.10671
 C325 C 0.80647 -0.06461 -0.11677
 C326 C 0.65077 -0.03288 -0.05816
 C327 C 0.62507 -0.02616 -0.04704
 H328 H 0.66728 -0.13424 -0.10176
 H329 H 0.60981 -0.12120 -0.07951
 H330 H 0.70284 0.03925 -0.08791
 H331 H 0.76022 0.02624 -0.11014
 H332 H 0.79668 -0.05381 -0.06932
 H333 H 0.73939 -0.04078 -0.04713
 C334 C 0.27078 -0.01066 0.09603
 C335 C 0.25964 0.00129 0.07581
 C336 C 0.29422 0.00128 0.06356
 C337 C 0.33663 -0.01066 0.07271
 C338 C 0.30433 -0.06461 0.08400
 C339 C 0.26966 -0.06461 0.09628
 C340 C 0.32990 0.03129 0.09942
 C341 C 0.36453 0.03128 0.08716
 C342 C 0.23351 -0.00991 0.10904
 C343 C 0.20311 -0.00735 0.11931
 C344 C 0.37359 -0.01033 0.05932
 C345 C 0.40314 -0.00974 0.04788
 H346 H 0.22734 0.00902 0.07148
 H347 H 0.29155 0.00903 0.04874
 H348 H 0.30836 -0.09965 0.08251
 H349 H 0.24400 -0.09964 0.10530
 H350 H 0.34339 0.05853 0.11051
 H351 H 0.40766 0.05850 0.08773
 C352 C 0.74380 0.80048 0.42723
 C353 C 0.68790 0.79452 0.42417
 C354 C 0.65641 0.75650 0.41217
 C355 C 0.68398 0.72825 0.40445
 C356 C 0.70155 0.70574 0.42157
 C357 C 0.73301 0.74372 0.43355
 C358 C 0.76786 0.81179 0.40779
 C359 C 0.73645 0.77387 0.39583
 C360 C 0.77853 0.84152 0.43995
 C361 C 0.80912 0.87544 0.45001
 C362 C 0.65078 0.68772 0.39138
 C363 C 0.62462 0.65520 0.38025
 H364 H 0.67424 0.81800 0.43083
 H365 H 0.61576 0.74740 0.40856
 H366 H 0.69018 0.66367 0.42407
 H367 H 0.74860 0.73418 0.44632
 H368 H 0.80624 0.84662 0.40376
 H369 H 0.74793 0.77620 0.38155
 C370 C -0.01694 0.21640 0.76185
 C371 C -0.01763 0.20505 0.74147
 C372 C -0.02418 0.24008 0.72938
 C373 C -0.02942 0.28309 0.73882
 C374 C 0.02104 0.31034 0.75104
 C375 C 0.02761 0.27523 0.76317
 C376 C -0.06965 0.21640 0.76455
 C377 C -0.07621 0.25148 0.75244
 C378 C -0.01039 0.17794 0.77468
 C379 C -0.00645 0.14470 0.78480
 C380 C -0.03655 0.32035 0.72558
 C381 C -0.04219 0.35020 0.71424
 H382 H -0.01331 0.17236 0.73693
 H383 H -0.02549 0.23738 0.71448
 H384 H 0.04906 0.35338 0.75027
 H385 H 0.06125 0.28818 0.77277
 H386 H -0.09917 0.19116 0.77507
 H387 H -0.11133 0.25629 0.75258
 C388 C 0.80777 0.03429 0.09412
 C389 C 0.79141 0.07737 0.09482
 C390 C 0.75095 0.07066 0.08278
 C391 C 0.73094 0.02154 0.07124
 C392 C 0.71515 -0.02634 0.08548
 C393 C 0.75553 -0.01964 0.09751
 C394 C 0.82169 0.03611 0.07377
 C395 C 0.78133 0.02942 0.06175
 C396 C 0.85137 0.04080 0.10690
 C397 C 0.88730 0.04438 0.11704
 C398 C 0.68774 0.01405 0.05813
 C399 C 0.65291 0.00759 0.04699
 H400 H 0.80989 0.11016 0.10397
 H401 H 0.73476 0.09770 0.08160
 H402 H 0.67570 -0.06229 0.08608
 H403 H 0.75067 -0.04988 0.10842
 H404 H 0.85994 0.04219 0.06919
 H405 H 0.78501 0.02974 0.04688
 C406 C 0.25004 0.26128 0.42858
 C407 C 0.30701 0.27057 0.43229
 C408 C 0.34442 0.30821 0.42017
 C409 C 0.32108 0.33275 0.40557
 C410 C 0.29298 0.35475 0.41669
 C411 C 0.25563 0.31718 0.42879
 C412 C 0.23807 0.24696 0.40832
 C413 C 0.27539 0.28449 0.39623
 C414 C 0.20910 0.22087 0.44141
 C415 C 0.17386 0.18797 0.45154
 C416 C 0.36067 0.37290 0.39233
 C417 C 0.39207 0.40506 0.38098
 H418 H 0.31709 0.24953 0.44343
 H419 H 0.38656 0.31942 0.42093
 H420 H 0.30171 0.39620 0.41523
 H421 H 0.23236 0.32646 0.43769
 H422 H 0.20334 0.21046 0.40385
 H423 H 0.27261 0.28016 0.38141
 C424 C -0.06177 0.70838 0.76244
 C425 C -0.04615 0.73463 0.74272
 C426 C -0.04613 0.70131 0.73042
 C427 C -0.06173 0.64493 0.73900
 C428 C -0.11670 0.62405 0.74803
 C429 C -0.11672 0.65746 0.76037
 C430 C -0.02249 0.68783 0.76755
 C431 C -0.02248 0.65447 0.75523
 C432 C -0.06079 0.74520 0.77552
 C433 C -0.05756 0.77747 0.78588
 C434 C -0.06110 0.60978 0.72557
 C435 C -0.05966 0.58230 0.71414
 H436 H -0.03605 0.77582 0.73876
 H437 H -0.03602 0.71395 0.71592
 H438 H -0.15239 0.58638 0.74501
 H439 H -0.15241 0.64844 0.76792
 H440 H 0.00299 0.69846 0.77980
 H441 H 0.00300 0.63651 0.75692
   
