data_POSCAR
  _audit_creation_date              2014-09-24
  _audit_creation_method            'ToBaCCo'
  _symmetry_space_group_name_H-M    'P1'
  _symmetry_Int_Tables_number       1
  _symmetry_cell_setting            triclinic
  loop_
  _symmetry_equiv_pos_as_xyz
 x,y,z
_cell_length_a 22.6693
_cell_length_b 26.4219
_cell_length_c 27.8224
_cell_angle_alpha 90.100900
_cell_angle_beta 87.721600
_cell_angle_gamma 90.273900
loop_
  _atom_site_label
  _atom_site_type_symbol
  _atom_site_fract_x
  _atom_site_fract_y
  _atom_site_fract_z
B1 B 0.25760 0.21543 0.20663
 B2 B 0.29745 0.26866 0.20418
 B3 B 0.22378 0.27187 0.20327
 B4 B 0.19469 0.22585 0.23950
 B5 B 0.25238 0.19478 0.26352
 B6 B 0.31662 0.22142 0.24129
 B7 B 0.25663 0.29355 0.29262
 B8 B 0.21599 0.24036 0.29490
 B9 B 0.28964 0.23706 0.29620
 B10 B 0.31948 0.28291 0.25988
 B11 B 0.26149 0.31421 0.23571
 B12 B 0.19733 0.28754 0.25810
 B13 B 0.72269 0.76592 0.20529
 B14 B 0.69558 0.71322 0.23004
 B15 B 0.76300 0.71299 0.20258
 B16 B 0.79624 0.76849 0.21355
 B17 B 0.74857 0.80351 0.24871
 B18 B 0.68538 0.76912 0.25861
 B19 B 0.77462 0.71721 0.29786
 B20 B 0.80349 0.77026 0.27332
 B21 B 0.73630 0.77136 0.30049
 B22 B 0.70183 0.71582 0.28946
 B23 B 0.74988 0.68031 0.25405
 B24 B 0.81327 0.71471 0.24475
 B25 B 0.70031 0.23775 -0.28917
 B26 B 0.77015 0.21936 -0.30095
 B27 B 0.75318 0.28096 -0.30216
 B28 B 0.70118 0.29327 -0.25853
 B29 B 0.68682 0.23740 -0.22940
 B30 B 0.72964 0.19142 -0.25637
 B31 B 0.80301 0.26191 -0.21808
 B32 B 0.73316 0.28023 -0.20619
 B33 B 0.75009 0.21864 -0.20515
 B34 B 0.80207 0.20639 -0.24872
 B35 B 0.81640 0.26216 -0.27774
 B36 B 0.77362 0.30822 -0.25088
 B37 B 0.29533 0.75381 -0.31081
 B38 B 0.22232 0.76453 -0.30711
 B39 B 0.24861 0.70545 -0.30139
 B40 B 0.31200 0.70781 -0.27169
 B41 B 0.32466 0.76963 -0.25855
 B42 B 0.26879 0.80475 -0.28084
 B43 B 0.22029 0.74095 -0.21307
 B44 B 0.29311 0.73083 -0.21694
 B45 B 0.26785 0.78947 -0.22283
 B46 B 0.20387 0.78726 -0.25199
 B47 B 0.19112 0.72521 -0.26564
 B48 B 0.24699 0.69029 -0.24314
 B49 B 1.23794 1.26800 0.80416
 B50 B 1.29541 1.28165 0.76639
 B51 B 1.29224 1.22577 0.79435
 B52 B 1.22132 1.20584 0.79832
 B53 B 1.18040 1.25130 0.77172
 B54 B 1.22705 1.29883 0.75245
 B55 B 1.25847 1.21289 0.70355
 B56 B 1.20136 1.19871 0.74105
 B57 B 1.20428 1.25514 0.71391
 B58 B 1.27515 1.27462 0.70954
 B59 B 1.31612 1.22896 0.73616
 B60 B 1.26962 1.18162 0.75534
 B61 B 0.78018 0.72385 0.78409
 B62 B 0.70696 0.73170 0.78185
 B63 B 0.75123 0.78217 0.77947
 B64 B 0.81356 0.76767 0.74744
 B65 B 0.80616 0.70625 0.72940
 B66 B 0.73978 0.68352 0.75157
 B67 B 0.71771 0.76160 0.69019
 B68 B 0.79089 0.75411 0.69171
 B69 B 0.74698 0.70321 0.69428
 B70 B 0.68489 0.71766 0.72661
 B71 B 0.69234 0.77925 0.74445
 B72 B 0.75842 0.80197 0.72252
 B73 B 1.24888 0.72178 0.30315
 B74 B 1.23903 0.78347 0.29423
 B75 B 1.30628 0.75794 0.28413
 B76 B 1.29716 0.69881 0.26142
 B77 B 1.22259 0.68999 0.25684
 B78 B 1.18703 0.74260 0.27728
 B79 B 1.25658 0.76871 0.19870
 B80 B 1.26478 0.70634 0.20856
 B81 B 1.19844 0.73344 0.21770
 B82 B 1.20757 0.79209 0.24074
 B83 B 1.28157 0.80119 0.24590
 B84 B 1.31760 0.74793 0.22480
 B85 B 0.77864 1.26397 0.20464
 B86 B 0.71170 1.28966 0.21060
 B87 B 0.71724 1.22674 0.21047
 B88 B 0.78059 1.21144 0.23863
 B89 B 0.81112 1.26767 0.25760
 B90 B 0.76736 1.31574 0.23934
 B91 B 0.70223 1.25701 0.30240
 B92 B 0.77004 1.23217 0.29604
 B93 B 0.76090 1.29544 0.29589
 B94 B 0.69912 1.30960 0.26737
 B95 B 0.66944 1.25437 0.24995
 B96 B 0.71315 1.20558 0.26726
 N97 N 0.60046 1.03940 0.06177
 N98 N 0.64088 1.07155 0.07603
 N99 N 0.54906 0.93451 0.08613
 N100 N 0.55441 0.89762 0.11761
 N101 N 0.59487 0.93536 0.05564
 N102 N 0.63217 0.89931 0.06492
 N103 N 0.55397 1.03938 0.09149
 N104 N 0.56147 1.07200 0.12656
 C105 C 0.61622 1.09116 0.11679
 C106 C 0.60654 0.87646 0.10343
 N107 N 0.38912 0.94231 0.03710
 N108 N 0.34552 0.90902 0.03892
 N109 N 0.42632 1.04498 0.08003
 N110 N 0.40168 1.07302 0.11492
 N111 N 0.39536 1.04816 0.04126
 N112 N 0.34953 1.07782 0.04848
 N113 N 0.42177 0.93836 0.07474
 N114 N 0.40061 0.90232 0.10371
 Mn115 Mn 0.48769 0.98926 0.08381
 C116 C 0.35337 0.88402 0.08041
 C117 C 0.35428 1.09374 0.09401
 N118 N 0.61647 0.93952 -0.04599
 N119 N 0.66464 0.91304 -0.05535
 N120 N 0.58814 1.04712 -0.07914
 N121 N 0.61099 1.08048 -0.11016
 N122 N 0.62055 1.04478 -0.04107
 N123 N 0.66627 1.07569 -0.04535
 N124 N 0.58315 0.94084 -0.08369
 N125 N 0.60866 0.91501 -0.11965
 Mn126 Mn 0.60807 0.98990 0.00765
 C127 C 0.65890 0.89731 -0.10089
 C128 C 0.65933 1.09828 -0.08816
 N129 N 0.41628 1.05232 -0.06030
 N130 N 0.38256 1.09169 -0.06804
 N131 N 0.45327 0.94598 -0.09560
 N132 N 0.43573 0.92133 -0.13434
 N133 N 0.40984 0.94654 -0.06285
 N134 N 0.36366 0.92184 -0.07727
 N135 N 0.46203 1.05176 -0.09071
 N136 N 0.46076 1.09081 -0.12019
 Mn137 Mn 0.40288 0.99753 -0.01128
 Mn138 Mn 0.52171 0.99615 -0.08798
 Cl139 Cl 0.50524 0.99316 -0.00196
 C140 C 0.41094 1.11514 -0.10533
 C141 C 0.37999 0.90556 -0.12118
 N142 N 1.06119 0.40260 0.54650
 N143 N 1.08943 0.36093 0.55688
 N144 N 0.93355 0.43510 0.57573
 N145 N 0.88586 0.42487 0.60265
 N146 N 0.93755 0.40457 0.53842
 N147 N 0.89198 0.37306 0.53874
 N148 N 1.05625 0.43245 0.58423
 N149 N 1.08087 0.41105 0.62132
 C150 C 1.10317 0.36730 0.60302
 C151 C 0.85977 0.38686 0.57870
 N152 N 0.93868 0.58093 0.55647
 N153 N 0.89115 0.60932 0.55828
 N154 N 1.05847 0.54128 0.59448
 N155 N 1.10366 0.54194 0.62310
 N156 N 1.06083 0.58057 0.56571
 N157 N 1.10631 0.60964 0.57438
 N158 N 0.93371 0.54348 0.58727
 N159 N 0.88248 0.54608 0.61177
 Mn160 Mn 0.99555 0.48814 0.58621
 C161 C 0.85648 0.58721 0.59274
 C162 C 1.13256 0.58509 0.60988
 N163 N 0.95585 0.41554 0.43640
 N164 N 0.91308 0.38440 0.42542
 N165 N 1.08252 0.45377 0.41513
 N166 N 1.13199 0.45088 0.38862
 N167 N 1.07822 0.41571 0.44536
 N168 N 1.12489 0.38622 0.44066
 N169 N 0.95868 0.45450 0.40719
 N170 N 0.91650 0.45142 0.37583
 Mn171 Mn 1.00820 0.40919 0.49154
 C172 C 0.88921 0.40710 0.38771
 C173 C 1.15833 0.40911 0.40565
 N174 N 1.07804 0.59184 0.46457
 N175 N 1.12183 0.62490 0.46429
 N176 N 0.95995 0.56360 0.41813
 N177 N 0.92195 0.57702 0.38571
 N178 N 0.95531 0.59332 0.45586
 N179 N 0.91357 0.62698 0.45100
 N180 N 1.08252 0.56194 0.42689
 N181 N 1.12919 0.57429 0.39956
 Mn182 Mn 1.00819 0.58706 0.51078
 Mn183 Mn 1.02084 0.50844 0.41597
 Cl184 Cl 1.00815 0.49811 0.50111
 C185 C 1.15391 0.61273 0.42405
 C186 C 0.89345 0.61647 0.40725
 N187 N 1.08545 0.56609 0.06074
 N188 N 1.11301 0.60801 0.07394
 N189 N 1.06174 0.45249 0.08625
 N190 N 1.06822 0.41166 0.11260
 N191 N 1.10863 0.46027 0.05796
 N192 N 1.14865 0.42471 0.06488
 N193 N 1.03851 0.55792 0.08898
 N194 N 1.03237 0.59439 0.12136
 C195 C 1.07888 0.62565 0.11157
 C196 C 1.12285 0.39505 0.09973
 N197 N 0.90512 0.42666 0.03652
 N198 N 0.87478 0.38372 0.03988
 N199 N 0.91532 0.53569 0.07740
 N200 N 0.89432 0.56956 0.10829
 N201 N 0.88206 0.53225 0.03999
 N202 N 0.83808 0.56483 0.04390
 N203 N 0.93834 0.43213 0.07389
 N204 N 0.93051 0.39388 0.10397
 Mn205 Mn 0.98857 0.49461 0.08192
 C206 C 0.89170 0.36348 0.08197
 C207 C 0.84594 0.58702 0.08714
 N208 N 1.12663 0.46495 -0.04564
 N209 N 1.16732 0.42919 -0.04639
 N210 N 1.07096 0.56514 -0.08125
 N211 N 1.07930 0.60305 -0.11170
 N212 N 1.10375 0.57099 -0.04362
 N213 N 1.13424 0.61381 -0.04722
 N214 N 1.09340 0.46055 -0.08318
 N215 N 1.11150 0.42244 -0.11077
 Mn216 Mn 1.10696 0.51581 0.00731
 C217 C 1.15780 0.40341 -0.08753
 C218 C 1.11818 0.63347 -0.08979
 N219 N 0.90058 0.53862 -0.06330
 N220 N 0.85918 0.57275 -0.06971
 N221 N 0.96901 0.44017 -0.09561
 N222 N 0.97301 0.40369 -0.12824
 N223 N 0.92214 0.43328 -0.06705
 N224 N 0.89240 0.39266 -0.08007
 N225 N 0.94572 0.54611 -0.09367
 N226 N 0.93543 0.58522 -0.12207
 Mn227 Mn 0.90184 0.48264 -0.01352
 Mn228 Mn 1.01993 0.50300 -0.08896
 Cl229 Cl 1.00433 0.49911 -0.00338
 C230 C 0.88095 0.60135 -0.10682
 C231 C 0.92498 0.37423 -0.11792
 N232 N 0.58592 1.06515 0.55970
 N233 N 0.61492 1.10611 0.57284
 N234 N 0.55944 0.95218 0.58326
 N235 N 0.56448 0.90982 0.60780
 N236 N 0.60647 0.95965 0.55497
 N237 N 0.64506 0.92262 0.56019
 N238 N 0.53845 1.05825 0.58753
 N239 N 0.53318 1.09503 0.61975
 C240 C 0.58119 1.12464 0.61002
 C241 C 0.61843 0.89218 0.59392
 N242 N 0.40373 0.92993 0.53165
 N243 N 0.37769 0.88508 0.53113
 N244 N 0.41469 1.03929 0.57441
 N245 N 0.39397 1.07386 0.60491
 N246 N 0.38114 1.03548 0.53714
 N247 N 0.33694 1.06792 0.54114
 N248 N 0.43587 0.93468 0.56970
 N249 N 0.43166 0.89367 0.59652
 Mn250 Mn 0.48703 0.99619 0.57924
 C251 C 0.39591 0.86295 0.57177
 C252 C 0.34553 1.09148 0.58366
 N253 N 0.62569 0.96724 0.45173
 N254 N 0.66656 0.93181 0.45024
 N255 N 0.57104 1.06847 0.41876
 N256 N 0.57340 1.11031 0.39293
 N257 N 0.60357 1.07301 0.45667
 N258 N 0.62791 1.11864 0.45798
 N259 N 0.59240 0.96351 0.41425
 N260 N 0.60994 0.92557 0.38625
 Mn261 Mn 0.60626 1.01638 0.50568
 C262 C 0.65640 0.90640 0.40909
 C263 C 0.60854 1.14138 0.41792
 N264 N 0.40125 1.04258 0.43466
 N265 N 0.36255 1.07944 0.43178
 N266 N 0.46896 0.94436 0.40059
 N267 N 0.47475 0.90723 0.36869
 N268 N 0.42179 0.93714 0.42870
 N269 N 0.39354 0.89556 0.41599
 N270 N 0.44681 1.05049 0.40489
 N271 N 0.43952 1.09277 0.38027
 Mn272 Mn 0.40128 0.98613 0.48299
 Mn273 Mn 0.52002 1.00674 0.40899
 Cl274 Cl 0.50365 1.00137 0.49424
 C275 C 0.38646 1.11012 0.39733
 C276 C 0.42733 0.87698 0.37877
 N277 N 1.07642 1.05705 0.56842
 N278 N 1.11133 1.08612 0.59400
 N279 N 1.05581 0.94205 0.58027
 N280 N 1.06572 0.90027 0.60462
 N281 N 1.10160 0.95376 0.55203
 N282 N 1.14351 0.91943 0.55560
 N283 N 1.02916 1.04431 0.59476
 N284 N 1.03049 1.06455 0.63791
 C285 C 1.08115 1.09110 0.63689
 C286 C 1.12058 0.88667 0.58894
 N287 N 0.89916 0.92090 0.52806
 N288 N 0.86969 0.87755 0.52771
 N289 N 0.90742 1.02490 0.57929
 N290 N 0.89144 1.06137 0.60956
 N291 N 0.87416 1.02483 0.54168
 N292 N 0.83512 1.06168 0.54520
 N293 N 0.93420 0.92224 0.56444
 N294 N 0.93029 0.88022 0.58947
 Mn295 Mn 0.98138 0.98328 0.57981
 C296 C 0.89092 0.85244 0.56580
 C297 C 0.84590 1.08354 0.58805
 N298 N 1.12050 0.97287 0.45084
 N299 N 1.16388 0.94011 0.44594
 N300 N 1.06040 1.07346 0.42677
 N301 N 1.06936 1.11250 0.39817
 N302 N 1.09456 1.07587 0.46393
 N303 N 1.12835 1.11691 0.46092
 N304 N 1.08709 0.97114 0.41340
 N305 N 1.10722 0.93743 0.38173
 Mn306 Mn 1.09898 1.01535 0.50883
 C307 C 1.15538 0.91877 0.40255
 C308 C 1.11094 1.13952 0.42008
 N309 N 0.89239 1.04158 0.43972
 N310 N 0.84854 1.07324 0.43312
 N311 N 0.96479 0.94986 0.39903
 N312 N 0.97045 0.91875 0.36208
 N313 N 0.91779 0.93844 0.42604
 N314 N 0.88957 0.89954 0.40769
 N315 N 0.93788 1.05277 0.41098
 N316 N 0.92593 1.09189 0.38351
 Mn317 Mn 0.89502 0.98129 0.48392
 Mn318 Mn 1.01270 1.01185 0.41219
 Cl319 Cl 0.99713 0.99828 0.49617
 C320 C 0.86989 1.10395 0.39752
 C321 C 0.92351 0.88748 0.36819
 N322 N 0.57746 0.57074 0.05715
 N323 N 0.60924 0.60528 0.07921
 N324 N 0.55628 0.45885 0.07890
 N325 N 0.56879 0.42455 0.11119
 N326 N 0.60229 0.46821 0.05021
 N327 N 0.64727 0.44011 0.06145
 N328 N 0.52898 0.56102 0.08291
 N329 N 0.52520 0.58924 0.12165
 C330 C 0.57475 0.61699 0.11872
 C331 C 0.62567 0.41363 0.09969
 N332 N 0.39998 0.43097 0.02782
 N333 N 0.36955 0.38816 0.03207
 N334 N 0.41034 0.54007 0.06917
 N335 N 0.39189 0.57533 0.09940
 N336 N 0.37497 0.53534 0.03340
 N337 N 0.32994 0.56668 0.03918
 N338 N 0.43478 0.43629 0.06416
 N339 N 0.42968 0.39772 0.09371
 Mn340 Mn 0.48234 0.49876 0.07392
 C341 C 0.38960 0.36790 0.07317
 C342 C 0.34224 0.59210 0.08009
 N343 N 0.62230 0.47476 -0.05214
 N344 N 0.66314 0.43916 -0.05403
 N345 N 0.56243 0.57419 -0.08307
 N346 N 0.56480 0.61446 -0.11047
 N347 N 0.59687 0.57923 -0.04658
 N348 N 0.62472 0.62325 -0.04862
 N349 N 0.58895 0.47119 -0.08953
 N350 N 0.60662 0.43396 -0.11818
 Mn351 Mn 0.60072 0.52351 0.00203
 C352 C 0.65313 0.41458 -0.09584
 C353 C 0.60282 0.64481 -0.08823
 N354 N 0.39552 0.54472 -0.06860
 N355 N 0.35650 0.58125 -0.07258
 N356 N 0.46717 0.45011 -0.10322
 N357 N 0.46687 0.42481 -0.14386
 N358 N 0.41901 0.44083 -0.07664
 N359 N 0.38437 0.40912 -0.09945
 N360 N 0.44158 0.55278 -0.09774
 N361 N 0.43467 0.59405 -0.12325
 Mn362 Mn 0.39633 0.48759 -0.02108
 Mn363 Mn 0.51527 0.51204 -0.09364
 Cl364 Cl 0.49875 0.50511 -0.00975
 C365 C 0.38160 0.61110 -0.10726
 C366 C 0.41574 0.39901 -0.14082
 C367 C 0.26526 1.17535 0.16499
 C368 C 0.22543 1.16492 0.13017
 C369 C 0.25358 1.13221 0.09937
 C370 C 0.30821 1.12449 0.11800
 O371 O 0.31532 1.15012 0.15795
 H372 H 0.18164 1.17950 0.12669
 H373 H 0.23655 1.11627 0.06682
 C374 C 0.75277 0.66211 0.65303
 C375 C 0.73105 0.66624 0.60759
 C376 C 0.76258 0.63262 0.57986
 C377 C 0.80108 0.61012 0.61022
 O378 O 0.79503 0.62772 0.65444
 H379 H 0.70148 0.69415 0.59425
 H380 H 0.76237 0.62922 0.54111
 C381 C 0.68900 0.78697 0.16099
 C382 C 0.67279 0.75860 0.12160
 C383 C 0.63619 0.78793 0.09690
 C384 C 0.63139 0.83154 0.12322
 O385 O 0.66350 0.83178 0.16175
 H386 H 0.68422 0.72043 0.11174
 H387 H 0.61640 0.77917 0.06308
 C388 C 1.15850 0.27404 0.67725
 C389 C 1.10217 0.25467 0.67287
 C390 C 1.07495 0.28680 0.64311
 C391 C 1.11593 0.32399 0.63269
 O392 O 1.16655 0.31679 0.65318
 H393 H 1.08144 0.22302 0.69127
 H394 H 1.02979 0.28473 0.63197
 C395 C 0.74270 1.18454 -0.15905
 C396 C 0.78525 1.17434 -0.12643
 C397 C 0.75889 1.14162 -0.09410
 C398 C 0.70277 1.13360 -0.11013
 O399 O 0.69296 1.15940 -0.14943
 H400 H 0.82999 1.18877 -0.12635
 H401 H 0.77869 1.12459 -0.06333
 C402 C 1.24060 0.69340 0.35227
 C403 C 1.28286 0.68349 0.38538
 C404 C 1.25527 0.65291 0.41912
 C405 C 1.19934 0.64557 0.40276
 O406 O 1.19047 0.66977 0.36263
 H407 H 1.32834 0.69616 0.38451
 H408 H 1.27419 0.63641 0.45053
 C409 C 0.28337 0.83390 -0.18855
 C410 C 0.24468 0.87143 -0.17420
 C411 C 0.27786 0.90509 -0.15004
 C412 C 0.33462 0.88619 -0.15233
 O413 O 0.33819 0.84289 -0.17565
 H414 H 0.19800 0.87388 -0.18059
 H415 H 0.26227 0.93874 -0.13137
 C416 C 0.78055 0.33591 0.33366
 C417 C 0.74574 0.37636 0.34879
 C418 C 0.78274 0.40960 0.36974
 C419 C 0.83708 0.38705 0.36584
 O420 O 0.83623 0.34245 0.34440
 H421 H 0.69929 0.38211 0.34315
 H422 H 0.77156 0.44564 0.38615
 C423 C 1.18690 0.29242 0.15959
 C424 C 1.13538 0.26957 0.14565
 C425 C 1.10860 0.30359 0.11736
 C426 C 1.14466 0.34559 0.11614
 O427 O 1.19191 0.33940 0.14232
 H428 H 1.11605 0.23447 0.15875
 H429 H 1.06511 0.30007 0.10294
 C430 C 0.68201 0.78487 0.64706
 C431 C 0.63155 0.76262 0.63021
 C432 C 0.60421 0.79908 0.60489
 C433 C 0.63926 0.84151 0.60796
 O434 O 0.68611 0.83337 0.63407
 H435 H 0.61408 0.72537 0.63876
 H436 H 0.56154 0.79620 0.58893
 C437 C 1.18363 0.72751 -0.16468
 C438 C 1.18205 0.75507 -0.12242
 C439 C 1.15703 0.72362 -0.08815
 C440 C 1.14374 0.67966 -0.11216
 O441 O 1.15957 0.68199 -0.15834
 H442 H 1.19994 0.79241 -0.11645
 H443 H 1.15008 0.73149 -0.05017
 C444 C 0.66445 1.24381 0.35008
 C445 C 0.66811 1.26652 0.39466
 C446 C 0.64558 1.23176 0.42715
 C447 C 0.62843 1.19112 0.39986
 O448 O 0.63913 1.19863 0.35360
 H449 H 0.68972 1.30173 0.40320
 H450 H 0.64448 1.23467 0.46597
 C451 C 0.78194 0.68612 0.15340
 C452 C 0.79600 0.71180 0.11111
 C453 C 0.81519 0.67621 0.07901
 C454 C 0.81451 0.63181 0.10456
 O455 O 0.79551 0.63760 0.14986
 H456 H 0.79429 0.75215 0.10481
 H457 H 0.83274 0.68254 0.04276
 C458 C 0.27092 1.18403 0.65399
 C459 C 0.24121 1.19099 0.61208
 C460 C 0.26473 1.15671 0.57999
 C461 C 0.30759 1.13179 0.60433
 O462 O 0.31152 1.14824 0.64905
 H463 H 0.20601 1.21720 0.60559
 H464 H 0.25234 1.15076 0.54323
 C465 C 0.85593 0.27925 -0.18567
 C466 C 0.91315 0.26176 -0.19122
 C467 C 0.94698 0.29460 -0.16589
 C468 C 0.90802 0.32946 -0.14620
 O469 O 0.85311 0.32053 -0.15841
 H470 H 0.92886 0.23074 -0.21365
 H471 H 0.99445 0.29396 -0.16306
 C472 C 0.36064 0.77776 0.31417
 C473 C 0.41827 0.76132 0.30855
 C474 C 0.45171 0.79607 0.33231
 C475 C 0.41213 0.83102 0.35112
 O476 O 0.35750 0.82033 0.33959
 H477 H 0.43435 0.72951 0.28735
 H478 H 0.49922 0.79633 0.33493
 C479 C 1.17571 1.22657 0.34084
 C480 C 1.13445 1.25816 0.36286
 C481 C 1.10943 1.23089 0.39986
 C482 C 1.13705 1.18467 0.39781
 O483 O 1.17643 1.18158 0.36156
 H484 H 1.12144 1.29548 0.35175
 H485 H 1.07207 1.24179 0.42297
 C486 C 0.66500 0.72332 -0.17296
 C487 C 0.61831 0.75404 -0.15881
 C488 C 0.59312 0.73135 -0.11926
 C489 C 0.62657 0.68891 -0.11228
 O490 O 0.66939 0.68352 -0.14516
 H491 H 0.60254 0.78744 -0.17661
 H492 H 0.55207 0.74169 -0.10068
 C493 C 0.78694 1.18839 0.65131
 C494 C 0.76583 1.19887 0.60643
 C495 C 0.78474 1.16067 0.57716
 C496 C 0.81673 1.12972 0.60581
 O497 O 0.81846 1.14622 0.65077
 H498 H 0.73701 1.22897 0.59634
 H499 H 0.77584 1.15571 0.53949
 C500 C 0.27100 0.66313 0.16884
 C501 C 0.23439 0.62091 0.16858
 C502 C 0.25124 0.59372 0.12935
 C503 C 0.29905 0.61931 0.10973
 O504 O 0.31208 0.66106 0.13388
 H505 H 0.19895 0.61093 0.19409
 H506 H 0.23483 0.55677 0.11934
 C507 C 1.18916 0.78615 0.64796
 C508 C 1.19211 0.76640 0.60189
 C509 C 1.16728 0.80181 0.57344
 C510 C 1.14982 0.84015 0.60419
 O511 O 1.16277 0.83090 0.64929
 H512 H 1.21181 0.73131 0.58979
 H513 H 1.16250 0.79997 0.53492
 C514 C 0.68963 0.31741 0.16421
 C515 C 0.70191 0.30031 0.11765
 C516 C 0.68091 0.33536 0.08810
 C517 C 0.65592 0.37072 0.11833
 O518 O 0.66055 0.36054 0.16455
 H519 H 0.72224 0.26540 0.10597
 H520 H 0.68173 0.33450 0.04916
 C521 C 0.85859 0.79818 0.29381
 C522 C 0.91595 0.79291 0.27588
 C523 C 0.94864 0.82571 0.30186
 C524 C 0.90878 0.84800 0.33386
 O525 O 0.85433 0.83180 0.32885
 H526 H 0.93183 0.76873 0.24674
 H527 H 0.99566 0.83272 0.29787
 C528 C 0.34349 0.32166 -0.22160
 C529 C 0.39513 0.32866 -0.24875
 C530 C 0.42863 0.35989 -0.22219
 C531 C 0.39485 0.36938 -0.18093
 O532 O 0.34285 0.34702 -0.18070
 H533 H 0.40791 0.31112 -0.28276
 H534 H 0.47313 0.37279 -0.23101
 C535 C 1.22351 0.29923 -0.14794
 C536 C 1.23536 0.28488 -0.10165
 C537 C 1.21485 0.32336 -0.07269
 C538 C 1.19018 0.35760 -0.10322
 O539 O 1.19507 0.34299 -0.14868
 H540 H 1.25520 0.25008 -0.09008
 H541 H 1.21543 0.32520 -0.03385
 C542 C 0.72342 0.80369 0.34800
 C543 C 0.75616 0.80268 0.38891
 C544 C 0.73460 0.84054 0.41764
 C545 C 0.69037 0.86216 0.39235
 O546 O 0.68335 0.84007 0.35023
 H547 H 0.79389 0.77945 0.39604
 H548 H 0.75047 0.85206 0.45220
 C549 C 0.80945 0.70041 -0.16898
 C550 C 0.79247 0.71311 -0.12227
 C551 C 0.81846 0.67873 -0.09357
 C552 C 0.85050 0.64735 -0.12414
 O553 O 0.84505 0.66015 -0.17007
 H554 H 0.76128 0.74170 -0.11032
 H555 H 0.81305 0.67577 -0.05485
 C556 C 0.31993 1.21422 0.34202
 C557 C 0.30136 1.22380 0.38907
 C558 C 0.32661 1.18751 0.41599
 C559 C 0.35929 1.15836 0.38384
 O560 O 0.35531 1.17422 0.33895
 H561 H 0.26879 1.25080 0.40204
 H562 H 0.31937 1.18122 0.45421
 C563 C 1.14324 0.71803 0.18594
 C564 C 1.08509 0.72404 0.20163
 C565 C 1.05274 0.69294 0.17338
 C566 C 1.09296 0.67028 0.14186
 O567 O 1.14750 0.68618 0.14886
 H568 H 1.06871 0.74491 0.23286
 H569 H 1.00593 0.68501 0.17757
 C570 C 0.64790 1.22031 0.67812
 C571 C 0.59046 1.23734 0.68323
 C572 C 0.55736 1.20421 0.65758
 C573 C 0.59700 1.16970 0.63822
 O574 O 0.65154 1.17909 0.65089
 H575 H 0.57415 1.26820 0.70559
 H576 H 0.50994 1.20439 0.65439
 C577 C 0.81964 0.27437 0.15795
 C578 C 0.83049 0.24212 0.11954
 C579 C 0.85890 0.27121 0.08480
 C580 C 0.86477 0.31845 0.10527
 O581 O 0.84147 0.32025 0.14942
 H582 H 0.81601 0.20323 0.11615
 H583 H 0.87310 0.25958 0.04889
 C584 C 0.33240 0.76632 0.64170
 C585 C 0.33185 0.74066 0.59842
 C586 C 0.35724 0.77316 0.56523
 C587 C 0.37271 0.81525 0.59124
 O588 O 0.35810 0.81103 0.63722
 H589 H 0.31188 0.70432 0.59126
 H590 H 0.36219 0.76755 0.52674
 C591 C 0.33726 1.20890 -0.16687
 C592 C 0.36345 1.23956 -0.13340
 C593 C 0.39708 1.20842 -0.10708
 C594 C 0.38949 1.16130 -0.12667
 O595 O 0.35314 1.16112 -0.16250
 H596 H 0.35687 1.27922 -0.12657
 H597 H 0.42214 1.21840 -0.07611
 C598 C 0.79600 0.68950 0.34361
 C599 C 0.76158 0.68336 0.38537
 C600 C 0.79410 0.65474 0.41459
 C601 C 0.84464 0.64383 0.38779
 O602 O 0.84626 0.66456 0.34467
 H603 H 0.71789 0.69817 0.39356
 H604 H 0.78238 0.64283 0.45093
 C605 C 0.67879 1.19717 0.17176
 C606 C 0.62481 1.21649 0.15774
 C607 C 0.59723 1.17954 0.13459
 C608 C 0.63458 1.13940 0.13619
 O609 O 0.68417 1.14896 0.15881
 H610 H 0.60462 1.25247 0.16659
 H611 H 0.55366 1.18086 0.12002
 C612 C 1.23704 0.65963 0.66451
 C613 C 1.26858 0.61484 0.66447
 C614 C 1.23333 0.57969 0.64379
 C615 C 1.18369 0.60599 0.63249
 O616 O 1.18569 0.65406 0.64474
 H617 H 1.31005 0.60770 0.68114
 H618 H 1.24210 0.53980 0.63851
 C619 C 0.74664 0.82221 -0.17882
 C620 C 0.78981 0.83390 -0.14709
 C621 C 0.76270 0.86449 -0.11340
 C622 C 0.70551 0.86981 -0.12785
 O623 O 0.69598 0.84482 -0.16766
 H624 H 0.83452 0.81975 -0.14717
 H625 H 0.78190 0.88020 -0.08163
 C626 C 1.25124 0.33416 0.33381
 C627 C 1.29153 0.34461 0.36842
 C628 C 1.26289 0.37668 0.40013
 C629 C 1.20847 0.38452 0.38120
 O630 O 1.20159 0.35922 0.34117
 H631 H 1.33498 0.32851 0.37166
 H632 H 1.27876 0.39099 0.43373
 C633 C 0.26942 0.79575 0.14897
 C634 C 0.23751 0.79231 0.10797
 C635 C 0.26540 0.82454 0.07577
 C636 C 0.31228 0.84493 0.09963
 O637 O 0.31469 0.82749 0.14374
 H638 H 0.19839 0.76983 0.10239
 H639 H 0.25264 0.83274 0.03955
 C640 C 0.76295 0.31413 0.65120
 C641 C 0.72345 0.32450 0.61606
 C642 C 0.75495 0.35226 0.58206
 C643 C 0.81050 0.35750 0.59995
 O644 O 0.81515 0.33492 0.64161
 H645 H 0.67788 0.31234 0.61485
 H646 H 0.73914 0.36757 0.54893
 C647 C 1.15527 1.15794 0.72558
 C648 C 1.10942 1.13974 0.75471
 C649 C 1.07573 1.11162 0.72513
 C650 C 1.10363 1.11482 0.68023
 O651 O 1.15193 1.14262 0.68043
 H652 H 1.10039 1.14778 0.79244
 H653 H 1.03500 1.09197 0.73487
 C654 C 0.64167 0.68603 0.20836
 C655 C 0.58389 0.69317 0.22427
 C656 C 0.55101 0.66851 0.19187
 C657 C 0.59132 0.64885 0.15856
 O658 O 0.64631 0.65860 0.16875
 H659 H 0.56773 0.71493 0.25501
 H660 H 0.50335 0.66553 0.19214
 C661 C 1.22515 0.81892 0.33954
 C662 C 1.24705 0.81084 0.38463
 C663 C 1.22518 0.84823 0.41314
 C664 C 1.19006 0.87598 0.38416
 O665 O 1.18932 0.85842 0.33949
 H666 H 1.27680 0.78186 0.39578
 H667 H 1.23296 0.85402 0.45091
 C668 C 0.71635 0.31112 -0.15840
 C669 C 0.73796 0.30128 -0.11355
 C670 C 0.71805 0.33935 -0.08430
 C671 C 0.68490 0.36936 -0.11299
 O672 O 0.68353 0.35249 -0.15785
 H673 H 0.76709 0.27131 -0.10347
 H674 H 0.72657 0.34458 -0.04661
 C675 C 0.79938 1.20461 0.34015
 C676 C 0.80124 1.22471 0.38603
 C677 C 0.82642 1.18890 0.41335
 C678 C 0.83982 1.14991 0.38226
 O679 O 0.82382 1.15904 0.33771
 H680 H 0.78613 1.26118 0.39866
 H681 H 0.83520 1.19127 0.45125
 C682 C 0.32456 0.71146 -0.17113
 C683 C 0.32121 0.73362 -0.12597
 C684 C 0.34152 0.69825 -0.09532
 C685 C 0.35661 0.65783 -0.12420
 O686 O 0.34690 0.66554 -0.16992
 H687 H 0.30323 0.76995 -0.11569
 H688 H 0.34475 0.70138 -0.05673
 C689 C 0.82946 0.76570 0.64502
 C690 C 0.87035 0.73380 0.62307
 C691 C 0.89450 0.76079 0.58539
 C692 C 0.86593 0.80668 0.58700
 O693 O 0.82718 0.80989 0.62339
 H694 H 0.88319 0.69652 0.63460
 H695 H 0.93178 0.75001 0.56216
 C696 C 0.33541 0.28189 0.15718
 C697 C 0.37995 0.25238 0.13697
 C698 C 0.40120 0.27868 0.09791
 C699 C 0.36797 0.32211 0.09698
 O700 O 0.32875 0.32450 0.13330
 H701 H 0.39709 0.21727 0.15046
 H702 H 0.43975 0.26955 0.07542
   
