data_POSCAR
  _audit_creation_date              2014-09-24
  _audit_creation_method            'ToBaCCo'
  _symmetry_space_group_name_H-M    'P1'
  _symmetry_Int_Tables_number       1
  _symmetry_cell_setting            triclinic
  loop_
  _symmetry_equiv_pos_as_xyz
 x,y,z
_cell_length_a 35.4351
_cell_length_b 35.1482
_cell_length_c 33.0349
_cell_angle_alpha 90.088100
_cell_angle_beta 90.529900
_cell_angle_gamma 92.151400
loop_
  _atom_site_label
  _atom_site_type_symbol
  _atom_site_fract_x
  _atom_site_fract_y
  _atom_site_fract_z
C1 C 0.30457 0.33519 1.35905
 N2 N 0.32533 0.30428 1.36775
 C3 C 0.35282 0.29295 1.34248
 N4 N 0.35931 0.31292 1.30801
 C5 C 0.33969 0.34421 1.29915
 N6 N 0.31213 0.35533 1.32453
 C7 C 1.21279 0.65450 0.88042
 N8 N 1.18686 0.67602 0.89837
 C9 C 1.15541 0.68702 0.87866
 N10 N 1.14933 0.67534 0.83972
 C11 C 1.17459 0.65267 0.82134
 N12 N 1.20641 0.64275 0.84169
 C13 C 0.68334 -0.13572 0.13208
 N14 N 0.66960 -0.11385 0.16197
 C15 C 0.64737 -0.12886 0.19128
 N16 N 0.63746 -0.16642 0.18986
 C17 C 0.65012 -0.18916 0.15978
 N18 N 0.67395 -0.17373 0.13130
 C19 C -0.21226 1.16657 -0.34129
 N20 N -0.19787 1.20279 -0.34376
 C21 C -0.16043 1.21065 -0.33745
 N22 N -0.13759 1.18195 -0.32698
 C23 C -0.15202 1.14579 -0.32291
 N24 N -0.18921 1.13822 -0.33072
 C25 C 0.71494 0.66435 0.62773
 N26 N 0.70715 0.65289 0.66599
 C27 C 0.67505 0.66374 0.68460
 N28 N 0.65091 0.68705 0.66482
 C29 C 0.65859 0.69850 0.62620
 N30 N 0.69035 0.68658 0.60836
 C31 C 0.80354 0.32251 0.13819
 N32 N 0.81314 0.34337 0.17165
 C33 C 0.84088 0.33248 0.19729
 N34 N 0.85949 0.30039 0.18897
 C35 C 0.85080 0.27924 0.15538
 N36 N 0.82262 0.29045 0.13026
 C37 C 0.28896 0.17196 0.86258
 N38 N 0.30562 0.20753 0.86418
 C39 C 0.33685 0.21607 0.84174
 N40 N 0.35133 0.18901 0.81765
 C41 C 0.33548 0.15330 0.81659
 N42 N 0.30452 0.14507 0.83909
 C43 C 0.19234 0.84126 0.35501
 N44 N 0.17272 0.80763 0.35910
 C45 C 0.14550 0.79654 0.33207
 N46 N 0.13733 0.81984 0.30080
 C47 C 0.15654 0.85368 0.29611
 N48 N 0.18429 0.86413 0.32309
 Zn49 Zn -0.01524 1.03616 -0.03353
 Zn50 Zn -0.03406 0.95475 -0.04979
 Zn51 Zn 0.03974 0.98074 -0.01708
 Zn52 Zn -0.02408 0.98466 0.03263
 O53 O -0.00906 0.98849 -0.01801
 O54 O -0.03310 1.03708 -0.08444
 O55 O -0.00760 0.91225 -0.05654
 O56 O 0.06587 1.01456 -0.04747
 O57 O -0.04334 0.97553 -0.09831
 O58 O 0.02946 1.06242 -0.03332
 O59 O 0.04831 0.93313 -0.03233
 O60 O 0.00811 0.95841 0.06323
 O61 O -0.07925 0.94152 -0.02811
 O62 O 0.05796 0.98509 0.03362
 O63 O -0.07086 0.96393 0.03459
 O64 O -0.02622 1.03120 0.05467
 O65 O -0.04596 1.06101 0.00007
 C66 C -0.04267 1.01037 -0.10905
 C67 C 0.02657 0.90665 -0.04660
 C68 C 0.06094 1.05016 -0.04492
 C69 C 0.04316 0.96778 0.06363
 C70 C -0.09160 0.94830 0.00715
 C71 C -0.04151 1.05959 0.03833
 Zn72 Zn 0.47050 -0.00795 0.46219
 Zn73 Zn 0.46842 -0.03716 0.54609
 Zn74 Zn 0.53846 -0.00808 0.50816
 Zn75 Zn 0.48008 0.04407 0.53132
 O76 O 0.48910 -0.00223 0.51230
 O77 O 0.42723 -0.03521 0.46198
 O78 O 0.49849 -0.07686 0.55431
 O79 O 0.55367 -0.00239 0.45681
 O80 O 0.42483 -0.05666 0.52515
 O81 O 0.50308 -0.03097 0.42962
 O82 O 0.55002 -0.05522 0.52269
 O83 O 0.52174 0.06614 0.55360
 O84 O 0.45744 -0.01598 0.59406
 O85 O 0.56551 0.02507 0.53866
 O86 O 0.44600 0.04147 0.57049
 O87 O 0.46373 0.07563 0.49297
 O88 O 0.46078 0.03719 0.43960
 C89 C 0.41041 -0.05382 0.48988
 C90 C 0.53158 -0.08161 0.54105
 C91 C 0.53758 -0.02005 0.42742
 C92 C 0.55560 0.05550 0.55576
 C93 C 0.44404 0.01685 0.59860
 C94 C 0.45785 0.06996 0.45540
 Zn95 Zn 1.00859 0.44363 0.49464
 Zn96 Zn 1.06200 0.51178 0.49888
 Zn97 Zn 0.98340 0.52016 0.46991
 Zn98 Zn 0.99759 0.50568 0.55666
 O99 O 1.01299 0.49510 0.50515
 O100 O 1.05347 0.42341 0.48353
 O101 O 1.06745 0.54852 0.46150
 O102 O 0.95774 0.48932 0.43673
 O103 O 1.09199 0.47464 0.48334
 O104 O 0.97738 0.43206 0.45184
 O105 O 1.00896 0.55251 0.43860
 O106 O 0.95944 0.53806 0.55881
 O107 O 1.08223 0.53102 0.54488
 O108 O 0.94917 0.54787 0.49378
 O109 O 1.03483 0.52626 0.58802
 O110 O 0.97919 0.46405 0.58115
 O111 O 0.98817 0.41786 0.53669
 C112 C 1.08605 0.43907 0.47850
 C113 C 1.04349 0.56298 0.43783
 C114 C 0.95691 0.45371 0.43086
 C115 C 0.94125 0.55367 0.53051
 C116 C 1.06889 0.53587 0.58002
 C117 C 0.97561 0.42946 0.57029
 Zn118 Zn 0.50132 0.51245 0.94808
 Zn119 Zn 0.56867 0.51772 1.00382
 Zn120 Zn 0.49186 0.52627 1.03780
 Zn121 Zn 0.51477 0.45093 1.00825
 O122 O 0.51910 0.50195 0.99939
 O123 O 0.53668 0.53532 0.91626
 O124 O 0.57671 0.55491 1.04060
 O125 O 0.45522 0.55274 1.01514
 O126 O 0.58630 0.53732 0.95750
 O127 O 0.46195 0.54313 0.94934
 O128 O 0.51992 0.55997 1.06693
 O129 O 0.48476 0.43879 1.04967
 O130 O 0.59913 0.47979 1.01741
 O131 O 0.46804 0.49459 1.07312
 O132 O 0.55918 0.42972 1.01771
 O133 O 0.49295 0.42586 0.96713
 O134 O 0.48339 0.47053 0.92147
 C135 C 0.57129 0.54406 0.92331
 C136 C 0.55456 0.57040 1.06510
 C137 C 0.44470 0.55777 0.97873
 C138 C 0.46620 0.45847 1.07416
 C139 C 0.59237 0.44425 1.02159
 C140 C 0.48023 0.43612 0.93306
 C141 C 1.22212 0.38420 0.40171
 C142 C 1.21075 0.35825 0.43065
 C143 C 1.23014 0.32546 0.43861
 C144 C 1.26227 0.31880 0.41549
 C145 C 1.27406 0.34426 0.38407
 C146 C 1.25351 0.37773 0.37757
 O147 O 1.20007 0.41391 0.39951
 C148 C 1.17407 0.40632 0.42742
 C149 C 1.17905 0.37235 0.44699
 C150 C 1.15414 0.35814 0.47615
 C151 C 1.12297 0.37996 0.48570
 C152 C 1.11789 0.41562 0.46684
 C153 C 1.14390 0.42897 0.43732
 H154 H 1.22083 0.30561 0.46180
 H155 H 1.27715 0.29302 0.42151
 H156 H 1.26145 0.39813 0.35434
 H157 H 1.15840 0.33109 0.49080
 H158 H 1.10325 0.36953 0.50832
 H159 H 1.14041 0.45593 0.42215
 C160 C 0.30641 0.61601 0.90743
 C161 C 0.31065 0.63012 0.94610
 C162 C 0.28384 0.65177 0.96459
 C163 C 0.25127 0.65948 0.94232
 C164 C 0.24578 0.64558 0.90199
 C165 C 0.27411 0.62337 0.88445
 O166 O 0.33508 0.59518 0.89618
 C167 C 0.35773 0.59626 0.92853
 C168 C 0.34399 0.61733 0.95982
 C169 C 0.36237 0.62144 0.99697
 C170 C 0.39615 0.60254 1.00242
 C171 C 0.41090 0.58013 0.97089
 C172 C 0.39154 0.57744 0.93315
 H173 H 0.28779 0.66228 0.99521
 H174 H 0.23042 0.67647 0.95689
 H175 H 0.27120 0.61205 0.85403
 H176 H 0.35079 0.63806 1.02117
 H177 H 0.41049 0.60494 1.03145
 H178 H 0.40171 0.56016 0.90868
 C179 C -0.23585 0.88256 0.06274
 C180 C -0.23843 0.92128 0.05824
 C181 C -0.26727 0.94171 0.07461
 C182 C -0.29408 0.92176 0.09778
 C183 C -0.29234 0.88172 0.10371
 C184 C -0.26352 0.86156 0.08431
 O185 O -0.20331 0.86987 0.04923
 C186 C -0.18516 0.90133 0.03615
 C187 C -0.20578 0.93341 0.04083
 C188 C -0.19136 0.96996 0.03320
 C189 C -0.15388 0.97381 0.02061
 C190 C -0.13174 0.94147 0.01590
 C191 C -0.14760 0.90453 0.02311
 H192 H -0.26803 0.97232 0.07144
 H193 H -0.31593 0.93791 0.11176
 H194 H -0.26048 0.83137 0.08922
 H195 H -0.20794 0.99475 0.03819
 H196 H -0.14164 1.00211 0.01557
 H197 H -0.13069 0.87960 0.02089
 C198 C 0.69818 0.11409 0.62552
 C199 C 0.67271 0.14260 0.62758
 C200 C 0.68285 0.17936 0.64029
 C201 C 0.72083 0.18703 0.65102
 C202 C 0.74756 0.15797 0.64921
 C203 C 0.73579 0.12089 0.63664
 O204 O 0.68343 0.08175 0.61060
 C205 C 0.64785 0.08996 0.60309
 C206 C 0.63970 0.12673 0.61314
 C207 C 0.60428 0.14148 0.60668
 C208 C 0.57628 0.11745 0.58876
 C209 C 0.58432 0.07964 0.57731
 C210 C 0.62062 0.06574 0.58507
 H211 H 0.66244 0.20149 0.64119
 H212 H 0.72941 0.21557 0.66055
 H213 H 0.75557 0.09827 0.63419
 H214 H 0.59855 0.17058 0.61462
 H215 H 0.54870 0.12863 0.58293
 H216 H 0.62780 0.03714 0.57662
 C217 C 0.39025 0.20839 0.39499
 C218 C 0.41257 0.19432 0.36507
 C219 C 0.41699 0.21193 0.32775
 C220 C 0.39749 0.24534 0.32083
 C221 C 0.37325 0.26018 0.35074
 C222 C 0.36981 0.24110 0.38849
 O223 O 0.39058 0.18772 0.42860
 C224 C 0.41341 0.15988 0.41953
 C225 C 0.42729 0.16238 0.38085
 C226 C 0.45072 0.13547 0.36463
 C227 C 0.46025 0.10473 0.38933
 C228 C 0.44701 0.10202 0.42964
 C229 C 0.42334 0.13012 0.44495
 H230 H 0.43494 0.20043 0.30477
 H231 H 0.40086 0.25906 0.29169
 H232 H 0.35204 0.25141 0.41231
 H233 H 0.46101 0.13787 0.33396
 H234 H 0.47838 0.08337 0.37735
 H235 H 0.41248 0.12847 0.47546
 C236 C 0.90535 0.29217 0.63996
 C237 C 0.88160 0.32186 0.64470
 C238 C 0.84395 0.31662 0.65538
 C239 C 0.83008 0.27919 0.66116
 C240 C 0.85426 0.24794 0.65795
 C241 C 0.89280 0.25487 0.64805
 O242 O 0.93852 0.30285 0.62438
 C243 C 0.93571 0.34015 0.61956
 C244 C 0.90170 0.35323 0.63243
 C245 C 0.89211 0.39104 0.62916
 C246 C 0.91832 0.41635 0.61110
 C247 C 0.95267 0.40326 0.59548
 C248 C 0.96175 0.36466 0.60020
 H249 H 0.82551 0.34039 0.65758
 H250 H 0.80054 0.27472 0.66861
 H251 H 0.91177 0.23176 0.64381
 H252 H 0.86507 0.40055 0.63929
 H253 H 0.91088 0.44574 0.60713
 H254 H 0.98752 0.35390 0.58797
 C255 C 0.08704 0.76273 -0.10103
 C256 C 0.09270 0.76675 -0.05999
 C257 C 0.11599 0.74383 -0.03768
 C258 C 0.13534 0.71620 -0.05853
 C259 C 0.13123 0.71156 -0.10126
 C260 C 0.10539 0.73442 -0.12256
 O261 O 0.06649 0.79021 -0.11665
 C262 C 0.05941 0.81195 -0.08472
 C263 C 0.07493 0.79857 -0.04942
 C264 C 0.07449 0.81830 -0.01300
 C265 C 0.05761 0.85357 -0.01285
 C266 C 0.04132 0.86823 -0.04860
 C267 C 0.04157 0.84692 -0.08504
 H268 H 0.12034 0.74807 -0.00548
 H269 H 0.15428 0.69896 -0.04110
 H270 H 0.10204 0.73247 -0.15512
 H271 H 0.08777 0.80748 0.01405
 H272 H 0.05764 0.86985 0.01504
 H273 H 0.03015 0.85811 -0.11291
 C274 C 0.62865 0.71236 1.12165
 C275 C 0.60419 0.69941 1.15107
 C276 C 0.59556 0.72089 1.18475
 C277 C 0.61223 0.75754 1.18802
 C278 C 0.63697 0.77248 1.15761
 C279 C 0.64583 0.74883 1.12431
 O280 O 0.63117 0.68814 1.09094
 C281 C 0.60762 0.65947 1.10118
 C282 C 0.59035 0.66507 1.13769
 C283 C 0.56247 0.64020 1.15280
 C284 C 0.55157 0.60845 1.12907
 C285 C 0.56887 0.60194 1.09127
 C286 C 0.59779 0.62757 1.07748
 H287 H 0.57593 0.71016 1.20730
 H288 H 0.60488 0.77447 1.21400
 H289 H 0.66407 0.75896 1.10020
 H290 H 0.54878 0.64566 1.18127
 H291 H 0.52929 0.58921 1.13985
 H292 H 0.61076 0.62389 1.04825
 C293 C 0.38081 0.40561 1.21616
 C294 C 0.36988 0.38377 1.18317
 C295 C 0.34608 0.35157 1.18606
 C296 C 0.33386 0.34070 1.22470
 C297 C 0.34550 0.36194 1.25936
 C298 C 0.36877 0.39530 1.25507
 O299 O 0.40556 0.43361 1.20687
 C300 C 0.41054 0.42907 1.16729
 C301 C 0.38951 0.39874 1.15155
 C302 C 0.39260 0.38658 1.11174
 C303 C 0.41832 0.40655 1.08696
 C304 C 0.43994 0.43839 1.10199
 C305 C 0.43571 0.45012 1.14271
 H306 H 0.33844 0.33453 1.15971
 H307 H 0.31686 0.31463 1.22795
 H308 H 0.37923 0.41104 1.28132
 H309 H 0.37633 0.36210 1.10036
 H310 H 0.42122 0.39740 1.05584
 H311 H 0.45236 0.47391 1.15509
 C312 C 0.59590 -0.09143 0.28204
 C313 C 0.61708 -0.05856 0.28968
 C314 C 0.64759 -0.04683 0.26616
 C315 C 0.65679 -0.07000 0.23344
 C316 C 0.63586 -0.10448 0.22515
 C317 C 0.60488 -0.11527 0.24993
 O318 O 0.56807 -0.09726 0.30822
 C319 C 0.57196 -0.06752 0.33296
 C320 C 0.60170 -0.04314 0.32305
 C321 C 0.61179 -0.01093 0.34571
 C322 C 0.59039 -0.00357 0.38015
 C323 C 0.55927 -0.02798 0.39077
 C324 C 0.54981 -0.06031 0.36661
 H325 H 0.66382 -0.02083 0.27282
 H326 H 0.68073 -0.06133 0.21503
 H327 H 0.58832 -0.14131 0.24441
 H328 H 0.63556 0.00761 0.33747
 H329 H 0.59789 0.02124 0.39841
 H330 H 0.52655 -0.07972 0.37435
 C331 C -0.08811 1.09757 -0.24994
 C332 C -0.09781 1.05991 -0.25746
 C333 C -0.12227 1.04847 -0.28874
 C334 C -0.13824 1.07705 -0.31231
 C335 C -0.12926 1.11607 -0.30444
 C336 C -0.10281 1.12628 -0.27366
 O337 O -0.06835 1.10288 -0.21602
 C338 C -0.06561 1.06791 -0.20164
 C339 C -0.08292 1.04048 -0.22590
 C340 C -0.08625 1.00238 -0.21463
 C341 C -0.07155 0.99230 -0.17665
 C342 C -0.05447 1.02034 -0.15064
 C343 C -0.05091 1.05856 -0.16390
 H344 H -0.13034 1.01877 -0.29343
 H345 H -0.15885 1.06892 -0.33547
 H346 H -0.09662 1.15580 -0.26582
 H347 H -0.10065 0.98139 -0.23382
 H348 H -0.07471 0.96293 -0.16699
 H349 H -0.03858 1.08081 -0.14469
 C350 C 1.12487 0.61255 0.72794
 C351 C 1.15539 0.60438 0.70443
 C352 C 1.19247 0.61236 0.71673
 C353 C 1.19840 0.62900 0.75502
 C354 C 1.16745 0.63778 0.77994
 C355 C 1.13010 0.62982 0.76585
 O356 O 1.09205 0.60129 0.71124
 C357 C 1.10210 0.58576 0.67643
 C358 C 1.14051 0.58711 0.67075
 C359 C 1.15720 0.57232 0.63650
 C360 C 1.13331 0.55558 0.60679
 C361 C 1.09353 0.55347 0.61195
 C362 C 1.07781 0.56880 0.64749
 H363 H 1.21604 0.60538 0.69784
 H364 H 1.22712 0.63484 0.76538
 H365 H 1.10594 0.63553 0.78443
 H366 H 1.18753 0.57366 0.63274
 H367 H 1.14589 0.54399 0.57991
 H368 H 1.04762 0.56785 0.65234
 C369 C 0.80789 0.61981 0.60208
 C370 C 0.81504 0.63697 0.56542
 C371 C 0.79128 0.66282 0.54790
 C372 C 0.75865 0.67149 0.56894
 C373 C 0.75016 0.65432 0.60693
 C374 C 0.77543 0.62813 0.62381
 O375 O 0.83379 0.59505 0.61238
 C376 C 0.85761 0.59671 0.58146
 C377 C 0.84727 0.62199 0.55204
 C378 C 0.86700 0.62734 0.51626
 C379 C 0.89852 0.60528 0.51016
 C380 C 0.90982 0.57862 0.53971
 C381 C 0.88932 0.57470 0.57624
 H382 H 0.79748 0.67568 0.51884
 H383 H 0.74001 0.69167 0.55534
 H384 H 0.76980 0.61433 0.65252
 H385 H 0.85801 0.64724 0.49348
 H386 H 0.91387 0.60867 0.48211
 H387 H 0.89689 0.55416 0.59903
 C388 C 0.72592 0.37840 1.09460
 C389 C 0.71184 0.35346 1.06566
 C390 C 0.72772 0.31858 1.05815
 C391 C 0.75917 0.30885 1.08170
 C392 C 0.77360 0.33350 1.11292
 C393 C 0.75653 0.36901 1.11896
 O394 O 0.70691 0.41017 1.09691
 C395 C 0.68000 0.40507 1.06901
 C396 C 0.68148 0.37064 1.04928
 C397 C 0.65472 0.35868 1.02042
 C398 C 0.62528 0.38316 1.01164
 C399 C 0.62366 0.41913 1.03098
 C400 C 0.65163 0.43031 1.05986
 H401 H 0.71624 0.29945 1.03507
 H402 H 0.77147 0.28160 1.07619
 H403 H 0.76655 0.38892 1.14206
 H404 H 0.65611 0.33125 1.00568
 H405 H 0.60391 0.37432 0.98957
 H406 H 0.65067 0.45732 1.07556
 C407 C 0.20441 1.11757 -0.10080
 C408 C 0.18539 1.14574 -0.08175
 C409 C 0.20005 1.18294 -0.07834
 C410 C 0.23542 1.19150 -0.09588
 C411 C 0.25516 1.16305 -0.11684
 C412 C 0.23923 1.12538 -0.11854
 O413 O 0.18583 1.08414 -0.10112
 C414 C 0.15418 1.09128 -0.08200
 C415 C 0.15230 1.12857 -0.06965
 C416 C 0.12102 1.14221 -0.04994
 C417 C 0.09068 1.11630 -0.04248
 C418 C 0.09229 1.07753 -0.05447
 C419 C 0.12463 1.06505 -0.07459
 H420 H 0.18463 1.20469 -0.06311
 H421 H 0.24678 1.22049 -0.09394
 H422 H 0.25304 1.10256 -0.13389
 H423 H 0.11996 1.17170 -0.04071
 H424 H 0.06621 1.12636 -0.02691
 H425 H 0.12675 1.03579 -0.08435
 C426 C 0.27329 -0.10728 0.40531
 C427 C 0.27747 -0.12938 0.43925
 C428 C 0.25435 -0.16117 0.44715
 C429 C 0.22584 -0.17070 0.41882
 C430 C 0.22059 -0.14822 0.38343
 C431 C 0.24469 -0.11570 0.37710
 O432 O 0.29957 -0.07961 0.40233
 C433 C 0.32074 -0.08436 0.43512
 C434 C 0.30830 -0.11423 0.45893
 C435 C 0.32695 -0.12476 0.49419
 C436 C 0.36007 -0.10387 0.50506
 C437 C 0.37398 -0.07358 0.48033
 C438 C 0.35364 -0.06352 0.44511
 H439 H 0.25850 -0.17843 0.47381
 H440 H 0.20794 -0.19569 0.42472
 H441 H 0.24220 -0.09803 0.35044
 H442 H 0.31669 -0.14851 0.51233
 H443 H 0.37540 -0.11202 0.53200
 H444 H 0.36350 -0.04060 0.42556
 C445 C 0.59277 -0.22412 0.60103
 C446 C 0.60129 -0.21954 0.56077
 C447 C 0.62551 -0.24258 0.54031
 C448 C 0.64284 -0.27095 0.56237
 C449 C 0.63605 -0.27610 0.60457
 C450 C 0.60934 -0.25299 0.62382
 O451 O 0.57097 -0.19693 0.61484
 C452 C 0.56606 -0.17484 0.58256
 C453 C 0.58425 -0.18763 0.54887
 C454 C 0.58594 -0.16770 0.51264
 C455 C 0.56820 -0.13291 0.51089
 C456 C 0.54886 -0.11891 0.54485
 C457 C 0.54726 -0.14041 0.58117
 H458 H 0.63189 -0.23807 0.50866
 H459 H 0.66239 -0.28835 0.54629
 H460 H 0.60377 -0.25543 0.65590
 H461 H 0.60118 -0.17814 0.48691
 H462 H 0.56951 -0.11675 0.48300
 H463 H 0.53327 -0.12992 0.60773
 C464 C 1.11713 0.69947 0.37186
 C465 C 1.08638 0.69027 0.34762
 C466 C 1.07380 0.71419 0.31725
 C467 C 1.09372 0.74908 0.31177
 C468 C 1.12530 0.75934 0.33682
 C469 C 1.13719 0.73383 0.36705
 O470 O 1.12344 0.67383 0.40025
 C471 C 1.09593 0.64788 0.39400
 C472 C 1.07245 0.65654 0.36217
 C473 C 1.04036 0.63448 0.35211
 C474 C 1.03178 0.60266 0.37639
 C475 C 1.05532 0.59355 0.40978
 C476 C 1.08831 0.61612 0.41807
 H477 H 1.04924 0.70654 0.29885
 H478 H 1.08415 0.76823 0.28853
 H479 H 1.16099 0.74068 0.38688
 H480 H 1.02200 0.64212 0.32730
 H481 H 1.00635 0.58566 0.36974
 H482 H 1.10633 0.61044 0.44384
 C483 C -0.11391 1.19414 0.10241
 C484 C -0.08863 1.18177 0.13081
 C485 C -0.08208 1.20022 0.16753
 C486 C -0.10236 1.23287 0.17538
 C487 C -0.12919 1.24631 0.14688
 C488 C -0.13498 1.22619 0.10982
 O489 O -0.11514 1.17294 0.06902
 C490 C -0.09016 1.14655 0.07667
 C491 C -0.07338 1.15059 0.11421
 C492 C -0.04669 1.12595 0.12873
 C493 C -0.03681 1.09587 0.10351
 C494 C -0.05323 1.09124 0.06433
 C495 C -0.08030 1.11711 0.05074
 H496 H -0.06181 1.19001 0.18929
 H497 H -0.09717 1.24739 0.20395
 H498 H -0.15477 1.23542 0.08701
 H499 H -0.03396 1.12970 0.15845
 H500 H -0.01595 1.07648 0.11435
 H501 H -0.09347 1.11424 0.02113
 C502 C 0.38537 0.30450 0.88429
 C503 C 0.39859 0.32171 0.84949
 C504 C 0.39139 0.30641 0.81119
 C505 C 0.37021 0.27182 0.80882
 C506 C 0.35606 0.25388 0.84433
 C507 C 0.36332 0.27082 0.88252
 O508 O 0.39719 0.32221 0.91777
 C509 C 0.41819 0.35128 0.90389
 C510 C 0.41976 0.35264 0.86234
 C511 C 0.44039 0.38100 0.84179
 C512 C 0.46011 0.40900 0.86509
 C513 C 0.45955 0.40740 0.90797
 C514 C 0.43817 0.37810 0.92745
 H515 H 0.40253 0.32002 0.78424
 H516 H 0.36507 0.25880 0.77945
 H517 H 0.35370 0.25719 0.91014
 H518 H 0.44121 0.38159 0.80906
 H519 H 0.47625 0.43141 0.84989
 H520 H 0.43682 0.37642 0.96015
 C521 C 0.62469 0.62326 0.77659
 C522 C 0.65521 0.61672 0.80130
 C523 C 0.69214 0.62637 0.79054
 C524 C 0.69801 0.64287 0.75241
 C525 C 0.66718 0.64981 0.72603
 C526 C 0.62984 0.64038 0.73864
 O527 O 0.59213 0.61042 0.79217
 C528 C 0.60244 0.59554 0.82743
 C529 C 0.64073 0.59883 0.83438
 C530 C 0.65789 0.58480 0.86895
 C531 C 0.63465 0.56678 0.89779
 C532 C 0.59494 0.56278 0.89165
 C533 C 0.57868 0.57738 0.85570
 H534 H 0.71569 0.62064 0.81043
 H535 H 0.72670 0.64985 0.74323
 H536 H 0.60584 0.64466 0.71887
 H537 H 0.68815 0.58760 0.87357
 H538 H 0.64776 0.55581 0.92489
 H539 H 0.54855 0.57489 0.85001
 C540 C 0.38438 0.10591 0.73058
 C541 C 0.37744 0.06808 0.73960
 C542 C 0.35745 0.05626 0.77364
 C543 C 0.34392 0.08460 0.79916
 C544 C 0.35098 0.12379 0.79046
 C545 C 0.37183 0.13443 0.75579
 O546 O 0.40251 0.11130 0.69609
 C547 C 0.40721 0.07616 0.68305
 C548 C 0.39266 0.04856 0.70856
 C549 C 0.39451 0.00981 0.70024
 C550 C 0.41200 -0.00078 0.66407
 C551 C 0.42651 0.02739 0.63706
 C552 C 0.42412 0.06635 0.64697
 H553 H 0.35199 0.02637 0.78000
 H554 H 0.32797 0.07601 0.82564
 H555 H 0.37718 0.16404 0.74796
 H556 H 0.38286 -0.01145 0.72075
 H557 H 0.41366 -0.03072 0.65682
 H558 H 0.43518 0.08855 0.62719
 C559 C 0.10441 0.89596 0.20806
 C560 C 0.12968 0.92439 0.19638
 C561 C 0.16392 0.93171 0.21638
 C562 C 0.17248 0.90864 0.24970
 C563 C 0.14705 0.87872 0.26190
 C564 C 0.11246 0.87256 0.24069
 O565 O 0.07358 0.89344 0.18499
 C566 C 0.07954 0.92081 0.15798
 C567 C 0.11351 0.94050 0.16345
 C568 C 0.12588 0.96953 0.13772
 C569 C 0.10234 0.97846 0.10494
 C570 C 0.06704 0.95865 0.09882
 C571 C 0.05547 0.92957 0.12600
 H572 H 0.18341 0.95423 0.20662
 H573 H 0.19910 0.91372 0.26550
 H574 H 0.09229 0.85015 0.24922
 H575 H 0.15284 0.98445 0.14242
 H576 H 0.11159 1.00082 0.08439
 H577 H 0.02897 0.91362 0.12187
 C578 C 0.88951 0.36910 0.29329
 C579 C 0.86739 0.39921 0.30220
 C580 C 0.83657 0.40891 0.27861
 C581 C 0.82806 0.38662 0.24429
 C582 C 0.85032 0.35527 0.23409
 C583 C 0.88149 0.34638 0.25926
 O584 O 0.91830 0.36574 0.31904
 C585 C 0.91422 0.39447 0.34471
 C586 C 0.88343 0.41569 0.33558
 C587 C 0.87445 0.44795 0.35714
 C588 C 0.89851 0.45926 0.38911
 C589 C 0.93084 0.43833 0.39913
 C590 C 0.93845 0.40498 0.37695
 H591 H 0.81982 0.43300 0.28617
 H592 H 0.80413 0.39399 0.22566
 H593 H 0.89929 0.32291 0.25232
 H594 H 0.85020 0.46428 0.34914
 H595 H 0.89214 0.48474 0.40582
 H596 H 0.96317 0.38878 0.38346
   
