data_POSCAR
  _audit_creation_date              2014-09-24
  _audit_creation_method            'ToBaCCo'
  _symmetry_space_group_name_H-M    'P1'
  _symmetry_Int_Tables_number       1
  _symmetry_cell_setting            triclinic
  loop_
  _symmetry_equiv_pos_as_xyz
 x,y,z
_cell_length_a 39.7549
_cell_length_b 40.3122
_cell_length_c 22.7443
_cell_angle_alpha 89.916800
_cell_angle_beta 90.045600
_cell_angle_gamma 118.845600
loop_
  _atom_site_label
  _atom_site_type_symbol
  _atom_site_fract_x
  _atom_site_fract_y
  _atom_site_fract_z
C1 C 0.42846 0.88462 0.52883
 C2 C 0.43008 0.88464 0.46860
 C3 C 0.45800 0.92062 0.45194
 N4 N 0.47366 0.94237 0.49994
 C5 C 0.45553 0.92050 0.54688
 C6 C 0.47080 0.93190 0.39378
 C7 C 0.49805 0.96940 0.37806
 C8 C 0.51558 0.98001 0.32361
 C9 C 0.53609 1.01881 0.32318
 C10 C 0.53087 1.03137 0.37770
 N11 N 0.50752 1.00079 0.41069
 C12 C 0.54205 1.06967 0.39267
 C13 C 0.53977 1.08088 0.45131
 C14 C 0.54673 1.11673 0.46845
 C15 C 0.54510 1.11665 0.52848
 C16 C 0.53836 1.08121 0.54702
 N17 N 0.53503 1.05939 0.49978
 C18 C 0.53644 1.06987 0.60665
 C19 C 0.52180 1.03130 0.62298
 C20 C 0.52891 1.01899 0.67634
 C21 C 0.50855 0.98019 0.67618
 C22 C 0.49001 0.96964 0.62242
 N23 N 0.49825 1.00090 0.59004
 C24 C 0.46515 0.93180 0.60578
 H25 H 0.40984 0.86076 0.55616
 H26 H 0.41313 0.86061 0.44055
 H27 H 0.48548 1.00155 0.55040
 H28 H 0.51274 0.96194 0.28673
 H29 H 0.55125 1.03520 0.28514
 H30 H 0.55309 1.14113 0.44154
 H31 H 0.54837 1.14024 0.55508
 H32 H 0.50796 0.96181 0.71136
 H33 H 0.49418 1.00145 0.44954
 H34 H 0.54739 1.03604 0.71165
 C35 C -0.11850 0.45194 0.46769
 C36 C -0.11885 0.45268 0.52777
 C37 C -0.08273 0.45988 0.54642
 N38 N -0.06015 0.46386 0.49936
 C39 C -0.08218 0.45865 0.45106
 C40 C -0.07112 0.46309 0.60611
 C41 C -0.03188 0.48003 0.62269
 C42 C -0.01862 0.47512 0.67675
 C43 C 0.02044 0.49795 0.67699
 C44 C 0.03033 0.51577 0.62266
 N45 N -0.00179 0.50466 0.58974
 C46 C 0.06793 0.54341 0.60653
 C47 C 0.07888 0.55522 0.54802
 C48 C 0.11464 0.58379 0.53064
 C49 C 0.11487 0.58343 0.47033
 C50 C 0.07938 0.55448 0.45302
 N51 N 0.05748 0.53726 0.50049
 C52 C 0.06887 0.54222 0.39466
 C53 C 0.03166 0.51409 0.37837
 C54 C 0.02306 0.49428 0.32588
 C55 C -0.01589 0.47076 0.32537
 C56 C -0.03029 0.47722 0.37720
 N57 N -0.00096 0.50343 0.40967
 C58 C -0.06982 0.46026 0.39207
 H59 H -0.14199 0.44846 0.43970
 H60 H -0.14266 0.44977 0.55439
 H61 H -0.00365 0.51616 0.44785
 H62 H -0.03527 0.45691 0.71256
 H63 H 0.03921 0.50107 0.71346
 H64 H 0.13845 0.60238 0.55834
 H65 H 0.13876 0.60178 0.44249
 H66 H -0.03169 0.45092 0.29074
 H67 H -0.00373 0.51625 0.54984
 H68 H 0.04287 0.49631 0.29165
 C69 C 0.57139 0.45287 0.47086
 C70 C 0.57301 0.45447 0.53100
 C71 C 0.54366 0.46134 0.54955
 N72 N 0.52471 0.46469 0.50250
 C73 C 0.54174 0.45968 0.45435
 C74 C 0.53377 0.46319 0.60887
 C75 C 0.50858 0.47753 0.62422
 C76 C 0.48707 0.46840 0.67554
 C77 C 0.46748 0.48852 0.67515
 C78 C 0.47735 0.50958 0.62361
 N79 N 0.50202 0.50225 0.59215
 C80 C 0.46375 0.53509 0.60753
 C81 C 0.46233 0.54482 0.54801
 C82 C 0.45628 0.57423 0.52879
 C83 C 0.45489 0.57250 0.46864
 C84 C 0.46101 0.54268 0.45280
 N85 N 0.46538 0.52568 0.50136
 C86 C 0.45999 0.53008 0.39459
 C87 C 0.47169 0.50327 0.37904
 C88 C 0.46643 0.48645 0.32419
 C89 C 0.48606 0.46622 0.32457
 C90 C 0.50284 0.47118 0.37964
 N91 N 0.49389 0.49376 0.41250
 C92 C 0.52925 0.45875 0.39593
 H93 H 0.59010 0.44741 0.44273
 H94 H 0.59387 0.45136 0.55761
 H95 H 0.50654 0.50618 0.45225
 H96 H 0.48482 0.44848 0.70927
 H97 H 0.44738 0.48694 0.70855
 H98 H 0.45361 0.59521 0.55496
 H99 H 0.45004 0.59125 0.44006
 H100 H 0.48876 0.45086 0.28755
 H101 H 0.51632 0.51604 0.55384
 H102 H 0.45127 0.48948 0.28682
 O103 O 0.39053 0.65923 -0.04838
 O104 O 0.38932 0.72268 -0.06802
 C105 C 0.37197 0.74152 -0.07780
 O106 O 0.34345 0.73780 -0.04754
 O107 O 0.27967 0.67513 -0.06757
 C108 C 0.26158 0.63997 -0.07847
 O109 O 0.26620 0.61560 -0.04910
 O110 O 0.33054 0.61534 -0.06926
 C111 C 0.36634 0.63158 -0.07888
 O112 O 0.38886 0.67047 0.06798
 O113 O 0.39150 0.73557 0.04889
 C114 C 0.36780 0.74123 0.07900
 O115 O 0.33202 0.72451 0.06892
 O116 O 0.26658 0.66353 0.04902
 C117 C 0.26155 0.63463 0.07846
 O118 O 0.27922 0.61625 0.06766
 O119 O 0.34174 0.61230 0.04772
 C120 C 0.37063 0.63516 0.07788
 Cr121 Cr 0.38802 0.69609 0.00007
 Cr122 Cr 0.30644 0.69918 0.00069
 Cr123 Cr 0.30545 0.61685 -0.00071
 O124 O 0.33328 0.67070 0.00010
 O125 O 0.61043 0.32796 -0.06716
 O126 O 0.60929 0.26336 -0.04823
 C127 C 0.63330 0.25898 -0.07953
 O128 O 0.66913 0.27700 -0.07057
 O129 O 0.73312 0.33861 -0.05192
 C130 C 0.73766 0.36795 -0.07957
 O131 O 0.71987 0.38593 -0.06686
 O132 O 0.65552 0.38686 -0.04528
 C133 C 0.62731 0.36340 -0.07610
 O134 O 0.60845 0.33849 0.04993
 O135 O 0.61186 0.27620 0.06821
 C136 C 0.63031 0.25838 0.07745
 O137 O 0.65902 0.26310 0.04662
 O138 O 0.72173 0.32669 0.06570
 C139 C 0.73922 0.36183 0.07692
 O140 O 0.73352 0.38588 0.04867
 O141 O 0.66788 0.38365 0.07076
 C142 C 0.63210 0.36635 0.08067
 Cr143 Cr 0.61202 0.30254 0.00063
 Cr144 Cr 0.69476 0.30236 -0.00240
 Cr145 Cr 0.69316 0.38354 0.00176
 O146 O 0.66673 0.32949 -0.00001
 C147 C 0.42467 0.84978 -0.26087
 N148 N 0.41642 0.87877 -0.26019
 N149 N 0.42918 0.90475 -0.30269
 C150 C 0.45035 0.90247 -0.34771
 N151 N 0.45855 0.87344 -0.34852
 N152 N 0.44600 0.84760 -0.30578
 C153 C 0.41092 0.82145 -0.21358
 N154 N 0.42421 0.79623 -0.20840
 N155 N 0.41193 0.77080 -0.16504
 C156 C 0.38574 0.76954 -0.12554
 N157 N 0.37236 0.79466 -0.13090
 N158 N 0.38483 0.82024 -0.17398
 C159 C 0.15221 0.58612 -0.26199
 N160 N 0.13716 0.54965 -0.28017
 N161 N 0.11057 0.53620 -0.32222
 C162 C 0.09789 0.55867 -0.34740
 N163 N 0.11305 0.59522 -0.32950
 N164 N 0.13977 0.60871 -0.28755
 C165 C 0.18101 0.60049 -0.21482
 N166 N 0.19841 0.63757 -0.19903
 N167 N 0.22424 0.65029 -0.15576
 C168 C 0.23344 0.62635 -0.12658
 N169 N 0.21602 0.58931 -0.14241
 N170 N 0.19034 0.57663 -0.18577
 C171 C 0.42256 0.57669 -0.26101
 N172 N 0.40576 0.56852 -0.31481
 N173 N 0.41928 0.55553 -0.35741
 C174 C 0.44983 0.54973 -0.34779
 N175 N 0.46633 0.55773 -0.29357
 N176 N 0.45317 0.57120 -0.25121
 C177 C 0.40789 0.59112 -0.21403
 N178 N 0.43088 0.61082 -0.16845
 N179 N 0.41767 0.62396 -0.12566
 C180 C 0.38081 0.61739 -0.12646
 N181 N 0.35772 0.59748 -0.17187
 N182 N 0.37110 0.58479 -0.21511
 C183 C 0.57711 0.15074 -0.26196
 N184 N 0.59512 0.15792 -0.31478
 N185 N 0.58181 0.13203 -0.35734
 C186 C 0.55024 0.09774 -0.34863
 N187 N 0.53248 0.09067 -0.29542
 N188 N 0.54547 0.11671 -0.25311
 C189 C 0.59168 0.17916 -0.21497
 N190 N 0.56846 0.17733 -0.16994
 N191 N 0.58166 0.20299 -0.12707
 C192 C 0.61870 0.23111 -0.12728
 N193 N 0.64199 0.23284 -0.17218
 N194 N 0.62864 0.20745 -0.21546
 C195 C 0.84663 0.42274 -0.26293
 N196 N 0.84060 0.40345 -0.31413
 N197 N 0.86691 0.41664 -0.35667
 C198 C 0.90061 0.44923 -0.34924
 N199 N 0.90656 0.46823 -0.29759
 N200 N 0.87998 0.45544 -0.25551
 C201 C 0.81778 0.40842 -0.21606
 N202 N 0.81286 0.43282 -0.18067
 N203 N 0.78690 0.41988 -0.13765
 C204 C 0.76550 0.38211 -0.12781
 N205 N 0.77062 0.35770 -0.16293
 N206 N 0.79607 0.37062 -0.20666
 C207 C 0.57371 0.42102 -0.25841
 N208 N 0.56529 0.40443 -0.31216
 N209 N 0.55283 0.41824 -0.35513
 C210 C 0.54783 0.44892 -0.34597
 N211 N 0.55605 0.46522 -0.29181
 N212 N 0.56900 0.45174 -0.24905
 C213 C 0.58762 0.40598 -0.21112
 N214 N 0.60769 0.42833 -0.16530
 N215 N 0.62051 0.41479 -0.12244
 C216 C 0.61324 0.37825 -0.12343
 N217 N 0.59293 0.35581 -0.16905
 N218 N 0.58056 0.36951 -0.21233
 C219 C 0.84962 0.41683 0.25870
 N220 N 0.88397 0.44818 0.24975
 N221 N 0.90999 0.46185 0.29258
 C222 C 0.90258 0.44511 0.34646
 N223 N 0.86798 0.41374 0.35524
 N224 N 0.84212 0.39973 0.31214
 C225 C 0.82094 0.40220 0.21148
 N226 N 0.79262 0.36556 0.21144
 N227 N 0.76674 0.35249 0.16825
 C228 C 0.76798 0.37575 0.12405
 N229 N 0.79616 0.41241 0.12436
 N230 N 0.82231 0.42533 0.16705
 C231 C 0.58034 0.15020 0.26067
 N232 N 0.59620 0.12728 0.26808
 N233 N 0.58392 0.10137 0.31071
 C234 C 0.55537 0.09735 0.34775
 N235 N 0.53968 0.12047 0.34020
 N236 N 0.55186 0.14633 0.29753
 C237 C 0.59354 0.17850 0.21332
 N238 N 0.57621 0.19997 0.20398
 N239 N 0.58794 0.22543 0.16073
 C240 C 0.61749 0.23041 0.12528
 N241 N 0.63488 0.20900 0.13470
 N242 N 0.62309 0.18348 0.17789
 C243 C 0.57346 0.41848 0.26357
 N244 N 0.59623 0.45198 0.29061
 N245 N 0.58216 0.46475 0.33271
 C246 C 0.54486 0.44442 0.34940
 N247 N 0.52209 0.41087 0.32251
 N248 N 0.53614 0.39817 0.28027
 C249 C 0.58885 0.40465 0.21663
 N250 N 0.56536 0.37279 0.18626
 N251 N 0.57920 0.36053 0.14310
 C252 C 0.61704 0.37961 0.12886
 N253 N 0.64056 0.41139 0.15939
 N254 N 0.62670 0.42372 0.20243
 C255 C 0.15243 0.58355 0.26222
 N256 N 0.12257 0.59101 0.26104
 N257 N 0.09612 0.57805 0.30336
 C258 C 0.09883 0.55752 0.34867
 N259 N 0.12874 0.55017 0.35002
 N260 N 0.15502 0.56288 0.30745
 C261 C 0.18109 0.59715 0.21490
 N262 N 0.20626 0.58360 0.20936
 N263 N 0.23186 0.59548 0.16582
 C264 C 0.23341 0.62156 0.12651
 N265 N 0.20838 0.63527 0.13226
 N266 N 0.18258 0.62316 0.17551
 C267 C 0.42653 0.84956 0.26137
 N268 N 0.46387 0.86477 0.27799
 N269 N 0.47797 0.89087 0.32019
 C270 C 0.45526 0.90282 0.34706
 N271 N 0.41791 0.88756 0.33056
 N272 N 0.40379 0.86138 0.28850
 C273 C 0.41111 0.82107 0.21446
 N274 N 0.37327 0.80419 0.20014
 N275 N 0.35939 0.77860 0.15719
 C276 C 0.38287 0.76905 0.12688
 N277 N 0.42070 0.78592 0.14124
 N278 N 0.43455 0.81142 0.18429
 C279 C 0.42155 0.57514 0.26070
 N280 N 0.45563 0.59697 0.28792
 N281 N 0.46783 0.58262 0.33049
 C282 C 0.44632 0.54598 0.34748
 N283 N 0.41220 0.52416 0.32039
 N284 N 0.40007 0.53848 0.27769
 C285 C 0.40824 0.59085 0.21346
 N286 N 0.37564 0.56829 0.18324
 N287 N 0.36368 0.58244 0.14008
 C288 C 0.38383 0.61970 0.12565
 N289 N 0.41639 0.64230 0.15598
 N290 N 0.42841 0.62812 0.19903
   
