data_POSCAR
  _audit_creation_date              2014-09-24
  _audit_creation_method            'ToBaCCo'
  _symmetry_space_group_name_H-M    'P1'
  _symmetry_Int_Tables_number       1
  _symmetry_cell_setting            triclinic
  loop_
  _symmetry_equiv_pos_as_xyz
 x,y,z
_cell_length_a 19.2956
_cell_length_b 19.7053
_cell_length_c 20.5718
_cell_angle_alpha 105.609500
_cell_angle_beta 100.626600
_cell_angle_gamma 98.683400
loop_
  _atom_site_label
  _atom_site_type_symbol
  _atom_site_fract_x
  _atom_site_fract_y
  _atom_site_fract_z
C1 C 0.63402 0.57690 -0.06378
 C2 C 0.63631 0.50640 -0.06317
 C3 C 0.57867 0.46554 -0.04893
 C4 C 0.51860 0.49347 -0.03528
 C5 C 0.51524 0.56380 -0.04011
 C6 C 0.57414 0.60739 -0.05192
 C7 C 0.46499 0.45179 -0.00815
 C8 C 0.42834 0.48933 0.03770
 C9 C 0.37844 0.45283 0.06457
 C10 C 0.36814 0.37761 0.04919
 C11 C 0.40544 0.33820 0.00549
 C12 C 0.45296 0.37535 -0.02401
 H13 H 0.67847 0.60630 -0.07693
 H14 H 0.58409 0.41421 -0.04157
 H15 H 0.46841 0.58571 -0.03185
 H16 H 0.43698 0.54728 0.05124
 H17 H 0.32984 0.34939 0.07050
 H18 H 0.47853 0.34402 -0.06058
 C19 C 0.01935 0.62460 0.40814
 C20 C 0.03053 0.66035 0.47960
 C21 C 0.01787 0.61977 0.52412
 C22 C 0.00091 0.54460 0.49996
 C23 C -0.00253 0.50982 0.43006
 C24 C 0.00233 0.54849 0.38242
 C25 C -0.01380 0.50204 0.54726
 C26 C -0.05852 0.43304 0.52033
 C27 C -0.06369 0.38802 0.56177
 C28 C -0.03443 0.41625 0.63350
 C29 C 0.00614 0.48714 0.66275
 C30 C 0.01906 0.52830 0.61865
 H31 H 0.02648 0.65627 0.37352
 H32 H 0.01770 0.64696 0.57722
 H33 H -0.00818 0.45222 0.41348
 H34 H -0.08494 0.41211 0.46581
 H35 H -0.04142 0.38160 0.66559
 H36 H 0.05629 0.57988 0.63966
 C37 C 0.61647 -0.03090 0.62511
 C38 C 0.54416 -0.02847 0.62311
 C39 C 0.50337 -0.01312 0.56738
 C40 C 0.53380 0.00315 0.51476
 C41 C 0.60661 -0.00159 0.51638
 C42 C 0.64878 -0.02004 0.57101
 C43 C 0.48679 0.02317 0.45877
 C44 C 0.49002 -0.00030 0.38830
 C45 C 0.43617 0.00800 0.33601
 C46 C 0.37773 0.03744 0.35411
 C47 C 0.37535 0.06378 0.42377
 C48 C 0.43158 0.05949 0.47544
 H49 H 0.64583 -0.04312 0.66892
 H50 H 0.44685 -0.01373 0.56537
 H51 H 0.62988 0.00923 0.47532
 H52 H 0.53104 -0.02911 0.37353
 H53 H 0.33398 0.03969 0.31380
 H54 H 0.42957 0.08085 0.52921
 O55 O 0.41963 -0.07704 -0.14296
 O56 O 0.39793 -0.06846 0.03119
 O57 O 0.38171 0.01690 -0.04728
 O58 O 0.44957 -0.15326 -0.05882
 O59 O 0.55913 -0.08533 -0.01485
 O60 O 0.49265 0.08173 -0.00413
 O61 O 0.50753 -0.00161 0.07849
 O62 O 0.53050 -0.01168 -0.10157
 Cu63 Cu 0.40141 -0.07636 -0.05857
 Cu64 Cu 0.53320 0.00231 -0.00594
 C65 C 0.47771 -0.04676 -0.15295
 C66 C 0.44839 -0.03569 0.08443
 C67 C 0.42578 0.07798 -0.02493
 C68 C 0.51733 -0.14715 -0.03846
 O69 O -0.07498 0.54512 1.00350
 O70 O 0.12008 0.57137 1.08026
 O71 O 0.04359 0.57856 0.96489
 O72 O 0.00390 0.55459 1.12434
 O73 O -0.00572 0.43682 1.08315
 O74 O 0.03372 0.46100 0.92185
 O75 O 0.10865 0.45357 1.03749
 O76 O -0.08142 0.42790 0.96257
 Cu77 Cu 0.02380 0.57437 1.04729
 Cu78 Cu 0.01321 0.43311 0.99701
 C79 C -0.11108 0.48147 0.97028
 C80 C 0.14686 0.51537 1.07175
 C81 C 0.04459 0.52409 0.91594
 C82 C -0.00630 0.49238 1.13163
 O83 O 0.01439 -0.07881 0.45546
 O84 O -0.03765 0.08897 0.44084
 O85 O 0.08132 0.03487 0.42998
 O86 O -0.09703 -0.02008 0.46925
 O87 O -0.04426 0.02587 0.58113
 O88 O 0.12639 0.09173 0.54162
 O89 O 0.00794 0.13812 0.55375
 O90 O 0.06882 -0.02453 0.56591
 Cu91 Cu -0.01337 0.00111 0.43694
 Cu92 Cu 0.04556 0.06335 0.57148
 C93 C 0.04951 -0.08031 0.51342
 C94 C -0.02782 0.14028 0.49642
 C95 C 0.13413 0.07312 0.47985
 C96 C -0.10018 -0.00580 0.53272
 N97 N -0.23048 0.40064 0.91718
 N98 N -0.30199 0.40733 0.90925
 C99 C -0.30224 0.47836 0.92872
 C100 C -0.23167 0.51811 0.94833
 C101 C -0.18884 0.46752 0.94229
 H102 H -0.21341 0.57587 0.97152
 H103 H -0.21344 0.35189 0.91053
 H104 H -0.34613 0.36384 0.89197
 N105 N 0.27460 0.58105 1.12491
 N106 N 0.33817 0.56370 1.12445
 C107 C 0.32805 0.49131 1.09776
 C108 C 0.25552 0.46175 1.08299
 C109 C 0.22345 0.52003 1.09854
 H110 H 0.22868 0.40672 1.05347
 H111 H 0.26646 0.63378 1.13732
 H112 H 0.38658 0.60148 1.13718
 N113 N 0.09190 -0.15577 0.58372
 N114 N 0.08372 -0.22923 0.57473
 C115 C 0.05254 -0.26452 0.50708
 C116 C 0.04157 -0.21478 0.47164
 C117 C 0.06499 -0.14799 0.52171
 H118 H 0.01335 -0.22552 0.41814
 H119 H 0.10973 -0.11542 0.63157
 H120 H 0.10008 -0.25101 0.61457
 N121 N -0.10504 0.21071 0.44245
 N122 N -0.11897 0.27588 0.46169
 C123 C -0.08297 0.30953 0.52849
 C124 C -0.04577 0.26338 0.55260
 C125 C -0.05967 0.20260 0.49649
 H126 H -0.00719 0.27511 0.60168
 H127 H -0.12435 0.17387 0.39270
 H128 H -0.14965 0.29757 0.42829
 N129 N 0.42299 -0.08572 -0.27935
 N130 N 0.43974 -0.08103 -0.33752
 C131 C 0.50880 -0.04551 -0.32306
 C132 C 0.53753 -0.02678 -0.25149
 C133 C 0.48063 -0.05307 -0.22576
 H134 H 0.59104 0.00318 -0.22241
 H135 H 0.37221 -0.11047 -0.27665
 H136 H 0.40409 -0.10244 -0.38639
 N137 N 0.38081 -0.09026 0.15551
 N138 N 0.37856 -0.08026 0.22100
 C139 C 0.43233 -0.02507 0.26148
 C140 C 0.47105 0.00175 0.21932
 C141 C 0.43582 -0.04134 0.15196
 H142 H 0.51473 0.04857 0.23494
 H143 H 0.34367 -0.12907 0.11370
 H144 H 0.33891 -0.10918 0.23742
 N145 N 0.62154 -0.20531 -0.04014
 N146 N 0.63754 -0.27253 -0.04440
 C147 C 0.57624 -0.31930 -0.04945
 C148 C 0.51973 -0.28164 -0.04867
 C149 C 0.55079 -0.21065 -0.04304
 H150 H 0.46377 -0.30245 -0.05132
 H151 H 0.65929 -0.15908 -0.03499
 H152 H 0.69012 -0.28083 -0.03892
 N153 N 0.32924 0.14924 -0.03116
 N154 N 0.32412 0.21701 -0.02346
 C155 C 0.39055 0.25811 -0.01130
 C156 C 0.44049 0.21395 -0.01084
 C157 C 0.39918 0.14517 -0.02315
 H158 H 0.49860 0.22994 -0.00053
 H159 H 0.28545 0.10685 -0.04029
 H160 H 0.27563 0.23476 -0.02602
 N161 N -0.16920 -0.04651 0.60962
 N162 N -0.23796 -0.04878 0.62169
 C163 C -0.27867 -0.02788 0.57257
 C164 C -0.23602 -0.01388 0.52718
 C165 C -0.16811 -0.02567 0.55284
 H166 H -0.25030 0.00688 0.48406
 H167 H -0.12564 -0.05606 0.64187
 H168 H -0.25206 -0.06401 0.66301
 N169 N 0.25622 0.15201 0.51428
 N170 N 0.31984 0.14983 0.49971
 C171 C 0.31285 0.09224 0.44409
 C172 C 0.24048 0.05639 0.42170
 C173 C 0.20655 0.09584 0.46851
 H174 H 0.21789 0.00447 0.38292
 H175 H 0.24797 0.18913 0.55761
 H176 H 0.36796 0.18505 0.52998
 N177 N -0.03290 0.42278 1.21126
 N178 N -0.02933 0.43872 1.28213
 C179 C -0.00910 0.51133 1.31104
 C180 C -0.00109 0.54230 1.25895
 C181 C -0.01578 0.48558 1.19833
 H182 H 0.01618 0.59859 1.26374
 H183 H -0.04472 0.37098 1.17598
 H184 H -0.04157 0.39923 1.30570
 N185 N 0.06978 0.59881 0.84014
 N186 N 0.05878 0.58916 0.77274
 C187 C 0.03554 0.51796 0.73870
 C188 C 0.03324 0.48093 0.78706
 C189 C 0.05417 0.53412 0.85024
 H190 H 0.01297 0.42418 0.77825
 H191 H 0.08347 0.64919 0.87803
 H192 H 0.06268 0.63152 0.75129
   
