data_POSCAR
  _audit_creation_date              2014-09-24
  _audit_creation_method            'ToBaCCo'
  _symmetry_space_group_name_H-M    'P1'
  _symmetry_Int_Tables_number       1
  _symmetry_cell_setting            triclinic
  loop_
  _symmetry_equiv_pos_as_xyz
 x,y,z
_cell_length_a 29.8074
_cell_length_b 31.4104
_cell_length_c 40.6353
_cell_angle_alpha 90.136700
_cell_angle_beta 89.549200
_cell_angle_gamma 123.890900
loop_
  _atom_site_label
  _atom_site_type_symbol
  _atom_site_fract_x
  _atom_site_fract_y
  _atom_site_fract_z
C1 C -0.02853 0.45826 1.24864
 C2 C 0.02633 0.48221 1.24722
 C3 C 0.06153 0.49930 1.27717
 C4 C 0.05430 0.49721 1.21474
 C5 C -0.06169 0.44292 1.21829
 C6 C -0.05880 0.44737 1.28000
 C7 C 0.11202 0.54636 1.27655
 C8 C 0.14403 0.56520 1.30459
 C9 C 0.12552 0.53969 1.33529
 C10 C 0.07673 0.49010 1.33491
 C11 C 0.04619 0.46990 1.30617
 C12 C 0.05253 0.53267 1.19476
 C13 C 0.07930 0.54732 1.16442
 C14 C 0.10818 0.52674 1.15365
 C15 C 0.11050 0.49170 1.17367
 C16 C 0.08384 0.47715 1.20415
 C17 C -0.06177 0.40946 1.19520
 C18 C -0.09373 0.39516 1.16701
 C19 C -0.12660 0.41351 1.16180
 C20 C -0.12604 0.44733 1.18467
 C21 C -0.09416 0.46162 1.21278
 C22 C -0.09987 0.39652 1.28790
 C23 C -0.12845 0.38511 1.31748
 C24 C -0.11661 0.42440 1.33955
 C25 C -0.07681 0.47551 1.33125
 C26 C -0.04806 0.48698 1.30158
 H27 H 0.12698 0.56925 1.25430
 H28 H 0.18400 0.59988 1.30174
 H29 H 0.05960 0.46736 1.35703
 H30 H 0.00961 0.43174 1.30712
 H31 H 0.03067 0.54917 1.20284
 H32 H 0.07780 0.57492 1.14938
 H33 H 0.08603 0.45019 1.21945
 H34 H -0.03745 0.39418 1.19918
 H35 H -0.09362 0.36911 1.14955
 H36 H -0.15080 0.46220 1.18086
 H37 H -0.09455 0.48756 1.23021
 H38 H -0.10918 0.36560 1.27131
 H39 H -0.15967 0.34557 1.32332
 H40 H -0.06772 0.50631 1.34787
 H41 H -0.01721 0.52652 1.29554
 H42 H 0.13339 0.47615 1.16580
 C43 C 0.52419 0.49758 1.25005
 C44 C 0.50231 0.52569 1.25002
 C45 C 0.49154 0.54383 1.28098
 C46 C 0.48619 0.53819 1.21899
 C47 C 0.53758 0.48210 1.21899
 C48 C 0.53436 0.47982 1.28104
 C49 C 0.43904 0.53056 1.28782
 C50 C 0.42824 0.54819 1.31636
 C51 C 0.47001 0.58039 1.33823
 C52 C 0.52246 0.59308 1.33174
 C53 C 0.53323 0.57512 1.30319
 C54 C 0.44930 0.49910 1.19763
 C55 C 0.43301 0.51118 1.16902
 C56 C 0.45262 0.56237 1.16176
 C57 C 0.48971 0.60147 1.18291
 C58 C 0.50619 0.58942 1.21145
 C59 C 0.57576 0.51902 1.19679
 C60 C 0.58697 0.50382 1.16720
 C61 C 0.55935 0.45156 1.15914
 C62 C 0.52189 0.41475 1.18169
 C63 C 0.51134 0.42990 1.21147
 C64 C 0.58676 0.49353 1.28816
 C65 C 0.59709 0.47803 1.31767
 C66 C 0.55503 0.44831 1.34026
 C67 C 0.50232 0.43330 1.33279
 C68 C 0.49201 0.44901 1.30332
 H69 H 0.40633 0.50629 1.27108
 H70 H 0.38734 0.53724 1.32126
 H71 H 0.55510 0.61757 1.34845
 H72 H 0.57410 0.58609 1.29819
 H73 H 0.43256 0.45927 1.20338
 H74 H 0.40424 0.48065 1.15289
 H75 H 0.53440 0.61998 1.22776
 H76 H 0.59686 0.55947 1.20248
 H77 H 0.61708 0.53274 1.15054
 H78 H 0.50068 0.37424 1.17614
 H79 H 0.48192 0.40096 1.22840
 H80 H 0.61974 0.51692 1.27109
 H81 H 0.63787 0.48936 1.32304
 H82 H 0.46943 0.40993 1.34991
 H83 H 0.45114 0.43734 1.29787
 H84 H 0.50503 0.64114 1.17759
 C85 C 0.48314 1.01494 1.25182
 C86 C 0.46569 0.96475 1.25190
 C87 C 0.45993 0.93719 1.28266
 C88 C 0.45277 0.93524 1.22104
 C89 C 0.49415 1.04299 1.22046
 C90 C 0.49543 1.04518 1.28261
 C91 C 0.50518 0.94256 1.29738
 C92 C 0.49952 0.91714 1.32690
 C93 C 0.44893 0.88816 1.34288
 C94 C 0.40343 0.88158 1.32732
 C95 C 0.40879 0.90507 1.29713
 C96 C 0.48386 0.91652 1.21126
 C97 C 0.47046 0.88662 1.18298
 C98 C 0.42509 0.87415 1.16449
 C99 C 0.39477 0.89399 1.17377
 C100 C 0.40847 0.92429 1.20198
 C101 C 0.45870 1.05562 1.20932
 C102 C 0.47063 1.08467 1.18067
 C103 C 0.51961 1.10378 1.16338
 C104 C 0.55376 1.08873 1.17415
 C105 C 0.54110 1.05868 1.20237
 C106 C 0.45695 1.02892 1.30796
 C107 C 0.46901 1.05798 1.33660
 C108 C 0.51884 1.10573 1.33994
 C109 C 0.55727 1.12169 1.31429
 C110 C 0.54563 1.09191 1.28607
 H111 H 0.54477 0.96659 1.28608
 H112 H 0.53511 0.92232 1.33810
 H113 H 0.36365 0.85789 1.33849
 H114 H 0.37337 0.89970 1.28555
 H115 H 0.51836 0.92491 1.22560
 H116 H 0.49468 0.87214 1.17588
 H117 H 0.38395 0.93831 1.20935
 H118 H 0.42170 1.04279 1.22277
 H119 H 0.44137 1.09215 1.17203
 H120 H 0.59176 1.10223 1.16176
 H121 H 0.56875 1.04896 1.21074
 H122 H 0.41728 0.99391 1.30559
 H123 H 0.43935 1.04249 1.35634
 H124 H 0.59597 1.15819 1.31543
 H125 H 0.57598 1.10559 1.26681
 H126 H 0.35982 0.88492 1.15967
 C127 C 1.01835 0.47699 0.74799
 C128 C 0.96364 0.45265 0.74823
 C129 C 0.93299 0.44301 0.71749
 C130 C 0.93210 0.43694 0.77950
 C131 C 1.04930 0.49419 0.77900
 C132 C 1.05074 0.49304 0.71690
 C133 C 0.94602 0.48349 0.69605
 C134 C 0.91792 0.47363 0.66666
 C135 C 0.87597 0.42337 0.65872
 C136 C 0.86172 0.38317 0.68054
 C137 C 0.89006 0.39295 0.70980
 C138 C 0.89708 0.45263 0.78599
 C139 C 0.86830 0.43944 0.81563
 C140 C 0.87424 0.41050 0.83921
 C141 C 0.90825 0.39377 0.83258
 C142 C 0.93679 0.40665 0.80281
 C143 C 1.08070 0.47568 0.78773
 C144 C 1.11404 0.49535 0.81519
 C145 C 1.11862 0.53571 0.83364
 C146 C 1.08428 0.55184 0.82580
 C147 C 1.05028 0.53152 0.79858
 C148 C 1.03757 0.45888 0.69062
 C149 C 1.06570 0.47641 0.66062
 C150 C 1.10767 0.52857 0.65630
 C151 C 1.12342 0.56128 0.68379
 C152 C 1.09501 0.54396 0.71344
 H153 H 0.97820 0.52255 0.70197
 H154 H 0.92879 0.50502 0.65011
 H155 H 0.82901 0.34426 0.67472
 H156 H 0.87913 0.36142 0.72625
 H157 H 0.89268 0.47578 0.76830
 H158 H 0.84179 0.45222 0.82037
 H159 H 0.96264 0.39317 0.79798
 H160 H 1.07962 0.44624 0.77312
 H161 H 1.13693 0.47937 0.82173
 H162 H 1.08600 0.58241 0.83938
 H163 H 1.02623 0.54626 0.79201
 H164 H 1.00461 0.41896 0.69303
 H165 H 1.05270 0.44958 0.64041
 H166 H 1.15797 0.60067 0.68243
 H167 H 1.10703 0.57089 0.73351
 H168 H 0.91260 0.37080 0.85046
 C169 C 0.50851 0.53009 0.75090
 C170 C 0.52821 0.50004 0.75058
 C171 C 0.53971 0.48371 0.71921
 C172 C 0.53905 0.48188 0.78135
 C173 C 0.49989 0.54948 0.78208
 C174 C 0.49294 0.54391 0.72001
 C175 C 0.51265 0.43134 0.71198
 C176 C 0.52203 0.41548 0.68211
 C177 C 0.55891 0.45177 0.65914
 C178 C 0.58716 0.50418 0.66679
 C179 C 0.57738 0.52008 0.69656
 C180 C 0.49799 0.45317 0.80482
 C181 C 0.50920 0.43726 0.83396
 C182 C 0.56158 0.44996 0.84002
 C183 C 0.60226 0.47758 0.81626
 C184 C 0.59102 0.49322 0.78708
 C185 C 0.54157 0.57649 0.80516
 C186 C 0.53241 0.59438 0.83433
 C187 C 0.48189 0.58639 0.84037
 C188 C 0.44044 0.55972 0.81733
 C189 C 0.44939 0.54152 0.78840
 C190 C 0.51652 0.59569 0.71202
 C191 C 0.50047 0.60921 0.68389
 C192 C 0.45962 0.57117 0.66368
 C193 C 0.43669 0.51935 0.67131
 C194 C 0.45303 0.50580 0.69936
 H195 H 0.48369 0.40283 0.72929
 H196 H 0.50041 0.37485 0.67680
 H197 H 0.61675 0.53266 0.64971
 H198 H 0.59923 0.56065 0.70204
 H199 H 0.45742 0.44329 0.80058
 H200 H 0.47726 0.41557 0.85195
 H201 H 0.62309 0.51498 0.76917
 H202 H 0.58117 0.58396 0.80048
 H203 H 0.56482 0.61518 0.85187
 H204 H 0.40122 0.55333 0.82173
 H205 H 0.41678 0.52095 0.77095
 H206 H 0.54733 0.62561 0.72764
 H207 H 0.51920 0.64941 0.67814
 H208 H 0.40534 0.48944 0.65595
 H209 H 0.43385 0.46562 0.70532
 H210 H 0.64276 0.48721 0.82045
 C211 C 0.48110 -0.02977 0.75191
 C212 C 0.49830 0.02034 0.75124
 C213 C 0.50827 0.04751 0.71961
 C214 C 0.50571 0.04947 0.78180
 C215 C 0.47381 -0.05736 0.78316
 C216 C 0.46854 -0.05910 0.72102
 C217 C 0.56032 0.07581 0.70578
 C218 C 0.57032 0.10389 0.67688
 C219 C 0.52823 0.10345 0.66124
 C220 C 0.47548 0.07257 0.67410
 C221 C 0.46573 0.04540 0.70340
 C222 C 0.55590 0.09474 0.78865
 C223 C 0.56364 0.12099 0.81806
 C224 C 0.52134 0.10239 0.84103
 C225 C 0.47061 0.05811 0.83382
 C226 C 0.46281 0.03185 0.80436
 C227 C 0.42381 -0.10250 0.79059
 C228 C 0.41612 -0.12834 0.82011
 C229 C 0.45870 -0.11035 0.84269
 C230 C 0.50866 -0.06449 0.83532
 C231 C 0.51628 -0.03861 0.80570
 C232 C 0.41715 -0.08276 0.70720
 C233 C 0.40556 -0.10925 0.67753
 C234 C 0.44568 -0.11135 0.66044
 C235 C 0.49686 -0.08867 0.67522
 C236 C 0.50816 -0.06261 0.70513
 H237 H 0.59330 0.07684 0.71766
 H238 H 0.61112 0.12687 0.66710
 H239 H 0.44228 0.07084 0.66196
 H240 H 0.42517 0.02304 0.71361
 H241 H 0.58954 0.10916 0.77169
 H242 H 0.60293 0.15535 0.82323
 H243 H 0.42350 -0.00251 0.79926
 H244 H 0.39033 -0.11754 0.77375
 H245 H 0.37705 -0.16343 0.82486
 H246 H 0.54155 -0.04812 0.85274
 H247 H 0.55524 -0.00374 0.80044
 H248 H 0.38597 -0.08075 0.71945
 H249 H 0.36475 -0.12877 0.66821
 H250 H 0.52898 -0.08924 0.66307
 H251 H 0.54809 -0.04441 0.71563
 H252 H 0.43738 0.04368 0.85117
 O253 O 0.43486 0.68596 0.96676
 O254 O 0.42864 0.76411 0.98022
 C255 C 0.39860 0.76588 0.95903
 O256 O 0.34752 0.73627 0.96062
 O257 O 0.25695 0.64680 0.96380
 C258 C 0.25641 0.61287 0.94637
 O259 O 0.28066 0.59207 0.95465
 O260 O 0.37037 0.60188 0.96986
 C261 C 0.41208 0.64037 0.95628
 O262 O 0.42353 0.66090 1.03139
 O263 O 0.41051 0.73417 1.04404
 C264 C 0.38116 0.75119 1.04834
 O265 O 0.34758 0.74636 1.02701
 O266 O 0.26050 0.65403 1.03007
 C267 C 0.23875 0.60664 1.03551
 O268 O 0.25012 0.57922 1.01896
 O269 O 0.34022 0.59095 1.03412
 C270 C 0.38715 0.61963 1.04557
 Cr271 Cr 0.42176 0.70970 1.00530
 Cr272 Cr 0.30457 0.69487 0.99546
 Cr273 Cr 0.31163 0.59363 0.99450
 O274 O 0.34581 0.66581 0.99837
 O275 O 0.57593 0.34187 0.97174
 O276 O 0.56018 0.25229 0.96381
 C277 C 0.57808 0.22460 0.95854
 O278 O 0.61535 0.22765 0.97551
 O279 O 0.71137 0.30839 0.96346
 C280 C 0.74357 0.35556 0.95680
 O281 O 0.74492 0.39096 0.97302
 O282 O 0.66383 0.39940 0.96159
 C283 C 0.61425 0.37926 0.95538
 O284 O 0.57494 0.32962 1.03760
 O285 O 0.55460 0.23805 1.03011
 C286 C 0.58402 0.22919 1.04741
 O287 O 0.63299 0.24717 1.04039
 O288 O 0.73125 0.32471 1.02864
 C289 C 0.74272 0.36343 1.04568
 O290 O 0.72704 0.39229 1.03851
 O291 O 0.65035 0.40587 1.02660
 C292 C 0.60770 0.37686 1.04340
 Cr293 Cr 0.56918 0.29155 1.00080
 Cr294 Cr 0.67174 0.27860 1.00194
 Cr295 Cr 0.69482 0.39441 0.99991
 O296 O 0.64512 0.32152 1.00074
 O297 O 0.64758 0.40811 0.52537
 O298 O 0.72822 0.39988 0.53579
 C299 C 0.74739 0.37373 0.54233
 O300 O 0.73571 0.33406 0.52625
 O301 O 0.63945 0.25343 0.53856
 C302 C 0.59023 0.23335 0.54601
 O303 O 0.55915 0.24065 0.52927
 O304 O 0.57496 0.33036 0.53717
 C305 C 0.60603 0.37789 0.54269
 O306 O 0.65982 0.40186 0.46025
 O307 O 0.74426 0.39876 0.47030
 C308 C 0.74616 0.36470 0.45463
 O309 O 0.71582 0.31727 0.46127
 O310 O 0.62106 0.23366 0.47354
 C311 C 0.58218 0.22862 0.45714
 O312 O 0.56260 0.25474 0.46307
 O313 O 0.57312 0.34188 0.47159
 C314 C 0.60980 0.37991 0.45491
 Cr315 Cr 0.69328 0.39936 0.49793
 Cr316 Cr 0.67680 0.28609 0.49986
 Cr317 Cr 0.57027 0.29309 0.50023
 O318 O 0.64673 0.32618 0.49922
 O319 O 0.36279 0.59773 0.52780
 O320 O 0.27172 0.58969 0.53606
 C321 C 0.24558 0.60982 0.54200
 O322 O 0.24958 0.64434 0.52357
 O323 O 0.33748 0.73324 0.53839
 C324 C 0.38691 0.76174 0.54601
 O325 O 0.42384 0.76059 0.53095
 O326 O 0.42449 0.67929 0.54072
 C327 C 0.39900 0.63172 0.54665
 O328 O 0.35312 0.60263 0.46186
 O329 O 0.25964 0.58883 0.46909
 C330 C 0.25606 0.62003 0.45109
 O331 O 0.27615 0.66591 0.45964
 O332 O 0.35980 0.75571 0.47394
 C333 C 0.40350 0.76929 0.45904
 O334 O 0.43006 0.74989 0.46544
 O335 O 0.43519 0.67048 0.47488
 C336 C 0.40330 0.63292 0.45631
 Cr337 Cr 0.31300 0.59721 0.49879
 Cr338 Cr 0.30722 0.69869 0.49899
 Cr339 Cr 0.42564 0.71331 0.50291
 O340 O 0.34881 0.66986 0.50013
 C341 C 0.43447 0.62871 0.36576
 C342 C 0.45819 0.60022 0.36790
 C343 C 0.46758 0.58735 0.39895
 C344 C 0.45130 0.59979 0.42761
 C345 C 0.42482 0.62503 0.42593
 C346 C 0.41669 0.64030 0.39498
 C347 C 0.42855 0.64647 0.33524
 C348 C 0.40412 0.67347 0.33349
 C349 C 0.38535 0.68350 0.36195
 C350 C 0.39144 0.66715 0.39246
 H351 H 0.44340 0.64037 0.31256
 H352 H 0.39990 0.68684 0.30993
 H353 H 0.36663 0.70464 0.36039
 H354 H 0.37684 0.67630 0.41400
 H355 H 0.48594 0.56587 0.40095
 H356 H 0.45771 0.58808 0.45121
 C357 C 0.41918 0.87338 0.40130
 C358 C 0.44357 0.86554 0.37377
 C359 C 0.46232 0.83358 0.37731
 C360 C 0.45126 0.80465 0.40576
 C361 C 0.42279 0.80795 0.43218
 C362 C 0.41022 0.84547 0.43100
 C363 C 0.40727 0.91117 0.40078
 C364 C 0.38656 0.92077 0.42854
 C365 C 0.37894 0.89438 0.45765
 C366 C 0.39134 0.85773 0.45911
 H367 H 0.41552 0.93496 0.37940
 H368 H 0.37789 0.94995 0.42772
 H369 H 0.36458 0.90323 0.47946
 H370 H 0.38838 0.84112 0.48285
 H371 H 0.48216 0.82790 0.35695
 H372 H 0.46299 0.77765 0.40642
 C373 C 0.19064 0.61557 0.36862
 C374 C 0.15490 0.56117 0.36366
 C375 C 0.15290 0.52908 0.38883
 C376 C 0.18606 0.54885 0.41631
 C377 C 0.22474 0.60151 0.41977
 C378 C 0.22951 0.63513 0.39442
 C379 C 0.18625 0.65148 0.35034
 C380 C 0.22569 0.70391 0.35224
 C381 C 0.26955 0.72186 0.37292
 C382 C 0.27147 0.68804 0.39399
 H383 H 0.15208 0.63947 0.33461
 H384 H 0.22263 0.73056 0.33719
 H385 H 0.30148 0.76234 0.37333
 H386 H 0.30681 0.70405 0.40921
 H387 H 0.12778 0.48776 0.38699
 H388 H 0.18169 0.52216 0.43496
 C389 C 0.59862 0.46846 0.39631
 C390 C 0.56641 0.43256 0.37156
 C391 C 0.54588 0.38060 0.37605
 C392 C 0.55905 0.36410 0.40383
 C393 C 0.59330 0.39917 0.42779
 C394 C 0.61217 0.45162 0.42475
 C395 C 0.61678 0.52056 0.39369
 C396 C 0.64762 0.55525 0.41853
 C397 C 0.66059 0.53876 0.44644
 C398 C 0.64301 0.48749 0.44969
 H399 H 0.60667 0.53476 0.37273
 H400 H 0.66110 0.59504 0.41626
 H401 H 0.68404 0.56576 0.46581
 H402 H 0.65298 0.47625 0.47213
 H403 H 0.52077 0.35282 0.35739
 H404 H 0.54391 0.32383 0.40609
 C405 C 0.49323 0.14191 0.38608
 C406 C 0.53141 0.13595 0.36882
 C407 C 0.58372 0.15972 0.38185
 C408 C 0.59822 0.18761 0.41089
 C409 C 0.56106 0.19253 0.42881
 C410 C 0.50718 0.16743 0.41720
 C411 C 0.44280 0.12637 0.37233
 C412 C 0.40457 0.12905 0.39045
 C413 C 0.41586 0.14791 0.42239
 C414 C 0.46663 0.16710 0.43569
 H415 H 0.43267 0.11309 0.34724
 H416 H 0.36583 0.11608 0.37972
 H417 H 0.38550 0.14859 0.43672
 H418 H 0.47323 0.18083 0.46071
 H419 H 0.61387 0.15572 0.37002
 H420 H 0.63956 0.20629 0.41914
 C421 C 0.85581 0.38127 0.39557
 C422 C 0.85304 0.41166 0.37097
 C423 C 0.81877 0.42850 0.37557
 C424 C 0.78550 0.41377 0.40325
 C425 C 0.78521 0.38148 0.42710
 C426 C 0.82155 0.36594 0.42388
 C427 C 0.89283 0.36676 0.39299
 C428 C 0.89583 0.33761 0.41759
 C429 C 0.86253 0.32274 0.44526
 C430 C 0.82585 0.33680 0.44854
 H431 H 0.92035 0.37849 0.37227
 H432 H 0.92453 0.32692 0.41532
 H433 H 0.86546 0.30058 0.46445
 H434 H 0.80182 0.32536 0.47081
 H435 H 0.81660 0.45205 0.35705
 H436 H 0.75841 0.42642 0.40557
 C437 C 0.56646 0.45061 1.09644
 C438 C 0.57157 0.43475 1.12815
 C439 C 0.58823 0.40109 1.13080
 C440 C 0.59991 0.38319 1.10296
 C441 C 0.59602 0.39876 1.07155
 C442 C 0.57961 0.43295 1.06790
 C443 C 0.54692 0.48214 1.09226
 C444 C 0.54239 0.49738 1.06092
 C445 C 0.55638 0.48100 1.03317
 C446 C 0.57444 0.44875 1.03649
 H447 H 0.53427 0.49477 1.11298
 H448 H 0.52759 0.52176 1.05814
 H449 H 0.55260 0.49284 1.00892
 H450 H 0.58382 0.43600 1.01429
 H451 H 0.59223 0.38846 1.15474
 H452 H 0.61223 0.35691 1.10596
 C453 C 0.78076 0.36903 1.13572
 C454 C 0.83788 0.39713 1.13268
 C455 C 0.86194 0.41161 1.10135
 C456 C 0.83057 0.40022 1.07328
 C457 C 0.77436 0.37425 1.07582
 C458 C 0.74883 0.35793 1.10707
 C459 C 0.75456 0.35082 1.16655
 C460 C 0.69841 0.32346 1.16915
 C461 C 0.66732 0.31340 1.14123
 C462 C 0.69203 0.33020 1.11042
 H463 H 0.77702 0.35697 1.18883
 H464 H 0.67891 0.30985 1.19294
 H465 H 0.62383 0.29229 1.14348
 H466 H 0.66631 0.32116 1.08932
 H467 H 0.90549 0.43281 1.09871
 H468 H 0.85033 0.41233 1.04942
 C469 C 0.52526 0.17657 1.13355
 C470 C 0.53384 0.13614 1.13544
 C471 C 0.55725 0.12777 1.10811
 C472 C 0.57099 0.15705 1.07967
 C473 C 0.56083 0.19527 1.07669
 C474 C 0.53622 0.20435 1.10342
 C475 C 0.51073 0.19338 1.16159
 C476 C 0.50080 0.23164 1.15918
 C477 C 0.50671 0.25524 1.12915
 C478 C 0.52508 0.24247 1.10170
 H479 H 0.50855 0.17858 1.18592
 H480 H 0.48895 0.24337 1.18081
 H481 H 0.49858 0.28471 1.12734
 H482 H 0.53064 0.26311 1.07940
 H483 H 0.56404 0.09729 1.10823
 H484 H 0.58994 0.14972 1.05958
 C485 C 0.37955 0.56295 1.13093
 C486 C 0.43293 0.57511 1.13268
 C487 C 0.46925 0.60158 1.10680
 C488 C 0.45342 0.61548 1.07900
 C489 C 0.40075 0.60362 1.07617
 C490 C 0.36321 0.57768 1.10264
 C491 C 0.34260 0.53788 1.15730
 C492 C 0.29060 0.52715 1.15587
 C493 C 0.27473 0.54212 1.12865
 C494 C 0.31061 0.56771 1.10254
 H495 H 0.35360 0.52680 1.17940
 H496 H 0.26276 0.50789 1.17625
 H497 H 0.23465 0.53465 1.12800
 H498 H 0.29667 0.58085 1.08322
 H499 H 0.51026 0.61131 1.10810
 H500 H 0.48265 0.63538 1.05932
 C501 C 0.12206 0.51333 1.09371
 C502 C 0.13853 0.54442 1.12225
 C503 C 0.18461 0.59442 1.12104
 C504 C 0.21532 0.61362 1.09242
 C505 C 0.20094 0.58364 1.06386
 C506 C 0.15320 0.53320 1.06409
 C507 C 0.07451 0.46336 1.09379
 C508 C 0.05769 0.43368 1.06530
 C509 C 0.08740 0.45332 1.03624
 C510 C 0.13449 0.50265 1.03544
 H511 H 0.04969 0.44705 1.11570
 H512 H 0.02104 0.39548 1.06567
 H513 H 0.07360 0.43037 1.01408
 H514 H 0.15502 0.51669 1.01202
 H515 H 0.19743 0.61859 1.14268
 H516 H 0.25161 0.65213 1.09290
 C517 C 0.39493 0.78840 1.13918
 C518 C 0.40890 0.83938 1.13590
 C519 C 0.40906 0.85828 1.10470
 C520 C 0.39834 0.82853 1.07668
 C521 C 0.38770 0.77922 1.07903
 C522 C 0.38463 0.75815 1.11051
 C523 C 0.38983 0.76645 1.17045
 C524 C 0.37627 0.71642 1.17338
 C525 C 0.36670 0.68703 1.14543
 C526 C 0.37021 0.70724 1.11427
 H527 H 0.39546 0.78733 1.19292
 H528 H 0.37272 0.70020 1.19750
 H529 H 0.35597 0.64821 1.14807
 H530 H 0.36065 0.68230 1.09336
 H531 H 0.41907 0.89697 1.10194
 H532 H 0.40021 0.84481 1.05282
 C533 C 0.56242 0.44886 0.59651
 C534 C 0.56996 0.43443 0.62805
 C535 C 0.58850 0.40223 0.63041
 C536 C 0.60006 0.38461 0.60236
 C537 C 0.59369 0.39878 0.57107
 C538 C 0.57500 0.43123 0.56775
 C539 C 0.54121 0.47908 0.59280
 C540 C 0.53416 0.49282 0.56159
 C541 C 0.54732 0.47627 0.53356
 C542 C 0.56718 0.44543 0.53648
 H543 H 0.52925 0.49182 0.61381
 H544 H 0.51803 0.51616 0.55914
 H545 H 0.54155 0.48691 0.50941
 H546 H 0.57583 0.43246 0.51411
 H547 H 0.59440 0.39084 0.65428
 H548 H 0.61456 0.35993 0.60511
 C549 C 0.52959 0.17509 0.63100
 C550 C 0.53999 0.13614 0.63184
 C551 C 0.56429 0.12930 0.60454
 C552 C 0.57874 0.16034 0.57681
 C553 C 0.56846 0.19870 0.57502
 C554 C 0.54277 0.20581 0.60211
 C555 C 0.50848 0.18571 0.65876
 C556 C 0.49831 0.22392 0.65766
 C557 C 0.50958 0.25275 0.62922
 C558 C 0.53196 0.24418 0.60186
 H559 H 0.50041 0.16540 0.68176
 H560 H 0.48190 0.23139 0.67908
 H561 H 0.50161 0.28241 0.62850
 H562 H 0.54080 0.26811 0.58076
 H563 H 0.57283 0.09999 0.60490
 H564 H 0.59861 0.15458 0.55651
 C565 C 0.86720 0.40950 0.59716
 C566 C 0.84623 0.41274 0.62777
 C567 C 0.79545 0.40529 0.62928
 C568 C 0.76484 0.39407 0.60104
 C569 C 0.78392 0.38941 0.57056
 C570 C 0.83584 0.39796 0.56819
 C571 C 0.91854 0.41723 0.59475
 C572 C 0.93889 0.41459 0.56433
 C573 C 0.90873 0.40442 0.53589
 C574 C 0.85778 0.39637 0.53767
 H575 H 0.94334 0.42547 0.61624
 H576 H 0.97839 0.42078 0.56280
 H577 H 0.92497 0.40294 0.51231
 H578 H 0.83623 0.38967 0.51493
 H579 H 0.77926 0.40787 0.65262
 H580 H 0.72524 0.38768 0.60313
 C581 C 0.41828 0.61521 0.63756
 C582 C 0.44078 0.58564 0.63467
 C583 C 0.44603 0.56975 0.60341
 C584 C 0.43142 0.58419 0.57515
 C585 C 0.41158 0.61534 0.57727
 C586 C 0.40392 0.63043 0.60862
 C587 C 0.40828 0.62882 0.66861
 C588 C 0.38600 0.65771 0.67107
 C589 C 0.37240 0.67290 0.64282
 C590 C 0.38075 0.65914 0.61188
 H591 H 0.41670 0.61668 0.69128
 H592 H 0.37873 0.66792 0.69504
 H593 H 0.35471 0.69497 0.64489
 H594 H 0.36816 0.67064 0.59070
 H595 H 0.46261 0.54674 0.60084
 H596 H 0.43684 0.57197 0.55134
 C597 C 0.40218 0.86485 0.60500
 C598 C 0.43408 0.86233 0.63001
 C599 C 0.45302 0.83062 0.62471
 C600 C 0.43785 0.79929 0.59717
 C601 C 0.40264 0.79769 0.57390
 C602 C 0.38489 0.83109 0.57740
 C603 C 0.39053 0.90285 0.60540
 C604 C 0.35863 0.90441 0.58122
 C605 C 0.33906 0.86945 0.55551
 C606 C 0.35261 0.83369 0.55325
 H607 H 0.40723 0.93277 0.62375
 H608 H 0.34970 0.93341 0.58219
 H609 H 0.31449 0.87098 0.53669
 H610 H 0.33845 0.80922 0.53196
 H611 H 0.47743 0.82754 0.64291
 H612 H 0.45234 0.77454 0.59463
 C613 C 0.15295 0.59753 0.61379
 C614 C 0.13514 0.54777 0.62570
 C615 C 0.14946 0.51876 0.60770
 C616 C 0.18442 0.53959 0.58074
 C617 C 0.20717 0.59045 0.57060
 C618 C 0.19189 0.62037 0.58772
 C619 C 0.13101 0.62436 0.62637
 C620 C 0.15200 0.67475 0.61706
 C621 C 0.19474 0.69931 0.59483
 C622 C 0.21446 0.67262 0.58026
 H623 H 0.09707 0.60645 0.64331
 H624 H 0.13547 0.69502 0.62747
 H625 H 0.21222 0.73906 0.58841
 H626 H 0.24789 0.69430 0.56368
 H627 H 0.13638 0.48056 0.61560
 H628 H 0.19471 0.51571 0.56807
 C629 C 0.46310 0.64657 0.86853
 C630 C 0.47189 0.60677 0.87029
 C631 C 0.46427 0.58151 0.90020
 C632 C 0.44600 0.59372 0.92801
 C633 C 0.43486 0.63151 0.92667
 C634 C 0.44319 0.65829 0.89668
 C635 C 0.47193 0.67376 0.83891
 C636 C 0.45870 0.70974 0.83654
 C637 C 0.43638 0.71915 0.86344
 C638 C 0.42906 0.69417 0.89330
 H639 H 0.48854 0.66702 0.81728
 H640 H 0.46489 0.72974 0.81356
 H641 H 0.42444 0.74581 0.86111
 H642 H 0.41061 0.70212 0.91320
 H643 H 0.47055 0.55076 0.90169
 H644 H 0.43949 0.57278 0.95065
 C645 C 0.21000 0.57074 0.85719
 C646 C 0.15644 0.55916 0.85953
 C647 C 0.14028 0.57042 0.88909
 C648 C 0.17369 0.58852 0.91644
 C649 C 0.22441 0.59565 0.91566
 C650 C 0.24336 0.58721 0.88570
 C651 C 0.23275 0.57007 0.82659
 C652 C 0.28404 0.57922 0.82470
 C653 C 0.31483 0.59146 0.85285
 C654 C 0.29562 0.59689 0.88285
 H655 H 0.21193 0.56379 0.80363
 H656 H 0.30023 0.57741 0.80119
 H657 H 0.35449 0.59825 0.85117
 H658 H 0.32286 0.60969 0.90332
 H659 H 0.10013 0.56255 0.89187
 H660 H 0.15877 0.59520 0.93894
 C661 C 0.48538 0.84978 0.88496
 C662 C 0.44984 0.86287 0.87257
 C663 C 0.40255 0.84730 0.89035
 C664 C 0.38941 0.81907 0.91909
 C665 C 0.42243 0.80430 0.93167
 C666 C 0.47240 0.82149 0.91520
 C667 C 0.53064 0.85948 0.86642
 C668 C 0.56475 0.84602 0.87829
 C669 C 0.55409 0.82145 0.90841
 C670 C 0.50839 0.80878 0.92653
 H671 H 0.53944 0.87588 0.84204
 H672 H 0.59929 0.85409 0.86379
 H673 H 0.58066 0.81084 0.91744
 H674 H 0.50215 0.78822 0.94896
 H675 H 0.37519 0.85744 0.88205
 H676 H 0.35177 0.80757 0.93128
 C677 C 0.60814 0.46995 0.89535
 C678 C 0.57396 0.43407 0.87107
 C679 C 0.55170 0.38183 0.87603
 C680 C 0.56445 0.36490 0.90384
 C681 C 0.59998 0.39969 0.92754
 C682 C 0.62113 0.45264 0.92389
 C683 C 0.62865 0.52256 0.89223
 C684 C 0.66113 0.55730 0.91664
 C685 C 0.67339 0.54038 0.94464
 C686 C 0.65352 0.48862 0.94842
 H687 H 0.61917 0.53719 0.87122
 H688 H 0.67641 0.59750 0.91397
 H689 H 0.69808 0.56747 0.96369
 H690 H 0.66301 0.47715 0.97095
 H691 H 0.52515 0.35400 0.85779
 H692 H 0.54749 0.32429 0.90648
 C693 C 0.86880 0.42079 0.90072
 C694 C 0.84382 0.39696 0.87052
 C695 C 0.78822 0.35975 0.86972
 C696 C 0.75695 0.34613 0.89819
 C697 C 0.78022 0.36978 0.92827
 C698 C 0.83676 0.40686 0.92995
 C699 C 0.92486 0.45845 0.90245
 C700 C 0.94902 0.48092 0.93244
 C701 C 0.91799 0.46639 0.96114
 C702 C 0.86241 0.42970 0.96006
 H703 H 0.95044 0.47078 0.88074
 H704 H 0.99210 0.50955 0.93344
 H705 H 0.93709 0.48361 0.98439
 H706 H 0.84009 0.41907 0.98302
 H707 H 0.76881 0.34128 0.84674
 H708 H 0.71383 0.31766 0.89657
 C709 C 0.53207 0.10857 0.90309
 C710 C 0.53070 0.12959 0.87256
 C711 C 0.54040 0.17858 0.87162
 C712 C 0.55286 0.20756 0.90014
 C713 C 0.55642 0.18860 0.93049
 C714 C 0.54423 0.13803 0.93241
 C715 C 0.52269 0.05932 0.90506
 C716 C 0.52314 0.03877 0.93533
 C717 C 0.53293 0.06671 0.96410
 C718 C 0.54333 0.11582 0.96281
 H719 H 0.51499 0.03628 0.88335
 H720 H 0.51553 0.00084 0.93648
 H721 H 0.53252 0.05025 0.98757
 H722 H 0.54976 0.13567 0.98585
 H723 H 0.53938 0.19496 0.84842
 H724 H 0.56211 0.24608 0.89822
   
