data_POSCAR
  _audit_creation_date              2014-09-24
  _audit_creation_method            'ToBaCCo'
  _symmetry_space_group_name_H-M    'P1'
  _symmetry_Int_Tables_number       1
  _symmetry_cell_setting            triclinic
  loop_
  _symmetry_equiv_pos_as_xyz
 x,y,z
_cell_length_a 41.9207
_cell_length_b 41.9423
_cell_length_c 45.7608
_cell_angle_alpha 89.890100
_cell_angle_beta 90.072900
_cell_angle_gamma 120.109100
loop_
  _atom_site_label
  _atom_site_type_symbol
  _atom_site_fract_x
  _atom_site_fract_y
  _atom_site_fract_z
C1 C 0.03306 0.51686 1.31231
 C2 C -0.00049 0.49997 1.32732
 C3 C -0.03406 0.48301 1.31232
 C4 C -0.03444 0.48283 1.28139
 C5 C -0.00054 0.49981 1.26589
 C6 C 0.03340 0.51687 1.28138
 C7 C 0.06665 0.53345 1.26553
 C8 C 0.06661 0.53326 1.23511
 C9 C 0.03334 0.51658 1.21935
 C10 C -0.00056 0.49973 1.23484
 C11 C -0.06772 0.46618 1.26555
 C12 C -0.06773 0.46621 1.23514
 C13 C -0.03446 0.48281 1.21932
 C14 C -0.03407 0.48302 1.18838
 C15 C -0.00048 0.49963 1.17343
 C16 C 0.03301 0.51627 1.18848
 H17 H 0.09308 0.54671 1.27655
 H18 H 0.09299 0.54638 1.22403
 H19 H -0.09412 0.45298 1.27659
 H20 H -0.09413 0.45301 1.22409
 H21 H -0.00047 0.50003 1.35107
 H22 H -0.00032 0.49966 1.14969
 C23 C 0.51685 0.48298 1.18856
 C24 C 0.50024 0.49985 1.17351
 C25 C 0.48360 0.51667 1.18847
 C26 C 0.48331 0.51673 1.21935
 C27 C 0.50017 0.49976 1.23489
 C28 C 0.51707 0.48284 1.21944
 C29 C 0.53370 0.46626 1.23525
 C30 C 0.53377 0.46631 1.26568
 C31 C 0.51713 0.48288 1.28148
 C32 C 0.50014 0.49972 1.26592
 C33 C 0.46664 0.53327 1.23507
 C34 C 0.46650 0.53313 1.26550
 C35 C 0.48309 0.51653 1.28134
 C36 C 0.48313 0.51626 1.31221
 C37 C 0.50000 0.49970 1.32732
 C38 C 0.51697 0.48312 1.31241
 H39 H 0.54687 0.45311 1.22420
 H40 H 0.54700 0.45317 1.27675
 H41 H 0.45349 0.54645 1.22395
 H42 H 0.45325 0.54623 1.27652
 H43 H 0.50027 0.49988 1.14979
 H44 H 0.49988 0.49975 1.35106
 C45 C 0.51724 1.03409 1.18851
 C46 C 0.50031 1.00053 1.17355
 C47 C 0.48332 0.96701 1.18859
 C48 C 0.48312 0.96664 1.21947
 C49 C 0.50010 1.00050 1.23497
 C50 C 0.51722 1.03442 1.21945
 C51 C 0.53381 1.06764 1.23528
 C52 C 0.53358 1.06757 1.26570
 C53 C 0.51683 1.03429 1.28154
 C54 C 0.49997 1.00043 1.26603
 C55 C 0.46640 0.93336 1.23523
 C56 C 0.46635 0.93327 1.26565
 C57 C 0.48297 0.96648 1.28152
 C58 C 0.48309 0.96675 1.31245
 C59 C 0.49970 1.00027 1.32746
 C60 C 0.51644 1.03387 1.31248
 H61 H 0.54712 1.09405 1.22424
 H62 H 0.54673 1.09395 1.27674
 H63 H 0.45319 0.90702 1.22415
 H64 H 0.45310 0.90685 1.27667
 H65 H 0.50033 1.00041 1.14981
 H66 H 0.49960 1.00022 1.35122
 C67 C 1.03471 0.51746 0.81180
 C68 C 1.00112 0.50045 0.82678
 C69 C 0.96760 0.48350 0.81176
 C70 C 0.96724 0.48342 0.78089
 C71 C 1.00112 0.50050 0.76538
 C72 C 1.03505 0.51757 0.78086
 C73 C 1.06829 0.53424 0.76499
 C74 C 1.06823 0.53412 0.73457
 C75 C 1.03492 0.51741 0.71877
 C76 C 1.00106 0.50049 0.73433
 C77 C 0.93394 0.46675 0.76513
 C78 C 0.93388 0.46684 0.73471
 C79 C 0.96711 0.48354 0.71889
 C80 C 0.96734 0.48376 0.68801
 C81 C 1.00080 0.50040 0.67292
 C82 C 1.03445 0.51712 0.68783
 H83 H 1.09472 0.54752 0.77602
 H84 H 1.09461 0.54733 0.72349
 H85 H 0.90758 0.45348 0.77623
 H86 H 0.90747 0.45364 0.72367
 H87 H 1.00100 0.50037 0.85052
 H88 H 1.00057 0.50031 0.64918
 C89 C 0.51655 0.48302 0.68794
 C90 C 0.49994 0.49991 0.67293
 C91 C 0.48340 0.51683 0.68791
 C92 C 0.48323 0.51696 0.71880
 C93 C 0.50009 0.49996 0.73430
 C94 C 0.51688 0.48294 0.71882
 C95 C 0.53351 0.46633 0.73462
 C96 C 0.53368 0.46645 0.76506
 C97 C 0.51716 0.48312 0.78083
 C98 C 0.50017 0.49999 0.76533
 C99 C 0.46668 0.53359 0.73457
 C100 C 0.46666 0.53352 0.76500
 C101 C 0.48326 0.51689 0.78080
 C102 C 0.48344 0.51666 0.81169
 C103 C 0.50032 0.50004 0.82670
 C104 C 0.51713 0.48339 0.81171
 H105 H 0.54659 0.45311 0.72356
 H106 H 0.54688 0.45331 0.77615
 H107 H 0.45354 0.54680 0.72348
 H108 H 0.45352 0.54669 0.77607
 H109 H 0.49988 0.49989 0.64920
 H110 H 0.50038 0.50006 0.85042
 C111 C 0.48319 -0.03411 0.81230
 C112 C 0.49990 -0.00056 0.82726
 C113 C 0.51652 0.03295 0.81222
 C114 C 0.51672 0.03333 0.78135
 C115 C 0.49978 -0.00053 0.76587
 C116 C 0.48287 -0.03445 0.78137
 C117 C 0.46617 -0.06767 0.76551
 C118 C 0.46605 -0.06758 0.73509
 C119 C 0.48269 -0.03429 0.71934
 C120 C 0.49975 -0.00045 0.73484
 C121 C 0.53339 0.06662 0.76557
 C122 C 0.53345 0.06668 0.73514
 C123 C 0.51678 0.03346 0.71936
 C124 C 0.51664 0.03317 0.68849
 C125 C 0.49969 -0.00030 0.67347
 C126 C 0.48276 -0.03385 0.68846
 H127 H 0.45298 -0.09409 0.77654
 H128 H 0.45279 -0.09391 0.72399
 H129 H 0.54659 0.09297 0.77664
 H130 H 0.54669 0.09307 0.72407
 H131 H 0.50001 -0.00044 0.85100
 H132 H 0.49966 -0.00024 0.64975
 O133 O 0.38905 0.65863 0.97533
 O134 O 0.38755 0.71938 0.96638
 C135 C 0.37019 0.73622 0.96113
 O136 O 0.34183 0.73082 0.97523
 O137 O 0.28099 0.66850 0.96625
 C138 C 0.26410 0.63427 0.96100
 O139 O 0.26943 0.61127 0.97512
 O140 O 0.33179 0.61294 0.96628
 C141 C 0.36607 0.63033 0.96115
 O142 O 0.38741 0.66852 1.03342
 O143 O 0.38899 0.73082 1.02447
 C144 C 0.36598 0.73609 1.03857
 O145 O 0.33173 0.71915 1.03333
 O146 O 0.26940 0.65831 1.02434
 C147 C 0.26403 0.62995 1.03846
 O148 O 0.28090 0.61263 1.03324
 O149 O 0.34173 0.61127 1.02439
 C150 C 0.37004 0.63425 1.03858
 Cr151 Cr 0.38617 0.69329 0.99990
 Cr152 Cr 0.30702 0.69316 0.99979
 Cr153 Cr 0.30700 0.61411 0.99976
 O154 O 0.33339 0.66685 0.99981
 O155 O 0.61159 0.34143 0.97595
 O156 O 0.61305 0.28067 0.96715
 C157 C 0.63040 0.26383 0.96199
 O158 O 0.65872 0.26917 0.97616
 O159 O 0.71961 0.33148 0.96718
 C160 C 0.73652 0.36571 0.96188
 O161 O 0.73119 0.38871 0.97593
 O162 O 0.66887 0.38710 0.96692
 C163 C 0.63459 0.36974 0.96175
 O164 O 0.61315 0.33143 1.03407
 O165 O 0.61152 0.26912 1.02527
 C166 C 0.63449 0.26379 1.03944
 O167 O 0.66876 0.28073 1.03426
 O168 O 0.73113 0.34156 1.02528
 C169 C 0.73651 0.36992 1.03933
 O170 O 0.71967 0.38727 1.03402
 O171 O 0.65887 0.38869 1.02501
 C172 C 0.63053 0.36569 1.03919
 Cr173 Cr 0.61441 0.30670 1.00061
 Cr174 Cr 0.69351 0.30678 1.00072
 Cr175 Cr 0.69361 0.38586 1.00047
 O176 O 0.66718 0.33311 1.00060
 O177 O 0.65822 0.38876 0.52397
 O178 O 0.71903 0.38732 0.53291
 C179 C 0.73595 0.37002 0.53809
 O180 O 0.73060 0.34175 0.52393
 O181 O 0.66825 0.28091 0.53291
 C182 C 0.63401 0.26400 0.53814
 O183 O 0.61097 0.26926 0.52399
 O184 O 0.61248 0.33148 0.53287
 C185 C 0.62985 0.36571 0.53809
 O186 O 0.66823 0.38738 0.46588
 O187 O 0.73056 0.38896 0.47480
 C188 C 0.73588 0.36601 0.46066
 O189 O 0.71895 0.33176 0.46584
 O190 O 0.65813 0.26935 0.47482
 C191 C 0.62974 0.26393 0.46070
 O192 O 0.61242 0.28081 0.46587
 O193 O 0.61096 0.34156 0.47476
 C194 C 0.63397 0.36998 0.46067
 Cr195 Cr 0.69297 0.38602 0.49939
 Cr196 Cr 0.69294 0.30698 0.49937
 Cr197 Cr 0.61379 0.30682 0.49937
 O198 O 0.66656 0.33327 0.49937
 O199 O 0.34096 0.61119 0.52408
 O200 O 0.28017 0.61260 0.53302
 C201 C 0.26326 0.62988 0.53819
 O202 O 0.26855 0.65816 0.52397
 O203 O 0.33090 0.71900 0.53287
 C204 C 0.36515 0.73591 0.53809
 O205 O 0.38817 0.73068 0.52395
 O206 O 0.38671 0.66846 0.53291
 C207 C 0.36936 0.63421 0.53816
 O208 O 0.33084 0.61266 0.46599
 O209 O 0.26851 0.61104 0.47491
 C210 C 0.26317 0.63400 0.46073
 O211 O 0.28010 0.66825 0.46587
 O212 O 0.34092 0.73065 0.47477
 C213 C 0.36929 0.73611 0.46065
 O214 O 0.38662 0.71923 0.46584
 O215 O 0.38812 0.65847 0.47481
 C216 C 0.36509 0.63006 0.46076
 Cr217 Cr 0.30616 0.61395 0.49950
 Cr218 Cr 0.30616 0.69298 0.49937
 Cr219 Cr 0.38532 0.69317 0.49937
 O220 O 0.33255 0.66670 0.49941
 C221 C 0.43566 0.56158 0.36243
 N222 N 0.40075 0.54033 0.37249
 N223 N 0.38614 0.55430 0.39070
 C224 C 0.40600 0.58995 0.39939
 N225 N 0.44088 0.61123 0.38927
 N226 N 0.45548 0.59725 0.37106
 C227 C 0.45205 0.54600 0.34409
 C228 C 0.46607 0.53263 0.32927
 C229 C 0.39105 0.60439 0.42028
 C230 C 0.37893 0.61626 0.43844
 C231 C 0.43816 0.87553 0.36198
 N232 N 0.45914 0.86144 0.37171
 N233 N 0.44507 0.83283 0.39001
 C234 C 0.40960 0.81743 0.39914
 N235 N 0.38860 0.83146 0.38935
 N236 N 0.40266 0.86007 0.37105
 C237 C 0.45389 0.90756 0.34354
 C238 C 0.46741 0.93502 0.32866
 C239 C 0.39507 0.78795 0.42010
 C240 C 0.38315 0.76389 0.43830
 C241 C 0.12420 0.56340 0.36183
 N242 N 0.13812 0.59839 0.37165
 N243 N 0.16667 0.61298 0.39000
 C244 C 0.18216 0.59301 0.39907
 N245 N 0.16829 0.55804 0.38919
 N246 N 0.13974 0.54346 0.37085
 C247 C 0.09221 0.54702 0.34339
 C248 C 0.06477 0.53300 0.32851
 C249 C 0.21152 0.60796 0.42009
 C250 C 0.23549 0.62010 0.43834
 C251 C 0.56341 0.43859 0.36202
 N252 N 0.59838 0.45977 0.37199
 N253 N 0.61297 0.44577 0.39027
 C254 C 0.59303 0.41017 0.39914
 N255 N 0.55809 0.38896 0.38912
 N256 N 0.54350 0.40296 0.37083
 C257 C 0.54705 0.45420 0.34359
 C258 C 0.53306 0.46761 0.32869
 C259 C 0.60798 0.39570 0.42010
 C260 C 0.62010 0.38381 0.43830
 C261 C 0.56105 0.12486 0.36205
 N262 N 0.59667 0.14062 0.37089
 N263 N 0.61066 0.16916 0.38920
 C264 C 0.58947 0.18281 0.39922
 N265 N 0.55387 0.16710 0.39032
 N266 N 0.53987 0.13857 0.37201
 C267 C 0.54542 0.09292 0.34360
 C268 C 0.53199 0.06552 0.32870
 C269 C 0.60395 0.21221 0.42017
 C270 C 0.61586 0.23622 0.43837
 C271 C 0.87484 0.43662 0.36184
 N272 N 0.85948 0.45667 0.37091
 N273 N 0.83093 0.44210 0.38923
 C274 C 0.81687 0.40704 0.39904
 N275 N 0.83217 0.38696 0.38991
 N276 N 0.86073 0.40153 0.37158
 C277 C 0.90682 0.45295 0.34341
 C278 C 0.93426 0.46693 0.32853
 C279 C 0.78751 0.39209 0.42003
 C280 C 0.76354 0.37994 0.43827
 C281 C 0.56231 0.43590 1.13807
 N282 N 0.54123 0.40083 1.12836
 N283 N 0.55517 0.38635 1.11000
 C284 C 0.59062 0.40649 1.10081
 N285 N 0.61172 0.44153 1.11058
 N286 N 0.59778 0.45602 1.12893
 C287 C 0.54671 0.45215 1.15654
 C288 C 0.53330 0.46605 1.17145
 C289 C 0.60500 0.39162 1.07980
 C290 C 0.61680 0.37954 1.06156
 C291 C 0.87499 0.43835 1.13865
 N292 N 0.86118 0.45946 1.12866
 N293 N 0.83273 0.44549 1.11021
 C294 C 0.81724 0.40999 1.10121
 N295 N 0.83099 0.38886 1.11126
 N296 N 0.85943 0.40283 1.12971
 C297 C 0.90688 0.45398 1.15719
 C298 C 0.93427 0.46743 1.17213
 C299 C 0.78799 0.39557 1.08010
 C300 C 0.76410 0.38373 1.06178
 C301 C 0.56388 0.12508 1.13873
 N302 N 0.54404 0.14078 1.12983
 N303 N 0.55862 0.16925 1.11139
 C304 C 0.59350 0.18288 1.10129
 N305 N 0.61337 0.16724 1.11025
 N306 N 0.59879 0.13877 1.12869
 C307 C 0.54748 0.09317 1.15729
 C308 C 0.53343 0.06577 1.17225
 C309 C 0.60845 0.21220 1.08019
 C310 C 0.62059 0.23614 1.06189
 C311 C 0.43823 0.56388 1.13776
 N312 N 0.40270 0.54385 1.12871
 N313 N 0.38877 0.55837 1.11030
 C314 C 0.40995 0.59337 1.10038
 N315 N 0.44545 0.61342 1.10947
 N316 N 0.45938 0.59890 1.12789
 C317 C 0.45380 0.54758 1.15630
 C318 C 0.46718 0.53364 1.17127
 C319 C 0.39557 0.60827 1.07930
 C320 C 0.38377 0.62038 1.06101
 C321 C 0.12568 0.56162 1.13782
 N322 N 0.14150 0.59724 1.12901
 N323 N 0.16991 0.61116 1.11055
 C324 C 0.18335 0.58988 1.10034
 N325 N 0.16759 0.55428 1.10921
 N326 N 0.13918 0.54036 1.12767
 C327 C 0.09383 0.54606 1.15639
 C328 C 0.06648 0.53268 1.17134
 C329 C 0.21257 0.60428 1.07922
 C330 C 0.23645 0.61613 1.06090
 C331 C 0.43613 0.87444 1.13786
 N332 N 0.45612 0.85895 1.12895
 N333 N 0.44165 0.83056 1.11049
 C334 C 0.40674 0.81681 1.10039
 N335 N 0.38672 0.83225 1.10936
 N336 N 0.40120 0.86064 1.12782
 C337 C 0.45239 0.90626 1.15645
 C338 C 0.46633 0.93358 1.17143
 C339 C 0.39189 0.78757 1.07929
 C340 C 0.37982 0.76369 1.06100
 C341 C 0.56172 0.43577 0.63727
 N342 N 0.54040 0.40095 0.62711
 N343 N 0.55428 0.38646 0.60869
 C344 C 0.58990 0.40636 0.59986
 N345 N 0.61125 0.44116 0.61006
 N346 N 0.59737 0.45564 0.62849
 C347 C 0.54622 0.45205 0.65582
 C348 C 0.53290 0.46601 0.67079
 C349 C 0.60427 0.39152 0.57878
 C350 C 0.61608 0.37949 0.56050
 C351 C 0.56392 0.12583 0.63777
 N352 N 0.54392 0.14131 0.62874
 N353 N 0.55841 0.16970 0.61023
 C354 C 0.59332 0.18346 0.60020
 N355 N 0.61335 0.16804 0.60929
 N356 N 0.59887 0.13965 0.62780
 C357 C 0.54763 0.09398 0.65636
 C358 C 0.53367 0.06663 0.67133
 C359 C 0.60816 0.21263 0.57902
 C360 C 0.62020 0.23646 0.56065
 C361 C 0.87453 0.43824 0.63740
 N362 N 0.86064 0.45933 0.62753
 N363 N 0.83220 0.44540 0.60908
 C364 C 0.81679 0.40997 0.59994
 N365 N 0.83062 0.38886 0.60986
 N366 N 0.85907 0.40278 0.62831
 C367 C 0.90643 0.45384 0.65596
 C368 C 0.93382 0.46726 0.67091
 C369 C 0.78751 0.39559 0.57883
 C370 C 0.76359 0.38378 0.56053
 C371 C 0.43796 0.56405 0.63723
 N372 N 0.40231 0.54413 0.62847
 N373 N 0.38833 0.55863 0.61007
 C374 C 0.40958 0.59348 0.59988
 N375 N 0.44521 0.61342 0.60869
 N376 N 0.45919 0.59892 0.62709
 C377 C 0.45356 0.54776 0.65577
 C378 C 0.46697 0.53382 0.67074
 C379 C 0.39511 0.60834 0.57883
 C380 C 0.38322 0.62041 0.56057
 C381 C 0.43539 0.87374 0.63768
 N382 N 0.45530 0.85816 0.62876
 N383 N 0.44078 0.82985 0.61025
 C384 C 0.40592 0.81627 0.60010
 N385 N 0.38598 0.83179 0.60908
 N386 N 0.40050 0.86010 0.62759
 C387 C 0.45172 0.90550 0.65629
 C388 C 0.46571 0.93278 0.67128
 C389 C 0.39106 0.78716 0.57893
 C390 C 0.37899 0.76338 0.56057
 C391 C 0.12518 0.56170 0.63786
 N392 N 0.14060 0.59716 0.62869
 N393 N 0.16894 0.61107 0.61015
 C394 C 0.18270 0.58994 0.60022
 N395 N 0.16733 0.55451 0.60944
 N396 N 0.13899 0.54060 0.62798
 C397 C 0.09338 0.54612 0.65651
 C398 C 0.06606 0.53270 0.67153
 C399 C 0.21186 0.60431 0.57903
 C400 C 0.23570 0.61612 0.56067
 C401 C 0.43641 0.56213 0.86228
 N402 N 0.40125 0.54113 0.87191
 N403 N 0.38676 0.55507 0.89027
 C404 C 0.40699 0.59044 0.89956
 N405 N 0.44211 0.61146 0.88987
 N406 N 0.45660 0.59752 0.87151
 C407 C 0.45264 0.54653 0.84377
 C408 C 0.46652 0.53312 0.82883
 C409 C 0.39209 0.60482 0.92056
 C410 C 0.37997 0.61661 0.93879
 C411 C 0.12567 0.56399 0.86155
 N412 N 0.13936 0.59887 0.87159
 N413 N 0.16778 0.61340 0.89006
 C414 C 0.18338 0.59349 0.89906
 N415 N 0.16974 0.55865 0.88897
 N416 N 0.14132 0.54411 0.87050
 C417 C 0.09378 0.54764 0.84299
 C418 C 0.06639 0.53362 0.82804
 C419 C 0.21262 0.60838 0.92020
 C420 C 0.23651 0.62046 0.93853
 C421 C 0.43857 0.87487 0.86194
 N422 N 0.45973 0.86112 0.87192
 N423 N 0.44576 0.83263 0.89033
 C424 C 0.41022 0.81704 0.89931
 N425 N 0.38904 0.83073 0.88927
 N426 N 0.40300 0.85922 0.87086
 C427 C 0.45419 0.90681 0.84344
 C428 C 0.46762 0.93422 0.82853
 C429 C 0.39582 0.78775 0.92039
 C430 C 0.38398 0.76383 0.93869
 C431 C 0.56431 0.43797 0.86246
 N432 N 0.54423 0.40249 0.87157
 N433 N 0.55873 0.38855 0.89002
 C434 C 0.59375 0.40969 0.89990
 N435 N 0.61386 0.44515 0.89074
 N436 N 0.59936 0.45908 0.87229
 C437 C 0.54804 0.45356 0.84388
 C438 C 0.53411 0.46695 0.82890
 C439 C 0.60864 0.39530 0.92100
 C440 C 0.62073 0.38349 0.93930
 C441 C 0.87496 0.43604 0.86252
 N442 N 0.85913 0.45581 0.87120
 N443 N 0.83072 0.44127 0.88967
 C444 C 0.81729 0.40653 0.90002
 N445 N 0.83307 0.38673 0.89130
 N446 N 0.86148 0.40127 0.87283
 C447 C 0.90681 0.45239 0.84392
 C448 C 0.93414 0.46641 0.82893
 C449 C 0.78804 0.39163 0.92114
 C450 C 0.76414 0.37955 0.93945
 C451 C 0.56208 0.12554 0.86280
 N452 N 0.59754 0.14090 0.87198
 N453 N 0.61150 0.16931 0.89041
 C454 C 0.59042 0.18320 0.90020
 N455 N 0.55500 0.16790 0.89096
 N456 N 0.54104 0.13949 0.87253
 C457 C 0.54646 0.09370 0.84428
 C458 C 0.53302 0.06637 0.82934
 C459 C 0.60481 0.21241 0.92128
 C460 C 0.61663 0.23627 0.93957
   
