data_POSCAR
  _audit_creation_date              2014-09-24
  _audit_creation_method            'ToBaCCo'
  _symmetry_space_group_name_H-M    'P1'
  _symmetry_Int_Tables_number       1
  _symmetry_cell_setting            triclinic
  loop_
  _symmetry_equiv_pos_as_xyz
 x,y,z
_cell_length_a 27.7028
_cell_length_b 27.7022
_cell_length_c 27.6838
_cell_angle_alpha 89.953600
_cell_angle_beta 90.137100
_cell_angle_gamma 89.999900
loop_
  _atom_site_label
  _atom_site_type_symbol
  _atom_site_fract_x
  _atom_site_fract_y
  _atom_site_fract_z
O1 O -0.12457 0.06514 0.00129
 O2 O 0.12363 0.06523 -0.00200
 O3 O -0.00216 0.12396 0.06491
 O4 O 0.00112 0.12412 -0.06584
 O5 O 0.00105 0.06541 -0.12462
 O6 O -0.00210 0.06510 0.12379
 O7 O 0.06483 0.12406 -0.00209
 O8 O -0.06574 0.12397 0.00134
 Zr9 Zr -0.00046 0.08478 -0.00044
 O10 O 0.04328 0.04379 -0.04421
 O11 O -0.04416 0.04361 0.04333
 C12 C -0.11042 0.10983 0.00225
 C13 C 0.10952 0.10993 -0.00291
 C14 C -0.00302 0.10980 0.10964
 C15 C 0.00192 0.11021 -0.11068
 H16 H 0.06380 0.06408 0.06394
 O17 O 0.04316 0.04349 0.04331
 H18 H -0.06482 0.06419 -0.06474
 O19 O -0.04419 0.04357 -0.04408
 O20 O 0.12353 -0.06534 0.00156
 O21 O -0.12466 -0.06548 -0.00218
 O22 O 0.06494 -0.00202 0.12385
 O23 O 0.06468 0.00168 -0.12454
 O24 O -0.06593 -0.00175 -0.12458
 O25 O -0.06561 0.00166 0.12373
 O26 O 0.00121 -0.12431 0.06521
 O27 O -0.00247 -0.12410 -0.06555
 O28 O 0.00132 -0.06556 0.12395
 O29 O -0.00247 -0.06524 -0.12445
 O30 O 0.12365 -0.00191 0.06502
 O31 O -0.12452 0.00167 0.06481
 O32 O -0.12461 -0.00190 -0.06587
 O33 O 0.12354 0.00161 -0.06559
 O34 O 0.06472 -0.12419 0.00162
 O35 O -0.06593 -0.12425 -0.00202
 Zr36 Zr 0.08432 -0.00007 -0.00031
 Zr37 Zr -0.08534 -0.00015 -0.00047
 Zr38 Zr -0.00040 -0.00020 0.08455
 Zr39 Zr -0.00059 0.00003 -0.08527
 Zr40 Zr -0.00058 -0.08497 -0.00022
 O41 O -0.04431 -0.04384 -0.04419
 O42 O 0.04333 -0.04391 0.04352
 C43 C 0.10940 -0.11003 0.00253
 C44 C -0.11074 -0.11029 -0.00295
 C45 C 0.10959 -0.00290 0.10971
 C46 C 0.10940 0.00250 -0.11034
 C47 C -0.11068 -0.00273 -0.11065
 C48 C -0.11031 0.00259 0.10954
 C49 C 0.00212 -0.11038 0.11004
 C50 C -0.00341 -0.10992 -0.11026
 H51 H -0.06472 -0.06440 0.06393
 O52 O -0.04413 -0.04378 0.04333
 H53 H 0.06356 -0.06428 -0.06448
 O54 O 0.04298 -0.04368 -0.04390
 O55 O 0.37588 0.56578 0.00195
 O56 O 0.62444 0.56587 -0.00121
 O57 O 0.49852 0.62460 0.06591
 O58 O 0.50192 0.62451 -0.06492
 O59 O 0.50179 0.56565 -0.12371
 O60 O 0.49856 0.56577 0.12465
 O61 O 0.56548 0.62483 -0.00122
 O62 O 0.43487 0.62473 0.00209
 Zr63 Zr 0.50016 0.58543 0.00047
 O64 O 0.54379 0.54426 -0.04332
 O65 O 0.45635 0.54427 0.04412
 C66 C 0.39037 0.61026 0.00289
 C67 C 0.61001 0.61040 -0.00209
 C68 C 0.49771 0.61059 0.11073
 C69 C 0.50280 0.61031 -0.10959
 H70 H 0.56447 0.56472 0.06481
 O71 O 0.54386 0.54414 0.04413
 H72 H 0.43584 0.56473 -0.06395
 O73 O 0.45645 0.54414 -0.04325
 O74 O 0.62431 0.43521 0.00233
 O75 O 0.37576 0.43519 -0.00146
 O76 O 0.56554 0.49869 0.12468
 O77 O 0.56513 0.50221 -0.12376
 O78 O 0.43458 0.49886 -0.12393
 O79 O 0.43499 0.50226 0.12452
 O80 O 0.50189 0.37644 0.06579
 O81 O 0.49829 0.37635 -0.06497
 O82 O 0.50203 0.43526 0.12461
 O83 O 0.49817 0.43520 -0.12382
 O84 O 0.62427 0.49872 0.06601
 O85 O 0.37606 0.50221 0.06563
 O86 O 0.37585 0.49890 -0.06527
 O87 O 0.62411 0.50227 -0.06491
 O88 O 0.56530 0.37628 0.00226
 O89 O 0.43472 0.37623 -0.00134
 Zr90 Zr 0.58506 0.50053 0.00051
 Zr91 Zr 0.41513 0.50049 0.00025
 Zr92 Zr 0.50021 0.50052 0.08528
 Zr93 Zr 0.49993 0.50044 -0.08446
 Zr94 Zr 0.50003 0.41558 0.00040
 O95 O 0.45614 0.45665 -0.04348
 O96 O 0.54390 0.45673 0.04422
 C97 C 0.60980 0.39073 0.00320
 C98 C 0.39021 0.39068 -0.00228
 C99 C 0.61032 0.49782 0.11080
 C100 C 0.60986 0.50312 -0.10964
 C101 C 0.38978 0.49807 -0.11009
 C102 C 0.39028 0.50312 0.11036
 C103 C 0.50288 0.39058 0.11049
 C104 C 0.49736 0.39049 -0.10970
 H105 H 0.43594 0.43630 0.06461
 O106 O 0.45651 0.45690 0.04397
 H107 H 0.56420 0.43630 -0.06377
 O108 O 0.54366 0.45689 -0.04314
 O109 O -0.12427 0.56555 0.50152
 O110 O 0.12395 0.56536 0.49844
 O111 O -0.00190 0.62431 0.56514
 O112 O 0.00147 0.62450 0.43449
 O113 O 0.00144 0.56560 0.37549
 O114 O -0.00180 0.56539 0.62426
 O115 O 0.06515 0.62420 0.49823
 O116 O -0.06553 0.62429 0.50149
 Zr117 Zr -0.00017 0.58502 0.49987
 O118 O 0.04361 0.54387 0.45622
 O119 O -0.04380 0.54385 0.54376
 C120 C -0.11033 0.61035 0.50232
 C121 C 0.10983 0.61004 0.49746
 C122 C -0.00277 0.60985 0.60967
 C123 C 0.00229 0.61013 0.38992
 H124 H 0.06411 0.56430 0.56430
 O125 O 0.04347 0.54368 0.54370
 H126 H -0.06446 0.56441 0.43557
 O127 O -0.04381 0.54377 0.45619
 O128 O 0.12404 0.43474 0.50197
 O129 O -0.12422 0.43486 0.49812
 O130 O 0.06545 0.49843 0.62457
 O131 O 0.06518 0.50191 0.37579
 O132 O -0.06565 0.49841 0.37556
 O133 O -0.06537 0.50176 0.62431
 O134 O 0.00158 0.37571 0.56547
 O135 O -0.00190 0.37587 0.43481
 O136 O 0.00166 0.43458 0.62451
 O137 O -0.00196 0.43480 0.37571
 O138 O 0.12429 0.49846 0.56560
 O139 O -0.12433 0.50189 0.56516
 O140 O -0.12449 0.49843 0.43455
 O141 O 0.12411 0.50182 0.43498
 O142 O 0.06522 0.37593 0.50190
 O143 O -0.06539 0.37604 0.49824
 Zr144 Zr 0.08478 0.50006 0.50021
 Zr145 Zr -0.08502 0.50018 0.49990
 Zr146 Zr -0.00001 0.50002 0.58516
 Zr147 Zr -0.00021 0.50018 0.41489
 Zr148 Zr -0.00009 0.41520 0.50012
 O149 O -0.04388 0.45641 0.45618
 O150 O 0.04375 0.45625 0.54404
 C151 C 0.10992 0.39004 0.50280
 C152 C -0.11007 0.39018 0.49728
 C153 C 0.10996 0.49763 0.61016
 C154 C 0.10968 0.50275 0.39041
 C155 C -0.11013 0.49754 0.39002
 C156 C -0.10988 0.50270 0.60973
 C157 C 0.00245 0.39006 0.61005
 C158 C -0.00283 0.39030 0.39025
 H159 H -0.06428 0.43588 0.56422
 O160 O -0.04368 0.45651 0.54366
 H161 H 0.06403 0.43592 0.43593
 O162 O 0.04342 0.45654 0.45646
 O163 O 0.37615 0.06480 0.50158
 O164 O 0.62468 0.06484 0.49840
 O165 O 0.49879 0.12382 0.56536
 O166 O 0.50207 0.12378 0.43472
 O167 O 0.50204 0.06488 0.37571
 O168 O 0.49887 0.06487 0.62439
 O169 O 0.56567 0.12376 0.49833
 O170 O 0.43507 0.12378 0.50163
 Zr171 Zr 0.50040 0.08448 0.50004
 O172 O 0.54414 0.04328 0.45630
 O173 O 0.45666 0.04332 0.54383
 C174 C 0.39057 0.10932 0.50244
 C175 C 0.61016 0.10931 0.49748
 C176 C 0.49798 0.10938 0.60991
 C177 C 0.50293 0.10935 0.39022
 H178 H 0.56474 0.06373 0.56434
 O179 O 0.54413 0.04312 0.54370
 H180 H 0.43615 0.06373 0.43569
 O181 O 0.45679 0.04312 0.45633
 O182 O 0.62486 -0.06583 0.50183
 O183 O 0.37628 -0.06580 0.49821
 O184 O 0.56589 -0.00219 0.62445
 O185 O 0.56561 0.00138 0.37574
 O186 O 0.43501 -0.00223 0.37564
 O187 O 0.43524 0.00113 0.62434
 O188 O 0.50245 -0.12468 0.56528
 O189 O 0.49878 -0.12479 0.43458
 O190 O 0.50242 -0.06575 0.62428
 O191 O 0.49867 -0.06580 0.37559
 O192 O 0.62479 -0.00225 0.56554
 O193 O 0.37623 0.00111 0.56527
 O194 O 0.37615 -0.00224 0.43460
 O195 O 0.62465 0.00137 0.43480
 O196 O 0.56593 -0.12480 0.50172
 O197 O 0.43527 -0.12474 0.49820
 Zr198 Zr 0.58547 -0.00050 0.50012
 Zr199 Zr 0.41550 -0.00049 0.49996
 Zr200 Zr 0.50054 -0.00045 0.58506
 Zr201 Zr 0.50037 -0.00048 0.41498
 Zr202 Zr 0.50057 -0.08547 0.49995
 O203 O 0.45666 -0.04425 0.45617
 O204 O 0.54430 -0.04424 0.54387
 C205 C 0.61045 -0.11036 0.50263
 C206 C 0.39077 -0.11028 0.49732
 C207 C 0.61037 -0.00310 0.61004
 C208 C 0.61011 0.00230 0.39026
 C209 C 0.39055 -0.00312 0.39010
 C210 C 0.39071 0.00196 0.60983
 C211 C 0.50336 -0.11019 0.60977
 C212 C 0.49787 -0.11033 0.39003
 H213 H 0.43641 -0.06473 0.56419
 O214 O 0.45699 -0.04412 0.54358
 H215 H 0.56469 -0.06467 0.43578
 O216 O 0.54411 -0.04409 0.45637
 C217 C 0.17050 0.23270 -0.00560
 C218 C 0.21931 0.21972 -0.00569
 C219 C 0.23229 0.17091 -0.00533
 C220 C 0.19665 0.13517 -0.00467
 C221 C 0.14740 0.14780 -0.00429
 C222 C 0.13477 0.19706 -0.00493
 C223 C 0.25606 0.25648 -0.00561
 C224 C 0.28683 0.28726 -0.00525
 C225 C 0.32285 0.32330 -0.00451
 C226 C 0.35360 0.35407 -0.00362
 H227 H 0.16005 0.27038 -0.00586
 H228 H 0.26998 0.16046 -0.00539
 H229 H 0.20777 0.09770 -0.00426
 H230 H 0.09730 0.20817 -0.00473
 C231 C 0.17093 -0.26738 0.49465
 C232 C 0.21968 -0.28051 0.49437
 C233 C 0.23260 -0.32931 0.49469
 C234 C 0.19692 -0.36494 0.49549
 C235 C 0.14770 -0.35219 0.49602
 C236 C 0.13514 -0.30292 0.49545
 C237 C 0.25646 -0.24392 0.49430
 C238 C 0.28731 -0.21329 0.49455
 C239 C 0.32341 -0.17745 0.49519
 C240 C 0.35422 -0.14680 0.49602
 H241 H 0.16057 -0.22966 0.49443
 H242 H 0.27027 -0.33983 0.49450
 H243 H 0.20797 -0.40243 0.49586
 H244 H 0.09769 -0.29174 0.49579
 C245 C 0.82989 0.76863 -0.00530
 C246 C 0.78109 0.78157 -0.00559
 C247 C 0.76817 0.83037 -0.00551
 C248 C 0.80380 0.86615 -0.00489
 C249 C 0.85325 0.85371 -0.00426
 C250 C 0.86568 0.80425 -0.00467
 C251 C 0.74429 0.74477 -0.00547
 C252 C 0.71350 0.71395 -0.00508
 C253 C 0.67744 0.67786 -0.00431
 C254 C 0.64666 0.64706 -0.00342
 H255 H 0.84033 0.73094 -0.00536
 H256 H 0.73048 0.84082 -0.00575
 H257 H 0.79235 0.90354 -0.00470
 H258 H 0.90306 0.79279 -0.00431
 C259 C 0.82920 0.26744 0.49451
 C260 C 0.78040 0.28039 0.49424
 C261 C 0.76731 0.32915 0.49452
 C262 C 0.80288 0.36491 0.49528
 C263 C 0.85213 0.35232 0.49581
 C264 C 0.86485 0.30310 0.49527
 C265 C 0.74379 0.24362 0.49424
 C266 C 0.71315 0.21279 0.49456
 C267 C 0.67730 0.17671 0.49527
 C268 C 0.64665 0.14590 0.49615
 H269 H 0.83969 0.22976 0.49432
 H270 H 0.72960 0.33953 0.49434
 H271 H 0.79171 0.40237 0.49564
 H272 H 0.90234 0.29203 0.49561
 C273 C 0.82888 0.23256 0.00561
 C274 C 0.78008 0.21961 0.00590
 C275 C 0.76699 0.17085 0.00543
 C276 C 0.80255 0.13508 0.00445
 C277 C 0.85180 0.14768 0.00387
 C278 C 0.86453 0.19690 0.00462
 C279 C 0.74346 0.25639 0.00611
 C280 C 0.71282 0.28722 0.00594
 C281 C 0.67696 0.32332 0.00535
 C282 C 0.64631 0.35414 0.00453
 H283 H 0.83938 0.27023 0.00595
 H284 H 0.72928 0.16047 0.00563
 H285 H 0.79138 0.09762 0.00397
 H286 H 0.90202 0.20796 0.00429
 C287 C 0.83034 -0.26855 0.50485
 C288 C 0.78155 -0.28148 0.50514
 C289 C 0.76860 -0.33027 0.50488
 C290 C 0.80422 -0.36606 0.50414
 C291 C 0.85367 -0.35363 0.50359
 C292 C 0.86611 -0.30418 0.50411
 C293 C 0.74476 -0.24468 0.50525
 C294 C 0.71397 -0.21387 0.50507
 C295 C 0.67790 -0.17779 0.50455
 C296 C 0.64711 -0.14700 0.50383
 H297 H 0.84079 -0.23086 0.50505
 H298 H 0.73091 -0.34071 0.50509
 H299 H 0.79276 -0.40344 0.50384
 H300 H 0.90349 -0.29273 0.50379
 C301 C 0.23269 0.32903 0.50530
 C302 C 0.21970 0.28023 0.50551
 C303 C 0.17089 0.26726 0.50526
 C304 C 0.13517 0.30290 0.50460
 C305 C 0.14779 0.35216 0.50415
 C306 C 0.19706 0.36477 0.50465
 C307 C 0.25643 0.24347 0.50547
 C308 C 0.28719 0.21270 0.50516
 C309 C 0.32321 0.17666 0.50449
 C310 C 0.35397 0.14590 0.50368
 H311 H 0.27038 0.33947 0.50548
 H312 H 0.16043 0.22957 0.50539
 H313 H 0.09769 0.29180 0.50428
 H314 H 0.20818 0.40224 0.50436
 C315 C 0.23217 0.82932 0.00566
 C316 C 0.21926 0.78052 0.00594
 C317 C 0.17050 0.76739 0.00558
 C318 C 0.13471 0.80294 0.00470
 C319 C 0.14727 0.85220 0.00412
 C320 C 0.19649 0.86496 0.00478
 C321 C 0.25605 0.74392 0.00601
 C322 C 0.28690 0.71329 0.00574
 C323 C 0.32301 0.67744 0.00506
 C324 C 0.35382 0.64679 0.00421
 H325 H 0.26984 0.83984 0.00592
 H326 H 0.16014 0.72968 0.00578
 H327 H 0.09725 0.79176 0.00429
 H328 H 0.20753 0.90245 0.00444
 C329 C -0.00578 0.17064 0.23245
 C330 C -0.00608 0.21945 0.21944
 C331 C -0.00584 0.23248 0.17061
 C332 C -0.00507 0.19688 0.13486
 C333 C -0.00449 0.14762 0.14751
 C334 C -0.00502 0.13494 0.19679
 C335 C -0.00608 0.25615 0.25620
 C336 C -0.00576 0.28690 0.28697
 C337 C -0.00505 0.32292 0.32298
 C338 C -0.00417 0.35368 0.35371
 H339 H -0.00596 0.16016 0.27016
 H340 H -0.00605 0.27018 0.16015
 H341 H -0.00476 0.20802 0.09736
 H342 H -0.00466 0.09746 0.20792
 C343 C 0.49545 0.26772 0.82933
 C344 C 0.49470 0.28069 0.78048
 C345 C 0.49436 0.32951 0.76746
 C346 C 0.49498 0.36525 0.80310
 C347 C 0.49600 0.35263 0.85240
 C348 C 0.49607 0.30336 0.86505
 C349 C 0.49478 0.24390 0.74376
 C350 C 0.49514 0.21304 0.71307
 C351 C 0.49586 0.17688 0.67716
 C352 C 0.49671 0.14602 0.64648
 H353 H 0.49573 0.23003 0.83982
 H354 H 0.49378 0.33996 0.72974
 H355 H 0.49484 0.40273 0.79196
 H356 H 0.49681 0.29224 0.90255
 C357 C -0.00635 0.76748 0.82891
 C358 C -0.00663 0.78054 0.78010
 C359 C -0.00639 0.82931 0.76704
 C360 C -0.00560 0.86500 0.80265
 C361 C -0.00499 0.85230 0.85192
 C362 C -0.00556 0.80307 0.86463
 C363 C -0.00653 0.74388 0.74343
 C364 C -0.00610 0.71314 0.71272
 C365 C -0.00523 0.67716 0.67680
 C366 C -0.00422 0.64641 0.64613
 H367 H -0.00652 0.72978 0.83937
 H368 H -0.00659 0.83976 0.72931
 H369 H -0.00527 0.90248 0.79152
 H370 H -0.00520 0.79194 0.90213
 C371 C 0.49513 -0.33027 0.23193
 C372 C 0.49495 -0.28145 0.21901
 C373 C 0.49526 -0.26844 0.17019
 C374 C 0.49596 -0.30401 0.13437
 C375 C 0.49643 -0.35348 0.14678
 C376 C 0.49583 -0.36599 0.19626
 C377 C 0.49493 -0.24470 0.25582
 C378 C 0.49520 -0.21388 0.28660
 C379 C 0.49582 -0.17778 0.32262
 C380 C 0.49661 -0.14697 0.35338
 H381 H 0.49489 -0.34076 0.26964
 H382 H 0.49513 -0.23073 0.15977
 H383 H 0.49632 -0.29249 0.09698
 H384 H 0.49606 -0.40340 0.20769
 C385 C 0.00467 0.76851 0.16961
 C386 C 0.00499 0.78143 0.21845
 C387 C 0.00481 0.83025 0.23131
 C388 C 0.00409 0.86603 0.19561
 C389 C 0.00347 0.85361 0.14613
 C390 C 0.00395 0.80414 0.13376
 C391 C 0.00503 0.74461 0.25535
 C392 C 0.00480 0.71380 0.28622
 C393 C 0.00422 0.67769 0.32238
 C394 C 0.00348 0.64685 0.35322
 H395 H 0.00481 0.73082 0.15920
 H396 H 0.00507 0.84072 0.26902
 H397 H 0.00385 0.90342 0.20703
 H398 H 0.00359 0.79268 0.09636
 C399 C 0.50555 -0.26725 0.82928
 C400 C 0.50651 -0.28043 0.78055
 C401 C 0.50670 -0.32921 0.76762
 C402 C 0.50571 -0.36481 0.80333
 C403 C 0.50446 -0.35200 0.85253
 C404 C 0.50455 -0.30275 0.86509
 C405 C 0.50666 -0.24389 0.74380
 C406 C 0.50641 -0.21324 0.71301
 C407 C 0.50571 -0.17736 0.67702
 C408 C 0.50479 -0.14668 0.64628
 H409 H 0.50536 -0.22952 0.83959
 H410 H 0.50742 -0.33972 0.72994
 H411 H 0.50576 -0.40231 0.79232
 H412 H 0.50366 -0.29156 0.90254
 C413 C 0.50524 0.26784 0.17131
 C414 C 0.50611 0.28078 0.22012
 C415 C 0.50638 0.32954 0.23321
 C416 C 0.50557 0.36532 0.19760
 C417 C 0.50441 0.35273 0.14833
 C418 C 0.50442 0.30351 0.13562
 C419 C 0.50613 0.24398 0.25674
 C420 C 0.50583 0.21307 0.28734
 C421 C 0.50512 0.17686 0.32312
 C422 C 0.50425 0.14597 0.35371
 H423 H 0.50500 0.23017 0.16083
 H424 H 0.50704 0.33991 0.27093
 H425 H 0.50567 0.40278 0.20874
 H426 H 0.50360 0.29245 0.09813
 C427 C 0.00464 0.23137 0.82996
 C428 C 0.00487 0.21850 0.78112
 C429 C 0.00453 0.16971 0.76816
 C430 C 0.00376 0.13388 0.80380
 C431 C 0.00324 0.14625 0.85329
 C432 C 0.00387 0.19570 0.86575
 C433 C 0.00500 0.25537 0.74430
 C434 C 0.00482 0.28625 0.71352
 C435 C 0.00431 0.32243 0.67746
 C436 C 0.00361 0.35332 0.64670
 H437 H 0.00491 0.26904 0.84043
 H438 H 0.00471 0.15931 0.73044
 H439 H 0.00340 0.09651 0.79233
 H440 H 0.00360 0.20711 0.90316
 C441 C 0.23237 -0.00595 0.17060
 C442 C 0.21946 -0.00632 0.21941
 C443 C 0.17072 -0.00604 0.23245
 C444 C 0.13492 -0.00517 0.19682
 C445 C 0.14747 -0.00450 0.14755
 C446 C 0.19668 -0.00508 0.13487
 C447 C 0.25624 -0.00637 0.25610
 C448 C 0.28707 -0.00607 0.28683
 C449 C 0.32315 -0.00536 0.32279
 C450 C 0.35395 -0.00448 0.35353
 H451 H 0.27004 -0.00615 0.16015
 H452 H 0.16038 -0.00631 0.27017
 H453 H 0.09748 -0.00483 0.20794
 H454 H 0.20770 -0.00466 0.09737
 C455 C 0.26867 0.49564 0.83022
 C456 C 0.28158 0.49526 0.78142
 C457 C 0.33039 0.49542 0.76859
 C458 C 0.36618 0.49616 0.80432
 C459 C 0.35376 0.49680 0.85379
 C460 C 0.30431 0.49638 0.86611
 C461 C 0.24474 0.49515 0.74453
 C462 C 0.21385 0.49532 0.71370
 C463 C 0.17764 0.49582 0.67763
 C464 C 0.14673 0.49651 0.64684
 H465 H 0.23099 0.49553 0.84060
 H466 H 0.34082 0.49513 0.73090
 H467 H 0.40357 0.49636 0.79295
 H468 H 0.29286 0.49677 0.90349
 C469 C 0.76831 -0.00584 0.82995
 C470 C 0.78126 -0.00607 0.78117
 C471 C 0.83000 -0.00566 0.76823
 C472 C 0.86578 -0.00477 0.80389
 C473 C 0.85334 -0.00422 0.85333
 C474 C 0.80393 -0.00496 0.86577
 C475 C 0.74452 -0.00616 0.74439
 C476 C 0.71374 -0.00591 0.71357
 C477 C 0.67772 -0.00526 0.67749
 C478 C 0.64696 -0.00442 0.64668
 H479 H 0.73063 -0.00616 0.84033
 H480 H 0.84039 -0.00583 0.73052
 H481 H 0.90316 -0.00434 0.79248
 H482 H 0.79251 -0.00467 0.90316
 C483 C -0.26865 0.49505 0.17036
 C484 C -0.28159 0.49466 0.21914
 C485 C -0.33036 0.49486 0.23203
 C486 C -0.36615 0.49568 0.19633
 C487 C -0.35370 0.49638 0.14688
 C488 C -0.30427 0.49588 0.13451
 C489 C -0.24480 0.49457 0.25595
 C490 C -0.21392 0.49481 0.28671
 C491 C -0.17774 0.49544 0.32270
 C492 C -0.14685 0.49625 0.35342
 H493 H -0.23096 0.49491 0.15998
 H494 H -0.34077 0.49455 0.26973
 H495 H -0.40353 0.49594 0.20772
 H496 H -0.29283 0.49631 0.09712
 C497 C 0.23224 0.00498 0.82903
 C498 C 0.21934 0.00517 0.78014
 C499 C 0.17053 0.00494 0.76698
 C500 C 0.13474 0.00431 0.80252
 C501 C 0.14730 0.00385 0.85186
 C502 C 0.19655 0.00435 0.86466
 C503 C 0.25618 0.00508 0.74351
 C504 C 0.28707 0.00474 0.71289
 C505 C 0.32324 0.00404 0.67704
 C506 C 0.35409 0.00321 0.64639
 H507 H 0.26991 0.00515 0.83964
 H508 H 0.16013 0.00508 0.72922
 H509 H 0.09728 0.00401 0.79127
 H510 H 0.20762 0.00408 0.90219
 C511 C 0.32955 0.50636 0.23314
 C512 C 0.28073 0.50603 0.22011
 C513 C 0.26766 0.50520 0.17128
 C514 C 0.30322 0.50449 0.13556
 C515 C 0.35250 0.50454 0.14822
 C516 C 0.36522 0.50564 0.19751
 C517 C 0.24403 0.50600 0.25680
 C518 C 0.21324 0.50567 0.28747
 C519 C 0.17714 0.50496 0.32333
 C520 C 0.14631 0.50408 0.35395
 H521 H 0.34006 0.50699 0.27086
 H522 H 0.22995 0.50492 0.16080
 H523 H 0.29204 0.50369 0.09806
 H524 H 0.40272 0.50579 0.20864
 C525 C 0.82910 0.00557 0.23229
 C526 C 0.78028 0.00580 0.21928
 C527 C 0.76714 0.00546 0.17046
 C528 C 0.80267 0.00466 0.13472
 C529 C 0.85194 0.00414 0.14737
 C530 C 0.86472 0.00477 0.19665
 C531 C 0.74369 0.00578 0.25604
 C532 C 0.71307 0.00543 0.28685
 C533 C 0.67723 0.00466 0.32291
 C534 C 0.64659 0.00372 0.35370
 H535 H 0.83964 0.00582 0.27001
 H536 H 0.72942 0.00562 0.16002
 H537 H 0.79146 0.00426 0.09722
 H538 H 0.90222 0.00447 0.20777
 C539 C -0.26757 0.50518 0.82924
 C540 C -0.28070 0.50597 0.78042
 C541 C -0.32955 0.50629 0.76747
 C542 C -0.36517 0.50560 0.80316
 C543 C -0.35239 0.50453 0.85244
 C544 C -0.30309 0.50448 0.86502
 C545 C -0.24405 0.50593 0.74364
 C546 C -0.21331 0.50560 0.71289
 C547 C -0.17728 0.50489 0.67693
 C548 C -0.14649 0.50402 0.64625
 H549 H -0.22985 0.50490 0.83967
 H550 H -0.34012 0.50690 0.72977
 H551 H -0.40269 0.50574 0.79207
 H552 H -0.29186 0.50371 0.90250
   
