data_POSCAR
  _audit_creation_date              2014-09-24
  _audit_creation_method            'ToBaCCo'
  _symmetry_space_group_name_H-M    'P1'
  _symmetry_Int_Tables_number       1
  _symmetry_cell_setting            triclinic
  loop_
  _symmetry_equiv_pos_as_xyz
 x,y,z
_cell_length_a 16.0467
_cell_length_b 15.2181
_cell_length_c 14.9161
_cell_angle_alpha 89.377500
_cell_angle_beta 90.693300
_cell_angle_gamma 91.842700
loop_
  _atom_site_label
  _atom_site_type_symbol
  _atom_site_fract_x
  _atom_site_fract_y
  _atom_site_fract_z
C1 C 0.24665 1.08649 -0.47413
 C2 C 0.23986 1.04889 -0.55709
 C3 C 0.31880 1.02188 -0.57802
 N4 N 0.37327 1.04130 -0.51118
 C5 C 0.32940 1.08040 -0.44737
 C6 C 0.33624 0.96721 -0.64982
 C7 C 0.41749 0.94955 -0.67712
 C8 C 0.43522 0.88908 -0.74228
 C9 C 0.52022 0.89058 -0.75014
 C10 C 0.55220 0.95121 -0.68861
 N11 N 0.48902 0.98858 -0.64581
 C12 C 0.63816 0.96912 -0.67494
 C13 C 0.67249 1.00731 -0.59570
 C14 C 0.75683 1.01898 -0.57772
 C15 C 0.76422 1.04741 -0.49037
 C16 C 0.68390 1.05334 -0.45745
 N17 N 0.62835 1.02824 -0.52235
 C18 C 0.66220 1.07326 -0.36730
 C19 C 0.57905 1.08193 -0.33808
 C20 C 0.55797 1.08967 -0.24861
 C21 C 0.47302 1.09639 -0.24549
 C22 C 0.44346 1.09135 -0.33310
 N23 N 0.50909 1.08576 -0.38940
 C24 C 0.35789 1.09327 -0.35906
 H25 H 0.19560 1.11064 -0.43555
 H26 H 0.18289 1.03875 -0.59578
 H27 H 0.50702 1.08997 -0.45877
 H28 H 0.39138 0.84808 -0.78011
 H29 H 0.55467 0.84997 -0.79482
 H30 H 0.80779 1.00552 -0.62193
 H31 H 0.82282 1.06032 -0.45610
 H32 H 0.43838 1.10532 -0.18479
 H33 H 0.49471 1.04183 -0.60298
 H34 H 0.59960 1.09090 -0.19093
 C35 C -0.75197 1.53935 0.05282
 C36 C -0.75127 1.45214 0.07993
 C37 C -0.67304 1.42252 0.05989
 N38 N -0.62610 1.48859 0.02255
 C39 C -0.67344 1.56043 0.01924
 C40 C -0.64719 1.33472 0.06873
 C41 C -0.56874 1.30886 0.04130
 C42 C -0.54904 1.22299 0.02244
 C43 C -0.46409 1.22275 0.01219
 C44 C -0.43493 1.30822 0.02647
 N45 N -0.49909 1.36045 0.04354
 C46 C -0.35057 1.33356 0.03469
 C47 C -0.32449 1.42296 0.03580
 C48 C -0.24741 1.45694 0.06415
 C49 C -0.24655 1.54487 0.04386
 C50 C -0.32335 1.56177 0.00530
 N51 N -0.37082 1.48752 0.00018
 C52 C -0.34420 1.64249 -0.03327
 C53 C -0.42854 1.66456 -0.05198
 C54 C -0.45514 1.73426 -0.10472
 C55 C -0.54113 1.73363 -0.10038
 C56 C -0.56539 1.66383 -0.04511
 N57 N -0.49638 1.62276 -0.01535
 C58 C -0.64943 1.64144 -0.02241
 H59 H -0.80439 1.58217 0.05641
 H60 H -0.80309 1.41409 0.10782
 H61 H -0.49494 1.57364 0.03362
 H62 H -0.59135 1.16620 0.01922
 H63 H -0.42764 1.16558 -0.00023
 H64 H -0.19696 1.42393 0.09747
 H65 H -0.19510 1.59115 0.05588
 H66 H -0.58133 1.77942 -0.13437
 H67 H -0.49457 1.42366 0.06945
 H68 H -0.41799 1.78045 -0.14399
 C69 C -0.03507 0.46026 0.22288
 C70 C -0.01907 0.37492 0.24973
 C71 C -0.02551 0.37213 0.34234
 N72 N -0.04648 0.45159 0.37213
 C73 C -0.05144 0.50600 0.30019
 C74 C -0.01748 0.29799 0.39928
 C75 C -0.01582 0.30417 0.49354
 C76 C -0.03368 0.23447 0.55160
 C77 C -0.01684 0.26408 0.63673
 C78 C 0.01215 0.35007 0.62853
 N79 N 0.01218 0.37453 0.54085
 C80 C 0.04304 0.40200 0.69997
 C81 C 0.05245 0.49345 0.69278
 C82 C 0.09370 0.54793 0.75395
 C83 C 0.08114 0.63271 0.72503
 C84 C 0.03158 0.62597 0.64863
 N85 N 0.01383 0.54122 0.62963
 C86 C -0.00197 0.69608 0.60054
 C87 C -0.04963 0.68349 0.52193
 C88 C -0.10065 0.74557 0.48374
 C89 C -0.12403 0.71424 0.40078
 C90 C -0.08604 0.63419 0.39067
 N91 N -0.04184 0.61545 0.46550
 C92 C -0.07449 0.59459 0.30718
 H93 H -0.03597 0.48442 0.15448
 H94 H -0.00426 0.32183 0.20602
 H95 H 0.00423 0.56905 0.47006
 H96 H -0.05605 0.16894 0.53426
 H97 H -0.02545 0.22701 0.69757
 H98 H 0.12843 0.52853 0.81321
 H99 H 0.10426 0.69215 0.75713
 H100 H -0.15951 0.74954 0.35063
 H101 H 0.03961 0.43163 0.51382
 H102 H -0.11563 0.80878 0.51088
 O103 O -0.18419 1.05833 -0.14645
 O104 O 0.23845 1.01126 -0.08337
 O105 O 0.05011 1.18978 -0.16744
 O106 O 0.03783 0.96938 -0.25686
 O107 O 0.00621 0.83070 -0.19995
 O108 O 0.04527 1.24744 -0.02574
 O109 O 0.15409 1.06308 -0.19727
 O110 O -0.06797 1.08568 -0.23274
 Zr111 Zr 0.03181 1.05228 -0.14604
 O112 O 0.08752 0.94204 -0.09484
 O113 O -0.04821 1.10805 -0.05777
 C114 C -0.14798 1.08066 -0.22137
 C115 C 0.22600 1.04244 -0.16339
 C116 C 0.05387 1.25470 -0.11145
 C117 C 0.02500 0.88555 -0.26494
 H118 H 0.14499 1.13282 -0.05082
 O119 O 0.10109 1.08847 -0.03504
 H120 H -0.09283 0.93920 -0.16842
 O121 O -0.05991 0.95867 -0.11547
 O122 O 0.20205 0.93160 0.14281
 O123 O -0.21873 0.96933 0.08109
 O124 O 0.13354 1.19245 0.10300
 O125 O 0.10157 0.77631 -0.07924
 O126 O -0.12837 0.79757 -0.08569
 O127 O -0.08303 1.21905 0.06131
 O128 O -0.01419 1.02139 0.25419
 O129 O -0.03734 0.80360 0.16165
 O130 O 0.00752 1.16033 0.19505
 O131 O -0.02542 0.73843 0.02404
 O132 O 0.22630 1.08253 0.07895
 O133 O -0.19175 1.13113 0.00827
 O134 O -0.21623 0.91341 -0.07046
 O135 O 0.21150 0.86002 -0.02066
 O136 O 0.08456 0.90012 0.22603
 O137 O -0.13357 0.91992 0.19529
 Zr138 Zr 0.15373 0.97807 0.01933
 Zr139 Zr -0.13572 1.01240 -0.02211
 Zr140 Zr 0.02022 1.13753 0.05652
 Zr141 Zr -0.00519 0.85087 -0.05980
 Zr142 Zr -0.01405 0.93883 0.14209
 O143 O -0.08411 0.90143 0.03245
 O144 O 0.07787 1.03123 0.11380
 C145 C 0.16439 0.90447 0.21499
 C146 C -0.20574 0.93341 0.15951
 C147 C 0.20677 1.15998 0.10724
 C148 C 0.18013 0.79071 -0.06125
 C149 C -0.20211 0.83186 -0.08388
 C150 C -0.16021 1.20460 0.03852
 C151 C -0.00581 1.10588 0.26110
 C152 C -0.03767 0.73542 0.10996
 H153 H -0.11027 1.07269 0.13607
 O154 O -0.07188 1.04803 0.09221
 H155 H 0.09174 0.83136 0.07837
 O156 O 0.06470 0.88357 0.05271
 N157 N 0.27386 0.92077 0.31589
 N158 N 0.21393 0.87596 0.28851
 N159 N -0.31284 0.93575 0.26522
 N160 N -0.27580 0.89730 0.20615
 N161 N -0.27708 1.07145 -0.29510
 N162 N -0.19996 1.09289 -0.29917
 N163 N 0.29290 1.09344 -0.29365
 N164 N 0.29691 1.05145 -0.21972
 N165 N 0.30628 1.27404 0.10872
 N166 N 0.27013 1.21318 0.14905
 N167 N 0.29093 0.68955 -0.05677
 N168 N 0.23492 0.72773 -0.09746
 N169 N -0.27416 0.70259 -0.04593
 N170 N -0.27467 0.77543 -0.08778
 N171 N -0.29221 1.26424 0.03421
 N172 N -0.21427 1.27597 0.04579
 N173 N -0.01552 1.21831 0.36708
 N174 N -0.01414 1.13962 0.34888
 N175 N 0.05767 1.36651 -0.22126
 N176 N 0.07173 1.34151 -0.14400
 N177 N 0.01460 0.77650 -0.37350
 N178 N 0.03129 0.85326 -0.35370
 N179 N -0.07362 0.65714 0.23482
 N180 N -0.04736 0.65200 0.15508
   
