data_POSCAR
  _audit_creation_date              2014-09-24
  _audit_creation_method            'ToBaCCo'
  _symmetry_space_group_name_H-M    'P1'
  _symmetry_Int_Tables_number       1
  _symmetry_cell_setting            triclinic
  loop_
  _symmetry_equiv_pos_as_xyz
 x,y,z
_cell_length_a 37.1018
_cell_length_b 37.0583
_cell_length_c 37.1164
_cell_angle_alpha 89.970200
_cell_angle_beta 89.721500
_cell_angle_gamma 90.276300
loop_
  _atom_site_label
  _atom_site_type_symbol
  _atom_site_fract_x
  _atom_site_fract_y
  _atom_site_fract_z
N1 N 0.14103 0.17095 0.24475
 N2 N 0.16367 0.14384 0.24395
 C3 C 0.15453 0.12004 0.26985
 C4 C 0.12381 0.13236 0.28734
 C5 C 0.11649 0.16523 0.27097
 H6 H 0.16835 0.09491 0.27478
 H7 H 0.09579 0.18432 0.27843
 Cu8 Cu 0.20163 0.14145 0.20781
 Cu9 Cu 0.14662 0.21236 0.21282
 Cu10 Cu 0.19692 0.19518 0.13541
 N11 N 0.23867 0.14078 0.17067
 N12 N 0.23631 0.16097 0.14170
 C13 C 0.26320 0.15228 0.11880
 C14 C 0.28318 0.12445 0.13390
 C15 C 0.26720 0.11883 0.16738
 H16 H 0.26686 0.16427 0.09245
 H17 H 0.27591 0.10047 0.18819
 N18 N 0.16502 0.23744 0.14076
 N19 N 0.14662 0.24430 0.17050
 C20 C 0.12896 0.27567 0.16652
 C21 C 0.13711 0.28959 0.13292
 C22 C 0.15965 0.26444 0.11708
 H23 H 0.11183 0.28785 0.18674
 H24 H 0.17167 0.26604 0.09052
 H25 H 0.15861 0.17698 0.17313
 H26 H 0.19767 0.20435 0.18922
 N27 N -0.14457 0.83326 0.23897
 N28 N -0.16638 0.86086 0.23520
 C29 C -0.15960 0.88505 0.26148
 C30 C -0.13174 0.87201 0.28230
 C31 C -0.12319 0.83893 0.26756
 H32 H -0.17325 0.91055 0.26487
 H33 H -0.10266 0.82056 0.27685
 Cu34 Cu -0.20038 0.86276 0.19543
 Cu35 Cu -0.14478 0.79223 0.20639
 Cu36 Cu -0.20735 0.79324 0.13749
 N37 N -0.23528 0.86296 0.15640
 N38 N -0.23833 0.83535 0.13444
 C39 C -0.26479 0.84187 0.11074
 C40 C -0.27877 0.87590 0.11747
 C41 C -0.25961 0.88816 0.14716
 H42 H -0.27269 0.82350 0.08955
 H43 H -0.26429 0.91273 0.16213
 N44 N -0.17347 0.75320 0.14492
 N45 N -0.14923 0.75314 0.17082
 C46 C -0.12939 0.72293 0.16817
 C47 C -0.14218 0.70267 0.13967
 C48 C -0.16977 0.72290 0.12523
 H49 H -0.10686 0.71631 0.18527
 H50 H -0.18571 0.71605 0.10187
 H51 H -0.16451 0.81910 0.16184
 H52 H -0.19836 0.79711 0.19225
 N53 N -0.13722 0.15422 -0.22944
 N54 N -0.16714 0.13568 -0.23417
 C55 C -0.16314 0.11388 -0.26289
 C56 C -0.12882 0.11876 -0.27665
 C57 C -0.11322 0.14492 -0.25512
 H58 H -0.18364 0.09592 -0.27330
 H59 H -0.08636 0.15610 -0.25784
 Cu60 Cu -0.20853 0.14130 -0.20242
 Cu61 Cu -0.13164 0.18811 -0.18971
 Cu62 Cu -0.20537 0.20051 -0.13372
 N63 N -0.24802 0.14588 -0.16819
 N64 N -0.24600 0.16787 -0.14053
 C65 C -0.27622 0.16466 -0.12060
 C66 C -0.29911 0.14018 -0.13728
 C67 C -0.27988 0.12839 -0.16714
 H68 H -0.28169 0.17992 -0.09636
 H69 H -0.28779 0.10737 -0.18572
 N70 N -0.16173 0.23084 -0.13135
 N71 N -0.13360 0.22632 -0.15276
 C72 C -0.10919 0.25248 -0.14595
 C73 C -0.12247 0.27420 -0.11866
 C74 C -0.15594 0.25988 -0.11036
 H75 H -0.08424 0.25638 -0.16067
 H76 H -0.17502 0.27057 -0.09105
 H77 H -0.16946 0.16447 -0.15509
 H78 H -0.18571 0.20060 -0.18625
 N79 N 0.14501 0.83124 -0.24453
 N80 N 0.17278 0.85328 -0.24695
 C81 C 0.17053 0.87204 -0.27794
 C82 C 0.14002 0.86061 -0.29620
 C83 C 0.12420 0.83513 -0.27384
 H84 H 0.18928 0.89288 -0.28633
 H85 H 0.09932 0.82056 -0.27847
 Cu86 Cu 0.20863 0.85558 -0.20884
 Cu87 Cu 0.13710 0.80062 -0.20260
 Cu88 Cu 0.21498 0.78404 -0.15412
 N89 N 0.24295 0.85463 -0.16929
 N90 N 0.24636 0.82587 -0.14892
 C91 C 0.27282 0.83151 -0.12489
 C92 C 0.28592 0.86637 -0.12936
 C93 C 0.26670 0.87988 -0.15844
 H94 H 0.28071 0.81217 -0.10460
 H95 H 0.27059 0.90565 -0.17163
 N96 N 0.17138 0.75386 -0.15035
 N97 N 0.14136 0.76084 -0.16791
 C98 C 0.11588 0.73682 -0.15797
 C99 C 0.13043 0.71417 -0.13238
 C100 C 0.16576 0.72539 -0.12850
 H101 H 0.08865 0.73607 -0.16823
 H102 H 0.18569 0.71403 -0.11065
 H103 H 0.17502 0.81955 -0.16515
 H104 H 0.19051 0.79218 -0.20446
 N105 N 0.16005 1.13491 0.76455
 N106 N 0.13792 1.16237 0.76175
 C107 C 0.11572 1.15666 0.73372
 C108 C 0.12437 1.12384 0.71840
 C109 C 0.15289 1.11095 0.73827
 H110 H 0.09483 1.17488 0.72496
 H111 H 0.16692 1.08576 0.73421
 Cu112 Cu 0.14032 1.20287 0.79491
 Cu113 Cu 0.19557 1.13158 0.80272
 Cu114 Cu 0.19778 1.20143 0.86470
 N115 N 0.14220 1.24197 0.82973
 N116 N 0.16425 1.24080 0.85732
 C117 C 0.16048 1.27103 0.87695
 C118 C 0.13525 1.29267 0.86039
 C119 C 0.12372 1.27316 0.83084
 H120 H 0.17514 1.27700 0.90135
 H121 H 0.10371 1.28139 0.81145
 N122 N 0.22972 1.15936 0.86739
 N123 N 0.22936 1.13310 0.84337
 C124 C 0.25573 1.10960 0.85122
 C125 C 0.27318 1.12145 0.88180
 C126 C 0.25628 1.15321 0.89116
 H127 H 0.26239 1.08596 0.83551
 H128 H 0.26384 1.17114 0.91284
 H129 H 0.16696 1.16256 0.83913
 H130 H 0.20169 1.18645 0.81121
 N131 N 0.84383 0.86718 0.77037
 N132 N 0.86780 0.84121 0.77145
 C133 C 0.88684 0.84125 0.74044
 C134 C 0.87376 0.86853 0.71870
 C135 C 0.84702 0.88492 0.73889
 H136 H 0.90791 0.82227 0.73377
 H137 H 0.83049 0.90751 0.73091
 Cu138 Cu 0.87069 0.80915 0.81281
 Cu139 Cu 0.80890 0.87457 0.80894
 Cu140 Cu 0.79771 0.80105 0.86615
 N141 N 0.86478 0.76841 0.84523
 N142 N 0.83602 0.76513 0.86584
 C143 C 0.83761 0.73355 0.88374
 C144 C 0.86870 0.71590 0.87330
 C145 C 0.88559 0.73903 0.84920
 H146 H 0.81713 0.72355 0.90208
 H147 H 0.91060 0.73433 0.83490
 N148 N 0.76235 0.84054 0.86249
 N149 N 0.76680 0.86859 0.84094
 C150 C 0.73736 0.88965 0.84292
 C151 C 0.71301 0.87389 0.86651
 C152 C 0.73007 0.84323 0.87898
 H153 H 0.73334 0.91398 0.82737
 H154 H 0.71937 0.82402 0.89824
 H155 H 0.82924 0.84385 0.85153
 H156 H 0.80626 0.81968 0.81407
 N157 N 0.16139 0.86398 1.23358
 N158 N 0.13404 0.84139 1.23152
 C159 C 0.11011 0.84923 1.25775
 C160 C 0.12304 0.87855 1.27685
 C161 C 0.15581 0.88700 1.26103
 H162 H 0.08550 0.83437 1.26312
 H163 H 0.17471 0.90754 1.26964
 Cu164 Cu 0.13389 0.80250 1.19627
 Cu165 Cu 0.20373 0.85951 1.20283
 Cu166 Cu 0.19015 0.80863 1.12554
 N167 N 0.13594 0.76477 1.15986
 N168 N 0.15766 0.76760 1.13189
 C169 C 0.15383 0.73822 1.11093
 C170 C 0.12904 0.71531 1.12715
 C171 C 0.11780 0.73327 1.15785
 H172 H 0.16845 0.73358 1.08608
 H173 H 0.09841 0.72369 1.17753
 N174 N 0.23147 0.84166 1.13173
 N175 N 0.23692 0.86053 1.16139
 C176 C 0.26847 0.87841 1.15844
 C177 C 0.28389 0.86978 1.12569
 C178 C 0.25966 0.84670 1.10924
 H179 H 0.28002 0.89547 1.17905
 H180 H 0.26296 0.83357 1.08343
 H181 H 0.16991 0.84657 1.16250
 H182 H 0.19732 0.80818 1.17968
 N183 N 0.83374 1.13917 1.24104
 N184 N 0.85431 1.16764 1.24635
 C185 C 0.87552 1.16176 1.27501
 C186 C 0.86817 1.12756 1.28805
 C187 C 0.84126 1.11408 1.26608
 H188 H 0.89496 1.18080 1.28558
 H189 H 0.82782 1.08821 1.26843
 Cu190 Cu 0.85204 1.20934 1.21495
 Cu191 Cu 0.79935 1.13677 1.20161
 Cu192 Cu 0.77922 1.21968 1.16359
 N193 N 0.85105 1.24505 1.17666
 N194 N 0.82220 1.24948 1.15677
 C195 C 0.82843 1.27609 1.13282
 C196 C 0.86335 1.28848 1.13749
 C197 C 0.87670 1.26858 1.16600
 H198 H 0.80913 1.28546 1.11320
 H199 H 0.90295 1.27130 1.17829
 N200 N 0.74777 1.17710 1.15916
 N201 N 0.75659 1.14491 1.17142
 C202 C 0.73216 1.12057 1.15983
 C203 C 0.70713 1.13832 1.13886
 C204 C 0.71735 1.17426 1.13984
 H205 H 0.73310 1.09192 1.16528
 H206 H 0.70458 1.19647 1.12602
 H207 H 0.81549 1.17986 1.16911
 H208 H 0.78907 1.18958 1.21085
 N209 N 0.53822 1.03893 1.06225
 N210 N 0.56682 1.04443 1.08265
 N211 N 0.45983 1.06096 1.04236
 N212 N 0.43082 1.08064 1.04839
 N213 N 0.46249 1.03552 1.06674
 N214 N 0.43552 1.03740 1.08987
 N215 N 0.53539 1.06469 1.03821
 N216 N 0.56164 1.08846 1.04194
 C217 C 0.58151 1.07542 1.06945
 C218 C 0.41571 1.06563 1.07830
 N219 N 0.45603 1.03828 0.93916
 N220 N 0.42624 1.04058 0.92004
 N221 N 0.53179 1.06609 0.96047
 N222 N 0.55733 1.09022 0.95405
 N223 N 0.53152 1.04141 0.93510
 N224 N 0.55675 1.04802 0.91081
 N225 N 0.45612 1.06251 0.96495
 N226 N 0.42637 1.08183 0.96421
 Mn227 Mn 0.49577 1.06403 1.00148
 C228 C 0.40799 1.06773 0.93614
 C229 C 0.57241 1.07875 0.92275
 N230 N 0.46506 0.95786 1.06457
 N231 N 0.43759 0.95266 1.08680
 N232 N 0.54066 0.93676 1.03471
 N233 N 0.57089 0.91811 1.03489
 N234 N 0.54100 0.96126 1.06026
 N235 N 0.57138 0.95987 1.07851
 N236 N 0.46497 0.93337 1.03902
 N237 N 0.43771 0.91079 1.04325
 Mn238 Mn 0.50174 0.99833 1.06395
 C239 C 0.42115 0.92283 1.07342
 C240 C 0.58985 0.93294 1.06229
 N241 N 0.53471 0.96384 0.93325
 N242 N 0.56110 0.96047 0.90944
 N243 N 0.46051 0.93525 0.96168
 N244 N 0.43178 0.91410 0.96002
 N245 N 0.45875 0.96080 0.93724
 N246 N 0.42886 0.95773 0.91837
 N247 N 0.53626 0.93806 0.95744
 N248 N 0.56346 0.91628 0.95067
 Mn249 Mn 0.49530 1.00108 0.93575
 Mn250 Mn 0.50060 0.93542 0.99823
 Cl251 Cl 0.49838 0.99975 0.99987
 C252 C 0.57858 0.93047 0.92060
 C253 C 0.41219 0.92861 0.93294
 N254 N -0.04016 0.46082 -0.06460
 N255 N -0.04147 0.43094 -0.08393
 N256 N -0.06620 0.53652 -0.03855
 N257 N -0.08908 0.56337 -0.04297
 N258 N -0.04148 0.53697 -0.06394
 N259 N -0.04682 0.56407 -0.08630
 N260 N -0.06525 0.46044 -0.03948
 N261 N -0.08451 0.43046 -0.04132
 C262 C -0.06945 0.41245 -0.06922
 C263 C -0.07683 0.58010 -0.07316
 N264 N -0.04007 0.53515 0.06385
 N265 N -0.04607 0.56059 0.08798
 N266 N -0.06447 0.45957 0.03815
 N267 N -0.08612 0.43149 0.04227
 N268 N -0.03884 0.45921 0.06244
 N269 N -0.04212 0.43068 0.08352
 N270 N -0.06524 0.53532 0.03909
 N271 N -0.08900 0.56089 0.04566
 Mn272 Mn -0.06574 0.49801 -0.00022
 C273 C -0.07679 0.57628 0.07636
 C274 C -0.07168 0.41366 0.07050
 N275 N 0.03599 0.53870 -0.06475
 N276 N 0.03819 0.56836 -0.08437
 N277 N 0.06241 0.46269 -0.04154
 N278 N 0.08655 0.43760 -0.04843
 N279 N 0.03731 0.46281 -0.06631
 N280 N 0.04373 0.43781 -0.09079
 N281 N 0.06136 0.53838 -0.04021
 N282 N 0.08154 0.56765 -0.04256
 Mn283 Mn -0.00214 0.49983 -0.06535
 C284 C 0.06665 0.58626 -0.07003
 C285 C 0.07470 0.42247 -0.07940
 N286 N 0.03887 0.46072 0.06159
 N287 N 0.04570 0.43462 0.08478
 N288 N 0.06241 0.53714 0.03709
 N289 N 0.08503 0.56426 0.04182
 N290 N 0.03773 0.53669 0.06253
 N291 N 0.04291 0.56359 0.08532
 N292 N 0.06327 0.46133 0.03588
 N293 N 0.08722 0.43562 0.04078
 Mn294 Mn -0.00061 0.49795 0.06306
 Mn295 Mn 0.06273 0.49984 -0.00222
 Cl296 Cl -0.00144 0.49889 -0.00115
 C297 C 0.07617 0.41935 0.07160
 C298 C 0.07280 0.58033 0.07220
 N299 N 1.03440 0.06086 0.54027
 N300 N 1.03645 0.07963 0.57038
 N301 N 1.05879 0.03982 0.46273
 N302 N 1.07804 0.04389 0.43300
 N303 N 1.03330 0.06419 0.46442
 N304 N 1.03476 0.08560 0.43600
 N305 N 1.06026 0.03683 0.53870
 N306 N 1.08064 0.03868 0.56772
 C307 C 1.06537 0.06546 0.58724
 C308 C 1.06267 0.07247 0.41642
 N309 N 1.03720 -0.06377 0.45963
 N310 N 1.04014 -0.08313 0.42993
 N311 N 1.06287 -0.04070 0.53545
 N312 N 1.08690 -0.04632 0.56091
 N313 N 1.03840 -0.06643 0.53549
 N314 N 1.04502 -0.09018 0.56112
 N315 N 1.06120 -0.03761 0.45979
 N316 N 1.08101 -0.03840 0.43018
 Mn317 Mn 1.06124 -0.00035 0.49916
 C318 C 1.06748 -0.06687 0.41178
 C319 C 1.07550 -0.07735 0.57657
 N320 N 0.95573 0.06141 0.46603
 N321 N 0.95195 0.08293 0.43798
 N322 N 0.93262 0.03236 0.54101
 N323 N 0.91253 0.03320 0.57044
 N324 N 0.95700 0.05813 0.54171
 N325 N 0.95417 0.07712 0.57164
 N326 N 0.93180 0.03521 0.46518
 N327 N 0.91130 0.03798 0.43638
 Mn328 Mn 0.99511 0.06163 0.50314
 C329 C 0.92416 0.06792 0.41982
 C330 C 0.92643 0.06114 0.58943
 N331 N 0.96065 -0.06913 0.53704
 N332 N 0.95707 -0.09215 0.56405
 N333 N 0.93400 -0.04221 0.46217
 N334 N 0.91367 -0.04421 0.43314
 N335 N 0.95967 -0.06645 0.46096
 N336 N 0.95750 -0.08551 0.43100
 N337 N 0.93479 -0.04509 0.53789
 N338 N 0.91286 -0.05113 0.56530
 Mn339 Mn 0.99898 -0.06694 0.49835
 Mn340 Mn 0.93285 -0.00493 0.50156
 Cl341 Cl 0.99705 -0.00268 0.50056
 C342 C 0.92684 -0.08077 0.58116
 C343 C 0.92874 -0.07125 0.41385
 C344 C 1.06795 0.11782 0.32270
 C345 C 1.10595 0.11592 0.31682
 C346 C 1.12699 0.09694 0.34174
 C347 C 1.11216 0.08333 0.37338
 C348 C 1.07545 0.08710 0.38126
 C349 C 1.05259 0.10326 0.35514
 C350 C 1.04440 0.13066 0.29571
 C351 C 1.00729 0.13141 0.30120
 C352 C 0.99254 0.11804 0.33292
 C353 C 1.01467 0.10338 0.35927
 H354 H 1.05391 0.13869 0.26940
 H355 H 0.98977 0.14151 0.28028
 H356 H 0.96366 0.11807 0.33662
 H357 H 1.00128 0.09108 0.38195
 H358 H 1.15582 0.09431 0.33795
 H359 H 1.12998 0.07028 0.39235
 C360 C 0.92320 -0.10612 0.31654
 C361 C 0.88533 -0.11063 0.31380
 C362 C 0.86312 -0.09935 0.34214
 C363 C 0.87784 -0.08596 0.37389
 C364 C 0.91524 -0.08344 0.37837
 C365 C 0.93835 -0.09239 0.34908
 C366 C 0.94624 -0.11353 0.28706
 C367 C 0.98327 -0.10804 0.28961
 C368 C 0.99799 -0.09443 0.32114
 C369 C 0.97596 -0.08633 0.35053
 H370 H 0.93594 -0.12268 0.26145
 H371 H 1.00058 -0.11374 0.26677
 H372 H 1.02660 -0.08954 0.32249
 H373 H 0.98868 -0.07420 0.37365
 H374 H 0.83411 -0.10210 0.34016
 H375 H 0.85978 -0.07856 0.39567
 C376 C 0.88703 0.06376 0.68551
 C377 C 0.88674 0.10170 0.69084
 C378 C 0.90108 0.12440 0.66426
 C379 C 0.91393 0.11046 0.63194
 C380 C 0.91321 0.07328 0.62512
 C381 C 0.90070 0.04932 0.65249
 C382 C 0.87550 0.03975 0.71288
 C383 C 0.87702 0.00253 0.70786
 C384 C 0.89083 -0.01155 0.67600
 C385 C 0.90298 0.01142 0.64875
 H386 H 0.86600 0.04934 0.73869
 H387 H 0.86810 -0.01551 0.72909
 H388 H 0.89269 -0.04047 0.67264
 H389 H 0.91504 -0.00110 0.62547
 H390 H 0.90140 0.15338 0.66813
 H391 H 0.92395 0.12912 0.61172
 C392 C 1.14699 -0.11825 0.63854
 C393 C 1.12529 -0.12531 0.66945
 C394 C 1.08815 -0.11872 0.66791
 C395 C 1.07256 -0.10393 0.63729
 C396 C 1.09363 -0.09475 0.60731
 C397 C 1.13108 -0.10236 0.60739
 C398 C 1.18375 -0.12797 0.63718
 C399 C 1.20463 -0.12094 0.60664
 C400 C 1.18929 -0.10486 0.57658
 C401 C 1.15284 -0.09597 0.57667
 H402 H 1.19661 -0.14196 0.65911
 H403 H 1.23277 -0.12851 0.60609
 H404 H 1.20556 -0.09987 0.55279
 H405 H 1.14191 -0.08485 0.55216
 H406 H 1.07103 -0.12430 0.69100
 H407 H 1.04385 -0.09865 0.63742
 C408 C 0.32406 1.07112 1.12899
 C409 C 0.31363 1.10676 1.11904
 C410 C 0.33567 1.12587 1.09482
 C411 C 0.36828 1.11187 1.08283
 C412 C 0.38099 1.07830 1.09472
 C413 C 0.35897 1.05781 1.11917
 C414 C 0.29958 1.04724 1.14626
 C415 C 0.31061 1.01382 1.15896
 C416 C 0.34590 1.00290 1.15381
 C417 C 0.36964 1.02407 1.13359
 H418 H 0.27131 1.05348 1.14907
 H419 H 0.29167 0.99627 1.17279
 H420 H 0.35461 0.97716 1.16439
 H421 H 0.39598 1.01292 1.13018
 H422 H 0.32853 1.15271 1.08591
 H423 H 0.38405 1.12809 1.06421
 C424 C 0.31575 0.92127 0.89609
 C425 C 0.31394 0.88327 0.89017
 C426 C 0.34182 0.86162 0.90368
 C427 C 0.37275 0.87689 0.91842
 C428 C 0.37692 0.91432 0.92070
 C429 C 0.34767 0.93690 0.91104
 C430 C 0.28555 0.94378 0.89054
 C431 C 0.28748 0.98074 0.89682
 C432 C 0.31888 0.99599 0.91016
 C433 C 0.34849 0.97443 0.91786
 H434 H 0.25954 0.93310 0.88309
 H435 H 0.26412 0.99751 0.89226
 H436 H 0.31975 1.02451 0.91570
 H437 H 0.37123 0.98742 0.93050
 H438 H 0.34107 0.83256 0.90066
 H439 H 0.39439 0.85920 0.92663
 C440 C 0.68725 0.93053 1.09716
 C441 C 0.69172 0.89236 1.10003
 C442 C 0.66484 0.86976 1.08565
 C443 C 0.63268 0.88368 1.07281
 C444 C 0.62610 0.92075 1.07330
 C445 C 0.65402 0.94475 1.08400
 C446 C 0.71594 0.95487 1.10394
 C447 C 0.71145 0.99199 1.10023
 C448 C 0.67885 1.00576 1.08838
 C449 C 0.65055 0.98253 1.07987
 H450 H 0.74271 0.94569 1.11032
 H451 H 0.73375 1.01013 1.10558
 H452 H 0.67593 1.03454 1.08457
 H453 H 0.62669 0.99459 1.06865
 H454 H 0.66736 0.84068 1.08648
 H455 H 0.61203 0.86502 1.06379
 C456 C 0.63827 1.11730 0.85207
 C457 C 0.66702 1.12793 0.87529
 C458 C 0.66194 1.12508 0.91270
 C459 C 0.63112 1.10918 0.92707
 C460 C 0.60352 1.09658 0.90496
 C461 C 0.60641 1.10127 0.86709
 C462 C 0.63895 1.12495 0.81469
 C463 C 0.61044 1.11496 0.79248
 C464 C 0.58004 1.09838 0.80700
 C465 C 0.57765 1.09210 0.84392
 H466 H 0.66056 1.14013 0.80229
 H467 H 0.61160 1.12092 0.76394
 H468 H 0.55770 1.09128 0.78968
 H469 H 0.55257 1.08108 0.85395
 H470 H 0.68303 1.13296 0.93123
 H471 H 0.62943 1.10528 0.95587
 C472 C 0.14716 0.35059 0.10255
 C473 C 0.12388 0.32396 0.11757
 C474 C 0.08680 0.33053 0.11927
 C475 C 0.07229 0.36192 0.10497
 C476 C 0.09426 0.38792 0.08834
 C477 C 0.13229 0.38298 0.08802
 C478 C 0.18502 0.34656 0.10313
 C479 C 0.20767 0.37330 0.08929
 C480 C 0.19329 0.40494 0.07549
 C481 C 0.15612 0.41006 0.07523
 H482 H 0.19767 0.32326 0.11499
 H483 H 0.23661 0.36976 0.08994
 H484 H 0.21109 0.42596 0.06553
 H485 H 0.14673 0.43591 0.06596
 H486 H 0.06872 0.31078 0.13122
 H487 H 0.04337 0.36557 0.10627
 C488 C -0.07073 0.31181 -0.09307
 C489 C -0.10700 0.30840 -0.10474
 C490 C -0.12978 0.33842 -0.10283
 C491 C -0.11708 0.37170 -0.09098
 C492 C -0.08112 0.37619 -0.08083
 C493 C -0.05768 0.34606 -0.08106
 C494 C -0.04754 0.28174 -0.09155
 C495 C -0.01234 0.28535 -0.07900
 C496 C 0.00030 0.31868 -0.06724
 C497 C -0.02204 0.34881 -0.06813
 H498 H -0.05648 0.25504 -0.09913
 H499 H 0.00507 0.26202 -0.07793
 H500 H 0.02750 0.32116 -0.05707
 H501 H -0.01126 0.37397 -0.05798
 H502 H -0.15764 0.33627 -0.11121
 H503 H -0.13539 0.39439 -0.09032
 C504 C 0.11166 0.67954 -0.07613
 C505 C 0.11230 0.68361 -0.11415
 C506 C 0.09526 0.65787 -0.13580
 C507 C 0.07968 0.62717 -0.12074
 C508 C 0.08041 0.62131 -0.08349
 C509 C 0.09520 0.64829 -0.06057
 C510 C 0.12580 0.70645 -0.05314
 C511 C 0.12406 0.70261 -0.01581
 C512 C 0.10754 0.67247 -0.00061
 C513 C 0.09286 0.64575 -0.02260
 H514 H 0.13758 0.73105 -0.06361
 H515 H 0.13498 0.72349 0.00143
 H516 H 0.10553 0.67008 0.02839
 H517 H 0.07878 0.62391 -0.00933
 H518 H 0.09507 0.66094 -0.16484
 H519 H 0.06803 0.60717 -0.13857
 C520 C -0.11808 0.63882 0.14769
 C521 C -0.12730 0.66849 0.12535
 C522 C -0.12178 0.66599 0.08807
 C523 C -0.10591 0.63565 0.07289
 C524 C -0.09473 0.60686 0.09445
 C525 C -0.10141 0.60783 0.13214
 C526 C -0.12641 0.63853 0.18489
 C527 C -0.11756 0.60909 0.20641
 C528 C -0.10103 0.57905 0.19133
 C529 C -0.09335 0.57813 0.15456
 H530 H -0.14064 0.66046 0.19764
 H531 H -0.12408 0.60934 0.23487
 H532 H -0.09471 0.55606 0.20811
 H533 H -0.08187 0.55357 0.14400
 H534 H -0.12899 0.68817 0.07054
 H535 H -0.10145 0.63506 0.04401
 C536 C 1.07010 0.09977 0.68451
 C537 C 1.10765 0.10673 0.68667
 C538 C 1.13016 0.09719 0.65789
 C539 C 1.11591 0.08298 0.62632
 C540 C 1.07874 0.07770 0.62261
 C541 C 1.05552 0.08482 0.65229
 C542 C 1.04693 0.10601 0.71416
 C543 C 1.01034 0.09769 0.71218
 C544 C 0.99623 0.08253 0.68102
 C545 C 1.01843 0.07600 0.65134
 H546 H 1.05688 0.11646 0.73942
 H547 H 0.99295 0.10239 0.73519
 H548 H 0.96804 0.07524 0.68014
 H549 H 1.00638 0.06299 0.62830
 H550 H 1.15897 0.10183 0.65946
 H551 H 1.13403 0.07707 0.60413
 C552 C 0.86113 -0.11591 0.65316
 C553 C 0.88572 -0.12197 0.68173
 C554 C 0.92277 -0.11807 0.67528
 C555 C 0.93561 -0.10603 0.64204
 C556 C 0.91180 -0.09737 0.61423
 C557 C 0.87427 -0.10331 0.61920
 C558 C 0.82391 -0.12331 0.65709
 C559 C 0.80012 -0.11742 0.62878
 C560 C 0.81289 -0.10487 0.59579
 C561 C 0.84957 -0.09825 0.59078
 H562 H 0.81282 -0.13461 0.68159
 H563 H 0.77169 -0.12319 0.63228
 H564 H 0.79435 -0.10090 0.57373
 H565 H 0.85825 -0.09009 0.56417
 H566 H 0.94192 -0.12311 0.69663
 H567 H 0.96437 -0.10201 0.63851
 C568 C 1.10135 -0.06804 0.31390
 C569 C 1.10752 -0.10559 0.30996
 C570 C 1.09875 -0.12900 0.33831
 C571 C 1.08559 -0.11579 0.37084
 C572 C 1.08058 -0.07875 0.37608
 C573 C 1.08743 -0.05449 0.34715
 C574 C 1.10696 -0.04389 0.28493
 C575 C 1.09881 -0.00740 0.28844
 C576 C 1.08446 0.00566 0.32051
 C577 C 1.07874 -0.01747 0.34963
 H578 H 1.11672 -0.05302 0.25903
 H579 H 1.10294 0.01073 0.26589
 H580 H 1.07715 0.03378 0.32256
 H581 H 1.06638 -0.00618 0.37345
 H582 H 1.10293 -0.15778 0.33553
 H583 H 1.07984 -0.13470 0.39242
 C584 C 0.89727 0.07481 0.32072
 C585 C 0.88384 0.11063 0.32043
 C586 C 0.88556 0.13146 0.35187
 C587 C 0.89900 0.11713 0.38367
 C588 C 0.91092 0.08147 0.38510
 C589 C 0.91077 0.06003 0.35346
 C590 C 0.89917 0.05389 0.28897
 C591 C 0.91326 0.01910 0.28958
 C592 C 0.92627 0.00467 0.32153
 C593 C 0.92527 0.02484 0.35319
 H594 H 0.89072 0.06435 0.26322
 H595 H 0.91460 0.00343 0.26501
 H596 H 0.93778 -0.02205 0.32158
 H597 H 0.93668 0.01284 0.37709
 H598 H 0.87586 0.15899 0.35197
 H599 H 0.89956 0.13389 0.40758
 C600 C 0.14538 0.35616 -0.11532
 C601 C 0.12201 0.32822 -0.12733
 C602 C 0.08473 0.33384 -0.12702
 C603 C 0.07024 0.36529 -0.11278
 C604 C 0.09244 0.39192 -0.09783
 C605 C 0.13047 0.38827 -0.10029
 C606 C 0.18320 0.35360 -0.11923
 C607 C 0.20580 0.38138 -0.10771
 C608 C 0.19130 0.41259 -0.09296
 C609 C 0.15408 0.41633 -0.08966
 H610 H 0.19575 0.33074 -0.13212
 H611 H 0.23470 0.37895 -0.11089
 H612 H 0.20897 0.43437 -0.08472
 H613 H 0.14428 0.44187 -0.07978
 H614 H 0.06650 0.31313 -0.13674
 H615 H 0.04122 0.36821 -0.11223
 C616 C -0.08254 0.31693 0.10534
 C617 C -0.11873 0.31858 0.11800
 C618 C -0.13867 0.35009 0.11241
 C619 C -0.12305 0.38027 0.09633
 C620 C -0.08688 0.38009 0.08564
 C621 C -0.06639 0.34813 0.08934
 C622 C -0.06246 0.28467 0.10680
 C623 C -0.02716 0.28344 0.09381
 C624 C -0.01134 0.31397 0.07857
 C625 C -0.03068 0.34602 0.07614
 H626 H -0.07397 0.25985 0.11697
 H627 H -0.01215 0.25850 0.09511
 H628 H 0.01590 0.31264 0.06809
 H629 H -0.01762 0.36874 0.06318
 H630 H -0.16643 0.35171 0.12145
 H631 H -0.13912 0.40439 0.09311
 C632 C -0.10966 0.65208 -0.13977
 C633 C -0.11929 0.67967 -0.11503
 C634 C -0.11768 0.67269 -0.07800
 C635 C -0.10482 0.63991 -0.06511
 C636 C -0.09316 0.61295 -0.08883
 C637 C -0.09654 0.61842 -0.12658
 C638 C -0.11412 0.65661 -0.17729
 C639 C -0.10525 0.62910 -0.20126
 C640 C -0.09257 0.59631 -0.18846
 C641 C -0.08860 0.59074 -0.15156
 H642 H -0.12528 0.68097 -0.18855
 H643 H -0.10884 0.63303 -0.22992
 H644 H -0.08636 0.57482 -0.20719
 H645 H -0.08025 0.56423 -0.14306
 H646 H -0.12552 0.69325 -0.05879
 H647 H -0.10290 0.63602 -0.03624
 C648 C 0.14098 0.65166 0.10411
 C649 C 0.11676 0.67938 0.11453
 C650 C 0.07959 0.67279 0.11331
 C651 C 0.06605 0.64021 0.10037
 C652 C 0.08922 0.61308 0.08819
 C653 C 0.12711 0.61823 0.09081
 C654 C 0.17866 0.65578 0.10798
 C655 C 0.20211 0.62819 0.09819
 C656 C 0.18864 0.59567 0.08525
 C657 C 0.15159 0.59044 0.08198
 H658 H 0.19048 0.67983 0.11940
 H659 H 0.23090 0.63183 0.10130
 H660 H 0.20698 0.57410 0.07834
 H661 H 0.14261 0.56407 0.07344
 H662 H 0.06075 0.69347 0.12162
 H663 H 0.03710 0.63659 0.09889
 C664 C 0.30993 1.09965 0.93516
 C665 C 0.30622 1.10630 0.89770
 C666 C 0.33481 1.09840 0.87431
 C667 C 0.36733 1.08563 0.88742
 C668 C 0.37234 1.08029 0.92435
 C669 C 0.34328 1.08632 0.94863
 C670 C 0.28071 1.10414 0.95926
 C671 C 0.28415 1.09557 0.99565
 C672 C 0.31642 1.08192 1.00865
 C673 C 0.34575 1.07730 0.98554
 H674 H 0.25467 1.11324 0.95018
 H675 H 0.26142 1.09883 1.01373
 H676 H 0.31849 1.07424 1.03668
 H677 H 0.36977 1.06550 0.99677
 H678 H 0.33224 1.10296 0.84560
 H679 H 0.38909 1.08051 0.86855
 C680 C 0.34778 0.85650 1.10486
 C681 C 0.31973 0.88131 1.11246
 C682 C 0.32611 0.91833 1.10844
 C683 C 0.35926 0.93106 1.09605
 C684 C 0.38730 0.90729 1.08788
 C685 C 0.38193 0.86962 1.09259
 C686 C 0.34310 0.81904 1.11037
 C687 C 0.37113 0.79506 1.10354
 C688 C 0.40446 0.80784 1.09175
 C689 C 0.41004 0.84471 1.08658
 H690 H 0.31806 0.80789 1.12048
 H691 H 0.36711 0.76643 1.10787
 H692 H 0.42627 0.78911 1.08698
 H693 H 0.43674 0.85334 1.07856
 H694 H 0.30497 0.93755 1.11433
 H695 H 0.36282 0.95977 1.09192
 C696 C 0.66913 1.13156 1.08224
 C697 C 0.67688 1.12203 1.11842
 C698 C 0.65481 1.09702 1.13614
 C699 C 0.62458 1.08254 1.11942
 C700 C 0.61478 1.09270 1.08434
 C701 C 0.63731 1.11784 1.06527
 C702 C 0.69310 1.15359 1.06210
 C703 C 0.68468 1.16470 1.02742
 C704 C 0.65293 1.15323 1.01156
 C705 C 0.62999 1.12937 1.02965
 H706 H 0.71893 1.16199 1.07247
 H707 H 0.70304 1.18211 1.01266
 H708 H 0.64640 1.16231 0.98468
 H709 H 0.60707 1.12046 1.01462
 H710 H 0.66060 1.08908 1.16360
 H711 H 0.60828 1.06348 1.13457
 C712 C 0.64601 0.86433 0.87929
 C713 C 0.67669 0.88731 0.87652
 C714 C 0.67303 0.92413 0.88436
 C715 C 0.64052 0.93792 0.89715
 C716 C 0.61079 0.91525 0.90286
 C717 C 0.61297 0.87833 0.89312
 C718 C 0.64693 0.82809 0.86748
 C719 C 0.61667 0.80586 0.87062
 C720 C 0.58472 0.81932 0.88484
 C721 C 0.58264 0.85524 0.89568
 H722 H 0.67054 0.81675 0.85478
 H723 H 0.61789 0.77814 0.86150
 H724 H 0.56121 0.80201 0.88685
 H725 H 0.55684 0.86482 0.90526
 H726 H 0.69594 0.94220 0.88182
 H727 H 0.63905 0.96626 0.90414
   
