data_POSCAR
  _audit_creation_date              2014-09-24
  _audit_creation_method            'ToBaCCo'
  _symmetry_space_group_name_H-M    'P1'
  _symmetry_Int_Tables_number       1
  _symmetry_cell_setting            triclinic
  loop_
  _symmetry_equiv_pos_as_xyz
 x,y,z
_cell_length_a 28.9188
_cell_length_b 28.9902
_cell_length_c 49.3213
_cell_angle_alpha 89.959000
_cell_angle_beta 90.546800
_cell_angle_gamma 90.337700
loop_
  _atom_site_label
  _atom_site_type_symbol
  _atom_site_fract_x
  _atom_site_fract_y
  _atom_site_fract_z
C1 C -0.02270 0.35941 0.98550
 C2 C -0.02285 0.35864 1.01327
 C3 C -0.00510 0.40081 1.02192
 N4 N 0.00506 0.42760 1.00030
 C5 C -0.00564 0.40224 0.97806
 C6 C 0.00288 0.41349 1.04936
 C7 C 0.01003 0.46027 1.05704
 C8 C 0.02898 0.47469 1.08158
 C9 C 0.02662 0.52195 1.08198
 C10 C 0.00760 0.53561 1.05730
 N11 N -0.00249 0.49766 1.04227
 C12 C -0.00437 0.58157 1.05026
 C13 C -0.01331 0.59529 1.02312
 C14 C -0.02676 0.63914 1.01495
 C15 C -0.02567 0.63962 0.98717
 C16 C -0.01116 0.59632 0.97920
 N17 N -0.00349 0.56939 1.00115
 C18 C -0.00159 0.58354 0.95220
 C19 C 0.00803 0.53773 0.94440
 C20 C 0.02627 0.52498 0.91961
 C21 C 0.02753 0.47756 0.91930
 C22 C 0.01011 0.46275 0.94392
 N23 N -0.00175 0.49957 0.95908
 C24 C 0.00240 0.41626 0.95112
 H25 H -0.03421 0.33176 0.97229
 H26 H -0.03497 0.33029 1.02564
 H27 H -0.02035 0.49840 0.97701
 H28 H 0.04262 0.45341 1.09778
 H29 H 0.03722 0.54337 1.09887
 H30 H -0.03501 0.66841 1.02754
 H31 H -0.03360 0.66890 0.97436
 H32 H 0.03949 0.45641 0.90274
 H33 H -0.02193 0.49700 1.02441
 H34 H 0.03716 0.54747 0.90332
 C35 C 0.63957 -0.02217 0.51416
 C36 C 0.63943 -0.02351 0.48640
 C37 C 0.59742 -0.00542 0.47779
 N38 N 0.57153 0.00598 0.49946
 C39 C 0.59736 -0.00420 0.52167
 C40 C 0.58407 0.00190 0.45036
 C41 C 0.53719 0.00999 0.44300
 C42 C 0.52246 0.03023 0.41891
 C43 C 0.47496 0.02970 0.41904
 C44 C 0.46185 0.00981 0.44335
 N45 N 0.49992 -0.00199 0.45791
 C46 C 0.41562 0.00085 0.45082
 C47 C 0.40247 -0.00775 0.47783
 C48 C 0.35910 -0.02287 0.48576
 C49 C 0.35936 -0.02274 0.51358
 C50 C 0.40286 -0.00748 0.52165
 N51 N 0.42914 0.00168 0.49977
 C52 C 0.41666 0.00101 0.54873
 C53 C 0.46293 0.01082 0.55624
 C54 C 0.47686 0.02908 0.58100
 C55 C 0.52442 0.03053 0.58091
 C56 C 0.53814 0.01303 0.55612
 N57 N 0.50050 0.00112 0.54120
 C58 C 0.58437 0.00500 0.54863
 H59 H 0.66739 -0.03356 0.52734
 H60 H 0.66710 -0.03659 0.47401
 H61 H 0.50069 -0.01753 0.52320
 H62 H 0.54370 0.04414 0.40288
 H63 H 0.45260 0.04270 0.40310
 H64 H 0.33015 -0.03254 0.47287
 H65 H 0.33067 -0.03233 0.52638
 H66 H 0.54638 0.04253 0.59737
 H67 H 0.50039 -0.02146 0.47566
 H68 H 0.45505 0.03988 0.59751
 C69 C 0.09056 0.00152 0.26076
 H70 H 0.09337 0.00179 0.23890
 C71 C 0.13048 0.00302 0.27694
 H72 H 0.16419 0.00429 0.26758
 C73 C 0.04327 -0.00003 0.29978
 H74 H 0.00931 -0.00050 0.30866
 C75 C 0.08225 0.00147 0.31668
 H76 H 0.07813 0.00163 0.33849
 N77 N 0.04807 -0.00067 0.27235
 C78 C -0.04241 -0.06515 0.21176
 H79 H -0.07029 -0.04043 0.21117
 C80 C -0.04433 -0.10422 0.19523
 H81 H -0.07369 -0.10962 0.18178
 C82 C 0.03009 -0.08830 0.22990
 H83 H 0.05882 -0.08226 0.24360
 C84 C 0.02953 -0.12783 0.21371
 H85 H 0.05806 -0.15183 0.21479
 Zn86 Zn -0.00464 -0.00269 0.24922
 N87 N -0.00518 -0.05748 0.22827
 C88 C -0.00152 0.04483 0.19885
 N89 N -0.00195 0.04974 0.22630
 C90 C 0.00092 0.09215 0.23806
 C91 C 0.00289 0.13188 0.22202
 C92 C 0.00044 0.08361 0.18210
 C93 C -0.06760 -0.03928 0.28631
 C94 C -0.10663 -0.04049 0.30276
 C95 C -0.12931 0.03346 0.28448
 C96 C -0.08983 0.03331 0.26837
 N97 N -0.05946 -0.00233 0.26996
 H98 H -0.00253 0.01091 0.18984
 H99 H 0.00134 0.09504 0.25993
 H100 H 0.00468 0.16553 0.23152
 H101 H 0.00042 0.07940 0.16027
 H102 H -0.04324 -0.06745 0.28688
 H103 H -0.11235 -0.06959 0.31613
 H104 H -0.15291 0.06231 0.28347
 H105 H -0.08345 0.06181 0.25479
 C106 C -0.00782 -0.13562 0.19606
 C107 C 0.12622 0.00276 0.30517
 C108 C -0.13752 -0.00357 0.30201
 C109 C 0.00241 0.12750 0.19378
 C110 C 0.00047 0.09436 0.76145
 H111 H -0.00002 0.09711 0.73958
 C112 C -0.00046 0.13420 0.77737
 H113 H -0.00150 0.16781 0.76778
 C114 C 0.00209 0.04727 0.80080
 H115 H 0.00240 0.01341 0.80991
 C116 C 0.00116 0.08618 0.81743
 H117 H 0.00128 0.08211 0.83927
 N118 N 0.00248 0.05200 0.77333
 C119 C 0.06613 -0.03805 0.71357
 H120 H 0.04127 -0.06607 0.71320
 C121 C 0.10499 -0.03965 0.69701
 H122 H 0.11008 -0.06893 0.68375
 C123 C 0.08979 0.03460 0.73112
 H124 H 0.08403 0.06329 0.74459
 C125 C 0.12913 0.03435 0.71489
 H126 H 0.15323 0.06307 0.71570
 Zn127 Zn 0.00405 -0.00064 0.75060
 N128 N 0.05878 -0.00087 0.72978
 C129 C -0.04381 0.00206 0.70007
 N130 N -0.04865 0.00155 0.72750
 C131 C -0.09113 0.00402 0.73906
 C132 C -0.13099 0.00568 0.72285
 C133 C -0.08272 0.00371 0.68314
 C134 C 0.04093 -0.06296 0.78818
 C135 C 0.04226 -0.10182 0.80491
 C136 C -0.03223 -0.12511 0.78681
 C137 C -0.03220 -0.08579 0.77041
 N138 N 0.00368 -0.05522 0.77176
 H139 H -0.00985 0.00139 0.69120
 H140 H -0.09396 0.00441 0.76092
 H141 H -0.16470 0.00717 0.73219
 H142 H -0.07856 0.00376 0.66133
 H143 H 0.06928 -0.03844 0.78855
 H144 H 0.07165 -0.10726 0.81830
 H145 H -0.06124 -0.14891 0.78596
 H146 H -0.06095 -0.07971 0.75679
 C147 C 0.13652 -0.00291 0.69750
 C148 C 0.00015 0.13001 0.80562
 C149 C 0.00514 -0.13294 0.80438
 C150 C -0.12669 0.00528 0.69463
 C151 C 0.03511 -0.33439 0.10277
 C152 C -0.00685 -0.31394 0.10978
 C153 C -0.04803 -0.32883 0.09737
 C154 C -0.04727 -0.36385 0.07792
 C155 C -0.00526 -0.38453 0.07071
 C156 C 0.03596 -0.36942 0.08332
 C157 C -0.00747 -0.27674 0.12908
 C158 C -0.00786 -0.24512 0.14493
 C159 C -0.00813 -0.20757 0.16312
 C160 C -0.00813 -0.17503 0.17833
 H161 H 0.06722 -0.32288 0.11210
 H162 H -0.08066 -0.31310 0.10256
 H163 H -0.07943 -0.37480 0.06840
 H164 H 0.06887 -0.38413 0.07771
 C165 C -0.01850 0.34804 0.11355
 C166 C 0.00630 0.30762 0.10877
 C167 C 0.03070 0.30265 0.08463
 C168 C 0.02996 0.33767 0.06518
 C169 C 0.00463 0.37844 0.06949
 C170 C -0.01929 0.38322 0.09413
 C171 C 0.00585 0.27059 0.12822
 C172 C 0.00536 0.23883 0.14400
 C173 C 0.00461 0.20084 0.16190
 C174 C 0.00375 0.16775 0.17670
 H175 H -0.03773 0.35214 0.13213
 H176 H 0.05018 0.27156 0.08077
 H177 H 0.04979 0.33314 0.04686
 H178 H -0.03984 0.41359 0.09802
 C179 C 0.31063 0.03331 0.58890
 C180 C 0.31172 0.00041 0.60970
 C181 C 0.34759 -0.03181 0.61084
 C182 C 0.38203 -0.03138 0.59112
 C183 C 0.38078 0.00124 0.57006
 C184 C 0.34502 0.03378 0.56919
 C185 C 0.27545 -0.00077 0.62946
 C186 C 0.24449 -0.00161 0.64565
 C187 C 0.20759 -0.00237 0.66417
 C188 C 0.17551 -0.00278 0.67959
 H189 H 0.28303 0.05837 0.58782
 H190 H 0.34874 -0.05744 0.62682
 H191 H 0.40939 -0.05670 0.59207
 H192 H 0.34369 0.05930 0.55315
 C193 C -0.30744 0.03975 0.58764
 C194 C -0.30788 0.00813 0.60911
 C195 C -0.34407 -0.02398 0.61113
 C196 C -0.37948 -0.02472 0.59162
 C197 C -0.37893 0.00664 0.56990
 C198 C -0.34280 0.03905 0.56814
 C199 C -0.27044 0.00785 0.62854
 C200 C -0.23845 0.00753 0.64438
 C201 C -0.20027 0.00699 0.66241
 C202 C -0.16706 0.00634 0.67736
 H203 H -0.27955 0.06466 0.58585
 H204 H -0.34467 -0.04869 0.62761
 H205 H -0.40701 -0.05005 0.59322
 H206 H -0.34189 0.06353 0.55154
 C207 C -0.03091 -0.34438 0.89030
 C208 C 0.00278 -0.30956 0.89200
 C209 C 0.03537 -0.31004 0.91318
 C210 C 0.03413 -0.34501 0.93268
 C211 C 0.00018 -0.37976 0.93121
 C212 C -0.03220 -0.37938 0.90981
 C213 C 0.00344 -0.27280 0.87237
 C214 C 0.00397 -0.24153 0.85626
 C215 C 0.00453 -0.20434 0.83778
 C216 C 0.00490 -0.17208 0.82235
 H217 H -0.05632 -0.34430 0.87402
 H218 H 0.06156 -0.28326 0.91469
 H219 H 0.05946 -0.34495 0.94900
 H220 H -0.05858 -0.40597 0.90840
 C221 C -0.02900 0.34633 0.88857
 C222 C 0.00316 0.31047 0.89026
 C223 C 0.03580 0.30993 0.91141
 C224 C 0.03599 0.34475 0.93097
 C225 C 0.00343 0.38045 0.92960
 C226 C -0.02885 0.38122 0.90815
 C227 C 0.00194 0.27339 0.87088
 C228 C 0.00110 0.24159 0.85515
 C229 C 0.00041 0.20354 0.83732
 C230 C 0.00010 0.17037 0.82260
 H231 H -0.05448 0.34701 0.87233
 H232 H 0.06079 0.28232 0.91293
 H233 H 0.06118 0.34371 0.94735
 H234 H -0.05429 0.40843 0.90685
 C235 C -0.30523 0.02555 0.41405
 C236 C -0.31256 0.00139 0.38985
 C237 C -0.35446 -0.02186 0.38540
 C238 C -0.38876 -0.02136 0.40520
 C239 C -0.38161 0.00227 0.42992
 C240 C -0.33938 0.02610 0.43388
 C241 C -0.27659 -0.00009 0.36991
 C242 C -0.24574 -0.00120 0.35366
 C243 C -0.20883 -0.00231 0.33516
 C244 C -0.17667 -0.00304 0.31980
 H245 H -0.27302 0.04393 0.41763
 H246 H -0.36043 -0.04082 0.36676
 H247 H -0.42037 -0.04069 0.40152
 H248 H -0.33302 0.04587 0.45218
 C249 C 0.34336 -0.02777 0.38846
 C250 C 0.30797 0.00483 0.39033
 C251 C 0.30839 0.03678 0.41161
 C252 C 0.34374 0.03585 0.43111
 C253 C 0.37894 0.00280 0.42957
 C254 C 0.37876 -0.02874 0.40797
 C255 C 0.27041 0.00472 0.37097
 C256 C 0.23830 0.00453 0.35520
 C257 C 0.19999 0.00416 0.33727
 C258 C 0.16667 0.00365 0.32239
 H259 H 0.34331 -0.05269 0.37210
 H260 H 0.28117 0.06212 0.41327
 H261 H 0.34352 0.06059 0.44755
 H262 H 0.40567 -0.05442 0.40649
   
