data_POSCAR
  _audit_creation_date              2014-09-24
  _audit_creation_method            'ToBaCCo'
  _symmetry_space_group_name_H-M    'P1'
  _symmetry_Int_Tables_number       1
  _symmetry_cell_setting            triclinic
  loop_
  _symmetry_equiv_pos_as_xyz
 x,y,z
_cell_length_a 24.1113
_cell_length_b 25.6245
_cell_length_c 24.0058
_cell_angle_alpha 92.122800
_cell_angle_beta 88.649900
_cell_angle_gamma 88.091400
loop_
  _atom_site_label
  _atom_site_type_symbol
  _atom_site_fract_x
  _atom_site_fract_y
  _atom_site_fract_z
C1 C 0.17904 0.20814 0.25943
 C2 C 0.18267 0.24813 0.22072
 C3 C 0.22775 0.24832 0.18414
 C4 C 0.26950 0.20947 0.18551
 C5 C 0.26624 0.16983 0.22291
 C6 C 0.22046 0.16921 0.26057
 C7 C 0.13760 0.19485 0.29633
 N8 N 0.15240 0.14918 0.32010
 C9 C 0.20321 0.13316 0.29833
 C10 C 0.30866 0.13383 0.20810
 N11 N 0.33654 0.15105 0.16248
 C12 C 0.31299 0.19746 0.14919
 C13 C 0.21761 0.28597 0.14607
 N14 N 0.16773 0.30962 0.15866
 C15 C 0.14578 0.28690 0.20433
 H16 H 0.09842 0.21615 0.30393
 H17 H 0.22539 0.09717 0.30722
 H18 H 0.31538 0.09630 0.22649
 H19 H 0.32412 0.21914 0.11289
 H20 H 0.24325 0.29366 0.10984
 H21 H 0.10439 0.29507 0.22161
 C22 C -0.20027 0.80545 0.26825
 C23 C -0.19371 0.75759 0.23819
 C24 C -0.22791 0.74652 0.19381
 C25 C -0.26766 0.78375 0.17790
 C26 C -0.27165 0.83176 0.20605
 C27 C -0.23868 0.84244 0.25161
 C28 C -0.16844 0.82953 0.30781
 N29 N -0.18675 0.88027 0.31489
 C30 C -0.22922 0.88849 0.28014
 C31 C -0.30225 0.86466 0.17464
 N32 N -0.31756 0.83793 0.12790
 C33 C -0.29791 0.78791 0.13005
 C34 C -0.20426 0.70440 0.16423
 N35 N -0.15621 0.69028 0.18871
 C36 C -0.14951 0.72222 0.23408
 H37 H -0.13222 0.81221 0.32662
 H38 H -0.25034 0.92585 0.27453
 H39 H -0.31123 0.90569 0.18456
 H40 H -0.30082 0.75841 0.09684
 H41 H -0.21717 0.68981 0.12383
 H42 H -0.11231 0.72327 0.25845
 C43 C -0.18776 0.22814 -0.24321
 C44 C -0.18433 0.26586 -0.19921
 C45 C -0.22705 0.27149 -0.15936
 C46 C -0.27381 0.24029 -0.16318
 C47 C -0.27834 0.20580 -0.20821
 C48 C -0.23551 0.20000 -0.24844
 C49 C -0.14942 0.20624 -0.28203
 N50 N -0.17374 0.16645 -0.31073
 C51 C -0.22652 0.16333 -0.29099
 C52 C -0.32238 0.17479 -0.19743
 N53 N -0.34434 0.18842 -0.14595
 C54 C -0.31536 0.22918 -0.12519
 C55 C -0.21050 0.30663 -0.11885
 N56 N -0.15982 0.32384 -0.13358
 C57 C -0.14298 0.29865 -0.18230
 H58 H -0.10683 0.21746 -0.28754
 H59 H -0.25501 0.13355 -0.30368
 H60 H -0.33278 0.14109 -0.22301
 H61 H -0.32063 0.24619 -0.08333
 H62 H -0.23324 0.31817 -0.08069
 H63 H -0.10282 0.30221 -0.20267
 C64 C 0.16397 0.79930 -0.23624
 C65 C 0.15340 0.76313 -0.19460
 C66 C 0.19192 0.75514 -0.15320
 C67 C 0.24073 0.78342 -0.15235
 C68 C 0.25178 0.81639 -0.19494
 C69 C 0.21333 0.82509 -0.23596
 C70 C 0.13166 0.82277 -0.27595
 N71 N 0.16047 0.86274 -0.29763
 C72 C 0.21035 0.86384 -0.27345
 C73 C 0.29734 0.84361 -0.18162
 N74 N 0.31399 0.82984 -0.13047
 C75 C 0.27952 0.79294 -0.11189
 C76 C 0.17000 0.72070 -0.11683
 N77 N 0.11932 0.70735 -0.13485
 C78 C 0.10815 0.73386 -0.18153
 H79 H 0.08884 0.81447 -0.28423
 H80 H 0.24103 0.89308 -0.28013
 H81 H 0.31266 0.87585 -0.20477
 H82 H 0.28038 0.77683 -0.07083
 H83 H 0.18886 0.70739 -0.07916
 H84 H 0.06985 0.73206 -0.20408
 C85 C 0.22437 1.17882 0.71692
 C86 C 0.26365 1.17683 0.76001
 C87 C 0.26142 1.21546 0.80241
 C88 C 0.22061 1.25590 0.80301
 C89 C 0.18252 1.25731 0.76116
 C90 C 0.18453 1.21915 0.71815
 C91 C 0.20967 1.14404 0.67428
 N92 N 0.16187 1.16261 0.65113
 C93 C 0.14684 1.20842 0.67790
 C94 C 0.14203 1.29422 0.77670
 N95 N 0.15425 1.31565 0.82715
 C96 C 0.20281 1.29291 0.84354
 C97 C 0.29787 1.20055 0.84240
 N98 N 0.32303 1.15424 0.82613
 C99 C 0.30247 1.13910 0.77578
 H100 H 0.22967 1.10628 0.66450
 H101 H 0.10893 1.23091 0.67094
 H102 H 0.10417 1.30225 0.75464
 H103 H 0.22119 1.29892 0.88387
 H104 H 0.30317 1.22046 0.88241
 H105 H 0.31167 1.10179 0.75438
 C106 C 0.83805 0.82405 0.77129
 C107 C 0.79546 0.82268 0.81141
 C108 C 0.78912 0.77907 0.84280
 C109 C 0.82702 0.73604 0.83433
 C110 C 0.87000 0.73821 0.79494
 C111 C 0.87571 0.78273 0.76327
 C112 C 0.85224 0.86172 0.73539
 N113 N 0.89814 0.84469 0.70500
 C114 C 0.91356 0.79663 0.72266
 C115 C 0.90219 0.69322 0.79788
 N116 N 0.88083 0.66361 0.83835
 C117 C 0.83436 0.68932 0.86057
 C118 C 0.74363 0.79015 0.87838
 N119 N 0.72387 0.83950 0.86937
 C120 C 0.75530 0.85929 0.82823
 H121 H 0.83110 0.89947 0.73332
 H122 H 0.94881 0.77309 0.70630
 H123 H 0.94029 0.68398 0.77420
 H124 H 0.80907 0.67687 0.89508
 H125 H 0.72651 0.76452 0.90873
 H126 H 0.74882 0.89744 0.81105
 C127 C 0.19208 0.83791 1.22136
 C128 C 0.23290 0.83521 1.17917
 C129 C 0.24288 0.78964 1.14750
 C130 C 0.21081 0.74601 1.15779
 C131 C 0.17032 0.74850 1.20019
 C132 C 0.16110 0.79501 1.23273
 C133 C 0.17110 0.87934 1.25358
 N134 N 0.12848 0.86316 1.28554
 C135 C 0.12171 0.81138 1.27332
 C136 C 0.14014 0.70392 1.19447
 N137 N 0.16086 0.67491 1.14961
 C138 C 0.20411 0.70027 1.12730
 C139 C 0.28116 0.80086 1.10597
 N140 N 0.29371 0.85200 1.11258
 C141 C 0.26408 0.87321 1.15673
 H142 H 0.18540 0.91899 1.25323
 H143 H 0.08939 0.78799 1.29050
 H144 H 0.10238 0.69622 1.21756
 H145 H 0.22579 0.68863 1.08856
 H146 H 0.29625 0.77487 1.07197
 H147 H 0.26380 0.91404 1.17021
 C148 C 0.78253 1.16649 1.23844
 C149 C 0.73732 1.16694 1.20141
 C150 C 0.74073 1.19592 1.15365
 C151 C 0.78856 1.22284 1.14094
 C152 C 0.83220 1.22154 1.17675
 C153 C 0.82917 1.19399 1.22522
 C154 C 0.79421 1.14293 1.28834
 N155 N 0.84651 1.15597 1.30399
 C156 C 0.86755 1.18709 1.26529
 C157 C 0.87268 1.25174 1.15600
 N158 N 0.85468 1.27163 1.10810
 C159 C 0.80337 1.25412 1.09782
 C160 C 0.69335 1.18930 1.12448
 N161 N 0.66080 1.15605 1.15162
 C162 C 0.68701 1.14201 1.19901
 H163 H 0.76729 1.11714 1.31013
 H164 H 0.90868 1.20293 1.26572
 H165 H 0.91158 1.26057 1.17535
 H166 H 0.77794 1.26545 1.06341
 H167 H 0.68455 1.20520 1.08431
 H168 H 0.67181 1.11455 1.22844
 O169 O 0.57702 0.93315 0.90751
 O170 O 0.46736 0.90865 1.04749
 O171 O 0.61935 0.98583 1.04066
 O172 O 0.40041 0.95537 0.93703
 O173 O 0.56559 0.92154 1.04502
 O174 O 0.47350 0.92353 0.88833
 O175 O 0.39662 0.95833 1.03949
 O176 O 0.62722 0.99431 0.94167
 C177 C 0.62347 0.94886 0.92052
 C178 C 0.41636 0.91390 1.04763
 C179 C 0.61273 0.93862 1.04874
 C180 C 0.42341 0.92219 0.90272
 O181 O 0.46276 1.02290 0.87049
 O182 O 0.55042 1.01243 1.10653
 O183 O 0.56662 1.08555 0.95084
 O184 O 0.41966 1.05838 1.04357
 O185 O 0.45109 1.00419 1.10371
 O186 O 0.56432 1.03336 0.87924
 O187 O 0.40860 1.05784 0.93736
 O188 O 0.55365 1.07420 1.05031
 Co189 Co 0.51891 0.97973 0.89629
 Co190 Co 0.50829 0.96469 1.06831
 Co191 Co 0.58466 1.03184 0.99539
 Co192 Co 0.41614 1.00668 0.98955
 O193 O 0.50658 0.99596 0.98669
 C194 C 0.42371 1.05433 0.88703
 C195 C 0.55946 1.05930 1.09841
 C196 C 0.57128 1.07832 0.89961
 C197 C 0.42624 1.04669 1.09312
 O198 O 0.02946 0.44202 0.13005
 O199 O 0.07358 0.54990 -0.04357
 O200 O 0.04693 0.36966 -0.03771
 O201 O 0.05761 0.57827 0.05811
 O202 O 0.08485 0.44743 -0.04898
 O203 O 0.02289 0.54368 0.13343
 O204 O 0.01936 0.62061 -0.02292
 O205 O 0.07127 0.40754 0.05372
 C206 C 0.06711 0.41241 0.10654
 C207 C 0.06223 0.59881 -0.05062
 C208 C 0.08495 0.39784 -0.06076
 C209 C 0.05755 0.57320 0.11024
 O210 O -0.08478 0.53562 0.10435
 O211 O -0.01517 0.44564 -0.09637
 O212 O -0.02711 0.37723 0.05848
 O213 O -0.07140 0.56882 -0.01571
 O214 O -0.02653 0.54115 -0.08852
 O215 O -0.07601 0.43998 0.10231
 O216 O -0.04326 0.60301 0.07550
 O217 O -0.05324 0.40828 -0.02947
 Co218 Co -0.02507 0.49075 0.11009
 Co219 Co 0.02676 0.49559 -0.06124
 Co220 Co 0.00986 0.41504 0.00870
 Co221 Co -0.00550 0.56856 0.01787
 O222 O -0.00442 0.49157 0.02422
 C223 C -0.08236 0.58388 0.10208
 C224 C -0.05200 0.41663 -0.07945
 C225 C -0.06831 0.39272 0.08818
 C226 C -0.06893 0.56408 -0.06680
 O227 O 1.10167 0.00570 0.43049
 O228 O 0.90122 0.07449 0.55689
 O229 O 0.94542 0.08448 0.42267
 O230 O 1.04982 0.06788 0.57232
 O231 O 0.87385 0.05210 0.45738
 O232 O 1.11308 0.02159 0.53084
 O233 O 0.96146 0.04762 0.61800
 O234 O 1.04251 0.06746 0.41941
 C235 C 1.09082 0.05032 0.41327
 C236 C 0.92353 0.07938 0.60370
 C237 C 0.89433 0.08356 0.42611
 C238 C 1.09943 0.06182 0.55920
 O239 O 1.06628 -0.06920 0.55292
 O240 O 0.88061 -0.04413 0.47179
 O241 O 1.02676 -0.03361 0.38416
 O242 O 0.97532 -0.05311 0.59227
 O243 O 0.89371 -0.02362 0.57632
 O244 O 1.04784 -0.08251 0.45212
 O245 O 1.05858 -0.01652 0.62876
 O246 O 0.92656 -0.01889 0.39625
 Co247 Co 1.07365 -0.02737 0.49195
 Co248 Co 0.89771 0.01407 0.51433
 Co249 Co 0.98594 0.02349 0.41258
 Co250 Co 1.01274 0.00721 0.57622
 O251 O 0.98871 0.00755 0.49687
 C252 C 1.07912 -0.06011 0.60389
 C253 C 0.89337 -0.04919 0.42049
 C254 C 1.04141 -0.07760 0.40138
 C255 C 0.92456 -0.05458 0.60029
 C256 C 1.11854 0.12425 0.35638
 C257 C 1.13198 0.07855 0.37973
 H258 H 1.07773 0.14190 0.36592
 H259 H 1.17244 0.05984 0.37220
 C260 C 0.83504 -0.08139 0.34721
 C261 C 0.86982 -0.09158 0.38800
 H262 H 0.82211 -0.04105 0.34103
 H263 H 0.87926 -0.13114 0.39987
 C264 C 0.84882 0.13182 0.64998
 C265 C 0.90345 0.12160 0.64319
 H266 H 0.82086 0.10748 0.62654
 H267 H 0.93283 0.14004 0.67034
 C268 C 1.14288 -0.09951 0.66791
 C269 C 1.09770 -0.10335 0.63766
 H270 H 1.16758 -0.06512 0.66367
 H271 H 1.07480 -0.13895 0.63591
 C272 C 0.37512 1.12523 1.12848
 C273 C 0.39705 1.07788 1.13824
 H274 H 0.38630 1.14286 1.08951
 H275 H 0.38996 1.05984 1.17769
 C276 C 0.35211 0.85560 0.89984
 C277 C 0.39034 0.88362 0.87432
 H278 H 0.35081 0.85424 0.94493
 H279 H 0.39760 0.87894 0.82971
 C280 C 0.65369 0.85847 1.08561
 C281 C 0.65616 0.90934 1.07603
 H282 H 0.62819 0.83358 1.06006
 H283 H 0.68786 0.93239 1.09532
 C284 C 0.61927 1.16069 0.88476
 C285 C 0.59467 1.11805 0.86396
 H286 H 0.61363 1.17097 0.92882
 H287 H 0.59761 1.10778 0.81992
 C288 C 0.14027 0.34546 0.12286
 C289 C 0.10296 0.38143 0.14275
 H290 H 0.14998 0.34254 0.07850
 H291 H 0.09508 0.38535 0.18735
 C292 C -0.12810 0.35762 -0.09840
 C293 C -0.08819 0.38790 -0.11799
 H294 H -0.13744 0.35847 -0.05395
 H295 H -0.08017 0.38950 -0.16245
 C296 C 0.08197 0.67385 -0.10711
 C297 C 0.10046 0.63129 -0.08149
 H298 H 0.03773 0.68267 -0.10843
 H299 H 0.14402 0.61952 -0.08445
 C300 C -0.11350 0.65664 0.16357
 C301 C -0.12585 0.61696 0.12927
 H302 H -0.07052 0.66364 0.17293
 H303 H -0.16859 0.60650 0.12393
 C304 C 1.12790 0.13840 0.61434
 C305 C 1.14204 0.09441 0.58495
 H306 H 1.08613 0.15471 0.61018
 H307 H 1.18433 0.07882 0.58458
 C308 C 0.92439 -0.12898 0.66425
 C309 C 0.89899 -0.08848 0.64050
 H310 H 0.96560 -0.14203 0.64961
 H311 H 0.85579 -0.07887 0.65033
 C312 C 1.09892 -0.10354 0.32125
 C313 C 1.06372 -0.11831 0.36130
 H314 H 1.10760 -0.06224 0.31974
 H315 H 1.05786 -0.15912 0.36902
 C316 C 0.87745 0.13941 0.34712
 C317 C 0.85753 0.11099 0.38787
 H318 H 0.92109 0.14858 0.34750
 H319 H 0.81379 0.10292 0.39021
 C320 C 0.11807 0.34805 -0.14267
 C321 C 0.13003 0.37154 -0.09397
 H322 H 0.07665 0.35448 -0.15851
 H323 H 0.17144 0.37020 -0.07763
 C324 C -0.11777 0.31155 0.08003
 C325 C -0.10705 0.35537 0.10867
 H326 H -0.10239 0.30430 0.03758
 H327 H -0.12586 0.36290 0.14977
 C328 C -0.09213 0.62004 -0.14339
 C329 C -0.10912 0.59441 -0.09877
 H330 H -0.05179 0.60911 -0.16214
 H331 H -0.14848 0.60473 -0.07812
 C332 C 0.13406 0.63305 0.12065
 C333 C 0.09463 0.60502 0.14449
 H334 H 0.14373 0.62669 0.07652
 H335 H 0.08615 0.60897 0.18894
 C336 C 0.35652 1.12418 0.86318
 C337 C 0.39389 1.08653 0.84615
 H338 H 0.35152 1.13352 0.90748
 H339 H 0.40162 1.07837 0.80202
 C340 C 0.32621 0.88260 1.07644
 C341 C 0.38046 0.87236 1.06705
 H342 H 0.30855 0.92034 1.06595
 H343 H 0.39931 0.83614 1.08049
 C344 C 0.61216 1.13554 1.12624
 C345 C 0.59038 1.09027 1.13985
 H346 H 0.59864 1.15328 1.08830
 H347 H 0.60367 1.07114 1.17693
 C348 C 0.67584 0.86589 0.89539
 C349 C 0.67427 0.91800 0.90414
 H350 H 0.64010 0.84344 0.90619
 H351 H 0.71173 0.93935 0.89746
   
