data_POSCAR
  _audit_creation_date              2014-09-24
  _audit_creation_method            'ToBaCCo'
  _symmetry_space_group_name_H-M    'P1'
  _symmetry_Int_Tables_number       1
  _symmetry_cell_setting            triclinic
  loop_
  _symmetry_equiv_pos_as_xyz
 x,y,z
_cell_length_a 14.8839
_cell_length_b 15.1829
_cell_length_c 15.3652
_cell_angle_alpha 91.320400
_cell_angle_beta 91.327200
_cell_angle_gamma 90.809400
loop_
  _atom_site_label
  _atom_site_type_symbol
  _atom_site_fract_x
  _atom_site_fract_y
  _atom_site_fract_z
O1 O 0.53827 0.19605 0.04546
 O2 O 0.45775 -0.01384 -0.18219
 O3 O 0.66142 0.04997 -0.09125
 O4 O 0.35307 0.12567 -0.03684
 O5 O 0.60824 -0.06894 -0.14827
 O6 O 0.38883 0.16709 0.09061
 O7 O 0.33294 -0.00753 -0.11727
 O8 O 0.66312 0.12849 0.04333
 C9 C 0.61935 0.19656 0.03112
 C10 C 0.37692 0.00458 -0.18420
 C11 C 0.66096 -0.00490 -0.15170
 C12 C 0.35645 0.18524 0.01851
 O13 O 0.44909 0.03255 0.18900
 O14 O 0.54130 -0.17730 -0.03170
 O15 O 0.64266 -0.02735 0.12887
 O16 O 0.34197 -0.09931 0.03408
 O17 O 0.39008 -0.14683 -0.08658
 O18 O 0.59863 0.09580 0.17515
 O19 O 0.32651 0.03104 0.11493
 O20 O 0.66386 -0.10384 -0.00527
 Co21 Co 0.49388 0.11060 0.11271
 Co22 Co 0.49867 -0.08974 -0.09994
 Co23 Co 0.64268 0.01184 0.01836
 Co24 Co 0.35374 0.01291 -0.00044
 O25 O 0.49765 0.01096 0.00722
 C26 C 0.36735 0.01693 0.18512
 C27 C 0.62216 -0.17563 -0.00974
 C28 C 0.64172 0.02815 0.18822
 C29 C 0.34568 -0.15970 -0.02030
 O30 O -0.19850 0.45572 -0.04113
 O31 O 0.02269 0.55538 0.17610
 O32 O -0.05061 0.34997 0.10039
 O33 O -0.12481 0.64666 0.03294
 O34 O 0.07201 0.40454 0.15335
 O35 O -0.17601 0.59943 -0.08933
 O36 O 0.01902 0.67182 0.10247
 O37 O -0.12835 0.33523 -0.03696
 C38 C -0.19812 0.37697 -0.02490
 C39 C 0.00637 0.63481 0.17212
 C40 C 0.00682 0.35255 0.15972
 C41 C -0.18883 0.63924 -0.01911
 O42 O -0.03743 0.54127 -0.19191
 O43 O 0.18193 0.45794 0.02675
 O44 O 0.03113 0.35152 -0.11859
 O45 O 0.09985 0.65284 -0.05109
 O46 O 0.15655 0.60934 0.06873
 O47 O -0.09315 0.39332 -0.17098
 O48 O -0.04159 0.66301 -0.12252
 O49 O 0.10551 0.33793 0.01742
 Co50 Co -0.11390 0.49802 -0.11193
 Co51 Co 0.09602 0.50665 0.09484
 Co52 Co -0.01086 0.35891 -0.00976
 Co53 Co -0.01221 0.64332 -0.00945
 O54 O -0.01000 0.50146 -0.00868
 C55 C -0.02320 0.62156 -0.19002
 C56 C 0.17835 0.37758 0.01155
 C57 C -0.02385 0.34939 -0.17919
 C58 C 0.16436 0.65180 0.00056
 O59 O -0.05252 -0.19162 0.43667
 O60 O 0.17483 0.09789 0.58803
 O61 O 0.12335 -0.05119 0.36887
 O62 O 0.06690 -0.15378 0.62968
 O63 O 0.18067 0.06530 0.42785
 O64 O -0.07017 -0.18319 0.59795
 O65 O 0.16660 -0.03765 0.60566
 O66 O -0.02998 -0.10309 0.32898
 C67 C -0.03663 -0.17973 0.35823
 C68 C 0.21046 0.03038 0.61652
 C69 C 0.18906 -0.00110 0.37937
 C70 C 0.00252 -0.20563 0.63049
 O71 O -0.17222 -0.05036 0.58903
 O72 O 0.02370 0.15064 0.40490
 O73 O -0.09900 0.04775 0.37742
 O74 O 0.04470 0.08199 0.67508
 O75 O 0.01168 0.16273 0.56412
 O76 O -0.17073 -0.06593 0.42192
 O77 O -0.06233 -0.03912 0.68866
 O78 O 0.03245 0.06443 0.28728
 Co79 Co -0.10432 -0.11225 0.51043
 Co80 Co 0.09026 0.10559 0.49724
 Co81 Co 0.01375 -0.00112 0.38189
 Co82 Co 0.05167 -0.03499 0.63940
 O83 O 0.01073 -0.01795 0.51129
 C84 C -0.14526 -0.03384 0.66610
 C85 C 0.03351 0.14454 0.32240
 C86 C -0.16864 0.00190 0.37807
 C87 C 0.01374 0.15192 0.64408
 C88 C -0.33236 0.27443 0.01151
 C89 C -0.27703 0.32906 -0.00472
 C90 C 0.29209 0.77214 -0.01491
 C91 C 0.23708 0.71365 -0.00877
 C92 C 0.30755 0.26439 0.00743
 C93 C 0.25552 0.32394 0.00533
 C94 C -0.32472 0.74679 -0.00588
 C95 C -0.26676 0.69238 -0.00869
 C96 C -0.01273 -0.31067 0.24632
 C97 C -0.02540 -0.25396 0.30051
 C98 C -0.01578 0.28400 0.75307
 C99 C -0.00531 0.22445 0.70145
 C100 C 0.01168 0.28248 0.22141
 C101 C 0.02103 0.22032 0.26857
 C102 C -0.00554 -0.33379 0.74124
 C103 C 0.00379 -0.28029 0.68551
 C104 C 0.33340 0.02174 0.74305
 C105 C 0.28289 0.03134 0.68098
 C106 C -0.29729 0.02302 0.26102
 C107 C -0.24073 0.01703 0.31761
 C108 C 0.31603 0.00029 0.26195
 C109 C 0.26311 -0.00574 0.32038
 C110 C -0.26966 -0.00577 0.78416
 C111 C -0.21168 -0.01523 0.73082
   
