data_POSCAR
  _audit_creation_date              2014-09-24
  _audit_creation_method            'ToBaCCo'
  _symmetry_space_group_name_H-M    'P1'
  _symmetry_Int_Tables_number       1
  _symmetry_cell_setting            triclinic
  loop_
  _symmetry_equiv_pos_as_xyz
 x,y,z
_cell_length_a 45.5508
_cell_length_b 46.6544
_cell_length_c 43.4587
_cell_angle_alpha 93.435100
_cell_angle_beta 89.220300
_cell_angle_gamma 93.364500
loop_
  _atom_site_label
  _atom_site_type_symbol
  _atom_site_fract_x
  _atom_site_fract_y
  _atom_site_fract_z
C1 C 0.27126 0.44394 0.99496
 C2 C 0.24935 0.44165 1.02198
 C3 C 0.23108 0.46383 1.02545
 C4 C 0.23632 0.48639 1.00113
 C5 C 0.25149 0.44667 0.96693
 C6 C 0.23336 0.46893 0.97008
 C7 C 0.28709 0.47360 1.00034
 C8 C 0.26902 0.49562 1.00357
 H9 H 0.24872 0.42404 1.03713
 H10 H 0.22165 0.50456 1.00356
 H11 H 0.25063 0.43177 0.94693
 H12 H 0.31082 0.47689 1.00148
 C13 C 0.73243 0.55887 0.00559
 C14 C 0.75161 0.55499 0.03382
 C15 C 0.76897 0.53211 0.03065
 C16 C 0.76573 0.51516 -0.00066
 C17 C 0.75479 0.56072 -0.02114
 C18 C 0.77217 0.53786 -0.02452
 C19 C 0.71559 0.52980 -0.00047
 C20 C 0.73282 0.50712 -0.00376
 H21 H 0.75276 0.56977 0.05389
 H22 H 0.77948 0.49631 -0.00372
 H23 H 0.75737 0.57906 -0.03529
 H24 H 0.69184 0.52742 -0.00219
 C25 C 0.03793 0.22170 0.49814
 C26 C 0.03114 0.23572 0.47024
 C27 C 0.00572 0.25258 0.47281
 C28 C -0.00859 0.25160 0.50314
 C29 C 0.04021 0.24642 0.52326
 C30 C 0.01584 0.26221 0.52611
 C31 C 0.00986 0.20416 0.50620
 C32 C -0.01449 0.21954 0.50888
 H33 H 0.04722 0.23864 0.45200
 H34 H -0.02905 0.26325 0.50550
 H35 H 0.05965 0.25109 0.53712
 H36 H 0.00930 0.18120 0.50896
 C37 C 0.95738 0.77279 0.50045
 C38 C 0.95701 0.74827 0.47512
 C39 C 0.98234 0.73405 0.47311
 C40 C 1.00597 0.74566 0.49643
 C41 C 0.96499 0.75832 0.52980
 C42 C 0.99046 0.74409 0.52826
 C43 C 0.98476 0.79168 0.49302
 C44 C 1.01013 0.77785 0.49076
 H45 H 0.93846 0.74169 0.46064
 H46 H 1.02679 0.73464 0.49373
 H47 H 0.94966 0.75755 0.54897
 H48 H 0.98393 0.81450 0.48998
 C49 C 0.51887 0.05626 0.22013
 C50 C 0.49392 0.05690 0.24435
 C51 C 0.49080 0.03285 0.26076
 C52 C 0.51355 0.01055 0.25170
 C53 C 0.54620 0.05143 0.23914
 C54 C 0.54347 0.02750 0.25576
 C55 C 0.51318 0.02976 0.20162
 C56 C 0.51008 0.00438 0.21853
 H57 H 0.47997 0.07478 0.24803
 H58 H 0.51139 -0.00849 0.26569
 H59 H 0.56454 0.06714 0.24207
 H60 H 0.51377 0.02929 0.17667
 C61 C 0.48209 -0.05121 0.78243
 C62 C 0.45521 -0.05112 0.76148
 C63 C 0.45590 -0.02882 0.74250
 C64 C 0.48373 -0.00853 0.74614
 C65 C 0.50819 -0.05084 0.75954
 C66 C 0.50917 -0.02848 0.74069
 C67 C 0.48382 -0.02149 0.79936
 C68 C 0.48477 0.00070 0.78054
 H69 H 0.43767 -0.06780 0.76102
 H70 H 0.48452 0.00972 0.73087
 H71 H 0.52381 -0.06745 0.75742
 H72 H 0.48459 -0.01831 0.82425
 C73 C 0.30124 0.02055 0.46195
 H74 H 0.30032 0.03467 0.48258
 C75 C 0.32431 0.02424 0.44091
 H76 H 0.34119 0.04113 0.44584
 C77 C 0.28106 -0.01961 0.43181
 H78 H 0.26463 -0.03712 0.42868
 C79 C 0.30353 -0.01640 0.40983
 H80 H 0.30344 -0.03105 0.38955
 N81 N 0.28012 -0.00098 0.45706
 C82 C 0.20592 0.02872 0.51230
 H83 H 0.20293 0.01163 0.52801
 C84 C 0.18701 0.05128 0.51389
 H85 H 0.16936 0.05130 0.53084
 C86 C 0.23184 0.04868 0.47027
 H87 H 0.24908 0.04738 0.45300
 C88 C 0.21339 0.07160 0.47099
 H89 H 0.21698 0.08803 0.45455
 Zn90 Zn 0.25152 -0.00427 0.48886
 N91 N 0.22787 0.02787 0.49081
 C92 C 0.27084 0.01332 0.55004
 N93 N 0.27281 -0.00608 0.52556
 C94 C 0.29193 -0.02737 0.52535
 C95 C 0.30999 -0.02993 0.55049
 C96 C 0.28850 0.01148 0.57585
 C97 C 0.21094 -0.04243 0.45625
 C98 C 0.19098 -0.06619 0.45210
 C99 C 0.20182 -0.07942 0.50341
 C100 C 0.22219 -0.05588 0.50621
 N101 N 0.22631 -0.03788 0.48285
 H102 H 0.25587 0.03040 0.54947
 H103 H 0.29336 -0.04216 0.50531
 H104 H 0.32550 -0.04669 0.54946
 H105 H 0.28654 0.02691 0.59528
 H106 H 0.21399 -0.02740 0.43831
 H107 H 0.17957 -0.06956 0.43040
 H108 H 0.19805 -0.09247 0.52299
 H109 H 0.23385 -0.05141 0.52760
 C110 C 0.19054 0.07307 0.49296
 C111 C 0.32564 0.00576 0.41424
 C112 C 0.18567 -0.08487 0.47612
 C113 C 0.30844 -0.01039 0.57624
 C114 C 0.69723 0.01985 0.54289
 H115 H 0.69868 0.03710 0.52738
 C116 C 0.67393 0.01821 0.56413
 H117 H 0.65791 0.03449 0.56486
 C118 C 0.71456 -0.02369 0.55878
 H119 H 0.72939 -0.04079 0.55595
 C120 C 0.69191 -0.02598 0.58052
 H121 H 0.69073 -0.04420 0.59488
 N122 N 0.71716 -0.00082 0.54070
 C123 C 0.80155 0.03097 0.51643
 H124 H 0.80973 0.00971 0.51482
 C125 C 0.82158 0.05461 0.52008
 H126 H 0.84481 0.05110 0.52142
 C127 C 0.76195 0.06151 0.51504
 H128 H 0.73875 0.06418 0.51252
 C129 C 0.78139 0.08590 0.51825
 H130 H 0.77293 0.10713 0.51870
 Zn131 Zn 0.74653 0.00073 0.50902
 N132 N 0.77223 0.03461 0.51433
 C133 C 0.73092 0.02147 0.45134
 N134 N 0.72621 0.00039 0.47144
 C135 C 0.70491 -0.02096 0.46653
 C136 C 0.68658 -0.02117 0.44107
 C137 C 0.71297 0.02216 0.42559
 C138 C 0.78294 -0.03749 0.53585
 C139 C 0.80040 -0.06093 0.53708
 C140 C 0.79112 -0.07241 0.48305
 C141 C 0.77310 -0.04914 0.48309
 N142 N 0.76940 -0.03218 0.50925
 H143 H 0.74805 0.03819 0.45565
 H144 H 0.70169 -0.03744 0.48293
 H145 H 0.66954 -0.03822 0.43777
 H146 H 0.71626 0.03973 0.41050
 H147 H 0.78016 -0.02338 0.55622
 H148 H 0.81009 -0.06498 0.55887
 H149 H 0.79458 -0.08485 0.46163
 H150 H 0.76272 -0.04421 0.46198
 C151 C 0.81162 0.08251 0.52111
 C152 C 0.67097 -0.00505 0.58324
 C153 C 0.80517 -0.07861 0.51033
 C154 C 0.69005 0.00094 0.42054
 C155 C 0.50509 0.21643 1.01106
 H156 H 0.48789 0.21411 0.99401
 C157 C 0.50466 0.19809 1.03523
 H158 H 0.48716 0.18144 1.03641
 C159 C 0.54930 0.24042 1.02941
 H160 H 0.56691 0.25662 1.02683
 C161 C 0.54966 0.22259 1.05409
 H162 H 0.56727 0.22576 1.07064
 N163 N 0.52688 0.23740 1.00887
 C164 C 0.48655 0.30174 0.95751
 H165 H 0.50222 0.30386 0.93873
 C166 C 0.46181 0.31807 0.95894
 H167 H 0.45876 0.33304 0.94132
 C168 C 0.47204 0.28010 1.00371
 H169 H 0.47621 0.26550 1.02129
 C170 C 0.44699 0.29598 1.00602
 H171 H 0.43186 0.29299 1.02515
 Zn172 Zn 0.52468 0.26112 0.97529
 N173 N 0.49098 0.28292 0.97947
 C174 C 0.49656 0.23389 0.92286
 N175 N 0.52183 0.23626 0.93939
 C176 C 0.54381 0.21820 0.93320
 C177 C 0.54046 0.19610 0.91016
 C178 C 0.49223 0.21201 0.89978
 C179 C 0.56190 0.30601 0.99896
 C180 C 0.58554 0.32637 0.99983
 C181 C 0.59979 0.30874 0.94867
 C182 C 0.57611 0.28827 0.94902
 N183 N 0.55786 0.28724 0.97403
 H184 H 0.47904 0.24795 0.92859
 H185 H 0.56337 0.22015 0.94718
 H186 H 0.55760 0.18109 0.90650
 H187 H 0.47159 0.20983 0.88754
 H188 H 0.54662 0.30513 1.01820
 H189 H 0.58834 0.34129 1.01978
 H190 H 0.61406 0.30961 0.92857
 H191 H 0.57206 0.27359 0.92915
 C192 C 0.44152 0.31516 0.98335
 C193 C 0.52697 0.20124 1.05738
 C194 C 0.60474 0.32795 0.97442
 C195 C 0.51405 0.19237 0.89374
 C196 C 0.45626 0.76146 -0.02988
 H197 H 0.43935 0.74437 -0.02854
 C198 C 0.45595 0.78000 -0.05396
 H199 H 0.43909 0.77658 -0.07134
 C200 C 0.49849 0.78710 -0.00880
 H201 H 0.51480 0.78988 0.00917
 C202 C 0.49901 0.80607 -0.03239
 H203 H 0.51572 0.82357 -0.03230
 N204 N 0.47761 0.76510 -0.00817
 C205 C 0.42761 0.71280 0.04925
 H206 H 0.43037 0.72772 0.06911
 C207 C 0.40420 0.69204 0.04858
 H208 H 0.38887 0.69137 0.06782
 C209 C 0.44453 0.69487 0.00040
 H210 H 0.46064 0.69594 -0.01808
 C211 C 0.42131 0.67399 -0.00137
 H212 H 0.41978 0.65882 -0.02122
 Zn213 Zn 0.47915 0.74158 0.02565
 N214 N 0.44702 0.71400 0.02522
 C215 C 0.45432 0.78324 0.06390
 N216 N 0.47805 0.76692 0.06107
 C217 C 0.50153 0.77186 0.08008
 C218 C 0.50223 0.79496 0.10217
 C219 C 0.45401 0.80633 0.08573
 C220 C 0.53359 0.72513 -0.00016
 C221 C 0.55907 0.70991 -0.00209
 C222 C 0.54427 0.68757 0.04484
 C223 C 0.51914 0.70341 0.04599
 N224 N 0.51432 0.72181 0.02373
 H225 H 0.43620 0.77913 0.04810
 H226 H 0.52047 0.75905 0.07690
 H227 H 0.52179 0.79968 0.11587
 H228 H 0.43522 0.81955 0.08701
 H229 H 0.52916 0.73936 -0.01801
 H230 H 0.57427 0.71321 -0.02109
 H231 H 0.54736 0.67260 0.06244
 H232 H 0.50322 0.70084 0.06447
 C233 C 0.40079 0.67241 0.02294
 C234 C 0.47764 0.80256 -0.05548
 C235 C 0.56465 0.69067 0.02050
 C236 C 0.47863 0.81309 0.10444
 C237 C 1.02704 0.45696 0.20935
 H238 H 1.00814 0.44184 0.20727
 C239 C 1.05018 0.45502 0.18815
 H240 H 1.04868 0.43840 0.16967
 C241 C 1.05077 0.49799 0.23505
 H242 H 1.05062 0.51507 0.25293
 C243 C 1.07459 0.49669 0.21444
 H244 H 1.09289 0.51246 0.21726
 N245 N 1.02769 0.47816 0.23222
 C246 C 0.96541 0.44330 0.29986
 H247 H 0.94848 0.45863 0.30027
 C248 C 0.96304 0.42034 0.31922
 H249 H 0.94387 0.41790 0.33402
 C250 C 1.01116 0.42822 0.28034
 H251 H 1.03028 0.43175 0.26580
 C252 C 1.00979 0.40515 0.29943
 H253 H 1.02805 0.39131 0.29926
 Zn254 Zn 0.99335 0.47965 0.25721
 N255 N 0.98918 0.44676 0.28088
 C256 C 0.93759 0.46326 0.22825
 N257 N 0.96190 0.48168 0.22957
 C258 C 0.96559 0.50335 0.21008
 C259 C 0.94399 0.50786 0.18887
 C260 C 0.91526 0.46704 0.20724
 C261 C 1.01671 0.51716 0.30570
 C262 C 1.01787 0.54155 0.32612
 C263 C 0.97313 0.55597 0.30390
 C264 C 0.97294 0.53149 0.28385
 N265 N 0.99474 0.51286 0.28474
 H266 H 0.93534 0.44584 0.24357
 H267 H 0.98537 0.51737 0.21132
 H268 H 0.94749 0.52528 0.17360
 H269 H 0.89571 0.45267 0.20687
 H270 H 1.03348 0.50172 0.30639
 H271 H 1.03589 0.54493 0.34215
 H272 H 0.95526 0.57020 0.30300
 H273 H 0.95505 0.52727 0.26788
 C274 C 0.98557 0.40098 0.31938
 C275 C 1.07443 0.47505 0.19046
 C276 C 0.99592 0.56146 0.32525
 C277 C 0.91820 0.48987 0.18750
 C278 C -0.02813 0.49706 0.78944
 H279 H -0.01370 0.47941 0.78823
 C280 C -0.05089 0.49773 0.81131
 H281 H -0.05422 0.48011 0.82634
 C282 C -0.04088 0.54162 0.77160
 H283 H -0.03645 0.55913 0.75675
 C284 C -0.06380 0.54322 0.79319
 H285 H -0.07674 0.56200 0.79453
 N286 N -0.02373 0.51865 0.76990
 C287 C 0.02498 0.48517 0.68972
 H288 H 0.04068 0.50328 0.68756
 C289 C 0.02509 0.46182 0.66812
 H290 H 0.04069 0.46250 0.64913
 C291 C -0.01476 0.46296 0.71684
 H292 H -0.03034 0.46349 0.73576
 C293 C -0.01514 0.43891 0.69596
 H294 H -0.03074 0.42100 0.69958
 Zn295 Zn 0.00904 0.51750 0.74244
 N296 N 0.00557 0.48519 0.71375
 C297 C 0.06090 0.49315 0.76148
 N298 N 0.04279 0.51509 0.76689
 C299 C 0.04669 0.53411 0.79165
 C300 C 0.06901 0.53093 0.81272
 C301 C 0.08364 0.48934 0.78176
 C302 C -0.01062 0.55470 0.70036
 C303 C -0.00966 0.57820 0.68192
 C304 C 0.03853 0.59270 0.70199
 C305 C 0.03646 0.56910 0.72049
 N306 N 0.01205 0.55077 0.71942
 H307 H 0.05730 0.47806 0.74189
 H308 H 0.03169 0.55112 0.79564
 H309 H 0.07092 0.54558 0.83296
 H310 H 0.09771 0.47165 0.77704
 H311 H -0.02949 0.53948 0.69953
 H312 H -0.02790 0.58122 0.66694
 H313 H 0.05804 0.60714 0.70277
 H314 H 0.05446 0.56523 0.73535
 C315 C 0.00523 0.43795 0.67135
 C316 C -0.06907 0.52110 0.81348
 C317 C 0.01517 0.59737 0.68262
 C318 C 0.08756 0.50796 0.80821
 C319 C 0.10751 0.16191 0.49520
 C320 C 0.09619 0.17007 0.46738
 C321 C 0.07440 0.19017 0.46809
 C322 C 0.06411 0.20256 0.49645
 C323 C 0.07577 0.19375 0.52410
 C324 C 0.09750 0.17365 0.52362
 C325 C 0.12949 0.13985 0.49461
 C326 C 0.14011 0.13103 0.52250
 C327 C 0.16041 0.10951 0.52183
 C328 C 0.16999 0.09671 0.49353
 C329 C 0.15926 0.10605 0.46577
 C330 C 0.13892 0.12752 0.46618
 C331 C 0.10891 0.16454 0.55105
 C332 C 0.12990 0.14363 0.55050
 C333 C 0.10636 0.15740 0.43936
 C334 C 0.12740 0.13655 0.43878
 H335 H 0.10136 0.17346 0.57315
 H336 H 0.13794 0.13706 0.57219
 H337 H 0.09781 0.16350 0.41770
 H338 H 0.13449 0.12720 0.41669
 H339 H 0.06484 0.19514 0.44654
 H340 H 0.06725 0.20189 0.54612
 H341 H 0.16875 0.10271 0.54330
 H342 H 0.16612 0.09606 0.44389
 C343 C 0.66520 0.62089 0.01183
 C344 C 0.67401 0.60916 -0.01707
 C345 C 0.69693 0.59033 -0.01881
 C346 C 0.71112 0.58297 0.00808
 C347 C 0.70182 0.59513 0.03693
 C348 C 0.67911 0.61421 0.03887
 C349 C 0.64011 0.63954 0.01396
 C350 C 0.63078 0.65063 0.04298
 C351 C 0.60643 0.66773 0.04497
 C352 C 0.59115 0.67346 0.01822
 C353 C 0.60097 0.66221 -0.01073
 C354 C 0.62543 0.64528 -0.01298
 C355 C 0.66938 0.62600 0.06747
 C356 C 0.64572 0.64401 0.06948
 C357 C 0.65907 0.61579 -0.04359
 C358 C 0.63519 0.63353 -0.04158
 H359 H 0.67997 0.62105 0.08853
 H360 H 0.63878 0.65246 0.09201
 H361 H 0.66566 0.60687 -0.06606
 H362 H 0.62407 0.63783 -0.06255
 H363 H 0.70296 0.58041 -0.04101
 H364 H 0.71097 0.58896 0.05817
 H365 H 0.59938 0.67656 0.06731
 H366 H 0.58915 0.66600 -0.03143
 C367 C 0.88722 -0.16851 0.50940
 C368 C 0.88380 -0.19229 0.48812
 C369 C 0.90564 -0.21244 0.48577
 C370 C 0.93076 -0.20889 0.50469
 C371 C 0.93269 -0.18564 0.52707
 C372 C 0.91146 -0.16515 0.52907
 C373 C 0.86556 -0.14617 0.51039
 C374 C 0.86996 -0.12169 0.53052
 C375 C 0.85020 -0.09984 0.53032
 C376 C 0.82561 -0.10246 0.51072
 C377 C 0.82120 -0.12761 0.49116
 C378 C 0.84135 -0.14932 0.49061
 C379 C 0.91465 -0.14076 0.54957
 C380 C 0.89435 -0.11928 0.55013
 C381 C 0.85904 -0.19492 0.46896
 C382 C 0.83809 -0.17391 0.47032
 H383 H 0.93334 -0.13794 0.56484
 H384 H 0.89789 -0.10054 0.56589
 H385 H 0.85599 -0.21321 0.45252
 H386 H 0.81948 -0.17667 0.45495
 H387 H 0.90310 -0.23009 0.46865
 H388 H 0.95175 -0.18272 0.54187
 H389 H 0.85454 -0.08048 0.54495
 H390 H 0.80223 -0.13033 0.47630
 C391 C 0.34019 0.38373 0.99022
 C392 C 0.32557 0.38890 0.96307
 C393 C 0.30236 0.40743 0.96450
 C394 C 0.29345 0.42063 0.99296
 C395 C 0.30845 0.41488 1.01995
 C396 C 0.33172 0.39650 1.01874
 C397 C 0.36560 0.36548 0.98859
 C398 C 0.38079 0.36107 1.01564
 C399 C 0.40543 0.34437 1.01385
 C400 C 0.41496 0.33219 0.98524
 C401 C 0.39925 0.33665 0.95838
 C402 C 0.37463 0.35338 0.95991
 C403 C 0.34722 0.39129 1.04539
 C404 C 0.37133 0.37384 1.04387
 C405 C 0.33504 0.37610 0.93483
 C406 C 0.35909 0.35857 0.93330
 H407 H 0.34086 0.40103 1.06755
 H408 H 0.38285 0.37058 1.06491
 H409 H 0.32393 0.37989 0.91369
 H410 H 0.36581 0.34931 0.91103
 H411 H 0.29243 0.41228 0.94316
 H412 H 0.30266 0.42561 1.04182
 H413 H 0.41758 0.34143 1.03458
 H414 H 0.40614 0.32706 0.93632
 C415 C 0.90508 0.17066 0.52337
 C416 C 0.90625 0.19115 0.50087
 C417 C 0.93201 0.20895 0.49764
 C418 C 0.95649 0.20564 0.51623
 C419 C 0.95437 0.18600 0.53961
 C420 C 0.92882 0.16832 0.54316
 C421 C 0.87933 0.15005 0.52498
 C422 C 0.87907 0.12860 0.54633
 C423 C 0.85586 0.10755 0.54603
 C424 C 0.83319 0.10754 0.52433
 C425 C 0.83302 0.12995 0.50398
 C426 C 0.85628 0.15116 0.50401
 C427 C 0.92716 0.14734 0.56508
 C428 C 0.90268 0.12781 0.56665
 C429 C 0.88225 0.19231 0.48107
 C430 C 0.85770 0.17267 0.48261
 H431 H 0.94530 0.14547 0.58056
 H432 H 0.90261 0.11144 0.58332
 H433 H 0.88277 0.20804 0.46369
 H434 H 0.84004 0.17386 0.46638
 H435 H 0.93372 0.22392 0.47947
 H436 H 0.97317 0.18360 0.55408
 H437 H 0.85592 0.09052 0.56195
 H438 H 0.81574 0.12993 0.48708
 C439 C 0.31475 0.57712 0.01602
 C440 C 0.30031 0.56972 -0.01199
 C441 C 0.28302 0.54383 -0.01514
 C442 C 0.28083 0.52535 0.00923
 C443 C 0.29448 0.53346 0.03746
 C444 C 0.31153 0.55940 0.04101
 C445 C 0.33505 0.60293 0.01858
 C446 C 0.35042 0.60962 0.04613
 C447 C 0.37106 0.63314 0.04782
 C448 C 0.37679 0.64953 0.02201
 C449 C 0.36070 0.64293 -0.00521
 C450 C 0.33979 0.61961 -0.00706
 C451 C 0.32662 0.56725 0.06849
 C452 C 0.34567 0.59201 0.07104
 C453 C 0.30477 0.58757 -0.03674
 C454 C 0.32421 0.61208 -0.03433
 H455 H 0.32419 0.55380 0.08795
 H456 H 0.35734 0.59699 0.09244
 H457 H 0.29373 0.58214 -0.05842
 H458 H 0.32755 0.62489 -0.05421
 H459 H 0.27293 0.53713 -0.03706
 H460 H 0.29299 0.51887 0.05600
 H461 H 0.38361 0.63791 0.06871
 H462 H 0.36484 0.65566 -0.02505
 C463 C 0.08906 -0.17066 0.47549
 C464 C 0.06352 -0.16586 0.45937
 C465 C 0.03853 -0.18427 0.46276
 C466 C 0.03841 -0.20671 0.48308
 C467 C 0.06457 -0.21215 0.49804
 C468 C 0.09005 -0.19402 0.49436
 C469 C 0.11474 -0.15001 0.47372
 C470 C 0.14009 -0.15426 0.49040
 C471 C 0.16388 -0.13370 0.48988
 C472 C 0.16202 -0.10846 0.47370
 C473 C 0.13643 -0.10500 0.45668
 C474 C 0.11292 -0.12573 0.45641
 C475 C 0.11611 -0.19798 0.51013
 C476 C 0.14076 -0.17854 0.50804
 C477 C 0.06298 -0.14196 0.44125
 C478 C 0.08721 -0.12212 0.43996
 H479 H 0.11730 -0.21595 0.52465
 H480 H 0.16023 -0.18214 0.52098
 H481 H 0.04335 -0.13812 0.42867
 H482 H 0.08563 -0.10356 0.42637
 H483 H 0.01872 -0.18039 0.45048
 H484 H 0.06466 -0.22934 0.51373
 H485 H 0.18354 -0.13715 0.50256
 H486 H 0.13411 -0.08562 0.44465
 C487 C 0.68787 0.42523 0.98108
 C488 C 0.68749 0.44523 0.95820
 C489 C 0.70369 0.47157 0.96261
 C490 C 0.72022 0.47776 0.98951
 C491 C 0.72157 0.45710 1.01156
 C492 C 0.70500 0.43084 1.00768
 C493 C 0.66864 0.39870 0.97796
 C494 C 0.66737 0.37970 1.00188
 C495 C 0.64722 0.35577 0.99999
 C496 C 0.62860 0.35081 0.97439
 C497 C 0.63104 0.36936 0.95001
 C498 C 0.65074 0.39362 0.95189
 C499 C 0.70405 0.41070 1.03049
 C500 C 0.68546 0.38560 1.02769
 C501 C 0.66994 0.43901 0.93205
 C502 C 0.65197 0.41356 0.92888
 H503 H 0.71718 0.41474 1.05107
 H504 H 0.68479 0.37100 1.04620
 H505 H 0.66963 0.45423 0.91419
 H506 H 0.63832 0.40985 0.90864
 H507 H 0.70266 0.48770 0.94576
 H508 H 0.73396 0.46222 1.03248
 H509 H 0.64542 0.34141 1.01872
 H510 H 0.61647 0.36576 0.93046
 C511 C 0.52364 0.12355 1.15563
 C512 C 0.49638 0.11469 1.16832
 C513 C 0.49521 0.09372 1.19007
 C514 C 0.52112 0.08193 1.19993
 C515 C 0.54833 0.09114 1.18672
 C516 C 0.54970 0.11197 1.16468
 C517 C 0.52475 0.14437 1.13137
 C518 C 0.55187 0.15234 1.11768
 C519 C 0.55262 0.17134 1.09381
 C520 C 0.52646 0.18224 1.08360
 C521 C 0.49955 0.17437 1.09805
 C522 C 0.49853 0.15527 1.12173
 C523 C 0.57650 0.12080 1.15078
 C524 C 0.57757 0.14065 1.12769
 C525 C 0.47065 0.12635 1.15835
 C526 C 0.47173 0.14642 1.13554
 H527 H 0.59679 0.11202 1.15754
 H528 H 0.59865 0.14664 1.11733
 H529 H 0.44947 0.11970 1.16805
 H530 H 0.45136 0.15471 1.12831
 H531 H 0.47391 0.08580 1.19835
 H532 H 0.56831 0.08130 1.19248
 H533 H 0.57340 0.17696 1.08262
 H534 H 0.47937 0.18300 1.09074
 C535 C 0.00994 0.68705 0.59863
 C536 C 0.02403 0.68413 0.56981
 C537 C 0.01907 0.70383 0.54751
 C538 C -0.00037 0.72606 0.55351
 C539 C -0.01264 0.72962 0.58348
 C540 C -0.00808 0.70991 0.60581
 C541 C 0.01329 0.66520 0.62132
 C542 C -0.00203 0.66741 0.64957
 C543 C -0.00045 0.64553 0.67015
 C544 C 0.01649 0.62183 0.66266
 C545 C 0.03251 0.62031 0.63479
 C546 C 0.03076 0.64188 0.61382
 C547 C -0.02212 0.71201 0.63480
 C548 C -0.01927 0.69103 0.65624
 C549 C 0.04194 0.66090 0.56344
 C550 C 0.04528 0.64017 0.58509
 H551 H -0.03604 0.72962 0.64066
 H552 H -0.03104 0.69308 0.67802
 H553 H 0.05301 0.65841 0.54130
 H554 H 0.05886 0.62234 0.57903
 H555 H 0.02967 0.70085 0.52532
 H556 H -0.02639 0.74728 0.58951
 H557 H -0.01288 0.64648 0.69160
 H558 H 0.04530 0.60182 0.62902
 C559 C 0.47977 0.88378 -0.15028
 C560 C 0.50687 0.89344 -0.16277
 C561 C 0.50749 0.91425 -0.18474
 C562 C 0.48119 0.92496 -0.19500
 C563 C 0.45426 0.91554 -0.18135
 C564 C 0.45341 0.89476 -0.15930
 C565 C 0.47908 0.86238 -0.12662
 C566 C 0.45202 0.85318 -0.11358
 C567 C 0.45156 0.83322 -0.09068
 C568 C 0.47795 0.82264 -0.08070
 C569 C 0.50484 0.83193 -0.09428
 C570 C 0.50555 0.85189 -0.11713
 C571 C 0.42673 0.88499 -0.14581
 C572 C 0.42605 0.86451 -0.12337
 C573 C 0.53289 0.88236 -0.15277
 C574 C 0.53223 0.86186 -0.13040
 H575 H 0.40622 0.89331 -0.15257
 H576 H 0.40503 0.85763 -0.11347
 H577 H 0.55396 0.88964 -0.16226
 H578 H 0.55281 0.85393 -0.12325
 H579 H 0.52860 0.92246 -0.19319
 H580 H 0.43398 0.92471 -0.18738
 H581 H 0.43082 0.82650 -0.08007
 H582 H 0.52522 0.82364 -0.08702
 C583 C 0.99061 0.31255 0.40619
 C584 C 0.98074 0.31789 0.43658
 C585 C 0.98466 0.29747 0.45840
 C586 C 0.99908 0.27195 0.45028
 C587 C 1.00821 0.26690 0.41927
 C588 C 1.00402 0.28702 0.39725
 C589 C 0.98765 0.33450 0.38349
 C590 C 0.99796 0.32931 0.35320
 C591 C 0.99617 0.35067 0.33204
 C592 C 0.98471 0.37738 0.34109
 C593 C 0.97395 0.38194 0.37148
 C594 C 0.97535 0.36057 0.39275
 C595 C 1.01353 0.28235 0.36655
 C596 C 1.01048 0.30310 0.34488
 C597 C 0.96796 0.34401 0.44482
 C598 C 0.96539 0.36500 0.42331
 H599 H 1.02378 0.26265 0.35929
 H600 H 1.01845 0.29879 0.32156
 H601 H 0.96028 0.34845 0.46823
 H602 H 0.95580 0.38500 0.43077
 H603 H 0.97816 0.30271 0.48200
 H604 H 1.01838 0.24717 0.41199
 H605 H 1.00405 0.34663 0.30863
 H606 H 0.96546 0.40246 0.37895
 C607 C 0.49323 0.92239 0.17305
 C608 C 0.50619 0.92421 0.20224
 C609 C 0.51126 0.95134 0.21778
 C610 C 0.50392 0.97671 0.20401
 C611 C 0.49043 0.97399 0.17477
 C612 C 0.48512 0.94711 0.15929
 C613 C 0.48849 0.89411 0.15625
 C614 C 0.47574 0.89252 0.12694
 C615 C 0.47202 0.86583 0.11066
 C616 C 0.48102 0.84070 0.12331
 C617 C 0.49360 0.84259 0.15289
 C618 C 0.49733 0.86933 0.16951
 C619 C 0.47205 0.94458 0.13009
 C620 C 0.46744 0.91773 0.11418
 C621 C 0.51437 0.89888 0.21501
 C622 C 0.51006 0.87193 0.19891
 H623 H 0.46558 0.96356 0.11931
 H624 H 0.45754 0.91672 0.09158
 H625 H 0.52443 0.89992 0.23753
 H626 H 0.51694 0.85300 0.20948
 H627 H 0.52233 0.95244 0.23971
 H628 H 0.48316 0.99266 0.16406
 H629 H 0.46297 0.86477 0.08765
 H630 H 0.50052 0.82335 0.16282
 C631 C 0.01088 0.33722 0.58790
 C632 C -0.01502 0.32091 0.57977
 C633 C -0.01331 0.29625 0.55976
 C634 C 0.01404 0.28808 0.54763
 C635 C 0.03974 0.30502 0.55588
 C636 C 0.03831 0.32940 0.57616
 C637 C 0.00930 0.36299 0.60914
 C638 C 0.03528 0.37903 0.61753
 C639 C 0.03374 0.40331 0.63795
 C640 C 0.00642 0.41201 0.64968
 C641 C -0.01949 0.39567 0.64082
 C642 C -0.01814 0.37104 0.62070
 C643 C 0.06382 0.34612 0.58493
 C644 C 0.06234 0.37044 0.60538
 C645 C -0.04209 0.32959 0.59188
 C646 C -0.04363 0.35427 0.61190
 H647 H 0.08512 0.34029 0.57603
 H648 H 0.08255 0.38267 0.61166
 H649 H -0.06227 0.31723 0.58578
 H650 H -0.06496 0.36022 0.62064
 H651 H -0.03322 0.28330 0.55410
 H652 H 0.06088 0.29956 0.54624
 H653 H 0.05393 0.41518 0.64501
 H654 H -0.04070 0.40222 0.64928
 C655 C 0.49393 0.08585 0.82162
 C656 C 0.46797 0.06891 0.82663
 C657 C 0.46467 0.04128 0.81217
 C658 C 0.48700 0.03079 0.79274
 C659 C 0.51251 0.04820 0.78723
 C660 C 0.51624 0.07577 0.80187
 C661 C 0.49837 0.11416 0.83839
 C662 C 0.52496 0.13046 0.83467
 C663 C 0.52974 0.15661 0.85209
 C664 C 0.50808 0.16640 0.87296
 C665 C 0.48124 0.15011 0.87572
 C666 C 0.47637 0.12386 0.85871
 C667 C 0.54220 0.09305 0.79806
 C668 C 0.54652 0.11991 0.81424
 C669 C 0.44624 0.07960 0.84670
 C670 C 0.45033 0.10667 0.86241
 H671 H 0.55954 0.08552 0.78287
 H672 H 0.56707 0.13233 0.81107
 H673 H 0.42608 0.06677 0.85064
 H674 H 0.43320 0.11397 0.87802
 H675 H 0.44511 0.02765 0.81646
 H676 H 0.52998 0.03974 0.77289
 H677 H 0.55039 0.16911 0.84981
 H678 H 0.46468 0.15726 0.89214
 C679 C 0.99172 0.66165 0.40929
 C680 C 0.98129 0.68707 0.39886
 C681 C 0.97848 0.71084 0.41982
 C682 C 0.98624 0.70931 0.45089
 C683 C 0.99692 0.68380 0.46088
 C684 C 0.99959 0.65982 0.44020
 C685 C 0.99389 0.63631 0.38758
 C686 C 1.00357 0.61066 0.39818
 C687 C 1.00473 0.58636 0.37762
 C688 C 0.99630 0.58760 0.34665
 C689 C 0.98723 0.61377 0.33636
 C690 C 0.98576 0.63809 0.35675
 C691 C 1.00952 0.63390 0.44990
 C692 C 1.01143 0.60972 0.42925
 C693 C 0.97364 0.68810 0.36775
 C694 C 0.97592 0.66404 0.34704
 H695 H 1.01565 0.63222 0.47370
 H696 H 1.01896 0.59008 0.43773
 H697 H 0.96567 0.70760 0.35939
 H698 H 0.96961 0.66568 0.32328
 H699 H 0.97034 0.73052 0.41204
 H700 H 1.00215 0.68228 0.48487
 H701 H 1.01140 0.56632 0.38594
 H702 H 0.98119 0.61519 0.31249
 C703 C 1.16547 0.46890 0.09708
 C704 C 1.17320 0.44187 0.08471
 C705 C 1.19444 0.44037 0.06114
 C706 C 1.20829 0.46565 0.05015
 C707 C 1.20033 0.49261 0.06296
 C708 C 1.17880 0.49435 0.08633
 C709 C 1.14285 0.47056 0.12164
 C710 C 1.13471 0.49757 0.13370
 C711 C 1.11266 0.49900 0.15654
 C712 C 1.09889 0.47362 0.16745
 C713 C 1.10787 0.44673 0.15544
 C714 C 1.12960 0.44507 0.13238
 C715 C 1.17031 0.52101 0.09919
 C716 C 1.14857 0.52259 0.12238
 C717 C 1.15948 0.41684 0.09609
 C718 C 1.13812 0.41842 0.11961
 H719 H 1.18042 0.54082 0.09113
 H720 H 1.14252 0.54358 0.13150
 H721 H 1.16530 0.39585 0.08675
 H722 H 1.12804 0.39860 0.12770
 H723 H 1.19985 0.41949 0.05115
 H724 H 1.21113 0.51221 0.05517
 H725 H 1.10574 0.51982 0.16521
 H726 H 1.09791 0.42705 0.16398
 C727 C 0.57589 -0.01802 0.67120
 C728 C 0.56411 -0.04573 0.67679
 C729 C 0.54210 -0.04901 0.69935
 C730 C 0.53175 -0.02481 0.71616
 C731 C 0.54325 0.00287 0.70964
 C732 C 0.56560 0.00638 0.68743
 C733 C 0.59966 -0.01452 0.64813
 C734 C 0.61197 0.01311 0.64303
 C735 C 0.63514 0.01621 0.62163
 C736 C 0.64585 -0.00810 0.60526
 C737 C 0.63269 -0.03558 0.61028
 C738 C 0.60984 -0.03894 0.63187
 C739 C 0.57817 0.03374 0.68141
 C740 C 0.60103 0.03704 0.65967
 C741 C 0.57472 -0.06963 0.65987
 C742 C 0.59714 -0.06628 0.63770
 H743 H 0.57045 0.05274 0.69381
 H744 H 0.61029 0.05849 0.65592
 H745 H 0.56572 -0.09111 0.66390
 H746 H 0.60479 -0.08528 0.62525
 H747 H 0.53290 -0.07037 0.70365
 H748 H 0.53536 0.02161 0.72227
 H749 H 0.64519 0.03743 0.61822
 H750 H 0.64018 -0.05441 0.59736
 C751 C -0.16046 0.53018 0.90623
 C752 C -0.18705 0.54185 0.89893
 C753 C -0.20898 0.54450 0.92173
 C754 C -0.20451 0.53541 0.95155
 C755 C -0.17775 0.52369 0.95844
 C756 C -0.15559 0.52111 0.93587
 C757 C -0.13724 0.52748 0.88240
 C758 C -0.11056 0.51607 0.88977
 C759 C -0.08843 0.51385 0.86712
 C760 C -0.09287 0.52285 0.83720
 C761 C -0.11994 0.53402 0.83021
 C762 C -0.14214 0.53649 0.85275
 C763 C -0.12862 0.50973 0.94236
 C764 C -0.10647 0.50730 0.91972
 C765 C -0.19116 0.55056 0.86898
 C766 C -0.16911 0.54788 0.84626
 H767 H -0.12457 0.50269 0.96515
 H768 H -0.08597 0.49847 0.92571
 H769 H -0.21160 0.55954 0.86303
 H770 H -0.17317 0.55490 0.82346
 H771 H -0.22967 0.55321 0.91615
 H772 H -0.17396 0.51703 0.98145
 H773 H -0.06758 0.50564 0.87297
 H774 H -0.12381 0.54064 0.80720
 C775 C 0.42142 0.02094 0.32732
 C776 C 0.43234 -0.00316 0.31110
 C777 C 0.45521 0.00081 0.28954
 C778 C 0.46740 0.02863 0.28447
 C779 C 0.45653 0.05247 0.30154
 C780 C 0.43334 0.04879 0.32269
 C781 C 0.39686 0.01699 0.34941
 C782 C 0.38557 0.04117 0.36511
 C783 C 0.36203 0.03736 0.38581
 C784 C 0.35008 0.00955 0.39146
 C785 C 0.36187 -0.01449 0.37554
 C786 C 0.38509 -0.01087 0.35431
 C787 C 0.42164 0.07244 0.33907
 C788 C 0.39805 0.06871 0.35981
 C789 C 0.41993 -0.03072 0.31654
 C790 C 0.39681 -0.03452 0.33790
 H791 H 0.43065 0.09405 0.33566
 H792 H 0.38956 0.08753 0.37185
 H793 H 0.42817 -0.04951 0.30420
 H794 H 0.38793 -0.05613 0.34145
 H795 H 0.46290 -0.01770 0.27624
 H796 H 0.46604 0.07395 0.29846
 H797 H 0.35288 0.05611 0.39731
 H798 H 0.35331 -0.03604 0.37993
 C799 C 0.17150 0.48585 0.90099
 C800 C 0.17597 0.45730 0.90740
 C801 C 0.19623 0.45190 0.93003
 C802 C 0.21186 0.47481 0.94632
 C803 C 0.20688 0.50333 0.93984
 C804 C 0.18682 0.50898 0.91703
 C805 C 0.15031 0.49161 0.87704
 C806 C 0.14589 0.52013 0.87047
 C807 C 0.12565 0.52546 0.84769
 C808 C 0.10974 0.50248 0.83169
 C809 C 0.11450 0.47401 0.83877
 C810 C 0.13480 0.46846 0.86129
 C811 C 0.18182 0.53724 0.90981
 C812 C 0.16175 0.54272 0.88689
 C813 C 0.16006 0.43470 0.89110
 C814 C 0.13977 0.44020 0.86848
 H815 H 0.19354 0.55528 0.92196
 H816 H 0.15856 0.56483 0.88207
 H817 H 0.16328 0.41259 0.89589
 H818 H 0.12791 0.42215 0.85648
 H819 H 0.19951 0.42990 0.93527
 H820 H 0.21897 0.52106 0.95213
 H821 H 0.12243 0.54742 0.84229
 H822 H 0.10200 0.45614 0.82719
 C823 C 0.60655 0.01220 0.32416
 C824 C 0.61639 0.02196 0.29566
 C825 C 0.59571 0.02636 0.27303
 C826 C 0.56542 0.02110 0.27884
 C827 C 0.55600 0.01094 0.30740
 C828 C 0.57646 0.00654 0.33018
 C829 C 0.62809 0.00842 0.34840
 C830 C 0.61815 -0.00072 0.37711
 C831 C 0.63860 -0.00354 0.40036
 C832 C 0.66885 0.00272 0.39514
 C833 C 0.67847 0.01160 0.36605
 C834 C 0.65814 0.01456 0.34261
 C835 C 0.56740 -0.00288 0.35910
 C836 C 0.58790 -0.00644 0.38218
 C837 C 0.64667 0.02752 0.29056
 C838 C 0.66720 0.02386 0.31363
 H839 H 0.54425 -0.00731 0.36402
 H840 H 0.57997 -0.01352 0.40424
 H841 H 0.65456 0.03500 0.26864
 H842 H 0.69032 0.02861 0.30883
 H843 H 0.60313 0.03399 0.25101
 H844 H 0.53274 0.00743 0.31237
 H845 H 0.63086 -0.00985 0.42280
 H846 H 0.70169 0.01621 0.36168
 C847 C 0.83106 0.51346 0.09897
 C848 C 0.82516 0.54214 0.09474
 C849 C 0.80493 0.54808 0.07233
 C850 C 0.79042 0.52558 0.05429
 C851 C 0.79670 0.49691 0.05878
 C852 C 0.81702 0.49072 0.08114
 C853 C 0.85259 0.50717 0.12235
 C854 C 0.85880 0.47851 0.12645
 C855 C 0.87981 0.47275 0.14830
 C856 C 0.89461 0.49547 0.16576
 C857 C 0.88760 0.52401 0.16166
 C858 C 0.86677 0.52999 0.13992
 C859 C 0.82363 0.46230 0.08603
 C860 C 0.84417 0.45630 0.10828
 C861 C 0.83969 0.56437 0.11290
 C862 C 0.86012 0.55840 0.13515
 H863 H 0.81292 0.44454 0.07247
 H864 H 0.84874 0.43410 0.11118
 H865 H 0.83529 0.58659 0.10984
 H866 H 0.87094 0.57617 0.14860
 H867 H 0.80093 0.57026 0.06864
 H868 H 0.78557 0.47941 0.04524
 H869 H 0.88522 0.45075 0.15112
 H870 H 0.89847 0.54161 0.17536
 C871 C 0.39049 -0.02044 0.67414
 C872 C 0.40458 0.00443 0.68824
 C873 C 0.42578 0.00163 0.71085
 C874 C 0.43305 -0.02581 0.71912
 C875 C 0.41868 -0.05048 0.70459
 C876 C 0.39732 -0.04792 0.68224
 C877 C 0.36849 -0.01770 0.65008
 C878 C 0.35466 -0.04262 0.63585
 C879 C 0.33433 -0.03998 0.61247
 C880 C 0.32810 -0.01268 0.60286
 C881 C 0.34181 0.01216 0.61778
 C882 C 0.36206 0.00975 0.64143
 C883 C 0.38284 -0.07235 0.66764
 C884 C 0.36180 -0.06974 0.64489
 C885 C 0.39728 0.03156 0.67928
 C886 C 0.37644 0.03417 0.65622
 H887 H 0.38791 -0.09367 0.67377
 H888 H 0.35125 -0.08912 0.63406
 H889 H 0.40794 0.05093 0.69000
 H890 H 0.37167 0.05548 0.64979
 H891 H 0.43637 0.02076 0.72214
 H892 H 0.42449 -0.07174 0.71016
 H893 H 0.32353 -0.05920 0.60156
 H894 H 0.33744 0.03325 0.61037
   
