data_POSCAR
  _audit_creation_date              2014-09-24
  _audit_creation_method            'ToBaCCo'
  _symmetry_space_group_name_H-M    'P1'
  _symmetry_Int_Tables_number       1
  _symmetry_cell_setting            triclinic
  loop_
  _symmetry_equiv_pos_as_xyz
 x,y,z
_cell_length_a 28.3314
_cell_length_b 28.5318
_cell_length_c 42.5617
_cell_angle_alpha 88.946000
_cell_angle_beta 93.841700
_cell_angle_gamma 88.689700
loop_
  _atom_site_label
  _atom_site_type_symbol
  _atom_site_fract_x
  _atom_site_fract_y
  _atom_site_fract_z
C1 C 0.00616 0.59466 1.03039
 C2 C 0.01530 0.61892 1.00255
 C3 C 0.01469 0.59700 0.97326
 C4 C 0.01008 0.54745 0.97238
 C5 C 0.00362 0.52157 1.00060
 C6 C 0.00079 0.54525 1.02953
 C7 C -0.00460 0.51850 1.05709
 C8 C -0.00921 0.47021 1.05624
 C9 C -0.00489 0.44559 1.02823
 C10 C 0.00068 0.47170 0.99996
 C11 C 0.01475 0.52268 0.94442
 C12 C 0.00978 0.47443 0.94353
 C13 C 0.00327 0.44812 0.97101
 C14 C -0.00099 0.39884 0.97028
 C15 C -0.00781 0.37396 0.99811
 C16 C -0.00830 0.39587 1.02735
 H17 H -0.00474 0.53435 1.07994
 H18 H -0.01648 0.45261 1.07801
 H19 H 0.02308 0.54011 0.92280
 H20 H 0.01149 0.45805 0.92093
 H21 H 0.01714 0.65685 1.00315
 H22 H -0.00902 0.33601 0.99717
 C23 C 0.40199 0.00261 0.52985
 C24 C 0.37402 0.00482 0.50153
 C25 C 0.39405 0.00729 0.47239
 C26 C 0.44391 0.00930 0.47152
 C27 C 0.47287 0.00739 0.50013
 C28 C 0.45182 0.00357 0.52936
 C29 C 0.48110 0.00061 0.55729
 C30 C 0.53007 0.00102 0.55664
 C31 C 0.55204 0.00668 0.52813
 C32 C 0.52300 0.00879 0.49947
 C33 C 0.46555 0.01351 0.44289
 C34 C 0.51452 0.01340 0.44216
 C35 C 0.54392 0.01112 0.47011
 C36 C 0.59372 0.00995 0.46946
 C37 C 0.62175 0.00729 0.49771
 C38 C 0.60223 0.00697 0.52719
 H39 H 0.46647 -0.00264 0.58004
 H40 H 0.55038 -0.00431 0.57886
 H41 H 0.44490 0.01679 0.42063
 H42 H 0.52901 0.01488 0.41931
 H43 H 0.33590 0.00284 0.50219
 H44 H 0.65986 0.00827 0.49652
 C45 C 0.06780 0.01754 0.26481
 H46 H 0.07158 0.01793 0.23968
 C47 C 0.10622 0.02840 0.28553
 H48 H 0.13975 0.03710 0.27637
 C49 C 0.01963 0.00548 0.30756
 H50 H -0.01387 -0.00417 0.31617
 C51 C 0.05668 0.01721 0.32899
 H52 H 0.05142 0.01660 0.35397
 N53 N 0.02572 0.00583 0.27612
 C54 C -0.04542 -0.08397 0.20634
 H55 H -0.08025 -0.06743 0.20389
 C56 C -0.03524 -0.12254 0.18804
 H57 H -0.06233 -0.13516 0.17135
 C58 C 0.03263 -0.08627 0.23013
 H59 H 0.05904 -0.07226 0.24659
 C60 C 0.04443 -0.12472 0.21212
 H61 H 0.07991 -0.13985 0.21491
 Zn62 Zn -0.02561 -0.00945 0.24753
 N63 N -0.01130 -0.06580 0.22629
 C64 C -0.04034 0.03209 0.18632
 N65 N -0.03564 0.04094 0.21767
 C66 C -0.03610 0.08577 0.22813
 C67 C -0.04281 0.12362 0.20680
 C68 C -0.04753 0.06873 0.16429
 C69 C -0.09765 -0.06144 0.27424
 C70 C -0.13531 -0.06877 0.29314
 C71 C -0.13738 0.01400 0.30382
 C72 C -0.10006 0.01985 0.28439
 N73 N -0.08052 -0.01769 0.27035
 H74 H -0.03824 -0.00329 0.17808
 H75 H -0.03052 0.09225 0.25302
 H76 H -0.04347 0.15903 0.21552
 H77 H -0.05100 0.06082 0.13947
 H78 H -0.08122 -0.09112 0.26357
 H79 H -0.14817 -0.10395 0.29589
 H80 H -0.15079 0.04412 0.31583
 H81 H -0.08552 0.05417 0.28156
 C82 C 0.01052 -0.14272 0.19030
 C83 C 0.10060 0.02849 0.31801
 C84 C -0.15515 -0.03092 0.30878
 C85 C -0.04910 0.11518 0.17443
 C86 C -0.00034 0.09832 0.76407
 H87 H 0.00117 0.10271 0.73886
 C88 C -0.01209 0.13660 0.78231
 H89 H -0.01943 0.17068 0.77121
 C90 C 0.00710 0.04857 0.80949
 H91 H 0.01477 0.01430 0.82005
 C92 C -0.00559 0.08555 0.82843
 H93 H -0.00752 0.07964 0.85352
 N94 N 0.00957 0.05552 0.77794
 C95 C 0.09904 -0.02065 0.71529
 H96 H 0.08176 -0.05408 0.71488
 C97 C 0.13735 -0.01346 0.69696
 H98 H 0.14880 -0.04146 0.68221
 C99 C 0.10318 0.05696 0.73388
 H100 H 0.08993 0.08433 0.74834
 C101 C 0.14175 0.06564 0.71598
 H102 H 0.15775 0.09972 0.71694
 Zn103 Zn 0.02503 0.00400 0.75283
 N104 N 0.08163 0.01485 0.73238
 C105 C -0.01772 -0.00822 0.69124
 N106 N -0.02612 -0.00384 0.72217
 C107 C -0.07111 -0.00353 0.73161
 C108 C -0.10950 -0.00999 0.70983
 C109 C -0.05491 -0.01493 0.66878
 C110 C 0.07933 -0.06358 0.78931
 C111 C 0.08767 -0.10116 0.81060
 C112 C 0.00333 -0.11172 0.81029
 C113 C -0.00340 -0.07403 0.78895
 N114 N 0.03434 -0.05058 0.77903
 H115 H 0.01775 -0.00650 0.68371
 H116 H -0.07727 0.00193 0.75608
 H117 H -0.14494 -0.01063 0.71787
 H118 H -0.04733 -0.01843 0.64431
 H119 H 0.10884 -0.04406 0.78161
 H120 H 0.12375 -0.11080 0.81853
 H121 H -0.02730 -0.12886 0.81862
 H122 H -0.03888 -0.06292 0.78098
 C123 C 0.15854 0.03055 0.69654
 C124 C -0.01501 0.13010 0.81482
 C125 C 0.04935 -0.12545 0.82168
 C126 C -0.10148 -0.01648 0.67799
 C127 C 0.03144 -0.34284 0.06599
 C128 C 0.02294 -0.31280 0.09080
 C129 C -0.01854 -0.31748 0.10715
 C130 C -0.05020 -0.35294 0.09887
 C131 C -0.04138 -0.38290 0.07422
 C132 C -0.00045 -0.37836 0.05743
 C133 C -0.02821 -0.28600 0.13099
 C134 C 0.00311 -0.24988 0.13863
 C135 C 0.04529 -0.24614 0.12286
 C136 C 0.05495 -0.27762 0.09908
 C137 C 0.07674 -0.21034 0.13070
 C138 C 0.06596 -0.17768 0.15332
 C139 C 0.02350 -0.18014 0.16850
 C140 C -0.00750 -0.21683 0.16133
 H141 H 0.06314 -0.33876 0.05335
 H142 H -0.08236 -0.35683 0.11099
 H143 H -0.06774 -0.40835 0.06737
 H144 H -0.06044 -0.28912 0.14319
 H145 H 0.08696 -0.27424 0.08668
 H146 H 0.10926 -0.20703 0.11890
 H147 H 0.09016 -0.14948 0.15819
 H148 H -0.04009 -0.21931 0.17317
 C149 C -0.04072 0.32868 0.05458
 C150 C -0.03913 0.29635 0.07983
 C151 C -0.00586 0.30147 0.10570
 C152 C 0.02480 0.33935 0.10600
 C153 C 0.02324 0.37129 0.08061
 C154 C -0.00960 0.36656 0.05454
 C155 C -0.00297 0.26798 0.13040
 C156 C -0.03257 0.22914 0.12928
 C157 C -0.06632 0.22455 0.10354
 C158 C -0.06964 0.25834 0.07915
 C159 C -0.09553 0.18559 0.10223
 C160 C -0.09049 0.15071 0.12568
 C161 C -0.05644 0.15425 0.15103
 C162 C -0.02813 0.19410 0.15301
 H163 H -0.06639 0.32439 0.03482
 H164 H 0.05089 0.34358 0.12548
 H165 H 0.04931 0.39849 0.08078
 H166 H 0.02295 0.27159 0.15010
 H167 H -0.09521 0.25447 0.05928
 H168 H -0.12172 0.18168 0.08276
 H169 H -0.11312 0.12065 0.12391
 H170 H -0.00149 0.19694 0.17234
 C171 C 0.34708 0.03425 0.56814
 C172 C 0.31962 0.02836 0.59410
 C173 C 0.32256 -0.01449 0.61146
 C174 C 0.35365 -0.05032 0.60291
 C175 C 0.38059 -0.04425 0.57687
 C176 C 0.37729 -0.00209 0.55928
 C177 C 0.29345 -0.02129 0.63649
 C178 C 0.26091 0.01392 0.64403
 C179 C 0.25874 0.05707 0.62705
 C180 C 0.28833 0.06415 0.60236
 C181 C 0.22605 0.09205 0.63448
 C182 C 0.19461 0.08384 0.65775
 C183 C 0.19544 0.04063 0.67426
 C184 C 0.22951 0.00614 0.66766
 H185 H 0.34423 0.06663 0.55431
 H186 H 0.35633 -0.08340 0.61591
 H187 H 0.40333 -0.07277 0.56998
 H188 H 0.29522 -0.05438 0.64952
 H189 H 0.28616 0.09704 0.58908
 H190 H 0.22392 0.12532 0.62171
 H191 H 0.16841 0.11081 0.66199
 H192 H 0.23102 -0.02708 0.68050
 C193 C -0.32442 -0.01998 0.55634
 C194 C -0.29025 -0.01598 0.58143
 C195 C -0.29723 0.01692 0.60518
 C196 C -0.33877 0.04479 0.60356
 C197 C -0.37263 0.04078 0.57833
 C198 C -0.36602 0.00830 0.55435
 C199 C -0.26212 0.02209 0.62970
 C200 C -0.22000 -0.00501 0.63054
 C201 C -0.21354 -0.03839 0.60694
 C202 C -0.24878 -0.04385 0.58269
 C203 C -0.17151 -0.06528 0.60762
 C204 C -0.13563 -0.05852 0.63103
 C205 C -0.14107 -0.02487 0.65431
 C206 C -0.18378 0.00134 0.65420
 H207 H -0.31869 -0.04547 0.53829
 H208 H -0.34455 0.07053 0.62139
 H209 H -0.40303 0.06463 0.57690
 H210 H -0.26722 0.04769 0.64777
 H211 H -0.24351 -0.06917 0.56446
 H212 H -0.16614 -0.09119 0.58982
 H213 H -0.10342 -0.07969 0.63093
 H214 H -0.18822 0.02763 0.67190
 C215 C 0.04552 -0.33542 0.94524
 C216 C 0.04276 -0.30342 0.91974
 C217 C 0.00900 -0.30948 0.89426
 C218 C -0.02109 -0.34774 0.89463
 C219 C -0.01844 -0.37923 0.92026
 C220 C 0.01502 -0.37379 0.94592
 C221 C 0.00508 -0.27659 0.86924
 C222 C 0.03413 -0.23738 0.86958
 C223 C 0.06832 -0.23170 0.89490
 C224 C 0.07263 -0.26489 0.91970
 C225 C 0.09709 -0.19240 0.89531
 C226 C 0.09141 -0.15844 0.87123
 C227 C 0.05705 -0.16321 0.84614
 C228 C 0.02891 -0.20325 0.84532
 H229 H 0.07166 -0.33050 0.96464
 H230 H -0.04757 -0.35263 0.87548
 H231 H -0.04417 -0.40672 0.92057
 H232 H -0.02117 -0.28102 0.84983
 H233 H 0.09859 -0.26024 0.93924
 H234 H 0.12341 -0.18746 0.91456
 H235 H 0.11310 -0.12771 0.87275
 H236 H 0.00272 -0.20770 0.82592
 C237 C -0.03087 0.33913 0.93201
 C238 C -0.02350 0.30756 0.90784
 C239 C 0.01906 0.30862 0.89228
 C240 C 0.05345 0.34128 0.90122
 C241 C 0.04643 0.37157 0.92601
 C242 C 0.00420 0.37090 0.94151
 C243 C 0.02729 0.27590 0.86892
 C244 C -0.00568 0.24104 0.86178
 C245 C -0.04813 0.23989 0.87750
 C246 C -0.05715 0.27369 0.89997
 C247 C -0.08019 0.20396 0.87124
 C248 C -0.06965 0.16865 0.85035
 C249 C -0.02758 0.16945 0.83480
 C250 C 0.00391 0.20615 0.84008
 H251 H -0.06313 0.33790 0.94432
 H252 H 0.08646 0.34230 0.88978
 H253 H 0.07444 0.39484 0.93362
 H254 H 0.06005 0.27653 0.85712
 H255 H -0.08957 0.27260 0.91213
 H256 H -0.11277 0.20245 0.88314
 H257 H -0.09410 0.14036 0.84649
 H258 H 0.03670 0.20632 0.82831
 C259 C -0.34956 -0.02465 0.43348
 C260 C -0.32090 -0.02086 0.40800
 C261 C -0.32455 0.01972 0.38831
 C262 C -0.35725 0.05559 0.39435
 C263 C -0.38500 0.05191 0.42021
 C264 C -0.38129 0.01185 0.43994
 C265 C -0.29447 0.02436 0.36359
 C266 C -0.26000 -0.01050 0.35886
 C267 C -0.25672 -0.05116 0.37847
 C268 C -0.28753 -0.05633 0.40264
 C269 C -0.22180 -0.08550 0.37413
 C270 C -0.18951 -0.07917 0.35116
 C271 C -0.19184 -0.03867 0.33168
 C272 C -0.22789 -0.00479 0.33540
 H273 H -0.34620 -0.05531 0.44899
 H274 H -0.36039 0.08704 0.37963
 H275 H -0.40864 0.08076 0.42529
 H276 H -0.29696 0.05566 0.34865
 H277 H -0.28465 -0.08736 0.41784
 H278 H -0.21868 -0.11676 0.38904
 H279 H -0.16175 -0.10550 0.34936
 H280 H -0.23063 0.02631 0.32033
 C281 C 0.32258 0.03687 0.43953
 C282 C 0.28853 0.03212 0.41437
 C283 C 0.29390 -0.00411 0.39255
 C284 C 0.33312 -0.03506 0.39641
 C285 C 0.36614 -0.03084 0.42203
 C286 C 0.36138 0.00531 0.44365
 C287 C 0.25928 -0.00970 0.36783
 C288 C 0.21859 0.01946 0.36528
 C289 C 0.21308 0.05545 0.38728
 C290 C 0.24846 0.06204 0.41134
 C291 C 0.17160 0.08341 0.38541
 C292 C 0.13533 0.07501 0.36251
 C293 C 0.14042 0.03933 0.34065
 C294 C 0.18248 0.01219 0.34174
 H295 H 0.31834 0.06435 0.45646
 H296 H 0.33757 -0.06330 0.38011
 H297 H 0.39508 -0.05630 0.42532
 H298 H 0.26332 -0.03759 0.35117
 H299 H 0.24412 0.08954 0.42825
 H300 H 0.16675 0.11103 0.40212
 H301 H 0.10305 0.09619 0.36191
 H302 H 0.18616 -0.01578 0.32510
   
