data_POSCAR
  _audit_creation_date              2014-09-24
  _audit_creation_method            'ToBaCCo'
  _symmetry_space_group_name_H-M    'P1'
  _symmetry_Int_Tables_number       1
  _symmetry_cell_setting            triclinic
  loop_
  _symmetry_equiv_pos_as_xyz
 x,y,z
_cell_length_a 26.7755
_cell_length_b 26.8303
_cell_length_c 63.4481
_cell_angle_alpha 85.343500
_cell_angle_beta 93.072300
_cell_angle_gamma 120.070500
loop_
  _atom_site_label
  _atom_site_type_symbol
  _atom_site_fract_x
  _atom_site_fract_y
  _atom_site_fract_z
C1 C 0.00396 0.11296 0.52591
 H2 H 0.04622 0.11787 0.52422
 C3 C -0.00255 0.14975 0.53836
 H4 H 0.03543 0.18334 0.54582
 C5 C -0.09556 0.06519 0.51693
 H6 H -0.13150 0.03332 0.50815
 C7 C -0.10436 0.10014 0.52970
 H8 H -0.14766 0.09282 0.53105
 N9 N -0.04213 0.07154 0.51556
 C10 C 0.01246 -0.05349 0.50665
 H11 H 0.01595 -0.05025 0.48962
 C12 C 0.02249 -0.09344 0.51886
 H13 H 0.03390 -0.12081 0.51113
 C14 C -0.00969 -0.02379 0.53731
 H15 H -0.02346 0.00254 0.54439
 C16 C -0.00059 -0.06346 0.55007
 H17 H -0.00625 -0.06642 0.56699
 Zn18 Zn -0.02419 0.02767 0.49860
 N19 N -0.00338 -0.01977 0.51600
 C20 C 0.09053 0.08765 0.48163
 N21 N 0.03722 0.08234 0.48137
 C22 C 0.02538 0.11949 0.46933
 C23 C 0.06805 0.16464 0.45704
 C24 C 0.13466 0.13226 0.46939
 C25 C -0.07631 -0.02264 0.46060
 C26 C -0.11956 -0.06151 0.44753
 C27 C -0.18483 -0.09627 0.47689
 C28 C -0.13939 -0.05836 0.48961
 N29 N -0.08684 -0.02144 0.48120
 H30 H 0.09924 0.05820 0.49162
 H31 H -0.01733 0.11435 0.46956
 H32 H 0.05763 0.19373 0.44756
 H33 H 0.17722 0.13677 0.46997
 H34 H -0.03378 0.00586 0.45432
 H35 H -0.10907 -0.05926 0.43113
 H36 H -0.22534 -0.12562 0.48451
 H37 H -0.14589 -0.05914 0.50633
 C38 C 0.01517 -0.09929 0.54084
 C39 C -0.05742 0.14342 0.54063
 C40 C -0.17564 -0.09933 0.45537
 C41 C 0.12370 0.17188 0.45714
 C42 C 1.13303 0.03693 0.13989
 H43 H 1.14106 0.08006 0.14180
 C44 C 1.16924 0.02886 0.12733
 H45 H 1.20542 0.06627 0.11980
 C46 C 1.07756 -0.06365 0.14843
 H47 H 1.04228 -0.09942 0.15694
 C48 C 1.11247 -0.07379 0.13585
 H49 H 1.10276 -0.11771 0.13447
 N50 N 1.08833 -0.00893 0.15013
 C51 C 0.96210 0.04115 0.16202
 H52 H 0.96313 0.03932 0.17913
 C53 C 0.91676 0.04343 0.15094
 H54 H 0.88366 0.04466 0.15960
 C55 C 1.00084 0.03589 0.13008
 H56 H 1.03177 0.02970 0.12210
 C57 C 0.95651 0.03863 0.11836
 H58 H 0.95423 0.03504 0.10141
 Zn59 Zn 1.04567 0.00867 0.16790
 N60 N 1.00167 0.03527 0.15156
 C61 C 1.10495 0.11676 0.18751
 N62 N 1.09958 0.06400 0.18600
 C63 C 1.13575 0.04886 0.19673
 C64 C 1.17976 0.08746 0.20958
 C65 C 1.14850 0.15685 0.20033
 C66 C 0.94625 -0.09894 0.17322
 C67 C 0.89814 -0.14232 0.18404
 C68 C 0.94430 -0.10066 0.21688
 C69 C 0.99154 -0.05800 0.20543
 N70 N 0.99114 -0.05726 0.18396
 H71 H 1.07613 0.12806 0.17857
 H72 H 1.13059 0.00670 0.19509
 H73 H 1.20785 0.07430 0.21808
 H74 H 1.15297 0.19904 0.20119
 H75 H 0.94646 -0.09658 0.15612
 H76 H 0.86207 -0.17412 0.17516
 H77 H 0.94410 -0.09864 0.23385
 H78 H 1.02679 -0.02361 0.21364
 C79 C 0.91238 0.03981 0.12890
 C80 C 1.15934 -0.02709 0.12518
 C81 C 0.89602 -0.14252 0.20612
 C82 C 1.18696 0.14247 0.21138
 C83 C 0.03574 0.92607 0.86224
 H84 H -0.00679 0.88850 0.86113
 C85 C 0.07878 0.92222 0.87428
 H86 H 0.06898 0.88161 0.88267
 C87 C 0.10017 1.02444 0.85226
 H88 H 0.10845 1.06370 0.84325
 C89 C 0.14457 1.02267 0.86443
 H90 H 0.18695 1.06081 0.86482
 N91 N 0.04711 0.97634 0.85140
 C92 C -0.12841 0.94493 0.84250
 H93 H -0.13505 0.94116 0.82561
 C94 C -0.17313 0.93776 0.85507
 H95 H -0.21372 0.92853 0.84743
 C96 C -0.06564 0.96613 0.87229
 H97 H -0.02347 0.97778 0.87893
 C98 C -0.10829 0.96155 0.88530
 H99 H -0.09830 0.96769 0.90197
 Zn100 Zn -0.01479 0.97081 0.83405
 N101 N -0.07633 0.95758 0.85132
 C102 C -0.08837 0.86294 0.81473
 N103 N -0.03439 0.90909 0.81667
 C104 C 0.01107 0.91267 0.80671
 C105 C 0.00340 0.86902 0.79415
 C106 C -0.09831 0.81882 0.80185
 C107 C 0.02186 1.08879 0.82653
 C108 C 0.03114 1.13855 0.81444
 C109 C 0.00684 1.08517 0.78302
 C110 C -0.00152 1.03665 0.79567
 N111 N 0.00569 1.03917 0.81701
 H112 H -0.12384 0.85994 0.82313
 H113 H 0.05375 0.94935 0.80882
 H114 H 0.04090 0.87246 0.78703
 H115 H -0.14194 0.78347 0.80008
 H116 H 0.02604 1.08922 0.84358
 H117 H 0.04273 1.17736 0.82229
 H118 H 0.00041 1.08224 0.76607
 H119 H -0.01552 0.99654 0.78843
 C120 C -0.16347 0.94669 0.87687
 C121 C 0.13413 0.97069 0.87530
 C122 C 0.02274 1.13677 0.79242
 C123 C -0.05199 0.82127 0.79137
 C124 C 0.62650 -0.00820 0.02202
 C125 C 0.64656 -0.01615 0.00333
 C126 C 0.61814 -0.01936 -0.01615
 C127 C 0.56890 -0.01244 -0.01711
 C128 C 0.54610 -0.00769 0.00180
 C129 C 0.57561 -0.00414 0.02136
 C130 C 0.55382 0.00436 0.03960
 C131 C 0.50107 0.00286 0.03909
 C132 C 0.46873 -0.00558 0.02020
 C133 C 0.49314 -0.00727 0.00118
 C134 C 0.54230 -0.00919 -0.03649
 C135 C 0.49094 -0.00793 -0.03713
 C136 C 0.46409 -0.00992 -0.01841
 C137 C 0.40940 -0.01365 -0.01875
 C138 C 0.38487 -0.01429 0.00027
 C139 C 0.41304 -0.01152 0.01976
 H140 H 0.57704 0.01190 0.05454
 H141 H 0.48604 0.00886 0.05365
 H142 H 0.56105 -0.00733 -0.05142
 H143 H 0.47238 -0.00566 -0.05250
 H144 H 0.68366 -0.02237 0.00416
 H145 H 0.34162 -0.02038 -0.00002
 C146 C -0.02977 0.39146 0.64780
 C147 C -0.02269 0.36645 0.66717
 C148 C -0.01469 0.39286 0.68619
 C149 C -0.01820 0.44382 0.68610
 C150 C -0.02191 0.47150 0.66656
 C151 C -0.02531 0.44649 0.64730
 C152 C -0.02334 0.47756 0.62811
 C153 C -0.02010 0.53102 0.62784
 C154 C -0.01919 0.55542 0.64675
 C155 C -0.02204 0.52445 0.66627
 C156 C -0.01860 0.46756 0.70500
 C157 C -0.02213 0.51764 0.70471
 C158 C -0.02485 0.54635 0.68551
 C159 C -0.02945 0.59684 0.68498
 C160 C -0.02331 0.62847 0.66565
 C161 C -0.01602 0.60973 0.64668
 H162 H -0.02302 0.46146 0.61307
 H163 H -0.01963 0.55244 0.61259
 H164 H -0.01751 0.44692 0.72026
 H165 H -0.02144 0.53425 0.71976
 H166 H -0.02316 0.32576 0.66746
 H167 H -0.02395 0.66860 0.66536
 C168 C 0.41922 0.40533 0.31663
 C169 C 0.38891 0.38360 0.33556
 C170 C 0.40732 0.41502 0.35370
 C171 C 0.45880 0.46927 0.35312
 C172 C 0.48807 0.49348 0.33375
 C173 C 0.46837 0.46138 0.31544
 C174 C 0.49782 0.48652 0.29638
 C175 C 0.54561 0.54183 0.29533
 C176 C 0.56506 0.57503 0.31315
 C177 C 0.53675 0.55020 0.33266
 C178 C 0.48242 0.49944 0.37147
 C179 C 0.53092 0.55427 0.37053
 C180 C 0.55694 0.58186 0.35110
 C181 C 0.60348 0.63960 0.34968
 C182 C 0.63072 0.66335 0.33023
 C183 C 0.61248 0.63211 0.31206
 H184 H 0.48389 0.46401 0.28195
 H185 H 0.56704 0.55819 0.28031
 H186 H 0.46400 0.48060 0.38684
 H187 H 0.54781 0.57452 0.38528
 H188 H 0.34988 0.34173 0.33609
 H189 H 0.66582 0.70768 0.32903
 C190 C -0.03629 0.24172 0.58413
 C191 C -0.07955 0.25429 0.57926
 C192 C -0.11683 0.23255 0.56205
 C193 C -0.10909 0.19652 0.54932
 C194 C -0.06527 0.18193 0.55418
 C195 C -0.02864 0.20505 0.57204
 O196 O -0.00501 0.26729 0.60097
 C197 C -0.02917 0.29654 0.60691
 C198 C -0.07526 0.28972 0.59427
 C199 C -0.10803 0.31494 0.59814
 C200 C -0.09261 0.34850 0.61576
 C201 C -0.04412 0.35765 0.62871
 C202 C -0.01224 0.33083 0.62418
 H203 H -0.15026 0.24350 0.55838
 H204 H -0.13682 0.18089 0.53554
 H205 H 0.00457 0.19446 0.57668
 H206 H -0.14478 0.30816 0.58821
 H207 H -0.11865 0.36705 0.61946
 H208 H 0.02439 0.33617 0.63391
 C209 C 0.79232 0.76015 0.24905
 C210 C 0.74079 0.75147 0.24017
 C211 C 0.73672 0.77394 0.22004
 C212 C 0.78794 0.80727 0.20871
 C213 C 0.84194 0.81768 0.21762
 C214 C 0.84378 0.79314 0.23807
 O215 O 0.78701 0.73634 0.26857
 C216 C 0.73095 0.71232 0.27211
 C217 C 0.70072 0.72044 0.25525
 C218 C 0.64183 0.70086 0.25590
 C219 C 0.61294 0.67151 0.27466
 C220 C 0.64302 0.66168 0.29210
 C221 C 0.70298 0.68283 0.29082
 H222 H 0.69575 0.76699 0.21346
 H223 H 0.78568 0.82661 0.19330
 H224 H 0.88413 0.80022 0.24536
 H225 H 0.61914 0.70858 0.24255
 H226 H 0.56730 0.65662 0.27572
 H227 H 0.72706 0.67683 0.30407
 C228 C 0.25460 -0.00320 -0.08538
 C229 C 0.26048 -0.05040 -0.08801
 C230 C 0.22840 -0.09054 -0.10281
 C231 C 0.18801 -0.08214 -0.11523
 C232 C 0.18049 -0.03423 -0.11266
 C233 C 0.21504 0.00634 -0.09774
 O234 O 0.28709 0.02797 -0.06967
 C235 C 0.31394 -0.00025 -0.06222
 C236 C 0.29919 -0.04847 -0.07292
 C237 C 0.31985 -0.08602 -0.06710
 C238 C 0.35718 -0.07341 -0.04947
 C239 C 0.37345 -0.02370 -0.03826
 C240 C 0.35132 0.01329 -0.04473
 H241 H 0.23344 -0.12762 -0.10445
 H242 H 0.16203 -0.11331 -0.12668
 H243 H 0.20946 0.04266 -0.09518
 H244 H 0.30671 -0.12429 -0.07553
 H245 H 0.37266 -0.10280 -0.04427
 H246 H 0.36199 0.05069 -0.03611
 C247 C -0.01095 0.78072 0.58207
 C248 C 0.03540 0.77353 0.57890
 C249 C 0.07640 0.80607 0.56350
 C250 C 0.06925 0.84767 0.55089
 C251 C 0.02205 0.85625 0.55401
 C252 C -0.01863 0.82199 0.56985
 O253 O -0.04456 0.74610 0.59767
 C254 C -0.01879 0.71649 0.60457
 C255 C 0.03040 0.73166 0.59367
 C256 C 0.06517 0.70748 0.59885
 C257 C 0.04878 0.66636 0.61607
 C258 C -0.00208 0.64962 0.62744
 C259 C -0.03629 0.67518 0.62152
 H260 H 0.11269 0.79985 0.56135
 H261 H 0.10094 0.87383 0.53895
 H262 H -0.05540 0.82707 0.57250
 H263 H 0.10416 0.72068 0.59027
 H264 H 0.07619 0.64832 0.62083
 H265 H -0.07474 0.66402 0.63013
 C266 C 0.27104 0.25443 0.25121
 C267 C 0.32384 0.25751 0.25076
 C268 C 0.33519 0.22585 0.23745
 C269 C 0.29013 0.18905 0.22422
 C270 C 0.23488 0.18434 0.22457
 C271 C 0.22562 0.21822 0.23814
 O272 O 0.26880 0.28690 0.26543
 C273 C 0.32128 0.31090 0.27415
 C274 C 0.35663 0.29431 0.26575
 C275 C 0.41275 0.31276 0.27307
 C276 C 0.43326 0.34987 0.28973
 C277 C 0.39783 0.36808 0.29847
 C278 C 0.34093 0.34803 0.29061
 H279 H 0.37707 0.22893 0.23739
 H280 H 0.29823 0.16407 0.21373
 H281 H 0.18385 0.21506 0.23901
 H282 H 0.43948 0.29849 0.26640
 H283 H 0.47646 0.36414 0.29598
 H284 H 0.31278 0.36061 0.29726
 C285 C 0.76227 -0.03073 -0.07988
 C286 C 0.70584 -0.07066 -0.08414
 C287 C 0.68958 -0.10517 -0.10122
 C288 C 0.73330 -0.09837 -0.11443
 C289 C 0.79255 -0.05856 -0.11012
 C290 C 0.80657 -0.02436 -0.09239
 O291 O 0.76850 -0.00085 -0.06330
 C292 C 0.71477 -0.02283 -0.05681
 C293 C 0.67485 -0.06616 -0.06887
 C294 C 0.61632 -0.09656 -0.06439
 C295 C 0.59822 -0.08134 -0.04684
 C296 C 0.63818 -0.03495 -0.03469
 C297 C 0.69752 -0.00590 -0.03967
 H298 H 0.64476 -0.13619 -0.10431
 H299 H 0.72072 -0.12621 -0.12744
 H300 H 0.85046 0.00812 -0.08876
 H301 H 0.58582 -0.13133 -0.07384
 H302 H 0.55305 -0.10559 -0.04272
 H303 H 0.72923 0.02887 -0.03048
 C304 C 0.26059 -0.00976 0.08213
 C305 C 0.27372 -0.05196 0.08878
 C306 C 0.25073 -0.08777 0.10694
 C307 C 0.21292 -0.07950 0.11879
 C308 C 0.19847 -0.03627 0.11226
 C309 C 0.22277 -0.00114 0.09353
 O310 O 0.28677 0.01947 0.06440
 C311 C 0.31713 -0.00482 0.05975
 C312 C 0.31056 -0.04884 0.07413
 C313 C 0.33725 -0.08117 0.07197
 C314 C 0.37183 -0.06776 0.05421
 C315 C 0.37992 -0.02203 0.03927
 C316 C 0.35188 0.00971 0.04212
 H317 H 0.26185 -0.12060 0.11191
 H318 H 0.19580 -0.10615 0.13323
 H319 H 0.21224 0.03168 0.08783
 H320 H 0.33082 -0.11614 0.08334
 H321 H 0.39156 -0.09357 0.05185
 H322 H 0.35637 0.04406 0.03077
 C323 C 0.74940 0.80290 0.41245
 C324 C 0.69305 0.78542 0.41664
 C325 C 0.67748 0.80368 0.43371
 C326 C 0.72178 0.84162 0.44698
 C327 C 0.78128 0.86249 0.44274
 C328 C 0.79425 0.84203 0.42490
 O329 O 0.75509 0.77848 0.39606
 C330 C 0.70106 0.74531 0.38961
 C331 C 0.66139 0.74855 0.40147
 C332 C 0.60248 0.71876 0.39695
 C333 C 0.58380 0.68388 0.37963
 C334 C 0.62364 0.67744 0.36782
 C335 C 0.68329 0.70951 0.37278
 H336 H 0.63268 0.78908 0.43677
 H337 H 0.70899 0.85684 0.45979
 H338 H 0.83774 0.85308 0.42125
 H339 H 0.57211 0.72285 0.40623
 H340 H 0.53830 0.66150 0.37548
 H341 H 0.71490 0.70643 0.36386
 C342 C -0.00600 0.22922 0.75106
 C343 C 0.04028 0.28294 0.75445
 C344 C 0.08197 0.29201 0.77009
 C345 C 0.07567 0.24370 0.78270
 C346 C 0.02859 0.18773 0.77934
 C347 C -0.01287 0.18072 0.76329
 O348 O -0.04031 0.22960 0.73525
 C349 C -0.01507 0.28475 0.72841
 C350 C 0.03446 0.31925 0.73958
 C351 C 0.06880 0.37806 0.73451
 C352 C 0.05154 0.40213 0.71715
 C353 C 0.00028 0.36752 0.70551
 C354 C -0.03341 0.30791 0.71130
 H355 H 0.11819 0.33465 0.77241
 H356 H 0.10794 0.24968 0.79481
 H357 H -0.04957 0.13871 0.76045
 H358 H 0.10808 0.40422 0.74331
 H359 H 0.07856 0.44746 0.71250
 H360 H -0.07215 0.28026 0.70249
 C361 C 0.80848 0.03925 0.08596
 C362 C 0.75692 -0.00316 0.09439
 C363 C 0.75301 -0.03032 0.11433
 C364 C 0.80444 -0.01374 0.12593
 C365 C 0.85848 0.02885 0.11741
 C366 C 0.86027 0.05608 0.09716
 O367 O 0.80277 0.05858 0.06655
 C368 C 0.74647 0.02743 0.06262
 C369 C 0.71655 -0.01129 0.07909
 C370 C 0.65769 -0.05049 0.07788
 C371 C 0.62840 -0.04937 0.05900
 C372 C 0.65784 -0.00843 0.04205
 C373 C 0.71795 0.03003 0.04386
 H374 H 0.71198 -0.06387 0.12056
 H375 H 0.80238 -0.03584 0.14120
 H376 H 0.90081 0.08835 0.09016
 H377 H 0.63536 -0.08151 0.09087
 H378 H 0.58283 -0.08037 0.05750
 H379 H 0.74175 0.06069 0.03097
 C380 C 0.24702 0.26072 0.41951
 C381 C 0.25022 0.31351 0.41956
 C382 C 0.21525 0.32333 0.43200
 C383 C 0.17479 0.27665 0.44474
 C384 C 0.16981 0.22138 0.44476
 C385 C 0.20722 0.21368 0.43216
 O386 O 0.28246 0.26003 0.40582
 C387 C 0.30843 0.31349 0.39702
 C388 C 0.29017 0.34788 0.40488
 C389 C 0.30933 0.40443 0.39715
 C390 C 0.34882 0.42641 0.38056
 C391 C 0.36889 0.39211 0.37230
 C392 C 0.34821 0.33472 0.38068
 H393 H 0.21837 0.36520 0.43167
 H394 H 0.14696 0.28342 0.45447
 H395 H 0.20385 0.17188 0.43157
 H396 H 0.29343 0.43024 0.40331
 H397 H 0.36300 0.46977 0.37385
 H398 H 0.36181 0.30719 0.37435
 C399 C -0.03316 0.74231 0.74822
 C400 C -0.07651 0.68677 0.75288
 C401 C -0.11335 0.67205 0.76978
 C402 C -0.10496 0.71635 0.78243
 C403 C -0.06090 0.77444 0.77781
 C404 C -0.02486 0.78712 0.76024
 O405 O -0.00238 0.74728 0.73166
 C406 C -0.02693 0.69368 0.72569
 C407 C -0.07277 0.65499 0.73804
 C408 C -0.10581 0.59689 0.73406
 C409 C -0.09099 0.57804 0.71665
 C410 C -0.04288 0.61684 0.70399
 C411 C -0.01063 0.67563 0.70864
 H412 H -0.14689 0.62790 0.77328
 H413 H -0.13229 0.70494 0.79599
 H414 H 0.00849 0.83066 0.75580
 H415 H -0.14232 0.56738 0.74377
 H416 H -0.11726 0.53337 0.71286
 H417 H 0.02573 0.70650 0.69912
   
