data_POSCAR
  _audit_creation_date              2014-09-24
  _audit_creation_method            'ToBaCCo'
  _symmetry_space_group_name_H-M    'P1'
  _symmetry_Int_Tables_number       1
  _symmetry_cell_setting            triclinic
  loop_
  _symmetry_equiv_pos_as_xyz
 x,y,z
_cell_length_a 28.4293
_cell_length_b 28.4365
_cell_length_c 32.0594
_cell_angle_alpha 90.040300
_cell_angle_beta 89.950100
_cell_angle_gamma 120.150100
loop_
  _atom_site_label
  _atom_site_type_symbol
  _atom_site_fract_x
  _atom_site_fract_y
  _atom_site_fract_z
C1 C -0.00042 0.50240 1.36153
 C2 C 0.04904 0.52439 1.34030
 C3 C 0.04913 0.52216 1.29658
 C4 C 0.00017 0.50148 1.27339
 C5 C -0.04896 0.48238 1.29613
 C6 C -0.04948 0.48123 1.33988
 C7 C 0.00029 0.49991 1.22616
 C8 C -0.04872 0.46981 1.20328
 C9 C -0.04892 0.47058 1.15958
 C10 C 0.00016 0.49865 1.13797
 C11 C 0.04940 0.52621 1.15939
 C12 C 0.04936 0.52837 1.20305
 H13 H -0.00068 0.50232 1.39539
 H14 H 0.08769 0.53611 1.28143
 H15 H -0.08724 0.46832 1.28052
 H16 H -0.08723 0.44542 1.21861
 H17 H 0.00009 0.49847 1.10414
 H18 H 0.08800 0.55298 1.21811
 C19 C 0.49723 0.49764 1.36330
 C20 C 0.47058 0.52018 1.34174
 C21 C 0.47035 0.51959 1.29796
 C22 C 0.49899 0.49913 1.27501
 C23 C 0.52559 0.47669 1.29816
 C24 C 0.52341 0.47445 1.34190
 C25 C 0.50093 0.50108 1.22764
 C26 C 0.52328 0.47437 1.20437
 C27 C 0.52532 0.47654 1.16070
 C28 C 0.50252 0.50292 1.13936
 C29 C 0.48017 0.52956 1.16099
 C30 C 0.48057 0.52981 1.20471
 H31 H 0.49701 0.49754 1.39716
 H32 H 0.44754 0.53528 1.28257
 H33 H 0.54882 0.46126 1.28304
 H34 H 0.53890 0.45111 1.21917
 H35 H 0.50277 0.50328 1.10554
 H36 H 0.46479 0.55275 1.21986
 C37 C 0.50209 1.00110 1.36382
 C38 C 0.47459 0.95185 1.34238
 C39 C 0.47241 0.95182 1.29878
 C40 C 0.50100 1.00075 1.27571
 C41 C 0.53126 1.04978 1.29845
 C42 C 0.53039 1.05026 1.34219
 C43 C 0.49937 1.00070 1.22858
 C44 C 0.51808 1.04969 1.20579
 C45 C 0.51895 1.04981 1.16214
 C46 C 0.49809 1.00092 1.14055
 C47 C 0.47672 0.95181 1.16188
 C48 C 0.47895 0.95169 1.20548
 H49 H 0.50202 1.00102 1.39766
 H50 H 0.44766 0.91322 1.28370
 H51 H 0.55577 1.08798 1.28279
 H52 H 0.53205 1.08817 1.22111
 H53 H 0.49794 1.00104 1.10671
 H54 H 0.46508 0.91305 1.22046
 C55 C 1.00089 0.49740 0.63885
 C56 C 0.95176 0.47591 0.66026
 C57 C 0.95170 0.47812 0.70388
 C58 C 1.00072 0.49872 0.72696
 C59 C 1.04978 0.51760 0.70410
 C60 C 1.05004 0.51846 0.66033
 C61 C 1.00071 0.50042 0.77416
 C62 C 1.04978 0.53032 0.79698
 C63 C 1.05000 0.52973 0.84068
 C64 C 1.00092 0.50200 0.86233
 C65 C 0.95166 0.47462 0.84094
 C66 C 0.95165 0.47231 0.79730
 H67 H 1.00073 0.49716 0.60500
 H68 H 0.91303 0.46408 0.71888
 H69 H 1.08813 0.53170 0.71959
 H70 H 1.08831 0.55443 0.78161
 H71 H 1.00103 0.50231 0.89615
 H72 H 0.91296 0.44784 0.78228
 C73 C 0.50181 0.50151 0.63800
 C74 C 0.52872 0.47948 0.65957
 C75 C 0.52946 0.48036 0.70323
 C76 C 0.50090 0.50086 0.72619
 C77 C 0.47390 0.52290 0.70308
 C78 C 0.47567 0.52452 0.65944
 C79 C 0.49943 0.49939 0.77344
 C80 C 0.47721 0.52621 0.79662
 C81 C 0.47552 0.52435 0.84026
 C82 C 0.49862 0.49832 0.86163
 C83 C 0.52087 0.47163 0.83999
 C84 C 0.52008 0.47096 0.79632
 H85 H 0.50183 0.50143 0.60417
 H86 H 0.55263 0.46485 0.71833
 H87 H 0.45078 0.53863 0.71798
 H88 H 0.46140 0.54926 0.78178
 H89 H 0.49863 0.49822 0.89546
 H90 H 0.53574 0.44792 0.78117
 C91 C 0.49683 -0.00216 0.63630
 C92 C 0.52402 0.04719 0.65767
 C93 C 0.52617 0.04726 0.70134
 C94 C 0.49822 -0.00174 0.72454
 C95 C 0.46845 -0.05091 0.70173
 C96 C 0.46899 -0.05140 0.65792
 C97 C 0.50000 -0.00158 0.77185
 C98 C 0.48092 -0.05058 0.79484
 C99 C 0.48031 -0.05064 0.83864
 C100 C 0.50167 -0.00137 0.86003
 C101 C 0.52328 0.04770 0.83855
 C102 C 0.52097 0.04757 0.79491
 H103 H 0.49679 -0.00210 0.60246
 H104 H 0.55045 0.08600 0.71632
 H105 H 0.44449 -0.08924 0.71735
 H106 H 0.46654 -0.08905 0.77944
 H107 H 0.50206 -0.00107 0.89387
 H108 H 0.53524 0.08622 0.77987
 O109 O 0.41689 0.65450 0.96672
 O110 O 0.41586 0.74425 0.95120
 C111 C 0.39235 0.77137 0.94475
 O112 O 0.35137 0.76475 0.96555
 O113 O 0.26090 0.67335 0.95113
 C114 C 0.23345 0.62245 0.94532
 O115 O 0.24052 0.58845 0.96615
 O116 O 0.33193 0.58948 0.95212
 C117 C 0.38280 0.61333 0.94601
 O118 O 0.41450 0.67211 1.04889
 O119 O 0.41844 0.76432 1.03349
 C120 C 0.38486 0.77177 1.05449
 O121 O 0.33405 0.74582 1.04815
 O122 O 0.24124 0.65734 1.03347
 C123 C 0.23295 0.61602 1.05450
 O124 O 0.25916 0.59136 1.04880
 O125 O 0.34816 0.58755 1.03480
 C126 C 0.38987 0.62132 1.05531
 Cr127 Cr 0.41352 0.70738 1.00007
 Cr128 Cr 0.29835 0.70891 0.99959
 Cr129 Cr 0.29640 0.59205 1.00045
 O130 O 0.33605 0.66939 0.99998
 O131 O 0.58696 0.32935 0.95111
 O132 O 0.58236 0.23679 0.96637
 C133 C 0.61576 0.22904 0.94538
 O134 O 0.66662 0.25513 0.95159
 O135 O 0.75954 0.34357 0.96638
 C136 C 0.76812 0.38524 0.94572
 O137 O 0.74218 0.41013 0.95173
 O138 O 0.65313 0.41383 0.96577
 C139 C 0.61161 0.38018 0.94502
 O140 O 0.58412 0.34685 1.03327
 O141 O 0.58507 0.25709 1.04861
 C142 C 0.60855 0.22997 1.05505
 O143 O 0.64942 0.23633 1.03423
 O144 O 0.74016 0.32733 1.04872
 C145 C 0.76760 0.37817 1.05484
 O146 O 0.76047 0.41236 1.03434
 O147 O 0.66903 0.41132 1.04847
 C148 C 0.61811 0.38770 1.05435
 Cr149 Cr 0.58753 0.29393 0.99985
 Cr150 Cr 0.70249 0.29200 1.00022
 Cr151 Cr 0.70474 0.40908 1.00008
 O152 O 0.66500 0.33173 1.00009
 O153 O 0.67084 0.41336 0.54779
 O154 O 0.76317 0.41737 0.53254
 C155 C 0.77070 0.38390 0.55356
 O156 O 0.74451 0.33305 0.54738
 O157 O 0.65600 0.24014 0.53261
 C158 C 0.61424 0.23145 0.55326
 O159 O 0.58956 0.25762 0.54740
 O160 O 0.58623 0.34694 0.53372
 C161 C 0.62004 0.38866 0.55420
 O162 O 0.65345 0.41605 0.46567
 O163 O 0.74323 0.41470 0.45027
 C164 C 0.77054 0.39132 0.44407
 O165 O 0.76367 0.35023 0.46479
 O166 O 0.67230 0.25959 0.45034
 C167 C 0.62142 0.23226 0.44432
 O168 O 0.58730 0.23970 0.46470
 O169 O 0.58828 0.33125 0.45095
 C170 C 0.61202 0.38218 0.44507
 Cr171 Cr 0.70623 0.41244 0.49905
 Cr172 Cr 0.70770 0.29723 0.49878
 Cr173 Cr 0.59071 0.29535 0.49917
 O174 O 0.66813 0.33493 0.49891
 O175 O 0.34566 0.58318 0.53297
 O176 O 0.25565 0.58382 0.54823
 C177 C 0.22862 0.60738 0.55493
 O178 O 0.23541 0.64864 0.53453
 O179 O 0.32671 0.73929 0.54904
 C180 C 0.37761 0.76686 0.55491
 O181 O 0.41164 0.75963 0.53421
 O182 O 0.41043 0.66808 0.54804
 C183 C 0.38663 0.61718 0.55391
 O184 O 0.32867 0.58597 0.45075
 O185 O 0.23603 0.58163 0.46594
 C186 C 0.22803 0.61516 0.44541
 O187 O 0.25398 0.66596 0.45194
 O188 O 0.34269 0.75875 0.46669
 C189 C 0.38435 0.76739 0.44592
 O190 O 0.40914 0.74129 0.45159
 O191 O 0.41307 0.65222 0.46537
 C192 C 0.37957 0.61046 0.44476
 Cr193 Cr 0.29292 0.58658 0.49948
 Cr194 Cr 0.29113 0.70170 0.50052
 Cr195 Cr 0.40820 0.70382 0.49980
 O196 O 0.33078 0.66408 0.49995
 C197 C 0.44260 0.61769 0.37899
 C198 C 0.47764 0.59321 0.39380
 C199 C 0.44489 0.54387 0.36509
 C200 C 0.41008 0.56808 0.34979
 C201 C 0.40401 0.51329 0.40038
 C202 C 0.43668 0.56278 0.42927
 C203 C 0.40195 0.58697 0.41426
 C204 C 0.36898 0.53773 0.38557
 H205 H 0.45824 0.66089 0.37051
 H206 H 0.52259 0.61595 0.39711
 H207 H 0.39857 0.57051 0.31713
 H208 H 0.38817 0.47013 0.40912
 H209 H 0.44771 0.56083 0.46213
 H210 H 0.32401 0.51511 0.38239
 C211 C 0.45471 0.82932 0.38533
 C212 C 0.42306 0.84073 0.35118
 C213 C 0.44867 0.89980 0.36691
 C214 C 0.48054 0.88880 0.40059
 C215 C 0.40102 0.88359 0.39721
 C216 C 0.37504 0.82395 0.38196
 C217 C 0.40711 0.81336 0.41562
 C218 C 0.43271 0.87236 0.43109
 H219 H 0.47660 0.80657 0.38068
 H220 H 0.41898 0.82740 0.31819
 H221 H 0.52419 0.91588 0.40819
 H222 H 0.37913 0.90632 0.40193
 H223 H 0.33136 0.79664 0.37459
 H224 H 0.43658 0.88527 0.46413
 C225 C 0.12350 0.56029 0.42873
 C226 C 0.10912 0.59235 0.39737
 C227 C 0.09809 0.54895 0.36402
 C228 C 0.11225 0.51685 0.39519
 C229 C 0.15771 0.58140 0.34925
 C230 C 0.16916 0.62496 0.38312
 C231 C 0.18302 0.59265 0.41427
 C232 C 0.17243 0.54952 0.38093
 H233 H 0.10965 0.55180 0.46165
 H234 H 0.08278 0.60994 0.40409
 H235 H 0.08853 0.47217 0.40001
 H236 H 0.17234 0.59042 0.31653
 H237 H 0.19301 0.66966 0.37844
 H238 H 0.19910 0.53224 0.37451
 C239 C 0.62076 0.44701 0.38065
 C240 C 0.57277 0.41542 0.34991
 C241 C 0.54727 0.44904 0.36534
 C242 C 0.59493 0.48082 0.39560
 C243 C 0.51525 0.40631 0.39923
 C244 C 0.54103 0.37252 0.38431
 C245 C 0.58863 0.40453 0.41454
 C246 C 0.56311 0.43805 0.42968
 H247 H 0.66443 0.46345 0.37329
 H248 H 0.57702 0.40564 0.31710
 H249 H 0.61703 0.52558 0.40016
 H250 H 0.47160 0.38963 0.40685
 H251 H 0.51905 0.32774 0.37991
 H252 H 0.55919 0.44731 0.46268
 C253 C 0.56377 0.12743 0.42920
 C254 C 0.52388 0.11723 0.39308
 C255 C 0.55664 0.09977 0.36532
 C256 C 0.59645 0.10973 0.40125
 C257 C 0.59261 0.15870 0.34984
 C258 C 0.56007 0.17663 0.37811
 C259 C 0.59966 0.18627 0.41403
 C260 C 0.63268 0.16917 0.38628
 H261 H 0.55171 0.11471 0.46199
 H262 H 0.47886 0.09551 0.39581
 H263 H 0.61133 0.08192 0.41069
 H264 H 0.60504 0.17233 0.31722
 H265 H 0.54536 0.20466 0.36892
 H266 H 0.67771 0.19107 0.38373
 C267 C 0.87502 0.43964 0.42764
 C268 C 0.88488 0.40893 0.39211
 C269 C 0.90119 0.45800 0.36325
 C270 C 0.89151 0.48885 0.39859
 C271 C 0.84188 0.43359 0.34840
 C272 C 0.82510 0.38425 0.37777
 C273 C 0.81579 0.41522 0.41312
 C274 C 0.83168 0.46417 0.38428
 H275 H 0.88844 0.44193 0.46043
 H276 H 0.90709 0.38626 0.39524
 H277 H 0.91913 0.53210 0.40706
 H278 H 0.82766 0.43092 0.31580
 H279 H 0.79726 0.34096 0.36956
 H280 H 0.80926 0.48664 0.38134
 C281 C 0.62813 0.45734 1.11638
 C282 C 0.59487 0.48393 1.10215
 C283 C 0.55183 0.45139 1.13571
 C284 C 0.58487 0.42503 1.15043
 C285 C 0.51994 0.40463 1.10474
 C286 C 0.56301 0.43701 1.07100
 C287 C 0.59597 0.41064 1.08545
 C288 C 0.55315 0.37792 1.11900
 H289 H 0.67288 0.47884 1.12089
 H290 H 0.61190 0.52781 1.09531
 H291 H 0.59399 0.42000 1.18323
 H292 H 0.47520 0.38306 1.10012
 H293 H 0.55412 0.44191 1.03812
 H294 H 0.53629 0.33402 1.12562
 C295 C 0.82255 0.43968 1.12120
 C296 C 0.83990 0.40718 1.14998
 C297 C 0.89907 0.44284 1.13496
 C298 C 0.88219 0.47552 1.10664
 C299 C 0.88942 0.40277 1.09925
 C300 C 0.82974 0.36682 1.11379
 C301 C 0.81323 0.39981 1.08550
 C302 C 0.87234 0.43540 1.07076
 H303 H 0.79455 0.45464 1.12992
 H304 H 0.82626 0.39532 1.18268
 H305 H 0.90417 0.52052 1.10381
 H306 H 0.91729 0.38773 1.09035
 H307 H 0.80765 0.32182 1.11649
 H308 H 0.88559 0.44715 1.03800
 C309 C 0.53641 0.17028 1.11557
 C310 C 0.51168 0.11022 1.10193
 C311 C 0.54296 0.10136 1.13730
 C312 C 0.56747 0.16089 1.15146
 C313 C 0.59170 0.11709 1.10816
 C314 C 0.56053 0.12609 1.07261
 C315 C 0.58504 0.18555 1.08648
 C316 C 0.61648 0.17709 1.12184
 H317 H 0.51396 0.19273 1.11829
 H318 H 0.46833 0.08230 1.09395
 H319 H 0.57027 0.17526 1.18405
 H320 H 0.61429 0.09478 1.10530
 H321 H 0.55788 0.11204 1.03995
 H322 H 0.65987 0.20516 1.12962
 C323 C 0.43742 0.56453 1.07179
 C324 C 0.48651 0.59733 1.10095
 C325 C 0.45551 0.55669 1.13624
 C326 C 0.40654 0.52384 1.10725
 C327 C 0.43116 0.59156 1.15100
 C328 C 0.46197 0.63247 1.11523
 C329 C 0.41308 0.59935 1.08628
 C330 C 0.38189 0.55892 1.12154
 H331 H 0.43980 0.55338 1.03902
 H332 H 0.52979 0.61302 1.09261
 H333 H 0.38388 0.47888 1.10412
 H334 H 0.42855 0.60291 1.18369
 H335 H 0.48456 0.67744 1.11828
 H336 H 0.33858 0.54335 1.12968
 C337 C 0.12803 0.56701 1.07018
 C338 C 0.11244 0.51994 1.10122
 C339 C 0.10139 0.55215 1.13464
 C340 C 0.11678 0.59906 1.10379
 C341 C 0.16071 0.57863 1.14991
 C342 C 0.17217 0.54663 1.11603
 C343 C 0.18728 0.59349 1.08520
 C344 C 0.17666 0.62591 1.11859
 H345 H 0.11469 0.56228 1.03720
 H346 H 0.08564 0.47609 1.09414
 H347 H 0.09361 0.62048 1.09892
 H348 H 0.17442 0.58352 1.18284
 H349 H 0.19536 0.52523 1.12083
 H350 H 0.20368 0.66979 1.12544
 C351 C 0.37503 0.82937 1.11771
 C352 C 0.41893 0.84060 1.15116
 C353 C 0.45100 0.90033 1.13685
 C354 C 0.40732 0.88954 1.10388
 C355 C 0.48302 0.88680 1.10508
 C356 C 0.45074 0.82649 1.11891
 C357 C 0.40730 0.81618 1.08597
 C358 C 0.43931 0.87583 1.07193
 H359 H 0.33036 0.80528 1.12257
 H360 H 0.41053 0.82605 1.18391
 H361 H 0.38959 0.91589 1.09785
 H362 H 0.52767 0.91083 1.10013
 H363 H 0.46822 0.79989 1.12470
 H364 H 0.44745 0.89003 1.03909
 C365 C 0.63139 0.46117 0.61366
 C366 C 0.59596 0.48534 0.59934
 C367 C 0.55567 0.45467 0.63489
 C368 C 0.59082 0.43070 0.64969
 C369 C 0.52266 0.40532 0.60629
 C370 C 0.56302 0.43586 0.57056
 C371 C 0.59811 0.41190 0.58508
 C372 C 0.55803 0.38105 0.62061
 H373 H 0.67639 0.48390 0.61643
 H374 H 0.61142 0.52847 0.59074
 H375 H 0.60249 0.42857 0.68236
 H376 H 0.47766 0.38253 0.60343
 H377 H 0.55150 0.43773 0.53782
 H378 H 0.54269 0.33787 0.62899
 C379 C 0.56593 0.12635 0.56859
 C380 C 0.59759 0.11545 0.60272
 C381 C 0.54982 0.09926 0.63293
 C382 C 0.51799 0.10994 0.59899
 C383 C 0.57526 0.15845 0.64836
 C384 C 0.62339 0.17519 0.61769
 C385 C 0.59137 0.18547 0.58377
 C386 C 0.54364 0.16954 0.61396
 H387 H 0.56217 0.11315 0.53563
 H388 H 0.61965 0.09284 0.59822
 H389 H 0.47438 0.08275 0.59133
 H390 H 0.57921 0.17199 0.68129
 H391 H 0.66703 0.20259 0.62512
 H392 H 0.52159 0.19217 0.61838
 C393 C 0.82600 0.44981 0.61796
 C394 C 0.84043 0.41799 0.64991
 C395 C 0.90010 0.45017 0.63533
 C396 C 0.88623 0.48218 0.60386
 C397 C 0.88909 0.40658 0.60219
 C398 C 0.82900 0.37420 0.61629
 C399 C 0.81546 0.40645 0.58484
 C400 C 0.87506 0.43856 0.57054
 H401 H 0.79941 0.46724 0.62409
 H402 H 0.82606 0.40947 0.68271
 H403 H 0.91018 0.52684 0.59896
 H404 H 0.91544 0.38892 0.59582
 H405 H 0.80501 0.32953 0.62110
 H406 H 0.88910 0.44685 0.53767
 C407 C 0.45667 0.62727 0.61539
 C408 C 0.42456 0.58432 0.64964
 C409 C 0.45046 0.55094 0.63468
 C410 C 0.48281 0.59367 0.60092
 C411 C 0.40329 0.51900 0.60408
 C412 C 0.37703 0.55256 0.61857
 C413 C 0.40956 0.59506 0.58482
 C414 C 0.43548 0.56176 0.57013
 H415 H 0.47841 0.67204 0.61974
 H416 H 0.41997 0.59373 0.68248
 H417 H 0.52659 0.61040 0.59377
 H418 H 0.38150 0.47424 0.59963
 H419 H 0.33323 0.53600 0.62550
 H420 H 0.43990 0.55255 0.53723
 C421 C 0.36661 0.82952 0.61376
 C422 C 0.40710 0.83996 0.64990
 C423 C 0.44273 0.89906 0.63463
 C424 C 0.40248 0.88911 0.59901
 C425 C 0.47536 0.88198 0.60633
 C426 C 0.43952 0.82242 0.62110
 C427 C 0.39950 0.81280 0.58547
 C428 C 0.43505 0.87182 0.57052
 H429 H 0.32161 0.80746 0.61660
 H430 H 0.39508 0.82611 0.68254
 H431 H 0.38729 0.91679 0.58996
 H432 H 0.52035 0.90386 0.60332
 H433 H 0.45455 0.79452 0.62989
 H434 H 0.44677 0.88489 0.53776
 C435 C 0.17517 0.61485 0.62172
 C436 C 0.11525 0.59035 0.60782
 C437 C 0.09913 0.54136 0.63673
 C438 C 0.15858 0.56560 0.65114
 C439 C 0.10818 0.51024 0.60126
 C440 C 0.12447 0.55937 0.57217
 C441 C 0.18385 0.58362 0.58623
 C442 C 0.16816 0.53475 0.61511
 H443 H 0.20326 0.65815 0.62975
 H444 H 0.09317 0.61317 0.60493
 H445 H 0.17312 0.56832 0.68365
 H446 H 0.08032 0.46698 0.59296
 H447 H 0.11067 0.55699 0.53948
 H448 H 0.19048 0.51216 0.61780
 C449 C 0.43816 0.56442 0.92969
 C450 C 0.40627 0.51709 0.89889
 C451 C 0.44900 0.54945 0.86511
 C452 C 0.48092 0.59662 0.89573
 C453 C 0.41558 0.57531 0.85022
 C454 C 0.37263 0.54319 0.88450
 C455 C 0.40483 0.59029 0.91507
 C456 C 0.44733 0.62282 0.88131
 H457 H 0.44731 0.56001 0.96261
 H458 H 0.38956 0.47332 0.90599
 H459 H 0.52570 0.61843 0.90015
 H460 H 0.40616 0.57988 0.81740
 H461 H 0.32784 0.52144 0.88018
 H462 H 0.46386 0.66661 0.87441
 C463 C 0.17835 0.56034 0.87924
 C464 C 0.11869 0.52483 0.89386
 C465 C 0.10200 0.55742 0.86525
 C466 C 0.16119 0.59274 0.85017
 C467 C 0.11183 0.59786 0.90070
 C468 C 0.12870 0.56533 0.92949
 C469 C 0.18783 0.60058 0.91468
 C470 C 0.17152 0.63347 0.88611
 H471 H 0.20622 0.54514 0.87074
 H472 H 0.09653 0.47986 0.89692
 H473 H 0.17484 0.60426 0.81744
 H474 H 0.08409 0.61315 0.90939
 H475 H 0.11546 0.55393 0.96228
 H476 H 0.19377 0.67845 0.88316
 C477 C 0.46425 0.83139 0.88392
 C478 C 0.43296 0.84081 0.84820
 C479 C 0.45754 0.90038 0.86242
 C480 C 0.48909 0.89148 0.89760
 C481 C 0.40897 0.88457 0.89181
 C482 C 0.38414 0.82454 0.87809
 C483 C 0.41581 0.81601 0.91327
 C484 C 0.44040 0.87550 0.92716
 H485 H 0.48674 0.80899 0.88097
 H486 H 0.42973 0.82602 0.81570
 H487 H 0.53250 0.91930 0.90551
 H488 H 0.38626 0.90673 0.89495
 H489 H 0.34071 0.79649 0.87043
 H490 H 0.44330 0.88955 0.95985
 C491 C 0.56404 0.43689 0.92894
 C492 C 0.59477 0.47769 0.89350
 C493 C 0.54575 0.44476 0.86460
 C494 C 0.51490 0.40404 0.89984
 C495 C 0.57021 0.41007 0.84965
 C496 C 0.61953 0.44279 0.87904
 C497 C 0.58848 0.40226 0.91425
 C498 C 0.53955 0.36907 0.88537
 H499 H 0.56173 0.44793 0.96176
 H500 H 0.61729 0.52265 0.89667
 H501 H 0.47162 0.38824 0.90824
 H502 H 0.57278 0.39880 0.81693
 H503 H 0.66284 0.45846 0.87085
 H504 H 0.51708 0.32411 0.88229
 C505 C 0.82922 0.45493 0.88442
 C506 C 0.88891 0.48117 0.89925
 C507 C 0.89970 0.44895 0.86568
 C508 C 0.84043 0.42293 0.85037
 C509 C 0.88397 0.40178 0.89633
 C510 C 0.87298 0.43383 0.93010
 C511 C 0.81378 0.40782 0.91505
 C512 C 0.82414 0.37540 0.88149
 H513 H 0.80628 0.47662 0.87977
 H514 H 0.91595 0.52494 0.90649
 H515 H 0.82677 0.41835 0.81745
 H516 H 0.90688 0.38008 0.90106
 H517 H 0.88625 0.43825 0.96308
 H518 H 0.79689 0.33160 0.87449
 C519 C 0.62528 0.17051 0.88254
 C520 C 0.59280 0.11044 0.89662
 C521 C 0.54921 0.09946 0.86350
 C522 C 0.58148 0.15911 0.84895
 C523 C 0.51728 0.11344 0.89505
 C524 C 0.56090 0.12459 0.92834
 C525 C 0.59310 0.18417 0.91406
 C526 C 0.54974 0.17365 0.88097
 H527 H 0.66996 0.19440 0.87768
 H528 H 0.61042 0.08405 0.90295
 H529 H 0.59001 0.17345 0.81615
 H530 H 0.47261 0.08960 0.90000
 H531 H 0.55261 0.11059 0.96122
 H532 H 0.53234 0.20027 0.87488
   
