data_POSCAR
  _audit_creation_date              2014-09-24
  _audit_creation_method            'ToBaCCo'
  _symmetry_space_group_name_H-M    'P1'
  _symmetry_Int_Tables_number       1
  _symmetry_cell_setting            triclinic
  loop_
  _symmetry_equiv_pos_as_xyz
 x,y,z
_cell_length_a 44.0363
_cell_length_b 44.1089
_cell_length_c 44.0408
_cell_angle_alpha 89.871200
_cell_angle_beta 89.876100
_cell_angle_gamma 90.054600
loop_
  _atom_site_label
  _atom_site_type_symbol
  _atom_site_fract_x
  _atom_site_fract_y
  _atom_site_fract_z
C1 C 0.16932 0.17038 0.20670
 C2 C 0.19552 0.15747 0.19359
 C3 C 0.20881 0.16982 0.16715
 C4 C 0.19545 0.19567 0.15395
 C5 C 0.16936 0.20898 0.16656
 C6 C 0.15655 0.19623 0.19290
 H7 H 0.20554 0.13757 0.20394
 H8 H 0.20526 0.20548 0.13361
 H9 H 0.13640 0.20648 0.20257
 C10 C -0.16673 0.83072 0.21107
 C11 C -0.19314 0.84345 0.19828
 C12 C -0.20689 0.83058 0.17257
 C13 C -0.19402 0.80449 0.15961
 C14 C -0.16772 0.79131 0.17189
 C15 C -0.15432 0.80453 0.19761
 H16 H -0.20302 0.86360 0.20822
 H17 H -0.20442 0.79449 0.13976
 H18 H -0.13402 0.79442 0.20702
 C19 C -0.17046 0.16746 -0.20924
 C20 C -0.15828 0.19390 -0.19610
 C21 C -0.17136 0.20683 -0.17005
 C22 C -0.19711 0.19309 -0.15707
 C23 C -0.20985 0.16665 -0.16962
 C24 C -0.19632 0.15415 -0.19578
 H25 H -0.13839 0.20445 -0.20605
 H26 H -0.20713 0.20303 -0.13694
 H27 H -0.20588 0.13380 -0.20563
 C28 C 0.17080 0.83232 -0.20796
 C29 C 0.19684 0.84448 -0.19414
 C30 C 0.20948 0.83103 -0.16800
 C31 C 0.19554 0.80485 -0.15594
 C32 C 0.16949 0.79233 -0.16941
 C33 C 0.15737 0.80622 -0.19543
 H34 H 0.20715 0.86463 -0.20375
 H35 H 0.20484 0.79419 -0.13584
 H36 H 0.13726 0.79676 -0.20589
 C37 C 0.17173 1.16974 0.79228
 C38 C 0.15868 1.19580 0.80517
 C39 C 0.17093 1.20894 0.83150
 C40 C 0.19669 1.19572 0.84485
 C41 C 0.21012 1.16966 0.83236
 C42 C 0.19748 1.15691 0.80603
 H43 H 0.13878 1.20578 0.79479
 H44 H 0.20622 1.20563 0.86518
 H45 H 0.20762 1.13679 0.79631
 C46 C 0.83178 0.83241 0.79010
 C47 C 0.84445 0.80599 0.80289
 C48 C 0.83162 0.79221 0.82883
 C49 C 0.80549 0.80529 0.84184
 C50 C 0.79241 0.83160 0.82951
 C51 C 0.80566 0.84490 0.80367
 H52 H 0.86457 0.79619 0.79270
 H53 H 0.79530 0.79510 0.86181
 H54 H 0.79560 0.86522 0.79422
 C55 C 0.16678 0.82916 1.20937
 C56 C 0.19327 0.84137 1.19611
 C57 C 0.20632 0.82828 1.17009
 C58 C 0.19266 0.80251 1.15733
 C59 C 0.16626 0.78986 1.17009
 C60 C 0.15358 0.80328 1.19610
 H61 H 0.20376 0.86128 1.20590
 H62 H 0.20252 0.79236 1.13724
 H63 H 0.13318 0.79356 1.20589
 C64 C 0.83194 1.16994 1.20906
 C65 C 0.84400 1.19613 1.19515
 C66 C 0.83057 1.20881 1.16902
 C67 C 0.80447 1.19485 1.15698
 C68 C 0.79199 1.16875 1.17043
 C69 C 0.80582 1.15655 1.19644
 H70 H 0.86410 1.20662 1.20461
 H71 H 0.79384 1.20420 1.13688
 H72 H 0.79622 1.13638 1.20674
 O73 O 0.45749 1.05353 1.05473
 O74 O 0.42423 1.02415 1.02749
 C75 C 0.43025 1.04539 1.04688
 O76 O 0.54304 1.05032 0.94658
 O77 O 0.57624 1.02342 0.97636
 C78 C 0.57026 1.04270 0.95494
 O79 O 0.45770 1.05297 0.94942
 O80 O 0.42430 1.02397 0.97718
 C81 C 0.43043 1.04498 0.95746
 O82 O 0.54291 1.05065 1.05759
 O83 O 0.57624 1.02291 1.02869
 C84 C 0.57016 1.04262 1.04963
 Zr85 Zr 0.50021 1.03634 1.04054
 O86 O 0.50370 1.08422 1.04000
 O87 O 0.49668 1.03657 1.08848
 Zr88 Zr 0.50035 1.03586 0.96371
 O89 O 0.50376 1.08373 0.96316
 O90 O 0.49702 1.03517 0.91576
 O91 O 0.47324 1.04203 1.00209
 O92 O 0.52662 1.04164 1.00210
 O93 O 0.54270 0.94520 1.05830
 O94 O 0.57606 0.97212 1.02851
 C95 C 0.56996 0.95284 1.04993
 O96 O 0.45768 0.94213 0.94988
 O97 O 0.42439 0.97177 0.97683
 C98 C 0.43044 0.95047 0.95751
 O99 O 0.54306 0.94492 0.94728
 O100 O 0.57632 0.97263 0.97622
 C101 C 0.57030 0.95295 0.95525
 O102 O 0.45734 0.94252 1.05550
 O103 O 0.42415 0.97153 1.02772
 C104 C 0.43013 0.95052 1.04744
 Zr105 Zr 0.50009 0.95967 1.04120
 O106 O 0.50339 0.91180 1.04182
 O107 O 0.49655 0.96046 1.08914
 Zr108 Zr 0.50031 0.95922 0.96431
 O109 O 0.50367 0.91134 0.96493
 O110 O 0.49706 0.95899 0.91636
 Zr111 Zr 0.45514 0.99775 1.00246
 Zr112 Zr 0.54537 0.99777 1.00244
 O113 O 0.52652 0.95390 1.00278
 O114 O 0.47313 0.95348 1.00278
 O115 O 0.52724 0.99802 1.04680
 O116 O 0.47399 0.99753 0.95850
 O117 O 0.47376 0.99804 1.04642
 O118 O 0.52746 0.99753 0.95808
 H119 H 0.54036 1.05945 1.00204
 H120 H 0.46030 0.99752 0.94067
 H121 H 0.54022 0.93610 1.00284
 H122 H 0.45989 0.99811 1.06417
 H123 H 0.51441 1.02334 0.90793
 H124 H 0.51392 0.97150 0.90834
 H125 H 0.48639 0.90349 0.97699
 H126 H 0.48691 0.90379 1.02888
 H127 H 0.51399 0.97221 1.09695
 H128 H 0.51350 1.02408 1.09652
 H129 H 0.48664 1.09209 1.02773
 H130 H 0.48709 1.09175 0.97590
 O131 O 0.05020 0.54270 -0.05780
 O132 O 0.02312 0.57578 -0.02808
 C133 C 0.04255 0.56985 -0.04939
 O134 O -0.05826 0.45743 -0.05519
 O135 O -0.02873 0.42415 -0.02810
 C136 C -0.04997 0.43022 -0.04752
 O137 O -0.05536 0.54274 -0.05772
 O138 O -0.02771 0.57588 -0.02859
 C139 C -0.04732 0.56991 -0.04966
 O140 O 0.05270 0.45753 -0.05534
 O141 O 0.02306 0.42418 -0.02827
 C142 C 0.04439 0.43031 -0.04768
 Zr143 Zr 0.03563 0.50005 -0.04079
 O144 O 0.03545 0.49692 -0.08875
 O145 O 0.08359 0.50339 -0.04075
 Zr146 Zr -0.04122 0.49999 -0.04062
 O147 O -0.04137 0.49682 -0.08858
 O148 O -0.08917 0.50338 -0.04011
 O149 O -0.00277 0.52708 -0.04663
 O150 O -0.00280 0.47378 -0.04625
 O151 O 0.05278 0.45705 0.05015
 O152 O 0.02361 0.42384 0.02262
 C153 C 0.04472 0.42986 0.04218
 O154 O -0.05558 0.54218 0.05341
 O155 O -0.02860 0.57553 0.02370
 C156 C -0.04791 0.56941 0.04511
 O157 O -0.05818 0.45707 0.05075
 O158 O -0.02863 0.42395 0.02352
 C159 C -0.04987 0.42991 0.04304
 O160 O 0.04985 0.54236 0.05321
 O161 O 0.02224 0.57571 0.02421
 C162 C 0.04183 0.56958 0.04527
 Zr163 Zr 0.03573 0.49977 0.03592
 O164 O 0.03603 0.49617 0.08386
 O165 O 0.08368 0.50327 0.03541
 Zr166 Zr -0.04118 0.49969 0.03614
 O167 O -0.04126 0.49622 0.08409
 O168 O -0.08915 0.50300 0.03584
 Zr169 Zr -0.00275 0.54491 -0.00225
 Zr170 Zr -0.00280 0.45479 -0.00234
 O171 O -0.00271 0.47345 0.04160
 O172 O -0.00274 0.52671 0.04205
 O173 O 0.04158 0.47283 -0.00249
 O174 O -0.04672 0.52616 -0.00221
 O175 O 0.04121 0.52624 -0.00238
 O176 O -0.04716 0.47272 -0.00225
 H177 H -0.00280 0.46025 -0.06418
 H178 H -0.06452 0.53988 -0.00222
 H179 H -0.00262 0.45973 0.05943
 H180 H 0.05904 0.53996 -0.00230
 H181 H -0.09708 0.48609 -0.02814
 H182 H -0.09703 0.48577 0.02388
 H183 H -0.02865 0.51299 0.09202
 H184 H 0.02316 0.51268 0.09191
 H185 H 0.09161 0.48605 0.02345
 H186 H 0.09150 0.48636 -0.02846
 H187 H 0.02331 0.51407 -0.09661
 H188 H -0.02859 0.51351 -0.09653
 O189 O 0.94642 0.05511 0.54239
 O190 O 0.97603 0.02812 0.57568
 C191 C 0.95472 0.04746 0.56963
 O192 O 0.94939 -0.05330 0.45744
 O193 O 0.97676 -0.02403 0.42397
 C194 C 0.95726 -0.04521 0.43015
 O195 O 0.94665 -0.05062 0.54272
 O196 O 0.97612 -0.02339 0.57585
 C197 C 0.95492 -0.04289 0.56991
 O198 O 0.94919 0.05766 0.45705
 O199 O 0.97680 0.02858 0.42378
 C200 C 0.95716 0.04961 0.42982
 Zr201 Zr 0.96351 0.04061 0.49977
 O202 O 0.91555 0.04018 0.49647
 O203 O 0.96342 0.08849 0.50298
 Zr204 Zr 0.96371 -0.03612 0.50003
 O205 O 0.91575 -0.03609 0.49676
 O206 O 0.96393 -0.08400 0.50355
 O207 O 0.95762 0.00226 0.52703
 O208 O 0.95802 0.00221 0.47356
 O209 O 1.05483 0.05786 0.45683
 O210 O 1.02771 0.02822 0.42376
 C211 C 1.04711 0.04951 0.42965
 O212 O 1.05764 -0.05006 0.54257
 O213 O 1.02838 -0.02261 0.57585
 C214 C 1.04954 -0.04213 0.56981
 O215 O 1.05466 -0.05306 0.45713
 O216 O 1.02705 -0.02400 0.42381
 C217 C 1.04663 -0.04508 0.42989
 O218 O 1.05746 0.05515 0.54223
 O219 O 1.02826 0.02763 0.57568
 C220 C 1.04937 0.04722 0.56952
 Zr221 Zr 1.04042 0.04075 0.49957
 O222 O 1.08837 0.04057 0.49608
 O223 O 1.04036 0.08863 0.50279
 Zr224 Zr 1.04056 -0.03580 0.49982
 O225 O 1.08851 -0.03520 0.49622
 O226 O 1.04097 -0.08366 0.50340
 Zr227 Zr 1.00198 0.00241 0.54493
 Zr228 Zr 1.00196 0.00234 0.45470
 O229 O 1.04596 0.00244 0.47329
 O230 O 1.04637 0.00252 0.52680
 O231 O 1.00195 0.04663 0.47259
 O232 O 1.00216 -0.04148 0.52627
 O233 O 1.00197 0.04626 0.52596
 O234 O 1.00212 -0.04192 0.47291
 H235 H 0.94025 0.00215 0.45980
 H236 H 1.00227 -0.05929 0.54002
 H237 H 1.06376 0.00239 0.45949
 H238 H 1.00200 0.06408 0.53961
 H239 H 0.97623 -0.09189 0.48650
 H240 H 1.02805 -0.09170 0.48693
 H241 H 1.09642 -0.02337 0.51354
 H242 H 1.09630 0.02850 0.51326
 H243 H 1.02789 0.09652 0.48589
 H244 H 0.97599 0.09642 0.48610
 H245 H 0.90767 0.02806 0.51369
 H246 H 0.90781 -0.02383 0.51378
 N247 N 1.15510 0.11994 0.27059
 C248 C 1.12970 0.13225 0.28281
 N249 N 1.11759 0.15735 0.26985
 N250 N 1.13047 0.16973 0.24539
 C251 C 1.15595 0.15751 0.23287
 N252 N 1.16797 0.13234 0.24612
 C253 C 1.11547 0.11853 0.30878
 C254 C 1.10336 0.10676 0.33038
 C255 C 1.08880 0.09241 0.35583
 N256 N 1.09592 0.10058 0.38462
 N257 N 1.08255 0.08701 0.40820
 C258 C 1.06161 0.06483 0.40376
 N259 N 1.05452 0.05675 0.37488
 N260 N 1.06789 0.07032 0.35133
 N261 N 0.84874 -0.11762 0.27335
 C262 C 0.87432 -0.12975 0.28531
 N263 N 0.88617 -0.15512 0.27270
 N264 N 0.87284 -0.16794 0.24882
 C265 C 0.84717 -0.15591 0.23658
 N266 N 0.83543 -0.13045 0.24947
 C267 C 0.88890 -0.11565 0.31075
 C268 C 0.90116 -0.10360 0.33199
 C269 C 0.91576 -0.08898 0.35712
 N270 N 0.90857 -0.09677 0.38606
 N271 N 0.92189 -0.08291 0.40937
 C272 C 0.94286 -0.06081 0.40451
 N273 N 0.95004 -0.05311 0.37549
 N274 N 0.93671 -0.06696 0.35219
 N275 N 0.84468 0.11608 0.72810
 C276 C 0.86976 0.12874 0.71548
 N277 N 0.88137 0.15437 0.72776
 N278 N 0.86831 0.16694 0.75197
 C279 C 0.84315 0.15438 0.76488
 N280 N 0.83163 0.12867 0.75230
 C281 C 0.88414 0.11486 0.68975
 C282 C 0.89637 0.10303 0.66832
 C283 C 0.91114 0.08876 0.64303
 N284 N 0.93337 0.06807 0.64776
 N285 N 0.94720 0.05486 0.62434
 C286 C 0.93926 0.06190 0.59539
 N287 N 0.91695 0.08263 0.59072
 N288 N 0.90311 0.09584 0.61416
 N289 N 1.15769 -0.11393 0.72868
 C290 C 1.13240 -0.12554 0.71562
 N291 N 1.11978 -0.15102 0.72741
 N292 N 1.13206 -0.16446 0.75155
 C293 C 1.15740 -0.15293 0.76483
 N294 N 1.16997 -0.12739 0.75283
 C295 C 1.11883 -0.11079 0.68994
 C296 C 1.10713 -0.09840 0.66853
 C297 C 1.09283 -0.08367 0.64324
 N298 N 1.10070 -0.09093 0.61437
 N299 N 1.08704 -0.07756 0.59092
 C300 C 1.06503 -0.05650 0.59557
 N301 N 1.05725 -0.04926 0.62452
 N302 N 1.07092 -0.06263 0.64795
 N303 N 0.27182 1.11831 1.15371
 C304 C 0.28421 1.13011 1.12809
 N305 N 0.27165 1.15520 1.11557
 N306 N 0.24741 1.16808 1.12827
 C307 C 0.23473 1.15638 1.15396
 N308 N 0.24758 1.13121 1.16640
 C309 C 0.30997 1.11590 1.11410
 C310 C 0.33143 1.10378 1.10220
 C311 C 0.35676 1.08910 1.08790
 N312 N 0.38561 1.09697 1.09515
 N313 N 0.40909 1.08313 1.08200
 C314 C 0.40447 1.06097 1.06114
 N315 N 0.37553 1.05318 1.05391
 N316 N 0.35207 1.06702 1.06706
 N317 N 0.27161 0.84316 0.88486
 C318 C 0.28467 0.86854 0.87337
 N319 N 0.27286 0.88134 0.84803
 N320 N 0.24868 0.86915 0.83460
 C321 C 0.23533 0.84370 0.84599
 N322 N 0.24743 0.83098 0.87142
 C323 C 0.31037 0.88201 0.88813
 C324 C 0.33178 0.89360 0.90059
 C325 C 0.35705 0.90775 0.91545
 N326 N 0.35232 0.92978 0.93634
 N327 N 0.37573 0.94326 0.94986
 C328 C 0.40468 0.93517 0.94295
 N329 N 0.40935 0.91305 0.92205
 N330 N 0.38592 0.89957 0.90852
 N331 N 0.72810 0.84533 1.12144
 C332 C 0.71599 0.87080 1.13362
 N333 N 0.72895 0.88301 1.15866
 N334 N 0.75331 0.87015 1.17111
 C335 C 0.76563 0.84462 1.15899
 N336 N 0.75245 0.83248 1.13391
 C337 C 0.69016 0.88500 1.11979
 C338 C 0.66867 0.89703 1.10789
 C339 C 0.64337 0.91148 1.09336
 N340 N 0.61449 0.90440 1.10151
 N341 N 0.59105 0.91766 1.08776
 C342 C 0.59571 0.93842 1.06540
 N343 N 0.62466 0.94547 1.05734
 N344 N 0.64809 0.93222 1.07109
 N345 N 0.72840 1.11378 0.84499
 C346 C 0.71571 1.12572 0.87033
 N347 N 0.72765 1.15135 0.88229
 N348 N 0.75160 1.16462 0.86932
 C349 C 0.76457 1.15279 0.84390
 N350 N 0.75234 1.12706 0.83204
 C351 C 0.69019 1.11119 0.88455
 C352 C 0.66887 1.09895 0.89667
 C353 C 0.64363 1.08436 0.91132
 N354 N 0.61476 1.09128 0.90325
 N355 N 0.59134 1.07792 0.91707
 C356 C 0.59602 1.05719 0.93943
 N357 N 0.62498 1.05030 0.94742
 N358 N 0.64839 1.06366 0.93360
 N359 N 0.11695 0.27264 0.15059
 C360 C 0.12909 0.28467 0.12496
 N361 N 0.15449 0.27209 0.11301
 N362 N 0.16734 0.24817 0.12630
 C363 C 0.15527 0.23592 0.15200
 N364 N 0.12981 0.24872 0.16386
 C365 C 0.11498 0.31016 0.11043
 C366 C 0.10294 0.33145 0.09819
 C367 C 0.08836 0.35664 0.08362
 N368 N 0.06642 0.35187 0.06261
 N369 N 0.05261 0.37524 0.04930
 C370 C 0.06029 0.40416 0.05655
 N371 N 0.08231 0.40885 0.07757
 N372 N 0.09612 0.38548 0.09088
 N373 N -0.12034 0.27199 -0.15549
 C374 C -0.13273 0.28416 -0.13010
 N375 N -0.15786 0.27119 -0.11790
 N376 N -0.17021 0.24678 -0.13068
 C377 C -0.15789 0.23439 -0.15612
 N378 N -0.13270 0.24757 -0.16826
 C379 C -0.11901 0.31004 -0.11594
 C380 C -0.10724 0.33155 -0.10387
 C381 C -0.09288 0.35685 -0.08931
 N382 N -0.10100 0.38566 -0.09640
 N383 N -0.08743 0.40909 -0.08300
 C384 C -0.06528 0.40449 -0.06207
 N385 N -0.05725 0.37560 -0.05502
 N386 N -0.07081 0.35219 -0.06841
 N387 N 0.11576 0.72891 -0.15657
 C388 C 0.12723 0.71577 -0.13124
 N389 N 0.15261 0.72752 -0.11849
 N390 N 0.16610 0.75171 -0.13069
 C391 C 0.15471 0.76507 -0.15608
 N392 N 0.12926 0.75311 -0.16877
 C393 C 0.11240 0.69006 -0.11775
 C394 C 0.09988 0.66863 -0.10616
 C395 C 0.08493 0.64333 -0.09202
 N396 N 0.09187 0.61455 -0.10026
 N397 N 0.07825 0.59109 -0.08680
 C398 C 0.05723 0.59564 -0.06465
 N399 N 0.05032 0.62450 -0.05650
 N400 N 0.06394 0.64795 -0.06996
 N401 N -0.11580 0.72723 0.15605
 C402 C -0.12850 0.71479 0.13100
 N403 N -0.15412 0.72723 0.11942
 N404 N -0.16665 0.75140 0.13250
 C405 C -0.15402 0.76406 0.15761
 N406 N -0.12834 0.75140 0.16912
 C407 C -0.11467 0.68912 0.11656
 C408 C -0.10293 0.66775 0.10422
 C409 C -0.08880 0.64255 0.08927
 N410 N -0.09597 0.61370 0.09723
 N411 N -0.08291 0.59034 0.08320
 C412 C -0.06225 0.59507 0.06073
 N413 N -0.05512 0.62400 0.05284
 N414 N -0.06818 0.64734 0.06687
 N415 N 1.12064 0.15487 0.72734
 C416 C 1.13294 0.12946 0.71524
 N417 N 1.15805 0.11733 0.72819
 N418 N 1.17046 0.13023 0.75252
 C419 C 1.15821 0.15569 0.76483
 N420 N 1.13306 0.16775 0.75167
 C421 C 1.11915 0.11521 0.68946
 C422 C 1.10729 0.10313 0.66802
 C423 C 1.09281 0.08863 0.64277
 N424 N 1.07087 0.06757 0.64756
 N425 N 1.05713 0.05429 0.62418
 C426 C 1.06487 0.06162 0.59521
 N427 N 1.08690 0.08270 0.59048
 N428 N 1.10064 0.09598 0.61388
 N429 N 0.84595 -0.11472 0.72824
 C430 C 0.87130 -0.12658 0.71549
 N431 N 0.88341 -0.15218 0.72742
 N432 N 0.87058 -0.16548 0.75142
 C433 C 0.84515 -0.15372 0.76445
 N434 N 0.83314 -0.12803 0.75224
 C435 C 0.88537 -0.11200 0.68993
 C436 C 0.89735 -0.09967 0.66859
 C437 C 0.91182 -0.08495 0.64334
 N438 N 0.93385 -0.06401 0.64806
 N439 N 0.94750 -0.05051 0.62463
 C440 C 0.93957 -0.05749 0.59569
 N441 N 0.91746 -0.07846 0.59104
 N442 N 0.90381 -0.09196 0.61449
 N443 N 1.15330 -0.11899 0.27198
 C444 C 1.12762 -0.13062 0.28436
 N445 N 1.11506 -0.15573 0.27194
 N446 N 1.12779 -0.16879 0.24783
 C447 C 1.15356 -0.15725 0.23516
 N448 N 1.16602 -0.13206 0.24787
 C449 C 1.11361 -0.11624 0.30999
 C450 C 1.10174 -0.10398 0.33135
 C451 C 1.08750 -0.08914 0.35659
 N452 N 1.09494 -0.09677 0.38547
 N453 N 1.08184 -0.08280 0.40888
 C454 C 1.06087 -0.06074 0.40417
 N455 N 1.05345 -0.05319 0.37521
 N456 N 1.06654 -0.06716 0.35181
 N457 N 0.84796 0.11942 0.27234
 C458 C 0.87332 0.13214 0.28415
 N459 N 0.88481 0.15754 0.27114
 N460 N 0.87137 0.16982 0.24700
 C461 C 0.84593 0.15718 0.23489
 N462 N 0.83453 0.13171 0.24820
 C463 C 0.88807 0.11857 0.30981
 C464 C 0.90051 0.10689 0.33119
 C465 C 0.91532 0.09265 0.35645
 N466 N 0.93648 0.07087 0.35171
 N467 N 0.94994 0.05728 0.37512
 C468 C 0.94269 0.06501 0.40407
 N469 N 0.92151 0.08689 0.40875
 N470 N 0.90804 0.10048 0.38532
 N471 N 0.11829 0.27284 -0.15464
 C472 C 0.12989 0.28520 -0.12902
 N473 N 0.15503 0.27277 -0.11643
 N474 N 0.16814 0.24868 -0.12906
 C475 C 0.15660 0.23610 -0.15473
 N476 N 0.13141 0.24874 -0.16726
 C477 C 0.11543 0.31078 -0.11510
 C478 C 0.10311 0.33210 -0.10326
 C479 C 0.08823 0.35726 -0.08901
 N480 N 0.06593 0.35242 -0.06829
 N481 N 0.05200 0.37573 -0.05508
 C482 C 0.05990 0.40468 -0.06216
 N483 N 0.08227 0.40945 -0.08291
 N484 N 0.09620 0.38612 -0.09612
 N485 N -0.15729 0.27104 0.11610
 C486 C -0.13195 0.28412 0.12756
 N487 N -0.11919 0.27229 0.15290
 N488 N -0.13138 0.24808 0.16636
 C489 C -0.15678 0.23471 0.15501
 N490 N -0.16947 0.24683 0.12957
 C491 C -0.11846 0.30982 0.11274
 C492 C -0.10684 0.33124 0.10025
 C493 C -0.09264 0.35651 0.08534
 N494 N -0.07064 0.35185 0.06430
 N495 N -0.05712 0.37528 0.05071
 C496 C -0.06515 0.40415 0.05771
 N497 N -0.08725 0.40874 0.07876
 N498 N -0.10077 0.38530 0.09236
 N499 N -0.11691 0.72913 -0.15817
 C500 C -0.12910 0.71624 -0.13300
 N501 N -0.15447 0.72846 -0.12063
 N502 N -0.16724 0.75288 -0.13305
 C503 C -0.15513 0.76607 -0.15829
 N504 N -0.12969 0.75355 -0.17057
 C505 C -0.11497 0.69035 -0.11923
 C506 C -0.10296 0.66882 -0.10740
 C507 C -0.08852 0.64346 -0.09298
 N508 N -0.09598 0.61469 -0.10080
 N509 N -0.08275 0.59119 -0.08711
 C510 C -0.06163 0.59571 -0.06514
 N511 N -0.05420 0.62456 -0.05741
 N512 N -0.06742 0.64804 -0.07109
 N513 N 0.11265 0.72694 0.15520
 C514 C 0.12467 0.71429 0.12988
 N515 N 0.15039 0.72620 0.11781
 N516 N 0.16366 0.75009 0.13066
 C517 C 0.15172 0.76295 0.15604
 N518 N 0.12594 0.75082 0.16804
 C519 C 0.11012 0.68887 0.11576
 C520 C 0.09786 0.66765 0.10370
 C521 C 0.08326 0.64255 0.08909
 N522 N 0.09057 0.61367 0.09673
 N523 N 0.07725 0.59038 0.08287
 C524 C 0.05618 0.59519 0.06091
 N525 N 0.04889 0.62415 0.05335
 N526 N 0.06221 0.64744 0.06721
 N527 N 0.27370 1.11729 0.84861
 C528 C 0.28557 1.12936 0.87424
 N529 N 0.27291 1.15471 0.88609
 N530 N 0.24906 1.16758 0.87271
 C531 C 0.23697 1.15557 0.84701
 N532 N 0.24984 1.13016 0.83525
 C533 C 0.31098 1.11523 0.88886
 C534 C 0.33221 1.10318 0.90117
 C535 C 0.35735 1.08860 0.91580
 N536 N 0.38627 1.09626 0.90846
 N537 N 0.40960 1.08245 0.92184
 C538 C 0.40477 1.06051 0.94300
 N539 N 0.37576 1.05293 0.95033
 N540 N 0.35244 1.06674 0.93695
 N541 N 0.27142 0.87939 1.15508
 C542 C 0.28367 0.86704 1.12971
 N543 N 0.27078 0.84190 1.11767
 N544 N 0.24635 0.82951 1.13059
 C545 C 0.23388 0.84179 1.15601
 N546 N 0.24699 0.86698 1.16799
 C547 C 0.30957 0.88081 1.11544
 C548 C 0.33112 0.89265 1.10334
 C549 C 0.35650 0.90711 1.08883
 N550 N 0.38532 0.89937 1.09632
 N551 N 0.40885 0.91310 1.08304
 C552 C 0.40430 0.93503 1.06183
 N553 N 0.37540 0.94268 1.05437
 N554 N 0.35189 0.92895 1.06765
 N555 N 0.72874 1.11495 1.15742
 C556 C 0.71567 1.12653 1.13210
 N557 N 0.72739 1.15201 1.11944
 N558 N 0.75150 1.16548 1.13170
 C559 C 0.76480 1.15398 1.15706
 N560 N 0.75286 1.12844 1.16967
 C561 C 0.69004 1.11173 1.11856
 C562 C 0.66868 1.09928 1.10690
 C563 C 0.64345 1.08446 1.09267
 N564 N 0.61456 1.09180 1.10041
 N565 N 0.59115 1.07833 1.08682
 C566 C 0.59588 1.05709 1.06504
 N567 N 0.62485 1.04977 1.05739
 N568 N 0.64824 1.06323 1.07098
 N569 N 0.72835 0.84578 0.88222
 C570 C 0.71601 0.87135 0.87044
 N571 N 0.72851 0.88381 0.84519
 N572 N 0.75264 0.87110 0.83213
 C573 C 0.76520 0.84547 0.84383
 N574 N 0.75249 0.83307 0.86914
 C575 C 0.69036 0.88535 0.88481
 C576 C 0.66896 0.89728 0.89700
 C577 C 0.64369 0.91162 0.91170
 N578 N 0.64843 0.93270 0.93354
 N579 N 0.62501 0.94594 0.94735
 C580 C 0.59605 0.93856 0.93976
 N581 N 0.59138 0.91746 0.91784
 N582 N 0.61482 0.90421 0.90404
   
