data_POSCAR
  _audit_creation_date              2014-09-24
  _audit_creation_method            'ToBaCCo'
  _symmetry_space_group_name_H-M    'P1'
  _symmetry_Int_Tables_number       1
  _symmetry_cell_setting            triclinic
  loop_
  _symmetry_equiv_pos_as_xyz
 x,y,z
_cell_length_a 43.9709
_cell_length_b 43.8793
_cell_length_c 63.3599
_cell_angle_alpha 90.003000
_cell_angle_beta 90.016300
_cell_angle_gamma 120.024700
loop_
  _atom_site_label
  _atom_site_type_symbol
  _atom_site_fract_x
  _atom_site_fract_y
  _atom_site_fract_z
C1 C -0.01739 0.49042 1.24769
 C2 C 0.01841 0.50854 1.24770
 C3 C 0.03894 0.51995 1.26764
 C4 C 0.03902 0.51777 1.22781
 C5 C -0.03804 0.48125 1.22779
 C6 C -0.03790 0.47881 1.26761
 C7 C 0.03379 0.54065 1.28242
 C8 C 0.05307 0.55089 1.30120
 C9 C 0.07869 0.54112 1.30578
 C10 C 0.08373 0.52060 1.29034
 C11 C 0.06429 0.51039 1.27166
 C12 C 0.06460 0.55289 1.22392
 C13 C 0.08449 0.56207 1.20543
 C14 C 0.07937 0.53623 1.19049
 C15 C 0.05389 0.50097 1.19448
 C16 C 0.03404 0.49179 1.21304
 C17 C -0.06364 0.44614 1.22388
 C18 C -0.08358 0.43700 1.20540
 C19 C -0.07850 0.46286 1.19049
 C20 C -0.05297 0.49810 1.19450
 C21 C -0.03306 0.50725 1.21305
 C22 C -0.03274 0.45780 1.28226
 C23 C -0.05210 0.44735 1.30101
 C24 C -0.07727 0.45735 1.30530
 C25 C -0.08270 0.47794 1.29042
 C26 C -0.06329 0.48844 1.27175
 H27 H 0.01499 0.54920 1.27931
 H28 H 0.04865 0.56803 1.31137
 H29 H 0.10123 0.51033 1.29276
 H30 H 0.06853 0.49422 1.26046
 H31 H 0.06890 0.57329 1.23515
 H32 H 0.10361 0.58949 1.20270
 H33 H 0.01495 0.46442 1.21595
 H34 H -0.06793 0.42571 1.23508
 H35 H -0.10272 0.40958 1.20266
 H36 H -0.04883 0.51867 1.18346
 H37 H -0.01395 0.53461 1.21598
 H38 H -0.01378 0.44946 1.27915
 H39 H -0.04774 0.43104 1.31200
 H40 H -0.10160 0.48640 1.29338
 H41 H -0.06771 0.50455 1.26061
 H42 H 0.04974 0.48043 1.18342
 C43 C 0.50942 0.49149 1.24985
 C44 C 0.49138 0.50928 1.24988
 C45 C 0.47930 0.51771 1.26980
 C46 C 0.48279 0.52129 1.22998
 C47 C 0.51816 0.47970 1.22992
 C48 C 0.52136 0.48287 1.26976
 C49 C 0.45848 0.49119 1.28432
 C50 C 0.44726 0.49955 1.30296
 C51 C 0.45629 0.53452 1.30730
 C52 C 0.47679 0.56091 1.29260
 C53 C 0.48807 0.55255 1.27401
 C54 C 0.44793 0.51218 1.22578
 C55 C 0.43943 0.52337 1.20721
 C56 C 0.46568 0.54412 1.19252
 C57 C 0.50067 0.55350 1.19685
 C58 C 0.50917 0.54237 1.21548
 C59 C 0.55305 0.48884 1.22581
 C60 C 0.56169 0.47782 1.20722
 C61 C 0.53556 0.45722 1.19242
 C62 C 0.50054 0.44782 1.19666
 C63 C 0.49189 0.45879 1.21531
 C64 C 0.54211 0.50926 1.28437
 C65 C 0.55317 0.50072 1.30302
 C66 C 0.54406 0.46570 1.30725
 C67 C 0.52365 0.43945 1.29245
 C68 C 0.51253 0.44799 1.27387
 H69 H 0.45079 0.46402 1.28115
 H70 H 0.43103 0.47858 1.31382
 H71 H 0.48452 0.58813 1.29560
 H72 H 0.50402 0.57336 1.26299
 H73 H 0.42723 0.49602 1.23679
 H74 H 0.41220 0.51538 1.20421
 H75 H 0.53635 0.55033 1.21865
 H76 H 0.57367 0.50488 1.23691
 H77 H 0.58894 0.48583 1.20430
 H78 H 0.47976 0.43150 1.18573
 H79 H 0.46469 0.45080 1.21840
 H80 H 0.54985 0.53647 1.28128
 H81 H 0.56934 0.52159 1.31395
 H82 H 0.51587 0.41219 1.29537
 H83 H 0.49663 0.42728 1.26276
 H84 H 0.52153 0.56994 1.18600
 C85 C 0.50874 1.01808 1.25251
 C86 C 0.48997 0.98222 1.25249
 C87 C 0.48036 0.96148 1.27237
 C88 C 0.47806 0.96173 1.23255
 C89 C 0.52040 1.03866 1.23259
 C90 C 0.51849 1.03874 1.27242
 C91 C 0.50599 0.96568 1.28707
 C92 C 0.49650 0.94570 1.30560
 C93 C 0.46101 0.92048 1.30984
 C94 C 0.43558 0.91644 1.29470
 C95 C 0.44519 0.93654 1.27628
 C96 C 0.48697 0.93577 1.22842
 C97 C 0.47622 0.91638 1.20972
 C98 C 0.45612 0.92240 1.19482
 C99 C 0.44683 0.94815 1.19910
 C100 C 0.45751 0.96748 1.21787
 C101 C 0.51152 1.06462 1.22866
 C102 C 0.52199 1.08413 1.21001
 C103 C 0.54197 1.07841 1.19465
 C104 C 0.55109 1.05234 1.19898
 C105 C 0.54065 1.03298 1.21774
 C106 C 0.49295 1.03449 1.28720
 C107 C 0.50257 1.05439 1.30576
 C108 C 0.53809 1.07956 1.30997
 C109 C 0.56342 1.08365 1.29476
 C110 C 0.55369 1.06363 1.27629
 H111 H 0.53347 0.98419 1.28408
 H112 H 0.51750 0.94921 1.31601
 H113 H 0.40784 0.89880 1.29724
 H114 H 0.42498 0.93300 1.26514
 H115 H 0.50272 0.93089 1.23958
 H116 H 0.48414 0.89703 1.20677
 H117 H 0.44973 0.98689 1.22097
 H118 H 0.49578 1.06933 1.23992
 H119 H 0.51285 1.10257 1.20746
 H120 H 0.56755 1.04757 1.18841
 H121 H 0.54859 1.01366 1.22074
 H122 H 0.46546 1.01601 1.28423
 H123 H 0.48164 1.05085 1.31623
 H124 H 0.59118 1.10126 1.29726
 H125 H 0.57383 1.06720 1.26509
 H126 H 0.43089 0.95298 1.18808
 C127 C 1.01833 0.50843 0.75181
 C128 C 0.98254 0.49128 0.75187
 C129 C 0.96198 0.48292 0.73199
 C130 C 0.96205 0.47991 0.77181
 C131 C 1.03899 0.51950 0.77170
 C132 C 1.03875 0.51721 0.73185
 C133 C 0.96781 0.50942 0.71741
 C134 C 0.94859 0.50099 0.69863
 C135 C 0.92287 0.46599 0.69422
 C136 C 0.91670 0.43966 0.70904
 C137 C 0.93599 0.44808 0.72776
 C138 C 0.93730 0.49035 0.77609
 C139 C 0.91784 0.47997 0.79475
 C140 C 0.92254 0.45869 0.80946
 C141 C 0.94699 0.44780 0.80499
 C142 C 0.96648 0.45822 0.78629
 C143 C 1.06369 0.50901 0.77573
 C144 C 1.08335 0.51911 0.79432
 C145 C 1.07912 0.54038 0.80948
 C146 C 1.05442 0.55122 0.80500
 C147 C 1.03477 0.54100 0.78636
 C148 C 1.03282 0.49113 0.71701
 C149 C 1.05191 0.49989 0.69817
 C150 C 1.07794 0.53507 0.69374
 C151 C 1.08396 0.56091 0.70910
 C152 C 1.06472 0.55203 0.72784
 H153 H 0.98725 0.53659 0.72059
 H154 H 0.95351 0.52191 0.68767
 H155 H 0.89735 0.41241 0.70600
 H156 H 0.93104 0.42730 0.73884
 H157 H 0.93326 0.50680 0.76501
 H158 H 0.89876 0.48825 0.79756
 H159 H 0.98503 0.44938 0.78311
 H160 H 1.06772 0.49284 0.76442
 H161 H 1.10284 0.51116 0.79618
 H162 H 1.04895 0.56655 0.81612
 H163 H 1.01608 0.54975 0.78342
 H164 H 1.01349 0.46388 0.72007
 H165 H 1.04694 0.47855 0.68760
 H166 H 1.10241 0.58850 0.70649
 H167 H 1.06962 0.57259 0.73910
 H168 H 0.95133 0.43156 0.81606
 C169 C 0.49153 0.50943 0.75002
 C170 C 0.50927 0.49134 0.75003
 C171 C 0.52115 0.48264 0.73013
 C172 C 0.51780 0.47939 0.76998
 C173 C 0.48306 0.52143 0.76996
 C174 C 0.47961 0.51810 0.73012
 C175 C 0.51206 0.44769 0.72598
 C176 C 0.52305 0.43908 0.70737
 C177 C 0.54358 0.46531 0.69259
 C178 C 0.55297 0.50039 0.69690
 C179 C 0.54203 0.50900 0.71555
 C180 C 0.49134 0.45836 0.78445
 C181 C 0.49979 0.44758 0.80324
 C182 C 0.53483 0.45741 0.80782
 C183 C 0.56114 0.47797 0.79311
 C184 C 0.55267 0.48872 0.77434
 C185 C 0.50956 0.54251 0.78441
 C186 C 0.50116 0.55329 0.80320
 C187 C 0.46614 0.54342 0.80782
 C188 C 0.43978 0.52283 0.79313
 C189 C 0.44820 0.51207 0.77436
 C190 C 0.48865 0.55303 0.72596
 C191 C 0.47760 0.56162 0.70736
 C192 C 0.45704 0.53536 0.69259
 C193 C 0.44771 0.50030 0.69689
 C194 C 0.45871 0.49172 0.71554
 H195 H 0.49606 0.42700 0.73705
 H196 H 0.51507 0.41178 0.70440
 H197 H 0.56926 0.52125 0.68599
 H198 H 0.54998 0.53625 0.71868
 H199 H 0.46418 0.45038 0.78121
 H200 H 0.47897 0.43193 0.81430
 H201 H 0.57340 0.50466 0.76329
 H202 H 0.53672 0.55051 0.78114
 H203 H 0.52201 0.56897 0.81425
 H204 H 0.41266 0.51534 0.79606
 H205 H 0.42743 0.49609 0.76332
 H206 H 0.50467 0.57375 0.73703
 H207 H 0.48555 0.58890 0.70440
 H208 H 0.43140 0.47942 0.68599
 H209 H 0.45079 0.46448 0.71867
 H210 H 0.58826 0.48543 0.79600
 C211 C 0.49065 -0.01848 0.74796
 C212 C 0.50785 0.01738 0.74800
 C213 C 0.51930 0.03814 0.72815
 C214 C 0.51638 0.03783 0.76796
 C215 C 0.48181 -0.03902 0.76789
 C216 C 0.47955 -0.03915 0.72805
 C217 C 0.54074 0.03363 0.71354
 C218 C 0.55164 0.05375 0.69507
 C219 C 0.54163 0.07903 0.69102
 C220 C 0.52040 0.08362 0.70578
 C221 C 0.50946 0.06346 0.72419
 C222 C 0.55125 0.06359 0.77221
 C223 C 0.55984 0.08280 0.79098
 C224 C 0.53366 0.07678 0.80584
 C225 C 0.49864 0.05127 0.80141
 C226 C 0.49004 0.03212 0.78258
 C227 C 0.44698 -0.06474 0.77196
 C228 C 0.43804 -0.08403 0.79070
 C229 C 0.46384 -0.07830 0.80599
 C230 C 0.49903 -0.05254 0.80148
 C231 C 0.50785 -0.03340 0.78265
 C232 C 0.45847 -0.03458 0.71326
 C233 C 0.44790 -0.05457 0.69474
 C234 C 0.45775 -0.08015 0.69058
 C235 C 0.47884 -0.08453 0.70578
 C236 C 0.48940 -0.06443 0.72422
 H237 H 0.54925 0.01474 0.71652
 H238 H 0.56843 0.05001 0.68415
 H239 H 0.51190 0.10257 0.70299
 H240 H 0.49301 0.06740 0.73529
 H241 H 0.57192 0.06843 0.76111
 H242 H 0.58710 0.10197 0.79404
 H243 H 0.46286 0.01286 0.77938
 H244 H 0.42647 -0.06939 0.76076
 H245 H 0.41047 -0.10226 0.79337
 H246 H 0.52032 -0.04782 0.81199
 H247 H 0.53510 -0.01427 0.77953
 H248 H 0.44979 -0.01581 0.71620
 H249 H 0.43067 -0.05077 0.68427
 H250 H 0.48862 -0.10247 0.70331
 H251 H 0.50581 -0.06825 0.73542
 H252 H 0.47784 0.04646 0.81239
 O253 O 0.39059 0.67571 0.97582
 O254 O 0.39056 0.73415 0.98282
 C255 C 0.36837 0.73774 0.97177
 O256 O 0.33572 0.72107 0.97564
 O257 O 0.27702 0.66257 0.98197
 C258 C 0.27355 0.63672 0.97100
 O259 O 0.29025 0.62079 0.97499
 O260 O 0.34846 0.62050 0.98204
 C261 C 0.37472 0.64315 0.97149
 O262 O 0.39161 0.66487 1.01778
 O263 O 0.38828 0.72160 1.02477
 C264 C 0.37106 0.73698 1.02878
 O265 O 0.34496 0.73244 1.01771
 O266 O 0.28805 0.67224 1.02401
 C267 C 0.27253 0.63951 1.02784
 O268 O 0.27752 0.61805 1.01692
 O269 O 0.33728 0.62101 1.02398
 C270 C 0.36974 0.63814 1.02834
 Cr271 Cr 0.38840 0.69812 1.00028
 Cr272 Cr 0.31241 0.69619 0.99983
 Cr273 Cr 0.31428 0.62195 0.99950
 O274 O 0.33836 0.67208 0.99987
 O275 O 0.60983 0.32463 0.97587
 O276 O 0.60919 0.26589 0.98300
 C277 C 0.63118 0.26193 0.97201
 O278 O 0.66384 0.27831 0.97589
 O279 O 0.72288 0.33652 0.98211
 C280 C 0.72666 0.36246 0.97111
 O281 O 0.71027 0.37871 0.97505
 O282 O 0.65238 0.37970 0.98199
 C283 C 0.62599 0.35716 0.97147
 O284 O 0.60898 0.33576 1.01780
 O285 O 0.61163 0.27871 1.02492
 C286 C 0.62859 0.26308 1.02902
 O287 O 0.65461 0.26729 1.01799
 O288 O 0.71190 0.32722 1.02418
 C289 C 0.72769 0.35998 1.02797
 O290 O 0.72293 0.38155 1.01700
 O291 O 0.66349 0.37930 1.02396
 C292 C 0.63102 0.36245 1.02833
 Cr293 Cr 0.61177 0.30219 1.00039
 Cr294 Cr 0.68735 0.30324 1.00004
 Cr295 Cr 0.68635 0.37795 0.99952
 O296 O 0.66182 0.32780 0.99998
 O297 O 0.67568 0.39114 0.52403
 O298 O 0.73422 0.39154 0.51704
 C299 C 0.73796 0.36942 0.52810
 O300 O 0.72150 0.33669 0.52423
 O301 O 0.66336 0.27765 0.51784
 C302 C 0.63748 0.27398 0.52880
 O303 O 0.62140 0.29052 0.52482
 O304 O 0.62068 0.34865 0.51781
 C305 C 0.64319 0.37504 0.52837
 O306 O 0.66481 0.39208 0.48208
 O307 O 0.72164 0.38917 0.47509
 C308 C 0.73719 0.37210 0.47109
 O309 O 0.73286 0.34603 0.48217
 O310 O 0.67298 0.28877 0.47582
 C311 C 0.64032 0.27303 0.47197
 O312 O 0.61877 0.27785 0.48287
 O313 O 0.62127 0.33752 0.47586
 C314 C 0.63819 0.37006 0.47151
 Cr315 Cr 0.69814 0.38912 0.49957
 Cr316 Cr 0.69678 0.31325 0.50001
 Cr317 Cr 0.62239 0.31455 0.50033
 O318 O 0.67242 0.33897 0.49997
 O319 O 0.32419 0.60890 0.52403
 O320 O 0.26558 0.60834 0.51703
 C321 C 0.26174 0.63051 0.52797
 O322 O 0.27811 0.66320 0.52400
 O323 O 0.33624 0.72224 0.51764
 C324 C 0.36218 0.72603 0.52859
 O325 O 0.37833 0.70954 0.52462
 O326 O 0.37913 0.65142 0.51777
 C327 C 0.35668 0.62507 0.52837
 O328 O 0.33493 0.60772 0.48207
 O329 O 0.27801 0.61046 0.47507
 C330 C 0.26249 0.62752 0.47096
 O331 O 0.26685 0.65370 0.48192
 O332 O 0.32667 0.71100 0.47560
 C333 C 0.35932 0.72674 0.47173
 O334 O 0.38089 0.72195 0.48265
 O335 O 0.37843 0.66226 0.47579
 C336 C 0.36153 0.62970 0.47148
 Cr337 Cr 0.30163 0.61072 0.49956
 Cr338 Cr 0.30286 0.68657 0.49979
 Cr339 Cr 0.37733 0.68538 0.50020
 O340 O 0.32728 0.66089 0.49985
 C341 C 0.42289 0.56188 0.36447
 C342 C 0.42198 0.57717 0.34527
 C343 C 0.43260 0.56808 0.32668
 C344 C 0.44431 0.54355 0.32702
 C345 C 0.44486 0.52808 0.34638
 C346 C 0.43424 0.53724 0.36498
 C347 C 0.41262 0.57201 0.38360
 C348 C 0.40415 0.58117 0.39940
 C349 C 0.39417 0.59290 0.41799
 C350 C 0.41309 0.62838 0.42384
 C351 C 0.40277 0.64026 0.44141
 C352 C 0.37330 0.61676 0.45339
 C353 C 0.35468 0.58102 0.44751
 C354 C 0.36506 0.56921 0.42991
 H355 H 0.41316 0.59620 0.34469
 H356 H 0.43140 0.58006 0.31199
 H357 H 0.45411 0.50941 0.34718
 H358 H 0.43515 0.52533 0.37977
 H359 H 0.43562 0.64696 0.41469
 H360 H 0.41769 0.66793 0.44545
 H361 H 0.33184 0.56224 0.45634
 H362 H 0.35018 0.54170 0.42548
 C363 C 0.43097 0.85874 0.36592
 C364 C 0.46198 0.89129 0.36549
 C365 C 0.47206 0.91159 0.34706
 C366 C 0.45115 0.89979 0.32859
 C367 C 0.41995 0.86661 0.32943
 C368 C 0.41009 0.84646 0.34786
 C369 C 0.42026 0.83782 0.38485
 C370 C 0.41054 0.81971 0.40047
 C371 C 0.39809 0.79745 0.41883
 C372 C 0.42128 0.79182 0.43111
 C373 C 0.40881 0.76917 0.44850
 C374 C 0.37290 0.75180 0.45381
 C375 C 0.34989 0.75796 0.44145
 C376 C 0.36243 0.78061 0.42410
 H377 H 0.47825 0.90118 0.37947
 H378 H 0.49555 0.93716 0.34783
 H379 H 0.40349 0.85516 0.31571
 H380 H 0.38615 0.82109 0.34796
 H381 H 0.44894 0.80467 0.42713
 H382 H 0.42723 0.76499 0.45763
 H383 H 0.32211 0.74503 0.44505
 H384 H 0.34424 0.78472 0.41467
 C385 C 0.13664 0.57054 0.36257
 C386 C 0.14877 0.56035 0.34515
 C387 C 0.12975 0.55074 0.32630
 C388 C 0.09766 0.55097 0.32426
 C389 C 0.08615 0.56175 0.34228
 C390 C 0.10538 0.57129 0.36110
 C391 C 0.15643 0.58010 0.38193
 C392 C 0.17356 0.58793 0.39794
 C393 C 0.19466 0.59709 0.41676
 C394 C 0.21100 0.57792 0.42240
 C395 C 0.23264 0.58748 0.44020
 C396 C 0.23827 0.61644 0.45263
 C397 C 0.22137 0.63532 0.44696
 C398 C 0.19973 0.62569 0.42913
 H399 H 0.17327 0.56011 0.34604
 H400 H 0.14174 0.54491 0.31323
 H401 H 0.06136 0.56125 0.34264
 H402 H 0.09556 0.57888 0.37461
 H403 H 0.20732 0.55578 0.41291
 H404 H 0.24525 0.57239 0.44406
 H405 H 0.22518 0.65779 0.45614
 H406 H 0.18726 0.64077 0.42487
 C407 C 0.57697 0.43786 0.36443
 C408 C 0.56562 0.46250 0.36497
 C409 C 0.55515 0.47181 0.34636
 C410 C 0.55585 0.45649 0.32698
 C411 C 0.56754 0.43194 0.32661
 C412 C 0.57801 0.42271 0.34521
 C413 C 0.58715 0.42765 0.38356
 C414 C 0.59557 0.41845 0.39937
 C415 C 0.60554 0.40673 0.41797
 C416 C 0.63463 0.43045 0.42990
 C417 C 0.64501 0.41868 0.44751
 C418 C 0.62641 0.38294 0.45340
 C419 C 0.59696 0.35941 0.44139
 C420 C 0.58665 0.37126 0.42381
 H421 H 0.56462 0.47431 0.37978
 H422 H 0.54590 0.49048 0.34718
 H423 H 0.56885 0.42008 0.31191
 H424 H 0.58684 0.40368 0.34461
 H425 H 0.64949 0.45797 0.42547
 H426 H 0.66783 0.43749 0.45636
 H427 H 0.58206 0.33174 0.44544
 H428 H 0.56414 0.35266 0.41465
 C429 C 0.56844 0.14107 0.36614
 C430 C 0.53744 0.10851 0.36571
 C431 C 0.52727 0.08828 0.34726
 C432 C 0.54806 0.10016 0.32875
 C433 C 0.57927 0.13334 0.32960
 C434 C 0.58923 0.15342 0.34806
 C435 C 0.57921 0.16194 0.38510
 C436 C 0.58897 0.18001 0.40073
 C437 C 0.60145 0.20224 0.41910
 C438 C 0.57828 0.20790 0.43137
 C439 C 0.59079 0.23056 0.44876
 C440 C 0.62671 0.24791 0.45407
 C441 C 0.64969 0.24172 0.44172
 C442 C 0.63711 0.21906 0.42436
 H443 H 0.52124 0.09857 0.37971
 H444 H 0.50379 0.06270 0.34802
 H445 H 0.59565 0.14485 0.31586
 H446 H 0.61315 0.17880 0.34816
 H447 H 0.55063 0.19507 0.42740
 H448 H 0.57239 0.23477 0.45788
 H449 H 0.67748 0.25465 0.44531
 H450 H 0.65529 0.21493 0.41493
 C451 C 0.86332 0.42738 0.36298
 C452 C 0.84690 0.42616 0.34383
 C453 C 0.86614 0.43561 0.32506
 C454 C 0.90215 0.44644 0.32519
 C455 C 0.91838 0.44727 0.34450
 C456 C 0.89907 0.43783 0.36328
 C457 C 0.84344 0.41833 0.38228
 C458 C 0.82626 0.41084 0.39823
 C459 C 0.80511 0.40193 0.41701
 C460 C 0.78863 0.42108 0.42241
 C461 C 0.76695 0.41172 0.44017
 C462 C 0.76142 0.38299 0.45280
 C463 C 0.77846 0.36415 0.44736
 C464 C 0.80013 0.37358 0.42957
 H465 H 0.81922 0.41801 0.34341
 H466 H 0.85280 0.43422 0.31042
 H467 H 0.94614 0.45588 0.34513
 H468 H 0.91205 0.43896 0.37803
 H469 H 0.79225 0.44304 0.41276
 H470 H 0.75424 0.42677 0.44386
 H471 H 0.77473 0.34186 0.45669
 H472 H 0.81270 0.35852 0.42550
 C473 C 0.56363 0.42439 1.13528
 C474 C 0.57890 0.42362 1.15450
 C475 C 0.56961 0.43408 1.17309
 C476 C 0.54488 0.44549 1.17270
 C477 C 0.52945 0.44594 1.15332
 C478 C 0.53882 0.43548 1.13473
 C479 C 0.57385 0.41416 1.11618
 C480 C 0.58302 0.40565 1.10039
 C481 C 0.59465 0.39556 1.08181
 C482 C 0.63006 0.41437 1.07595
 C483 C 0.64181 0.40391 1.05839
 C484 C 0.61825 0.37441 1.04641
 C485 C 0.58259 0.35590 1.05230
 C486 C 0.57091 0.36642 1.06989
 H487 H 0.59806 0.41498 1.15512
 H488 H 0.58157 0.43295 1.18779
 H489 H 0.51064 0.45497 1.15249
 H490 H 0.52691 0.43628 1.11992
 H491 H 0.64868 0.43692 1.08510
 H492 H 0.66942 0.41874 1.05435
 H493 H 0.56376 0.33304 1.04348
 H494 H 0.54345 0.35163 1.07432
 C495 C 0.85941 0.43282 1.13380
 C496 C 0.84384 0.41796 1.15319
 C497 C 0.86397 0.42794 1.17163
 C498 C 0.90004 0.45298 1.17093
 C499 C 0.91541 0.46805 1.15139
 C500 C 0.89520 0.45798 1.13293
 C501 C 0.83857 0.42175 1.11485
 C502 C 0.82054 0.41179 1.09921
 C503 C 0.79836 0.39917 1.08084
 C504 C 0.78147 0.36338 1.07568
 C505 C 0.75885 0.35069 1.05832
 C506 C 0.75277 0.37368 1.04586
 C507 C 0.77019 0.40972 1.05106
 C508 C 0.79281 0.42234 1.06845
 H509 H 0.81614 0.39854 1.15405
 H510 H 0.85126 0.41625 1.18646
 H511 H 0.94318 0.48710 1.15032
 H512 H 0.90753 0.46959 1.11799
 H513 H 0.78552 0.34520 1.08520
 H514 H 0.74588 0.32282 1.05481
 H515 H 0.76607 0.42814 1.04186
 H516 H 0.80568 0.45009 1.07234
 C517 C 0.57203 0.13714 1.13743
 C518 C 0.56927 0.10404 1.13826
 C519 C 0.55965 0.08475 1.15707
 C520 C 0.55240 0.09816 1.17555
 C521 C 0.55565 0.13189 1.17431
 C522 C 0.56533 0.15102 1.15549
 C523 C 0.58150 0.15695 1.11807
 C524 C 0.58926 0.17410 1.10207
 C525 C 0.59837 0.19524 1.08325
 C526 C 0.62677 0.20016 1.07081
 C527 C 0.63634 0.22181 1.05297
 C528 C 0.61760 0.23888 1.04736
 C529 C 0.58884 0.23342 1.05988
 C530 C 0.57934 0.21176 1.07768
 H531 H 0.57419 0.09291 1.12429
 H532 H 0.55651 0.05870 1.15662
 H533 H 0.55209 0.14451 1.18797
 H534 H 0.56774 0.17684 1.15507
 H535 H 0.64173 0.18756 1.07501
 H536 H 0.65865 0.22549 1.04374
 H537 H 0.57386 0.24615 1.05606
 H538 H 0.55735 0.20819 1.08723
 C539 C 0.43791 0.57722 1.13538
 C540 C 0.46274 0.56616 1.13486
 C541 C 0.47203 0.55564 1.15346
 C542 C 0.45650 0.55599 1.17281
 C543 C 0.43176 0.56740 1.17317
 C544 C 0.42255 0.57793 1.15458
 C545 C 0.42768 0.58741 1.11627
 C546 C 0.41845 0.59582 1.10046
 C547 C 0.40667 0.60573 1.08188
 C548 C 0.43022 0.63497 1.06997
 C549 C 0.41837 0.64528 1.05236
 C550 C 0.38272 0.62646 1.04645
 C551 C 0.35935 0.59686 1.05843
 C552 C 0.37128 0.58662 1.07600
 H553 H 0.47471 0.56542 1.12007
 H554 H 0.49086 0.54662 1.15265
 H555 H 0.41973 0.56845 1.18785
 H556 H 0.40336 0.58653 1.15517
 H557 H 0.45766 0.65000 1.07442
 H558 H 0.43704 0.66821 1.04354
 H559 H 0.33176 0.58179 1.05437
 H560 H 0.35281 0.56399 1.08514
 C561 C 0.14122 0.56634 1.13374
 C562 C 0.15687 0.58118 1.15312
 C563 C 0.13682 0.57118 1.17158
 C564 C 0.10076 0.54615 1.17091
 C565 C 0.08529 0.53110 1.15137
 C566 C 0.10542 0.54119 1.13290
 C567 C 0.16196 0.57743 1.11477
 C568 C 0.17992 0.58741 1.09912
 C569 C 0.20202 0.60008 1.08073
 C570 C 0.21858 0.63582 1.07550
 C571 C 0.24115 0.64858 1.05814
 C572 C 0.24749 0.62571 1.04574
 C573 C 0.23039 0.58971 1.05101
 C574 C 0.20783 0.57702 1.06840
 H575 H 0.18458 0.60059 1.15396
 H576 H 0.14959 0.58284 1.18641
 H577 H 0.05752 0.51206 1.15032
 H578 H 0.09302 0.52961 1.11796
 H579 H 0.21433 0.65392 1.08497
 H580 H 0.25388 0.67643 1.05457
 H581 H 0.23472 0.57139 1.04185
 H582 H 0.19520 0.54931 1.07235
 C583 C 0.42575 0.86313 1.13702
 C584 C 0.42396 0.84644 1.15617
 C585 C 0.43350 0.86563 1.17497
 C586 C 0.44500 0.90187 1.17489
 C587 C 0.44637 0.91838 1.15558
 C588 C 0.43683 0.89911 1.13676
 C589 C 0.41673 0.84330 1.11768
 C590 C 0.40929 0.82614 1.10170
 C591 C 0.40050 0.80499 1.08290
 C592 C 0.41984 0.78875 1.07744
 C593 C 0.41061 0.76705 1.05967
 C594 C 0.38180 0.76125 1.04708
 C595 C 0.36277 0.77806 1.05256
 C596 C 0.37207 0.79976 1.07037
 H597 H 0.41533 0.81858 1.15655
 H598 H 0.43169 0.85208 1.18961
 H599 H 0.45549 0.94631 1.15499
 H600 H 0.43841 0.91231 1.12201
 H601 H 0.44186 0.79256 1.08706
 H602 H 0.42581 0.75451 1.05594
 H603 H 0.34042 0.77412 1.04327
 H604 H 0.35687 0.81214 1.07448
 C605 C 0.57683 0.43786 0.63539
 C606 C 0.56560 0.46259 0.63491
 C607 C 0.55491 0.47168 0.65351
 C608 C 0.55528 0.45606 0.67284
 C609 C 0.56672 0.43131 0.67315
 C610 C 0.57742 0.42230 0.65455
 C611 C 0.58774 0.42830 0.61630
 C612 C 0.59702 0.41994 0.60050
 C613 C 0.60831 0.40957 0.58189
 C614 C 0.64379 0.42746 0.57616
 C615 C 0.65508 0.41656 0.55858
 C616 C 0.63098 0.38752 0.54647
 C617 C 0.59526 0.36995 0.55224
 C618 C 0.58405 0.38092 0.56984
 H619 H 0.56498 0.47475 0.62015
 H620 H 0.54584 0.49050 0.65273
 H621 H 0.56778 0.41920 0.68781
 H622 H 0.58618 0.40322 0.65511
 H623 H 0.66280 0.44962 0.58541
 H624 H 0.68275 0.43067 0.55462
 H625 H 0.57602 0.34748 0.54332
 H626 H 0.55653 0.36682 0.57418
 C627 C 0.57476 0.14204 0.63468
 C628 C 0.56439 0.10626 0.63369
 C629 C 0.55384 0.08575 0.65203
 C630 C 0.55346 0.10080 0.67157
 C631 C 0.56417 0.13684 0.67239
 C632 C 0.57473 0.15727 0.65407
 C633 C 0.58515 0.16320 0.61586
 C634 C 0.59381 0.18143 0.60029
 C635 C 0.60413 0.20374 0.58196
 C636 C 0.63238 0.20817 0.56956
 C637 C 0.64304 0.23073 0.55212
 C638 C 0.62555 0.24920 0.54687
 C639 C 0.59697 0.24431 0.55937
 C640 C 0.58638 0.22174 0.57678
 H641 H 0.56425 0.09419 0.61875
 H642 H 0.54538 0.05800 0.65087
 H643 H 0.56467 0.14930 0.68724
 H644 H 0.58281 0.18496 0.65502
 H645 H 0.64636 0.19442 0.57346
 H646 H 0.66516 0.23391 0.54289
 H647 H 0.58294 0.25812 0.55581
 H648 H 0.56451 0.21856 0.58630
 C649 C 0.86420 0.43796 0.63625
 C650 C 0.84736 0.42281 0.65532
 C651 C 0.86636 0.43215 0.67418
 C652 C 0.90254 0.45682 0.67423
 C653 C 0.91920 0.47217 0.65501
 C654 C 0.90012 0.46274 0.63613
 C655 C 0.84453 0.42758 0.61686
 C656 C 0.82749 0.41826 0.60084
 C657 C 0.80642 0.40642 0.58200
 C658 C 0.78924 0.37073 0.57657
 C659 C 0.76746 0.35877 0.55883
 C660 C 0.76253 0.38241 0.54625
 C661 C 0.78035 0.41835 0.55168
 C662 C 0.80211 0.43024 0.56946
 H663 H 0.81953 0.40367 0.65559
 H664 H 0.85270 0.42025 0.68875
 H665 H 0.94710 0.49092 0.65451
 H666 H 0.91343 0.47456 0.62145
 H667 H 0.79233 0.35206 0.58621
 H668 H 0.75414 0.33095 0.55514
 H669 H 0.77709 0.43724 0.54240
 H670 H 0.81523 0.45791 0.57356
 C671 C 0.42354 0.56271 0.63543
 C672 C 0.43477 0.53798 0.63493
 C673 C 0.44555 0.52893 0.65352
 C674 C 0.44526 0.54459 0.67285
 C675 C 0.43381 0.56933 0.67317
 C676 C 0.42304 0.57830 0.65459
 C677 C 0.41253 0.57223 0.61635
 C678 C 0.40318 0.58055 0.60056
 C679 C 0.39180 0.59085 0.58194
 C680 C 0.35630 0.57289 0.57623
 C681 C 0.34493 0.58370 0.55864
 C682 C 0.36897 0.61271 0.54650
 C683 C 0.40470 0.63035 0.55225
 C684 C 0.41599 0.61948 0.56986
 H685 H 0.43533 0.52580 0.62017
 H686 H 0.45461 0.51011 0.65272
 H687 H 0.43282 0.58147 0.68784
 H688 H 0.41427 0.59739 0.65517
 H689 H 0.33734 0.55075 0.58550
 H690 H 0.31725 0.56954 0.55470
 H691 H 0.42390 0.65280 0.54330
 H692 H 0.44353 0.63363 0.57418
 C693 C 0.42538 0.85786 0.63459
 C694 C 0.42746 0.89068 0.63495
 C695 C 0.43796 0.91109 0.65333
 C696 C 0.44677 0.89911 0.67185
 C697 C 0.44429 0.86568 0.67107
 C698 C 0.43374 0.84542 0.65268
 C699 C 0.41474 0.83679 0.61571
 C700 C 0.40596 0.81861 0.60011
 C701 C 0.39558 0.79631 0.58176
 C702 C 0.36719 0.79173 0.56943
 C703 C 0.35651 0.76917 0.55198
 C704 C 0.37412 0.75084 0.54665
 C705 C 0.40284 0.75589 0.55908
 C706 C 0.41344 0.77846 0.57650
 H707 H 0.42127 0.90069 0.62094
 H708 H 0.44044 0.93684 0.65251
 H709 H 0.44908 0.85411 0.68482
 H710 H 0.43187 0.81984 0.65264
 H711 H 0.35313 0.80537 0.57339
 H712 H 0.33429 0.76586 0.54280
 H713 H 0.41696 0.74220 0.55548
 H714 H 0.43541 0.78175 0.58597
 C715 C 0.13574 0.56313 0.63623
 C716 C 0.10264 0.53289 0.63721
 C717 C 0.08365 0.52344 0.65611
 C718 C 0.09736 0.54423 0.67453
 C719 C 0.13106 0.57463 0.67313
 C720 C 0.14990 0.58387 0.65422
 C721 C 0.15532 0.57317 0.61680
 C722 C 0.17231 0.58227 0.60076
 C723 C 0.19334 0.59392 0.58190
 C724 C 0.19778 0.57003 0.56951
 C725 C 0.21952 0.58177 0.55173
 C726 C 0.23718 0.61764 0.54613
 C727 C 0.23212 0.64134 0.55856
 C728 C 0.21037 0.62953 0.57631
 H729 H 0.09131 0.51674 0.62330
 H730 H 0.05760 0.50059 0.65579
 H731 H 0.14388 0.59091 0.68674
 H732 H 0.17572 0.60719 0.65369
 H733 H 0.18478 0.54241 0.57374
 H734 H 0.22288 0.56283 0.54256
 H735 H 0.24532 0.66912 0.55475
 H736 H 0.20718 0.64827 0.58582
 C737 C 0.43892 0.57623 0.86528
 C738 C 0.41769 0.54196 0.85772
 C739 C 0.42667 0.53120 0.83912
 C740 C 0.45704 0.55465 0.82782
 C741 C 0.47839 0.58897 0.83565
 C742 C 0.46933 0.59967 0.85425
 C743 C 0.42904 0.58752 0.88410
 C744 C 0.42042 0.59698 0.89972
 C745 C 0.40975 0.60835 0.91817
 C746 C 0.38124 0.58397 0.93023
 C747 C 0.37009 0.59517 0.94774
 C748 C 0.38734 0.63100 0.95343
 C749 C 0.41622 0.65524 0.94130
 C750 C 0.42730 0.64395 0.92380
 H751 H 0.39411 0.52358 0.86615
 H752 H 0.40998 0.50448 0.83365
 H753 H 0.50170 0.60773 0.82718
 H754 H 0.48587 0.62632 0.85993
 H755 H 0.36742 0.55634 0.92597
 H756 H 0.34775 0.57582 0.95668
 H757 H 0.43006 0.68300 0.94519
 H758 H 0.44936 0.66306 0.91454
 C759 C 0.14036 0.57167 0.86571
 C760 C 0.13356 0.54087 0.85528
 C761 C 0.11327 0.53043 0.83690
 C762 C 0.09922 0.55066 0.82845
 C763 C 0.10613 0.58157 0.83946
 C764 C 0.12652 0.59191 0.85782
 C765 C 0.16209 0.58272 0.88429
 C766 C 0.18067 0.59185 0.89970
 C767 C 0.20326 0.60262 0.91791
 C768 C 0.22145 0.58507 0.92310
 C769 C 0.24407 0.59593 0.94048
 C770 C 0.24883 0.62458 0.95292
 C771 C 0.23021 0.64192 0.94763
 C772 C 0.20760 0.63099 0.93024
 H773 H 0.14391 0.52481 0.86137
 H774 H 0.10780 0.50572 0.82991
 H775 H 0.09734 0.59898 0.83356
 H776 H 0.13188 0.61601 0.86571
 H777 H 0.21831 0.56311 0.91364
 H778 H 0.25799 0.58203 0.94406
 H779 H 0.23329 0.66409 0.95683
 H780 H 0.19368 0.64479 0.92633
 C781 C 0.43563 0.86390 0.86352
 C782 C 0.46604 0.89688 0.86248
 C783 C 0.47553 0.91588 0.84357
 C784 C 0.45463 0.90227 0.82520
 C785 C 0.42407 0.86869 0.82665
 C786 C 0.41478 0.84984 0.84557
 C787 C 0.42558 0.84433 0.88295
 C788 C 0.41647 0.82732 0.89901
 C789 C 0.40483 0.80628 0.91786
 C790 C 0.42873 0.80213 0.93038
 C791 C 0.41703 0.78034 0.94816
 C792 C 0.38117 0.76235 0.95363
 C793 C 0.35746 0.76714 0.94108
 C794 C 0.36924 0.78893 0.92333
 H795 H 0.48228 0.90813 0.87637
 H796 H 0.49852 0.94186 0.84386
 H797 H 0.40768 0.85594 0.81308
 H798 H 0.39133 0.82411 0.84615
 H799 H 0.45634 0.81537 0.92624
 H800 H 0.43598 0.77720 0.95742
 H801 H 0.32970 0.75368 0.94480
 H802 H 0.35050 0.79190 0.91372
 C803 C 0.56219 0.42452 0.86522
 C804 C 0.53170 0.40113 0.85422
 C805 C 0.52259 0.41186 0.83564
 C806 C 0.54397 0.44616 0.82780
 C807 C 0.57443 0.46955 0.83907
 C808 C 0.58346 0.45877 0.85764
 C809 C 0.57209 0.41320 0.88402
 C810 C 0.58071 0.40369 0.89963
 C811 C 0.59133 0.39224 0.91808
 C812 C 0.57350 0.35667 0.92377
 C813 C 0.58448 0.34530 0.94129
 C814 C 0.61353 0.36942 0.95337
 C815 C 0.63107 0.40521 0.94761
 C816 C 0.62002 0.41650 0.93008
 H817 H 0.51512 0.37450 0.85990
 H818 H 0.49922 0.39313 0.82720
 H819 H 0.59115 0.49627 0.83359
 H820 H 0.60710 0.47711 0.86604
 H821 H 0.55130 0.33766 0.91457
 H822 H 0.57041 0.31757 0.94523
 H823 H 0.65354 0.42447 0.95651
 H824 H 0.63405 0.44410 0.92577
 C825 C 0.86065 0.42659 0.86621
 C826 C 0.86711 0.40267 0.85529
 C827 C 0.88756 0.41316 0.83696
 C828 C 0.90175 0.44774 0.82929
 C829 C 0.89540 0.47167 0.84052
 C830 C 0.87498 0.46114 0.85884
 C831 C 0.83868 0.41558 0.88469
 C832 C 0.81993 0.40652 0.90002
 C833 C 0.79717 0.39588 0.91814
 C834 C 0.79243 0.36738 0.93048
 C835 C 0.76973 0.35665 0.94783
 C836 C 0.75143 0.37432 0.95306
 C837 C 0.75657 0.40309 0.94060
 C838 C 0.77928 0.41375 0.92327
 H839 H 0.85603 0.37582 0.86082
 H840 H 0.89164 0.39403 0.82854
 H841 H 0.90636 0.49859 0.83518
 H842 H 0.87020 0.47989 0.86719
 H843 H 0.80612 0.35332 0.92662
 H844 H 0.76635 0.33437 0.95704
 H845 H 0.74289 0.41726 0.94413
 H846 H 0.78272 0.43583 0.91381
 C847 C 0.56217 0.13537 0.86389
 C848 C 0.53718 0.09944 0.86397
 C849 C 0.52761 0.08038 0.84507
 C850 C 0.54301 0.09707 0.82586
 C851 C 0.56789 0.13326 0.82595
 C852 C 0.57738 0.15224 0.84484
 C853 C 0.57266 0.15502 0.88330
 C854 C 0.58206 0.17208 0.89933
 C855 C 0.59397 0.19318 0.91817
 C856 C 0.57030 0.19766 0.93070
 C857 C 0.58225 0.21950 0.94846
 C858 C 0.61812 0.23723 0.95389
 C859 C 0.64161 0.23211 0.94133
 C860 C 0.62958 0.21025 0.92361
 H861 H 0.52532 0.08611 0.87865
 H862 H 0.50869 0.05248 0.84553
 H863 H 0.57983 0.14694 0.81139
 H864 H 0.59667 0.18006 0.84458
 H865 H 0.54268 0.18463 0.92660
 H866 H 0.56347 0.22290 0.95773
 H867 H 0.66938 0.24536 0.94502
 H868 H 0.64815 0.20703 0.91398
   
