data_POSCAR
  _audit_creation_date              2014-09-24
  _audit_creation_method            'ToBaCCo'
  _symmetry_space_group_name_H-M    'P1'
  _symmetry_Int_Tables_number       1
  _symmetry_cell_setting            triclinic
  loop_
  _symmetry_equiv_pos_as_xyz
 x,y,z
_cell_length_a 62.4856
_cell_length_b 61.2788
_cell_length_c 25.5972
_cell_angle_alpha 90.218100
_cell_angle_beta 89.928500
_cell_angle_gamma 119.688100
loop_
  _atom_site_label
  _atom_site_type_symbol
  _atom_site_fract_x
  _atom_site_fract_y
  _atom_site_fract_z
C1 C 0.17965 0.48248 0.49399
 C2 C 0.19299 0.48623 0.44745
 C3 C 0.21564 0.48655 0.45021
 C4 C 0.22442 0.48207 0.49763
 C5 C 0.21000 0.47767 0.54308
 C6 C 0.18826 0.47926 0.54249
 C7 C 0.24912 0.48334 0.50007
 C8 C 0.26242 0.48851 0.54759
 C9 C 0.28579 0.49052 0.54939
 C10 C 0.29660 0.48862 0.50299
 C11 C 0.28420 0.48409 0.45527
 C12 C 0.26019 0.48039 0.45435
 H13 H 0.16140 0.48026 0.49205
 H14 H 0.22702 0.49179 0.41571
 H15 H 0.21630 0.47418 0.57954
 H16 H 0.25534 0.49180 0.58344
 H17 H 0.31470 0.49031 0.50403
 H18 H 0.25063 0.47581 0.41736
 C19 C 0.56006 -0.28140 0.49310
 C20 C 0.56326 -0.26820 0.44618
 C21 C 0.56291 -0.24540 0.44854
 C22 C 0.55771 -0.23674 0.49546
 C23 C 0.55334 -0.25126 0.54095
 C24 C 0.55535 -0.27317 0.54097
 C25 C 0.55680 -0.21266 0.49693
 C26 C 0.56099 -0.19885 0.54391
 C27 C 0.55948 -0.17674 0.54551
 C28 C 0.55521 -0.16748 0.49911
 C29 C 0.55159 -0.18038 0.45181
 C30 C 0.55160 -0.20326 0.45126
 H31 H 0.55864 -0.29970 0.49160
 H32 H 0.56763 -0.23396 0.41387
 H33 H 0.54908 -0.24506 0.57693
 H34 H 0.56574 -0.20483 0.57958
 H35 H 0.55380 -0.15055 0.50002
 H36 H 0.54762 -0.21350 0.41481
 C37 C 1.29540 0.81782 0.50838
 C38 C 1.28310 0.81169 0.45990
 C39 C 1.25836 0.79198 0.45885
 C40 C 1.24701 0.77709 0.50352
 C41 C 1.26047 0.78338 0.55061
 C42 C 1.28431 0.80396 0.55345
 C43 C 1.22184 0.75420 0.50030
 C44 C 1.20686 0.74434 0.54528
 C45 C 1.18449 0.72120 0.54373
 C46 C 1.17620 0.70956 0.49462
 C47 C 1.19037 0.71921 0.44946
 C48 C 1.21326 0.74109 0.45267
 H49 H 1.31349 0.83422 0.51218
 H50 H 1.24824 0.78739 0.42264
 H51 H 1.25300 0.77203 0.58519
 H52 H 1.21328 0.75412 0.58196
 H53 H 1.15815 0.69313 0.49054
 H54 H 1.22455 0.74714 0.41791
 C55 C 0.82134 0.53853 0.50559
 C56 C 0.80819 0.53232 0.45852
 C57 C 0.78336 0.52615 0.45896
 C58 C 0.77183 0.52752 0.50543
 C59 C 0.78585 0.53458 0.55200
 C60 C 0.81022 0.53920 0.55267
 C61 C 0.74521 0.52093 0.50552
 C62 C 0.73099 0.51279 0.55173
 C63 C 0.70591 0.50623 0.55243
 C64 C 0.69482 0.50642 0.50469
 C65 C 0.70833 0.51398 0.45821
 C66 C 0.73358 0.52207 0.45919
 H67 H 0.84000 0.54167 0.50582
 H68 H 0.77322 0.52016 0.42271
 H69 H 0.77808 0.53656 0.58824
 H70 H 0.73901 0.51031 0.58693
 H71 H 0.67585 0.50222 0.50343
 H72 H 0.74384 0.52889 0.42327
 C73 C 0.43506 0.27450 0.50754
 C74 C 0.44213 0.26799 0.46071
 C75 C 0.44638 0.24761 0.45983
 C76 C 0.44290 0.23304 0.50486
 C77 C 0.43552 0.23987 0.55145
 C78 C 0.43246 0.26119 0.55410
 C79 C 0.44816 0.21162 0.50374
 C80 C 0.45530 0.20411 0.54963
 C81 C 0.46142 0.18481 0.54889
 C82 C 0.46138 0.17392 0.50031
 C83 C 0.45479 0.18130 0.45419
 C84 C 0.44729 0.19935 0.45638
 H85 H 0.43312 0.29108 0.50769
 H86 H 0.45340 0.24399 0.42418
 H87 H 0.43154 0.22822 0.58567
 H88 H 0.45755 0.21428 0.58561
 H89 H 0.46530 0.15861 0.49785
 H90 H 0.44139 0.20408 0.42058
 C91 C 0.70979 0.17669 0.49891
 C92 C 0.71917 0.19032 0.45271
 C93 C 0.74270 0.21167 0.45305
 C94 C 0.75742 0.21903 0.49859
 C95 C 0.74764 0.20459 0.54431
 C96 C 0.72372 0.18382 0.54498
 C97 C 0.78272 0.24173 0.49833
 C98 C 0.79336 0.25547 0.54467
 C99 C 0.81739 0.27647 0.54525
 C100 C 0.83000 0.28443 0.49730
 C101 C 0.81952 0.27169 0.45052
 C102 C 0.79632 0.25000 0.45157
 H103 H 0.69144 0.16046 0.49905
 H104 H 0.74907 0.22270 0.41775
 H105 H 0.75854 0.20902 0.57956
 H106 H 0.78310 0.24939 0.58062
 H107 H 0.84741 0.30177 0.49526
 H108 H 0.78912 0.23970 0.41550
 N109 N 1.02486 0.47731 0.05579
 N110 N 1.04392 0.47381 0.06289
 N111 N 0.97257 0.46503 0.09223
 N112 N 0.95611 0.45194 0.12830
 N113 N 0.97300 0.45010 0.05583
 N114 N 0.95686 0.42643 0.06630
 N115 N 1.02436 0.49226 0.09201
 N116 N 1.04306 0.49951 0.12436
 C117 C 1.05515 0.48792 0.10586
 C118 C 0.94625 0.42791 0.11138
 N119 N 0.97134 0.52714 0.05985
 N120 N 0.95357 0.53224 0.07061
 N121 N 1.02334 0.53841 0.09428
 N122 N 1.04208 0.55013 0.12651
 N123 N 1.02322 0.55402 0.05948
 N124 N 1.04188 0.57694 0.06743
 N125 N 0.97159 0.51146 0.09434
 N126 N 0.95402 0.50538 0.12919
 Mn127 Mn 0.99792 0.50178 0.09367
 C128 C 0.94279 0.51831 0.11384
 C129 C 1.05351 0.57413 0.10942
 N130 N 0.97280 0.45097 -0.05696
 N131 N 0.95549 0.42766 -0.06730
 N132 N 1.02419 0.49340 -0.09184
 N133 N 1.04178 0.49937 -0.12662
 N134 N 1.02455 0.47794 -0.05696
 N135 N 1.04232 0.47283 -0.06730
 N136 N 0.97239 0.46650 -0.09162
 N137 N 0.95479 0.45427 -0.12622
 Mn138 Mn 0.99881 0.46381 -0.00060
 C139 C 0.94427 0.43008 -0.11047
 C140 C 1.05306 0.48653 -0.11069
 N141 N 1.02308 0.55498 -0.05350
 N142 N 1.03997 0.57849 -0.06352
 N143 N 0.97153 0.51304 -0.08956
 N144 N 0.95488 0.50886 -0.12567
 N145 N 0.97132 0.52810 -0.05315
 N146 N 0.95455 0.53462 -0.06375
 N147 N 1.02331 0.53983 -0.08962
 N148 N 1.04040 0.55249 -0.12478
 Mn149 Mn 0.99724 0.54135 0.00325
 Mn150 Mn 0.99784 0.50317 -0.09112
 Cl151 Cl 0.99791 0.50251 0.00126
 C152 C 1.05081 0.57656 -0.10794
 C153 C 0.94423 0.52220 -0.10887
 N154 N 0.46519 0.44605 0.05917
 N155 N 0.45782 0.42237 0.07094
 N156 N 0.46097 0.49305 0.08805
 N157 N 0.45026 0.50044 0.12274
 N158 N 0.44487 0.47790 0.05359
 N159 N 0.42271 0.47447 0.06416
 N160 N 0.48130 0.46122 0.09360
 N161 N 0.48546 0.44839 0.12939
 C162 C 0.47079 0.42419 0.11480
 C163 C 0.42645 0.48894 0.10709
 N164 N 0.52586 0.54916 0.04880
 N165 N 0.53541 0.57349 0.05788
 N166 N 0.53000 0.50409 0.09086
 N167 N 0.54073 0.49826 0.12830
 N168 N 0.54594 0.51713 0.05425
 N169 N 0.56802 0.52064 0.06605
 N170 N 0.50978 0.53603 0.08514
 N171 N 0.50786 0.55102 0.11959
 Mn172 Mn 0.49549 0.49861 0.08983
 C173 C 0.52373 0.57434 0.10188
 C174 C 0.56439 0.50849 0.11218
 N175 N 0.44454 0.47503 -0.05911
 N176 N 0.42299 0.47338 -0.06882
 N177 N 0.48057 0.45600 -0.09017
 N178 N 0.48262 0.44098 -0.12433
 N179 N 0.46462 0.44291 -0.05363
 N180 N 0.45528 0.41858 -0.06222
 N181 N 0.46052 0.48812 -0.09560
 N182 N 0.45041 0.49580 -0.13087
 Mn183 Mn 0.45452 0.46022 0.00003
 C184 C 0.42702 0.48658 -0.11372
 C185 C 0.46694 0.41769 -0.10619
 N186 N 0.54553 0.51389 -0.05850
 N187 N 0.56724 0.51571 -0.06698
 N188 N 0.50924 0.53087 -0.09850
 N189 N 0.50504 0.54386 -0.13388
 N190 N 0.52531 0.54591 -0.06387
 N191 N 0.53255 0.56961 -0.07492
 N192 N 0.52935 0.49880 -0.09293
 N193 N 0.53950 0.48985 -0.12544
 Mn194 Mn 0.53594 0.53176 -0.00492
 Mn195 Mn 0.49494 0.49344 -0.09478
 Cl196 Cl 0.49523 0.49601 -0.00243
 C197 C 0.56309 0.50040 -0.10871
 C198 C 0.51962 0.56799 -0.11865
 N199 N 0.44889 -0.02884 0.05337
 N200 N 0.42596 -0.04613 0.06422
 N201 N 0.48812 0.02455 0.08934
 N202 N 0.49191 0.04183 0.12456
 N203 N 0.47311 0.02390 0.05275
 N204 N 0.46612 0.04066 0.06244
 N205 N 0.46397 -0.02822 0.08978
 N206 N 0.45180 -0.04511 0.12601
 C207 C 0.42815 -0.05636 0.10942
 C208 C 0.47827 0.05190 0.10717
 N209 N 0.55073 0.02694 0.05823
 N210 N 0.57307 0.04571 0.06847
 N211 N 0.51077 -0.02642 0.09295
 N212 N 0.50527 -0.04438 0.12736
 N213 N 0.52659 -0.02590 0.05847
 N214 N 0.53235 -0.04348 0.06867
 N215 N 0.53487 0.02636 0.09264
 N216 N 0.54587 0.04471 0.12691
 Mn217 Mn 0.49944 -0.00094 0.09161
 C218 C 0.56967 0.05674 0.11131
 C219 C 0.51875 -0.05497 0.11163
 N220 N 0.47459 0.02358 -0.06018
 N221 N 0.46932 0.04157 -0.06999
 N222 N 0.46620 -0.02883 -0.09393
 N223 N 0.45527 -0.04780 -0.12688
 N224 N 0.45040 -0.02928 -0.05949
 N225 N 0.42821 -0.04857 -0.06827
 N226 N 0.49038 0.02398 -0.09458
 N227 N 0.49638 0.04224 -0.12843
 Mn228 Mn 0.46147 -0.00266 -0.00351
 C229 C 0.48320 0.05314 -0.11263
 C230 C 0.43159 -0.06000 -0.11040
 N231 N 0.52814 -0.02619 -0.05430
 N232 N 0.53612 -0.04207 -0.06500
 N233 N 0.53721 0.02577 -0.09151
 N234 N 0.54955 0.04245 -0.12803
 N235 N 0.55217 0.02652 -0.05467
 N236 N 0.57513 0.04367 -0.06541
 N237 N 0.51310 -0.02699 -0.09102
 N238 N 0.51039 -0.04346 -0.12742
 Mn239 Mn 0.53966 0.00036 0.00203
 Mn240 Mn 0.50168 -0.00153 -0.09322
 Cl241 Cl 0.50057 -0.00120 -0.00078
 C242 C 0.52460 -0.05297 -0.11047
 C243 C 0.57315 0.05370 -0.11102
 C244 C 1.16057 0.49179 0.30590
 C245 C 1.17703 0.48255 0.30493
 C246 C 1.18863 0.48161 0.35114
 C247 C 1.18350 0.48947 0.39937
 C248 C 1.16765 0.49977 0.39867
 C249 C 1.15636 0.50084 0.35264
 C250 C 1.14670 0.49117 0.26047
 C251 C 1.13350 0.49114 0.22608
 C252 C 1.11624 0.49191 0.18993
 C253 C 1.10449 0.47335 0.15149
 C254 C 1.08518 0.47254 0.12202
 C255 C 1.07729 0.49007 0.13147
 C256 C 1.08982 0.50912 0.16874
 C257 C 1.10915 0.51004 0.19762
 H258 H 1.18042 0.47546 0.26886
 H259 H 1.20033 0.47325 0.34924
 H260 H 1.16410 0.50750 0.43356
 H261 H 1.14393 0.50840 0.35374
 H262 H 1.10967 0.45906 0.14555
 H263 H 1.07577 0.45765 0.09357
 H264 H 1.08427 0.52299 0.17660
 H265 H 1.11796 0.52437 0.22745
 C266 C 0.56170 0.69426 0.30538
 C267 C 0.57274 0.69120 0.35002
 C268 C 0.57456 0.70461 0.39556
 C269 C 0.56515 0.72137 0.39776
 C270 C 0.55575 0.72566 0.35098
 C271 C 0.55380 0.71200 0.30548
 C272 C 0.55602 0.67704 0.26228
 C273 C 0.55035 0.66104 0.22915
 C274 C 0.54260 0.64025 0.19337
 C275 C 0.52178 0.61732 0.20564
 C276 C 0.51525 0.59612 0.17473
 C277 C 0.52946 0.59752 0.13094
 C278 C 0.54988 0.62082 0.11763
 C279 C 0.55648 0.64207 0.14889
 H280 H 0.57917 0.67770 0.35029
 H281 H 0.58330 0.70160 0.42910
 H282 H 0.54794 0.73796 0.35016
 H283 H 0.54507 0.71442 0.27117
 H284 H 0.51094 0.61564 0.24003
 H285 H 0.49939 0.57848 0.18586
 H286 H 0.56117 0.62241 0.08415
 H287 H 0.57271 0.65970 0.13915
 C288 C 0.32194 -0.14966 0.32281
 C289 C 0.29630 -0.16043 0.32464
 C290 C 0.28328 -0.17327 0.36952
 C291 C 0.29577 -0.17537 0.41375
 C292 C 0.32169 -0.16449 0.41038
 C293 C 0.33447 -0.15184 0.36569
 C294 C 0.33610 -0.13591 0.27797
 C295 C 0.35003 -0.12375 0.24341
 C296 C 0.36886 -0.10855 0.20624
 C297 C 0.36363 -0.09870 0.16183
 C298 C 0.38281 -0.08230 0.12884
 C299 C 0.40736 -0.07550 0.14038
 C300 C 0.41226 -0.08604 0.18423
 C301 C 0.39317 -0.10243 0.21680
 H302 H 0.28640 -0.15871 0.29166
 H303 H 0.26360 -0.18054 0.36981
 H304 H 0.33235 -0.16649 0.44132
 H305 H 0.35431 -0.14382 0.36454
 H306 H 0.34489 -0.10324 0.15336
 H307 H 0.37855 -0.07439 0.09535
 H308 H 0.43095 -0.08125 0.19403
 H309 H 0.39746 -0.10989 0.25105
 C310 C 0.84527 0.52904 0.31976
 C311 C 0.85687 0.54950 0.35396
 C312 C 0.84456 0.55081 0.39839
 C313 C 0.82044 0.53162 0.40931
 C314 C 0.80863 0.51145 0.37399
 C315 C 0.82103 0.51014 0.32954
 C316 C 0.85909 0.52652 0.27747
 C317 C 0.87159 0.52431 0.24425
 C318 C 0.88752 0.52141 0.20767
 C319 C 0.89454 0.50342 0.21755
 C320 C 0.91198 0.50198 0.18586
 C321 C 0.92268 0.51856 0.14372
 C322 C 0.91494 0.53605 0.13279
 C323 C 0.89749 0.53754 0.16483
 H324 H 0.87566 0.56417 0.34694
 H325 H 0.85399 0.56670 0.42459
 H326 H 0.79017 0.49627 0.38169
 H327 H 0.81197 0.49408 0.30361
 H328 H 0.88703 0.49091 0.25069
 H329 H 0.91750 0.48824 0.19510
 H330 H 0.92291 0.54905 0.10060
 H331 H 0.89227 0.55164 0.15701
 C332 C 0.45289 0.31338 0.32511
 C333 C 0.44024 0.28716 0.32052
 C334 C 0.43708 0.27228 0.36444
 C335 C 0.44641 0.28353 0.41337
 C336 C 0.45949 0.30988 0.41720
 C337 C 0.46267 0.32465 0.37341
 C338 C 0.45549 0.32915 0.28130
 C339 C 0.45828 0.34385 0.24722
 C340 C 0.46244 0.36314 0.21014
 C341 C 0.44651 0.35833 0.16775
 C342 C 0.44959 0.37806 0.13527
 C343 C 0.46849 0.40274 0.14535
 C344 C 0.48475 0.40719 0.18710
 C345 C 0.48174 0.38753 0.21918
 H346 H 0.43258 0.27825 0.28330
 H347 H 0.42687 0.25202 0.36052
 H348 H 0.46727 0.31906 0.45413
 H349 H 0.47257 0.34493 0.37736
 H350 H 0.43142 0.33952 0.16060
 H351 H 0.43681 0.37415 0.10338
 H352 H 0.49955 0.42598 0.19568
 H353 H 0.49411 0.39150 0.25197
 C354 C 0.67507 0.15965 0.31501
 C355 C 0.70049 0.16874 0.31283
 C356 C 0.71513 0.17983 0.35706
 C357 C 0.70440 0.18170 0.40401
 C358 C 0.67901 0.17340 0.40512
 C359 C 0.66447 0.16244 0.36093
 C360 C 0.65930 0.14542 0.27229
 C361 C 0.64499 0.13234 0.23905
 C362 C 0.62658 0.11547 0.20279
 C363 C 0.63292 0.10526 0.16043
 C364 C 0.61443 0.08668 0.12913
 C365 C 0.58947 0.07803 0.14036
 C366 C 0.58337 0.08898 0.18194
 C367 C 0.60180 0.10755 0.21289
 H368 H 0.70885 0.16652 0.27759
 H369 H 0.73460 0.18587 0.35530
 H370 H 0.67033 0.17489 0.44056
 H371 H 0.64481 0.15542 0.36310
 H372 H 0.65205 0.11113 0.15250
 H373 H 0.61962 0.07853 0.09735
 H374 H 0.56431 0.08279 0.19137
 H375 H 0.59667 0.11522 0.24571
 C376 C 0.47458 0.15426 -0.31421
 C377 C 0.46034 0.16604 -0.31127
 C378 C 0.45681 0.17713 -0.35581
 C379 C 0.46713 0.17619 -0.40447
 C380 C 0.48239 0.16520 -0.40571
 C381 C 0.48598 0.15436 -0.36120
 C382 C 0.47641 0.14042 -0.27079
 C383 C 0.47823 0.12758 -0.23748
 C384 C 0.48088 0.11101 -0.20171
 C385 C 0.46441 0.09982 -0.16016
 C386 C 0.46560 0.08149 -0.12964
 C387 C 0.48311 0.07407 -0.14088
 C388 C 0.49999 0.08598 -0.18164
 C389 C 0.49887 0.10430 -0.21177
 H390 H 0.45132 0.16597 -0.27504
 H391 H 0.44461 0.18486 -0.35242
 H392 H 0.49200 0.16514 -0.44084
 H393 H 0.49731 0.14555 -0.36377
 H394 H 0.45028 0.10473 -0.15230
 H395 H 0.45237 0.07259 -0.09847
 H396 H 0.51376 0.08074 -0.19105
 H397 H 0.51161 0.11271 -0.24400
 C398 C 0.66441 0.49432 -0.30873
 C399 C 0.65269 0.48211 -0.35495
 C400 C 0.66640 0.48506 -0.40005
 C401 C 0.69231 0.50050 -0.40016
 C402 C 0.70400 0.51140 -0.35210
 C403 C 0.69011 0.50852 -0.30702
 C404 C 0.64961 0.49396 -0.26526
 C405 C 0.63589 0.49377 -0.23187
 C406 C 0.61803 0.49355 -0.19598
 C407 C 0.59300 0.47733 -0.20574
 C408 C 0.57518 0.47905 -0.17598
 C409 C 0.58214 0.49706 -0.13592
 C410 C 0.60731 0.51264 -0.12479
 C411 C 0.62519 0.51097 -0.15493
 H412 H 0.63279 0.47083 -0.35660
 H413 H 0.65645 0.47501 -0.43469
 H414 H 0.72371 0.52377 -0.34971
 H415 H 0.69938 0.51820 -0.27143
 H416 H 0.58724 0.46389 -0.23760
 H417 H 0.55593 0.46672 -0.18528
 H418 H 0.61315 0.52668 -0.09417
 H419 H 0.64453 0.52377 -0.14732
 C420 C 0.85168 0.31841 -0.31719
 C421 C 0.82598 0.30494 -0.32066
 C422 C 0.81451 0.29059 -0.36530
 C423 C 0.82861 0.28973 -0.40781
 C424 C 0.85457 0.30296 -0.40254
 C425 C 0.86586 0.31710 -0.35790
 C426 C 0.86387 0.33506 -0.27394
 C427 C 0.87531 0.35017 -0.24023
 C428 C 0.89027 0.36957 -0.20337
 C429 C 0.90069 0.36432 -0.16014
 C430 C 0.91766 0.38394 -0.12836
 C431 C 0.92449 0.40897 -0.13994
 C432 C 0.91329 0.41392 -0.18234
 C433 C 0.89631 0.39435 -0.21380
 H434 H 0.81481 0.30605 -0.28949
 H435 H 0.79464 0.28151 -0.36720
 H436 H 0.86642 0.30207 -0.43231
 H437 H 0.88580 0.32734 -0.35548
 H438 H 0.89629 0.34521 -0.15196
 H439 H 0.92604 0.37962 -0.09595
 H440 H 0.91811 0.43300 -0.19206
 H441 H 0.88848 0.39865 -0.24730
 C442 C 0.55667 -0.13929 -0.31491
 C443 C 0.54482 -0.16557 -0.31658
 C444 C 0.54696 -0.17783 -0.36090
 C445 C 0.56078 -0.16391 -0.40425
 C446 C 0.57361 -0.13752 -0.40109
 C447 C 0.57153 -0.12532 -0.35675
 C448 C 0.55154 -0.12660 -0.27336
 C449 C 0.54657 -0.11543 -0.24101
 C450 C 0.53998 -0.10143 -0.20543
 C451 C 0.52128 -0.09632 -0.21951
 C452 C 0.51585 -0.08113 -0.18773
 C453 C 0.52908 -0.07079 -0.14129
 C454 C 0.54738 -0.07656 -0.12651
 C455 C 0.55286 -0.09176 -0.15855
 H456 H 0.53312 -0.17658 -0.28462
 H457 H 0.53668 -0.19815 -0.36246
 H458 H 0.58458 -0.12633 -0.43366
 H459 H 0.58072 -0.10499 -0.35602
 H460 H 0.51122 -0.10365 -0.25571
 H461 H 0.50161 -0.07708 -0.20008
 H462 H 0.55788 -0.06882 -0.09097
 H463 H 0.56743 -0.09552 -0.14732
 C464 C 0.32625 0.49638 -0.31108
 C465 C 0.33789 0.51265 -0.35293
 C466 C 0.32444 0.51162 -0.39729
 C467 C 0.29910 0.49426 -0.40048
 C468 C 0.28723 0.47885 -0.35723
 C469 C 0.30079 0.47981 -0.31284
 C470 C 0.34110 0.49524 -0.26932
 C471 C 0.35484 0.49444 -0.23728
 C472 C 0.37274 0.49381 -0.20280
 C473 C 0.39770 0.50770 -0.21592
 C474 C 0.41531 0.50571 -0.18606
 C475 C 0.40823 0.48976 -0.14245
 C476 C 0.38320 0.47635 -0.12844
 C477 C 0.36550 0.47829 -0.15867
 H478 H 0.35758 0.52550 -0.35211
 H479 H 0.33398 0.52388 -0.42983
 H480 H 0.26777 0.46518 -0.35889
 H481 H 0.29161 0.46701 -0.28083
 H482 H 0.40352 0.51969 -0.25006
 H483 H 0.43445 0.51638 -0.19769
 H484 H 0.37726 0.46392 -0.09505
 H485 H 0.34621 0.46733 -0.14831
 C486 C 1.14485 0.68399 -0.31870
 C487 C 1.14317 0.67042 -0.36381
 C488 C 1.15605 0.68269 -0.40869
 C489 C 1.17107 0.70916 -0.41008
 C490 C 1.17268 0.72267 -0.36377
 C491 C 1.15962 0.71016 -0.31862
 C492 C 1.13131 0.67026 -0.27324
 C493 C 1.11915 0.65637 -0.23849
 C494 C 1.10384 0.63728 -0.20153
 C495 C 1.09863 0.61262 -0.21079
 C496 C 1.08194 0.59310 -0.17918
 C497 C 1.07017 0.59791 -0.13754
 C498 C 1.07608 0.62284 -0.12708
 C499 C 1.09277 0.64246 -0.15919
 H500 H 1.13206 0.65011 -0.36416
 H501 H 1.15493 0.67093 -0.44134
 H502 H 1.18327 0.74294 -0.36235
 H503 H 1.16099 0.72091 -0.28384
 H504 H 1.10699 0.60835 -0.24348
 H505 H 1.07787 0.57413 -0.18805
 H506 H 1.06722 0.62703 -0.09529
 H507 H 1.09657 0.66146 -0.15179
 C508 C 0.85031 0.54268 -0.30879
 C509 C 0.86218 0.55972 -0.34938
 C510 C 0.84887 0.55968 -0.39328
 C511 C 0.82350 0.54248 -0.39724
 C512 C 0.81147 0.52637 -0.35498
 C513 C 0.82483 0.52642 -0.31112
 C514 C 0.86470 0.53986 -0.26825
 C515 C 0.87721 0.53668 -0.23669
 C516 C 0.89268 0.53209 -0.20204
 C517 C 0.90168 0.54575 -0.15553
 C518 C 0.91800 0.54210 -0.12415
 C519 C 0.92554 0.52484 -0.13924
 C520 C 0.91595 0.51084 -0.18538
 C521 C 0.89965 0.51445 -0.21650
 H522 H 0.88191 0.57232 -0.34811
 H523 H 0.85857 0.57247 -0.42497
 H524 H 0.79202 0.51271 -0.35714
 H525 H 0.81548 0.51298 -0.28017
 H526 H 0.89646 0.55950 -0.14402
 H527 H 0.92514 0.55315 -0.08882
 H528 H 0.92136 0.49737 -0.19795
 H529 H 0.89282 0.50380 -0.25243
 C530 C 0.43039 0.29663 -0.30509
 C531 C 0.41848 0.29846 -0.34958
 C532 C 0.41767 0.28547 -0.39511
 C533 C 0.42901 0.27043 -0.39739
 C534 C 0.43909 0.26709 -0.35059
 C535 C 0.44002 0.28033 -0.30514
 C536 C 0.43557 0.31404 -0.26267
 C537 C 0.44099 0.33027 -0.23022
 C538 C 0.44856 0.35134 -0.19539
 C539 C 0.43484 0.34964 -0.15073
 C540 C 0.44129 0.37109 -0.12028
 C541 C 0.46139 0.39442 -0.13458
 C542 C 0.47544 0.39572 -0.17857
 C543 C 0.46906 0.37434 -0.20869
 H544 H 0.41074 0.31085 -0.34986
 H545 H 0.40833 0.28758 -0.42862
 H546 H 0.44836 0.25615 -0.34976
 H547 H 0.44944 0.27889 -0.27096
 H548 H 0.41887 0.33196 -0.14021
 H549 H 0.43014 0.36958 -0.08660
 H550 H 0.49106 0.41340 -0.19043
 H551 H 0.47976 0.37589 -0.24324
 C552 C 0.68554 0.14405 -0.31711
 C553 C 0.68508 0.13077 -0.36208
 C554 C 0.69853 0.14363 -0.40619
 C555 C 0.71260 0.17000 -0.40594
 C556 C 0.71396 0.18315 -0.35974
 C557 C 0.70039 0.17023 -0.31563
 C558 C 0.66876 0.13091 -0.27509
 C559 C 0.65343 0.11927 -0.24236
 C560 C 0.63376 0.10460 -0.20646
 C561 C 0.60960 0.09779 -0.22035
 C562 C 0.58996 0.08182 -0.18836
 C563 C 0.59423 0.07241 -0.14192
 C564 C 0.61862 0.07992 -0.12728
 C565 C 0.63830 0.09589 -0.15955
 H566 H 0.67359 0.11052 -0.36374
 H567 H 0.69736 0.13303 -0.44105
 H568 H 0.72447 0.20348 -0.35865
 H569 H 0.70073 0.18072 -0.28117
 H570 H 0.60586 0.10437 -0.25659
 H571 H 0.57140 0.07642 -0.20056
 H572 H 0.62241 0.07292 -0.09174
 H573 H 0.65693 0.10099 -0.14850
 C574 C 1.15031 0.47843 -0.31885
 C575 C 1.16389 0.46589 -0.31975
 C576 C 1.17653 0.46604 -0.36522
 C577 C 1.17555 0.47857 -0.41080
 C578 C 1.16185 0.49127 -0.40835
 C579 C 1.14944 0.49112 -0.36312
 C580 C 1.13671 0.47847 -0.27359
 C581 C 1.12428 0.47983 -0.23912
 C582 C 1.10842 0.48281 -0.20261
 C583 C 1.09799 0.46656 -0.16016
 C584 C 1.08050 0.46828 -0.12870
 C585 C 1.07319 0.48609 -0.13993
 C586 C 1.08435 0.50277 -0.18163
 C587 C 1.10184 0.50114 -0.21267
 H588 H 1.16454 0.45585 -0.28560
 H589 H 1.18612 0.45542 -0.36478
 H590 H 1.16137 0.50237 -0.44062
 H591 H 1.13919 0.50112 -0.36266
 H592 H 1.10285 0.45220 -0.15226
 H593 H 1.07215 0.45519 -0.09678
 H594 H 1.07916 0.51675 -0.19102
 H595 H 1.10972 0.51373 -0.24557
 C596 C 0.54439 0.68289 -0.32313
 C597 C 0.53300 0.69752 -0.32711
 C598 C 0.53695 0.71251 -0.37120
 C599 C 0.55217 0.71286 -0.41260
 C600 C 0.56400 0.69841 -0.40681
 C601 C 0.56010 0.68364 -0.36271
 C602 C 0.53891 0.66568 -0.28057
 C603 C 0.53441 0.65011 -0.24741
 C604 C 0.52909 0.63023 -0.21110
 C605 C 0.54404 0.63447 -0.16722
 C606 C 0.54049 0.61430 -0.13577
 C607 C 0.52208 0.58971 -0.14833
 C608 C 0.50668 0.58578 -0.19148
 C609 C 0.51019 0.60592 -0.22263
 H610 H 0.52057 0.69685 -0.29682
 H611 H 0.52680 0.72253 -0.37367
 H612 H 0.57683 0.69882 -0.43575
 H613 H 0.56914 0.67248 -0.35985
 H614 H 0.55885 0.65320 -0.15821
 H615 H 0.55259 0.61782 -0.10274
 H616 H 0.49229 0.56706 -0.20192
 H617 H 0.49863 0.60241 -0.25669
 C618 C 0.32599 -0.16732 -0.30567
 C619 C 0.30090 -0.17468 -0.30611
 C620 C 0.28686 -0.18538 -0.35123
 C621 C 0.29792 -0.18848 -0.39640
 C622 C 0.32282 -0.18213 -0.39470
 C623 C 0.33675 -0.17161 -0.34962
 C624 C 0.34158 -0.15275 -0.26314
 C625 C 0.35596 -0.13914 -0.23060
 C626 C 0.37455 -0.12148 -0.19577
 C627 C 0.36834 -0.11082 -0.15406
 C628 C 0.38693 -0.09130 -0.12474
 C629 C 0.41184 -0.08215 -0.13736
 C630 C 0.41785 -0.09354 -0.17820
 C631 C 0.39932 -0.11307 -0.20717
 H632 H 0.29246 -0.17124 -0.27243
 H633 H 0.26774 -0.18998 -0.35176
 H634 H 0.33168 -0.18457 -0.42885
 H635 H 0.35617 -0.16587 -0.34979
 H636 H 0.34921 -0.11706 -0.14522
 H637 H 0.38182 -0.08283 -0.09346
 H638 H 0.43688 -0.08697 -0.18863
 H639 H 0.40432 -0.12106 -0.23959
 C640 C 0.53935 -0.14810 0.31452
 C641 C 0.52461 -0.17388 0.32382
 C642 C 0.52888 -0.18467 0.36787
 C643 C 0.54781 -0.16968 0.40318
 C644 C 0.56284 -0.14395 0.39271
 C645 C 0.55862 -0.13326 0.34872
 C646 C 0.53389 -0.13619 0.27239
 C647 C 0.52967 -0.12487 0.23939
 C648 C 0.52501 -0.10987 0.20308
 C649 C 0.54001 -0.09956 0.15910
 C650 C 0.53741 -0.08232 0.12786
 C651 C 0.51991 -0.07510 0.14072
 C652 C 0.50436 -0.08624 0.18386
 C653 C 0.50693 -0.10349 0.21483
 H654 H 0.50952 -0.18549 0.29776
 H655 H 0.51693 -0.20450 0.37525
 H656 H 0.57774 -0.13205 0.41890
 H657 H 0.57008 -0.11328 0.34198
 H658 H 0.55421 -0.10422 0.14993
 H659 H 0.54961 -0.07401 0.09484
 H660 H 0.49065 -0.08111 0.19454
 H661 H 0.49534 -0.11123 0.24898
 C662 C 0.32307 0.48552 0.31586
 C663 C 0.33436 0.50430 0.35378
 C664 C 0.32151 0.50387 0.39863
 C665 C 0.29711 0.48459 0.40632
 C666 C 0.28559 0.46606 0.36749
 C667 C 0.29859 0.46646 0.32250
 C668 C 0.33753 0.48540 0.27229
 C669 C 0.35136 0.48630 0.23848
 C670 C 0.36967 0.48834 0.20176
 C671 C 0.39444 0.50546 0.21205
 C672 C 0.41285 0.50619 0.18004
 C673 C 0.40672 0.48977 0.13720
 C674 C 0.38175 0.47320 0.12586
 C675 C 0.36329 0.47243 0.15820
 H676 H 0.35330 0.51909 0.34909
 H677 H 0.33069 0.51861 0.42749
 H678 H 0.26684 0.45097 0.37261
 H679 H 0.28974 0.45174 0.29348
 H680 H 0.39958 0.51782 0.24572
 H681 H 0.43192 0.51920 0.18960
 H682 H 0.37655 0.46033 0.09310
 H683 H 0.34416 0.45904 0.15003
 C684 C 1.15875 0.67929 0.30699
 C685 C 1.15966 0.66646 0.35124
 C686 C 1.17075 0.67960 0.39699
 C687 C 1.18111 0.70582 0.39912
 C688 C 1.18108 0.71878 0.35389
 C689 C 1.16979 0.70552 0.30803
 C690 C 1.14452 0.66490 0.26281
 C691 C 1.13125 0.65106 0.22912
 C692 C 1.11406 0.63253 0.19343
 C693 C 1.10728 0.60736 0.20138
 C694 C 1.08809 0.58849 0.17261
 C695 C 1.07539 0.59453 0.13529
 C696 C 1.08295 0.61990 0.12570
 C697 C 1.10214 0.63886 0.15499
 H698 H 1.15112 0.64616 0.35088
 H699 H 1.17080 0.66923 0.43113
 H700 H 1.18885 0.73898 0.35474
 H701 H 1.16904 0.71560 0.27406
 H702 H 1.11626 0.60225 0.23125
 H703 H 1.08277 0.56911 0.18054
 H704 H 1.07342 0.62500 0.09717
 H705 H 1.10711 0.65829 0.14889
 C706 C 0.45997 0.14688 0.31198
 C707 C 0.47958 0.15725 0.34741
 C708 C 0.47798 0.16894 0.39286
 C709 C 0.45671 0.17046 0.40370
 C710 C 0.43734 0.16080 0.36714
 C711 C 0.43892 0.14890 0.32154
 C712 C 0.46122 0.13257 0.26857
 C713 C 0.46369 0.12006 0.23520
 C714 C 0.46819 0.10459 0.19948
 C715 C 0.48713 0.09948 0.21100
 C716 C 0.49076 0.08287 0.17990
 C717 C 0.47549 0.07112 0.13661
 C718 C 0.45695 0.07691 0.12407
 C719 C 0.45324 0.09352 0.15559
 H720 H 0.49591 0.15574 0.34052
 H721 H 0.49329 0.17654 0.42004
 H722 H 0.42073 0.16168 0.37474
 H723 H 0.42355 0.14077 0.29453
 H724 H 0.49878 0.10790 0.24489
 H725 H 0.50525 0.07888 0.19039
 H726 H 0.44490 0.06806 0.09096
 H727 H 0.43847 0.09730 0.14642
 C728 C 0.66903 0.51238 0.31948
 C729 C 0.65961 0.49161 0.35272
 C730 C 0.67278 0.49199 0.39698
 C731 C 0.69561 0.51319 0.40875
 C732 C 0.70542 0.53371 0.37428
 C733 C 0.69210 0.53335 0.32994
 C734 C 0.65384 0.51256 0.27745
 C735 C 0.63963 0.51183 0.24474
 C736 C 0.62108 0.51004 0.20897
 C737 C 0.59627 0.49518 0.22254
 C738 C 0.57787 0.49427 0.19027
 C739 C 0.58402 0.50824 0.14383
 C740 C 0.60897 0.52268 0.12964
 C741 C 0.62743 0.52363 0.16220
 H742 H 0.64176 0.47533 0.34513
 H743 H 0.66496 0.47581 0.42252
 H744 H 0.72289 0.55033 0.38265
 H745 H 0.69947 0.54961 0.30466
 H746 H 0.59113 0.48460 0.25863
 H747 H 0.55882 0.48292 0.20214
 H748 H 0.61420 0.53364 0.09408
 H749 H 0.64660 0.53523 0.15137
 C750 C 0.85724 0.31046 0.31147
 C751 C 0.83154 0.29898 0.31416
 C752 C 0.81904 0.28499 0.35820
 C753 C 0.83216 0.28253 0.40025
 C754 C 0.85785 0.29303 0.39595
 C755 C 0.87029 0.30694 0.35188
 C756 C 0.87051 0.32821 0.27072
 C757 C 0.88215 0.34432 0.23905
 C758 C 0.89667 0.36484 0.20430
 C759 C 0.90591 0.36091 0.15748
 C760 C 0.92152 0.38139 0.12616
 C761 C 0.92814 0.40599 0.14162
 C762 C 0.91827 0.40966 0.18801
 C763 C 0.90266 0.38922 0.21909
 H764 H 0.82128 0.30176 0.28333
 H765 H 0.79930 0.27735 0.36067
 H766 H 0.86838 0.29124 0.42754
 H767 H 0.89019 0.31583 0.35033
 H768 H 0.90145 0.34212 0.14574
 H769 H 0.92889 0.37804 0.09062
 H770 H 0.92298 0.42838 0.20085
 H771 H 0.89565 0.39249 0.25528
   
