data_POSCAR
  _audit_creation_date              2014-09-24
  _audit_creation_method            'ToBaCCo'
  _symmetry_space_group_name_H-M    'P1'
  _symmetry_Int_Tables_number       1
  _symmetry_cell_setting            triclinic
  loop_
  _symmetry_equiv_pos_as_xyz
 x,y,z
_cell_length_a 40.1268
_cell_length_b 41.0403
_cell_length_c 40.8336
_cell_angle_alpha 89.990600
_cell_angle_beta 90.140200
_cell_angle_gamma 89.977500
loop_
  _atom_site_label
  _atom_site_type_symbol
  _atom_site_fract_x
  _atom_site_fract_y
  _atom_site_fract_z
C1 C 0.34511 0.38712 1.36521
 C2 C 0.36842 0.38808 1.33966
 C3 C 0.39273 0.36427 1.33745
 C4 C 0.39406 0.33914 1.36077
 C5 C 0.37122 0.33842 1.38591
 C6 C 0.34644 0.36240 1.38800
 C7 C 0.31764 0.40585 1.37243
 N8 N 0.30180 0.39296 1.39904
 C9 C 0.31971 0.36630 1.40859
 C10 C 0.37745 0.31095 1.40409
 N11 N 0.40362 0.29443 1.39070
 C12 C 0.41379 0.31182 1.36398
 C13 C 0.41077 0.37049 1.30952
 N14 N 0.39801 0.39746 1.29468
 C15 C 0.37206 0.40832 1.31305
 H16 H 0.30925 0.42638 1.35802
 H17 H 0.31417 0.35050 1.42904
 H18 H 0.36261 0.30321 1.42472
 H19 H 0.43410 0.30555 1.34783
 H20 H 0.43101 0.35577 1.30017
 H21 H 0.35677 0.42934 1.30748
 C22 C 1.15533 0.61286 0.87017
 C23 C 1.13206 0.61247 0.84448
 C24 C 1.10864 0.63709 0.84189
 C25 C 1.10790 0.66216 0.86523
 C26 C 1.13063 0.66233 0.89060
 C27 C 1.15477 0.63767 0.89291
 C28 C 1.18240 0.59357 0.87728
 N29 N 1.19885 0.60610 0.90377
 C30 C 1.18164 0.63316 0.91342
 C31 C 1.12489 0.69001 0.90867
 N32 N 1.09910 0.70703 0.89499
 C33 C 1.08878 0.68984 0.86818
 C34 C 1.09092 0.63174 0.81350
 N35 N 1.10289 0.60438 0.79892
 C36 C 1.12801 0.59239 0.81777
 H37 H 1.19021 0.57299 0.86269
 H38 H 1.18795 0.64897 0.93367
 H39 H 1.13965 0.69741 0.92955
 H40 H 1.06865 0.69638 0.85183
 H41 H 1.07106 0.64688 0.80393
 H42 H 1.14307 0.57133 0.81182
 C43 C 0.65657 -0.11035 0.13153
 C44 C 0.63291 -0.10968 0.15674
 C45 C 0.60881 -0.13367 0.15853
 C46 C 0.60809 -0.15871 0.13515
 C47 C 0.63134 -0.15928 0.11033
 C48 C 0.65594 -0.13502 0.10863
 C49 C 0.68385 -0.09128 0.12488
 N50 N 0.70034 -0.10377 0.09848
 C51 C 0.68303 -0.13066 0.08850
 C52 C 0.62549 -0.18685 0.09212
 N53 N 0.59920 -0.20347 0.10522
 C54 C 0.58859 -0.18606 0.13173
 C55 C 0.59039 -0.12782 0.18628
 N56 N 0.60274 -0.10089 0.20147
 C57 C 0.62878 -0.08966 0.18346
 H58 H 0.69167 -0.07077 0.13961
 H59 H 0.68928 -0.14630 0.06813
 H60 H 0.64056 -0.19455 0.07163
 H61 H 0.56806 -0.19230 0.14761
 H62 H 0.57024 -0.14282 0.19534
 H63 H 0.64388 -0.06862 0.18942
 C64 C -0.16024 1.11051 -0.36611
 C65 C -0.13676 1.10967 -0.34062
 C66 C -0.11281 1.13374 -0.33835
 C67 C -0.11205 1.15901 -0.36145
 C68 C -0.13505 1.15975 -0.38658
 C69 C -0.15952 1.13540 -0.38880
 C70 C -0.18731 1.09133 -0.37336
 N71 N -0.20358 1.10395 -0.39991
 C72 C -0.18634 1.13103 -0.40940
 C73 C -0.12897 1.18744 -0.40457
 N74 N -0.10282 1.20393 -0.39095
 C75 C -0.09250 1.18634 -0.36440
 C76 C -0.09438 1.12763 -0.31059
 N77 N -0.10657 1.10044 -0.29583
 C78 C -0.13257 1.08932 -0.31412
 H79 H -0.19512 1.07062 -0.35895
 H80 H -0.19245 1.14680 -0.42975
 H81 H -0.14371 1.19529 -0.42532
 H82 H -0.07201 1.19235 -0.34828
 H83 H -0.07429 1.14260 -0.30126
 H84 H -0.14751 1.06810 -0.30852
 C85 C 0.66168 0.61575 0.63403
 C86 C 0.63877 0.61578 0.65988
 C87 C 0.61478 0.63985 0.66169
 C88 C 0.61347 0.66432 0.63775
 C89 C 0.63592 0.66425 0.61223
 C90 C 0.66036 0.63983 0.61038
 C91 C 0.68858 0.59626 0.62704
 N92 N 0.70380 0.60787 0.59971
 C93 C 0.68662 0.63457 0.58936
 C94 C 0.62939 0.69137 0.59347
 N95 N 0.60353 0.70829 0.60701
 C96 C 0.59381 0.69151 0.63424
 C97 C 0.59681 0.63448 0.68984
 N98 N 0.60937 0.60776 0.70520
 C99 C 0.63510 0.59620 0.68697
 H100 H 0.69714 0.57584 0.64157
 H101 H 0.69289 0.64932 0.56828
 H102 H 0.64367 0.69856 0.57225
 H103 H 0.57369 0.69800 0.65054
 H104 H 0.57670 0.64954 0.69890
 H105 H 0.65012 0.57509 0.69293
 C106 C 0.84149 0.38614 0.13709
 C107 C 0.86505 0.38664 0.16254
 C108 C 0.88910 0.36257 0.16440
 C109 C 0.88989 0.33764 0.14091
 C110 C 0.86683 0.33730 0.11585
 C111 C 0.84230 0.36158 0.11407
 C112 C 0.81431 0.40535 0.13005
 N113 N 0.79813 0.39297 0.10334
 C114 C 0.81552 0.36610 0.09353
 C115 C 0.87284 0.30996 0.09736
 N116 N 0.89905 0.29324 0.11057
 C117 C 0.90946 0.31034 0.13741
 C118 C 0.90762 0.36836 0.19217
 N119 N 0.89542 0.39535 0.20731
 C120 C 0.86931 0.40665 0.18928
 H121 H 0.80637 0.42590 0.14463
 H122 H 0.80962 0.35062 0.07291
 H123 H 0.85797 0.30249 0.07658
 H124 H 0.93000 0.30399 0.15335
 H125 H 0.92783 0.35335 0.20121
 H126 H 0.85437 0.42780 0.19516
 C127 C 0.34029 0.11665 0.86239
 C128 C 0.36337 0.11616 0.83663
 C129 C 0.38677 0.14077 0.83391
 C130 C 0.38768 0.16593 0.85711
 C131 C 0.36500 0.16629 0.88251
 C132 C 0.34099 0.14160 0.88499
 C133 C 0.31349 0.09719 0.86995
 N134 N 0.29743 0.10981 0.89655
 C135 C 0.31455 0.13705 0.90580
 C136 C 0.37089 0.19400 0.90054
 N137 N 0.39666 0.21051 0.88675
 C138 C 0.40700 0.19348 0.86007
 C139 C 0.40441 0.13526 0.80561
 N140 N 0.39239 0.10785 0.79115
 C141 C 0.36736 0.09593 0.81003
 H142 H 0.30563 0.07635 0.85572
 H143 H 0.30861 0.15284 0.92615
 H144 H 0.35685 0.20192 0.92169
 H145 H 0.42717 0.20048 0.84400
 H146 H 0.42425 0.15034 0.79603
 H147 H 0.35233 0.07481 0.80418
 C148 C 0.15402 0.88381 0.36627
 C149 C 0.13036 0.88428 0.34096
 C150 C 0.10679 0.85977 0.33873
 C151 C 0.10628 0.83472 0.36210
 C152 C 0.12959 0.83441 0.38709
 C153 C 0.15379 0.85898 0.38899
 C154 C 0.18111 0.90316 0.37311
 N155 N 0.19784 0.89062 0.39941
 C156 C 0.18084 0.86350 0.40921
 C157 C 0.12405 0.80682 0.40536
 N158 N 0.09786 0.79033 0.39219
 C159 C 0.08694 0.80724 0.36559
 C160 C 0.08869 0.86521 0.31058
 N161 N 0.10062 0.89249 0.29584
 C162 C 0.12604 0.90436 0.31433
 H163 H 0.18868 0.92385 0.35854
 H164 H 0.18731 0.84778 0.42948
 H165 H 0.13865 0.79896 0.42623
 H166 H 0.06637 0.80020 0.34993
 H167 H 0.06866 0.85016 0.30125
 H168 H 0.14116 0.92531 0.30814
 Zn169 Zn 0.04017 0.98060 0.00887
 Zn170 Zn 0.00947 1.04023 -0.01951
 Zn171 Zn -0.02583 0.97608 -0.02525
 Zn172 Zn -0.01987 1.00974 0.03972
 O173 O 0.00092 1.00160 0.00089
 O174 O 0.07585 1.00268 -0.00524
 O175 O -0.00955 1.04261 -0.05893
 O176 O -0.00668 0.93765 -0.03564
 O177 O 0.05298 1.04708 -0.02611
 O178 O 0.04214 0.94200 -0.01079
 O179 O -0.03587 0.99548 -0.06359
 O180 O -0.06004 0.99131 0.04171
 O181 O -0.00538 1.07487 0.00278
 O182 O -0.06503 0.96644 -0.00613
 O183 O -0.02649 1.05222 0.04720
 O184 O 0.00258 0.99449 0.07438
 O185 O 0.04698 0.97236 0.05142
 C186 C 0.07852 1.03001 -0.01955
 C187 C -0.02773 1.02310 -0.07516
 C188 C 0.02182 0.92610 -0.02845
 C189 C -0.07668 0.97398 0.02179
 C190 C -0.01989 1.07731 0.03025
 C191 C 0.02985 0.97899 0.07664
 Zn192 Zn 0.48818 -0.03993 0.47790
 Zn193 Zn 0.51730 -0.00923 0.53728
 Zn194 Zn 0.52420 0.02378 0.47205
 Zn195 Zn 0.45793 0.02030 0.50533
 O196 O 0.49698 -0.00121 0.49808
 O197 O 0.50336 -0.07446 0.50021
 O198 O 0.55740 0.00928 0.53979
 O199 O 0.53414 0.00406 0.43390
 O200 O 0.52423 -0.05168 0.54477
 O201 O 0.50688 -0.04255 0.43844
 O202 O 0.56331 0.03322 0.49160
 O203 O 0.45651 0.05880 0.48527
 O204 O 0.49438 0.00599 0.57164
 O205 O 0.50564 0.06232 0.46113
 O206 O 0.45075 0.02877 0.54771
 O207 O 0.42217 -0.00169 0.49123
 O208 O 0.44459 -0.04678 0.47151
 C209 C 0.51799 -0.07679 0.52770
 C210 C 0.57447 0.02613 0.51989
 C211 C 0.52542 -0.02339 0.42228
 C212 C 0.47724 0.07431 0.46779
 C213 C 0.46726 0.02181 0.57332
 C214 C 0.41922 -0.02936 0.47765
 Zn215 Zn 1.01242 0.45693 0.48334
 Zn216 Zn 1.04215 0.51707 0.51179
 Zn217 Zn 0.97658 0.52061 0.47700
 Zn218 Zn 0.98208 0.48740 0.54225
 O219 O 1.00325 0.49554 0.50356
 O220 O 1.05608 0.45057 0.47707
 O221 O 1.04375 0.55585 0.49226
 O222 O 0.96679 0.50091 0.43883
 O223 O 1.07815 0.49545 0.49774
 O224 O 0.99374 0.45416 0.44374
 O225 O 0.99543 0.55894 0.46635
 O226 O 0.94179 0.50586 0.54386
 O227 O 1.04863 0.52511 0.55442
 O228 O 0.93741 0.53043 0.49581
 O229 O 1.00432 0.50261 0.57718
 O230 O 0.97534 0.44486 0.54951
 O231 O 0.99748 0.42227 0.50552
 C232 C 1.08131 0.46810 0.48355
 C233 C 1.02345 0.57118 0.47404
 C234 C 0.97530 0.47335 0.42740
 C235 C 0.92543 0.52314 0.52364
 C236 C 1.03150 0.51825 0.57958
 C237 C 0.98230 0.41981 0.53264
 Zn238 Zn 0.54060 0.52285 0.99118
 Zn239 Zn 0.47480 0.52707 1.02562
 Zn240 Zn 0.48009 0.49478 0.95998
 Zn241 Zn 0.50992 0.46290 1.01843
 O242 O 0.50127 0.50197 0.99888
 O243 O 0.54252 0.56147 1.01086
 O244 O 0.43526 0.53697 1.00697
 O245 O 0.50249 0.51033 0.92550
 O246 O 0.49403 0.56543 1.03620
 O247 O 0.54766 0.53083 0.94866
 O248 O 0.44002 0.51343 0.95848
 O249 O 0.49488 0.42880 0.99543
 O250 O 0.46532 0.50704 1.06380
 O251 O 0.47298 0.45249 0.95183
 O252 O 0.49119 0.45980 1.05780
 O253 O 0.55341 0.45581 1.02508
 O254 O 0.57622 0.50073 1.00550
 C255 C 0.52234 0.57719 1.02876
 C256 C 0.42343 0.53012 0.97889
 C257 C 0.53028 0.52491 0.92334
 C258 C 0.47982 0.42701 0.96813
 C259 C 0.47342 0.47908 1.07466
 C260 C 0.57891 0.47311 1.01924
 C261 C 1.21100 0.42548 0.43920
 C262 C 1.22420 0.39510 0.44801
 C263 C 1.25458 0.38453 0.43521
 C264 C 1.27258 0.40391 0.41273
 C265 C 1.25919 0.43469 0.40439
 C266 C 1.22896 0.44532 0.41757
 C267 C 1.17815 0.43609 0.45186
 C268 C 1.17346 0.46803 0.46329
 C269 C 1.14218 0.47823 0.47428
 C270 C 1.11486 0.45678 0.47372
 C271 C 1.11968 0.42473 0.46256
 C272 C 1.15103 0.41445 0.45190
 H273 H 1.26302 0.36060 0.44239
 H274 H 1.27201 0.45109 0.38802
 H275 H 1.13927 0.50310 0.48268
 H276 H 1.09916 0.40762 0.46182
 H277 H 1.21926 0.46887 0.41028
 H278 H 1.19403 0.48510 0.46378
 H279 H 1.21094 0.37942 0.46488
 H280 H 1.15390 0.38978 0.44293
 C281 C 0.29108 0.57257 0.94052
 C282 C 0.27804 0.60261 0.95076
 C283 C 0.24708 0.61344 0.93928
 C284 C 0.22823 0.59463 0.91688
 C285 C 0.24111 0.56392 0.90773
 C286 C 0.27193 0.55312 0.91939
 C287 C 0.32499 0.56195 0.95077
 C288 C 0.34600 0.54628 0.92824
 C289 C 0.37785 0.53613 0.93746
 C290 C 0.38967 0.54151 0.96944
 C291 C 0.36886 0.55746 0.99198
 C292 C 0.33682 0.56756 0.98274
 H293 H 0.23895 0.63724 0.94718
 H294 H 0.22751 0.54769 0.89176
 H295 H 0.39326 0.52413 0.91937
 H296 H 0.37719 0.56189 1.01683
 H297 H 0.28081 0.52939 0.91177
 H298 H 0.33799 0.54219 0.90324
 H299 H 0.29230 0.61832 0.96683
 H300 H 0.32115 0.57933 1.00076
 C301 C -0.20791 0.93035 0.06165
 C302 C -0.22705 0.94965 0.08285
 C303 C -0.25765 0.93860 0.09463
 C304 C -0.27033 0.90779 0.08551
 C305 C -0.25145 0.88906 0.06317
 C306 C -0.22069 0.90014 0.05159
 C307 C -0.17432 0.94138 0.05105
 C308 C -0.16286 0.93565 0.01902
 C309 C -0.13111 0.94607 0.00941
 C310 C -0.11022 0.96250 0.03162
 C311 C -0.12169 0.96809 0.06363
 C312 C -0.15324 0.95759 0.07323
 H313 H -0.27130 0.95475 0.11059
 H314 H -0.25942 0.86516 0.05537
 H315 H -0.12305 0.94148 -0.01545
 H316 H -0.10618 0.98045 0.08146
 H317 H -0.20641 0.88450 0.03551
 H318 H -0.17860 0.92351 0.00124
 H319 H -0.21838 0.97350 0.09035
 H320 H -0.16096 0.96180 0.09826
 C321 C 0.70528 0.06966 0.56161
 C322 C 0.72424 0.05032 0.58301
 C323 C 0.75466 0.06142 0.59532
 C324 C 0.76732 0.09232 0.58655
 C325 C 0.74864 0.11109 0.56399
 C326 C 0.71806 0.09996 0.55186
 C327 C 0.67182 0.05862 0.55050
 C328 C 0.66072 0.06430 0.51829
 C329 C 0.62908 0.05390 0.50823
 C330 C 0.60793 0.03755 0.53017
 C331 C 0.61905 0.03201 0.56236
 C332 C 0.65051 0.04247 0.57240
 H333 H 0.76817 0.04524 0.61143
 H334 H 0.75660 0.13505 0.55642
 H335 H 0.62128 0.05846 0.48324
 H336 H 0.60334 0.01970 0.57999
 H337 H 0.70390 0.11561 0.53562
 H338 H 0.67666 0.07642 0.50075
 H339 H 0.71555 0.02642 0.59029
 H340 H 0.65798 0.03829 0.59756
 C341 C 0.43934 0.20316 0.42293
 C342 C 0.44952 0.21590 0.39267
 C343 C 0.43832 0.24650 0.38216
 C344 C 0.41632 0.26520 0.40159
 C345 C 0.40724 0.25253 0.43247
 C346 C 0.41860 0.22213 0.44291
 C347 C 0.44931 0.16987 0.43348
 C348 C 0.42620 0.14972 0.44949
 C349 C 0.43533 0.11876 0.46032
 C350 C 0.46781 0.10696 0.45530
 C351 C 0.49086 0.12680 0.43877
 C352 C 0.48170 0.15797 0.42797
 H353 H 0.44609 0.25457 0.35820
 H354 H 0.39166 0.26601 0.44920
 H355 H 0.41683 0.10405 0.47269
 H356 H 0.51608 0.11842 0.43455
 H357 H 0.41111 0.21346 0.46683
 H358 H 0.40085 0.15782 0.45348
 H359 H 0.46535 0.20176 0.37659
 H360 H 0.50014 0.17299 0.41590
 C361 C 0.93634 0.29371 0.57692
 C362 C 0.94484 0.28128 0.60780
 C363 C 0.93221 0.25135 0.61835
 C364 C 0.91022 0.23306 0.59844
 C365 C 0.90193 0.24586 0.56732
 C366 C 0.91495 0.27561 0.55673
 C367 C 0.94930 0.32571 0.56598
 C368 C 0.96170 0.32969 0.53409
 C369 C 0.97308 0.36009 0.52350
 C370 C 0.97195 0.38724 0.54446
 C371 C 0.95981 0.38316 0.57647
 C372 C 0.94877 0.35267 0.58716
 H373 H 0.93919 0.24335 0.64260
 H374 H 0.88589 0.23286 0.55056
 H375 H 0.98225 0.36243 0.49869
 H376 H 0.95863 0.40359 0.59322
 H377 H 0.90786 0.28475 0.53282
 H378 H 0.96268 0.30922 0.51738
 H379 H 0.96146 0.29470 0.62380
 H380 H 0.93908 0.35032 0.61178
 C381 C 0.06270 0.79798 -0.07267
 C382 C 0.05273 0.78528 -0.10305
 C383 C 0.06435 0.75491 -0.11365
 C384 C 0.08655 0.73632 -0.09420
 C385 C 0.09571 0.74907 -0.06333
 C386 C 0.08392 0.77929 -0.05279
 C387 C 0.05190 0.83095 -0.06197
 C388 C 0.07445 0.85155 -0.04569
 C389 C 0.06459 0.88234 -0.03505
 C390 C 0.03193 0.89352 -0.04054
 C391 C 0.00939 0.87318 -0.05723
 C392 C 0.01928 0.84218 -0.06783
 H393 H 0.05658 0.74691 -0.13765
 H394 H 0.11161 0.73577 -0.04668
 H395 H 0.08271 0.89744 -0.02253
 H396 H -0.01595 0.88106 -0.06179
 H397 H 0.09138 0.78798 -0.02883
 H398 H 0.09994 0.84397 -0.04141
 H399 H 0.03666 0.79924 -0.11912
 H400 H 0.00124 0.82679 -0.08008
 C401 C 0.56286 0.70556 1.07277
 C402 C 0.55252 0.71850 1.10287
 C403 C 0.56407 0.74891 1.11347
 C404 C 0.58659 0.76729 1.09431
 C405 C 0.59610 0.75433 1.06367
 C406 C 0.58436 0.72408 1.05312
 C407 C 0.55216 0.67251 1.06213
 C408 C 0.57482 0.65182 1.04621
 C409 C 0.56506 0.62096 1.03564
 C410 C 0.53238 0.60980 1.04086
 C411 C 0.50974 0.63022 1.05722
 C412 C 0.51952 0.66129 1.06771
 H413 H 0.55602 0.75709 1.13729
 H414 H 0.61225 0.76749 1.04723
 H415 H 0.58326 0.60579 1.02338
 H416 H 0.48437 0.62236 1.06155
 H417 H 0.59209 0.71523 1.02934
 H418 H 0.60034 0.65936 1.04216
 H419 H 0.53623 0.70469 1.11877
 H420 H 0.50138 0.67674 1.07968
 C421 C 0.43066 0.43608 1.20308
 C422 C 0.39761 0.44054 1.21342
 C423 C 0.38699 0.42823 1.24359
 C424 C 0.40921 0.41124 1.26412
 C425 C 0.44243 0.40738 1.25400
 C426 C 0.45302 0.41965 1.22386
 C427 C 0.44158 0.44752 1.17030
 C428 C 0.46220 0.42775 1.15093
 C429 C 0.47238 0.43806 1.11997
 C430 C 0.46224 0.46847 1.10756
 C431 C 0.44158 0.48831 1.12689
 C432 C 0.43128 0.47790 1.15793
 H433 H 0.36114 0.43127 1.25038
 H434 H 0.46032 0.39499 1.26947
 H435 H 0.48822 0.42209 1.10574
 H436 H 0.43337 0.51187 1.11806
 H437 H 0.47880 0.41634 1.21683
 H438 H 0.47010 0.40400 1.15952
 H439 H 0.37969 0.45273 1.19778
 H440 H 0.41560 0.49378 1.17241
 C441 C 0.56924 -0.06408 0.29348
 C442 C 0.54707 -0.08009 0.27218
 C443 C 0.55794 -0.09173 0.24189
 C444 C 0.59124 -0.08764 0.23214
 C445 C 0.61326 -0.07106 0.25318
 C446 C 0.60237 -0.05940 0.28350
 C447 C 0.55803 -0.05328 0.32638
 C448 C 0.56834 -0.02321 0.33944
 C449 C 0.55781 -0.01338 0.37057
 C450 C 0.53685 -0.03348 0.38931
 C451 C 0.52667 -0.06357 0.37621
 C452 C 0.53712 -0.07333 0.34516
 H453 H 0.54021 -0.10383 0.22602
 H454 H 0.63916 -0.06788 0.24665
 H455 H 0.56605 0.00997 0.37992
 H456 H 0.51062 -0.07972 0.38999
 H457 H 0.62015 -0.04754 0.29954
 H458 H 0.58422 -0.00712 0.32541
 H459 H 0.52123 -0.08354 0.27892
 H460 H 0.52920 -0.09686 0.33603
 C461 C -0.07247 1.06313 -0.20408
 C462 C -0.05047 1.07928 -0.22532
 C463 C -0.06152 1.09100 -0.25556
 C464 C -0.09485 1.08683 -0.26534
 C465 C -0.11669 1.06997 -0.24444
 C466 C -0.10561 1.05824 -0.21415
 C467 C -0.06109 1.05249 -0.17114
 C468 C -0.07101 1.02233 -0.15804
 C469 C -0.06022 1.01265 -0.12688
 C470 C -0.03942 1.03301 -0.10816
 C471 C -0.02966 1.06319 -0.12129
 C472 C -0.04035 1.07279 -0.15236
 H473 H -0.04392 1.10327 -0.27135
 H474 H -0.14260 1.06670 -0.25103
 H475 H -0.06815 0.98923 -0.11749
 H476 H -0.01374 1.07955 -0.10753
 H477 H -0.12324 1.04621 -0.19817
 H478 H -0.08677 1.00605 -0.17206
 H479 H -0.02463 1.08287 -0.21853
 H480 H -0.03273 1.09640 -0.16152
 C481 C 1.07285 0.56605 0.70652
 C482 C 1.07356 0.59985 0.71184
 C483 C 1.08291 0.61239 0.74230
 C484 C 1.09223 0.59139 0.76790
 C485 C 1.09157 0.55757 0.76257
 C486 C 1.08169 0.54500 0.73223
 C487 C 1.06306 0.55291 0.67412
 C488 C 1.03947 0.52776 0.67166
 C489 C 1.02935 0.51628 0.64095
 C490 C 1.04306 0.52937 0.61216
 C491 C 1.06722 0.55404 0.61474
 C492 C 1.07693 0.56584 0.64539
 H493 H 1.08352 0.63854 0.74569
 H494 H 1.09845 0.54091 0.78200
 H495 H 1.01072 0.49723 0.63975
 H496 H 1.07818 0.56469 0.59301
 H497 H 1.08147 0.51885 0.72866
 H498 H 1.02831 0.51752 0.69348
 H499 H 1.06662 0.61656 0.69245
 H500 H 1.09539 0.58505 0.64669
 C501 C 0.79520 0.57054 0.56186
 C502 C 0.78666 0.60344 0.55726
 C503 C 0.75638 0.61557 0.56902
 C504 C 0.73399 0.59505 0.58559
 C505 C 0.74217 0.56195 0.58928
 C506 C 0.77240 0.54984 0.57758
 C507 C 0.82827 0.55806 0.55152
 C508 C 0.84630 0.53698 0.57208
 C509 C 0.87771 0.52562 0.56293
 C510 C 0.89188 0.53501 0.53292
 C511 C 0.87379 0.55597 0.51222
 C512 C 0.84235 0.56746 0.52147
 H513 H 0.75104 0.64125 0.56609
 H514 H 0.72519 0.54536 0.60131
 H515 H 0.89096 0.50955 0.57950
 H516 H 0.88399 0.56364 0.48893
 H517 H 0.77800 0.52424 0.58092
 H518 H 0.83636 0.52970 0.59560
 H519 H 0.80387 0.62005 0.54555
 H520 H 0.82890 0.58347 0.50501
 C521 C 0.70785 0.42761 1.06341
 C522 C 0.72627 0.44687 1.08527
 C523 C 0.75633 0.43554 1.09835
 C524 C 0.76908 0.40460 1.08972
 C525 C 0.75062 0.38579 1.06703
 C526 C 0.72041 0.39708 1.05430
 C527 C 0.67517 0.43898 1.05085
 C528 C 0.64764 0.41785 1.05050
 C529 C 0.61647 0.42884 1.03992
 C530 C 0.61223 0.46112 1.02916
 C531 C 0.63995 0.48207 1.02893
 C532 C 0.67106 0.47116 1.03984
 H533 H 0.76953 0.45153 1.11489
 H534 H 0.75858 0.36179 1.05962
 H535 H 0.59562 0.41209 1.04038
 H536 H 0.63749 0.50709 1.02083
 H537 H 0.70678 0.38183 1.03725
 H538 H 0.65006 0.39302 1.05915
 H539 H 0.71707 0.47052 1.09279
 H540 H 0.69196 0.48784 1.03959
 C541 C 0.20753 1.07518 -0.06315
 C542 C 0.21991 1.10591 -0.05444
 C543 C 0.25004 1.11717 -0.06723
 C544 C 0.26858 1.09813 -0.08959
 C545 C 0.25607 1.06696 -0.09772
 C546 C 0.22610 1.05567 -0.08458
 C547 C 0.17485 1.06391 -0.05069
 C548 C 0.17079 1.03189 -0.03921
 C549 C 0.13965 1.02106 -0.02846
 C550 C 0.11186 1.04193 -0.02931
 C551 C 0.11604 1.07404 -0.04054
 C552 C 0.14723 1.08495 -0.05096
 H553 H 0.25783 1.14134 -0.06018
 H554 H 0.26937 1.05079 -0.11395
 H555 H 0.13724 0.99617 -0.01998
 H556 H 0.09514 1.09072 -0.04148
 H557 H 0.21705 1.03185 -0.09177
 H558 H 0.19175 1.01527 -0.03850
 H559 H 0.20618 1.12135 -0.03772
 H560 H 0.14960 1.10966 -0.05999
 C561 C 0.28908 -0.07484 0.43713
 C562 C 0.27689 -0.10549 0.44636
 C563 C 0.24631 -0.11672 0.43445
 C564 C 0.22713 -0.09774 0.41247
 C565 C 0.23947 -0.06666 0.40383
 C566 C 0.26989 -0.05540 0.41608
 C567 C 0.32212 -0.06350 0.44870
 C568 C 0.34972 -0.08456 0.44802
 C569 C 0.38120 -0.07354 0.45762
 C570 C 0.38569 -0.04131 0.46840
 C571 C 0.35794 -0.02042 0.46962
 C572 C 0.32651 -0.03136 0.45971
 H573 H 0.23863 -0.14081 0.44186
 H574 H 0.22571 -0.05051 0.38789
 H575 H 0.40206 -0.09025 0.45644
 H576 H 0.36056 0.00455 0.47780
 H577 H 0.27877 -0.03165 0.40849
 H578 H 0.34708 -0.10935 0.43933
 H579 H 0.29110 -0.12086 0.46283
 H580 H 0.30558 -0.01473 0.46074
 C581 C 0.56412 -0.20250 0.57331
 C582 C 0.58525 -0.22103 0.55335
 C583 C 0.59830 -0.25064 0.56443
 C584 C 0.59032 -0.26283 0.59584
 C585 C 0.56854 -0.24412 0.61548
 C586 C 0.55584 -0.21437 0.60443
 C587 C 0.55122 -0.17057 0.56194
 C588 C 0.53884 -0.16687 0.52995
 C589 C 0.52744 -0.13656 0.51903
 C590 C 0.52849 -0.10924 0.53978
 C591 C 0.54064 -0.11304 0.57188
 C592 C 0.55175 -0.14342 0.58288
 H593 H 0.61417 -0.26397 0.54784
 H594 H 0.56174 -0.25161 0.63990
 H595 H 0.51826 -0.13444 0.49416
 H596 H 0.54179 -0.09248 0.58846
 H597 H 0.53939 -0.20064 0.62025
 H598 H 0.53786 -0.18749 0.51343
 H599 H 0.59217 -0.21234 0.52926
 H600 H 0.56145 -0.14553 0.60756
 C601 C 1.06175 0.69891 0.42703
 C602 C 1.05792 0.70753 0.39393
 C603 C 1.06931 0.73767 0.38255
 C604 C 1.08472 0.75984 0.40404
 C605 C 1.08776 0.75146 0.43729
 C606 C 1.07643 0.72137 0.44864
 C607 C 1.05156 0.66623 0.43891
 C608 C 1.07223 0.64895 0.46062
 C609 C 1.06304 0.61816 0.47189
 C610 C 1.03289 0.60387 0.46179
 C611 C 1.01216 0.62110 0.44002
 C612 C 1.02147 0.65195 0.42862
 H613 H 1.06691 0.74320 0.35674
 H614 H 1.09881 0.76824 0.45462
 H615 H 1.07965 0.60556 0.48856
 H616 H 0.98877 0.61076 0.43179
 H617 H 1.07914 0.71566 0.47440
 H618 H 1.09581 0.65908 0.46858
 H619 H 1.04701 0.69057 0.37666
 H620 H 1.00493 0.66482 0.41208
 C621 C -0.06285 1.20366 0.07670
 C622 C -0.08414 1.22233 0.05694
 C623 C -0.09669 1.25207 0.06808
 C624 C -0.08808 1.26426 0.09935
 C625 C -0.06609 1.24547 0.11879
 C626 C -0.05389 1.21554 0.10768
 C627 C -0.05059 1.17158 0.06520
 C628 C -0.05137 1.14436 0.08604
 C629 C -0.04117 1.11380 0.07478
 C630 C -0.02966 1.10988 0.04253
 C631 C -0.02830 1.13726 0.02189
 C632 C -0.03882 1.16776 0.03306
 H633 H -0.11269 1.26549 0.05161
 H634 H -0.05882 1.25305 0.14309
 H635 H -0.04247 1.09319 0.09131
 H636 H -0.01957 1.13506 -0.00309
 H637 H -0.03731 1.20167 0.12334
 H638 H -0.06061 1.14659 0.11084
 H639 H -0.09157 1.21365 0.03296
 H640 H -0.03768 1.18841 0.01659
 C641 C 0.43546 0.30140 0.92039
 C642 C 0.42116 0.27921 0.94248
 C643 C 0.40863 0.24940 0.93148
 C644 C 0.41015 0.24104 0.89813
 C645 C 0.42473 0.26311 0.87608
 C646 C 0.43720 0.29298 0.88708
 C647 C 0.44793 0.33343 0.93204
 C648 C 0.44181 0.36188 0.91382
 C649 C 0.45252 0.39219 0.92533
 C650 C 0.46963 0.39474 0.95531
 C651 C 0.47618 0.36623 0.97329
 C652 C 0.46543 0.33592 0.96179
 H653 H 0.39793 0.23279 0.94914
 H654 H 0.42600 0.25757 0.85022
 H655 H 0.44701 0.41368 0.91090
 H656 H 0.48939 0.36731 0.99642
 H657 H 0.44835 0.30944 0.86952
 H658 H 0.42805 0.36080 0.89100
 H659 H 0.41913 0.28513 0.96824
 H660 H 0.47092 0.31439 0.97615
 C661 C 0.57612 0.56993 0.79682
 C662 C 0.55376 0.58579 0.77560
 C663 C 0.56462 0.59805 0.74554
 C664 C 0.59806 0.59463 0.73597
 C665 C 0.62034 0.57851 0.75708
 C666 C 0.60951 0.56635 0.78719
 C667 C 0.56474 0.55761 0.82908
 C668 C 0.58454 0.56192 0.85718
 C669 C 0.57349 0.55105 0.88771
 C670 C 0.54243 0.53555 0.89082
 C671 C 0.52279 0.53091 0.86264
 C672 C 0.53381 0.54187 0.83212
 H673 H 0.54679 0.61004 0.72969
 H674 H 0.64632 0.57577 0.75059
 H675 H 0.58920 0.55507 0.90893
 H676 H 0.49877 0.51900 0.86417
 H677 H 0.62724 0.55398 0.80289
 H678 H 0.60831 0.57430 0.85567
 H679 H 0.52795 0.58919 0.78249
 H680 H 0.51820 0.53784 0.81084
 C681 C 0.42305 0.06936 0.69917
 C682 C 0.42211 0.10317 0.70437
 C683 C 0.41243 0.11575 0.73466
 C684 C 0.40303 0.09478 0.76021
 C685 C 0.40381 0.06096 0.75498
 C686 C 0.41402 0.04834 0.72481
 C687 C 0.43347 0.05620 0.66703
 C688 C 0.45728 0.03119 0.66515
 C689 C 0.46814 0.01981 0.63471
 C690 C 0.45499 0.03289 0.60559
 C691 C 0.43060 0.05741 0.60756
 C692 C 0.42014 0.06910 0.63798
 H693 H 0.41171 0.14190 0.73797
 H694 H 0.39687 0.04433 0.77438
 H695 H 0.48691 0.00086 0.63396
 H696 H 0.42004 0.06802 0.58558
 H697 H 0.41442 0.02218 0.72131
 H698 H 0.46806 0.02100 0.68724
 H699 H 0.42920 0.11985 0.68505
 H700 H 0.40154 0.08821 0.63882
 C701 C 0.07077 0.93084 0.20345
 C702 C 0.07964 0.95187 0.22915
 C703 C 0.08935 0.93928 0.25951
 C704 C 0.08982 0.90547 0.26488
 C705 C 0.08042 0.88448 0.23932
 C706 C 0.07122 0.89704 0.20881
 C707 C 0.06114 0.94403 0.17107
 C708 C 0.07507 0.93111 0.14236
 C709 C 0.06551 0.94304 0.11171
 C710 C 0.04143 0.96780 0.10916
 C711 C 0.02768 0.98089 0.13793
 C712 C 0.03765 0.96928 0.16862
 H713 H 0.09632 0.95592 0.27892
 H714 H 0.08089 0.85833 0.24276
 H715 H 0.07646 0.93241 0.08998
 H716 H 0.00912 1.00001 0.13673
 H717 H 0.06423 0.88036 0.18943
 H718 H 0.09345 0.91181 0.14368
 H719 H 0.07959 0.97802 0.22553
 H720 H 0.02646 0.97951 0.19043
 C721 C 0.93008 0.43234 0.29898
 C722 C 0.89684 0.43713 0.28918
 C723 C 0.88557 0.42543 0.25896
 C724 C 0.90730 0.40869 0.23786
 C725 C 0.94070 0.40451 0.24741
 C726 C 0.95195 0.41619 0.27760
 C727 C 0.94173 0.44322 0.33175
 C728 C 0.96279 0.42318 0.35049
 C729 C 0.97362 0.43302 0.38145
 C730 C 0.96367 0.46320 0.39447
 C731 C 0.94260 0.48332 0.37575
 C732 C 0.93169 0.47340 0.34472
 H733 H 0.85961 0.42869 0.25256
 H734 H 0.95821 0.39231 0.23147
 H735 H 0.98975 0.41686 0.39522
 H736 H 0.93452 0.50673 0.38504
 H737 H 0.97786 0.41266 0.28418
 H738 H 0.97053 0.39957 0.34141
 H739 H 0.87930 0.44912 0.30529
 H740 H 0.91571 0.48950 0.33073
   
