data_POSCAR
  _audit_creation_date              2014-09-24
  _audit_creation_method            'ToBaCCo'
  _symmetry_space_group_name_H-M    'P1'
  _symmetry_Int_Tables_number       1
  _symmetry_cell_setting            triclinic
  loop_
  _symmetry_equiv_pos_as_xyz
 x,y,z
_cell_length_a 26.1346
_cell_length_b 26.1344
_cell_length_c 30.9283
_cell_angle_alpha 89.943800
_cell_angle_beta 89.948100
_cell_angle_gamma 89.980200
loop_
  _atom_site_label
  _atom_site_type_symbol
  _atom_site_fract_x
  _atom_site_fract_y
  _atom_site_fract_z
O1 O -0.04943 0.36193 0.04173
 O2 O 0.05006 0.36176 -0.04274
 O3 O -0.04974 0.36173 -0.04239
 O4 O 0.05029 0.36198 0.04143
 O5 O 0.05022 0.27743 0.04163
 O6 O -0.04957 0.27718 -0.04220
 O7 O 0.05008 0.27724 -0.04250
 O8 O -0.04937 0.27738 0.04186
 Cu9 Cu 0.00030 0.37031 -0.00053
 Cu10 Cu 0.00036 0.26880 -0.00029
 C11 C -0.06637 0.31967 0.05607
 C12 C 0.06710 0.31946 -0.05693
 C13 C -0.06673 0.31940 -0.05644
 C14 C 0.06726 0.31972 0.05574
 O15 O 0.54988 0.86148 0.45770
 O16 O 0.44997 0.86160 0.54174
 O17 O 0.54972 0.86141 0.54184
 O18 O 0.45015 0.86141 0.45760
 O19 O 0.45016 0.77686 0.45774
 O20 O 0.54969 0.77685 0.54191
 O21 O 0.45003 0.77705 0.54189
 O22 O 0.54980 0.77693 0.45779
 Cu23 Cu 0.49993 0.86992 0.49971
 Cu24 Cu 0.49991 0.76840 0.49985
 C25 C 0.56685 0.81919 0.44352
 C26 C 0.43298 0.81935 0.55603
 C27 C 0.56669 0.81912 0.55611
 C28 C 0.43319 0.81913 0.44342
 O29 O 1.05166 0.63923 0.04219
 O30 O 0.95240 0.63907 -0.04232
 O31 O 1.05214 0.63928 -0.04202
 O32 O 0.95193 0.63890 0.04180
 O33 O 0.95178 0.72345 0.04183
 O34 O 1.05174 0.72379 -0.04208
 O35 O 0.95213 0.72362 -0.04226
 O36 O 1.05142 0.72375 0.04214
 Cu37 Cu 1.00209 0.63067 -0.00009
 Cu38 Cu 1.00177 0.73215 -0.00009
 C39 C 1.06848 0.68152 0.05654
 C40 C 0.93532 0.68132 -0.05656
 C41 C 1.06901 0.68161 -0.05633
 C42 C 0.93477 0.68112 0.05598
 O43 O 0.54947 0.13721 0.54237
 O44 O 0.44953 0.13736 0.45848
 O45 O 0.54925 0.13742 0.45821
 O46 O 0.44974 0.13751 0.54269
 O47 O 0.44983 0.22206 0.54257
 O48 O 0.54930 0.22197 0.45824
 O49 O 0.44970 0.22191 0.45841
 O50 O 0.54945 0.22177 0.54234
 Cu51 Cu 0.49948 0.12892 0.50045
 Cu52 Cu 0.49956 0.23044 0.50039
 C53 C 0.56648 0.17947 0.55655
 C54 C 0.43265 0.17966 0.44421
 C55 C 0.56623 0.17970 0.44394
 C56 C 0.43286 0.17982 0.55694
 O57 O 0.63846 -0.04936 0.04148
 O58 O 0.63837 0.05028 -0.04287
 O59 O 0.63854 -0.04950 -0.04264
 O60 O 0.63807 0.05036 0.04130
 O61 O 0.72262 0.05047 0.04134
 O62 O 0.72309 -0.04921 -0.04259
 O63 O 0.72289 0.05042 -0.04279
 O64 O 0.72302 -0.04913 0.04148
 Cu65 Cu 0.62990 0.00044 -0.00070
 Cu66 Cu 0.73141 0.00067 -0.00064
 C67 C 0.68077 -0.06624 0.05573
 C68 C 0.68063 0.06740 -0.05713
 C69 C 0.68090 -0.06640 -0.05678
 C70 C 0.68028 0.06739 0.05554
 O71 O 0.13799 0.54980 0.45823
 O72 O 0.13798 0.44989 0.54230
 O73 O 0.13811 0.54962 0.54245
 O74 O 0.13820 0.45010 0.45814
 O75 O 0.22276 0.45011 0.45817
 O76 O 0.22265 0.54961 0.54237
 O77 O 0.22253 0.44997 0.54232
 O78 O 0.22254 0.54973 0.45818
 Cu79 Cu 0.12962 0.49987 0.50029
 Cu80 Cu 0.23113 0.49987 0.50026
 C81 C 0.18026 0.56673 0.44393
 C82 C 0.18025 0.43292 0.55654
 C83 C 0.18038 0.56654 0.55670
 C84 C 0.18051 0.43316 0.44389
 O85 O 0.36116 1.05156 0.04246
 O86 O 0.36105 0.95246 -0.04219
 O87 O 0.36098 1.05222 -0.04177
 O88 O 0.36114 0.95183 0.04193
 O89 O 0.27659 0.95197 0.04212
 O90 O 0.27647 1.05205 -0.04168
 O91 O 0.27650 0.95243 -0.04197
 O92 O 0.27665 1.05161 0.04252
 Cu93 Cu 0.36954 1.00204 0.00009
 Cu94 Cu 0.26805 1.00205 0.00027
 C95 C 0.31892 1.06850 0.05688
 C96 C 0.31876 0.93551 -0.05636
 C97 C 0.31869 1.06923 -0.05598
 C98 C 0.31887 0.93479 0.05617
 O99 O 0.86236 0.54920 0.54181
 O100 O 0.86213 0.44927 0.45795
 O101 O 0.86219 0.54901 0.45767
 O102 O 0.86201 0.44945 0.54208
 O103 O 0.77746 0.44967 0.54211
 O104 O 0.77763 0.54916 0.45780
 O105 O 0.77757 0.44954 0.45802
 O106 O 0.77780 0.54930 0.54191
 Cu107 Cu 0.87063 0.49921 0.49987
 Cu108 Cu 0.76910 0.49944 0.49997
 C109 C 0.82011 0.56628 0.55604
 C110 C 0.81981 0.43237 0.44381
 C111 C 0.81992 0.56605 0.44347
 C112 C 0.81969 0.43257 0.55635
 C113 C 0.26605 0.19945 0.16049
 C114 C 0.22847 0.22795 0.13913
 C115 C 0.20046 0.26600 0.16034
 C116 C 0.20883 0.27489 0.20489
 C117 C 0.24604 0.24559 0.22734
 C118 C 0.27493 0.20791 0.20505
 C119 C 0.31116 0.17906 0.22811
 C120 C 0.31988 0.18785 0.27186
 C121 C 0.29137 0.22451 0.29474
 C122 C 0.25415 0.25379 0.27227
 C123 C 0.18031 0.31154 0.22776
 C124 C 0.18900 0.32029 0.27152
 C125 C 0.22521 0.29142 0.29457
 C126 C 0.23401 0.29985 0.33913
 C127 C 0.27165 0.27144 0.36050
 C128 C 0.29975 0.23344 0.33929
 H129 H 0.33306 0.14906 0.21279
 H130 H 0.34955 0.16564 0.28732
 H131 H 0.15066 0.33377 0.21230
 H132 H 0.16707 0.35027 0.28684
 H133 H 0.22236 0.22185 0.10488
 H134 H 0.27771 0.27755 0.39475
 C135 C 0.76653 0.69968 0.33890
 C136 C 0.72868 0.72785 0.36023
 C137 C 0.70047 0.76575 0.33899
 C138 C 0.70893 0.77477 0.29444
 C139 C 0.74640 0.74576 0.27202
 C140 C 0.77548 0.70825 0.29435
 C141 C 0.81196 0.67966 0.27135
 C142 C 0.82078 0.68858 0.22761
 C143 C 0.79211 0.72509 0.20469
 C144 C 0.75462 0.75408 0.22710
 C145 C 0.68025 0.81126 0.27152
 C146 C 0.68904 0.82016 0.22777
 C147 C 0.72553 0.79157 0.20477
 C148 C 0.73447 0.80014 0.16022
 C149 C 0.77237 0.77201 0.13890
 C150 C 0.80060 0.73414 0.16015
 H151 H 0.83401 0.64977 0.28669
 H152 H 0.85065 0.66659 0.21219
 H153 H 0.65037 0.83326 0.28694
 H154 H 0.66698 0.85003 0.21242
 H155 H 0.72252 0.72164 0.39448
 H156 H 0.77855 0.77825 0.10465
 C157 C 0.79983 0.26629 0.16051
 C158 C 0.77147 0.22872 0.13909
 C159 C 0.73354 0.20050 0.16028
 C160 C 0.72463 0.20867 0.20487
 C161 C 0.75383 0.24584 0.22739
 C162 C 0.79138 0.27494 0.20510
 C163 C 0.82015 0.31112 0.22820
 C164 C 0.81140 0.31961 0.27199
 C165 C 0.77487 0.29090 0.29486
 C166 C 0.74566 0.25373 0.27235
 C167 C 0.68808 0.17996 0.22775
 C168 C 0.67934 0.18845 0.27155
 C169 C 0.70812 0.22463 0.29464
 C170 C 0.69971 0.23326 0.33925
 C171 C 0.72808 0.27083 0.36067
 C172 C 0.76600 0.29904 0.33945
 H173 H 0.85006 0.33318 0.21287
 H174 H 0.83355 0.34926 0.28749
 H175 H 0.66593 0.15032 0.21224
 H176 H 0.64944 0.16639 0.28687
 H177 H 0.77763 0.22277 0.10481
 H178 H 0.72198 0.27678 0.39495
 C179 C 0.29979 0.76582 0.33880
 C180 C 0.27158 0.72795 0.36008
 C181 C 0.23364 0.69987 0.33885
 C182 C 0.22458 0.70853 0.29433
 C183 C 0.25365 0.74601 0.27195
 C184 C 0.29122 0.77491 0.29429
 C185 C 0.31989 0.81139 0.27132
 C186 C 0.31099 0.82038 0.22762
 C187 C 0.27441 0.79191 0.20470
 C188 C 0.24531 0.75443 0.22706
 C189 C 0.18798 0.68007 0.27141
 C190 C 0.17906 0.68908 0.22769
 C191 C 0.20773 0.72556 0.20471
 C192 C 0.19917 0.73470 0.16018
 C193 C 0.22744 0.77257 0.13893
 C194 C 0.26539 0.80058 0.16020
 H195 H 0.34983 0.83329 0.28666
 H196 H 0.33305 0.85024 0.21224
 H197 H 0.16592 0.65022 0.28680
 H198 H 0.14911 0.66719 0.21235
 H199 H 0.27780 0.72169 0.39431
 H200 H 0.22128 0.77889 0.10470
 C201 C 0.70004 0.23281 0.66090
 C202 C 0.72823 0.27068 0.63958
 C203 C 0.76596 0.29897 0.66087
 C204 C 0.77476 0.29058 0.70545
 C205 C 0.74573 0.25308 0.72785
 C206 C 0.70843 0.22390 0.70547
 C207 C 0.67985 0.18735 0.72845
 C208 C 0.68857 0.17859 0.77221
 C209 C 0.72485 0.20739 0.79519
 C210 C 0.75383 0.24494 0.77279
 C211 C 0.81105 0.31938 0.72841
 C212 C 0.81971 0.31068 0.77218
 C213 C 0.79109 0.27417 0.79516
 C214 C 0.79944 0.26536 0.83973
 C215 C 0.77136 0.22742 0.86106
 C216 C 0.73371 0.19899 0.83977
 H217 H 0.65013 0.16520 0.71305
 H218 H 0.66662 0.14866 0.78760
 H219 H 0.83305 0.34926 0.71300
 H220 H 0.84943 0.33284 0.78757
 H221 H 0.72215 0.27681 0.60532
 H222 H 0.77747 0.22134 0.89532
 C223 C 0.29951 0.76621 0.66088
 C224 C 0.27144 0.72811 0.63986
 C225 C 0.23368 0.69994 0.66134
 C226 C 0.22472 0.70875 0.70586
 C227 C 0.25367 0.74648 0.72797
 C228 C 0.29101 0.77548 0.70537
 C229 C 0.31953 0.81224 0.72806
 C230 C 0.31069 0.82140 0.77174
 C231 C 0.27436 0.79281 0.79494
 C232 C 0.24544 0.75505 0.77285
 C233 C 0.18836 0.68018 0.72906
 C234 C 0.17957 0.68930 0.77277
 C235 C 0.20813 0.72602 0.79547
 C236 C 0.19971 0.73525 0.84000
 C237 C 0.22777 0.77339 0.86098
 C238 C 0.26544 0.80162 0.83945
 H239 H 0.34930 0.83424 0.71250
 H240 H 0.33261 0.85147 0.78689
 H241 H 0.16641 0.65016 0.71389
 H242 H 0.14978 0.66732 0.78832
 H243 H 0.27761 0.72174 0.60564
 H244 H 0.22168 0.77976 0.89521
 C245 C 0.26515 0.20025 0.84064
 C246 C 0.22714 0.22844 0.86175
 C247 C 0.19885 0.26609 0.84029
 C248 C 0.20747 0.27489 0.79572
 C249 C 0.24510 0.24584 0.77351
 C250 C 0.27419 0.20854 0.79606
 C251 C 0.31077 0.17984 0.77324
 C252 C 0.31968 0.18848 0.72947
 C253 C 0.29105 0.22482 0.70634
 C254 C 0.25346 0.25391 0.72857
 C255 C 0.17880 0.31120 0.77257
 C256 C 0.18777 0.31989 0.72882
 C257 C 0.22440 0.29124 0.70602
 C258 C 0.23350 0.29960 0.66146
 C259 C 0.27145 0.27136 0.64032
 C260 C 0.29964 0.23361 0.66176
 H261 H 0.33281 0.15007 0.78876
 H262 H 0.34960 0.16641 0.71420
 H263 H 0.14882 0.33320 0.78781
 H264 H 0.16572 0.34964 0.71329
 H265 H 0.22090 0.22241 0.89602
 H266 H 0.27768 0.27741 0.60606
 C267 C 0.76684 0.70003 0.66033
 C268 C 0.72879 0.72807 0.63914
 C269 C 0.70051 0.76584 0.66047
 C270 C 0.70913 0.77482 0.70498
 C271 C 0.74682 0.74593 0.72726
 C272 C 0.77595 0.70859 0.70483
 C273 C 0.81267 0.68012 0.72769
 C274 C 0.82164 0.68902 0.77138
 C275 C 0.79291 0.72535 0.79441
 C276 C 0.75520 0.75421 0.77214
 C277 C 0.68040 0.81117 0.72800
 C278 C 0.68933 0.82001 0.77170
 C279 C 0.72602 0.79152 0.79457
 C280 C 0.73505 0.80002 0.83908
 C281 C 0.77315 0.77205 0.86027
 C282 C 0.80152 0.73436 0.83893
 H283 H 0.83478 0.65035 0.71227
 H284 H 0.85169 0.66714 0.78667
 H285 H 0.65038 0.83307 0.71270
 H286 H 0.66721 0.84978 0.78713
 H287 H 0.72252 0.72186 0.60492
 H288 H 0.77937 0.77825 0.89450
 N289 N 0.34605 0.16196 0.13402
 N290 N 0.36158 0.12717 0.10572
 C291 C 0.31904 0.10611 0.08866
 C292 C 0.27695 0.12897 0.10739
 N293 N 0.29542 0.16317 0.13584
 H294 H 0.23688 0.12200 0.10069
 N295 N 0.84704 0.66339 0.63349
 N296 N 0.86269 0.62828 0.60553
 C297 C 0.82022 0.60641 0.58911
 C298 C 0.77809 0.62912 0.60777
 N299 N 0.79642 0.66403 0.63563
 H300 H 0.73807 0.62148 0.60144
 N301 N 0.65419 0.83688 0.13370
 N302 N 0.63843 0.87193 0.10570
 C303 C 0.68082 0.89372 0.08897
 C304 C 0.72303 0.87101 0.10749
 N305 N 0.70482 0.83619 0.13559
 H306 H 0.76302 0.87858 0.10091
 N307 N 0.15333 0.33621 0.63458
 N308 N 0.13770 0.37116 0.60644
 C309 C 0.18017 0.39289 0.58979
 C310 C 0.22229 0.37026 0.60851
 N311 N 0.20395 0.33553 0.63663
 H312 H 0.26231 0.37783 0.60206
 N313 N 0.83697 0.34649 0.13414
 N314 N 0.87207 0.36217 0.10614
 C315 C 0.89365 0.31973 0.08936
 C316 C 0.87076 0.27757 0.10784
 N317 N 0.83604 0.29586 0.13596
 H318 H 0.87811 0.23756 0.10119
 N319 N 0.33601 0.84635 0.63376
 N320 N 0.37102 0.86195 0.60565
 C321 C 0.39289 0.81947 0.58922
 C322 C 0.37028 0.77736 0.60802
 N323 N 0.33543 0.79573 0.63599
 H324 H 0.37795 0.73733 0.60173
 N325 N 0.16213 0.65461 0.13363
 N326 N 0.12741 0.63901 0.10533
 C327 C 0.10614 0.68150 0.08828
 C328 C 0.12880 0.72365 0.10700
 N329 N 0.16310 0.70525 0.13546
 H330 H 0.12161 0.76370 0.10032
 N331 N 0.66335 0.15260 0.63430
 N332 N 0.62832 0.13693 0.60631
 C333 C 0.60656 0.17939 0.58968
 C334 C 0.62925 0.22153 0.60824
 N335 N 0.66405 0.20323 0.63626
 H336 H 0.62168 0.26154 0.60174
 N337 N 0.65363 0.16167 0.86626
 N338 N 0.63804 0.12664 0.89436
 C339 C 0.68055 0.10533 0.91132
 C340 C 0.72269 0.12830 0.89274
 N341 N 0.70427 0.16280 0.86447
 H342 H 0.76274 0.12114 0.89937
 N343 N 0.15343 0.66311 0.36560
 N344 N 0.13777 0.62824 0.39381
 C345 C 0.18021 0.60662 0.41056
 C346 C 0.22236 0.62921 0.39181
 N347 N 0.20406 0.66382 0.36357
 H348 H 0.26237 0.62173 0.39834
 N349 N 0.34559 0.83890 0.86562
 N350 N 0.36124 0.87402 0.89354
 C351 C 0.31879 0.89558 0.91036
 C352 C 0.27664 0.87265 0.89197
 N353 N 0.29495 0.83794 0.86386
 H354 H 0.23663 0.87996 0.89870
 N355 N 0.84634 0.33533 0.36615
 N356 N 0.86212 0.37033 0.39412
 C357 C 0.81975 0.39226 0.41073
 C358 C 0.77752 0.36970 0.39219
 N359 N 0.79571 0.33482 0.36420
 H360 H 0.73753 0.37744 0.39865
 N361 N 0.16147 0.34625 0.86647
 N362 N 0.12640 0.36192 0.89450
 C363 C 0.10503 0.31945 0.91152
 C364 C 0.12799 0.27727 0.89306
 N365 N 0.16256 0.29561 0.86479
 H366 H 0.12081 0.23723 0.89980
 N367 N 0.66374 0.84596 0.36564
 N368 N 0.62869 0.86164 0.39366
 C369 C 0.60693 0.81921 0.41034
 C370 C 0.62966 0.77704 0.39176
 N371 N 0.66446 0.79533 0.36369
 H372 H 0.62210 0.73703 0.39828
 N373 N 0.83883 0.65428 0.86541
 N374 N 0.87392 0.63871 0.89342
 C375 C 0.89538 0.68120 0.91016
 C376 C 0.87242 0.72330 0.89163
 N377 N 0.83778 0.70492 0.86352
 H378 H 0.87967 0.76333 0.89823
 N379 N 0.33616 0.15310 0.36609
 N380 N 0.37098 0.13732 0.39426
 C381 C 0.39273 0.17970 0.41094
 C382 C 0.37026 0.22192 0.39221
 N383 N 0.33559 0.20373 0.36405
 H384 H 0.37788 0.26190 0.39869
 N385 N 0.65463 0.83626 0.86583
 N386 N 0.63875 0.87133 0.89372
 C387 C 0.68106 0.89342 0.91020
 C388 C 0.72336 0.87087 0.89165
 N389 N 0.70526 0.83584 0.86378
 H390 H 0.76332 0.87871 0.89803
 N391 N 0.15381 0.33691 0.36556
 N392 N 0.13810 0.37184 0.39366
 C393 C 0.18052 0.39328 0.41055
 C394 C 0.22270 0.37050 0.39201
 N395 N 0.20445 0.33597 0.36375
 H396 H 0.26270 0.37780 0.39870
 N397 N 0.34539 0.16356 0.86737
 N398 N 0.36110 0.12871 0.89558
 C399 C 0.31865 0.10721 0.91252
 C400 C 0.27645 0.12986 0.89384
 N401 N 0.29475 0.16438 0.86551
 H402 H 0.23641 0.12244 0.90039
 N403 N 0.84675 0.66276 0.36540
 N404 N 0.86242 0.62770 0.39343
 C405 C 0.81998 0.60604 0.41019
 C406 C 0.77783 0.62882 0.39165
 N407 N 0.79611 0.66357 0.36352
 H408 H 0.73782 0.62137 0.39826
 N409 N 0.16325 0.65499 0.86696
 N410 N 0.12849 0.63926 0.89525
 C411 C 0.10691 0.68169 0.91211
 C412 C 0.12943 0.72391 0.89330
 N413 N 0.16393 0.70563 0.86497
 H414 H 0.12191 0.76394 0.89976
 N415 N 0.66263 0.15301 0.36559
 N416 N 0.62763 0.13728 0.39367
 C417 C 0.60614 0.17969 0.41059
 C418 C 0.62896 0.22188 0.39209
 N419 N 0.66356 0.20365 0.36383
 H420 H 0.62164 0.26187 0.39882
 N421 N 0.83581 0.34576 0.86623
 N422 N 0.87096 0.36162 0.89403
 C423 C 0.89301 0.31928 0.91060
 C424 C 0.87035 0.27700 0.89221
 N425 N 0.83530 0.29512 0.86434
 H426 H 0.87815 0.23703 0.89870
 N427 N 0.33662 0.84598 0.36537
 N428 N 0.37160 0.86163 0.39342
 C429 C 0.39324 0.81917 0.41016
 C430 C 0.37053 0.77703 0.39159
 N431 N 0.33584 0.79535 0.36346
 H432 H 0.37799 0.73702 0.39817
 N433 N 0.34564 0.83726 0.13347
 N434 N 0.36134 0.87248 0.10559
 C435 C 0.31892 0.89448 0.08916
 C436 C 0.27674 0.87172 0.10773
 N437 N 0.29501 0.83666 0.13556
 H438 H 0.23674 0.87943 0.10138
 N439 N 0.84625 0.33574 0.63433
 N440 N 0.86202 0.37079 0.60632
 C441 C 0.81963 0.39253 0.58958
 C442 C 0.77741 0.36979 0.60809
 N443 N 0.79561 0.33499 0.63619
 H444 H 0.73742 0.37732 0.60151
 N445 N 0.65332 0.16398 0.13351
 N446 N 0.63767 0.12906 0.10542
 C447 C 0.68014 0.10736 0.08876
 C448 C 0.72227 0.12996 0.10741
 N449 N 0.70395 0.16464 0.13552
 H450 H 0.76229 0.12239 0.10094
 N451 N 0.15352 0.66276 0.63509
 N452 N 0.13787 0.62783 0.60700
 C453 C 0.18032 0.60637 0.59008
 C454 C 0.22246 0.62915 0.60861
 N455 N 0.20416 0.66369 0.63687
 H456 H 0.26247 0.62186 0.60186
 N457 N 0.83751 0.65402 0.13346
 N458 N 0.87273 0.63845 0.10554
 C459 C 0.89452 0.68095 0.08902
 C460 C 0.87164 0.72304 0.10757
 N461 N 0.83672 0.70465 0.13548
 H462 H 0.87918 0.76308 0.10115
 N463 N 0.33657 0.15329 0.63547
 N464 N 0.37147 0.13751 0.60734
 C465 C 0.39302 0.17989 0.59036
 C466 C 0.37033 0.22211 0.60888
 N467 N 0.33575 0.20394 0.63721
 H468 H 0.37772 0.26209 0.60210
 N469 N 0.16408 0.34636 0.13353
 N470 N 0.12914 0.36213 0.10546
 C471 C 0.10728 0.31974 0.08891
 C472 C 0.12979 0.27753 0.10760
 N473 N 0.16460 0.29572 0.13562
 H474 H 0.12210 0.23754 0.10119
 N475 N 0.66342 0.84598 0.63395
 N476 N 0.62832 0.86163 0.60598
 C477 C 0.60671 0.81917 0.58931
 C478 C 0.62958 0.77703 0.60784
 N479 N 0.66432 0.79535 0.63588
 H480 H 0.62219 0.73702 0.60129
   
