data_POSCAR
  _audit_creation_date              2014-09-24
  _audit_creation_method            'ToBaCCo'
  _symmetry_space_group_name_H-M    'P1'
  _symmetry_Int_Tables_number       1
  _symmetry_cell_setting            triclinic
  loop_
  _symmetry_equiv_pos_as_xyz
 x,y,z
_cell_length_a 37.8897
_cell_length_b 40.3602
_cell_length_c 38.6415
_cell_angle_alpha 85.830000
_cell_angle_beta 95.450000
_cell_angle_gamma 94.470000
loop_
  _atom_site_label
  _atom_site_type_symbol
  _atom_site_fract_x
  _atom_site_fract_y
  _atom_site_fract_z
C1 C 0.21892 0.28133 0.28083
 C2 C 0.24288 0.30271 0.25686
 C3 C 0.26205 0.28445 0.23808
 C4 C 0.25564 0.24657 0.24485
 C5 C 0.19586 0.25802 0.25685
 C6 C 0.21518 0.23988 0.23808
 C7 C 0.24386 0.25871 0.30343
 C8 C 0.26302 0.24056 0.28451
 H9 H 0.24444 0.32978 0.25480
 H10 H 0.27132 0.23176 0.22950
 H11 H 0.16699 0.25586 0.25509
 H12 H 0.24586 0.25690 0.33174
 C13 C 0.71937 0.78142 0.28112
 C14 C 0.74339 0.80273 0.25714
 C15 C 0.76248 0.78440 0.23837
 C16 C 0.75597 0.74653 0.24516
 C17 C 0.69624 0.75815 0.25715
 C18 C 0.71550 0.73994 0.23839
 C19 C 0.74423 0.75875 0.30373
 C20 C 0.76333 0.74053 0.28483
 H21 H 0.74498 0.82979 0.25503
 H22 H 0.77161 0.73167 0.22982
 H23 H 0.66737 0.75606 0.25539
 H24 H 0.74618 0.75690 0.33204
 C25 C 0.72019 0.28295 0.78006
 C26 C 0.74297 0.30329 0.75748
 C27 C 0.76308 0.28417 0.73781
 C28 C 0.75690 0.24829 0.74414
 C29 C 0.69701 0.25957 0.75611
 C30 C 0.71639 0.24141 0.73733
 C31 C 0.74489 0.26009 0.80281
 C32 C 0.76409 0.24192 0.78386
 H33 H 0.74450 0.33037 0.75542
 H34 H 0.77259 0.23342 0.72881
 H35 H 0.66815 0.25733 0.75445
 H36 H 0.74665 0.25810 0.83111
 C37 C 0.21896 0.78149 0.78040
 C38 C 0.24295 0.80283 0.75642
 C39 C 0.26210 0.78453 0.73767
 C40 C 0.25565 0.74665 0.74447
 C41 C 0.19588 0.75818 0.75644
 C42 C 0.21519 0.74000 0.73770
 C43 C 0.24386 0.75887 0.80304
 C44 C 0.26300 0.74068 0.78414
 H45 H 0.24457 0.82989 0.75437
 H46 H 0.27132 0.73182 0.72914
 H47 H 0.16701 0.75601 0.75472
 H48 H 0.24583 0.75706 0.83134
 C49 C 0.05700 0.04472 0.00930
 H50 H 0.05722 0.04753 -0.01874
 C51 C 0.07829 0.06662 0.03018
 H52 H 0.09511 0.08631 0.01826
 C53 C 0.03390 0.01639 0.05915
 H54 H 0.01597 -0.00263 0.07035
 C55 C 0.05475 0.03774 0.08095
 H56 H 0.05307 0.03483 0.10885
 N57 N 0.03550 0.02010 0.02402
 C58 C 0.01401 -0.05398 -0.05377
 H59 H -0.01475 -0.05605 -0.05591
 C60 C 0.03237 -0.07360 -0.07326
 H61 H 0.01778 -0.09078 -0.09061
 C62 C 0.06828 -0.02938 -0.02822
 H63 H 0.08219 -0.01250 -0.01028
 C64 C 0.08767 -0.04854 -0.04723
 H65 H 0.11646 -0.04613 -0.04411
 Zn66 Zn 0.00529 -0.00687 -0.00616
 N67 N 0.03210 -0.03214 -0.03210
 C68 C -0.02321 0.02267 -0.07134
 N69 N -0.02248 0.02227 -0.03601
 C70 C -0.04089 0.04374 -0.02040
 C71 C -0.06184 0.06620 -0.04047
 C72 C -0.04388 0.04480 -0.09241
 C73 C -0.00889 -0.06046 0.04220
 C74 C -0.02953 -0.08234 0.06312
 C75 C -0.08196 -0.05676 0.03661
 C76 C -0.06037 -0.03535 0.01623
 N77 N -0.02445 -0.03707 0.01990
 H78 H -0.00777 0.00598 -0.08326
 H79 H -0.03938 0.04323 0.00773
 H80 H -0.07664 0.08301 -0.02780
 H81 H -0.04456 0.04488 -0.12051
 H82 H 0.01967 -0.06160 0.04423
 H83 H -0.01688 -0.10034 0.08143
 H84 H -0.11045 -0.05476 0.03406
 H85 H -0.07237 -0.01721 -0.00222
 C86 C 0.06954 -0.07076 -0.07001
 C87 C 0.07705 0.06313 0.06632
 C88 C -0.06636 -0.08019 0.06052
 C89 C -0.06345 0.06664 -0.07678
 C90 C 0.05664 0.54380 0.51016
 H91 H 0.05679 0.54656 0.48211
 C92 C 0.07795 0.56577 0.53094
 H93 H 0.09472 0.58546 0.51894
 C94 C 0.03371 0.51555 0.56012
 H95 H 0.01583 0.49652 0.57140
 C96 C 0.05458 0.53697 0.58183
 H97 H 0.05296 0.53411 0.60975
 N98 N 0.03522 0.51919 0.52498
 C99 C 0.01369 0.44503 0.44728
 H100 H -0.01506 0.44292 0.44516
 C101 C 0.03207 0.42546 0.42774
 H102 H 0.01748 0.40827 0.41038
 C103 C 0.06796 0.46968 0.47279
 H104 H 0.08187 0.48655 0.49072
 C105 C 0.08736 0.45056 0.45374
 H106 H 0.11614 0.45301 0.45681
 Zn107 Zn 0.00498 0.49216 0.49488
 N108 N 0.03178 0.46688 0.46894
 C109 C -0.02360 0.52163 0.42969
 N110 N -0.02283 0.52126 0.46503
 C111 C -0.04123 0.54274 0.48064
 C112 C -0.06221 0.56518 0.46058
 C113 C -0.04430 0.54374 0.40863
 C114 C -0.00918 0.43865 0.54338
 C115 C -0.02982 0.41679 0.56431
 C116 C -0.08225 0.44228 0.53767
 C117 C -0.06066 0.46367 0.51729
 N118 N -0.02473 0.46199 0.52101
 H119 H -0.00817 0.50494 0.41777
 H120 H -0.03968 0.54225 0.50877
 H121 H -0.07699 0.58199 0.47325
 H122 H -0.04501 0.54380 0.38053
 H123 H 0.01939 0.43753 0.54545
 H124 H -0.01718 0.39882 0.58267
 H125 H -0.11075 0.44424 0.53507
 H126 H -0.07266 0.48176 0.49879
 C127 C 0.06923 0.42834 0.43094
 C128 C 0.07680 0.56235 0.56710
 C129 C -0.06666 0.41889 0.56165
 C130 C -0.06386 0.56559 0.42426
 C131 C 0.55796 0.04514 0.50980
 H132 H 0.55812 0.04789 0.48176
 C133 C 0.57930 0.06710 0.53058
 H134 H 0.59609 0.08676 0.51857
 C135 C 0.53499 0.01694 0.55978
 H136 H 0.51708 -0.00206 0.57106
 C137 C 0.55589 0.03835 0.58148
 H138 H 0.55427 0.03551 0.60939
 N139 N 0.53650 0.02056 0.52463
 C140 C 0.51483 -0.05366 0.44702
 H141 H 0.48608 -0.05573 0.44492
 C142 C 0.53315 -0.07333 0.42753
 H143 H 0.51852 -0.09054 0.41024
 C144 C 0.56916 -0.02905 0.47245
 H145 H 0.58311 -0.01215 0.49034
 C146 C 0.58850 -0.04827 0.45345
 H147 H 0.61728 -0.04587 0.45652
 Zn148 Zn 0.50622 -0.00645 0.49455
 N149 N 0.53298 -0.03180 0.46863
 C150 C 0.47759 0.02295 0.42935
 N151 N 0.47844 0.02265 0.46468
 C152 C 0.46006 0.04415 0.48028
 C153 C 0.43901 0.06653 0.46020
 C154 C 0.45682 0.04499 0.40827
 C155 C 0.49200 -0.05994 0.54306
 C156 C 0.47132 -0.08182 0.56393
 C157 C 0.41893 -0.05631 0.53723
 C158 C 0.44056 -0.03489 0.51691
 N159 N 0.47648 -0.03659 0.52068
 H160 H 0.49301 0.00624 0.41743
 H161 H 0.46165 0.04371 0.50841
 H162 H 0.42421 0.08334 0.47287
 H163 H 0.45603 0.04497 0.38017
 H164 H 0.52057 -0.06106 0.54516
 H165 H 0.48393 -0.09981 0.58229
 H166 H 0.39043 -0.05434 0.53457
 H167 H 0.42859 -0.01680 0.49839
 C168 C 0.57032 -0.07052 0.43073
 C169 C 0.57815 0.06369 0.56673
 C170 C 0.43448 -0.07971 0.56121
 C171 C 0.43726 0.06685 0.42389
 C172 C 0.55720 0.54476 0.00972
 H173 H 0.55743 0.54760 -0.01832
 C174 C 0.57845 0.56668 0.03061
 H175 H 0.59525 0.58639 0.01871
 C176 C 0.53412 0.51638 0.05955
 H177 H 0.51621 0.49732 0.07073
 C178 C 0.55493 0.53774 0.08136
 H179 H 0.55324 0.53481 0.10926
 N180 N 0.53573 0.52011 0.02441
 C181 C 0.51447 0.44610 -0.05347
 H182 H 0.48572 0.44396 -0.05564
 C183 C 0.53291 0.42659 -0.07301
 H184 H 0.51838 0.40942 -0.09042
 C185 C 0.56867 0.47077 -0.02783
 H186 H 0.58252 0.48763 -0.00985
 C187 C 0.58813 0.45171 -0.04689
 H188 H 0.61692 0.45420 -0.04376
 Zn189 Zn 0.50559 0.49312 -0.00580
 N190 N 0.53249 0.46792 -0.03174
 C191 C 0.47707 0.52265 -0.07099
 N192 N 0.47781 0.52224 -0.03565
 C193 C 0.45934 0.54366 -0.02004
 C194 C 0.43833 0.56607 -0.04010
 C195 C 0.45634 0.54473 -0.09206
 C196 C 0.49137 0.43951 0.04257
 C197 C 0.47070 0.41764 0.06345
 C198 C 0.41829 0.44315 0.03677
 C199 C 0.43992 0.46456 0.01643
 N200 N 0.47584 0.46288 0.02020
 H201 H 0.49256 0.50600 -0.08291
 H202 H 0.46085 0.54314 0.00809
 H203 H 0.42347 0.58283 -0.02743
 H204 H 0.45564 0.54480 -0.12015
 H205 H 0.51994 0.43840 0.04467
 H206 H 0.48332 0.39966 0.08182
 H207 H 0.38980 0.44512 0.03414
 H208 H 0.42794 0.48266 -0.00207
 C209 C 0.57008 0.42952 -0.06975
 C210 C 0.57720 0.56316 0.06675
 C211 C 0.43386 0.41975 0.06076
 C212 C 0.43670 0.56651 -0.07642
 C213 C 0.16134 -0.16262 -0.16253
 C214 C 0.16662 -0.17096 -0.12307
 C215 C 0.14785 -0.15237 -0.10427
 C216 C 0.12563 -0.12727 -0.12677
 C217 C 0.10222 -0.14815 -0.15294
 C218 C 0.12100 -0.16674 -0.17174
 C219 C 0.17100 -0.12503 -0.16734
 C220 C 0.15223 -0.10644 -0.14854
 C221 C 0.18160 -0.18256 -0.18276
 C222 C 0.19838 -0.19885 -0.19938
 C223 C 0.10548 -0.10722 -0.10653
 C224 C 0.08904 -0.09065 -0.08988
 H225 H 0.18360 -0.18980 -0.11097
 H226 H 0.14875 -0.15530 -0.07605
 H227 H 0.07343 -0.14833 -0.15639
 H228 H 0.10830 -0.18284 -0.19131
 H229 H 0.19084 -0.11397 -0.18405
 H230 H 0.15599 -0.07947 -0.14914
 C231 C 0.16120 0.33697 0.33806
 C232 C 0.16650 0.32853 0.37750
 C233 C 0.14769 0.34700 0.39638
 C234 C 0.12541 0.37212 0.37396
 C235 C 0.10204 0.35127 0.34773
 C236 C 0.12086 0.33279 0.32885
 C237 C 0.17078 0.37459 0.33336
 C238 C 0.15197 0.39306 0.35224
 C239 C 0.18151 0.31714 0.31776
 C240 C 0.19832 0.30093 0.30109
 C241 C 0.10522 0.39205 0.39428
 C242 C 0.08874 0.40854 0.41099
 H243 H 0.18353 0.30969 0.38954
 H244 H 0.14859 0.34399 0.42459
 H245 H 0.07325 0.35105 0.34428
 H246 H 0.10820 0.31674 0.30923
 H247 H 0.19060 0.38574 0.31668
 H248 H 0.15567 0.42004 0.35172
 C249 C 0.66189 -0.16258 0.33821
 C250 C 0.66719 -0.17090 0.37767
 C251 C 0.64847 -0.15227 0.39648
 C252 C 0.62627 -0.12716 0.37397
 C253 C 0.60281 -0.14804 0.34783
 C254 C 0.62154 -0.16666 0.32903
 C255 C 0.67159 -0.12500 0.33336
 C256 C 0.65287 -0.10638 0.35216
 C257 C 0.68210 -0.18257 0.31798
 C258 C 0.69884 -0.19888 0.30135
 C259 C 0.60617 -0.10706 0.39422
 C260 C 0.58976 -0.09045 0.41086
 H261 H 0.68416 -0.18976 0.38978
 H262 H 0.64939 -0.15518 0.42470
 H263 H 0.57402 -0.14818 0.34440
 H264 H 0.60880 -0.18277 0.30948
 H265 H 0.69143 -0.11398 0.31663
 H266 H 0.65666 -0.07940 0.35154
 C267 C 0.66233 0.33846 -0.16267
 C268 C 0.66757 0.32993 -0.12324
 C269 C 0.64870 0.34835 -0.10436
 C270 C 0.62644 0.37349 -0.12675
 C271 C 0.60313 0.35269 -0.15307
 C272 C 0.62200 0.33427 -0.17196
 C273 C 0.67189 0.37609 -0.16727
 C274 C 0.65302 0.39450 -0.14839
 C275 C 0.68269 0.31869 -0.18299
 C276 C 0.69955 0.30253 -0.19967
 C277 C 0.60619 0.39336 -0.10642
 C278 C 0.58966 0.40979 -0.08970
 H279 H 0.68460 0.31109 -0.11122
 H280 H 0.64956 0.34528 -0.07615
 H281 H 0.57434 0.35244 -0.15655
 H282 H 0.60938 0.31825 -0.19163
 H283 H 0.69173 0.38728 -0.18390
 H284 H 0.65670 0.42147 -0.14884
 C285 C -0.16859 0.17459 -0.16711
 C286 C -0.16931 0.17350 -0.12741
 C287 C -0.14758 0.15140 -0.10987
 C288 C -0.12722 0.13252 -0.13372
 C289 C -0.10751 0.15972 -0.15594
 C290 C -0.12928 0.18186 -0.17351
 C291 C -0.17774 0.13848 -0.17671
 C292 C -0.15598 0.11635 -0.15914
 C293 C -0.19218 0.19847 -0.18560
 C294 C -0.21193 0.21822 -0.19994
 C295 C -0.10399 0.10879 -0.11441
 C296 C -0.08529 0.08947 -0.09769
 H297 H -0.18548 0.18877 -0.11421
 H298 H -0.14514 0.14775 -0.08165
 H299 H -0.07900 0.16142 -0.15776
 H300 H -0.11942 0.20253 -0.19038
 H301 H -0.19936 0.13097 -0.19565
 H302 H -0.15896 0.08987 -0.16304
 C303 C -0.16918 0.67340 0.33393
 C304 C -0.16951 0.67265 0.37366
 C305 C -0.14774 0.65058 0.39120
 C306 C -0.12772 0.63139 0.36733
 C307 C -0.10813 0.65834 0.34471
 C308 C -0.12994 0.68044 0.32714
 C309 C -0.17858 0.63721 0.32472
 C310 C -0.15678 0.61511 0.34228
 C311 C -0.19281 0.69723 0.31544
 C312 C -0.21261 0.71692 0.30107
 C313 C -0.10445 0.60769 0.38664
 C314 C -0.08573 0.58839 0.40335
 H315 H -0.18545 0.68811 0.38688
 H316 H -0.14504 0.64716 0.41944
 H317 H -0.07966 0.65990 0.34264
 H318 H -0.12016 0.70094 0.31002
 H319 H -0.20039 0.62962 0.30601
 H320 H -0.15991 0.58859 0.33863
 C321 C 0.33107 0.17390 0.33358
 C322 C 0.33043 0.17285 0.37330
 C323 C 0.35239 0.15095 0.39082
 C324 C 0.37289 0.13221 0.36696
 C325 C 0.39233 0.15953 0.34465
 C326 C 0.37032 0.18147 0.32709
 C327 C 0.32222 0.13773 0.32407
 C328 C 0.34422 0.11580 0.34163
 C329 C 0.30722 0.19756 0.31510
 C330 C 0.28726 0.21711 0.30074
 C331 C 0.39637 0.10869 0.38626
 C332 C 0.41524 0.08952 0.40298
 H333 H 0.31414 0.18799 0.38651
 H334 H 0.35491 0.14734 0.41905
 H335 H 0.42083 0.16146 0.34277
 H336 H 0.37997 0.20219 0.31016
 H337 H 0.30063 0.13003 0.30518
 H338 H 0.34147 0.08931 0.33778
 C339 C 0.33084 0.67386 -0.16673
 C340 C 0.33010 0.67273 -0.12703
 C341 C 0.35199 0.65077 -0.10949
 C342 C 0.37252 0.63205 -0.13334
 C343 C 0.39206 0.65938 -0.15556
 C344 C 0.37013 0.68138 -0.17313
 C345 C 0.32196 0.63771 -0.17633
 C346 C 0.34388 0.61572 -0.15877
 C347 C 0.30707 0.69757 -0.18523
 C348 C 0.28718 0.71717 -0.19960
 C349 C 0.39592 0.60846 -0.11404
 C350 C 0.41474 0.58924 -0.09732
 H351 H 0.31381 0.68787 -0.11383
 H352 H 0.35444 0.64711 -0.08127
 H353 H 0.42057 0.66127 -0.15736
 H354 H 0.37985 0.70211 -0.18999
 H355 H 0.30040 0.63008 -0.19529
 H356 H 0.34111 0.58925 -0.16267
 C357 C -0.17072 -0.16865 0.16945
 C358 C -0.18195 -0.17450 0.13102
 C359 C -0.16035 -0.15742 0.10854
 C360 C -0.12966 -0.13618 0.12672
 C361 C -0.11027 -0.16057 0.15288
 C362 C -0.13188 -0.17766 0.17536
 C363 C -0.16911 -0.13074 0.17156
 C364 C -0.14756 -0.11369 0.14913
 C365 C -0.19413 -0.18656 0.19375
 C366 C -0.21372 -0.20030 0.21397
 C367 C -0.10661 -0.11734 0.10269
 C368 C -0.08805 -0.10090 0.08327
 H369 H -0.20480 -0.19067 0.12224
 H370 H -0.16470 -0.15894 0.08051
 H371 H -0.08210 -0.16414 0.15365
 H372 H -0.12221 -0.19587 0.19539
 H373 H -0.18364 -0.11836 0.18916
 H374 H -0.14363 -0.08670 0.14752
 C375 C -0.17128 0.33043 0.67033
 C376 C -0.18250 0.32471 0.63187
 C377 C -0.16084 0.34179 0.60946
 C378 C -0.13010 0.36291 0.62773
 C379 C -0.11081 0.33841 0.65384
 C380 C -0.13248 0.32132 0.67626
 C381 C -0.16957 0.36833 0.67255
 C382 C -0.14795 0.38539 0.65019
 C383 C -0.19476 0.31252 0.69457
 C384 C -0.21440 0.29877 0.71475
 C385 C -0.10698 0.38175 0.60376
 C386 C -0.08837 0.39819 0.58438
 H387 H -0.20538 0.30861 0.62303
 H388 H -0.16516 0.34034 0.58142
 H389 H -0.08265 0.33476 0.65462
 H390 H -0.12289 0.30303 0.69624
 H391 H -0.18408 0.38071 0.69018
 H392 H -0.14394 0.41237 0.64865
 C393 C 0.32940 -0.16841 0.66929
 C394 C 0.31839 -0.17409 0.63078
 C395 C 0.34017 -0.15696 0.60851
 C396 C 0.37080 -0.13584 0.62694
 C397 C 0.38999 -0.16036 0.65311
 C398 C 0.36820 -0.17750 0.67540
 C399 C 0.33106 -0.13051 0.67156
 C400 C 0.35280 -0.11341 0.64932
 C401 C 0.30580 -0.18636 0.69339
 C402 C 0.28605 -0.20014 0.71344
 C403 C 0.39403 -0.11695 0.60312
 C404 C 0.41271 -0.10047 0.58384
 H405 H 0.29556 -0.19018 0.62181
 H406 H 0.33599 -0.15837 0.58045
 H407 H 0.41816 -0.16398 0.65403
 H408 H 0.37771 -0.19580 0.69540
 H409 H 0.31644 -0.11817 0.68912
 H410 H 0.35678 -0.08643 0.64784
 C411 C 0.32908 0.33144 0.16939
 C412 C 0.31750 0.32620 0.13090
 C413 C 0.33920 0.34325 0.10850
 C414 C 0.37033 0.36385 0.12681
 C415 C 0.38944 0.33889 0.15252
 C416 C 0.36773 0.32183 0.17493
 C417 C 0.33136 0.36931 0.17206
 C418 C 0.35302 0.38633 0.14969
 C419 C 0.30557 0.31356 0.19362
 C420 C 0.28590 0.29981 0.21377
 C421 C 0.39349 0.38265 0.10285
 C422 C 0.41212 0.39907 0.08347
 H423 H 0.29436 0.31044 0.12203
 H424 H 0.33464 0.34210 0.08043
 H425 H 0.41750 0.33492 0.15304
 H426 H 0.37720 0.30325 0.19465
 H427 H 0.31720 0.38169 0.18996
 H428 H 0.35740 0.41328 0.14845
 C429 C 0.16592 0.17216 0.17146
 C430 C 0.12722 0.16295 0.17904
 C431 C 0.10986 0.14067 0.15739
 C432 C 0.13286 0.12975 0.13025
 C433 C 0.16575 0.11650 0.15148
 C434 C 0.18314 0.13881 0.17316
 C435 C 0.16392 0.18454 0.13285
 C436 C 0.14654 0.16224 0.11118
 C437 C 0.18429 0.19621 0.19491
 C438 C 0.19871 0.21607 0.21445
 C439 C 0.11381 0.10581 0.10707
 C440 C 0.09743 0.08627 0.08832
 H441 H 0.11456 0.17304 0.19962
 H442 H 0.08232 0.13168 0.15944
 H443 H 0.17461 0.09180 0.14962
 H444 H 0.20690 0.13322 0.18988
 H445 H 0.17521 0.20868 0.12338
 H446 H 0.14292 0.16726 0.08313
 C447 C 0.16583 0.67192 0.67152
 C448 C 0.12704 0.66304 0.67897
 C449 C 0.10963 0.64064 0.65748
 C450 C 0.13269 0.62927 0.63063
 C451 C 0.16539 0.61600 0.65216
 C452 C 0.18283 0.63843 0.67368
 C453 C 0.16409 0.68395 0.63282
 C454 C 0.14667 0.66152 0.61131
 C455 C 0.18425 0.69610 0.69480
 C456 C 0.19869 0.71607 0.71421
 C457 C 0.11360 0.60521 0.60762
 C458 C 0.09719 0.58558 0.58899
 H459 H 0.11434 0.67344 0.69935
 H460 H 0.08203 0.63185 0.65947
 H461 H 0.17410 0.59119 0.65063
 H462 H 0.20647 0.63285 0.69057
 H463 H 0.17558 0.70794 0.62317
 H464 H 0.14321 0.66629 0.58323
 C465 C 0.66719 0.17326 0.67116
 C466 C 0.62833 0.16452 0.67845
 C467 C 0.61093 0.14212 0.65697
 C468 C 0.63407 0.13061 0.63026
 C469 C 0.66664 0.11727 0.65195
 C470 C 0.68406 0.13971 0.67347
 C471 C 0.66564 0.18520 0.63244
 C472 C 0.64822 0.16277 0.61093
 C473 C 0.68557 0.19745 0.69444
 C474 C 0.69997 0.21744 0.71384
 C475 C 0.61498 0.10654 0.60724
 C476 C 0.59856 0.08691 0.58862
 H477 H 0.61558 0.17502 0.69874
 H478 H 0.58329 0.13342 0.65886
 H479 H 0.67528 0.09242 0.65052
 H480 H 0.70763 0.13408 0.69047
 H481 H 0.67724 0.20914 0.62277
 H482 H 0.64490 0.16749 0.58283
 C483 C 0.66611 0.67221 0.17185
 C484 C 0.67356 0.67933 0.13355
 C485 C 0.65614 0.65701 0.11189
 C486 C 0.63300 0.62979 0.13067
 C487 C 0.60811 0.64866 0.15000
 C488 C 0.62550 0.67095 0.17163
 C489 C 0.67574 0.63619 0.18107
 C490 C 0.65833 0.61388 0.15942
 C491 C 0.68451 0.69627 0.19528
 C492 C 0.69896 0.71613 0.21479
 C493 C 0.61393 0.60585 0.10751
 C494 C 0.59755 0.58631 0.08877
 H495 H 0.69100 0.70003 0.12427
 H496 H 0.65866 0.65860 0.08405
 H497 H 0.57933 0.64486 0.14695
 H498 H 0.61161 0.68622 0.18711
 H499 H 0.69460 0.62885 0.20267
 H500 H 0.66227 0.58743 0.16247
   
