data_POSCAR
  _audit_creation_date              2014-09-24
  _audit_creation_method            'ToBaCCo'
  _symmetry_space_group_name_H-M    'P1'
  _symmetry_Int_Tables_number       1
  _symmetry_cell_setting            triclinic
  loop_
  _symmetry_equiv_pos_as_xyz
 x,y,z
_cell_length_a 56.8757
_cell_length_b 56.8795
_cell_length_c 56.8737
_cell_angle_alpha 90.000000
_cell_angle_beta 90.000000
_cell_angle_gamma 89.999900
loop_
  _atom_site_label
  _atom_site_type_symbol
  _atom_site_fract_x
  _atom_site_fract_y
  _atom_site_fract_z
N1 N 0.33018 0.33020 0.33019
 N2 N 0.33018 0.83017 -0.16985
 N3 N 0.83020 0.33019 -0.16979
 N4 N 0.83020 0.83020 0.33020
 N5 N 0.66982 0.66984 0.33019
 N6 N 0.66982 0.16980 -0.16977
 N7 N 0.16982 0.66977 -0.16984
 N8 N 0.16982 0.16978 0.33018
 N9 N 0.66982 0.33017 0.66986
 N10 N 0.66982 0.83021 1.16982
 N11 N 0.16982 0.33019 1.16983
 N12 N 0.16982 0.83017 0.66981
 N13 N 0.33020 0.66976 0.66981
 N14 N 0.33021 0.16979 1.16984
 N15 N 0.83018 0.66982 1.16983
 N16 N 0.83018 0.16980 0.66984
 N17 N 0.33020 0.33014 0.66982
 N18 N 0.33019 0.83018 0.16979
 N19 N 0.83019 0.33021 0.16985
 N20 N 0.83019 0.83019 0.66984
 N21 N 0.66983 0.66979 0.66982
 N22 N 0.66982 0.16983 0.16985
 N23 N 0.16981 0.66981 0.16980
 N24 N 0.16981 0.16979 0.66981
 N25 N 0.33020 0.66981 0.33017
 N26 N 0.33019 0.16978 0.83020
 N27 N 0.83019 0.66980 0.83019
 N28 N 0.83019 0.16982 0.33020
 N29 N 0.66981 0.33022 0.33022
 N30 N 0.66980 0.83018 0.83018
 N31 N 0.16983 0.33016 0.83020
 N32 N 0.16983 0.83017 0.33018
 O33 O 0.22015 0.97698 0.25237
 O34 O 0.25239 1.02298 0.22013
 O35 O 0.25239 0.97698 0.22013
 O36 O 0.22015 1.02298 0.25237
 O37 O 0.24764 1.02298 0.27987
 O38 O 0.27988 0.97698 0.24762
 O39 O 0.27988 1.02298 0.24763
 O40 O 0.24764 0.97698 0.27986
 Cu41 Cu 0.23349 0.99998 0.23348
 Cu42 Cu 0.26653 0.99998 0.26652
 C43 C 0.22860 0.96901 0.27140
 C44 C 0.27143 1.03095 0.22859
 C45 C 0.27142 0.96901 0.22858
 C46 C 0.22860 1.03095 0.27141
 O47 O 0.25239 0.52295 0.72012
 O48 O 0.22015 0.47696 0.75237
 O49 O 0.22015 0.52296 0.75236
 O50 O 0.25239 0.47695 0.72013
 O51 O 0.27988 0.47696 0.74763
 O52 O 0.24764 0.52296 0.77986
 O53 O 0.24764 0.47696 0.77987
 O54 O 0.27988 0.52296 0.74762
 Cu55 Cu 0.23350 0.49995 0.73347
 Cu56 Cu 0.26654 0.49996 0.76652
 C57 C 0.27143 0.53092 0.72858
 C58 C 0.22861 0.46899 0.77141
 C59 C 0.22860 0.53093 0.77140
 C60 C 0.27143 0.46899 0.72859
 O61 O 0.72014 0.02301 0.24765
 O62 O 0.75239 -0.02299 0.27988
 O63 O 0.75238 0.02301 0.27989
 O64 O 0.72015 -0.02299 0.24764
 O65 O 0.74764 -0.02299 0.22015
 O66 O 0.77988 0.02301 0.25239
 O67 O 0.77988 -0.02299 0.25238
 O68 O 0.74764 0.02301 0.22015
 Cu69 Cu 0.73349 0.00001 0.26654
 Cu70 Cu 0.76653 0.00001 0.23350
 C71 C 0.72860 0.03098 0.22861
 C72 C 0.77143 -0.03096 0.27142
 C73 C 0.77142 0.03098 0.27143
 C74 C 0.72860 -0.03096 0.22860
 O75 O 0.77988 0.52299 0.75238
 O76 O 0.74763 0.47699 0.72015
 O77 O 0.74764 0.52298 0.72014
 O78 O 0.77988 0.47699 0.75239
 O79 O 0.75238 0.47699 0.77989
 O80 O 0.72014 0.52299 0.74764
 O81 O 0.72014 0.47699 0.74765
 O82 O 0.75238 0.52299 0.77988
 Cu83 Cu 0.76653 0.49999 0.73349
 Cu84 Cu 0.73349 0.49999 0.76654
 C85 C 0.77142 0.53096 0.77142
 C86 C 0.72860 0.46902 0.72861
 C87 C 0.72860 0.53095 0.72860
 C88 C 0.77142 0.46902 0.77143
 O89 O 0.24762 0.47700 0.22013
 O90 O 0.27987 0.52300 0.25236
 O91 O 0.27986 0.47700 0.25236
 O92 O 0.24763 0.52300 0.22012
 O93 O 0.22013 0.52301 0.24762
 O94 O 0.25237 0.47701 0.27986
 O95 O 0.25237 0.52301 0.27986
 O96 O 0.22013 0.47701 0.24762
 Cu97 Cu 0.26652 0.50000 0.23347
 Cu98 Cu 0.23348 0.50001 0.26651
 C99 C 0.22859 0.46904 0.22859
 C100 C 0.27141 0.53097 0.27140
 C101 C 0.27141 0.46904 0.27141
 C102 C 0.22859 0.53097 0.22858
 O103 O 0.75237 1.02300 0.72016
 O104 O 0.72013 0.97700 0.75239
 O105 O 0.72013 1.02300 0.75240
 O106 O 0.75237 0.97700 0.72016
 O107 O 0.77987 0.97700 0.74766
 O108 O 0.74763 1.02299 0.77990
 O109 O 0.74762 0.97699 0.77989
 O110 O 0.77987 1.02299 0.74766
 Cu111 Cu 0.73348 1.00000 0.73351
 Cu112 Cu 0.76652 0.99999 0.76655
 C113 C 0.77141 1.03097 0.72862
 C114 C 0.72859 0.96903 0.77143
 C115 C 0.72859 1.03096 0.77144
 C116 C 0.77141 0.96903 0.72862
 O117 O 0.74762 0.52302 0.27989
 O118 O 0.77986 0.47702 0.24766
 O119 O 0.77986 0.52302 0.24766
 O120 O 0.74762 0.47702 0.27990
 O121 O 0.72013 0.47702 0.25240
 O122 O 0.75237 0.52301 0.22016
 O123 O 0.75237 0.47702 0.22016
 O124 O 0.72013 0.52302 0.25240
 Cu125 Cu 0.76652 0.50002 0.26655
 Cu126 Cu 0.73348 0.50002 0.23351
 C127 C 0.72859 0.53099 0.27143
 C128 C 0.77141 0.46905 0.22862
 C129 C 0.77141 0.53098 0.22862
 C130 C 0.72859 0.46905 0.27144
 O131 O 0.24762 -0.02301 0.72012
 O132 O 0.27986 0.02298 0.75236
 O133 O 0.27986 -0.02302 0.75236
 O134 O 0.24762 0.02299 0.72012
 O135 O 0.22013 0.02298 0.74762
 O136 O 0.25237 -0.02302 0.77985
 O137 O 0.25237 0.02298 0.77986
 O138 O 0.22013 -0.02302 0.74762
 Cu139 Cu 0.26651 -0.00001 0.73347
 Cu140 Cu 0.23347 -0.00002 0.76651
 C141 C 0.22858 -0.03098 0.72858
 C142 C 0.27140 0.03095 0.77140
 C143 C 0.27141 -0.03099 0.77139
 C144 C 0.22858 0.03095 0.72858
 O145 O 0.24764 0.27984 0.97702
 O146 O 0.27988 0.24760 1.02302
 O147 O 0.27988 0.24760 0.97702
 O148 O 0.24765 0.27984 1.02302
 O149 O 0.22015 0.25235 1.02302
 O150 O 0.25238 0.22011 0.97702
 O151 O 0.25238 0.22011 1.02302
 O152 O 0.22015 0.25235 0.97702
 Cu153 Cu 0.26654 0.26649 1.00002
 Cu154 Cu 0.23349 0.23346 1.00002
 C155 C 0.22860 0.27138 0.96905
 C156 C 0.27142 0.22857 1.03099
 C157 C 0.27142 0.22856 0.96905
 C158 C 0.22861 0.27139 1.03099
 O159 O 0.24764 0.77984 0.47700
 O160 O 0.27988 0.74760 0.52300
 O161 O 0.27988 0.74760 0.47700
 O162 O 0.24764 0.77984 0.52300
 O163 O 0.22015 0.75235 0.52300
 O164 O 0.25238 0.72011 0.47699
 O165 O 0.25238 0.72011 0.52300
 O166 O 0.22015 0.75235 0.47700
 Cu167 Cu 0.26653 0.76649 0.50000
 Cu168 Cu 0.23349 0.73346 0.49999
 C169 C 0.22861 0.77139 0.46903
 C170 C 0.27142 0.72856 0.53097
 C171 C 0.27142 0.72857 0.46902
 C172 C 0.22860 0.77138 0.53097
 O173 O 0.24762 0.72012 0.02298
 O174 O 0.27986 0.75235 -0.02303
 O175 O 0.27986 0.75236 0.02298
 O176 O 0.24763 0.72011 -0.02302
 O177 O 0.22013 0.74760 -0.02303
 O178 O 0.25236 0.77985 0.02297
 O179 O 0.25236 0.77984 -0.02303
 O180 O 0.22013 0.74761 0.02297
 Cu181 Cu 0.26652 0.73346 -0.00002
 Cu182 Cu 0.23347 0.76650 -0.00003
 C183 C 0.22859 0.72857 0.03095
 C184 C 0.27140 0.77139 -0.03100
 C185 C 0.27140 0.77139 0.03094
 C186 C 0.22859 0.72857 -0.03100
 O187 O 0.27986 0.25236 0.47699
 O188 O 0.24762 0.22012 0.52300
 O189 O 0.24762 0.22012 0.47699
 O190 O 0.27986 0.25235 0.52300
 O191 O 0.25237 0.27984 0.52300
 O192 O 0.22013 0.24761 0.47700
 O193 O 0.22013 0.24761 0.52300
 O194 O 0.25236 0.27985 0.47700
 Cu195 Cu 0.26651 0.23346 0.49999
 Cu196 Cu 0.23347 0.26650 0.50000
 C197 C 0.27140 0.27140 0.46903
 C198 C 0.22859 0.22857 0.53097
 C199 C 0.22858 0.22857 0.46902
 C200 C 0.27141 0.27139 0.53097
 O201 O 0.74763 0.77986 0.97700
 O202 O 0.77987 0.74763 1.02300
 O203 O 0.77987 0.74762 0.97700
 O204 O 0.74763 0.77987 1.02300
 O205 O 0.72014 0.75238 1.02301
 O206 O 0.75237 0.72013 0.97701
 O207 O 0.75237 0.72014 1.02301
 O208 O 0.72013 0.75237 0.97700
 Cu209 Cu 0.76652 0.76652 1.00000
 Cu210 Cu 0.73348 0.73348 1.00001
 C211 C 0.72859 0.77141 0.96903
 C212 C 0.77141 0.72859 1.03098
 C213 C 0.77141 0.72859 0.96903
 C214 C 0.72860 0.77142 1.03097
 O215 O 0.74763 0.27987 0.47703
 O216 O 0.77987 0.24762 0.52303
 O217 O 0.77987 0.24763 0.47703
 O218 O 0.74763 0.27986 0.52303
 O219 O 0.72013 0.25237 0.52303
 O220 O 0.75237 0.22014 0.47702
 O221 O 0.75237 0.22013 0.52302
 O222 O 0.72013 0.25238 0.47702
 Cu223 Cu 0.76652 0.26652 0.50003
 Cu224 Cu 0.73348 0.23348 0.50002
 C225 C 0.72859 0.27141 0.46906
 C226 C 0.77141 0.22859 0.53100
 C227 C 0.77141 0.22859 0.46905
 C228 C 0.72859 0.27141 0.53100
 O229 O 0.77988 0.25239 -0.02297
 O230 O 0.74764 0.22015 0.02304
 O231 O 0.74765 0.22015 -0.02296
 O232 O 0.77988 0.25239 0.02304
 O233 O 0.75238 0.27988 0.02303
 O234 O 0.72015 0.24764 -0.02297
 O235 O 0.72014 0.24764 0.02303
 O236 O 0.75238 0.27988 -0.02297
 Cu237 Cu 0.76653 0.23350 0.00004
 Cu238 Cu 0.73349 0.26653 0.00003
 C239 C 0.77142 0.27142 -0.03094
 C240 C 0.72860 0.22861 0.03101
 C241 C 0.72861 0.22860 -0.03094
 C242 C 0.77142 0.27143 0.03100
 O243 O 0.72014 0.74764 0.47701
 O244 O 0.75238 0.77988 0.52302
 O245 O 0.75238 0.77988 0.47701
 O246 O 0.72015 0.74764 0.52301
 O247 O 0.74764 0.72014 0.52301
 O248 O 0.77988 0.75239 0.47701
 O249 O 0.77988 0.75238 0.52301
 O250 O 0.74764 0.72015 0.47701
 Cu251 Cu 0.73349 0.76653 0.50001
 Cu252 Cu 0.76653 0.73350 0.50001
 C253 C 0.72860 0.72861 0.46904
 C254 C 0.77142 0.77142 0.53099
 C255 C 0.77142 0.77143 0.46904
 C256 C 0.72860 0.72860 0.53098
 O257 O 1.02301 0.27986 0.24764
 O258 O 0.97701 0.24762 0.27988
 O259 O 1.02301 0.24762 0.27988
 O260 O 0.97701 0.27987 0.24765
 O261 O 0.97700 0.25238 0.22015
 O262 O 1.02300 0.22013 0.25237
 O263 O 0.97700 0.22014 0.25238
 O264 O 1.02300 0.25237 0.22014
 Cu265 Cu 1.00001 0.26651 0.26654
 Cu266 Cu 1.00000 0.23348 0.23349
 C267 C 1.03098 0.27141 0.22860
 C268 C 0.96904 0.22859 0.27142
 C269 C 1.03098 0.22858 0.27141
 C270 C 0.96904 0.27142 0.22861
 O271 O 0.52301 0.22010 0.75240
 O272 O 0.47701 0.25233 0.72016
 O273 O 0.52301 0.25234 0.72017
 O274 O 0.47701 0.22010 0.75240
 O275 O 0.47700 0.24759 0.77989
 O276 O 0.52300 0.27984 0.74766
 O277 O 0.47700 0.27983 0.74765
 O278 O 0.52300 0.24760 0.77990
 Cu279 Cu 0.50001 0.23345 0.73351
 Cu280 Cu 0.50000 0.26648 0.76655
 C281 C 0.53098 0.22856 0.77144
 C282 C 0.46904 0.27137 0.72861
 C283 C 0.53098 0.27138 0.72863
 C284 C 0.46903 0.22855 0.77143
 O285 O -0.02299 0.27986 0.75239
 O286 O 0.02300 0.24762 0.72015
 O287 O -0.02300 0.24762 0.72015
 O288 O 0.02301 0.27985 0.75239
 O289 O 0.02301 0.25236 0.77988
 O290 O -0.02300 0.22013 0.74765
 O291 O 0.02300 0.22012 0.74765
 O292 O -0.02299 0.25236 0.77989
 Cu293 Cu 0.00000 0.26651 0.73350
 Cu294 Cu 0.00000 0.23347 0.76654
 C295 C -0.03096 0.27140 0.77143
 C296 C 0.03097 0.22858 0.72861
 C297 C -0.03097 0.22858 0.72861
 C298 C 0.03098 0.27140 0.77142
 O299 O 0.47701 0.22015 0.24766
 O300 O 0.52300 0.25239 0.27990
 O301 O 0.47700 0.25239 0.27990
 O302 O 0.52301 0.22015 0.24767
 O303 O 0.52301 0.24764 0.22016
 O304 O 0.47700 0.27988 0.25239
 O305 O 0.52300 0.27988 0.25240
 O306 O 0.47701 0.24763 0.22016
 Cu307 Cu 0.50000 0.23350 0.26655
 Cu308 Cu 0.50000 0.26653 0.23351
 C309 C 0.46904 0.22860 0.22862
 C310 C 0.53097 0.27143 0.27144
 C311 C 0.46903 0.27142 0.27143
 C312 C 0.53098 0.22860 0.22863
 O313 O 1.02300 0.72011 0.75236
 O314 O 0.97700 0.75237 0.72014
 O315 O 1.02300 0.75236 0.72013
 O316 O 0.97700 0.72012 0.75237
 O317 O 0.97701 0.74761 0.77987
 O318 O 1.02301 0.77985 0.74763
 O319 O 0.97701 0.77985 0.74764
 O320 O 1.02301 0.74760 0.77986
 Cu321 Cu 1.00000 0.73347 0.73348
 Cu322 Cu 1.00001 0.76650 0.76653
 C323 C 1.03098 0.72856 0.77140
 C324 C 0.96903 0.77140 0.72860
 C325 C 1.03098 0.77139 0.72859
 C326 C 0.96903 0.72857 0.77141
 O327 O 0.52301 0.72015 0.25236
 O328 O 0.47701 0.75238 0.22011
 O329 O 0.52301 0.75239 0.22012
 O330 O 0.47701 0.72015 0.25235
 O331 O 0.47700 0.74764 0.27985
 O332 O 0.52300 0.77988 0.24762
 O333 O 0.47700 0.77988 0.24761
 O334 O 0.52300 0.74765 0.27985
 Cu335 Cu 0.50001 0.73350 0.23346
 Cu336 Cu 0.50000 0.76653 0.26650
 C337 C 0.53098 0.72861 0.27140
 C338 C 0.46904 0.77142 0.22857
 C339 C 0.53098 0.77143 0.22858
 C340 C 0.46904 0.72860 0.27139
 O341 O -0.02299 0.77987 0.25237
 O342 O 0.02300 0.74762 0.22013
 O343 O -0.02300 0.74763 0.22014
 O344 O 0.02301 0.77986 0.25237
 O345 O 0.02301 0.75237 0.27987
 O346 O -0.02300 0.72013 0.24763
 O347 O 0.02300 0.72013 0.24763
 O348 O -0.02299 0.75237 0.27987
 Cu349 Cu 0.00000 0.76652 0.23348
 Cu350 Cu 0.00000 0.73348 0.26652
 C351 C -0.03096 0.77141 0.27141
 C352 C 0.03097 0.72859 0.22859
 C353 C -0.03097 0.72859 0.22860
 C354 C 0.03098 0.77141 0.27141
 O355 O 0.52300 0.75235 0.77986
 O356 O 0.47701 0.72011 0.74762
 O357 O 0.52301 0.72011 0.74762
 O358 O 0.47700 0.75235 0.77985
 O359 O 0.47700 0.77984 0.75235
 O360 O 0.52301 0.74760 0.72012
 O361 O 0.47701 0.74759 0.72012
 O362 O 0.52300 0.77984 0.75236
 Cu363 Cu 0.50000 0.73346 0.76651
 Cu364 Cu 0.50000 0.76649 0.73346
 C365 C 0.53097 0.77139 0.77140
 C366 C 0.46904 0.72856 0.72858
 C367 C 0.53098 0.72856 0.72858
 C368 C 0.46903 0.77138 0.77139
 C369 C 0.35280 0.32377 0.32376
 C370 C 0.37213 0.31760 0.31760
 C371 C 0.39415 0.30951 0.30950
 C372 C 0.41237 0.30186 0.30186
 C373 C 0.43297 0.29206 0.29207
 C374 C 0.44986 0.28301 0.28301
 C375 C 0.35280 0.82373 0.82372
 C376 C 0.37213 0.81757 0.81756
 C377 C 0.39415 0.80947 0.80946
 C378 C 0.41237 0.80182 0.80181
 C379 C 0.43297 0.79202 0.79202
 C380 C 0.44985 0.78297 0.78297
 C381 C -0.14717 0.32376 0.82378
 C382 C -0.12785 0.31759 0.81761
 C383 C -0.10583 0.30949 0.80952
 C384 C -0.08761 0.30184 0.80187
 C385 C -0.06702 0.29204 0.79207
 C386 C -0.05014 0.28299 0.78302
 C387 C -0.14717 0.82377 0.32376
 C388 C -0.12784 0.81760 0.31760
 C389 C -0.10583 0.80950 0.30950
 C390 C -0.08761 0.80185 0.30185
 C391 C -0.06702 0.79205 0.29206
 C392 C -0.05013 0.78300 0.28300
 C393 C 0.64719 0.67627 0.32375
 C394 C 0.62787 0.68244 0.31759
 C395 C 0.60585 0.69053 0.30949
 C396 C 0.58763 0.69818 0.30184
 C397 C 0.56704 0.70798 0.29204
 C398 C 0.55015 0.71703 0.28299
 C399 C 0.64720 0.17623 0.82380
 C400 C 0.62787 0.18239 0.81763
 C401 C 0.60585 0.19049 0.80954
 C402 C 0.58763 0.19814 0.80189
 C403 C 0.56703 0.20793 0.79209
 C404 C 0.55015 0.21698 0.78303
 C405 C 1.14719 0.67620 0.82373
 C406 C 1.12786 0.68237 0.81756
 C407 C 1.10585 0.69046 0.80947
 C408 C 1.08763 0.69812 0.80182
 C409 C 1.06704 0.70792 0.79203
 C410 C 1.05015 0.71697 0.78298
 C411 C 1.14719 0.17622 0.32374
 C412 C 1.12786 0.18238 0.31758
 C413 C 1.10585 0.19048 0.30948
 C414 C 1.08763 0.19813 0.30183
 C415 C 1.06704 0.20793 0.29204
 C416 C 1.05015 0.21699 0.28299
 C417 C 0.64719 0.32374 0.67629
 C418 C 0.62786 0.31757 0.68245
 C419 C 0.60585 0.30947 0.69055
 C420 C 0.58763 0.30182 0.69820
 C421 C 0.56704 0.29202 0.70799
 C422 C 0.55015 0.28297 0.71704
 C423 C 0.64720 0.82378 0.17625
 C424 C 0.62787 0.81762 0.18241
 C425 C 0.60585 0.80952 0.19050
 C426 C 0.58763 0.80187 0.19815
 C427 C 0.56704 0.79207 0.20794
 C428 C 0.55015 0.78302 0.21699
 C429 C 1.14720 0.32375 0.17626
 C430 C 1.12787 0.31759 0.18242
 C431 C 1.10585 0.30949 0.19052
 C432 C 1.08763 0.30184 0.19817
 C433 C 1.06704 0.29205 0.20796
 C434 C 1.05015 0.28299 0.21702
 C435 C 1.14719 0.82374 0.67624
 C436 C 1.12786 0.81757 0.68241
 C437 C 1.10585 0.80948 0.69051
 C438 C 1.08763 0.80183 0.69816
 C439 C 1.06703 0.79203 0.70795
 C440 C 1.05015 0.78298 0.71701
 C441 C 0.35283 0.67620 0.67624
 C442 C 0.37215 0.68236 0.68240
 C443 C 0.39417 0.69046 0.69050
 C444 C 0.41239 0.69811 0.69815
 C445 C 0.43298 0.70791 0.70794
 C446 C 0.44987 0.71697 0.71700
 C447 C 0.35283 0.17623 0.17628
 C448 C 0.37216 0.18240 0.18244
 C449 C 0.39417 0.19050 0.19054
 C450 C 0.41239 0.19815 0.19819
 C451 C 0.43298 0.20795 0.20798
 C452 C 0.44987 0.21701 0.21704
 C453 C -0.14719 0.67625 0.17626
 C454 C -0.12786 0.68241 0.18242
 C455 C -0.10585 0.69051 0.19052
 C456 C -0.08763 0.69816 0.19817
 C457 C -0.06703 0.70795 0.20796
 C458 C -0.05014 0.71701 0.21701
 C459 C -0.14719 0.17624 0.67627
 C460 C -0.12786 0.18240 0.68244
 C461 C -0.10585 0.19050 0.69053
 C462 C -0.08763 0.19815 0.69818
 C463 C -0.06703 0.20794 0.70797
 C464 C -0.05015 0.21700 0.71703
 C465 C 0.32374 0.35282 0.32376
 C466 C 0.31758 0.37215 0.31759
 C467 C 0.30949 0.39417 0.30950
 C468 C 0.30184 0.41239 0.30184
 C469 C 0.29205 0.43298 0.29205
 C470 C 0.28299 0.44987 0.28299
 C471 C 0.32375 -0.14721 0.82372
 C472 C 0.31759 -0.12788 0.81756
 C473 C 0.30949 -0.10586 0.80947
 C474 C 0.30184 -0.08764 0.80182
 C475 C 0.29205 -0.06705 0.79203
 C476 C 0.28299 -0.05016 0.78298
 C477 C 0.82377 0.35282 0.82378
 C478 C 0.81760 0.37215 0.81761
 C479 C 0.80951 0.39416 0.80952
 C480 C 0.80186 0.41238 0.80187
 C481 C 0.79206 0.43297 0.79207
 C482 C 0.78300 0.44985 0.78302
 C483 C 0.82377 -0.14717 0.32376
 C484 C 0.81761 -0.12784 0.31760
 C485 C 0.80951 -0.10583 0.30950
 C486 C 0.80186 -0.08761 0.30186
 C487 C 0.79207 -0.06702 0.29206
 C488 C 0.78301 -0.05013 0.28301
 C489 C 0.32377 0.64714 0.67624
 C490 C 0.31761 0.62781 0.68240
 C491 C 0.30951 0.60579 0.69050
 C492 C 0.30186 0.58757 0.69814
 C493 C 0.29207 0.56698 0.70794
 C494 C 0.28301 0.55010 0.71700
 C495 C 0.32378 1.14717 0.17627
 C496 C 0.31761 1.12784 0.18243
 C497 C 0.30952 1.10582 0.19052
 C498 C 0.30187 1.08760 0.19817
 C499 C 0.29207 1.06701 0.20796
 C500 C 0.28301 1.05012 0.21701
 C501 C 0.82375 0.64719 0.17626
 C502 C 0.81758 0.62786 0.18243
 C503 C 0.80949 0.60585 0.19052
 C504 C 0.80184 0.58763 0.19817
 C505 C 0.79204 0.56704 0.20797
 C506 C 0.78299 0.55016 0.21703
 C507 C 0.82375 1.14718 0.67628
 C508 C 0.81759 1.12785 0.68244
 C509 C 0.80949 1.10583 0.69054
 C510 C 0.80185 1.08762 0.69819
 C511 C 0.79205 1.06702 0.70798
 C512 C 0.78300 1.05014 0.71704
 C513 C 0.67625 0.64721 0.32376
 C514 C 0.68241 0.62788 0.31760
 C515 C 0.69051 0.60587 0.30950
 C516 C 0.69815 0.58764 0.30186
 C517 C 0.70795 0.56705 0.29207
 C518 C 0.71700 0.55016 0.28302
 C519 C 0.67625 1.14718 0.82380
 C520 C 0.68242 1.12785 0.81763
 C521 C 0.69051 1.10583 0.80953
 C522 C 0.69816 1.08761 0.80188
 C523 C 0.70795 1.06702 0.79209
 C524 C 0.71701 1.05013 0.78303
 C525 C 0.17625 0.64714 0.82373
 C526 C 0.18242 0.62781 0.81757
 C527 C 0.19051 0.60580 0.80947
 C528 C 0.19817 0.58758 0.80183
 C529 C 0.20796 0.56699 0.79204
 C530 C 0.21702 0.55010 0.78298
 C531 C 0.17625 1.14716 0.32375
 C532 C 0.18242 1.12783 0.31758
 C533 C 0.19052 1.10581 0.30949
 C534 C 0.19817 1.08759 0.30184
 C535 C 0.20796 1.06700 0.29205
 C536 C 0.21702 1.05012 0.28300
 C537 C 0.67625 0.35280 0.67629
 C538 C 0.68241 0.37213 0.68245
 C539 C 0.69051 0.39414 0.69054
 C540 C 0.69816 0.41236 0.69819
 C541 C 0.70796 0.43296 0.70798
 C542 C 0.71701 0.44984 0.71703
 C543 C 0.67626 -0.14716 0.17625
 C544 C 0.68242 -0.12784 0.18241
 C545 C 0.69052 -0.10582 0.19051
 C546 C 0.69817 -0.08760 0.19816
 C547 C 0.70796 -0.06701 0.20796
 C548 C 0.71702 -0.05013 0.21702
 C549 C 0.17625 0.35281 0.17626
 C550 C 0.18241 0.37214 0.18242
 C551 C 0.19051 0.39416 0.19051
 C552 C 0.19815 0.41238 0.19816
 C553 C 0.20795 0.43297 0.20795
 C554 C 0.21700 0.44986 0.21700
 C555 C 0.17625 -0.14720 0.67624
 C556 C 0.18241 -0.12787 0.68240
 C557 C 0.19051 -0.10586 0.69050
 C558 C 0.19815 -0.08763 0.69814
 C559 C 0.20795 -0.06704 0.70794
 C560 C 0.21700 -0.05016 0.71699
 C561 C 0.32374 0.32376 0.35281
 C562 C 0.31757 0.31760 0.37214
 C563 C 0.30948 0.30949 0.39416
 C564 C 0.30183 0.30184 0.41238
 C565 C 0.29204 0.29204 0.43297
 C566 C 0.28298 0.28298 0.44985
 C567 C 0.32375 0.82373 -0.14722
 C568 C 0.31758 0.81757 -0.12789
 C569 C 0.30948 0.80947 -0.10588
 C570 C 0.30183 0.80182 -0.08766
 C571 C 0.29204 0.79203 -0.06706
 C572 C 0.28299 0.78297 -0.05017
 C573 C 0.82377 0.32376 -0.14716
 C574 C 0.81760 0.31760 -0.12783
 C575 C 0.80951 0.30950 -0.10581
 C576 C 0.80186 0.30185 -0.08759
 C577 C 0.79206 0.29206 -0.06700
 C578 C 0.78301 0.28301 -0.05011
 C579 C 0.82377 0.82377 0.35282
 C580 C 0.81760 0.81761 0.37215
 C581 C 0.80951 0.80951 0.39417
 C582 C 0.80186 0.80187 0.41239
 C583 C 0.79206 0.79207 0.43298
 C584 C 0.78301 0.78301 0.44987
 C585 C 0.67625 0.32374 0.64723
 C586 C 0.68241 0.31758 0.62790
 C587 C 0.69051 0.30948 0.60588
 C588 C 0.69816 0.30183 0.58766
 C589 C 0.70795 0.29204 0.56706
 C590 C 0.71701 0.28299 0.55018
 C591 C 0.67626 0.82378 1.14719
 C592 C 0.68242 0.81761 1.12786
 C593 C 0.69052 0.80951 1.10584
 C594 C 0.69817 0.80186 1.08762
 C595 C 0.70796 0.79206 1.06703
 C596 C 0.71701 0.78300 1.05015
 C597 C 0.17626 0.32375 1.14720
 C598 C 0.18242 0.31758 1.12787
 C599 C 0.19052 0.30948 1.10586
 C600 C 0.19817 0.30183 1.08764
 C601 C 0.20797 0.29203 1.06705
 C602 C 0.21702 0.28298 1.05016
 C603 C 0.17625 0.82374 0.64719
 C604 C 0.18242 0.81757 0.62786
 C605 C 0.19052 0.80947 0.60584
 C606 C 0.19817 0.80182 0.58762
 C607 C 0.20796 0.79202 0.56703
 C608 C 0.21702 0.78297 0.55014
 C609 C 0.32377 0.67620 0.64718
 C610 C 0.31760 0.68236 0.62785
 C611 C 0.30950 0.69046 0.60583
 C612 C 0.30185 0.69812 0.58762
 C613 C 0.29206 0.70791 0.56702
 C614 C 0.28301 0.71697 0.55014
 C615 C 0.32377 0.17623 1.14721
 C616 C 0.31761 0.18239 1.12788
 C617 C 0.30951 0.19049 1.10587
 C618 C 0.30186 0.19814 1.08765
 C619 C 0.29206 0.20793 1.06705
 C620 C 0.28301 0.21698 1.05017
 C621 C 0.82375 0.67625 1.14720
 C622 C 0.81758 0.68241 1.12787
 C623 C 0.80949 0.69051 1.10585
 C624 C 0.80184 0.69816 1.08763
 C625 C 0.79205 0.70795 1.06704
 C626 C 0.78299 0.71701 1.05015
 C627 C 0.82375 0.17624 0.64722
 C628 C 0.81758 0.18240 0.62789
 C629 C 0.80949 0.19050 0.60587
 C630 C 0.80184 0.19815 0.58765
 C631 C 0.79204 0.20794 0.56706
 C632 C 0.78299 0.21700 0.55017
 C633 C 0.67625 0.67627 0.35281
 C634 C 0.68242 0.68244 0.37214
 C635 C 0.69052 0.69053 0.39416
 C636 C 0.69817 0.69818 0.41238
 C637 C 0.70796 0.70797 0.43298
 C638 C 0.71702 0.71703 0.44986
 C639 C 0.67626 0.17623 -0.14715
 C640 C 0.68243 0.18240 -0.12782
 C641 C 0.69052 0.19050 -0.10580
 C642 C 0.69817 0.19815 -0.08758
 C643 C 0.70797 0.20795 -0.06699
 C644 C 0.71702 0.21701 -0.05011
 C645 C 0.17625 0.67620 -0.14721
 C646 C 0.18242 0.68237 -0.12788
 C647 C 0.19051 0.69047 -0.10587
 C648 C 0.19816 0.69812 -0.08765
 C649 C 0.20795 0.70792 -0.06706
 C650 C 0.21700 0.71698 -0.05017
 C651 C 0.17625 0.17622 0.35280
 C652 C 0.18241 0.18239 0.37213
 C653 C 0.19051 0.19049 0.39415
 C654 C 0.19815 0.19814 0.41237
 C655 C 0.20795 0.20793 0.43296
 C656 C 0.21700 0.21699 0.44985
 C657 C 0.32377 0.35277 0.67625
 C658 C 0.31761 0.37210 0.68242
 C659 C 0.30951 0.39411 0.69051
 C660 C 0.30186 0.41233 0.69816
 C661 C 0.29207 0.43293 0.70795
 C662 C 0.28301 0.44981 0.71701
 C663 C 0.32375 0.85280 0.17622
 C664 C 0.31759 0.87213 0.18239
 C665 C 0.30950 0.89415 0.19049
 C666 C 0.30185 0.91236 0.19814
 C667 C 0.29206 0.93296 0.20794
 C668 C 0.28301 0.94984 0.21700
 C669 C 0.82376 0.35283 0.17629
 C670 C 0.81759 0.37216 0.18245
 C671 C 0.80950 0.39418 0.19054
 C672 C 0.80185 0.41240 0.19819
 C673 C 0.79205 0.43299 0.20799
 C674 C 0.78299 0.44988 0.21704
 C675 C 0.82376 0.85282 0.67627
 C676 C 0.81759 0.87215 0.68243
 C677 C 0.80950 0.89416 0.69053
 C678 C 0.80185 0.91238 0.69818
 C679 C 0.79205 0.93297 0.70797
 C680 C 0.78299 0.94986 0.71703
 C681 C 0.67626 0.64717 0.67625
 C682 C 0.68242 0.62784 0.68241
 C683 C 0.69052 0.60582 0.69051
 C684 C 0.69817 0.58760 0.69816
 C685 C 0.70796 0.56701 0.70796
 C686 C 0.71701 0.55013 0.71701
 C687 C 0.67626 0.14720 0.17628
 C688 C 0.68242 0.12787 0.18244
 C689 C 0.69051 0.10585 0.19054
 C690 C 0.69816 0.08763 0.19818
 C691 C 0.70796 0.06704 0.20798
 C692 C 0.71701 0.05015 0.21703
 C693 C 0.17624 0.64718 0.17623
 C694 C 0.18241 0.62785 0.18240
 C695 C 0.19050 0.60584 0.19049
 C696 C 0.19815 0.58762 0.19814
 C697 C 0.20795 0.56703 0.20794
 C698 C 0.21700 0.55014 0.21699
 C699 C 0.17624 0.14717 0.67625
 C700 C 0.18240 0.12784 0.68241
 C701 C 0.19050 0.10582 0.69051
 C702 C 0.19815 0.08760 0.69815
 C703 C 0.20794 0.06701 0.70795
 C704 C 0.21700 0.05013 0.71700
 C705 C 0.32377 0.64719 0.32373
 C706 C 0.31760 0.62786 0.31757
 C707 C 0.30950 0.60584 0.30947
 C708 C 0.30185 0.58762 0.30183
 C709 C 0.29206 0.56703 0.29203
 C710 C 0.28300 0.55015 0.28298
 C711 C 0.32375 0.14715 0.82377
 C712 C 0.31759 0.12782 0.81760
 C713 C 0.30949 0.10581 0.80950
 C714 C 0.30184 0.08759 0.80185
 C715 C 0.29204 0.06700 0.79205
 C716 C 0.28299 0.05012 0.78299
 C717 C 0.82376 0.64718 0.82376
 C718 C 0.81759 0.62785 0.81759
 C719 C 0.80950 0.60583 0.80950
 C720 C 0.80185 0.58761 0.80185
 C721 C 0.79206 0.56702 0.79206
 C722 C 0.78300 0.55013 0.78300
 C723 C 0.82376 0.14719 0.32377
 C724 C 0.81760 0.12786 0.31761
 C725 C 0.80950 0.10585 0.30951
 C726 C 0.80185 0.08763 0.30187
 C727 C 0.79206 0.06704 0.29207
 C728 C 0.78301 0.05015 0.28302
 C729 C 0.67624 0.35284 0.32379
 C730 C 0.68241 0.37217 0.31763
 C731 C 0.69050 0.39419 0.30953
 C732 C 0.69815 0.41240 0.30188
 C733 C 0.70795 0.43300 0.29209
 C734 C 0.71700 0.44988 0.28303
 C735 C 0.67624 0.85281 0.82375
 C736 C 0.68240 0.87214 0.81759
 C737 C 0.69050 0.89415 0.80950
 C738 C 0.69815 0.91237 0.80186
 C739 C 0.70794 0.93297 0.79207
 C740 C 0.71700 0.94985 0.78301
 C741 C 0.17626 0.35278 0.82376
 C742 C 0.18243 0.37211 0.81760
 C743 C 0.19052 0.39413 0.80950
 C744 C 0.19817 0.41234 0.80185
 C745 C 0.20797 0.43293 0.79205
 C746 C 0.21702 0.44982 0.78300
 C747 C 0.17626 0.85280 0.32375
 C748 C 0.18242 0.87212 0.31758
 C749 C 0.19052 0.89414 0.30949
 C750 C 0.19817 0.91236 0.30184
 C751 C 0.20796 0.93295 0.29204
 C752 C 0.21702 0.94984 0.28299
 C753 C 0.35282 0.32371 0.67625
 C754 C 0.37215 0.31754 0.68242
 C755 C 0.39417 0.30945 0.69052
 C756 C 0.41239 0.30180 0.69817
 C757 C 0.43298 0.29201 0.70797
 C758 C 0.44986 0.28295 0.71702
 C759 C 0.35281 0.82375 0.17622
 C760 C 0.37214 0.81758 0.18238
 C761 C 0.39416 0.80949 0.19048
 C762 C 0.41238 0.80184 0.19813
 C763 C 0.43297 0.79205 0.20792
 C764 C 0.44986 0.78300 0.21698
 C765 C 0.85282 0.32378 0.17629
 C766 C 0.87215 0.31761 0.18245
 C767 C 0.89416 0.30951 0.19054
 C768 C 0.91238 0.30186 0.19819
 C769 C 0.93298 0.29206 0.20798
 C770 C 0.94986 0.28301 0.21703
 C771 C 0.85282 0.82376 0.67627
 C772 C 0.87215 0.81760 0.68244
 C773 C 0.89416 0.80950 0.69053
 C774 C 0.91238 0.80185 0.69818
 C775 C 0.93297 0.79205 0.70797
 C776 C 0.94986 0.78299 0.71702
 C777 C 0.64718 0.32378 0.32379
 C778 C 0.62786 0.31762 0.31762
 C779 C 0.60584 0.30952 0.30952
 C780 C 0.58762 0.30187 0.30187
 C781 C 0.56703 0.29207 0.29208
 C782 C 0.55014 0.28302 0.28302
 C783 C 0.64718 0.82375 0.82375
 C784 C 0.62785 0.81758 0.81758
 C785 C 0.60583 0.80948 0.80949
 C786 C 0.58762 0.80183 0.80183
 C787 C 0.56703 0.79203 0.79204
 C788 C 0.55014 0.78298 0.78298
 C789 C 0.14720 0.32373 0.82377
 C790 C 0.12787 0.31757 0.81760
 C791 C 0.10585 0.30947 0.80951
 C792 C 0.08763 0.30183 0.80186
 C793 C 0.06704 0.29203 0.79206
 C794 C 0.05015 0.28298 0.78301
 C795 C 0.14720 0.82374 0.32375
 C796 C 0.12787 0.81758 0.31759
 C797 C 0.10585 0.80948 0.30949
 C798 C 0.08763 0.80183 0.30184
 C799 C 0.06704 0.79204 0.29205
 C800 C 0.05015 0.78299 0.28299
 C801 C 0.64720 0.67622 0.67625
 C802 C 0.62787 0.68239 0.68241
 C803 C 0.60585 0.69048 0.69051
 C804 C 0.58763 0.69813 0.69816
 C805 C 0.56704 0.70792 0.70795
 C806 C 0.55015 0.71698 0.71700
 C807 C 0.64720 0.17626 0.17629
 C808 C 0.62787 0.18242 0.18245
 C809 C 0.60585 0.19052 0.19055
 C810 C 0.58763 0.19817 0.19820
 C811 C 0.56704 0.20796 0.20799
 C812 C 0.55015 0.21702 0.21704
 C813 C 0.14718 0.67624 0.17623
 C814 C 0.12785 0.68240 0.18240
 C815 C 0.10584 0.69050 0.19050
 C816 C 0.08762 0.69815 0.19815
 C817 C 0.06703 0.70795 0.20795
 C818 C 0.05014 0.71700 0.21700
 C819 C 0.14718 0.17623 0.67625
 C820 C 0.12785 0.18239 0.68241
 C821 C 0.10584 0.19049 0.69051
 C822 C 0.08762 0.19814 0.69816
 C823 C 0.06703 0.20794 0.70796
 C824 C 0.05014 0.21699 0.71702
 C825 C 0.35282 0.67624 0.32373
 C826 C 0.37215 0.68241 0.31757
 C827 C 0.39417 0.69051 0.30947
 C828 C 0.41239 0.69816 0.30182
 C829 C 0.43298 0.70796 0.29203
 C830 C 0.44986 0.71701 0.28297
 C831 C 0.35281 0.17621 0.82377
 C832 C 0.37214 0.18237 0.81760
 C833 C 0.39416 0.19047 0.80951
 C834 C 0.41238 0.19812 0.80186
 C835 C 0.43297 0.20791 0.79207
 C836 C 0.44986 0.21697 0.78302
 C837 C 0.85281 0.67624 0.82376
 C838 C 0.87214 0.68240 0.81759
 C839 C 0.89416 0.69049 0.80950
 C840 C 0.91238 0.69814 0.80185
 C841 C 0.93297 0.70794 0.79205
 C842 C 0.94986 0.71699 0.78300
 C843 C 0.85282 0.17625 0.32377
 C844 C 0.87215 0.18241 0.31761
 C845 C 0.89416 0.19051 0.30951
 C846 C 0.91238 0.19816 0.30186
 C847 C 0.93297 0.20795 0.29206
 C848 C 0.94986 0.21701 0.28301
 C849 C 0.32376 0.32371 0.64719
 C850 C 0.31760 0.31755 0.62786
 C851 C 0.30950 0.30946 0.60584
 C852 C 0.30185 0.30181 0.58762
 C853 C 0.29205 0.29202 0.56703
 C854 C 0.28299 0.28297 0.55014
 C855 C 0.32375 0.82375 0.14716
 C856 C 0.31759 0.81758 0.12783
 C857 C 0.30949 0.80949 0.10581
 C858 C 0.30184 0.80183 0.08759
 C859 C 0.29204 0.79204 0.06700
 C860 C 0.28299 0.78298 0.05012
 C861 C 0.82376 0.32378 0.14723
 C862 C 0.81759 0.31761 0.12790
 C863 C 0.80950 0.30952 0.10588
 C864 C 0.80185 0.30187 0.08766
 C865 C 0.79205 0.29207 0.06707
 C866 C 0.78300 0.28301 0.05018
 C867 C 0.82376 0.82376 0.64721
 C868 C 0.81759 0.81760 0.62788
 C869 C 0.80950 0.80950 0.60586
 C870 C 0.80185 0.80185 0.58764
 C871 C 0.79206 0.79206 0.56705
 C872 C 0.78300 0.78300 0.55016
 C873 C 0.32377 0.67624 0.35279
 C874 C 0.31760 0.68240 0.37213
 C875 C 0.30951 0.69050 0.39414
 C876 C 0.30186 0.69814 0.41237
 C877 C 0.29206 0.70794 0.43296
 C878 C 0.28301 0.71699 0.44985
 C879 C 0.32375 0.17621 0.85283
 C880 C 0.31759 0.18237 0.87216
 C881 C 0.30949 0.19047 0.89417
 C882 C 0.30185 0.19812 0.91240
 C883 C 0.29205 0.20792 0.93299
 C884 C 0.28300 0.21697 0.94987
 C885 C 0.82375 0.67624 0.85282
 C886 C 0.81759 0.68240 0.87215
 C887 C 0.80949 0.69050 0.89416
 C888 C 0.80184 0.69815 0.91238
 C889 C 0.79204 0.70794 0.93297
 C890 C 0.78299 0.71700 0.94986
 C891 C 0.82376 0.17625 0.35283
 C892 C 0.81759 0.18242 0.37216
 C893 C 0.80950 0.19051 0.39418
 C894 C 0.80185 0.19816 0.41240
 C895 C 0.79205 0.20796 0.43299
 C896 C 0.78299 0.21701 0.44988
 C897 C 0.67624 0.32378 0.35285
 C898 C 0.68241 0.31761 0.37217
 C899 C 0.69051 0.30951 0.39419
 C900 C 0.69816 0.30186 0.41241
 C901 C 0.70795 0.29206 0.43300
 C902 C 0.71701 0.28300 0.44988
 C903 C 0.67624 0.82375 0.85281
 C904 C 0.68240 0.81758 0.87214
 C905 C 0.69050 0.80949 0.89416
 C906 C 0.69815 0.80184 0.91238
 C907 C 0.70795 0.79204 0.93297
 C908 C 0.71700 0.78299 0.94986
 C909 C 0.17626 0.32373 0.85282
 C910 C 0.18243 0.31756 0.87215
 C911 C 0.19052 0.30947 0.89417
 C912 C 0.19817 0.30182 0.91239
 C913 C 0.20797 0.29202 0.93299
 C914 C 0.21702 0.28297 0.94987
 C915 C 0.17626 0.82374 0.35281
 C916 C 0.18243 0.81757 0.37214
 C917 C 0.19052 0.80948 0.39416
 C918 C 0.19817 0.80183 0.41238
 C919 C 0.20797 0.79203 0.43297
 C920 C 0.21702 0.78297 0.44985
 C921 C 0.67626 0.67623 0.64719
 C922 C 0.68243 0.68240 0.62786
 C923 C 0.69052 0.69050 0.60585
 C924 C 0.69817 0.69815 0.58763
 C925 C 0.70797 0.70795 0.56704
 C926 C 0.71702 0.71701 0.55015
 C927 C 0.67626 0.17626 0.14723
 C928 C 0.68242 0.18243 0.12790
 C929 C 0.69052 0.19052 0.10588
 C930 C 0.69817 0.19817 0.08766
 C931 C 0.70796 0.20797 0.06707
 C932 C 0.71702 0.21702 0.05018
 C933 C 0.17624 0.67624 0.14717
 C934 C 0.18240 0.68240 0.12784
 C935 C 0.19050 0.69050 0.10582
 C936 C 0.19815 0.69814 0.08760
 C937 C 0.20795 0.70794 0.06701
 C938 C 0.21700 0.71699 0.05012
 C939 C 0.17624 0.17623 0.64719
 C940 C 0.18240 0.18239 0.62786
 C941 C 0.19050 0.19049 0.60584
 C942 C 0.19815 0.19813 0.58762
 C943 C 0.20795 0.20793 0.56703
 C944 C 0.21700 0.21698 0.55014
   
