data_POSCAR
  _audit_creation_date              2014-09-24
  _audit_creation_method            'ToBaCCo'
  _symmetry_space_group_name_H-M    'P1'
  _symmetry_Int_Tables_number       1
  _symmetry_cell_setting            triclinic
  loop_
  _symmetry_equiv_pos_as_xyz
 x,y,z
_cell_length_a 47.0412
_cell_length_b 46.7395
_cell_length_c 51.9717
_cell_angle_alpha 89.926700
_cell_angle_beta 89.980300
_cell_angle_gamma 90.652500
loop_
  _atom_site_label
  _atom_site_type_symbol
  _atom_site_fract_x
  _atom_site_fract_y
  _atom_site_fract_z
C1 C -0.07519 0.30908 0.00069
 C2 C -0.06093 0.30484 0.02424
 C3 C -0.03101 0.30468 0.02401
 C4 C -0.01532 0.31061 0.00157
 C5 C -0.03035 0.31566 -0.02144
 C6 C -0.06030 0.31378 -0.02256
 C7 C 0.01664 0.31048 0.00212
 C8 C 0.03230 0.30471 -0.02037
 C9 C 0.06211 0.30411 -0.02006
 C10 C 0.07653 0.30773 0.00333
 C11 C 0.06157 0.31266 0.02620
 C12 C 0.03182 0.31505 0.02526
 H13 H -0.09808 0.30838 0.00045
 H14 H -0.01988 0.29828 0.04120
 H15 H -0.01875 0.32204 -0.03847
 H16 H 0.02155 0.29977 -0.03822
 H17 H 0.09948 0.30627 0.00375
 H18 H 0.02077 0.32050 0.04279
 C19 C 0.42088 0.80262 0.49768
 C20 C 0.43536 0.80764 0.52082
 C21 C 0.46491 0.81262 0.52020
 C22 C 0.48053 0.81022 0.49699
 C23 C 0.46530 0.80384 0.47428
 C24 C 0.43561 0.80094 0.47435
 C25 C 0.51251 0.81304 0.49645
 C26 C 0.52731 0.81830 0.47316
 C27 C 0.55718 0.81837 0.47215
 C28 C 0.57254 0.81552 0.49509
 C29 C 0.55851 0.81148 0.51860
 C30 C 0.52873 0.80945 0.51903
 H31 H 0.39795 0.80024 0.49784
 H32 H 0.47543 0.81766 0.53809
 H33 H 0.47623 0.80017 0.45635
 H34 H 0.51598 0.82238 0.45550
 H35 H 0.59556 0.81521 0.49458
 H36 H 0.51859 0.80490 0.53721
 C37 C 1.07188 0.68921 -0.00317
 C38 C 1.05744 0.69406 0.02019
 C39 C 1.02761 0.69614 0.01951
 C40 C 1.01203 0.69145 -0.00321
 C41 C 1.02722 0.68553 -0.02597
 C42 C 1.05721 0.68576 -0.02667
 C43 C 0.98012 0.69382 -0.00334
 C44 C 0.96553 0.70010 -0.02633
 C45 C 0.93587 0.70253 -0.02684
 C46 C 0.92056 0.70049 -0.00379
 C47 C 0.93446 0.69552 0.01962
 C48 C 0.96397 0.69099 0.01955
 H49 H 1.09475 0.68849 -0.00307
 H50 H 1.01667 0.70312 0.03659
 H51 H 1.01570 0.67986 -0.04321
 H52 H 0.97703 0.70398 -0.04401
 H53 H 0.89765 0.70251 -0.00407
 H54 H 0.97416 0.68597 0.03758
 C55 C 0.57542 0.19534 0.50258
 C56 C 0.56075 0.19178 0.52584
 C57 C 0.53106 0.18786 0.52535
 C58 C 0.51557 0.18996 0.50205
 C59 C 0.53105 0.19489 0.47916
 C60 C 0.56080 0.19672 0.47919
 C61 C 0.48353 0.18836 0.50157
 C62 C 0.46850 0.18300 0.47845
 C63 C 0.43866 0.18416 0.47744
 C64 C 0.42344 0.18828 0.50031
 C65 C 0.43767 0.19240 0.52372
 C66 C 0.46749 0.19330 0.52404
 H67 H 0.59842 0.19690 0.50271
 H68 H 0.52035 0.18391 0.54339
 H69 H 0.52030 0.19828 0.46109
 H70 H 0.47963 0.17789 0.46091
 H71 H 0.40044 0.18873 0.49985
 H72 H 0.47779 0.19880 0.54194
 C73 C 0.69183 -0.07402 -0.00240
 C74 C 0.68777 -0.06069 0.02162
 C75 C 0.68500 -0.03055 0.02185
 C76 C 0.68951 -0.01382 -0.00059
 C77 C 0.69534 -0.02817 -0.02375
 C78 C 0.69548 -0.05805 -0.02498
 C79 C 0.68947 0.01842 0.00033
 C80 C 0.68501 0.03503 -0.02212
 C81 C 0.68775 0.06523 -0.02190
 C82 C 0.69170 0.07866 0.00213
 C83 C 0.69536 0.06280 0.02470
 C84 C 0.69522 0.03292 0.02351
 H85 H 0.69118 -0.09710 -0.00397
 H86 H 0.68064 -0.01990 0.03972
 H87 H 0.70057 -0.01642 -0.04105
 H88 H 0.68070 0.02429 -0.04001
 H89 H 0.69099 0.10172 0.00370
 H90 H 0.70042 0.02132 0.04083
 C91 C 0.19204 0.41856 0.50169
 C92 C 0.19350 0.43348 0.52498
 C93 C 0.19151 0.46337 0.52483
 C94 C 0.18628 0.47866 0.50191
 C95 C 0.18408 0.46284 0.47873
 C96 C 0.18818 0.43307 0.47836
 C97 C 0.18447 0.51087 0.50222
 C98 C 0.18886 0.52699 0.47957
 C99 C 0.18777 0.55698 0.47971
 C100 C 0.18401 0.57135 0.50308
 C101 C 0.18045 0.55609 0.52611
 C102 C 0.17948 0.52602 0.52533
 H103 H 0.19376 0.39547 0.50170
 H104 H 0.19500 0.47441 0.54280
 H105 H 0.17992 0.47338 0.46067
 H106 H 0.19408 0.51668 0.46165
 H107 H 0.18434 0.59452 0.50337
 H108 H 0.17482 0.51483 0.54304
 C109 C 0.31273 1.07124 0.00354
 C110 C 0.31757 1.05582 0.02624
 C111 C 0.31985 1.02595 0.02500
 C112 C 0.31513 1.01102 0.00176
 C113 C 0.30925 1.02711 -0.02055
 C114 C 0.30899 1.05732 -0.02028
 C115 C 0.31539 0.97881 0.00086
 C116 C 0.32030 0.96393 -0.02239
 C117 C 0.31838 0.93375 -0.02385
 C118 C 0.31404 0.91849 -0.00072
 C119 C 0.31014 0.93267 0.02271
 C120 C 0.30992 0.96261 0.02320
 H121 H 0.30996 1.09414 0.00493
 H122 H 0.32534 1.01465 0.04242
 H123 H 0.30561 1.01603 -0.03840
 H124 H 0.32661 0.97573 -0.03934
 H125 H 0.31166 0.89545 -0.00078
 H126 H 0.30541 0.97303 0.04125
 C127 C 0.81449 0.57997 0.49640
 C128 C 0.81098 0.56607 0.52010
 C129 C 0.81160 0.53610 0.52109
 C130 C 0.81731 0.51970 0.49897
 C131 C 0.82172 0.53441 0.47545
 C132 C 0.81931 0.56432 0.47386
 C133 C 0.81748 0.48751 0.50035
 C134 C 0.81249 0.47088 0.47815
 C135 C 0.81227 0.44089 0.47918
 C136 C 0.81552 0.42716 0.50295
 C137 C 0.81967 0.44301 0.52555
 C138 C 0.82164 0.47301 0.52394
 H139 H 0.81301 0.60305 0.49546
 H140 H 0.80666 0.52585 0.53921
 H141 H 0.82710 0.52296 0.45812
 H142 H 0.80861 0.48096 0.45981
 H143 H 0.81365 0.40406 0.50392
 H144 H 0.82652 0.48472 0.54132
 O145 O 0.29257 0.24881 0.26801
 O146 O 0.24172 0.27545 0.21983
 O147 O 0.25389 0.28810 0.26757
 O148 O 0.28052 0.23621 0.22016
 O149 O 0.24869 0.20451 0.23346
 O150 O 0.22206 0.25640 0.28090
 O151 O 0.20988 0.24377 0.23316
 O152 O 0.26073 0.21711 0.28132
 Cu153 Cu 0.27036 0.26529 0.24256
 Cu154 Cu 0.23217 0.22728 0.25851
 C155 C 0.28527 0.22859 0.28310
 C156 C 0.21713 0.26405 0.21813
 C157 C 0.23359 0.28107 0.28252
 C158 C 0.26901 0.21154 0.21853
 O159 O 0.70796 0.75003 0.26661
 O160 O 0.75949 0.72417 0.21872
 O161 O 0.74750 0.71147 0.26657
 O162 O 0.72006 0.76264 0.21881
 O163 O 0.75125 0.79499 0.23201
 O164 O 0.77870 0.74381 0.27977
 O165 O 0.79069 0.75651 0.23191
 O166 O 0.73916 0.78237 0.27982
 Cu167 Cu 0.73064 0.73384 0.24140
 Cu168 Cu 0.76806 0.77263 0.25722
 C169 C 0.71477 0.77054 0.28151
 C170 C 0.78381 0.73612 0.21691
 C171 C 0.76768 0.71892 0.28146
 C172 C 0.73115 0.78749 0.21705
 O173 O 0.79495 0.24548 0.23766
 O174 O 0.74086 0.22202 0.28454
 O175 O 0.75537 0.20663 0.23820
 O176 O 0.78085 0.26054 0.28436
 O177 O 0.75066 0.29173 0.26852
 O178 O 0.72535 0.23786 0.22213
 O179 O 0.71078 0.25317 0.26843
 O180 O 0.76487 0.27681 0.22185
 Cu181 Cu 0.77106 0.23056 0.26281
 Cu182 Cu 0.73492 0.26806 0.24362
 C183 C 0.78898 0.26487 0.22144
 C184 C 0.71665 0.23380 0.28467
 C185 C 0.73626 0.21312 0.22203
 C186 C 0.76980 0.28520 0.28466
 O187 O 0.27172 0.75294 0.21761
 O188 O 0.24563 0.70047 0.26504
 O189 O 0.23128 0.71494 0.21826
 O190 O 0.28608 0.73839 0.26425
 O191 O 0.25669 0.77049 0.27980
 O192 O 0.20188 0.74706 0.23378
 O193 O 0.21622 0.73256 0.28058
 O194 O 0.24231 0.78503 0.23316
 Cu195 Cu 0.26161 0.72344 0.23971
 Cu196 Cu 0.22629 0.76199 0.25840
 C197 C 0.26124 0.77786 0.21705
 C198 C 0.22680 0.70769 0.28123
 C199 C 0.20738 0.72730 0.21784
 C200 C 0.28064 0.75821 0.28014
 O201 O 0.75229 0.21227 0.76876
 O202 O 0.77982 0.26395 0.72095
 O203 O 0.79232 0.25112 0.76865
 O204 O 0.73961 0.22523 0.72128
 O205 O 0.70913 0.25725 0.73510
 O206 O 0.76182 0.28318 0.78236
 O207 O 0.74931 0.29598 0.73468
 O208 O 0.72183 0.24431 0.78257
 Cu209 Cu 0.76907 0.23497 0.74353
 Cu210 Cu 0.73250 0.27339 0.76004
 C211 C 0.73248 0.21948 0.78398
 C212 C 0.76911 0.28874 0.71945
 C213 C 0.78599 0.27142 0.78379
 C214 C 0.71538 0.23691 0.71998
 O215 O 0.29055 0.74478 0.73295
 O216 O 0.23820 0.71858 0.78056
 O217 O 0.25043 0.70605 0.73286
 O218 O 0.27837 0.75731 0.78070
 O219 O 0.24781 0.78950 0.76731
 O220 O 0.21990 0.73822 0.71936
 O221 O 0.20764 0.75072 0.76709
 O222 O 0.26001 0.77698 0.71954
 Cu223 Cu 0.26744 0.72848 0.75811
 Cu224 Cu 0.23080 0.76707 0.74200
 C225 C 0.28415 0.76518 0.71792
 C226 C 0.21401 0.73028 0.78210
 C227 C 0.23054 0.71341 0.71777
 C228 C 0.26773 0.78211 0.78235
 O229 O 0.20886 0.24190 0.76883
 O230 O 0.26180 0.21821 0.72163
 O231 O 0.24792 0.20340 0.76855
 O232 O 0.22285 0.25684 0.72208
 O233 O 0.25374 0.28829 0.73745
 O234 O 0.27886 0.23486 0.78383
 O235 O 0.29269 0.24970 0.73692
 O236 O 0.23977 0.27334 0.78419
 Cu237 Cu 0.23227 0.22690 0.74372
 Cu238 Cu 0.26939 0.26469 0.76215
 C239 C 0.21538 0.26141 0.78483
 C240 C 0.28614 0.23023 0.72088
 C241 C 0.26737 0.21015 0.78445
 C242 C 0.23427 0.28159 0.72157
 O243 O 0.79269 0.76324 0.75955
 O244 O 0.73911 0.78682 0.71285
 O245 O 0.75368 0.80176 0.75946
 O246 O 0.77818 0.74823 0.71293
 O247 O 0.74748 0.71681 0.72874
 O248 O 0.72297 0.77031 0.77523
 O249 O 0.70844 0.75536 0.72866
 O250 O 0.76199 0.73178 0.77532
 Cu251 Cu 0.76900 0.77817 0.73459
 Cu252 Cu 0.73213 0.74040 0.75357
 C253 C 0.78636 0.74376 0.77570
 C254 C 0.71472 0.77487 0.71254
 C255 C 0.73442 0.79505 0.77558
 C256 C 0.76676 0.72348 0.71264
 C257 C 0.31296 0.10269 0.09728
 C258 C 0.32885 0.11367 0.07666
 C259 C 0.33145 0.09793 0.05391
 C260 C 0.31809 0.07096 0.05144
 C261 C 0.30305 0.05965 0.07263
 C262 C 0.30046 0.07544 0.09535
 C263 C 0.30778 0.12015 0.11962
 C264 C 0.30260 0.13517 0.13789
 C265 C 0.29555 0.15354 0.15919
 C266 C 0.30900 0.18024 0.16186
 C267 C 0.30080 0.19889 0.18149
 C268 C 0.27894 0.19110 0.19873
 C269 C 0.26591 0.16399 0.19617
 C270 C 0.27415 0.14538 0.17653
 H271 H 0.33861 0.13473 0.07791
 H272 H 0.34342 0.10708 0.03806
 H273 H 0.29220 0.03915 0.07124
 H274 H 0.28798 0.06677 0.11111
 H275 H 0.32550 0.18685 0.14850
 H276 H 0.31126 0.21958 0.18289
 H277 H 0.24901 0.15732 0.20908
 H278 H 0.26349 0.12482 0.17460
 C279 C 0.79880 0.61528 0.58880
 C280 C 0.81680 0.59167 0.58908
 C281 C 0.82056 0.57550 0.56677
 C282 C 0.80636 0.58283 0.54390
 C283 C 0.78815 0.60648 0.54388
 C284 C 0.78441 0.62259 0.56621
 C285 C 0.79524 0.63226 0.61155
 C286 C 0.79195 0.64694 0.63031
 C287 C 0.78748 0.66503 0.65221
 C288 C 0.76776 0.65702 0.67111
 C289 C 0.76168 0.67567 0.69131
 C290 C 0.77522 0.70262 0.69277
 C291 C 0.79562 0.71012 0.67407
 C292 C 0.80166 0.69143 0.65390
 H293 H 0.82807 0.58589 0.60647
 H294 H 0.83494 0.55758 0.56726
 H295 H 0.77665 0.61237 0.52667
 H296 H 0.77036 0.64080 0.56585
 H297 H 0.75662 0.63665 0.66992
 H298 H 0.74586 0.66927 0.70539
 H299 H 0.80640 0.73071 0.67464
 H300 H 0.81692 0.69783 0.63930
 C301 C 0.69147 0.89113 0.09129
 C302 C 0.70414 0.88099 0.06887
 C303 C 0.70239 0.89651 0.04599
 C304 C 0.68780 0.92285 0.04480
 C305 C 0.67467 0.93253 0.06770
 C306 C 0.67653 0.91682 0.09063
 C307 C 0.69488 0.87536 0.11493
 C308 C 0.69894 0.86142 0.13413
 C309 C 0.70504 0.84404 0.15636
 C310 C 0.69176 0.81729 0.15936
 C311 C 0.69968 0.79919 0.17953
 C312 C 0.72111 0.80757 0.19696
 C313 C 0.73381 0.83481 0.19417
 C314 C 0.72585 0.85287 0.17398
 H315 H 0.71603 0.86126 0.06919
 H316 H 0.71404 0.88830 0.02971
 H317 H 0.66223 0.95181 0.06809
 H318 H 0.66643 0.92481 0.10788
 H319 H 0.67577 0.81013 0.14575
 H320 H 0.68948 0.77837 0.18110
 H321 H 0.75036 0.84194 0.20722
 H322 H 0.73642 0.87345 0.17177
 C323 C 0.20373 0.38734 0.59575
 C324 C 0.21968 0.37988 0.57409
 C325 C 0.21657 0.39503 0.55111
 C326 C 0.19743 0.41785 0.54953
 C327 C 0.18167 0.42536 0.57148
 C328 C 0.18480 0.41016 0.59445
 C329 C 0.20662 0.37121 0.61911
 C330 C 0.20946 0.35709 0.63830
 C331 C 0.21355 0.33950 0.66063
 C332 C 0.19914 0.31325 0.66274
 C333 C 0.20511 0.29479 0.68314
 C334 C 0.22567 0.30237 0.70165
 C335 C 0.23935 0.32923 0.69982
 C336 C 0.23334 0.34764 0.67939
 H337 H 0.23445 0.36228 0.57495
 H338 H 0.22926 0.38902 0.53463
 H339 H 0.16656 0.44265 0.57072
 H340 H 0.17231 0.41604 0.61111
 H341 H 0.18384 0.30673 0.64824
 H342 H 0.19422 0.27428 0.68399
 H343 H 0.25529 0.33568 0.71374
 H344 H 0.24467 0.36789 0.67786
 C345 C 0.89336 0.29357 0.09417
 C346 C 0.88112 0.28514 0.07087
 C347 C 0.89610 0.28857 0.04786
 C348 C 0.92385 0.30058 0.04763
 C349 C 0.93592 0.30870 0.07154
 C350 C 0.92078 0.30525 0.09448
 C351 C 0.87756 0.29038 0.11767
 C352 C 0.86374 0.28754 0.13703
 C353 C 0.84643 0.28375 0.15958
 C354 C 0.85373 0.26346 0.17818
 C355 C 0.83553 0.25802 0.19892
 C356 C 0.80974 0.27278 0.20122
 C357 C 0.80307 0.29380 0.18284
 C358 C 0.82131 0.29920 0.16215
 H359 H 0.85994 0.27576 0.07049
 H360 H 0.88606 0.28067 0.03052
 H361 H 0.95660 0.31898 0.07267
 H362 H 0.93038 0.31204 0.11245
 H363 H 0.87312 0.25134 0.17630
 H364 H 0.84125 0.24169 0.21272
 H365 H 0.78340 0.30553 0.18405
 H366 H 0.81545 0.31491 0.14780
 C367 C 0.38935 0.80156 0.59232
 C368 C 0.38416 0.78202 0.57249
 C369 C 0.39913 0.78415 0.54938
 C370 C 0.41959 0.80597 0.54561
 C371 C 0.42487 0.82550 0.56570
 C372 C 0.40977 0.82332 0.58892
 C373 C 0.37348 0.79886 0.61596
 C374 C 0.35941 0.79534 0.63516
 C375 C 0.34181 0.78981 0.65738
 C376 C 0.34951 0.76872 0.67512
 C377 C 0.33111 0.76125 0.69527
 C378 C 0.30466 0.77474 0.69789
 C379 C 0.29746 0.79646 0.68036
 C380 C 0.31589 0.80388 0.66023
 H381 H 0.36853 0.76501 0.57491
 H382 H 0.39494 0.76844 0.53451
 H383 H 0.44035 0.84262 0.56334
 H384 H 0.41396 0.83860 0.60415
 H385 H 0.36942 0.75753 0.67303
 H386 H 0.33733 0.74445 0.70841
 H387 H 0.27728 0.80726 0.68181
 H388 H 0.30960 0.82011 0.64652
 C389 C 0.10254 0.70175 0.09074
 C390 C 0.11563 0.70970 0.06767
 C391 C 0.10085 0.70746 0.04446
 C392 C 0.07246 0.69714 0.04380
 C393 C 0.05954 0.68950 0.06749
 C394 C 0.07448 0.69175 0.09065
 C395 C 0.11812 0.70388 0.11444
 C396 C 0.13187 0.70601 0.13389
 C397 C 0.14918 0.70916 0.15648
 C398 C 0.14223 0.72942 0.17518
 C399 C 0.16065 0.73455 0.19580
 C400 C 0.18630 0.71951 0.19787
 C401 C 0.19257 0.69847 0.17946
 C402 C 0.17412 0.69338 0.15887
 H403 H 0.13730 0.71782 0.06761
 H404 H 0.11161 0.71498 0.02732
 H405 H 0.03826 0.68051 0.06828
 H406 H 0.06420 0.68538 0.10845
 H407 H 0.12300 0.74181 0.17343
 H408 H 0.15522 0.75090 0.20964
 H409 H 0.21214 0.68654 0.18049
 H410 H 0.17972 0.67771 0.14444
 C411 C 0.60740 0.19903 0.59686
 C412 C 0.58626 0.17783 0.59431
 C413 C 0.57087 0.17533 0.57128
 C414 C 0.57659 0.19395 0.55055
 C415 C 0.59771 0.21526 0.55350
 C416 C 0.61297 0.21773 0.57642
 C417 C 0.62371 0.20200 0.62020
 C418 C 0.63823 0.20577 0.63906
 C419 C 0.65641 0.21160 0.66081
 C420 C 0.68257 0.19784 0.66309
 C421 C 0.70149 0.20554 0.68274
 C422 C 0.69453 0.22724 0.70034
 C423 C 0.66788 0.24044 0.69826
 C424 C 0.64900 0.23270 0.67860
 H425 H 0.58176 0.16323 0.61002
 H426 H 0.55484 0.15864 0.56954
 H427 H 0.60225 0.23030 0.53813
 H428 H 0.62914 0.23430 0.57819
 H429 H 0.68863 0.18162 0.64932
 H430 H 0.72181 0.19494 0.68378
 H431 H 0.66184 0.25721 0.71148
 H432 H 0.62891 0.24365 0.67693
 C433 C 0.69167 0.11372 0.90857
 C434 C 0.67681 0.08764 0.90909
 C435 C 0.67490 0.07179 0.93197
 C436 C 0.68790 0.08172 0.95494
 C437 C 0.70246 0.10841 0.95386
 C438 C 0.70425 0.12407 0.93105
 C439 C 0.69515 0.12973 0.88503
 C440 C 0.69933 0.14396 0.86598
 C441 C 0.70563 0.16177 0.84398
 C442 C 0.72617 0.15333 0.82613
 C443 C 0.73440 0.17180 0.80620
 C444 C 0.72224 0.19907 0.80390
 C445 C 0.70109 0.20707 0.82157
 C446 C 0.69290 0.18855 0.84149
 H447 H 0.66680 0.07947 0.89179
 H448 H 0.66252 0.05218 0.93149
 H449 H 0.71405 0.11686 0.97018
 H450 H 0.71611 0.14410 0.93083
 H451 H 0.73633 0.13274 0.82796
 H452 H 0.75073 0.16496 0.79294
 H453 H 0.69130 0.22789 0.82037
 H454 H 0.67713 0.19541 0.85529
 C455 C 0.19647 0.60433 0.40927
 C456 C 0.17963 0.57949 0.41003
 C457 C 0.17692 0.56402 0.43294
 C458 C 0.19104 0.57325 0.45536
 C459 C 0.20801 0.59819 0.45436
 C460 C 0.21069 0.61361 0.43144
 C461 C 0.19925 0.62038 0.38581
 C462 C 0.20201 0.63424 0.36641
 C463 C 0.20604 0.65137 0.34371
 C464 C 0.22492 0.64256 0.32457
 C465 C 0.23088 0.66045 0.30365
 C466 C 0.21806 0.68742 0.30169
 C467 C 0.19838 0.69565 0.32061
 C468 C 0.19246 0.67772 0.34151
 H469 H 0.16851 0.57216 0.39298
 H470 H 0.16347 0.54506 0.43324
 H471 H 0.21943 0.60558 0.47122
 H472 H 0.22388 0.63277 0.43099
 H473 H 0.23559 0.62222 0.32616
 H474 H 0.24614 0.65350 0.28942
 H475 H 0.18818 0.71628 0.31968
 H476 H 0.17787 0.68475 0.35628
 C477 C 0.31422 0.88833 0.90530
 C478 C 0.32447 0.87491 0.92739
 C479 C 0.32704 0.89008 0.95045
 C480 C 0.31917 0.91918 0.95207
 C481 C 0.31023 0.93274 0.92910
 C482 C 0.30763 0.91739 0.90609
 C483 C 0.30867 0.87172 0.88244
 C484 C 0.30318 0.85722 0.86384
 C485 C 0.29577 0.83928 0.84224
 C486 C 0.30842 0.81251 0.83938
 C487 C 0.29975 0.79415 0.81956
 C488 C 0.27820 0.80229 0.80233
 C489 C 0.26602 0.82950 0.80505
 C490 C 0.27473 0.84782 0.82489
 H491 H 0.32998 0.85246 0.92696
 H492 H 0.33551 0.87878 0.96686
 H493 H 0.30323 0.95470 0.92900
 H494 H 0.29951 0.92800 0.88911
 H495 H 0.32462 0.80559 0.85275
 H496 H 0.30957 0.77338 0.81803
 H497 H 0.24940 0.83644 0.79215
 H498 H 0.26468 0.86843 0.82698
 C499 C 0.80218 0.39198 0.40988
 C500 C 0.82231 0.38397 0.42825
 C501 C 0.82545 0.39979 0.45087
 C502 C 0.80846 0.42385 0.45537
 C503 C 0.78822 0.43169 0.43680
 C504 C 0.78511 0.41582 0.41420
 C505 C 0.79859 0.37531 0.38689
 C506 C 0.79529 0.36094 0.36790
 C507 C 0.79082 0.34319 0.34571
 C508 C 0.80498 0.31714 0.34363
 C509 C 0.79888 0.29866 0.32322
 C510 C 0.77846 0.30602 0.30465
 C511 C 0.76499 0.33267 0.30647
 C512 C 0.77112 0.35111 0.32692
 H513 H 0.83557 0.36550 0.42510
 H514 H 0.84141 0.39347 0.46470
 H515 H 0.77458 0.44987 0.43990
 H516 H 0.76931 0.42204 0.40016
 H517 H 0.82022 0.31080 0.35813
 H518 H 0.80961 0.27831 0.32237
 H519 H 0.74915 0.33895 0.29251
 H520 H 0.76001 0.37122 0.32841
 C521 C 0.10937 0.29193 0.91023
 C522 C 0.11720 0.27747 0.93269
 C523 C 0.10170 0.28118 0.95533
 C524 C 0.07814 0.29943 0.95578
 C525 C 0.07027 0.31366 0.93304
 C526 C 0.08583 0.30993 0.91040
 C527 C 0.12584 0.28853 0.88719
 C528 C 0.14014 0.28541 0.86820
 C529 C 0.15785 0.28120 0.84605
 C530 C 0.18376 0.29599 0.84394
 C531 C 0.20214 0.29024 0.82351
 C532 C 0.19480 0.26953 0.80497
 C533 C 0.16831 0.25538 0.80686
 C534 C 0.14998 0.26117 0.82731
 H535 H 0.13537 0.26342 0.93271
 H536 H 0.10801 0.26964 0.97245
 H537 H 0.05241 0.32807 0.93290
 H538 H 0.07965 0.32127 0.89312
 H539 H 0.19006 0.31149 0.85840
 H540 H 0.22237 0.30149 0.82262
 H541 H 0.16205 0.23930 0.79292
 H542 H 0.12998 0.24956 0.82883
 C543 C 0.60477 0.81426 0.40161
 C544 C 0.61445 0.83164 0.42178
 C545 C 0.59839 0.83408 0.44434
 C546 C 0.57244 0.81907 0.44705
 C547 C 0.56240 0.80252 0.42627
 C548 C 0.57849 0.80012 0.40375
 C549 C 0.62266 0.80925 0.37957
 C550 C 0.63795 0.80411 0.36154
 C551 C 0.65652 0.79699 0.34047
 C552 C 0.68305 0.81059 0.33799
 C553 C 0.70182 0.80237 0.31852
 C554 C 0.69433 0.78034 0.30128
 C555 C 0.66741 0.76713 0.30368
 C556 C 0.64868 0.77540 0.32315
 H557 H 0.63476 0.84268 0.42037
 H558 H 0.60656 0.84723 0.45986
 H559 H 0.54274 0.79037 0.42785
 H560 H 0.57084 0.78648 0.38833
 H561 H 0.68941 0.82725 0.35135
 H562 H 0.72236 0.81297 0.31724
 H563 H 0.66095 0.75011 0.29075
 H564 H 0.62826 0.76462 0.32494
 C565 C 0.89128 0.71473 0.90202
 C566 C 0.91391 0.69563 0.90324
 C567 C 0.92866 0.69194 0.92632
 C568 C 0.92086 0.70728 0.94846
 C569 C 0.89828 0.72666 0.94694
 C570 C 0.88359 0.73034 0.92385
 C571 C 0.87539 0.71789 0.87861
 C572 C 0.86144 0.72075 0.85938
 C573 C 0.84397 0.72460 0.83702
 C574 C 0.81835 0.70934 0.83475
 C575 C 0.80001 0.71484 0.81425
 C576 C 0.80708 0.73578 0.79578
 C577 C 0.83332 0.75036 0.79778
 C578 C 0.85162 0.74482 0.81833
 H579 H 0.91995 0.68338 0.88646
 H580 H 0.94576 0.67664 0.92701
 H581 H 0.89205 0.73904 0.96357
 H582 H 0.86611 0.74521 0.92306
 H583 H 0.81221 0.69369 0.84918
 H584 H 0.77998 0.70325 0.81327
 H585 H 0.83937 0.76662 0.78390
 H586 H 0.87139 0.75680 0.81997
 C587 C 0.39180 0.18707 0.40640
 C588 C 0.38131 0.17094 0.42713
 C589 C 0.39702 0.16895 0.44992
 C590 C 0.42344 0.18317 0.45233
 C591 C 0.43420 0.19852 0.43106
 C592 C 0.41847 0.20048 0.40831
 C593 C 0.37446 0.19153 0.38390
 C594 C 0.35970 0.19622 0.36539
 C595 C 0.34182 0.20285 0.34370
 C596 C 0.31524 0.18944 0.34095
 C597 C 0.29708 0.19732 0.32090
 C598 C 0.30524 0.21884 0.30331
 C599 C 0.33225 0.23179 0.30593
 C600 C 0.35036 0.22386 0.32600
 H601 H 0.36069 0.16048 0.42590
 H602 H 0.38828 0.15670 0.46582
 H603 H 0.45424 0.21006 0.43238
 H604 H 0.42674 0.21316 0.39247
 H605 H 0.30834 0.17323 0.35459
 H606 H 0.27645 0.18694 0.31946
 H607 H 0.33920 0.24843 0.29276
 H608 H 0.37084 0.23448 0.32797
 C609 C 0.70580 0.89857 0.90294
 C610 C 0.72024 0.88904 0.92480
 C611 C 0.71716 0.90331 0.94820
 C612 C 0.69954 0.92732 0.95001
 C613 C 0.68534 0.93695 0.92785
 C614 C 0.68845 0.92262 0.90445
 C615 C 0.70847 0.88321 0.87918
 C616 C 0.71104 0.86959 0.85969
 C617 C 0.71471 0.85241 0.83708
 C618 C 0.69983 0.82648 0.83470
 C619 C 0.70545 0.80824 0.81410
 C620 C 0.72613 0.81574 0.79564
 C621 C 0.74026 0.84234 0.79771
 C622 C 0.73461 0.86053 0.81836
 H623 H 0.73377 0.87046 0.92379
 H624 H 0.72863 0.89565 0.96486
 H625 H 0.67141 0.95521 0.92876
 H626 H 0.67712 0.93010 0.88764
 H627 H 0.68446 0.81997 0.84916
 H628 H 0.69421 0.78793 0.81306
 H629 H 0.75631 0.84871 0.78383
 H630 H 0.74631 0.88053 0.82010
 C631 C 0.19536 0.38648 0.40722
 C632 C 0.21391 0.38118 0.42765
 C633 C 0.21141 0.39634 0.45064
 C634 C 0.19022 0.41708 0.45368
 C635 C 0.17168 0.42245 0.43301
 C636 C 0.17423 0.40717 0.40991
 C637 C 0.19847 0.37046 0.38371
 C638 C 0.20230 0.35629 0.36464
 C639 C 0.20818 0.33860 0.34260
 C640 C 0.19447 0.31204 0.33981
 C641 C 0.20217 0.29362 0.31984
 C642 C 0.22381 0.30147 0.30241
 C643 C 0.23695 0.32853 0.30498
 C644 C 0.22920 0.34692 0.32496
 H645 H 0.23043 0.36535 0.42578
 H646 H 0.22638 0.39207 0.46596
 H647 H 0.15506 0.43816 0.43481
 H648 H 0.15973 0.41146 0.39422
 H649 H 0.17830 0.30527 0.35344
 H650 H 0.19163 0.27296 0.31843
 H651 H 0.25367 0.33526 0.29191
 H652 H 0.24010 0.36733 0.32700
 C653 C 0.29869 0.10495 0.91068
 C654 C 0.28690 0.07750 0.91275
 C655 C 0.29001 0.06182 0.93545
 C656 C 0.30505 0.07333 0.95673
 C657 C 0.31660 0.10130 0.95420
 C658 C 0.31345 0.11683 0.93144
 C659 C 0.29520 0.12123 0.88747
 C660 C 0.29204 0.13533 0.86831
 C661 C 0.28778 0.15281 0.84592
 C662 C 0.26782 0.14462 0.82732
 C663 C 0.26190 0.16283 0.80671
 C664 C 0.27585 0.18952 0.80454
 C665 C 0.29654 0.19714 0.82292
 C666 C 0.30242 0.17889 0.84349
 H667 H 0.27505 0.06828 0.89686
 H668 H 0.27950 0.04116 0.93639
 H669 H 0.32923 0.11100 0.96931
 H670 H 0.32275 0.13809 0.92998
 H671 H 0.25634 0.12448 0.82908
 H672 H 0.24584 0.15636 0.79291
 H673 H 0.30763 0.21753 0.82181
 H674 H 0.31788 0.18544 0.85784
 C675 C 0.81417 0.61064 0.40251
 C676 C 0.80176 0.58339 0.40472
 C677 C 0.80458 0.56773 0.42753
 C678 C 0.81977 0.57921 0.44852
 C679 C 0.83310 0.60616 0.44574
 C680 C 0.83026 0.62176 0.42291
 C681 C 0.80862 0.62803 0.38017
 C682 C 0.80310 0.64300 0.36193
 C683 C 0.79560 0.66130 0.34069
 C684 C 0.77435 0.65274 0.32338
 C685 C 0.76564 0.67125 0.30380
 C686 C 0.77804 0.69867 0.30127
 C687 C 0.79975 0.70687 0.31848
 C688 C 0.80842 0.68832 0.33805
 H689 H 0.78912 0.57461 0.38913
 H690 H 0.79376 0.54723 0.42917
 H691 H 0.84520 0.61543 0.46143
 H692 H 0.83997 0.64284 0.42144
 H693 H 0.76417 0.63193 0.32529
 H694 H 0.74889 0.66425 0.29091
 H695 H 0.80974 0.72781 0.31709
 H696 H 0.82479 0.69525 0.35139
 C697 C 0.10435 0.68739 0.90342
 C698 C 0.11632 0.67580 0.92564
 C699 C 0.10052 0.67401 0.94838
 C700 C 0.07225 0.68405 0.94955
 C701 C 0.06007 0.69431 0.92642
 C702 C 0.07604 0.69610 0.90373
 C703 C 0.12175 0.69220 0.88094
 C704 C 0.13681 0.69714 0.86262
 C705 C 0.15531 0.70399 0.84130
 C706 C 0.18150 0.69035 0.83879
 C707 C 0.20037 0.69847 0.81920
 C708 C 0.19332 0.72044 0.80187
 C709 C 0.16670 0.73364 0.80425
 C710 C 0.14787 0.72548 0.82384
 H711 H 0.13815 0.66863 0.92555
 H712 H 0.11066 0.66437 0.96487
 H713 H 0.03886 0.70297 0.92598
 H714 H 0.06656 0.70527 0.88665
 H715 H 0.18757 0.67379 0.85226
 H716 H 0.22068 0.68788 0.81793
 H717 H 0.16059 0.75061 0.79124
 H718 H 0.12772 0.73629 0.82566
 C719 C 0.60799 0.20582 0.40894
 C720 C 0.61546 0.22218 0.43048
 C721 C 0.59991 0.21951 0.45325
 C722 C 0.57667 0.20039 0.45475
 C723 C 0.56908 0.18429 0.43289
 C724 C 0.58470 0.18698 0.41012
 C725 C 0.62464 0.20818 0.38587
 C726 C 0.63923 0.21063 0.36695
 C727 C 0.65737 0.21432 0.34495
 C728 C 0.65015 0.23383 0.32567
 C729 C 0.66906 0.23947 0.30552
 C730 C 0.69548 0.22570 0.30448
 C731 C 0.70215 0.20545 0.32354
 C732 C 0.68320 0.19985 0.34367
 H733 H 0.63341 0.23689 0.42971
 H734 H 0.60598 0.23246 0.46966
 H735 H 0.55145 0.16920 0.43360
 H736 H 0.57880 0.17420 0.39354
 H737 H 0.63024 0.24521 0.32657
 H738 H 0.66329 0.25517 0.29115
 H739 H 0.72232 0.19451 0.32329
 H740 H 0.68901 0.18479 0.35858
 C741 C 0.89387 0.31206 0.90682
 C742 C 0.92254 0.30457 0.90736
 C743 C 0.93800 0.30632 0.93033
 C744 C 0.92497 0.31530 0.95349
 C745 C 0.89627 0.32404 0.95215
 C746 C 0.88098 0.32232 0.92913
 C747 C 0.87710 0.30750 0.88393
 C748 C 0.86244 0.30288 0.86529
 C749 C 0.84427 0.29653 0.84364
 C750 C 0.85173 0.27516 0.82611
 C751 C 0.83308 0.26743 0.80625
 C752 C 0.80663 0.28095 0.80369
 C753 C 0.79961 0.30283 0.82108
 C754 C 0.81829 0.31052 0.84091
 H755 H 0.93274 0.29645 0.89021
 H756 H 0.95962 0.29868 0.93002
 H757 H 0.88541 0.33268 0.96869
 H758 H 0.85886 0.32853 0.92889
 H759 H 0.87171 0.26408 0.82809
 H760 H 0.83915 0.25050 0.79323
 H761 H 0.77944 0.31367 0.81968
 H762 H 0.81221 0.32699 0.85443
 C763 C 0.38912 0.78825 0.40418
 C764 C 0.38198 0.77235 0.42612
 C765 C 0.39730 0.77618 0.44889
 C766 C 0.41998 0.79601 0.44996
 C767 C 0.42723 0.81163 0.42770
 C768 C 0.41185 0.80778 0.40495
 C769 C 0.37258 0.78492 0.38114
 C770 C 0.35808 0.78190 0.36223
 C771 C 0.33999 0.77783 0.34026
 C772 C 0.34669 0.75732 0.32172
 C773 C 0.32780 0.75159 0.30158
 C774 C 0.30192 0.76628 0.29983
 C775 C 0.29580 0.78747 0.31815
 C776 C 0.31472 0.79316 0.33825
 H777 H 0.36443 0.75714 0.42569
 H778 H 0.39148 0.76359 0.46563
 H779 H 0.44440 0.82726 0.42806
 H780 H 0.41747 0.82025 0.38807
 H781 H 0.36617 0.74527 0.32317
 H782 H 0.33313 0.73513 0.28780
 H783 H 0.27607 0.79915 0.31735
 H784 H 0.30932 0.80903 0.35257
 C785 C 0.29802 0.88435 0.09221
 C786 C 0.31904 0.87652 0.07461
 C787 C 0.32293 0.89224 0.05200
 C788 C 0.30581 0.91602 0.04672
 C789 C 0.28476 0.92376 0.06455
 C790 C 0.28089 0.90798 0.08716
 C791 C 0.29353 0.86761 0.11507
 C792 C 0.28949 0.85314 0.13392
 C793 C 0.28416 0.83530 0.15595
 C794 C 0.29735 0.80872 0.15796
 C795 C 0.29055 0.79033 0.17832
 C796 C 0.27039 0.79833 0.19690
 C797 C 0.25784 0.82544 0.19509
 C798 C 0.26467 0.84378 0.17470
 H799 H 0.33236 0.85821 0.07834
 H800 H 0.33949 0.88600 0.03873
 H801 H 0.27102 0.94173 0.06083
 H802 H 0.26443 0.91407 0.10060
 H803 H 0.31242 0.80194 0.14349
 H804 H 0.30058 0.76961 0.17915
 H805 H 0.24223 0.83222 0.20907
 H806 H 0.25430 0.86431 0.17326
 C807 C 0.81432 0.39689 0.59711
 C808 C 0.83054 0.38610 0.57680
 C809 C 0.83336 0.40162 0.55388
 C810 C 0.81989 0.42817 0.55092
 C811 C 0.80449 0.43931 0.57179
 C812 C 0.80169 0.42374 0.59469
 C813 C 0.80897 0.37958 0.61963
 C814 C 0.80365 0.36467 0.63805
 C815 C 0.79642 0.34643 0.65953
 C816 C 0.80907 0.31961 0.66210
 C817 C 0.80064 0.30107 0.68192
 C818 C 0.77934 0.30907 0.69945
 C819 C 0.76713 0.33630 0.69699
 C820 C 0.77561 0.35481 0.67716
 H821 H 0.84041 0.36534 0.57843
 H822 H 0.84561 0.39262 0.53829
 H823 H 0.79354 0.45947 0.57003
 H824 H 0.78895 0.43225 0.61021
 H825 H 0.82511 0.31282 0.64852
 H826 H 0.81046 0.28028 0.68323
 H827 H 0.75068 0.34314 0.71013
 H828 H 0.76556 0.37545 0.67531
 C829 C 0.70581 0.10700 0.09643
 C830 C 0.72041 0.11651 0.07452
 C831 C 0.71732 0.10192 0.05126
 C832 C 0.69954 0.07761 0.04964
 C833 C 0.68525 0.06795 0.07185
 C834 C 0.68835 0.08262 0.09512
 C835 C 0.70847 0.12277 0.12000
 C836 C 0.71117 0.13679 0.13927
 C837 C 0.71515 0.15448 0.16156
 C838 C 0.70118 0.18067 0.16326
 C839 C 0.70726 0.19937 0.18351
 C840 C 0.72749 0.19210 0.20227
 C841 C 0.74070 0.16527 0.20087
 C842 C 0.73458 0.14661 0.18058
 H843 H 0.73404 0.13533 0.07538
 H844 H 0.72888 0.10960 0.03455
 H845 H 0.67122 0.04944 0.07107
 H846 H 0.67692 0.07514 0.11199
 H847 H 0.68619 0.18698 0.14855
 H848 H 0.69673 0.21985 0.18405
 H849 H 0.75638 0.15905 0.21500
 H850 H 0.74560 0.12643 0.17935
 C851 C 0.18503 0.60418 0.59656
 C852 C 0.19838 0.57766 0.59463
 C853 C 0.19583 0.56146 0.57212
 C854 C 0.17995 0.57161 0.55112
 C855 C 0.16577 0.59783 0.55359
 C856 C 0.16834 0.61401 0.57614
 C857 C 0.19015 0.62210 0.61869
 C858 C 0.19542 0.63733 0.63686
 C859 C 0.20278 0.65572 0.65817
 C860 C 0.22341 0.64720 0.67592
 C861 C 0.23203 0.66573 0.69562
 C862 C 0.22016 0.69313 0.69783
 C863 C 0.19903 0.70130 0.68019
 C864 C 0.19045 0.68272 0.66048
 H865 H 0.21148 0.56989 0.61023
 H866 H 0.20736 0.54159 0.57073
 H867 H 0.15312 0.60609 0.53790
 H868 H 0.15791 0.63451 0.57739
 H869 H 0.23319 0.62641 0.67427
 H870 H 0.24833 0.65876 0.70885
 H871 H 0.18947 0.72222 0.68132
 H872 H 0.17455 0.68961 0.64680
 C873 C 0.88753 0.70075 0.09063
 C874 C 0.90788 0.67936 0.08748
 C875 C 0.92317 0.67739 0.06439
 C876 C 0.91818 0.69677 0.04416
 C877 C 0.89770 0.71815 0.04763
 C878 C 0.88253 0.72008 0.07062
 C879 C 0.87168 0.70338 0.11424
 C880 C 0.85774 0.70680 0.13349
 C881 C 0.84042 0.71217 0.15582
 C882 C 0.81429 0.69792 0.15887
 C883 C 0.79620 0.70512 0.17918
 C884 C 0.80396 0.72679 0.19670
 C885 C 0.83060 0.74046 0.19387
 C886 C 0.84865 0.73321 0.17354
 H887 H 0.91192 0.66426 0.10284
 H888 H 0.93864 0.66059 0.06226
 H889 H 0.89373 0.73375 0.03267
 H890 H 0.86695 0.73680 0.07286
 H891 H 0.80760 0.68172 0.14519
 H892 H 0.77586 0.69418 0.18079
 H893 H 0.83723 0.75722 0.20699
 H894 H 0.86874 0.74452 0.17130
 C895 C 0.39030 0.20217 0.59373
 C896 C 0.41460 0.18522 0.59335
 C897 C 0.43010 0.18221 0.57059
 C898 C 0.42144 0.19612 0.54793
 C899 C 0.39705 0.21323 0.54855
 C900 C 0.38160 0.21622 0.57133
 C901 C 0.37410 0.20505 0.61700
 C902 C 0.36011 0.20774 0.63624
 C903 C 0.34282 0.21147 0.65874
 C904 C 0.31711 0.19638 0.66115
 C905 C 0.29907 0.20173 0.68191
 C906 C 0.30654 0.22234 0.70051
 C907 C 0.33286 0.23675 0.69834
 C908 C 0.35085 0.23136 0.67755
 H909 H 0.42147 0.17420 0.61058
 H910 H 0.44861 0.16863 0.57060
 H911 H 0.39009 0.22450 0.53151
 H912 H 0.36284 0.22947 0.57147
 H913 H 0.31068 0.18098 0.64665
 H914 H 0.27896 0.19029 0.68300
 H915 H 0.33921 0.25276 0.71231
 H916 H 0.37070 0.24320 0.67581
 C917 C 0.10901 0.30839 0.09680
 C918 C 0.11972 0.32421 0.07599
 C919 C 0.10382 0.32670 0.05336
 C920 C 0.07696 0.31330 0.05121
 C921 C 0.06595 0.29834 0.07259
 C922 C 0.08190 0.29587 0.09519
 C923 C 0.12657 0.30329 0.11903
 C924 C 0.14159 0.29809 0.13725
 C925 C 0.15982 0.29093 0.15855
 C926 C 0.18655 0.30412 0.16106
 C927 C 0.20500 0.29579 0.18075
 C928 C 0.19699 0.27406 0.19818
 C929 C 0.16988 0.26130 0.19575
 C930 C 0.15147 0.26967 0.17606
 H931 H 0.14068 0.33400 0.07699
 H932 H 0.11274 0.33865 0.03736
 H933 H 0.04554 0.28746 0.07146
 H934 H 0.07344 0.28343 0.11111
 H935 H 0.19331 0.32051 0.14756
 H936 H 0.22571 0.30605 0.18205
 H937 H 0.16303 0.24452 0.20882
 H938 H 0.13089 0.25921 0.17425
 C939 C 0.60684 0.80436 0.58830
 C940 C 0.58395 0.78566 0.58379
 C941 C 0.56814 0.78793 0.56114
 C942 C 0.57512 0.80894 0.54271
 C943 C 0.59813 0.82767 0.54747
 C944 C 0.61388 0.82538 0.57013
 C945 C 0.62372 0.80139 0.61114
 C946 C 0.63831 0.79853 0.62997
 C947 C 0.65632 0.79449 0.65195
 C948 C 0.64869 0.77458 0.67092
 C949 C 0.66731 0.76886 0.69117
 C950 C 0.69386 0.78296 0.69262
 C951 C 0.70095 0.80356 0.67385
 C952 C 0.68229 0.80924 0.65363
 H953 H 0.57848 0.76917 0.59767
 H954 H 0.55079 0.77297 0.55783
 H955 H 0.60377 0.84424 0.53374
 H956 H 0.63162 0.83990 0.57344
 H957 H 0.62865 0.76300 0.66974
 H958 H 0.66122 0.75288 0.70530
 H959 H 0.72122 0.81476 0.67441
 H960 H 0.68840 0.82464 0.63898
   
