data_POSCAR
  _audit_creation_date              2014-09-24
  _audit_creation_method            'ToBaCCo'
  _symmetry_space_group_name_H-M    'P1'
  _symmetry_Int_Tables_number       1
  _symmetry_cell_setting            triclinic
  loop_
  _symmetry_equiv_pos_as_xyz
 x,y,z
_cell_length_a 21.5976
_cell_length_b 21.2395
_cell_length_c 21.1180
_cell_angle_alpha 88.277400
_cell_angle_beta 82.555700
_cell_angle_gamma 89.999800
loop_
  _atom_site_label
  _atom_site_type_symbol
  _atom_site_fract_x
  _atom_site_fract_y
  _atom_site_fract_z
O1 O 0.58443 0.50431 0.03333
 O2 O 0.41483 0.52817 0.06707
 O3 O 0.48801 0.43315 0.07834
 O4 O 0.50809 0.59847 0.02193
 O5 O 0.49928 0.57045 -0.07641
 O6 O 0.47755 0.40547 -0.01989
 O7 O 0.40302 0.49915 -0.03022
 O8 O 0.57300 0.47324 -0.06342
 Cu9 Cu 0.50043 0.51886 0.05989
 Cu10 Cu 0.48732 0.48490 -0.05767
 C11 C 0.60736 0.48355 -0.02038
 C12 C 0.37991 0.51730 0.02465
 C13 C 0.47862 0.39147 0.03875
 C14 C 0.50644 0.61263 -0.03661
 O15 O -0.02574 0.59567 0.49633
 O16 O -0.05884 0.43054 0.54949
 O17 O -0.02206 0.53056 0.59941
 O18 O -0.07315 0.49618 0.44447
 O19 O 0.02360 0.47331 0.40428
 O20 O 0.07431 0.50482 0.56074
 O21 O 0.03394 0.40368 0.50129
 O22 O 0.06699 0.56769 0.44910
 Cu23 Cu -0.05506 0.51570 0.52549
 Cu24 Cu 0.05985 0.48500 0.47790
 C25 C 0.02647 0.60978 0.46378
 C26 C -0.01790 0.38895 0.53375
 C27 C 0.03495 0.52377 0.60618
 C28 C -0.03379 0.47946 0.39809
 O29 O 0.50370 0.07525 0.56161
 O30 O 0.53309 0.01620 0.39837
 O31 O 0.44100 0.06480 0.46758
 O32 O 0.60231 0.02536 0.49156
 O33 O 0.57280 -0.07160 0.52232
 O34 O 0.40962 -0.02703 0.51257
 O35 O 0.49826 -0.07749 0.43499
 O36 O 0.48666 -0.02216 0.59924
 Cu37 Cu 0.52433 0.05494 0.47642
 Cu38 Cu 0.48855 -0.05916 0.52094
 C39 C 0.49139 0.03631 0.60837
 C40 C 0.51779 -0.04007 0.38872
 C41 C 0.39776 0.02563 0.48662
 C42 C 0.61512 -0.03002 0.51013
 C43 C 0.51234 0.18544 -0.07634
 C44 C 0.51327 0.15287 -0.13155
 C45 C 0.49202 0.09256 -0.11377
 N46 N 0.48078 0.08658 -0.04939
 C47 C 0.49328 0.14320 -0.02627
 C48 C 0.47797 0.04516 -0.15539
 C49 C 0.46966 -0.01806 -0.13289
 C50 C 0.43793 -0.06448 -0.16067
 C51 C 0.44809 -0.12040 -0.12900
 C52 C 0.48524 -0.10639 -0.08245
 N53 N 0.49729 -0.04385 -0.08443
 C54 C 0.51080 -0.15075 -0.04210
 C55 C 0.52931 -0.13279 0.01646
 C56 C 0.56491 -0.16843 0.05423
 C57 C 0.56527 -0.13676 0.10993
 C58 C 0.53049 -0.08263 0.10388
 N59 N 0.50888 -0.08011 0.04669
 C60 C 0.51409 -0.03924 0.15232
 C61 C 0.49117 0.02143 0.13855
 C62 C 0.46002 0.06122 0.18280
 C63 C 0.45134 0.11727 0.15089
 C64 C 0.47598 0.10978 0.08758
 N65 N 0.50027 0.05129 0.08059
 C66 C 0.48094 0.15750 0.03906
 H67 H 0.52475 0.23445 -0.07444
 H68 H 0.52828 0.17196 -0.17908
 H69 H 0.52767 0.03515 0.04008
 H70 H 0.41060 -0.05887 -0.19992
 H71 H 0.43016 -0.16606 -0.13918
 H72 H 0.58802 -0.21268 0.04315
 H73 H 0.58830 -0.15191 0.15031
 H74 H 0.43002 0.15879 0.17253
 H75 H 0.52904 -0.02136 -0.05936
 H76 H 0.44518 0.05146 0.23302
 C77 C -0.07431 0.49729 0.82345
 C78 C -0.12847 0.48396 0.86272
 C79 C -0.11440 0.48488 0.92491
 N80 N -0.05321 0.49917 0.92462
 C81 C -0.02823 0.50581 0.86250
 C82 C -0.15905 0.47807 0.98022
 C83 C -0.14339 0.48193 1.04316
 C84 C -0.18514 0.49303 1.09734
 C85 C -0.15175 0.49074 1.14846
 C86 C -0.09082 0.47591 1.12485
 N87 N -0.08606 0.47108 1.06055
 C88 C -0.04223 0.46341 1.16253
 C89 C 0.02088 0.46004 1.13527
 C90 C 0.06874 0.43402 1.16519
 C91 C 0.12313 0.44691 1.12588
 C92 C 0.10663 0.47997 1.07306
 N93 N 0.04409 0.48766 1.07866
 C94 C 0.14928 0.50763 1.02384
 C95 C 0.13178 0.52608 0.96374
 C96 C 0.16815 0.56190 0.91710
 C97 C 0.13594 0.56594 0.86506
 C98 C 0.08004 0.53362 0.88168
 N99 N 0.07830 0.50884 0.94164
 C100 C 0.03404 0.52498 0.84062
 H101 H -0.07059 0.50234 0.77204
 H102 H -0.17354 0.47716 0.84679
 H103 H 0.04549 0.47673 0.96377
 H104 H -0.23455 0.50215 1.10085
 H105 H -0.17084 0.49886 1.19741
 H106 H 0.06499 0.40870 1.21076
 H107 H 0.16958 0.43376 1.13523
 H108 H 0.15223 0.59011 0.82021
 H109 H -0.04766 0.45415 1.03121
 H110 H 0.21334 0.58284 0.91980
 C111 C 0.18404 -0.08997 0.46674
 C112 C 0.14679 -0.14132 0.46261
 C113 C 0.08600 -0.11950 0.46613
 N114 N 0.08500 -0.05671 0.47515
 C115 C 0.14487 -0.03839 0.47592
 C116 C 0.03342 -0.15656 0.45728
 C117 C -0.02812 -0.13257 0.46235
 C118 C -0.07715 -0.16207 0.43860
 C119 C -0.12923 -0.12633 0.45480
 C120 C -0.11091 -0.07559 0.48791
 N121 N -0.04897 -0.07951 0.49222
 C122 C -0.15236 -0.02879 0.51425
 C123 C -0.13294 0.03149 0.53085
 C124 C -0.17265 0.07930 0.55361
 C125 C -0.13614 0.13120 0.55814
 C126 C -0.07475 0.11307 0.54063
 N127 N -0.07317 0.05219 0.52349
 C128 C -0.02183 0.15249 0.54119
 C129 C 0.04099 0.13166 0.52888
 C130 C 0.09200 0.16683 0.54122
 C131 C 0.14406 0.13107 0.52512
 C132 C 0.12406 0.07447 0.50348
 N133 N 0.06105 0.07530 0.50562
 C134 C 0.16478 0.02397 0.48474
 H135 H 0.23427 -0.09164 0.46367
 H136 H 0.16346 -0.18907 0.45736
 H137 H 0.03397 0.04124 0.48824
 H138 H -0.07563 -0.20472 0.41168
 H139 H -0.17537 -0.13630 0.44274
 H140 H -0.22284 0.07792 0.56523
 H141 H -0.15366 0.17683 0.57283
 H142 H 0.19122 0.14468 0.53096
 H143 H -0.02414 -0.05152 0.51979
 H144 H 0.09197 0.21290 0.56172
 N145 N -0.24210 0.41557 0.93822
 N146 N -0.30287 0.41816 0.93600
 C147 C -0.32589 0.46871 0.96785
 C148 C -0.27763 0.50031 0.99070
 C149 C -0.22498 0.46483 0.97094
 H150 H -0.28053 0.54355 1.01672
 H151 H -0.21291 0.38040 0.91774
 H152 H -0.32820 0.38488 0.91439
 N153 N 0.22425 0.54684 1.09425
 N154 N 0.28861 0.54851 1.09481
 C155 C 0.31564 0.52505 1.03946
 C156 C 0.26973 0.50800 1.00256
 C157 C 0.21317 0.52184 1.03889
 H158 H 0.27642 0.48587 0.95668
 H159 H 0.19119 0.56158 1.13133
 H160 H 0.31073 0.56457 1.13245
 N161 N 0.08857 -0.24460 0.39594
 N162 N 0.08765 -0.31025 0.39981
 C163 C 0.04008 -0.32796 0.44447
 C164 C 0.01031 -0.27496 0.47036
 C165 C 0.04305 -0.22375 0.44003
 H166 H -0.02765 -0.27369 0.50919
 H167 H 0.12004 -0.21747 0.36469
 H168 H 0.11890 -0.33942 0.37258
 N169 N -0.06656 0.24097 0.60976
 N170 N -0.06636 0.30325 0.60699
 C171 C -0.03084 0.32285 0.55286
 C172 C -0.00799 0.27109 0.51933
 C173 C -0.03222 0.21992 0.55672
 H174 H 0.02171 0.27062 0.47393
 H175 H -0.08920 0.21363 0.64777
 H176 H -0.08910 0.33161 0.64226
 N177 N 0.45591 0.11773 -0.24701
 N178 N 0.46374 0.11609 -0.31357
 C179 C 0.48237 0.05764 -0.32961
 C180 C 0.48893 0.02187 -0.27502
 C181 C 0.47312 0.06122 -0.22405
 H182 H 0.50583 -0.02604 -0.27315
 H183 H 0.43720 0.15578 -0.22091
 H184 H 0.45313 0.15292 -0.34422
 N185 N 0.49525 -0.11622 0.24504
 N186 N 0.49701 -0.11687 0.30735
 C187 C 0.51965 -0.06118 0.32300
 C188 C 0.53391 -0.02385 0.26822
 C189 C 0.51671 -0.06007 0.21979
 H190 H 0.55021 0.02447 0.26480
 H191 H 0.47634 -0.15239 0.22103
 H192 H 0.47975 -0.15355 0.33877
 N193 N 0.53022 -0.23820 -0.12003
 N194 N 0.52837 -0.30048 -0.11878
 C195 C 0.51233 -0.32105 -0.05796
 C196 C 0.50284 -0.26995 -0.01897
 C197 C 0.51486 -0.21803 -0.06004
 H198 H 0.48831 -0.27062 0.03206
 H199 H 0.54257 -0.21027 -0.16128
 H200 H 0.53878 -0.32814 -0.15881
 N201 N 0.40990 0.24263 0.08371
 N202 N 0.41005 0.30472 0.08587
 C203 C 0.46675 0.32623 0.06059
 C204 C 0.50451 0.27579 0.04185
 C205 C 0.46655 0.22345 0.05695
 H206 H 0.55150 0.27747 0.01680
 H207 H 0.37046 0.21436 0.09670
 H208 H 0.37064 0.33190 0.09997
 N209 N -0.24408 -0.09746 0.55327
 N210 N -0.30487 -0.09854 0.55108
 C211 C -0.32064 -0.04630 0.51929
 C212 C -0.26763 -0.01057 0.49982
 C213 C -0.22001 -0.04452 0.52290
 H214 H -0.26420 0.03356 0.47258
 H215 H -0.21964 -0.13236 0.57547
 H216 H -0.33492 -0.13413 0.57183
 N217 N 0.25791 0.08434 0.43302
 N218 N 0.31880 0.08589 0.43451
 C219 C 0.33358 0.04109 0.47640
 C220 C 0.27974 0.01018 0.50353
 C221 C 0.23273 0.03861 0.47400
 H222 H 0.27554 -0.02777 0.53920
 H223 H 0.23419 0.11370 0.40380
 H224 H 0.34967 0.11614 0.40607
 N225 N -0.10682 0.42769 1.26590
 N226 N -0.10555 0.43382 1.32789
 C227 C -0.05430 0.46703 1.33616
 C228 C -0.02199 0.48343 1.27726
 C229 C -0.05688 0.45787 1.23356
 H230 H 0.02085 0.51048 1.26766
 H231 H -0.14069 0.40207 1.24648
 H232 H -0.13815 0.41383 1.36372
 N233 N 0.06106 0.59985 0.74743
 N234 N 0.06319 0.59902 0.68464
 C235 C 0.05484 0.53940 0.66742
 C236 C 0.04693 0.50054 0.72164
 C237 C 0.05080 0.54079 0.77151
 H238 H 0.03305 0.45145 0.72503
 H239 H 0.06204 0.64080 0.77347
 H240 H 0.06535 0.63928 0.65477
   
