data_POSCAR
  _audit_creation_date              2014-09-24
  _audit_creation_method            'ToBaCCo'
  _symmetry_space_group_name_H-M    'P1'
  _symmetry_Int_Tables_number       1
  _symmetry_cell_setting            triclinic
  loop_
  _symmetry_equiv_pos_as_xyz
 x,y,z
_cell_length_a 52.1971
_cell_length_b 53.0992
_cell_length_c 53.0116
_cell_angle_alpha 90.093600
_cell_angle_beta 90.109900
_cell_angle_gamma 90.438900
loop_
  _atom_site_label
  _atom_site_type_symbol
  _atom_site_fract_x
  _atom_site_fract_y
  _atom_site_fract_z
N1 N 0.26289 0.21511 0.19538
 N2 N 0.25254 0.23541 0.18570
 C3 C 0.26630 0.24269 0.16548
 C4 C 0.28638 0.22604 0.16227
 C5 C 0.28350 0.20876 0.18165
 H6 H 0.26207 0.25893 0.15400
 H7 H 0.29579 0.19302 0.18585
 Cu8 Cu 0.22245 0.25054 0.20096
 Cu9 Cu 0.24944 0.19886 0.22557
 Cu10 Cu 0.19556 0.22536 0.25273
 N11 N 0.19199 0.26507 0.21611
 N12 N 0.18162 0.25514 0.23638
 C13 C 0.16136 0.26903 0.24333
 C14 C 0.15879 0.28882 0.22651
 C15 C 0.17862 0.28561 0.20945
 H16 H 0.14949 0.26503 0.25954
 H17 H 0.18332 0.29764 0.19368
 N18 N 0.21248 0.19523 0.26643
 N19 N 0.23301 0.18519 0.25614
 C20 C 0.24030 0.16531 0.27008
 C21 C 0.22358 0.16263 0.29018
 C22 C 0.20617 0.18197 0.28717
 H23 H 0.25664 0.15366 0.26593
 H24 H 0.19036 0.18640 0.29948
 H25 H 0.21204 0.21036 0.22073
 H26 H 0.23297 0.23061 0.24104
 N27 N 0.73575 -0.21470 0.19532
 N28 N 0.74605 -0.23498 0.18557
 C29 C 0.73221 -0.24226 0.16532
 C30 C 0.71200 -0.22563 0.16212
 C31 C 0.71506 -0.20834 0.18164
 H32 H 0.73649 -0.25860 0.15398
 H33 H 0.70307 -0.19243 0.18595
 Cu34 Cu 0.77618 -0.25014 0.20080
 Cu35 Cu 0.74942 -0.19838 0.22549
 Cu36 Cu 0.80337 -0.22499 0.25259
 N37 N 0.80663 -0.26478 0.21594
 N38 N 0.81711 -0.25487 0.23622
 C39 C 0.83737 -0.26881 0.24314
 C40 C 0.83984 -0.28874 0.22629
 C41 C 0.81988 -0.28539 0.20923
 H42 H 0.84913 -0.26474 0.25945
 H43 H 0.81505 -0.29716 0.19327
 N44 N 0.78661 -0.19475 0.26631
 N45 N 0.76607 -0.18466 0.25603
 C46 C 0.75892 -0.16470 0.27000
 C47 C 0.77575 -0.16203 0.29008
 C48 C 0.79307 -0.18145 0.28706
 H49 H 0.74261 -0.15300 0.26586
 H50 H 0.80891 -0.18591 0.29936
 H51 H 0.78677 -0.20996 0.22065
 H52 H 0.76588 -0.23013 0.24093
 N53 N 0.73320 0.21676 0.80333
 N54 N 0.74408 0.23703 0.81289
 C55 C 0.73055 0.24461 0.83310
 C56 C 0.71007 0.22817 0.83646
 C57 C 0.71247 0.21070 0.81716
 H58 H 0.73524 0.26091 0.84447
 H59 H 0.69982 0.19500 0.81310
 Cu60 Cu 0.77449 0.25174 0.79748
 Cu61 Cu 0.74621 0.20014 0.77319
 Cu62 Cu 0.80056 0.22625 0.74566
 N63 N 0.80504 0.26620 0.78211
 N64 N 0.81509 0.25618 0.76179
 C65 C 0.83555 0.27000 0.75469
 C66 C 0.83862 0.28996 0.77147
 C67 C 0.81878 0.28676 0.78867
 H68 H 0.84708 0.26581 0.73833
 H69 H 0.81435 0.29861 0.80461
 N70 N 0.78300 0.19602 0.73223
 N71 N 0.76230 0.18615 0.74264
 C72 C 0.75467 0.16607 0.72892
 C73 C 0.77137 0.16307 0.70887
 C74 C 0.78909 0.18244 0.71165
 H75 H 0.73818 0.15446 0.73323
 H76 H 0.80501 0.18663 0.69932
 H77 H 0.78388 0.21142 0.77767
 H78 H 0.76329 0.23170 0.75748
 N79 N 0.26572 -0.21479 0.80370
 N80 N 0.25260 -0.23250 0.81529
 C81 C 0.26598 -0.24043 0.83547
 C82 C 0.28878 -0.22689 0.83668
 C83 C 0.28787 -0.21078 0.81614
 H84 H 0.25950 -0.25493 0.84829
 H85 H 0.30235 -0.19733 0.81038
 Cu86 Cu 0.21932 -0.24365 0.80296
 Cu87 Cu 0.25327 -0.19846 0.77323
 Cu88 Cu 0.19815 -0.22347 0.74651
 N89 N 0.19120 -0.26037 0.78549
 N90 N 0.18295 -0.25242 0.76351
 C91 C 0.16369 -0.26749 0.75563
 C92 C 0.15955 -0.28609 0.77365
 C93 C 0.17752 -0.28080 0.79237
 H94 H 0.15374 -0.26508 0.73793
 H95 H 0.18078 -0.29108 0.80964
 N96 N 0.21645 -0.19416 0.73232
 N97 N 0.23751 -0.18466 0.74246
 C98 C 0.24560 -0.16509 0.72836
 C99 C 0.22883 -0.16207 0.70831
 C100 C 0.21057 -0.18087 0.71152
 H101 H 0.26242 -0.15382 0.73247
 H102 H 0.19437 -0.18485 0.69941
 H103 H 0.21447 -0.20576 0.77745
 H104 H 0.23392 -0.23060 0.76151
 N105 N 0.73486 -0.21723 0.80363
 N106 N 0.74496 -0.23799 0.81255
 C107 C 0.73107 -0.24589 0.83246
 C108 C 0.71113 -0.22919 0.83623
 C109 C 0.71424 -0.21123 0.81752
 H110 H 0.73493 -0.26277 0.84311
 H111 H 0.70239 -0.19499 0.81412
 Cu112 Cu 0.77487 -0.25292 0.79679
 Cu113 Cu 0.74874 -0.19984 0.77430
 Cu114 Cu 0.80249 -0.22585 0.74640
 N115 N 0.80521 -0.26716 0.78118
 N116 N 0.81590 -0.25649 0.76147
 C117 C 0.83614 -0.27023 0.75416
 C118 C 0.83839 -0.29082 0.77015
 C119 C 0.81831 -0.28808 0.78712
 H120 H 0.84809 -0.26553 0.73821
 H121 H 0.81333 -0.30043 0.80254
 N122 N 0.78610 -0.19494 0.73394
 N123 N 0.76561 -0.18507 0.74449
 C124 C 0.75866 -0.16456 0.73129
 C125 C 0.77557 -0.16131 0.71144
 C126 C 0.79272 -0.18095 0.71379
 H127 H 0.74239 -0.15292 0.73575
 H128 H 0.80852 -0.18512 0.70137
 H129 H 0.76490 -0.23109 0.75758
 H130 H 0.78593 -0.21202 0.77893
 N131 N 0.26508 0.21655 0.80398
 N132 N 0.25490 0.23726 0.81294
 C133 C 0.26873 0.24519 0.83295
 C134 C 0.28873 0.22856 0.83675
 C135 C 0.28571 0.21060 0.81794
 H136 H 0.26480 0.26204 0.84366
 H137 H 0.29763 0.19441 0.81451
 Cu138 Cu 0.22497 0.25211 0.79708
 Cu139 Cu 0.25130 0.19912 0.77451
 Cu140 Cu 0.19752 0.22502 0.74642
 N141 N 0.19466 0.26633 0.78134
 N142 N 0.18404 0.25565 0.76150
 C143 C 0.16385 0.26942 0.75408
 C144 C 0.16161 0.28990 0.77014
 C145 C 0.18155 0.28726 0.78723
 H146 H 0.15176 0.26482 0.73813
 H147 H 0.18645 0.29987 0.80253
 N148 N 0.21398 0.19414 0.73396
 N149 N 0.23449 0.18433 0.74457
 C150 C 0.24150 0.16384 0.73133
 C151 C 0.22458 0.16053 0.71142
 C152 C 0.20738 0.18012 0.71375
 H153 H 0.25780 0.15224 0.73582
 H154 H 0.19157 0.18425 0.70129
 H155 H 0.23511 0.23032 0.75786
 H156 H 0.21411 0.21117 0.77900
 N157 N 0.26730 -0.21504 0.19706
 N158 N 0.25842 -0.23709 0.18975
 C159 C 0.27165 -0.24480 0.16942
 C160 C 0.28990 -0.22661 0.16365
 C161 C 0.28649 -0.20798 0.18165
 H162 H 0.26825 -0.26240 0.15966
 H163 H 0.29755 -0.19082 0.18383
 Cu164 Cu 0.23106 -0.25421 0.20785
 Cu165 Cu 0.25407 -0.19768 0.22657
 Cu166 Cu 0.20084 -0.22418 0.25519
 N167 N 0.19890 -0.26659 0.22166
 N168 N 0.18721 -0.25495 0.24018
 C169 C 0.16596 -0.26802 0.24644
 C170 C 0.16415 -0.28902 0.23095
 C171 C 0.18545 -0.28741 0.21542
 H172 H 0.15288 -0.26261 0.26123
 H173 H 0.19107 -0.30061 0.20096
 N174 N 0.21753 -0.19313 0.26755
 N175 N 0.23786 -0.18305 0.25668
 C176 C 0.24524 -0.16255 0.26990
 C177 C 0.22875 -0.15954 0.29011
 C178 C 0.21141 -0.17931 0.28794
 H179 H 0.26153 -0.15080 0.26523
 H180 H 0.19586 -0.18372 0.30065
 H181 H 0.23890 -0.22848 0.24532
 H182 H 0.21768 -0.21271 0.22173
 N183 N 0.73534 0.21192 0.19600
 N184 N 0.74600 0.23234 0.18664
 C185 C 0.73264 0.23964 0.16619
 C186 C 0.71249 0.22286 0.16250
 C187 C 0.71490 0.20549 0.18184
 H188 H 0.73718 0.25599 0.15491
 H189 H 0.70239 0.18966 0.18573
 Cu190 Cu 0.77587 0.24773 0.20258
 Cu191 Cu 0.74818 0.19563 0.22633
 Cu192 Cu 0.80132 0.22284 0.25513
 N193 N 0.80572 0.26276 0.21886
 N194 N 0.81552 0.25300 0.23945
 C195 C 0.83550 0.26728 0.24709
 C196 C 0.83846 0.28712 0.23036
 C197 C 0.81916 0.28358 0.21268
 H198 H 0.84696 0.26348 0.26363
 H199 H 0.81488 0.29554 0.19678
 N200 N 0.78420 0.19228 0.26808
 N201 N 0.76396 0.18195 0.25714
 C202 C 0.75643 0.16179 0.27068
 C203 C 0.77269 0.15924 0.29118
 C204 C 0.79008 0.17893 0.28884
 H205 H 0.74025 0.14987 0.26598
 H206 H 0.80557 0.18354 0.30161
 H207 H 0.76427 0.22762 0.24230
 H208 H 0.78573 0.20768 0.22261
 C209 C 0.23751 -0.01215 0.52297
 C210 C 0.23359 0.01418 0.52347
 C211 C 0.23172 0.02737 0.50064
 C212 C 0.23368 0.01504 0.47731
 C213 C 0.23760 -0.01129 0.47680
 C214 C 0.23976 -0.02445 0.49964
 H215 H 0.24208 -0.04473 0.49924
 H216 H 0.22922 0.04763 0.50105
 C217 C 0.76680 -0.01497 0.47811
 C218 C 0.76302 0.01138 0.47780
 C219 C 0.76091 0.02443 0.50074
 C220 C 0.76308 0.01201 0.52399
 C221 C 0.76690 -0.01434 0.52429
 C222 C 0.76872 -0.02743 0.50135
 H223 H 0.77113 -0.04770 0.50159
 H224 H 0.75869 0.04472 0.50050
 C225 C 0.47613 0.23873 -0.01199
 C226 C 0.47631 0.23487 0.01440
 C227 C 0.49984 0.23267 0.02701
 C228 C 0.52320 0.23426 0.01403
 C229 C 0.52303 0.23818 -0.01236
 C230 C 0.49950 0.24065 -0.02494
 H231 H 0.49935 0.24294 -0.04526
 H232 H 0.49999 0.23019 0.04732
 C233 C 0.47698 0.76391 0.01317
 C234 C 0.47700 0.75995 -0.01322
 C235 C 0.50047 0.75770 -0.02588
 C236 C 0.52391 0.75993 -0.01300
 C237 C 0.52387 0.76389 0.01340
 C238 C 0.50040 0.76580 0.02608
 H239 H 0.50036 0.76834 0.04638
 H240 H 0.50051 0.75537 -0.04621
 C241 C 0.01243 0.47758 0.23628
 C242 C -0.01467 0.47776 0.23639
 C243 C -0.02749 0.50090 0.23648
 C244 C -0.01402 0.52387 0.23618
 C245 C 0.01307 0.52368 0.23594
 C246 C 0.02589 0.50055 0.23614
 H247 H 0.04667 0.50041 0.23593
 H248 H -0.04827 0.50102 0.23653
 C249 C -0.01329 0.52352 0.76238
 C250 C 0.01380 0.52407 0.76243
 C251 C 0.02724 0.50129 0.76224
 C252 C 0.01438 0.47798 0.76215
 C253 C -0.01272 0.47744 0.76185
 C254 C -0.02615 0.50022 0.76191
 H255 H -0.04693 0.49981 0.76187
 H256 H 0.04802 0.50170 0.76246
 C257 C 0.34702 0.22913 0.10746
 C258 C 0.33077 0.24972 0.11059
 C259 C 0.31085 0.24866 0.12819
 C260 C 0.30696 0.22696 0.14298
 C261 C 0.32327 0.20626 0.13944
 C262 C 0.34314 0.20737 0.12183
 C263 C 0.36814 0.23045 0.09009
 C264 C 0.38622 0.23127 0.07598
 C265 C 0.40826 0.23188 0.05972
 C266 C 0.41236 0.25220 0.04336
 C267 C 0.43436 0.25310 0.02834
 C268 C 0.45242 0.23363 0.02949
 C269 C 0.44808 0.21326 0.04585
 C270 C 0.42611 0.21238 0.06084
 H271 H 0.33366 0.26671 0.09962
 H272 H 0.29885 0.26502 0.13044
 H273 H 0.32077 0.18915 0.15023
 H274 H 0.35560 0.19130 0.11956
 H275 H 0.39874 0.26746 0.04245
 H276 H 0.43751 0.26915 0.01612
 H277 H 0.46175 0.19805 0.04703
 H278 H 0.42316 0.19661 0.07347
 C279 C 0.65261 0.77135 0.10750
 C280 C 0.67185 0.75320 0.10742
 C281 C 0.69162 0.75427 0.12526
 C282 C 0.69245 0.77356 0.14365
 C283 C 0.67298 0.79188 0.14324
 C284 C 0.65329 0.79072 0.12536
 C285 C 0.63176 0.76987 0.08974
 C286 C 0.61386 0.76888 0.07535
 C287 C 0.59195 0.76802 0.05883
 C288 C 0.58813 0.74759 0.04248
 C289 C 0.56615 0.74634 0.02736
 C290 C 0.54783 0.76557 0.02843
 C291 C 0.55193 0.78610 0.04473
 C292 C 0.57388 0.78733 0.05981
 H293 H 0.67149 0.73808 0.09367
 H294 H 0.70600 0.73976 0.12456
 H295 H 0.67259 0.80715 0.15672
 H296 H 0.63846 0.80488 0.12561
 H297 H 0.60193 0.73247 0.04168
 H298 H 0.56320 0.73018 0.01518
 H299 H 0.53806 0.80113 0.04584
 H300 H 0.57660 0.80318 0.07244
 C301 C 0.65002 0.23233 -0.10821
 C302 C 0.65284 0.21062 -0.12288
 C303 C 0.67247 0.20916 -0.14071
 C304 C 0.68962 0.22946 -0.14415
 C305 C 0.68674 0.25114 -0.12909
 C306 C 0.66706 0.25255 -0.11129
 C307 C 0.62931 0.23402 -0.09042
 C308 C 0.61166 0.23532 -0.07584
 C309 C 0.59022 0.23667 -0.05888
 C310 C 0.58522 0.21689 -0.04211
 C311 C 0.56361 0.21757 -0.02660
 C312 C 0.54682 0.23811 -0.02762
 C313 C 0.55207 0.25799 -0.04434
 C314 C 0.57369 0.25729 -0.05984
 H315 H 0.63974 0.19485 -0.12066
 H316 H 0.67415 0.19210 -0.15172
 H317 H 0.69937 0.26722 -0.13125
 H318 H 0.66500 0.26949 -0.10008
 H319 H 0.59779 0.20077 -0.04134
 H320 H 0.55969 0.20184 -0.01419
 H321 H 0.53933 0.27396 -0.04547
 H322 H 0.57732 0.27264 -0.07282
 C323 C 0.34955 0.76639 -0.10882
 C324 C 0.32993 0.74831 -0.10971
 C325 C 0.31009 0.75050 -0.12735
 C326 C 0.30965 0.77083 -0.14438
 C327 C 0.32945 0.78894 -0.14320
 C328 C 0.34922 0.78672 -0.12556
 C329 C 0.37024 0.76407 -0.09100
 C330 C 0.38791 0.76250 -0.07642
 C331 C 0.40941 0.76110 -0.05947
 C332 C 0.42608 0.74060 -0.06064
 C333 C 0.44784 0.74000 -0.04522
 C334 C 0.45309 0.75986 -0.02841
 C335 C 0.43616 0.78028 -0.02718
 C336 C 0.41441 0.78085 -0.04258
 H337 H 0.33002 0.73246 -0.09687
 H338 H 0.29533 0.73610 -0.12774
 H339 H 0.32972 0.80496 -0.15577
 H340 H 0.36430 0.80085 -0.12501
 H341 H 0.42247 0.72528 -0.07372
 H342 H 0.46070 0.72414 -0.04653
 H343 H 0.44008 0.79601 -0.01470
 H344 H 0.40175 0.79690 -0.04167
 C345 C 0.10457 0.34944 0.22899
 C346 C 0.11981 0.34594 0.20762
 C347 C 0.13723 0.32609 0.20667
 C348 C 0.13971 0.30944 0.22716
 C349 C 0.12404 0.31298 0.24846
 C350 C 0.10664 0.33286 0.24935
 C351 C 0.08742 0.37051 0.23034
 C352 C 0.07346 0.38845 0.23159
 C353 C 0.05733 0.41026 0.23321
 C354 C 0.06103 0.42767 0.25276
 C355 C 0.04616 0.44940 0.25389
 C356 C 0.02732 0.45392 0.23552
 C357 C 0.02359 0.43632 0.21600
 C358 C 0.03849 0.41456 0.21490
 H359 H 0.11837 0.35868 0.19174
 H360 H 0.14872 0.32391 0.18987
 H361 H 0.12543 0.30072 0.26466
 H362 H 0.09501 0.33545 0.26605
 H363 H 0.07560 0.42457 0.26699
 H364 H 0.04936 0.46276 0.26905
 H365 H 0.00943 0.43963 0.20144
 H366 H 0.03556 0.40128 0.19961
 C367 C 0.10630 0.65328 0.77078
 C368 C 0.10734 0.67077 0.75113
 C369 C 0.12474 0.69090 0.75213
 C370 C 0.14155 0.69391 0.77286
 C371 C 0.14001 0.67619 0.79266
 C372 C 0.12258 0.65610 0.79156
 C373 C 0.08908 0.63202 0.76928
 C374 C 0.07506 0.61392 0.76791
 C375 C 0.05886 0.59193 0.76611
 C376 C 0.04022 0.58713 0.78450
 C377 C 0.02525 0.56520 0.78320
 C378 C 0.02874 0.54791 0.76341
 C379 C 0.04737 0.55293 0.74498
 C380 C 0.06231 0.57484 0.74630
 H381 H 0.09484 0.66874 0.73491
 H382 H 0.12493 0.70387 0.73644
 H383 H 0.15229 0.67752 0.80905
 H384 H 0.12195 0.64262 0.80688
 H385 H 0.03750 0.60017 0.79999
 H386 H 0.01125 0.56150 0.79781
 H387 H 0.05038 0.53981 0.72962
 H388 H 0.07672 0.57832 0.73202
 C389 C -0.10651 0.65174 0.22852
 C390 C -0.12476 0.65273 0.20924
 C391 C -0.14230 0.67247 0.20831
 C392 C -0.14197 0.69168 0.22678
 C393 C -0.12316 0.69055 0.24593
 C394 C -0.10567 0.67074 0.24678
 C395 C -0.08922 0.63079 0.22997
 C396 C -0.07517 0.61292 0.23127
 C397 C -0.05897 0.59116 0.23295
 C398 C -0.06238 0.57400 0.25270
 C399 C -0.04748 0.55228 0.25389
 C400 C -0.02892 0.54752 0.23536
 C401 C -0.02548 0.56487 0.21564
 C402 C -0.04040 0.58662 0.21448
 H403 H -0.12561 0.63807 0.19500
 H404 H -0.15613 0.67233 0.19312
 H405 H -0.12187 0.70472 0.26054
 H406 H -0.09162 0.67014 0.26184
 H407 H -0.07673 0.57729 0.26705
 H408 H -0.05046 0.53912 0.26921
 H409 H -0.01155 0.56137 0.20096
 H410 H -0.03771 0.59969 0.19903
 C411 C -0.10654 0.34920 0.76883
 C412 C -0.10639 0.33028 0.75048
 C413 C -0.12427 0.31055 0.75146
 C414 C -0.14278 0.30943 0.77084
 C415 C -0.14240 0.32855 0.78940
 C416 C -0.12447 0.34821 0.78834
 C417 C -0.08888 0.37009 0.76727
 C418 C -0.07456 0.38796 0.76595
 C419 C -0.05807 0.40975 0.76436
 C420 C -0.03947 0.41430 0.78293
 C421 C -0.02437 0.43615 0.78197
 C422 C -0.02767 0.45360 0.76235
 C423 C -0.04624 0.44881 0.74370
 C424 C -0.06132 0.42698 0.74469
 H425 H -0.09260 0.33090 0.73524
 H426 H -0.12354 0.29645 0.73676
 H427 H -0.15594 0.32868 0.80478
 H428 H -0.12477 0.36279 0.80266
 H429 H -0.03692 0.40116 0.79833
 H430 H -0.01043 0.43967 0.79675
 H431 H -0.04912 0.46207 0.72847
 H432 H -0.07572 0.42370 0.73028
 C433 C 0.22672 0.10872 0.35062
 C434 C 0.20475 0.12321 0.34703
 C435 C 0.20363 0.14058 0.32728
 C436 C 0.22453 0.14374 0.31079
 C437 C 0.24645 0.12887 0.31445
 C438 C 0.24753 0.11152 0.33424
 C439 C 0.22808 0.09145 0.37147
 C440 C 0.22904 0.07734 0.38924
 C441 C 0.22993 0.06098 0.41084
 C442 C 0.21027 0.06178 0.42874
 C443 C 0.21140 0.04660 0.45020
 C444 C 0.23218 0.03036 0.45398
 C445 C 0.25182 0.02955 0.43589
 C446 C 0.25066 0.04477 0.41440
 H447 H 0.18852 0.12119 0.35959
 H448 H 0.18635 0.15144 0.32497
 H449 H 0.26298 0.13083 0.30232
 H450 H 0.26467 0.10045 0.33690
 H451 H 0.19418 0.07430 0.42621
 H452 H 0.19607 0.04751 0.46391
 H453 H 0.26819 0.01745 0.43861
 H454 H 0.26605 0.04410 0.40073
 C455 C 0.76771 0.10788 0.64941
 C456 C 0.78993 0.12235 0.65295
 C457 C 0.79120 0.14016 0.67237
 C458 C 0.77021 0.14377 0.68858
 C459 C 0.74802 0.12892 0.68499
 C460 C 0.74680 0.11114 0.66552
 C461 C 0.76622 0.09013 0.62889
 C462 C 0.76510 0.07560 0.61141
 C463 C 0.76398 0.05868 0.59019
 C464 C 0.78407 0.04195 0.58571
 C465 C 0.78360 0.02641 0.56439
 C466 C 0.76294 0.02738 0.54738
 C467 C 0.74276 0.04408 0.55209
 C468 C 0.74326 0.05961 0.57341
 H469 H 0.80625 0.11997 0.64060
 H470 H 0.80869 0.15098 0.67465
 H471 H 0.73142 0.13124 0.69691
 H472 H 0.72945 0.10009 0.66291
 H473 H 0.80029 0.04120 0.59847
 H474 H 0.79958 0.01401 0.56088
 H475 H 0.72671 0.04518 0.53917
 H476 H 0.72766 0.07257 0.57664
 C477 C 0.23322 -0.10788 0.64817
 C478 C 0.25412 -0.11120 0.66435
 C479 C 0.25268 -0.12870 0.68400
 C480 C 0.23029 -0.14318 0.68772
 C481 C 0.20935 -0.13956 0.67137
 C482 C 0.21084 -0.12206 0.65176
 C483 C 0.23479 -0.09026 0.62762
 C484 C 0.23588 -0.07578 0.61015
 C485 C 0.23689 -0.05889 0.58896
 C486 C 0.25759 -0.05973 0.57224
 C487 C 0.25798 -0.04421 0.55096
 C488 C 0.23770 -0.02761 0.54625
 C489 C 0.21706 -0.02675 0.56321
 C490 C 0.21670 -0.04226 0.58448
 H491 H 0.27159 -0.10039 0.66167
 H492 H 0.26926 -0.13104 0.69601
 H493 H 0.19172 -0.15013 0.67370
 H494 H 0.19453 -0.11964 0.63934
 H495 H 0.27326 -0.07260 0.57547
 H496 H 0.27403 -0.04522 0.53809
 H497 H 0.20101 -0.01442 0.55971
 H498 H 0.20050 -0.04158 0.59721
 C499 C 0.77306 -0.10807 0.35066
 C500 C 0.79499 -0.12258 0.34696
 C501 C 0.79597 -0.13996 0.32716
 C502 C 0.77496 -0.14310 0.31072
 C503 C 0.75308 -0.12820 0.31447
 C504 C 0.75215 -0.11085 0.33432
 C505 C 0.77185 -0.09084 0.37161
 C506 C 0.77101 -0.07679 0.38948
 C507 C 0.77025 -0.06053 0.41121
 C508 C 0.78991 -0.06156 0.42917
 C509 C 0.78888 -0.04651 0.45078
 C510 C 0.76820 -0.03018 0.45465
 C511 C 0.74857 -0.02914 0.43650
 C512 C 0.74962 -0.04422 0.41486
 H513 H 0.81130 -0.12058 0.35950
 H514 H 0.81322 -0.15084 0.32478
 H515 H 0.73647 -0.13016 0.30238
 H516 H 0.73503 -0.09977 0.33705
 H517 H 0.80593 -0.07416 0.42656
 H518 H 0.80421 -0.04760 0.46452
 H519 H 0.73227 -0.01695 0.43928
 H520 H 0.73423 -0.04338 0.40115
 C521 C 0.65107 0.76602 -0.10846
 C522 C 0.64949 0.78345 -0.12813
 C523 C 0.66907 0.78514 -0.14600
 C524 C 0.69057 0.76934 -0.14448
 C525 C 0.69202 0.75197 -0.12448
 C526 C 0.67239 0.75034 -0.10662
 C527 C 0.63054 0.76403 -0.09049
 C528 C 0.61297 0.76257 -0.07583
 C529 C 0.59154 0.76113 -0.05886
 C530 C 0.58683 0.78088 -0.04201
 C531 C 0.56508 0.78027 -0.02668
 C532 C 0.54787 0.75982 -0.02797
 C533 C 0.55287 0.73993 -0.04471
 C534 C 0.57462 0.74057 -0.06004
 H535 H 0.63302 0.79564 -0.12978
 H536 H 0.66710 0.79862 -0.16113
 H537 H 0.70829 0.73964 -0.12250
 H538 H 0.67381 0.73677 -0.09144
 H539 H 0.59970 0.79696 -0.04107
 H540 H 0.56135 0.79602 -0.01424
 H541 H 0.53980 0.72404 -0.04605
 H542 H 0.57803 0.72524 -0.07310
 C543 C 0.34875 0.23343 -0.10766
 C544 C 0.35034 0.21598 -0.12736
 C545 C 0.33078 0.21427 -0.14532
 C546 C 0.30929 0.23007 -0.14387
 C547 C 0.30783 0.24748 -0.12386
 C548 C 0.32744 0.24914 -0.10590
 C549 C 0.36926 0.23540 -0.08957
 C550 C 0.38683 0.23679 -0.07484
 C551 C 0.40829 0.23810 -0.05781
 C552 C 0.41281 0.21839 -0.04090
 C553 C 0.43462 0.21883 -0.02556
 C554 C 0.45208 0.23906 -0.02691
 C555 C 0.44725 0.25893 -0.04369
 C556 C 0.42545 0.25846 -0.05903
 H557 H 0.36680 0.20376 -0.12894
 H558 H 0.33277 0.20076 -0.16046
 H559 H 0.29156 0.25983 -0.12194
 H560 H 0.32602 0.26273 -0.09070
 H561 H 0.39976 0.20246 -0.03995
 H562 H 0.43820 0.20311 -0.01309
 H563 H 0.46052 0.27465 -0.04506
 H564 H 0.42219 0.27374 -0.07213
 C565 C 0.34837 0.77070 0.10670
 C566 C 0.33416 0.74902 0.11247
 C567 C 0.31485 0.74994 0.13070
 C568 C 0.30959 0.77259 0.14350
 C569 C 0.32377 0.79436 0.13725
 C570 C 0.34302 0.79339 0.11899
 C571 C 0.36913 0.76951 0.08894
 C572 C 0.38699 0.76868 0.07459
 C573 C 0.40885 0.76793 0.05813
 C574 C 0.41243 0.74750 0.04180
 C575 C 0.43441 0.74631 0.02681
 C576 C 0.45298 0.76559 0.02799
 C577 C 0.44912 0.78612 0.04425
 C578 C 0.42716 0.78729 0.05920
 H579 H 0.33824 0.73132 0.10313
 H580 H 0.30450 0.73277 0.13509
 H581 H 0.32011 0.81217 0.14645
 H582 H 0.35393 0.81029 0.11466
 H583 H 0.39844 0.73234 0.04095
 H584 H 0.43718 0.73015 0.01465
 H585 H 0.46319 0.80118 0.04542
 H586 H 0.42463 0.80314 0.07182
 C587 C 0.65267 0.22606 0.10673
 C588 C 0.65607 0.20423 0.12103
 C589 C 0.67569 0.20307 0.13895
 C590 C 0.69221 0.22379 0.14286
 C591 C 0.68882 0.24556 0.12811
 C592 C 0.66915 0.24667 0.11021
 C593 C 0.63170 0.22754 0.08917
 C594 C 0.61369 0.22859 0.07495
 C595 C 0.59167 0.22958 0.05865
 C596 C 0.57314 0.21043 0.05979
 C597 C 0.55106 0.21182 0.04497
 C598 C 0.54728 0.23236 0.02876
 C599 C 0.56605 0.25144 0.02752
 C600 C 0.58817 0.25002 0.04238
 H601 H 0.64339 0.18817 0.11850
 H602 H 0.67781 0.18592 0.14970
 H603 H 0.70100 0.26194 0.13065
 H604 H 0.66661 0.26372 0.09931
 H605 H 0.57563 0.19457 0.07238
 H606 H 0.53683 0.19691 0.04620
 H607 H 0.56335 0.26762 0.01541
 H608 H 0.60232 0.26502 0.04147
 C609 C -0.10768 0.65004 0.76659
 C610 C -0.10667 0.66962 0.74903
 C611 C -0.12432 0.68927 0.75026
 C612 C -0.14342 0.68965 0.76912
 C613 C -0.14396 0.66980 0.78681
 C614 C -0.12628 0.65023 0.78550
 C615 C -0.09002 0.62943 0.76510
 C616 C -0.07576 0.61170 0.76431
 C617 C -0.05944 0.59001 0.76396
 C618 C -0.04106 0.58703 0.74499
 C619 C -0.02582 0.56546 0.74446
 C620 C -0.02881 0.54677 0.76299
 C621 C -0.04724 0.54995 0.78196
 C622 C -0.06242 0.57147 0.78246
 H623 H -0.09232 0.66963 0.73429
 H624 H -0.12289 0.70395 0.73624
 H625 H -0.15802 0.66905 0.80172
 H626 H -0.12723 0.63513 0.79920
 H627 H -0.03869 0.60122 0.73051
 H628 H -0.01193 0.56321 0.72949
 H629 H -0.04982 0.53576 0.79642
 H630 H -0.07662 0.57356 0.79719
 C631 C -0.10749 0.34857 0.23393
 C632 C -0.12161 0.34417 0.21190
 C633 C -0.13898 0.32406 0.21065
 C634 C -0.14252 0.30802 0.23149
 C635 C -0.12797 0.31243 0.25348
 C636 C -0.11060 0.33260 0.25469
 C637 C -0.09035 0.36988 0.23529
 C638 C -0.07647 0.38812 0.23593
 C639 C -0.06051 0.41032 0.23605
 C640 C -0.06387 0.42860 0.21737
 C641 C -0.04884 0.45046 0.21751
 C642 C -0.03020 0.45427 0.23630
 C643 C -0.02691 0.43588 0.25505
 C644 C -0.04198 0.41397 0.25488
 H645 H -0.11932 0.35641 0.19571
 H646 H -0.14955 0.32116 0.19332
 H647 H -0.13024 0.30063 0.26994
 H648 H -0.09981 0.33589 0.27187
 H649 H -0.07818 0.42598 0.20275
 H650 H -0.05166 0.46439 0.20288
 H651 H -0.01286 0.43860 0.26988
 H652 H -0.03931 0.39998 0.26949
 C653 C 0.10747 0.35045 0.76625
 C654 C 0.12265 0.34735 0.78777
 C655 C 0.14007 0.32755 0.78913
 C656 C 0.14260 0.31053 0.76892
 C657 C 0.12702 0.31366 0.74745
 C658 C 0.10961 0.33352 0.74613
 C659 C 0.09023 0.37140 0.76472
 C660 C 0.07626 0.38935 0.76388
 C661 C 0.06021 0.41125 0.76347
 C662 C 0.06322 0.42969 0.78215
 C663 C 0.04819 0.45131 0.78170
 C664 C 0.02988 0.45471 0.76258
 C665 C 0.02691 0.43614 0.74385
 C666 C 0.04199 0.41447 0.74433
 H667 H 0.12113 0.36034 0.80347
 H668 H 0.15147 0.32565 0.80607
 H669 H 0.12848 0.30109 0.73146
 H670 H 0.09799 0.33580 0.72934
 H671 H 0.07729 0.42740 0.79702
 H672 H 0.05075 0.46538 0.79632
 H673 H 0.01311 0.43856 0.72878
 H674 H 0.03959 0.40036 0.72972
 C675 C 0.10801 0.65130 0.23296
 C676 C 0.10915 0.66898 0.25252
 C677 C 0.12719 0.68859 0.25177
 C678 C 0.14439 0.69072 0.23143
 C679 C 0.14282 0.67298 0.21172
 C680 C 0.12477 0.65343 0.21252
 C681 C 0.09021 0.63051 0.23405
 C682 C 0.07585 0.61264 0.23459
 C683 C 0.05940 0.59077 0.23473
 C684 C 0.04106 0.58748 0.25372
 C685 C 0.02575 0.56573 0.25411
 C686 C 0.02863 0.54714 0.23543
 C687 C 0.04702 0.55065 0.21643
 C688 C 0.06227 0.57235 0.21607
 H689 H 0.09630 0.66746 0.26849
 H690 H 0.12787 0.70175 0.26735
 H691 H 0.15548 0.67409 0.19564
 H692 H 0.12404 0.63984 0.19725
 H693 H 0.03878 0.60157 0.26833
 H694 H 0.01191 0.56323 0.26911
 H695 H 0.04952 0.53656 0.20186
 H696 H 0.07645 0.57468 0.20133
 C697 C 0.77312 -0.10601 0.65231
 C698 C 0.79514 -0.12040 0.65597
 C699 C 0.79606 -0.13815 0.67537
 C700 C 0.77491 -0.14180 0.69143
 C701 C 0.75297 -0.12695 0.68780
 C702 C 0.75209 -0.10921 0.66834
 C703 C 0.77189 -0.08863 0.63156
 C704 C 0.77111 -0.07458 0.61374
 C705 C 0.77047 -0.05847 0.59195
 C706 C 0.79016 -0.05977 0.57412
 C707 C 0.78913 -0.04512 0.55230
 C708 C 0.76841 -0.02892 0.54808
 C709 C 0.74879 -0.02753 0.56615
 C710 C 0.74985 -0.04222 0.58800
 H711 H 0.81153 -0.11807 0.64366
 H712 H 0.81337 -0.14898 0.67771
 H713 H 0.73626 -0.12930 0.69962
 H714 H 0.73490 -0.09823 0.66561
 H715 H 0.80617 -0.07234 0.57695
 H716 H 0.80445 -0.04646 0.53862
 H717 H 0.73247 -0.01543 0.56310
 H718 H 0.73444 -0.04118 0.60161
 C719 C 0.23278 -0.10433 0.34947
 C720 C 0.25343 -0.10728 0.33298
 C721 C 0.25205 -0.12502 0.31348
 C722 C 0.22999 -0.14013 0.31027
 C723 C 0.20924 -0.13679 0.32684
 C724 C 0.21066 -0.11903 0.34629
 C725 C 0.23446 -0.08677 0.37011
 C726 C 0.23568 -0.07248 0.38777
 C727 C 0.23687 -0.05597 0.40929
 C728 C 0.25764 -0.05727 0.42598
 C729 C 0.25810 -0.04234 0.44772
 C730 C 0.23783 -0.02590 0.45294
 C731 C 0.21716 -0.02451 0.43599
 C732 C 0.21672 -0.03944 0.41424
 H733 H 0.27070 -0.09606 0.33534
 H734 H 0.26847 -0.12714 0.30127
 H735 H 0.19185 -0.14783 0.32486
 H736 H 0.19455 -0.11689 0.35896
 H737 H 0.27327 -0.07009 0.42239
 H738 H 0.27416 -0.04375 0.46060
 H739 H 0.20112 -0.01229 0.43987
 H740 H 0.20047 -0.03843 0.40155
 C741 C 0.76838 0.10473 0.35100
 C742 C 0.74795 0.10726 0.33410
 C743 C 0.74941 0.12481 0.31450
 C744 C 0.77134 0.14014 0.31158
 C745 C 0.79185 0.13726 0.32859
 C746 C 0.79035 0.11969 0.34815
 C747 C 0.76663 0.08726 0.37165
 C748 C 0.76535 0.07299 0.38927
 C749 C 0.76407 0.05644 0.41069
 C750 C 0.74331 0.05779 0.42732
 C751 C 0.74274 0.04274 0.44892
 C752 C 0.76289 0.02612 0.45407
 C753 C 0.78356 0.02470 0.43719
 C754 C 0.78410 0.03974 0.41558
 H755 H 0.73081 0.09583 0.33620
 H756 H 0.73317 0.12655 0.30195
 H757 H 0.80912 0.14849 0.32686
 H758 H 0.80628 0.11789 0.36113
 H759 H 0.72777 0.07072 0.42377
 H760 H 0.72669 0.04418 0.46175
 H761 H 0.79951 0.01235 0.44102
 H762 H 0.80034 0.03869 0.40293
 C763 C 0.22712 0.10523 0.65213
 C764 C 0.20507 0.11957 0.65577
 C765 C 0.20412 0.13731 0.67523
 C766 C 0.22528 0.14101 0.69136
 C767 C 0.24724 0.12620 0.68776
 C768 C 0.24815 0.10847 0.66824
 C769 C 0.22839 0.08791 0.63129
 C770 C 0.22921 0.07393 0.61338
 C771 C 0.22988 0.05793 0.59147
 C772 C 0.21014 0.05919 0.57364
 C773 C 0.21121 0.04465 0.55169
 C774 C 0.23204 0.02863 0.54737
 C775 C 0.25172 0.02728 0.56544
 C776 C 0.25062 0.04185 0.58742
 H777 H 0.18867 0.11721 0.64340
 H778 H 0.18678 0.14809 0.67755
 H779 H 0.26396 0.12858 0.69964
 H780 H 0.26537 0.09753 0.66552
 H781 H 0.19405 0.07163 0.57656
 H782 H 0.19585 0.04596 0.53801
 H783 H 0.26812 0.01530 0.56232
 H784 H 0.26608 0.04085 0.60104
   
