data_POSCAR
  _audit_creation_date              2014-09-24
  _audit_creation_method            'ToBaCCo'
  _symmetry_space_group_name_H-M    'P1'
  _symmetry_Int_Tables_number       1
  _symmetry_cell_setting            triclinic
  loop_
  _symmetry_equiv_pos_as_xyz
 x,y,z
_cell_length_a 20.4634
_cell_length_b 20.2967
_cell_length_c 30.1967
_cell_angle_alpha 90.013900
_cell_angle_beta 89.818300
_cell_angle_gamma 90.032100
loop_
  _atom_site_label
  _atom_site_type_symbol
  _atom_site_fract_x
  _atom_site_fract_y
  _atom_site_fract_z
O1 O 0.12441 0.08092 0.02465
 O2 O -0.11990 -0.07644 0.03330
 O3 O -0.07631 0.12587 0.03071
 O4 O 0.08067 -0.12202 0.02640
 O5 O -0.10567 0.03440 0.05750
 O6 O 0.11689 -0.03017 0.04928
 O7 O -0.02784 -0.11307 0.05387
 O8 O 0.03474 0.11467 0.05136
 C9 C 0.09413 0.10798 0.05567
 C10 C -0.08636 -0.10513 0.06181
 C11 C -0.10020 0.09443 0.06251
 C12 C 0.10987 -0.08981 0.05559
 O13 O 0.12401 -0.07217 -0.03648
 O14 O -0.12709 0.07581 -0.02815
 O15 O 0.07151 0.12831 -0.03547
 O16 O -0.07478 -0.12524 -0.03030
 O17 O -0.11575 -0.03470 -0.05203
 O18 O 0.10685 0.03780 -0.06051
 O19 O 0.03337 -0.11110 -0.05795
 O20 O -0.03912 0.11150 -0.05639
 Co21 Co 0.10681 0.00399 -0.00543
 Co22 Co -0.10584 0.00009 0.00236
 Co23 Co -0.00202 0.10863 -0.00243
 Co24 Co 0.00260 -0.10641 -0.00201
 O25 O 0.00041 0.00143 -0.00191
 C26 C 0.09167 -0.10097 -0.06568
 C27 C -0.09839 0.10265 -0.05991
 C28 C 0.09872 0.09733 -0.06624
 C29 C -0.10672 -0.09395 -0.05855
 O30 O 0.46544 0.38613 0.44255
 O31 O 0.53866 0.60850 0.44337
 O32 O 0.39251 0.53423 0.43963
 O33 O 0.61560 0.46246 0.44804
 O34 O 0.42792 0.62497 0.46424
 O35 O 0.57369 0.37200 0.46973
 O36 O 0.62656 0.57336 0.47166
 O37 O 0.37501 0.42463 0.46473
 C38 C 0.40711 0.39619 0.43518
 C39 C 0.59797 0.59978 0.43983
 C40 C 0.40150 0.59351 0.43360
 C41 C 0.60654 0.40316 0.44170
 O42 O 0.52694 0.38442 0.55416
 O43 O 0.46388 0.61219 0.55114
 O44 O 0.38241 0.46802 0.55000
 O45 O 0.60550 0.53249 0.55733
 O46 O 0.57473 0.62355 0.53038
 O47 O 0.41843 0.37576 0.52755
 O48 O 0.61902 0.42124 0.53327
 O49 O 0.37439 0.57861 0.52456
 Co50 Co 0.49636 0.39099 0.49842
 Co51 Co 0.50101 0.60591 0.49734
 Co52 Co 0.39236 0.50128 0.49501
 Co53 Co 0.60534 0.49767 0.50229
 O54 O 0.49879 0.49884 0.49826
 C55 C 0.58533 0.39297 0.56204
 C56 C 0.40443 0.60583 0.55547
 C57 C 0.38938 0.40847 0.55669
 C58 C 0.59892 0.59237 0.56197
 C59 C 0.19127 0.19478 0.16745
 C60 C 0.22746 0.16110 0.13487
 C61 C 0.19605 0.13236 0.09859
 C62 C 0.12789 0.13679 0.09425
 C63 C 0.09170 0.16963 0.12715
 C64 C 0.12303 0.19831 0.16330
 C65 C 0.22426 0.22632 0.20568
 C66 C 0.20355 0.28826 0.22116
 C67 C 0.23350 0.31742 0.25775
 C68 C 0.28493 0.28538 0.27963
 C69 C 0.30601 0.22368 0.26395
 C70 C 0.27601 0.19448 0.22736
 C71 C 0.31624 0.31585 0.31887
 C72 C 0.38430 0.31270 0.32430
 C73 C 0.41372 0.33961 0.36180
 C74 C 0.37578 0.36998 0.39484
 C75 C 0.30785 0.37438 0.38906
 C76 C 0.27835 0.34754 0.35144
 H77 H 0.28017 0.15798 0.13703
 H78 H 0.22509 0.10715 0.07380
 H79 H 0.03900 0.17338 0.12493
 H80 H 0.09369 0.22279 0.18825
 H81 H 0.16454 0.31452 0.20467
 H82 H 0.21692 0.36545 0.26863
 H83 H 0.34489 0.19736 0.28053
 H84 H 0.29241 0.14633 0.21662
 H85 H 0.41489 0.28975 0.29937
 H86 H 0.46625 0.33654 0.36493
 H87 H 0.27741 0.39780 0.41388
 H88 H 0.22573 0.35031 0.34832
 C89 C 0.82454 0.80785 0.17683
 C90 C 0.88307 0.78225 0.15923
 C91 C 0.91264 0.81136 0.12238
 C92 C 0.88344 0.86553 0.10148
 C93 C 0.82501 0.89112 0.11861
 C94 C 0.79643 0.86332 0.15628
 C95 C 0.79247 0.77624 0.21586
 C96 C 0.72408 0.77718 0.22059
 C97 C 0.69389 0.74760 0.25700
 C98 C 0.73093 0.71439 0.28921
 C99 C 0.79931 0.71294 0.28432
 C100 C 0.82967 0.74414 0.24850
 C101 C 0.69824 0.68195 0.32768
 C102 C 0.72939 0.67787 0.36916
 C103 C 0.69769 0.64910 0.40540
 C104 C 0.63362 0.62556 0.40123
 C105 C 0.60255 0.62884 0.36001
 C106 C 0.63481 0.65574 0.32349
 H107 H 0.90564 0.73886 0.17325
 H108 H 0.95757 0.79045 0.10954
 H109 H 0.80191 0.93326 0.10321
 H110 H 0.75248 0.88578 0.16935
 H111 H 0.69335 0.80013 0.19593
 H112 H 0.64132 0.75136 0.25988
 H113 H 0.82969 0.68717 0.30790
 H114 H 0.88247 0.74325 0.24670
 H115 H 0.77761 0.69840 0.37413
 H116 H 0.72235 0.64739 0.43707
 H117 H 0.55329 0.61018 0.35599
 H118 H 0.60978 0.65583 0.29198
 C119 C 0.80126 0.18544 0.82851
 C120 C 0.76904 0.17800 0.86953
 C121 C 0.80089 0.14916 0.90555
 C122 C 0.86609 0.12879 0.90163
 C123 C 0.89826 0.13547 0.86083
 C124 C 0.86598 0.16256 0.82452
 C125 C 0.76822 0.21772 0.79027
 C126 C 0.80451 0.25440 0.75922
 C127 C 0.77408 0.28358 0.72288
 C128 C 0.70610 0.27858 0.71705
 C129 C 0.66955 0.24309 0.74861
 C130 C 0.70025 0.21244 0.78438
 C131 C 0.67385 0.30926 0.67791
 C132 C 0.61812 0.28019 0.65882
 C133 C 0.58863 0.30822 0.62169
 C134 C 0.61524 0.36482 0.60202
 C135 C 0.67067 0.39412 0.62076
 C136 C 0.69913 0.36722 0.65866
 H137 H 0.71973 0.19589 0.87432
 H138 H 0.77529 0.14481 0.93686
 H139 H 0.94842 0.11931 0.85695
 H140 H 0.89196 0.16535 0.79332
 H141 H 0.85666 0.26110 0.76294
 H142 H 0.80434 0.30934 0.69908
 H143 H 0.61699 0.23902 0.74594
 H144 H 0.67052 0.18400 0.80708
 H145 H 0.59783 0.23493 0.67187
 H146 H 0.54596 0.28461 0.60763
 H147 H 0.69140 0.43842 0.60645
 H148 H 0.74073 0.39226 0.67292
 C149 C 0.18168 0.81707 0.81790
 C150 C 0.21950 0.85111 0.84929
 C151 C 0.19027 0.87848 0.88694
 C152 C 0.12269 0.87224 0.89394
 C153 C 0.08475 0.83933 0.86215
 C154 C 0.11391 0.81199 0.82458
 C155 C 0.21281 0.78614 0.77863
 C156 C 0.19282 0.72348 0.76411
 C157 C 0.22277 0.69383 0.72756
 C158 C 0.27344 0.72616 0.70481
 C159 C 0.29303 0.78905 0.71910
 C160 C 0.26306 0.81871 0.75561
 C161 C 0.30661 0.69410 0.66677
 C162 C 0.37479 0.69841 0.66220
 C163 C 0.40634 0.66920 0.62623
 C164 C 0.37043 0.63513 0.59390
 C165 C 0.30234 0.62995 0.59866
 C166 C 0.27070 0.65914 0.63481
 H167 H 0.27193 0.85536 0.84523
 H168 H 0.22067 0.90381 0.91081
 H169 H 0.03243 0.83447 0.86635
 H170 H 0.08333 0.78715 0.80060
 H171 H 0.15489 0.69674 0.78158
 H172 H 0.20728 0.64498 0.71768
 H173 H 0.33121 0.81562 0.70175
 H174 H 0.27876 0.86746 0.76556
 H175 H 0.40388 0.72394 0.68671
 H176 H 0.45899 0.67356 0.62368
 H177 H 0.27353 0.60374 0.57431
 H178 H 0.21804 0.65536 0.63736
 C179 C 0.17810 0.19088 0.82227
 C180 C 0.14369 0.22741 0.85429
 C181 C 0.11632 0.19630 0.89137
 C182 C 0.12270 0.12766 0.89732
 C183 C 0.15587 0.09116 0.86438
 C184 C 0.18319 0.12238 0.82755
 C185 C 0.20951 0.22384 0.78372
 C186 C 0.27192 0.20421 0.76927
 C187 C 0.30140 0.23435 0.73271
 C188 C 0.26919 0.28487 0.70964
 C189 C 0.20690 0.30480 0.72424
 C190 C 0.17743 0.27469 0.76090
 C191 C 0.30045 0.31655 0.67050
 C192 C 0.29494 0.38481 0.66365
 C193 C 0.32401 0.41456 0.62679
 C194 C 0.35922 0.37673 0.59586
 C195 C 0.36520 0.30859 0.60279
 C196 C 0.33609 0.27881 0.63968
 H197 H 0.13923 0.28037 0.85122
 H198 H 0.09095 0.22636 0.91559
 H199 H 0.16149 0.03820 0.86707
 H200 H 0.20824 0.09269 0.80300
 H201 H 0.29842 0.16601 0.78663
 H202 H 0.34989 0.21868 0.72286
 H203 H 0.18036 0.34292 0.70683
 H204 H 0.12899 0.29033 0.77088
 H205 H 0.26877 0.41544 0.68710
 H206 H 0.31890 0.46731 0.62253
 H207 H 0.39214 0.27821 0.57958
 H208 H 0.34067 0.22601 0.64373
 C209 C 0.80299 0.81131 0.82961
 C210 C 0.77733 0.87011 0.84730
 C211 C 0.80703 0.90091 0.88336
 C212 C 0.86199 0.87278 0.90357
 C213 C 0.88703 0.81344 0.88688
 C214 C 0.85850 0.78353 0.84992
 C215 C 0.77197 0.77944 0.79028
 C216 C 0.77384 0.71065 0.78457
 C217 C 0.74512 0.68104 0.74762
 C218 C 0.71209 0.71906 0.71576
 C219 C 0.70962 0.78776 0.72174
 C220 C 0.73985 0.81753 0.75804
 C221 C 0.68090 0.68731 0.67645
 C222 C 0.67641 0.72091 0.63570
 C223 C 0.64795 0.69082 0.59882
 C224 C 0.62502 0.62585 0.60145
 C225 C 0.62914 0.59210 0.64186
 C226 C 0.65587 0.62273 0.67908
 H227 H 0.73374 0.89233 0.83371
 H228 H 0.78632 0.94639 0.89588
 H229 H 0.92956 0.79093 0.90182
 H230 H 0.88078 0.73919 0.83697
 H231 H 0.79698 0.67921 0.80881
 H232 H 0.74953 0.62820 0.74402
 H233 H 0.68386 0.81896 0.69859
 H234 H 0.73828 0.87068 0.76044
 H235 H 0.69620 0.76999 0.63178
 H236 H 0.64580 0.71761 0.56784
 H237 H 0.61113 0.54206 0.64475
 H238 H 0.65651 0.59564 0.70992
 C239 C 0.19946 0.81624 0.16792
 C240 C 0.20545 0.88455 0.16141
 C241 C 0.17615 0.91496 0.12503
 C242 C 0.14019 0.87777 0.09429
 C243 C 0.13367 0.80958 0.10093
 C244 C 0.16308 0.77912 0.13732
 C245 C 0.23126 0.78392 0.20642
 C246 C 0.26246 0.72265 0.20156
 C247 C 0.29239 0.69227 0.23776
 C248 C 0.29175 0.72238 0.27970
 C249 C 0.26078 0.78379 0.28451
 C250 C 0.23091 0.81420 0.24830
 C251 C 0.32200 0.68925 0.31849
 C252 C 0.35687 0.72567 0.35027
 C253 C 0.38349 0.69457 0.38743
 C254 C 0.37568 0.62644 0.39361
 C255 C 0.34175 0.58986 0.36151
 C256 C 0.31517 0.62090 0.32443
 H257 H 0.23372 0.91440 0.18408
 H258 H 0.18201 0.96765 0.12085
 H259 H 0.10582 0.77975 0.07799
 H260 H 0.15676 0.72657 0.14180
 H261 H 0.26453 0.69859 0.16958
 H262 H 0.31669 0.64547 0.23278
 H263 H 0.25843 0.80776 0.31651
 H264 H 0.20648 0.86094 0.25327
 H265 H 0.36384 0.77822 0.34630
 H266 H 0.40980 0.72392 0.41145
 H267 H 0.33493 0.53722 0.36532
 H268 H 0.28796 0.59153 0.30090
 C269 C 0.82241 0.18592 0.17572
 C270 C 0.83046 0.11708 0.17374
 C271 C 0.85580 0.08678 0.13595
 C272 C 0.87676 0.12437 0.09932
 C273 C 0.87212 0.19348 0.10208
 C274 C 0.84400 0.22362 0.13925
 C275 C 0.79098 0.21766 0.21530
 C276 C 0.80420 0.28362 0.22659
 C277 C 0.77365 0.31335 0.26295
 C278 C 0.73075 0.27748 0.29049
 C279 C 0.71843 0.21119 0.27961
 C280 C 0.74686 0.18231 0.24223
 C281 C 0.69916 0.30890 0.33013
 C282 C 0.63926 0.28520 0.34723
 C283 C 0.61035 0.31431 0.38444
 C284 C 0.63884 0.36966 0.40424
 C285 C 0.69807 0.39389 0.38738
 C286 C 0.72851 0.36316 0.35143
 H287 H 0.81754 0.08588 0.20142
 H288 H 0.86006 0.03358 0.13597
 H289 H 0.88769 0.22446 0.07478
 H290 H 0.83800 0.27651 0.13857
 H291 H 0.83854 0.31282 0.20767
 H292 H 0.78370 0.36486 0.26895
 H293 H 0.68711 0.18076 0.29998
 H294 H 0.73334 0.13211 0.23455
 H295 H 0.61365 0.24482 0.33168
 H296 H 0.56477 0.29462 0.39704
 H297 H 0.72150 0.43610 0.40253
 H298 H 0.77543 0.38203 0.34085
   
