data_POSCAR
  _audit_creation_date              2014-09-24
  _audit_creation_method            'ToBaCCo'
  _symmetry_space_group_name_H-M    'P1'
  _symmetry_Int_Tables_number       1
  _symmetry_cell_setting            triclinic
  loop_
  _symmetry_equiv_pos_as_xyz
 x,y,z
_cell_length_a 24.6412
_cell_length_b 25.2086
_cell_length_c 25.0986
_cell_angle_alpha 88.329900
_cell_angle_beta 89.833700
_cell_angle_gamma 88.996600
loop_
  _atom_site_label
  _atom_site_type_symbol
  _atom_site_fract_x
  _atom_site_fract_y
  _atom_site_fract_z
C1 C 0.21760 0.19563 0.27774
 C2 C 0.18827 0.24067 0.25809
 C3 C 0.20286 0.26665 0.21022
 C4 C 0.24805 0.24878 0.18188
 C5 C 0.27502 0.20114 0.19707
 C6 C 0.26155 0.17682 0.24672
 H7 H 0.15017 0.25223 0.27644
 H8 H 0.25881 0.26947 0.14497
 H9 H 0.28339 0.14119 0.25972
 C10 C -0.18487 0.79679 0.26994
 C11 C -0.16145 0.75367 0.24391
 C12 C -0.18671 0.73292 0.19923
 C13 C -0.23621 0.75532 0.18128
 C14 C -0.26114 0.79656 0.20888
 C15 C -0.23749 0.81401 0.25593
 H16 H -0.12113 0.73971 0.25529
 H17 H -0.25224 0.74461 0.14294
 H18 H -0.25489 0.84872 0.27458
 C19 C -0.20880 0.20630 -0.28690
 C20 C -0.24165 0.17626 -0.25168
 C21 C -0.24988 0.19113 -0.19909
 C22 C -0.22426 0.23559 -0.18007
 C23 C -0.19155 0.26653 -0.21406
 C24 C -0.18795 0.25416 -0.26832
 H25 H -0.25695 0.13813 -0.26258
 H26 H -0.22763 0.24426 -0.13814
 H27 H -0.16497 0.27988 -0.29492
 C28 C 0.20030 0.82008 -0.25462
 C29 C 0.17852 0.77026 -0.24126
 C30 C 0.19935 0.73955 -0.19834
 C31 C 0.24771 0.75402 -0.17415
 C32 C 0.26947 0.80415 -0.18572
 C33 C 0.24509 0.83692 -0.22527
 H34 H 0.14218 0.75709 -0.26078
 H35 H 0.26477 0.72899 -0.14239
 H36 H 0.25909 0.87726 -0.23051
 C37 C 0.20938 1.20958 0.69286
 C38 C 0.25608 1.18399 0.71660
 C39 C 0.27504 1.19732 0.76736
 C40 C 0.25026 1.23901 0.79404
 C41 C 0.20405 1.26400 0.77331
 C42 C 0.18264 1.24782 0.72469
 H43 H 0.27720 1.15141 0.69852
 H44 H 0.26341 1.24818 0.83389
 H45 H 0.14211 1.26199 0.71589
 C46 C 0.82522 0.81011 0.75277
 C47 C 0.83438 0.75516 0.76115
 C48 C 0.81133 0.72706 0.80555
 C49 C 0.77313 0.75486 0.83685
 C50 C 0.75906 0.80810 0.82555
 C51 C 0.78528 0.83537 0.78376
 H52 H 0.86236 0.73547 0.73468
 H53 H 0.75616 0.73690 0.87256
 H54 H 0.77527 0.87695 0.77604
 C55 C 0.16245 0.80003 1.25689
 C56 C 0.14085 0.75770 1.22779
 C57 C 0.16568 0.74138 1.17950
 C58 C 0.21218 0.76818 1.16090
 C59 C 0.22970 0.81388 1.18530
 C60 C 0.20605 0.82814 1.23354
 H61 H 0.10584 0.73672 1.24295
 H62 H 0.23288 0.75553 1.12520
 H63 H 0.22001 0.86416 1.25116
 C64 C 0.77484 1.21680 1.28421
 C65 C 0.73167 1.19029 1.25999
 C66 C 0.72120 1.19652 1.20462
 C67 C 0.75143 1.23386 1.17482
 C68 C 0.78897 1.26592 1.19967
 C69 C 0.79754 1.25931 1.25480
 H70 H 0.70920 1.16120 1.28265
 H71 H 0.74694 1.23726 1.13196
 H72 H 0.82554 1.28522 1.27407
 O73 O 0.56187 0.95571 0.90530
 O74 O 0.43804 0.93770 1.07151
 O75 O 0.62458 0.97986 1.06251
 O76 O 0.41410 0.93735 0.97237
 O77 O 0.54780 0.93644 1.08218
 O78 O 0.45649 0.95535 0.89728
 O79 O 0.36497 0.98278 1.04110
 O80 O 0.59231 0.93653 0.98556
 C81 C 0.59227 0.92762 0.93633
 C82 C 0.38624 0.94765 1.07501
 C83 C 0.59904 0.94470 1.09216
 C84 C 0.42430 0.92632 0.92480
 O85 O 0.45833 1.06212 0.90165
 O86 O 0.53730 1.03667 1.10706
 O87 O 0.62011 1.02927 0.96179
 O88 O 0.41524 1.07104 1.02127
 O89 O 0.44035 1.03984 1.09622
 O90 O 0.55716 1.06113 0.90914
 O91 O 0.38675 1.02932 0.93874
 O92 O 0.57727 1.06953 1.04017
 Co93 Co 0.50749 1.00796 0.91090
 Co94 Co 0.49150 0.98859 1.08062
 Co95 Co 0.57765 1.00233 1.01422
 Co96 Co 0.41990 1.00367 0.99954
 O97 O 0.49996 1.00541 0.99511
 C98 C 0.40793 1.06136 0.90602
 C99 C 0.56715 1.07155 1.08840
 C100 C 0.60588 1.05853 0.92316
 C101 C 0.41797 1.07686 1.06965
 O102 O 0.02949 0.43909 0.09939
 O103 O 0.07303 0.54207 -0.08209
 O104 O 0.03881 0.38020 -0.06161
 O105 O 0.06507 0.56960 0.01537
 O106 O 0.08207 0.44765 -0.08711
 O107 O 0.04486 0.53650 0.09048
 O108 O 0.01803 0.60281 -0.06476
 O109 O 0.05297 0.38447 0.03587
 C110 C 0.05598 0.39880 0.08326
 C111 C 0.05916 0.58955 -0.08946
 C112 C 0.07581 0.39893 -0.08857
 C113 C 0.07426 0.56689 0.06362
 O114 O -0.06189 0.55132 0.06393
 O115 O -0.02404 0.44142 -0.11574
 O116 O -0.04967 0.38671 0.04894
 O117 O -0.07233 0.56354 -0.03642
 O118 O -0.03495 0.53601 -0.10926
 O119 O -0.07769 0.46126 0.07634
 O120 O -0.02428 0.62106 0.02775
 O121 O -0.06360 0.39550 -0.05181
 Co122 Co -0.01377 0.49585 0.07421
 Co123 Co 0.02242 0.49141 -0.09141
 Co124 Co -0.00470 0.39651 -0.00753
 Co125 Co -0.00376 0.56284 -0.00768
 O126 O 0.00248 0.48321 -0.00993
 C127 C -0.05672 0.60107 0.06357
 C128 C -0.06023 0.40982 -0.10001
 C129 C -0.08076 0.41265 0.07736
 C130 C -0.07399 0.55912 -0.08614
 O131 O 1.11035 0.02183 0.44186
 O132 O 0.88707 0.04885 0.53554
 O133 O 0.95392 0.08493 0.41564
 O134 O 1.03745 0.08815 0.55839
 O135 O 0.88596 0.03732 0.43684
 O136 O 1.10752 0.04674 0.53533
 O137 O 0.95033 0.05606 0.59724
 O138 O 1.04865 0.07831 0.42716
 C139 C 1.09716 0.06677 0.42444
 C140 C 0.90375 0.06736 0.57857
 C141 C 0.90376 0.08071 0.41941
 C142 C 1.08690 0.08858 0.55206
 O143 O 1.07234 -0.04911 0.56494
 O144 O 0.91325 -0.06361 0.45077
 O145 O 1.04757 -0.02764 0.39384
 O146 O 0.97893 -0.04114 0.59639
 O147 O 0.90438 -0.05205 0.55194
 O148 O 1.07058 -0.07246 0.46620
 O149 O 1.05332 0.00941 0.62747
 O150 O 0.94937 -0.01767 0.38560
 Co151 Co 1.08141 -0.01132 0.50148
 Co152 Co 0.90712 -0.00645 0.49350
 Co153 Co 1.00036 0.02798 0.41200
 Co154 Co 1.00976 0.02136 0.57033
 O155 O 0.99445 0.00891 0.49247
 C156 C 1.08207 -0.03212 0.61179
 C157 C 0.92460 -0.05848 0.40241
 C158 C 1.06653 -0.06990 0.41620
 C159 C 0.93295 -0.06131 0.59242
 C160 C 1.16869 0.07813 0.35627
 C161 C 1.19856 0.10926 0.32043
 C162 C 1.19726 0.16526 0.32216
 C163 C 1.16958 0.18873 0.36590
 C164 C 1.13664 0.15711 0.40039
 C165 C 1.13526 0.10140 0.39447
 C166 C 1.10724 0.18237 0.44078
 N167 N 1.11326 0.23493 0.44842
 N168 N 1.14679 0.26393 0.41840
 C169 C 1.17550 0.24260 0.37791
 H170 H 1.16853 0.03555 0.35137
 H171 H 1.21858 0.08878 0.28839
 H172 H 1.08033 0.16077 0.46702
 H173 H 1.20346 0.26774 0.35610
 C174 C 0.85556 -0.12492 0.38412
 C175 C 0.82849 -0.15987 0.35248
 C176 C 0.84685 -0.17040 0.30118
 C177 C 0.89285 -0.14273 0.28041
 C178 C 0.91999 -0.10581 0.31251
 C179 C 0.90117 -0.09712 0.36537
 C180 C 0.96488 -0.07911 0.29007
 N181 N 0.98037 -0.08762 0.23921
 N182 N 0.95393 -0.12064 0.20870
 C183 C 0.91079 -0.14806 0.22731
 H184 H 0.83926 -0.11863 0.42361
 H185 H 0.79285 -0.17934 0.36854
 H186 H 0.98929 -0.05274 0.31213
 H187 H 0.89066 -0.17277 0.19969
 C188 C 0.89542 0.15187 0.62423
 C189 C 0.86709 0.18950 0.65312
 C190 C 0.81187 0.18278 0.66611
 C191 C 0.78335 0.14310 0.63894
 C192 C 0.81248 0.10320 0.61158
 C193 C 0.86963 0.10700 0.60579
 C194 C 0.78306 0.06036 0.59246
 N195 N 0.72807 0.06107 0.59493
 N196 N 0.70052 0.10124 0.61604
 C197 C 0.72627 0.14239 0.63784
 H198 H 0.93857 0.15699 0.61787
 H199 H 0.89077 0.22067 0.66943
 H200 H 0.80286 0.02611 0.57610
 H201 H 0.70215 0.17415 0.65456
 C202 C 1.08704 -0.10252 0.68134
 C203 C 1.11574 -0.14090 0.71124
 C204 C 1.17302 -0.14419 0.70954
 C205 C 1.20105 -0.10796 0.67506
 C206 C 1.17164 -0.06710 0.64732
 C207 C 1.11432 -0.06538 0.64947
 C208 C 1.20069 -0.02939 0.61735
 N209 N 1.25515 -0.03479 0.61143
 N210 N 1.28241 -0.07572 0.63361
 C211 C 1.25722 -0.11280 0.66456
 H212 H 1.04306 -0.10212 0.68274
 H213 H 1.09249 -0.16673 0.73749
 H214 H 1.18021 0.00403 0.59858
 H215 H 1.28125 -0.14610 0.67982
 C216 C 0.39583 1.12418 1.15181
 C217 C 0.35949 1.15203 1.18343
 C218 C 0.31207 1.17588 1.16197
 C219 C 0.30317 1.17266 1.10575
 C220 C 0.34352 1.14911 1.07280
 C221 C 0.38769 1.12021 1.09682
 C222 C 0.33641 1.15351 1.01706
 N223 N 0.28914 1.17289 0.99642
 N224 N 0.24842 1.18811 1.02759
 C225 C 0.25343 1.18783 1.08132
 H226 H 0.42983 1.10380 1.17114
 H227 H 0.36865 1.15441 1.22547
 H228 H 0.36799 1.14332 0.98931
 H229 H 0.21784 1.19821 1.10405
 C230 C 0.39574 0.87921 0.84445
 C231 C 0.35701 0.85041 0.81801
 C232 C 0.31445 0.82575 0.84598
 C233 C 0.31451 0.82576 0.90260
 C234 C 0.35790 0.84970 0.92946
 C235 C 0.39502 0.88200 0.90012
 C236 C 0.36162 0.84126 0.98501
 N237 N 0.32092 0.81708 1.01217
 N238 N 0.27685 0.80061 0.98757
 C239 C 0.27191 0.80468 0.93386
 H240 H 0.42442 0.90197 0.82078
 H241 H 0.35824 0.85030 0.77484
 H242 H 0.39705 0.85226 1.00699
 H243 H 0.23443 0.79193 0.91675
 C244 C 0.61394 0.85989 1.14462
 C245 C 0.64823 0.82288 1.17089
 C246 C 0.70288 0.83435 1.17924
 C247 C 0.72335 0.88387 1.16157
 C248 C 0.68762 0.92350 1.14092
 C249 C 0.63291 0.91010 1.12845
 C250 C 0.70873 0.97506 1.13372
 N251 N 0.76241 0.98378 1.13972
 N252 N 0.79686 0.94467 1.15330
 C253 C 0.77918 0.89505 1.16414
 H254 H 0.57271 0.84877 1.13594
 H255 H 0.63240 0.78484 1.18393
 H256 H 0.68349 1.00923 1.12508
 H257 H 0.80894 0.86478 1.17440
 C258 C 0.63204 1.14404 0.88223
 C259 C 0.66743 1.17665 0.85392
 C260 C 0.71779 1.15708 0.83698
 C261 C 0.73387 1.10414 0.85032
 C262 C 0.69761 1.07054 0.87858
 C263 C 0.64621 1.09105 0.89464
 C264 C 0.71362 1.01711 0.88789
 N265 N 0.76328 0.99971 0.87195
 N266 N 0.79801 1.03188 0.84709
 C267 C 0.78507 1.08345 0.83579
 H268 H 0.59298 1.16021 0.89422
 H269 H 0.65475 1.21704 0.84365
 H270 H 0.68729 0.98866 0.90700
 H271 H 0.81497 1.10779 0.81567
 C272 C 0.13269 0.38781 0.14758
 C273 C 0.16886 0.35572 0.17767
 C274 C 0.16228 0.30059 0.18159
 C275 C 0.11798 0.27734 0.15577
 C276 C 0.08069 0.30990 0.12655
 C277 C 0.08925 0.36541 0.12074
 C278 C 0.03506 0.28568 0.10495
 N279 N 0.02912 0.23242 0.10948
 N280 N 0.06572 0.20148 0.13456
 C281 C 0.10988 0.22201 0.15783
 H282 H 0.13972 0.43005 0.14369
 H283 H 0.20284 0.37378 0.19703
 H284 H 0.00280 0.30879 0.08686
 H285 H 0.13800 0.19474 0.17769
 C286 C -0.14967 0.37806 -0.12689
 C287 C -0.18112 0.34251 -0.15414
 C288 C -0.15746 0.30843 -0.19128
 C289 C -0.10136 0.31365 -0.20373
 C290 C -0.07175 0.35549 -0.18204
 C291 C -0.09470 0.38408 -0.13928
 C292 C -0.01892 0.36444 -0.20179
 N293 N 0.00438 0.32998 -0.23581
 N294 N -0.02105 0.28674 -0.25058
 C295 C -0.07254 0.27681 -0.23466
 H296 H -0.16799 0.40004 -0.09479
 H297 H -0.22374 0.33964 -0.14399
 H298 H 0.00463 0.39783 -0.19063
 H299 H -0.08961 0.23951 -0.24503
 C300 C 0.14231 0.61244 -0.14051
 C301 C 0.17713 0.64838 -0.16559
 C302 C 0.16285 0.70216 -0.17024
 C303 C 0.11269 0.72033 -0.14906
 C304 C 0.07495 0.68337 -0.12825
 C305 C 0.09135 0.62887 -0.12101
 C306 C 0.02252 0.70320 -0.11561
 N307 N 0.01161 0.75607 -0.11770
 N308 N 0.04909 0.79092 -0.13211
 C309 C 0.09923 0.77495 -0.14757
 H310 H 0.15566 0.57140 -0.13595
 H311 H 0.21566 0.63425 -0.18108
 H312 H -0.01092 0.67820 -0.10561
 H313 H 0.12808 0.80527 -0.15817
 C314 C -0.07260 0.68062 0.11503
 C315 C -0.10312 0.71127 0.14933
 C316 C -0.15569 0.69657 0.16479
 C317 C -0.17827 0.65023 0.14407
 C318 C -0.14813 0.62023 0.10694
 C319 C -0.09389 0.63470 0.09428
 C320 C -0.17410 0.57752 0.08312
 N321 N -0.22472 0.56368 0.09883
 N322 N -0.25145 0.58978 0.13633
 C323 C -0.22996 0.63245 0.15957
 H324 H -0.03148 0.69234 0.10554
 H325 H -0.08520 0.74689 0.16384
 H326 H -0.15568 0.55567 0.05131
 H327 H -0.25344 0.65184 0.19003
 C328 C 1.17664 0.11822 0.58283
 C329 C 1.20749 0.14683 0.61802
 C330 C 1.18580 0.19180 0.64352
 C331 C 1.13760 0.21442 0.61921
 C332 C 1.10326 0.18212 0.58831
 C333 C 1.12189 0.13106 0.57346
 C334 C 1.05356 0.20398 0.57001
 N335 N 1.04185 0.25604 0.57700
 N336 N 1.07664 0.28767 0.60044
 C337 C 1.12454 0.26894 0.62043
 H338 H 1.19521 0.08360 0.56557
 H339 H 1.24775 0.13126 0.62558
 H340 H 1.02527 0.18152 0.54741
 H341 H 1.15272 0.29711 0.63575
 C342 C 0.89039 -0.14583 0.62452
 C343 C 0.86464 -0.17746 0.66354
 C344 C 0.85731 -0.15992 0.71591
 C345 C 0.88148 -0.11123 0.72973
 C346 C 0.90643 -0.07862 0.68980
 C347 C 0.91112 -0.09610 0.63649
 C348 C 0.92481 -0.02870 0.70473
 N349 N 0.92322 -0.01460 0.75637
 N350 N 0.90421 -0.04704 0.79443
 C351 C 0.88383 -0.09491 0.78304
 H352 H 0.89312 -0.15988 0.58420
 H353 H 0.84747 -0.21457 0.65168
 H354 H 0.94012 -0.00053 0.67614
 H355 H 0.87060 -0.12000 0.81601
 C356 C 1.06018 -0.14560 0.35289
 C357 C 1.08297 -0.17859 0.31393
 C358 C 1.13965 -0.18125 0.30576
 C359 C 1.17262 -0.15628 0.34387
 C360 C 1.14981 -0.11758 0.37756
 C361 C 1.09255 -0.11178 0.38247
 C362 C 1.18592 -0.08510 0.40400
 N363 N 1.23989 -0.09654 0.40444
 N364 N 1.26037 -0.13785 0.37888
 C365 C 1.22850 -0.16836 0.34888
 H366 H 1.01671 -0.14469 0.35829
 H367 H 1.05566 -0.19867 0.28785
 H368 H 1.17209 -0.04997 0.42262
 H369 H 1.24704 -0.20115 0.32821
 C370 C 0.89096 0.16225 0.36304
 C371 C 0.85973 0.19744 0.33194
 C372 C 0.80255 0.19450 0.33021
 C373 C 0.77755 0.16269 0.37095
 C374 C 0.80970 0.12711 0.40387
 C375 C 0.86705 0.12362 0.39619
 C376 C 0.78329 0.09849 0.44496
 N377 N 0.72918 0.10507 0.45283
 N378 N 0.69958 0.13904 0.42300
 C379 C 0.72202 0.16855 0.38300
 H380 H 0.93465 0.16356 0.35839
 H381 H 0.88209 0.22321 0.30535
 H382 H 0.80514 0.07318 0.47283
 H383 H 0.69668 0.19791 0.36234
 C384 C 0.15465 0.38150 -0.14870
 C385 C 0.18573 0.34935 -0.18192
 C386 C 0.17077 0.29711 -0.19103
 C387 C 0.12417 0.27628 -0.16600
 C388 C 0.09014 0.30954 -0.13523
 C389 C 0.10689 0.36284 -0.12455
 C390 C 0.04002 0.28775 -0.11831
 N391 N 0.02869 0.23623 -0.12640
 N392 N 0.06318 0.20434 -0.15128
 C393 C 0.11037 0.22259 -0.17150
 H394 H 0.16809 0.42143 -0.14194
 H395 H 0.22193 0.36526 -0.20052
 H396 H 0.00745 0.31072 -0.10209
 H397 H 0.13650 0.19483 -0.19183
 C398 C -0.17112 0.37704 0.10240
 C399 C -0.20182 0.33890 0.13013
 C400 C -0.17721 0.30377 0.16783
 C401 C -0.12092 0.30818 0.17766
 C402 C -0.09290 0.35220 0.15665
 C403 C -0.11643 0.38389 0.11515
 C404 C -0.04157 0.36244 0.17766
 N405 N -0.01686 0.32628 0.21097
 N406 N -0.04009 0.28038 0.22388
 C407 C -0.09093 0.26965 0.20727
 H408 H -0.18978 0.40060 0.07041
 H409 H -0.24467 0.33616 0.12137
 H410 H -0.02166 0.39916 0.16877
 H411 H -0.10749 0.23119 0.21695
 C412 C -0.08606 0.62173 -0.16141
 C413 C -0.11315 0.66288 -0.18832
 C414 C -0.16775 0.67596 -0.17682
 C415 C -0.19620 0.63979 -0.14181
 C416 C -0.16683 0.60052 -0.11091
 C417 C -0.11073 0.59309 -0.11962
 C418 C -0.19523 0.56812 -0.07442
 N419 N -0.25008 0.57210 -0.07159
 N420 N -0.27814 0.60591 -0.10313
 C421 C -0.25323 0.63908 -0.13864
 H422 H -0.04338 0.61561 -0.17036
 H423 H -0.08823 0.68714 -0.21433
 H424 H -0.17454 0.53841 -0.04960
 H425 H -0.27828 0.66382 -0.16492
 C426 C 0.11220 0.60504 0.14629
 C427 C 0.13003 0.64873 0.17437
 C428 C 0.14400 0.69641 0.14782
 C429 C 0.14143 0.69845 0.09102
 C430 C 0.13024 0.65182 0.06256
 C431 C 0.11040 0.60589 0.09017
 C432 C 0.13848 0.65360 0.00705
 N433 N 0.14911 0.70027 -0.01872
 N434 N 0.15241 0.74529 0.00731
 C435 C 0.14839 0.74608 0.06113
 H436 H 0.09791 0.57082 0.16896
 H437 H 0.13197 0.64542 0.21744
 H438 H 0.13850 0.61819 -0.01594
 H439 H 0.15036 0.78403 0.07987
 C440 C 0.32925 1.07844 0.84615
 C441 C 0.29954 1.11010 0.80972
 C442 C 0.31433 1.16262 0.79767
 C443 C 0.36072 1.18320 0.82251
 C444 C 0.39014 1.15160 0.86070
 C445 C 0.37467 1.09828 0.87191
 C446 C 0.43326 1.17531 0.88748
 N447 N 0.44750 1.22578 0.87449
 N448 N 0.42140 1.25442 0.83694
 C449 C 0.37857 1.23490 0.81053
 H450 H 0.31695 1.03788 0.85390
 H451 H 0.26357 1.09395 0.79201
 H452 H 0.45521 1.15491 0.91935
 H453 H 0.35898 1.25989 0.78028
 C454 C 0.36047 0.86236 1.12132
 C455 C 0.32153 0.82968 1.14551
 C456 C 0.26982 0.84972 1.15868
 C457 C 0.25792 0.90445 1.14841
 C458 C 0.29871 0.93821 1.12748
 C459 C 0.34909 0.91626 1.11016
 C460 C 0.28756 0.99330 1.12497
 N461 N 0.23737 1.01223 1.13706
 N462 N 0.19761 0.97995 1.15190
 C463 C 0.20599 0.92682 1.15762
 H464 H 0.39891 0.84486 1.10939
 H465 H 0.33158 0.78819 1.15335
 H466 H 0.31840 1.02170 1.11459
 H467 H 0.17179 0.90277 1.16902
 C468 C 0.61203 1.15666 1.10689
 C469 C 0.64979 1.18604 1.13447
 C470 C 0.68029 1.16314 1.17701
 C471 C 0.66945 1.10971 1.19290
 C472 C 0.62368 1.08406 1.17194
 C473 C 0.59841 1.10549 1.12461
 C474 C 0.60778 1.03613 1.19765
 N475 N 0.64005 1.01228 1.23520
 N476 N 0.68742 1.03254 1.24844
 C477 C 0.70383 1.07969 1.22750
 H478 H 0.59301 1.17417 1.07154
 H479 H 0.65601 1.22672 1.12124
 H480 H 0.57039 1.01699 1.18921
 H481 H 0.74384 1.09284 1.23777
 C482 C 0.63038 0.88384 0.85706
 C483 C 0.67196 0.85791 0.83012
 C484 C 0.71649 0.83553 0.85746
 C485 C 0.71781 0.83772 0.91392
 C486 C 0.67334 0.86081 0.94199
 C487 C 0.63070 0.88766 0.91289
 C488 C 0.67386 0.85585 0.99809
 N489 N 0.71783 0.83473 1.02380
 N490 N 0.76131 0.81761 0.99742
 C491 C 0.76288 0.81854 0.94346
 H492 H 0.59844 0.90268 0.83333
 H493 H 0.66972 0.85605 0.78710
 H494 H 0.63932 0.86613 1.02209
 H495 H 0.79951 0.80451 0.92428
   
