data_POSCAR
  _audit_creation_date              2014-09-24
  _audit_creation_method            'ToBaCCo'
  _symmetry_space_group_name_H-M    'P1'
  _symmetry_Int_Tables_number       1
  _symmetry_cell_setting            triclinic
  loop_
  _symmetry_equiv_pos_as_xyz
 x,y,z
_cell_length_a 27.4946
_cell_length_b 27.5316
_cell_length_c 15.8972
_cell_angle_alpha 89.793400
_cell_angle_beta 90.003500
_cell_angle_gamma 90.123900
loop_
  _atom_site_label
  _atom_site_type_symbol
  _atom_site_fract_x
  _atom_site_fract_y
  _atom_site_fract_z
O1 O 0.27049 0.29620 0.35166
 O2 O 0.18926 0.20208 0.26611
 O3 O 0.26989 0.20158 0.35300
 O4 O 0.18979 0.29592 0.26538
 O5 O 0.23252 0.29592 0.14755
 O6 O 0.31270 0.20165 0.23531
 O7 O 0.23208 0.20133 0.14840
 O8 O 0.31312 0.29546 0.23375
 Cu9 Cu 0.22565 0.24894 0.32106
 Cu10 Cu 0.27682 0.24851 0.17925
 C11 C 0.30576 0.31151 0.30734
 C12 C 0.19667 0.18612 0.19246
 C13 C 0.30515 0.18595 0.30931
 C14 C 0.19739 0.31163 0.19143
 O15 O 0.76873 0.20229 0.15062
 O16 O 0.68810 0.29690 0.23535
 O17 O 0.76877 0.29686 0.14891
 O18 O 0.68728 0.20308 0.23483
 O19 O 0.72912 0.20262 0.35355
 O20 O 0.81115 0.29627 0.26712
 O21 O 0.73047 0.29723 0.35356
 O22 O 0.81062 0.20245 0.26935
 Cu23 Cu 0.72406 0.24980 0.18037
 Cu24 Cu 0.77448 0.24964 0.32297
 C25 C 0.80361 0.18668 0.19547
 C26 C 0.69548 0.31282 0.30908
 C27 C 0.80401 0.31212 0.19310
 C28 C 0.69402 0.18728 0.30896
 O29 O 0.73222 0.79858 0.64867
 O30 O 0.81309 0.70450 0.73440
 O31 O 0.73246 0.70403 0.64802
 O32 O 0.81244 0.79828 0.73649
 O33 O 0.76935 0.79760 0.85387
 O34 O 0.68955 0.70327 0.76566
 O35 O 0.77029 0.70301 0.85212
 O36 O 0.68909 0.79709 0.76604
 Cu37 Cu 0.77679 0.75148 0.67993
 Cu38 Cu 0.72534 0.75014 0.82142
 C39 C 0.69670 0.81343 0.69247
 C40 C 0.80569 0.68813 0.80798
 C41 C 0.69722 0.68800 0.69168
 C42 C 0.80469 0.81361 0.81046
 O43 O 0.18644 0.79616 0.73299
 O44 O 0.26743 0.70254 0.64713
 O45 O 0.18712 0.70233 0.73472
 O46 O 0.26721 0.79710 0.64701
 O47 O 0.30999 0.79718 0.76480
 O48 O 0.23011 0.70233 0.85222
 O49 O 0.31043 0.70339 0.76465
 O50 O 0.22914 0.79696 0.85083
 Cu51 Cu 0.22282 0.74947 0.67849
 Cu52 Cu 0.27413 0.75000 0.82014
 C53 C 0.19380 0.81212 0.80665
 C54 C 0.30291 0.68746 0.69099
 C55 C 0.19483 0.68654 0.80862
 C56 C 0.30241 0.81288 0.69088
 O57 O 1.04635 -0.06183 0.01748
 O58 O 0.95198 0.01817 0.10441
 O59 O 0.95243 -0.06263 0.01916
 O60 O 1.04675 0.01901 0.10278
 O61 O 1.04540 0.06126 -0.01573
 O62 O 0.95108 -0.02035 -0.09933
 O63 O 0.95140 0.06051 -0.01404
 O64 O 1.04573 -0.01950 -0.10098
 Cu65 Cu 0.99948 -0.02597 0.07306
 Cu66 Cu 0.99829 0.02467 -0.06957
 C67 C 1.06169 -0.05446 -0.05674
 C68 C 0.93599 0.05310 0.06012
 C69 C 0.93614 -0.05559 -0.05454
 C70 C 1.06177 0.05418 0.05790
 O71 O 0.54739 0.56261 0.48143
 O72 O 0.45282 0.48162 0.39727
 O73 O 0.45336 0.56274 0.48160
 O74 O 0.54741 0.48114 0.39801
 O75 O 0.54668 0.43964 0.51734
 O76 O 0.45259 0.52109 0.60076
 O77 O 0.45282 0.43989 0.51637
 O78 O 0.54738 0.52109 0.60074
 Cu79 Cu 0.50027 0.52616 0.42748
 Cu80 Cu 0.49982 0.47636 0.57099
 C81 C 0.56312 0.55583 0.55555
 C82 C 0.43719 0.44674 0.44220
 C83 C 0.43733 0.55594 0.55556
 C84 C 0.56259 0.44626 0.44328
 O85 O -0.04571 0.43787 -0.01734
 O86 O 0.04830 0.51996 -0.10185
 O87 O 0.04823 0.43820 -0.01820
 O88 O -0.04637 0.51916 -0.10206
 O89 O -0.04606 0.56058 0.01685
 O90 O 0.04855 0.47935 0.10098
 O91 O 0.04791 0.56112 0.01730
 O92 O -0.04616 0.47920 0.10164
 Cu93 Cu 0.00112 0.47473 -0.07198
 Cu94 Cu 0.00106 0.52413 0.07133
 C95 C -0.06155 0.44441 0.05671
 C96 C 0.06367 0.55473 -0.05681
 C97 C 0.06406 0.44474 0.05585
 C98 C -0.06193 0.55382 -0.05715
 O99 O 0.45317 1.06197 0.51729
 O100 O 0.54721 0.98030 0.60140
 O101 O 0.54718 1.06170 0.51653
 O102 O 0.45245 0.98024 0.60082
 O103 O 0.45261 0.93908 0.48166
 O104 O 0.54733 1.02025 0.39766
 O105 O 0.54659 0.93897 0.48243
 O106 O 0.45262 1.02078 0.39815
 Cu107 Cu 0.50004 1.02512 0.57115
 Cu108 Cu 0.49978 0.97570 0.42786
 C109 C 0.43727 1.05546 0.44327
 C110 C 0.56251 0.94555 0.55644
 C111 C 0.56299 1.05495 0.44251
 C112 C 0.43678 0.94564 0.55567
 C113 C 1.15148 0.07564 0.11474
 C114 C 1.16833 0.12351 0.07197
 C115 C 1.16215 0.14996 0.15634
 C116 C 1.14583 0.10262 0.19957
 C117 C 1.10919 0.16266 0.13454
 C118 C 1.11493 0.13582 0.04979
 C119 C 1.09856 0.08845 0.09297
 C120 C 1.09240 0.11493 0.17727
 H121 H 1.16844 0.03944 0.10611
 H122 H 1.19992 0.12731 0.02896
 H123 H 1.15895 0.08936 0.26155
 H124 H 1.09216 0.19884 0.14304
 H125 H 1.10192 0.14930 -0.01213
 H126 H 1.06074 0.11109 0.22013
 C127 C 0.65275 0.57735 0.61313
 C128 C 0.66964 0.62527 0.57052
 C129 C 0.66311 0.65170 0.65481
 C130 C 0.64676 0.60432 0.69789
 C131 C 0.61020 0.66428 0.63252
 C132 C 0.61628 0.63745 0.54783
 C133 C 0.59987 0.59004 0.59087
 C134 C 0.59339 0.61652 0.67509
 H135 H 0.66981 0.54119 0.60467
 H136 H 0.70137 0.62915 0.52783
 H137 H 0.65973 0.59110 0.76000
 H138 H 0.59306 0.70041 0.64083
 H139 H 0.60343 0.65090 0.48579
 H140 H 0.56160 0.61261 0.71766
 C141 C -0.09158 0.38316 0.17651
 C142 C -0.14488 0.39545 0.19958
 C143 C -0.16145 0.34829 0.15665
 C144 C -0.10863 0.33560 0.13409
 C145 C -0.16802 0.37506 0.07234
 C146 C -0.15092 0.42275 0.11480
 C147 C -0.09813 0.40997 0.09226
 C148 C -0.11476 0.36277 0.04938
 H149 H -0.05969 0.38682 0.21889
 H150 H -0.15768 0.40848 0.26174
 H151 H -0.09163 0.29935 0.14239
 H152 H -0.19983 0.37146 0.02979
 H153 H -0.16788 0.45899 0.10636
 H154 H -0.10207 0.34953 -0.01271
 C155 C 0.40626 0.88445 0.67509
 C156 C 0.35284 0.89655 0.69756
 C157 C 0.33657 0.84937 0.65431
 C158 C 0.38952 0.83689 0.63234
 C159 C 0.33022 0.87619 0.57002
 C160 C 0.34703 0.92392 0.61279
 C161 C 0.39996 0.91132 0.59086
 C162 C 0.38362 0.86411 0.54766
 H163 H 0.43796 0.88816 0.71786
 H164 H 0.33974 0.90949 0.75960
 H165 H 0.40664 0.80071 0.64072
 H166 H 0.29858 0.87251 0.52712
 H167 H 0.32999 0.96012 0.60428
 H168 H 0.39659 0.85093 0.48569
 C169 C -0.14582 0.60397 -0.04987
 C170 C -0.13367 0.65754 -0.07171
 C171 C -0.16009 0.65153 -0.15628
 C172 C -0.17275 0.59850 -0.13500
 C173 C -0.11255 0.63573 -0.19913
 C174 C -0.08577 0.64132 -0.11412
 C175 C -0.09832 0.58825 -0.09282
 C176 C -0.12473 0.58224 -0.17745
 H177 H -0.15909 0.59048 0.01190
 H178 H -0.13768 0.68894 -0.02868
 H179 H -0.20893 0.58132 -0.14407
 H180 H -0.09903 0.64908 -0.26083
 H181 H -0.04960 0.65855 -0.10521
 H182 H -0.12078 0.55092 -0.22067
 C183 C 0.40724 1.11684 0.32392
 C184 C 0.35386 1.10455 0.30089
 C185 C 0.33755 1.15159 0.34423
 C186 C 0.39042 1.16432 0.36667
 C187 C 0.33088 1.12468 0.42840
 C188 C 0.34780 1.07708 0.38556
 C189 C 0.40068 1.08985 0.40801
 C190 C 0.38425 1.13695 0.45125
 H191 H 0.43907 1.11328 0.28143
 H192 H 0.34097 1.09158 0.23870
 H193 H 0.40760 1.20058 0.35862
 H194 H 0.29915 1.12813 0.47114
 H195 H 0.33073 1.04080 0.39383
 H196 H 0.39707 1.15008 0.51338
 C197 C 1.14558 -0.10450 -0.05078
 C198 C 1.13338 -0.15793 -0.07277
 C199 C 1.15960 -0.15145 -0.15750
 C200 C 1.17230 -0.09852 -0.13607
 C201 C 1.11196 -0.13541 -0.19995
 C202 C 1.08539 -0.14149 -0.11477
 C203 C 1.09797 -0.08853 -0.09331
 C204 C 1.12416 -0.08203 -0.17810
 H205 H 1.15900 -0.09136 0.01095
 H206 H 1.13750 -0.18958 -0.02991
 H207 H 1.20845 -0.08129 -0.14530
 H208 H 1.09829 -0.14842 -0.26161
 H209 H 1.04924 -0.15878 -0.10568
 H210 H 1.12008 -0.05045 -0.22112
 C211 C 0.59203 0.38482 0.32431
 C212 C 0.64551 0.39664 0.30113
 C213 C 0.66145 0.34939 0.34485
 C214 C 0.60846 0.33718 0.36752
 C215 C 0.66832 0.37622 0.42873
 C216 C 0.65184 0.42400 0.38548
 C217 C 0.59888 0.41168 0.40813
 C218 C 0.61490 0.36439 0.45178
 H219 H 0.56022 0.38869 0.28182
 H220 H 0.65850 0.40948 0.23878
 H221 H 0.59100 0.30107 0.35979
 H222 H 0.70006 0.37240 0.47139
 H223 H 0.66926 0.46011 0.39336
 H224 H 0.60202 0.35132 0.51407
 C225 C 0.84675 -0.07765 -0.11238
 C226 C 0.85299 -0.10448 -0.19727
 C227 C 0.83692 -0.15197 -0.15434
 C228 C 0.83006 -0.12571 -0.06996
 C229 C 0.88983 -0.16435 -0.13191
 C230 C 0.90642 -0.11642 -0.17425
 C231 C 0.89967 -0.09007 -0.08994
 C232 C 0.88349 -0.13763 -0.04712
 H233 H 0.82948 -0.04159 -0.10385
 H234 H 0.84007 -0.09122 -0.25938
 H235 H 0.79833 -0.12975 -0.02730
 H236 H 0.90721 -0.20039 -0.14024
 H237 H 0.93825 -0.11227 -0.21666
 H238 H 0.89634 -0.15105 0.01493
 C239 C 0.41397 0.35924 0.38532
 C240 C 0.36613 0.34238 0.42759
 C241 C 0.33979 0.34833 0.34287
 C242 C 0.38728 0.36477 0.30016
 C243 C 0.32676 0.40118 0.36389
 C244 C 0.35360 0.39575 0.44915
 C245 C 0.40105 0.41211 0.40635
 C246 C 0.37474 0.41807 0.32157
 H247 H 0.45025 0.34237 0.39446
 H248 H 0.36227 0.31081 0.47073
 H249 H 0.40098 0.35173 0.23857
 H250 H 0.29048 0.41799 0.35459
 H251 H 0.34014 0.40893 0.51081
 H252 H 0.37855 0.44957 0.27826
 C253 C 0.09307 0.61647 -0.17625
 C254 C 0.10979 0.66405 -0.13347
 C255 C 0.16264 0.65184 -0.15646
 C256 C 0.14644 0.60470 -0.19984
 C257 C 0.16971 0.62488 -0.07245
 C258 C 0.11636 0.63663 -0.04907
 C259 C 0.10004 0.58943 -0.09232
 C260 C 0.15290 0.57717 -0.11532
 H261 H 0.06112 0.61267 -0.21846
 H262 H 0.09240 0.70016 -0.14123
 H263 H 0.15919 0.59195 -0.26220
 H264 H 0.20155 0.62856 -0.02999
 H265 H 0.10369 0.64956 0.01324
 H266 H 0.17018 0.54105 -0.10736
 C267 C 0.64684 1.10561 0.44984
 C268 C 0.67403 1.09987 0.36498
 C269 C 0.66130 1.15271 0.34288
 C270 C 0.63469 1.15904 0.42716
 C271 C 0.61389 1.13649 0.29981
 C272 C 0.62609 1.08316 0.32239
 C273 C 0.59946 1.08943 0.40674
 C274 C 0.58691 1.14233 0.38459
 H275 H 0.65996 1.09248 0.51190
 H276 H 0.71023 1.08280 0.35644
 H277 H 0.63852 1.19066 0.46982
 H278 H 0.60041 1.14940 0.23783
 H279 H 0.62228 1.05160 0.27962
 H280 H 0.55069 1.15940 0.39299
 C281 C 0.15358 0.42275 0.11337
 C282 C 0.14744 0.39537 0.19809
 C283 C 0.16342 0.34815 0.15486
 C284 C 0.17010 0.37500 0.07063
 C285 C 0.11041 0.33584 0.13263
 C286 C 0.09396 0.38343 0.17533
 C287 C 0.10060 0.41032 0.09116
 C288 C 0.11665 0.36307 0.04800
 H289 H 0.17090 0.45890 0.10498
 H290 H 0.16052 0.40824 0.26021
 H291 H 0.20177 0.37123 0.02788
 H292 H 0.09302 0.29970 0.14088
 H293 H 0.06222 0.38723 0.21796
 H294 H 0.10369 0.34996 -0.01406
 C295 C 0.61568 0.86415 0.54879
 C296 C 0.66895 0.87656 0.57190
 C297 C 0.66231 0.84962 0.65606
 C298 C 0.60948 0.83681 0.63334
 C299 C 0.64576 0.89665 0.69921
 C300 C 0.65188 0.92412 0.61459
 C301 C 0.59908 0.91121 0.59188
 C302 C 0.59246 0.88424 0.67598
 H303 H 0.60302 0.85096 0.48661
 H304 H 0.70078 0.87314 0.52940
 H305 H 0.59240 0.80052 0.64143
 H306 H 0.65854 0.90962 0.76146
 H307 H 0.66889 0.96043 0.60637
 H308 H 0.56056 0.88771 0.71832
 C309 C 0.87303 0.08057 0.18093
 C310 C 0.88522 0.13392 0.20310
 C311 C 0.83778 0.15008 0.16008
 C312 C 0.82509 0.09720 0.13833
 C313 C 0.86439 0.15660 0.07572
 C314 C 0.91217 0.14003 0.11829
 C315 C 0.89959 0.08712 0.09651
 C316 C 0.85220 0.10321 0.05342
 H317 H 0.87687 0.04894 0.22391
 H318 H 0.89863 0.14684 0.26498
 H319 H 0.78887 0.08001 0.14705
 H320 H 0.86052 0.18829 0.03288
 H321 H 0.94838 0.15728 0.10974
 H322 H 0.83902 0.09016 -0.00853
 C323 C 0.38412 0.63738 0.54753
 C324 C 0.33082 0.62485 0.57043
 C325 C 0.33734 0.65146 0.65460
 C326 C 0.39019 0.66438 0.63210
 C327 C 0.35385 0.60426 0.69784
 C328 C 0.34786 0.57713 0.61321
 C329 C 0.40068 0.59015 0.59072
 C330 C 0.40718 0.61679 0.67483
 H331 H 0.39687 0.65081 0.48539
 H332 H 0.29904 0.62844 0.52780
 H333 H 0.40724 0.70065 0.64024
 H334 H 0.34099 0.59103 0.76004
 H335 H 0.33088 0.54084 0.60494
 H336 H 0.43902 0.61316 0.71731
   
