data_POSCAR
  _audit_creation_date              2014-09-24
  _audit_creation_method            'ToBaCCo'
  _symmetry_space_group_name_H-M    'P1'
  _symmetry_Int_Tables_number       1
  _symmetry_cell_setting            triclinic
  loop_
  _symmetry_equiv_pos_as_xyz
 x,y,z
_cell_length_a 34.7030
_cell_length_b 34.4833
_cell_length_c 34.5060
_cell_angle_alpha 89.909100
_cell_angle_beta 90.029700
_cell_angle_gamma 89.855500
loop_
  _atom_site_label
  _atom_site_type_symbol
  _atom_site_fract_x
  _atom_site_fract_y
  _atom_site_fract_z
C1 C 0.18898 1.23506 0.19013
 N2 N 0.22115 1.21882 0.17474
 C3 C 0.23635 1.18621 0.19072
 N4 N 0.21908 1.16955 0.22184
 C5 C 0.18689 1.18579 0.23726
 N6 N 0.17173 1.21841 0.22125
 C7 C 0.81433 0.76245 0.18905
 N8 N 0.78275 0.77848 0.17216
 C9 C 0.76546 0.80980 0.18848
 N10 N 0.78009 0.82542 0.22141
 C11 C 0.81167 0.80940 0.23833
 N12 N 0.82893 0.77808 0.22199
 C13 C 0.80974 1.23885 -0.18877
 N14 N 0.82548 1.22320 -0.22119
 C15 C 0.80868 1.19211 -0.23828
 N16 N 0.77641 1.17637 -0.22265
 C17 C 0.76067 1.19201 -0.19024
 N18 N 0.77748 1.22309 -0.17316
 C19 C 0.18900 0.76245 -0.19066
 N20 N 0.17210 0.77958 -0.22179
 C21 C 0.18758 0.81220 -0.23731
 N22 N 0.21968 0.82795 -0.22139
 C23 C 0.23659 0.81084 -0.19027
 N24 N 0.22111 0.77823 -0.17477
 C25 C 0.55836 1.05362 -0.01296
 H26 H 0.55974 1.05299 0.01836
 C27 C 0.58431 1.07630 -0.03388
 H28 H 0.60578 1.09291 -0.01838
 C29 C 0.52986 1.03097 -0.07107
 H30 H 0.50909 1.01270 -0.08547
 C31 C 0.55533 1.05320 -0.09317
 H32 H 0.55335 1.05236 -0.12447
 N33 N 0.53177 1.03165 -0.03170
 C34 C 0.44233 1.01013 0.05428
 H35 H 0.44193 0.97876 0.05403
 C36 C 0.41586 1.03053 0.07691
 H37 H 0.39499 1.01457 0.09389
 C38 C 0.46879 1.06886 0.03063
 H39 H 0.48892 1.08370 0.01197
 C40 C 0.44280 1.09043 0.05281
 H41 H 0.44380 1.12179 0.05155
 Zn42 Zn 0.50024 0.99938 -0.00077
 N43 N 0.46810 1.02944 0.03177
 C44 C 0.53369 0.96846 0.06820
 N45 N 0.53378 0.96771 0.02878
 C46 C 0.55998 0.94622 0.00886
 C47 C 0.58753 0.92425 0.02858
 C48 C 0.56079 0.94689 0.08912
 C49 C 0.44048 0.98783 -0.05348
 C50 C 0.41389 0.96714 -0.07560
 C51 C 0.44304 0.90754 -0.05300
 C52 C 0.46913 0.92941 -0.03133
 N53 N 0.46747 0.96882 -0.03206
 H54 H 0.51326 0.98648 0.08349
 H55 H 0.55971 0.94660 -0.02249
 H56 H 0.60803 0.90722 0.01213
 H57 H 0.56089 0.94856 0.12045
 H58 H 0.43933 1.01918 -0.05291
 H59 H 0.39217 0.98285 -0.09184
 H60 H 0.44488 0.87621 -0.05218
 H61 H 0.49024 0.91480 -0.01349
 C62 C 0.41566 1.07126 0.07614
 C63 C 0.58317 1.07611 -0.07457
 C64 C 0.41483 0.92642 -0.07541
 C65 C 0.58843 0.92467 0.06927
 C66 C -0.00571 0.56033 1.05289
 H67 H 0.02546 0.56033 1.05248
 C68 C -0.02555 0.58788 1.07477
 H69 H -0.00936 0.60866 1.09167
 C70 C -0.06451 0.53330 1.03093
 H71 H -0.07957 0.51259 1.01306
 C72 C -0.08553 0.56038 1.05241
 H73 H -0.11668 0.56015 1.05082
 N74 N -0.02531 0.53372 1.03162
 C75 C 0.05716 0.44018 1.01257
 H76 H 0.05661 0.43888 0.98125
 C77 C 0.07911 0.41347 1.03355
 H78 H 0.09525 0.39149 1.01808
 C79 C 0.03497 0.46926 1.07063
 H80 H 0.01714 0.49054 1.08499
 C81 C 0.05649 0.44305 1.09277
 H82 H 0.05556 0.44498 1.12407
 Zn83 Zn 0.00425 0.49991 1.00034
 N84 N 0.03574 0.46740 1.03126
 C85 C 0.07375 0.53007 0.96851
 N86 N 0.03459 0.53152 0.96759
 C87 C 0.01566 0.55784 0.94518
 C88 C 0.03618 0.58412 0.92241
 C89 C 0.09544 0.55586 0.94619
 C90 C -0.05001 0.44130 0.99097
 C91 C -0.07249 0.41421 0.97133
 C92 C -0.04922 0.44034 0.91071
 C93 C -0.02715 0.46698 0.93156
 N94 N -0.02797 0.46698 0.97097
 H95 H 0.08829 0.50950 0.98711
 H96 H -0.01551 0.55885 0.94562
 H97 H 0.02052 0.60545 0.90552
 H98 H 0.12658 0.55431 0.94730
 H99 H -0.04969 0.44161 1.02232
 H100 H -0.08995 0.39412 0.98783
 H101 H -0.04750 0.44015 0.87939
 H102 H -0.00871 0.48696 0.91620
 C103 C 0.07876 0.41450 1.07423
 C104 C -0.06602 0.58835 1.07449
 C105 C -0.07203 0.41325 0.93064
 C106 C 0.07664 0.58357 0.92296
 C107 C 1.04955 -0.00912 0.55984
 H108 H 1.04953 0.02225 0.55917
 C109 C 1.07180 -0.02882 0.58725
 H110 H 1.08937 -0.01234 0.60722
 C111 C 1.02620 -0.06852 0.53471
 H112 H 1.00766 -0.08383 0.51483
 C113 C 1.04802 -0.08941 0.56169
 H114 H 1.04602 -0.12073 0.56221
 N115 N 1.02739 -0.02909 0.53427
 C116 C 1.00618 0.05238 0.43995
 H117 H 0.97500 0.05239 0.43981
 C118 C 1.02630 0.07371 0.41220
 H119 H 1.01033 0.09063 0.39114
 C120 C 1.06468 0.02987 0.46750
 H121 H 1.07951 0.01197 0.48848
 C122 C 1.08598 0.05079 0.44024
 H123 H 1.11712 0.04878 0.44061
 Zn124 Zn 0.99554 0.00040 0.50084
 N125 N 1.02550 0.03109 0.46689
 C126 C 0.96520 0.07126 0.53054
 N127 N 0.96418 0.03189 0.53277
 C128 C 0.94246 0.01354 0.55992
 C129 C 0.92040 0.03487 0.58615
 C130 C 0.94360 0.09377 0.55627
 C131 C 0.98384 -0.05518 0.44353
 C132 C 0.96321 -0.07793 0.41738
 C133 C 0.90407 -0.05309 0.44480
 C134 C 0.92586 -0.03082 0.47049
 N135 N 0.96502 -0.03227 0.46940
 H136 H 0.98328 0.08534 0.50932
 H137 H 0.94280 -0.01780 0.56153
 H138 H 0.90396 0.01966 0.60805
 H139 H 0.94470 0.12507 0.55405
 H140 H 1.01501 -0.05516 0.44278
 H141 H 0.97880 -0.09523 0.39641
 H142 H 0.87293 -0.05155 0.44605
 H143 H 0.91142 -0.01182 0.49068
 C144 C 1.06676 0.07285 0.41190
 C145 C 1.07097 -0.06952 0.58865
 C146 C 0.92275 -0.07685 0.41757
 C147 C 0.92095 0.07557 0.58469
 C148 C 0.13903 0.32585 1.13787
 C149 C 0.10285 0.33869 1.15039
 C150 C 0.08358 0.36808 1.13018
 C151 C 0.17270 0.26656 1.17299
 C152 C 0.13696 0.37232 1.08509
 C153 C 0.15618 0.34293 1.10537
 C154 C 0.15769 0.29395 1.15726
 C155 C 0.10025 0.38497 1.09705
 H156 H 0.08921 0.32550 1.17536
 H157 H 0.05516 0.37676 1.13980
 H158 H 0.15074 0.38506 1.05999
 H159 H 0.18417 0.33319 1.09541
 C160 C -0.12895 0.67658 1.13582
 C161 C -0.09487 0.68586 1.11630
 C162 C -0.07436 0.65714 1.09656
 C163 C -0.16715 0.73249 1.17158
 C164 C -0.12194 0.60953 1.11583
 C165 C -0.14244 0.63836 1.13561
 C166 C -0.15008 0.70658 1.15556
 C167 C -0.08765 0.61863 1.09606
 H168 H -0.08427 0.71539 1.11612
 H169 H -0.04844 0.66523 1.08111
 H170 H -0.13270 0.58009 1.11631
 H171 H -0.16878 0.63085 1.15067
 C172 C -0.13474 0.32581 0.86833
 C173 C -0.13352 0.36384 0.85414
 C174 C -0.11331 0.39242 0.87444
 C175 C -0.17133 0.27034 0.83051
 C176 C -0.09565 0.34496 0.92324
 C177 C -0.11582 0.31648 0.90292
 C178 C -0.15492 0.29604 0.84739
 C179 C -0.09411 0.38327 0.90923
 H180 H -0.14811 0.37138 0.82739
 H181 H -0.11298 0.42172 0.86312
 H182 H -0.08066 0.33681 0.94956
 H183 H -0.11642 0.28710 0.91408
 C184 C 0.13856 0.67173 0.86076
 C185 C 0.15112 0.65985 0.89746
 C186 C 0.13150 0.63058 0.91733
 C187 C 0.17244 0.73095 0.82605
 C188 C 0.08698 0.62452 0.86354
 C189 C 0.10666 0.65379 0.84371
 C190 C 0.15727 0.70358 0.84151
 C191 C 0.09894 0.61286 0.90077
 H192 H 0.17563 0.67372 0.91103
 H193 H 0.14110 0.62268 0.94615
 H194 H 0.06231 0.61112 0.84984
 H195 H 0.09668 0.66279 0.81532
 C196 C 1.13033 0.13261 0.32317
 C197 C 1.09611 0.11334 0.31401
 C198 C 1.07541 0.09407 0.34288
 C199 C 1.16850 0.16815 0.26717
 C200 C 1.12314 0.11327 0.39039
 C201 C 1.14381 0.13258 0.36142
 C202 C 1.15149 0.15215 0.29309
 C203 C 1.08867 0.09380 0.38143
 H204 H 1.08549 0.11305 0.28448
 H205 H 1.04935 0.07883 0.33490
 H206 H 1.13388 0.11391 0.41985
 H207 H 1.17026 0.14748 0.36883
 C208 C 1.13315 -0.13183 0.67691
 C209 C 1.11448 -0.09697 0.68580
 C210 C 1.09447 -0.07666 0.65707
 C211 C 1.16960 -0.16955 0.73280
 C212 C 1.11177 -0.12602 0.61021
 C213 C 1.13182 -0.14631 0.63905
 C214 C 1.15323 -0.15272 0.70692
 C215 C 1.09284 -0.09094 0.61892
 H216 H 1.11518 -0.08559 0.71505
 H217 H 1.07969 -0.05011 0.66488
 H218 H 1.11136 -0.13756 0.58105
 H219 H 1.14621 -0.17326 0.63185
 C220 C 0.86082 -0.13900 0.32953
 C221 C 0.89234 -0.15636 0.34807
 C222 C 0.91199 -0.13654 0.37732
 C223 C 0.82756 -0.17373 0.27004
 C224 C 0.86816 -0.08216 0.37010
 C225 C 0.84858 -0.10202 0.34084
 C226 C 0.84234 -0.15821 0.29756
 C227 C 0.90038 -0.09902 0.38838
 H228 H 0.90209 -0.18496 0.33950
 H229 H 0.93639 -0.15047 0.39116
 H230 H 0.85884 -0.05312 0.37754
 H231 H 0.82437 -0.08821 0.32650
 C232 C 0.85985 0.14004 0.67181
 C233 C 0.84277 0.10759 0.65468
 C234 C 0.86227 0.08706 0.62577
 C235 C 0.82551 0.17521 0.73048
 C236 C 0.91578 0.13185 0.63052
 C237 C 0.89624 0.15231 0.65945
 C238 C 0.84090 0.15956 0.70336
 C239 C 0.89918 0.09873 0.61364
 H240 H 0.81463 0.09781 0.66406
 H241 H 0.84854 0.06198 0.61300
 H242 H 0.94435 0.14126 0.62221
 H243 H 0.90983 0.17725 0.67269
 C244 C 0.32767 1.13330 0.13829
 C245 C 0.33909 1.14578 0.10145
 C246 C 0.36819 1.12605 0.08154
 C247 C 0.26920 1.16801 0.17318
 C248 C 0.37497 1.08150 0.13555
 C249 C 0.34585 1.10131 0.15541
 C250 C 0.29620 1.15237 0.15768
 C251 C 0.38625 1.09346 0.09822
 H252 H 0.32504 1.17036 0.08782
 H253 H 0.37578 1.13564 0.05265
 H254 H 0.38862 1.05681 0.14934
 H255 H 0.33721 1.09139 0.18391
 C256 C 0.66963 1.13888 -0.13787
 C257 C 0.65222 1.15563 -0.10535
 C258 C 0.62353 1.13559 -0.08520
 C259 C 0.72783 1.17405 -0.17252
 C260 C 0.62907 1.08220 -0.13048
 C261 C 0.65777 1.10228 -0.15057
 C262 C 0.70092 1.15834 -0.15705
 C263 C 0.61190 1.09846 -0.09731
 H264 H 0.66121 1.18393 -0.09525
 H265 H 0.61053 1.14908 -0.06007
 H266 H 0.62115 1.05347 -0.14023
 H267 H 0.67123 1.08894 -0.17556
 C268 C 0.32753 0.86347 -0.13726
 C269 C 0.33982 0.85064 -0.10079
 C270 C 0.36872 0.87067 -0.08097
 C271 C 0.26933 0.82865 -0.17225
 C272 C 0.37353 0.91619 -0.13434
 C273 C 0.34464 0.89610 -0.15412
 C274 C 0.29621 0.84421 -0.15658
 C275 C 0.38566 0.90391 -0.09737
 H276 H 0.32660 0.82556 -0.08737
 H277 H 0.37703 0.86079 -0.05236
 H278 H 0.38634 0.94137 -0.14793
 H279 H 0.33533 0.90629 -0.18233
 C280 C 0.67720 0.86364 0.13165
 C281 C 0.68588 0.88303 0.09712
 C282 C 0.65698 0.90268 0.07680
 C283 C 0.73349 0.82807 0.16934
 C284 C 0.61038 0.88355 0.12548
 C285 C 0.63939 0.86387 0.14578
 C286 C 0.70739 0.84399 0.15255
 C287 C 0.61888 0.90320 0.09073
 H288 H 0.71508 0.88320 0.08602
 H289 H 0.66462 0.91804 0.05053
 H290 H 0.58127 0.88311 0.13674
 H291 H 0.63235 0.84891 0.17248
   
