data_POSCAR
  _audit_creation_date              2014-09-24
  _audit_creation_method            'ToBaCCo'
  _symmetry_space_group_name_H-M    'P1'
  _symmetry_Int_Tables_number       1
  _symmetry_cell_setting            triclinic
  loop_
  _symmetry_equiv_pos_as_xyz
 x,y,z
_cell_length_a 48.2657
_cell_length_b 49.6264
_cell_length_c 46.2931
_cell_angle_alpha 91.504400
_cell_angle_beta 90.192700
_cell_angle_gamma 92.586500
loop_
  _atom_site_label
  _atom_site_type_symbol
  _atom_site_fract_x
  _atom_site_fract_y
  _atom_site_fract_z
C1 C 0.26903 0.46074 0.99605
 C2 C 0.24976 0.45975 1.02232
 C3 C 0.23418 0.48194 1.02532
 C4 C 0.23921 0.50305 1.00193
 C5 C 0.24997 0.46491 0.97016
 C6 C 0.23437 0.48704 0.97330
 C7 C 0.28624 0.48726 0.99985
 C8 C 0.27068 0.50933 1.00295
 H9 H 0.24822 0.44293 1.03687
 H10 H 0.22656 0.52112 1.00441
 H11 H 0.24836 0.45121 0.95146
 H12 H 0.30878 0.48844 1.00046
 C13 C 0.73141 0.53913 0.00444
 C14 C 0.74994 0.53535 0.03084
 C15 C 0.76565 0.51322 0.02841
 C16 C 0.76144 0.49685 -0.00009
 C17 C 0.75120 0.53984 -0.02139
 C18 C 0.76690 0.51769 -0.02370
 C19 C 0.71435 0.51253 0.00068
 C20 C 0.73001 0.49047 -0.00170
 H21 H 0.75111 0.54927 0.04937
 H22 H 0.77420 0.47880 -0.00203
 H23 H 0.75292 0.55645 -0.03622
 H24 H 0.69181 0.51123 0.00006
 C25 C 0.04039 0.22541 0.50272
 C26 C 0.03860 0.24169 0.47719
 C27 C 0.01448 0.25748 0.47680
 C28 C -0.00341 0.25410 0.50187
 C29 C 0.03889 0.24536 0.52856
 C30 C 0.01587 0.26043 0.52804
 C31 C 0.01308 0.20848 0.50354
 C32 C -0.00985 0.22346 0.50311
 H33 H 0.05488 0.24339 0.46109
 H34 H -0.02224 0.26622 0.50158
 H35 H 0.05506 0.24821 0.54488
 H36 H 0.01197 0.18656 0.50409
 C37 C 0.95951 0.77470 0.49664
 C38 C 0.96120 0.75464 0.47097
 C39 C 0.98433 0.73978 0.47154
 C40 C 1.00366 0.74634 0.49751
 C41 C 0.96160 0.75749 0.52355
 C42 C 0.98471 0.74261 0.52391
 C43 C 0.98668 0.79174 0.49601
 C44 C 1.00972 0.77698 0.49645
 H45 H 0.94493 0.75144 0.45480
 H46 H 1.02256 0.73436 0.49789
 H47 H 0.94548 0.75590 0.53983
 H48 H 0.98762 0.81364 0.49514
 C49 C 0.49981 0.04418 0.21971
 C50 C 0.47448 0.04268 0.23970
 C51 C 0.47406 0.02088 0.25713
 C52 C 0.49885 0.00271 0.25298
 C53 C 0.52496 0.04393 0.24012
 C54 C 0.52437 0.02214 0.25755
 C55 C 0.49936 0.01851 0.20393
 C56 C 0.49882 -0.00420 0.22225
 H57 H 0.45868 0.05760 0.24035
 H58 H 0.49844 -0.01502 0.26723
 H59 H 0.54142 0.05962 0.24098
 H60 H 0.49954 0.01659 0.18048
 C61 C 0.50033 -0.04513 0.77910
 C62 C 0.47498 -0.04489 0.75908
 C63 C 0.47545 -0.02337 0.74135
 C64 C 0.50109 -0.00407 0.74513
 C65 C 0.52548 -0.04383 0.75894
 C66 C 0.52578 -0.02229 0.74121
 C67 C 0.50109 -0.01777 0.79529
 C68 C 0.50149 0.00365 0.77747
 H69 H 0.45837 -0.06044 0.75872
 H70 H 0.50140 0.01346 0.73065
 H71 H 0.54144 -0.05859 0.75861
 H72 H 0.50129 -0.01554 0.81871
 C73 C 0.29437 0.01661 0.46791
 H74 H 0.29509 0.03127 0.48565
 C75 C 0.31408 0.01837 0.44603
 H76 H 0.32965 0.03478 0.44681
 C77 C 0.27319 -0.02269 0.44565
 H78 H 0.25763 -0.03902 0.44598
 C79 C 0.29252 -0.02167 0.42324
 H80 H 0.29158 -0.03727 0.40642
 N81 N 0.27443 -0.00363 0.46734
 C82 C 0.21046 0.02763 0.52367
 H83 H 0.20900 0.01205 0.53958
 C84 C 0.19323 0.04946 0.52563
 H85 H 0.17878 0.05072 0.54340
 C86 C 0.23107 0.04474 0.48112
 H87 H 0.24538 0.04254 0.46343
 C88 C 0.21423 0.06690 0.48225
 H89 H 0.21582 0.08151 0.46530
 Zn90 Zn 0.25064 -0.00516 0.49964
 N91 N 0.22901 0.02573 0.50176
 C92 C 0.27467 0.01261 0.55371
 N93 N 0.27402 -0.00672 0.53231
 C94 C 0.29197 -0.02705 0.53216
 C95 C 0.31162 -0.02854 0.55413
 C96 C 0.29403 0.01188 0.57618
 C97 C 0.20754 -0.03763 0.47483
 C98 C 0.18802 -0.05922 0.47255
 C99 C 0.20669 -0.07689 0.51630
 C100 C 0.22588 -0.05497 0.51772
 N101 N 0.22602 -0.03593 0.49710
 H102 H 0.26073 0.02901 0.55304
 H103 H 0.29125 -0.04192 0.51463
 H104 H 0.32565 -0.04496 0.55364
 H105 H 0.29470 0.02776 0.59270
 H106 H 0.20787 -0.02203 0.45893
 H107 H 0.17363 -0.06028 0.45453
 H108 H 0.20651 -0.09148 0.53330
 H109 H 0.24025 -0.05293 0.53566
 C110 C 0.19491 0.06944 0.50466
 C111 C 0.31344 -0.00104 0.42340
 C112 C 0.18730 -0.07916 0.49358
 C113 C 0.31302 -0.00875 0.57639
 C114 C 0.70821 0.02542 0.53526
 H115 H 0.70845 0.04134 0.51973
 C116 C 0.68900 0.02532 0.55774
 H117 H 0.67479 0.04153 0.55966
 C118 C 0.72617 -0.01533 0.55118
 H119 H 0.74013 -0.03155 0.54809
 C120 C 0.70732 -0.01622 0.57398
 H121 H 0.70707 -0.03317 0.58824
 N122 N 0.72628 0.00529 0.53239
 C123 C 0.79278 0.03773 0.47811
 H124 H 0.79246 0.02225 0.46120
 C125 C 0.81237 0.05924 0.47743
 H126 H 0.82686 0.06034 0.45965
 C127 C 0.77415 0.05492 0.52177
 H128 H 0.75955 0.05288 0.53930
 C129 C 0.79344 0.07681 0.52197
 H130 H 0.79352 0.09139 0.53979
 Zn131 Zn 0.74932 0.00532 0.49945
 N132 N 0.77410 0.03601 0.49995
 C133 C 0.72715 0.02589 0.44793
 N134 N 0.72553 0.00543 0.46692
 C135 C 0.70538 -0.01456 0.46447
 C136 C 0.68584 -0.01454 0.44218
 C137 C 0.70802 0.02671 0.42532
 C138 C 0.79011 -0.02742 0.51993
 C139 C 0.80744 -0.04916 0.52026
 C140 C 0.78553 -0.06655 0.47619
 C141 C 0.76859 -0.04443 0.47670
 N142 N 0.77105 -0.02552 0.49848
 H143 H 0.74289 0.04193 0.45059
 H144 H 0.70423 -0.03028 0.48024
 H145 H 0.66960 -0.03032 0.44100
 H146 H 0.70968 0.04313 0.41039
 H147 H 0.79182 -0.01193 0.53681
 H148 H 0.82223 -0.05043 0.53775
 H149 H 0.78358 -0.08118 0.45845
 H150 H 0.75377 -0.04225 0.45947
 C151 C 0.81300 0.07909 0.49965
 C152 C 0.68822 0.00416 0.57732
 C153 C 0.80535 -0.06908 0.49813
 C154 C 0.68687 0.00642 0.42236
 C155 C 0.48517 0.21555 1.01121
 H156 H 0.46978 0.21332 0.99417
 C157 C 0.48409 0.19813 1.03438
 H158 H 0.46787 0.18235 1.03490
 C159 C 0.52565 0.23824 1.03048
 H160 H 0.54205 0.25362 1.02867
 C161 C 0.52538 0.22122 1.05403
 H162 H 0.54137 0.22404 1.07043
 N163 N 0.50557 0.23526 1.00980
 C164 C 0.47093 0.29535 0.95482
 H165 H 0.48647 0.29663 0.93806
 C166 C 0.44832 0.31191 0.95422
 H167 H 0.44638 0.32568 0.93664
 C168 C 0.45482 0.27593 0.99822
 H169 H 0.45775 0.26238 1.01573
 C170 C 0.43191 0.29211 0.99848
 H171 H 0.41746 0.29079 1.01627
 Zn172 Zn 0.50577 0.25714 0.97699
 N173 N 0.47370 0.27772 0.97652
 C174 C 0.48600 0.23241 0.92422
 N175 N 0.50668 0.23359 0.94431
 C176 C 0.52758 0.21614 0.94313
 C177 C 0.52815 0.19634 0.92121
 C178 C 0.48576 0.21289 0.90190
 C179 C 0.53781 0.30064 0.99964
 C180 C 0.55983 0.31978 1.00167
 C181 C 0.57961 0.29968 0.95881
 C182 C 0.55715 0.28088 0.95759
 N183 N 0.53695 0.28160 0.97798
 H184 H 0.46925 0.24606 0.92587
 H185 H 0.54342 0.21717 0.95976
 H186 H 0.54450 0.18211 0.92125
 H187 H 0.46902 0.21209 0.88623
 H188 H 0.52132 0.30088 1.01540
 H189 H 0.56028 0.33454 1.01933
 H190 H 0.59532 0.29907 0.94219
 H191 H 0.55578 0.26595 0.94018
 C192 C 0.42848 0.31049 0.97634
 C193 C 0.50439 0.20084 1.05619
 C194 C 0.58108 0.31952 0.98103
 C195 C 0.50685 0.19431 0.90042
 C196 C 0.47252 0.78111 -0.01294
 H197 H 0.45696 0.78193 0.00379
 C198 C 0.47194 0.79880 -0.03581
 H199 H 0.45553 0.81293 -0.03680
 C200 C 0.51303 0.76185 -0.03157
 H201 H 0.52945 0.74795 -0.02941
 C202 C 0.51325 0.77921 -0.05485
 H203 H 0.52988 0.77841 -0.07044
 N204 N 0.49283 0.76311 -0.01122
 C205 C 0.45798 0.70323 0.04732
 H206 H 0.47354 0.70425 0.06425
 C207 C 0.43531 0.68484 0.04892
 H208 H 0.43336 0.67201 0.06742
 C209 C 0.44197 0.71856 0.00246
 H210 H 0.44502 0.73120 -0.01600
 C211 C 0.41903 0.70043 0.00314
 H212 H 0.40469 0.69935 -0.01493
 Zn213 Zn 0.49336 0.74226 0.02233
 N214 N 0.46089 0.71962 0.02436
 C215 C 0.47561 0.76868 0.07416
 N216 N 0.49581 0.76720 0.05383
 C217 C 0.51765 0.78546 0.05359
 C218 C 0.51973 0.80642 0.07421
 C219 C 0.47683 0.78944 0.09520
 C220 C 0.52491 0.70080 0.00031
 C221 C 0.54702 0.68369 -0.00152
 C222 C 0.56690 0.70589 0.04129
 C223 C 0.54436 0.72258 0.04231
 N224 N 0.52413 0.71998 0.02176
 H225 H 0.45805 0.75440 0.07351
 H226 H 0.53317 0.78403 0.03688
 H227 H 0.53726 0.82078 0.07353
 H228 H 0.46011 0.79088 0.11062
 H229 H 0.50837 0.69899 -0.01555
 H230 H 0.54751 0.66891 -0.01911
 H231 H 0.58270 0.70809 0.05794
 H232 H 0.54302 0.73745 0.05964
 C233 C 0.41559 0.68307 0.02647
 C234 C 0.49266 0.79819 -0.05701
 C235 C 0.56846 0.68616 0.01910
 C236 C 0.49889 0.80891 0.09508
 C237 C 1.03237 0.47038 0.21374
 H238 H 1.01619 0.45455 0.21339
 C239 C 1.05357 0.46990 0.19339
 H240 H 1.05382 0.45333 0.17772
 C241 C 1.05137 0.51128 0.23459
 H242 H 1.05004 0.52769 0.25025
 C243 C 1.07303 0.51159 0.21459
 H244 H 1.08826 0.52830 0.21513
 N245 N 1.03163 0.49081 0.23382
 C246 C 0.97903 0.45682 0.30166
 H247 H 0.96275 0.47110 0.30248
 C248 C 0.97880 0.43556 0.32090
 H249 H 0.96227 0.43370 0.33657
 C250 C 1.02105 0.44276 0.28109
 H251 H 1.03777 0.44588 0.26594
 C252 C 1.02164 0.42127 0.29991
 H253 H 1.03858 0.40772 0.29852
 Zn254 Zn 1.00027 0.49043 0.25830
 N255 N 0.99991 0.45998 0.28221
 C256 C 0.94858 0.46965 0.23390
 N257 N 0.96896 0.48951 0.23352
 C258 C 0.96857 0.50950 0.21403
 C259 C 0.94680 0.51050 0.19431
 C260 C 0.92636 0.46982 0.21441
 C261 C 1.02141 0.52601 0.30228
 C262 C 1.02161 0.54829 0.32143
 C263 C 0.97848 0.56112 0.30032
 C264 C 0.97912 0.53867 0.28160
 N265 N 1.00046 0.52173 0.28274
 H266 H 0.94957 0.45363 0.24917
 H267 H 0.98534 0.52473 0.21385
 H268 H 0.94707 0.52650 0.17885
 H269 H 0.91012 0.45408 0.21518
 H270 H 1.03786 0.51195 0.30314
 H271 H 1.03827 0.55117 0.33708
 H272 H 0.96143 0.57447 0.29881
 H273 H 0.96230 0.53466 0.26644
 C274 C 1.00043 0.41753 0.32031
 C275 C 1.07417 0.49081 0.19346
 C276 C 0.99985 0.56615 0.32067
 C277 C 0.92523 0.49056 0.19438
 C278 C -0.03283 0.48827 0.78741
 H279 H -0.01718 0.47336 0.78809
 C280 C -0.05436 0.48773 0.80748
 H281 H -0.05506 0.47234 0.82365
 C282 C -0.04994 0.52727 0.76636
 H283 H -0.04785 0.54296 0.75068
 C284 C -0.07181 0.52750 0.78605
 H285 H -0.08670 0.54311 0.78486
 N286 N -0.03103 0.50780 0.76736
 C287 C 0.02089 0.47551 0.69890
 H288 H 0.03660 0.49170 0.69786
 C289 C 0.02192 0.45321 0.67999
 H290 H 0.03845 0.45249 0.66428
 C291 C -0.02025 0.45738 0.72012
 H292 H -0.03682 0.45923 0.73556
 C293 C -0.02004 0.43471 0.70156
 H294 H -0.03626 0.41905 0.70333
 Zn295 Zn 0.00035 0.50843 0.74291
 N296 N 0.00021 0.47707 0.71866
 C297 C 0.05055 0.49041 0.76649
 N298 N 0.03194 0.51020 0.76739
 C299 C 0.03416 0.53073 0.78742
 C300 C 0.05577 0.53194 0.80761
 C301 C 0.07250 0.49086 0.78625
 C302 C -0.02042 0.53892 0.69865
 C303 C -0.02129 0.55993 0.67925
 C304 C 0.02078 0.57963 0.70086
 C305 C 0.02086 0.55820 0.71986
 N306 N 0.00032 0.53850 0.71855
 H307 H 0.04804 0.47385 0.75098
 H308 H 0.01881 0.54597 0.78795
 H309 H 0.05718 0.54847 0.82336
 H310 H 0.08667 0.47455 0.78563
 H311 H -0.03630 0.52282 0.69786
 H312 H -0.03821 0.56004 0.66384
 H313 H 0.03748 0.59494 0.70196
 H314 H 0.03754 0.55718 0.73535
 C315 C 0.00131 0.43237 0.68122
 C316 C -0.07412 0.50764 0.80710
 C317 C -0.00047 0.58065 0.68014
 C318 C 0.07520 0.51170 0.80734
 C319 C 0.16762 0.13975 0.49836
 C320 C 0.13976 0.13520 0.50584
 C321 C 0.13008 0.10935 0.51342
 C322 C 0.14806 0.08806 0.51333
 C323 C 0.06454 0.20843 0.50324
 C324 C 0.18567 0.11845 0.49825
 C325 C 0.12075 0.15673 0.50515
 C326 C 0.10398 0.17399 0.50452
 C327 C 0.08325 0.19315 0.50380
 C328 C 0.17606 0.09232 0.50563
 H329 H 0.17534 0.15968 0.49247
 H330 H 0.10852 0.10556 0.51910
 H331 H 0.13990 0.06814 0.51868
 H332 H 0.20718 0.12245 0.49254
 C333 C 0.64160 0.66102 0.02194
 C334 C 0.63688 0.63371 0.01435
 C335 C 0.60989 0.62356 0.00846
 C336 C 0.58766 0.64059 0.01006
 C337 C 0.71370 0.56232 0.00696
 C338 C 0.61936 0.67812 0.02358
 C339 C 0.65951 0.61584 0.01265
 C340 C 0.67765 0.59997 0.01102
 C341 C 0.69773 0.58024 0.00891
 C342 C 0.59213 0.66809 0.01760
 H343 H 0.66243 0.66909 0.02651
 H344 H 0.60599 0.60242 0.00269
 H345 H 0.56693 0.63216 0.00576
 H346 H 0.62349 0.69926 0.02912
 C347 C 0.87011 -0.10907 0.50499
 C348 C 0.86019 -0.13509 0.49682
 C349 C 0.83229 -0.13964 0.48903
 C350 C 0.81438 -0.11821 0.48943
 C351 C 0.93523 -0.20852 0.49622
 C352 C 0.85228 -0.08766 0.50541
 C353 C 0.87897 -0.15684 0.49629
 C354 C 0.89567 -0.17418 0.49607
 C355 C 0.91643 -0.19334 0.49605
 C356 C 0.82419 -0.09196 0.49767
 H357 H 0.89170 -0.10528 0.51091
 H358 H 0.82438 -0.15971 0.48269
 H359 H 0.79280 -0.12222 0.48364
 H360 H 0.86060 -0.06766 0.51140
 C361 C 0.38724 0.37349 0.97133
 C362 C 0.36106 0.36417 0.98062
 C363 C 0.35663 0.33709 0.98776
 C364 C 0.37842 0.31948 0.98594
 C365 C 0.28650 0.43746 0.99265
 C366 C 0.40904 0.35595 0.96950
 C367 C 0.33917 0.38276 0.98369
 C368 C 0.32161 0.39914 0.98644
 C369 C 0.30211 0.41931 0.98979
 C370 C 0.40494 0.32877 0.97698
 H371 H 0.39094 0.39445 0.96590
 H372 H 0.33643 0.32967 0.99497
 H373 H 0.37454 0.29860 0.99152
 H374 H 0.42927 0.36383 0.96296
 C375 C 0.84867 0.14875 0.50916
 C376 C 0.87580 0.14347 0.50088
 C377 C 0.88230 0.11732 0.49213
 C378 C 0.86187 0.09649 0.49167
 C379 C 0.96273 0.21069 0.50297
 C380 C 0.82812 0.12787 0.50872
 C381 C 0.89745 0.16442 0.50179
 C382 C 0.91682 0.18065 0.50233
 C383 C 0.94093 0.19785 0.50276
 C384 C 0.83452 0.10148 0.49995
 H385 H 0.84341 0.16892 0.51601
 H386 H 0.90328 0.11296 0.48586
 H387 H 0.86762 0.07636 0.48531
 H388 H 0.80721 0.13241 0.51496
 C389 C 0.37605 0.61590 0.03414
 C390 C 0.34999 0.62149 0.02305
 C391 C 0.34491 0.64756 0.01418
 C392 C 0.36601 0.66785 0.01593
 C393 C 0.28354 0.53584 0.00763
 C394 C 0.39714 0.63608 0.03587
 C395 C 0.32930 0.59988 0.01929
 C396 C 0.31329 0.58072 0.01582
 C397 C 0.29630 0.55707 0.01149
 C398 C 0.39248 0.66224 0.02649
 H399 H 0.38028 0.59573 0.04085
 H400 H 0.32483 0.65210 0.00549
 H401 H 0.36168 0.68785 0.00884
 H402 H 0.41736 0.63095 0.04364
 C403 C 0.15132 -0.14852 0.50020
 C404 C 0.12414 -0.14321 0.49225
 C405 C 0.11779 -0.11722 0.48418
 C406 C 0.13838 -0.09653 0.48429
 C407 C 0.03702 -0.21007 0.49567
 C408 C 0.17201 -0.12781 0.50031
 C409 C 0.10229 -0.16390 0.49319
 C410 C 0.08286 -0.18001 0.49399
 C411 C 0.05876 -0.19717 0.49492
 C412 C 0.16573 -0.10152 0.49248
 H413 H 0.15646 -0.16856 0.50651
 H414 H 0.09678 -0.11283 0.47817
 H415 H 0.13272 -0.07647 0.47862
 H416 H 0.19293 -0.13236 0.50643
 C417 C 0.62049 0.38685 0.99144
 C418 C 0.64774 0.37994 0.98570
 C419 C 0.65333 0.35324 0.97815
 C420 C 0.63166 0.33349 0.97647
 C421 C 0.71714 0.46383 0.99493
 C422 C 0.59888 0.36722 0.98980
 C423 C 0.66956 0.40065 0.98759
 C424 C 0.68637 0.41931 0.98958
 C425 C 0.70405 0.44265 0.99232
 C426 C 0.60420 0.34029 0.98240
 H427 H 0.61591 0.40749 0.99715
 H428 H 0.67436 0.34768 0.97366
 H429 H 0.63642 0.31288 0.97096
 H430 H 0.57795 0.37320 0.99400
 C431 C 0.52819 0.15309 1.11293
 C432 C 0.50294 0.14471 1.12529
 C433 C 0.47824 0.15525 1.11568
 C434 C 0.47873 0.17383 1.09351
 C435 C 0.50040 0.06733 1.20064
 C436 C 0.52874 0.17168 1.09076
 C437 C 0.50224 0.12442 1.14691
 C438 C 0.50165 0.10691 1.16446
 C439 C 0.50096 0.08584 1.18431
 C440 C 0.50397 0.18207 1.08062
 H441 H 0.54741 0.14491 1.12010
 H442 H 0.45857 0.14887 1.12510
 H443 H 0.45937 0.18174 1.08642
 H444 H 0.54845 0.17736 1.08103
 C445 C -0.00929 0.61875 0.61088
 C446 C -0.00240 0.64529 0.62009
 C447 C 0.00547 0.65073 0.64887
 C448 C 0.00629 0.62972 0.66839
 C449 C -0.01122 0.72244 0.54518
 C450 C -0.00851 0.59774 0.63035
 C451 C -0.00396 0.66690 0.60005
 C452 C -0.00574 0.68471 0.58300
 C453 C -0.00840 0.70523 0.56273
 C454 C -0.00083 0.60298 0.65938
 H455 H -0.01536 0.61429 0.58865
 H456 H 0.01074 0.67122 0.65626
 H457 H 0.01200 0.63445 0.69065
 H458 H -0.01370 0.57734 0.62262
 C459 C 0.50175 0.82919 -0.13074
 C460 C 0.49570 0.85604 -0.12451
 C461 C 0.48845 0.86389 -0.09640
 C462 C 0.48732 0.84503 -0.07454
 C463 C 0.49978 0.93200 -0.20148
 C464 C 0.50064 0.81026 -0.10885
 C465 C 0.49709 0.87578 -0.14671
 C466 C 0.49811 0.89295 -0.16464
 C467 C 0.49912 0.91372 -0.18485
 C468 C 0.49341 0.81800 -0.08049
 H469 H 0.50735 0.82291 -0.15245
 H470 H 0.48385 0.88465 -0.09133
 H471 H 0.48216 0.85173 -0.05285
 H472 H 0.50520 0.78955 -0.11414
 C473 C 0.97793 0.35994 0.36885
 C474 C 1.00324 0.35367 0.38130
 C475 C 1.02755 0.36821 0.37381
 C476 C 1.02662 0.38891 0.35398
 C477 C 1.01104 0.27692 0.45692
 C478 C 0.97694 0.38069 0.34900
 C479 C 1.00444 0.33242 0.40184
 C480 C 1.00600 0.31477 0.41912
 C481 C 1.00845 0.29426 0.43946
 C482 C 1.00131 0.39540 0.34130
 H483 H 0.95898 0.34879 0.37445
 H484 H 1.04725 0.36362 0.38338
 H485 H 1.04568 0.40011 0.34890
 H486 H 0.95719 0.38499 0.33941
 C487 C 0.49125 0.85265 0.16303
 C488 C 0.49938 0.87813 0.15288
 C489 C 0.50758 0.88086 0.12413
 C490 C 0.50758 0.85832 0.10551
 C491 C 0.49864 0.97005 0.21124
 C492 C 0.49124 0.82998 0.14436
 C493 C 0.49887 0.90183 0.17138
 C494 C 0.49864 0.92259 0.18543
 C495 C 0.49857 0.94782 0.20016
 C496 C 0.49941 0.83260 0.11537
 H497 H 0.48483 0.85034 0.18526
 H498 H 0.51373 0.90051 0.11601
 H499 H 0.51345 0.86113 0.08320
 H500 H 0.48503 0.81042 0.15262
 C501 C 0.02834 0.37470 0.63547
 C502 C 0.00390 0.36369 0.62272
 C503 C -0.02148 0.37490 0.62934
 C504 C -0.02241 0.39712 0.64852
 C505 C 0.01181 0.28223 0.54857
 C506 C 0.02747 0.39690 0.65460
 C507 C 0.00507 0.34115 0.60258
 C508 C 0.00660 0.32242 0.58562
 C509 C 0.00908 0.30065 0.56567
 C510 C 0.00210 0.40845 0.66128
 H511 H 0.04810 0.36615 0.63056
 H512 H -0.04053 0.36661 0.61953
 H513 H -0.04221 0.40573 0.65294
 H514 H 0.04664 0.40489 0.66437
 C515 C 0.52944 0.14026 0.84713
 C516 C 0.50426 0.12603 0.84138
 C517 C 0.47973 0.13507 0.85351
 C518 C 0.48045 0.15783 0.87196
 C519 C 0.50219 0.03105 0.78853
 C520 C 0.53022 0.16305 0.86559
 C521 C 0.50381 0.10100 0.82496
 C522 C 0.50336 0.07944 0.81235
 C523 C 0.50275 0.05359 0.79890
 C524 C 0.50578 0.17182 0.87859
 H525 H 0.54857 0.13338 0.83792
 H526 H 0.46016 0.12406 0.84940
 H527 H 0.46135 0.16381 0.88194
 H528 H 0.54998 0.17358 0.87001
 C529 C 1.02238 0.62742 0.36748
 C530 C 0.99711 0.63445 0.37967
 C531 C 0.97288 0.61903 0.37283
 C532 C 0.97382 0.59678 0.35379
 C533 C 0.98840 0.71765 0.45141
 C534 C 1.02338 0.60511 0.34841
 C535 C 0.99581 0.65748 0.39915
 C536 C 0.99406 0.67663 0.41552
 C537 C 0.99130 0.69888 0.43480
 C538 C 0.99906 0.58961 0.34125
 H539 H 1.04126 0.63923 0.37259
 H540 H 0.95323 0.62421 0.38223
 H541 H 0.95482 0.58502 0.34911
 H542 H 1.04306 0.60027 0.33890
 C543 C 1.11059 0.48322 0.12138
 C544 C 1.13801 0.49074 0.12883
 C545 C 1.14460 0.49869 0.15737
 C546 C 1.12385 0.49894 0.17842
 C547 C 1.21400 0.48472 0.04796
 C548 C 1.08985 0.48342 0.14235
 C549 C 1.15932 0.48982 0.10717
 C550 C 1.17682 0.48860 0.08871
 C551 C 1.19698 0.48671 0.06681
 C552 C 1.09625 0.49114 0.17117
 H553 H 1.10523 0.47711 0.09935
 H554 H 1.16579 0.50449 0.16340
 H555 H 1.12947 0.50474 0.20046
 H556 H 1.06875 0.47775 0.13596
 C557 C 0.61903 0.00684 0.61573
 C558 C 0.62579 -0.00229 0.64309
 C559 C 0.65311 -0.00864 0.64926
 C560 C 0.67354 -0.00617 0.62804
 C561 C 0.54737 -0.01736 0.72035
 C562 C 0.63942 0.00934 0.59449
 C563 C 0.60452 -0.00587 0.66453
 C564 C 0.58656 -0.00920 0.68227
 C565 C 0.56544 -0.01346 0.70286
 C566 C 0.66689 0.00269 0.60034
 H567 H 0.59792 0.01168 0.61068
 H568 H 0.65856 -0.01570 0.67040
 H569 H 0.69455 -0.01115 0.63330
 H570 H 0.63354 0.01581 0.57326
 C571 C -0.13027 0.48470 0.85955
 C572 C -0.13757 0.50933 0.87211
 C573 C -0.12448 0.53339 0.86312
 C574 C -0.10406 0.53286 0.84180
 C575 C -0.21264 0.51471 0.95398
 C576 C -0.10982 0.48412 0.83822
 C577 C -0.15826 0.51002 0.89443
 C578 C -0.17547 0.51103 0.91320
 C579 C -0.19553 0.51274 0.93522
 C580 C -0.09642 0.50821 0.82915
 H581 H -0.14031 0.46596 0.86630
 H582 H -0.12990 0.55257 0.87276
 H583 H -0.09386 0.55171 0.83564
 H584 H -0.10463 0.46485 0.82868
 C585 C 0.38288 0.00846 0.38611
 C586 C 0.37554 0.00332 0.35717
 C587 C 0.34795 -0.00374 0.34983
 C588 C 0.32772 -0.00543 0.37137
 C589 C 0.45268 0.01603 0.27821
 C590 C 0.36273 0.00682 0.40763
 C591 C 0.39630 0.00596 0.33509
 C592 C 0.41394 0.00867 0.31692
 C593 C 0.43480 0.01240 0.29595
 C594 C 0.33487 0.00003 0.40049
 H595 H 0.40419 0.01389 0.39203
 H596 H 0.34203 -0.00767 0.32747
 H597 H 0.30641 -0.01046 0.36519
 H598 H 0.36896 0.01070 0.42990
 C599 C 0.11243 0.51712 0.87980
 C600 C 0.13887 0.50891 0.87230
 C601 C 0.14479 0.50246 0.84342
 C602 C 0.12427 0.50383 0.82219
 C603 C 0.21394 0.49357 0.95213
 C604 C 0.09187 0.51853 0.85860
 C605 C 0.15954 0.50595 0.89435
 C606 C 0.17676 0.50277 0.91274
 C607 C 0.19683 0.49822 0.93411
 C608 C 0.09748 0.51166 0.82958
 H609 H 0.10755 0.52200 0.90211
 H610 H 0.16519 0.49606 0.83737
 H611 H 0.12933 0.49873 0.80001
 H612 H 0.07137 0.52426 0.86507
 C613 C 0.63487 -0.01473 0.36336
 C614 C 0.62390 0.01004 0.35687
 C615 C 0.63372 0.03361 0.37148
 C616 C 0.65434 0.03245 0.39260
 C617 C 0.54555 0.01831 0.27884
 C618 C 0.65550 -0.01595 0.38451
 C619 C 0.60244 0.01141 0.33537
 C620 C 0.58445 0.01307 0.31749
 C621 C 0.56342 0.01561 0.29664
 C622 C 0.66544 0.00765 0.39941
 H623 H 0.62745 -0.03309 0.35211
 H624 H 0.62530 0.05287 0.36669
 H625 H 0.66122 0.05090 0.40399
 H626 H 0.66384 -0.03529 0.38905
 C627 C 0.87051 0.46918 0.13808
 C628 C 0.85984 0.49408 0.13146
 C629 C 0.86984 0.51756 0.14612
 C630 C 0.89071 0.51630 0.16693
 C631 C 0.78560 0.50696 0.05018
 C632 C 0.89142 0.46786 0.15899
 C633 C 0.83917 0.49592 0.10919
 C634 C 0.82211 0.49847 0.09048
 C635 C 0.80236 0.50257 0.06865
 C636 C 0.90196 0.49148 0.17340
 H637 H 0.86296 0.45088 0.12682
 H638 H 0.86168 0.53692 0.14125
 H639 H 0.89809 0.53477 0.17796
 H640 H 0.89984 0.44851 0.16331
 C641 C 0.34909 -0.00397 0.64952
 C642 C 0.37596 -0.01098 0.64207
 C643 C 0.38231 -0.01696 0.61322
 C644 C 0.36186 -0.01611 0.59189
 C645 C 0.45397 -0.01965 0.72037
 C646 C 0.32857 -0.00308 0.62818
 C647 C 0.39701 -0.01258 0.66396
 C648 C 0.41487 -0.01436 0.68196
 C649 C 0.43594 -0.01697 0.70275
 C650 C 0.33472 -0.00929 0.59914
 H651 H 0.34394 0.00061 0.67183
 H652 H 0.40306 -0.02235 0.60721
 H653 H 0.36737 -0.02055 0.56967
 H654 H 0.30782 0.00201 0.63445
   
