data_POSCAR
  _audit_creation_date              2014-09-24
  _audit_creation_method            'ToBaCCo'
  _symmetry_space_group_name_H-M    'P1'
  _symmetry_Int_Tables_number       1
  _symmetry_cell_setting            triclinic
  loop_
  _symmetry_equiv_pos_as_xyz
 x,y,z
_cell_length_a 38.8167
_cell_length_b 40.0053
_cell_length_c 38.0897
_cell_angle_alpha 89.493900
_cell_angle_beta 89.748900
_cell_angle_gamma 90.100400
loop_
  _atom_site_label
  _atom_site_type_symbol
  _atom_site_fract_x
  _atom_site_fract_y
  _atom_site_fract_z
C1 C 0.16790 0.17634 0.20587
 C2 C 0.15234 0.20174 0.18577
 C3 C 0.16757 0.21339 0.15445
 C4 C 0.19877 0.19951 0.14323
 C5 C 0.21523 0.17436 0.16285
 C6 C 0.19971 0.16318 0.19442
 H7 H 0.12766 0.21164 0.19401
 H8 H 0.21028 0.20844 0.11887
 H9 H 0.21316 0.14561 0.21092
 C10 C -0.14045 0.84337 0.19520
 C11 C -0.17123 0.85661 0.18115
 C12 C -0.18552 0.84330 0.15031
 C13 C -0.16914 0.81638 0.13386
 C14 C -0.13880 0.80269 0.14769
 C15 C -0.12440 0.81670 0.17780
 H16 H -0.18311 0.87826 0.19277
 H17 H -0.17973 0.80665 0.10975
 H18 H -0.10062 0.80632 0.18802
 C19 C -0.15923 0.15830 -0.19894
 C20 C -0.18375 0.13992 -0.17954
 C21 C -0.20070 0.15372 -0.15054
 C22 C -0.19289 0.18665 -0.14068
 C23 C -0.16855 0.20565 -0.15960
 C24 C -0.15210 0.19148 -0.18895
 H25 H -0.18970 0.11442 -0.18694
 H26 H -0.20499 0.19742 -0.11777
 H27 H -0.13490 0.20681 -0.20455
 C28 C 0.16064 0.84066 -0.20221
 C29 C 0.14068 0.81484 -0.18665
 C30 C 0.14751 0.80362 -0.15227
 C31 C 0.17402 0.81866 -0.13321
 C32 C 0.19474 0.84363 -0.14833
 C33 C 0.18801 0.85435 -0.18287
 H34 H 0.11983 0.80342 -0.20080
 H35 H 0.17903 0.81037 -0.10653
 H36 H 0.20310 0.87449 -0.19433
 C37 C 0.15011 1.15399 0.81218
 C38 C 0.17755 1.13514 0.82624
 C39 C 0.19279 1.14395 0.85818
 C40 C 0.18034 1.17182 0.87647
 C41 C 0.15337 1.19110 0.86282
 C42 C 0.13802 1.18167 0.83105
 H43 H 0.18687 1.11302 0.81318
 H44 H 0.19122 1.17844 0.90160
 H45 H 0.11628 1.19571 0.82106
 C46 C 0.83566 0.83821 0.79465
 C47 C 0.80577 0.85003 0.81107
 C48 C 0.79422 0.83653 0.84303
 C49 C 0.81176 0.80925 0.85806
 C50 C 0.84135 0.79609 0.84149
 C51 C 0.85348 0.81138 0.81035
 H52 H 0.79174 0.87072 0.79935
 H53 H 0.80229 0.79865 0.88244
 H54 H 0.87597 0.80096 0.79771
 C55 C 0.13277 0.84829 1.18565
 C56 C 0.11480 0.82325 1.16759
 C57 C 0.12787 0.80957 1.13661
 C58 C 0.15882 0.82204 1.12257
 C59 C 0.17722 0.84723 1.13975
 C60 C 0.16424 0.86020 1.17146
 H61 H 0.09057 0.81380 1.17801
 H62 H 0.16848 0.81258 1.09786
 H63 H 0.17782 0.88051 1.18375
 C64 C 0.85850 1.14637 1.18440
 C65 C 0.82678 1.13530 1.17086
 C66 C 0.81111 1.15229 1.14268
 C67 C 0.82714 1.18072 1.12820
 C68 C 0.85877 1.19237 1.14144
 C69 C 0.87440 1.17444 1.16892
 H70 H 0.81510 1.11256 1.18068
 H71 H 0.81500 1.19291 1.10606
 H72 H 0.89897 1.18298 1.17903
 O73 O 0.45466 0.93176 0.94870
 O74 O 0.41509 0.96228 0.97986
 C75 C 0.42328 0.93981 0.95693
 O76 O 0.54765 0.93445 1.07719
 O77 O 0.58582 0.96560 1.04436
 C78 C 0.57865 0.94384 1.06874
 O79 O 0.45134 0.92933 1.07161
 O80 O 0.41386 0.96095 1.03893
 C81 C 0.42051 0.93777 1.06188
 O82 O 0.55110 0.93638 0.94840
 O83 O 0.58782 0.96637 0.98334
 C84 C 0.58165 0.94486 0.95880
 Zr85 Zr 0.50208 0.95117 0.96698
 O86 O 0.50681 0.89845 0.96637
 O87 O 0.49997 0.95267 0.91146
 Zr88 Zr 0.49973 0.94922 1.05553
 O89 O 0.50479 0.89658 1.05343
 O90 O 0.49444 0.94699 1.11082
 O91 O 0.47022 0.94294 1.01042
 O92 O 0.53104 0.94474 1.01195
 O93 O 0.54863 1.05361 0.95031
 O94 O 0.58658 1.02336 0.98391
 C95 C 0.57953 1.04578 0.96016
 O96 O 0.44831 1.05065 1.07278
 O97 O 0.41226 1.01813 1.03972
 C98 C 0.41789 1.04086 1.06296
 O99 O 0.54523 1.05002 1.07828
 O100 O 0.58466 1.02170 1.04477
 C101 C 0.57658 1.04247 1.06939
 O102 O 0.45263 1.05500 0.95151
 O103 O 0.41438 1.02093 0.98084
 C104 C 0.42164 1.04545 0.95954
 Zr105 Zr 0.50043 1.03533 0.96808
 O106 O 0.50310 1.08816 0.96688
 O107 O 0.49796 1.03429 0.91254
 Zr108 Zr 0.49782 1.03369 1.05673
 O109 O 0.50049 1.08659 1.05670
 O110 O 0.49246 1.03290 1.11208
 Zr111 Zr 0.44864 0.99126 1.01052
 Zr112 Zr 0.55155 0.99348 1.01308
 O113 O 0.52891 1.04128 1.01327
 O114 O 0.46827 1.04044 1.01175
 O115 O 0.53239 0.99405 0.96136
 O116 O 0.46877 0.99066 1.06179
 O117 O 0.47136 0.99283 0.96032
 O118 O 0.52933 0.99200 1.06375
 H119 H 0.54696 0.92541 1.01227
 H120 H 0.45290 0.98986 1.08222
 H121 H 0.54384 1.06137 1.01402
 H122 H 0.45620 0.99316 0.93945
 H123 H 0.51156 0.96255 1.12076
 H124 H 0.51137 1.01909 1.12167
 H125 H 0.47985 1.09518 1.04445
 H126 H 0.48722 1.09639 0.98521
 H127 H 0.51965 1.02436 0.90380
 H128 H 0.51933 0.96679 0.90310
 H129 H 0.48743 0.88906 0.98024
 H130 H 0.48476 0.88781 1.04041
 O131 O 0.05230 0.54638 -0.07749
 O132 O 0.01990 0.58263 -0.04486
 C133 C 0.04187 0.57618 -0.06958
 O134 O -0.06364 0.44562 -0.06755
 O135 O -0.02795 0.41258 -0.03412
 C136 C -0.05208 0.41666 -0.05706
 O137 O -0.06790 0.54021 -0.07409
 O138 O -0.03764 0.57965 -0.04342
 C139 C -0.06045 0.57099 -0.06633
 O140 O 0.06155 0.45369 -0.06897
 O141 O 0.03120 0.41649 -0.03466
 C142 C 0.05447 0.42365 -0.05804
 Zr143 Zr 0.03931 0.49979 -0.05407
 O144 O 0.04010 0.49385 -0.10921
 O145 O 0.09338 0.50696 -0.05373
 Zr146 Zr -0.04760 0.49475 -0.05324
 O147 O -0.04675 0.48951 -0.10852
 O148 O -0.10214 0.49463 -0.05312
 O149 O -0.00598 0.52681 -0.06208
 O150 O -0.00238 0.46807 -0.05850
 O151 O 0.06164 0.45851 0.05412
 O152 O 0.03089 0.41869 0.02459
 C153 C 0.05418 0.42772 0.04690
 O154 O -0.06685 0.54482 0.05274
 O155 O -0.03770 0.58178 0.01710
 C156 C -0.05958 0.57486 0.04190
 O157 O -0.06540 0.45130 0.05342
 O158 O -0.02958 0.41536 0.02423
 C159 C -0.05471 0.42154 0.04571
 O160 O 0.05379 0.55178 0.05121
 O161 O 0.02036 0.58544 0.01611
 C162 C 0.04337 0.58086 0.04028
 Zr163 Zr 0.03969 0.50330 0.03447
 O164 O 0.03965 0.50223 0.09005
 O165 O 0.09386 0.50967 0.03341
 Zr166 Zr -0.04706 0.49835 0.03545
 O167 O -0.04466 0.49647 0.09098
 O168 O -0.10152 0.49919 0.03762
 Zr169 Zr -0.00682 0.54880 -0.01194
 Zr170 Zr -0.00092 0.44929 -0.00670
 O171 O -0.00204 0.47196 0.04291
 O172 O -0.00542 0.53098 0.04029
 O173 O 0.04806 0.47210 -0.00829
 O174 O -0.05530 0.52507 -0.01029
 O175 O 0.04411 0.53090 -0.01145
 O176 O -0.05228 0.46646 -0.00731
 H177 H -0.00138 0.45231 -0.07839
 H178 H -0.07660 0.53868 -0.01063
 H179 H -0.00145 0.45756 0.06420
 H180 H 0.06343 0.54709 -0.01270
 H181 H -0.10983 0.47536 -0.03862
 H182 H -0.10991 0.48282 0.02034
 H183 H -0.03442 0.51773 0.09897
 H184 H 0.02481 0.52074 0.09811
 H185 H 0.10377 0.49073 0.02027
 H186 H 0.10358 0.48856 -0.03975
 H187 H 0.02222 0.50875 -0.11903
 H188 H -0.03673 0.51021 -0.11866
 O189 O 1.06590 -0.04918 0.55427
 O190 O 1.03391 -0.01533 0.59019
 C191 C 1.05694 -0.03812 0.58500
 O192 O 1.06103 0.06275 0.44398
 O193 O 1.02917 0.02728 0.40989
 C194 C 1.05154 0.05096 0.41382
 O195 O 1.06748 0.06647 0.54265
 O196 O 1.03441 0.04021 0.58476
 C197 C 1.05883 0.06048 0.57509
 O198 O 1.06247 -0.05844 0.45604
 O199 O 1.02976 -0.03002 0.41573
 C200 C 1.05283 -0.05200 0.42411
 Zr201 Zr 1.04635 -0.03629 0.50378
 O202 O 1.10072 -0.03539 0.49901
 O203 O 1.04693 -0.08869 0.51204
 Zr204 Zr 1.04573 0.04809 0.49550
 O205 O 1.09994 0.05007 0.48985
 O206 O 1.04369 0.10098 0.49467
 O207 O 1.05360 0.00837 0.53054
 O208 O 1.05159 0.00352 0.46922
 O209 O 0.94097 -0.05883 0.45931
 O210 O 0.97150 -0.02995 0.41711
 C211 C 0.94902 -0.05220 0.42684
 O212 O 0.93973 0.06647 0.54638
 O213 O 0.97467 0.04032 0.58651
 C214 C 0.95009 0.06079 0.57822
 O215 O 0.94015 0.06170 0.44812
 O216 O 0.97091 0.02714 0.41188
 C217 C 0.94819 0.05025 0.41740
 O218 O 0.94183 -0.04935 0.55768
 O219 O 0.97570 -0.01575 0.59188
 C220 C 0.95223 -0.03840 0.58787
 Zr221 Zr 0.95916 -0.03671 0.50628
 O222 O 0.90466 -0.03697 0.50458
 O223 O 0.95973 -0.08912 0.51459
 Zr224 Zr 0.95886 0.04757 0.49828
 O225 O 0.90439 0.04835 0.49621
 O226 O 0.96046 0.10049 0.49698
 Zr227 Zr 1.00380 0.00984 0.55280
 Zr228 Zr 1.00126 0.00137 0.44891
 O229 O 0.95200 0.00299 0.47224
 O230 O 0.95299 0.00783 0.53367
 O231 O 1.00205 -0.04561 0.47442
 O232 O 1.00306 0.05640 0.52677
 O233 O 1.00349 -0.04012 0.53575
 O234 O 1.00144 0.05173 0.46488
 H235 H 1.07158 0.00250 0.45302
 H236 H 1.00344 0.07700 0.54104
 H237 H 0.93114 0.00166 0.45742
 H238 H 1.00393 -0.05871 0.55308
 H239 H 1.03136 0.10785 0.47312
 H240 H 0.97167 0.10735 0.47469
 H241 H 0.89583 0.03336 0.51510
 H242 H 0.89626 -0.02304 0.52415
 H243 H 0.97287 -0.09912 0.49503
 H244 H 1.03196 -0.09882 0.49406
 H245 H 1.10991 -0.02244 0.51892
 H246 H 1.10965 0.03361 0.50657
 C247 C 1.15125 0.16535 0.23686
 C248 C 1.15990 0.13628 0.25555
 C249 C 1.14138 0.12564 0.28772
 C250 C 1.13709 0.09139 0.29454
 C251 C 1.11972 0.08043 0.32469
 C252 C 1.10674 0.10361 0.34890
 C253 C 1.11206 0.13785 0.34272
 C254 C 1.12894 0.14885 0.31220
 C255 C 1.08856 0.09249 0.38110
 C256 C 1.06769 0.06413 0.38162
 H257 H 1.17828 0.11880 0.24487
 H258 H 1.14692 0.07308 0.27627
 H259 H 1.11699 0.05380 0.32932
 H260 H 1.10280 0.15609 0.36136
 H261 H 1.13275 0.17541 0.30809
 H262 H 1.09060 0.10761 0.40446
 H263 H 1.12898 0.17925 0.24585
 H264 H 1.06283 0.05096 0.35739
 C265 C 0.87580 -0.14372 0.22516
 C266 C 0.86154 -0.12038 0.24815
 C267 C 0.88151 -0.10706 0.27795
 C268 C 0.86464 -0.09943 0.30951
 C269 C 0.88314 -0.08687 0.33797
 C270 C 0.91883 -0.08122 0.33507
 C271 C 0.93549 -0.08805 0.30320
 C272 C 0.91711 -0.10105 0.27497
 C273 C 0.93894 -0.06637 0.36386
 C274 C 0.93036 -0.07026 0.39930
 H275 H 0.83472 -0.11340 0.24626
 H276 H 0.83713 -0.10339 0.31219
 H277 H 0.86933 -0.08085 0.36183
 H278 H 0.96285 -0.08334 0.30016
 H279 H 0.93068 -0.10572 0.25062
 H280 H 0.96192 -0.05237 0.35680
 H281 H 0.90108 -0.15339 0.23167
 H282 H 0.90924 -0.08646 0.40708
 C283 C 0.85667 0.14278 0.77217
 C284 C 0.88547 0.15517 0.75399
 C285 C 0.90078 0.13696 0.72413
 C286 C 0.93665 0.13704 0.71953
 C287 C 0.95174 0.11933 0.69197
 C288 C 0.93116 0.10208 0.66792
 C289 C 0.89517 0.10245 0.67216
 C290 C 0.88012 0.11969 0.70006
 C291 C 0.94786 0.08318 0.63937
 C292 C 0.93274 0.07908 0.60652
 H293 H 0.89937 0.17666 0.76355
 H294 H 0.95304 0.15029 0.73768
 H295 H 0.97953 0.11932 0.68923
 H296 H 0.87865 0.08893 0.65439
 H297 H 0.85233 0.11971 0.70258
 H298 H 0.97378 0.07401 0.64363
 H299 H 0.84701 0.11850 0.76444
 H300 H 0.90852 0.09125 0.60065
 C301 C 1.15415 -0.14618 0.76398
 C302 C 1.12453 -0.15245 0.74425
 C303 C 1.11766 -0.13467 0.71083
 C304 C 1.08387 -0.12468 0.70340
 C305 C 1.07660 -0.10666 0.67279
 C306 C 1.10294 -0.09882 0.64862
 C307 C 1.13652 -0.11009 0.65521
 C308 C 1.14396 -0.12756 0.68631
 C309 C 1.09525 -0.07964 0.61625
 C310 C 1.07169 -0.05341 0.61675
 H311 H 1.10361 -0.16709 0.75515
 H312 H 1.06315 -0.13026 0.72169
 H313 H 1.05025 -0.09917 0.66785
 H314 H 1.15705 -0.10481 0.63662
 H315 H 1.17012 -0.13577 0.69100
 H316 H 1.10810 -0.08625 0.59200
 H317 H 1.17224 -0.12801 0.75336
 H318 H 1.06150 -0.04525 0.64178
 C319 C 0.24681 1.16178 1.15032
 C320 C 0.26324 1.13319 1.16344
 C321 C 0.29592 1.12090 1.14840
 C322 C 0.30149 1.08636 1.14659
 C323 C 0.33163 1.07392 1.13147
 C324 C 0.35702 1.09590 1.11844
 C325 C 0.35222 1.13045 1.12173
 C326 C 0.32174 1.14293 1.13630
 C327 C 0.38850 1.08310 1.10136
 C328 C 0.38730 1.05525 1.07973
 H329 H 0.25050 1.11714 1.18242
 H330 H 0.28217 1.06896 1.15627
 H331 H 0.33513 1.04711 1.13020
 H332 H 0.37173 1.14777 1.11232
 H333 H 0.31853 1.16971 1.13834
 H334 H 0.41236 1.09693 1.10404
 H335 H 0.25844 1.17403 1.12768
 H336 H 0.36267 1.04364 1.07433
 C337 C 0.22225 0.85872 0.87327
 C338 C 0.25123 0.87465 0.85909
 C339 C 0.27892 0.88875 0.88111
 C340 C 0.31232 0.89115 0.86718
 C341 C 0.33918 0.90419 0.88718
 C342 C 0.33308 0.91531 0.92160
 C343 C 0.29945 0.91381 0.93518
 C344 C 0.27260 0.90058 0.91522
 C345 C 0.36082 0.92987 0.94325
 C346 C 0.39562 0.92272 0.93789
 H347 H 0.25524 0.87465 0.83096
 H348 H 0.31770 0.88273 0.84076
 H349 H 0.36445 0.90608 0.87525
 H350 H 0.29397 0.92284 0.96135
 H351 H 0.24691 0.90023 0.92634
 H352 H 0.35352 0.94640 0.96440
 H353 H 0.22062 0.85515 0.90144
 H354 H 0.40315 0.90441 0.91861
 C355 C 0.78390 0.85818 1.13309
 C356 C 0.75875 0.87660 1.15069
 C357 C 0.72892 0.89155 1.13223
 C358 C 0.69782 0.89611 1.15049
 C359 C 0.66916 0.90986 1.13355
 C360 C 0.67124 0.91969 1.09804
 C361 C 0.70266 0.91612 1.08016
 C362 C 0.73118 0.90209 1.09696
 C363 C 0.64171 0.93470 1.07918
 C364 C 0.60736 0.92863 1.08829
 H365 H 0.75963 0.87835 1.17902
 H366 H 0.69563 0.88874 1.17784
 H367 H 0.64570 0.91329 1.14853
 H368 H 0.70511 0.92406 1.05299
 H369 H 0.75509 0.90006 1.08242
 H370 H 0.64730 0.94982 1.05609
 H371 H 0.78022 0.85292 1.10551
 H372 H 0.60114 0.91167 1.10969
 C373 C 0.77446 1.13249 0.86927
 C374 C 0.74760 1.14521 0.88965
 C375 C 0.72144 1.12352 0.90688
 C376 C 0.68841 1.13643 0.91295
 C377 C 0.66264 1.11640 0.92792
 C378 C 0.66945 1.08299 0.93739
 C379 C 0.70290 1.07050 0.93282
 C380 C 0.72866 1.09048 0.91755
 C381 C 0.64228 1.06109 0.95254
 C382 C 0.60769 1.06495 0.94365
 H383 H 0.74355 1.17195 0.89035
 H384 H 0.68237 1.16197 0.90558
 H385 H 0.63750 1.12728 0.93233
 H386 H 0.70894 1.04506 0.94056
 H387 H 0.75418 1.08008 0.91442
 H388 H 0.64979 1.04091 0.97004
 H389 H 0.77586 1.10575 0.86534
 H390 H 0.60058 1.08344 0.92407
 C391 C 0.15094 0.23910 0.13213
 C392 C 0.12916 0.26365 0.14551
 C393 C 0.11359 0.28995 0.12318
 C394 C 0.10572 0.32091 0.13813
 C395 C 0.09122 0.34645 0.11781
 C396 C 0.08399 0.34133 0.08209
 C397 C 0.09086 0.31001 0.06739
 C398 C 0.10571 0.28456 0.08765
 C399 C 0.06800 0.36766 0.06014
 C400 C 0.07276 0.40165 0.06647
 H401 H 0.12555 0.26538 0.17364
 H402 H 0.11102 0.32543 0.16559
 H403 H 0.08511 0.36988 0.13034
 H404 H 0.08490 0.30530 0.04011
 H405 H 0.11040 0.26059 0.07560
 H406 H 0.05270 0.36003 0.03784
 H407 H 0.15805 0.24010 0.10462
 H408 H 0.09033 0.40956 0.08678
 C409 C -0.16120 0.24034 -0.14823
 C410 C -0.12988 0.25649 -0.15502
 C411 C -0.12116 0.28992 -0.14114
 C412 C -0.08639 0.29777 -0.13567
 C413 C -0.07697 0.32852 -0.12156
 C414 C -0.10217 0.35231 -0.11289
 C415 C -0.13686 0.34519 -0.11988
 C416 C -0.14637 0.31415 -0.13367
 C417 C -0.09244 0.38440 -0.09651
 C418 C -0.06552 0.38577 -0.07250
 H419 H -0.10952 0.24291 -0.16812
 H420 H -0.06644 0.27980 -0.14179
 H421 H -0.04988 0.33369 -0.11761
 H422 H -0.15664 0.36338 -0.11396
 H423 H -0.17333 0.30934 -0.13866
 H424 H -0.10742 0.40662 -0.10214
 H425 H -0.17994 0.25238 -0.13146
 H426 H -0.05305 0.36269 -0.06461
 C427 C 0.12714 0.77673 -0.13497
 C428 C 0.11097 0.75104 -0.15328
 C429 C 0.09374 0.72253 -0.13533
 C430 C 0.09190 0.69168 -0.15245
 C431 C 0.07706 0.66387 -0.13577
 C432 C 0.06354 0.66647 -0.10156
 C433 C 0.06410 0.69768 -0.08503
 C434 C 0.07909 0.72544 -0.10164
 C435 C 0.04830 0.63753 -0.08253
 C436 C 0.05632 0.60430 -0.09005
 H437 H 0.11387 0.74990 -0.18152
 H438 H 0.10248 0.68895 -0.17863
 H439 H 0.07601 0.64058 -0.14992
 H440 H 0.05329 0.70050 -0.05895
 H441 H 0.07891 0.74910 -0.08812
 H442 H 0.03158 0.64270 -0.06038
 H443 H 0.12774 0.77547 -0.10658
 H444 H 0.07451 0.59850 -0.11068
 C445 C -0.12083 0.77452 0.13067
 C446 C -0.13803 0.74993 0.11171
 C447 C -0.12004 0.72098 0.09621
 C448 C -0.13812 0.69092 0.09180
 C449 C -0.12175 0.66298 0.07761
 C450 C -0.08699 0.66477 0.06721
 C451 C -0.06923 0.69513 0.07060
 C452 C -0.08549 0.72295 0.08510
 C453 C -0.06892 0.63599 0.05155
 C454 C -0.07788 0.60276 0.05854
 H455 H -0.16589 0.75041 0.11051
 H456 H -0.16492 0.68896 0.09964
 H457 H -0.13655 0.64030 0.07428
 H458 H -0.04261 0.69726 0.06220
 H459 H -0.07110 0.74604 0.08704
 H460 H -0.04670 0.64123 0.03505
 H461 H -0.09356 0.77163 0.13572
 H462 H -0.09819 0.59692 0.07716
 C463 C 1.13349 0.14568 0.78066
 C464 C 1.14557 0.12224 0.75651
 C465 C 1.12532 0.11246 0.72548
 C466 C 1.14253 0.10242 0.69489
 C467 C 1.12396 0.09172 0.66569
 C468 C 1.08776 0.09043 0.66683
 C469 C 1.07060 0.10012 0.69756
 C470 C 1.08913 0.11122 0.72657
 C471 C 1.06736 0.07687 0.63757
 C472 C 1.07843 0.07744 0.60267
 H473 H 1.17122 0.11202 0.75882
 H474 H 1.17042 0.10272 0.69368
 H475 H 1.13805 0.08347 0.64278
 H476 H 1.04276 0.09879 0.69924
 H477 H 1.07513 0.11782 0.75013
 H478 H 1.04229 0.06637 0.64383
 H479 H 1.11017 0.15912 0.77398
 H480 H 1.10181 0.09055 0.59530
 C481 C 0.84605 -0.14652 0.76291
 C482 C 0.87760 -0.15180 0.74604
 C483 C 0.88662 -0.13387 0.71327
 C484 C 0.92056 -0.12289 0.70812
 C485 C 0.92951 -0.10481 0.67792
 C486 C 0.90469 -0.09789 0.65206
 C487 C 0.87108 -0.11010 0.65653
 C488 C 0.86198 -0.12771 0.68705
 C489 C 0.91378 -0.07906 0.61984
 C490 C 0.93825 -0.05358 0.62009
 H491 H 0.89770 -0.16623 0.75849
 H492 H 0.94002 -0.12783 0.72778
 H493 H 0.95596 -0.09669 0.67464
 H494 H 0.85175 -0.10558 0.63663
 H495 H 0.83582 -0.13679 0.68996
 H496 H 0.90071 -0.08516 0.59564
 H497 H 0.82900 -0.12804 0.75136
 H498 H 0.94901 -0.04557 0.64483
 C499 C 1.11771 -0.13920 0.21655
 C500 C 1.13344 -0.11738 0.24011
 C501 C 1.11462 -0.10463 0.27111
 C502 C 1.13244 -0.09870 0.30240
 C503 C 1.11501 -0.08681 0.33202
 C504 C 1.07944 -0.08020 0.33062
 C505 C 1.06185 -0.08537 0.29905
 C506 C 1.07916 -0.09760 0.26963
 C507 C 1.06038 -0.06587 0.36062
 C508 C 1.07026 -0.06998 0.39558
 H509 H 1.16050 -0.11132 0.23769
 H510 H 1.15986 -0.10349 0.30398
 H511 H 1.12961 -0.08204 0.35558
 H512 H 1.03460 -0.07985 0.29712
 H513 H 1.06487 -0.10091 0.24556
 H514 H 1.03722 -0.05179 0.35484
 H515 H 1.09208 -0.14801 0.22335
 H516 H 1.09158 -0.08619 0.40227
 C517 C 0.87543 0.13032 0.21243
 C518 C 0.86073 0.10603 0.23451
 C519 C 0.88018 0.09170 0.26425
 C520 C 0.86310 0.08497 0.29604
 C521 C 0.88138 0.07306 0.32508
 C522 C 0.91701 0.06716 0.32254
 C523 C 0.93375 0.07240 0.29028
 C524 C 0.91559 0.08482 0.26142
 C525 C 0.93704 0.05485 0.35281
 C526 C 0.92921 0.06381 0.38721
 H527 H 0.83363 0.10003 0.23288
 H528 H 0.83572 0.08961 0.29862
 H529 H 0.86757 0.06816 0.34934
 H530 H 0.96106 0.06743 0.28760
 H531 H 0.92921 0.08887 0.23687
 H532 H 0.95960 0.03971 0.34768
 H533 H 0.90123 0.13871 0.21874
 H534 H 0.90852 0.08128 0.39228
 C535 C 0.14101 0.22035 -0.11725
 C536 C 0.12621 0.24815 -0.13364
 C537 C 0.11308 0.27757 -0.11450
 C538 C 0.10890 0.30776 -0.13298
 C539 C 0.09536 0.33584 -0.11639
 C540 C 0.08557 0.33424 -0.08082
 C541 C 0.08940 0.30396 -0.06239
 C542 C 0.10310 0.27588 -0.07897
 C543 C 0.06945 0.36294 -0.06289
 C544 C 0.07365 0.39603 -0.07408
 H545 H 0.12565 0.24925 -0.16205
 H546 H 0.11590 0.30956 -0.16051
 H547 H 0.09172 0.35834 -0.13185
 H548 H 0.08153 0.30196 -0.03512
 H549 H 0.10491 0.25279 -0.06412
 H550 H 0.05385 0.35775 -0.03979
 H551 H 0.14585 0.22081 -0.08930
 H552 H 0.09131 0.40207 -0.09526
 C553 C -0.12420 0.22092 0.12819
 C554 C -0.13845 0.24426 0.10487
 C555 C -0.11882 0.27382 0.09247
 C556 C -0.13641 0.30363 0.08508
 C557 C -0.11841 0.33206 0.07374
 C558 C -0.08245 0.33098 0.06919
 C559 C -0.06502 0.30088 0.07556
 C560 C -0.08295 0.27258 0.08726
 C561 C -0.06272 0.36018 0.05618
 C562 C -0.07303 0.39309 0.06182
 H563 H -0.16534 0.24294 0.09781
 H564 H -0.16411 0.30500 0.08837
 H565 H -0.13281 0.35454 0.06787
 H566 H -0.03741 0.29932 0.07163
 H567 H -0.06877 0.24966 0.09162
 H568 H -0.03876 0.35552 0.04235
 H569 H -0.09867 0.22620 0.13816
 H570 H -0.09539 0.39824 0.07795
 C571 C -0.14046 0.76825 -0.14548
 C572 C -0.15246 0.74592 -0.11972
 C573 C -0.13170 0.71659 -0.10913
 C574 C -0.14796 0.68585 -0.10231
 C575 C -0.12851 0.65763 -0.09331
 C576 C -0.09247 0.65996 -0.09037
 C577 C -0.07640 0.69095 -0.09622
 C578 C -0.09575 0.71896 -0.10573
 C579 C -0.07116 0.63141 -0.07876
 C580 C -0.08022 0.59792 -0.08339
 H581 H -0.17855 0.74752 -0.10985
 H582 H -0.17569 0.68360 -0.10438
 H583 H -0.14179 0.63434 -0.08787
 H584 H -0.04875 0.69349 -0.09344
 H585 H -0.08262 0.74257 -0.10991
 H586 H -0.04694 0.63718 -0.06606
 H587 H -0.11610 0.76225 -0.15796
 H588 H -0.10263 0.59138 -0.09870
 C589 C 0.10823 0.78265 0.11934
 C590 C 0.12405 0.75766 0.09969
 C591 C 0.10493 0.72877 0.08558
 C592 C 0.12247 0.69856 0.08061
 C593 C 0.10509 0.67048 0.06817
 C594 C 0.06979 0.67219 0.06016
 C595 C 0.05253 0.70272 0.06391
 C596 C 0.06984 0.73075 0.07667
 C597 C 0.05079 0.64288 0.04688
 C598 C 0.05994 0.61021 0.05582
 H599 H 0.15187 0.75742 0.09749
 H600 H 0.14962 0.69658 0.08676
 H601 H 0.11951 0.64766 0.06440
 H602 H 0.02550 0.70476 0.05730
 H603 H 0.05579 0.75395 0.07909
 H604 H 0.02846 0.64719 0.03046
 H605 H 0.08101 0.78058 0.12531
 H606 H 0.08041 0.60583 0.07450
 C607 C 0.22085 1.12283 0.87233
 C608 C 0.24640 1.13513 0.89443
 C609 C 0.27488 1.11424 0.90794
 C610 C 0.30600 1.12972 0.91693
 C611 C 0.33349 1.11086 0.92981
 C612 C 0.33026 1.07604 0.93423
 C613 C 0.29880 1.06066 0.92621
 C614 C 0.27137 1.07951 0.91302
 C615 C 0.35878 1.05553 0.94828
 C616 C 0.39327 1.06438 0.94359
 H617 H 0.24712 1.16161 0.90004
 H618 H 0.30912 1.15650 0.91381
 H619 H 0.35695 1.12374 0.93690
 H620 H 0.29552 1.03397 0.92999
 H621 H 0.24734 1.06692 0.90747
 H622 H 0.35247 1.03229 0.96169
 H623 H 0.22273 1.09741 0.86301
 H624 H 0.39992 1.08598 0.92762
 C625 C 0.20871 0.86058 1.12251
 C626 C 0.23573 0.87584 1.14043
 C627 C 0.26682 0.88875 1.12204
 C628 C 0.29835 0.88979 1.13990
 C629 C 0.32811 0.90180 1.12311
 C630 C 0.32676 0.91334 1.08813
 C631 C 0.29505 0.91302 1.07060
 C632 C 0.26541 0.90080 1.08727
 C633 C 0.35720 0.92759 1.06976
 C634 C 0.39125 0.92057 1.07899
 H635 H 0.23525 0.87638 1.16884
 H636 H 0.29997 0.88115 1.16687
 H637 H 0.35182 0.90268 1.13788
 H638 H 0.29319 0.92234 1.04387
 H639 H 0.24133 0.90148 1.07308
 H640 H 0.35247 0.94403 1.04753
 H641 H 0.21159 0.85630 1.09462
 H642 H 0.39677 0.90245 1.09944
 C643 C 0.77925 1.13962 1.12617
 C644 C 0.75498 1.11993 1.14397
 C645 C 0.72495 1.10482 1.12629
 C646 C 0.69546 1.09685 1.14611
 C647 C 0.66706 1.08164 1.13035
 C648 C 0.66783 1.07382 1.09442
 C649 C 0.69758 1.08119 1.07479
 C650 C 0.72583 1.09664 1.09046
 C651 C 0.63882 1.05688 1.07688
 C652 C 0.60469 1.05899 1.08835
 H653 H 0.75725 1.11639 1.17207
 H654 H 0.69443 1.10238 1.17389
 H655 H 0.64498 1.07537 1.14656
 H656 H 0.69898 1.07495 1.04720
 H657 H 0.74855 1.10136 1.07462
 H658 H 0.64440 1.04365 1.05280
 H659 H 0.77430 1.14697 1.09923
 H660 H 0.59807 1.07427 1.11067
 C661 C 0.76323 0.85151 0.85913
 C662 C 0.75680 0.85233 0.89522
 C663 C 0.72730 0.87112 0.91009
 C664 C 0.72920 0.88338 0.94446
 C665 C 0.70219 0.90232 0.95848
 C666 C 0.67262 0.90907 0.93855
 C667 C 0.67074 0.89665 0.90416
 C668 C 0.69747 0.87754 0.89034
 C669 C 0.64429 0.92894 0.95422
 C670 C 0.61056 0.92780 0.94170
 H671 H 0.77545 0.84167 0.91314
 H672 H 0.75181 0.87870 0.96032
 H673 H 0.70434 0.91158 0.98502
 H674 H 0.64897 0.90185 0.88743
 H675 H 0.69442 0.86775 0.86417
 H676 H 0.64965 0.94319 0.97764
 H677 H 0.74677 0.86579 0.84176
 H678 H 0.60408 0.91160 0.92014
   
