data_POSCAR
  _audit_creation_date              2014-09-24
  _audit_creation_method            'ToBaCCo'
  _symmetry_space_group_name_H-M    'P1'
  _symmetry_Int_Tables_number       1
  _symmetry_cell_setting            triclinic
  loop_
  _symmetry_equiv_pos_as_xyz
 x,y,z
_cell_length_a 27.1816
_cell_length_b 26.8664
_cell_length_c 27.2543
_cell_angle_alpha 91.872200
_cell_angle_beta 90.373100
_cell_angle_gamma 90.904300
loop_
  _atom_site_label
  _atom_site_type_symbol
  _atom_site_fract_x
  _atom_site_fract_y
  _atom_site_fract_z
C1 C 0.17040 0.52410 1.06972
 H2 H 0.17355 0.55857 1.05053
 C3 C 0.13567 0.51958 1.10720
 H4 H 0.11357 0.55152 1.11683
 C5 C 0.19257 0.43991 1.07724
 H6 H 0.21371 0.40830 1.06483
 C7 C 0.15783 0.43345 1.11387
 H8 H 0.15505 0.39726 1.12986
 N9 N 0.19781 0.48435 1.05525
 C10 C 0.31839 0.52752 0.95949
 H11 H 0.31905 0.49174 0.94031
 C12 C 0.35490 0.56250 0.95008
 H13 H 0.38295 0.55272 0.92366
 C14 C 0.28284 0.58141 1.01936
 H15 H 0.25495 0.58842 1.04663
 C16 C 0.31912 0.61799 1.01092
 H17 H 0.31841 0.65314 1.03145
 Zn18 Zn 0.23679 0.48354 0.99732
 N19 N 0.28267 0.53748 0.99288
 C20 C 0.21316 0.48237 0.89548
 N21 N 0.19420 0.48255 0.94157
 C22 C 0.14474 0.48252 0.94866
 C23 C 0.11241 0.48329 0.90877
 C24 C 0.18212 0.48300 0.85446
 C25 C 0.31230 0.42505 1.03028
 C26 C 0.34498 0.38564 1.03032
 C27 C 0.29957 0.34702 0.96225
 C28 C 0.26786 0.38747 0.96330
 N29 N 0.27511 0.42556 0.99674
 H30 H 0.25242 0.48161 0.89023
 H31 H 0.13003 0.48195 0.98533
 H32 H 0.07339 0.48376 0.91602
 H33 H 0.19856 0.48288 0.81849
 H34 H 0.31707 0.45596 1.05642
 H35 H 0.37454 0.38617 1.05713
 H36 H 0.29393 0.31759 0.93465
 H37 H 0.23797 0.38873 0.93705
 C38 C 0.35528 0.60882 0.97516
 C39 C 0.12780 0.47319 1.12896
 C40 C 0.33909 0.34617 0.99570
 C41 C 0.13086 0.48382 0.86070
 C42 C 0.82418 0.54634 -0.02851
 H43 H 0.82391 0.57372 0.00149
 C44 C 0.86088 0.54830 -0.06372
 H45 H 0.88896 0.57723 -0.06028
 C46 C 0.78780 0.47518 -0.06867
 H47 H 0.75927 0.44670 -0.07023
 C48 C 0.82420 0.47561 -0.10477
 H49 H 0.82291 0.44789 -0.13451
 N50 N 0.78787 0.51107 -0.03223
 C51 C 0.66447 0.58377 0.04018
 H52 H 0.65705 0.55927 0.07007
 C53 C 0.63247 0.62279 0.03086
 H54 H 0.60058 0.62784 0.05391
 C55 C 0.71306 0.60432 -0.02826
 H56 H 0.74341 0.59629 -0.05240
 C57 C 0.68233 0.64375 -0.03867
 H58 H 0.69065 0.66609 -0.06995
 Zn59 Zn 0.73974 0.51527 0.01733
 N60 N 0.70337 0.57471 0.01018
 C61 C 0.77920 0.55887 0.10506
 N62 N 0.77585 0.51623 0.07688
 C63 C 0.80672 0.47774 0.08402
 C64 C 0.84443 0.48223 0.11907
 C65 C 0.81656 0.56503 0.14033
 C66 C 0.66577 0.46246 -0.03069
 C67 C 0.62948 0.42619 -0.04003
 C68 C 0.65203 0.38759 0.03547
 C69 C 0.68804 0.42504 0.04351
 N70 N 0.69429 0.46130 0.01030
 H71 H 0.75513 0.58948 0.09792
 H72 H 0.80425 0.44489 0.06005
 H73 H 0.87004 0.45208 0.12236
 H74 H 0.81947 0.59988 0.16125
 H75 H 0.67108 0.49213 -0.05613
 H76 H 0.60738 0.42915 -0.07281
 H77 H 0.64784 0.35899 0.06221
 H78 H 0.71068 0.42524 0.07628
 C79 C 0.64052 0.65258 -0.00991
 C80 C 0.86063 0.51328 -0.10300
 C81 C 0.62203 0.38780 -0.00690
 C82 C 0.85083 0.52706 0.14651
 C83 C -0.04611 0.33095 0.45651
 H84 H -0.07205 0.32450 0.48566
 C85 C -0.05362 0.36976 0.42475
 H86 H -0.08539 0.39278 0.43078
 C87 C 0.02732 0.30887 0.41572
 H88 H 0.05881 0.28497 0.41239
 C89 C 0.02191 0.34816 0.38368
 H90 H 0.04934 0.35308 0.35561
 N91 N -0.00720 0.30032 0.45047
 C92 C -0.05555 0.15783 0.50546
 H93 H -0.02310 0.14904 0.52646
 C94 C -0.09478 0.12381 0.50183
 H95 H -0.09232 0.08881 0.52023
 C96 C -0.09847 0.21457 0.45671
 H97 H -0.09974 0.24957 0.43856
 C98 C -0.13910 0.18210 0.45320
 H99 H -0.17126 0.19253 0.43249
 Zn100 Zn -0.00376 0.24669 0.49389
 N101 N -0.05816 0.20242 0.48346
 C102 C -0.04534 0.26257 0.58794
 N103 N -0.00709 0.27467 0.55842
 C104 C 0.02544 0.31168 0.57163
 C105 C 0.01878 0.33985 0.61501
 C106 C -0.05333 0.28972 0.63166
 C107 C 0.05856 0.18429 0.44013
 C108 C 0.09563 0.14948 0.43281
 C109 C 0.12379 0.16686 0.51590
 C110 C 0.08618 0.20155 0.52159
 N111 N 0.05399 0.20890 0.48419
 H112 H -0.07117 0.23341 0.57662
 H113 H 0.05510 0.32103 0.54712
 H114 H 0.04389 0.37064 0.62327
 H115 H -0.08475 0.28016 0.65383
 H116 H 0.03207 0.19031 0.41121
 H117 H 0.09779 0.12994 0.39760
 H118 H 0.14757 0.16010 0.54687
 H119 H 0.08132 0.22079 0.55664
 C120 C -0.13745 0.13623 0.47607
 C121 C -0.01987 0.37857 0.38691
 C122 C 0.12809 0.13925 0.47141
 C123 C -0.02200 0.33003 0.64496
 C124 C 0.95553 0.69398 0.58301
 H125 H 0.92642 0.71349 0.56506
 C126 C 0.94335 0.65481 0.61311
 H127 H 0.90494 0.64614 0.61941
 C128 C 1.04050 0.67883 0.59353
 H129 H 1.07819 0.68667 0.58410
 C130 C 1.02993 0.63953 0.62429
 H131 H 1.05981 0.61804 0.63866
 N132 N 1.00343 0.70472 0.57301
 C133 C 0.94523 0.78670 0.45808
 H134 H 0.96377 0.76553 0.42956
 C135 C 0.90790 0.81884 0.44538
 H136 H 0.89736 0.82084 0.40718
 C137 C 0.93769 0.81081 0.54212
 H138 H 0.95060 0.80836 0.57958
 C139 C 0.90022 0.84358 0.53101
 H140 H 0.88441 0.86613 0.56032
 Zn141 Zn 1.01641 0.74672 0.52000
 N142 N 0.95989 0.78385 0.50566
 C143 C 0.99283 0.66919 0.45599
 N144 N 1.02890 0.70380 0.46554
 C145 C 1.07007 0.70602 0.43753
 C146 C 1.07600 0.67206 0.39802
 C147 C 0.99702 0.63506 0.41686
 C148 C 1.05984 0.84196 0.53208
 C149 C 1.09738 0.87748 0.53829
 C150 C 1.15524 0.81100 0.54627
 C151 C 1.11642 0.77656 0.53982
 N152 N 1.06967 0.79244 0.53280
 H153 H 0.96048 0.66835 0.47884
 H154 H 1.09808 0.73415 0.44551
 H155 H 1.10873 0.67442 0.37575
 H156 H 0.96788 0.60768 0.41038
 H157 H 1.02301 0.85447 0.52550
 H158 H 1.08844 0.91654 0.53717
 H159 H 1.19228 0.79746 0.55015
 H160 H 1.12411 0.73725 0.53839
 C161 C 0.88576 0.84872 0.48191
 C162 C 0.98076 0.62619 0.63297
 C163 C 1.14589 0.86222 0.54499
 C164 C 1.03900 0.63616 0.38728
 C165 C 0.40123 -0.02731 0.27626
 H166 H 0.39769 -0.04897 0.24232
 C167 C 0.36538 -0.03210 0.31227
 H168 H 0.33472 -0.05767 0.30556
 C169 C 0.44495 0.03228 0.32621
 H170 H 0.47630 0.05697 0.33183
 C171 C 0.40954 0.02909 0.36302
 H172 H 0.41430 0.05095 0.39685
 N173 N 0.44121 0.00293 0.28456
 C174 C 0.48925 -0.04735 0.14419
 H175 H 0.49572 -0.01049 0.13067
 C176 C 0.48538 -0.08809 0.11082
 H177 H 0.48929 -0.08112 0.07221
 C178 C 0.47652 -0.10011 0.21073
 H179 H 0.47276 -0.10469 0.24983
 C180 C 0.47265 -0.14177 0.17891
 H181 H 0.46550 -0.17731 0.19500
 Zn182 Zn 0.49536 0.00018 0.24036
 N183 N 0.48585 -0.05407 0.19332
 C184 C 0.57166 -0.05660 0.28196
 N185 N 0.55269 -0.01026 0.27860
 C186 C 0.57104 0.02875 0.30651
 C187 C 0.60706 0.02110 0.34215
 C188 C 0.60715 -0.06602 0.31743
 C189 C 0.46864 0.09771 0.21668
 C190 C 0.47282 0.14298 0.19322
 C191 C 0.54745 0.11395 0.15496
 C192 C 0.54219 0.06943 0.17972
 N193 N 0.50265 0.06175 0.20901
 H194 H 0.55831 -0.08696 0.25857
 H195 H 0.55638 0.06556 0.30239
 H196 H 0.61957 0.05211 0.36561
 H197 H 0.62051 -0.10352 0.32065
 H198 H 0.43754 0.09095 0.24017
 H199 H 0.44421 0.17017 0.19837
 H200 H 0.57830 0.11885 0.13057
 H201 H 0.56908 0.04046 0.17479
 C202 C 0.47798 -0.13669 0.12790
 C203 C 0.37019 -0.00487 0.35691
 C204 C 0.51212 0.15118 0.16116
 C205 C 0.62402 -0.02721 0.34905
 C206 C 0.57779 -0.04446 0.66871
 H207 H 0.54551 -0.06829 0.66422
 C208 C 0.61783 -0.05090 0.63742
 H209 H 0.61632 -0.07986 0.60884
 C210 C 0.61837 0.02353 0.71023
 H211 H 0.61790 0.05337 0.73778
 C212 C 0.65968 0.01760 0.68057
 H213 H 0.69068 0.04311 0.68552
 N214 N 0.57806 -0.00655 0.70305
 C215 C 0.45616 -0.04455 0.79980
 H216 H 0.43230 -0.01368 0.79409
 C217 C 0.44359 -0.07874 0.83515
 H218 H 0.40972 -0.07385 0.85526
 C219 C 0.53084 -0.08597 0.78358
 H220 H 0.56569 -0.08749 0.76477
 C221 C 0.51994 -0.12077 0.81928
 H222 H 0.54586 -0.14991 0.82633
 Zn223 Zn 0.52005 0.00768 0.73868
 N224 N 0.49932 -0.04825 0.77505
 C225 C 0.42751 0.04806 0.71493
 N226 N 0.46860 0.02746 0.69522
 C227 C 0.47222 0.01960 0.64575
 C228 C 0.43244 0.02902 0.61476
 C229 C 0.38700 0.05816 0.68538
 C230 C 0.55506 0.04130 0.82846
 C231 C 0.55486 0.07034 0.87160
 C232 C 0.51677 0.13615 0.82718
 C233 C 0.51659 0.10521 0.78485
 N234 N 0.53370 0.05798 0.78699
 H235 H 0.42580 0.05646 0.75388
 H236 H 0.50545 0.00495 0.63000
 H237 H 0.43613 0.02107 0.57583
 H238 H 0.35477 0.07322 0.70296
 H239 H 0.56882 0.00380 0.82904
 H240 H 0.56830 0.05504 0.90536
 H241 H 0.49994 0.17238 0.82626
 H242 H 0.50007 0.11775 0.75135
 C243 C 0.47607 -0.11687 0.84604
 C244 C 0.65902 -0.01903 0.64274
 C245 C 0.53392 0.11749 0.87150
 C246 C 0.38836 0.04717 0.63460
 C247 C 0.25760 0.00819 0.50557
 C248 C 0.75446 -0.01828 0.48389
 C249 C 0.49543 0.24552 1.00695
 C250 C 0.48321 0.75179 -0.02233
 C251 C 1.00054 0.50259 0.25645
 C252 C -0.02269 0.48500 0.75265
 N253 N 0.19081 0.02492 0.44328
 N254 N 0.15763 0.05874 0.43389
 C255 C 0.16305 0.09730 0.46651
 C256 C 0.20223 0.08748 0.49759
 C257 C 0.21834 0.04046 0.48239
 H258 H 0.21593 0.11104 0.52764
 H259 H 0.19336 -0.00921 0.42406
 H260 H 0.13044 0.05389 0.40688
 N261 N 0.55742 0.72953 -0.07542
 N262 N 0.59789 0.70335 -0.07204
 C263 C 0.60372 0.68945 -0.02538
 C264 C 0.56523 0.70865 0.00220
 C265 C 0.53632 0.73451 -0.03073
 H266 H 0.55776 0.70159 0.04018
 H267 H 0.54300 0.74011 -0.10900
 H268 H 0.61872 0.69214 -0.10236
 N269 N 0.81355 -0.05852 0.42459
 N270 N 0.84705 -0.09349 0.42351
 C271 C 0.85013 -0.11300 0.46835
 C272 C 0.81697 -0.08924 0.49930
 C273 C 0.79460 -0.05465 0.47012
 H274 H 0.81001 -0.09627 0.53749
 H275 H 0.80413 -0.03731 0.39459
 H276 H 0.86806 -0.10251 0.39266
 N277 N 0.40591 0.23278 0.97714
 N278 N 0.36560 0.25935 0.97409
 C279 C 0.37470 0.30512 0.99392
 C280 C 0.42302 0.30767 1.01031
 C281 C 0.44194 0.26092 0.99929
 H282 H 0.44261 0.33978 1.02608
 H283 H 0.40804 0.19626 0.96329
 H284 H 0.33258 0.24593 0.95856
 N285 N 0.74424 0.07539 0.47922
 N286 N 0.77250 0.11574 0.47683
 C287 C 0.81978 0.10177 0.47389
 C288 C 0.82160 0.05044 0.47370
 C289 C 0.77279 0.03475 0.47649
 H290 H 0.85418 0.02781 0.47384
 H291 H 0.70620 0.07587 0.48437
 H292 H 0.75962 0.15214 0.47967
 N293 N 0.45080 0.68231 -0.07884
 N294 N 0.41752 0.64614 -0.08007
 C295 C 0.39355 0.64631 -0.03699
 C296 C 0.41216 0.68522 -0.00718
 C297 C 0.44970 0.70667 -0.03476
 H298 H 0.39978 0.69605 0.02916
 H299 H 0.47321 0.69050 -0.10850
 H300 H 0.41108 0.62252 -0.11069
 N301 N 0.26068 -0.07018 0.55447
 N302 N 0.23204 -0.10860 0.56456
 C303 C 0.18656 -0.10051 0.54697
 C304 C 0.18622 -0.05444 0.52542
 C305 C 0.23429 -0.03658 0.53006
 H306 H 0.15611 -0.03831 0.50569
 H307 H 0.29837 -0.06825 0.56212
 H308 H 0.24419 -0.14024 0.58196
 N309 N 0.52359 0.30807 0.94542
 N310 N 0.55608 0.34467 0.94155
 C311 C 0.58291 0.34906 0.98339
 C312 C 0.56652 0.31282 1.01512
 C313 C 0.52878 0.28747 0.98952
 H314 H 0.57932 0.30635 1.05198
 H315 H 0.49773 0.29781 0.91826
 H316 H 0.55906 0.36593 0.91034
 N317 N 0.48363 0.26242 1.09903
 N318 N 0.48803 0.23753 1.13983
 C319 C 0.51261 0.19529 1.12994
 C320 C 0.52593 0.19441 1.08108
 C321 C 0.50446 0.23626 1.06162
 H322 H 0.54338 0.16397 1.06135
 H323 H 0.46392 0.29524 1.09687
 H324 H 0.47183 0.24820 1.17309
 N325 N -0.07341 0.51616 0.68220
 N326 N -0.07343 0.55376 0.65229
 C327 C -0.03171 0.58072 0.65950
 C328 C -0.00370 0.55900 0.69537
 C329 C -0.03134 0.51766 0.70889
 H330 H 0.03036 0.57328 0.71148
 H331 H -0.10277 0.49100 0.68515
 H332 H -0.10191 0.56059 0.62764
 N333 N 0.42017 0.80293 -0.06646
 N334 N 0.41797 0.83645 -0.10071
 C335 C 0.46404 0.84824 -0.11462
 C336 C 0.49703 0.82162 -0.08711
 C337 C 0.46768 0.79192 -0.05780
 H338 H 0.53675 0.82387 -0.08840
 H339 H 0.38933 0.78705 -0.05004
 H340 H 0.38515 0.84973 -0.11503
 N341 N 0.93283 0.47138 0.30838
 N342 N 0.92794 0.43842 0.34652
 C343 C 0.97148 0.41589 0.35269
 C344 C 1.00487 0.43469 0.31912
 C345 C 0.97920 0.46843 0.29100
 H346 H 1.04361 0.42650 0.31623
 H347 H 0.90548 0.49598 0.29830
 H348 H 0.89495 0.43211 0.36481
 N349 N 0.47607 0.74211 0.06759
 N350 N 0.47464 0.77323 0.10947
 C351 C 0.47653 0.82098 0.09531
 C352 C 0.47879 0.82071 0.04412
 C353 C 0.47782 0.77075 0.02787
 H354 H 0.48179 0.85266 0.02116
 H355 H 0.47741 0.70332 0.06826
 H356 H 0.47447 0.75997 0.14499
 N357 N -0.08086 0.41140 0.73286
 N358 N -0.08042 0.37096 0.70392
 C359 C -0.03448 0.36430 0.68682
 C360 C -0.00441 0.40175 0.70705
 C361 C -0.03495 0.43133 0.73612
 H362 H 0.03342 0.40946 0.69776
 H363 H -0.11323 0.42736 0.74580
 H364 H -0.11219 0.35131 0.69273
 N365 N 0.48503 0.15283 0.98806
 N366 N 0.49628 0.11951 0.95359
 C367 C 0.52192 0.14226 0.91855
 C368 C 0.52795 0.19221 0.93145
 C369 C 0.50427 0.19763 0.97651
 H370 H 0.54565 0.22035 0.90995
 H371 H 0.46288 0.14515 1.01815
 H372 H 0.48422 0.08238 0.95294
 N373 N 1.07698 0.54832 0.29318
 N374 N 1.08652 0.58325 0.32738
 C375 C 1.04368 0.59983 0.34571
 C376 C 1.00531 0.57456 0.32179
 C377 C 1.02764 0.54251 0.28814
 H378 H 0.96628 0.57790 0.32844
 H379 H 1.10423 0.52760 0.27557
 H380 H 1.12190 0.59368 0.33929
 N381 N 1.03848 0.42886 0.21437
 N382 N 1.07468 0.42117 0.17910
 C383 C 1.09063 0.46608 0.16420
 C384 C 1.06448 0.50294 0.18936
 C385 C 1.03367 0.47847 0.22191
 H386 H 1.06837 0.54285 0.18631
 H387 H 1.01804 0.40016 0.22971
 H388 H 1.08483 0.38595 0.16591
 N389 N 0.77139 -0.00924 0.57526
 N390 N 0.74668 -0.00912 0.61685
 C391 C 0.69937 -0.02137 0.60684
 C392 C 0.69375 -0.02959 0.55672
 C393 C 0.74036 -0.02124 0.53769
 H394 H 0.65966 -0.03677 0.53684
 H395 H 0.80858 0.00060 0.57256
 H396 H 0.76194 0.00042 0.65121
 N397 N -0.05433 0.55496 0.80676
 N398 N -0.08362 0.56249 0.84447
 C399 C -0.10352 0.51854 0.85695
 C400 C -0.08580 0.48119 0.82568
 C401 C -0.05508 0.50607 0.79356
 H402 H -0.09305 0.44162 0.82749
 H403 H -0.03377 0.58316 0.79065
 H404 H -0.09013 0.59750 0.86066
 N405 N 0.28779 -0.05763 0.44392
 N406 N 0.31555 -0.06016 0.40450
 C407 C 0.33646 -0.01521 0.39780
 C408 C 0.32143 0.01758 0.43508
 C409 C 0.29036 -0.01087 0.46386
 H410 H 0.33020 0.05689 0.43965
 H411 H 0.26628 -0.08750 0.45549
 H412 H 0.31991 -0.09247 0.38272
 N413 N 0.07077 0.48951 0.74240
 N414 N 0.11057 0.48862 0.77048
 C415 C 0.09681 0.48554 0.81782
 C416 C 0.04585 0.48438 0.81943
 C417 C 0.03051 0.48766 0.77102
 H418 H 0.02260 0.48095 0.85119
 H419 H 0.07153 0.49081 0.70416
 H420 H 0.14627 0.48994 0.75674
 N421 N 0.68977 -0.07828 0.44961
 N422 N 0.65694 -0.08140 0.41375
 C423 C 0.65680 -0.03788 0.39060
 C424 C 0.69104 -0.00560 0.41280
 C425 C 0.71125 -0.03264 0.45040
 H426 H 0.70097 0.03145 0.40163
 H427 H 0.69790 -0.10736 0.47270
 H428 H 0.63487 -0.11284 0.40581
 N429 N 0.95302 0.57468 0.21984
 N430 N 0.91359 0.58053 0.19212
 C431 C 0.89453 0.53538 0.17891
 C432 C 0.92372 0.49917 0.19886
 C433 C 0.95997 0.52554 0.22555
 H434 H 0.91887 0.45914 0.19569
 H435 H 0.97487 0.60424 0.23371
 H436 H 0.90095 0.61514 0.18166
 N437 N 0.26543 0.05648 0.58637
 N438 N 0.29929 0.06640 0.62034
 C439 C 0.34342 0.05159 0.60340
 C440 C 0.33690 0.03261 0.55560
 C441 C 0.28674 0.03627 0.54600
 H442 H 0.36355 0.01322 0.53312
 H443 H 0.22771 0.05948 0.59264
 H444 H 0.29093 0.08007 0.65549
   
