data_POSCAR
  _audit_creation_date              2014-09-24
  _audit_creation_method            'ToBaCCo'
  _symmetry_space_group_name_H-M    'P1'
  _symmetry_Int_Tables_number       1
  _symmetry_cell_setting            triclinic
  loop_
  _symmetry_equiv_pos_as_xyz
 x,y,z
_cell_length_a 21.1062
_cell_length_b 13.4152
_cell_length_c 13.3834
_cell_angle_alpha 89.597800
_cell_angle_beta 90.028400
_cell_angle_gamma 90.119500
loop_
  _atom_site_label
  _atom_site_type_symbol
  _atom_site_fract_x
  _atom_site_fract_y
  _atom_site_fract_z
O1 O 0.10308 0.17096 0.16211
 O2 O 0.16729 0.08330 0.05629
 C3 C 0.15830 0.14769 0.12685
 O4 O -0.07117 -0.18503 0.18755
 O5 O -0.14637 -0.08999 0.10747
 C6 C -0.12933 -0.15971 0.16945
 O7 O 0.10650 -0.16285 0.17471
 O8 O 0.16858 -0.08316 0.06048
 C9 C 0.16201 -0.13953 0.13847
 O10 O -0.07344 0.17764 0.17771
 O11 O -0.14834 0.08231 0.09891
 C12 C -0.13180 0.15309 0.15933
 Zr13 Zr 0.01198 0.12538 0.11471
 O14 O 0.01975 0.14751 0.27054
 O15 O 0.01367 0.28096 0.08951
 Zr16 Zr 0.01337 -0.12598 0.12606
 O17 O 0.01565 -0.12492 0.28420
 O18 O 0.01879 -0.28325 0.12312
 O19 O 0.06978 0.00096 0.13159
 O20 O -0.04122 -0.00043 0.14678
 O21 O -0.09405 0.16729 -0.17721
 O22 O -0.15793 0.07972 -0.06894
 C23 C -0.14907 0.14487 -0.13999
 O24 O 0.08399 -0.18598 -0.19127
 O25 O 0.15836 -0.09099 -0.11005
 C26 C 0.14215 -0.15933 -0.17318
 O27 O -0.09326 -0.19469 -0.15472
 O28 O -0.15788 -0.09368 -0.06284
 C29 C -0.14895 -0.16653 -0.12414
 O30 O 0.08218 0.16080 -0.20741
 O31 O 0.15778 0.07717 -0.11651
 C32 C 0.14065 0.13929 -0.18590
 Zr33 Zr -0.00278 0.11667 -0.13524
 O34 O -0.01213 0.12252 -0.29252
 O35 O -0.00074 0.27449 -0.13275
 Zr36 Zr -0.00186 -0.13564 -0.12485
 O37 O -0.01725 -0.14073 -0.28107
 O38 O 0.00400 -0.29301 -0.11844
 Zr39 Zr 0.09906 -0.00448 -0.01889
 Zr40 Zr -0.08918 -0.00567 0.00907
 O41 O -0.05828 -0.01070 -0.14033
 O42 O 0.05263 -0.00983 -0.15838
 O43 O -0.05218 0.13990 -0.00247
 O44 O 0.06067 -0.14871 -0.00641
 O45 O 0.05991 0.13955 -0.01896
 O46 O -0.05060 -0.15041 0.00982
 H47 H -0.06607 0.00019 0.20956
 H48 H 0.08924 -0.20697 -0.00695
 H49 H -0.09038 -0.01353 -0.19425
 H50 H 0.08863 0.19776 -0.02475
 H51 H 0.02500 -0.30496 0.19336
 H52 H -0.02103 -0.31517 -0.05982
 H53 H 0.01689 -0.10134 -0.31334
 H54 H -0.02689 0.05631 -0.31445
 H55 H -0.03553 0.29778 -0.08922
 H56 H 0.02206 0.31153 0.15537
 H57 H 0.00912 0.08344 0.30329
 H58 H 0.04770 -0.07495 0.30425
 O59 O 0.58480 0.66278 0.69143
 O60 O 0.65878 0.57300 0.60512
 C61 C 0.64276 0.63503 0.67437
 O62 O 0.40500 0.31372 0.65173
 O63 O 0.34122 0.41237 0.55349
 C64 C 0.34978 0.34261 0.61988
 O65 O 0.58212 0.31988 0.68583
 O66 O 0.65743 0.40974 0.59997
 C67 C 0.64051 0.34451 0.66655
 O68 O 0.40943 0.67716 0.66045
 O69 O 0.34378 0.58956 0.55580
 C70 C 0.35385 0.65336 0.62702
 Zr71 Zr 0.49906 0.62202 0.61941
 O72 O 0.48781 0.63531 0.77547
 O73 O 0.50350 0.77872 0.60383
 Zr74 Zr 0.49671 0.36894 0.61676
 O75 O 0.48094 0.35761 0.77252
 O76 O 0.49917 0.21220 0.60262
 O77 O 0.55238 0.49392 0.64651
 O78 O 0.44230 0.49605 0.62892
 O79 O 0.42693 0.68318 0.30980
 O80 O 0.35203 0.58579 0.38648
 C81 C 0.36858 0.65585 0.32433
 O82 O 0.60418 0.32680 0.32349
 O83 O 0.66730 0.41422 0.43037
 C84 C 0.65954 0.35205 0.35844
 O85 O 0.42573 0.31974 0.30452
 O86 O 0.35149 0.41336 0.38712
 C87 C 0.36767 0.34588 0.32308
 O88 O 0.60371 0.67071 0.32166
 O89 O 0.66710 0.58348 0.43071
 C90 C 0.65852 0.64557 0.35721
 Zr91 Zr 0.51270 0.62678 0.37021
 O92 O 0.52099 0.64126 0.21342
 O93 O 0.51928 0.78381 0.38304
 Zr94 Zr 0.51170 0.37431 0.36585
 O95 O 0.51582 0.37803 0.20778
 O96 O 0.51619 0.21673 0.36501
 Zr97 Zr 0.59885 0.49617 0.50699
 Zr98 Zr 0.41066 0.49926 0.47996
 O99 O 0.45842 0.50150 0.34177
 O100 O 0.56936 0.50008 0.35644
 O101 O 0.44894 0.64429 0.48722
 O102 O 0.55902 0.35253 0.49917
 O103 O 0.56172 0.64141 0.50310
 O104 O 0.44755 0.35341 0.48301
 H105 H 0.41084 0.49468 0.68357
 H106 H 0.58716 0.29354 0.50242
 H107 H 0.43328 0.50248 0.27928
 H108 H 0.59129 0.69865 0.50836
 H109 H 0.49528 0.18488 0.67133
 H110 H 0.48282 0.19191 0.41081
 H111 H 0.55359 0.41757 0.18849
 H112 H 0.51221 0.57518 0.18452
 H113 H 0.47954 0.80781 0.41379
 H114 H 0.50268 0.80561 0.67257
 H115 H 0.49027 0.56714 0.80331
 H116 H 0.51008 0.40512 0.80492
 C117 C 0.26870 0.24771 0.32344
 C118 C 0.21858 0.19953 0.27603
 C119 C 0.21410 0.19788 0.17153
 C120 C 0.26088 0.24822 0.11375
 C121 C 0.31223 0.29682 0.16214
 C122 C 0.31622 0.29551 0.26793
 C123 C 0.35640 0.34908 0.10279
 N124 N 0.34960 0.35188 0.00208
 N125 N 0.30131 0.30696 -0.04317
 C126 C 0.25665 0.25595 0.00915
 H127 H 0.27067 0.24707 0.40438
 H128 H 0.18294 0.16279 0.32154
 H129 H 0.39558 0.38929 0.13527
 H130 H 0.21765 0.22412 -0.03138
 C131 C 0.74146 0.77549 0.35190
 C132 C 0.79299 0.82286 0.30653
 C133 C 0.82011 0.78378 0.21984
 C134 C 0.79539 0.69509 0.17835
 C135 C 0.74114 0.64987 0.22151
 C136 C 0.71472 0.68996 0.30965
 C137 C 0.71514 0.56562 0.17468
 N138 N 0.74318 0.52796 0.09203
 N139 N 0.79511 0.56897 0.05285
 C140 C 0.82228 0.65104 0.09324
 H141 H 0.72132 0.80707 0.41905
 H142 H 0.81145 0.89093 0.33863
 H143 H 0.67333 0.52872 0.20366
 H144 H 0.86410 0.68177 0.05783
 C145 C 0.73780 0.24320 0.66507
 C146 C 0.78842 0.19510 0.71166
 C147 C 0.79499 0.19586 0.81585
 C148 C 0.74986 0.24866 0.87367
 C149 C 0.69781 0.29655 0.82634
 C150 C 0.69179 0.29305 0.72116
 C151 C 0.65512 0.35039 0.88588
 N152 N 0.66384 0.35496 0.98607
 N153 N 0.71310 0.31125 1.03020
 C154 C 0.75662 0.25966 0.97712
 H155 H 0.73431 0.24109 0.58429
 H156 H 0.82277 0.15664 0.66584
 H157 H 0.61570 0.39039 0.85381
 H158 H 0.79705 0.23022 1.01539
 C159 C 0.25312 0.75045 0.62490
 C160 C 0.20168 0.79505 0.67308
 C161 C 0.19413 0.78637 0.77688
 C162 C 0.23777 0.72815 0.83256
 C163 C 0.29048 0.68433 0.78428
 C164 C 0.29872 0.69709 0.67950
 C165 C 0.33135 0.62420 0.84218
 N166 N 0.31988 0.60911 0.94069
 N167 N 0.27019 0.64979 0.98560
 C168 C 0.22891 0.70854 0.93502
 H169 H 0.25823 0.75969 0.54484
 H170 H 0.16828 0.83842 0.62940
 H171 H 0.37104 0.58614 0.81006
 H172 H 0.18885 0.73719 0.97501
 C173 C 0.29162 0.18984 0.67174
 C174 C 0.24129 0.14048 0.71845
 C175 C 0.19121 0.19408 0.76067
 C176 C 0.19263 0.29968 0.75772
 C177 C 0.24303 0.34971 0.70847
 C178 C 0.29316 0.29423 0.66508
 C179 C 0.24314 0.45425 0.70931
 N180 N 0.19639 0.50511 0.75565
 N181 N 0.14999 0.45831 0.80391
 C182 C 0.14707 0.35762 0.80772
 H183 H 0.32981 0.14610 0.64053
 H184 H 0.24159 0.05975 0.72220
 H185 H 0.28065 0.49613 0.67618
 H186 H 0.11031 0.32462 0.85234
 C187 C 0.75208 0.69879 0.68581
 C188 C 0.80135 0.74717 0.73422
 C189 C 0.79489 0.78164 0.83246
 C190 C 0.73645 0.76373 0.88365
 C191 C 0.68767 0.70801 0.83582
 C192 C 0.69456 0.67975 0.73435
 C193 C 0.63429 0.67975 0.89252
 N194 N 0.62734 0.71269 0.98720
 N195 N 0.67074 0.77035 1.02980
 C196 C 0.72482 0.79655 0.98176
 H197 H 0.75881 0.67775 0.60849
 H198 H 0.84465 0.76034 0.69266
 H199 H 0.59885 0.62950 0.86409
 H200 H 0.75793 0.84074 1.02276
 C201 C 0.25599 0.70508 0.30943
 C202 C 0.20609 0.75705 0.26641
 C203 C 0.21480 0.82097 0.18317
 C204 C 0.27866 0.83401 0.14689
 C205 C 0.32739 0.76922 0.18242
 C206 C 0.31706 0.70909 0.26896
 C207 C 0.38442 0.76553 0.12790
 N208 N 0.39627 0.83319 0.05488
 N209 N 0.35474 0.90403 0.03214
 C210 C 0.29702 0.90770 0.07608
 H211 H 0.24608 0.66035 0.37532
 H212 H 0.15991 0.74623 0.30022
 H213 H 0.41883 0.70766 0.13951
 H214 H 0.26816 0.97076 0.05679
 C215 C 0.71002 0.20762 0.27771
 C216 C 0.75966 0.15956 0.22984
 C217 C 0.81705 0.20886 0.21092
 C218 C 0.82397 0.30947 0.24180
 C219 C 0.77663 0.35410 0.30217
 C220 C 0.71692 0.30471 0.31454
 C221 C 0.79121 0.44752 0.34465
 N222 N 0.84482 0.49677 0.31843
 N223 N 0.88494 0.45994 0.25191
 C224 C 0.87576 0.36893 0.21158
 H225 H 0.66585 0.16743 0.28750
 H226 H 0.75264 0.08325 0.20616
 H227 H 0.76195 0.48331 0.39849
 H228 H 0.90794 0.34606 0.15401
   
