data_POSCAR
  _audit_creation_date              2014-09-24
  _audit_creation_method            'ToBaCCo'
  _symmetry_space_group_name_H-M    'P1'
  _symmetry_Int_Tables_number       1
  _symmetry_cell_setting            triclinic
  loop_
  _symmetry_equiv_pos_as_xyz
 x,y,z
_cell_length_a 25.5847
_cell_length_b 25.6528
_cell_length_c 25.5229
_cell_angle_alpha 89.895600
_cell_angle_beta 89.981200
_cell_angle_gamma 90.023700
loop_
  _atom_site_label
  _atom_site_type_symbol
  _atom_site_fract_x
  _atom_site_fract_y
  _atom_site_fract_z
N1 N 0.55613 0.10567 0.02480
 N2 N 0.59379 0.13602 0.04266
 N3 N 0.44617 0.10524 -0.02637
 N4 N 0.40849 0.13526 -0.04482
 N5 N 0.44619 0.10558 0.02510
 N6 N 0.40856 0.13585 0.04312
 N7 N 0.55610 0.10520 -0.02667
 N8 N 0.59371 0.13523 -0.04529
 C9 C 0.61696 0.15372 -0.00154
 C10 C 0.38530 0.15363 -0.00097
 N11 N 0.44589 -0.02602 -0.10480
 N12 N 0.40793 -0.04439 -0.13456
 N13 N 0.55593 0.02507 -0.10578
 N14 N 0.59320 0.04289 -0.13689
 N15 N 0.55586 -0.02609 -0.10491
 N16 N 0.59537 -0.04506 -0.13727
 N17 N 0.44597 0.02518 -0.10536
 N18 N 0.40808 0.04311 -0.13550
 Mn19 Mn 0.50105 0.06558 -0.06646
 C20 C 0.38464 -0.00076 -0.15300
 C21 C 0.61704 -0.00046 -0.15540
 N22 N 0.44640 0.02673 0.10579
 N23 N 0.40852 0.04500 0.13573
 N24 N 0.55643 -0.02426 0.10612
 N25 N 0.59363 -0.04212 0.13725
 N26 N 0.55641 0.02691 0.10528
 N27 N 0.59590 0.04582 0.13771
 N28 N 0.44650 -0.02447 0.10630
 N29 N 0.40873 -0.04250 0.13657
 Mn30 Mn 0.50126 0.06663 0.06567
 C31 C 0.38532 0.00131 0.15423
 C32 C 0.61752 0.00119 0.15582
 N33 N 0.55600 -0.10477 -0.02450
 N34 N 0.59371 -0.13486 -0.04265
 N35 N 0.44630 -0.10452 0.02728
 N36 N 0.40873 -0.13462 0.04588
 N37 N 0.44610 -0.10480 -0.02418
 N38 N 0.40843 -0.13510 -0.04206
 N39 N 0.55626 -0.10435 0.02696
 N40 N 0.59414 -0.13416 0.04530
 Mn41 Mn 0.50094 -0.06582 -0.06501
 Mn42 Mn 0.50139 -0.06481 0.06708
 Cl43 Cl 0.50114 0.00040 0.00033
 C44 C 0.61721 -0.15247 0.00137
 C45 C 0.38537 -0.15296 0.00211
 N46 N 0.10596 0.44507 0.02491
 N47 N 0.13613 0.40738 0.04294
 N48 N 0.10662 0.55509 -0.02573
 N49 N 0.13696 0.59279 -0.04356
 N50 N 0.10643 0.55466 0.02570
 N51 N 0.13663 0.59202 0.04426
 N52 N 0.10610 0.44548 -0.02653
 N53 N 0.13640 0.40808 -0.04487
 C54 C 0.15467 0.38441 -0.00106
 C55 C 0.15524 0.61569 0.00059
 N56 N -0.02408 0.55646 -0.10609
 N57 N -0.04204 0.59388 -0.13683
 N58 N 0.02664 0.44652 -0.10661
 N59 N 0.04468 0.40868 -0.13660
 N60 N -0.02470 0.44681 -0.10675
 N61 N -0.04306 0.40919 -0.13681
 N62 N 0.02723 0.55626 -0.10564
 N63 N 0.04614 0.59585 -0.13798
 Mn64 Mn 0.06706 0.50082 -0.06657
 C65 C 0.00136 0.61772 -0.15559
 C66 C 0.00070 0.38572 -0.15476
 N67 N 0.02654 0.55436 0.10532
 N68 N 0.04473 0.59189 0.13561
 N69 N -0.02525 0.44488 0.10436
 N70 N -0.04372 0.40704 0.13423
 N71 N 0.02608 0.44468 0.10452
 N72 N 0.04402 0.40670 0.13450
 N73 N -0.02480 0.55452 0.10513
 N74 N -0.04300 0.59215 0.13525
 Mn75 Mn 0.06666 0.49969 0.06553
 C76 C 0.00085 0.61517 0.15358
 C77 C -0.00001 0.38350 0.15231
 N78 N -0.10453 0.44646 -0.02712
 N79 N -0.13477 0.40907 -0.04561
 N80 N -0.10409 0.55554 0.02510
 N81 N -0.13418 0.59302 0.04355
 N82 N -0.10394 0.55608 -0.02633
 N83 N -0.13395 0.59395 -0.04426
 N84 N -0.10457 0.44598 0.02431
 N85 N -0.13481 0.40826 0.04221
 Mn86 Mn -0.06473 0.50147 -0.06699
 Mn87 Mn -0.06508 0.50022 0.06513
 Cl88 Cl 0.00099 0.50054 -0.00073
 C89 C -0.15322 0.38536 -0.00186
 C90 C -0.15236 0.61687 -0.00018
 N91 N 0.02441 0.10434 0.44519
 N92 N 0.04265 0.13438 0.40733
 N93 N -0.02699 0.10446 0.55530
 N94 N -0.04507 0.13488 0.59282
 N95 N 0.02432 0.10434 0.55534
 N96 N 0.04253 0.13465 0.59286
 N97 N -0.02689 0.10433 0.44510
 N98 N -0.04496 0.13438 0.40719
 C99 C -0.00110 0.15268 0.38375
 C100 C -0.00121 0.15324 0.61615
 N101 N -0.10674 -0.02615 0.55557
 N102 N -0.13718 -0.04412 0.59328
 N103 N -0.10659 0.02489 0.44523
 N104 N -0.13694 0.04296 0.40755
 N105 N -0.10664 -0.02628 0.44538
 N106 N -0.13703 -0.04441 0.40780
 N107 N -0.10666 0.02503 0.55538
 N108 N -0.13700 0.04326 0.59293
 Mn109 Mn -0.06720 0.06508 0.50025
 C110 C -0.15559 -0.00033 0.61647
 C111 C -0.15548 -0.00073 0.38430
 N112 N 0.10388 0.02493 0.55558
 N113 N 0.13412 0.04301 0.59329
 N114 N 0.10401 -0.02617 0.44545
 N115 N 0.13443 -0.04415 0.40781
 N116 N 0.10396 0.02500 0.44542
 N117 N 0.13429 0.04322 0.40779
 N118 N 0.10386 -0.02624 0.55564
 N119 N 0.13407 -0.04437 0.59339
 Mn120 Mn 0.06454 0.06505 0.50039
 C121 C 0.15250 -0.00071 0.61676
 C122 C 0.15285 -0.00037 0.38442
 N123 N -0.02697 -0.10573 0.44557
 N124 N -0.04500 -0.13595 0.40786
 N125 N 0.02423 -0.10566 0.55575
 N126 N 0.04239 -0.13604 0.59335
 N127 N -0.02708 -0.10569 0.55578
 N128 N -0.04521 -0.13612 0.59340
 N129 N 0.02434 -0.10560 0.44560
 N130 N 0.04261 -0.13569 0.40794
 Mn131 Mn -0.06728 -0.06639 0.50059
 Mn132 Mn 0.06451 -0.06633 0.50060
 Cl133 Cl -0.00137 -0.00065 0.50046
 C134 C -0.00110 -0.15419 0.38450
 C135 C -0.00139 -0.15458 0.61675
 C136 C -0.26603 0.26170 -0.00225
 C137 C -0.24667 0.28089 0.04523
 C138 C -0.20928 0.32064 0.04536
 C139 C -0.34103 0.19077 -0.00198
 C140 C -0.20992 0.32167 -0.04963
 C141 C -0.24734 0.28191 -0.04967
 C142 C -0.30644 0.22267 -0.00221
 C143 C -0.19090 0.34172 -0.00208
 H144 H -0.26095 0.26559 0.08216
 H145 H -0.19528 0.33529 0.08256
 H146 H -0.19642 0.33716 -0.08674
 H147 H -0.26215 0.26740 -0.08664
 C148 C 0.26825 0.73918 0.00195
 C149 C 0.24903 0.71904 0.04918
 C150 C 0.21156 0.67934 0.04878
 C151 C 0.34333 0.81002 0.00242
 C152 C 0.21189 0.68028 -0.04621
 C153 C 0.24934 0.71997 -0.04572
 C154 C 0.30870 0.77815 0.00234
 C155 C 0.19299 0.65927 0.00106
 H156 H 0.26348 0.73355 0.08630
 H157 H 0.19766 0.66392 0.08577
 H158 H 0.19824 0.66560 -0.08353
 H159 H 0.26404 0.73522 -0.08250
 C160 C 0.26793 0.26120 -0.00132
 C161 C 0.24911 0.28124 -0.04874
 C162 C 0.21154 0.32082 -0.04872
 C163 C 0.34319 0.19056 -0.00122
 C164 C 0.21098 0.31998 0.04626
 C165 C 0.24853 0.28040 0.04615
 C166 C 0.30849 0.22234 -0.00133
 C167 C 0.19247 0.34089 -0.00119
 H168 H 0.26393 0.26673 -0.08571
 H169 H 0.19796 0.33617 -0.08585
 H170 H 0.19695 0.33466 0.08345
 H171 H 0.26291 0.26524 0.08308
 C172 C -0.26521 0.74034 0.00091
 C173 C -0.24611 0.72122 -0.04672
 C174 C -0.20864 0.68157 -0.04713
 C175 C -0.34056 0.81079 0.00141
 C176 C -0.20869 0.68055 0.04786
 C177 C -0.24615 0.72020 0.04818
 C178 C -0.30579 0.77912 0.00125
 C179 C -0.18995 0.66053 0.00018
 H180 H -0.26069 0.73647 -0.08354
 H181 H -0.19486 0.66692 -0.08442
 H182 H -0.19494 0.66510 0.08489
 H183 H -0.26076 0.73465 0.08527
 C184 C -0.00003 -0.26737 0.26105
 C185 C -0.04757 -0.24871 0.28067
 C186 C -0.04800 -0.21114 0.32031
 C187 C 0.00072 -0.34270 0.19047
 C188 C 0.04675 -0.21022 0.32031
 C189 C 0.04710 -0.24777 0.28068
 C190 C 0.00041 -0.30797 0.22222
 C191 C -0.00081 -0.19191 0.34084
 H192 H -0.08428 -0.26369 0.26581
 H193 H -0.08520 -0.19770 0.33535
 H194 H 0.08369 -0.19605 0.33533
 H195 H 0.08411 -0.26200 0.26584
 C196 C -0.00031 0.26742 0.73868
 C197 C 0.04685 0.24764 0.71930
 C198 C 0.04655 0.20976 0.67999
 C199 C 0.00044 0.34332 0.80865
 C200 C -0.04820 0.21070 0.67983
 C201 C -0.04782 0.24860 0.71915
 C202 C 0.00010 0.30834 0.77718
 C203 C -0.00099 0.19129 0.65953
 H204 H 0.08384 0.26199 0.73407
 H205 H 0.08351 0.19546 0.66514
 H206 H -0.08538 0.19714 0.66484
 H207 H -0.08455 0.26371 0.73382
 C208 C -0.00069 0.26563 0.25972
 C209 C -0.04810 0.24662 0.27937
 C210 C -0.04829 0.20910 0.31918
 C211 C -0.00031 0.34116 0.18910
 C212 C 0.04648 0.20891 0.31927
 C213 C 0.04658 0.24642 0.27946
 C214 C -0.00051 0.30631 0.22082
 C215 C -0.00097 0.19028 0.33986
 H216 H -0.08491 0.26130 0.26444
 H217 H -0.08541 0.19539 0.33426
 H218 H 0.08350 0.19505 0.33441
 H219 H 0.08349 0.26095 0.26459
 C220 C -0.00087 -0.26862 0.73990
 C221 C 0.04634 -0.24895 0.72042
 C222 C 0.04618 -0.21115 0.68088
 C223 C 0.00021 -0.34414 0.81061
 C224 C -0.04857 -0.21196 0.68065
 C225 C -0.04832 -0.24979 0.72020
 C226 C -0.00050 -0.30936 0.77877
 C227 C -0.00129 -0.19264 0.66028
 H228 H 0.08329 -0.26329 0.73533
 H229 H 0.08319 -0.19692 0.66600
 H230 H -0.08570 -0.19837 0.66555
 H231 H -0.08510 -0.26480 0.73493
 C232 C 0.26626 -0.00094 0.74008
 C233 C 0.24694 -0.04811 0.72055
 C234 C 0.20916 -0.04807 0.68098
 C235 C 0.34216 -0.00098 0.81034
 C236 C 0.20931 0.04644 0.68089
 C237 C 0.24708 0.04631 0.72046
 C238 C 0.30715 -0.00101 0.77876
 C239 C 0.19037 -0.00077 0.66042
 H240 H 0.26159 -0.08491 0.73539
 H241 H 0.19522 -0.08502 0.66599
 H242 H 0.19548 0.08344 0.66583
 H243 H 0.26185 0.08305 0.73524
 C244 C -0.26924 -0.00064 0.26087
 C245 C -0.25032 -0.04788 0.28077
 C246 C -0.21259 -0.04797 0.32043
 C247 C -0.34449 0.00013 0.18982
 C248 C -0.21207 0.04653 0.31992
 C249 C -0.24977 0.04653 0.28027
 C250 C -0.30984 -0.00045 0.22183
 C251 C -0.19346 -0.00074 0.34070
 H252 H -0.26517 -0.08462 0.26609
 H253 H -0.19892 -0.08496 0.33566
 H254 H -0.19799 0.08349 0.33474
 H255 H -0.26420 0.08333 0.26520
 C256 C 0.26696 0.00068 0.26131
 C257 C 0.24807 -0.04672 0.28092
 C258 C 0.21020 -0.04715 0.32043
 C259 C 0.34288 0.00134 0.19099
 C260 C 0.20941 0.04735 0.32034
 C261 C 0.24728 0.04769 0.28083
 C262 C 0.30789 0.00110 0.22262
 C263 C 0.19088 -0.00009 0.34086
 H264 H 0.26312 -0.08334 0.26615
 H265 H 0.19658 -0.08425 0.33547
 H266 H 0.19518 0.08419 0.33528
 H267 H 0.26169 0.08461 0.26600
 C268 C -0.26949 0.00056 0.73978
 C269 C -0.25045 -0.04680 0.72043
 C270 C -0.21269 -0.04715 0.68082
 C271 C -0.34489 0.00048 0.81067
 C272 C -0.21230 0.04736 0.68029
 C273 C -0.25008 0.04762 0.71990
 C274 C -0.31017 0.00078 0.77873
 C275 C -0.19360 -0.00006 0.66005
 H276 H -0.26527 -0.08345 0.73550
 H277 H -0.19894 -0.08423 0.66601
 H278 H -0.19825 0.08422 0.66507
 H279 H -0.26459 0.08450 0.73454
   
