data_POSCAR
  _audit_creation_date              2014-09-24
  _audit_creation_method            'ToBaCCo'
  _symmetry_space_group_name_H-M    'P1'
  _symmetry_Int_Tables_number       1
  _symmetry_cell_setting            triclinic
  loop_
  _symmetry_equiv_pos_as_xyz
 x,y,z
_cell_length_a 39.0923
_cell_length_b 39.2660
_cell_length_c 39.5100
_cell_angle_alpha 90.056900
_cell_angle_beta 90.057500
_cell_angle_gamma 90.207400
loop_
  _atom_site_label
  _atom_site_type_symbol
  _atom_site_fract_x
  _atom_site_fract_y
  _atom_site_fract_z
N1 N 0.15356 0.23452 0.23771
 N2 N 0.16597 0.21062 0.25742
 C3 C 0.14490 0.20639 0.28407
 C4 C 0.11802 0.22911 0.28103
 C5 C 0.12445 0.24657 0.25128
 H6 H 0.14908 0.18847 0.30441
 H7 H 0.10885 0.26625 0.24008
 Cu8 Cu 0.20891 0.18777 0.24709
 Cu9 Cu 0.17575 0.24794 0.19578
 Cu10 Cu 0.24473 0.19959 0.17029
 N11 N 0.24549 0.15870 0.23032
 N12 N 0.25784 0.16210 0.19956
 C13 C 0.28182 0.13815 0.19425
 C14 C 0.28507 0.11914 0.22345
 C15 C 0.26173 0.13288 0.24588
 H16 H 0.29667 0.13547 0.17133
 H17 H 0.25673 0.12440 0.27144
 N18 N 0.22791 0.23887 0.14437
 N19 N 0.20163 0.25739 0.15415
 C20 C 0.19726 0.28312 0.13210
 C21 C 0.22217 0.28086 0.10734
 C22 C 0.24114 0.25247 0.11597
 H23 H 0.17810 0.30274 0.13451
 H24 H 0.26323 0.24268 0.10279
 H25 H 0.19503 0.19948 0.18837
 H26 H 0.22505 0.23196 0.20678
 N27 N 0.64818 0.73130 0.73697
 N28 N 0.65707 0.70408 0.75413
 C29 C 0.63534 0.69991 0.78022
 C30 C 0.61155 0.72594 0.77945
 C31 C 0.62059 0.74544 0.75163
 H32 H 0.63697 0.67971 0.79869
 H33 H 0.60785 0.76801 0.74246
 Cu34 Cu 0.69630 0.67685 0.74093
 Cu35 Cu 0.67292 0.74619 0.69681
 Cu36 Cu 0.74340 0.69843 0.67305
 N37 N 0.73649 0.65095 0.72791
 N38 N 0.75438 0.65916 0.70098
 C39 C 0.78029 0.63700 0.69740
 C40 C 0.77873 0.61370 0.72363
 C41 C 0.75062 0.62341 0.74257
 H42 H 0.79920 0.63813 0.67749
 H43 H 0.74100 0.61111 0.76510
 N44 N 0.72822 0.73907 0.64811
 N45 N 0.70125 0.75708 0.65699
 C46 C 0.69752 0.78305 0.63508
 C47 C 0.72346 0.78143 0.61133
 C48 C 0.74247 0.75323 0.62045
 H49 H 0.67774 0.80214 0.63662
 H50 H 0.76490 0.74361 0.60772
 H51 H 0.69165 0.69896 0.68345
 H52 H 0.71962 0.72595 0.71096
 N53 N 0.34120 0.76077 0.74550
 N54 N 0.33363 0.78897 0.76172
 C55 C 0.35744 0.79472 0.78569
 C56 C 0.38121 0.76867 0.78458
 C57 C 0.36996 0.74751 0.75876
 H58 H 0.35744 0.81628 0.80272
 H59 H 0.38221 0.72463 0.74967
 Cu60 Cu 0.29387 0.81617 0.75004
 Cu61 Cu 0.31465 0.74469 0.70700
 Cu62 Cu 0.24962 0.79728 0.67915
 N63 N 0.25709 0.84504 0.73362
 N64 N 0.24105 0.83847 0.70514
 C65 C 0.21747 0.86272 0.69960
 C66 C 0.21837 0.88575 0.72632
 C67 C 0.24397 0.87350 0.74744
 H68 H 0.20006 0.86264 0.67835
 H69 H 0.25274 0.88455 0.77096
 N70 N 0.26168 0.75431 0.65644
 N71 N 0.28516 0.73332 0.66814
 C72 C 0.28687 0.70593 0.64763
 C73 C 0.26363 0.71011 0.62157
 C74 C 0.24817 0.74107 0.62794
 H75 H 0.30480 0.68522 0.65044
 H76 H 0.22864 0.75309 0.61274
 H77 H 0.30072 0.79340 0.69304
 H78 H 0.26903 0.76854 0.71860
 N79 N 0.85338 0.26700 0.23883
 N80 N 0.84544 0.29513 0.25501
 C81 C 0.86786 0.30002 0.28044
 C82 C 0.89104 0.27325 0.28064
 C83 C 0.88080 0.25275 0.25374
 H84 H 0.86681 0.32113 0.29794
 H85 H 0.89271 0.22955 0.24505
 Cu86 Cu 0.80579 0.32194 0.24190
 Cu87 Cu 0.82834 0.25163 0.19884
 Cu88 Cu 0.75907 0.30059 0.17381
 N89 N 0.76652 0.34891 0.22799
 N90 N 0.74871 0.34056 0.20100
 C91 C 0.72308 0.36294 0.19692
 C92 C 0.72467 0.38659 0.22287
 C93 C 0.75261 0.37686 0.24215
 H94 H 0.70417 0.36159 0.17697
 H95 H 0.76211 0.38926 0.26473
 N96 N 0.77345 0.25924 0.14962
 N97 N 0.79980 0.24057 0.15902
 C98 C 0.80314 0.21439 0.13721
 C99 C 0.77756 0.21662 0.11302
 C100 C 0.75924 0.24536 0.12178
 H101 H 0.82257 0.19497 0.13893
 H102 H 0.73743 0.25568 0.10854
 H103 H 0.81095 0.29912 0.18475
 H104 H 0.78212 0.27290 0.21198
 N105 N 0.85144 0.73251 0.26197
 N106 N 0.84222 0.70558 0.24438
 C107 C 0.86402 0.70155 0.21834
 C108 C 0.88814 0.72744 0.21953
 C109 C 0.87927 0.74665 0.24760
 H110 H 0.86223 0.68152 0.19965
 H111 H 0.89226 0.76905 0.25710
 Cu112 Cu 0.80248 0.67855 0.25691
 Cu113 Cu 0.82677 0.74705 0.30222
 Cu114 Cu 0.75647 0.69859 0.32597
 N115 N 0.76358 0.65114 0.27108
 N116 N 0.74577 0.65900 0.29815
 C117 C 0.72048 0.63602 0.30213
 C118 C 0.72245 0.61246 0.27609
 C119 C 0.75017 0.62291 0.25688
 H120 H 0.70173 0.63675 0.32219
 H121 H 0.75999 0.61070 0.23440
 N122 N 0.77146 0.73950 0.35087
 N123 N 0.79852 0.75764 0.34212
 C124 C 0.80229 0.78359 0.36413
 C125 C 0.77628 0.78184 0.38780
 C126 C 0.75720 0.75358 0.37854
 H127 H 0.82214 0.80276 0.36269
 H128 H 0.73473 0.74382 0.39122
 H129 H 0.80813 0.69927 0.31483
 H130 H 0.77987 0.72689 0.28849
 N131 N 0.35007 0.23277 -0.24025
 N132 N 0.34322 0.20371 -0.25531
 C133 C 0.36565 0.19900 -0.28070
 C134 C 0.38777 0.22680 -0.28189
 C135 C 0.37680 0.24776 -0.25575
 H136 H 0.36532 0.17724 -0.29743
 H137 H 0.38767 0.27187 -0.24800
 Cu138 Cu 0.30494 0.17523 -0.24111
 Cu139 Cu 0.32466 0.24842 -0.20096
 Cu140 Cu 0.25548 0.19947 -0.17559
 N141 N 0.26465 0.14932 -0.22762
 N142 N 0.24571 0.15874 -0.20183
 C143 C 0.21968 0.13656 -0.19811
 C144 C 0.22224 0.11197 -0.22308
 C145 C 0.25111 0.12090 -0.24136
 H146 H 0.19990 0.13866 -0.17914
 H147 H 0.26145 0.10766 -0.26303
 N148 N 0.26947 0.24150 -0.15222
 N149 N 0.29601 0.26000 -0.16168
 C150 C 0.29954 0.28645 -0.14023
 C151 C 0.27391 0.28457 -0.11618
 C152 C 0.25526 0.25581 -0.12466
 H153 H 0.31916 0.30582 -0.14209
 H154 H 0.23333 0.24572 -0.11135
 H155 H 0.30746 0.20118 -0.18503
 H156 H 0.27920 0.22509 -0.21485
 N157 N 0.65013 0.26785 -0.23982
 N158 N 0.65822 0.29601 -0.25589
 C159 C 0.63598 0.30077 -0.28148
 C160 C 0.61276 0.27389 -0.28188
 C161 C 0.62282 0.25341 -0.25498
 H162 H 0.63717 0.32192 -0.29889
 H163 H 0.61080 0.23016 -0.24640
 Cu164 Cu 0.69772 0.32312 -0.24233
 Cu165 Cu 0.67471 0.25296 -0.19944
 Cu166 Cu 0.74394 0.30239 -0.17383
 N167 N 0.73702 0.35031 -0.22837
 N168 N 0.75470 0.34225 -0.20125
 C169 C 0.78031 0.36488 -0.19718
 C170 C 0.77880 0.38836 -0.22327
 C171 C 0.75096 0.37826 -0.24260
 H172 H 0.79910 0.36387 -0.17712
 H173 H 0.74152 0.39046 -0.26524
 N174 N 0.72905 0.26109 -0.14954
 N175 N 0.70269 0.24234 -0.15920
 C176 C 0.69892 0.21625 -0.13738
 C177 C 0.72419 0.21856 -0.11290
 C178 C 0.74285 0.24728 -0.12150
 H179 H 0.67947 0.19672 -0.13937
 H180 H 0.76466 0.25756 -0.10808
 H181 H 0.69232 0.30058 -0.18515
 H182 H 0.72133 0.27444 -0.21211
 N183 N 0.15238 0.76677 0.26181
 N184 N 0.15991 0.79574 0.24692
 C185 C 0.13721 0.80140 0.22190
 C186 C 0.11408 0.77457 0.22110
 C187 C 0.12458 0.75308 0.24691
 H188 H 0.13801 0.82297 0.20496
 H189 H 0.11310 0.72913 0.25424
 Cu190 Cu 0.19990 0.82168 0.26094
 Cu191 Cu 0.17992 0.74831 0.29872
 Cu192 Cu 0.25403 0.79304 0.31985
 N193 N 0.24083 0.84729 0.27272
 N194 N 0.26324 0.83463 0.29405
 C195 C 0.29034 0.85584 0.29605
 C196 C 0.28429 0.88379 0.27537
 C197 C 0.25247 0.87735 0.26105
 H198 H 0.31215 0.85178 0.31238
 H199 H 0.23925 0.89282 0.24263
 N200 N 0.23954 0.75072 0.34304
 N201 N 0.21125 0.73403 0.33518
 C202 C 0.20732 0.70776 0.35671
 C203 C 0.23431 0.70784 0.37947
 C204 C 0.25426 0.73548 0.36987
 H205 H 0.18587 0.69038 0.35628
 H206 H 0.27719 0.74461 0.38222
 H207 H 0.20141 0.79353 0.31568
 H208 H 0.22539 0.76963 0.28262
 N209 N 0.48330 0.40175 0.48814
 N210 N 0.45803 0.41291 0.50700
 C211 C 0.45381 0.39164 0.53346
 C212 C 0.47790 0.36589 0.53113
 C213 C 0.49614 0.37323 0.50200
 H214 H 0.43487 0.39479 0.55312
 H215 H 0.51686 0.35861 0.49130
 Cu216 Cu 0.43305 0.45385 0.49429
 Cu217 Cu 0.49741 0.42449 0.44653
 Cu218 Cu 0.45102 0.49570 0.42254
 N219 N 0.40807 0.49480 0.48156
 N220 N 0.41383 0.50948 0.45220
 C221 C 0.39162 0.53521 0.44788
 C222 C 0.37142 0.53728 0.47637
 C223 C 0.38240 0.51133 0.49732
 H224 H 0.39041 0.55143 0.42580
 H225 H 0.37176 0.50450 0.52165
 N226 N 0.48984 0.47802 0.39622
 N227 N 0.50759 0.45101 0.40535
 C228 C 0.53326 0.44642 0.38311
 C229 C 0.53176 0.47190 0.35897
 C230 C 0.50387 0.49142 0.36812
 H231 H 0.55239 0.42672 0.38499
 H232 H 0.49477 0.51404 0.35550
 H233 H 0.48064 0.47268 0.45937
 H234 H 0.45011 0.44479 0.43572
 N235 N -0.02179 -0.10238 0.98472
 N236 N -0.04696 -0.09159 1.00390
 C237 C -0.04899 -0.11131 1.03164
 C238 C -0.02373 -0.13585 1.02977
 C239 C -0.00688 -0.12936 0.99961
 H240 H -0.06757 -0.10814 1.05162
 H241 H 0.01398 -0.14372 0.98877
 Cu242 Cu -0.07588 -0.05396 0.99008
 Cu243 Cu -0.01222 -0.08197 0.94085
 Cu244 Cu -0.04573 -0.00086 0.93064
 N245 N -0.10074 -0.01331 0.97707
 N246 N -0.08916 0.00714 0.95336
 C247 C -0.11074 0.03353 0.94990
 C248 C -0.13724 0.02947 0.97282
 C249 C -0.12999 -0.00054 0.98967
 H250 H -0.10691 0.05455 0.93264
 H251 H -0.14485 -0.01215 1.00965
 N252 N -0.00893 -0.01924 0.90197
 N253 N 0.00322 -0.05033 0.90540
 C254 C 0.02755 -0.05552 0.88192
 C255 C 0.03088 -0.02630 0.86251
 C256 C 0.00722 -0.00386 0.87606
 H257 H 0.04196 -0.07882 0.87957
 H258 H 0.00187 0.02175 0.86766
 H259 H -0.02271 -0.03664 0.96275
 H260 H -0.05548 -0.05157 0.93164
 N261 N 1.02114 0.60471 0.98600
 N262 N 1.04500 0.59295 1.00628
 C263 C 1.04789 0.61368 1.03326
 C264 C 1.02448 0.63979 1.02982
 C265 C 1.00786 0.63325 0.99950
 H266 H 1.06560 0.61001 1.05394
 H267 H 0.98815 0.64846 0.98775
 Cu268 Cu 1.07064 0.55218 0.99521
 Cu269 Cu 1.01098 0.58326 0.94260
 Cu270 Cu 1.04303 0.50151 0.93279
 N271 N 1.09732 0.51337 0.98017
 N272 N 1.08655 0.49378 0.95535
 C273 C 1.10893 0.46826 0.95074
 C274 C 1.13518 0.47201 0.97401
 C275 C 1.12694 0.50094 0.99230
 H276 H 1.10575 0.44797 0.93246
 H277 H 1.14133 0.51199 1.01296
 N278 N 1.00737 0.52063 0.90342
 N279 N 0.99564 0.55191 0.90658
 C280 C 0.97191 0.55735 0.88247
 C281 C 0.96863 0.52806 0.86302
 C282 C 0.99163 0.50537 0.87717
 H283 H 0.95774 0.58076 0.87973
 H284 H 0.99686 0.47967 0.86896
 H285 H 1.01855 0.53726 0.96417
 H286 H 1.05376 0.55193 0.93578
 N287 N 0.51125 0.09384 0.49489
 N288 N 0.53996 0.08661 0.51058
 C289 C 0.54593 0.11039 0.53446
 C290 C 0.51959 0.13392 0.53375
 C291 C 0.49799 0.12244 0.50827
 H292 H 0.56789 0.11054 0.55107
 H293 H 0.47470 0.13430 0.49955
 Cu294 Cu 0.56751 0.04743 0.49799
 Cu295 Cu 0.49429 0.06681 0.45700
 Cu296 Cu 0.54591 0.00072 0.42975
 N297 N 0.59563 0.00973 0.48245
 N298 N 0.58752 -0.00780 0.45526
 C299 C 0.61111 -0.03213 0.45019
 C300 C 0.63534 -0.02992 0.47568
 C301 C 0.62466 -0.00300 0.49571
 H302 H 0.61012 -0.05072 0.43001
 H303 H 0.63710 0.00660 0.51824
 N304 N 0.50266 0.01285 0.40741
 N305 N 0.48197 0.03673 0.41882
 C306 C 0.45443 0.03851 0.39831
 C307 C 0.45836 0.01498 0.37256
 C308 C 0.48918 -0.00076 0.37910
 H309 H 0.43396 0.05678 0.40074
 H310 H 0.50105 -0.02038 0.36398
 H311 H 0.51843 0.02175 0.46933
 H312 H 0.54245 0.05213 0.44166
 N313 N -0.01629 0.10033 0.51124
 N314 N -0.04284 0.09068 0.49315
 C315 C -0.04663 0.11218 0.46691
 C316 C -0.02104 0.13661 0.46852
 C317 C -0.00222 0.12821 0.49704
 H318 H -0.06633 0.11000 0.44783
 H319 H 0.01984 0.14156 0.50699
 Cu320 Cu -0.06999 0.05099 0.50551
 Cu321 Cu -0.00199 0.07603 0.55178
 Cu322 Cu -0.05082 0.00620 0.57547
 N323 N -0.09765 0.01229 0.51980
 N324 N -0.09012 -0.00483 0.54735
 C325 C -0.11312 -0.02999 0.55156
 C326 C -0.13641 -0.02876 0.52519
 C327 C -0.12574 -0.00155 0.50547
 H328 H -0.11255 -0.04819 0.57206
 H329 H -0.13767 0.00763 0.48256
 N330 N -0.01010 0.02128 0.60069
 N331 N 0.00831 0.04806 0.59190
 C332 C 0.03428 0.05175 0.61404
 C333 C 0.03221 0.02597 0.63785
 C334 C 0.00375 0.00713 0.62853
 H335 H 0.05369 0.07135 0.61258
 H336 H -0.00625 -0.01515 0.64120
 H337 H -0.02174 0.02912 0.53803
 H338 H -0.05002 0.05750 0.56359
 N339 N 0.48183 0.60129 0.01302
 N340 N 0.45418 0.59263 -0.00389
 C341 C 0.44977 0.61453 -0.02968
 C342 C 0.47607 0.63822 -0.02896
 C343 C 0.49601 0.62894 -0.00150
 H344 H 0.42925 0.61306 -0.04796
 H345 H 0.51895 0.64151 0.00745
 Cu346 Cu 0.42679 0.55335 0.00901
 Cu347 Cu 0.49718 0.57611 0.05259
 Cu348 Cu 0.44940 0.50521 0.07565
 N349 N 0.40079 0.51308 0.02168
 N350 N 0.40951 0.49457 0.04797
 C351 C 0.38720 0.46860 0.05123
 C352 C 0.36325 0.47081 0.02547
 C353 C 0.37276 0.49936 0.00717
 H354 H 0.38864 0.44925 0.07061
 H355 H 0.36002 0.50956 -0.01486
 N356 N 0.49061 0.52020 0.10040
 N357 N 0.50856 0.54736 0.09180
 C358 C 0.53486 0.55100 0.11354
 C359 C 0.53353 0.52482 0.13691
 C360 C 0.50515 0.50575 0.12774
 H361 H 0.55394 0.57093 0.11215
 H362 H 0.49561 0.48319 0.14027
 H363 H 0.47647 0.52979 0.03791
 H364 H 0.44984 0.55694 0.06630
 N365 N 0.51562 -0.09885 0.01024
 N366 N 0.54363 -0.09044 -0.00615
 C367 C 0.54852 -0.11271 -0.03161
 C368 C 0.52212 -0.13633 -0.03125
 C369 C 0.50170 -0.12666 -0.00428
 H370 H 0.56943 -0.11152 -0.04943
 H371 H 0.47856 -0.13903 0.00435
 Cu372 Cu 0.57052 -0.05086 0.00704
 Cu373 Cu 0.49924 -0.07313 0.04915
 Cu374 Cu 0.54699 -0.00252 0.07329
 N375 N 0.59703 -0.01118 0.02068
 N376 N 0.58787 0.00746 0.04676
 C377 C 0.61043 0.03315 0.05066
 C378 C 0.63500 0.03063 0.02554
 C379 C 0.62561 0.00216 0.00698
 H380 H 0.60870 0.05259 0.06998
 H381 H 0.63875 -0.00816 -0.01475
 N382 N 0.50485 -0.01689 0.09685
 N383 N 0.48685 -0.04390 0.08782
 C384 C 0.46016 -0.04740 0.10910
 C385 C 0.46128 -0.02129 0.13268
 C386 C 0.48998 -0.00243 0.12402
 H387 H 0.44125 -0.06747 0.10750
 H388 H 0.49974 0.01981 0.13701
 H389 H 0.52046 -0.02691 0.03503
 H390 H 0.54646 -0.05423 0.06391
 N391 N 1.01986 0.39903 0.51339
 N392 N 1.04698 0.40855 0.49616
 C393 C 1.05161 0.38687 0.47016
 C394 C 1.02597 0.36241 0.47103
 C395 C 1.00625 0.37104 0.49888
 H396 H 1.07177 0.38912 0.45160
 H397 H 0.98368 0.35800 0.50799
 Cu398 Cu 1.07344 0.44852 0.50917
 Cu399 Cu 1.00376 0.42409 0.55290
 Cu400 Cu 1.04121 0.50331 0.56604
 N401 N 1.09755 0.49018 0.52149
 N402 N 1.08417 0.51217 0.54275
 C403 C 1.10510 0.53937 0.54550
 C404 C 1.13341 0.53383 0.52527
 C405 C 1.12778 0.50236 0.51045
 H406 H 1.10044 0.56116 0.56158
 H407 H 1.14427 0.48963 0.49253
 N408 N 1.00449 0.48489 0.59490
 N409 N 0.99089 0.45442 0.59050
 C410 C 0.96753 0.44887 0.61491
 C411 C 0.96641 0.47717 0.63587
 C412 C 0.99028 0.49947 0.62231
 H413 H 0.95217 0.42605 0.61696
 H414 H 0.99725 0.52433 0.63189
 H415 H 1.01912 0.46863 0.53171
 H416 H 1.04827 0.45103 0.56503
 C417 C 0.37259 0.00100 0.25091
 C418 C 0.12663 -0.00059 0.75051
 C419 C 0.62884 0.49841 0.24877
 C420 C 0.87379 0.50154 0.75039
 C421 C 0.24882 0.37769 -0.00271
 C422 C 0.74983 0.12390 -0.00062
 C423 C 0.25179 0.62306 0.50106
 C424 C 0.74976 0.87666 0.49971
 C425 C 0.00328 0.25020 0.37467
 C426 C 0.00131 0.75227 0.12493
 C427 C 0.49992 0.25122 0.62430
 C428 C 0.49902 0.74982 0.87484
 C429 C 0.07830 0.20750 0.32588
 C430 C 0.08896 0.23399 0.30455
 C431 C 0.07138 0.26504 0.30560
 C432 C 0.04432 0.26978 0.32816
 C433 C 0.03412 0.24378 0.35075
 C434 C 0.05091 0.21203 0.34813
 H435 H 0.09064 0.18288 0.32484
 H436 H 0.07879 0.28594 0.28932
 H437 H 0.03137 0.29412 0.32834
 H438 H 0.04286 0.19013 0.36260
 C439 C 0.57088 0.70501 0.82381
 C440 C 0.58291 0.73164 0.80333
 C441 C 0.56711 0.76357 0.80566
 C442 C 0.54052 0.76895 0.82860
 C443 C 0.52930 0.74282 0.85054
 C444 C 0.54415 0.71030 0.84661
 H445 H 0.58163 0.67973 0.82179
 H446 H 0.57547 0.78462 0.79003
 H447 H 0.52878 0.79387 0.82960
 H448 H 0.53492 0.68842 0.86044
 C449 C 0.42851 0.73302 0.80858
 C450 C 0.41190 0.76454 0.80626
 C451 C 0.42489 0.79218 0.82487
 C452 C 0.45300 0.78813 0.84631
 C453 C 0.46833 0.75592 0.85075
 C454 C 0.45655 0.72892 0.83010
 H455 H 0.41955 0.71123 0.79428
 H456 H 0.41362 0.81720 0.82265
 H457 H 0.46264 0.81059 0.85897
 H458 H 0.46862 0.70418 0.83145
 C459 C -0.07130 0.29377 0.32600
 C460 C -0.08147 0.26805 0.30325
 C461 C -0.06333 0.23715 0.30360
 C462 C -0.03675 0.23186 0.32666
 C463 C -0.02717 0.25713 0.35033
 C464 C -0.04422 0.28872 0.34852
 H465 H -0.08348 0.31844 0.32603
 H466 H -0.06988 0.21654 0.28660
 H467 H -0.02365 0.20760 0.32631
 H468 H -0.03665 0.31020 0.36387
 C469 C -0.06671 0.76511 0.19428
 C470 C -0.08313 0.73333 0.19577
 C471 C -0.07169 0.70709 0.17452
 C472 C -0.04482 0.71258 0.15189
 C473 C -0.02918 0.74495 0.14897
 C474 C -0.03996 0.77069 0.17154
 H475 H -0.07466 0.78589 0.21041
 H476 H -0.08301 0.68194 0.17579
 H477 H -0.03618 0.69095 0.13739
 H478 H -0.02776 0.79549 0.17119
 C479 C 0.43275 0.26377 0.69476
 C480 C 0.41509 0.23245 0.69543
 C481 C 0.42575 0.20670 0.67306
 C482 C 0.45275 0.21214 0.65059
 C483 C 0.46932 0.24412 0.64843
 C484 C 0.45938 0.26938 0.67183
 H485 H 0.42595 0.28440 0.71156
 H486 H 0.41404 0.18172 0.67331
 H487 H 0.46072 0.19057 0.63566
 H488 H 0.47225 0.29385 0.67211
 C489 C 0.57520 0.29448 0.67285
 C490 C 0.58527 0.26868 0.69543
 C491 C 0.56698 0.23774 0.69486
 C492 C 0.54030 0.23252 0.67182
 C493 C 0.53070 0.25794 0.64842
 C494 C 0.54801 0.28953 0.65039
 H495 H 0.58751 0.31919 0.67297
 H496 H 0.57345 0.21706 0.71171
 H497 H 0.52707 0.20825 0.67204
 H498 H 0.54055 0.31109 0.63523
 C499 C 0.06895 0.73764 0.19440
 C500 C 0.08535 0.76938 0.19701
 C501 C 0.07396 0.79618 0.17643
 C502 C 0.04731 0.79124 0.15331
 C503 C 0.03175 0.75895 0.14931
 C504 C 0.04238 0.73266 0.17127
 H505 H 0.07669 0.71640 0.20999
 H506 H 0.08520 0.82131 0.17847
 H507 H 0.03873 0.81322 0.13933
 H508 H 0.03018 0.70787 0.17015
 C509 C 0.31426 0.06585 0.20496
 C510 C 0.30888 0.09080 0.22967
 C511 C 0.32633 0.08851 0.26047
 C512 C 0.34822 0.06124 0.26695
 C513 C 0.35171 0.03409 0.24358
 C514 C 0.33512 0.03787 0.21185
 H515 H 0.30131 0.06734 0.18076
 H516 H 0.32341 0.10823 0.27945
 H517 H 0.36193 0.06223 0.29051
 H518 H 0.33733 0.01831 0.19265
 C519 C 0.82208 0.57154 0.70372
 C520 C 0.80225 0.58495 0.73006
 C521 C 0.80490 0.57049 0.76240
 C522 C 0.82775 0.54392 0.76846
 C523 C 0.84925 0.53144 0.74259
 C524 C 0.84470 0.54480 0.70968
 H525 H 0.81966 0.58123 0.67820
 H526 H 0.78970 0.57996 0.78324
 H527 H 0.82914 0.53330 0.79371
 H528 H 0.85796 0.53445 0.68805
 C529 C 0.80494 0.43200 0.73821
 C530 C 0.80236 0.41734 0.77047
 C531 C 0.82237 0.43073 0.79683
 C532 C 0.84500 0.45769 0.79096
 C533 C 0.84938 0.47130 0.75813
 C534 C 0.82779 0.45875 0.73224
 H535 H 0.78967 0.42256 0.71734
 H536 H 0.82009 0.42084 0.82230
 H537 H 0.85839 0.46801 0.81260
 H538 H 0.82904 0.46952 0.70705
 C539 C 0.34031 -0.08809 0.27874
 C540 C 0.30545 -0.08759 0.27003
 C541 C 0.29212 -0.05770 0.25569
 C542 C 0.31277 -0.02912 0.25052
 C543 C 0.34817 -0.02970 0.25785
 C544 C 0.36138 -0.06002 0.27207
 H545 H 0.35187 -0.11062 0.28951
 H546 H 0.26527 -0.05569 0.24937
 H547 H 0.30017 -0.00690 0.24070
 H548 H 0.38836 -0.06213 0.27785
 C549 C 0.19663 -0.06846 0.76267
 C550 C 0.19702 -0.08580 0.73148
 C551 C 0.17522 -0.07418 0.70561
 C552 C 0.15321 -0.04676 0.71097
 C553 C 0.15091 -0.03087 0.74297
 C554 C 0.17403 -0.04157 0.76824
 H555 H 0.21309 -0.07595 0.78335
 H556 H 0.17556 -0.08558 0.68070
 H557 H 0.13851 -0.03815 0.68951
 H558 H 0.17411 -0.02927 0.79278
 C559 C 0.69847 0.43027 0.26117
 C560 C 0.70091 0.41523 0.22905
 C561 C 0.68040 0.42779 0.20276
 C562 C 0.65743 0.45430 0.20853
 C563 C 0.65336 0.46841 0.24120
 C564 C 0.67531 0.45662 0.26705
 H565 H 0.71408 0.42143 0.28199
 H566 H 0.68248 0.41757 0.17740
 H567 H 0.64356 0.46388 0.18693
 H568 H 0.67413 0.46771 0.29213
 C569 C 0.67875 0.57009 0.29569
 C570 C 0.69945 0.58307 0.26973
 C571 C 0.69803 0.56766 0.23770
 C572 C 0.67558 0.54063 0.23153
 C573 C 0.65317 0.52862 0.25690
 C574 C 0.65642 0.54293 0.28960
 H575 H 0.68017 0.58052 0.32102
 H576 H 0.71387 0.57672 0.21714
 H577 H 0.67516 0.52932 0.20652
 H578 H 0.64232 0.53309 0.31095
 C579 C 0.19691 0.06750 0.73879
 C580 C 0.19857 0.08313 0.77067
 C581 C 0.17741 0.07097 0.79666
 C582 C 0.15450 0.04426 0.79076
 C583 C 0.15118 0.02955 0.75826
 C584 C 0.17385 0.04093 0.73279
 H585 H 0.21306 0.07609 0.71825
 H586 H 0.17895 0.08166 0.82188
 H587 H 0.14008 0.03498 0.81215
 H588 H 0.17323 0.02945 0.70785
 C589 C 0.26038 0.30643 0.06324
 C590 C 0.22832 0.30478 0.07904
 C591 C 0.20217 0.32630 0.06765
 C592 C 0.20811 0.34948 0.04150
 C593 C 0.24086 0.35274 0.02668
 C594 C 0.26644 0.32979 0.03732
 H595 H 0.28109 0.29007 0.07120
 H596 H 0.17682 0.32488 0.07855
 H597 H 0.18655 0.36420 0.03284
 H598 H 0.29153 0.33039 0.02574
 C599 C 0.70325 0.82551 0.57030
 C600 C 0.72973 0.80505 0.58277
 C601 C 0.76208 0.80723 0.56759
 C602 C 0.76804 0.83014 0.54120
 C603 C 0.74206 0.85215 0.52955
 C604 C 0.70909 0.84821 0.54373
 H605 H 0.67768 0.82355 0.58060
 H606 H 0.78303 0.79159 0.57634
 H607 H 0.79333 0.83115 0.53007
 H608 H 0.68729 0.86202 0.53421
 C609 C 0.73750 0.80760 0.43129
 C610 C 0.76996 0.80548 0.41634
 C611 C 0.79644 0.82605 0.42901
 C612 C 0.79050 0.84876 0.45557
 C613 C 0.75746 0.85251 0.46961
 C614 C 0.73146 0.83049 0.45767
 H615 H 0.71655 0.79189 0.42238
 H616 H 0.82208 0.82415 0.41888
 H617 H 0.81229 0.86266 0.46525
 H618 H 0.70612 0.83141 0.46866
 C619 C 0.23581 0.30967 -0.07189
 C620 C 0.26798 0.30799 -0.08744
 C621 C 0.29461 0.32848 -0.07496
 C622 C 0.28907 0.35070 -0.04792
 C623 C 0.25629 0.35399 -0.03321
 C624 C 0.23018 0.33202 -0.04502
 H625 H 0.21477 0.29400 -0.08067
 H626 H 0.32007 0.32682 -0.08557
 H627 H 0.31097 0.36454 -0.03841
 H628 H 0.20503 0.33262 -0.03356
 C629 C 0.76210 0.19398 -0.06794
 C630 C 0.73014 0.19518 -0.08407
 C631 C 0.70381 0.17395 -0.07230
 C632 C 0.70946 0.15140 -0.04556
 C633 C 0.74212 0.14846 -0.03044
 C634 C 0.76788 0.17124 -0.04140
 H635 H 0.78292 0.21023 -0.07611
 H636 H 0.67849 0.17515 -0.08333
 H637 H 0.68774 0.13691 -0.03673
 H638 H 0.79292 0.17089 -0.02966
 C639 C 0.26865 0.68761 0.42938
 C640 C 0.23920 0.68505 0.40916
 C641 C 0.21421 0.66080 0.41789
 C642 C 0.21793 0.64052 0.44670
 C643 C 0.24650 0.64434 0.46832
 C644 C 0.27238 0.66737 0.45820
 H645 H 0.28891 0.70535 0.42321
 H646 H 0.19147 0.65739 0.40267
 H647 H 0.19822 0.62182 0.45142
 H648 H 0.29536 0.67021 0.47329
 C649 C 0.26322 0.65267 0.59388
 C650 C 0.25884 0.68801 0.59162
 C651 C 0.25023 0.70230 0.56033
 C652 C 0.24773 0.68199 0.53143
 C653 C 0.25427 0.64655 0.53275
 C654 C 0.25992 0.63215 0.56507
 H655 H 0.26887 0.64087 0.61799
 H656 H 0.24605 0.72944 0.55796
 H657 H 0.24018 0.69459 0.50835
 H658 H 0.26294 0.60488 0.56775
 C659 C 0.73913 0.19296 0.06790
 C660 C 0.77109 0.19343 0.08408
 C661 C 0.79691 0.17188 0.07210
 C662 C 0.79080 0.14988 0.04493
 C663 C 0.75814 0.14784 0.02959
 C664 C 0.73289 0.17080 0.04093
 H665 H 0.71863 0.20935 0.07629
 H666 H 0.82219 0.17239 0.08329
 H667 H 0.81216 0.13508 0.03595
 H668 H 0.70787 0.17104 0.02914
 C669 C 0.51386 0.31877 0.55474
 C670 C 0.48290 0.33672 0.55444
 C671 C 0.45666 0.32632 0.57634
 C672 C 0.46142 0.29900 0.59852
 C673 C 0.49313 0.28183 0.60033
 C674 C 0.51876 0.29165 0.57707
 H675 H 0.53461 0.32588 0.53807
 H676 H 0.43206 0.33886 0.57595
 H677 H 0.43973 0.29134 0.61360
 H678 H 0.54304 0.27846 0.57663
 C679 C 0.01463 0.82041 0.05590
 C680 C -0.01743 0.83618 0.05402
 C681 C -0.04382 0.82459 0.07511
 C682 C -0.03831 0.79798 0.09782
 C683 C -0.00571 0.78287 0.10115
 C684 C 0.02033 0.79406 0.07894
 H685 H 0.03544 0.82860 0.03976
 H686 H -0.06919 0.83543 0.07343
 H687 H -0.06018 0.78900 0.11193
 H688 H 0.04532 0.78227 0.07961
 C689 C 0.04561 0.67970 0.07453
 C690 C 0.01904 0.66859 0.05333
 C691 C -0.01256 0.68526 0.05473
 C692 C -0.01781 0.71176 0.07774
 C693 C 0.00825 0.72222 0.10036
 C694 C 0.04058 0.70653 0.09717
 H695 H 0.07065 0.66811 0.07315
 H696 H -0.03346 0.67745 0.03845
 H697 H -0.04258 0.72400 0.07828
 H698 H 0.06251 0.71502 0.11154
 C699 C 0.54237 0.17575 0.57643
 C700 C 0.51550 0.16451 0.55555
 C701 C 0.48470 0.18277 0.55580
 C702 C 0.48047 0.21067 0.57731
 C703 C 0.50649 0.22076 0.60010
 C704 C 0.53815 0.20365 0.59800
 H705 H 0.56694 0.16320 0.57609
 H706 H 0.46350 0.17530 0.53980
 H707 H 0.45623 0.22394 0.57703
 H708 H 0.56010 0.21161 0.61263
 C709 C 0.01635 0.18245 0.44407
 C710 C -0.01518 0.16531 0.44483
 C711 C -0.04127 0.17603 0.42292
 C712 C -0.03589 0.20293 0.40042
 C713 C -0.00377 0.21945 0.39835
 C714 C 0.02183 0.20923 0.42145
 H715 H 0.03702 0.17506 0.46070
 H716 H -0.06625 0.16411 0.42354
 H717 H -0.05749 0.21089 0.38538
 H718 H 0.04645 0.22198 0.42168
 C719 C 0.45447 0.67899 0.92748
 C720 C 0.48160 0.66684 0.94727
 C721 C 0.51382 0.68237 0.94419
 C722 C 0.51899 0.70872 0.92100
 C723 C 0.49234 0.71990 0.89958
 C724 C 0.45955 0.70545 0.90449
 H725 H 0.42898 0.66851 0.93017
 H726 H 0.53523 0.67393 0.95936
 H727 H 0.54414 0.72024 0.91935
 H728 H 0.43730 0.71476 0.89126
 C729 C 0.54363 0.82264 0.92510
 C730 C 0.51668 0.83479 0.94514
 C731 C 0.48459 0.81890 0.94261
 C732 C 0.47940 0.79200 0.92005
 C733 C 0.50586 0.78055 0.89860
 C734 C 0.53851 0.79561 0.90261
 H735 H 0.56902 0.83351 0.92722
 H736 H 0.46326 0.82737 0.95782
 H737 H 0.45435 0.78019 0.91899
 H738 H 0.56059 0.78634 0.88908
 C739 C -0.01091 0.31666 0.44533
 C740 C 0.02060 0.33380 0.44699
 C741 C 0.04712 0.32322 0.42556
 C742 C 0.04211 0.29669 0.40247
 C743 C 0.00996 0.28039 0.39930
 C744 C -0.01601 0.29021 0.42216
 H745 H -0.03189 0.32386 0.46164
 H746 H 0.07214 0.33501 0.42696
 H747 H 0.06400 0.28884 0.38783
 H748 H -0.04064 0.27751 0.42167
 C749 C 0.34193 0.58176 0.51035
 C750 C 0.34258 0.56048 0.48198
 C751 C 0.31556 0.56148 0.45881
 C752 C 0.28717 0.58198 0.46507
 C753 C 0.28512 0.60247 0.49454
 C754 C 0.31413 0.60334 0.51601
 H755 H 0.36326 0.58205 0.52788
 H756 H 0.31590 0.54549 0.43644
 H757 H 0.26603 0.58106 0.44734
 H758 H 0.31602 0.62037 0.53730
 C759 C 0.81721 0.05334 0.01036
 C760 C 0.83381 0.05283 -0.02107
 C761 C 0.82247 0.07474 -0.04668
 C762 C 0.79545 0.09718 -0.04086
 C763 C 0.77983 0.09941 -0.00866
 C764 C 0.79054 0.07608 0.01638
 H765 H 0.82519 0.03659 0.03060
 H766 H 0.83406 0.07411 -0.07155
 H767 H 0.78684 0.11216 -0.06207
 H768 H 0.77845 0.07595 0.04103
 C769 C 0.68043 0.05481 -0.01230
 C770 C 0.66437 0.05376 0.01942
 C771 C 0.67675 0.07486 0.04535
 C772 C 0.70408 0.09710 0.03957
 C773 C 0.71921 0.09985 0.00717
 C774 C 0.70758 0.07723 -0.01821
 H775 H 0.67177 0.03869 -0.03284
 H776 H 0.66575 0.07379 0.07045
 H777 H 0.71340 0.11144 0.06100
 H778 H 0.71938 0.07738 -0.04301
 C779 C 0.19568 0.54212 0.51471
 C780 C 0.16343 0.55628 0.52054
 C781 C 0.16019 0.59181 0.52168
 C782 C 0.18854 0.61277 0.51550
 C783 C 0.22104 0.59884 0.50815
 C784 C 0.22416 0.56295 0.50940
 H785 H 0.19906 0.51475 0.51484
 H786 H 0.13556 0.60339 0.52646
 H787 H 0.18501 0.64011 0.51582
 H788 H 0.24840 0.55027 0.50658
 C789 C 0.17650 0.42858 -0.04724
 C790 C 0.16456 0.44901 -0.02070
 C791 C 0.18080 0.44716 0.01090
 C792 C 0.20762 0.42439 0.01615
 C793 C 0.21876 0.40235 -0.00985
 C794 C 0.20363 0.40612 -0.04215
 H795 H 0.16525 0.43035 -0.07222
 H796 H 0.17237 0.46281 0.03183
 H797 H 0.21946 0.42344 0.04092
 H798 H 0.21273 0.39232 -0.06398
 C799 C 0.68076 0.94524 0.51300
 C800 C 0.66504 0.94737 0.48116
 C801 C 0.67775 0.92738 0.45457
 C802 C 0.70488 0.90494 0.45991
 C803 C 0.71948 0.90098 0.49239
 C804 C 0.70779 0.92273 0.51840
 H805 H 0.67188 0.96049 0.53403
 H806 H 0.66708 0.92935 0.42938
 H807 H 0.71446 0.89132 0.43817
 H808 H 0.71930 0.92171 0.54332
 C809 C 0.81850 0.94611 0.48735
 C810 C 0.83428 0.94795 0.51920
 C811 C 0.82183 0.92726 0.54541
 C812 C 0.79480 0.90463 0.53977
 C813 C 0.78004 0.90108 0.50731
 C814 C 0.79162 0.92331 0.48162
 H815 H 0.82713 0.96190 0.46661
 H816 H 0.83256 0.92886 0.57061
 H817 H 0.78541 0.89054 0.56131
 H818 H 0.78001 0.92255 0.45672
 C819 C 0.32158 0.42614 0.04435
 C820 C 0.33409 0.44755 0.01877
 C821 C 0.31826 0.44677 -0.01310
 C822 C 0.29116 0.42442 -0.01948
 C823 C 0.27940 0.40156 0.00555
 C824 C 0.29432 0.40394 0.03808
 H825 H 0.33240 0.42697 0.06957
 H826 H 0.32700 0.46311 -0.03338
 H827 H 0.27950 0.42452 -0.04436
 H828 H 0.28485 0.38931 0.05923
 C829 C 0.57677 0.45176 0.31864
 C830 C 0.55590 0.47806 0.33075
 C831 C 0.55831 0.51031 0.31568
 C832 C 0.58174 0.51633 0.28973
 C833 C 0.60405 0.49053 0.27836
 C834 C 0.60007 0.45769 0.29249
 H835 H 0.57469 0.42630 0.32893
 H836 H 0.54245 0.53116 0.32415
 H837 H 0.58287 0.54153 0.27866
 H838 H 0.61426 0.43609 0.28319
 C839 C 0.05649 0.01163 0.81791
 C840 C 0.05483 -0.02025 0.83391
 C841 C 0.07623 -0.04637 0.82217
 C842 C 0.09912 -0.04067 0.79564
 C843 C 0.10213 -0.00822 0.78047
 C844 C 0.07945 0.01741 0.79147
 H845 H 0.04014 0.03233 0.82567
 H846 H 0.07523 -0.07155 0.83314
 H847 H 0.11383 -0.06219 0.78696
 H848 H 0.07987 0.04230 0.77966
 C849 C 0.07700 0.04573 0.67877
 C850 C 0.05565 0.01967 0.66664
 C851 C 0.05668 -0.01227 0.68251
 C852 C 0.07939 -0.01827 0.70914
 C853 C 0.10234 0.00722 0.72042
 C854 C 0.09954 0.03984 0.70555
 H855 H 0.07594 0.07102 0.66795
 H856 H 0.04034 -0.03291 0.67408
 H857 H 0.07955 -0.04324 0.72073
 H858 H 0.11406 0.06138 0.71467
 C859 C 0.55952 0.48623 0.18034
 C860 C 0.55750 0.51849 0.16527
 C861 C 0.57834 0.54481 0.17775
 C862 C 0.60111 0.53895 0.20436
 C863 C 0.60468 0.50614 0.21859
 C864 C 0.58250 0.48026 0.20673
 H865 H 0.54365 0.46539 0.17156
 H866 H 0.57658 0.57029 0.16748
 H867 H 0.61517 0.56063 0.21393
 H868 H 0.58331 0.45507 0.21783
 C869 C 0.41569 -0.04147 0.17272
 C870 C 0.43774 -0.01552 0.16159
 C871 C 0.43738 0.01585 0.17863
 C872 C 0.41611 0.02083 0.20658
 C873 C 0.39484 -0.00557 0.21893
 C874 C 0.39447 -0.03660 0.20075
 H875 H 0.41511 -0.06595 0.16015
 H876 H 0.45353 0.03670 0.17045
 H877 H 0.41682 0.04528 0.21929
 H878 H 0.37806 -0.05756 0.20781
 C879 C 0.94161 0.51491 0.68090
 C880 C 0.94403 0.48266 0.66574
 C881 C 0.92478 0.45572 0.67938
 C882 C 0.90265 0.46114 0.70659
 C883 C 0.89826 0.49400 0.72046
 C884 C 0.91951 0.52033 0.70809
 H885 H 0.95640 0.53625 0.67161
 H886 H 0.92691 0.43020 0.66930
 H887 H 0.88946 0.43921 0.71674
 H888 H 0.91826 0.54558 0.71906
 C889 C 0.92548 0.54852 0.82051
 C890 C 0.94518 0.52195 0.83399
 C891 C 0.94235 0.48946 0.81935
 C892 C 0.91971 0.48350 0.79266
 C893 C 0.89826 0.50950 0.78028
 C894 C 0.90277 0.54256 0.79379
 H895 H 0.92772 0.57417 0.83026
 H896 H 0.95741 0.46835 0.82849
 H897 H 0.91837 0.45814 0.78193
 H898 H 0.88935 0.56426 0.78364
 C899 C 0.40096 0.01210 0.34445
 C900 C 0.43666 0.01046 0.34230
 C901 C 0.45183 0.00437 0.31085
 C902 C 0.43190 0.00151 0.28171
 C903 C 0.39582 0.00478 0.28292
 C904 C 0.38083 0.00813 0.31537
 H905 H 0.38863 0.01587 0.36869
 H906 H 0.47937 0.00235 0.30863
 H907 H 0.44547 -0.00393 0.25861
 H908 H 0.35326 0.00858 0.31803
   
