data_POSCAR
  _audit_creation_date              2014-09-24
  _audit_creation_method            'ToBaCCo'
  _symmetry_space_group_name_H-M    'P1'
  _symmetry_Int_Tables_number       1
  _symmetry_cell_setting            triclinic
  loop_
  _symmetry_equiv_pos_as_xyz
 x,y,z
_cell_length_a 30.4647
_cell_length_b 24.7955
_cell_length_c 21.3353
_cell_angle_alpha 90.241500
_cell_angle_beta 90.051300
_cell_angle_gamma 90.172900
loop_
  _atom_site_label
  _atom_site_type_symbol
  _atom_site_fract_x
  _atom_site_fract_y
  _atom_site_fract_z
C1 C 0.24939 0.27698 0.24870
 C2 C 0.24919 0.22198 0.24870
 C3 C 0.21598 0.19034 0.21310
 C4 C 0.28220 0.19052 0.28430
 C5 C 0.28428 0.30850 0.28109
 C6 C 0.21474 0.30843 0.21637
 C7 C 0.18997 0.15221 0.24444
 C8 C 0.15800 0.12279 0.21194
 C9 C 0.15192 0.13089 0.14754
 C10 C 0.17837 0.16820 0.11574
 C11 C 0.21039 0.19758 0.14829
 C12 C 0.28781 0.19818 0.34913
 C13 C 0.31976 0.16907 0.38160
 C14 C 0.34603 0.13170 0.34973
 C15 C 0.33994 0.12312 0.28542
 C16 C 0.30807 0.15222 0.25291
 C17 C 0.32883 0.30071 0.26668
 C18 C 0.36130 0.32954 0.29902
 C19 C 0.34953 0.36677 0.34557
 C20 C 0.30517 0.37554 0.35912
 C21 C 0.27270 0.34671 0.32689
 C22 C 0.22661 0.34647 0.17080
 C23 C 0.19436 0.37538 0.13878
 C24 C 0.14993 0.36686 0.15232
 C25 C 0.13788 0.32977 0.19860
 C26 C 0.17013 0.30087 0.23073
 H27 H 0.19401 0.14585 0.29431
 H28 H 0.13795 0.09399 0.23726
 H29 H 0.17427 0.17478 0.06586
 H30 H 0.23070 0.22609 0.12309
 H31 H 0.26762 0.22682 0.37438
 H32 H 0.32406 0.17582 0.43143
 H33 H 0.30402 0.14553 0.20303
 H34 H 0.33840 0.27213 0.23072
 H35 H 0.39553 0.32269 0.28789
 H36 H 0.29569 0.40440 0.39486
 H37 H 0.23852 0.35348 0.33839
 H38 H 0.26083 0.35308 0.15934
 H39 H 0.20405 0.40412 0.10324
 H40 H 0.10360 0.32312 0.20972
 H41 H 0.16035 0.27244 0.26653
 H42 H 0.36000 0.09419 0.26036
 C43 C 0.75019 0.22092 0.24954
 C44 C 0.75009 0.27591 0.24946
 C45 C 0.78317 0.30751 0.21396
 C46 C 0.71692 0.30742 0.28490
 C47 C 0.71531 0.18939 0.28153
 C48 C 0.78520 0.18955 0.21766
 C49 C 0.80894 0.34615 0.24535
 C50 C 0.84077 0.37551 0.21289
 C51 C 0.84694 0.36685 0.14864
 C52 C 0.82080 0.32910 0.11677
 C53 C 0.78889 0.29973 0.14919
 C54 C 0.71127 0.30018 0.34970
 C55 C 0.67931 0.32949 0.38209
 C56 C 0.65306 0.36666 0.35017
 C57 C 0.65914 0.37479 0.28589
 C58 C 0.69103 0.34548 0.25345
 C59 C 0.67078 0.19690 0.26673
 C60 C 0.63827 0.16825 0.29884
 C61 C 0.64998 0.13146 0.34555
 C62 C 0.69433 0.12291 0.35945
 C63 C 0.72684 0.15156 0.32745
 C64 C 0.77383 0.15116 0.17184
 C65 C 0.80645 0.12261 0.13995
 C66 C 0.85076 0.13184 0.15388
 C67 C 0.86232 0.16922 0.20049
 C68 C 0.82970 0.19776 0.23249
 H69 H 0.80481 0.35293 0.29518
 H70 H 0.86074 0.40472 0.23795
 H71 H 0.82517 0.32229 0.06698
 H72 H 0.76878 0.27083 0.12393
 H73 H 0.73148 0.27175 0.37501
 H74 H 0.67501 0.32310 0.43191
 H75 H 0.69510 0.35185 0.20360
 H76 H 0.66126 0.22518 0.23067
 H77 H 0.60406 0.17494 0.28744
 H78 H 0.70375 0.09439 0.39533
 H79 H 0.76099 0.14500 0.33926
 H80 H 0.73970 0.14406 0.16001
 H81 H 0.79714 0.09364 0.10415
 H82 H 0.89650 0.17643 0.21192
 H83 H 0.83910 0.22649 0.26848
 H84 H 0.63909 0.40355 0.26079
 C85 C 0.75073 0.78103 0.75087
 C86 C 0.75056 0.72603 0.75075
 C87 C 0.71721 0.69442 0.71539
 C88 C 0.78374 0.69451 0.78595
 C89 C 0.78586 0.81250 0.78276
 C90 C 0.71580 0.81243 0.71908
 C91 C 0.69140 0.65615 0.74687
 C92 C 0.65941 0.62666 0.71451
 C93 C 0.65313 0.63483 0.65026
 C94 C 0.67928 0.67224 0.61831
 C95 C 0.71135 0.70173 0.65063
 C96 C 0.78970 0.70208 0.85073
 C97 C 0.82163 0.67269 0.88287
 C98 C 0.84754 0.63512 0.85071
 C99 C 0.84116 0.62670 0.78644
 C100 C 0.80931 0.65608 0.75426
 C101 C 0.83030 0.80459 0.76773
 C102 C 0.86307 0.83312 0.79981
 C103 C 0.85172 0.87024 0.84675
 C104 C 0.80741 0.87919 0.86084
 C105 C 0.77467 0.85062 0.82883
 C106 C 0.72724 0.85036 0.67317
 C107 C 0.69467 0.87880 0.64124
 C108 C 0.65034 0.86994 0.65523
 C109 C 0.63873 0.83308 0.70197
 C110 C 0.67129 0.80464 0.73400
 H111 H 0.69563 0.64972 0.79669
 H112 H 0.63943 0.59771 0.73962
 H113 H 0.67484 0.67866 0.56851
 H114 H 0.73150 0.73032 0.62530
 H115 H 0.76973 0.73081 0.87621
 H116 H 0.82615 0.67931 0.93268
 H117 H 0.80500 0.64946 0.70441
 H118 H 0.83955 0.77606 0.73155
 H119 H 0.89719 0.82602 0.78812
 H120 H 0.79812 0.90792 0.89684
 H121 H 0.74059 0.85748 0.84080
 H122 H 0.76136 0.85713 0.66127
 H123 H 0.70402 0.90737 0.60534
 H124 H 0.60454 0.82615 0.71343
 H125 H 0.66184 0.77627 0.77005
 H126 H 0.86095 0.59762 0.76117
 C127 C 0.24925 0.72089 0.75128
 C128 C 0.24923 0.77589 0.75120
 C129 C 0.28238 0.80740 0.71573
 C130 C 0.21607 0.80750 0.78656
 C131 C 0.21440 0.68941 0.78341
 C132 C 0.28412 0.68944 0.71919
 C133 C 0.30828 0.84587 0.74719
 C134 C 0.34019 0.87515 0.71477
 C135 C 0.34631 0.86656 0.65050
 C136 C 0.32004 0.82898 0.61857
 C137 C 0.28805 0.79971 0.65094
 C138 C 0.21036 0.80033 0.85135
 C139 C 0.17846 0.82979 0.88369
 C140 C 0.15229 0.86707 0.85169
 C141 C 0.15846 0.87509 0.78735
 C142 C 0.19030 0.84561 0.75503
 C143 C 0.16986 0.69691 0.76872
 C144 C 0.13740 0.66813 0.80077
 C145 C 0.14917 0.63117 0.84735
 C146 C 0.19357 0.62269 0.86115
 C147 C 0.22601 0.65150 0.82918
 C148 C 0.27255 0.65118 0.67333
 C149 C 0.30502 0.62254 0.64125
 C150 C 0.34938 0.63154 0.65504
 C151 C 0.36114 0.66879 0.70170
 C152 C 0.32866 0.69743 0.73388
 H153 H 0.30419 0.85259 0.79704
 H154 H 0.36025 0.90423 0.73987
 H155 H 0.32436 0.82224 0.56875
 H156 H 0.26784 0.77094 0.62564
 H157 H 0.23049 0.77185 0.87671
 H158 H 0.17421 0.82337 0.93354
 H159 H 0.19443 0.85192 0.70517
 H160 H 0.16029 0.72525 0.73276
 H161 H 0.10319 0.67488 0.78930
 H162 H 0.20319 0.59410 0.89688
 H163 H 0.26018 0.64495 0.84088
 H164 H 0.23838 0.64425 0.66161
 H165 H 0.29556 0.59366 0.60542
 H166 H 0.39536 0.67583 0.71301
 H167 H 0.33822 0.72606 0.76990
 H168 H 0.13856 0.90390 0.76202
 O169 O 1.04466 -0.06928 -0.00558
 O170 O 0.95952 0.00574 0.08005
 O171 O 0.95917 -0.06826 -0.00721
 O172 O 1.04504 0.00643 0.07910
 O173 O 1.04525 0.06892 0.00543
 O174 O 0.95959 -0.00562 -0.08069
 O175 O 0.95976 0.06839 0.00658
 O176 O 1.04509 -0.00680 -0.07925
 Cu177 Cu 1.00201 -0.03765 0.04401
 Cu178 Cu 1.00240 0.03753 -0.04440
 C179 C 1.05934 -0.05070 -0.05673
 C180 C 0.94530 0.04973 0.05791
 C181 C 0.94496 -0.04953 -0.05863
 C182 C 1.05970 0.05025 0.05666
 O183 O 0.54355 0.43116 0.49492
 O184 O 0.45813 0.50558 0.58069
 O185 O 0.45809 0.43135 0.49360
 O186 O 0.54363 0.50691 0.57949
 O187 O 0.54338 0.56930 0.50570
 O188 O 0.45802 0.49388 0.42000
 O189 O 0.45791 0.56812 0.50709
 O190 O 0.54351 0.49354 0.42113
 Cu191 Cu 0.50079 0.46245 0.54462
 Cu192 Cu 0.50062 0.53751 0.45604
 C193 C 0.55805 0.44980 0.44369
 C194 C 0.44367 0.54945 0.55854
 C195 C 0.44372 0.44984 0.44216
 C196 C 0.55801 0.55081 0.55691
 O197 O 0.04200 0.50624 -0.08118
 O198 O -0.04365 0.43160 0.00393
 O199 O -0.04349 0.50740 -0.07984
 O200 O 0.04181 0.43183 0.00501
 O201 O 0.04222 0.49428 0.07932
 O202 O -0.04292 0.56971 -0.00535
 O203 O -0.04326 0.49390 0.07842
 O204 O 0.04254 0.56869 -0.00687
 Cu205 Cu -0.00081 0.46298 -0.04554
 Cu206 Cu -0.00023 0.53794 0.04389
 C207 C 0.05664 0.55012 -0.05857
 C208 C -0.05800 0.45017 0.05541
 C209 C -0.05768 0.55125 -0.05674
 C210 C 0.05629 0.45026 0.05664
 O211 O 0.45580 1.06868 0.49460
 O212 O 0.54132 0.99511 0.58069
 O213 O 0.54129 1.06845 0.49333
 O214 O 0.45581 0.99377 0.57944
 O215 O 0.45598 0.93065 0.50588
 O216 O 0.54128 1.00519 0.41996
 O217 O 0.54147 0.93185 0.50731
 O218 O 0.45577 1.00556 0.42103
 Cu219 Cu 0.49862 1.03787 0.54443
 Cu220 Cu 0.49870 0.96194 0.45613
 C221 C 0.44125 1.04952 0.44343
 C222 C 0.55577 0.95103 0.55869
 C223 C 0.55563 1.04942 0.44199
 C224 C 0.44139 0.94965 0.55701
 C225 C 1.12149 0.10398 0.11742
 C226 C 1.09329 0.07931 0.08976
 C227 C 0.61968 0.60502 0.61731
 C228 C 0.59153 0.58015 0.58982
 C229 C -0.11968 0.39643 0.11565
 C230 C -0.09154 0.42108 0.08819
 C231 C 0.37974 0.89607 0.61751
 C232 C 0.40788 0.92066 0.58999
 C233 C -0.11914 0.60540 -0.11654
 C234 C -0.09109 0.58059 -0.08929
 C235 C 0.37948 1.10247 0.38279
 C236 C 0.40767 1.07816 0.41038
 C237 C 1.12077 -0.10475 -0.11712
 C238 C 1.09273 -0.07994 -0.08964
 C239 C 0.61967 0.39621 0.38318
 C240 C 0.59155 0.42081 0.41072
 C241 C 0.88359 -0.10260 -0.12114
 C242 C 0.91166 -0.07849 -0.09254
 C243 C 0.38289 0.39590 0.37960
 C244 C 0.41069 0.42042 0.40826
 C245 C 0.11759 0.60368 -0.12068
 C246 C 0.08975 0.57930 -0.09224
 C247 C 0.61656 1.10265 0.37948
 C248 C 0.58871 1.07845 0.40809
 C249 C 0.11680 0.39614 0.11857
 C250 C 0.08916 0.42076 0.09019
 C251 C 0.61686 0.89845 0.62128
 C252 C 0.58894 0.92237 0.59264
 C253 C 0.88428 0.10308 0.12011
 C254 C 0.91219 0.07886 0.09164
 C255 C 0.38276 0.60271 0.62106
 C256 C 0.41059 0.57848 0.59243
   
