data_POSCAR
  _audit_creation_date              2014-09-24
  _audit_creation_method            'ToBaCCo'
  _symmetry_space_group_name_H-M    'P1'
  _symmetry_Int_Tables_number       1
  _symmetry_cell_setting            triclinic
  loop_
  _symmetry_equiv_pos_as_xyz
 x,y,z
_cell_length_a 16.3028
_cell_length_b 16.5277
_cell_length_c 16.8084
_cell_angle_alpha 91.165700
_cell_angle_beta 90.745600
_cell_angle_gamma 90.278300
loop_
  _atom_site_label
  _atom_site_type_symbol
  _atom_site_fract_x
  _atom_site_fract_y
  _atom_site_fract_z
C1 C 0.00455 0.40239 0.19590
 C2 C 0.07069 0.40694 0.26072
 C3 C 0.08378 0.48026 0.29533
 C4 C 0.01715 0.54235 0.26706
 C5 C -0.07463 0.43223 0.23217
 C6 C -0.06888 0.49976 0.27711
 C7 C 0.02397 0.47112 0.13817
 C8 C 0.02796 0.54577 0.17545
 H9 H 0.10667 0.35424 0.27488
 H10 H 0.02244 0.60396 0.29284
 H11 H -0.13377 0.40455 0.21861
 H12 H 0.02617 0.46281 0.07418
 C13 C -0.01184 0.39921 0.80084
 C14 C -0.07611 0.42362 0.74929
 C15 C -0.05658 0.48676 0.69739
 C16 C 0.02447 0.52509 0.71915
 C17 C 0.05993 0.38984 0.75187
 C18 C 0.08658 0.46082 0.71402
 C19 C 0.00045 0.47296 0.85097
 C20 C 0.01955 0.54405 0.80541
 H21 H -0.13982 0.41027 0.76273
 H22 H 0.04206 0.57664 0.68241
 H23 H 0.08960 0.33185 0.74213
 H24 H -0.01253 0.47609 0.91400
 C25 C 0.19246 0.02668 0.42341
 C26 C 0.25702 0.09416 0.42780
 C27 C 0.30175 0.09947 0.49635
 C28 C 0.28483 0.02739 0.55346
 C29 C 0.24044 -0.05018 0.43784
 C30 C 0.29205 -0.05238 0.50187
 C31 C 0.14441 0.03862 0.50184
 C32 C 0.19225 0.03580 0.57006
 H33 H 0.25944 0.14315 0.38674
 H34 H 0.32169 0.02734 0.60935
 H35 H 0.22853 -0.10369 0.40141
 H36 H 0.07806 0.04028 0.50357
 C37 C 0.80147 0.00897 0.41004
 C38 C 0.76259 -0.06342 0.43275
 C39 C 0.70998 -0.05781 0.49714
 C40 C 0.70704 0.02472 0.53208
 C41 C 0.73591 0.07226 0.40049
 C42 C 0.68953 0.08489 0.46454
 C43 C 0.84886 0.03438 0.48960
 C44 C 0.79809 0.03928 0.55651
 H45 H 0.78291 -0.12140 0.40950
 H46 H 0.65983 0.03461 0.57751
 H47 H 0.73602 0.11438 0.35233
 H48 H 0.91495 0.03100 0.49504
 C49 C 0.42403 0.21769 1.00467
 C50 C 0.42806 0.27011 1.07469
 C51 C 0.49885 0.32118 1.08360
 C52 C 0.55658 0.31055 1.01466
 C53 C 0.43520 0.27111 0.93740
 C54 C 0.50681 0.32217 0.93994
 C55 C 0.50195 0.17342 1.00540
 C56 C 0.57644 0.22356 1.01332
 H57 H 0.38274 0.26666 1.12130
 H58 H 0.61108 0.35097 1.01948
 H59 H 0.40545 0.25970 0.88084
 H60 H 0.50411 0.10832 0.99675
 C61 C 0.40859 0.77344 1.01235
 C62 C 0.40345 0.69888 0.95702
 C63 C 0.47408 0.66230 0.94357
 C64 C 0.53787 0.68303 1.00996
 C65 C 0.42151 0.73217 1.09040
 C66 C 0.49221 0.68734 1.09208
 C67 C 0.48644 0.81556 1.00101
 C68 C 0.55751 0.76631 0.99407
 H69 H 0.34855 0.67959 0.92479
 H70 H 0.58858 0.63901 1.00945
 H71 H 0.38684 0.74815 1.14285
 H72 H 0.49899 0.87176 1.03192
 B73 B 0.99000 1.06245 0.04824
 B74 B 0.98464 1.06954 -0.05520
 B75 B 1.07898 1.03650 -0.00791
 B76 B 1.04781 0.97655 0.07429
 B77 B 0.94279 0.97208 0.07462
 B78 B 0.90166 1.03085 -0.00310
 B79 B 0.99591 0.89639 -0.07153
 B80 B 1.00045 0.88968 0.03256
 B81 B 0.90620 0.92426 -0.01629
 B82 B 0.93535 0.98430 -0.09701
 B83 B 1.04047 0.98840 -0.09902
 B84 B 1.08135 0.93303 -0.01963
 B85 B 0.60222 0.52960 0.45979
 B86 B 0.60660 0.52648 0.56555
 B87 B 0.57243 0.61257 0.51937
 B88 B 0.51555 0.58333 0.43391
 B89 B 0.51111 0.47856 0.42585
 B90 B 0.56951 0.43894 0.50610
 B91 B 0.42990 0.51790 0.57127
 B92 B 0.42507 0.52671 0.46759
 B93 B 0.46503 0.43757 0.51589
 B94 B 0.52154 0.47304 0.60208
 B95 B 0.52041 0.57765 0.60294
 B96 B 0.46148 0.61143 0.52116
 C97 C 1.05971 1.20037 0.10291
 C98 C 1.06138 1.28232 0.12262
 C99 C 0.99868 1.31533 0.16654
 C100 C 0.94237 1.25998 0.19763
 C101 C 0.92395 1.18795 0.15432
 C102 C 0.98734 1.15230 0.10292
 C103 C 0.84812 1.15364 0.17506
 N104 N 0.80622 1.17876 0.23999
 N105 N 0.83713 1.23396 0.29025
 C106 C 0.90832 1.27092 0.27358
 H107 H 1.11538 1.18041 0.07877
 H108 H 1.11479 1.31842 0.10864
 H109 H 0.82981 1.09751 0.15317
 H110 H 0.93594 1.31119 0.31770
 C111 C 0.96484 0.72792 0.05577
 C112 C 0.96884 0.64896 0.08438
 C113 C 1.03261 0.62504 0.13349
 C114 C 1.09443 0.68189 0.15080
 C115 C 1.08981 0.76321 0.12162
 C116 C 1.02108 0.79124 0.07121
 C117 C 1.15546 0.81317 0.14481
 N118 N 1.21820 0.78759 0.19089
 N119 N 1.22154 0.71226 0.21591
 C120 C 1.16254 0.65829 0.19650
 H121 H 0.91358 0.73884 0.02264
 H122 H 0.91904 0.60715 0.07041
 H123 H 1.16105 0.87005 0.12023
 H124 H 1.17054 0.59709 0.21587
 C125 C 1.02411 1.22441 -0.07074
 C126 C 1.02236 1.30286 -0.09737
 C127 C 0.97252 1.32294 -0.16145
 C128 C 0.92035 1.26022 -0.19374
 C129 C 0.90596 1.19092 -0.14835
 C130 C 0.96986 1.16273 -0.09469
 C131 C 0.82957 1.15365 -0.16252
 N132 N 0.78320 1.17048 -0.22758
 N133 N 0.81062 1.22060 -0.28197
 C134 C 0.88159 1.26166 -0.26939
 H135 H 1.07111 1.21392 -0.03143
 H136 H 1.06724 1.34562 -0.07310
 H137 H 0.81133 1.10552 -0.12806
 H138 H 0.90636 1.29493 -0.31791
 C139 C 0.94459 0.74263 -0.11646
 C140 C 0.95051 0.65907 -0.13250
 C141 C 1.02147 0.62494 -0.16300
 C142 C 1.08765 0.67767 -0.17573
 C143 C 1.08171 0.76331 -0.15861
 C144 C 1.00986 0.79920 -0.11863
 C145 C 1.14857 0.80834 -0.18514
 N146 N 1.21494 0.77429 -0.21938
 N147 N 1.22255 0.69484 -0.22676
 C148 C 1.16212 0.64549 -0.20322
 H149 H 0.88649 0.76016 -0.09759
 H150 H 0.89625 0.62171 -0.12593
 H151 H 1.15051 0.87036 -0.17690
 H152 H 1.17299 0.58149 -0.20509
 C153 C 1.13137 1.04882 0.19986
 C154 C 1.15905 1.06670 0.27741
 C155 C 1.14457 1.01600 0.34191
 C156 C 1.09516 0.94685 0.32489
 C157 C 1.06838 0.92664 0.24444
 C158 C 1.08771 0.97853 0.17504
 C159 C 1.01419 0.86016 0.23991
 N160 N 0.99428 0.81457 0.30255
 N161 N 1.02163 0.83239 0.37495
 C162 C 1.06937 0.89775 0.38832
 H163 H 1.14724 1.09240 0.15792
 H164 H 1.19285 1.12239 0.28414
 H165 H 0.98148 0.84688 0.18859
 H166 H 1.08552 0.90998 0.44903
 C167 C 1.11700 1.06916 -0.21762
 C168 C 1.15528 1.08144 -0.29106
 C169 C 1.15684 1.02044 -0.34961
 C170 C 1.11450 0.94820 -0.33500
 C171 C 1.06594 0.94076 -0.26532
 C172 C 1.07856 0.99585 -0.19592
 C173 C 1.00656 0.87849 -0.27071
 N174 N 1.00688 0.82137 -0.32960
 N175 N 1.06184 0.82236 -0.38687
 C176 C 1.11634 0.88357 -0.39092
 H177 H 1.10484 1.12187 -0.18348
 H178 H 1.18085 1.14046 -0.30330
 H179 H 0.96084 0.87177 -0.22834
 H180 H 1.15944 0.88167 -0.43864
 C181 C 0.93681 1.02833 0.23041
 C182 C 0.90932 1.03389 0.30822
 C183 C 0.83929 0.99339 0.32849
 C184 C 0.80182 0.94180 0.26841
 C185 C 0.84621 0.91953 0.20015
 C186 C 0.90551 0.97317 0.16987
 C187 C 0.82596 0.84621 0.16321
 N188 N 0.75179 0.81205 0.17521
 N189 N 0.70008 0.84518 0.22663
 C190 C 0.72212 0.90977 0.27316
 H191 H 0.98426 1.07045 0.22045
 H192 H 0.93872 1.07596 0.35000
 H193 H 0.86623 0.82003 0.12160
 H194 H 0.67718 0.93560 0.31248
 C195 C 0.92806 1.05150 -0.25087
 C196 C 0.90186 1.06091 -0.33048
 C197 C 0.82784 1.02795 -0.35745
 C198 C 0.78572 0.98052 -0.30119
 C199 C 0.82740 0.95235 -0.23182
 C200 C 0.89375 0.99611 -0.19480
 C201 C 0.80211 0.87845 -0.20556
 N202 N 0.72404 0.85406 -0.21870
 N203 N 0.67418 0.89636 -0.26835
 C204 C 0.70446 0.95710 -0.31468
 H205 H 0.97462 1.09314 -0.23406
 H206 H 0.93598 1.10086 -0.36836
 H207 H 0.84003 0.84588 -0.16747
 H208 H 0.65382 0.92409 -0.29126
 C209 C 1.20353 1.14738 -0.04941
 C210 C 1.27857 1.18958 -0.04540
 C211 C 1.34504 1.16875 0.00387
 C212 C 1.32640 1.10499 0.05715
 C213 C 1.24950 1.05923 0.05099
 C214 C 1.18013 1.08232 -0.00062
 C215 C 1.24426 0.98820 0.09425
 N216 N 1.30728 0.96946 0.14722
 N217 N 1.37328 1.01932 0.16107
 C218 C 1.38243 1.08635 0.11824
 H219 H 1.16535 1.17025 -0.09377
 H220 H 1.28175 1.24257 -0.08061
 H221 H 1.27401 0.94886 0.13476
 H222 H 1.43342 1.12469 0.13311
 C223 C 0.80684 1.17605 0.00397
 C224 C 0.73240 1.22197 0.00133
 C225 C 0.65710 1.18848 0.02508
 C226 C 0.66429 1.11576 0.06495
 C227 C 0.73355 1.06421 0.05396
 C228 C 0.80985 1.08991 0.01546
 C229 C 0.72549 0.99006 0.08857
 N230 N 0.65826 0.96772 0.12924
 N231 N 0.60067 1.02026 0.14861
 C232 C 0.60528 1.09604 0.12197
 H233 H 0.86209 1.20982 -0.00451
 H234 H 0.73463 1.28335 -0.01976
 H235 H 0.77242 0.95003 0.08194
 H236 H 0.56319 1.14065 0.14467
 C237 C 1.18391 0.80792 -0.01645
 C238 C 1.25899 0.77872 0.00731
 C239 C 1.33108 0.82404 -0.00025
 C240 C 1.32433 0.89886 -0.04310
 C241 C 1.24462 0.92483 -0.06712
 C242 C 1.17298 0.88913 -0.03338
 C243 C 1.23649 0.98231 -0.12647
 N244 N 1.30675 1.01949 -0.15358
 N245 N 1.38153 1.00697 -0.11887
 C246 C 1.39032 0.95062 -0.06286
 H247 H 1.13418 0.76576 -0.01707
 H248 H 1.26052 0.71748 0.02932
 H249 H 1.26779 1.01937 -0.16777
 H250 H 1.44765 0.95350 -0.03364
 C251 C 0.78523 0.78465 0.00259
 C252 C 0.70611 0.75502 0.00411
 C253 C 0.63728 0.79797 -0.02110
 C254 C 0.64887 0.87237 -0.06075
 C255 C 0.72686 0.91246 -0.06055
 C256 C 0.80399 0.87017 -0.02636
 C257 C 0.73222 0.98843 -0.09471
 N258 N 0.66205 1.02148 -0.12877
 N259 N 0.59029 0.97889 -0.13733
 C260 C 0.58472 0.90448 -0.10738
 H261 H 0.80922 0.83188 -0.01029
 H262 H 0.70084 0.69716 0.03196
 H263 H 0.69888 1.03679 -0.12031
 H264 H 0.53090 0.86994 -0.12296
 C265 C 0.73951 0.46363 0.39747
 C266 C 0.81793 0.45668 0.36600
 C267 C 0.85651 0.51968 0.32651
 C268 C 0.81394 0.59237 0.32365
 C269 C 0.73401 0.60064 0.35998
 C270 C 0.69236 0.53380 0.40098
 C271 C 0.70453 0.67902 0.36104
 N272 N 0.74949 0.74258 0.33772
 N273 N 0.82074 0.73333 0.30210
 C274 C 0.85191 0.65944 0.28969
 H275 H 0.71449 0.40978 0.41447
 H276 H 0.84696 0.39839 0.36937
 H277 H 0.65256 0.69238 0.39261
 H278 H 0.90748 0.65549 0.25656
 C279 C 0.30516 0.45684 0.37741
 C280 C 0.23126 0.44493 0.33508
 C281 C 0.16303 0.49656 0.34333
 C282 C 0.17253 0.56201 0.39706
 C283 C 0.25161 0.58130 0.43305
 C284 C 0.32421 0.52636 0.42433
 C285 C 0.24720 0.64419 0.49057
 N286 N 0.17952 0.68909 0.50391
 N287 N 0.10810 0.66911 0.47113
 C288 C 0.10171 0.60329 0.42328
 H289 H 0.35064 0.41021 0.36997
 H290 H 0.22958 0.39337 0.29468
 H291 H 0.28733 0.64347 0.53900
 H292 H 0.04072 0.58012 0.41247
 C293 C 0.74138 0.45719 0.61129
 C294 C 0.82618 0.44974 0.61700
 C295 C 0.87604 0.51203 0.65001
 C296 C 0.83729 0.58533 0.66652
 C297 C 0.74964 0.59246 0.65576
 C298 C 0.70035 0.52897 0.61551
 C299 C 0.71818 0.66595 0.68070
 N300 N 0.76583 0.72712 0.70747
 N301 N 0.84627 0.72185 0.71290
 C302 C 0.88367 0.65320 0.69200
 H303 H 0.70484 0.40496 0.61206
 H304 H 0.85120 0.38994 0.60781
 H305 H 0.65895 0.68083 0.66804
 H306 H 0.94864 0.65583 0.69184
 C307 C 0.26077 0.51393 0.58729
 C308 C 0.18653 0.52120 0.62655
 C309 C 0.16958 0.47046 0.68832
 C310 C 0.23632 0.42331 0.71598
 C311 C 0.31295 0.42114 0.67363
 C312 C 0.33467 0.48465 0.61654
 C313 C 0.36230 0.35525 0.69262
 N314 N 0.34472 0.30443 0.75189
 N315 N 0.28193 0.31775 0.79926
 C316 C 0.23070 0.37955 0.78665
 H317 H 0.24248 0.48528 0.53296
 H318 H 0.13621 0.54845 0.59430
 H319 H 0.41934 0.34867 0.66883
 H320 H 0.18539 0.39242 0.83131
 C321 C 0.57637 0.57646 0.26425
 C322 C 0.56820 0.60230 0.18663
 C323 C 0.53265 0.67597 0.16989
 C324 C 0.53050 0.73727 0.22945
 C325 C 0.53168 0.71700 0.31045
 C326 C 0.53785 0.62732 0.33309
 C327 C 0.53611 0.78045 0.36475
 N328 N 0.53845 0.85869 0.34275
 N329 N 0.53373 0.87794 0.26664
 C330 C 0.52878 0.81962 0.20932
 H331 H 0.55368 0.59347 0.30993
 H332 H 0.58447 0.56073 0.13888
 H333 H 0.53223 0.76663 0.42326
 H334 H 0.53204 0.83809 0.14913
 C335 C 0.58129 0.59223 0.75731
 C336 C 0.56370 0.60789 0.83746
 C337 C 0.49634 0.65602 0.85777
 C338 C 0.46030 0.70436 0.79564
 C339 C 0.49763 0.70050 0.72097
 C340 C 0.53434 0.62678 0.69455
 C341 C 0.52991 0.77665 0.70387
 N342 N 0.48703 0.84463 0.72098
 N343 N 0.42169 0.84033 0.76687
 C344 C 0.40667 0.77151 0.80648
 H345 H 0.62638 0.54652 0.74624
 H346 H 0.59726 0.57532 0.88256
 H347 H 0.59114 0.78354 0.68533
 H348 H 0.35633 0.77402 0.84597
 C349 C 0.57333 0.39673 0.28919
 C350 C 0.57430 0.36333 0.20981
 C351 C 0.50674 0.36933 0.15711
 C352 C 0.44140 0.41910 0.18455
 C353 C 0.44612 0.46126 0.26065
 C354 C 0.50653 0.44161 0.32332
 C355 C 0.39739 0.53070 0.26517
 N356 N 0.33844 0.54760 0.21088
 N357 N 0.32581 0.50046 0.14742
 C358 C 0.37477 0.43667 0.13275
 H359 H 0.62503 0.38233 0.32537
 H360 H 0.62625 0.32680 0.19220
 H361 H 0.40371 0.57046 0.31325
 H362 H 0.36243 0.40343 0.07871
 C363 C 0.58484 0.39249 0.74007
 C364 C 0.58474 0.35904 0.81781
 C365 C 0.52158 0.37359 0.87202
 C366 C 0.46215 0.43054 0.84800
 C367 C 0.46299 0.46787 0.77041
 C368 C 0.52108 0.44183 0.70637
 C369 C 0.40479 0.53142 0.76279
 N370 N 0.34819 0.54851 0.81870
 N371 N 0.34654 0.51069 0.88707
 C372 C 0.40243 0.45397 0.90385
 H373 H 0.63652 0.37500 0.70623
 H374 H 0.63281 0.31696 0.83349
 H375 H 0.40087 0.56960 0.71324
 H376 H 0.40094 0.42893 0.96191
 C377 C 0.58294 0.77269 0.54723
 C378 C 0.60978 0.85220 0.54573
 C379 C 0.69046 0.86853 0.53322
 C380 C 0.74602 0.80261 0.53391
 C381 C 0.71686 0.72093 0.52504
 C382 C 0.62851 0.70282 0.52944
 C383 C 0.77897 0.66293 0.51259
 N384 N 0.85965 0.68302 0.51209
 N385 N 0.88523 0.75809 0.52676
 C386 C 0.83114 0.81793 0.54057
 H387 H 0.52195 0.76993 0.55976
 H388 H 0.56532 0.90079 0.54938
 H389 H 0.76561 0.60051 0.50666
 H390 H 0.85483 0.87792 0.55350
 C391 C 0.68267 0.30863 0.50611
 C392 C 0.70359 0.22714 0.50887
 C393 C 0.65428 0.16755 0.47413
 C394 C 0.58558 0.19218 0.42980
 C395 C 0.56079 0.27605 0.43055
 C396 C 0.60578 0.33920 0.47832
 C397 C 0.48861 0.29380 0.38767
 N398 N 0.44738 0.23254 0.34538
 N399 N 0.47278 0.15388 0.34476
 C400 C 0.54013 0.13311 0.38619
 H401 H 0.73555 0.34550 0.51560
 H402 H 0.76346 0.21120 0.53250
 H403 H 0.44009 0.27241 0.34954
 H404 H 0.55702 0.06987 0.38540
 C405 C 0.37936 0.74619 0.58644
 C406 C 0.34642 0.82649 0.58386
 C407 C 0.34347 0.87036 0.51264
 C408 C 0.36905 0.82729 0.44356
 C409 C 0.38558 0.74252 0.44553
 C410 C 0.40877 0.70315 0.51754
 C411 C 0.37270 0.69693 0.37609
 N412 N 0.35665 0.73812 0.30636
 N413 N 0.36004 0.82071 0.30235
 C414 C 0.37057 0.86532 0.36939
 H415 H 0.37362 0.71409 0.64098
 H416 H 0.31972 0.85271 0.63699
 H417 H 0.35371 0.69887 0.31534
 H418 H 0.37379 0.93049 0.36469
 C419 C 0.33765 0.32825 0.50449
 C420 C 0.29989 0.25194 0.49928
 C421 C 0.34163 0.18012 0.51718
 C422 C 0.41983 0.18811 0.55151
 C423 C 0.45716 0.26677 0.56111
 C424 C 0.42016 0.34087 0.52710
 C425 C 0.52931 0.26797 0.60754
 N426 N 0.56346 0.20014 0.63699
 N427 N 0.53168 0.12757 0.62124
 C428 C 0.46253 0.11911 0.57701
 H429 H 0.29874 0.37765 0.49360
 H430 H 0.23636 0.24929 0.47963
 H431 H 0.56183 0.32180 0.61601
 H432 H 0.44218 0.05847 0.56261
   
