data_POSCAR
  _audit_creation_date              2014-09-24
  _audit_creation_method            'ToBaCCo'
  _symmetry_space_group_name_H-M    'P1'
  _symmetry_Int_Tables_number       1
  _symmetry_cell_setting            triclinic
  loop_
  _symmetry_equiv_pos_as_xyz
 x,y,z
_cell_length_a 53.4354
_cell_length_b 21.2639
_cell_length_c 13.1710
_cell_angle_alpha 89.957800
_cell_angle_beta 89.840600
_cell_angle_gamma 89.821600
loop_
  _atom_site_label
  _atom_site_type_symbol
  _atom_site_fract_x
  _atom_site_fract_y
  _atom_site_fract_z
C1 C 0.73233 0.28714 0.55373
 C2 C 0.73273 0.28521 0.44588
 C3 C 0.75410 0.26374 0.39490
 C4 C 0.77557 0.24515 0.44863
 C5 C 0.77626 0.25457 0.55651
 C6 C 0.75395 0.27032 0.60769
 H7 H 0.75399 0.27617 0.68946
 H8 H 0.75318 0.25726 0.31336
 C9 C 0.22588 0.75278 0.55143
 C10 C 0.22286 0.73072 0.45004
 C11 C 0.24368 0.70677 0.39790
 C12 C 0.26675 0.70042 0.44637
 C13 C 0.26890 0.71324 0.55211
 C14 C 0.24866 0.74245 0.60199
 H15 H 0.25022 0.75550 0.68123
 H16 H 0.24213 0.69446 0.31831
 C17 C 0.27373 0.25167 -0.54313
 C18 C 0.27464 0.24531 -0.43642
 C19 C 0.25363 0.22436 -0.38311
 C20 C 0.23133 0.20958 -0.43411
 C21 C 0.22955 0.22226 -0.54119
 C22 C 0.25136 0.23967 -0.59452
 H23 H 0.25063 0.24890 -0.67541
 H24 H 0.25526 0.21630 -0.30209
 C25 C -0.23214 0.78868 -0.56157
 C26 C -0.23372 0.79452 -0.45509
 C27 C -0.25626 0.78127 -0.40526
 C28 C -0.27748 0.76130 -0.45980
 C29 C -0.27482 0.74888 -0.56664
 C30 C -0.25256 0.76601 -0.61628
 H31 H -0.25040 0.75786 -0.69713
 H32 H -0.25739 0.78967 -0.32425
 N33 N -0.02587 0.93080 0.17465
 N34 N -0.04642 0.92970 0.23030
 N35 N 0.02554 0.88323 0.09246
 N36 N 0.04476 0.84414 0.09538
 N37 N 0.02670 0.92385 0.16741
 N38 N 0.04654 0.91290 0.22429
 N39 N -0.02709 0.88886 0.10160
 N40 N -0.04835 0.85750 0.10683
 C41 C -0.06006 0.88320 0.18803
 C42 C 0.05749 0.86296 0.17850
 N43 N 0.02358 0.93615 -0.19241
 N44 N 0.04418 0.93422 -0.24789
 N45 N -0.02919 0.89652 -0.11709
 N46 N -0.05058 0.86556 -0.12174
 N47 N -0.02912 0.94317 -0.18255
 N48 N -0.05047 0.94556 -0.23241
 N49 N 0.02367 0.89063 -0.12499
 N50 N 0.04443 0.85708 -0.13244
 Mn51 Mn -0.00178 0.88893 -0.01219
 C52 C 0.05691 0.88433 -0.21035
 C53 C -0.06357 0.89651 -0.19459
 N54 N 0.02939 1.05941 0.17860
 N55 N 0.04986 1.06140 0.23459
 N56 N -0.02333 1.11104 0.11943
 N57 N -0.04426 1.14407 0.12608
 N58 N -0.02326 1.06550 0.18685
 N59 N -0.04400 1.06685 0.24139
 N60 N 0.02949 1.10486 0.11107
 N61 N 0.05008 1.13856 0.11834
 Mn62 Mn 0.00179 0.99484 0.17823
 C63 C 0.06245 1.11121 0.19599
 C64 C -0.05683 1.11643 0.20346
 N65 N -0.02636 1.07789 -0.17216
 N66 N -0.04682 1.08736 -0.22602
 N67 N 0.02791 1.11166 -0.10616
 N68 N 0.05017 1.13868 -0.10730
 N69 N 0.02610 1.07098 -0.18080
 N70 N 0.04690 1.06985 -0.23474
 N71 N -0.02501 1.11853 -0.09745
 N72 N -0.04469 1.15620 -0.09745
 Mn73 Mn -0.00150 1.00704 -0.18323
 Mn74 Mn 0.00229 1.11237 0.00677
 Cl75 Cl 0.00021 1.00076 -0.00251
 C76 C -0.05791 1.13647 -0.17859
 C77 C 0.06168 1.11266 -0.18889
 N78 N 0.47589 0.38670 -0.10912
 N79 N 0.45603 0.35021 -0.11654
 N80 N 0.52788 0.43595 -0.17695
 N81 N 0.54898 0.43705 -0.22895
 N82 N 0.52855 0.39135 -0.10783
 N83 N 0.55015 0.36095 -0.11160
 N84 N 0.47503 0.43195 -0.17699
 N85 N 0.45434 0.42806 -0.23114
 C86 C 0.44293 0.37636 -0.19353
 C87 C 0.56260 0.38966 -0.18829
 N88 N 0.52544 0.61407 -0.10347
 N89 N 0.54517 0.65106 -0.10965
 N90 N 0.47337 0.56695 -0.17479
 N91 N 0.45267 0.56769 -0.22879
 N92 N 0.47255 0.61028 -0.10384
 N93 N 0.45115 0.64167 -0.10815
 N94 N 0.52597 0.57145 -0.17553
 N95 N 0.54590 0.57900 -0.23384
 Mn96 Mn 0.50057 0.50149 -0.17739
 C97 C 0.55756 0.62897 -0.19177
 C98 C 0.43904 0.61480 -0.18725
 N99 N 0.52809 0.38905 0.11102
 N100 N 0.54912 0.35640 0.11623
 N101 N 0.47501 0.42867 0.18083
 N102 N 0.45450 0.42455 0.23601
 N103 N 0.47528 0.38532 0.10989
 N104 N 0.45481 0.35057 0.11524
 N105 N 0.52770 0.43328 0.18057
 N106 N 0.54859 0.43250 0.23374
 Mn107 Mn 0.50195 0.38718 0.00092
 C108 C 0.56156 0.38382 0.19368
 C109 C 0.44213 0.37545 0.19512
 N110 N 0.47267 0.60876 0.11476
 N111 N 0.45134 0.64018 0.11852
 N112 N 0.52566 0.56805 0.18366
 N113 N 0.54698 0.56863 0.23363
 N114 N 0.52551 0.61206 0.11369
 N115 N 0.54688 0.64324 0.11405
 N116 N 0.47281 0.56337 0.18246
 N117 N 0.45141 0.56206 0.23267
 Mn118 Mn 0.49902 0.61216 0.00540
 Mn119 Mn 0.50029 0.49839 0.18312
 Cl120 Cl 0.50045 0.49978 0.00294
 C121 C 0.43843 0.61082 0.19301
 C122 C 0.55996 0.61604 0.19027
 C123 C 0.34276 0.30881 0.32394
 C124 C 0.33237 0.25104 0.29449
 C125 C 0.30886 0.23356 0.33346
 C126 C 0.29587 0.27414 0.39967
 C127 C 0.30572 0.33373 0.42170
 C128 C 0.32958 0.35030 0.38747
 C129 C 0.36819 0.32551 0.28995
 C130 C 0.37898 0.38164 0.32440
 C131 C 0.40328 0.39686 0.29365
 C132 C 0.41672 0.35701 0.22765
 C133 C 0.40562 0.30100 0.19305
 C134 C 0.38137 0.28463 0.22512
 C135 C 0.34088 0.40634 0.41917
 C136 C 0.36530 0.42149 0.38908
 C137 C 0.34610 0.21125 0.22969
 C138 C 0.37008 0.22803 0.19483
 H139 H 0.33092 0.43795 0.46935
 H140 H 0.37345 0.46496 0.41597
 H141 H 0.33831 0.16662 0.20614
 H142 H 0.38002 0.19598 0.14500
 H143 H 0.30118 0.18768 0.31620
 H144 H 0.29539 0.36555 0.47061
 H145 H 0.41161 0.44019 0.32041
 H146 H 0.41591 0.27005 0.14255
 C147 C -0.16069 0.82825 0.31043
 C148 C -0.17714 0.87812 0.33246
 C149 C -0.20129 0.86458 0.36748
 C150 C -0.20851 0.80200 0.38459
 C151 C -0.19215 0.75244 0.36002
 C152 C -0.16815 0.76534 0.32220
 C153 C -0.13499 0.84218 0.27678
 C154 C -0.11858 0.79239 0.25366
 C155 C -0.09408 0.80604 0.22222
 C156 C -0.08587 0.86869 0.21802
 C157 C -0.10245 0.91803 0.24179
 C158 C -0.12721 0.90506 0.26964
 C159 C -0.15124 0.71680 0.29833
 C160 C -0.12693 0.73010 0.26382
 C161 C -0.16888 0.94041 0.32165
 C162 C -0.14432 0.95360 0.29072
 H163 H -0.15680 0.66812 0.30686
 H164 H -0.11445 0.69131 0.24640
 H165 H -0.18140 0.97926 0.33841
 H166 H -0.13868 1.00216 0.28293
 H167 H -0.21410 0.90253 0.38596
 H168 H -0.19785 0.70427 0.37359
 H169 H -0.08122 0.76817 0.20379
 H170 H -0.09614 0.96638 0.23704
 C171 C 0.66158 0.67176 0.29856
 C172 C 0.67474 0.71877 0.24602
 C173 C 0.69772 0.73987 0.28477
 C174 C 0.70677 0.71590 0.37783
 C175 C 0.69475 0.66353 0.42198
 C176 C 0.67174 0.64287 0.38499
 C177 C 0.63596 0.65560 0.26694
 C178 C 0.62232 0.61159 0.32383
 C179 C 0.59754 0.59889 0.29748
 C180 C 0.58622 0.63022 0.21546
 C181 C 0.60023 0.67351 0.15770
 C182 C 0.62518 0.68657 0.18352
 C183 C 0.65779 0.59754 0.43781
 C184 C 0.63348 0.58211 0.40756
 C185 C 0.66373 0.74693 0.16035
 C186 C 0.63940 0.73096 0.12945
 H187 H 0.66536 0.57580 0.50548
 H188 H 0.62304 0.54796 0.45121
 H189 H 0.67371 0.78298 0.11863
 H190 H 0.63142 0.75474 0.06428
 H191 H 0.70692 0.77953 0.24901
 H192 H 0.70219 0.64280 0.49091
 H193 H 0.58697 0.56515 0.34187
 H194 H 0.59169 0.69732 0.09370
 C195 C 0.15872 1.19581 0.32777
 C196 C 0.16067 1.22816 0.42001
 C197 C 0.18437 1.24430 0.45599
 C198 C 0.20624 1.22200 0.40693
 C199 C 0.20390 1.19437 0.30979
 C200 C 0.18009 1.18100 0.27008
 C201 C 0.13391 1.17481 0.29306
 C202 C 0.13183 1.14332 0.19977
 C203 C 0.10818 1.12290 0.16776
 C204 C 0.08712 1.13178 0.23041
 C205 C 0.08948 1.16267 0.32395
 C206 C 0.11284 1.18528 0.35506
 C207 C 0.17722 1.15001 0.17657
 C208 C 0.15346 1.13219 0.14141
 C209 C 0.13906 1.23998 0.47806
 C210 C 0.11558 1.21812 0.44679
 H211 H 0.19349 1.13869 0.13079
 H212 H 0.15208 1.10816 0.06912
 H213 H 0.14045 1.26422 0.55016
 H214 H 0.09948 1.22666 0.49509
 H215 H 0.18581 1.26967 0.52709
 H216 H 0.22035 1.17805 0.26924
 H217 H 0.10616 1.09925 0.09533
 H218 H 0.07307 1.17006 0.37115
 C219 C 0.66383 0.33788 -0.31227
 C220 C 0.67590 0.28274 -0.27949
 C221 C 0.69974 0.26795 -0.31864
 C222 C 0.71086 0.30701 -0.39267
 C223 C 0.69922 0.36435 -0.41798
 C224 C 0.67554 0.37936 -0.38006
 C225 C 0.63818 0.35174 -0.27720
 C226 C 0.62607 0.40623 -0.31215
 C227 C 0.60138 0.41808 -0.28226
 C228 C 0.58876 0.37610 -0.21750
 C229 C 0.60132 0.32231 -0.18090
 C230 C 0.62609 0.30971 -0.21116
 C231 C 0.66306 0.43416 -0.41125
 C232 C 0.63875 0.44752 -0.37738
 C233 C 0.66342 0.24241 -0.21166
 C234 C 0.63895 0.25568 -0.17804
 H235 H 0.67201 0.46625 -0.46373
 H236 H 0.62968 0.49017 -0.40299
 H237 H 0.67248 0.19972 -0.18561
 H238 H 0.62991 0.22295 -0.12675
 H239 H 0.70871 0.22409 -0.29738
 H240 H 0.70854 0.39700 -0.46848
 H241 H 0.59198 0.46001 -0.30975
 H242 H 0.59175 0.29003 -0.13040
 C243 C 0.15821 0.82513 -0.32491
 C244 C 0.17180 0.78051 -0.26859
 C245 C 0.19534 0.76073 -0.30419
 C246 C 0.20516 0.78577 -0.39485
 C247 C 0.19251 0.83546 -0.44376
 C248 C 0.16848 0.85313 -0.41208
 C249 C 0.13227 0.84032 -0.29524
 C250 C 0.11808 0.88121 -0.35610
 C251 C 0.09331 0.89485 -0.32851
 C252 C 0.08267 0.86752 -0.24117
 C253 C 0.09705 0.82599 -0.18156
 C254 C 0.12189 0.81208 -0.20847
 C255 C 0.15380 0.89436 -0.47039
 C256 C 0.12888 0.90724 -0.44379
 C257 C 0.16091 0.75392 -0.18136
 C258 C 0.13646 0.76991 -0.15124
 H259 H 0.16133 0.91504 -0.53916
 H260 H 0.11785 0.93705 -0.49314
 H261 H 0.17122 0.71975 -0.13687
 H262 H 0.12871 0.74807 -0.08382
 H263 H 0.20508 0.72272 -0.26604
 H264 H 0.20023 0.85529 -0.51291
 H265 H 0.08234 0.92680 -0.37481
 H266 H 0.08901 0.80488 -0.11405
 C267 C 0.33820 0.66707 -0.31455
 C268 C 0.32598 0.72231 -0.28294
 C269 C 0.30210 0.73658 -0.32228
 C270 C 0.29084 0.69615 -0.39403
 C271 C 0.30264 0.63833 -0.41628
 C272 C 0.32655 0.62472 -0.38044
 C273 C 0.36388 0.65371 -0.27979
 C274 C 0.37623 0.59956 -0.31512
 C275 C 0.40081 0.58784 -0.28459
 C276 C 0.41311 0.62929 -0.21825
 C277 C 0.40040 0.68303 -0.18199
 C278 C 0.37574 0.69577 -0.21348
 C279 C 0.33930 0.57046 -0.41237
 C280 C 0.36382 0.55826 -0.38088
 C281 C 0.33836 0.76307 -0.21578
 C282 C 0.36274 0.74987 -0.18125
 H283 H 0.33040 0.53807 -0.46406
 H284 H 0.37315 0.51621 -0.40821
 H285 H 0.32923 0.80586 -0.19045
 H286 H 0.37162 0.78275 -0.13000
 H287 H 0.29326 0.78088 -0.30262
 H288 H 0.29332 0.60413 -0.46375
 H289 H 0.41033 0.54611 -0.31227
 H290 H 0.40976 0.71507 -0.13074
 C291 C -0.15360 1.22751 -0.30663
 C292 C -0.15529 1.26141 -0.39759
 C293 C -0.17887 1.27739 -0.43498
 C294 C -0.20083 1.25359 -0.38899
 C295 C -0.19886 1.22405 -0.29309
 C296 C -0.17516 1.21069 -0.25181
 C297 C -0.12883 1.20679 -0.27071
 C298 C -0.12699 1.17311 -0.17922
 C299 C -0.10339 1.15198 -0.14708
 C300 C -0.08218 1.16246 -0.20808
 C301 C -0.08427 1.19590 -0.29940
 C302 C -0.10755 1.21909 -0.33051
 C303 C -0.17254 1.17773 -0.15982
 C304 C -0.14883 1.15988 -0.12355
 C305 C -0.13351 1.27508 -0.45321
 C306 C -0.11005 1.25353 -0.42087
 H307 H -0.18897 1.16476 -0.11628
 H308 H -0.14765 1.13407 -0.05274
 H309 H -0.13473 1.30060 -0.52429
 H310 H -0.09378 1.26343 -0.46740
 H311 H -0.18009 1.30408 -0.50498
 H312 H -0.21541 1.20638 -0.25504
 H313 H -0.10159 1.12563 -0.07692
 H314 H -0.06777 1.20379 -0.34580
 C315 C 0.65198 0.72421 -0.32932
 C316 C 0.65340 0.75401 -0.42401
 C317 C 0.67670 0.77361 -0.46025
 C318 C 0.69900 0.75673 -0.40916
 C319 C 0.69703 0.73083 -0.31043
 C320 C 0.67349 0.71463 -0.27019
 C321 C 0.62761 0.70082 -0.29295
 C322 C 0.62598 0.67245 -0.19684
 C323 C 0.60272 0.65005 -0.16297
 C324 C 0.58167 0.65364 -0.22656
 C325 C 0.58363 0.68117 -0.32308
 C326 C 0.60651 0.70602 -0.35604
 C327 C 0.67110 0.68621 -0.17420
 C328 C 0.64769 0.66621 -0.13760
 C329 C 0.63174 0.76042 -0.48345
 C330 C 0.60875 0.73593 -0.45070
 H331 H 0.68748 0.67883 -0.12735
 H332 H 0.64668 0.64439 -0.06333
 H333 H 0.63275 0.78259 -0.55746
 H334 H 0.59263 0.74036 -0.49992
 H335 H 0.67759 0.79812 -0.53233
 H336 H 0.71369 0.71838 -0.26819
 H337 H 0.60107 0.62845 -0.08863
 H338 H 0.56725 0.68415 -0.37133
 C339 C 0.16478 1.14650 -0.30160
 C340 C 0.17990 1.18795 -0.24614
 C341 C 0.20360 1.20416 -0.28469
 C342 C 0.21169 1.18010 -0.37934
 C343 C 0.19769 1.13166 -0.42527
 C344 C 0.17371 1.11724 -0.39005
 C345 C 0.13857 1.13673 -0.27037
 C346 C 0.12293 1.09970 -0.33120
 C347 C 0.09778 1.09271 -0.30413
 C348 C 0.08814 1.12246 -0.21694
 C349 C 0.10406 1.15930 -0.15616
 C350 C 0.12934 1.16693 -0.18307
 C351 C 0.15770 1.07881 -0.44699
 C352 C 0.13260 1.07117 -0.41895
 C353 C 0.17026 1.21589 -0.15746
 C354 C 0.14547 1.20511 -0.12598
 H355 H 0.16429 1.05700 -0.51649
 H356 H 0.12049 1.04407 -0.46771
 H357 H 0.18176 1.24757 -0.11339
 H358 H 0.13868 1.22827 -0.05798
 H359 H 0.21426 1.24050 -0.24687
 H360 H 0.20436 1.11012 -0.49494
 H361 H 0.08570 1.06410 -0.35117
 H362 H 0.09679 1.18208 -0.08860
 C363 C 0.34492 0.29582 -0.31076
 C364 C 0.32480 0.33837 -0.30480
 C365 C 0.30107 0.31916 -0.33722
 C366 C 0.29785 0.25931 -0.38039
 C367 C 0.31798 0.21673 -0.38413
 C368 C 0.34159 0.23458 -0.34831
 C369 C 0.37009 0.31634 -0.27991
 C370 C 0.39013 0.27343 -0.28408
 C371 C 0.41400 0.29310 -0.25385
 C372 C 0.41793 0.35567 -0.22405
 C373 C 0.39784 0.39846 -0.22183
 C374 C 0.37370 0.37869 -0.24803
 C375 C 0.36211 0.19317 -0.35211
 C376 C 0.38592 0.21206 -0.31945
 C377 C 0.32905 0.39995 -0.27042
 C378 C 0.35312 0.41984 -0.24288
 H379 H 0.35976 0.14582 -0.38079
 H380 H 0.40124 0.17864 -0.32341
 H381 H 0.31373 0.43334 -0.26624
 H382 H 0.35564 0.46780 -0.21729
 H383 H 0.28553 0.35207 -0.33608
 H384 H 0.31540 0.17087 -0.41839
 H385 H 0.42961 0.26042 -0.25566
 H386 H 0.40096 0.44653 -0.19764
 C387 C -0.16430 0.84116 -0.31706
 C388 C -0.17302 0.77898 -0.31161
 C389 C -0.19664 0.76462 -0.35146
 C390 C -0.21142 0.81209 -0.39541
 C391 C -0.20310 0.87472 -0.39488
 C392 C -0.17924 0.88936 -0.35793
 C393 C -0.13873 0.85566 -0.28256
 C394 C -0.12955 0.91713 -0.29317
 C395 C -0.10486 0.93005 -0.26437
 C396 C -0.08960 0.88230 -0.22343
 C397 C -0.09926 0.82132 -0.21081
 C398 C -0.12375 0.80747 -0.24182
 C399 C -0.16964 0.95064 -0.36466
 C400 C -0.14516 0.96426 -0.33324
 C401 C -0.15756 0.73213 -0.26976
 C402 C -0.13342 0.74624 -0.23474
 H403 H -0.18101 0.98810 -0.39615
 H404 H -0.13833 1.01196 -0.34083
 H405 H -0.16410 0.68404 -0.26489
 H406 H -0.12206 0.70865 -0.20352
 H407 H -0.20309 0.71633 -0.35257
 H408 H -0.21462 0.91118 -0.42853
 H409 H -0.09757 0.97729 -0.27316
 H410 H -0.08753 0.78446 -0.17953
 C411 C 0.33711 0.66700 0.30470
 C412 C 0.33127 0.72740 0.34077
 C413 C 0.30738 0.73897 0.38013
 C414 C 0.28944 0.69081 0.38332
 C415 C 0.29485 0.63184 0.34003
 C416 C 0.31902 0.61910 0.30305
 C417 C 0.36294 0.65300 0.27232
 C418 C 0.36927 0.59158 0.24249
 C419 C 0.39421 0.57776 0.21740
 C420 C 0.41239 0.62543 0.21912
 C421 C 0.40565 0.68712 0.24549
 C422 C 0.38099 0.70096 0.27438
 C423 C 0.32587 0.55879 0.26914
 C424 C 0.35057 0.54528 0.23935
 C425 C 0.34973 0.77425 0.34088
 C426 C 0.37414 0.76139 0.30734
 H427 H 0.31215 0.52138 0.26761
 H428 H 0.35513 0.49806 0.21453
 H429 H 0.34536 0.82105 0.36830
 H430 H 0.38790 0.79870 0.30932
 H431 H 0.30306 0.78440 0.41333
 H432 H 0.28100 0.59475 0.34332
 H433 H 0.39948 0.53040 0.19543
 H434 H 0.41978 0.72362 0.24661
 C435 C -0.15803 1.17404 0.32147
 C436 C -0.17198 1.21818 0.26566
 C437 C -0.19546 1.23782 0.30267
 C438 C -0.20459 1.21438 0.39616
 C439 C -0.19162 1.16419 0.44318
 C440 C -0.16788 1.14612 0.40923
 C441 C -0.13219 1.15894 0.29023
 C442 C -0.11783 1.11764 0.34980
 C443 C -0.09312 1.10444 0.32115
 C444 C -0.08267 1.13252 0.23410
 C445 C -0.09728 1.17390 0.17510
 C446 C -0.12212 1.18734 0.20301
 C447 C -0.15315 1.10398 0.46559
 C448 C -0.12846 1.09032 0.43686
 C449 C -0.16145 1.24459 0.17750
 C450 C -0.13701 1.22910 0.14632
 H451 H -0.16052 1.08307 0.53432
 H452 H -0.11759 1.05830 0.48330
 H453 H -0.17200 1.27841 0.13326
 H454 H -0.12954 1.25096 0.07840
 H455 H -0.20521 1.27565 0.26415
 H456 H -0.19909 1.14296 0.51172
 H457 H -0.08204 1.07234 0.36667
 H458 H -0.08941 1.19529 0.10749
 C459 C 0.66196 0.32268 0.31132
 C460 C 0.66740 0.26163 0.34583
 C461 C 0.69125 0.24863 0.38462
 C462 C 0.70962 0.29573 0.38650
 C463 C 0.70454 0.35523 0.34456
 C464 C 0.68036 0.36976 0.31038
 C465 C 0.63628 0.33810 0.27898
 C466 C 0.63035 0.40026 0.25171
 C467 C 0.60563 0.41515 0.22524
 C468 C 0.58730 0.36786 0.22243
 C469 C 0.59361 0.30559 0.24722
 C470 C 0.61802 0.29066 0.27799
 C471 C 0.67386 0.43103 0.27990
 C472 C 0.64923 0.44613 0.25186
 C473 C 0.64864 0.21553 0.34418
 C474 C 0.62444 0.22961 0.30959
 H475 H 0.68781 0.46791 0.27981
 H476 H 0.64492 0.49410 0.23014
 H477 H 0.65266 0.16825 0.37031
 H478 H 0.61050 0.19271 0.30955
 H479 H 0.69531 0.20283 0.41701
 H480 H 0.71877 0.39144 0.34677
 H481 H 0.60068 0.46308 0.20519
 H482 H 0.57935 0.26945 0.24547
 C483 C 0.15161 0.76610 0.31542
 C484 C 0.17335 0.77916 0.25913
 C485 C 0.19678 0.76414 0.30068
 C486 C 0.19838 0.73480 0.39643
 C487 C 0.17626 0.71581 0.44608
 C488 C 0.15288 0.73444 0.40879
 C489 C 0.12719 0.78845 0.27806
 C490 C 0.10580 0.78068 0.33908
 C491 C 0.08289 0.80538 0.30592
 C492 C 0.08127 0.83543 0.21122
 C493 C 0.10260 0.84125 0.14937
 C494 C 0.12583 0.81904 0.18360
 C495 C 0.13094 0.72549 0.46598
 C496 C 0.10784 0.74905 0.43239
 C497 C 0.17124 0.80954 0.16470
 C498 C 0.14783 0.82833 0.12687
 H499 H 0.13178 0.70201 0.53895
 H500 H 0.09148 0.74273 0.48005
 H501 H 0.18784 0.81942 0.12013
 H502 H 0.14702 0.85185 0.05392
 H503 H 0.21369 0.77832 0.26135
 H504 H 0.17738 0.69151 0.51829
 H505 H 0.06631 0.80105 0.35307
 H506 H 0.10122 0.86508 0.07675
   
