data_POSCAR
  _audit_creation_date              2014-09-24
  _audit_creation_method            'ToBaCCo'
  _symmetry_space_group_name_H-M    'P1'
  _symmetry_Int_Tables_number       1
  _symmetry_cell_setting            triclinic
  loop_
  _symmetry_equiv_pos_as_xyz
 x,y,z
_cell_length_a 41.2305
_cell_length_b 41.1729
_cell_length_c 14.1948
_cell_angle_alpha 90.059900
_cell_angle_beta 90.001700
_cell_angle_gamma 119.944100
loop_
  _atom_site_label
  _atom_site_type_symbol
  _atom_site_fract_x
  _atom_site_fract_y
  _atom_site_fract_z
O1 O 0.26708 0.46801 0.58076
 O2 O 0.20093 0.46681 0.40540
 O3 O 0.26406 0.46679 0.39817
 O4 O 0.20270 0.46701 0.58537
 O5 O 0.23316 0.52892 0.58409
 O6 O 0.29520 0.52870 0.39708
 O7 O 0.23190 0.52870 0.40251
 O8 O 0.29745 0.52989 0.58036
 Cu9 Cu 0.23082 0.46094 0.49295
 Cu10 Cu 0.26765 0.53529 0.49121
 C11 C 0.29392 0.49915 0.60931
 C12 C 0.20463 0.49759 0.37557
 C13 C 0.29014 0.49754 0.36605
 C14 C 0.20652 0.49797 0.61392
 O15 O 0.53433 -0.20036 0.59171
 O16 O 0.53557 -0.26506 0.41514
 O17 O 0.53491 -0.20276 0.40966
 O18 O 0.53550 -0.26349 0.59821
 O19 O 0.47375 -0.29566 0.59695
 O20 O 0.47307 -0.23376 0.40890
 O21 O 0.47375 -0.29654 0.41269
 O22 O 0.47259 -0.23220 0.59247
 Cu23 Cu 0.54122 -0.22984 0.50441
 Cu24 Cu 0.46705 -0.26778 0.50330
 C25 C 0.50326 -0.20471 0.62096
 C26 C 0.50502 -0.29149 0.38298
 C27 C 0.50408 -0.20778 0.37713
 C28 C 0.50490 -0.29034 0.62875
 O29 O 1.26189 0.79831 0.41147
 O30 O 1.19917 0.73375 0.59163
 O31 O 1.26159 0.79819 0.59606
 O32 O 1.20051 0.73360 0.41230
 O33 O 1.23340 0.70460 0.41323
 O34 O 1.29463 0.76940 0.59773
 O35 O 1.23200 0.70475 0.59432
 O36 O 1.29493 0.76951 0.41229
 Cu37 Cu 1.22787 0.76927 0.50291
 Cu38 Cu 1.26740 0.73448 0.50484
 C39 C 1.28875 0.79474 0.38023
 C40 C 1.20395 0.70731 0.62110
 C41 C 1.28843 0.79478 0.62853
 C42 C 1.20586 0.70741 0.38352
 O43 O 0.79964 0.53635 0.40814
 O44 O 0.73420 0.53410 0.58738
 O45 O 0.79845 0.53471 0.59047
 O46 O 0.73682 0.53566 0.40491
 O47 O 0.70604 0.47375 0.40122
 O48 O 0.76811 0.47285 0.58716
 O49 O 0.70386 0.47227 0.58471
 O50 O 0.76925 0.47445 0.40369
 Cu51 Cu 0.77029 0.54139 0.49895
 Cu52 Cu 0.73374 0.46708 0.49459
 C53 C 0.79549 0.50589 0.37486
 C54 C 0.70729 0.50287 0.61514
 C55 C 0.79445 0.50365 0.61872
 C56 C 0.71114 0.50501 0.37105
 O57 O 0.46722 0.19830 0.58846
 O58 O 0.46374 0.26244 0.41386
 O59 O 0.46551 0.20056 0.40741
 O60 O 0.46373 0.26004 0.59759
 O61 O 0.52545 0.29351 0.59571
 O62 O 0.52734 0.23260 0.40660
 O63 O 0.52550 0.29497 0.41076
 O64 O 0.52892 0.23149 0.58920
 Cu65 Cu 0.45890 0.22725 0.50249
 Cu66 Cu 0.53304 0.26663 0.50081
 C67 C 0.49865 0.20338 0.61713
 C68 C 0.49395 0.28927 0.38144
 C69 C 0.49654 0.20602 0.37541
 C70 C 0.49409 0.28706 0.62864
 O71 O 0.79953 0.26289 0.59533
 O72 O 0.73832 0.20042 0.40890
 O73 O 0.80097 0.26396 0.41413
 O74 O 0.73563 0.19904 0.59110
 O75 O 0.70475 0.23006 0.59045
 O76 O 0.76954 0.29444 0.41174
 O77 O 0.70674 0.23075 0.40751
 O78 O 0.76851 0.29373 0.59402
 Cu79 Cu 0.77166 0.22841 0.50298
 Cu80 Cu 0.73418 0.26528 0.50110
 C81 C 0.79530 0.28975 0.62441
 C82 C 0.71198 0.20471 0.37688
 C83 C 0.79664 0.29056 0.38370
 C84 C 0.70861 0.20305 0.61952
 O85 O 1.05329 0.58083 0.17165
 O86 O 1.09389 0.57229 0.07839
 C87 C 1.08677 0.58938 0.14492
 O88 O 0.94769 0.41305 0.16121
 O89 O 0.90614 0.42401 0.07919
 C90 C 0.91395 0.40502 0.13853
 O91 O 1.05294 0.46783 0.16498
 O92 O 1.09361 0.51840 0.07597
 C93 C 1.08642 0.49324 0.13968
 O94 O 0.94879 0.53182 0.16868
 O95 O 0.90669 0.48041 0.08385
 C96 C 0.91499 0.50638 0.14660
 Zr97 Zr 1.00050 0.54011 0.11812
 O98 O 1.00038 0.54398 0.26661
 O99 O 1.00173 0.59182 0.10459
 Zr100 Zr 1.00011 0.45757 0.11583
 O101 O 0.99733 0.45566 0.26483
 O102 O 1.00389 0.40815 0.11383
 O103 O 1.03359 0.51529 0.13485
 O104 O 0.96802 0.48269 0.13586
 O105 O 0.94623 0.53261 -0.16023
 O106 O 0.90544 0.48051 -0.07567
 C107 C 0.91267 0.50700 -0.13567
 O108 O 1.05129 0.46840 -0.17586
 O109 O 1.09277 0.51868 -0.08683
 C110 C 1.08505 0.49375 -0.15166
 O111 O 0.94577 0.41293 -0.16321
 O112 O 0.90520 0.42414 -0.07715
 C113 C 0.91228 0.40494 -0.13773
 O114 O 1.05158 0.58232 -0.17170
 O115 O 1.09294 0.57246 -0.08518
 C116 C 1.08529 0.59029 -0.14836
 Zr117 Zr 0.99904 0.54021 -0.11900
 O118 O 0.99433 0.53783 -0.26769
 O119 O 1.00261 0.59330 -0.11795
 Zr120 Zr 0.99878 0.45800 -0.12230
 O121 O 0.99371 0.45744 -0.27084
 O122 O 1.00263 0.40868 -0.12833
 Zr123 Zr 1.05521 0.52654 -0.00333
 Zr124 Zr 0.94386 0.47119 0.00068
 O125 O 0.96620 0.48288 -0.13654
 O126 O 1.03224 0.51574 -0.14022
 O127 O 0.96620 0.52972 0.00127
 O128 O 1.03185 0.46794 -0.00454
 O129 O 1.03252 0.56232 -0.00114
 O130 O 0.96607 0.43483 -0.00223
 H131 H 0.95156 0.47409 0.19196
 H132 H 1.04858 0.45711 -0.00585
 H133 H 0.94881 0.47439 -0.19094
 H134 H 1.04961 0.58982 -0.00067
 H135 H 0.98256 0.38920 0.07642
 H136 H 0.98400 0.39056 -0.08366
 H137 H 1.01606 0.47996 -0.29545
 H138 H 1.01567 0.53592 -0.29297
 H139 H 0.98457 0.59224 -0.07036
 H140 H 1.00325 0.60130 0.16955
 H141 H 0.99782 0.52044 0.29159
 H142 H 1.01921 0.47882 0.28884
 O143 O 0.41952 0.47179 0.17496
 O144 O 0.42770 0.52132 0.08365
 C145 C 0.41134 0.49725 0.15099
 O146 O 0.58518 0.53155 0.16485
 O147 O 0.57439 0.47934 0.08112
 C148 C 0.59281 0.50555 0.14274
 O149 O 0.53142 0.58200 0.17319
 O150 O 0.48172 0.57451 0.08391
 C151 C 0.50619 0.59061 0.15068
 O152 O 0.46679 0.41500 0.16666
 O153 O 0.51793 0.42379 0.08167
 C154 C 0.49201 0.40630 0.14450
 Zr155 Zr 0.45900 0.45896 0.11721
 O156 O 0.45420 0.45350 0.26541
 O157 O 0.40710 0.40913 0.10012
 Zr158 Zr 0.54177 0.54054 0.11742
 O159 O 0.54490 0.54019 0.26624
 O160 O 0.59125 0.59354 0.11173
 O161 O 0.48424 0.51677 0.13612
 O162 O 0.51619 0.48320 0.13558
 O163 O 0.46654 0.41400 -0.16436
 O164 O 0.51839 0.42385 -0.08060
 C165 C 0.49211 0.40571 -0.14225
 O166 O 0.53112 0.58143 -0.17579
 O167 O 0.48168 0.57428 -0.08595
 C168 C 0.50605 0.59030 -0.15287
 O169 O 0.58563 0.53089 -0.16382
 O170 O 0.57454 0.47895 -0.07869
 C171 C 0.59345 0.50508 -0.13972
 O172 O 0.41757 0.46995 -0.17171
 O173 O 0.42716 0.52071 -0.08322
 C174 C 0.40963 0.49569 -0.14784
 Zr175 Zr 0.45908 0.45881 -0.11859
 O176 O 0.46062 0.45644 -0.26744
 O177 O 0.40579 0.40969 -0.11607
 Zr178 Zr 0.54178 0.54016 -0.11886
 O179 O 0.54538 0.53921 -0.26744
 O180 O 0.59114 0.59329 -0.11432
 Zr181 Zr 0.47300 0.52855 -0.00075
 Zr182 Zr 0.52781 0.47086 0.00020
 O183 O 0.51627 0.48282 -0.13593
 O184 O 0.48412 0.51657 -0.13767
 O185 O 0.46925 0.43529 -0.00028
 O186 O 0.53156 0.56314 -0.00097
 O187 O 0.43703 0.47009 -0.00050
 O188 O 0.56462 0.52933 -0.00036
 H189 H 0.52436 0.47490 0.19171
 H190 H 0.54206 0.59066 -0.00118
 H191 H 0.52449 0.47435 -0.19174
 H192 H 0.40962 0.46009 0.00022
 H193 H 0.61077 0.59015 0.08029
 H194 H 0.61070 0.59015 -0.08228
 H195 H 0.52049 0.53251 -0.29286
 H196 H 0.46327 0.48008 -0.29227
 H197 H 0.40764 0.39141 -0.07445
 H198 H 0.39730 0.40058 0.16451
 H199 H 0.47863 0.47218 0.29201
 H200 H 0.52020 0.53456 0.29107
 O201 O 0.47130 0.05154 0.18147
 O202 O 0.52132 0.09303 0.09209
 C203 C 0.49696 0.08519 0.15870
 O204 O 0.53057 -0.05493 0.17270
 O205 O 0.47910 -0.09589 0.08631
 C206 C 0.50477 -0.08845 0.14924
 O207 O 0.58163 0.04961 0.18257
 O208 O 0.57454 0.09200 0.09291
 C209 C 0.59052 0.08353 0.15964
 O210 O 0.41436 -0.05256 0.16936
 O211 O 0.42401 -0.09466 0.08521
 C212 C 0.40599 -0.08641 0.14698
 Zr213 Zr 0.45868 -0.00058 0.12251
 O214 O 0.45192 -0.00233 0.27039
 O215 O 0.40918 0.00200 0.10371
 Zr216 Zr 0.54004 -0.00218 0.12626
 O217 O 0.53832 -0.00616 0.27507
 O218 O 0.59287 0.00088 0.12405
 O219 O 0.51630 0.03175 0.14400
 O220 O 0.48268 -0.03377 0.14179
 O221 O 0.41565 -0.05184 -0.16074
 O222 O 0.42481 -0.09436 -0.07709
 C223 C 0.40707 -0.08583 -0.13909
 O224 O 0.58403 0.05060 -0.16247
 O225 O 0.57568 0.09242 -0.07337
 C226 C 0.59287 0.08446 -0.13786
 O227 O 0.53244 -0.05465 -0.15586
 O228 O 0.47991 -0.09560 -0.07308
 C229 C 0.50638 -0.08829 -0.13311
 O230 O 0.47174 0.05289 -0.16613
 O231 O 0.52182 0.09361 -0.07554
 C232 C 0.49726 0.08644 -0.14118
 Zr233 Zr 0.46026 0.00009 -0.11348
 O234 O 0.45911 -0.00335 -0.26240
 O235 O 0.41129 0.00456 -0.11348
 Zr236 Zr 0.54135 -0.00166 -0.11046
 O237 O 0.54035 -0.00535 -0.25930
 O238 O 0.59415 0.00140 -0.10677
 Zr239 Zr 0.52899 0.05518 0.00761
 Zr240 Zr 0.47132 -0.05716 0.00572
 O241 O 0.48421 -0.03327 -0.12989
 O242 O 0.51812 0.03276 -0.13001
 O243 O 0.43587 -0.03398 0.00380
 O244 O 0.56337 0.03083 0.00882
 O245 O 0.47066 0.03297 0.00532
 O246 O 0.52968 -0.03574 0.00765
 H247 H 0.47398 -0.05041 0.19757
 H248 H 0.59091 0.04744 0.01011
 H249 H 0.47603 -0.04982 -0.18597
 H250 H 0.46077 0.05052 0.00572
 H251 H 0.58979 -0.02165 0.09103
 H252 H 0.59120 -0.02044 -0.07066
 H253 H 0.53751 0.01553 -0.28407
 H254 H 0.48315 0.01737 -0.28596
 H255 H 0.39289 -0.01527 -0.07152
 H256 H 0.40008 0.00274 0.16782
 H257 H 0.47226 -0.00539 0.29768
 H258 H 0.53427 0.01403 0.29973
 C259 C 1.17794 0.49777 0.31569
 C260 C 1.14623 0.46630 0.29255
 C261 C 1.11496 0.46601 0.24122
 C262 C 1.11870 0.49391 0.18553
 H263 H 1.14107 0.43948 0.31923
 H264 H 1.08769 0.44125 0.24961
 H265 H 1.18228 0.52480 0.29360
 H266 H 1.14606 0.51771 0.17131
 C267 C 0.50677 0.68351 0.31166
 C268 C 0.47627 0.65516 0.27162
 C269 C 0.47790 0.62800 0.20600
 C270 C 0.50591 0.62035 0.20734
 H271 H 0.44890 0.65144 0.28706
 H272 H 0.45390 0.61186 0.16095
 H273 H 0.53440 0.68890 0.29229
 H274 H 0.52858 0.63435 0.25731
 C275 C 0.31304 -0.17893 0.30746
 C276 C 0.34198 -0.18044 0.26911
 C277 C 0.36904 -0.15175 0.20343
 C278 C 0.37497 -0.11664 0.19979
 H279 H 0.34666 -0.20334 0.28711
 H280 H 0.38700 -0.15894 0.16367
 H281 H 0.30672 -0.15748 0.28617
 H282 H 0.35914 -0.10831 0.24447
 C283 C 0.82229 0.50787 0.30361
 C284 C 0.82036 0.47735 0.26411
 C285 C 0.84936 0.47876 0.19994
 C286 C 0.88485 0.50707 0.20023
 H287 H 0.79679 0.44993 0.27965
 H288 H 0.84183 0.45413 0.15742
 H289 H 0.84450 0.53557 0.28465
 H290 H 0.89331 0.53057 0.24747
 C291 C 0.49153 0.31392 0.31011
 C292 C 0.52174 0.34217 0.26885
 C293 C 0.52012 0.36918 0.20263
 C294 C 0.49121 0.37546 0.19872
 H295 H 0.54922 0.34613 0.28427
 H296 H 0.54509 0.38671 0.16197
 H297 H 0.46373 0.30822 0.29168
 H298 H 0.46719 0.36003 0.24391
 C299 C 0.68676 0.17792 0.30609
 C300 C 0.65740 0.17932 0.27035
 C301 C 0.62923 0.14972 0.20862
 C302 C 0.62075 0.11383 0.21444
 H303 H 0.65347 0.20282 0.28687
 H304 H 0.61307 0.15734 0.16290
 H305 H 0.69202 0.15564 0.28554
 H306 H 0.63491 0.10563 0.26525
 C307 C 0.50038 0.17743 -0.32259
 C308 C 0.46968 0.14530 -0.29765
 C309 C 0.47026 0.11464 -0.24493
 C310 C 0.49846 0.11869 -0.18980
 H311 H 0.44249 0.13928 -0.32337
 H312 H 0.44536 0.08732 -0.25108
 H313 H 0.52779 0.18279 -0.30091
 H314 H 0.52254 0.14612 -0.17776
 C315 C 0.68035 0.50171 -0.32283
 C316 C 0.68017 0.53283 -0.29490
 C317 C 0.64936 0.53274 -0.24124
 C318 C 0.62520 0.50453 -0.18624
 H319 H 0.70184 0.55999 -0.31952
 H320 H 0.64699 0.55770 -0.24743
 H321 H 0.65772 0.47441 -0.30235
 H322 H 0.62854 0.48040 -0.17450
 C323 C 0.82104 0.31633 -0.31300
 C324 C 0.85246 0.31653 -0.28666
 C325 C 0.88354 0.34773 -0.23492
 C326 C 0.87985 0.37251 -0.18138
 H327 H 0.85783 0.29481 -0.31196
 H328 H 0.91081 0.35010 -0.24201
 H329 H 0.81647 0.33901 -0.29200
 H330 H 0.85249 0.36917 -0.16854
 C331 C 0.50239 -0.17865 -0.31730
 C332 C 0.53358 -0.14720 -0.29081
 C333 C 0.53371 -0.11645 -0.23656
 C334 C 0.50583 -0.12053 -0.18020
 H335 H 0.56057 -0.14173 -0.31672
 H336 H 0.55850 -0.08911 -0.24350
 H337 H 0.47522 -0.18334 -0.29551
 H338 H 0.48183 -0.14800 -0.16812
 C339 C 0.32234 0.50009 -0.32616
 C340 C 0.32442 0.46926 -0.30745
 C341 C 0.35523 0.46923 -0.25426
 C342 C 0.37863 0.49679 -0.19643
 H343 H 0.30410 0.44277 -0.33857
 H344 H 0.35818 0.44469 -0.26304
 H345 H 0.34352 0.52722 -0.30044
 H346 H 0.37486 0.52052 -0.18240
 C347 C 1.17750 0.67970 -0.31994
 C348 C 1.14492 0.67804 -0.29862
 C349 C 1.11367 0.64642 -0.24881
 C350 C 1.11739 0.62176 -0.19515
 H351 H 1.13913 0.69927 -0.32539
 H352 H 1.08639 0.64400 -0.25610
 H353 H 1.18272 0.65760 -0.29768
 H354 H 1.14473 0.62507 -0.18211
 C355 C 0.82138 0.50297 -0.31408
 C356 C 0.85354 0.53413 -0.29217
 C357 C 0.88441 0.53442 -0.23841
 C358 C 0.88037 0.50692 -0.18056
 H359 H 0.85937 0.56067 -0.32231
 H360 H 0.91189 0.55877 -0.24797
 H361 H 0.81596 0.47586 -0.28946
 H362 H 0.85286 0.48338 -0.16615
 C363 C 0.49197 0.31139 -0.29836
 C364 C 0.52230 0.34111 -0.26203
 C365 C 0.52050 0.36847 -0.19739
 C366 C 0.49137 0.37448 -0.19473
 H367 H 0.54990 0.34620 -0.28099
 H368 H 0.54558 0.38666 -0.15773
 H369 H 0.46426 0.30484 -0.27613
 H370 H 0.46731 0.35839 -0.23951
 C371 C 0.68032 0.17551 -0.31595
 C372 C 0.67807 0.14248 -0.29792
 C373 C 0.64712 0.11170 -0.24498
 C374 C 0.62441 0.11629 -0.18566
 H375 H 0.69819 0.13617 -0.32969
 H376 H 0.64338 0.08396 -0.25539
 H377 H 0.65920 0.18149 -0.28990
 H378 H 0.62906 0.14402 -0.17014
 C379 C 1.17875 0.49838 -0.32164
 C380 C 1.14506 0.46779 -0.30856
 C381 C 1.11360 0.46752 -0.25769
 C382 C 1.11724 0.49470 -0.19929
 H383 H 1.13884 0.44181 -0.34299
 H384 H 1.08616 0.44327 -0.26885
 H385 H 1.18495 0.52523 -0.29308
 H386 H 1.14460 0.51813 -0.18318
 C387 C 0.50642 0.68562 -0.30416
 C388 C 0.47591 0.65582 -0.26840
 C389 C 0.47778 0.62812 -0.20523
 C390 C 0.50579 0.62042 -0.20838
 H391 H 0.44829 0.65116 -0.28543
 H392 H 0.45375 0.61147 -0.16074
 H393 H 0.53393 0.69133 -0.28217
 H394 H 0.52846 0.63497 -0.25805
 C395 C 0.31284 -0.17847 -0.29909
 C396 C 0.34155 -0.18018 -0.25972
 C397 C 0.36897 -0.15136 -0.19455
 C398 C 0.37588 -0.11590 -0.19247
 H399 H 0.34572 -0.20353 -0.27628
 H400 H 0.38638 -0.15893 -0.15364
 H401 H 0.30703 -0.15650 -0.27935
 H402 H 0.36048 -0.10736 -0.23811
 C403 C 0.50530 -0.18207 0.30353
 C404 C 0.47460 -0.18339 0.26737
 C405 C 0.47604 -0.15440 0.20280
 C406 C 0.50491 -0.11916 0.20159
 H407 H 0.44718 -0.20608 0.28678
 H408 H 0.45115 -0.16148 0.16210
 H409 H 0.53282 -0.16073 0.28069
 H410 H 0.52862 -0.11114 0.24766
 C411 C 0.31532 0.49621 0.29480
 C412 C 0.34476 0.52701 0.25952
 C413 C 0.37297 0.52545 0.19818
 C414 C 0.38152 0.49813 0.20558
 H415 H 0.34876 0.55444 0.27636
 H416 H 0.38897 0.54890 0.15147
 H417 H 0.31003 0.46870 0.27373
 H418 H 0.36746 0.47620 0.25744
 C419 C 1.17898 0.67877 0.31844
 C420 C 1.14558 0.67568 0.30106
 C421 C 1.11485 0.64435 0.24911
 C422 C 1.11900 0.62064 0.19239
 H423 H 1.13887 0.69556 0.33275
 H424 H 1.08734 0.64123 0.25802
 H425 H 1.18561 0.65811 0.29209
 H426 H 1.14646 0.62450 0.17793
 C427 C 0.49585 0.17991 0.30379
 C428 C 0.52681 0.18120 0.26994
 C429 C 0.52546 0.15157 0.20825
 C430 C 0.49782 0.11581 0.21390
 H431 H 0.55411 0.20439 0.28830
 H432 H 0.54921 0.15896 0.16265
 H433 H 0.46853 0.15791 0.28128
 H434 H 0.47557 0.10788 0.26481
 C435 C 0.68683 0.50659 0.29772
 C436 C 0.65794 0.47590 0.26000
 C437 C 0.63039 0.47728 0.19565
 C438 C 0.62369 0.50596 0.19519
 H439 H 0.65358 0.44844 0.27799
 H440 H 0.61285 0.45244 0.15435
 H441 H 0.69275 0.53423 0.27635
 H442 H 0.63915 0.52966 0.24155
 C443 C 0.82388 0.31829 0.31782
 C444 C 0.85615 0.31943 0.29693
 C445 C 0.88673 0.34992 0.24265
 C446 C 0.88214 0.37293 0.18450
 H447 H 0.86211 0.29888 0.32757
 H448 H 0.91435 0.35335 0.25198
 H449 H 0.81831 0.33981 0.29261
 H450 H 0.85449 0.36863 0.17024
   
