data_POSCAR
  _audit_creation_date              2014-09-24
  _audit_creation_method            'ToBaCCo'
  _symmetry_space_group_name_H-M    'P1'
  _symmetry_Int_Tables_number       1
  _symmetry_cell_setting            triclinic
  loop_
  _symmetry_equiv_pos_as_xyz
 x,y,z
_cell_length_a 49.6424
_cell_length_b 45.8327
_cell_length_c 46.5987
_cell_angle_alpha 89.965200
_cell_angle_beta 90.055100
_cell_angle_gamma 90.052900
loop_
  _atom_site_label
  _atom_site_type_symbol
  _atom_site_fract_x
  _atom_site_fract_y
  _atom_site_fract_z
C1 C 1.21234 0.26114 0.29427
 H2 H 1.21111 0.23760 0.29550
 C3 C 1.19637 0.27832 0.31221
 H4 H 1.18271 0.26802 0.32724
 C5 C 1.23180 0.30337 0.27336
 H6 H 1.24588 0.31307 0.25849
 C7 C 1.21619 0.32137 0.29093
 H8 H 1.21809 0.34486 0.28932
 N9 N 1.22935 0.27383 0.27507
 C10 C 1.24026 0.20853 0.20784
 H11 H 1.26202 0.20717 0.20733
 C12 C 1.22485 0.19147 0.18917
 H13 H 1.23472 0.17684 0.17426
 C14 C 1.20075 0.22930 0.22780
 H15 H 1.19142 0.24430 0.24261
 C16 C 1.18460 0.21265 0.20949
 H17 H 1.16288 0.21468 0.21048
 Zn18 Zn 1.25037 0.24866 0.25187
 N19 N 1.22805 0.22663 0.22697
 C20 C 1.26736 0.19410 0.27494
 N21 N 1.26962 0.22364 0.27688
 C22 C 1.28548 0.23633 0.29719
 C23 C 1.30071 0.21916 0.31589
 C24 C 1.28223 0.17608 0.29322
 C25 C 1.26425 0.28852 0.20853
 C26 C 1.28133 0.30454 0.19063
 C27 C 1.31952 0.28212 0.21404
 C28 C 1.30175 0.26654 0.23150
 N29 N 1.27466 0.27024 0.22872
 H30 H 1.25416 0.18441 0.25918
 H31 H 1.28656 0.25987 0.29853
 H32 H 1.31364 0.22957 0.33162
 H33 H 1.28058 0.15258 0.29116
 H34 H 1.24263 0.29065 0.20641
 H35 H 1.27289 0.31920 0.17475
 H36 H 1.34105 0.27915 0.21649
 H37 H 1.30969 0.25136 0.24706
 C38 C 1.19676 0.19344 0.19015
 C39 C 1.19825 0.30870 0.31044
 C40 C 1.30922 0.30135 0.19350
 C41 C 1.29924 0.18873 0.31373
 C42 C 0.71548 -0.23601 0.29657
 H43 H 0.71428 -0.25954 0.29780
 C44 C 0.70041 -0.21884 0.31536
 H45 H 0.68744 -0.22913 0.33108
 C46 C 0.73372 -0.19374 0.27447
 H47 H 0.74691 -0.18403 0.25873
 C48 C 0.71900 -0.17577 0.29286
 H49 H 0.72064 -0.15227 0.29100
 N50 N 0.73132 -0.22328 0.27628
 C51 C 0.73611 -0.28777 0.20769
 H52 H 0.75771 -0.28999 0.20551
 C53 C 0.71890 -0.30363 0.18979
 H54 H 0.72721 -0.31827 0.17386
 C55 C 0.69878 -0.26572 0.23083
 H56 H 0.69098 -0.25058 0.24647
 C57 C 0.68088 -0.28115 0.21338
 H58 H 0.65938 -0.27810 0.21590
 Zn59 Zn 0.75032 -0.24826 0.25113
 N60 N 0.72585 -0.26955 0.22796
 C61 C 0.76862 -0.30318 0.27237
 N62 N 0.77127 -0.27366 0.27416
 C63 C 0.78842 -0.26117 0.29337
 C64 C 0.80430 -0.27853 0.31127
 C65 C 0.78414 -0.32135 0.28990
 C66 C 0.76038 -0.20796 0.20726
 C67 C 0.77577 -0.19085 0.18864
 C68 C 0.81603 -0.21230 0.20877
 C69 C 0.79991 -0.22901 0.22703
 N70 N 0.77262 -0.22622 0.22628
 H71 H 0.75443 -0.31270 0.25751
 H72 H 0.78979 -0.23764 0.29467
 H73 H 0.81806 -0.26840 0.32632
 H74 H 0.78207 -0.34483 0.28825
 H75 H 0.73863 -0.20652 0.20682
 H76 H 0.76589 -0.17609 0.17383
 H77 H 0.83775 -0.21441 0.20969
 H78 H 0.80925 -0.24412 0.24175
 C79 C 0.69103 -0.30034 0.19276
 C80 C 0.70203 -0.18846 0.31330
 C81 C 0.80385 -0.19293 0.18955
 C82 C 0.80220 -0.30890 0.30943
 C83 C 0.71147 0.25841 -0.20846
 H84 H 0.71223 0.23484 -0.20748
 C85 C 0.69404 0.27372 -0.19042
 H86 H 0.68129 0.26195 -0.17552
 C87 C 0.72712 0.30261 -0.22906
 H88 H 0.74021 0.31382 -0.24393
 C89 C 0.70998 0.31877 -0.21139
 H90 H 0.70977 0.34236 -0.21288
 N91 N 0.72724 0.27294 -0.22761
 C92 C 0.74113 0.21020 -0.29645
 H93 H 0.76291 0.21019 -0.29740
 C94 C 0.72629 0.19257 -0.31515
 H95 H 0.73661 0.17885 -0.33053
 C96 C 0.70096 0.22815 -0.27538
 H97 H 0.69110 0.24230 -0.26016
 C98 C 0.68538 0.21090 -0.29368
 H99 H 0.66361 0.21161 -0.29225
 Zn100 Zn 0.74965 0.25019 -0.25172
 N101 N 0.72833 0.22716 -0.27675
 C102 C 0.77004 0.19644 -0.23007
 N103 N 0.77089 0.22603 -0.22763
 C104 C 0.78635 0.23921 -0.20726
 C105 C 0.80241 0.22253 -0.18889
 C106 C 0.78578 0.17895 -0.21212
 C107 C 0.75977 0.29190 -0.29451
 C108 C 0.77522 0.30971 -0.31248
 C109 C 0.81544 0.29055 -0.29004
 C110 C 0.79922 0.27313 -0.27252
 N111 N 0.77190 0.27433 -0.27481
 H112 H 0.75714 0.18628 -0.24582
 H113 H 0.78630 0.26275 -0.20547
 H114 H 0.81488 0.23321 -0.17296
 H115 H 0.78518 0.15543 -0.21436
 H116 H 0.73803 0.29204 -0.29624
 H117 H 0.76528 0.32368 -0.32799
 H118 H 0.83717 0.28940 -0.28792
 H119 H 0.80854 0.25851 -0.25730
 C120 C 0.69816 0.19282 -0.31359
 C121 C 0.69316 0.30416 -0.19206
 C122 C 0.80335 0.30907 -0.31018
 C123 C 0.80221 0.19213 -0.19146
 C124 C 1.21455 -0.23840 -0.20589
 H125 H 1.21472 -0.26193 -0.20395
 C126 C 1.19864 -0.22170 -0.18746
 H127 H 1.18637 -0.23235 -0.17133
 C128 C 1.23045 -0.19567 -0.22912
 H129 H 1.24316 -0.18554 -0.24506
 C130 C 1.21485 -0.17817 -0.21113
 H131 H 1.21534 -0.15466 -0.21351
 N132 N 1.22972 -0.22525 -0.22649
 C133 C 1.24078 -0.29130 -0.29296
 H134 H 1.26250 -0.29117 -0.29487
 C135 C 1.22536 -0.30933 -0.31072
 H136 H 1.23519 -0.32325 -0.32630
 C137 C 1.20131 -0.27296 -0.27072
 H138 H 1.19196 -0.25842 -0.25549
 C139 C 1.18516 -0.29063 -0.28806
 H140 H 1.16344 -0.28985 -0.28590
 Zn141 Zn 1.25085 -0.24937 -0.25056
 N142 N 1.22862 -0.27383 -0.27324
 C143 C 1.27388 -0.30139 -0.22773
 N144 N 1.27364 -0.27172 -0.22654
 C145 C 1.28952 -0.25693 -0.20766
 C146 C 1.30720 -0.27199 -0.18966
 C147 C 1.29126 -0.31730 -0.21009
 C148 C 1.25845 -0.20973 -0.29568
 C149 C 1.27288 -0.19208 -0.31469
 C150 C 1.31423 -0.20974 -0.29350
 C151 C 1.29905 -0.22703 -0.27488
 N152 N 1.27166 -0.22635 -0.27597
 H153 H 1.26069 -0.31279 -0.24236
 H154 H 1.28863 -0.23336 -0.20689
 H155 H 1.32003 -0.26003 -0.17497
 H156 H 1.29157 -0.34090 -0.21136
 H157 H 1.23667 -0.20999 -0.29638
 H158 H 1.26224 -0.17860 -0.33007
 H159 H 1.33603 -0.21017 -0.29231
 H160 H 1.30923 -0.24093 -0.25965
 C161 C 1.19730 -0.30901 -0.30818
 C162 C 1.19871 -0.19132 -0.19023
 C163 C 1.30102 -0.19198 -0.31342
 C164 C 1.30819 -0.30243 -0.19104
 C165 C 0.25852 0.20897 0.70494
 H166 H 0.23673 0.20909 0.70419
 C167 C 0.27306 0.19141 0.68598
 H168 H 0.26249 0.17786 0.67060
 C169 C 0.29901 0.22657 0.72576
 H170 H 0.30911 0.24056 0.74098
 C171 C 0.31429 0.20938 0.70720
 H172 H 0.33609 0.20997 0.70842
 N173 N 0.27162 0.22572 0.72463
 C174 C 0.21431 0.23770 0.79456
 H175 H 0.21448 0.26122 0.79644
 C176 C 0.19831 0.22101 0.81296
 H177 H 0.18601 0.23174 0.82900
 C178 C 0.23025 0.19496 0.77148
 H179 H 0.24300 0.18484 0.75560
 C180 C 0.21457 0.17745 0.78945
 H181 H 0.21510 0.15393 0.78705
 Zn182 Zn 0.25068 0.24870 0.74992
 N183 N 0.22954 0.22454 0.77404
 C184 C 0.20111 0.27200 0.72957
 N185 N 0.22842 0.27301 0.72710
 C186 C 0.24055 0.29051 0.70734
 C187 C 0.22510 0.30843 0.68950
 C188 C 0.18493 0.28956 0.71216
 C189 C 0.28930 0.25660 0.79287
 C190 C 0.30694 0.27181 0.81081
 C191 C 0.29094 0.31697 0.79015
 C192 C 0.27358 0.30092 0.77258
 N193 N 0.27340 0.27125 0.77392
 H194 H 0.19178 0.25743 0.74482
 H195 H 0.26227 0.29050 0.70546
 H196 H 0.23491 0.32238 0.67391
 H197 H 0.16321 0.28866 0.71429
 H198 H 0.28846 0.23303 0.79376
 H199 H 0.31980 0.25996 0.82556
 H200 H 0.29121 0.34057 0.78876
 H201 H 0.26038 0.31221 0.75788
 C202 C 0.19834 0.19060 0.81027
 C203 C 0.30120 0.19152 0.68728
 C204 C 0.30789 0.30226 0.80927
 C205 C 0.19703 0.30797 0.69200
 C206 C 0.75849 0.70862 0.70684
 H207 H 0.73676 0.70854 0.70507
 C208 C 0.77390 0.69078 0.68894
 H209 H 0.76405 0.67680 0.67340
 C210 C 0.79800 0.72727 0.72889
 H211 H 0.80737 0.74185 0.74410
 C212 C 0.81414 0.70979 0.71140
 H213 H 0.83586 0.71077 0.71344
 N214 N 0.77067 0.72616 0.72655
 C215 C 0.71017 0.74219 0.79274
 H216 H 0.71097 0.76576 0.79366
 C217 C 0.69268 0.72689 0.81076
 H218 H 0.67994 0.73874 0.82560
 C219 C 0.72584 0.69798 0.77227
 H220 H 0.73896 0.68677 0.75747
 C221 C 0.70865 0.68181 0.78992
 H222 H 0.70848 0.65822 0.78844
 Zn223 Zn 0.74848 0.75035 0.74955
 N224 N 0.72597 0.72765 0.77366
 C225 C 0.69990 0.77245 0.72572
 N226 N 0.72729 0.77337 0.72442
 C227 C 0.74020 0.79024 0.70468
 C228 C 0.72548 0.80784 0.68587
 C229 C 0.68444 0.78968 0.70731
 C230 C 0.78516 0.76134 0.79402
 C231 C 0.80127 0.77803 0.81234
 C232 C 0.78478 0.82159 0.78898
 C233 C 0.76899 0.80410 0.77108
 N234 N 0.76976 0.77451 0.77360
 H235 H 0.68996 0.75837 0.74097
 H236 H 0.76198 0.79019 0.70379
 H237 H 0.73589 0.82148 0.67046
 H238 H 0.66266 0.78903 0.70867
 H239 H 0.78504 0.73781 0.79588
 H240 H 0.81372 0.76736 0.82830
 H241 H 0.78425 0.84510 0.78666
 H242 H 0.75612 0.81424 0.75529
 C243 C 0.69178 0.69642 0.80920
 C244 C 0.80199 0.69134 0.69130
 C245 C 0.80117 0.80842 0.80967
 C246 C 0.69734 0.80766 0.68734
 C247 C 0.76027 0.20799 0.20661
 H248 H 0.73852 0.20649 0.20623
 C249 C 0.77563 0.19092 0.18798
 H250 H 0.76573 0.17613 0.17322
 C251 C 0.79983 0.22915 0.22626
 H252 H 0.80919 0.24429 0.24094
 C253 C 0.81593 0.21248 0.20799
 H254 H 0.83765 0.21464 0.20886
 N255 N 0.77254 0.22628 0.22557
 C256 C 0.71559 0.23596 0.29598
 H257 H 0.71439 0.25949 0.29718
 C258 C 0.70060 0.21878 0.31488
 H259 H 0.68770 0.22906 0.33064
 C260 C 0.73376 0.19370 0.27390
 H261 H 0.74689 0.18400 0.25813
 C262 C 0.71911 0.17572 0.29240
 H263 H 0.72075 0.15223 0.29059
 Zn264 Zn 0.75029 0.24825 0.25045
 N265 N 0.73136 0.22324 0.27566
 C266 C 0.69872 0.26560 0.23026
 N267 N 0.72578 0.26949 0.22733
 C268 C 0.73601 0.28776 0.20704
 C269 C 0.71876 0.30361 0.18919
 C270 C 0.68079 0.28101 0.21284
 C271 C 0.78842 0.26117 0.29262
 C272 C 0.80426 0.27853 0.31055
 C273 C 0.78407 0.32135 0.28925
 C274 C 0.76858 0.30318 0.27168
 N275 N 0.77126 0.27366 0.27342
 H276 H 0.69095 0.25041 0.24591
 H277 H 0.75760 0.29004 0.20482
 H278 H 0.72704 0.31830 0.17324
 H279 H 0.65929 0.27792 0.21541
 H280 H 0.78981 0.23764 0.29388
 H281 H 0.81803 0.26840 0.32560
 H282 H 0.78197 0.34482 0.28764
 H283 H 0.75438 0.31270 0.25683
 C284 C 0.70223 0.18840 0.31289
 C285 C 0.80371 0.19307 0.18883
 C286 C 0.80212 0.30889 0.30877
 C287 C 0.69090 0.30025 0.19221
 C288 C 0.26408 0.71147 0.20821
 H289 H 0.24246 0.70935 0.20612
 C290 C 0.28111 0.69542 0.19033
 H291 H 0.27262 0.68075 0.17449
 C292 C 0.30166 0.73344 0.23110
 H293 H 0.30965 0.74861 0.24664
 C294 C 0.31938 0.71781 0.21366
 H295 H 0.34092 0.72077 0.21609
 N296 N 0.27455 0.72975 0.22836
 C297 C 0.21237 0.73883 0.29408
 H298 H 0.21121 0.76237 0.29533
 C299 C 0.19639 0.72165 0.31205
 H300 H 0.18278 0.73194 0.32711
 C301 C 0.23166 0.69661 0.27311
 H302 H 0.24568 0.68692 0.25820
 C303 C 0.21603 0.67860 0.29070
 H304 H 0.21785 0.65511 0.28907
 Zn305 Zn 0.25034 0.75134 0.25157
 N306 N 0.22931 0.72615 0.27483
 C307 C 0.20070 0.77076 0.22764
 N308 N 0.22800 0.77343 0.22672
 C309 C 0.24018 0.79158 0.20757
 C310 C 0.22474 0.80870 0.18898
 C311 C 0.18452 0.78746 0.20941
 C312 C 0.28558 0.76359 0.29682
 C313 C 0.30089 0.78073 0.31549
 C314 C 0.28249 0.82385 0.29286
 C315 C 0.26754 0.80587 0.27461
 N316 N 0.26972 0.77632 0.27655
 H317 H 0.19138 0.75573 0.24247
 H318 H 0.26193 0.79295 0.20699
 H319 H 0.23458 0.82336 0.17406
 H320 H 0.16280 0.78543 0.21047
 H321 H 0.28661 0.74005 0.29816
 H322 H 0.31381 0.77029 0.33120
 H323 H 0.28090 0.84736 0.29080
 H324 H 0.25433 0.81559 0.25887
 C325 C 0.19816 0.69126 0.31026
 C326 C 0.30902 0.69857 0.19316
 C327 C 0.29950 0.81117 0.31333
 C328 C 0.19665 0.80673 0.19005
 N329 N 0.97201 0.03167 -0.05201
 N330 N 0.95343 0.03723 -0.07155
 N331 N 1.02870 0.05190 -0.03209
 N332 N 1.04739 0.07167 -0.03743
 N333 N 1.02865 0.03164 -0.05202
 N334 N 1.04731 0.03707 -0.07148
 N335 N 0.97208 0.05194 -0.03208
 N336 N 0.95354 0.07183 -0.03751
 C337 C 0.94193 0.06211 -0.06196
 C338 C 1.05896 0.06187 -0.06183
 N339 N 1.02880 0.03171 0.04976
 N340 N 1.04737 0.03731 0.06931
 N341 N 0.97217 0.05195 0.02978
 N342 N 0.95353 0.07174 0.03506
 N343 N 0.97217 0.03172 0.04977
 N344 N 0.95352 0.03719 0.06921
 N345 N 1.02878 0.05195 0.02978
 N346 N 1.04734 0.07186 0.03519
 Mn347 Mn 1.00043 0.05221 -0.00115
 C348 C 1.05892 0.06217 0.05966
 C349 C 0.94193 0.06199 0.05948
 N350 N 1.02857 -0.03128 -0.05192
 N351 N 1.04726 -0.03672 -0.07133
 N352 N 0.97196 -0.05151 -0.03194
 N353 N 0.95332 -0.07136 -0.03727
 N354 N 0.97194 -0.03128 -0.05192
 N355 N 0.95329 -0.03680 -0.07140
 N356 N 1.02857 -0.05151 -0.03194
 N357 N 1.04726 -0.07127 -0.03719
 Mn358 Mn 1.00029 0.00019 -0.05226
 C359 C 1.05887 -0.06149 -0.06159
 C360 C 0.94170 -0.06163 -0.06171
 N361 N 0.97210 -0.03122 0.04986
 N362 N 0.95350 -0.03671 0.06937
 N363 N 1.02867 -0.05151 0.02992
 N364 N 1.04716 -0.07145 0.03539
 N365 N 1.02873 -0.03125 0.04985
 N366 N 1.04727 -0.03686 0.06943
 N367 N 0.97205 -0.05147 0.02992
 N368 N 0.95342 -0.07130 0.03531
 Mn369 Mn 1.00045 0.00024 0.05010
 Mn370 Mn 1.00031 -0.05178 -0.00101
 Cl371 Cl 1.00037 0.00022 -0.00108
 C372 C 0.94188 -0.06154 0.05974
 C373 C 1.05875 -0.06175 0.05985
 N374 N 1.02770 0.53096 0.55180
 N375 N 1.04632 0.53630 0.57136
 N376 N 0.97120 0.55130 0.53152
 N377 N 0.95263 0.57117 0.53687
 N378 N 0.97107 0.53098 0.55141
 N379 N 0.95241 0.53647 0.57084
 N380 N 1.02784 0.55127 0.53190
 N381 N 1.04655 0.57099 0.53737
 C382 C 1.05804 0.56110 0.56182
 C383 C 0.94092 0.56136 0.56123
 N384 N 0.97166 0.53114 0.44965
 N385 N 0.95309 0.53657 0.43006
 N386 N 1.02819 0.55142 0.46998
 N387 N 1.04677 0.57133 0.46463
 N388 N 1.02829 0.53115 0.45005
 N389 N 1.04693 0.53672 0.43060
 N390 N 0.97155 0.55139 0.46959
 N391 N 0.95291 0.57117 0.46411
 Mn392 Mn 0.99969 0.55163 0.50075
 C393 C 0.94143 0.56137 0.43962
 C394 C 1.05844 0.56160 0.44024
 N395 N 0.97101 0.46802 0.55136
 N396 N 0.95236 0.46245 0.57080
 N397 N 1.02775 0.44779 0.53180
 N398 N 1.04639 0.42801 0.53727
 N399 N 1.02765 0.46803 0.55175
 N400 N 1.04621 0.46259 0.57133
 N401 N 0.97110 0.44777 0.53142
 N402 N 0.95252 0.42786 0.53675
 Mn403 Mn 0.99935 0.49950 0.55186
 C404 C 0.94085 0.43757 0.56115
 C405 C 1.05787 0.43779 0.56177
 N406 N 1.02823 0.46822 0.45000
 N407 N 1.04691 0.46277 0.43058
 N408 N 0.97146 0.44792 0.46949
 N409 N 0.95275 0.42820 0.46399
 N410 N 0.97160 0.46825 0.44960
 N411 N 0.95301 0.46292 0.43002
 N412 N 1.02810 0.44789 0.46988
 N413 N 1.04670 0.42804 0.46454
 Mn414 Mn 0.99995 0.49969 0.44955
 Mn415 Mn 0.99960 0.44755 0.50065
 Cl416 Cl 0.99965 0.49959 0.50070
 C417 C 1.05841 0.43788 0.44019
 C418 C 0.94128 0.43810 0.43953
 N419 N 0.52748 -0.03126 0.44780
 N420 N 0.54665 -0.03621 0.42880
 N421 N 0.47089 -0.05159 0.46777
 N422 N 0.45194 -0.07115 0.46272
 N423 N 0.47085 -0.03133 0.44782
 N424 N 0.45186 -0.03655 0.42863
 N425 N 0.52752 -0.05151 0.46776
 N426 N 0.54670 -0.07080 0.46292
 C427 C 0.55853 -0.06075 0.43874
 C428 C 0.44014 -0.06125 0.43845
 N429 N 0.47103 -0.03134 0.54953
 N430 N 0.45195 -0.03644 0.56861
 N431 N 0.52761 -0.05155 0.52957
 N432 N 0.54650 -0.07114 0.53467
 N433 N 0.52766 -0.03131 0.54952
 N434 N 0.54660 -0.03657 0.56876
 N435 N 0.47100 -0.05157 0.52958
 N436 N 0.45191 -0.07099 0.53450
 Mn437 Mn 0.49925 -0.05186 0.49867
 C438 C 0.44011 -0.06104 0.55871
 C439 C 0.55829 -0.06126 0.55895
 N440 N 0.47086 0.03156 0.44781
 N441 N 0.45181 0.03671 0.42868
 N442 N 0.52753 0.05182 0.46774
 N443 N 0.54678 0.07110 0.46293
 N444 N 0.52749 0.03158 0.44780
 N445 N 0.54671 0.03651 0.42884
 N446 N 0.47091 0.05181 0.46775
 N447 N 0.45190 0.07129 0.46276
 Mn448 Mn 0.49916 0.00014 0.44750
 C449 C 0.44007 0.06134 0.43852
 C450 C 0.55863 0.06104 0.43879
 N451 N 0.52768 0.03161 0.54951
 N452 N 0.54663 0.03688 0.56873
 N453 N 0.47101 0.05179 0.52957
 N454 N 0.45201 0.07126 0.53457
 N455 N 0.47104 0.03155 0.54953
 N456 N 0.45204 0.03667 0.56869
 N457 N 0.52763 0.05185 0.52955
 N458 N 0.54654 0.07146 0.53462
 Mn459 Mn 0.49935 0.00012 0.54984
 Mn460 Mn 0.49927 0.05212 0.49865
 Cl461 Cl 0.49926 0.00013 0.49867
 C462 C 0.55833 0.06159 0.55890
 C463 C 0.44025 0.06130 0.55882
 N464 N 0.54797 0.53084 0.03190
 N465 N 0.56679 0.55031 0.03775
 N466 N 0.52934 0.46951 0.05191
 N467 N 0.53496 0.44998 0.07188
 N468 N 0.54799 0.46956 0.03192
 N469 N 0.56677 0.45007 0.03773
 N470 N 0.52932 0.53083 0.05188
 N471 N 0.53498 0.55029 0.07190
 C472 C 0.55814 0.56251 0.06246
 C473 C 0.55810 0.43779 0.06242
 N474 N 0.45254 0.46940 0.03177
 N475 N 0.43361 0.45008 0.03769
 N476 N 0.47112 0.53074 0.05181
 N477 N 0.46526 0.55000 0.07194
 N478 N 0.45251 0.53069 0.03174
 N479 N 0.43352 0.54991 0.03766
 N480 N 0.47116 0.46942 0.05184
 N481 N 0.46535 0.45010 0.07196
 Mn482 Mn 0.50024 0.50012 0.05213
 C483 C 0.44215 0.43796 0.06251
 C484 C 0.44203 0.56205 0.06249
 N485 N 0.54812 0.46956 -0.02994
 N486 N 0.56717 0.45045 -0.03595
 N487 N 0.52946 0.53083 -0.05003
 N488 N 0.53531 0.55007 -0.07020
 N489 N 0.54808 0.53085 -0.02997
 N490 N 0.56706 0.55010 -0.03594
 N491 N 0.52949 0.46951 -0.05000
 N492 N 0.53542 0.45036 -0.07021
 Mn493 Mn 0.54825 0.50020 0.00099
 C494 C 0.55869 0.43836 -0.06081
 C495 C 0.55853 0.56219 -0.06078
 N496 N 0.45262 0.53068 -0.03012
 N497 N 0.43379 0.55010 -0.03599
 N498 N 0.47130 0.46942 -0.05008
 N499 N 0.46558 0.45003 -0.07014
 N500 N 0.45264 0.46941 -0.03009
 N501 N 0.43377 0.45001 -0.03601
 N502 N 0.47128 0.53073 -0.05010
 N503 N 0.46561 0.55018 -0.07013
 Mn504 Mn 0.45236 0.50005 0.00082
 Mn505 Mn 0.50038 0.50012 -0.05032
 Cl506 Cl 0.50031 0.50012 0.00090
 C507 C 0.44244 0.56234 -0.06071
 C508 C 0.44239 0.43784 -0.06074
 C509 C 1.18040 0.17562 0.17161
 C510 C 1.16643 0.16067 0.15637
 C511 C 1.14938 0.14286 0.13853
 C512 C 1.14365 0.11403 0.14650
 C513 C 1.12622 0.09708 0.12979
 C514 C 1.11444 0.10889 0.10504
 C515 C 1.12040 0.13761 0.09691
 C516 C 1.13783 0.15457 0.11361
 C517 C 1.09544 0.09197 0.08865
 C518 C 1.07905 0.07814 0.07524
 H519 H 1.15241 0.10479 0.16577
 H520 H 1.12166 0.07494 0.13636
 H521 H 1.11132 0.14700 0.07788
 H522 H 1.14206 0.17686 0.10729
 C523 C 1.18091 0.67279 0.67368
 C524 C 1.16685 0.65773 0.65863
 C525 C 1.14965 0.64001 0.64088
 C526 C 1.14071 0.61280 0.65077
 C527 C 1.12305 0.59614 0.63406
 C528 C 1.11426 0.60661 0.60739
 C529 C 1.12345 0.63367 0.59736
 C530 C 1.14110 0.65034 0.61407
 C531 C 1.09500 0.59017 0.59089
 C532 C 1.07840 0.57671 0.57741
 H533 H 1.14712 0.60465 0.67150
 H534 H 1.11598 0.57530 0.64207
 H535 H 1.11669 0.64204 0.57683
 H536 H 1.14783 0.67139 0.60626
 C537 C 0.68231 0.17447 0.66789
 C538 C 0.66851 0.15919 0.65279
 C539 C 0.65141 0.14114 0.63526
 C540 C 0.64395 0.11327 0.64477
 C541 C 0.62610 0.09636 0.62854
 C542 C 0.61563 0.10725 0.60274
 C543 C 0.62340 0.13495 0.59303
 C544 C 0.64125 0.15186 0.60926
 C545 C 0.59601 0.09062 0.58693
 C546 C 0.57908 0.07711 0.57398
 H547 H 0.65160 0.10482 0.66491
 H548 H 0.62013 0.07503 0.63632
 H549 H 0.61533 0.14363 0.57318
 H550 H 0.64679 0.17343 0.60177
 C551 C 0.67286 0.68334 0.17482
 C552 C 0.65755 0.66955 0.16000
 C553 C 0.63930 0.65281 0.14253
 C554 C 0.61502 0.64262 0.15413
 C555 C 0.59768 0.62550 0.13748
 C556 C 0.60455 0.61854 0.10914
 C557 C 0.62869 0.62900 0.09744
 C558 C 0.64603 0.64612 0.11410
 C559 C 0.58749 0.59959 0.09252
 C560 C 0.57374 0.58305 0.07872
 H561 H 0.60964 0.64763 0.17611
 H562 H 0.57913 0.61740 0.14679
 H563 H 0.63427 0.62362 0.07560
 H564 H 0.66477 0.65384 0.10493
 C565 C 0.82019 -0.17504 0.17109
 C566 C 0.83414 -0.16002 0.15592
 C567 C 0.85118 -0.14214 0.13817
 C568 C 0.86243 -0.15363 0.11304
 C569 C 0.87989 -0.13664 0.09643
 C570 C 0.88616 -0.10809 0.10488
 C571 C 0.87467 -0.09649 0.12983
 C572 C 0.85721 -0.11348 0.14644
 C573 C 0.90521 -0.09119 0.08860
 C574 C 0.92167 -0.07740 0.07526
 H575 H 0.85796 -0.17579 0.10650
 H576 H 0.88875 -0.14587 0.07724
 H577 H 0.87947 -0.07449 0.13663
 H578 H 0.84868 -0.10441 0.16588
 C579 C 0.81828 0.32545 0.67320
 C580 C 0.83234 0.34040 0.65803
 C581 C 0.84956 0.35802 0.64016
 C582 C 0.86023 0.34646 0.61476
 C583 C 0.87785 0.36314 0.59801
 C584 C 0.88488 0.39144 0.60657
 C585 C 0.87398 0.40311 0.63180
 C586 C 0.85636 0.38644 0.64855
 C587 C 0.90406 0.40805 0.59009
 C588 C 0.92059 0.42169 0.57665
 H589 H 0.85518 0.32448 0.60810
 H590 H 0.88624 0.35384 0.57861
 H591 H 0.87936 0.42493 0.63869
 H592 H 0.84830 0.39557 0.66819
 C593 C 0.31646 -0.17356 0.66778
 C594 C 0.32996 -0.15822 0.65249
 C595 C 0.34678 -0.14012 0.63478
 C596 C 0.35400 -0.11211 0.64406
 C597 C 0.37179 -0.09521 0.62778
 C598 C 0.38242 -0.10626 0.60217
 C599 C 0.37485 -0.13408 0.59264
 C600 C 0.35706 -0.15098 0.60892
 C601 C 0.40213 -0.08974 0.58645
 C602 C 0.41919 -0.07636 0.57362
 H603 H 0.34626 -0.10357 0.66410
 H604 H 0.37762 -0.07378 0.63541
 H605 H 0.38307 -0.14288 0.57294
 H606 H 0.35171 -0.17267 0.60163
 C607 C 0.32727 0.31778 0.17550
 C608 C 0.34249 0.33162 0.16062
 C609 C 0.36067 0.34836 0.14307
 C610 C 0.38534 0.35788 0.15433
 C611 C 0.40267 0.37491 0.13759
 C612 C 0.39541 0.38247 0.10949
 C613 C 0.37086 0.37271 0.09813
 C614 C 0.35353 0.35568 0.11487
 C615 C 0.41255 0.40125 0.09275
 C616 C 0.42640 0.41762 0.07887
 H617 H 0.39105 0.35238 0.17612
 H618 H 0.42154 0.38246 0.14664
 H619 H 0.36498 0.37854 0.07647
 H620 H 0.33449 0.34848 0.10596
 C621 C 0.81903 0.17452 -0.17321
 C622 C 0.83335 0.15975 -0.15816
 C623 C 0.85074 0.14216 -0.14050
 C624 C 0.85633 0.11326 -0.14826
 C625 C 0.87399 0.09648 -0.13166
 C626 C 0.88613 0.10853 -0.10723
 C627 C 0.88034 0.13734 -0.09931
 C628 C 0.86268 0.15412 -0.11590
 C629 C 0.90526 0.09174 -0.09090
 C630 C 0.92174 0.07800 -0.07752
 H631 H 0.84727 0.10382 -0.16727
 H632 H 0.87841 0.07427 -0.13805
 H633 H 0.88969 0.14691 -0.08052
 H634 H 0.85855 0.17646 -0.10974
 C635 C 0.81870 0.67287 0.32742
 C636 C 0.83282 0.65786 0.34244
 C637 C 0.85007 0.64025 0.36023
 C638 C 0.85830 0.61261 0.35089
 C639 C 0.87594 0.59600 0.36767
 C640 C 0.88541 0.60697 0.39388
 C641 C 0.87695 0.63447 0.40337
 C642 C 0.85931 0.65107 0.38658
 C643 C 0.90461 0.59053 0.41045
 C644 C 0.92116 0.57705 0.42399
 H645 H 0.85134 0.60406 0.33051
 H646 H 0.88245 0.57482 0.36007
 H647 H 0.88423 0.64321 0.42353
 H648 H 0.85313 0.67245 0.39398
 C649 C 0.31419 0.17229 0.33022
 C650 C 0.32837 0.15726 0.34515
 C651 C 0.34585 0.13957 0.36257
 C652 C 0.35314 0.11157 0.35340
 C653 C 0.37129 0.09497 0.36955
 C654 C 0.38220 0.10631 0.39494
 C655 C 0.37463 0.13416 0.40431
 C656 C 0.35649 0.15076 0.38816
 C657 C 0.40205 0.08997 0.41068
 C658 C 0.41915 0.07666 0.42356
 H659 H 0.34512 0.10276 0.33358
 H660 H 0.37710 0.07351 0.36204
 H661 H 0.38305 0.14319 0.42385
 H662 H 0.35107 0.17244 0.39538
 C663 C 0.32670 0.68163 -0.17319
 C664 C 0.34227 0.66814 -0.15843
 C665 C 0.36081 0.65173 -0.14103
 C666 C 0.38374 0.63925 -0.15349
 C667 C 0.40126 0.62239 -0.13683
 C668 C 0.39593 0.61798 -0.10763
 C669 C 0.37317 0.63075 -0.09509
 C670 C 0.35565 0.64761 -0.11175
 C671 C 0.41304 0.59920 -0.09089
 C672 C 0.42682 0.58278 -0.07702
 H673 H 0.38788 0.64226 -0.17613
 H674 H 0.41872 0.61248 -0.14678
 H675 H 0.36879 0.62734 -0.07256
 H676 H 0.33795 0.65712 -0.10191
 C677 C 1.18202 -0.17370 -0.17195
 C678 C 1.16780 -0.15889 -0.15692
 C679 C 1.15048 -0.14126 -0.13931
 C680 C 1.14476 -0.11244 -0.14729
 C681 C 1.12707 -0.09566 -0.13082
 C682 C 1.11506 -0.10762 -0.10629
 C683 C 1.12101 -0.13633 -0.09813
 C684 C 1.13870 -0.15312 -0.11461
 C685 C 1.09582 -0.09089 -0.09015
 C686 C 1.07922 -0.07724 -0.07695
 H687 H 1.15371 -0.10309 -0.16640
 H688 H 1.12251 -0.07352 -0.13738
 H689 H 1.11174 -0.14583 -0.07927
 H690 H 1.14293 -0.17540 -0.10829
 C691 C 1.18162 0.32675 0.32844
 C692 C 1.16739 0.34162 0.34345
 C693 C 1.15003 0.35909 0.36122
 C694 C 1.14264 0.38723 0.35247
 C695 C 1.12492 0.40375 0.36921
 C696 C 1.11453 0.39222 0.39477
 C697 C 1.12215 0.36420 0.40366
 C698 C 1.13986 0.34768 0.38693
 C699 C 1.09529 0.40864 0.41126
 C700 C 1.07872 0.42214 0.42470
 H701 H 1.15032 0.39625 0.33260
 H702 H 1.11909 0.42534 0.36206
 H703 H 1.11415 0.35501 0.42332
 H704 H 1.14537 0.32592 0.39386
 C705 C 0.68566 -0.17041 0.33149
 C706 C 0.67144 -0.15545 0.34637
 C707 C 0.65386 -0.13788 0.36371
 C708 C 0.64625 -0.11002 0.35434
 C709 C 0.62790 -0.09360 0.37035
 C710 C 0.61712 -0.10498 0.39577
 C711 C 0.62503 -0.13266 0.40536
 C712 C 0.64337 -0.14908 0.38935
 C713 C 0.59702 -0.08888 0.41131
 C714 C 0.57969 -0.07580 0.42400
 H715 H 0.65415 -0.10122 0.33447
 H716 H 0.62181 -0.07228 0.36268
 H717 H 0.61671 -0.14171 0.42492
 H718 H 0.64904 -0.17065 0.39671
 C719 C 0.67486 0.32033 -0.17418
 C720 C 0.65943 0.33394 -0.15936
 C721 C 0.64100 0.35038 -0.14187
 C722 C 0.64662 0.35501 -0.11275
 C723 C 0.62908 0.37170 -0.09596
 C724 C 0.60585 0.38380 -0.10822
 C725 C 0.60010 0.37894 -0.13727
 C726 C 0.61763 0.36225 -0.15405
 C727 C 0.58857 0.40224 -0.09132
 C728 C 0.57459 0.41833 -0.07731
 H729 H 0.66464 0.34597 -0.10311
 H730 H 0.63380 0.37544 -0.07356
 H731 H 0.58227 0.38831 -0.14701
 H732 H 0.61311 0.35884 -0.17655
 C733 C 1.18243 0.17392 -0.17247
 C734 C 1.16813 0.15914 -0.15743
 C735 C 1.15072 0.14156 -0.13981
 C736 C 1.13884 0.15350 -0.11523
 C737 C 1.12110 0.13676 -0.09872
 C738 C 1.11517 0.10799 -0.10673
 C739 C 1.12727 0.09594 -0.13114
 C740 C 1.14502 0.11269 -0.14765
 C741 C 1.09591 0.09127 -0.09053
 C742 C 1.07931 0.07762 -0.07727
 H743 H 1.14305 0.17583 -0.10902
 H744 H 1.11176 0.14633 -0.07995
 H745 H 1.12275 0.07376 -0.13759
 H746 H 1.15404 0.10327 -0.16666
 C747 C 1.18151 0.67320 0.32829
 C748 C 1.16727 0.65830 0.34332
 C749 C 1.14990 0.64080 0.36112
 C750 C 1.13940 0.65235 0.38660
 C751 C 1.12171 0.63577 0.40335
 C752 C 1.11444 0.60756 0.39472
 C753 C 1.12516 0.59590 0.36939
 C754 C 1.14285 0.61247 0.35263
 C755 C 1.09524 0.59104 0.41124
 C756 C 1.07870 0.57745 0.42471
 H757 H 1.14465 0.67425 0.39333
 H758 H 1.11347 0.64506 0.42283
 H759 H 1.11960 0.57415 0.36244
 H760 H 1.15079 0.60335 0.33294
 C761 C 0.68594 0.17035 0.33120
 C762 C 0.67176 0.15541 0.34619
 C763 C 0.65421 0.13788 0.36364
 C764 C 0.64362 0.14924 0.38914
 C765 C 0.62526 0.13288 0.40522
 C766 C 0.61742 0.10510 0.39585
 C767 C 0.62832 0.09355 0.37058
 C768 C 0.64669 0.10992 0.35449
 C769 C 0.59726 0.08908 0.41141
 C770 C 0.57987 0.07605 0.42409
 H771 H 0.64922 0.17090 0.39632
 H772 H 0.61685 0.14206 0.42467
 H773 H 0.62229 0.07215 0.36308
 H774 H 0.65467 0.10099 0.33473
 C775 C 0.67442 0.68110 -0.17389
 C776 C 0.65897 0.66745 -0.15909
 C777 C 0.64053 0.65093 -0.14163
 C778 C 0.64586 0.64673 -0.11239
 C779 C 0.62836 0.62990 -0.09565
 C780 C 0.60544 0.61724 -0.10807
 C781 C 0.59998 0.62169 -0.13725
 C782 C 0.61748 0.63851 -0.15399
 C783 C 0.58825 0.59863 -0.09121
 C784 C 0.57435 0.58239 -0.07723
 H785 H 0.66365 0.65619 -0.10262
 H786 H 0.63286 0.62648 -0.07314
 H787 H 0.58240 0.61188 -0.14711
 H788 H 0.61318 0.64158 -0.17659
 C789 C 0.81807 -0.17396 -0.17216
 C790 C 0.83246 -0.15919 -0.15720
 C791 C 0.84996 -0.14159 -0.13965
 C792 C 0.85569 -0.11275 -0.14759
 C793 C 0.87346 -0.09597 -0.13112
 C794 C 0.88557 -0.10796 -0.10663
 C795 C 0.87963 -0.13671 -0.09854
 C796 C 0.86186 -0.15348 -0.11501
 C797 C 0.90482 -0.09119 -0.09044
 C798 C 0.92140 -0.07748 -0.07716
 H799 H 0.84665 -0.10336 -0.16664
 H800 H 0.87799 -0.07381 -0.13764
 H801 H 0.88896 -0.14623 -0.07972
 H802 H 0.85762 -0.17578 -0.10872
 C803 C 0.81856 0.32711 0.32684
 C804 C 0.83264 0.34209 0.34193
 C805 C 0.84984 0.35964 0.35983
 C806 C 0.85819 0.38729 0.35055
 C807 C 0.87582 0.40382 0.36743
 C808 C 0.88517 0.39277 0.39365
 C809 C 0.87658 0.36526 0.40308
 C810 C 0.85895 0.34873 0.38620
 C811 C 0.90439 0.40911 0.41030
 C812 C 0.92096 0.42251 0.42387
 H813 H 0.85133 0.39590 0.33016
 H814 H 0.88242 0.42502 0.35988
 H815 H 0.88378 0.35645 0.42326
 H816 H 0.85269 0.32734 0.39354
 C817 C 0.31450 -0.17243 0.32983
 C818 C 0.32871 -0.15742 0.34476
 C819 C 0.34621 -0.13975 0.36221
 C820 C 0.35698 -0.15104 0.38769
 C821 C 0.37509 -0.13442 0.40389
 C822 C 0.38249 -0.10644 0.39467
 C823 C 0.37145 -0.09500 0.36938
 C824 C 0.35334 -0.11162 0.35318
 C825 C 0.40227 -0.09003 0.41048
 C826 C 0.41931 -0.07666 0.42341
 H827 H 0.35168 -0.17281 0.39481
 H828 H 0.38360 -0.14353 0.42335
 H829 H 0.37713 -0.07344 0.36198
 H830 H 0.34521 -0.10272 0.33345
 C831 C 0.32640 0.31834 -0.17297
 C832 C 0.34197 0.33194 -0.15829
 C833 C 0.36053 0.34845 -0.14097
 C834 C 0.35572 0.35211 -0.11157
 C835 C 0.37328 0.36901 -0.09497
 C836 C 0.39573 0.38229 -0.10769
 C837 C 0.40070 0.37837 -0.13703
 C838 C 0.38315 0.36147 -0.15363
 C839 C 0.41289 0.40106 -0.09097
 C840 C 0.42672 0.41745 -0.07709
 H841 H 0.33827 0.34219 -0.10158
 H842 H 0.36916 0.37204 -0.07234
 H843 H 0.41792 0.38867 -0.14711
 H844 H 0.38703 0.35882 -0.17635
 C845 C 1.18025 -0.17540 0.17160
 C846 C 1.16624 -0.16041 0.15643
 C847 C 1.14916 -0.14256 0.13867
 C848 C 1.13791 -0.15404 0.11350
 C849 C 1.12046 -0.13706 0.09685
 C850 C 1.11420 -0.10852 0.10528
 C851 C 1.12567 -0.09693 0.13028
 C852 C 1.14312 -0.11391 0.14693
 C853 C 1.09521 -0.09158 0.08890
 C854 C 1.07884 -0.07774 0.07547
 H855 H 1.14237 -0.17619 0.10694
 H856 H 1.11161 -0.14629 0.07762
 H857 H 1.12089 -0.07494 0.13707
 H858 H 1.15165 -0.10484 0.16639
 C859 C 1.18061 0.32608 0.67380
 C860 C 1.16653 0.34107 0.65871
 C861 C 1.14930 0.35873 0.64093
 C862 C 1.14013 0.34801 0.61451
 C863 C 1.12248 0.36466 0.59777
 C864 C 1.11393 0.39210 0.60738
 C865 C 1.12334 0.40295 0.63365
 C866 C 1.14099 0.38630 0.65039
 C867 C 1.09472 0.40858 0.59086
 C868 C 1.07816 0.42209 0.57737
 H869 H 1.14635 0.32669 0.60702
 H870 H 1.11524 0.35600 0.57755
 H871 H 1.11678 0.42408 0.64135
 H872 H 1.14789 0.39476 0.67082
 C873 C 0.68162 -0.17403 0.66869
 C874 C 0.66793 -0.15877 0.65346
 C875 C 0.65096 -0.14075 0.63578
 C876 C 0.64378 -0.11273 0.64500
 C877 C 0.62603 -0.09583 0.62865
 C878 C 0.61540 -0.10690 0.60300
 C879 C 0.62289 -0.13475 0.59357
 C880 C 0.64064 -0.15165 0.60992
 C881 C 0.59587 -0.09028 0.58709
 C882 C 0.57898 -0.07678 0.57408
 H883 H 0.65155 -0.10414 0.66503
 H884 H 0.62027 -0.07438 0.63621
 H885 H 0.61469 -0.14357 0.57384
 H886 H 0.64597 -0.17334 0.60266
 C887 C 0.67270 0.31657 0.17433
 C888 C 0.65738 0.33038 0.15956
 C889 C 0.63911 0.34714 0.14215
 C890 C 0.64574 0.35380 0.11368
 C891 C 0.62842 0.37097 0.09709
 C892 C 0.60438 0.38153 0.10890
 C893 C 0.59761 0.37460 0.13728
 C894 C 0.61493 0.35742 0.15387
 C895 C 0.58736 0.40056 0.09235
 C896 C 0.57364 0.41717 0.07861
 H897 H 0.66441 0.34600 0.10443
 H898 H 0.63392 0.37633 0.07522
 H899 H 0.57914 0.38278 0.14668
 H900 H 0.60964 0.35244 0.17589
 C901 C 0.82002 0.17521 0.17038
 C902 C 0.83397 0.16021 0.15523
 C903 C 0.85100 0.14236 0.13752
 C904 C 0.86214 0.15379 0.11229
 C905 C 0.87963 0.13684 0.09574
 C906 C 0.88604 0.10838 0.10435
 C907 C 0.87466 0.09683 0.12940
 C908 C 0.85717 0.11378 0.14595
 C909 C 0.90515 0.09154 0.08815
 C910 C 0.92166 0.07780 0.07489
 H911 H 0.85756 0.17589 0.10562
 H912 H 0.88841 0.14603 0.07647
 H913 H 0.87958 0.07490 0.13632
 H914 H 0.84873 0.10476 0.16547
 C915 C 0.81838 0.67328 0.67306
 C916 C 0.83244 0.65832 0.65795
 C917 C 0.84964 0.64068 0.64016
 C918 C 0.85947 0.65178 0.61416
 C919 C 0.87709 0.63512 0.59745
 C920 C 0.88495 0.60728 0.60664
 C921 C 0.87489 0.59606 0.63248
 C922 C 0.85727 0.61272 0.64919
 C923 C 0.90413 0.59074 0.59016
 C924 C 0.92066 0.57717 0.57673
 H925 H 0.85377 0.67341 0.60700
 H926 H 0.88482 0.64408 0.57757
 H927 H 0.88092 0.57461 0.63986
 H928 H 0.84986 0.60395 0.66929
 C929 C 0.31674 0.17326 0.66848
 C930 C 0.33032 0.15805 0.65316
 C931 C 0.34720 0.14011 0.63539
 C932 C 0.35426 0.11197 0.64443
 C933 C 0.37204 0.09519 0.62807
 C934 C 0.38281 0.10648 0.60260
 C935 C 0.37542 0.13443 0.59332
 C936 C 0.35765 0.15122 0.60969
 C937 C 0.40245 0.09002 0.58675
 C938 C 0.41943 0.07665 0.57383
 H939 H 0.34640 0.10323 0.66435
 H940 H 0.37773 0.07365 0.63550
 H941 H 0.38374 0.14342 0.57373
 H942 H 0.35242 0.17300 0.60257
 C943 C 0.32702 0.68210 0.17520
 C944 C 0.34222 0.66822 0.16036
 C945 C 0.36040 0.65145 0.14287
 C946 C 0.35320 0.64393 0.11475
 C947 C 0.37054 0.62691 0.09805
 C948 C 0.39516 0.61736 0.10939
 C949 C 0.40247 0.62511 0.13742
 C950 C 0.38513 0.64213 0.15412
 C951 C 0.41234 0.59862 0.09270
 C952 C 0.42623 0.58231 0.07884
 H953 H 0.33411 0.65097 0.10584
 H954 H 0.36462 0.62093 0.07646
 H955 H 0.42139 0.61773 0.14646
 H956 H 0.39089 0.64778 0.17585
   
