data_POSCAR
  _audit_creation_date              2014-09-24
  _audit_creation_method            'ToBaCCo'
  _symmetry_space_group_name_H-M    'P1'
  _symmetry_Int_Tables_number       1
  _symmetry_cell_setting            triclinic
  loop_
  _symmetry_equiv_pos_as_xyz
 x,y,z
_cell_length_a 14.2646
_cell_length_b 14.2683
_cell_length_c 15.0518
_cell_angle_alpha 90.209300
_cell_angle_beta 89.514000
_cell_angle_gamma 90.055600
loop_
  _atom_site_label
  _atom_site_type_symbol
  _atom_site_fract_x
  _atom_site_fract_y
  _atom_site_fract_z
N1 N 0.20944 1.22481 0.22277
 N2 N 0.78912 0.77306 0.21963
 N3 N 0.78160 1.20553 -0.21171
 N4 N 0.22590 0.79141 -0.22657
 C5 C 0.65090 1.11872 -0.01549
 H6 H 0.65800 1.11822 0.05557
 C7 C 0.71910 1.16360 -0.06643
 H8 H 0.77890 1.19357 -0.03280
 C9 C 0.56779 1.07566 -0.14463
 H10 H 0.50857 1.04161 -0.17513
 C11 C 0.63425 1.12061 -0.19852
 H12 H 0.62493 1.12073 -0.26985
 N13 N 0.57828 1.07351 -0.05480
 C14 C 0.36923 1.02861 0.15477
 H15 H 0.37215 0.95297 0.15888
 C16 C 0.29963 1.07736 0.20096
 H17 H 0.24872 1.03782 0.23910
 C18 C 0.42608 1.16925 0.09076
 H19 H 0.47341 1.20417 0.04519
 C20 C 0.36034 1.22148 0.13923
 H21 H 0.35816 1.29681 0.13113
 Zn22 Zn 0.49788 0.99870 0.01814
 N23 N 0.42637 1.07423 0.09659
 C24 C 0.62140 0.96325 0.15498
 N25 N 0.57346 0.91999 0.08886
 C26 C 0.58466 0.82694 0.07241
 C27 C 0.65145 0.77564 0.11927
 C28 C 0.69124 0.91604 0.20063
 C29 C 0.32068 0.93936 -0.04393
 C30 C 0.25764 0.89255 -0.09834
 C31 C 0.38810 0.82740 -0.18084
 C32 C 0.44922 0.87238 -0.12203
 N33 N 0.41481 0.92831 -0.05572
 H34 H 0.60776 1.03598 0.17035
 H35 H 0.54425 0.79300 0.02115
 H36 H 0.66106 0.70220 0.10351
 H37 H 0.73338 0.95569 0.24675
 H38 H 0.29339 0.98574 0.00648
 H39 H 0.18296 0.90094 -0.08752
 H40 H 0.41561 0.78437 -0.23437
 H41 H 0.52419 0.86503 -0.13090
 C42 C 0.29204 1.17507 0.19099
 C43 C 0.71218 1.16518 -0.15984
 C44 C 0.29126 0.83820 -0.16911
 C45 C 0.70872 0.82089 0.18227
 C46 C -0.05916 0.67759 1.03879
 H47 H -0.01303 0.70469 0.98811
 C48 C -0.10812 0.74071 1.09211
 H49 H -0.10121 0.81530 1.08063
 C50 C -0.12393 0.54935 1.11812
 H51 H -0.12956 0.47444 1.12771
 C52 C -0.17130 0.61073 1.17574
 H53 H -0.21431 0.58355 1.22936
 N54 N -0.06795 0.58360 1.05190
 C55 C 0.12108 0.34574 1.01959
 H56 H 0.11999 0.33349 0.94920
 C57 C 0.16404 0.27986 1.07356
 H58 H 0.19322 0.21720 1.04348
 C59 C 0.08253 0.43939 1.14468
 H60 H 0.05050 0.50159 1.17244
 C61 C 0.12666 0.37575 1.20129
 H62 H 0.12825 0.38923 1.27209
 Zn63 Zn 0.00517 0.50064 0.98003
 N64 N 0.07876 0.42255 1.05552
 C65 C 0.17522 0.58094 0.91485
 N66 N 0.08125 0.57265 0.90335
 C67 C 0.03549 0.62414 0.84166
 C68 C 0.08225 0.69464 0.79543
 C69 C 0.22575 0.64847 0.86732
 C70 C -0.02799 0.37066 0.84561
 C71 C -0.07564 0.29880 0.80251
 C72 C -0.21841 0.35155 0.87379
 C73 C -0.16647 0.41914 0.91953
 N74 N -0.07207 0.42411 0.90794
 H75 H 0.21005 0.53864 0.96404
 H76 H -0.03945 0.61590 0.83425
 H77 H 0.04139 0.74047 0.75391
 H78 H 0.29997 0.65640 0.87958
 H79 H 0.04572 0.38099 0.83198
 H80 H -0.03478 0.25115 0.76181
 H81 H -0.29337 0.34803 0.88527
 H82 H -0.20127 0.46532 0.96628
 C83 C 0.16732 0.29427 1.16575
 C84 C -0.16266 0.70744 1.16279
 C85 C -0.17239 0.28503 0.81866
 C86 C 0.17868 0.70938 0.80915
 C87 C 1.11744 -0.01482 0.64149
 H88 H 1.10159 0.05899 0.64861
 C89 C 1.17102 -0.05973 0.70553
 H90 H 1.19559 -0.01881 0.76113
 C91 C 1.09900 -0.15706 0.56197
 H92 H 1.06889 -0.19519 0.50702
 C93 C 1.15336 -0.20473 0.62420
 H94 H 1.16485 -0.27933 0.61656
 N95 N 1.08051 -0.06413 0.57283
 C96 C 1.01141 0.12141 0.35500
 H97 H 0.93785 0.10515 0.34710
 C98 C 1.05887 0.17210 0.28934
 H99 H 1.02129 0.19388 0.23076
 C100 C 1.15137 0.10505 0.43716
 H101 H 1.18793 0.07637 0.49337
 C102 C 1.20118 0.15696 0.37385
 H103 H 1.27571 0.16813 0.38198
 Zn104 Zn 0.99403 0.00054 0.50039
 N105 N 1.05857 0.08672 0.42579
 C106 C 0.89674 0.15856 0.57152
 N107 N 0.90938 0.06434 0.57727
 C108 C 0.87083 0.01427 0.64493
 C109 C 0.82233 0.05955 0.71358
 C110 C 0.84802 0.20683 0.63848
 C111 C 0.98033 -0.12079 0.35698
 C112 C 0.93644 -0.17277 0.29076
 C113 C 0.79000 -0.15690 0.37100
 C114 C 0.83665 -0.10365 0.43532
 N115 N 0.92982 -0.08501 0.42599
 H116 H 0.92799 0.19708 0.51711
 H117 H 0.88277 -0.06051 0.64832
 H118 H 0.79851 0.01822 0.76958
 H119 H 0.84100 0.28222 0.63390
 H120 H 1.05431 -0.10487 0.35120
 H121 H 0.97825 -0.19605 0.23480
 H122 H 0.71527 -0.16869 0.37749
 H123 H 0.79766 -0.07446 0.49068
 C124 C 1.15576 0.18799 0.29698
 C125 C 1.18626 -0.15708 0.69970
 C126 C 0.83897 -0.18812 0.29503
 C127 C 0.81396 0.15821 0.71367
   
