data_POSCAR
  _audit_creation_date              2014-09-24
  _audit_creation_method            'ToBaCCo'
  _symmetry_space_group_name_H-M    'P1'
  _symmetry_Int_Tables_number       1
  _symmetry_cell_setting            triclinic
  loop_
  _symmetry_equiv_pos_as_xyz
 x,y,z
_cell_length_a 48.7408
_cell_length_b 48.9048
_cell_length_c 48.7882
_cell_angle_alpha 90.000900
_cell_angle_beta 90.103800
_cell_angle_gamma 89.894300
loop_
  _atom_site_label
  _atom_site_type_symbol
  _atom_site_fract_x
  _atom_site_fract_y
  _atom_site_fract_z
C1 C 0.32659 0.35943 1.36082
 N2 N 0.33883 0.33643 1.37054
 C3 C 0.36136 0.32618 1.35783
 N4 N 0.37160 0.33888 1.33534
 C5 C 0.35937 0.36188 1.32562
 N6 N 0.33684 0.37212 1.33833
 C7 C 1.17399 0.64340 0.86297
 N8 N 1.16380 0.63060 0.84048
 C9 C 1.14102 0.64050 0.82788
 N10 N 1.12848 0.66327 0.83770
 C11 C 1.13866 0.67609 0.86018
 N12 N 1.16145 0.66617 0.87279
 C13 C 0.67449 -0.14279 0.13744
 N14 N 0.66443 -0.13013 0.16006
 C15 C 0.64177 -0.14010 0.17269
 N16 N 0.62922 -0.16279 0.16276
 C17 C 0.63927 -0.17546 0.14015
 N18 N 0.66193 -0.16549 0.12752
 C19 C -0.17328 1.14125 -0.36155
 N20 N -0.16319 1.12875 -0.33883
 C21 C -0.14049 1.13879 -0.32624
 N22 N -0.12794 1.16139 -0.33633
 C23 C -0.13803 1.17390 -0.35905
 N24 N -0.16073 1.16385 -0.37163
 C25 C 0.67380 0.64287 0.63712
 N26 N 0.66114 0.66546 0.62697
 C27 C 0.63842 0.67552 0.63948
 N28 N 0.62841 0.66305 0.66220
 C29 C 0.64106 0.64047 0.67235
 N30 N 0.66378 0.63041 0.65984
 C31 C 0.82601 0.35959 0.13872
 N32 N 0.83642 0.37212 0.16126
 C33 C 0.85898 0.36173 0.17388
 N34 N 0.87107 0.33873 0.16401
 C35 C 0.86067 0.32619 0.14147
 N36 N 0.83810 0.33660 0.12886
 C37 C 0.32586 0.14094 0.86104
 N38 N 0.33820 0.16380 0.87081
 C39 C 0.36071 0.17395 0.85805
 N40 N 0.37081 0.16129 0.83547
 C41 C 0.35847 0.13842 0.82569
 N42 N 0.33596 0.12827 0.83845
 C43 C 0.17427 0.85606 0.36306
 N44 N 0.16173 0.83340 0.37304
 C45 C 0.13901 0.82342 0.36044
 N46 N 0.12889 0.83605 0.33779
 C47 C 0.14143 0.85870 0.32781
 N48 N 0.16414 0.86867 0.34041
 Zn49 Zn 0.00399 1.03417 -0.01405
 Zn50 Zn -0.02185 0.97895 -0.02020
 Zn51 Zn 0.03335 0.98447 0.00631
 Zn52 Zn -0.01666 1.00460 0.03532
 O53 O -0.00031 1.00053 0.00182
 O54 O -0.01355 1.03695 -0.04617
 O55 O -0.00461 0.94841 -0.03122
 O56 O 0.06091 1.00523 -0.00608
 O57 O -0.03271 0.99613 -0.05088
 O58 O 0.03914 1.04213 -0.02113
 O59 O 0.03619 0.95264 -0.01153
 O60 O 0.00398 0.99187 0.06296
 O61 O -0.05264 0.96784 -0.00345
 O62 O 0.04110 0.97697 0.04143
 O63 O -0.04862 0.98684 0.03761
 O64 O -0.02426 1.03954 0.04336
 O65 O -0.00894 1.06151 0.00674
 C66 C -0.02807 1.02012 -0.05956
 C67 C 0.01939 0.93957 -0.02641
 C68 C 0.06103 1.02867 -0.01715
 C69 C 0.02748 0.98076 0.06321
 C70 C -0.06165 0.97231 0.02050
 C71 C -0.02033 1.06145 0.03007
 Zn72 Zn 0.53334 -0.01549 0.49408
 Zn73 Zn 0.47812 -0.02114 0.52033
 Zn74 Zn 0.50393 0.03410 0.51452
 Zn75 Zn 0.48331 0.00474 0.46493
 O76 O 0.49966 0.00054 0.49848
 O77 O 0.53619 -0.04737 0.51183
 O78 O 0.46718 -0.00407 0.55100
 O79 O 0.53906 0.04205 0.52183
 O80 O 0.49539 -0.05169 0.53133
 O81 O 0.56089 0.00525 0.50665
 O82 O 0.48631 0.03678 0.54654
 O83 O 0.47579 0.03972 0.45696
 O84 O 0.44738 -0.03224 0.50339
 O85 O 0.49110 0.06152 0.49375
 O86 O 0.45135 -0.01302 0.46243
 O87 O 0.50397 -0.00792 0.43734
 O88 O 0.54110 -0.02287 0.45897
 C89 C 0.51940 -0.06050 0.52659
 C90 C 0.47176 0.01989 0.55978
 C91 C 0.56097 0.02864 0.51785
 C92 C 0.47977 0.06157 0.47035
 C93 C 0.43835 -0.02767 0.47943
 C94 C 0.52748 -0.01902 0.43716
 Zn95 Zn 1.00563 0.46531 0.48521
 Zn96 Zn 1.03466 0.51491 0.50601
 Zn97 Zn 0.97941 0.52048 0.47956
 Zn98 Zn 0.98479 0.49436 0.53487
 O99 O 1.00110 0.49878 0.50139
 O100 O 1.04082 0.45753 0.47800
 O101 O 1.03728 0.54687 0.48841
 O102 O 0.96859 0.50350 0.44877
 O103 O 1.06237 0.49434 0.49343
 O104 O 0.98803 0.46271 0.45312
 O105 O 0.99645 0.55114 0.46875
 O106 O 0.95270 0.51199 0.53732
 O107 O 1.04236 0.52218 0.54117
 O108 O 0.94858 0.53138 0.49644
 O109 O 1.00535 0.50697 0.56260
 O110 O 0.97750 0.45932 0.54264
 O111 O 0.99299 0.43775 0.50581
 C112 C 1.06263 0.47101 0.48212
 C113 C 1.02039 0.56000 0.47362
 C114 C 0.97335 0.47959 0.43990
 C115 C 0.93960 0.52667 0.52035
 C116 C 1.02877 0.51819 0.56292
 C117 C 0.98163 0.43755 0.52915
 Zn118 Zn 0.48388 0.49603 0.96527
 Zn119 Zn 0.53390 0.51631 0.99422
 Zn120 Zn 0.47874 0.52200 1.02065
 Zn121 Zn 0.50477 0.46676 1.01485
 O122 O 0.50030 0.50029 0.99876
 O123 O 0.50439 0.50865 0.93758
 O124 O 0.53669 0.54822 1.01192
 O125 O 0.44790 0.53306 1.00379
 O126 O 0.54152 0.52365 0.95908
 O127 O 0.45183 0.51377 0.96285
 O128 O 0.49593 0.55257 1.03156
 O129 O 0.48725 0.46412 1.04692
 O130 O 0.56157 0.49561 1.00675
 O131 O 0.46797 0.50497 1.05138
 O132 O 0.53995 0.45884 1.02206
 O133 O 0.49197 0.43930 0.99416
 O134 O 0.47645 0.46103 0.95739
 C135 C 0.52785 0.51977 0.93731
 C136 C 0.51989 0.56136 1.02672
 C137 C 0.43882 0.52844 0.97986
 C138 C 0.47267 0.48101 1.06018
 C139 C 0.56179 0.47225 1.01799
 C140 C 0.48055 0.43921 0.97080
 C141 C 1.30382 0.36944 0.37330
 C142 C 1.28348 0.37825 0.38424
 C143 C 1.25906 0.38870 0.39709
 C144 C 1.25110 0.41588 0.39287
 C145 C 1.22708 0.42591 0.40486
 C146 C 1.21065 0.40883 0.42124
 C147 C 1.21893 0.38157 0.42548
 C148 C 1.24298 0.37159 0.41348
 C149 C 1.18479 0.41932 0.43344
 C150 C 1.16104 0.40300 0.43375
 C151 C 1.13649 0.41317 0.44450
 C152 C 1.13534 0.43972 0.45513
 C153 C 1.15891 0.45601 0.45517
 C154 C 1.18349 0.44590 0.44441
 C155 C 1.10980 0.45053 0.46522
 C156 C 1.08831 0.45977 0.47321
 H157 H 1.26334 0.42926 0.38012
 H158 H 1.22108 0.44686 0.40089
 H159 H 1.20691 0.36802 0.43824
 H160 H 1.24898 0.35053 0.41692
 H161 H 1.16128 0.38260 0.42513
 H162 H 1.11832 0.40043 0.44423
 H163 H 1.15825 0.47660 0.46335
 H164 H 1.20149 0.45883 0.44478
 C165 C 0.19702 0.63370 0.87533
 C166 C 0.21758 0.62512 0.88611
 C167 C 0.24228 0.61488 0.89867
 C168 C 0.24108 0.59309 0.91722
 C169 C 0.26516 0.58276 0.92894
 C170 C 0.29080 0.59412 0.92224
 C171 C 0.29175 0.61617 0.90373
 C172 C 0.26765 0.62644 0.89203
 C173 C 0.31650 0.58271 0.93404
 C174 C 0.33797 0.60011 0.94224
 C175 C 0.36250 0.58928 0.95250
 C176 C 0.36588 0.56094 0.95473
 C177 C 0.34455 0.54348 0.94691
 C178 C 0.32001 0.55426 0.93666
 C179 C 0.39151 0.54972 0.96421
 C180 C 0.41307 0.54012 0.97165
 H181 H 0.22154 0.58401 0.92255
 H182 H 0.26373 0.56600 0.94336
 H183 H 0.31118 0.62511 0.89785
 H184 H 0.26882 0.64326 0.87762
 H185 H 0.33577 0.62210 0.94080
 H186 H 0.37888 0.60298 0.95850
 H187 H 0.34700 0.52150 0.94841
 H188 H 0.30403 0.54032 0.93019
 C189 C -0.30261 0.86696 0.12506
 C190 C -0.28214 0.87558 0.11426
 C191 C -0.25756 0.88587 0.10168
 C192 C -0.25889 0.90803 0.08357
 C193 C -0.23491 0.91839 0.07184
 C194 C -0.20924 0.90668 0.07807
 C195 C -0.20816 0.88427 0.09614
 C196 C -0.23216 0.87397 0.10786
 C197 C -0.18365 0.91809 0.06624
 C198 C -0.16237 0.90067 0.05750
 C199 C -0.13793 0.91150 0.04721
 C200 C -0.13443 0.93984 0.04551
 C201 C -0.15557 0.95733 0.05388
 C202 C -0.18003 0.94656 0.06415
 C203 C -0.10886 0.95103 0.03604
 C204 C -0.08735 0.96062 0.02864
 H205 H -0.27846 0.91737 0.07861
 H206 H -0.23645 0.93544 0.05776
 H207 H -0.18871 0.87505 0.10165
 H208 H -0.23088 0.85687 0.12193
 H209 H -0.16467 0.87868 0.05853
 H210 H -0.12170 0.89777 0.04079
 H211 H -0.15302 0.97931 0.05280
 H212 H -0.19585 0.96051 0.07105
 C213 C 0.80251 0.13083 0.62537
 C214 C 0.78206 0.12212 0.61455
 C215 C 0.75752 0.11175 0.60185
 C216 C 0.75125 0.08390 0.60353
 C217 C 0.72714 0.07388 0.59170
 C218 C 0.70893 0.09163 0.57805
 C219 C 0.71551 0.11959 0.57633
 C220 C 0.73965 0.12956 0.58816
 C221 C 0.68299 0.08109 0.56606
 C222 C 0.65844 0.09606 0.56863
 C223 C 0.63387 0.08578 0.55803
 C224 C 0.63349 0.06045 0.54469
 C225 C 0.65784 0.04552 0.54180
 C226 C 0.68243 0.05575 0.55240
 C227 C 0.60801 0.04944 0.53469
 C228 C 0.58657 0.04005 0.52674
 H229 H 0.76489 0.06995 0.61418
 H230 H 0.72248 0.05233 0.59371
 H231 H 0.70208 0.13371 0.56567
 H232 H 0.74433 0.15116 0.58669
 H233 H 0.65811 0.11544 0.57935
 H234 H 0.61511 0.09743 0.56051
 H235 H 0.65778 0.02589 0.53150
 H236 H 0.70104 0.04391 0.54979
 C237 C 0.37335 0.30295 0.36734
 C238 C 0.38379 0.28221 0.37575
 C239 C 0.39599 0.25732 0.38578
 C240 C 0.38365 0.23215 0.38002
 C241 C 0.39523 0.20794 0.38998
 C242 C 0.41934 0.20858 0.40589
 C243 C 0.43164 0.23399 0.41150
 C244 C 0.42002 0.25819 0.40149
 C245 C 0.43135 0.18286 0.41685
 C246 C 0.44183 0.18180 0.44373
 C247 C 0.45243 0.15738 0.45429
 C248 C 0.45276 0.13374 0.43813
 C249 C 0.44264 0.13464 0.41129
 C250 C 0.43201 0.15903 0.40069
 C251 C 0.46279 0.10839 0.44934
 C252 C 0.47078 0.08706 0.45885
 H253 H 0.36499 0.23125 0.36796
 H254 H 0.38506 0.18875 0.38563
 H255 H 0.45037 0.23513 0.42340
 H256 H 0.42977 0.27757 0.40602
 H257 H 0.44128 0.19969 0.45679
 H258 H 0.46008 0.15688 0.47514
 H259 H 0.44281 0.11646 0.39860
 H260 H 0.42443 0.15927 0.37982
 C261 C 0.87430 0.19672 0.63106
 C262 C 0.88510 0.21708 0.62231
 C263 C 0.89775 0.24153 0.61189
 C264 C 0.91282 0.25847 0.62943
 C265 C 0.92463 0.28252 0.61944
 C266 C 0.92149 0.28994 0.59174
 C267 C 0.90644 0.27265 0.57424
 C268 C 0.89465 0.24863 0.58428
 C269 C 0.93347 0.31578 0.58120
 C270 C 0.94572 0.31672 0.55512
 C271 C 0.95631 0.34125 0.54494
 C272 C 0.95482 0.36514 0.56066
 C273 C 0.94291 0.36437 0.58672
 C274 C 0.93232 0.33987 0.59696
 C275 C 0.96481 0.39058 0.54975
 C276 C 0.97274 0.41198 0.54045
 H277 H 0.91539 0.25314 0.65083
 H278 H 0.93637 0.29522 0.63334
 H279 H 0.90334 0.27798 0.55291
 H280 H 0.88292 0.23572 0.57055
 H281 H 0.94724 0.29847 0.54265
 H282 H 0.96551 0.34161 0.52474
 H283 H 0.94151 0.38277 0.59900
 H284 H 0.92270 0.33990 0.61694
 C285 C 0.12635 0.69909 -0.13022
 C286 C 0.11558 0.71962 -0.12175
 C287 C 0.10297 0.74428 -0.11168
 C288 C 0.08212 0.74290 -0.09205
 C289 C 0.07020 0.76691 -0.08197
 C290 C 0.07900 0.79262 -0.09142
 C291 C 0.09987 0.79376 -0.11128
 C292 C 0.11176 0.76974 -0.12132
 C293 C 0.06686 0.81818 -0.08028
 C294 C 0.06134 0.84055 -0.09761
 C295 C 0.05073 0.86490 -0.08694
 C296 C 0.04548 0.86722 -0.05885
 C297 C 0.05062 0.84501 -0.04149
 C298 C 0.06120 0.82064 -0.05211
 C299 C 0.03566 0.89265 -0.04767
 C300 C 0.02794 0.91404 -0.03809
 H301 H 0.07511 0.72329 -0.08450
 H302 H 0.05396 0.76535 -0.06693
 H303 H 0.10737 0.81323 -0.11868
 H304 H 0.12796 0.77104 -0.13644
 H305 H 0.06514 0.83918 -0.11943
 H306 H 0.04682 0.88197 -0.10056
 H307 H 0.04676 0.84664 -0.01968
 H308 H 0.06556 0.80394 -0.03819
 C309 C 0.62694 0.80161 1.13045
 C310 C 0.61616 0.78114 1.12191
 C311 C 0.60353 0.75656 1.11176
 C312 C 0.58375 0.75795 1.09098
 C313 C 0.57184 0.73400 1.08083
 C314 C 0.57956 0.70832 1.09138
 C315 C 0.59936 0.70718 1.11238
 C316 C 0.61125 0.73114 1.12248
 C317 C 0.56742 0.68279 1.08023
 C318 C 0.56050 0.66103 1.09778
 C319 C 0.54987 0.63670 1.08714
 C320 C 0.54599 0.63379 1.05887
 C321 C 0.55253 0.65540 1.04127
 C322 C 0.56314 0.67976 1.05186
 C323 C 0.53615 0.60834 1.04780
 C324 C 0.52842 0.58694 1.03831
 H325 H 0.57758 0.77753 1.08258
 H326 H 0.55643 0.73557 1.06489
 H327 H 0.60603 0.68772 1.12066
 H328 H 0.62661 0.72983 1.13851
 H329 H 0.56322 0.66287 1.11973
 H330 H 0.54488 0.62009 1.10095
 H331 H 0.54975 0.65330 1.01933
 H332 H 0.56860 0.69597 1.03778
 C333 C 0.36995 0.37506 1.30160
 C334 C 0.37877 0.38595 1.28128
 C335 C 0.38926 0.39869 1.25687
 C336 C 0.41689 0.39550 1.24977
 C337 C 0.42697 0.40732 1.22573
 C338 C 0.40952 0.42248 1.20843
 C339 C 0.38181 0.42573 1.21586
 C340 C 0.37178 0.41390 1.23993
 C341 C 0.42008 0.43439 1.18252
 C342 C 0.40425 0.43334 1.15838
 C343 C 0.41455 0.44375 1.13378
 C344 C 0.44074 0.45539 1.13297
 C345 C 0.45652 0.45681 1.15691
 C346 C 0.44628 0.44640 1.18154
 C347 C 0.45176 0.46504 1.10740
 C348 C 0.46119 0.47263 1.08588
 H349 H 0.43057 0.38366 1.26268
 H350 H 0.44829 0.40412 1.22040
 H351 H 0.36795 0.43755 1.20315
 H352 H 0.35037 0.41653 1.24525
 H353 H 0.38418 0.42390 1.15837
 H354 H 0.40222 0.44240 1.11533
 H355 H 0.47683 0.46578 1.15651
 H356 H 0.45880 0.44782 1.19983
 C357 C 0.63139 -0.12697 0.19685
 C358 C 0.62273 -0.11614 0.21728
 C359 C 0.61242 -0.10346 0.24182
 C360 C 0.62508 -0.10869 0.26705
 C361 C 0.61483 -0.09681 0.29100
 C362 C 0.59173 -0.07953 0.29003
 C363 C 0.57924 -0.07428 0.26453
 C364 C 0.58954 -0.08617 0.24059
 C365 C 0.58047 -0.06744 0.31559
 C366 C 0.55194 -0.06608 0.31980
 C367 C 0.54135 -0.05544 0.34419
 C368 C 0.55909 -0.04597 0.36466
 C369 C 0.58749 -0.04697 0.36057
 C370 C 0.59813 -0.05763 0.33620
 C371 C 0.54814 -0.03592 0.39012
 C372 C 0.53881 -0.02795 0.41155
 H373 H 0.64274 -0.12213 0.26824
 H374 H 0.62466 -0.10157 0.31034
 H375 H 0.56164 -0.06081 0.26307
 H376 H 0.57962 -0.08194 0.22116
 H377 H 0.53783 -0.07380 0.30450
 H378 H 0.51934 -0.05488 0.34720
 H379 H 0.60140 -0.03967 0.37628
 H380 H 0.62016 -0.05807 0.33343
 C381 C -0.13004 1.12579 -0.30200
 C382 C -0.12133 1.11504 -0.28152
 C383 C -0.11097 1.10243 -0.25693
 C384 C -0.08325 1.10508 -0.24991
 C385 C -0.07327 1.09335 -0.22574
 C386 C -0.09092 1.07882 -0.20821
 C387 C -0.11872 1.07612 -0.21555
 C388 C -0.12866 1.08786 -0.23975
 C389 C -0.08044 1.06695 -0.18219
 C390 C -0.09608 1.06864 -0.15802
 C391 C -0.08585 1.05823 -0.13334
 C392 C -0.05991 1.04596 -0.13247
 C393 C -0.04431 1.04391 -0.15644
 C394 C -0.05449 1.05432 -0.18114
 C395 C -0.04895 1.03626 -0.10684
 C396 C -0.03955 1.02861 -0.08529
 H397 H -0.06940 1.11641 -0.26301
 H398 H -0.05186 1.09612 -0.22048
 H399 H -0.13274 1.06478 -0.20266
 H400 H -0.15014 1.08564 -0.24501
 H401 H -0.11596 1.07857 -0.15807
 H402 H -0.09804 1.06006 -0.11488
 H403 H -0.02420 1.03444 -0.15600
 H404 H -0.04211 1.05239 -0.19945
 C405 C 1.13048 0.62720 0.80386
 C406 C 1.12169 0.61620 0.78356
 C407 C 1.11123 0.60330 0.75918
 C408 C 1.08391 0.60737 0.75131
 C409 C 1.07387 0.59534 0.72732
 C410 C 1.09107 0.57908 0.71084
 C411 C 1.11847 0.57499 0.71903
 C412 C 1.12846 0.58702 0.74305
 C413 C 1.08056 0.56687 0.68501
 C414 C 1.09688 0.56664 0.66124
 C415 C 1.08668 0.55589 0.63670
 C416 C 1.06010 0.54518 0.63560
 C417 C 1.04381 0.54504 0.65919
 C418 C 1.05395 0.55580 0.68374
 C419 C 1.04925 0.53509 0.61008
 C420 C 1.04000 0.52710 0.58860
 H421 H 1.07042 0.62002 0.76359
 H422 H 1.05280 0.59920 0.72139
 H423 H 1.13212 0.56232 0.70697
 H424 H 1.14964 0.58371 0.74898
 H425 H 1.11729 0.57533 0.66145
 H426 H 1.09941 0.55623 0.61852
 H427 H 1.02320 0.53680 0.65856
 H428 H 1.04103 0.55536 0.70176
 C429 C 0.69806 0.63247 0.62415
 C430 C 0.71858 0.62375 0.61348
 C431 C 0.74323 0.61334 0.60103
 C432 C 0.74211 0.59050 0.58379
 C433 C 0.76616 0.58004 0.57221
 C434 C 0.79167 0.59233 0.57772
 C435 C 0.79253 0.61542 0.59491
 C436 C 0.76846 0.62582 0.60649
 C437 C 0.81735 0.58084 0.56605
 C438 C 0.83820 0.59821 0.55640
 C439 C 0.86270 0.58735 0.54621
 C440 C 0.86668 0.55901 0.54550
 C441 C 0.84597 0.54156 0.55479
 C442 C 0.82146 0.55237 0.56497
 C443 C 0.89230 0.54783 0.53603
 C444 C 0.91385 0.53828 0.52859
 H445 H 0.72267 0.58071 0.57939
 H446 H 0.76479 0.56245 0.55879
 H447 H 0.81187 0.62511 0.59987
 H448 H 0.76957 0.64346 0.61989
 H449 H 0.83552 0.62019 0.55664
 H450 H 0.87860 0.60105 0.53906
 H451 H 0.84890 0.51959 0.55446
 H452 H 0.80597 0.53847 0.57257
 C453 C 0.80320 0.36974 1.12634
 C454 C 0.78282 0.37865 1.11547
 C455 C 0.75836 0.38918 1.10269
 C456 C 0.74190 0.37202 1.08667
 C457 C 0.71782 0.38208 1.07472
 C458 C 0.70988 0.40948 1.07865
 C459 C 0.72667 0.42661 1.09464
 C460 C 0.75073 0.41650 1.10659
 C461 C 0.68398 0.42005 1.06651
 C462 C 0.68282 0.44649 1.05516
 C463 C 0.65822 0.45669 1.04443
 C464 C 0.63449 0.44063 1.04489
 C465 C 0.63549 0.41423 1.05590
 C466 C 0.66006 0.40398 1.06662
 C467 C 0.60895 0.45155 1.03484
 C468 C 0.58746 0.46088 1.02687
 H469 H 0.74764 0.35084 1.08348
 H470 H 0.70551 0.36848 1.06225
 H471 H 0.72094 0.44768 1.09836
 H472 H 0.76326 0.42993 1.11904
 H473 H 0.70095 0.45922 1.05446
 H474 H 0.65768 0.47716 1.03595
 H475 H 0.61720 0.40168 1.05650
 H476 H 0.66020 0.38370 1.07553
 C477 C 0.30182 1.13044 -0.12571
 C478 C 0.28151 1.12171 -0.11473
 C479 C 0.25711 1.11136 -0.10184
 C480 C 0.25029 1.08369 -0.10429
 C481 C 0.22629 1.07371 -0.09228
 C482 C 0.20875 1.09133 -0.07766
 C483 C 0.21589 1.11909 -0.07517
 C484 C 0.23992 1.12901 -0.08718
 C485 C 0.18291 1.08086 -0.06549
 C486 C 0.15858 1.09633 -0.06707
 C487 C 0.13407 1.08612 -0.05636
 C488 C 0.13354 1.06036 -0.04389
 C489 C 0.15767 1.04493 -0.04196
 C490 C 0.18220 1.05509 -0.05267
 C491 C 0.10807 1.04942 -0.03387
 C492 C 0.08663 1.04007 -0.02596
 H493 H 0.26340 1.06986 -0.11569
 H494 H 0.22118 1.05233 -0.09489
 H495 H 0.20300 1.13308 -0.06377
 H496 H 0.24503 1.15047 -0.08512
 H497 H 0.15837 1.11607 -0.07714
 H498 H 0.11547 1.09817 -0.05811
 H499 H 0.15748 1.02496 -0.03234
 H500 H 0.20065 1.04285 -0.05083
 C501 C 0.19724 -0.13418 0.37539
 C502 C 0.21776 -0.12551 0.38612
 C503 C 0.24241 -0.11513 0.39861
 C504 C 0.24107 -0.09325 0.41705
 C505 C 0.26511 -0.08276 0.42866
 C506 C 0.29082 -0.09406 0.42197
 C507 C 0.29190 -0.11620 0.40356
 C508 C 0.26785 -0.12662 0.39196
 C509 C 0.31645 -0.08250 0.43368
 C510 C 0.33806 -0.09978 0.44194
 C511 C 0.36250 -0.08881 0.45214
 C512 C 0.36567 -0.06045 0.45424
 C513 C 0.34421 -0.04310 0.44635
 C514 C 0.31975 -0.05402 0.43616
 C515 C 0.39121 -0.04910 0.46371
 C516 C 0.41269 -0.03942 0.47116
 H517 H 0.22148 -0.08422 0.42237
 H518 H 0.26357 -0.06594 0.44301
 H519 H 0.31138 -0.12509 0.39769
 H520 H 0.26913 -0.14350 0.37763
 H521 H 0.33602 -0.12179 0.44060
 H522 H 0.37898 -0.10243 0.45821
 H523 H 0.34650 -0.02111 0.44775
 H524 H 0.30366 -0.04017 0.42963
 C525 C 0.62599 -0.30166 0.62955
 C526 C 0.61511 -0.28129 0.62079
 C527 C 0.60237 -0.25682 0.61038
 C528 C 0.60415 -0.25045 0.58248
 C529 C 0.59231 -0.22639 0.57243
 C530 C 0.57855 -0.20834 0.59020
 C531 C 0.57673 -0.21502 0.61819
 C532 C 0.58856 -0.23911 0.62819
 C533 C 0.56660 -0.18243 0.57963
 C534 C 0.56913 -0.15803 0.59471
 C535 C 0.55863 -0.13347 0.58437
 C536 C 0.54544 -0.13297 0.55888
 C537 C 0.54256 -0.15717 0.54385
 C538 C 0.55306 -0.18175 0.55414
 C539 C 0.53566 -0.10749 0.54776
 C540 C 0.52795 -0.08607 0.53823
 H541 H 0.61489 -0.26397 0.56853
 H542 H 0.59440 -0.22165 0.55086
 H543 H 0.56599 -0.20171 0.63232
 H544 H 0.58703 -0.24387 0.64982
 H545 H 0.57976 -0.15780 0.61421
 H546 H 0.56111 -0.11483 0.59611
 H547 H 0.53238 -0.15701 0.52409
 H548 H 0.55048 -0.20024 0.54221
 C549 C 1.12671 0.80051 0.37018
 C550 C 1.11595 0.78005 0.37873
 C551 C 1.10335 0.75547 0.38888
 C552 C 1.08434 0.75677 0.41031
 C553 C 1.07247 0.73281 0.42044
 C554 C 1.07947 0.70721 0.40924
 C555 C 1.09847 0.70616 0.38758
 C556 C 1.11033 0.73014 0.37750
 C557 C 1.06740 0.68166 0.42038
 C558 C 1.05958 0.66027 0.40274
 C559 C 1.04904 0.63590 0.41334
 C560 C 1.04615 0.63259 0.44168
 C561 C 1.05360 0.65384 0.45938
 C562 C 1.06413 0.67823 0.44883
 C563 C 1.03642 0.60709 0.45268
 C564 C 1.02879 0.58563 0.46211
 H565 H 1.07875 0.77628 0.41922
 H566 H 1.05767 0.73432 0.43689
 H567 H 1.10458 0.68676 0.37878
 H568 H 1.12509 0.72889 0.36097
 H569 H 1.06152 0.66242 0.38074
 H570 H 1.04333 0.61957 0.39945
 H571 H 1.05160 0.65144 0.48136
 H572 H 1.07030 0.69416 0.46296
 C573 C -0.12753 1.30294 0.13184
 C574 C -0.11730 1.28216 0.12330
 C575 C -0.10543 1.25719 0.11313
 C576 C -0.07690 1.25410 0.11186
 C577 C -0.06546 1.22976 0.10203
 C578 C -0.08244 1.20815 0.09340
 C579 C -0.11109 1.21150 0.09473
 C580 C -0.12248 1.23585 0.10452
 C581 C -0.07041 1.18225 0.08297
 C582 C -0.08204 1.15692 0.09011
 C583 C -0.07113 1.13256 0.07983
 C584 C -0.04845 1.13314 0.06230
 C585 C -0.03656 1.15819 0.05525
 C586 C -0.04743 1.18261 0.06554
 C587 C -0.03788 1.10803 0.05108
 C588 C -0.02956 1.08684 0.04156
 H589 H -0.06352 1.27047 0.11853
 H590 H -0.04334 1.22769 0.10155
 H591 H -0.12471 1.19542 0.08786
 H592 H -0.14459 1.23805 0.10534
 H593 H -0.09948 1.15594 0.10379
 H594 H -0.08047 1.11327 0.08544
 H595 H -0.01907 1.15888 0.04159
 H596 H -0.03822 1.20178 0.05942
 C597 C 0.37351 0.19836 0.86816
 C598 C 0.38408 0.21897 0.87661
 C599 C 0.39646 0.24372 0.88667
 C600 C 0.38701 0.26913 0.87741
 C601 C 0.39871 0.29323 0.88740
 C602 C 0.42006 0.29223 0.90685
 C603 C 0.42950 0.26657 0.91594
 C604 C 0.41777 0.24248 0.90590
 C605 C 0.43210 0.31787 0.91785
 C606 C 0.43845 0.32024 0.94590
 C607 C 0.44907 0.34464 0.95640
 C608 C 0.45355 0.36695 0.93902
 C609 C 0.44755 0.36472 0.91105
 C610 C 0.43691 0.34035 0.90051
 C611 C 0.46358 0.39234 0.95004
 C612 C 0.47157 0.41370 0.95942
 H613 H 0.37046 0.27033 0.86259
 H614 H 0.39073 0.31266 0.88029
 H615 H 0.44611 0.26512 0.93064
 H616 H 0.42528 0.22291 0.91316
 H617 H 0.43465 0.30344 0.95984
 H618 H 0.45351 0.34619 0.97811
 H619 H 0.45095 0.38186 0.89742
 H620 H 0.43257 0.33904 0.87878
 C621 C 0.63072 0.62754 0.69662
 C622 C 0.62212 0.61685 0.71713
 C623 C 0.61192 0.60431 0.74177
 C624 C 0.62302 0.61154 0.76722
 C625 C 0.61293 0.59969 0.79123
 C626 C 0.59153 0.58043 0.79011
 C627 C 0.58058 0.57321 0.76440
 C628 C 0.59074 0.58508 0.74040
 C629 C 0.58045 0.56828 0.81569
 C630 C 0.55201 0.56456 0.81896
 C631 C 0.54152 0.55387 0.84336
 C632 C 0.55927 0.54670 0.86477
 C633 C 0.58760 0.55006 0.86162
 C634 C 0.59814 0.56077 0.83725
 C635 C 0.54835 0.53665 0.89023
 C636 C 0.53907 0.52868 0.91167
 H637 H 0.63936 0.62648 0.76852
 H638 H 0.62152 0.60597 0.81072
 H639 H 0.56434 0.55822 0.76283
 H640 H 0.58204 0.57929 0.72079
 H641 H 0.53784 0.57047 0.80290
 H642 H 0.51955 0.55148 0.84563
 H643 H 0.60152 0.54457 0.87807
 H644 H 0.62013 0.56305 0.83523
 C645 C 0.36892 0.12527 0.80157
 C646 C 0.37767 0.11443 0.78118
 C647 C 0.38810 0.10176 0.75669
 C648 C 0.41594 0.10394 0.75013
 C649 C 0.42600 0.09220 0.72602
 C650 C 0.40830 0.07813 0.70812
 C651 C 0.38036 0.07588 0.71500
 C652 C 0.37035 0.08762 0.73914
 C653 C 0.41886 0.06631 0.68214
 C654 C 0.40352 0.06851 0.65776
 C655 C 0.41386 0.05817 0.63313
 C656 C 0.43959 0.04547 0.63252
 C657 C 0.45488 0.04290 0.65670
 C658 C 0.44460 0.05324 0.68136
 C659 C 0.45069 0.03586 0.60695
 C660 C 0.46019 0.02829 0.58545
 H661 H 0.42983 0.11493 0.76352
 H662 H 0.44751 0.09462 0.72112
 H663 H 0.36629 0.06490 0.70181
 H664 H 0.34877 0.08577 0.74405
 H665 H 0.38383 0.07878 0.65761
 H666 H 0.40193 0.06040 0.61450
 H667 H 0.47483 0.03310 0.65646
 H668 H 0.45673 0.05093 0.69983
 C669 C 0.13099 0.87177 0.30361
 C670 C 0.12232 0.88259 0.28314
 C671 C 0.11206 0.89526 0.25854
 C672 C 0.09051 0.91416 0.25991
 C673 C 0.08030 0.92615 0.23595
 C674 C 0.09154 0.91938 0.21027
 C675 C 0.11331 0.90047 0.20915
 C676 C 0.12346 0.88849 0.23313
 C677 C 0.08039 0.93165 0.18472
 C678 C 0.09806 0.93968 0.16341
 C679 C 0.08747 0.95051 0.13907
 C680 C 0.05910 0.95348 0.13569
 C681 C 0.04137 0.94580 0.15684
 C682 C 0.05191 0.93498 0.18121
 C683 C 0.04813 0.96366 0.11024
 C684 C 0.03880 0.97173 0.08882
 H685 H 0.08157 0.91959 0.27949
 H686 H 0.06376 0.94088 0.23751
 H687 H 0.12214 0.89454 0.18969
 H688 H 0.14009 0.87382 0.23183
 H689 H 0.12009 0.93770 0.16563
 H690 H 0.10139 0.95641 0.12282
 H691 H 0.01936 0.94787 0.15438
 H692 H 0.03776 0.92866 0.19706
 C693 C 0.86972 0.37472 0.19797
 C694 C 0.87867 0.38545 0.21835
 C695 C 0.88929 0.39801 0.24284
 C696 C 0.87211 0.41385 0.25945
 C697 C 0.88226 0.42552 0.28359
 C698 C 0.90978 0.42148 0.29141
 C699 C 0.92693 0.40568 0.27445
 C700 C 0.91673 0.39402 0.25034
 C701 C 0.92046 0.43328 0.31737
 C702 C 0.94699 0.44452 0.31858
 C703 C 0.95732 0.45486 0.34324
 C704 C 0.94128 0.45412 0.36700
 C705 C 0.91477 0.44324 0.36595
 C706 C 0.90439 0.43291 0.34131
 C707 C 0.95235 0.46371 0.39261
 C708 C 0.96182 0.47124 0.41417
 H709 H 0.85084 0.41711 0.25381
 H710 H 0.86865 0.43784 0.29603
 H711 H 0.94809 0.40187 0.28009
 H712 H 0.93018 0.38170 0.23769
 H713 H 0.95972 0.44542 0.30044
 H714 H 0.97787 0.46324 0.34382
 H715 H 0.90224 0.44243 0.38425
 H716 H 0.88404 0.42407 0.34114
   
