data_POSCAR
  _audit_creation_date              2014-09-24
  _audit_creation_method            'ToBaCCo'
  _symmetry_space_group_name_H-M    'P1'
  _symmetry_Int_Tables_number       1
  _symmetry_cell_setting            triclinic
  loop_
  _symmetry_equiv_pos_as_xyz
 x,y,z
_cell_length_a 24.3312
_cell_length_b 24.8065
_cell_length_c 60.1964
_cell_angle_alpha 91.239900
_cell_angle_beta 95.005500
_cell_angle_gamma 117.999500
loop_
  _atom_site_label
  _atom_site_type_symbol
  _atom_site_fract_x
  _atom_site_fract_y
  _atom_site_fract_z
C1 C 0.02340 0.07933 0.51558
 C2 C -0.03533 0.03110 0.50073
 C3 C -0.02319 -0.00515 0.48656
 C4 C 0.04651 0.01089 0.48851
 C5 C 0.05025 0.04127 0.52733
 C6 C 0.06158 0.00477 0.51336
 C7 C 0.06943 0.11464 0.49912
 C8 C 0.08149 0.07959 0.48486
 H9 H -0.08258 0.02155 0.50289
 H10 H 0.05824 -0.01674 0.47699
 H11 H 0.04846 0.03478 0.54506
 H12 H 0.08946 0.16382 0.49842
 C13 C 0.96292 -0.13149 0.18561
 C14 C 1.00833 -0.14281 0.17217
 C15 C 1.04736 -0.09270 0.16156
 C16 C 1.03674 -0.03660 0.16533
 C17 C 1.00296 -0.07778 0.20039
 C18 C 1.04490 -0.02567 0.18966
 C19 C 0.92872 -0.11052 0.16826
 C20 C 0.96666 -0.06112 0.15767
 H21 H 1.01054 -0.18527 0.17130
 H22 H 1.06657 0.00294 0.15607
 H23 H 1.00116 -0.07791 0.21830
 H24 H 0.87846 -0.13529 0.16375
 C25 C 0.03701 1.05422 0.85059
 C26 C 0.04433 1.10853 0.83671
 C27 C -0.00643 1.09534 0.82147
 C28 C -0.05935 1.02903 0.82149
 C29 C -0.02418 1.03564 0.86091
 C30 C -0.07433 1.02257 0.84585
 C31 C 0.02206 1.00229 0.83312
 C32 C -0.02780 0.98905 0.81802
 H33 H 0.08325 1.15414 0.83969
 H34 H -0.10085 1.01621 0.80916
 H35 H -0.02629 1.03833 0.87879
 H36 H 0.05069 0.97967 0.83218
 O37 O 0.53393 -0.06983 0.02039
 O38 O 0.41283 -0.05688 -0.01689
 O39 O 0.51197 -0.06771 -0.02228
 O40 O 0.42807 -0.07021 0.02546
 O41 O 0.48049 0.03044 0.03042
 O42 O 0.56667 0.03294 -0.01780
 O43 O 0.46726 0.04376 -0.01223
 O44 O 0.58711 0.03079 0.02542
 Cu45 Cu 0.46635 -0.07608 0.00128
 Cu46 Cu 0.53084 0.04453 0.00702
 C47 C 0.58176 -0.02155 0.02906
 C48 C 0.41957 -0.00414 -0.02101
 C49 C 0.55372 -0.01753 -0.02825
 C50 C 0.43874 -0.02082 0.03594
 O51 O 0.02937 0.50004 0.64608
 O52 O 0.02318 0.61312 0.68581
 O53 O 0.03619 0.51436 0.68939
 O54 O 0.03340 0.60622 0.64336
 O55 O -0.06987 0.55783 0.63908
 O56 O -0.06670 0.45959 0.68446
 O57 O -0.07986 0.55824 0.68218
 O58 O -0.07391 0.45153 0.64108
 Cu59 Cu 0.04064 0.56347 0.66667
 Cu60 Cu -0.08275 0.50199 0.66135
 C61 C -0.02184 0.45659 0.63665
 C62 C -0.03014 0.60412 0.69084
 C63 C -0.01389 0.47044 0.69458
 C64 C -0.01797 0.59840 0.63330
 O65 O 0.48521 0.40798 0.31455
 O66 O 0.58295 0.52484 0.36034
 O67 O 0.48278 0.41635 0.35755
 O68 O 0.58985 0.50951 0.31795
 O69 O 0.53460 0.55833 0.31194
 O70 O 0.42483 0.46199 0.35061
 O71 O 0.52448 0.57028 0.35423
 O72 O 0.43073 0.45734 0.30780
 Cu73 Cu 0.54081 0.45996 0.33840
 Cu74 Cu 0.47314 0.51685 0.33069
 C75 C 0.44165 0.41341 0.30319
 C76 C 0.57070 0.56820 0.36487
 C77 C 0.43459 0.42186 0.36043
 C78 C 0.58052 0.54960 0.30807
 C79 C 0.07063 0.16252 0.54667
 C80 C 0.06988 0.20689 0.56100
 C81 C 0.01621 0.21375 0.56097
 C82 C -0.03755 0.17492 0.54650
 C83 C -0.03695 0.13017 0.53204
 C84 C 0.01737 0.12339 0.53195
 N85 N 0.01844 0.26133 0.57549
 N86 N -0.02828 0.27078 0.57668
 C87 C -0.02477 0.31890 0.59128
 C88 C -0.07918 0.32348 0.59332
 C89 C -0.07789 0.36873 0.60786
 C90 C -0.02176 0.41070 0.62057
 C91 C 0.03323 0.40684 0.61818
 C92 C 0.03174 0.36114 0.60371
 H93 H 0.11356 0.15935 0.54677
 H94 H 0.11163 0.23668 0.57200
 H95 H -0.07959 0.17974 0.54613
 H96 H -0.07847 0.10246 0.52072
 H97 H -0.12290 0.29138 0.58379
 H98 H -0.12105 0.37061 0.60923
 H99 H 0.07709 0.43842 0.62775
 H100 H 0.07457 0.35867 0.60233
 C101 C 0.91836 0.76248 0.20225
 C102 C 0.87607 0.71953 0.21544
 C103 C 0.83164 0.73087 0.22501
 C104 C 0.82979 0.78558 0.22120
 C105 C 0.87185 0.82830 0.20834
 C106 C 0.91669 0.81764 0.19854
 N107 N 0.78997 0.68789 0.23909
 N108 N 0.74715 0.69646 0.24661
 C109 C 0.70514 0.65744 0.26139
 C110 C 0.65790 0.67003 0.26740
 C111 C 0.61716 0.63481 0.28246
 C112 C 0.62335 0.58640 0.29192
 C113 C 0.67079 0.57360 0.28577
 C114 C 0.71138 0.60881 0.27057
 H115 H 0.95260 0.75261 0.19552
 H116 H 0.87832 0.67767 0.21839
 H117 H 0.79649 0.79604 0.22851
 H118 H 0.86992 0.87067 0.20623
 H119 H 0.65295 0.70765 0.26047
 H120 H 0.58120 0.64588 0.28683
 H121 H 0.67661 0.53647 0.29273
 H122 H 0.74785 0.59853 0.26620
 C123 C 0.14950 0.11346 -0.12917
 C124 C 0.19738 0.11445 -0.11409
 C125 C 0.18682 0.06362 -0.10190
 C126 C 0.12718 0.01236 -0.10440
 C127 C 0.07955 0.01140 -0.11924
 C128 C 0.08989 0.06146 -0.13206
 N129 N 0.23720 0.06372 -0.08759
 N130 N 0.23073 0.01510 -0.07883
 C131 C 0.27901 0.01196 -0.06446
 C132 C 0.26843 -0.04506 -0.05731
 C133 C 0.31420 -0.05044 -0.04331
 C134 C 0.37139 0.00152 -0.03605
 C135 C 0.38186 0.05892 -0.04321
 C136 C 0.33610 0.06411 -0.05738
 H137 H 0.16022 0.15278 -0.13876
 H138 H 0.24324 0.15430 -0.11231
 H139 H 0.11747 -0.02748 -0.09513
 H140 H 0.03446 -0.02950 -0.12114
 H141 H 0.22450 -0.08554 -0.06268
 H142 H 0.30460 -0.09521 -0.03806
 H143 H 0.42550 0.09979 -0.03792
 H144 H 0.34519 0.10868 -0.06269
 C145 C 0.11221 0.94506 0.52971
 C146 C 0.10746 0.89497 0.54134
 C147 C 0.04863 0.84785 0.54521
 C148 C -0.00569 0.84972 0.53630
 C149 C -0.00096 0.89951 0.52471
 C150 C 0.05796 0.94797 0.52167
 N151 N 0.04534 0.80171 0.55975
 N152 N -0.00639 0.76140 0.56568
 C153 C -0.00924 0.71777 0.58137
 C154 C -0.06734 0.67612 0.58793
 C155 C -0.07090 0.63623 0.60455
 C156 C -0.01609 0.63771 0.61489
 C157 C 0.04195 0.67867 0.60783
 C158 C 0.04537 0.71824 0.59128
 H159 H 0.15799 0.98260 0.52783
 H160 H 0.14969 0.89419 0.54821
 H161 H -0.05166 0.81405 0.53908
 H162 H -0.04332 0.90170 0.51907
 H163 H -0.10981 0.67546 0.58046
 H164 H -0.11624 0.60518 0.60958
 H165 H 0.08511 0.68082 0.61532
 H166 H 0.09084 0.74996 0.58654
 C167 C 0.11867 0.01923 0.22350
 C168 C 0.16929 0.06833 0.23565
 C169 C 0.19775 0.12544 0.22695
 C170 C 0.17593 0.13300 0.20547
 C171 C 0.12579 0.08319 0.19289
 C172 C 0.09561 0.02550 0.20186
 N173 N 0.24775 0.17458 0.24072
 N174 N 0.26890 0.23060 0.23680
 C175 C 0.31751 0.27744 0.25190
 C176 C 0.32603 0.33721 0.25171
 C177 C 0.36754 0.38193 0.26813
 C178 C 0.40216 0.36771 0.28473
 C179 C 0.39606 0.30855 0.28416
 C180 C 0.35368 0.26360 0.26800
 H181 H 0.09989 -0.02423 0.23097
 H182 H 0.18620 0.06197 0.25212
 H183 H 0.19751 0.17714 0.19845
 H184 H 0.10951 0.09098 0.17659
 H185 H 0.29852 0.34847 0.23941
 H186 H 0.37178 0.42739 0.26808
 H187 H 0.42218 0.29637 0.29672
 H188 H 0.34823 0.21774 0.26837
 C189 C 0.85522 0.06593 -0.14646
 C190 C 0.80769 0.06507 -0.13475
 C191 C 0.77158 0.01423 -0.12310
 C192 C 0.78147 -0.03726 -0.12423
 C193 C 0.82933 -0.03617 -0.13578
 C194 C 0.86712 0.01582 -0.14662
 N195 N 0.72990 0.01819 -0.10852
 N196 N 0.69483 -0.02728 -0.09805
 C197 C 0.65662 -0.02340 -0.08197
 C198 C 0.61457 -0.07726 -0.07323
 C199 C 0.58023 -0.07522 -0.05616
 C200 C 0.58791 -0.01888 -0.04726
 C201 C 0.62952 0.03531 -0.05629
 C202 C 0.66351 0.03308 -0.07361
 H203 H 0.88536 0.10722 -0.15408
 H204 H 0.80098 0.10520 -0.13384
 H205 H 0.75448 -0.07701 -0.11527
 H206 H 0.83885 -0.07467 -0.13539
 H207 H 0.60922 -0.12096 -0.07944
 H208 H 0.54869 -0.11783 -0.04958
 H209 H 0.63634 0.07934 -0.04982
 H210 H 0.69624 0.07542 -0.08001
 C211 C 0.08694 -0.14316 0.13516
 C212 C 0.13201 -0.13993 0.12154
 C213 C 0.18698 -0.08483 0.12057
 C214 C 0.19729 -0.03309 0.13388
 C215 C 0.15249 -0.03632 0.14759
 C216 C 0.09636 -0.09110 0.14812
 N217 N 0.23046 -0.08227 0.10548
 N218 N 0.27879 -0.03267 0.10234
 C219 C 0.32093 -0.03064 0.08674
 C220 C 0.36989 0.02599 0.08232
 C221 C 0.40936 0.02954 0.06616
 C222 C 0.40052 -0.02380 0.05423
 C223 C 0.35232 -0.08070 0.05919
 C224 C 0.31288 -0.08410 0.07522
 H225 H 0.04406 -0.18587 0.13505
 H226 H 0.12350 -0.18014 0.11134
 H227 H 0.23967 0.00988 0.13359
 H228 H 0.16202 0.00420 0.15779
 H229 H 0.37665 0.06758 0.09110
 H230 H 0.44601 0.07401 0.06274
 H231 H 0.34415 -0.12274 0.05036
 H232 H 0.27558 -0.12848 0.07836
 C233 C 0.93664 0.88859 0.46910
 C234 C 0.89094 0.83652 0.45648
 C235 C 0.83480 0.83395 0.44755
 C236 C 0.82449 0.88441 0.45153
 C237 C 0.87039 0.93684 0.46425
 C238 C 0.92725 0.93965 0.47310
 N239 N 0.79016 0.78003 0.43419
 N240 N 0.73748 0.77312 0.42550
 C241 C 0.69449 0.71929 0.41168
 C242 C 0.63833 0.71535 0.40193
 C243 C 0.59723 0.66533 0.38724
 C244 C 0.61160 0.61807 0.38205
 C245 C 0.66723 0.62123 0.39238
 C246 C 0.70838 0.67141 0.40705
 H247 H 0.97885 0.88798 0.47599
 H248 H 0.89934 0.79789 0.45361
 H249 H 0.78140 0.88352 0.44470
 H250 H 0.86176 0.97541 0.46684
 H251 H 0.62699 0.75181 0.40536
 H252 H 0.55476 0.66437 0.37961
 H253 H 0.67973 0.58571 0.38872
 H254 H 0.75148 0.67327 0.41442
 C255 C -0.07207 0.13491 0.80027
 C256 C -0.07858 0.17647 0.78645
 C257 C -0.02599 0.22527 0.77937
 C258 C 0.03385 0.23237 0.78642
 C259 C 0.04050 0.19056 0.80022
 C260 C -0.01249 0.14106 0.80726
 N261 N -0.03487 0.26595 0.76470
 N262 N 0.01093 0.31327 0.75858
 C263 C 0.00247 0.35326 0.74346
 C264 C 0.05538 0.40523 0.73823
 C265 C 0.04964 0.44391 0.72278
 C266 C -0.00946 0.43119 0.71213
 C267 C -0.06289 0.37950 0.71772
 C268 C -0.05701 0.34078 0.73330
 H269 H -0.11407 0.09838 0.80556
 H270 H -0.12491 0.17057 0.78120
 H271 H 0.07533 0.26966 0.78105
 H272 H 0.08700 0.19639 0.80496
 H273 H 0.10140 0.41535 0.74594
 H274 H 0.09183 0.48330 0.71891
 H275 H -0.10899 0.36841 0.70980
 H276 H -0.09869 0.30074 0.73709
 C277 C 0.94884 0.01888 0.13847
 C278 C 0.91239 0.03311 0.12272
 C279 C 0.86789 -0.01227 0.10694
 C280 C 0.86370 -0.07074 0.10600
 C281 C 0.89979 -0.08484 0.12162
 C282 C 0.94079 -0.04094 0.13850
 N283 N 0.82394 -0.00025 0.09334
 N284 N 0.77656 -0.04388 0.08205
 C285 C 0.72927 -0.03626 0.06878
 C286 C 0.67792 -0.08842 0.05808
 C287 C 0.62968 -0.08374 0.04541
 C288 C 0.63210 -0.02643 0.04312
 C289 C 0.68391 0.02609 0.05388
 C290 C 0.73211 0.02123 0.06668
 H291 H 0.98014 0.05324 0.15144
 H292 H 0.91638 0.07847 0.12357
 H293 H 0.83053 -0.10644 0.09380
 H294 H 0.89341 -0.13113 0.12124
 H295 H 0.67518 -0.13300 0.05967
 H296 H 0.59070 -0.12502 0.03729
 H297 H 0.68723 0.07092 0.05241
 H298 H 0.77134 0.06215 0.07488
 C299 C 0.16857 0.09296 0.46224
 C300 C 0.21105 0.12625 0.44714
 C301 C 0.20570 0.17317 0.43614
 C302 C 0.15546 0.18432 0.43956
 C303 C 0.11345 0.15146 0.45459
 C304 C 0.12063 0.10676 0.46656
 N305 N 0.25301 0.21105 0.42254
 N306 N 0.25154 0.25677 0.41382
 C307 C 0.29827 0.29734 0.40067
 C308 C 0.29097 0.34519 0.39145
 C309 C 0.33560 0.38620 0.37863
 C310 C 0.38870 0.38013 0.37487
 C311 C 0.39621 0.33224 0.38434
 C312 C 0.35135 0.29112 0.39712
 H313 H 0.17497 0.05872 0.47131
 H314 H 0.24937 0.11693 0.44458
 H315 H 0.14958 0.21966 0.43112
 H316 H 0.07611 0.16215 0.45733
 H317 H 0.25034 0.35057 0.39416
 H318 H 0.32830 0.42242 0.37157
 H319 H 0.43647 0.32615 0.38169
 H320 H 0.35811 0.25462 0.40418
 C321 C -0.03211 0.96254 0.77759
 C322 C -0.03321 0.92191 0.76081
 C323 C -0.04770 0.86179 0.76537
 C324 C -0.06381 0.84189 0.78669
 C325 C -0.06156 0.88269 0.80352
 C326 C -0.04448 0.94352 0.79919
 N327 N -0.04120 0.82321 0.74887
 N328 N -0.06161 0.76631 0.75113
 C329 C -0.05252 0.72717 0.73576
 C330 C -0.09178 0.66407 0.73524
 C331 C -0.08404 0.62424 0.72067
 C332 C -0.03550 0.64682 0.70683
 C333 C 0.00511 0.71008 0.70775
 C334 C -0.00379 0.75019 0.72195
 H335 H -0.01768 1.00972 0.77413
 H336 H -0.02058 0.93787 0.74448
 H337 H -0.07493 0.79579 0.79069
 H338 H -0.07031 0.86766 0.82022
 H339 H -0.12902 0.64580 0.74597
 H340 H -0.11582 0.57561 0.72031
 H341 H 0.04261 0.72848 0.69713
 H342 H 0.02764 0.79887 0.72236
   
