data_POSCAR
  _audit_creation_date              2014-09-24
  _audit_creation_method            'ToBaCCo'
  _symmetry_space_group_name_H-M    'P1'
  _symmetry_Int_Tables_number       1
  _symmetry_cell_setting            triclinic
  loop_
  _symmetry_equiv_pos_as_xyz
 x,y,z
_cell_length_a 45.9257
_cell_length_b 46.1750
_cell_length_c 15.6676
_cell_angle_alpha 90.095900
_cell_angle_beta 90.391200
_cell_angle_gamma 119.701100
loop_
  _atom_site_label
  _atom_site_type_symbol
  _atom_site_fract_x
  _atom_site_fract_y
  _atom_site_fract_z
C1 C 0.22350 0.49047 0.53722
 C2 C 0.22744 0.50316 0.45683
 C3 C 0.20213 0.51110 0.42153
 C4 C 0.25524 0.50744 0.40054
 C5 C 0.25226 0.49284 0.58710
 C6 C 0.19083 0.47795 0.58091
 C7 C 0.18016 0.49116 0.35697
 C8 C 0.15138 0.49305 0.33808
 C9 C 0.14433 0.51564 0.38251
 C10 C 0.16844 0.53781 0.44138
 C11 C 0.19678 0.53526 0.46146
 C12 C 0.26450 0.48270 0.39641
 C13 C 0.28975 0.48602 0.34147
 C14 C 0.30593 0.51395 0.28783
 C15 C 0.29664 0.53868 0.29205
 C16 C 0.27139 0.53536 0.34737
 C17 C 0.28248 0.52324 0.59164
 C18 C 0.30893 0.52644 0.64267
 C19 C 0.30594 0.49930 0.68977
 C20 C 0.27570 0.46873 0.68523
 C21 C 0.24898 0.46565 0.63474
 C22 C 0.18877 0.49389 0.65496
 C23 C 0.15760 0.48827 0.68314
 C24 C 0.12826 0.46698 0.63690
 C25 C 0.13012 0.44932 0.56654
 C26 C 0.16113 0.45400 0.54030
 H27 H 0.18415 0.47260 0.32501
 H28 H 0.13523 0.47674 0.28819
 H29 H 0.16460 0.55608 0.47550
 H30 H 0.21373 0.55103 0.51129
 H31 H 0.25198 0.46055 0.43536
 H32 H 0.29666 0.46681 0.34262
 H33 H 0.26460 0.55472 0.34900
 H34 H 0.28534 0.54480 0.55714
 H35 H 0.33181 0.55033 0.64574
 H36 H 0.27227 0.44754 0.72234
 H37 H 0.22569 0.44213 0.63308
 H38 H 0.21134 0.51244 0.68710
 H39 H 0.15662 0.50231 0.73744
 H40 H 0.10774 0.43273 0.53045
 H41 H 0.16225 0.44100 0.48394
 H42 H 0.30888 0.56058 0.25215
 C43 C 0.55229 -0.22670 0.55797
 C44 C 0.55640 -0.22423 0.47141
 C45 C 0.55225 -0.25235 0.41657
 C46 C 0.56048 -0.19411 0.42587
 C47 C 0.55183 -0.19931 0.60664
 C48 C 0.54580 -0.25668 0.60859
 C49 C 0.57584 -0.24649 0.35275
 C50 C 0.57100 -0.27184 0.29574
 C51 C 0.54267 -0.30361 0.30196
 C52 C 0.51887 -0.30944 0.36549
 C53 C 0.52347 -0.28394 0.42168
 C54 C 0.58576 -0.16183 0.44927
 C55 C 0.58465 -0.13383 0.41947
 C56 C 0.55923 -0.13763 0.36274
 C57 C 0.53538 -0.16982 0.33481
 C58 C 0.53600 -0.19776 0.36616
 C59 C 0.52659 -0.19118 0.59144
 C60 C 0.52737 -0.16414 0.63335
 C61 C 0.55325 -0.14502 0.69203
 C62 C 0.57762 -0.15416 0.70972
 C63 C 0.57697 -0.18108 0.66722
 C64 C 0.52212 -0.26722 0.67433
 C65 C 0.51631 -0.29399 0.72599
 C66 C 0.53312 -0.31197 0.71206
 C67 C 0.55686 -0.30166 0.64578
 C68 C 0.56357 -0.27387 0.59578
 H69 H 0.59785 -0.22210 0.34651
 H70 H 0.58941 -0.26662 0.24660
 H71 H 0.49611 -0.33330 0.37000
 H72 H 0.50422 -0.28867 0.46793
 H73 H 0.60517 -0.15845 0.49441
 H74 H 0.60333 -0.10925 0.44149
 H75 H 0.51618 -0.22234 0.34754
 H76 H 0.50654 -0.20561 0.54632
 H77 H 0.50734 -0.15878 0.62079
 H78 H 0.59740 -0.14020 0.75592
 H79 H 0.59637 -0.18736 0.68032
 H80 H 0.50795 -0.25463 0.68623
 H81 H 0.49796 -0.30104 0.77630
 H82 H 0.57126 -0.31398 0.63408
 H83 H 0.58287 -0.26566 0.54780
 H84 H 0.51519 -0.17353 0.29199
 C85 C 1.25633 0.73647 0.55233
 C86 C 1.25938 0.73743 0.46593
 C87 C 1.28929 0.76394 0.42227
 C88 C 1.23365 0.71111 0.40992
 C89 C 1.22876 0.70748 0.59659
 C90 C 1.28129 0.76352 0.60830
 C91 C 1.28525 0.78308 0.35898
 C92 C 1.31258 0.80581 0.31099
 C93 C 1.34477 0.80961 0.32452
 C94 C 1.34850 0.79019 0.38836
 C95 C 1.32114 0.76776 0.43695
 C96 C 1.20047 0.70487 0.40831
 C97 C 1.17688 0.68086 0.35252
 C98 C 1.18619 0.66273 0.29748
 C99 C 1.21931 0.66885 0.30017
 C100 C 1.24290 0.69306 0.35508
 C101 C 1.22448 0.67539 0.58727
 C102 C 1.20052 0.64890 0.63542
 C103 C 1.18020 0.65379 0.69414
 C104 C 1.18462 0.68623 0.70268
 C105 C 1.20871 0.71264 0.65473
 C106 C 1.29710 0.75558 0.67349
 C107 C 1.31936 0.78012 0.72973
 C108 C 1.32621 0.81331 0.72320
 C109 C 1.31008 0.82124 0.65758
 C110 C 1.28789 0.79651 0.60071
 H111 H 1.26068 0.77999 0.34581
 H112 H 1.30763 0.81923 0.26196
 H113 H 1.37270 0.79222 0.40064
 H114 H 1.32461 0.75265 0.48433
 H115 H 1.19294 0.71872 0.44986
 H116 H 1.15134 0.67614 0.35389
 H117 H 1.26840 0.69756 0.35537
 H118 H 1.24027 0.67101 0.54424
 H119 H 1.19807 0.62449 0.62698
 H120 H 1.17038 0.69202 0.74713
 H121 H 1.21202 0.73737 0.66373
 H122 H 1.29222 0.73023 0.68076
 H123 H 1.33123 0.77294 0.77891
 H124 H 1.31447 0.84627 0.64877
 H125 H 1.27550 0.80301 0.55144
 H126 H 1.22701 0.65499 0.25916
 C127 C 0.73983 0.52226 0.55545
 C128 C 0.73635 0.51108 0.47320
 C129 C 0.76294 0.50817 0.42680
 C130 C 0.70436 0.49900 0.42565
 C131 C 0.71428 0.52955 0.59350
 C132 C 0.76699 0.52444 0.61294
 C133 C 0.79533 0.53559 0.41743
 C134 C 0.81883 0.53306 0.36570
 C135 C 0.81015 0.50296 0.32274
 C136 C 0.77805 0.47549 0.33447
 C137 C 0.75469 0.47810 0.38527
 C138 C 0.70389 0.51396 0.34832
 C139 C 0.67403 0.50218 0.30218
 C140 C 0.64435 0.47480 0.33193
 C141 C 0.64509 0.45911 0.40777
 C142 C 0.67486 0.47134 0.45487
 C143 C 0.70096 0.51713 0.67426
 C144 C 0.67570 0.52214 0.70819
 C145 C 0.66247 0.53914 0.66108
 C146 C 0.67632 0.55202 0.58087
 C147 C 0.70250 0.54813 0.54866
 C148 C 0.77526 0.49894 0.61345
 C149 C 0.79912 0.49984 0.67059
 C150 C 0.81448 0.52564 0.73185
 C151 C 0.80509 0.55037 0.73377
 C152 C 0.78215 0.55013 0.67404
 H153 H 0.80211 0.55910 0.44845
 H154 H 0.84354 0.55459 0.35982
 H155 H 0.77074 0.45193 0.30297
 H156 H 0.72991 0.45658 0.39164
 H157 H 0.72660 0.53493 0.32427
 H158 H 0.67420 0.51423 0.24280
 H159 H 0.67505 0.45911 0.51363
 H160 H 0.70942 0.50264 0.71026
 H161 H 0.66546 0.51073 0.76895
 H162 H 0.66700 0.56537 0.54294
 H163 H 0.71305 0.55900 0.48751
 H164 H 0.76253 0.47760 0.57131
 H165 H 0.80385 0.47912 0.66918
 H166 H 0.81602 0.57035 0.78054
 H167 H 0.77577 0.56978 0.67650
 H168 H 0.62250 0.43783 0.43127
 C169 C 0.51656 0.25741 0.49542
 C170 C 0.50689 0.25246 0.41191
 C171 C 0.50113 0.27696 0.36400
 C172 C 0.50437 0.22331 0.36566
 C173 C 0.52179 0.23268 0.54274
 C174 C 0.51942 0.28573 0.54675
 C175 C 0.46983 0.26740 0.32601
 C176 C 0.46297 0.29148 0.29186
 C177 C 0.48744 0.32546 0.29521
 C178 C 0.51920 0.33464 0.32942
 C179 C 0.52613 0.31064 0.36246
 C180 C 0.47392 0.19312 0.36150
 C181 C 0.47307 0.16411 0.33135
 C182 C 0.50284 0.16492 0.30643
 C183 C 0.53307 0.19535 0.30917
 C184 C 0.53378 0.22434 0.33768
 C185 C 0.49487 0.20687 0.58545
 C186 C 0.49972 0.18474 0.63596
 C187 C 0.53197 0.18820 0.64531
 C188 C 0.55879 0.21412 0.60100
 C189 C 0.55371 0.23602 0.54983
 C190 C 0.54921 0.30647 0.59135
 C191 C 0.55148 0.33170 0.64487
 C192 C 0.52402 0.33690 0.65532
 C193 C 0.49414 0.31614 0.60923
 C194 C 0.49192 0.29076 0.55611
 H195 H 0.45015 0.24158 0.32656
 H196 H 0.43811 0.28360 0.26689
 H197 H 0.53855 0.36063 0.33237
 H198 H 0.55061 0.31853 0.39021
 H199 H 0.45116 0.19171 0.38519
 H200 H 0.44951 0.14087 0.33169
 H201 H 0.55757 0.24732 0.34204
 H202 H 0.47013 0.20426 0.58085
 H203 H 0.47808 0.16596 0.66904
 H204 H 0.58388 0.21762 0.60622
 H205 H 0.57477 0.25593 0.51695
 H206 H 0.57078 0.30307 0.58519
 H207 H 0.57486 0.34704 0.67881
 H208 H 0.47193 0.31837 0.61472
 H209 H 0.46846 0.27456 0.52354
 H210 H 0.55633 0.19654 0.29078
 C211 C 0.75915 0.23318 0.54224
 C212 C 0.76456 0.23883 0.45684
 C213 C 0.73889 0.21742 0.39282
 C214 C 0.79530 0.26705 0.42131
 C215 C 0.78264 0.25659 0.60822
 C216 C 0.72761 0.20426 0.57323
 C217 C 0.72873 0.18349 0.38456
 C218 C 0.70315 0.16341 0.32716
 C219 C 0.68721 0.17701 0.27726
 C220 C 0.69860 0.21130 0.28310
 C221 C 0.72421 0.23133 0.34035
 C222 C 0.81479 0.26019 0.36528
 C223 C 0.84230 0.28605 0.32492
 C224 C 0.85094 0.31934 0.33967
 C225 C 0.83169 0.32632 0.39709
 C226 C 0.80395 0.30029 0.43730
 C227 C 0.76967 0.26693 0.67508
 C228 C 0.79103 0.29119 0.73328
 C229 C 0.82602 0.30655 0.72500
 C230 C 0.83907 0.29481 0.66078
 C231 C 0.81751 0.26958 0.60429
 C232 C 0.69643 0.20182 0.55625
 C233 C 0.66684 0.17372 0.58173
 C234 C 0.66778 0.14773 0.62591
 C235 C 0.69917 0.15043 0.64361
 C236 C 0.72879 0.17858 0.61790
 H237 H 0.74041 0.17256 0.42317
 H238 H 0.69614 0.13740 0.32207
 H239 H 0.68710 0.22248 0.24475
 H240 H 0.73200 0.25759 0.34540
 H241 H 0.80829 0.23466 0.35165
 H242 H 0.85644 0.27998 0.28035
 H243 H 0.78872 0.30597 0.47905
 H244 H 0.74291 0.25703 0.68077
 H245 H 0.77999 0.29906 0.78269
 H246 H 0.86572 0.30452 0.65411
 H247 H 0.82818 0.26082 0.55623
 H248 H 0.69505 0.22156 0.52248
 H249 H 0.64309 0.17238 0.56735
 H250 H 0.70109 0.13075 0.67575
 H251 H 0.75266 0.18004 0.63116
 H252 H 0.83694 0.35159 0.40818
 O253 O 0.96205 0.52481 -0.14653
 O254 O 1.02459 0.56528 0.09454
 O255 O 0.92225 0.49405 0.09144
 O256 O 1.05934 0.54011 -0.06271
 O257 O 0.96474 0.54258 0.10695
 O258 O 1.02454 0.55426 -0.11538
 O259 O 1.05832 0.54629 0.08755
 O260 O 0.92024 0.48930 -0.06724
 C261 C 0.93174 0.51038 -0.12674
 C262 C 1.05370 0.57054 0.09888
 C263 C 0.93405 0.52408 0.11071
 C264 C 1.05387 0.56144 -0.09868
 O265 O 1.02331 0.49703 -0.15463
 O266 O 0.95974 0.48882 0.19179
 O267 O 0.92871 0.43752 -0.05872
 O268 O 1.01924 0.47803 0.10463
 O269 O 1.02046 0.51391 0.19043
 O270 O 0.96159 0.46815 -0.16242
 O271 O 1.02310 0.47148 -0.04315
 O272 O 0.93759 0.44636 0.10471
 Co273 Co 0.99277 0.51080 -0.12967
 Co274 Co 0.99211 0.52569 0.13414
 Co275 Co 0.93331 0.47050 0.01742
 Co276 Co 1.03585 0.50856 0.02067
 O277 O 0.98800 0.50435 0.00903
 C278 C 1.02774 0.47516 -0.12016
 C279 C 0.94442 0.45769 0.17899
 C280 C 0.93901 0.44057 -0.13390
 C281 C 1.02421 0.48922 0.17767
 O282 O 0.46965 0.44096 -0.13067
 O283 O 0.42402 0.46870 0.14170
 O284 O 0.46010 0.42551 0.01401
 O285 O 0.43155 0.50849 -0.09135
 O286 O 0.45907 0.43969 0.14339
 O287 O 0.43091 0.46335 -0.13601
 O288 O 0.42707 0.51077 0.06610
 O289 O 0.51144 0.43894 -0.06876
 C290 C 0.49108 0.43119 -0.13469
 C291 C 0.41153 0.48623 0.11676
 C292 C 0.45252 0.41726 0.08922
 C293 C 0.41660 0.48029 -0.12811
 O294 O 0.48011 0.52183 -0.17782
 O295 O 0.51361 0.49982 0.16391
 O296 O 0.53979 0.50012 -0.02639
 O297 O 0.49250 0.55832 0.07342
 O298 O 0.47648 0.52399 0.17772
 O299 O 0.52202 0.50363 -0.15036
 O300 O 0.49943 0.55482 -0.07389
 O301 O 0.51790 0.46211 0.09381
 Co302 Co 0.47617 0.48348 -0.13426
 Co303 Co 0.46921 0.48346 0.14214
 Co304 Co 0.49919 0.46444 -0.00784
 Co305 Co 0.46370 0.52964 -0.00702
 O306 O 0.47693 0.49214 0.00480
 C307 C 0.49811 0.55059 -0.15144
 C308 C 0.52881 0.48429 0.15029
 C309 C 0.54613 0.51112 -0.09983
 C310 C 0.49006 0.55310 0.15116
 O311 O 0.53608 0.02720 -0.17408
 O312 O 0.51096 -0.04243 0.15126
 O313 O 0.54803 0.06229 0.08247
 O314 O 0.52068 -0.04207 -0.11109
 O315 O 0.54546 0.01961 0.14678
 O316 O 0.49264 -0.03224 -0.19881
 O317 O 0.52299 -0.05506 0.02976
 O318 O 0.56239 0.04759 -0.05632
 C319 C 0.56332 0.04296 -0.13376
 C320 C 0.52414 -0.05569 0.10817
 C321 C 0.56001 0.05028 0.13472
 C322 C 0.51204 -0.04299 -0.18539
 O323 O 0.44731 -0.02272 -0.12380
 O324 O 0.49000 0.02427 0.15290
 O325 O 0.53229 0.08097 -0.06947
 O326 O 0.45704 -0.07632 0.05492
 O327 O 0.45605 -0.03957 0.14399
 O328 O 0.48650 0.03801 -0.11912
 O329 O 0.45160 -0.06668 -0.09631
 O330 O 0.48726 0.04402 0.03011
 Co331 Co 0.49199 0.00195 -0.14021
 Co332 Co 0.50070 -0.00891 0.13410
 Co333 Co 0.52363 0.04306 -0.01495
 Co334 Co 0.48899 -0.05593 -0.03022
 O335 O 0.50139 -0.00694 -0.00632
 C336 C 0.43418 -0.05377 -0.11982
 C337 C 0.48157 0.04146 0.10787
 C338 C 0.50784 0.06886 -0.12624
 C339 C 0.44296 -0.06858 0.11353
 C340 C 1.11585 0.51709 0.37013
 C341 C 1.08802 0.49346 0.32361
 C342 C 1.06258 0.49956 0.29642
 C343 C 1.03963 0.47830 0.23553
 H344 H 1.08655 0.47036 0.30356
 H345 H 1.06397 0.52313 0.31177
 H346 H 1.11402 0.53757 0.39868
 H347 H 1.04000 0.45566 0.21877
 C348 C 0.53761 0.67044 0.23860
 C349 C 0.52162 0.63798 0.25720
 C350 C 0.51501 0.61247 0.19169
 C351 C 0.50100 0.58042 0.21359
 H352 H 0.51299 0.62994 0.32163
 H353 H 0.52049 0.61973 0.12540
 H354 H 0.54795 0.67836 0.17539
 H355 H 0.49595 0.57364 0.28030
 C356 C 0.37314 -0.16860 0.27630
 C357 C 0.37436 -0.14580 0.22117
 C358 C 0.40555 -0.12322 0.17605
 C359 C 0.41071 -0.09372 0.14841
 H360 H 0.35329 -0.14179 0.21216
 H361 H 0.42522 -0.12961 0.17060
 H362 H 0.39604 -0.16957 0.28652
 H363 H 0.39219 -0.08624 0.16099
 C364 C 0.83336 0.49824 0.26659
 C365 C 0.86170 0.52261 0.23306
 C366 C 0.88204 0.51350 0.17861
 C367 C 0.91272 0.53564 0.15153
 H368 H 0.87004 0.54861 0.24581
 H369 H 0.87226 0.48724 0.16467
 H370 H 0.82605 0.47267 0.25019
 H371 H 0.92333 0.56185 0.16708
 C372 C 0.48042 0.35238 0.27066
 C373 C 0.45733 0.34942 0.21319
 C374 C 0.45470 0.37919 0.19232
 C375 C 0.44364 0.38333 0.11651
 H376 H 0.44242 0.32639 0.17818
 H377 H 0.46635 0.40016 0.23633
 H378 H 0.49641 0.37668 0.29943
 H379 H 0.43428 0.36347 0.06935
 C380 C 0.65861 0.15641 0.21926
 C381 C 0.63857 0.12365 0.22952
 C382 C 0.60910 0.10430 0.17414
 C383 C 0.59035 0.07146 0.18504
 H384 H 0.64303 0.11079 0.28125
 H385 H 0.60263 0.11680 0.12530
 H386 H 0.65267 0.16897 0.16939
 H387 H 0.59750 0.05933 0.23344
 C388 C 0.53873 0.16757 -0.30143
 C389 C 0.51525 0.14023 -0.26218
 C390 C 0.52427 0.12043 -0.20559
 C391 C 0.50070 0.09014 -0.18151
 H392 H 0.48887 0.13123 -0.27244
 H393 H 0.55006 0.13026 -0.18485
 H394 H 0.56470 0.17398 -0.29233
 H395 H 0.47533 0.07985 -0.20608
 C396 C 0.63456 0.54161 -0.31148
 C397 C 0.62355 0.53657 -0.23091
 C398 C 0.59031 0.53189 -0.20879
 C399 C 0.58130 0.52861 -0.12695
 H400 H 0.63825 0.53408 -0.18016
 H401 H 0.57198 0.52662 -0.25904
 H402 H 0.62100 0.54770 -0.35848
 H403 H 0.60001 0.53363 -0.07785
 C404 C 0.84612 0.33311 -0.21923
 C405 C 0.87876 0.35508 -0.23011
 C406 C 0.89592 0.38339 -0.17033
 C407 C 0.92422 0.41115 -0.19085
 H408 H 0.89229 0.35398 -0.28511
 H409 H 0.88392 0.38222 -0.11005
 H410 H 0.83367 0.33752 -0.16622
 H411 H 0.93554 0.41302 -0.25255
 C412 C 0.55430 -0.11695 -0.26000
 C413 C 0.54003 -0.09947 -0.28764
 C414 C 0.53812 -0.07524 -0.23056
 C415 C 0.52011 -0.06066 -0.25087
 H416 H 0.52827 -0.10411 -0.35010
 H417 H 0.54927 -0.07154 -0.16737
 H418 H 0.56703 -0.11074 -0.19852
 H419 H 0.50859 -0.06443 -0.31352
 C420 C 0.33432 0.50468 -0.25425
 C421 C 0.34112 0.48076 -0.23084
 C422 C 0.37148 0.48969 -0.17953
 C423 C 0.38374 0.46895 -0.16969
 H424 H 0.32561 0.45531 -0.25284
 H425 H 0.38524 0.51475 -0.15332
 H426 H 0.35164 0.53019 -0.23506
 H427 H 0.37074 0.44425 -0.19805
 C428 C 1.15676 0.62617 -0.25813
 C429 C 1.13408 0.62635 -0.20475
 C430 C 1.10950 0.59564 -0.16127
 C431 C 1.08134 0.59313 -0.13004
 H432 H 1.13183 0.64833 -0.19556
 H433 H 1.11319 0.57418 -0.16039
 H434 H 1.15644 0.60268 -0.26684
 H435 H 1.07665 0.61383 -0.13687
 C436 C 0.83789 0.52675 -0.20766
 C437 C 0.85561 0.51114 -0.21892
 C438 C 0.87944 0.51193 -0.15456
 C439 C 0.90915 0.51676 -0.18008
 H440 H 0.85460 0.49914 -0.27914
 H441 H 0.87208 0.50691 -0.08828
 H442 H 0.84332 0.54249 -0.15160
 H443 H 0.91663 0.52396 -0.24566
 C444 C 0.52754 0.36195 -0.28698
 C445 C 0.50424 0.37076 -0.27258
 C446 C 0.50972 0.39619 -0.20790
 C447 C 0.48748 0.40655 -0.19913
 H448 H 0.48084 0.35963 -0.30771
 H449 H 0.53185 0.40636 -0.16725
 H450 H 0.55089 0.37511 -0.25117
 H451 H 0.46583 0.39687 -0.24134
 C452 C 0.63552 0.11861 -0.34788
 C453 C 0.63260 0.09768 -0.28513
 C454 C 0.59923 0.07277 -0.25393
 C455 C 0.59584 0.05911 -0.17694
 H456 H 0.65451 0.10081 -0.25085
 H457 H 0.57712 0.06875 -0.28925
 H458 H 0.61280 0.11580 -0.37726
 H459 H 0.61800 0.06517 -0.13904
 C460 C 1.09646 0.46590 -0.34344
 C461 C 1.08508 0.46141 -0.26396
 C462 C 1.05794 0.46783 -0.23964
 C463 C 1.04513 0.45964 -0.16168
 H464 H 1.09776 0.45530 -0.21445
 H465 H 1.05149 0.48265 -0.28100
 H466 H 1.08306 0.47024 -0.39454
 H467 H 1.05179 0.44457 -0.12177
 C468 C 0.52565 0.66105 -0.23357
 C469 C 0.53354 0.63713 -0.24752
 C470 C 0.52236 0.60960 -0.18615
 C471 C 0.51424 0.57878 -0.21076
 H472 H 0.54561 0.63614 -0.30564
 H473 H 0.51776 0.61403 -0.12087
 H474 H 0.51062 0.65836 -0.17774
 H475 H 0.51657 0.57370 -0.27717
 C476 C 0.34966 -0.16315 -0.21888
 C477 C 0.35884 -0.13066 -0.21375
 C478 C 0.38741 -0.10857 -0.15808
 C479 C 0.40032 -0.07544 -0.15569
 H480 H 0.34730 -0.11980 -0.25285
 H481 H 0.40023 -0.11953 -0.12416
 H482 H 0.36206 -0.17200 -0.17552
 H483 H 0.38780 -0.06406 -0.18896
 C484 C 0.55652 -0.10833 0.33634
 C485 C 0.54806 -0.10559 0.25641
 C486 C 0.54057 -0.07944 0.22924
 C487 C 0.53803 -0.07536 0.14587
 H488 H 0.54567 -0.12393 0.20934
 H489 H 0.53511 -0.06548 0.27594
 H490 H 0.56135 -0.08905 0.38293
 H491 H 0.54449 -0.08925 0.10121
 C492 C 0.33350 0.51890 0.23001
 C493 C 0.33906 0.49430 0.20527
 C494 C 0.36912 0.50135 0.15641
 C495 C 0.37868 0.47840 0.15048
 H496 H 0.32228 0.46881 0.22388
 H497 H 0.38499 0.52622 0.13168
 H498 H 0.35024 0.54401 0.20793
 H499 H 0.36361 0.45423 0.17980
 C500 C 1.16186 0.63602 0.24018
 C501 C 1.13420 0.63498 0.20855
 C502 C 1.10996 0.60589 0.15812
 C503 C 1.08073 0.60266 0.13163
 H504 H 1.12883 0.65487 0.22186
 H505 H 1.11501 0.58554 0.14840
 H506 H 1.16720 0.61639 0.22271
 H507 H 1.07525 0.62262 0.14289
 C508 C 0.50395 0.13438 0.28343
 C509 C 0.47910 0.10812 0.24299
 C510 C 0.48404 0.08022 0.21646
 C511 C 0.46898 0.06205 0.14683
 H512 H 0.45655 0.10838 0.22357
 H513 H 0.50349 0.07724 0.24807
 H514 H 0.52728 0.13447 0.29563
 H515 H 0.45200 0.06719 0.11003
 C516 C 0.61248 0.46264 0.28478
 C517 C 0.60375 0.48397 0.25244
 C518 C 0.57192 0.47256 0.20656
 C519 C 0.55945 0.49305 0.19877
 H520 H 0.61997 0.51055 0.26240
 H521 H 0.55867 0.44756 0.17992
 H522 H 0.59513 0.43604 0.28142
 H523 H 0.57201 0.51725 0.23002
 C524 C 0.87754 0.34529 0.28652
 C525 C 0.89370 0.37792 0.30455
 C526 C 0.91493 0.40166 0.23903
 C527 C 0.93042 0.43464 0.25139
 H528 H 0.88983 0.38723 0.36438
 H529 H 0.91561 0.39189 0.17650
 H530 H 0.88324 0.33703 0.22724
 H531 H 0.93038 0.44474 0.31386
   
