data_POSCAR
  _audit_creation_date              2014-09-24
  _audit_creation_method            'ToBaCCo'
  _symmetry_space_group_name_H-M    'P1'
  _symmetry_Int_Tables_number       1
  _symmetry_cell_setting            triclinic
  loop_
  _symmetry_equiv_pos_as_xyz
 x,y,z
_cell_length_a 47.9351
_cell_length_b 48.0007
_cell_length_c 27.4327
_cell_angle_alpha 89.882800
_cell_angle_beta 90.058800
_cell_angle_gamma 120.059200
loop_
  _atom_site_label
  _atom_site_type_symbol
  _atom_site_fract_x
  _atom_site_fract_y
  _atom_site_fract_z
O1 O 0.46185 0.97017 0.54559
 O2 O 0.49362 1.03289 0.45055
 O3 O 0.46236 0.97034 0.45063
 O4 O 0.49322 1.03294 0.54553
 O5 O 0.53931 1.03293 0.54646
 O6 O 0.50846 0.97037 0.45150
 O7 O 0.53981 1.03315 0.45149
 O8 O 0.50805 0.97038 0.54647
 Cu9 Cu 0.47313 1.00158 0.49804
 Cu10 Cu 0.52854 1.00172 0.49901
 C11 C 0.47956 0.95963 0.56222
 C12 C 0.52212 1.04370 0.43475
 C13 C 0.48018 0.95974 0.43489
 C14 C 0.52149 1.04354 0.56219
 O15 O 0.03186 0.49355 0.54838
 O16 O -0.03088 0.46261 0.45341
 O17 O 0.03174 0.49392 0.45341
 O18 O -0.03101 0.46214 0.54838
 O19 O -0.03085 0.50822 0.54907
 O20 O 0.03188 0.54001 0.45409
 O21 O -0.03097 0.50859 0.45408
 O22 O 0.03177 0.53950 0.54907
 Cu23 Cu 0.00043 0.47343 0.50089
 Cu24 Cu 0.00046 0.52870 0.50159
 C25 C 0.04250 0.52179 0.56498
 C26 C -0.04156 0.48036 0.43754
 C27 C 0.04245 0.52235 0.43754
 C28 C -0.04161 0.47977 0.56498
 O29 O 0.50831 0.53956 0.54737
 O30 O 0.53916 0.50787 0.45242
 O31 O 0.50791 0.53915 0.45241
 O32 O 0.53968 0.50817 0.54738
 O33 O 0.49349 0.46221 0.54833
 O34 O 0.46172 0.49314 0.45328
 O35 O 0.49308 0.46175 0.45334
 O36 O 0.46221 0.49346 0.54824
 Cu37 Cu 0.52840 0.52831 0.49987
 Cu38 Cu 0.47299 0.47301 0.50083
 C39 C 0.48002 0.52189 0.56398
 C40 C 0.52135 0.47944 0.43669
 C41 C 0.47942 0.52140 0.43665
 C42 C 0.52199 0.47992 0.56412
 O43 O 0.38103 0.66889 -0.05605
 O44 O 0.38235 0.72323 -0.04232
 C45 C 0.36226 0.72797 -0.06591
 O46 O 0.33241 0.71359 -0.05638
 O47 O 0.27798 0.66053 -0.04220
 C48 C 0.27316 0.63568 -0.06559
 O49 O 0.28753 0.62024 -0.05596
 O50 O 0.34066 0.61901 -0.04189
 C51 C 0.36554 0.63906 -0.06545
 O52 O 0.38233 0.66063 0.04114
 O53 O 0.38110 0.71369 0.05489
 C54 C 0.36565 0.72806 0.06429
 O55 O 0.34078 0.72326 0.04073
 O56 O 0.28763 0.66892 0.05494
 C57 C 0.27325 0.63912 0.06462
 O58 O 0.27798 0.61904 0.04119
 O59 O 0.33238 0.62034 0.05525
 C60 C 0.36224 0.63580 0.06475
 Cr61 Cr 0.37985 0.69068 -0.00058
 Cr62 Cr 0.31062 0.69065 -0.00072
 Cr63 Cr 0.31056 0.62150 -0.00036
 O64 O 0.33368 0.66761 -0.00055
 O65 O 0.61852 0.34138 -0.04229
 O66 O 0.61983 0.28837 -0.05607
 C67 C 0.63534 0.27408 -0.06559
 O68 O 0.66022 0.27890 -0.04206
 O69 O 0.71337 0.33328 -0.05598
 C70 C 0.72771 0.36309 -0.06561
 O71 O 0.72288 0.38312 -0.04222
 O72 O 0.66845 0.38176 -0.05624
 C73 C 0.63861 0.36626 -0.06581
 O74 O 0.61978 0.33307 0.05492
 O75 O 0.61853 0.27878 0.04113
 C76 C 0.63861 0.27400 0.06465
 O77 O 0.66846 0.28838 0.05511
 O78 O 0.72287 0.34151 0.04119
 C79 C 0.72764 0.36634 0.06462
 O80 O 0.71329 0.38179 0.05495
 O81 O 0.66014 0.38297 0.04091
 C82 C 0.63526 0.36288 0.06443
 Cr83 Cr 0.62102 0.31133 -0.00058
 Cr84 Cr 0.69030 0.31144 -0.00044
 Cr85 Cr 0.69026 0.38056 -0.00065
 O86 O 0.66719 0.33444 -0.00056
 C87 C 0.44398 0.88917 -0.32877
 N88 N 0.42483 0.89943 -0.34901
 N89 N 0.43614 0.92185 -0.38381
 C90 C 0.46700 0.93477 -0.39969
 N91 N 0.48612 0.92447 -0.37953
 N92 N 0.47483 0.90210 -0.34467
 C93 C 0.43162 0.86469 -0.29009
 N94 N 0.45131 0.85581 -0.26792
 N95 N 0.44018 0.83380 -0.23253
 C96 C 0.40894 0.81981 -0.21810
 N97 N 0.38923 0.82864 -0.24035
 N98 N 0.40037 0.85070 -0.27566
 C99 C 0.39675 0.79574 -0.17883
 N100 N 0.36519 0.78070 -0.16585
 N101 N 0.35417 0.75903 -0.13000
 C102 C 0.37434 0.75164 -0.10574
 N103 N 0.40591 0.76667 -0.11874
 N104 N 0.41690 0.78830 -0.15467
 C105 C 0.11174 0.55600 -0.32803
 N106 N 0.10072 0.52622 -0.34712
 N107 N 0.07828 0.51512 -0.38187
 C108 C 0.06607 0.53343 -0.39892
 N109 N 0.07719 0.56326 -0.37987
 N110 N 0.09957 0.57432 -0.34504
 C111 C 0.13624 0.56813 -0.28939
 N112 N 0.14566 0.59701 -0.26805
 N113 N 0.16768 0.60790 -0.23270
 C114 C 0.18115 0.59035 -0.21748
 N115 N 0.17179 0.56151 -0.23891
 N116 N 0.14971 0.55058 -0.27417
 C117 C 0.20526 0.60226 -0.17828
 N118 N 0.22002 0.58558 -0.16484
 N119 N 0.24174 0.59629 -0.12907
 C120 C 0.24943 0.62402 -0.10532
 N121 N 0.23467 0.64070 -0.11877
 N122 N 0.21301 0.63004 -0.15463
 C123 C 0.44520 0.55742 -0.32725
 N124 N 0.42722 0.52661 -0.34311
 N125 N 0.43828 0.51534 -0.37788
 C126 C 0.46776 0.53443 -0.39800
 N127 N 0.48574 0.56523 -0.38215
 N128 N 0.47465 0.57653 -0.34745
 C129 C 0.43306 0.56976 -0.28870
 N130 N 0.45036 0.60096 -0.27435
 N131 N 0.43942 0.61210 -0.23917
 C132 C 0.41083 0.59241 -0.21698
 N133 N 0.39354 0.56121 -0.23134
 N134 N 0.40444 0.55010 -0.26659
 C135 C 0.39892 0.60460 -0.17788
 N136 N 0.37127 0.58448 -0.15377
 N137 N 0.36061 0.59546 -0.11800
 C138 C 0.37717 0.62699 -0.10511
 N139 N 0.40477 0.64713 -0.12931
 N140 N 0.41547 0.63612 -0.16500
 C141 C 0.55617 0.11365 -0.32867
 N142 N 0.52675 0.10336 -0.34894
 N143 N 0.51571 0.08106 -0.38379
 C144 C 0.53373 0.06829 -0.39971
 N145 N 0.56317 0.07864 -0.37951
 N146 N 0.57418 0.10088 -0.34460
 C147 C 0.56823 0.13800 -0.28991
 N148 N 0.59681 0.14690 -0.26773
 N149 N 0.60763 0.16878 -0.23227
 C150 C 0.59030 0.18261 -0.21779
 N151 N 0.56175 0.17376 -0.24005
 N152 N 0.55089 0.15182 -0.27543
 C153 C 0.60213 0.20656 -0.17848
 N154 N 0.58553 0.22145 -0.16546
 N155 N 0.59617 0.24304 -0.12960
 C156 C 0.62375 0.25047 -0.10536
 N157 N 0.64034 0.23557 -0.11840
 N158 N 0.62975 0.21403 -0.15433
 C159 C 0.88915 0.44480 -0.32803
 N160 N 0.90135 0.47529 -0.34505
 N161 N 0.92373 0.48659 -0.37989
 C162 C 0.93481 0.46785 -0.39892
 N163 N 0.92258 0.43733 -0.38186
 N164 N 0.90014 0.42601 -0.34711
 C165 C 0.86464 0.43244 -0.28939
 N166 N 0.85115 0.40142 -0.27416
 N167 N 0.82906 0.39028 -0.23890
 C168 C 0.81973 0.40978 -0.21749
 N169 N 0.83322 0.44080 -0.23272
 N170 N 0.85524 0.45192 -0.26807
 C171 C 0.79562 0.39759 -0.17829
 N172 N 0.78787 0.41762 -0.15465
 N173 N 0.76621 0.40663 -0.11879
 C174 C 0.75144 0.37518 -0.10534
 N175 N 0.75913 0.35513 -0.12908
 N176 N 0.78085 0.36614 -0.16485
 C177 C 0.55696 0.44572 -0.32876
 N178 N 0.57580 0.47550 -0.34801
 N179 N 0.56448 0.48660 -0.38280
 C180 C 0.53391 0.46828 -0.39974
 N181 N 0.51512 0.43844 -0.38055
 N182 N 0.52641 0.42739 -0.34567
 C183 C 0.56932 0.43360 -0.29006
 N184 N 0.54979 0.40473 -0.26856
 N185 N 0.56090 0.39386 -0.23314
 C186 C 0.59197 0.41143 -0.21802
 N187 N 0.61152 0.44027 -0.23960
 N188 N 0.60038 0.45118 -0.27493
 C189 C 0.60415 0.39955 -0.17873
 N190 N 0.63564 0.41628 -0.16537
 N191 N 0.64664 0.40561 -0.12952
 C192 C 0.62654 0.37787 -0.10562
 N193 N 0.59505 0.36114 -0.11899
 N194 N 0.58407 0.37177 -0.15493
 C195 C 0.88821 0.44561 0.32824
 N196 N 0.90104 0.42767 0.34434
 N197 N 0.92332 0.43870 0.37932
 C198 C 0.93364 0.46810 0.39940
 N199 N 0.92081 0.48604 0.38331
 N200 N 0.89847 0.47498 0.34841
 C201 C 0.86384 0.43354 0.28941
 N202 N 0.84995 0.45081 0.27475
 N203 N 0.82800 0.43994 0.23929
 C204 C 0.81920 0.41144 0.21713
 N205 N 0.83309 0.39417 0.23180
 N206 N 0.85498 0.40500 0.26733
 C207 C 0.79523 0.39960 0.17773
 N208 N 0.78780 0.37203 0.15369
 N209 N 0.76624 0.36142 0.11768
 C210 C 0.75128 0.37795 0.10447
 N211 N 0.75866 0.40547 0.12860
 N212 N 0.78026 0.41612 0.16453
 C213 C 0.55705 0.11287 0.32762
 N214 N 0.57591 0.10195 0.34686
 N215 N 0.56460 0.07953 0.38167
 C216 C 0.53403 0.06726 0.39861
 N217 N 0.51522 0.07828 0.37942
 N218 N 0.52651 0.10063 0.34453
 C219 C 0.56939 0.13734 0.28891
 N220 N 0.54985 0.14666 0.26741
 N221 N 0.56095 0.16864 0.23198
 C222 C 0.59202 0.18217 0.21685
 N223 N 0.61158 0.17290 0.23843
 N224 N 0.60046 0.15086 0.27377
 C225 C 0.60418 0.20623 0.17756
 N226 N 0.63567 0.22102 0.16421
 N227 N 0.64666 0.24270 0.12836
 C228 C 0.62655 0.25031 0.10446
 N229 N 0.59506 0.23552 0.11782
 N230 N 0.58408 0.21390 0.15376
 C231 C 0.55603 0.44403 0.32753
 N232 N 0.57403 0.47481 0.34346
 N233 N 0.56303 0.48604 0.37838
 C234 C 0.53358 0.46692 0.39858
 N235 N 0.51557 0.43614 0.38267
 N236 N 0.52662 0.42489 0.34781
 C237 C 0.56809 0.43175 0.28877
 N238 N 0.55076 0.40058 0.27428
 N239 N 0.56162 0.38952 0.23890
 C240 C 0.59016 0.40924 0.21663
 N241 N 0.60749 0.44041 0.23112
 N242 N 0.59667 0.45145 0.26658
 C243 C 0.60200 0.39713 0.17731
 N244 N 0.62961 0.41730 0.15317
 N245 N 0.64022 0.40638 0.11723
 C246 C 0.62365 0.37488 0.10420
 N247 N 0.59607 0.35470 0.12843
 N248 N 0.58542 0.36563 0.16429
 C249 C 0.11268 0.55783 0.32826
 N250 N 0.09983 0.52705 0.34434
 N251 N 0.07755 0.51580 0.37931
 C252 C 0.06725 0.53489 0.39940
 N253 N 0.08011 0.56568 0.38334
 N254 N 0.10245 0.57696 0.34844
 C255 C 0.13706 0.57013 0.28943
 N256 N 0.15097 0.60130 0.27478
 N257 N 0.17292 0.61239 0.23932
 C258 C 0.18170 0.59268 0.21715
 N259 N 0.16779 0.56152 0.23180
 N260 N 0.14590 0.55045 0.26733
 C261 C 0.20567 0.60481 0.17775
 N262 N 0.21307 0.58466 0.15369
 N263 N 0.23462 0.59560 0.11768
 C264 C 0.24961 0.62710 0.10447
 N265 N 0.24226 0.64726 0.12861
 N266 N 0.22066 0.63631 0.16455
 C267 C 0.44537 0.88939 0.32611
 N268 N 0.47482 0.89973 0.34631
 N269 N 0.48591 0.92213 0.38102
 C270 C 0.46792 0.93493 0.39687
 N271 N 0.43845 0.92454 0.37674
 N272 N 0.42739 0.90220 0.34196
 C273 C 0.43325 0.86491 0.28754
 N274 N 0.40463 0.85595 0.26542
 N275 N 0.39373 0.83394 0.23016
 C276 C 0.41101 0.82003 0.21581
 N277 N 0.43960 0.82894 0.23800
 N278 N 0.45053 0.85100 0.27319
 C279 C 0.39909 0.79593 0.17670
 N280 N 0.41563 0.78094 0.16383
 N281 N 0.40491 0.75923 0.12813
 C282 C 0.37731 0.75178 0.10393
 N283 N 0.36078 0.76676 0.11683
 N284 N 0.37145 0.78842 0.15259
 C285 C 0.44387 0.55626 0.32761
 N286 N 0.47472 0.57419 0.34352
 N287 N 0.48600 0.56312 0.37839
 C288 C 0.46687 0.53369 0.39856
 N289 N 0.43601 0.51575 0.38266
 N290 N 0.42471 0.52685 0.34786
 C291 C 0.43152 0.56839 0.28892
 N292 N 0.40028 0.55113 0.27449
 N293 N 0.38915 0.56206 0.23917
 C294 C 0.40887 0.59060 0.21691
 N295 N 0.44012 0.60785 0.23135
 N296 N 0.45122 0.59696 0.26675
 C297 C 0.39669 0.60249 0.17765
 N298 N 0.41686 0.63008 0.15348
 N299 N 0.40588 0.64072 0.11755
 C300 C 0.37431 0.62419 0.10456
 N301 N 0.35413 0.59664 0.12883
 N302 N 0.36513 0.58597 0.16467
   
