data_POSCAR
  _audit_creation_date              2014-09-24
  _audit_creation_method            'ToBaCCo'
  _symmetry_space_group_name_H-M    'P1'
  _symmetry_Int_Tables_number       1
  _symmetry_cell_setting            triclinic
  loop_
  _symmetry_equiv_pos_as_xyz
 x,y,z
_cell_length_a 51.7460
_cell_length_b 51.7751
_cell_length_c 33.4784
_cell_angle_alpha 89.602300
_cell_angle_beta 89.659500
_cell_angle_gamma 89.009600
loop_
  _atom_site_label
  _atom_site_type_symbol
  _atom_site_fract_x
  _atom_site_fract_y
  _atom_site_fract_z
O1 O -0.02344 0.27056 0.03445
 O2 O 0.02025 0.28386 -0.05114
 O3 O -0.03035 0.28056 -0.04144
 O4 O 0.02599 0.27762 0.02533
 O5 O 0.02994 0.23566 0.01475
 O6 O -0.02653 0.23862 -0.05194
 O7 O 0.02316 0.24194 -0.06200
 O8 O -0.01885 0.22872 0.02315
 Cu9 Cu -0.00239 0.28240 -0.00734
 Cu10 Cu 0.00238 0.23212 -0.02035
 C11 C -0.02825 0.24719 0.04343
 C12 C 0.02933 0.26486 -0.07095
 C13 C -0.03823 0.26011 -0.05770
 C14 C 0.03736 0.25612 0.03180
 O15 O 0.47500 0.77496 0.54306
 O16 O 0.52517 0.77546 0.46518
 O17 O 0.47457 0.77329 0.46549
 O18 O 0.52590 0.77301 0.54260
 O19 O 0.52537 0.73035 0.54314
 O20 O 0.47653 0.73063 0.46498
 O21 O 0.52644 0.73279 0.46524
 O22 O 0.47505 0.73230 0.54257
 Cu23 Cu 0.50007 0.77846 0.50418
 Cu24 Cu 0.50096 0.72729 0.50409
 C25 C 0.46617 0.75371 0.55569
 C26 C 0.53444 0.75435 0.45202
 C27 C 0.46698 0.75174 0.45216
 C28 C 0.53435 0.75134 0.55574
 O29 O 1.02342 0.73653 0.05205
 O30 O 0.97988 0.74003 -0.03560
 O31 O 1.02981 0.73399 -0.02503
 O32 O 0.97292 0.73931 0.04159
 O33 O 0.97553 0.78183 0.03986
 O34 O 1.03296 0.77645 -0.02560
 O35 O 0.98395 0.78244 -0.03663
 O36 O 1.02500 0.77908 0.05140
 Cu37 Cu 1.00119 0.73318 0.00845
 Cu38 Cu 1.00471 0.78414 0.00730
 C39 C 1.03158 0.75748 0.06664
 C40 C 0.97470 0.76206 -0.05097
 C41 C 1.04106 0.75428 -0.03679
 C42 C 0.96434 0.76147 0.05165
 O43 O 0.47526 0.23598 0.45593
 O44 O 0.51731 0.24333 0.54425
 O45 O 0.46793 0.24653 0.53056
 O46 O 0.52533 0.23007 0.47069
 O47 O 0.53047 0.27132 0.45591
 O48 O 0.47205 0.28778 0.51496
 O49 O 0.52107 0.28476 0.52944
 O50 O 0.48128 0.27700 0.44048
 Cu51 Cu 0.49603 0.23476 0.50158
 Cu52 Cu 0.50174 0.28430 0.48349
 C53 C 0.47082 0.25555 0.43364
 C54 C 0.52613 0.26554 0.55187
 C55 C 0.46011 0.26983 0.53293
 C56 C 0.53805 0.24786 0.45395
 O57 O 0.74650 0.02363 -0.02452
 O58 O 0.74253 -0.03018 0.04854
 O59 O 0.73669 0.02062 0.05158
 O60 O 0.75096 -0.02658 -0.02781
 O61 O 0.79270 -0.02369 -0.01548
 O62 O 0.77849 0.02383 0.06307
 O63 O 0.78412 -0.02623 0.06097
 O64 O 0.78838 0.02607 -0.01298
 Cu65 Cu 0.73991 -0.00344 0.01096
 Cu66 Cu 0.79006 0.00030 0.02526
 C67 C 0.76829 0.03386 -0.03122
 C68 C 0.76289 -0.03756 0.06679
 C69 C 0.75523 0.03060 0.07034
 C70 C 0.77426 -0.03317 -0.03509
 O71 O 0.23168 0.47684 0.51559
 O72 O 0.24021 0.52752 0.43831
 O73 O 0.24172 0.47648 0.43946
 O74 O 0.22798 0.52734 0.51366
 O75 O 0.26957 0.52890 0.52773
 O76 O 0.28326 0.47788 0.45385
 O77 O 0.28189 0.52826 0.45208
 O78 O 0.27321 0.47920 0.52986
 Cu79 Cu 0.23122 0.50189 0.47514
 Cu80 Cu 0.28114 0.50376 0.49210
 C81 C 0.25120 0.46953 0.53591
 C82 C 0.26259 0.53666 0.43250
 C83 C 0.26476 0.46819 0.43455
 C84 C 0.24641 0.53669 0.53344
 O85 O 0.28070 1.02716 0.01352
 O86 O 0.27026 0.97350 -0.05628
 O87 O 0.26718 1.02429 -0.06111
 O88 O 0.28227 0.97658 0.01876
 O89 O 0.24097 0.97663 0.03577
 O90 O 0.22595 1.02311 -0.04394
 O91 O 0.22897 0.97319 -0.03916
 O92 O 0.23947 1.02645 0.03066
 Cu93 Cu 0.27926 1.00047 -0.02309
 Cu94 Cu 0.22973 0.99983 -0.00250
 C95 C 0.26185 1.03592 0.03407
 C96 C 0.24785 0.96408 -0.05927
 C97 C 0.24385 1.03183 -0.06594
 C98 C 0.26400 0.96852 0.04085
 O99 O 0.77275 0.52501 0.54955
 O100 O 0.77341 0.47460 0.47127
 O101 O 0.77630 0.52502 0.47236
 O102 O 0.77571 0.47415 0.54882
 O103 O 0.73304 0.47383 0.54787
 O104 O 0.73360 0.52632 0.47195
 O105 O 0.73071 0.47660 0.47036
 O106 O 0.73007 0.52414 0.54992
 Cu107 Cu 0.77880 0.49960 0.51068
 Cu108 Cu 0.72764 0.50034 0.51015
 C109 C 0.75098 0.53316 0.56274
 C110 C 0.75187 0.46724 0.45748
 C111 C 0.75526 0.53441 0.45913
 C112 C 0.75452 0.46496 0.56093
 C113 C 0.22741 0.19240 0.21026
 C114 C 0.20376 0.20248 0.19725
 C115 C 0.19625 0.22820 0.20417
 C116 C 0.21316 0.24445 0.22524
 C117 C 0.23718 0.23434 0.23934
 C118 C 0.24439 0.20823 0.23161
 C119 C 0.26806 0.19854 0.24608
 C120 C 0.28458 0.21419 0.26733
 C121 C 0.27786 0.24004 0.27574
 C122 C 0.25395 0.25028 0.26155
 C123 C 0.20653 0.27033 0.23331
 C124 C 0.22301 0.28597 0.25482
 C125 C 0.24668 0.27632 0.26974
 C126 C 0.26336 0.29202 0.29229
 C127 C 0.28700 0.28152 0.30560
 C128 C 0.29453 0.25596 0.29759
 H129 H 0.27404 0.17868 0.24127
 H130 H 0.30274 0.20569 0.27703
 H131 H 0.18840 0.27877 0.22334
 H132 H 0.21692 0.30582 0.25936
 H133 H 0.19135 0.19012 0.18007
 H134 H 0.29929 0.29299 0.32435
 C135 C 0.71440 0.67634 0.25274
 C136 C 0.68890 0.68405 0.26042
 C137 C 0.68018 0.70925 0.25292
 C138 C 0.69698 0.72710 0.23446
 C139 C 0.72278 0.71934 0.22503
 C140 C 0.73161 0.69390 0.23451
 C141 C 0.75713 0.68661 0.22477
 C142 C 0.77384 0.70400 0.20658
 C143 C 0.76557 0.72927 0.19669
 C144 C 0.73977 0.73705 0.20615
 C145 C 0.68856 0.75221 0.22437
 C146 C 0.70524 0.76965 0.20638
 C147 C 0.73087 0.76249 0.19681
 C148 C 0.74792 0.78015 0.17853
 C149 C 0.77319 0.77206 0.16915
 C150 C 0.78242 0.74706 0.17799
 H151 H 0.76441 0.66728 0.23086
 H152 H 0.79338 0.69732 0.20054
 H153 H 0.66888 0.75862 0.22996
 H154 H 0.69770 0.78885 0.20011
 H155 H 0.67593 0.67053 0.27478
 H156 H 0.78556 0.78524 0.15303
 C157 C 0.81805 0.22721 0.23248
 C158 C 0.81113 0.20180 0.22404
 C159 C 0.78750 0.19182 0.23672
 C160 C 0.76983 0.20772 0.25821
 C161 C 0.77713 0.23308 0.26871
 C162 C 0.80147 0.24265 0.25644
 C163 C 0.80883 0.26729 0.26901
 C164 C 0.79259 0.28235 0.29278
 C165 C 0.76818 0.27353 0.30465
 C166 C 0.76013 0.24890 0.29176
 C167 C 0.74541 0.19891 0.27030
 C168 C 0.72814 0.21503 0.29084
 C169 C 0.73514 0.24009 0.30186
 C170 C 0.71809 0.25634 0.32370
 C171 C 0.72660 0.28020 0.33734
 C172 C 0.75146 0.28889 0.32851
 H173 H 0.82750 0.27507 0.26142
 H174 H 0.79935 0.30119 0.30121
 H175 H 0.73932 0.17952 0.26390
 H176 H 0.70946 0.20742 0.29897
 H177 H 0.82377 0.18979 0.20579
 H178 H 0.71359 0.29219 0.35506
 C179 C 0.28997 0.75388 0.31680
 C180 C 0.28267 0.72840 0.32471
 C181 C 0.25883 0.71895 0.31227
 C182 C 0.24166 0.73548 0.29095
 C183 C 0.24876 0.76132 0.28249
 C184 C 0.27292 0.77059 0.29560
 C185 C 0.27949 0.79627 0.28678
 C186 C 0.26265 0.81258 0.26594
 C187 C 0.23879 0.80376 0.25227
 C188 C 0.23161 0.77797 0.26095
 C189 C 0.21766 0.72677 0.27743
 C190 C 0.20072 0.74318 0.25700
 C191 C 0.20728 0.76884 0.24831
 C192 C 0.18997 0.78574 0.22800
 C193 C 0.19741 0.81114 0.21986
 C194 C 0.22160 0.82017 0.23085
 H195 H 0.29778 0.80411 0.29571
 H196 H 0.26854 0.83228 0.26096
 H197 H 0.21161 0.70712 0.28230
 H198 H 0.18233 0.73543 0.24830
 H199 H 0.29527 0.71608 0.34257
 H200 H 0.18459 0.82388 0.20304
 C201 C 0.78586 0.24122 0.81550
 C202 C 0.77866 0.21620 0.82656
 C203 C 0.75432 0.20646 0.81756
 C204 C 0.73645 0.22226 0.79637
 C205 C 0.74302 0.24798 0.78588
 C206 C 0.76763 0.25767 0.79612
 C207 C 0.77335 0.28341 0.78631
 C208 C 0.75530 0.29935 0.76704
 C209 C 0.73119 0.28993 0.75534
 C210 C 0.72495 0.26399 0.76493
 C211 C 0.71226 0.21291 0.78500
 C212 C 0.69473 0.22845 0.76419
 C213 C 0.70066 0.25400 0.75362
 C214 C 0.68279 0.26989 0.73255
 C215 C 0.68908 0.29558 0.72423
 C216 C 0.71288 0.30574 0.73493
 H217 H 0.79179 0.29160 0.79367
 H218 H 0.76052 0.31918 0.76140
 H219 H 0.70662 0.19332 0.79160
 H220 H 0.67630 0.22019 0.75699
 H221 H 0.79205 0.20442 0.84390
 H222 H 0.67578 0.30770 0.70725
 C223 C 0.30987 0.70938 0.73509
 C224 C 0.29976 0.68505 0.72789
 C225 C 0.27402 0.67944 0.73645
 C226 C 0.25787 0.69836 0.75465
 C227 C 0.26812 0.72287 0.76394
 C228 C 0.29421 0.72844 0.75405
 C229 C 0.30408 0.75258 0.76441
 C230 C 0.28855 0.77121 0.78286
 C231 C 0.26268 0.76622 0.79294
 C232 C 0.25233 0.74176 0.78346
 C233 C 0.23206 0.69325 0.76471
 C234 C 0.21651 0.71180 0.78357
 C235 C 0.22628 0.73610 0.79358
 C236 C 0.21070 0.75500 0.81310
 C237 C 0.22142 0.77889 0.82230
 C238 C 0.24686 0.78503 0.81209
 H239 H 0.32406 0.75727 0.75882
 H240 H 0.29721 0.78957 0.78921
 H241 H 0.22367 0.67473 0.75833
 H242 H 0.19672 0.70684 0.79017
 H243 H 0.31192 0.67045 0.71368
 H244 H 0.20999 0.79270 0.83935
 C245 C 0.22229 0.19182 0.75924
 C246 C 0.19622 0.19758 0.76736
 C247 C 0.18432 0.22039 0.75379
 C248 C 0.19851 0.23797 0.73016
 C249 C 0.22495 0.23259 0.72163
 C250 C 0.23690 0.20950 0.73624
 C251 C 0.26304 0.20457 0.72694
 C252 C 0.27730 0.22204 0.70453
 C253 C 0.26592 0.24500 0.68968
 C254 C 0.23948 0.25036 0.69843
 C255 C 0.18690 0.26049 0.71423
 C256 C 0.20124 0.27813 0.69230
 C257 C 0.22757 0.27353 0.68422
 C258 C 0.24240 0.29162 0.66273
 C259 C 0.26832 0.28590 0.65393
 C260 C 0.28032 0.26287 0.66674
 H261 H 0.27289 0.18707 0.73664
 H262 H 0.29746 0.21732 0.69942
 H263 H 0.16655 0.26476 0.71839
 H264 H 0.19136 0.29541 0.68167
 H265 H 0.18515 0.18471 0.78626
 H266 H 0.27896 0.29932 0.63541
 C267 C 0.74803 0.71619 0.67678
 C268 C 0.72394 0.72645 0.66549
 C269 C 0.71522 0.75074 0.67867
 C270 C 0.73112 0.76532 0.70402
 C271 C 0.75534 0.75490 0.71649
 C272 C 0.76388 0.73034 0.70261
 C273 C 0.78779 0.72028 0.71571
 C274 C 0.80302 0.73395 0.74189
 C275 C 0.79486 0.75815 0.75645
 C276 C 0.77094 0.76890 0.74333
 C277 C 0.72322 0.78977 0.71800
 C278 C 0.73869 0.80367 0.74373
 C279 C 0.76245 0.79347 0.75732
 C280 C 0.77803 0.80720 0.78427
 C281 C 0.80155 0.79616 0.79690
 C282 C 0.81014 0.77193 0.78352
 H283 H 0.79496 0.70153 0.70631
 H284 H 0.82134 0.72526 0.75046
 H285 H 0.70491 0.79845 0.70944
 H286 H 0.73168 0.82254 0.75276
 H287 H 0.71210 0.71566 0.64509
 H288 H 0.81280 0.80594 0.81921
 C289 C 0.26588 0.05632 0.06019
 C290 C 0.24634 0.06577 0.08535
 C291 C 0.24932 0.08871 0.11042
 N292 N 0.23040 0.09516 0.13688
 N293 N 0.23182 0.11668 0.15820
 C294 C 0.25219 0.13267 0.15381
 N295 N 0.27124 0.12614 0.12752
 N296 N 0.26988 0.10451 0.10627
 C297 C 0.25258 0.15768 0.17452
 C298 C 0.23283 0.16501 0.20079
 H299 H 0.22785 0.05625 0.08647
 H300 H 0.26712 0.17152 0.16600
 H301 H 0.28477 0.06503 0.06079
 H302 H 0.21769 0.15144 0.20759
 C303 C 0.74913 0.55386 0.59227
 C304 C 0.76772 0.57281 0.59564
 C305 C 0.76153 0.59743 0.61560
 N306 N 0.77814 0.61738 0.61319
 N307 N 0.77168 0.64036 0.62835
 C308 C 0.74832 0.64422 0.64634
 N309 N 0.73186 0.62422 0.64914
 N310 N 0.73832 0.60128 0.63401
 C311 C 0.74033 0.66963 0.66184
 C312 C 0.75643 0.69086 0.66054
 H313 H 0.78586 0.57085 0.57953
 H314 H 0.72123 0.67164 0.67502
 H315 H 0.73066 0.55647 0.60724
 H316 H 0.77589 0.68869 0.64886
 C317 C 0.76274 0.94130 0.09276
 C318 C 0.74166 0.92506 0.09763
 C319 C 0.74432 0.90041 0.11969
 N320 N 0.72585 0.88220 0.11695
 N321 N 0.72911 0.85912 0.13437
 C322 C 0.75095 0.85349 0.15529
 N323 N 0.76918 0.87183 0.15854
 N324 N 0.76596 0.89481 0.14105
 C325 C 0.75605 0.82765 0.17230
 C326 C 0.73972 0.80681 0.16699
 H327 H 0.72373 0.92923 0.08213
 H328 H 0.77416 0.82456 0.18786
 H329 H 0.78072 0.93631 0.10761
 H330 H 0.72113 0.80992 0.15292
 C331 C 0.24913 0.44939 0.56664
 C332 C 0.22917 0.43168 0.56793
 C333 C 0.23124 0.40853 0.59357
 N334 N 0.21557 0.38815 0.58772
 N335 N 0.21916 0.36621 0.60823
 C336 C 0.23851 0.36396 0.63539
 N337 N 0.25377 0.38450 0.64178
 N338 N 0.25022 0.40634 0.62128
 C339 C 0.24477 0.33936 0.65535
 C340 C 0.23157 0.31664 0.64842
 H341 H 0.21333 0.43337 0.54701
 H342 H 0.26174 0.33864 0.67420
 H343 H 0.26552 0.44676 0.58633
 H344 H 0.21385 0.31703 0.63137
 C345 C 0.95516 0.24064 0.07747
 C346 C 0.93994 0.25868 0.09780
 C347 C 0.92129 0.25024 0.12830
 N348 N 0.90222 0.26657 0.14094
 N349 N 0.88412 0.25838 0.16628
 C350 C 0.88453 0.23361 0.18003
 N351 N 0.90388 0.21746 0.16802
 N352 N 0.92189 0.22561 0.14259
 C353 C 0.86366 0.22364 0.20541
 C354 C 0.84129 0.23814 0.21301
 H355 H 0.94026 0.27887 0.08913
 H356 H 0.86537 0.20398 0.21644
 H357 H 0.95381 0.22035 0.08522
 H358 H 0.84021 0.25796 0.20255
 C359 C 0.44487 0.75444 0.58494
 C360 C 0.43550 0.73234 0.60361
 C361 C 0.41217 0.73319 0.62902
 N362 N 0.40570 0.71226 0.65129
 N363 N 0.38404 0.71241 0.67305
 C364 C 0.36797 0.73345 0.67317
 N365 N 0.37444 0.75437 0.65089
 N366 N 0.39617 0.75428 0.62934
 C367 C 0.34314 0.73325 0.69489
 C368 C 0.33678 0.71345 0.72140
 H369 H 0.44523 0.71390 0.59902
 H370 H 0.32894 0.74822 0.68799
 H371 H 0.43589 0.77303 0.59125
 H372 H 0.35068 0.69790 0.72646
 C373 C 0.04842 0.75686 0.09906
 C374 C 0.05543 0.77964 0.11799
 C375 C 0.07678 0.78130 0.14642
 N376 N 0.07996 0.80358 0.16672
 N377 N 0.10062 0.80681 0.18949
 C378 C 0.11902 0.78797 0.19254
 N379 N 0.11575 0.76549 0.17259
 N380 N 0.09496 0.76219 0.14995
 C381 C 0.14276 0.79318 0.21467
 C382 C 0.16464 0.77716 0.21285
 H383 H 0.04553 0.79763 0.11045
 H384 H 0.14375 0.81136 0.23039
 H385 H 0.05642 0.73849 0.10916
 H386 H 0.16354 0.75863 0.19824
 C387 C 0.54263 0.26965 0.58665
 C388 C 0.55607 0.24970 0.60597
 C389 C 0.57563 0.25534 0.63632
 N390 N 0.59406 0.23741 0.64585
 N391 N 0.61304 0.24317 0.67087
 C392 C 0.61414 0.26700 0.68748
 N393 N 0.59540 0.28470 0.67860
 N394 N 0.57654 0.27901 0.65344
 C395 C 0.63602 0.27462 0.71236
 C396 C 0.65853 0.25958 0.71575
 H397 H 0.55402 0.22997 0.59605
 H398 H 0.63514 0.29358 0.72580
 H399 H 0.54614 0.28947 0.59496
 H400 H 0.65897 0.24036 0.70322
 C401 C 0.77086 0.05513 0.93989
 C402 C 0.74976 0.06904 0.92477
 C403 C 0.75343 0.09201 0.89931
 N404 N 0.73348 0.10881 0.89261
 N405 N 0.73707 0.13038 0.87143
 C406 C 0.76073 0.13580 0.85598
 N407 N 0.78054 0.11880 0.86216
 N408 N 0.77698 0.09734 0.88347
 C409 C 0.76565 0.16015 0.83465
 C410 C 0.74756 0.18041 0.83291
 H411 H 0.73034 0.06409 0.93392
 H412 H 0.78470 0.16270 0.82178
 H413 H 0.79026 0.06105 0.93224
 H414 H 0.72832 0.17747 0.84479
 C415 C 0.26670 0.55779 0.40386
 C416 C 0.24676 0.57430 0.39141
 C417 C 0.25221 0.59894 0.37106
 N418 N 0.23329 0.61724 0.36724
 N419 N 0.23850 0.64035 0.35168
 C420 C 0.26283 0.64598 0.33930
 N421 N 0.28164 0.62754 0.34254
 N422 N 0.27646 0.60449 0.35822
 C423 C 0.26932 0.67179 0.32405
 C424 C 0.25159 0.69237 0.32431
 H425 H 0.22704 0.57046 0.40041
 H426 H 0.28884 0.67483 0.31335
 H427 H 0.28651 0.56238 0.39639
 H428 H 0.23200 0.68902 0.33432
 C429 C 0.24331 0.94215 0.91421
 C430 C 0.26328 0.92616 0.90015
 C431 C 0.25793 0.90245 0.87783
 N432 N 0.27651 0.88380 0.87370
 N433 N 0.27137 0.86169 0.85538
 C434 C 0.24749 0.85756 0.84026
 N435 N 0.22909 0.87637 0.84385
 N436 N 0.23417 0.89837 0.86236
 C437 C 0.24074 0.83286 0.82196
 C438 C 0.25655 0.81076 0.82392
 H439 H 0.28308 0.93005 0.90821
 H440 H 0.22177 0.83162 0.80864
 H441 H 0.22344 0.93727 0.90823
 H442 H 0.27576 0.81214 0.83622
 C443 C 0.75053 0.44735 0.42677
 C444 C 0.76964 0.42846 0.42132
 C445 C 0.76414 0.40503 0.39843
 N446 N 0.78068 0.38442 0.39960
 N447 N 0.77466 0.36241 0.38175
 C448 C 0.75187 0.36021 0.36218
 N449 N 0.73553 0.38091 0.36054
 N450 N 0.74154 0.40287 0.37837
 C451 C 0.74417 0.33576 0.34418
 C452 C 0.75985 0.31368 0.34544
 H453 H 0.78763 0.42947 0.43758
 H454 H 0.72550 0.33505 0.32977
 H455 H 0.73217 0.44551 0.41174
 H456 H 0.77894 0.31465 0.35836
 C457 C 0.04690 0.26903 0.89801
 C458 C 0.05577 0.24856 0.87435
 C459 C 0.07869 0.24984 0.84849
 N460 N 0.08519 0.22908 0.82588
 N461 N 0.10729 0.22840 0.80541
 C462 C 0.12383 0.24842 0.80694
 N463 N 0.11719 0.26938 0.82915
 N464 N 0.09500 0.27009 0.84961
 C465 C 0.14928 0.24676 0.78726
 C466 C 0.15714 0.22485 0.76609
 H467 H 0.04663 0.22993 0.87679
 H468 H 0.16275 0.26223 0.79185
 H469 H 0.05443 0.28821 0.89330
 H470 H 0.14422 0.20867 0.76414
 C471 C 0.55501 0.75536 0.42164
 C472 C 0.56284 0.73385 0.39963
 C473 C 0.58451 0.73490 0.37101
 N474 N 0.58898 0.71499 0.34563
 N475 N 0.60913 0.71525 0.32068
 C476 C 0.62563 0.73539 0.32027
 N477 N 0.62115 0.75531 0.34563
 N478 N 0.60090 0.75513 0.37041
 C479 C 0.64918 0.73485 0.29536
 C480 C 0.65371 0.71570 0.26700
 H481 H 0.55279 0.71580 0.40335
 H482 H 0.66426 0.74838 0.30208
 H483 H 0.56405 0.77377 0.41613
 H484 H 0.63888 0.70161 0.26185
 C485 C 0.95753 0.76491 0.91459
 C486 C 0.94008 0.74619 0.90326
 C487 C 0.91937 0.75264 0.87470
 N488 N 0.89941 0.73635 0.86954
 N489 N 0.87948 0.74323 0.84648
 C490 C 0.87885 0.76661 0.82776
 N491 N 0.89899 0.78266 0.83239
 N492 N 0.91885 0.77581 0.85541
 C493 C 0.85619 0.77563 0.80509
 C494 C 0.83424 0.76079 0.80065
 H495 H 0.94000 0.72762 0.91834
 H496 H 0.85628 0.79513 0.79314
 H497 H 0.95676 0.78375 0.90033
 H498 H 0.83442 0.74090 0.81086
 C499 C 0.45257 0.25443 0.40030
 C500 C 0.43251 0.23682 0.39926
 C501 C 0.40973 0.24148 0.37375
 N502 N 0.38876 0.22620 0.37722
 N503 N 0.36722 0.23172 0.35695
 C504 C 0.36586 0.25279 0.33255
 N505 N 0.38691 0.26785 0.32872
 N506 N 0.40841 0.26232 0.34891
 C507 C 0.34177 0.26045 0.31217
 C508 C 0.31928 0.24608 0.31455
 H509 H 0.43203 0.22110 0.42076
 H510 H 0.34151 0.27850 0.29557
 H511 H 0.45250 0.27052 0.37944
 H512 H 0.31970 0.22746 0.32946
 C513 C 0.78033 0.94780 0.93377
 C514 C 0.76121 0.93408 0.91438
 C515 C 0.76766 0.91344 0.88588
 N516 N 0.74893 0.89759 0.87280
 N517 N 0.75476 0.87806 0.84844
 C518 C 0.77952 0.87378 0.83612
 N519 N 0.79816 0.88984 0.84878
 N520 N 0.79235 0.90929 0.87324
 C521 C 0.78671 0.85144 0.81138
 C522 C 0.76936 0.83202 0.80237
 H523 H 0.74106 0.93759 0.92181
 H524 H 0.80670 0.84948 0.80195
 H525 H 0.80051 0.94371 0.92722
 H526 H 0.74925 0.83447 0.81080
 C527 C 0.27039 0.44673 0.40701
 C528 C 0.25097 0.43147 0.39131
 C529 C 0.25679 0.40782 0.36841
 N530 N 0.23755 0.39134 0.35950
 N531 N 0.24270 0.36929 0.34043
 C532 C 0.26730 0.36297 0.32938
 N533 N 0.28648 0.37958 0.33789
 N534 N 0.28134 0.40156 0.35708
 C535 C 0.27372 0.33813 0.31014
 C536 C 0.25573 0.31858 0.30526
 H537 H 0.23092 0.43603 0.39815
 H538 H 0.29362 0.33475 0.30115
 H539 H 0.29047 0.44164 0.40139
 H540 H 0.23574 0.32248 0.31319
 C541 C 0.23723 0.05000 0.90487
 C542 C 0.25525 0.06337 0.88188
 C543 C 0.24676 0.08391 0.85400
 N544 N 0.26337 0.10248 0.84206
 N545 N 0.25529 0.12197 0.81877
 C546 C 0.23034 0.12344 0.80633
 N547 N 0.21391 0.10460 0.81764
 N548 N 0.22193 0.08526 0.84113
 C549 C 0.22050 0.14541 0.78251
 C550 C 0.23416 0.16822 0.77757
 H551 H 0.27576 0.06020 0.88656
 H552 H 0.20120 0.14407 0.77045
 H553 H 0.21688 0.05479 0.90143
 H554 H 0.25357 0.16917 0.78927
 C555 C 0.75656 0.55514 0.42905
 C556 C 0.73567 0.56242 0.40528
 C557 C 0.73755 0.58355 0.37578
 N558 N 0.71870 0.58716 0.34823
 N559 N 0.71983 0.60668 0.32216
 C560 C 0.73982 0.62337 0.32271
 N561 N 0.75867 0.61974 0.35027
 N562 N 0.75763 0.60012 0.37617
 C563 C 0.74001 0.64637 0.29658
 C564 C 0.72182 0.65009 0.26650
 H565 H 0.71768 0.55211 0.40780
 H566 H 0.75285 0.66190 0.30403
 H567 H 0.77499 0.56439 0.42460
 H568 H 0.70848 0.63472 0.26035
 C569 C 0.06250 0.75193 0.93785
 C570 C 0.07451 0.77339 0.92104
 C571 C 0.09739 0.77137 0.89478
 N572 N 0.10518 0.79255 0.87429
 N573 N 0.12634 0.79161 0.85152
 C574 C 0.14064 0.76951 0.84847
 N575 N 0.13286 0.74819 0.86886
 N576 N 0.11153 0.74909 0.89150
 C577 C 0.16495 0.76992 0.82546
 C578 C 0.18371 0.75019 0.82665
 H579 H 0.06663 0.79257 0.92659
 H580 H 0.16933 0.78771 0.80981
 H581 H 0.06963 0.73274 0.93042
 H582 H 0.17920 0.73186 0.84053
 C583 C 0.56261 0.24108 0.43424
 C584 C 0.57483 0.25763 0.40757
 C585 C 0.60198 0.25334 0.39603
 N586 N 0.61119 0.26319 0.36120
 N587 N 0.63620 0.26084 0.35195
 C588 C 0.65294 0.24889 0.37749
 N589 N 0.64375 0.23919 0.41240
 N590 N 0.61869 0.24119 0.42136
 C591 C 0.68084 0.24867 0.36957
 C592 C 0.69083 0.24980 0.33099
 H593 H 0.56460 0.27447 0.39597
 H594 H 0.69390 0.24868 0.39475
 H595 H 0.57200 0.22297 0.44254
 H596 H 0.67831 0.24721 0.30557
 C597 C 0.93844 0.26142 0.91730
 C598 C 0.93047 0.24027 0.89532
 C599 C 0.90572 0.23977 0.87389
 N600 N 0.90013 0.21893 0.85146
 N601 N 0.87731 0.21720 0.83364
 C602 C 0.85913 0.23621 0.83760
 N603 N 0.86472 0.25724 0.85983
 N604 N 0.88764 0.25901 0.87760
 C605 C 0.83344 0.23255 0.82015
 C606 C 0.81240 0.24941 0.82583
 H607 H 0.94254 0.22297 0.89456
 H608 H 0.83045 0.21465 0.80436
 H609 H 0.92704 0.27916 0.91695
 H610 H 0.81518 0.26796 0.83974
 C611 C 0.44670 0.75036 0.42190
 C612 C 0.42854 0.77005 0.41511
 C613 C 0.40547 0.76530 0.39078
 N614 N 0.38519 0.78229 0.39108
 N615 N 0.36352 0.77705 0.37156
 C616 C 0.36139 0.75464 0.35100
 N617 N 0.38179 0.73788 0.35023
 N618 N 0.40338 0.74309 0.36976
 C619 C 0.33722 0.74757 0.33133
 C620 C 0.31485 0.76289 0.33304
 H621 H 0.42998 0.78819 0.43079
 H622 H 0.33680 0.72921 0.31602
 H623 H 0.44432 0.73186 0.40758
 H624 H 0.31546 0.78163 0.34709
 C625 C 0.26930 0.94901 0.07201
 C626 C 0.25075 0.94361 0.10113
 C627 C 0.25210 0.92089 0.12755
 N628 N 0.23309 0.91731 0.15498
 N629 N 0.23242 0.89577 0.17684
 C630 C 0.25070 0.87691 0.17201
 N631 N 0.26995 0.88061 0.14493
 N632 N 0.27065 0.90222 0.12307
 C633 C 0.24867 0.85206 0.19333
 C634 C 0.22776 0.84681 0.21841
 H635 H 0.23351 0.95573 0.10311
 H636 H 0.26259 0.83684 0.18645
 H637 H 0.28731 0.93807 0.07098
 H638 H 0.21293 0.86155 0.22289
 C639 C 0.75550 0.44326 0.58949
 C640 C 0.73359 0.43312 0.60765
 C641 C 0.73505 0.40957 0.63257
 N642 N 0.71432 0.40235 0.65471
 N643 N 0.71509 0.38054 0.67608
 C644 C 0.73656 0.36504 0.67597
 N645 N 0.75728 0.37225 0.65381
 N646 N 0.75658 0.39415 0.63264
 C647 C 0.73695 0.33999 0.69715
 C648 C 0.71716 0.33295 0.72320
 H649 H 0.71492 0.44243 0.60315
 H650 H 0.75216 0.32612 0.68991
 H651 H 0.77427 0.43462 0.59576
 H652 H 0.70148 0.34663 0.72873
 C653 C 0.74968 0.05102 0.09964
 C654 C 0.76899 0.06042 0.12413
 C655 C 0.76595 0.08440 0.14704
 N656 N 0.78505 0.09148 0.17203
 N657 N 0.78384 0.11414 0.19052
 C658 C 0.76356 0.13069 0.18457
 N659 N 0.74431 0.12353 0.15982
 N660 N 0.74546 0.10077 0.14142
 C661 C 0.76331 0.15669 0.20221
 C662 C 0.78302 0.16444 0.22739
 H663 H 0.78766 0.05064 0.12490
 H664 H 0.74857 0.17053 0.19287
 H665 H 0.73052 0.05977 0.10029
 H666 H 0.79847 0.15084 0.23464
 C667 C 0.24074 0.55704 0.56288
 C668 C 0.25846 0.56336 0.59226
 C669 C 0.25426 0.58488 0.62019
 N670 N 0.27055 0.58766 0.65137
 N671 N 0.26818 0.60786 0.67558
 C672 C 0.24945 0.62616 0.66951
 N673 N 0.23302 0.62331 0.63843
 N674 N 0.23530 0.60298 0.61431
 C675 C 0.24865 0.65000 0.69341
 C676 C 0.26549 0.65343 0.72521
 H677 H 0.27628 0.55218 0.59485
 H678 H 0.23706 0.66622 0.68276
 H679 H 0.22215 0.56695 0.56173
 H680 H 0.27762 0.63729 0.73471
 C681 C 0.94103 0.76404 0.07688
 C682 C 0.92503 0.74326 0.08556
 C683 C 0.90056 0.74659 0.10795
 N684 N 0.88354 0.72694 0.11030
 N685 N 0.86095 0.73006 0.12923
 C686 C 0.85463 0.75293 0.14673
 N687 N 0.87177 0.77245 0.14473
 N688 N 0.89427 0.76936 0.12569
 C689 C 0.82932 0.75746 0.16605
 C690 C 0.80918 0.73982 0.16499
 H691 H 0.92990 0.72429 0.07401
 H692 H 0.82602 0.77607 0.17994
 H693 H 0.93564 0.78318 0.08721
 H694 H 0.81279 0.72087 0.15250
 C695 C 0.43674 0.27612 0.55630
 C696 C 0.42172 0.25673 0.57314
 C697 C 0.39721 0.26210 0.59399
 N698 N 0.38179 0.24222 0.60450
 N699 N 0.35910 0.24667 0.62232
 C700 C 0.35105 0.27118 0.63048
 N701 N 0.36660 0.29105 0.62037
 N702 N 0.38927 0.28661 0.60237
 C703 C 0.32561 0.27645 0.64862
 C704 C 0.30726 0.25721 0.65351
 H705 H 0.42751 0.23667 0.56943
 H706 H 0.32093 0.29616 0.65697
 H707 H 0.43077 0.29619 0.55900
 H708 H 0.31249 0.23756 0.64566
 C709 C 0.05920 0.25506 0.05973
 C710 C 0.06723 0.23191 0.07747
 C711 C 0.08827 0.23027 0.10679
 N712 N 0.09161 0.20830 0.12852
 N713 N 0.11090 0.20599 0.15448
 C714 C 0.12769 0.22550 0.15959
 N715 N 0.12438 0.24760 0.13793
 N716 N 0.10492 0.24998 0.11210
 C717 C 0.14987 0.22139 0.18627
 C718 C 0.17125 0.23748 0.18704
 H719 H 0.05708 0.21434 0.07077
 H720 H 0.15054 0.20344 0.20307
 H721 H 0.06806 0.27299 0.06828
 H722 H 0.17039 0.25602 0.17192
 C723 C 0.55516 0.74968 0.58527
 C724 C 0.57314 0.76907 0.59064
 C725 C 0.59721 0.76376 0.61286
 N726 N 0.61672 0.78097 0.61212
 N727 N 0.63927 0.77527 0.62951
 C728 C 0.64308 0.75214 0.64824
 N729 N 0.62347 0.73515 0.64942
 N730 N 0.60099 0.74083 0.63207
 C731 C 0.66820 0.74453 0.66533
 C732 C 0.68964 0.76044 0.66481
 H733 H 0.57080 0.78738 0.57511
 H734 H 0.67009 0.72525 0.67794
 H735 H 0.55829 0.73108 0.59961
 H736 H 0.68769 0.78014 0.65404
   
