data_POSCAR
  _audit_creation_date              2014-09-24
  _audit_creation_method            'ToBaCCo'
  _symmetry_space_group_name_H-M    'P1'
  _symmetry_Int_Tables_number       1
  _symmetry_cell_setting            triclinic
  loop_
  _symmetry_equiv_pos_as_xyz
 x,y,z
_cell_length_a 23.7640
_cell_length_b 24.3815
_cell_length_c 25.2336
_cell_angle_alpha 90.120800
_cell_angle_beta 90.039000
_cell_angle_gamma 89.915100
loop_
  _atom_site_label
  _atom_site_type_symbol
  _atom_site_fract_x
  _atom_site_fract_y
  _atom_site_fract_z
N1 N 0.33678 0.21722 0.18337
 N2 N 0.31545 0.26291 0.16428
 C3 C 0.34421 0.27725 0.12046
 C4 C 0.38478 0.23786 0.11114
 C5 C 0.37888 0.20021 0.15158
 H6 H 0.33625 0.31340 0.09684
 H7 H 0.40459 0.16425 0.15832
 Cu8 Cu 0.25148 0.29854 0.19794
 Cu9 Cu 0.31095 0.18558 0.25003
 Cu10 Cu 0.19722 0.24896 0.31100
 N11 N 0.18638 0.33239 0.23140
 N12 N 0.16704 0.31433 0.27695
 C13 C 0.12394 0.34638 0.29263
 C14 C 0.11527 0.38587 0.25435
 C15 C 0.15529 0.37577 0.21591
 H16 H 0.09983 0.34069 0.32853
 H17 H 0.16160 0.39883 0.17984
 N18 N 0.23356 0.18248 0.33936
 N19 N 0.27857 0.15992 0.31764
 C20 C 0.29512 0.11717 0.34770
 C21 C 0.25799 0.11204 0.38944
 C22 C 0.21934 0.15372 0.38287
 H23 H 0.33055 0.09069 0.33922
 H24 H 0.18398 0.16270 0.40842
 H25 H 0.22901 0.21294 0.24296
 H26 H 0.27826 0.25680 0.28206
 N27 N 0.66783 -0.21465 0.17846
 N28 N 0.68558 -0.26288 0.16206
 C29 C 0.65425 -0.27895 0.12033
 C30 C 0.61646 -0.23749 0.10878
 C31 C 0.62662 -0.19697 0.14601
 H32 H 0.65930 -0.31726 0.09916
 H33 H 0.60327 -0.15922 0.15116
 Cu34 Cu 0.75040 -0.29786 0.19480
 Cu35 Cu 0.69254 -0.18349 0.24582
 Cu36 Cu 0.79907 -0.25309 0.31200
 N37 N 0.81359 -0.33331 0.22982
 N38 N 0.82841 -0.31906 0.27813
 C39 C 0.86975 -0.35258 0.29501
 C40 C 0.88293 -0.38831 0.25425
 C41 C 0.84679 -0.37480 0.21330
 H42 H 0.89078 -0.34929 0.33292
 H43 H 0.84418 -0.39451 0.17494
 N44 N 0.76446 -0.18522 0.33931
 N45 N 0.72293 -0.15951 0.31490
 C46 C 0.70730 -0.11583 0.34428
 C47 C 0.74162 -0.11338 0.38834
 C48 C 0.77759 -0.15754 0.38389
 H49 H 0.67445 -0.08707 0.33389
 H50 H 0.81049 -0.16878 0.41144
 H51 H 0.77364 -0.21425 0.24331
 H52 H 0.71971 -0.25666 0.27794
 N53 N 0.66563 0.21810 0.81718
 N54 N 0.68791 0.26285 0.83743
 C55 C 0.65888 0.27721 0.88121
 C56 C 0.61722 0.23863 0.88924
 C57 C 0.62282 0.20157 0.84816
 H58 H 0.66717 0.31293 0.90544
 H59 H 0.59622 0.16652 0.84029
 Cu60 Cu 0.75220 0.29751 0.80346
 Cu61 Cu 0.69035 0.18741 0.74960
 Cu62 Cu 0.80051 0.25402 0.68598
 N63 N 0.81592 0.33309 0.76944
 N64 N 0.83050 0.31947 0.72087
 C65 C 0.87125 0.35363 0.70406
 C66 C 0.88424 0.38920 0.74507
 C67 C 0.84867 0.37478 0.78612
 H68 H 0.89181 0.35109 0.66590
 H69 H 0.84591 0.39429 0.82457
 N70 N 0.76470 0.18680 0.65788
 N71 N 0.72136 0.16284 0.68102
 C72 C 0.70565 0.11911 0.65183
 C73 C 0.74168 0.11461 0.60924
 C74 C 0.77877 0.15782 0.61428
 H75 H 0.67177 0.09137 0.66162
 H76 H 0.81321 0.16742 0.58791
 H77 H 0.77284 0.21446 0.75334
 H78 H 0.72126 0.25973 0.71886
 N79 N 0.33545 -0.21765 0.81844
 N80 N 0.31285 -0.26198 0.83901
 C81 C 0.34211 -0.27625 0.88267
 C82 C 0.38428 -0.23807 0.89031
 C83 C 0.37872 -0.20130 0.84911
 H84 H 0.33358 -0.31164 0.90713
 H85 H 0.40562 -0.16659 0.84096
 Cu86 Cu 0.24777 -0.29682 0.80613
 Cu87 Cu 0.31053 -0.18737 0.75093
 Cu88 Cu 0.19909 -0.25281 0.68857
 N89 N 0.18277 -0.33082 0.77228
 N90 N 0.16827 -0.31726 0.72373
 C91 C 0.12706 -0.35093 0.70693
 C92 C 0.11365 -0.38619 0.74786
 C93 C 0.14943 -0.37206 0.78896
 H94 H 0.10668 -0.34845 0.66866
 H95 H 0.15224 -0.39169 0.82728
 N96 N 0.23552 -0.18660 0.65975
 N97 N 0.27936 -0.16295 0.68243
 C98 C 0.29535 -0.11975 0.65280
 C99 C 0.25899 -0.11534 0.61037
 C100 C 0.22141 -0.15802 0.61602
 H101 H 0.32964 -0.09229 0.66221
 H102 H 0.18656 -0.16749 0.59001
 H103 H 0.22791 -0.21361 0.75606
 H104 H 0.27857 -0.25982 0.72119
 N105 N 0.66644 -0.21408 0.81844
 N106 N 0.68920 -0.25847 0.83886
 C107 C 0.66031 -0.27274 0.88257
 C108 C 0.61824 -0.23453 0.89039
 C109 C 0.62338 -0.19765 0.84931
 H110 H 0.66875 -0.30842 0.90671
 H111 H 0.59611 -0.16313 0.84113
 Cu112 Cu 0.75319 -0.29420 0.80546
 Cu113 Cu 0.69038 -0.18454 0.75053
 Cu114 Cu 0.79996 -0.25194 0.68687
 N115 N 0.81707 -0.32902 0.77100
 N116 N 0.83064 -0.31641 0.72202
 C117 C 0.87119 -0.35079 0.70501
 C118 C 0.88506 -0.38544 0.74630
 C119 C 0.85033 -0.37029 0.78776
 H120 H 0.89091 -0.34909 0.66643
 H121 H 0.84820 -0.38922 0.82643
 N122 N 0.76374 -0.18553 0.65839
 N123 N 0.72061 -0.16112 0.68159
 C124 C 0.70473 -0.11776 0.65213
 C125 C 0.74051 -0.11409 0.60933
 C126 C 0.77757 -0.15730 0.61448
 H127 H 0.67106 -0.08966 0.66195
 H128 H 0.81194 -0.16729 0.58809
 H129 H 0.72104 -0.25765 0.72083
 H130 H 0.77288 -0.21177 0.75450
 N131 N 0.33615 0.21792 0.81648
 N132 N 0.31407 0.26290 0.83650
 C133 C 0.34329 0.27744 0.88006
 C134 C 0.38487 0.23879 0.88818
 C135 C 0.37913 0.20146 0.84738
 H136 H 0.33482 0.31306 0.90440
 H137 H 0.40542 0.16603 0.83989
 Cu138 Cu 0.24838 0.29712 0.80459
 Cu139 Cu 0.31017 0.18633 0.75001
 Cu140 Cu 0.19627 0.24938 0.68946
 N141 N 0.18460 0.33196 0.77001
 N142 N 0.16618 0.31468 0.72375
 C143 C 0.12381 0.34734 0.70762
 C144 C 0.11467 0.38642 0.74631
 C145 C 0.15365 0.37548 0.78547
 H146 H 0.10043 0.34229 0.67114
 H147 H 0.15934 0.39804 0.82202
 N148 N 0.23261 0.18294 0.66098
 N149 N 0.27773 0.16057 0.68263
 C150 C 0.29431 0.11771 0.65267
 C151 C 0.25708 0.11229 0.61108
 C152 C 0.21833 0.15391 0.61754
 H153 H 0.32980 0.09134 0.66115
 H154 H 0.18287 0.16264 0.59203
 H155 H 0.27670 0.25809 0.71972
 H156 H 0.22767 0.21237 0.75693
 N157 N 0.33901 -0.22036 0.18452
 N158 N 0.31719 -0.26546 0.16456
 C159 C 0.34629 -0.27985 0.12087
 C160 C 0.38746 -0.24096 0.11265
 C161 C 0.38165 -0.20369 0.15347
 H162 H 0.33777 -0.31531 0.09635
 H163 H 0.40749 -0.16797 0.16073
 Cu164 Cu 0.25157 -0.29941 0.19648
 Cu165 Cu 0.31290 -0.18843 0.25084
 Cu166 Cu 0.19754 -0.24982 0.30991
 N167 N 0.18598 -0.33243 0.22940
 N168 N 0.16686 -0.31431 0.27509
 C169 C 0.12355 -0.34584 0.29063
 C170 C 0.11447 -0.38503 0.25213
 C171 C 0.15448 -0.37540 0.21365
 H172 H 0.09972 -0.34015 0.32674
 H173 H 0.16072 -0.39865 0.17758
 N174 N 0.23448 -0.18428 0.33905
 N175 N 0.28010 -0.16243 0.31801
 C176 C 0.29674 -0.11990 0.34836
 C177 C 0.25903 -0.11425 0.38953
 C178 C 0.21998 -0.15531 0.38242
 H179 H 0.33255 -0.09389 0.34038
 H180 H 0.18405 -0.16363 0.40739
 H181 H 0.27858 -0.25939 0.28132
 H182 H 0.23055 -0.21386 0.24257
 N183 N 0.66320 0.21718 0.18330
 N184 N 0.68452 0.26276 0.16415
 C185 C 0.65571 0.27716 0.12038
 C186 C 0.61517 0.23786 0.11122
 C187 C 0.62107 0.20023 0.15161
 H188 H 0.66361 0.31325 0.09671
 H189 H 0.59534 0.16437 0.15839
 Cu190 Cu 0.74848 0.29807 0.19761
 Cu191 Cu 0.68884 0.18562 0.24986
 Cu192 Cu 0.80164 0.24952 0.31160
 N193 N 0.81240 0.33254 0.23194
 N194 N 0.83126 0.31492 0.27786
 C195 C 0.87393 0.34719 0.29388
 C196 C 0.88274 0.38630 0.25538
 C197 C 0.84334 0.37585 0.21652
 H198 H 0.89782 0.34172 0.32998
 H199 H 0.83751 0.39848 0.18012
 N200 N 0.76577 0.18296 0.33943
 N201 N 0.72108 0.16020 0.31739
 C202 C 0.70474 0.11731 0.34717
 C203 C 0.74173 0.11236 0.38898
 C204 C 0.78004 0.15419 0.38289
 H205 H 0.66959 0.09066 0.33844
 H206 H 0.81517 0.16328 0.40870
 H207 H 0.72091 0.25720 0.28165
 H208 H 0.77079 0.21296 0.24347
 O209 O 0.30497 0.05197 0.44836
 O210 O 0.30534 -0.05403 0.55244
 O211 O 0.30544 -0.05380 0.44834
 O212 O 0.30435 0.05205 0.55261
 O213 O 0.21134 0.05231 0.55155
 O214 O 0.21242 -0.05487 0.44893
 O215 O 0.21234 -0.05539 0.55122
 O216 O 0.21196 0.05246 0.44910
 Cu217 Cu 0.31441 -0.00087 0.50053
 Cu218 Cu 0.20267 -0.00139 0.50023
 C219 C 0.25836 0.07015 0.43106
 C220 C 0.25890 -0.07289 0.56927
 C221 C 0.25903 -0.07228 0.43101
 C222 C 0.25764 0.07020 0.56965
 O223 O 0.78806 0.05372 0.55068
 O224 O 0.78786 -0.05434 0.44847
 O225 O 0.78779 0.05290 0.44848
 O226 O 0.78727 -0.05419 0.55077
 O227 O 0.69425 -0.05303 0.55129
 O228 O 0.69474 0.05258 0.44747
 O229 O 0.69484 -0.05296 0.44712
 O230 O 0.69505 0.05317 0.55141
 Cu231 Cu 0.79712 -0.00055 0.49974
 Cu232 Cu 0.68532 -0.00006 0.49943
 C233 C 0.74160 0.07178 0.56838
 C234 C 0.74138 -0.07156 0.43008
 C235 C 0.74137 0.07060 0.43039
 C236 C 0.74067 -0.07173 0.56840
 O237 O 0.44506 0.28314 0.05101
 O238 O 0.55578 0.28375 -0.05113
 O239 O 0.44538 0.28373 -0.05161
 O240 O 0.55496 0.28318 0.05124
 O241 O 0.55431 0.19250 0.05157
 O242 O 0.44627 0.19308 -0.05291
 O243 O 0.55502 0.19310 -0.05246
 O244 O 0.44596 0.19249 0.05136
 Cu245 Cu 0.50023 0.29257 -0.00014
 Cu246 Cu 0.50036 0.18364 -0.00076
 C247 C 0.42722 0.23778 0.06897
 C248 C 0.57403 0.23850 -0.06927
 C249 C 0.42750 0.23850 -0.06996
 C250 C 0.57285 0.23780 0.06917
 O251 O 0.55394 0.80764 0.05441
 O252 O 0.44661 0.80739 -0.05117
 O253 O 0.44620 0.80608 0.05282
 O254 O 0.55571 0.80928 -0.05011
 O255 O 0.55659 0.71863 -0.05235
 O256 O 0.44885 0.71543 0.05211
 O257 O 0.44621 0.71676 -0.05060
 O258 O 0.55953 0.71736 0.04924
 Cu259 Cu 0.50048 0.81675 0.00143
 Cu260 Cu 0.50280 0.70792 -0.00054
 C261 C 0.57540 0.76253 0.06945
 C262 C 0.42771 0.76202 -0.06834
 C263 C 0.42943 0.76019 0.07031
 C264 C 0.57473 0.76449 -0.06864
 O265 O 0.05309 0.44676 0.29798
 O266 O -0.05441 0.55564 0.29780
 O267 O -0.05557 0.44785 0.29842
 O268 O 0.05384 0.55415 0.29666
 O269 O 0.05236 0.55373 0.20906
 O270 O -0.05579 0.44621 0.21080
 O271 O -0.05856 0.55148 0.21043
 O272 O 0.05409 0.44745 0.21040
 Cu273 Cu -0.00069 0.50119 0.30655
 Cu274 Cu -0.00191 0.49976 0.20132
 C275 C 0.07209 0.42886 0.25423
 C276 C -0.07536 0.57159 0.25414
 C277 C -0.07410 0.42890 0.25490
 C278 C 0.07150 0.57212 0.25257
 O279 O 0.05502 0.55318 0.79097
 O280 O -0.05794 0.44945 0.78947
 O281 O 0.05256 0.44719 0.79011
 O282 O -0.05624 0.55479 0.79009
 O283 O -0.05510 0.55570 0.70257
 O284 O 0.05422 0.44865 0.70255
 O285 O -0.05427 0.44709 0.70206
 O286 O 0.05272 0.55654 0.70356
 Cu287 Cu -0.00164 0.50119 0.79895
 Cu288 Cu -0.00063 0.50198 0.69389
 C289 C 0.07252 0.57313 0.74751
 C290 C -0.07472 0.42997 0.74551
 C291 C 0.07178 0.42961 0.74633
 C292 C -0.07415 0.57363 0.74632
   
