data_POSCAR
  _audit_creation_date              2014-09-24
  _audit_creation_method            'ToBaCCo'
  _symmetry_space_group_name_H-M    'P1'
  _symmetry_Int_Tables_number       1
  _symmetry_cell_setting            triclinic
  loop_
  _symmetry_equiv_pos_as_xyz
 x,y,z
_cell_length_a 35.2787
_cell_length_b 36.1243
_cell_length_c 27.5549
_cell_angle_alpha 90.367200
_cell_angle_beta 89.367200
_cell_angle_gamma 122.093400
loop_
  _atom_site_label
  _atom_site_type_symbol
  _atom_site_fract_x
  _atom_site_fract_y
  _atom_site_fract_z
C1 C 0.10820 0.59153 0.09343
 C2 C 0.11294 0.55629 0.09526
 C3 C 0.08100 0.52478 0.06463
 N4 N 0.05673 0.53964 0.04438
 C5 C 0.07363 0.58064 0.06157
 C6 C 0.07332 0.48235 0.05833
 C7 C 0.04229 0.45117 0.02517
 C8 C 0.02810 0.40723 0.02476
 C9 C -0.00285 0.38789 -0.01167
 C10 C -0.00590 0.42075 -0.03337
 N11 N 0.02228 0.45928 -0.01120
 C12 C -0.03350 0.41496 -0.07319
 C13 C -0.03700 0.44914 -0.09225
 C14 C -0.04933 0.45044 -0.13946
 C15 C -0.05270 0.48638 -0.14247
 C16 C -0.04335 0.50524 -0.09666
 N17 N -0.03300 0.48280 -0.06612
 C18 C -0.04725 0.54089 -0.08283
 C19 C -0.02475 0.56676 -0.04153
 C20 C -0.03375 0.59581 -0.01899
 C21 C -0.00406 0.61481 0.01852
 C22 C 0.02154 0.59611 0.01880
 N23 N 0.00900 0.56711 -0.01805
 C24 C 0.05651 0.60741 0.05165
 H25 H 0.12756 0.62149 0.11392
 H26 H 0.13682 0.55395 0.11724
 H27 H 0.02540 0.55160 -0.02927
 H28 H 0.03869 0.39065 0.04837
 H29 H -0.02076 0.35361 -0.02129
 H30 H -0.05563 0.42752 -0.16843
 H31 H -0.06182 0.49702 -0.17449
 H32 H -0.00214 0.63907 0.04336
 H33 H 0.02973 0.48980 -0.02251
 H34 H -0.05937 0.60239 -0.02801
 C35 C 0.41625 0.52053 0.09418
 C36 C 0.45357 0.56191 0.09517
 C37 C 0.48659 0.56064 0.06878
 N38 N 0.47059 0.51955 0.05219
 C39 C 0.42754 0.49505 0.06749
 C40 C 0.53169 0.59593 0.06440
 C41 C 0.56434 0.59313 0.03711
 C42 C 0.61041 0.62135 0.04083
 C43 C 0.62980 0.60764 0.00751
 C44 C 0.59511 0.57216 -0.01640
 N45 N 0.55546 0.56382 0.00148
 C46 C 0.60012 0.54985 -0.05562
 C47 C 0.56360 0.51216 -0.07604
 C48 C 0.56283 0.49764 -0.12284
 C49 C 0.52416 0.45748 -0.12644
 C50 C 0.50349 0.44838 -0.08118
 N51 N 0.52727 0.48223 -0.05060
 C52 C 0.46545 0.40796 -0.06721
 C53 C 0.43819 0.40531 -0.02747
 C54 C 0.40684 0.36720 -0.00368
 C55 C 0.38826 0.37906 0.03263
 C56 C 0.40922 0.42414 0.03059
 N57 N 0.43923 0.43986 -0.00639
 C58 C 0.39945 0.44922 0.06182
 H59 H 0.38467 0.51016 0.11206
 H60 H 0.45620 0.58929 0.11455
 H61 H 0.45690 0.47195 -0.01886
 H62 H 0.62860 0.64900 0.06484
 H63 H 0.66533 0.62269 0.00105
 H64 H 0.58786 0.51418 -0.15108
 H65 H 0.51313 0.43670 -0.15825
 H66 H 0.36280 0.35703 0.05824
 H67 H 0.52418 0.54210 -0.01313
 H68 H 0.39873 0.33431 -0.01091
 C69 C 0.42330 0.90063 0.09749
 C70 C 0.46002 0.89703 0.10023
 C71 C 0.49527 0.93418 0.07860
 N72 N 0.48114 0.96001 0.06213
 C73 C 0.43722 0.93958 0.07377
 C74 C 0.54048 0.94604 0.07871
 C75 C 0.57366 0.98047 0.04969
 C76 C 0.61951 1.00078 0.05588
 C77 C 0.63976 1.03167 0.01975
 C78 C 0.60571 1.02936 -0.00733
 N79 N 0.56561 0.99783 0.01078
 C80 C 0.61189 1.05454 -0.04891
 C81 C 0.57697 1.05672 -0.07005
 C82 C 0.57801 1.07115 -0.11674
 C83 C 0.54026 1.07268 -0.12151
 C84 C 0.51832 1.06076 -0.07693
 N85 N 0.54046 1.05024 -0.04570
 C86 C 0.48005 1.06223 -0.06449
 C87 C 0.45315 1.03932 -0.02356
 C88 C 0.42312 1.04757 -0.00060
 C89 C 0.40362 1.01802 0.03674
 C90 C 0.42267 0.99294 0.03602
 N91 N 0.45266 1.00594 -0.00088
 C92 C 0.41080 0.95784 0.06772
 H93 H 0.39027 0.87754 0.11187
 H94 H 0.46083 0.87047 0.11704
 H95 H 0.46887 0.99033 -0.01254
 H96 H 0.63668 0.99437 0.08371
 H97 H 0.67544 1.05334 0.01410
 H98 H 0.60345 1.07985 -0.14437
 H99 H 0.53052 1.08225 -0.15390
 H100 H 0.37860 1.01560 0.06187
 H101 H 0.53465 0.98631 -0.00513
 H102 H 0.41636 1.07267 -0.00927
 C103 C 0.91898 0.44247 0.61665
 C104 C 0.91774 0.47988 0.61646
 C105 C 0.93412 0.49929 0.57158
 N106 N 0.94562 0.47533 0.54453
 C107 C 0.93601 0.44041 0.57185
 C108 C 0.93416 0.53588 0.55390
 C109 C 0.95973 0.55962 0.51306
 C110 C 0.95380 0.58844 0.48614
 C111 C 0.98716 0.60600 0.45115
 C112 C 1.01300 0.58808 0.45867
 N113 N 0.99583 0.55978 0.49627
 C114 C 1.05190 0.59762 0.43261
 C115 C 1.06964 0.57103 0.43900
 C116 C 1.11477 0.58582 0.43776
 C117 C 1.11751 0.54953 0.44089
 C118 C 1.07386 0.51380 0.44241
 N119 N 1.04452 0.52705 0.44251
 C120 C 1.06079 0.46947 0.43822
 C121 C 1.02069 0.43749 0.46201
 C122 C 0.99555 0.39283 0.45296
 C123 C 0.96106 0.37466 0.48668
 C124 C 0.96526 0.40886 0.51418
 N125 N 1.00139 0.44680 0.49891
 C126 C 0.93824 0.40482 0.55440
 H127 H 0.90749 0.41882 0.64578
 H128 H 0.90509 0.49093 0.64540
 H129 H 1.01463 0.47707 0.51591
 H130 H 0.92791 0.59569 0.49093
 H131 H 0.99151 0.62902 0.42340
 H132 H 1.14262 0.61930 0.43474
 H133 H 1.14808 0.54933 0.44072
 H134 H 0.93545 0.34034 0.49011
 H135 H 1.01034 0.54428 0.51245
 H136 H 1.00067 0.37500 0.42468
 C137 C 0.52102 0.42593 0.60987
 C138 C 0.55993 0.46616 0.60874
 C139 C 0.55317 0.49173 0.57697
 N140 N 0.51114 0.46847 0.55925
 C141 C 0.49168 0.42797 0.57860
 C142 C 0.58494 0.53635 0.56700
 C143 C 0.57701 0.56233 0.53561
 C144 C 0.60260 0.60762 0.53371
 C145 C 0.58518 0.62012 0.49750
 C146 C 0.54983 0.58213 0.47770
 N147 N 0.54532 0.54710 0.50095
 C148 C 0.52462 0.58070 0.43733
 C149 C 0.48588 0.54219 0.42103
 C150 C 0.46455 0.53812 0.37759
 C151 C 0.42601 0.49748 0.37793
 C152 C 0.42534 0.47801 0.42141
 N153 N 0.46191 0.50542 0.44764
 C154 C 0.38925 0.43760 0.43837
 C155 C 0.39163 0.41560 0.47929
 C156 C 0.35528 0.37894 0.50031
 C157 C 0.37176 0.36613 0.53721
 C158 C 0.41766 0.39556 0.53802
 N159 N 0.42955 0.42523 0.50218
 C160 C 0.44725 0.39316 0.57007
 H161 H 0.51491 0.39845 0.63172
 H162 H 0.58944 0.47563 0.62981
 H163 H 0.46198 0.44770 0.49076
 H164 H 0.63096 0.62957 0.55595
 H165 H 0.59767 0.65341 0.48650
 H166 H 0.47511 0.56236 0.34923
 H167 H 0.40086 0.48419 0.34991
 H168 H 0.35209 0.33832 0.56082
 H169 H 0.52527 0.51474 0.49024
 H170 H 0.32055 0.36276 0.48982
 C171 C 0.53336 0.10423 0.59443
 C172 C 0.57189 0.10374 0.59665
 C173 C 0.56295 0.06543 0.57429
 N174 N 0.52041 0.04279 0.55792
 C175 C 0.50229 0.06647 0.57033
 C176 C 0.59207 0.04966 0.57410
 C177 C 0.58479 0.01409 0.54505
 C178 C 0.60559 -0.00909 0.55128
 C179 C 0.58950 -0.04076 0.51579
 C180 C 0.55955 -0.03586 0.48869
 N181 N 0.55720 -0.00213 0.50652
 C182 C 0.53491 -0.06209 0.44872
 C183 C 0.49895 -0.06046 0.42943
 C184 C 0.48410 -0.07129 0.38207
 C185 C 0.44569 -0.07077 0.37952
 C186 C 0.43856 -0.05944 0.42537
 N187 N 0.47155 -0.05244 0.45580
 C188 C 0.39990 -0.05961 0.43973
 C189 C 0.40143 -0.03298 0.47859
 C190 C 0.36462 -0.03682 0.50244
 C191 C 0.38094 -0.00499 0.53769
 C192 C 0.42719 0.01690 0.53499
 N193 N 0.43944 0.00005 0.49859
 C194 C 0.45675 0.05212 0.56506
 H195 H 0.52845 0.12909 0.60968
 H196 H 0.60266 0.12830 0.61379
 H197 H 0.47194 0.01247 0.48588
 H198 H 0.62925 -0.00427 0.57904
 H199 H 0.59830 -0.06507 0.51111
 H200 H 0.49891 -0.07976 0.35285
 H201 H 0.42491 -0.07847 0.34782
 H202 H 0.36098 0.00075 0.56310
 H203 H 0.54009 0.01101 0.49103
 H204 H 0.32960 -0.06054 0.49608
 O205 O 0.15446 0.39705 0.20181
 O206 O 0.21789 0.37861 0.29441
 O207 O 0.15289 0.39258 0.29617
 O208 O 0.21864 0.37907 0.19973
 O209 O 0.27148 0.44894 0.20678
 O210 O 0.20059 0.46395 0.29166
 O211 O 0.26447 0.45014 0.29964
 O212 O 0.20886 0.46664 0.19826
 Cu213 Cu 0.18083 0.37950 0.24724
 Cu214 Cu 0.24137 0.46453 0.24884
 C215 C 0.17108 0.43524 0.18452
 C216 C 0.25133 0.41179 0.31375
 C217 C 0.16545 0.43116 0.30943
 C218 C 0.25723 0.41143 0.18891
 O219 O 0.59644 0.83076 0.31215
 O220 O 0.59684 0.76244 0.21213
 O221 O 0.59987 0.83671 0.21773
 O222 O 0.59444 0.75727 0.30553
 O223 O 0.52062 0.72033 0.30233
 O224 O 0.52606 0.80238 0.21959
 O225 O 0.52326 0.72870 0.20746
 O226 O 0.52258 0.79198 0.31168
 Cu227 Cu 0.60439 0.80051 0.26188
 Cu228 Cu 0.51569 0.75690 0.25959
 C229 C 0.55911 0.82267 0.32911
 C230 C 0.56007 0.73396 0.19293
 C231 C 0.56385 0.83382 0.20520
 C232 C 0.55650 0.72525 0.31877
 O233 O 0.22715 0.85562 0.20534
 O234 O 0.15123 0.77058 0.29323
 O235 O 0.22791 0.84351 0.29858
 O236 O 0.15028 0.77859 0.19947
 O237 O 0.19003 0.74885 0.18405
 O238 O 0.26101 0.80653 0.28810
 O239 O 0.18485 0.73497 0.27625
 O240 O 0.26522 0.82322 0.19678
 Cu241 Cu 0.18549 0.81573 0.24973
 Cu242 Cu 0.22886 0.77505 0.23480
 C243 C 0.26005 0.85462 0.18785
 C244 C 0.15508 0.73791 0.29912
 C245 C 0.25713 0.83500 0.31089
 C246 C 0.15693 0.75239 0.17534
 O247 O 0.77005 0.61026 0.80003
 O248 O 0.83551 0.60587 0.69711
 O249 O 0.76395 0.61076 0.70497
 O250 O 0.84077 0.60450 0.79040
 O251 O 0.79770 0.53254 0.78797
 O252 O 0.72158 0.53863 0.70415
 O253 O 0.79135 0.53396 0.69518
 O254 O 0.72822 0.53818 0.79926
 Cu255 Cu 0.80662 0.61521 0.74822
 Cu256 Cu 0.75502 0.52865 0.74677
 C257 C 0.73854 0.57459 0.81786
 C258 C 0.82477 0.56914 0.67895
 C259 C 0.73029 0.57551 0.68930
 C260 C 0.83247 0.56707 0.80298
 O261 O 0.40372 0.15963 0.80515
 O262 O 0.38795 0.22406 0.71301
 O263 O 0.38898 0.15162 0.71276
 O264 O 0.39926 0.23010 0.80589
 O265 O 0.47213 0.26969 0.79217
 O266 O 0.46222 0.19078 0.70057
 O267 O 0.46083 0.26205 0.69865
 O268 O 0.47672 0.20038 0.79266
 Cu269 Cu 0.38757 0.18735 0.76045
 Cu270 Cu 0.47526 0.23481 0.74469
 C271 C 0.44313 0.16891 0.81415
 C272 C 0.42194 0.25415 0.69040
 C273 C 0.42393 0.15744 0.69172
 C274 C 0.43752 0.26364 0.81441
 O275 O 0.77314 0.15761 0.70926
 O276 O 0.85558 0.23952 0.79472
 O277 O 0.78172 0.16296 0.80353
 O278 O 0.84626 0.23563 0.70084
 O279 O 0.80311 0.26280 0.70329
 O280 O 0.74491 0.19671 0.81081
 O281 O 0.81612 0.27069 0.79784
 O282 O 0.73093 0.18543 0.71952
 Cu283 Cu 0.81825 0.19585 0.75125
 Cu284 Cu 0.77010 0.23241 0.75763
 C285 C 0.73728 0.15677 0.70144
 C286 C 0.84936 0.26880 0.81127
 C287 C 0.75291 0.16827 0.82524
 C288 C 0.83526 0.26136 0.68438
 C289 C 0.08374 0.45488 0.13732
 C290 C 0.09825 0.46953 0.08987
 C291 C 0.13996 0.47657 0.07502
 C292 C 0.16373 0.46474 0.10550
 C293 C 0.14547 0.44456 0.15060
 C294 C 0.10660 0.44230 0.16666
 C295 C 0.06449 0.40548 0.18834
 C296 C 0.03933 0.41969 0.15671
 H297 H 0.15377 0.49067 0.03976
 H298 H 0.19566 0.47029 0.09340
 H299 H 0.06139 0.41016 0.22775
 H300 H 0.05859 0.37299 0.17819
 H301 H 0.02247 0.43324 0.17800
 H302 H 0.01801 0.39494 0.12915
 C303 C 0.57479 0.64965 0.13101
 C304 C 0.54580 0.63693 0.09157
 C305 C 0.52838 0.66308 0.08029
 C306 C 0.53473 0.69664 0.11210
 C307 C 0.56000 0.70554 0.15463
 C308 C 0.58235 0.68361 0.16139
 C309 C 0.58418 0.66047 0.20524
 C310 C 0.57588 0.62329 0.17172
 H311 H 0.50694 0.65523 0.04914
 H312 H 0.51803 0.71394 0.10488
 H313 H 0.55617 0.65133 0.23120
 H314 H 0.61800 0.67779 0.22168
 H315 H 0.54299 0.59260 0.17806
 H316 H 0.60496 0.61929 0.16878
 C317 C 0.32738 0.91718 0.07892
 C318 C 0.37031 0.94121 0.09864
 C319 C 0.37399 0.94545 0.14949
 C320 C 0.33617 0.92031 0.17932
 C321 C 0.29423 0.89099 0.15866
 C322 C 0.29002 0.89230 0.10840
 C323 C 0.26896 0.85594 0.07236
 C324 C 0.30972 0.88326 0.04002
 H325 H 0.40660 0.96488 0.16602
 H326 H 0.34054 0.92055 0.21821
 H327 H 0.23772 0.85150 0.05724
 H328 H 0.26618 0.82563 0.08584
 H329 H 0.30200 0.89472 0.00638
 H330 H 0.33038 0.86866 0.03455
 C331 C 0.85949 0.52536 0.57470
 C332 C 0.90612 0.54963 0.57846
 C333 C 0.92567 0.58776 0.60720
 C334 C 0.89869 0.59651 0.63737
 C335 C 0.85191 0.56695 0.63944
 C336 C 0.83322 0.53350 0.60480
 C337 C 0.79640 0.48651 0.60638
 C338 C 0.82511 0.47753 0.57252
 H339 H 0.96173 0.60881 0.60915
 H340 H 0.91474 0.62397 0.66212
 H341 H 0.76537 0.48070 0.58908
 H342 H 0.79173 0.47169 0.64291
 H343 H 0.81074 0.46709 0.53564
 H344 H 0.83568 0.45668 0.58938
 C345 C 0.43713 0.31945 0.57838
 C346 C 0.43042 0.35174 0.59672
 C347 C 0.40969 0.34467 0.64263
 C348 C 0.40247 0.30950 0.67184
 C349 C 0.41673 0.28167 0.65572
 C350 C 0.43115 0.28566 0.60751
 C351 C 0.46967 0.28560 0.58466
 C352 C 0.47596 0.32244 0.55218
 H353 H 0.40239 0.36813 0.65729
 H354 H 0.39008 0.30682 0.70862
 H355 H 0.45890 0.25501 0.56430
 H356 H 0.49788 0.29597 0.61003
 H357 H 0.46829 0.31264 0.51348
 H358 H 0.50809 0.35376 0.55827
 C359 C 0.67423 0.08802 0.59354
 C360 C 0.62972 0.06899 0.60906
 C361 C 0.62185 0.07100 0.65902
 C362 C 0.65757 0.09769 0.69018
 C363 C 0.70179 0.12167 0.67221
 C364 C 0.70963 0.11361 0.62460
 C365 C 0.73674 0.14510 0.58510
 C366 C 0.69797 0.11701 0.55118
 H367 H 0.58792 0.05501 0.67301
 H368 H 0.65040 0.10184 0.72746
 H369 H 0.76726 0.14459 0.57614
 H370 H 0.74255 0.17818 0.59140
 H371 H 0.70615 0.10029 0.52278
 H372 H 0.68121 0.13374 0.53784
 C373 C 0.50215 0.13047 0.89232
 C374 C 0.46951 0.08829 0.90749
 C375 C 0.42515 0.07332 0.89234
 C376 C 0.41581 0.09971 0.86291
 C377 C 0.45040 0.14205 0.84820
 C378 C 0.49295 0.15574 0.86479
 C379 C 0.53948 0.19439 0.86642
 C380 C 0.55005 0.16625 0.89833
 H381 H 0.39792 0.04072 0.90173
 H382 H 0.38185 0.08658 0.85091
 H383 H 0.54159 0.22236 0.88612
 H384 H 0.55621 0.20219 0.83023
 H385 H 0.55783 0.17787 0.93649
 H386 H 0.57406 0.15925 0.88079
 C387 C 0.67257 0.60317 0.90148
 C388 C 0.64524 0.56344 0.92556
 C389 C 0.65823 0.53267 0.92399
 C390 C 0.69174 0.53811 0.89150
 C391 C 0.71340 0.57483 0.86076
 C392 C 0.70647 0.60901 0.87006
 C393 C 0.69764 0.63525 0.83566
 C394 C 0.66045 0.62863 0.86992
 H395 H 0.63897 0.50212 0.94358
 H396 H 0.69776 0.51181 0.88739
 H397 H 0.68533 0.61864 0.80023
 H398 H 0.72606 0.66979 0.83356
 H399 H 0.62647 0.60818 0.85419
 H400 H 0.66744 0.65935 0.88762
 C401 C 0.89212 0.35138 0.91188
 C402 C 0.93868 0.37303 0.90708
 C403 C 0.95559 0.35268 0.87763
 C404 C 0.92628 0.31647 0.84795
 C405 C 0.87995 0.30043 0.84753
 C406 C 0.86393 0.31648 0.88312
 C407 C 0.82795 0.32643 0.88540
 C408 C 0.85896 0.36481 0.91824
 H409 H 0.99136 0.36707 0.87404
 H410 H 0.94024 0.30366 0.82266
 H411 H 0.79741 0.30046 0.90441
 H412 H 0.82219 0.33693 0.84983
 H413 H 0.84646 0.36049 0.95626
 H414 H 0.86970 0.39687 0.90193
 C415 C 0.51082 0.86456 0.41934
 C416 C 0.54461 0.90796 0.42810
 C417 C 0.58780 0.92069 0.41014
 C418 C 0.59392 0.89206 0.37991
 C419 C 0.55725 0.84983 0.36809
 C420 C 0.51706 0.83702 0.39165
 C421 C 0.46856 0.80243 0.39087
 C422 C 0.46140 0.83312 0.42308
 H423 H 0.61582 0.95374 0.41571
 H424 H 0.62643 0.90401 0.36347
 H425 H 0.46121 0.77212 0.40961
 H426 H 0.45392 0.79771 0.35413
 H427 H 0.45052 0.82086 0.46071
 H428 H 0.44134 0.84434 0.40492
 C429 C 0.31758 0.43459 0.42711
 C430 C 0.34558 0.41955 0.41440
 C431 C 0.33337 0.39102 0.37440
 C432 C 0.29842 0.38417 0.34365
 C433 C 0.27604 0.40632 0.35245
 C434 C 0.28400 0.42859 0.39652
 C435 C 0.29091 0.47204 0.40904
 C436 C 0.32771 0.47854 0.44300
 H437 H 0.35348 0.37763 0.36433
 H438 H 0.29251 0.36577 0.31041
 H439 H 0.26156 0.46891 0.42848
 H440 H 0.30383 0.49532 0.37809
 H441 H 0.31935 0.47887 0.48195
 H442 H 0.36152 0.50568 0.43170
 C443 C 0.09315 0.62736 0.35716
 C444 C 0.07397 0.63276 0.39933
 C445 C 0.08205 0.67498 0.40848
 C446 C 0.10758 0.70956 0.37544
 C447 C 0.12550 0.70258 0.33285
 C448 C 0.11862 0.66130 0.32520
 C449 C 0.09850 0.63253 0.28186
 C450 C 0.06998 0.59551 0.31680
 H451 H 0.07024 0.68179 0.44173
 H452 H 0.11391 0.74173 0.38358
 H453 H 0.12330 0.62826 0.26147
 H454 H 0.07879 0.64169 0.25929
 H455 H 0.07757 0.56946 0.31582
 H456 H 0.03376 0.58358 0.31506
 C457 C 0.88151 0.51539 0.87597
 C458 C 0.92400 0.54918 0.89023
 C459 C 0.93601 0.59181 0.87540
 C460 C 0.90634 0.59847 0.84749
 C461 C 0.86360 0.56280 0.83423
 C462 C 0.85304 0.52202 0.85033
 C463 C 0.81598 0.47536 0.85195
 C464 C 0.84787 0.46759 0.88140
 H465 H 0.96872 0.61980 0.88393
 H466 H 0.91712 0.63124 0.83590
 H467 H 0.80826 0.45987 0.81545
 H468 H 0.78672 0.47043 0.87329
 H469 H 0.85738 0.44681 0.86168
 H470 H 0.83702 0.45817 0.91974
 C471 C 0.49036 0.36233 0.89524
 C472 C 0.45636 0.36975 0.90771
 C473 C 0.41288 0.33746 0.89136
 C474 C 0.40592 0.30169 0.86220
 C475 C 0.44209 0.29695 0.84905
 C476 C 0.48344 0.32794 0.86789
 C477 C 0.53080 0.34010 0.87009
 C478 C 0.53888 0.37883 0.90177
 H479 H 0.38472 0.34092 0.89882
 H480 H 0.37269 0.27884 0.84866
 H481 H 0.54779 0.35003 0.83408
 H482 H 0.53446 0.31553 0.89001
 H483 H 0.56183 0.41088 0.88428
 H484 H 0.54681 0.37634 0.94009
 C485 C 0.67880 0.06874 0.90146
 C486 C 0.65756 0.08401 0.93130
 C487 C 0.67721 0.12951 0.93503
 C488 C 0.71192 0.15788 0.90322
 C489 C 0.72774 0.14120 0.86741
 C490 C 0.71342 0.09690 0.87015
 C491 C 0.69729 0.06317 0.83103
 C492 C 0.65962 0.03238 0.86536
 H493 H 0.66245 0.14265 0.95872
 H494 H 0.72333 0.19227 0.90363
 H495 H 0.72137 0.05289 0.82331
 H496 H 0.68547 0.07217 0.79853
 H497 H 0.66219 0.00453 0.87755
 H498 H 0.62594 0.02329 0.85264
 C499 C 0.11543 0.48741 0.37223
 C500 C 0.08754 0.45882 0.40910
 C501 C 0.09004 0.42119 0.41611
 C502 C 0.11499 0.41119 0.38377
 C503 C 0.13931 0.43939 0.34483
 C504 C 0.14095 0.47856 0.34206
 C505 C 0.13491 0.50022 0.29957
 C506 C 0.10679 0.51016 0.33278
 H507 H 0.07338 0.39959 0.44655
 H508 H 0.11522 0.38165 0.38919
 H509 H 0.11546 0.47696 0.26997
 H510 H 0.16685 0.52992 0.28793
 H511 H 0.07094 0.49283 0.32248
 H512 H 0.12311 0.54569 0.33999
 C513 C 0.51556 0.64375 0.42085
 C514 C 0.53821 0.62218 0.41229
 C515 C 0.57418 0.64127 0.37879
 C516 C 0.58226 0.67703 0.34994
 C517 C 0.55396 0.69353 0.35381
 C518 C 0.52291 0.67807 0.39202
 C519 C 0.47542 0.66585 0.39584
 C520 C 0.46726 0.62812 0.42814
 H521 H 0.59405 0.62687 0.37281
 H522 H 0.60816 0.68936 0.32223
 H523 H 0.45756 0.65485 0.36067
 H524 H 0.47206 0.69093 0.41553
 H525 H 0.44396 0.59562 0.41188
 H526 H 0.45957 0.63180 0.46644
 C527 C 0.32892 0.92313 0.40206
 C528 C 0.35899 0.91104 0.41626
 C529 C 0.34768 0.86827 0.40392
 C530 C 0.31239 0.84225 0.37218
 C531 C 0.28724 0.85812 0.35192
 C532 C 0.29399 0.89736 0.37045
 C533 C 0.29989 0.93624 0.34449
 C534 C 0.33800 0.96442 0.37906
 H535 H 0.36773 0.85577 0.41667
 H536 H 0.30685 0.81094 0.36110
 H537 H 0.27064 0.93971 0.34971
 H538 H 0.31108 0.93823 0.30618
 H539 H 0.33065 0.98407 0.40417
 H540 H 0.37132 0.98281 0.36082
 C541 C 0.57777 0.90456 0.09820
 C542 C 0.55414 0.92386 0.11348
 C543 C 0.54233 0.92025 0.16310
 C544 C 0.54735 0.89213 0.19371
 C545 C 0.56570 0.86836 0.17569
 C546 C 0.58386 0.87771 0.12877
 C547 C 0.57777 0.84742 0.08827
 C548 C 0.57116 0.87690 0.05487
 H549 H 0.52612 0.93651 0.17723
 H550 H 0.53475 0.88719 0.23065
 H551 H 0.54720 0.81431 0.09284
 H552 H 0.60894 0.84785 0.08021
 H553 H 0.53673 0.86097 0.04012
 H554 H 0.59857 0.89435 0.02770
 C555 C 0.31636 0.41090 0.07553
 C556 C 0.35918 0.42593 0.09342
 C557 C 0.36380 0.42380 0.14383
 C558 C 0.32813 0.41411 0.17544
 C559 C 0.28727 0.40586 0.15700
 C560 C 0.28097 0.40102 0.10681
 C561 C 0.26302 0.42029 0.07326
 C562 C 0.30165 0.43097 0.03904
 H563 H 0.39619 0.43408 0.15889
 H564 H 0.33390 0.41733 0.21421
 H565 H 0.26490 0.44977 0.08862
 H566 H 0.22984 0.39517 0.05855
 H567 H 0.32589 0.46665 0.03448
 H568 H 0.29069 0.41191 0.00472
 C569 C 0.11206 0.68770 0.06075
 C570 C 0.07507 0.64905 0.07867
 C571 C 0.05842 0.65035 0.12495
 C572 C 0.08279 0.68742 0.15490
 C573 C 0.12441 0.72314 0.13919
 C574 C 0.13656 0.72367 0.09056
 C575 C 0.17979 0.73533 0.06687
 C576 C 0.15284 0.69596 0.03393
 H577 H 0.02889 0.62151 0.13942
 H578 H 0.07172 0.68602 0.19203
 H579 H 0.20250 0.73188 0.09147
 H580 H 0.19532 0.76681 0.04699
 H581 H 0.16022 0.66997 0.03928
 H582 H 0.15291 0.70505 -0.00455
 C583 C 0.42811 0.10195 0.57783
 C584 C 0.43814 0.07223 0.59639
 C585 C 0.43273 0.06392 0.64666
 C586 C 0.42396 0.08959 0.67778
 C587 C 0.42064 0.12388 0.65898
 C588 C 0.41980 0.12750 0.60858
 C589 C 0.44427 0.16642 0.57628
 C590 C 0.45347 0.13846 0.54260
 H591 H 0.43873 0.04001 0.66210
 H592 H 0.42369 0.08517 0.71667
 H593 H 0.47495 0.19382 0.59325
 H594 H 0.42143 0.17536 0.56026
 H595 H 0.48948 0.14960 0.54007
 H596 H 0.43610 0.13159 0.50723
 C597 C 0.63993 0.58474 0.63077
 C598 C 0.62913 0.55686 0.59085
 C599 C 0.65941 0.54437 0.57744
 C600 C 0.69508 0.55369 0.60808
 C601 C 0.70164 0.57659 0.65188
 C602 C 0.67583 0.59492 0.66045
 C603 C 0.65073 0.59395 0.70492
 C604 C 0.61150 0.58264 0.67232
 H605 H 0.65285 0.52372 0.54600
 H606 H 0.71526 0.54003 0.59952
 H607 H 0.66580 0.62687 0.72160
 H608 H 0.64384 0.56719 0.73027
 H609 H 0.60407 0.60889 0.67060
 H610 H 0.58194 0.54917 0.67847
 C611 C 0.86499 0.33654 0.57712
 C612 C 0.91176 0.36202 0.57923
 C613 C 0.93299 0.34635 0.60827
 C614 C 0.90763 0.31075 0.64011
 C615 C 0.86075 0.29069 0.64367
 C616 C 0.84034 0.30228 0.60881
 C617 C 0.80216 0.30904 0.61004
 C618 C 0.82903 0.34655 0.57440
 H619 H 0.96917 0.36379 0.60931
 H620 H 0.92501 0.30178 0.66495
 H621 H 0.79758 0.32019 0.64610
 H622 H 0.77137 0.28106 0.59397
 H623 H 0.83843 0.37874 0.58973
 H624 H 0.81382 0.33972 0.53778
   
