data_POSCAR
  _audit_creation_date              2014-09-24
  _audit_creation_method            'ToBaCCo'
  _symmetry_space_group_name_H-M    'P1'
  _symmetry_Int_Tables_number       1
  _symmetry_cell_setting            triclinic
  loop_
  _symmetry_equiv_pos_as_xyz
 x,y,z
_cell_length_a 24.2953
_cell_length_b 24.2963
_cell_length_c 24.3209
_cell_angle_alpha 89.943000
_cell_angle_beta 89.995400
_cell_angle_gamma 90.002700
loop_
  _atom_site_label
  _atom_site_type_symbol
  _atom_site_fract_x
  _atom_site_fract_y
  _atom_site_fract_z
C1 C -0.07471 0.51239 0.27349
 C2 C -0.02313 0.52293 0.24982
 C3 C -0.01258 0.57453 0.22615
 C4 C -0.05347 0.61517 0.22557
 C5 C -0.10481 0.60467 0.24984
 C6 C -0.11532 0.55331 0.27410
 C7 C 0.01977 0.48004 0.24983
 C8 C 0.00922 0.42841 0.22630
 C9 C 0.05015 0.38787 0.22574
 C10 C 0.10148 0.39840 0.24982
 C11 C 0.11200 0.44972 0.27390
 C12 C 0.07142 0.49061 0.27336
 H13 H -0.08272 0.47266 0.29228
 H14 H 0.02714 0.58254 0.20736
 H15 H -0.03045 0.42022 0.20758
 H16 H 0.07960 0.53027 0.29207
 H17 H -0.13639 0.63628 0.24986
 H18 H 0.13306 0.36686 0.24981
 C19 C -0.07277 0.48895 0.72917
 C20 C -0.02121 0.47849 0.75290
 C21 C -0.01053 0.42679 0.77633
 C22 C -0.05130 0.38601 0.77657
 C23 C -0.10260 0.39649 0.75224
 C24 C -0.11317 0.44791 0.72827
 C25 C 0.02161 0.52147 0.75290
 C26 C 0.01096 0.57311 0.77638
 C27 C 0.05175 0.61387 0.77666
 C28 C 0.10305 0.60343 0.75231
 C29 C 0.11359 0.55208 0.72829
 C30 C 0.07317 0.51105 0.72916
 H31 H -0.08099 0.52865 0.71048
 H32 H 0.02918 0.41879 0.79511
 H33 H -0.02875 0.58107 0.79518
 H34 H 0.08137 0.47140 0.71043
 H35 H -0.13413 0.36487 0.75185
 H36 H 0.13460 0.63503 0.75195
 C37 C 0.27354 -0.07439 0.50932
 C38 C 0.24980 -0.02282 0.51980
 C39 C 0.22634 -0.01224 0.57143
 C40 C 0.22606 -0.05304 0.61210
 C41 C 0.25035 -0.10432 0.60170
 C42 C 0.27440 -0.11492 0.55034
 C43 C 0.24965 0.02009 0.47690
 C44 C 0.22593 0.00957 0.42537
 C45 C 0.22519 0.05056 0.38482
 C46 C 0.24935 0.10194 0.39534
 C47 C 0.27362 0.11238 0.44657
 C48 C 0.27321 0.07173 0.48739
 H49 H 0.29219 -0.08244 0.46960
 H50 H 0.20750 0.02739 0.57955
 H51 H 0.20722 -0.03018 0.41737
 H52 H 0.29205 0.07987 0.52698
 H53 H 0.25051 -0.13572 0.63345
 H54 H 0.24930 0.13367 0.36392
 C55 C 0.72685 -0.07439 0.49051
 C56 C 0.75055 -0.02280 0.47993
 C57 C 0.77397 -0.01219 0.42827
 C58 C 0.77426 -0.05297 0.38768
 C59 C 0.75001 -0.10427 0.39817
 C60 C 0.72599 -0.11490 0.44955
 C61 C 0.75069 0.02009 0.52275
 C62 C 0.77438 0.00954 0.57430
 C63 C 0.77511 0.05052 0.61479
 C64 C 0.75097 0.10191 0.60418
 C65 C 0.72674 0.11236 0.55291
 C66 C 0.72715 0.07174 0.51216
 H67 H 0.70821 -0.08247 0.53025
 H68 H 0.79279 0.02746 0.42008
 H69 H 0.79308 -0.03021 0.58238
 H70 H 0.70833 0.07990 0.47255
 H71 H 0.74985 -0.13566 0.36647
 H72 H 0.75101 0.13362 0.63555
 C73 C 0.48901 0.27113 1.07294
 C74 C 0.47855 0.24733 1.02147
 C75 C 0.42690 0.22378 1.01090
 C76 C 0.38614 0.22350 1.05167
 C77 C 0.39662 0.24792 1.10287
 C78 C 0.44799 0.27200 1.11335
 C79 C 0.52152 0.24730 0.97866
 C80 C 0.57318 0.22377 0.98929
 C81 C 0.61391 0.22340 0.94848
 C82 C 0.60340 0.24772 0.89720
 C83 C 0.55203 0.27179 0.88666
 C84 C 0.51105 0.27102 0.92710
 H85 H 0.52868 0.28990 1.08109
 H86 H 0.41891 0.20494 0.97127
 H87 H 0.58119 0.20499 1.02898
 H88 H 0.47137 0.28976 0.91890
 H89 H 0.36503 0.24826 1.13441
 H90 H 0.63496 0.24800 0.86564
 C91 C 0.51105 0.72887 1.07261
 C92 C 0.52150 0.75249 1.02101
 C93 C 0.57318 0.77594 1.01028
 C94 C 0.61394 0.77632 1.05104
 C95 C 0.60345 0.75211 1.10237
 C96 C 0.55207 0.72812 1.11300
 C97 C 0.47850 0.75245 0.97826
 C98 C 0.42682 0.77589 0.98893
 C99 C 0.38603 0.77616 0.94820
 C100 C 0.39649 0.75184 0.89696
 C101 C 0.44789 0.72787 0.88639
 C102 C 0.48894 0.72874 0.92675
 H103 H 0.47136 0.71018 1.08089
 H104 H 0.58117 0.79466 0.97055
 H105 H 0.41884 0.79467 1.02859
 H106 H 0.52863 0.71005 0.91853
 H107 H 0.63505 0.75185 1.13390
 H108 H 0.36488 0.75150 0.86546
 B109 B 1.00001 1.05586 0.03444
 B110 B 1.00021 1.05587 -0.03487
 B111 B 1.05623 1.03444 -0.00012
 B112 B 1.03469 0.99972 0.05597
 B113 B 0.96531 0.99979 0.05583
 B114 B 0.94399 1.03445 -0.00027
 B115 B 1.00012 0.94364 -0.03475
 B116 B 1.00005 0.94365 0.03456
 B117 B 0.94398 0.96508 -0.00025
 B118 B 0.96552 0.99973 -0.05628
 B119 B 1.03490 0.99978 -0.05615
 B120 B 1.05621 0.96505 0.00001
 B121 B 0.55632 0.50015 0.46520
 B122 B 0.55630 0.50005 0.53451
 B123 B 0.53489 0.55621 0.49995
 B124 B 0.50018 0.53491 0.44384
 B125 B 0.50022 0.46553 0.44375
 B126 B 0.53488 0.44399 0.49975
 B127 B 0.44408 0.50000 0.53450
 B128 B 0.44409 0.50022 0.46520
 B129 B 0.46549 0.44399 0.49981
 B130 B 0.50015 0.46529 0.55586
 B131 B 0.50022 0.53466 0.55594
 B132 B 0.46551 0.55622 0.49989
 C133 C 1.03970 1.33603 0.19915
 C134 C 1.03086 1.29314 0.17591
 C135 C 1.02093 1.24338 0.14774
 C136 C 1.01332 1.20113 0.12299
 C137 C 1.00598 1.15181 0.09336
 C138 C 1.00165 1.10972 0.06765
 C139 C 0.95654 0.66421 0.20026
 C140 C 0.96578 0.70704 0.17692
 C141 C 0.97646 0.75662 0.14858
 C142 C 0.98482 0.79869 0.12367
 C143 C 0.99305 0.84782 0.09382
 C144 C 0.99801 0.88981 0.06794
 C145 C 0.95874 1.33678 -0.19849
 C146 C 0.96782 1.29372 -0.17555
 C147 C 0.97814 1.24379 -0.14770
 C148 C 0.98611 1.20141 -0.12318
 C149 C 0.99385 1.15196 -0.09375
 C150 C 0.99844 1.10978 -0.06813
 C151 C 1.04174 0.66302 -0.19835
 C152 C 1.03267 0.70602 -0.17536
 C153 C 1.02237 0.75588 -0.14747
 C154 C 1.01440 0.79820 -0.12293
 C155 C 1.00663 0.84759 -0.09350
 C156 C 1.00198 0.88974 -0.06791
 C157 C 1.19982 1.04070 0.33583
 C158 C 1.17649 1.03178 0.29300
 C159 C 1.14821 1.02162 0.24333
 C160 C 1.12338 1.01377 0.20116
 C161 C 1.09367 1.00611 0.15191
 C162 C 1.06792 1.00154 0.10985
 C163 C 1.19959 0.95759 -0.33602
 C164 C 1.17646 0.96674 -0.29314
 C165 C 1.14837 0.97718 -0.24343
 C166 C 1.12367 0.98527 -0.20123
 C167 C 1.09403 0.99317 -0.15198
 C168 C 1.06828 0.99790 -0.10994
 C169 C 0.80069 0.95769 0.33577
 C170 C 0.82380 0.96685 0.29287
 C171 C 0.85186 0.97730 0.24313
 C172 C 0.87655 0.98538 0.20092
 C173 C 0.90617 0.99325 0.15165
 C174 C 0.93193 0.99795 0.10960
 C175 C 0.80044 1.04064 -0.33620
 C176 C 0.82375 1.03171 -0.29334
 C177 C 0.85201 1.02156 -0.24365
 C178 C 0.87682 1.01372 -0.20147
 C179 C 0.90653 1.00608 -0.15221
 C180 C 0.93228 1.00153 -0.11015
 C181 C 1.33696 1.19843 0.04172
 C182 C 1.29394 1.17539 0.03267
 C183 C 1.24407 1.14742 0.02235
 C184 C 1.20173 1.12284 0.01435
 C185 C 1.15232 1.09335 0.00651
 C186 C 1.11016 1.06770 0.00180
 C187 C 0.66309 1.19834 -0.04154
 C188 C 0.70613 1.17530 -0.03256
 C189 C 0.75605 1.14736 -0.02237
 C190 C 0.79842 1.12280 -0.01449
 C191 C 0.84788 1.09333 -0.00680
 C192 C 0.89006 1.06770 -0.00218
 C193 C 1.33684 0.80114 -0.04175
 C194 C 1.29382 0.82413 -0.03263
 C195 C 1.24396 0.85205 -0.02223
 C196 C 1.20164 0.87662 -0.01419
 C197 C 1.15225 0.90612 -0.00637
 C198 C 1.11010 0.93178 -0.00173
 C199 C 0.66312 0.80132 0.04096
 C200 C 0.70616 0.82431 0.03190
 C201 C 0.75607 0.85221 0.02163
 C202 C 0.79844 0.87676 0.01372
 C203 C 0.84788 0.90622 0.00604
 C204 C 0.89006 0.93184 0.00149
 C205 C 0.83567 0.54333 0.29946
 C206 C 0.79287 0.53413 0.32283
 C207 C 0.74331 0.52352 0.35121
 C208 C 0.70125 0.51523 0.37614
 C209 C 0.65214 0.50707 0.40600
 C210 C 0.61015 0.50216 0.43187
 C211 C 0.16386 0.46021 0.30047
 C212 C 0.20677 0.46910 0.32368
 C213 C 0.25654 0.47912 0.35184
 C214 C 0.29880 0.48680 0.37658
 C215 C 0.34812 0.49421 0.40622
 C216 C 0.39023 0.49858 0.43195
 C217 C 0.83514 0.45836 0.70130
 C218 C 0.79247 0.46739 0.67769
 C219 C 0.74302 0.47769 0.64905
 C220 C 0.70104 0.48569 0.62391
 C221 C 0.65200 0.49349 0.59387
 C222 C 0.61008 0.49817 0.56788
 C223 C 0.16527 0.54165 0.70132
 C224 C 0.20794 0.53262 0.67771
 C225 C 0.25737 0.52228 0.64906
 C226 C 0.29934 0.51426 0.62392
 C227 C 0.34836 0.50644 0.59386
 C228 C 0.39029 0.50179 0.56788
 C229 C 0.54161 0.70131 0.16476
 C230 C 0.53260 0.67785 0.20750
 C231 C 0.52233 0.64936 0.25705
 C232 C 0.51437 0.62433 0.29909
 C233 C 0.50662 0.59436 0.34818
 C234 C 0.50200 0.56839 0.39012
 C235 C 0.45835 0.70096 0.83474
 C236 C 0.46741 0.67742 0.79208
 C237 C 0.47777 0.64886 0.74265
 C238 C 0.48581 0.62381 0.70068
 C239 C 0.49366 0.59385 0.65165
 C240 C 0.49836 0.56795 0.60973
 C241 C 0.45845 0.29902 0.16497
 C242 C 0.46749 0.32264 0.20760
 C243 C 0.47782 0.35126 0.25702
 C244 C 0.48583 0.37635 0.29898
 C245 C 0.49367 0.40633 0.34801
 C246 C 0.49836 0.43225 0.38994
 C247 C 0.54156 0.29871 0.83495
 C248 C 0.53255 0.32224 0.79222
 C249 C 0.52229 0.35078 0.74270
 C250 C 0.51434 0.37585 0.70066
 C251 C 0.50659 0.40584 0.65156
 C252 C 0.50197 0.43181 0.60962
 C253 C 0.70058 0.83609 0.45944
 C254 C 0.67719 0.79323 0.46834
 C255 C 0.64882 0.74354 0.47844
 C256 C 0.62391 0.70136 0.48622
 C257 C 0.59408 0.65212 0.49377
 C258 C 0.56823 0.61006 0.49825
 C259 C 0.70013 0.16422 0.54226
 C260 C 0.67686 0.20706 0.53304
 C261 C 0.64861 0.25672 0.52250
 C262 C 0.62377 0.29887 0.51433
 C263 C 0.59402 0.34809 0.50635
 C264 C 0.56821 0.39014 0.50160
 C265 C 0.29984 0.83607 0.54054
 C266 C 0.32324 0.79322 0.53169
 C267 C 0.35161 0.74355 0.52163
 C268 C 0.37653 0.70138 0.51385
 C269 C 0.40634 0.65214 0.50627
 C270 C 0.43218 0.61008 0.50173
 C271 C 0.30023 0.16424 0.45714
 C272 C 0.32351 0.20708 0.46631
 C273 C 0.35177 0.25674 0.47683
 C274 C 0.37659 0.29888 0.48501
 C275 C 0.40634 0.34809 0.49303
 C276 C 0.43215 0.39014 0.49785
   
