data_POSCAR
  _audit_creation_date              2014-09-24
  _audit_creation_method            'ToBaCCo'
  _symmetry_space_group_name_H-M    'P1'
  _symmetry_Int_Tables_number       1
  _symmetry_cell_setting            triclinic
  loop_
  _symmetry_equiv_pos_as_xyz
 x,y,z
_cell_length_a 56.4206
_cell_length_b 56.3772
_cell_length_c 21.7538
_cell_angle_alpha 90.001400
_cell_angle_beta 89.939400
_cell_angle_gamma 120.043200
loop_
  _atom_site_label
  _atom_site_type_symbol
  _atom_site_fract_x
  _atom_site_fract_y
  _atom_site_fract_z
C1 C 0.18502 0.49886 0.49849
 C2 C 0.19742 0.49900 0.44298
 C3 C 0.22237 0.49920 0.44281
 C4 C 0.23552 0.49926 0.49860
 C5 C 0.22230 0.49921 0.55429
 C6 C 0.19735 0.49898 0.55402
 C7 C 0.26247 0.49925 0.49873
 C8 C 0.27557 0.49917 0.55450
 C9 C 0.30029 0.49896 0.55428
 C10 C 0.31254 0.49882 0.49884
 C11 C 0.30035 0.49895 0.44338
 C12 C 0.27565 0.49919 0.44306
 H13 H 0.16563 0.49859 0.49845
 H14 H 0.23090 0.49930 0.39847
 H15 H 0.23074 0.49928 0.59867
 H16 H 0.26720 0.49922 0.59894
 H17 H 0.33165 0.49856 0.49886
 H18 H 0.26737 0.49928 0.39860
 C19 C 0.50059 -0.31428 0.49904
 C20 C 0.50035 -0.30202 0.44362
 C21 C 0.50010 -0.27728 0.44362
 C22 C 0.50020 -0.26413 0.49949
 C23 C 0.50042 -0.27726 0.55508
 C24 C 0.50058 -0.30203 0.55464
 C25 C 0.50025 -0.23714 0.49981
 C26 C 0.50020 -0.22404 0.55566
 C27 C 0.50056 -0.19902 0.55560
 C28 C 0.50081 -0.18653 0.50023
 C29 C 0.50076 -0.19881 0.44469
 C30 C 0.50051 -0.22376 0.44422
 H31 H 0.50084 -0.33343 0.49889
 H32 H 0.49987 -0.26889 0.39932
 H33 H 0.50053 -0.26880 0.59951
 H34 H 0.49993 -0.23260 0.60004
 H35 H 0.50110 -0.16714 0.50036
 H36 H 0.50060 -0.23202 0.39970
 C37 C 1.31334 0.81416 0.49896
 C38 C 1.30114 0.80174 0.44349
 C39 C 1.27642 0.77672 0.44336
 C40 C 1.26332 0.76350 0.49920
 C41 C 1.27645 0.77675 0.55481
 C42 C 1.30110 0.80175 0.55440
 C43 C 1.23640 0.73649 0.49947
 C44 C 1.22318 0.72338 0.55530
 C45 C 1.19823 0.69858 0.55517
 C46 C 1.18591 0.68629 0.49969
 C47 C 1.19830 0.69855 0.44425
 C48 C 1.22322 0.72328 0.44386
 H49 H 1.33244 0.83360 0.49911
 H50 H 1.26801 0.76822 0.39902
 H51 H 1.26817 0.76833 0.59930
 H52 H 1.23161 0.73187 0.59963
 H53 H 1.16653 0.66713 0.49953
 H54 H 1.23162 0.73159 0.39937
 C55 C 0.81263 0.49799 0.49970
 C56 C 0.80044 0.49818 0.44431
 C57 C 0.77556 0.49808 0.44413
 C58 C 0.76214 0.49755 0.49997
 C59 C 0.77513 0.49716 0.55561
 C60 C 0.80014 0.49754 0.55518
 C61 C 0.73518 0.49754 0.50018
 C62 C 0.72227 0.49807 0.55599
 C63 C 0.69743 0.49810 0.55575
 C64 C 0.68509 0.49791 0.50024
 C65 C 0.69717 0.49744 0.44485
 C66 C 0.72181 0.49711 0.44450
 H67 H 0.83199 0.49823 0.49963
 H68 H 0.76740 0.49852 0.39974
 H69 H 0.76649 0.49657 0.60008
 H70 H 0.73095 0.49853 0.60034
 H71 H 0.66596 0.49814 0.50003
 H72 H 0.72988 0.49652 0.40006
 C73 C 0.50154 0.31490 0.50139
 C74 C 0.50180 0.30263 0.44612
 C75 C 0.50210 0.27793 0.44619
 C76 C 0.50205 0.26482 0.50213
 C77 C 0.50181 0.27799 0.55769
 C78 C 0.50161 0.30275 0.55706
 C79 C 0.50214 0.23789 0.50254
 C80 C 0.50233 0.22486 0.55845
 C81 C 0.50214 0.19989 0.55835
 C82 C 0.50189 0.18744 0.50291
 C83 C 0.50184 0.19966 0.44743
 C84 C 0.50193 0.22453 0.44693
 H85 H 0.50127 0.33403 0.50096
 H86 H 0.50236 0.26961 0.40186
 H87 H 0.50173 0.26959 0.60217
 H88 H 0.50259 0.23348 0.60276
 H89 H 0.50171 0.16808 0.50280
 H90 H 0.50177 0.23276 0.40242
 C91 C 0.68555 0.18746 0.50058
 C92 C 0.69793 0.19978 0.44521
 C93 C 0.72276 0.22465 0.44504
 C94 C 0.73576 0.23789 0.50090
 C95 C 0.72242 0.22473 0.55652
 C96 C 0.69769 0.19980 0.55605
 C97 C 0.76274 0.26483 0.50117
 C98 C 0.77602 0.27780 0.55702
 C99 C 0.80095 0.30262 0.55680
 C100 C 0.81324 0.31498 0.50134
 C101 C 0.80082 0.30285 0.44594
 C102 C 0.77587 0.27816 0.44553
 H103 H 0.66636 0.16813 0.50052
 H104 H 0.73130 0.23296 0.40065
 H105 H 0.73060 0.23317 0.60101
 H106 H 0.76765 0.26921 0.60137
 H107 H 0.83261 0.33414 0.50114
 H108 H 0.76738 0.26999 0.40105
 O109 O 0.96268 0.44102 0.11354
 O110 O 0.93233 0.44650 0.05318
 C111 C 0.93812 0.43485 0.09743
 O112 O 1.03938 0.56241 0.10651
 O113 O 1.06966 0.55512 0.05041
 C114 C 1.06393 0.56826 0.09111
 O115 O 0.96262 0.52186 0.11152
 O116 O 0.93232 0.48521 0.05296
 C117 C 0.93807 0.50308 0.09622
 O118 O 1.03931 0.47671 0.10766
 O119 O 1.06967 0.51416 0.05088
 C120 C 1.06389 0.49541 0.09216
 Zr121 Zr 1.00101 0.47006 0.07587
 O122 O 1.00189 0.46683 0.17259
 O123 O 0.99979 0.43221 0.06540
 Zr124 Zr 1.00105 0.53032 0.07583
 O125 O 1.00359 0.53246 0.17294
 O126 O 0.99811 0.56632 0.07291
 O127 O 0.97693 0.48816 0.08828
 O128 O 1.02467 0.51206 0.08726
 O129 O 1.03930 0.47657 -0.10979
 O130 O 1.06968 0.51416 -0.05381
 C131 C 1.06387 0.49534 -0.09476
 O132 O 0.96249 0.52164 -0.11394
 O133 O 0.93224 0.48518 -0.05471
 C134 C 0.93795 0.50296 -0.09817
 O135 O 1.03928 0.56205 -0.11051
 O136 O 1.06961 0.55487 -0.05439
 C137 C 1.06384 0.56792 -0.09533
 O138 O 0.96262 0.44081 -0.11561
 O139 O 0.93233 0.44649 -0.05537
 C140 C 0.93806 0.43472 -0.09948
 Zr141 Zr 1.00092 0.46984 -0.07803
 O142 O 1.00288 0.46751 -0.17463
 O143 O 0.99800 0.43097 -0.07098
 Zr144 Zr 1.00100 0.53013 -0.07893
 O145 O 1.00365 0.53228 -0.17614
 O146 O 0.99815 0.56616 -0.07615
 Zr147 Zr 0.96029 0.47980 -0.00112
 Zr148 Zr 1.04197 0.52071 -0.00147
 O149 O 1.02453 0.51178 -0.09006
 O150 O 0.97681 0.48792 -0.09077
 O151 O 1.02576 0.47785 -0.00111
 O152 O 0.97708 0.52256 -0.00145
 O153 O 0.97674 0.45358 -0.00089
 O154 O 1.02569 0.54720 -0.00167
 H155 H 1.03675 0.51821 0.12379
 H156 H 0.96441 0.52995 -0.00139
 H157 H 1.03653 0.51777 -0.12680
 H158 H 0.96386 0.43353 -0.00081
 H159 H 1.01447 0.58051 0.05103
 H160 H 1.01479 0.58050 -0.05545
 H161 H 0.98838 0.51502 -0.19267
 H162 H 0.99897 0.48144 -0.19156
 H163 H 1.01479 0.43362 -0.05035
 H164 H 0.99919 0.42531 0.10758
 H165 H 1.00466 0.48428 0.18958
 H166 H 0.98916 0.51461 0.18922
 O167 O 0.55897 0.52146 0.11364
 O168 O 0.55359 0.48561 0.05323
 C169 C 0.56519 0.50307 0.09749
 O170 O 0.43770 0.47669 0.10707
 O171 O 0.44494 0.51426 0.05086
 C172 C 0.43181 0.49534 0.09163
 O173 O 0.47824 0.44055 0.11184
 O174 O 0.51484 0.44676 0.05320
 C175 C 0.49696 0.43470 0.09654
 O176 O 0.52322 0.56235 0.10786
 O177 O 0.48590 0.55534 0.05108
 C178 C 0.50458 0.56827 0.09239
 Zr179 Zr 0.52995 0.53072 0.07599
 O180 O 0.53318 0.53496 0.17264
 O181 O 0.56770 0.56746 0.06518
 Zr182 Zr 0.46973 0.47048 0.07604
 O183 O 0.46748 0.47076 0.17317
 O184 O 0.43379 0.43151 0.07275
 O185 O 0.51186 0.48850 0.08852
 O186 O 0.48799 0.51239 0.08745
 O187 O 0.52353 0.56249 -0.10977
 O188 O 0.48601 0.55535 -0.05347
 C189 C 0.50483 0.56837 -0.09449
 O190 O 0.47848 0.44050 -0.11365
 O191 O 0.51485 0.44666 -0.05439
 C192 C 0.49711 0.43461 -0.09787
 O193 O 0.43808 0.47686 -0.11002
 O194 O 0.44509 0.51432 -0.05369
 C195 C 0.43212 0.49550 -0.09468
 O196 O 0.55911 0.52170 -0.11643
 O197 O 0.55351 0.48587 -0.05608
 C198 C 0.56521 0.50327 -0.10038
 Zr199 Zr 0.53019 0.53082 -0.07785
 O200 O 0.53261 0.53525 -0.17445
 O201 O 0.56902 0.56679 -0.07040
 Zr202 Zr 0.46998 0.47052 -0.07856
 O203 O 0.46786 0.47097 -0.17572
 O204 O 0.43393 0.43159 -0.07563
 Zr205 Zr 0.52026 0.48014 -0.00083
 Zr206 Zr 0.47937 0.52102 -0.00120
 O207 O 0.48828 0.51247 -0.08979
 O208 O 0.51216 0.48858 -0.09040
 O209 O 0.52215 0.54765 -0.00092
 O210 O 0.47753 0.45419 -0.00112
 O211 O 0.54645 0.52288 -0.00079
 O212 O 0.45289 0.47818 -0.00139
 H213 H 0.48183 0.51832 0.12400
 H214 H 0.47007 0.43411 -0.00102
 H215 H 0.48233 0.51845 -0.12660
 H216 H 0.56648 0.53008 -0.00081
 H217 H 0.41945 0.43371 0.05181
 H218 H 0.41958 0.43385 -0.05481
 H219 H 0.48526 0.47332 -0.19218
 H220 H 0.51878 0.51741 -0.19161
 H221 H 0.56626 0.58105 -0.05068
 H222 H 0.57472 0.57374 0.10728
 H223 H 0.51580 0.52026 0.18990
 H224 H 0.48541 0.47448 0.18939
 O225 O 0.47828 0.03752 0.11559
 O226 O 0.51412 0.06800 0.05514
 C227 C 0.49667 0.06214 0.09946
 O228 O 0.52300 -0.03898 0.10871
 O229 O 0.48548 -0.06934 0.05252
 C230 C 0.50435 -0.06356 0.09330
 O231 O 0.55916 0.03781 0.11335
 O232 O 0.55291 0.06812 0.05460
 C233 C 0.56499 0.06238 0.09790
 O234 O 0.43727 -0.03910 0.10932
 O235 O 0.44440 -0.06943 0.05273
 C236 C 0.43138 -0.06367 0.09385
 Zr237 Zr 0.46901 -0.00076 0.07769
 O238 O 0.46474 -0.00186 0.17438
 O239 O 0.43236 0.00036 0.06706
 Zr240 Zr 0.52923 -0.00067 0.07777
 O241 O 0.52877 -0.00324 0.17491
 O242 O 0.56817 0.00235 0.07479
 O243 O 0.51118 0.02342 0.09016
 O244 O 0.48732 -0.02440 0.08913
 O245 O 0.43737 -0.03897 -0.10797
 O246 O 0.44452 -0.06937 -0.05180
 C247 C 0.43150 -0.06356 -0.09270
 O248 O 0.55931 0.03804 -0.11194
 O249 O 0.55302 0.06822 -0.05277
 C250 C 0.56514 0.06256 -0.09616
 O251 O 0.52292 -0.03881 -0.10837
 O252 O 0.48535 -0.06928 -0.05228
 C253 C 0.50422 -0.06343 -0.09321
 O254 O 0.47839 0.03772 -0.11417
 O255 O 0.51419 0.06805 -0.05372
 C256 C 0.49680 0.06231 -0.09800
 Zr257 Zr 0.46901 -0.00059 -0.07619
 O258 O 0.46469 -0.00255 -0.17280
 O259 O 0.43303 0.00219 -0.06876
 Zr260 Zr 0.52924 -0.00053 -0.07695
 O261 O 0.52872 -0.00312 -0.17413
 O262 O 0.56816 0.00243 -0.07438
 Zr263 Zr 0.51952 0.04011 0.00075
 Zr264 Zr 0.47877 -0.04165 0.00047
 O265 O 0.48735 -0.02416 -0.08814
 O266 O 0.51122 0.02361 -0.08885
 O267 O 0.45216 -0.02550 0.00074
 O268 O 0.54550 0.02337 0.00050
 O269 O 0.47684 0.02358 0.00091
 O270 O 0.52158 -0.02526 0.00030
 H271 H 0.48132 -0.03653 0.12564
 H272 H 0.56557 0.03601 0.00055
 H273 H 0.48138 -0.03612 -0.12492
 H274 H 0.46971 0.03646 0.00098
 H275 H 0.56605 -0.01402 0.05307
 H276 H 0.56595 -0.01413 -0.05344
 H277 H 0.52669 0.01213 -0.19057
 H278 H 0.48258 0.00161 -0.18991
 H279 H 0.41880 -0.01485 -0.04895
 H280 H 0.42624 0.00137 0.10918
 H281 H 0.47949 -0.00445 0.19152
 H282 H 0.52530 0.01115 0.19109
 C283 C 1.11343 0.47781 0.26056
 C284 C 1.13824 0.47360 0.25053
 C285 C 1.15542 0.49822 0.29267
 C286 C 1.13082 0.50239 0.30327
 C287 C 1.12279 0.49750 0.20538
 C288 C 1.13998 0.52208 0.24761
 C289 C 1.14735 0.49329 0.19445
 C290 C 1.16487 0.51793 0.23758
 C291 C 1.17228 0.49859 0.34428
 C292 C 1.18476 0.49881 0.38945
 C293 C 1.10332 0.49699 0.16008
 C294 C 1.08598 0.49635 0.12671
 H295 H 1.09211 0.46128 0.26984
 H296 H 1.13777 0.45367 0.25243
 H297 H 1.12420 0.50615 0.34852
 H298 H 1.14045 0.54198 0.24597
 H299 H 1.15393 0.48951 0.14914
 H300 H 1.18621 0.53445 0.22868
 C301 C 0.47656 0.61937 0.24183
 C302 C 0.49338 0.62683 0.30196
 C303 C 0.50124 0.65693 0.29294
 C304 C 0.48438 0.64975 0.23342
 C305 C 0.50233 0.62512 0.20570
 C306 C 0.51021 0.65521 0.19638
 C307 C 0.51912 0.63236 0.26533
 C308 C 0.52701 0.66269 0.25685
 C309 C 0.50077 0.67336 0.34464
 C310 C 0.50051 0.68554 0.38997
 C311 C 0.50301 0.60618 0.16048
 C312 C 0.50366 0.58945 0.12708
 H313 H 0.45581 0.60134 0.23528
 H314 H 0.48645 0.61532 0.34590
 H315 H 0.47009 0.65711 0.22084
 H316 H 0.51716 0.66668 0.15241
 H317 H 0.53344 0.62508 0.27820
 H318 H 0.54774 0.68072 0.26361
 C319 C 0.34558 -0.14772 0.19516
 C320 C 0.35293 -0.16507 0.23829
 C321 C 0.34234 -0.15594 0.29332
 C322 C 0.33469 -0.13895 0.25119
 C323 C 0.37419 -0.12289 0.20630
 C324 C 0.36355 -0.11386 0.26144
 C325 C 0.38180 -0.13990 0.24853
 C326 C 0.37095 -0.13108 0.30415
 C327 C 0.32586 -0.17296 0.34481
 C328 C 0.31361 -0.18553 0.38997
 C329 C 0.39320 -0.10323 0.16126
 C330 C 0.41005 -0.08579 0.12815
 H331 H 0.33537 -0.15431 0.14977
 H332 H 0.34837 -0.18633 0.22934
 H333 H 0.31510 -0.13879 0.25293
 H334 H 0.36807 -0.09262 0.27065
 H335 H 0.40139 -0.14005 0.24700
 H336 H 0.38124 -0.12439 0.34946
 C337 C 0.85893 0.47465 0.24706
 C338 C 0.86758 0.49284 0.30523
 C339 C 0.84445 0.49915 0.29323
 C340 C 0.83549 0.48092 0.23566
 C341 C 0.87825 0.49994 0.20866
 C342 C 0.85516 0.50627 0.19637
 C343 C 0.88710 0.51811 0.26633
 C344 C 0.86377 0.52445 0.25488
 C345 C 0.82696 0.49879 0.34352
 C346 C 0.81404 0.49852 0.38795
 C347 C 0.89830 0.50073 0.16460
 C348 C 0.91592 0.50166 0.13158
 H349 H 0.85713 0.45417 0.24347
 H350 H 0.87255 0.48734 0.35052
 H351 H 0.81403 0.46565 0.22359
 H352 H 0.85028 0.51178 0.15102
 H353 H 0.90852 0.53340 0.27859
 H354 H 0.86559 0.54494 0.25856
 C355 C 0.49524 0.34923 0.19697
 C356 C 0.52024 0.35575 0.23824
 C357 C 0.50115 0.34552 0.29444
 C358 C 0.47620 0.33870 0.25410
 C359 C 0.50013 0.37818 0.20934
 C360 C 0.48111 0.36791 0.26560
 C361 C 0.52508 0.38499 0.24971
 C362 C 0.50603 0.37449 0.30648
 C363 C 0.50154 0.32853 0.34500
 C364 C 0.50171 0.31592 0.38961
 C365 C 0.49930 0.39734 0.16508
 C366 C 0.49835 0.41399 0.13197
 H367 H 0.49079 0.33907 0.15136
 H368 H 0.53633 0.35053 0.22751
 H369 H 0.45610 0.31947 0.25641
 H370 H 0.46500 0.37309 0.27649
 H371 H 0.54516 0.40424 0.24745
 H372 H 0.51047 0.38475 0.35199
 C373 C 0.63725 0.11488 0.25730
 C374 C 0.66354 0.14259 0.24427
 C375 C 0.65486 0.15600 0.29418
 C376 C 0.62885 0.12854 0.30777
 C377 C 0.62182 0.12222 0.20977
 C378 C 0.61320 0.13566 0.25975
 C379 C 0.64780 0.14966 0.19585
 C380 C 0.63945 0.16341 0.24673
 C381 C 0.67199 0.17344 0.34443
 C382 C 0.68465 0.18629 0.38885
 C383 C 0.60249 0.10218 0.16588
 C384 C 0.58576 0.08454 0.13304
 H385 H 0.63614 0.09472 0.26129
 H386 H 0.68443 0.14564 0.23842
 H387 H 0.62122 0.12000 0.35429
 H388 H 0.59231 0.13261 0.26574
 H389 H 0.65535 0.15810 0.14924
 H390 H 0.64059 0.18360 0.24293
 C391 C 0.50055 0.14930 -0.19552
 C392 C 0.52346 0.16421 -0.24434
 C393 C 0.50138 0.15664 -0.29376
 C394 C 0.47849 0.14207 -0.24591
 C395 C 0.50035 0.12250 -0.20986
 C396 C 0.47832 0.11502 -0.25937
 C397 C 0.52321 0.13708 -0.25777
 C398 C 0.50117 0.12981 -0.30776
 C399 C 0.50180 0.17424 -0.34384
 C400 C 0.50202 0.18712 -0.38830
 C401 C 0.49945 0.10227 -0.16620
 C402 C 0.49840 0.08453 -0.13341
 H403 H 0.50030 0.15708 -0.14880
 H404 H 0.54201 0.18466 -0.23871
 H405 H 0.46010 0.14431 -0.24153
 H406 H 0.45975 0.09457 -0.26515
 H407 H 0.54159 0.13484 -0.26226
 H408 H 0.50139 0.12191 -0.35438
 C409 C 0.63555 0.52123 -0.26320
 C410 C 0.66294 0.52212 -0.24999
 C411 C 0.65489 0.49877 -0.29636
 C412 C 0.62775 0.49790 -0.31010
 C413 C 0.62181 0.49969 -0.21223
 C414 C 0.61379 0.47635 -0.25865
 C415 C 0.64892 0.50055 -0.19815
 C416 C 0.64119 0.47716 -0.24548
 C417 C 0.67210 0.49847 -0.34650
 C418 C 0.68479 0.49831 -0.39097
 C419 C 0.60250 0.50057 -0.16851
 C420 C 0.58582 0.50164 -0.13575
 H421 H 0.63303 0.53936 -0.27011
 H422 H 0.68335 0.54093 -0.24698
 H423 H 0.61918 0.49682 -0.35661
 H424 H 0.59338 0.45754 -0.26179
 H425 H 0.65741 0.50164 -0.15155
 H426 H 0.64373 0.45904 -0.23877
 C427 C 0.85654 0.34787 -0.19988
 C428 C 0.83512 0.35233 -0.23504
 C429 C 0.84410 0.34493 -0.29532
 C430 C 0.86515 0.34016 -0.26109
 C431 C 0.87805 0.37806 -0.21131
 C432 C 0.88690 0.37059 -0.27168
 C433 C 0.85700 0.38283 -0.24557
 C434 C 0.86565 0.37513 -0.30646
 C435 C 0.82660 0.32778 -0.34542
 C436 C 0.81376 0.31518 -0.38990
 C437 C 0.89820 0.39739 -0.16762
 C438 C 0.91588 0.41408 -0.13481
 H439 H 0.85306 0.33693 -0.15545
 H440 H 0.81361 0.34458 -0.22051
 H441 H 0.86832 0.32243 -0.26795
 H442 H 0.90840 0.37831 -0.28637
 H443 H 0.85390 0.40061 -0.23876
 H444 H 0.86926 0.38618 -0.35080
 C445 C 0.49160 -0.12426 -0.27086
 C446 C 0.51708 -0.12433 -0.29669
 C447 C 0.50171 -0.15574 -0.29172
 C448 C 0.47620 -0.15589 -0.26644
 C449 C 0.50259 -0.12256 -0.20541
 C450 C 0.48719 -0.15397 -0.20020
 C451 C 0.52812 -0.12240 -0.23072
 C452 C 0.51275 -0.15414 -0.22638
 C453 C 0.50124 -0.17287 -0.34291
 C454 C 0.50088 -0.18556 -0.38784
 C455 C 0.50308 -0.10288 -0.16061
 C456 C 0.50355 -0.08547 -0.12757
 H457 H 0.48290 -0.11182 -0.28897
 H458 H 0.52939 -0.11232 -0.33687
 H459 H 0.45485 -0.16987 -0.28171
 H460 H 0.47490 -0.16595 -0.15999
 H461 H 0.54948 -0.10843 -0.21559
 H462 H 0.52145 -0.16663 -0.20867
 C463 C 0.36256 0.51623 -0.20643
 C464 C 0.37037 0.52272 -0.27521
 C465 C 0.34252 0.49813 -0.29307
 C466 C 0.33435 0.49160 -0.22511
 C467 C 0.37468 0.49715 -0.20672
 C468 C 0.34684 0.47254 -0.22455
 C469 C 0.38272 0.50366 -0.27476
 C470 C 0.35470 0.47910 -0.29317
 C471 C 0.32586 0.49853 -0.34427
 C472 C 0.31349 0.49876 -0.38922
 C473 C 0.39384 0.49665 -0.16196
 C474 C 0.41075 0.49617 -0.12896
 H475 H 0.36602 0.53148 -0.17018
 H476 H 0.37987 0.54337 -0.29657
 H477 H 0.31425 0.48665 -0.20530
 H478 H 0.33734 0.45187 -0.20332
 H479 H 0.40275 0.50861 -0.29497
 H480 H 0.35128 0.46384 -0.32941
 C481 C 1.11424 0.63726 -0.26048
 C482 C 1.14020 0.66546 -0.24975
 C483 C 1.15593 0.65731 -0.29465
 C484 C 1.13019 0.62937 -0.30598
 C485 C 1.12303 0.62524 -0.20767
 C486 C 1.13876 0.61712 -0.25270
 C487 C 1.14874 0.65317 -0.19607
 C488 C 1.16480 0.64531 -0.24197
 C489 C 1.17291 0.67386 -0.34615
 C490 C 1.18548 0.68612 -0.39130
 C491 C 1.10340 0.60619 -0.16263
 C492 C 1.08593 0.58929 -0.12962
 H493 H 1.09328 0.63383 -0.26788
 H494 H 1.14105 0.68556 -0.24917
 H495 H 1.12274 0.61977 -0.35175
 H496 H 1.13798 0.59705 -0.25359
 H497 H 1.15614 0.66274 -0.15034
 H498 H 1.18581 0.64886 -0.23494
 C499 C 0.85426 0.50503 -0.19688
 C500 C 0.86267 0.52372 -0.25458
 C501 C 0.84404 0.49856 -0.29397
 C502 C 0.83527 0.47982 -0.23722
 C503 C 0.87796 0.49966 -0.20964
 C504 C 0.85933 0.47452 -0.24909
 C505 C 0.88663 0.51835 -0.26648
 C506 C 0.86779 0.49322 -0.30642
 C507 C 0.82653 0.49802 -0.34418
 C508 C 0.81363 0.49772 -0.38858
 C509 C 0.89808 0.50055 -0.16583
 C510 C 0.91577 0.50155 -0.13312
 H511 H 0.84896 0.50987 -0.15122
 H512 H 0.86388 0.54396 -0.25731
 H513 H 0.81392 0.46401 -0.22576
 H514 H 0.85816 0.45429 -0.24643
 H515 H 0.90796 0.53419 -0.27813
 H516 H 0.87321 0.48840 -0.35199
 C517 C 0.47885 0.36466 -0.26136
 C518 C 0.50235 0.37247 -0.30784
 C519 C 0.50105 0.34506 -0.29464
 C520 C 0.47752 0.33699 -0.24871
 C521 C 0.50016 0.37789 -0.20988
 C522 C 0.49886 0.35051 -0.19635
 C523 C 0.52366 0.38592 -0.25587
 C524 C 0.52241 0.35827 -0.24325
 C525 C 0.50135 0.32804 -0.34512
 C526 C 0.50149 0.31545 -0.38974
 C527 C 0.49939 0.39712 -0.16583
 C528 C 0.49849 0.41383 -0.13293
 H529 H 0.46093 0.36747 -0.26847
 H530 H 0.50378 0.38133 -0.35420
 H531 H 0.45857 0.31667 -0.24628
 H532 H 0.49741 0.34175 -0.14988
 H533 H 0.54261 0.40625 -0.25839
 H534 H 0.54032 0.35542 -0.23633
 C535 C 0.61454 0.13927 -0.25126
 C536 C 0.64299 0.16474 -0.23904
 C537 C 0.65477 0.15613 -0.29268
 C538 C 0.62658 0.13097 -0.30548
 C539 C 0.62193 0.12248 -0.20782
 C540 C 0.63375 0.11396 -0.26155
 C541 C 0.65010 0.14760 -0.19469
 C542 C 0.66220 0.13935 -0.24931
 C543 C 0.67175 0.17349 -0.34315
 C544 C 0.68433 0.18630 -0.38769
 C545 C 0.60269 0.10246 -0.16382
 C546 C 0.58595 0.08478 -0.13105
 H547 H 0.59474 0.13903 -0.25165
 H548 H 0.64707 0.18586 -0.23040
 H549 H 0.61710 0.12428 -0.35157
 H550 H 0.62972 0.09286 -0.27039
 H551 H 0.65948 0.15418 -0.14850
 H552 H 0.68198 0.13957 -0.24901
 C553 C 1.13807 0.52080 -0.25322
 C554 C 1.16427 0.51894 -0.24293
 C555 C 1.15531 0.49795 -0.29540
 C556 C 1.12941 0.49985 -0.30625
 C557 C 1.12263 0.49700 -0.20787
 C558 C 1.11376 0.47605 -0.26042
 C559 C 1.14851 0.49508 -0.19666
 C560 C 1.13989 0.47411 -0.25014
 C561 C 1.17215 0.49841 -0.34718
 C562 C 1.18463 0.49872 -0.39246
 C563 C 1.10318 0.49654 -0.16260
 C564 C 1.08589 0.49608 -0.12927
 H565 H 1.13707 0.53998 -0.25395
 H566 H 1.18523 0.53660 -0.23632
 H567 H 1.12170 0.50183 -0.35179
 H568 H 1.09283 0.45837 -0.26728
 H569 H 1.15613 0.49305 -0.15106
 H570 H 1.14088 0.45495 -0.24963
 C571 C 0.49882 0.65003 -0.19620
 C572 C 0.52249 0.66700 -0.24212
 C573 C 0.50161 0.65698 -0.29487
 C574 C 0.47794 0.64034 -0.24995
 C575 C 0.50269 0.62527 -0.20747
 C576 C 0.48184 0.61533 -0.26032
 C577 C 0.52631 0.64193 -0.25249
 C578 C 0.50546 0.63219 -0.30581
 C579 C 0.50115 0.67335 -0.34662
 C580 C 0.50085 0.68551 -0.39190
 C581 C 0.50336 0.60635 -0.16227
 C582 C 0.50401 0.58959 -0.12904
 H583 H 0.49607 0.65711 -0.15053
 H584 H 0.53918 0.68845 -0.23520
 H585 H 0.45804 0.63988 -0.24952
 H586 H 0.46510 0.59389 -0.26743
 H587 H 0.54622 0.64241 -0.25317
 H588 H 0.50817 0.62502 -0.35142
 C589 C 0.37268 -0.14988 -0.22294
 C590 C 0.34100 -0.16355 -0.22466
 C591 C 0.34284 -0.15534 -0.29259
 C592 C 0.37417 -0.14201 -0.29158
 C593 C 0.37457 -0.12259 -0.20531
 C594 C 0.37630 -0.11453 -0.27335
 C595 C 0.34325 -0.13588 -0.20615
 C596 C 0.34478 -0.12805 -0.27493
 C597 C 0.32643 -0.17225 -0.34411
 C598 C 0.31421 -0.18482 -0.38916
 C599 C 0.39347 -0.10301 -0.16021
 C600 C 0.41025 -0.08562 -0.12706
 H601 H 0.38437 -0.15864 -0.20106
 H602 H 0.32625 -0.18394 -0.20532
 H603 H 0.38670 -0.14471 -0.32730
 H604 H 0.39100 -0.09420 -0.29306
 H605 H 0.33076 -0.13314 -0.17043
 H606 H 0.33313 -0.11925 -0.29688
 C607 C 0.50744 -0.11542 0.27380
 C608 C 0.48265 -0.14378 0.28930
 C609 C 0.50190 -0.15565 0.29191
 C610 C 0.52670 -0.12749 0.27695
 C611 C 0.50277 -0.12271 0.20512
 C612 C 0.52208 -0.13454 0.20755
 C613 C 0.47794 -0.15088 0.22002
 C614 C 0.49722 -0.16309 0.22332
 C615 C 0.50143 -0.17267 0.34328
 C616 C 0.50110 -0.18529 0.38827
 C617 C 0.50324 -0.10308 0.16027
 C618 C 0.50369 -0.08567 0.12733
 H619 H 0.51168 -0.09566 0.29437
 H620 H 0.46644 -0.14776 0.32346
 H621 H 0.54673 -0.11808 0.30096
 H622 H 0.53832 -0.13052 0.17343
 H623 H 0.45789 -0.16029 0.19610
 H624 H 0.49301 -0.18292 0.20319
 C625 C 0.38228 0.52121 0.24733
 C626 C 0.35386 0.51848 0.23673
 C627 C 0.34238 0.49801 0.29034
 C628 C 0.37054 0.50079 0.30151
 C629 C 0.37434 0.49704 0.20338
 C630 C 0.36280 0.47662 0.25709
 C631 C 0.34618 0.49425 0.19188
 C632 C 0.33438 0.47381 0.24648
 C633 C 0.32586 0.49845 0.34184
 C634 C 0.31356 0.49873 0.38690
 C635 C 0.39343 0.49650 0.15848
 C636 C 0.41036 0.49598 0.12560
 H637 H 0.40217 0.54072 0.24722
 H638 H 0.34997 0.53569 0.22895
 H639 H 0.38041 0.50349 0.34709
 H640 H 0.36663 0.45937 0.26514
 H641 H 0.33640 0.49156 0.14622
 H642 H 0.31447 0.45433 0.24671
 C643 C 1.13338 0.61530 0.25676
 C644 C 1.16243 0.64013 0.24658
 C645 C 1.15547 0.65693 0.29105
 C646 C 1.12669 0.63234 0.30179
 C647 C 1.12279 0.62536 0.20350
 C648 C 1.11589 0.64220 0.24806
 C649 C 1.15156 0.64995 0.19242
 C650 C 1.14494 0.66710 0.23791
 C651 C 1.17236 0.67326 0.34267
 C652 C 1.18489 0.68544 0.38778
 C653 C 1.10333 0.60648 0.15822
 C654 C 1.08600 0.58963 0.12510
 H655 H 1.12840 0.59380 0.26414
 H656 H 1.18175 0.63946 0.24653
 H657 H 1.11668 0.62529 0.34731
 H658 H 1.09659 0.64294 0.24837
 H659 H 1.16152 0.65699 0.14682
 H660 H 1.14997 0.68863 0.23088
 C661 C 0.52502 0.14055 0.25151
 C662 C 0.51962 0.16457 0.23988
 C663 C 0.50086 0.15566 0.29662
 C664 C 0.50630 0.13196 0.30884
 C665 C 0.49994 0.12189 0.21199
 C666 C 0.48124 0.11308 0.26881
 C667 C 0.49448 0.14555 0.19946
 C668 C 0.47577 0.13700 0.25715
 C669 C 0.50128 0.17314 0.34686
 C670 C 0.50156 0.18605 0.39123
 C671 C 0.49913 0.10186 0.16799
 C672 C 0.49816 0.08424 0.13498
 H673 H 0.54527 0.14180 0.24875
 H674 H 0.53538 0.18597 0.22860
 H675 H 0.51114 0.12650 0.35432
 H676 H 0.46546 0.09171 0.28030
 H677 H 0.48962 0.15091 0.15390
 H678 H 0.45552 0.13573 0.26001
 C679 C 0.64770 0.49856 0.19572
 C680 C 0.66298 0.52087 0.24544
 C681 C 0.65417 0.49822 0.29405
 C682 C 0.63921 0.47588 0.24531
 C683 C 0.62150 0.49954 0.20967
 C684 C 0.61274 0.47692 0.25835
 C685 C 0.63648 0.52183 0.25850
 C686 C 0.62794 0.49921 0.30767
 C687 C 0.67116 0.49771 0.34422
 C688 C 0.68380 0.49749 0.38859
 C689 C 0.60237 0.50053 0.16580
 C690 C 0.58578 0.50158 0.13290
 H691 H 0.65558 0.49831 0.14910
 H692 H 0.68383 0.53893 0.24069
 H693 H 0.64056 0.45699 0.24046
 H694 H 0.59188 0.45886 0.26321
 H695 H 0.63516 0.54073 0.26351
 H696 H 0.61997 0.49948 0.35419
 C697 C 0.88715 0.36869 0.26703
 C698 C 0.86830 0.37497 0.30694
 C699 C 0.84460 0.34578 0.29491
 C700 C 0.86324 0.33926 0.25557
 C701 C 0.87838 0.37850 0.21011
 C702 C 0.85473 0.34934 0.19777
 C703 C 0.85975 0.38501 0.24949
 C704 C 0.83573 0.35555 0.23806
 C705 C 0.82716 0.32881 0.34524
 C706 C 0.81431 0.31620 0.38970
 C707 C 0.89840 0.39766 0.16601
 C708 C 0.91601 0.41427 0.13294
 H709 H 0.90851 0.37432 0.27851
 H710 H 0.87373 0.38534 0.35234
 H711 H 0.86448 0.32025 0.25863
 H712 H 0.84944 0.33907 0.15226
 H713 H 0.85858 0.40406 0.24651
 H714 H 0.81436 0.34990 0.22675
   
