data_POSCAR
  _audit_creation_date              2014-09-24
  _audit_creation_method            'ToBaCCo'
  _symmetry_space_group_name_H-M    'P1'
  _symmetry_Int_Tables_number       1
  _symmetry_cell_setting            triclinic
  loop_
  _symmetry_equiv_pos_as_xyz
 x,y,z
_cell_length_a 51.8523
_cell_length_b 52.2034
_cell_length_c 52.6159
_cell_angle_alpha 90.004800
_cell_angle_beta 90.004500
_cell_angle_gamma 90.011400
loop_
  _atom_site_label
  _atom_site_type_symbol
  _atom_site_fract_x
  _atom_site_fract_y
  _atom_site_fract_z
O1 O 0.32180 0.35616 0.02444
 O2 O 0.35666 0.32112 -0.02493
 O3 O 0.32219 0.35664 -0.02481
 O4 O 0.35652 0.32088 0.02434
 O5 O 0.32649 0.29086 0.02402
 O6 O 0.29099 0.32785 -0.02513
 O7 O 0.32641 0.29132 -0.02556
 O8 O 0.29089 0.32702 0.02433
 Cu9 Cu 0.34231 0.34160 -0.00021
 Cu10 Cu 0.30558 0.30623 -0.00065
 C11 C 0.30042 0.34780 0.03271
 C12 C 0.34771 0.30026 -0.03357
 C13 C 0.30067 0.34873 -0.03319
 C14 C 0.34764 0.29979 0.03248
 O15 O 0.67842 0.64395 0.02400
 O16 O 0.64349 0.67886 -0.02539
 O17 O 0.67792 0.64331 -0.02524
 O18 O 0.64378 0.67929 0.02387
 O19 O 0.67385 0.70927 0.02339
 O20 O 0.70915 0.67207 -0.02574
 O21 O 0.67377 0.70863 -0.02618
 O22 O 0.70938 0.67304 0.02372
 Cu23 Cu 0.65788 0.65846 -0.00064
 Cu24 Cu 0.69466 0.69378 -0.00128
 C25 C 0.69984 0.65230 0.03220
 C26 C 0.65243 0.69969 -0.03411
 C27 C 0.69942 0.65117 -0.03370
 C28 C 0.65271 0.70040 0.03192
 O29 O 0.67831 0.35613 0.97565
 O30 O 0.64344 0.32119 1.02508
 O31 O 0.67788 0.35674 1.02489
 O32 O 0.64361 0.32083 0.97581
 O33 O 0.67365 0.29083 0.97621
 O34 O 0.70909 0.32797 1.02530
 O35 O 0.67371 0.29142 1.02579
 O36 O 0.70923 0.32702 0.97584
 Cu37 Cu 0.65778 0.34162 1.00032
 Cu38 Cu 0.69453 0.30628 1.00086
 C39 C 0.69969 0.34778 0.96740
 C40 C 0.65239 0.30036 1.03378
 C41 C 0.69939 0.34886 1.03331
 C42 C 0.65251 0.29974 0.96772
 O43 O 0.32180 0.64370 0.97604
 O44 O 0.35680 0.67884 1.02526
 O45 O 0.32235 0.64328 1.02528
 O46 O 0.35649 0.67903 0.97599
 O47 O 0.32643 0.70902 0.97637
 O48 O 0.29113 0.67203 1.02566
 O49 O 0.32652 0.70861 1.02594
 O50 O 0.29088 0.67281 0.97620
 Cu51 Cu 0.34238 0.65832 1.00061
 Cu52 Cu 0.30563 0.69364 1.00111
 C53 C 0.30039 0.65202 0.96781
 C54 C 0.34787 0.69971 1.03389
 C55 C 0.30084 0.65117 1.03371
 C56 C 0.34757 0.70010 0.96786
 O57 O 0.02463 0.32286 0.35671
 O58 O -0.02552 0.35738 0.32191
 O59 O -0.02534 0.32318 0.35718
 O60 O 0.02447 0.35736 0.32166
 O61 O 0.02418 0.32751 0.29189
 O62 O -0.02561 0.29217 0.32863
 O63 O -0.02611 0.32730 0.29237
 O64 O 0.02457 0.29216 0.32781
 Cu65 Cu -0.00041 0.34320 0.34224
 Cu66 Cu -0.00079 0.30669 0.30718
 C67 C 0.03304 0.30163 0.34844
 C68 C -0.03428 0.34846 0.30122
 C69 C -0.03382 0.30179 0.34934
 C70 C 0.03271 0.34856 0.30073
 O71 O 0.02517 0.67682 0.64314
 O72 O -0.02513 0.64237 0.67783
 O73 O -0.02479 0.67651 0.64250
 O74 O 0.02487 0.64238 0.67824
 O75 O 0.02450 0.67227 0.70796
 O76 O -0.02515 0.70755 0.67100
 O77 O -0.02579 0.67249 0.70732
 O78 O 0.02501 0.70757 0.67199
 Cu79 Cu 0.00007 0.65651 0.65756
 Cu80 Cu -0.00041 0.69307 0.69257
 C81 C 0.03355 0.69807 0.65140
 C82 C -0.03395 0.65132 0.69847
 C83 C -0.03327 0.69792 0.65027
 C84 C 0.03305 0.65122 0.69919
 O85 O 1.02520 0.64250 0.32215
 O86 O 0.97498 0.67697 0.35691
 O87 O 0.97520 0.64255 0.32180
 O88 O 1.02495 0.67664 0.35749
 O89 O 1.02528 0.70769 0.32900
 O90 O 0.97557 0.67245 0.29208
 O91 O 0.97512 0.70773 0.32807
 O92 O 1.02586 0.67263 0.29267
 Cu93 Cu 1.00004 0.65665 0.34245
 Cu94 Cu 1.00052 0.69322 0.30746
 C95 C 1.03400 0.65146 0.30149
 C96 C 0.96660 0.69823 0.34866
 C97 C 0.96701 0.65140 0.30086
 C98 C 1.03343 0.69804 0.34971
 O99 O 0.97521 0.32315 0.64267
 O100 O 1.02531 0.35761 0.67765
 O101 O 1.02516 0.32350 0.64227
 O102 O 0.97531 0.35755 0.67783
 O103 O 0.97557 0.32763 0.70752
 O104 O 1.02539 0.29241 0.67072
 O105 O 1.02587 0.32744 0.70709
 O106 O 0.97523 0.29237 0.67149
 Cu107 Cu 1.00022 0.34347 0.65725
 Cu108 Cu 1.00056 0.30687 0.69220
 C109 C 0.96680 0.30188 0.65086
 C110 C 1.03405 0.34863 0.69833
 C111 C 1.03360 0.30207 0.65004
 C112 C 0.96705 0.34869 0.69873
 O113 O 0.35620 0.02481 0.32179
 O114 O 0.32175 -0.02524 0.35652
 O115 O 0.35655 -0.02483 0.32154
 O116 O 0.32153 0.02441 0.35688
 O117 O 0.29064 0.02458 0.32797
 O118 O 0.32652 -0.02497 0.29175
 O119 O 0.29086 -0.02537 0.32761
 O120 O 0.32617 0.02491 0.29199
 Cu121 Cu 0.34202 -0.00021 0.34208
 Cu122 Cu 0.30542 -0.00021 0.30684
 C123 C 0.34733 0.03327 0.30095
 C124 C 0.30044 -0.03373 0.34824
 C125 C 0.34778 -0.03318 0.30063
 C126 C 0.30013 0.03280 0.34871
 O127 O 0.64410 0.02490 0.67845
 O128 O 0.67854 -0.02508 0.64362
 O129 O 0.64373 -0.02474 0.67856
 O130 O 0.67880 0.02458 0.64338
 O131 O 0.70969 0.02465 0.67230
 O132 O 0.67373 -0.02496 0.70838
 O133 O 0.70941 -0.02530 0.67257
 O134 O 0.67411 0.02494 0.70826
 Cu135 Cu 0.65829 -0.00007 0.65810
 Cu136 Cu 0.69486 -0.00017 0.69337
 C137 C 0.65295 0.03331 0.69931
 C138 C 0.69983 -0.03362 0.65191
 C139 C 0.65248 -0.03315 0.69946
 C140 C 0.70021 0.03293 0.65157
 O141 O 0.35599 0.97525 0.67825
 O142 O 0.32153 1.02515 0.64331
 O143 O 0.35626 1.02490 0.67834
 O144 O 0.32142 0.97551 0.64305
 O145 O 0.29045 0.97535 0.67189
 O146 O 0.32618 1.02504 0.70808
 O147 O 0.29058 1.02529 0.67218
 O148 O 0.32589 0.97515 0.70797
 Cu149 Cu 0.34181 1.00020 0.65785
 Cu150 Cu 0.30515 1.00021 0.69302
 C151 C 0.34709 0.96681 0.69907
 C152 C 0.30019 1.03363 0.65154
 C153 C 0.34744 1.03329 0.69922
 C154 C 0.30001 0.96711 0.65119
 O155 O 0.64369 0.97535 0.32214
 O156 O 0.67758 1.02512 0.35776
 O157 O 0.64326 1.02500 0.32237
 O158 O 0.67800 0.97547 0.35760
 O159 O 0.70914 0.97555 0.32894
 O160 O 0.67373 1.02564 0.29302
 O161 O 0.70897 1.02543 0.32940
 O162 O 0.67398 0.97571 0.29261
 Cu163 Cu 0.65759 1.00020 0.34282
 Cu164 Cu 0.69460 1.00064 0.30803
 C165 C 0.65277 0.96717 0.30129
 C166 C 0.69912 1.03361 0.35001
 C167 C 0.65232 1.03368 0.30170
 C168 C 0.69947 0.96716 0.34953
 C169 C 0.86539 0.78765 0.47690
 C170 C 0.87416 0.77786 0.50004
 C171 C 0.86545 0.78726 0.52338
 C172 C 0.84707 0.80731 0.52375
 C173 C 0.83789 0.81758 0.50037
 C174 C 0.84709 0.80772 0.47686
 C175 C 0.83678 0.81728 0.45406
 C176 C 0.81794 0.83625 0.45419
 C177 C 0.80861 0.84643 0.47713
 C178 C 0.81861 0.83696 0.50050
 C179 C 0.83666 0.81645 0.54667
 C180 C 0.81782 0.83542 0.54679
 C181 C 0.80857 0.84601 0.52400
 C182 C 0.78860 0.86446 0.52392
 C183 C 0.77900 0.87343 0.50076
 C184 C 0.78862 0.86487 0.47746
 H185 H 0.84268 0.80978 0.43581
 H186 H 0.81032 0.84233 0.43605
 H187 H 0.84242 0.80860 0.56480
 H188 H 0.81014 0.84119 0.56501
 H189 H 0.88831 0.76254 0.49985
 H190 H 0.76371 0.88762 0.50088
 C191 C 0.13437 0.21212 0.47656
 C192 C 0.12570 0.22194 0.49972
 C193 C 0.13445 0.21252 0.52304
 C194 C 0.15277 0.19242 0.52335
 C195 C 0.16185 0.18211 0.49996
 C196 C 0.15261 0.19200 0.47646
 C197 C 0.16283 0.18240 0.45364
 C198 C 0.18162 0.16339 0.45372
 C199 C 0.19098 0.15318 0.47663
 C200 C 0.18107 0.16267 0.50004
 C201 C 0.16322 0.18325 0.54625
 C202 C 0.18200 0.16422 0.54632
 C203 C 0.19116 0.15360 0.52351
 C204 C 0.21108 0.13509 0.52337
 C205 C 0.22058 0.12610 0.50019
 C206 C 0.21093 0.13469 0.47691
 H207 H 0.15691 0.18992 0.43541
 H208 H 0.18916 0.15728 0.43556
 H209 H 0.15753 0.19112 0.56439
 H210 H 0.18973 0.15844 0.56452
 H211 H 0.11160 0.23730 0.49958
 H212 H 0.23585 0.11188 0.50026
 C213 C 0.21127 0.86476 0.47632
 C214 C 0.22078 0.87376 0.49950
 C215 C 0.21112 0.86518 0.52277
 C216 C 0.19118 0.84667 0.52306
 C217 C 0.18126 0.83718 0.49966
 C218 C 0.19134 0.84626 0.47619
 C219 C 0.18216 0.83564 0.45338
 C220 C 0.16337 0.81661 0.45346
 C221 C 0.15293 0.80744 0.47636
 C222 C 0.16204 0.81774 0.49975
 C223 C 0.18185 0.83645 0.54598
 C224 C 0.16307 0.81742 0.54607
 C225 C 0.15283 0.80783 0.52325
 C226 C 0.13459 0.78770 0.52316
 C227 C 0.12588 0.77790 0.50000
 C228 C 0.13460 0.78734 0.47668
 H229 H 0.18987 0.84142 0.43518
 H230 H 0.15766 0.80875 0.43532
 H231 H 0.18941 0.84255 0.56414
 H232 H 0.15717 0.80989 0.56430
 H233 H 0.23604 0.88799 0.49942
 H234 H 0.11178 0.76253 0.50016
 C235 C 0.86553 0.21211 0.52265
 C236 C 0.87399 0.22191 0.49940
 C237 C 0.86505 0.21246 0.47617
 C238 C 0.84673 0.19234 0.47602
 C239 C 0.83788 0.18202 0.49950
 C240 C 0.84732 0.19195 0.52291
 C241 C 0.83733 0.18234 0.54583
 C242 C 0.81860 0.16327 0.54592
 C243 C 0.80906 0.15303 0.52309
 C244 C 0.81870 0.16254 0.49959
 C245 C 0.83604 0.18319 0.45323
 C246 C 0.81725 0.16415 0.45332
 C247 C 0.80837 0.15345 0.47621
 C248 C 0.78850 0.13486 0.47655
 C249 C 0.77934 0.12582 0.49986
 C250 C 0.78917 0.13449 0.52302
 H251 H 0.84339 0.18989 0.56400
 H252 H 0.81126 0.15713 0.56415
 H253 H 0.84155 0.19109 0.43504
 H254 H 0.80931 0.15844 0.43520
 H255 H 0.88809 0.23729 0.49942
 H256 H 0.76414 0.11152 0.50000
 C257 C 0.52300 0.79035 0.86642
 C258 C 0.49942 0.78091 0.87521
 C259 C 0.47586 0.79056 0.86663
 C260 C 0.47566 0.81044 0.84837
 C261 C 0.49945 0.82030 0.83908
 C262 C 0.52323 0.81026 0.84818
 C263 C 0.54644 0.81945 0.83784
 C264 C 0.54645 0.83816 0.81902
 C265 C 0.52325 0.84843 0.80973
 C266 C 0.49946 0.83939 0.81980
 C267 C 0.45246 0.81978 0.83818
 C268 C 0.45246 0.83842 0.81928
 C269 C 0.47568 0.84852 0.80983
 C270 C 0.47590 0.86654 0.78976
 C271 C 0.49947 0.87512 0.78012
 C272 C 0.52305 0.86653 0.78972
 H273 H 0.56488 0.81182 0.84369
 H274 H 0.56490 0.84396 0.81138
 H275 H 0.43400 0.81232 0.84422
 H276 H 0.43401 0.84431 0.81174
 H277 H 0.49942 0.76564 0.88922
 H278 H 0.49946 0.88900 0.76476
 C279 C 0.52343 0.13399 0.21087
 C280 C 0.49985 0.12537 0.22046
 C281 C 0.47628 0.13384 0.21073
 C282 C 0.47606 0.15180 0.19061
 C283 C 0.49984 0.16094 0.18063
 C284 C 0.52363 0.15200 0.19078
 C285 C 0.54682 0.16227 0.18147
 C286 C 0.54680 0.18089 0.16255
 C287 C 0.52358 0.19000 0.15215
 C288 C 0.49981 0.17995 0.16127
 C289 C 0.45284 0.16182 0.18109
 C290 C 0.45282 0.18039 0.16213
 C291 C 0.47602 0.18973 0.15193
 C292 C 0.47620 0.20955 0.13359
 C293 C 0.49976 0.21919 0.12498
 C294 C 0.52334 0.20982 0.13383
 H295 H 0.56527 0.15654 0.18915
 H296 H 0.56524 0.18852 0.15667
 H297 H 0.43438 0.15593 0.18863
 H298 H 0.43435 0.18780 0.15604
 H299 H 0.49984 0.11154 0.23586
 H300 H 0.49974 0.23441 0.11092
 C301 C 0.52385 0.13337 0.78987
 C302 C 0.50028 0.12483 0.78020
 C303 C 0.47671 0.13343 0.78981
 C304 C 0.47651 0.15148 0.80987
 C305 C 0.50031 0.16049 0.81996
 C306 C 0.52409 0.15136 0.80997
 C307 C 0.54731 0.16144 0.81943
 C308 C 0.54733 0.18004 0.83837
 C309 C 0.52413 0.18938 0.84857
 C310 C 0.50033 0.17954 0.83928
 C311 C 0.45332 0.16174 0.81918
 C312 C 0.45335 0.18042 0.83805
 C313 C 0.47656 0.18958 0.84840
 C314 C 0.47681 0.20946 0.86667
 C315 C 0.50039 0.21888 0.87547
 C316 C 0.52395 0.20923 0.86687
 H317 H 0.56576 0.15555 0.81188
 H318 H 0.56579 0.18749 0.84441
 H319 H 0.43487 0.15597 0.81154
 H320 H 0.43491 0.18803 0.84393
 H321 H 0.50028 0.11099 0.76481
 H322 H 0.50042 0.23413 0.88949
 C323 C 0.47727 0.79099 0.13300
 C324 C 0.50084 0.78157 0.12419
 C325 C 0.52441 0.79127 0.13274
 C326 C 0.52461 0.81117 0.15097
 C327 C 0.50081 0.82100 0.16028
 C328 C 0.47704 0.81091 0.15122
 C329 C 0.45383 0.82007 0.16159
 C330 C 0.45383 0.83879 0.18041
 C331 C 0.47702 0.84909 0.18967
 C332 C 0.50081 0.84010 0.17956
 C333 C 0.54782 0.82057 0.16111
 C334 C 0.54781 0.83922 0.18000
 C335 C 0.52460 0.84927 0.18950
 C336 C 0.52438 0.86727 0.20959
 C337 C 0.50082 0.87580 0.21928
 C338 C 0.47724 0.86717 0.20971
 H339 H 0.43539 0.81242 0.15576
 H340 H 0.43538 0.84455 0.18808
 H341 H 0.56628 0.81315 0.15503
 H342 H 0.56627 0.84518 0.18750
 H343 H 0.50086 0.76628 0.11021
 H344 H 0.50084 0.88965 0.23467
 C345 C 0.78926 0.47637 0.86641
 C346 C 0.77955 0.49974 0.87509
 C347 C 0.78880 0.52322 0.86617
 C348 C 0.80864 0.52349 0.84769
 C349 C 0.81884 0.49988 0.83860
 C350 C 0.80913 0.47623 0.84801
 C351 C 0.81861 0.45319 0.83785
 C352 C 0.83731 0.45322 0.81890
 C353 C 0.84729 0.47629 0.80931
 C354 C 0.83794 0.49991 0.81920
 C355 C 0.81761 0.54653 0.83710
 C356 C 0.83630 0.54656 0.81813
 C357 C 0.84680 0.52354 0.80894
 C358 C 0.86492 0.52334 0.78885
 C359 C 0.87375 0.49994 0.77936
 C360 C 0.86538 0.47652 0.78918
 H361 H 0.81124 0.43483 0.84398
 H362 H 0.84334 0.43489 0.81142
 H363 H 0.80981 0.56483 0.84284
 H364 H 0.84192 0.56488 0.81032
 H365 H 0.76436 0.49962 0.88928
 H366 H 0.88768 0.49996 0.76396
 C367 C 0.13443 0.47661 0.21054
 C368 C 0.12604 0.50003 0.22037
 C369 C 0.13492 0.52344 0.21093
 C370 C 0.15309 0.52364 0.19088
 C371 C 0.16196 0.50002 0.18062
 C372 C 0.15258 0.47640 0.19047
 C373 C 0.16257 0.45333 0.18089
 C374 C 0.18133 0.45331 0.16199
 C375 C 0.19084 0.47636 0.15187
 C376 C 0.18111 0.50001 0.16127
 C377 C 0.16362 0.54667 0.18173
 C378 C 0.18236 0.54665 0.16281
 C379 C 0.19135 0.52362 0.15223
 C380 C 0.21124 0.52336 0.13380
 C381 C 0.22051 0.49988 0.12489
 C382 C 0.21077 0.47651 0.13352
 H383 H 0.15651 0.43500 0.18834
 H384 H 0.18871 0.43496 0.15587
 H385 H 0.15799 0.56498 0.18955
 H386 H 0.19018 0.56496 0.15710
 H387 H 0.11208 0.50004 0.23574
 H388 H 0.23574 0.49978 0.11074
 C389 C 0.78948 0.52364 0.13302
 C390 C 0.77975 0.50028 0.12434
 C391 C 0.78899 0.47680 0.13327
 C392 C 0.80882 0.47652 0.15175
 C393 C 0.81905 0.50012 0.16083
 C394 C 0.80935 0.52378 0.15142
 C395 C 0.81885 0.54682 0.16158
 C396 C 0.83754 0.54678 0.18054
 C397 C 0.84750 0.52370 0.19014
 C398 C 0.83814 0.50009 0.18024
 C399 C 0.81776 0.45347 0.16234
 C400 C 0.83646 0.45344 0.18131
 C401 C 0.84696 0.47646 0.19051
 C402 C 0.86508 0.47665 0.21061
 C403 C 0.87393 0.50004 0.22010
 C404 C 0.86557 0.52347 0.21027
 H405 H 0.81149 0.56518 0.15545
 H406 H 0.84359 0.56510 0.18802
 H407 H 0.80995 0.43518 0.15660
 H408 H 0.84205 0.43512 0.18913
 H409 H 0.76455 0.50040 0.11016
 H410 H 0.88784 0.50002 0.23552
 C411 C 0.13486 0.47643 0.78941
 C412 C 0.12603 0.49985 0.77995
 C413 C 0.13441 0.52326 0.78981
 C414 C 0.15249 0.52346 0.80995
 C415 C 0.16182 0.49983 0.81982
 C416 C 0.15296 0.47621 0.80952
 C417 C 0.16343 0.45318 0.81871
 C418 C 0.18213 0.45318 0.83768
 C419 C 0.19111 0.47621 0.84829
 C420 C 0.18091 0.49983 0.83923
 C421 C 0.16247 0.54652 0.81957
 C422 C 0.18117 0.54653 0.83853
 C423 C 0.19064 0.52347 0.84867
 C424 C 0.21052 0.52331 0.86706
 C425 C 0.22022 0.49993 0.87571
 C426 C 0.21095 0.47646 0.86676
 H427 H 0.15781 0.43487 0.81087
 H428 H 0.18991 0.43487 0.84342
 H429 H 0.15644 0.56486 0.81211
 H430 H 0.18854 0.56488 0.84468
 H431 H 0.11212 0.49985 0.76454
 H432 H 0.23542 0.50002 0.88990
 C433 C 0.26126 0.39496 0.08388
 N434 N 0.28691 0.39778 0.07974
 N435 N 0.29936 0.38223 0.06395
 C436 C 0.28670 0.36309 0.05179
 N437 N 0.26108 0.35988 0.05622
 N438 N 0.24854 0.37563 0.07194
 C439 C 0.24761 0.41408 0.09931
 N440 N 0.22142 0.41510 0.10004
 N441 N 0.20946 0.43435 0.11187
 C442 C 0.22328 0.45315 0.12348
 N443 N 0.24940 0.45188 0.12291
 N444 N 0.26131 0.43273 0.11112
 C445 C 0.73903 0.60523 0.08341
 N446 N 0.71335 0.60245 0.07934
 N447 N 0.70090 0.61798 0.06354
 C448 C 0.71357 0.63706 0.05130
 N449 N 0.73921 0.64023 0.05566
 N450 N 0.75176 0.62450 0.07139
 C451 C 0.75268 0.58610 0.09883
 N452 N 0.77886 0.58506 0.09954
 N453 N 0.79082 0.56579 0.11136
 C454 C 0.77699 0.54702 0.12298
 N455 N 0.75087 0.54832 0.12245
 N456 N 0.73896 0.56748 0.11067
 C457 C 0.73882 0.39483 0.91612
 N458 N 0.71316 0.39764 0.92025
 N459 N 0.70073 0.38211 0.93608
 C460 C 0.71340 0.36302 0.94829
 N461 N 0.73902 0.35982 0.94387
 N462 N 0.75156 0.37555 0.92811
 C463 C 0.75246 0.41394 0.90067
 N464 N 0.77864 0.41497 0.89992
 N465 N 0.79060 0.43423 0.88807
 C466 C 0.77677 0.45300 0.87646
 N467 N 0.75065 0.45172 0.87703
 N468 N 0.73875 0.43257 0.88885
 C469 C 0.26112 0.60481 0.91673
 N470 N 0.28678 0.60197 0.92086
 N471 N 0.29926 0.61753 0.93663
 C472 C 0.28663 0.63670 0.94877
 N473 N 0.26101 0.63992 0.94436
 N474 N 0.24843 0.62417 0.92866
 C475 C 0.24744 0.58569 0.90132
 N476 N 0.22126 0.58471 0.90056
 N477 N 0.20926 0.56547 0.88872
 C478 C 0.22306 0.54666 0.87712
 N479 N 0.24918 0.54789 0.87771
 N480 N 0.26112 0.56703 0.88951
 C481 C 0.08468 0.26259 0.39541
 N482 N 0.08056 0.28809 0.39820
 N483 N 0.06464 0.30051 0.38270
 C484 C 0.05235 0.28798 0.36365
 N485 N 0.05678 0.26251 0.36048
 N486 N 0.07261 0.25000 0.37617
 C487 C 0.10017 0.24895 0.41446
 N488 N 0.10075 0.22294 0.41547
 N489 N 0.11258 0.21098 0.43463
 C490 C 0.12436 0.22463 0.45333
 N491 N 0.12395 0.25058 0.45208
 N492 N 0.11214 0.26249 0.43302
 C493 C 0.08513 0.73715 0.60440
 N494 N 0.07304 0.74974 0.62363
 N495 N 0.05724 0.73721 0.63934
 C496 C 0.05286 0.71173 0.63620
 N497 N 0.06517 0.69920 0.61717
 N498 N 0.08106 0.71164 0.60165
 C499 C 0.10055 0.75081 0.58531
 N500 N 0.11250 0.73729 0.56673
 N501 N 0.12425 0.74922 0.54765
 C502 C 0.12462 0.77517 0.54639
 N503 N 0.11287 0.78880 0.56512
 N504 N 0.10110 0.77682 0.58430
 C505 C 0.91495 0.73723 0.39565
 N506 N 0.91906 0.71173 0.39840
 N507 N 0.93497 0.69932 0.38289
 C508 C 0.94728 0.71187 0.36387
 N509 N 0.94287 0.73734 0.36074
 N510 N 0.92703 0.74984 0.37644
 C511 C 0.89948 0.75086 0.41473
 N512 N 0.89889 0.77687 0.41575
 N513 N 0.88709 0.78881 0.43494
 C514 C 0.87535 0.77515 0.45365
 N515 N 0.87576 0.74920 0.45238
 N516 N 0.88754 0.73731 0.43330
 C517 C 0.91542 0.26276 0.60365
 N518 N 0.92739 0.25020 0.62296
 N519 N 0.94314 0.26274 0.63872
 C520 C 0.94758 0.28820 0.63555
 N521 N 0.93539 0.30070 0.61643
 N522 N 0.91956 0.28825 0.60085
 C523 C 0.89998 0.24908 0.58457
 N524 N 0.88802 0.26258 0.56599
 N525 N 0.87617 0.25064 0.54697
 C526 C 0.87571 0.22468 0.54579
 N527 N 0.88750 0.21107 0.56450
 N528 N 0.89937 0.22307 0.58362
 C529 C 0.39433 0.08468 0.26159
 N530 N 0.37475 0.07255 0.24932
 N531 N 0.35901 0.05680 0.26194
 C532 C 0.36248 0.05251 0.28719
 N533 N 0.38186 0.06486 0.29940
 N534 N 0.39741 0.08070 0.28688
 C535 C 0.41352 0.10004 0.24784
 N536 N 0.43238 0.11210 0.26108
 N537 N 0.45163 0.12378 0.24908
 C538 C 0.45279 0.12396 0.22333
 N539 N 0.43377 0.11211 0.20997
 N540 N 0.41441 0.10041 0.22202
 C541 C 0.60586 0.08450 0.73882
 N542 N 0.60279 0.08058 0.71352
 N543 N 0.61837 0.06483 0.70095
 C544 C 0.63778 0.05249 0.71312
 N545 N 0.64125 0.05672 0.73839
 N546 N 0.62547 0.07239 0.75106
 C547 C 0.58664 0.09977 0.75262
 N548 N 0.58578 0.10011 0.77844
 N549 N 0.56641 0.11174 0.79054
 C550 C 0.54734 0.12355 0.77722
 N551 N 0.54846 0.12339 0.75147
 N552 N 0.56772 0.11178 0.73942
 C553 C 0.39403 0.91552 0.73863
 N554 N 0.37440 0.92763 0.75083
 N555 N 0.35868 0.94335 0.73815
 C556 C 0.36223 0.94762 0.71290
 N557 N 0.38166 0.93528 0.70076
 N558 N 0.39718 0.91948 0.71335
 C559 C 0.41318 0.90019 0.75245
 N560 N 0.43210 0.88815 0.73927
 N561 N 0.45133 0.87651 0.75134
 C562 C 0.45241 0.87634 0.77709
 N563 N 0.43335 0.88818 0.79039
 N564 N 0.41401 0.89984 0.77827
 C565 C 0.60617 0.91603 0.26111
 N566 N 0.62569 0.92845 0.24903
 N567 N 0.64132 0.94412 0.26190
 C568 C 0.63778 0.94802 0.28720
 N569 N 0.61847 0.93537 0.29921
 N570 N 0.60304 0.91963 0.28644
 C571 C 0.58707 0.90075 0.24713
 N572 N 0.56823 0.88848 0.26021
 N573 N 0.54901 0.87689 0.24806
 C574 C 0.54787 0.87701 0.22230
 N575 N 0.56687 0.88906 0.20910
 N576 N 0.58619 0.90067 0.22131
 C577 C 0.39489 0.26074 0.91547
 N578 N 0.39813 0.28616 0.91972
 N579 N 0.38254 0.29873 0.93542
 C580 C 0.36295 0.28645 0.94736
 N581 N 0.35932 0.26107 0.94280
 N582 N 0.37510 0.24840 0.92718
 C583 C 0.41410 0.24692 0.90021
 N584 N 0.41476 0.22090 0.89947
 N585 N 0.43411 0.20875 0.88786
 C586 C 0.45335 0.22221 0.87647
 N587 N 0.45243 0.24817 0.87702
 N588 N 0.43319 0.26027 0.88861
 C589 C 0.60508 0.73913 0.91504
 N590 N 0.62490 0.75150 0.92668
 N591 N 0.64075 0.73885 0.94226
 C592 C 0.63714 0.71347 0.94684
 N593 N 0.61752 0.70117 0.93497
 N594 N 0.60187 0.71372 0.91931
 C595 C 0.58581 0.75294 0.89984
 N596 N 0.56670 0.73957 0.88830
 N597 N 0.54741 0.75165 0.87675
 C598 C 0.54647 0.77761 0.87620
 N599 N 0.56574 0.79109 0.88755
 N600 N 0.58513 0.77896 0.89911
 C601 C 0.39525 0.73943 0.08455
 N602 N 0.37538 0.75172 0.07290
 N603 N 0.35954 0.73898 0.05738
 C604 C 0.36318 0.71359 0.05287
 N605 N 0.38285 0.70137 0.06474
 N606 N 0.39850 0.71401 0.08034
 C607 C 0.41450 0.75333 0.09970
 N608 N 0.43366 0.74004 0.11126
 N609 N 0.45292 0.75220 0.12277
 C610 C 0.45380 0.77817 0.12328
 N611 N 0.43450 0.79157 0.11192
 N612 N 0.41513 0.77935 0.10039
 C613 C 0.60524 0.26098 0.08488
 N614 N 0.62503 0.24861 0.07319
 N615 N 0.64081 0.26124 0.05752
 C616 C 0.63716 0.28660 0.05289
 N617 N 0.61757 0.29891 0.06480
 N618 N 0.60200 0.28638 0.08055
 C619 C 0.58605 0.24720 0.10018
 N620 N 0.56696 0.26058 0.11174
 N621 N 0.54772 0.24851 0.12337
 C622 C 0.54680 0.22255 0.12401
 N623 N 0.56604 0.20906 0.11265
 N624 N 0.58539 0.22118 0.10100
 C625 C 0.26143 0.08527 0.60450
 N626 N 0.28703 0.08083 0.60168
 N627 N 0.29936 0.06490 0.61720
 C628 C 0.28662 0.05289 0.63628
 N629 N 0.26105 0.05762 0.63949
 N630 N 0.24863 0.07349 0.62379
 C631 C 0.24788 0.10079 0.58544
 N632 N 0.22171 0.10190 0.58460
 N633 N 0.20978 0.11378 0.56544
 C634 C 0.22364 0.12507 0.54658
 N635 N 0.24975 0.12413 0.54767
 N636 N 0.26163 0.11229 0.56672
 C637 C 0.73711 0.08425 0.39650
 N638 N 0.71245 0.07715 0.40133
 N639 N 0.70016 0.06109 0.38592
 C640 C 0.71192 0.05161 0.36490
 N641 N 0.73650 0.05908 0.35971
 N642 N 0.74895 0.07501 0.37535
 C643 C 0.75080 0.10012 0.41518
 N644 N 0.77693 0.10231 0.41506
 N645 N 0.78910 0.11435 0.43397
 C646 C 0.77555 0.12480 0.45353
 N647 N 0.74946 0.12284 0.45334
 N648 N 0.73735 0.11078 0.43457
 C649 C 0.73846 0.91449 0.60504
 N650 N 0.75130 0.92633 0.62427
 N651 N 0.73893 0.94227 0.63993
 C652 C 0.71336 0.94704 0.63671
 N653 N 0.70059 0.93498 0.61768
 N654 N 0.71286 0.91896 0.60222
 C655 C 0.75196 0.89888 0.58602
 N656 N 0.73817 0.88730 0.56738
 N657 N 0.74999 0.87541 0.54832
 C658 C 0.77611 0.87450 0.54716
 N659 N 0.79001 0.88586 0.56595
 N660 N 0.77814 0.89778 0.58510
 C661 C 0.26165 0.91455 0.39519
 N662 N 0.28726 0.91897 0.39801
 N663 N 0.29959 0.93492 0.38251
 C664 C 0.28686 0.94697 0.36345
 N665 N 0.26129 0.94225 0.36024
 N666 N 0.24886 0.92637 0.37592
 C667 C 0.24809 0.89903 0.41424
 N668 N 0.22191 0.89794 0.41509
 N669 N 0.20998 0.88608 0.43425
 C670 C 0.22383 0.87478 0.45311
 N671 N 0.24995 0.87568 0.45201
 N672 N 0.26183 0.88751 0.43296
 C673 C 0.08576 0.39521 0.73790
 N674 N 0.08152 0.39856 0.71268
 N675 N 0.06559 0.38317 0.70009
 C676 C 0.05340 0.36367 0.71214
 N677 N 0.05795 0.35992 0.73731
 N678 N 0.07380 0.37551 0.75001
 C679 C 0.10120 0.41420 0.75178
 N680 N 0.10176 0.41478 0.77760
 N681 N 0.11346 0.43396 0.78981
 C682 C 0.12513 0.45312 0.77660
 N683 N 0.12477 0.45227 0.75084
 N684 N 0.11309 0.43320 0.73868
 C685 C 0.08579 0.60478 0.26217
 N686 N 0.07387 0.62446 0.24998
 N687 N 0.05801 0.64009 0.26260
 C688 C 0.05339 0.63639 0.28777
 N689 N 0.06553 0.61692 0.29990
 N690 N 0.08148 0.60149 0.28738
 C691 C 0.10124 0.58575 0.24837
 N692 N 0.11305 0.56675 0.26153
 N693 N 0.12473 0.54765 0.24944
 C694 C 0.12517 0.54676 0.22368
 N695 N 0.11357 0.56592 0.21041
 N696 N 0.10187 0.58513 0.22255
 C697 C 0.91404 0.39520 0.26185
 N698 N 0.92598 0.37554 0.24966
 N699 N 0.94181 0.35989 0.26229
 C700 C 0.94637 0.36354 0.28748
 N701 N 0.93420 0.38300 0.29961
 N702 N 0.91829 0.39845 0.28708
 C703 C 0.89864 0.41427 0.24805
 N704 N 0.88681 0.43326 0.26121
 N705 N 0.87518 0.45239 0.24912
 C706 C 0.87480 0.45330 0.22336
 N707 N 0.88641 0.43416 0.21009
 N708 N 0.89806 0.41492 0.22223
 C709 C 0.91415 0.60470 0.73771
 N710 N 0.91847 0.60142 0.71250
 N711 N 0.93446 0.61683 0.70001
 C712 C 0.94663 0.63628 0.71217
 N713 N 0.94199 0.63996 0.73733
 N714 N 0.92609 0.62435 0.74993
 C715 C 0.89867 0.58567 0.75149
 N716 N 0.89804 0.58502 0.77730
 N717 N 0.88631 0.56580 0.78942
 C718 C 0.87469 0.54668 0.77613
 N719 N 0.87512 0.54759 0.75036
 N720 N 0.88682 0.56671 0.73830
 C721 C 0.73757 0.60405 0.91638
 N722 N 0.71292 0.59917 0.92347
 N723 N 0.70059 0.61478 0.93929
 C724 C 0.71230 0.63607 0.94855
 N725 N 0.73687 0.64131 0.94111
 N726 N 0.74936 0.62546 0.92541
 C727 C 0.75125 0.58516 0.90067
 N728 N 0.77737 0.58525 0.89847
 N729 N 0.78951 0.56616 0.88653
 C730 C 0.77591 0.54646 0.87618
 N731 N 0.74983 0.54668 0.87815
 N732 N 0.73776 0.56562 0.89012
 C733 C 0.26235 0.39568 0.91686
 N734 N 0.28702 0.40058 0.92386
 N735 N 0.29940 0.38503 0.93969
 C736 C 0.28773 0.36377 0.94905
 N737 N 0.26314 0.35849 0.94169
 N738 N 0.25059 0.37429 0.92599
 C739 C 0.24861 0.41453 0.90115
 N740 N 0.22248 0.41444 0.89905
 N741 N 0.21031 0.43352 0.88713
 C742 C 0.22387 0.45321 0.87672
 N743 N 0.24996 0.45298 0.87859
 N744 N 0.26207 0.43405 0.89053
 C745 C 0.26262 0.60417 0.08369
 N746 N 0.28728 0.59930 0.07667
 N747 N 0.29964 0.61487 0.06083
 C748 C 0.28794 0.63612 0.05149
 N749 N 0.26336 0.64137 0.05887
 N750 N 0.25084 0.62556 0.07458
 C751 C 0.24889 0.58530 0.09939
 N752 N 0.22276 0.58539 0.10152
 N753 N 0.21059 0.56630 0.11344
 C754 C 0.22416 0.54661 0.12383
 N755 N 0.25025 0.54684 0.12193
 N756 N 0.26235 0.56578 0.10999
 C757 C 0.73763 0.39595 0.08318
 N758 N 0.74941 0.37455 0.07411
 N759 N 0.73689 0.35871 0.05843
 C760 C 0.71231 0.36395 0.05104
 N761 N 0.70062 0.38522 0.06034
 N762 N 0.71297 0.40082 0.07615
 C763 C 0.75135 0.41484 0.09886
 N764 N 0.73789 0.43439 0.10942
 N765 N 0.74998 0.45334 0.12136
 C766 C 0.77607 0.45357 0.12327
 N767 N 0.78964 0.43386 0.11291
 N768 N 0.77748 0.41476 0.10100
 C769 C 0.91632 0.73607 0.60349
 N770 N 0.92336 0.71155 0.59866
 N771 N 0.93934 0.69922 0.61415
 C772 C 0.94880 0.71080 0.63527
 N773 N 0.94139 0.73525 0.64046
 N774 N 0.92555 0.74774 0.62473
 C775 C 0.90044 0.74975 0.58476
 N776 N 0.89843 0.77572 0.58481
 N777 N 0.88634 0.78784 0.56589
 C778 C 0.87565 0.77439 0.54641
 N779 N 0.87744 0.74847 0.54666
 N780 N 0.88956 0.73641 0.56543
 C781 C 0.91552 0.26364 0.39588
 N782 N 0.92485 0.25197 0.37469
 N783 N 0.94078 0.26445 0.35903
 C784 C 0.94817 0.28891 0.36425
 N785 N 0.93861 0.30050 0.38532
 N786 N 0.92255 0.28817 0.40073
 C787 C 0.89962 0.24995 0.41458
 N788 N 0.88870 0.26329 0.43389
 N789 N 0.87666 0.25124 0.45270
 C790 C 0.87497 0.22531 0.45303
 N791 N 0.88566 0.21186 0.43355
 N792 N 0.89768 0.22398 0.41458
 C793 C 0.08397 0.26385 0.60328
 N794 N 0.07468 0.25218 0.62449
 N795 N 0.05886 0.26470 0.64022
 C796 C 0.05155 0.28918 0.63507
 N797 N 0.06107 0.30077 0.61399
 N798 N 0.07703 0.28841 0.59850
 C799 C 0.09977 0.25013 0.58452
 N800 N 0.11066 0.26344 0.56518
 N801 N 0.12269 0.25135 0.54638
 C802 C 0.12437 0.22542 0.54610
 N803 N 0.11366 0.21200 0.56559
 N804 N 0.10167 0.22416 0.58454
 C805 C 0.08389 0.73617 0.39648
 N806 N 0.07686 0.71163 0.40128
 N807 N 0.06087 0.69931 0.38579
 C808 C 0.05139 0.71091 0.36470
 N809 N 0.05878 0.73537 0.35953
 N810 N 0.07464 0.74785 0.37526
 C811 C 0.09975 0.74985 0.41523
 N812 N 0.10171 0.77582 0.41522
 N813 N 0.11376 0.78793 0.43416
 C814 C 0.12446 0.77448 0.45363
 N815 N 0.12273 0.74855 0.45333
 N816 N 0.11064 0.73650 0.43454
 C817 C 0.60501 0.91585 0.73890
 N818 N 0.60190 0.91995 0.71363
 N819 N 0.61756 0.93567 0.70111
 C820 C 0.63710 0.94781 0.71329
 N821 N 0.64059 0.94343 0.73852
 N822 N 0.62474 0.92778 0.75115
 C823 C 0.58578 0.90048 0.75263
 N824 N 0.58502 0.89984 0.77845
 N825 N 0.56568 0.88809 0.79048
 C826 C 0.54654 0.87643 0.77710
 N827 N 0.54757 0.87690 0.75135
 N828 N 0.56680 0.88863 0.73937
 C829 C 0.39527 0.91607 0.26090
 N830 N 0.37549 0.92800 0.24874
 N831 N 0.35963 0.94356 0.26145
 C832 C 0.36316 0.94785 0.28670
 N833 N 0.38274 0.93571 0.29879
 N834 N 0.39841 0.92007 0.28618
 C835 C 0.41451 0.90082 0.24707
 N836 N 0.43355 0.88897 0.26024
 N837 N 0.45279 0.87734 0.24817
 C838 C 0.45375 0.87698 0.22241
 N839 N 0.43455 0.88862 0.20912
 N840 N 0.41521 0.90027 0.22125
 C841 C 0.60524 0.08487 0.26209
 N842 N 0.60194 0.08070 0.28732
 N843 N 0.61748 0.06492 0.29991
 C844 C 0.63711 0.05282 0.28784
 N845 N 0.64081 0.05730 0.26265
 N846 N 0.62506 0.07299 0.24995
 C847 C 0.58609 0.10025 0.24826
 N848 N 0.58541 0.10082 0.22244
 N849 N 0.56611 0.11253 0.21031
 C850 C 0.54692 0.12420 0.22359
 N851 N 0.54787 0.12381 0.24935
 N852 N 0.56706 0.11213 0.26142
 C853 C 0.39474 0.08431 0.73881
 N854 N 0.39786 0.08030 0.71353
 N855 N 0.38225 0.06457 0.70096
 C856 C 0.36274 0.05235 0.71310
 N857 N 0.35923 0.05666 0.73835
 N858 N 0.37504 0.07231 0.75102
 C859 C 0.41396 0.09965 0.75260
 N860 N 0.41473 0.10018 0.77842
 N861 N 0.43408 0.11189 0.79049
 C862 C 0.45321 0.12359 0.77716
 N863 N 0.45217 0.12324 0.75140
 N864 N 0.43293 0.11156 0.73938
 C865 C 0.60606 0.74035 0.08309
 N866 N 0.60306 0.71483 0.07933
 N867 N 0.61847 0.70217 0.06354
 C868 C 0.63766 0.71446 0.05099
 N869 N 0.64107 0.73996 0.05502
 N870 N 0.62545 0.75272 0.07075
 C871 C 0.58700 0.75417 0.09855
 N872 N 0.58605 0.78020 0.09903
 N873 N 0.56678 0.79226 0.11088
 C874 C 0.54791 0.77870 0.12276
 N875 N 0.54913 0.75275 0.12247
 N876 N 0.56830 0.74075 0.11066
 C877 C 0.39446 0.26013 0.08372
 N878 N 0.39743 0.28564 0.07983
 N879 N 0.38197 0.29820 0.06401
 C880 C 0.36276 0.28583 0.05156
 N881 N 0.35938 0.26035 0.05573
 N882 N 0.37505 0.24768 0.07148
 C883 C 0.41356 0.24641 0.09923
 N884 N 0.41451 0.22039 0.09988
 N885 N 0.43380 0.20841 0.11178
 C886 C 0.45269 0.22205 0.12355
 N887 N 0.45147 0.24800 0.12309
 N888 N 0.43228 0.25992 0.11123
 C889 C 0.60573 0.25995 0.91653
 N890 N 0.60278 0.28547 0.92035
 N891 N 0.61823 0.29807 0.93615
 C892 C 0.63742 0.28573 0.94865
 N893 N 0.64078 0.26024 0.94455
 N894 N 0.62512 0.24753 0.92882
 C895 C 0.58663 0.24619 0.90107
 N896 N 0.58565 0.22017 0.90051
 N897 N 0.56635 0.20816 0.88866
 C898 C 0.54746 0.22176 0.87686
 N899 N 0.54870 0.24771 0.87723
 N900 N 0.56790 0.25966 0.88904
 C901 C 0.39421 0.73982 0.91650
 N902 N 0.37482 0.75225 0.92879
 N903 N 0.35920 0.73955 0.94457
 C904 C 0.36262 0.71407 0.94873
 N905 N 0.38181 0.70173 0.93624
 N906 N 0.39722 0.71432 0.92038
 C907 C 0.41327 0.75358 0.90097
 N908 N 0.43199 0.74011 0.88893
 N909 N 0.45115 0.75207 0.87707
 C910 C 0.45236 0.77802 0.87665
 N911 N 0.43347 0.79162 0.88846
 N912 N 0.41421 0.77960 0.90036
 C913 C 0.73835 0.91570 0.39677
 N914 N 0.71273 0.92012 0.39957
 N915 N 0.70039 0.93601 0.38402
 C916 C 0.71311 0.94801 0.36491
 N917 N 0.73870 0.94332 0.36174
 N918 N 0.75114 0.92750 0.37748
 C919 C 0.75189 0.90006 0.41577
 N920 N 0.77806 0.89887 0.41660
 N921 N 0.78996 0.88675 0.43563
 C922 C 0.77609 0.87526 0.45437
 N923 N 0.74997 0.87630 0.45329
 N924 N 0.73812 0.88839 0.43437
 C925 C 0.26116 0.91583 0.60375
 N926 N 0.24833 0.92757 0.62304
 N927 N 0.26076 0.94333 0.63886
 C928 C 0.28636 0.94801 0.63576
 N929 N 0.29910 0.93606 0.61664
 N930 N 0.28678 0.92022 0.60102
 C931 C 0.24766 0.90025 0.58465
 N932 N 0.26148 0.88864 0.56606
 N933 N 0.24969 0.87660 0.54706
 C934 C 0.22358 0.87558 0.54590
 N935 N 0.20965 0.88701 0.56463
 N936 N 0.22149 0.89907 0.58373
 C937 C 0.26113 0.08404 0.39607
 N938 N 0.24837 0.07229 0.37673
 N939 N 0.26083 0.05652 0.36096
 C940 C 0.28643 0.05186 0.36413
 N941 N 0.29912 0.06382 0.38329
 N942 N 0.28675 0.07965 0.39888
 C943 C 0.24759 0.09963 0.41511
 N944 N 0.26137 0.11129 0.43371
 N945 N 0.24954 0.12334 0.45267
 C946 C 0.22342 0.12433 0.45379
 N947 N 0.20953 0.11285 0.43506
 N948 N 0.22141 0.10078 0.41599
 C949 C 0.73925 0.08415 0.60422
 N950 N 0.71359 0.07993 0.60156
 N951 N 0.70121 0.06412 0.61715
 C952 C 0.71394 0.05201 0.63618
 N953 N 0.73958 0.05650 0.63922
 N954 N 0.75206 0.07224 0.62343
 C955 C 0.75277 0.09970 0.58512
 N956 N 0.77895 0.10064 0.58402
 N957 N 0.79077 0.11263 0.56487
 C958 C 0.77681 0.12424 0.54626
 N959 N 0.75070 0.12346 0.54761
 N960 N 0.73893 0.11149 0.56665
 C961 C 0.91552 0.60475 0.26104
 N962 N 0.91922 0.60181 0.28638
 N963 N 0.93510 0.61723 0.29901
 C964 C 0.94778 0.63635 0.28686
 N965 N 0.94378 0.63969 0.26154
 N966 N 0.92798 0.62407 0.24881
 C967 C 0.89999 0.58573 0.24725
 N968 N 0.89972 0.58472 0.22143
 N969 N 0.88782 0.56553 0.20941
 C970 C 0.87566 0.54680 0.22280
 N971 N 0.87576 0.54807 0.24855
 N972 N 0.88763 0.56715 0.26051
 C973 C 0.91545 0.39530 0.73846
 N974 N 0.91923 0.39827 0.71314
 N975 N 0.93514 0.38287 0.70054
 C976 C 0.94778 0.36372 0.71270
 N977 N 0.94371 0.36035 0.73800
 N978 N 0.92787 0.37596 0.75070
 C979 C 0.89988 0.41430 0.75223
 N980 N 0.89954 0.41528 0.77805
 N981 N 0.88760 0.43444 0.79006
 C982 C 0.87547 0.45318 0.77666
 N983 N 0.87563 0.45193 0.75091
 N984 N 0.88754 0.43287 0.73896
 C985 C 0.08449 0.60454 0.73905
 N986 N 0.08079 0.60160 0.71371
 N987 N 0.06493 0.61702 0.70107
 C988 C 0.05226 0.63615 0.71321
 N989 N 0.05624 0.63950 0.73854
 N990 N 0.07203 0.62387 0.75127
 C991 C 0.10002 0.58553 0.75284
 N992 N 0.10029 0.58452 0.77866
 N993 N 0.11219 0.56534 0.79068
 C994 C 0.12435 0.54661 0.77729
 N995 N 0.12426 0.54789 0.75155
 N996 N 0.11239 0.56696 0.73958
 C997 C 0.08427 0.39531 0.26109
 N998 N 0.07186 0.37598 0.24881
 N999 N 0.05604 0.36033 0.26147
 C1000 C 0.05195 0.36365 0.28678
 N1001 N 0.06457 0.38279 0.29898
 N1002 N 0.08047 0.39823 0.28642
 C1003 C 0.09984 0.41434 0.24736
 N1004 N 0.11215 0.43292 0.26068
 N1005 N 0.12408 0.45200 0.24877
 C1006 C 0.12429 0.45326 0.22302
 N1007 N 0.11219 0.43453 0.20958
 N1008 N 0.10023 0.41535 0.22155
   
