data_POSCAR
  _audit_creation_date              2014-09-24
  _audit_creation_method            'ToBaCCo'
  _symmetry_space_group_name_H-M    'P1'
  _symmetry_Int_Tables_number       1
  _symmetry_cell_setting            triclinic
  loop_
  _symmetry_equiv_pos_as_xyz
 x,y,z
_cell_length_a 40.6620
_cell_length_b 42.0747
_cell_length_c 39.4550
_cell_angle_alpha 91.402200
_cell_angle_beta 88.701600
_cell_angle_gamma 91.901000
loop_
  _atom_site_label
  _atom_site_type_symbol
  _atom_site_fract_x
  _atom_site_fract_y
  _atom_site_fract_z
C1 C 0.20789 0.18808 0.20396
 C2 C 0.19212 0.17574 0.23286
 C3 C 0.16290 0.18868 0.24636
 C4 C 0.15004 0.21501 0.23002
 C5 C 0.16607 0.22801 0.20125
 C6 C 0.19492 0.21419 0.18799
 C7 C 0.23600 0.17380 0.19037
 C8 C 0.25173 0.18490 0.16045
 C9 C 0.23864 0.21146 0.14485
 C10 C 0.21059 0.22618 0.15851
 C11 C 0.19785 0.25260 0.14297
 C12 C 0.16941 0.26699 0.15620
 C13 C 0.15360 0.25444 0.18533
 H14 H 0.20192 0.15463 0.24347
 H15 H 0.12817 0.22617 0.24011
 H16 H 0.24424 0.15269 0.20234
 H17 H 0.25061 0.22144 0.12255
 H18 H 0.21028 0.26218 0.12067
 H19 H 0.13128 0.26494 0.19527
 C20 C -0.22654 0.81531 0.21443
 C21 C -0.21240 0.82994 0.24298
 C22 C -0.18328 0.81887 0.25675
 C23 C -0.16985 0.79092 0.24207
 C24 C -0.18409 0.77577 0.21342
 C25 C -0.21230 0.78839 0.19932
 C26 C -0.25423 0.82817 0.20023
 C27 C -0.26782 0.81517 0.17014
 C28 C -0.25345 0.78787 0.15536
 C29 C -0.22602 0.77443 0.16982
 C30 C -0.21176 0.74757 0.15478
 C31 C -0.18360 0.73468 0.16841
 C32 C -0.16999 0.74885 0.19789
 H33 H -0.22486 0.84985 0.25474
 H34 H -0.14731 0.78177 0.25143
 H35 H -0.26349 0.84987 0.21159
 H36 H -0.26384 0.77648 0.13296
 H37 H -0.22262 0.73665 0.13232
 H38 H -0.14795 0.73942 0.20822
 C39 C -0.24609 0.19755 -0.24465
 C40 C -0.22883 0.18298 -0.27145
 C41 C -0.19764 0.19475 -0.28180
 C42 C -0.18488 0.22314 -0.26685
 C43 C -0.20241 0.23851 -0.24031
 C44 C -0.23290 0.22523 -0.22879
 C45 C -0.27543 0.18350 -0.23234
 C46 C -0.29133 0.19530 -0.20268
 C47 C -0.27875 0.22412 -0.18796
 C48 C -0.24971 0.23898 -0.20077
 C49 C -0.23626 0.26640 -0.18477
 C50 C -0.20594 0.27996 -0.19595
 C51 C -0.18925 0.26593 -0.22392
 H52 H -0.23901 0.16143 -0.28332
 H53 H -0.16077 0.23235 -0.27472
 H54 H -0.28546 0.16291 -0.24600
 H55 H -0.28977 0.23400 -0.16500
 H56 H -0.24927 0.27704 -0.16330
 H57 H -0.16548 0.27568 -0.23216
 C58 C 0.22927 0.81124 -0.24114
 C59 C 0.21233 0.82467 -0.26738
 C60 C 0.18223 0.81111 -0.27884
 C61 C 0.17012 0.78273 -0.26379
 C62 C 0.18738 0.76859 -0.23788
 C63 C 0.21691 0.78312 -0.22629
 C64 C 0.25764 0.82656 -0.22850
 C65 C 0.27363 0.81459 -0.20060
 C66 C 0.26200 0.78583 -0.18658
 C67 C 0.23367 0.77005 -0.19923
 C68 C 0.22112 0.74213 -0.18439
 C69 C 0.19174 0.72731 -0.19581
 C70 C 0.17510 0.74065 -0.22269
 H71 H 0.22172 0.84718 -0.27695
 H72 H 0.14763 0.77108 -0.27255
 H73 H 0.26688 0.84839 -0.23987
 H74 H 0.27407 0.77651 -0.16490
 H75 H 0.23413 0.73202 -0.16377
 H76 H 0.15205 0.72983 -0.23110
 C77 C 0.19362 1.22511 0.79024
 C78 C 0.18123 1.21152 0.76028
 C79 C 0.19343 1.18296 0.74620
 C80 C 0.22040 1.16949 0.76218
 C81 C 0.23336 1.18321 0.79218
 C82 C 0.21948 1.21085 0.80652
 C83 C 0.17955 1.25233 0.80457
 C84 C 0.19013 1.26550 0.83587
 C85 C 0.21630 1.25100 0.85195
 C86 C 0.23110 1.22402 0.83738
 C87 C 0.25704 1.20976 0.85346
 C88 C 0.27132 1.18228 0.83939
 C89 C 0.25929 1.16917 0.80868
 H90 H 0.16222 1.22392 0.74773
 H91 H 0.23032 1.14737 0.75269
 H92 H 0.15860 1.26170 0.79215
 H93 H 0.22588 1.26098 0.87542
 H94 H 0.26625 1.22015 0.87695
 H95 H 0.26964 1.14761 0.79803
 C96 C 0.82544 0.78310 0.78664
 C97 C 0.84046 0.79672 0.75795
 C98 C 0.82860 0.82458 0.74388
 C99 C 0.79993 0.83771 0.75893
 C100 C 0.78449 0.82412 0.78771
 C101 C 0.79756 0.79687 0.80174
 C102 C 0.83860 0.75619 0.80075
 C103 C 0.82476 0.74269 0.83048
 C104 C 0.79658 0.75675 0.84525
 C105 C 0.78299 0.78355 0.83110
 C106 C 0.75522 0.79740 0.84618
 C107 C 0.74197 0.82471 0.83267
 C108 C 0.75670 0.83784 0.80326
 H109 H 0.86105 0.78470 0.74620
 H110 H 0.79032 0.85945 0.74964
 H111 H 0.86101 0.74716 0.78940
 H112 H 0.78441 0.74651 0.86729
 H113 H 0.74385 0.78686 0.86853
 H114 H 0.74700 0.85916 0.79295
 C115 C 0.19807 0.75042 1.24527
 C116 C 0.18433 0.76587 1.27373
 C117 C 0.19673 0.79577 1.28481
 C118 C 0.22490 0.80912 1.26850
 C119 C 0.23945 0.79345 1.24032
 C120 C 0.22558 0.76420 1.22834
 C121 C 0.18343 0.72218 1.23263
 C122 C 0.19458 0.70779 1.20195
 C123 C 0.22320 0.72114 1.18599
 C124 C 0.23858 0.74919 1.19891
 C125 C 0.26579 0.76330 1.18186
 C126 C 0.27991 0.79242 1.19356
 C127 C 0.26663 0.80725 1.22295
 H128 H 0.16301 0.75515 1.28654
 H129 H 0.23457 0.83228 1.27673
 H130 H 0.16305 0.71166 1.24701
 H131 H 0.23244 0.71136 1.16216
 H132 H 0.27585 0.75172 1.15927
 H133 H 0.27675 0.83009 1.23167
 C134 C 0.82048 1.22938 1.24358
 C135 C 0.83602 1.21444 1.26983
 C136 C 0.82409 1.18491 1.28220
 C137 C 0.79459 1.17164 1.26851
 C138 C 0.77850 1.18666 1.24234
 C139 C 0.79171 1.21551 1.22966
 C140 C 0.83410 1.25757 1.23033
 C141 C 0.81990 1.27177 1.20260
 C142 C 0.79071 1.25830 1.18925
 C143 C 0.77659 1.23023 1.20256
 C144 C 0.74830 1.21604 1.18835
 C145 C 0.73505 1.18704 1.20041
 C146 C 0.75015 1.17264 1.22767
 H147 H 0.85732 1.22646 1.28080
 H148 H 0.78490 1.14871 1.27655
 H149 H 0.85633 1.26810 1.24110
 H150 H 0.77976 1.26890 1.16762
 H151 H 0.73669 1.22750 1.16764
 H152 H 0.74044 1.15003 1.23675
 O153 O 0.51795 0.95978 0.95670
 O154 O 0.46469 0.96871 1.07203
 O155 O 0.56616 0.99053 1.03842
 O156 O 0.45826 0.95841 0.96506
 O157 O 0.52699 0.96785 1.07039
 O158 O 0.47562 0.98565 0.92182
 O159 O 0.45668 0.94646 1.02363
 O160 O 0.56236 0.98320 0.97634
 C161 C 0.54837 0.95982 0.96115
 C162 C 0.45526 0.94511 1.05484
 C163 C 0.55641 0.97001 1.05988
 C164 C 0.45500 0.96460 0.93409
 O165 O 0.48031 1.03712 0.95727
 O166 O 0.52966 1.02835 1.07732
 O167 O 0.54126 1.04540 0.97407
 O168 O 0.43154 1.00487 1.03962
 O169 O 0.46826 1.03072 1.07031
 O170 O 0.53229 1.01416 0.93321
 O171 O 0.43610 1.01773 0.97997
 O172 O 0.54546 1.05136 1.03201
 Co173 Co 0.49798 0.99818 0.95915
 Co174 Co 0.49742 0.99909 1.06650
 Co175 Co 0.54963 1.01611 1.00535
 Co176 Co 0.45023 0.98353 1.00278
 O177 O 0.50022 1.00043 1.01057
 C178 C 0.45055 1.03940 0.96384
 C179 C 0.54440 1.05079 1.06317
 C180 C 0.54534 1.03936 0.94352
 C181 C 0.43971 1.02776 1.05933
 O182 O 0.03380 0.48086 0.04322
 O183 O 0.02763 0.53085 -0.07563
 O184 O 0.00105 0.43555 -0.04095
 O185 O 0.04328 0.53954 0.02823
 O186 O 0.02853 0.47133 -0.07052
 O187 O 0.01008 0.53098 0.06819
 O188 O 0.05093 0.54445 -0.02939
 O189 O 0.01365 0.43879 0.01901
 C190 C 0.03590 0.45218 0.03594
 C191 C 0.05107 0.54386 -0.06058
 C192 C 0.02499 0.44355 -0.06024
 C193 C 0.03637 0.54360 0.05861
 O194 O -0.04570 0.51812 0.04296
 O195 O -0.03555 0.46922 -0.07321
 O196 O -0.04757 0.46048 0.03359
 O197 O -0.01116 0.56606 -0.03694
 O198 O -0.03524 0.52954 -0.07009
 O199 O -0.01987 0.47632 0.07754
 O200 O -0.02055 0.56110 0.02470
 O201 O -0.05917 0.46013 -0.02536
 Co202 Co -0.00621 0.49851 0.04095
 Co203 Co -0.00360 0.50014 -0.06637
 Co204 Co -0.02124 0.45318 -0.00399
 Co205 Co 0.01399 0.54881 -0.00362
 O206 O -0.00305 0.50150 -0.01037
 C207 C -0.04520 0.54759 0.03905
 C208 C -0.05998 0.45919 -0.05664
 C209 C -0.04133 0.45652 0.06448
 C210 C -0.03219 0.55776 -0.05907
 O211 O 1.06582 0.03710 0.46892
 O212 O 0.93436 0.01240 0.53499
 O213 O 0.97855 0.02064 0.43578
 O214 O 1.02954 0.05227 0.54969
 O215 O 0.95631 0.03753 0.48207
 O216 O 1.07393 0.03172 0.53176
 O217 O 0.97346 0.04439 0.54525
 O218 O 1.03702 0.01123 0.43034
 C219 C 1.05521 0.03473 0.43944
 C220 C 0.94397 0.03729 0.54942
 C221 C 0.96201 0.04096 0.45145
 C222 C 1.05978 0.05284 0.54814
 O223 O 1.06934 -0.02857 0.52640
 O224 O 0.92398 -0.01542 0.47525
 O225 O 1.02450 -0.04906 0.45468
 O226 O 0.97743 -0.01834 0.56466
 O227 O 0.95874 -0.04084 0.51841
 O228 O 1.07025 -0.02432 0.46243
 O229 O 1.03784 -0.00936 0.56820
 O230 O 0.96730 -0.03995 0.45714
 Co231 Co 1.06397 0.00389 0.49746
 Co232 Co 0.95970 -0.00178 0.49893
 Co233 Co 1.00255 -0.01278 0.44917
 Co234 Co 1.00473 0.01590 0.55258
 O235 O 1.00969 0.00260 0.50104
 C236 C 1.05942 -0.02841 0.55690
 C237 C 0.93702 -0.03518 0.45350
 C238 C 1.05484 -0.04894 0.45359
 C239 C 0.96289 -0.04153 0.54971
 C240 C 1.14877 0.14059 0.32415
 C241 C 1.11450 0.13938 0.32683
 C242 C 1.09614 0.15694 0.30477
 C243 C 1.11204 0.17461 0.27915
 C244 C 1.14667 0.17445 0.27477
 C245 C 1.16469 0.15794 0.29861
 C246 C 1.09874 0.11853 0.35111
 C247 C 1.08719 0.09996 0.37129
 C248 C 1.07520 0.07742 0.39485
 C249 C 1.06582 0.05789 0.41507
 H250 H 1.16330 0.12753 0.34144
 H251 H 1.06951 0.15617 0.30665
 H252 H 1.09682 0.18642 0.26153
 H253 H 1.19132 0.15848 0.29799
 C254 C 0.84164 -0.11371 0.31554
 C255 C 0.86097 -0.12886 0.33853
 C256 C 0.86642 -0.16140 0.33428
 C257 C 0.85223 -0.17880 0.30724
 C258 C 0.83202 -0.16392 0.28401
 C259 C 0.82746 -0.13083 0.28865
 C260 C 0.87581 -0.11031 0.36563
 C261 C 0.88823 -0.09352 0.38734
 C262 C 0.90346 -0.07304 0.41162
 C263 C 0.91775 -0.05548 0.43134
 H264 H 0.83781 -0.08838 0.31813
 H265 H 0.88152 -0.17338 0.35194
 H266 H 0.85620 -0.20407 0.30561
 H267 H 0.81405 -0.11742 0.27081
 C268 C 0.84019 0.12325 0.67482
 C269 C 0.85676 0.13685 0.64710
 C270 C 0.85665 0.16987 0.64301
 C271 C 0.83949 0.18913 0.66643
 C272 C 0.82219 0.17540 0.69394
 C273 C 0.82312 0.14232 0.69807
 C274 C 0.87409 0.11648 0.62350
 C275 C 0.88861 0.09830 0.60496
 C276 C 0.90626 0.07646 0.58454
 C277 C 0.92253 0.05807 0.56803
 H278 H 0.84040 0.09781 0.67846
 H279 H 0.86962 0.18066 0.62171
 H280 H 0.83914 0.21453 0.66268
 H281 H 0.81061 0.13115 0.71942
 C282 C 1.11173 -0.15593 0.67519
 C283 C 1.12847 -0.13509 0.65320
 C284 C 1.16278 -0.13433 0.65149
 C285 C 1.18044 -0.15312 0.67275
 C286 C 1.16416 -0.17309 0.69658
 C287 C 1.12934 -0.17501 0.69649
 C288 C 1.11097 -0.11319 0.63341
 C289 C 1.09774 -0.09392 0.61673
 C290 C 1.08359 -0.07083 0.59680
 C291 C 1.07230 -0.05117 0.57910
 H292 H 1.08507 -0.15671 0.67665
 H293 H 1.17600 -0.11868 0.63411
 H294 H 1.20699 -0.15201 0.67009
 H295 H 1.11540 -0.18941 0.71443
 C296 C 0.32451 1.13288 1.15248
 C297 C 0.32941 1.13123 1.11739
 C298 C 0.31032 1.14926 1.09654
 C299 C 0.28553 1.16807 1.11070
 C300 C 0.27907 1.16877 1.14611
 C301 C 0.29978 1.15145 1.16673
 C302 C 0.35312 1.10983 1.10310
 C303 C 0.37277 1.09116 1.09221
 C304 C 0.39574 1.06887 1.08039
 C305 C 0.41558 1.04987 1.07073
 H306 H 0.33953 1.11938 1.16890
 H307 H 0.31394 1.14810 1.06925
 H308 H 0.27024 1.18025 1.09346
 H309 H 0.29744 1.15243 1.19409
 C310 C 0.35418 0.83749 0.84205
 C311 C 0.35132 0.87048 0.84588
 C312 C 0.32341 0.88501 0.83440
 C313 C 0.29834 0.86675 0.81921
 C314 C 0.30085 0.83359 0.81516
 C315 C 0.32903 0.81908 0.82676
 C316 C 0.37611 0.88963 0.86283
 C317 C 0.39570 0.90657 0.87766
 C318 C 0.41738 0.92696 0.89598
 C319 C 0.43499 0.94438 0.91270
 H320 H 0.37567 0.82601 0.85106
 H321 H 0.32080 0.91047 0.83758
 H322 H 0.27666 0.87855 0.81122
 H323 H 0.33166 0.79363 0.82383
 C324 C 0.67933 0.84760 1.10345
 C325 C 0.65885 0.86703 1.12319
 C326 C 0.66065 0.86712 1.15845
 C327 C 0.68382 0.84899 1.17399
 C328 C 0.70602 0.83041 1.15453
 C329 C 0.70254 0.82924 1.11891
 C330 C 0.63709 0.88824 1.10758
 C331 C 0.61904 0.90685 1.09559
 C332 C 0.59782 0.92910 1.08257
 C333 C 0.57927 0.94805 1.07203
 H334 H 0.67809 0.84742 1.07604
 H335 H 0.64451 0.88172 1.17400
 H336 H 0.68390 0.84947 1.20142
 H337 H 0.71911 0.81602 1.10251
 C338 C 0.65592 1.12566 0.82501
 C339 C 0.63387 1.14007 0.84759
 C340 C 0.63529 1.17309 0.85254
 C341 C 0.65927 1.19162 0.83538
 C342 C 0.68246 1.17735 0.81297
 C343 C 0.67989 1.14389 0.80796
 C344 C 0.61168 1.12025 0.86726
 C345 C 0.59469 1.10230 0.88389
 C346 C 0.57642 1.08037 0.90377
 C347 C 0.56183 1.06146 0.92142
 H348 H 0.65535 1.10002 0.82141
 H349 H 0.61818 1.18449 0.87003
 H350 H 0.65903 1.21710 0.83950
 H351 H 0.69757 1.13098 0.79265
 C352 C 0.14218 0.32166 0.08765
 C353 C 0.12990 0.34713 0.10699
 C354 C 0.13091 0.34663 0.14242
 C355 C 0.14391 0.32070 0.15847
 C356 C 0.15606 0.29484 0.13925
 C357 C 0.15521 0.29572 0.10363
 C358 C 0.11415 0.37262 0.09058
 C359 C 0.09947 0.39309 0.07702
 C360 C 0.08011 0.41575 0.06164
 C361 C 0.06131 0.43353 0.04928
 H362 H 0.14117 0.32158 0.06023
 H363 H 0.12126 0.36611 0.15767
 H364 H 0.14458 0.32091 0.18589
 H365 H 0.16393 0.27602 0.08811
 C366 C -0.17704 0.33461 -0.12377
 C367 C -0.16034 0.35895 -0.14133
 C368 C -0.15924 0.35796 -0.17685
 C369 C -0.17445 0.33255 -0.19471
 C370 C -0.19092 0.30774 -0.17725
 C371 C -0.19223 0.30922 -0.14155
 C372 C -0.14237 0.38357 -0.12281
 C373 C -0.12610 0.40315 -0.10712
 C374 C -0.10531 0.42465 -0.08885
 C375 C -0.08574 0.44147 -0.07369
 H376 H -0.17773 0.33489 -0.09630
 H377 H -0.14620 0.37656 -0.19072
 H378 H -0.17327 0.33227 -0.22216
 H379 H -0.20420 0.29027 -0.12730
 C380 C 0.14834 0.64731 -0.18075
 C381 C 0.14834 0.64618 -0.14531
 C382 C 0.16339 0.67102 -0.12652
 C383 C 0.17795 0.69711 -0.14298
 C384 C 0.17764 0.69877 -0.17856
 C385 C 0.16293 0.67342 -0.19730
 C386 C 0.13079 0.62088 -0.12797
 C387 C 0.11488 0.60083 -0.11291
 C388 C 0.09462 0.57892 -0.09482
 C389 C 0.07571 0.56184 -0.07918
 H390 H 0.13657 0.62830 -0.19555
 H391 H 0.16320 0.67058 -0.09907
 H392 H 0.18858 0.71644 -0.12778
 H393 H 0.16260 0.67385 -0.22472
 C394 C -0.14163 0.65594 0.15309
 C395 C -0.13913 0.65459 0.11761
 C396 C -0.15106 0.67936 0.09887
 C397 C -0.16541 0.70535 0.11542
 C398 C -0.16809 0.70699 0.15106
 C399 C -0.15602 0.68197 0.16974
 C400 C -0.12274 0.62877 0.10035
 C401 C -0.10786 0.60807 0.08564
 C402 C -0.08860 0.58511 0.06851
 C403 C -0.07010 0.56694 0.05446
 H404 H -0.13227 0.63700 0.16788
 H405 H -0.14890 0.67880 0.07144
 H406 H -0.17393 0.72445 0.10030
 H407 H -0.15798 0.68240 0.19716
 C408 C 1.12931 0.15881 0.68289
 C409 C 1.14666 0.13867 0.66096
 C410 C 1.17970 0.13298 0.66701
 C411 C 1.19533 0.14747 0.69498
 C412 C 1.17816 0.16812 0.71747
 C413 C 1.14468 0.17327 0.71075
 C414 C 1.12961 0.12262 0.63354
 C415 C 1.11407 0.10875 0.61177
 C416 C 1.09501 0.09137 0.58778
 C417 C 1.07864 0.07492 0.56874
 H418 H 1.10351 0.16286 0.67888
 H419 H 1.19338 0.11726 0.65019
 H420 H 1.22113 0.14310 0.69805
 H421 H 1.12939 0.18723 0.72776
 C422 C 0.84643 -0.12748 0.66586
 C423 C 0.88005 -0.13230 0.66060
 C424 C 0.89654 -0.15127 0.68272
 C425 C 0.87967 -0.16539 0.70996
 C426 C 0.84557 -0.16098 0.71587
 C427 C 0.82934 -0.14157 0.69316
 C428 C 0.89823 -0.11638 0.63379
 C429 C 0.91388 -0.10211 0.61234
 C430 C 0.93213 -0.08366 0.58856
 C431 C 0.94697 -0.06582 0.56975
 H432 H 0.83338 -0.11270 0.64890
 H433 H 0.92272 -0.15467 0.67935
 H434 H 0.89416 -0.17847 0.72715
 H435 H 0.80319 -0.13791 0.69548
 C436 C 1.17684 -0.15089 0.36132
 C437 C 1.14239 -0.15122 0.36052
 C438 C 1.12594 -0.16899 0.33538
 C439 C 1.14372 -0.18625 0.31102
 C440 C 1.17835 -0.18614 0.31145
 C441 C 1.19477 -0.16827 0.33689
 C442 C 1.12366 -0.13187 0.38394
 C443 C 1.10728 -0.11495 0.40214
 C444 C 1.08800 -0.09386 0.42180
 C445 C 1.07215 -0.07433 0.43716
 H446 H 1.18982 -0.13696 0.38054
 H447 H 1.09934 -0.16907 0.33423
 H448 H 1.13034 -0.19915 0.29134
 H449 H 1.22137 -0.16783 0.33792
 C450 C 0.89427 0.15822 0.33355
 C451 C 0.87841 0.13648 0.35500
 C452 C 0.84444 0.13076 0.35271
 C453 C 0.82638 0.14669 0.32894
 C454 C 0.84198 0.16884 0.30690
 C455 C 0.87643 0.17418 0.30983
 C456 C 0.89742 0.11889 0.37804
 C457 C 0.91356 0.10343 0.39644
 C458 C 0.93203 0.08388 0.41691
 C459 C 0.94672 0.06545 0.43336
 H460 H 0.92067 0.16241 0.33466
 H461 H 0.83188 0.11388 0.36923
 H462 H 0.80005 0.14216 0.32885
 H463 H 0.89037 0.18946 0.29276
 C464 C 0.15108 0.31887 -0.09841
 C465 C 0.13386 0.33896 -0.11888
 C466 C 0.13758 0.33656 -0.15406
 C467 C 0.15722 0.31329 -0.16892
 C468 C 0.17352 0.29156 -0.14885
 C469 C 0.17097 0.29554 -0.11318
 C470 C 0.11108 0.36110 -0.10427
 C471 C 0.09127 0.37956 -0.09325
 C472 C 0.06776 0.40130 -0.08138
 C473 C 0.04788 0.42026 -0.07169
 H474 H 0.14835 0.32058 -0.07106
 H475 H 0.12478 0.35237 -0.17015
 H476 H 0.15973 0.31276 -0.19628
 H477 H 0.18233 0.27941 -0.09639
 C478 C -0.11226 0.32481 0.16527
 C479 C -0.12996 0.35011 0.15361
 C480 C -0.16420 0.35021 0.15835
 C481 C -0.18068 0.32490 0.17459
 C482 C -0.16302 0.29928 0.18625
 C483 C -0.12862 0.29958 0.18142
 C484 C -0.11274 0.37517 0.13574
 C485 C -0.09725 0.39519 0.12031
 C486 C -0.07820 0.41753 0.10164
 C487 C -0.06148 0.43576 0.08507
 H488 H -0.08580 0.32438 0.16146
 H489 H -0.17813 0.36967 0.14929
 H490 H -0.20715 0.32539 0.17814
 H491 H -0.11439 0.27992 0.18947
 C492 C -0.14619 0.68726 -0.10421
 C493 C -0.12669 0.66711 -0.12417
 C494 C -0.12472 0.67077 -0.15922
 C495 C -0.14138 0.69504 -0.17426
 C496 C -0.16040 0.71647 -0.15450
 C497 C -0.16303 0.71159 -0.11914
 C498 C -0.10758 0.64339 -0.10881
 C499 C -0.09083 0.62371 -0.09664
 C500 C -0.07061 0.60080 -0.08308
 C501 C -0.05309 0.58122 -0.07194
 H502 H -0.14775 0.68469 -0.07696
 H503 H -0.11001 0.65500 -0.17499
 H504 H -0.13972 0.69631 -0.20159
 H505 H -0.17640 0.72754 -0.10240
 C506 C 0.12324 0.65429 0.17703
 C507 C 0.13800 0.63374 0.15349
 C508 C 0.17187 0.63658 0.14687
 C509 C 0.19085 0.66041 0.16332
 C510 C 0.17621 0.68201 0.18675
 C511 C 0.14194 0.67809 0.19344
 C512 C 0.11761 0.61147 0.13458
 C513 C 0.09940 0.59417 0.11839
 C514 C 0.07733 0.57536 0.09877
 C515 C 0.05840 0.56036 0.08108
 H516 H 0.09691 0.65262 0.18195
 H517 H 0.18356 0.62067 0.12863
 H518 H 0.21704 0.66125 0.15791
 H519 H 0.12864 0.69449 0.20970
 C520 C 0.35023 1.13962 0.85584
 C521 C 0.34853 1.13678 0.89114
 C522 C 0.32187 1.14920 0.90953
 C523 C 0.29693 1.16418 0.89275
 C524 C 0.29824 1.16691 0.85724
 C525 C 0.32530 1.15458 0.83899
 C526 C 0.37302 1.11944 0.90823
 C527 C 0.39272 1.10373 0.92226
 C528 C 0.41463 1.08360 0.93803
 C529 C 0.43200 1.06457 0.95056
 H530 H 0.37065 1.12995 0.84130
 H531 H 0.32006 1.14685 0.93680
 H532 H 0.27623 1.17298 0.90751
 H533 H 0.32723 1.15662 0.81171
 C534 C 0.33194 0.82496 1.12027
 C535 C 0.35754 0.84104 1.13735
 C536 C 0.35845 0.84026 1.17278
 C537 C 0.33361 0.82392 1.19107
 C538 C 0.30742 0.80818 1.17416
 C539 C 0.30709 0.80862 1.13849
 C540 C 0.38141 0.86023 1.11873
 C541 C 0.40042 0.87746 1.10329
 C542 C 0.42133 0.89917 1.08559
 C543 C 0.43778 0.91923 1.07107
 H544 H 0.33076 0.82567 1.09289
 H545 H 0.37805 0.85275 1.18631
 H546 H 0.33476 0.82375 1.21846
 H547 H 0.28705 0.79718 1.12472
 C548 C 0.67770 1.15618 1.13153
 C549 C 0.65255 1.14101 1.15046
 C550 C 0.65416 1.14100 1.18590
 C551 C 0.68087 1.15605 1.20229
 C552 C 0.70632 1.17129 1.18340
 C553 C 0.70435 1.17118 1.14781
 C554 C 0.62616 1.12414 1.13316
 C555 C 0.60514 1.10929 1.11782
 C556 C 0.58198 1.09068 1.09910
 C557 C 0.56376 1.07340 1.08275
 H558 H 0.67694 1.15605 1.10409
 H559 H 0.63494 1.12917 1.20083
 H560 H 0.68152 1.15594 1.22971
 H561 H 0.72378 1.18215 1.13245
 C562 C 0.68447 0.85638 0.90197
 C563 C 0.65914 0.86835 0.88308
 C564 C 0.66078 0.86602 0.84759
 C565 C 0.68764 0.85184 0.83110
 C566 C 0.71326 0.83979 0.84992
 C567 C 0.71129 0.84222 0.88557
 C568 C 0.63247 0.88449 0.90016
 C569 C 0.61104 0.89907 0.91468
 C570 C 0.58723 0.91784 0.93161
 C571 C 0.56839 0.93576 0.94559
 H572 H 0.68370 0.85835 0.92940
 H573 H 0.64144 0.87536 0.83266
 H574 H 0.68824 0.85006 0.80368
 H575 H 0.73082 0.83369 0.90082
   
