data_POSCAR
  _audit_creation_date              2014-09-24
  _audit_creation_method            'ToBaCCo'
  _symmetry_space_group_name_H-M    'P1'
  _symmetry_Int_Tables_number       1
  _symmetry_cell_setting            triclinic
  loop_
  _symmetry_equiv_pos_as_xyz
 x,y,z
_cell_length_a 31.4234
_cell_length_b 31.4234
_cell_length_c 31.4234
_cell_angle_alpha 89.998100
_cell_angle_beta 89.999000
_cell_angle_gamma 89.998600
loop_
  _atom_site_label
  _atom_site_type_symbol
  _atom_site_fract_x
  _atom_site_fract_y
  _atom_site_fract_z
O1 O 0.55795 0.50002 0.03506
 O2 O 0.44060 0.50001 0.03507
 O3 O 0.49928 0.44147 0.03505
 O4 O 0.49928 0.55855 0.03506
 O5 O 0.49927 0.55855 -0.03532
 O6 O 0.49928 0.44148 -0.03533
 O7 O 0.44060 0.50002 -0.03530
 O8 O 0.55794 0.50003 -0.03531
 Cu9 Cu 0.49928 0.50001 0.04217
 Cu10 Cu 0.49927 0.50002 -0.04242
 C11 C 0.57776 0.50003 -0.00012
 C12 C 0.42078 0.50002 -0.00011
 C13 C 0.49929 0.42173 -0.00014
 C14 C 0.49928 0.57830 -0.00013
 O15 O -0.03516 0.55939 0.49998
 O16 O -0.03516 0.44206 0.49999
 O17 O -0.03516 0.50073 0.55852
 O18 O -0.03515 0.50071 0.44144
 O19 O 0.03524 0.50071 0.44145
 O20 O 0.03523 0.50073 0.55852
 O21 O 0.03522 0.44205 0.50000
 O22 O 0.03521 0.55940 0.49998
 Cu23 Cu -0.04226 0.50073 0.49998
 Cu24 Cu 0.04233 0.50073 0.49999
 C25 C 0.00003 0.57922 0.49999
 C26 C 0.00003 0.42224 0.50000
 C27 C 0.00004 0.50072 0.57827
 C28 C 0.00005 0.50070 0.42169
 O29 O 0.50004 0.03507 0.55936
 O30 O 0.50003 0.03506 0.44202
 O31 O 0.44150 0.03506 0.50069
 O32 O 0.55858 0.03506 0.50068
 O33 O 0.55858 -0.03532 0.50069
 O34 O 0.44151 -0.03533 0.50069
 O35 O 0.50004 -0.03531 0.44203
 O36 O 0.50004 -0.03530 0.55937
 Cu37 Cu 0.50004 0.04217 0.50069
 Cu38 Cu 0.50005 -0.04242 0.50070
 C39 C 0.50003 -0.00011 0.57918
 C40 C 0.50003 -0.00013 0.42221
 C41 C 0.42176 -0.00013 0.50068
 C42 C 0.57833 -0.00013 0.50068
 O43 O 0.46441 0.00002 -0.05920
 O44 O 0.46442 0.00000 0.05815
 O45 O 0.46439 0.05855 -0.00051
 O46 O 0.46439 -0.05852 -0.00053
 O47 O 0.53478 -0.05853 -0.00053
 O48 O 0.53478 0.05855 -0.00052
 O49 O 0.53480 0.00000 0.05814
 O50 O 0.53479 0.00002 -0.05920
 Cu51 Cu 0.45730 0.00001 -0.00053
 Cu52 Cu 0.54189 0.00001 -0.00053
 C53 C 0.49960 0.00002 -0.07901
 C54 C 0.49961 -0.00000 0.07795
 C55 C 0.49958 0.07830 -0.00051
 C56 C 0.49958 -0.07828 -0.00052
 O57 O -0.05818 0.53554 0.99998
 O58 O 0.05917 0.53554 0.99997
 O59 O 0.00048 0.53557 0.94144
 O60 O 0.00049 0.53557 1.05852
 O61 O 0.00049 0.46518 1.05852
 O62 O 0.00048 0.46519 0.94144
 O63 O 0.05916 0.46516 0.99997
 O64 O -0.05817 0.46517 0.99999
 Cu65 Cu 0.00050 0.54266 0.99998
 Cu66 Cu 0.00049 0.45807 0.99998
 C67 C -0.07799 0.50035 0.99999
 C68 C 0.07898 0.50035 0.99997
 C69 C 0.00047 0.50038 0.92169
 C70 C 0.00048 0.50038 1.07827
 O71 O 0.00005 -0.05917 0.46515
 O72 O 0.00005 0.05817 0.46514
 O73 O 0.05859 -0.00049 0.46517
 O74 O -0.05849 -0.00049 0.46517
 O75 O -0.05849 -0.00049 0.53555
 O76 O 0.05858 -0.00049 0.53555
 O77 O 0.00005 0.05818 0.53552
 O78 O 0.00004 -0.05917 0.53552
 Cu79 Cu 0.00005 -0.00050 0.45805
 Cu80 Cu 0.00005 -0.00050 0.54264
 C81 C 0.00004 -0.07898 0.50033
 C82 C 0.00005 0.07799 0.50033
 C83 C 0.07834 -0.00048 0.50036
 C84 C -0.07824 -0.00047 0.50036
 C85 C -0.29140 0.50016 0.99990
 C86 C -0.27183 0.50059 1.04467
 C87 C -0.22845 0.50064 1.04469
 C88 C -0.20883 0.50027 0.99994
 C89 C -0.22846 0.53880 0.97720
 C90 C -0.27184 0.53875 0.97718
 C91 C -0.27174 0.46122 0.97788
 C92 C -0.22836 0.46128 0.97790
 C93 C -0.33815 0.50010 0.99987
 C94 C -0.37655 0.50006 0.99987
 C95 C -0.16208 0.50032 0.99996
 C96 C -0.12368 0.50035 0.99998
 H97 H -0.29041 0.50083 1.07380
 H98 H -0.20989 0.50093 1.07384
 H99 H -0.20992 0.56393 0.96242
 H100 H -0.29044 0.56382 0.96238
 H101 H -0.29027 0.43583 0.96354
 H102 H -0.20975 0.43594 0.96358
 C103 C 0.29239 0.50013 0.99991
 C104 C 0.27275 0.46514 0.97204
 C105 C 0.22937 0.46520 0.97205
 C106 C 0.20983 0.50024 0.99994
 C107 C 0.22947 0.54187 0.98355
 C108 C 0.27285 0.54181 0.98353
 C109 C 0.27281 0.49352 1.04419
 C110 C 0.22942 0.49358 1.04420
 C111 C 0.33914 0.50007 0.99989
 C112 C 0.37755 0.50003 0.99988
 C113 C 0.16308 0.50030 0.99995
 C114 C 0.12468 0.50033 0.99996
 H115 H 0.29128 0.44232 0.95389
 H116 H 0.21077 0.44243 0.95391
 H117 H 0.21094 0.56901 0.97289
 H118 H 0.29146 0.56890 0.97286
 H119 H 0.29138 0.48917 1.07299
 H120 H 0.21086 0.48928 1.07302
 C121 C 0.00002 -0.29239 0.50012
 C122 C -0.03516 -0.27276 0.47248
 C123 C -0.03516 -0.22938 0.47255
 C124 C 0.00003 -0.20983 0.50023
 C125 C 0.04158 -0.22940 0.48356
 C126 C 0.04158 -0.27279 0.48350
 C127 C -0.00634 -0.27287 0.54445
 C128 C -0.00633 -0.22949 0.54451
 C129 C 0.00001 -0.33914 0.50005
 C130 C 0.00002 -0.37755 0.50001
 C131 C 0.00003 -0.16308 0.50030
 C132 C 0.00004 -0.12468 0.50032
 H133 H -0.05807 -0.29130 0.45445
 H134 H -0.05806 -0.21078 0.45457
 H135 H 0.06863 -0.21082 0.47276
 H136 H 0.06862 -0.29134 0.47264
 H137 H -0.01048 -0.29148 0.57326
 H138 H -0.01047 -0.21096 0.57338
 C139 C 0.00004 0.29139 0.50013
 C140 C 0.01802 0.27175 0.45916
 C141 C 0.01802 0.22837 0.45922
 C142 C 0.00004 0.20883 0.50023
 C143 C -0.04445 0.22843 0.50513
 C144 C -0.04445 0.27181 0.50507
 C145 C 0.02654 0.27185 0.53622
 C146 C 0.02654 0.22847 0.53628
 C147 C 0.00003 0.33815 0.50006
 C148 C 0.00002 0.37654 0.50003
 C149 C 0.00003 0.16208 0.50029
 C150 C 0.00004 0.12368 0.50032
 H151 H 0.02972 0.29029 0.43246
 H152 H 0.02973 0.20977 0.43256
 H153 H -0.07341 0.20987 0.50836
 H154 H -0.07341 0.29038 0.50825
 H155 H 0.04379 0.29045 0.55968
 H156 H 0.04380 0.20993 0.55978
 C157 C 0.49986 -0.00007 -0.29243
 C158 C 0.52326 -0.03819 -0.27277
 C159 C 0.52318 -0.03817 -0.22939
 C160 C 0.49972 -0.00002 -0.20987
 C161 C 0.45501 -0.00125 -0.22953
 C162 C 0.45508 -0.00127 -0.27291
 C163 C 0.52114 0.03930 -0.27283
 C164 C 0.52107 0.03933 -0.22944
 C165 C 0.49994 -0.00010 -0.33918
 C166 C 0.49999 -0.00011 -0.37758
 C167 C 0.49965 0.00000 -0.16311
 C168 C 0.49961 0.00002 -0.12471
 H169 H 0.53854 -0.06303 -0.29130
 H170 H 0.53840 -0.06299 -0.21079
 H171 H 0.42585 -0.00203 -0.21101
 H172 H 0.42599 -0.00208 -0.29153
 H173 H 0.53505 0.06491 -0.29139
 H174 H 0.53491 0.06496 -0.21087
 C175 C 0.49987 -0.00010 0.29136
 C176 C 0.50335 0.04454 0.27179
 C177 C 0.50328 0.04456 0.22841
 C178 C 0.49974 -0.00005 0.20880
 C179 C 0.45937 -0.01934 0.22845
 C180 C 0.45944 -0.01936 0.27183
 C181 C 0.53673 -0.02543 0.27170
 C182 C 0.53666 -0.02541 0.22832
 C183 C 0.49995 -0.00013 0.33811
 C184 C 0.50000 -0.00013 0.37651
 C185 C 0.49967 -0.00003 0.16205
 C186 C 0.49963 -0.00001 0.12365
 H187 H 0.50566 0.07357 0.29037
 H188 H 0.50553 0.07362 0.20985
 H189 H 0.43305 -0.03187 0.20992
 H190 H 0.43318 -0.03192 0.29043
 H191 H 0.56078 -0.04194 0.29022
 H192 H 0.56065 -0.04190 0.20970
 C193 C 0.49941 -0.29120 -0.00024
 C194 C 0.46423 -0.27167 -0.02794
 C195 C 0.46428 -0.22831 -0.02801
 C196 C 0.49950 -0.20878 -0.00037
 C197 C 0.54104 -0.22838 -0.01699
 C198 C 0.54099 -0.27174 -0.01692
 C199 C 0.49307 -0.27159 0.04405
 C200 C 0.49312 -0.22823 0.04397
 C201 C 0.49936 -0.33781 -0.00017
 C202 C 0.49932 -0.37613 -0.00014
 C203 C 0.49955 -0.16216 -0.00045
 C204 C 0.49957 -0.12384 -0.00049
 H205 H 0.44131 -0.29025 -0.04591
 H206 H 0.44140 -0.20974 -0.04605
 H207 H 0.56810 -0.20985 -0.02786
 H208 H 0.56802 -0.29037 -0.02772
 H209 H 0.48891 -0.29012 0.07291
 H210 H 0.48900 -0.20960 0.07278
 C211 C 0.49940 0.29122 -0.00025
 C212 C 0.51741 0.27177 -0.04128
 C213 C 0.51746 0.22841 -0.04134
 C214 C 0.49949 0.20880 -0.00037
 C215 C 0.45497 0.22828 0.00458
 C216 C 0.45492 0.27164 0.00465
 C217 C 0.52594 0.27167 0.03580
 C218 C 0.52598 0.22831 0.03574
 C219 C 0.49935 0.33784 -0.00019
 C220 C 0.49931 0.37616 -0.00016
 C221 C 0.49953 0.16219 -0.00044
 C222 C 0.49957 0.12387 -0.00047
 H223 H 0.52910 0.29040 -0.06792
 H224 H 0.52918 0.20989 -0.06804
 H225 H 0.42603 0.20967 0.00776
 H226 H 0.42595 0.29018 0.00787
 H227 H 0.54317 0.29023 0.05930
 H228 H 0.54325 0.20971 0.05919
 C229 C -0.29117 -0.00022 0.50056
 C230 C -0.27158 0.00016 0.54530
 C231 C -0.22822 0.00010 0.54525
 C232 C -0.20874 -0.00033 0.50045
 C233 C -0.22826 0.03827 0.47774
 C234 C -0.27161 0.03832 0.47779
 C235 C -0.27171 -0.03922 0.47850
 C236 C -0.22835 -0.03928 0.47844
 C237 C -0.33778 -0.00017 0.50062
 C238 C -0.37610 -0.00014 0.50065
 C239 C -0.16213 -0.00039 0.50039
 C240 C -0.12381 -0.00044 0.50037
 H241 H -0.29012 0.00045 0.57445
 H242 H -0.20960 0.00034 0.57435
 H243 H -0.20966 0.06334 0.46292
 H244 H -0.29018 0.06344 0.46302
 H245 H -0.29034 -0.06455 0.46418
 H246 H -0.20982 -0.06466 0.46408
 C247 C 0.29126 -0.00023 0.50056
 C248 C 0.27181 -0.03528 0.47265
 C249 C 0.22845 -0.03534 0.47260
 C250 C 0.20884 -0.00034 0.50046
 C251 C 0.22833 0.04135 0.48409
 C252 C 0.27169 0.04141 0.48415
 C253 C 0.27167 -0.00689 0.54482
 C254 C 0.22832 -0.00695 0.54476
 C255 C 0.33787 -0.00018 0.50063
 C256 C 0.37619 -0.00015 0.50066
 C257 C 0.16222 -0.00040 0.50040
 C258 C 0.12390 -0.00044 0.50037
 H259 H 0.29044 -0.05805 0.45453
 H260 H 0.20993 -0.05815 0.45443
 H261 H 0.20973 0.06844 0.47340
 H262 H 0.29025 0.06854 0.47351
 H263 H 0.29022 -0.01118 0.57365
 H264 H 0.20971 -0.01129 0.57354
 C265 C 0.00017 0.50057 1.29119
 C266 C 0.00371 0.54518 1.27161
 C267 C 0.00379 0.54513 1.22825
 C268 C 0.00031 0.50047 1.20877
 C269 C -0.04013 0.48121 1.22826
 C270 C -0.04020 0.48126 1.27162
 C271 C 0.03711 0.47519 1.27175
 C272 C 0.03718 0.47514 1.22840
 C273 C 0.00010 0.50062 1.33781
 C274 C 0.00006 0.50067 1.37613
 C275 C 0.00039 0.50042 1.16216
 C276 C 0.00044 0.50039 1.12384
 H277 H 0.00596 0.57424 1.29016
 H278 H 0.00610 0.57414 1.20964
 H279 H -0.06639 0.46865 1.20965
 H280 H -0.06652 0.46874 1.29017
 H281 H 0.06108 0.45871 1.29039
 H282 H 0.06122 0.45862 1.20988
 C283 C 0.00015 0.50060 0.70877
 C284 C 0.02361 0.46242 0.72821
 C285 C 0.02369 0.46236 0.77157
 C286 C 0.00029 0.50048 0.79119
 C287 C -0.04450 0.49929 0.77173
 C288 C -0.04457 0.49935 0.72838
 C289 C 0.02150 0.53994 0.72832
 C290 C 0.02157 0.53988 0.77168
 C291 C 0.00008 0.50066 0.66216
 C292 C 0.00005 0.50070 0.62384
 C293 C 0.00036 0.50042 0.83781
 C294 C 0.00042 0.50039 0.87613
 H295 H 0.03883 0.43762 0.70958
 H296 H 0.03896 0.43751 0.79009
 H297 H -0.07359 0.49847 0.79036
 H298 H -0.07372 0.49859 0.70984
 H299 H 0.03534 0.56558 0.70975
 H300 H 0.03548 0.56547 0.79027
   
