data_POSCAR
  _audit_creation_date              2014-09-24
  _audit_creation_method            'ToBaCCo'
  _symmetry_space_group_name_H-M    'P1'
  _symmetry_Int_Tables_number       1
  _symmetry_cell_setting            triclinic
  loop_
  _symmetry_equiv_pos_as_xyz
 x,y,z
_cell_length_a 37.0015
_cell_length_b 37.0220
_cell_length_c 36.9019
_cell_angle_alpha 89.462900
_cell_angle_beta 89.288800
_cell_angle_gamma 89.591000
loop_
  _atom_site_label
  _atom_site_type_symbol
  _atom_site_fract_x
  _atom_site_fract_y
  _atom_site_fract_z
C1 C 0.74152 0.62952 1.04135
 C2 C 0.76014 0.64645 1.01264
 C3 C 0.79541 0.65909 1.01792
 C4 C 0.81166 0.65508 1.05189
 C5 C 0.79297 0.63772 1.08033
 C6 C 0.75803 0.62472 1.07497
 C7 C 0.74332 0.64848 0.97666
 C8 C 0.70921 0.66481 0.97233
 C9 C 0.69200 0.66369 0.93876
 C10 C 0.70853 0.64570 0.90963
 C11 C 0.74231 0.62910 0.91395
 C12 C 0.75989 0.63096 0.94723
 H13 H 0.71460 0.61906 1.03708
 H14 H 0.80997 0.67200 0.99570
 H15 H 0.69601 0.67794 0.99511
 H16 H 0.78568 0.61736 0.95075
 H17 H 0.80570 0.63410 1.10648
 H18 H 0.69481 0.64399 0.88391
 C19 C 0.73841 0.40297 0.44719
 C20 C 0.75570 0.38492 0.47581
 C21 C 0.78958 0.36846 0.46982
 C22 C 0.80573 0.36972 0.43529
 C23 C 0.78847 0.38815 0.40696
 C24 C 0.75493 0.40489 0.41292
 C25 C 0.73812 0.38313 0.51183
 C26 C 0.70441 0.36633 0.51628
 C27 C 0.68795 0.36440 0.55063
 C28 C 0.70475 0.38000 0.58043
 C29 C 0.73816 0.39709 0.57603
 C30 C 0.75499 0.39831 0.54186
 H31 H 0.71227 0.41569 0.45170
 H32 H 0.80281 0.35403 0.49171
 H33 H 0.69152 0.35405 0.49327
 H34 H 0.78096 0.41140 0.53851
 H35 H 0.80088 0.38902 0.38018
 H36 H 0.69211 0.37839 0.60707
 C37 C 0.24013 -0.10116 -0.05049
 C38 C 0.25769 -0.11892 -0.02188
 C39 C 0.29184 -0.13485 -0.02788
 C40 C 0.30798 -0.13333 -0.06247
 C41 C 0.29036 -0.11515 -0.09078
 C42 C 0.25657 -0.09897 -0.08476
 C43 C 0.24009 -0.12083 0.01414
 C44 C 0.20635 -0.13761 0.01850
 C45 C 0.18956 -0.13917 0.05274
 C46 C 0.20613 -0.12322 0.08251
 C47 C 0.23956 -0.10616 0.07819
 C48 C 0.25670 -0.10531 0.04415
 H49 H 0.21381 -0.08881 -0.04595
 H50 H 0.30527 -0.14902 -0.00593
 H51 H 0.19367 -0.15003 -0.00458
 H52 H 0.28263 -0.09215 0.04086
 H53 H 0.30268 -0.11397 -0.11761
 H54 H 0.19329 -0.12440 0.10909
 C55 C 0.23747 0.12981 0.54423
 C56 C 0.25629 0.14563 0.51498
 C57 C 0.29164 0.15819 0.51995
 C58 C 0.30776 0.15520 0.55405
 C59 C 0.28888 0.13899 0.58299
 C60 C 0.25387 0.12608 0.57801
 C61 C 0.23956 0.14681 0.47891
 C62 C 0.20545 0.16300 0.47413
 C63 C 0.18860 0.16164 0.44039
 C64 C 0.20548 0.14354 0.41153
 C65 C 0.23927 0.12707 0.41627
 C66 C 0.25648 0.12914 0.44974
 H67 H 0.21050 0.11935 0.54035
 H68 H 0.30643 0.17028 0.49744
 H69 H 0.19204 0.17637 0.49664
 H70 H 0.28234 0.11575 0.45355
 H71 H 0.30154 0.13612 0.60923
 H72 H 0.19208 0.14175 0.38564
 C73 C 0.12804 0.54104 0.24024
 C74 C 0.14507 0.51244 0.25864
 C75 C 0.15801 0.51777 0.29383
 C76 C 0.15421 0.55162 0.31021
 C77 C 0.13678 0.57994 0.29179
 C78 C 0.12346 0.57458 0.25692
 C79 C 0.14702 0.47656 0.24169
 C80 C 0.16333 0.47220 0.20739
 C81 C 0.16238 0.43864 0.19021
 C82 C 0.14455 0.40955 0.20696
 C83 C 0.12796 0.41390 0.24093
 C84 C 0.12966 0.44717 0.25847
 H85 H 0.11737 0.53676 0.21337
 H86 H 0.17102 0.49571 0.30828
 H87 H 0.17638 0.49493 0.19405
 H88 H 0.11610 0.45069 0.28444
 H89 H 0.13341 0.60598 0.30472
 H90 H 0.14299 0.38382 0.19328
 C91 C -0.09750 -0.05245 0.23748
 C92 C -0.11561 -0.02391 0.25485
 C93 C -0.13190 -0.02973 0.28904
 C94 C -0.13037 -0.06403 0.30543
 C95 C -0.11183 -0.09226 0.28804
 C96 C -0.09529 -0.08645 0.25421
 C97 C -0.11739 0.01194 0.23721
 C98 C -0.13411 0.01629 0.20344
 C99 C -0.13594 0.05053 0.18694
 C100 C -0.12028 0.08027 0.20381
 C101 C -0.10330 0.07594 0.23725
 C102 C -0.10218 0.04193 0.25409
 H103 H -0.08487 -0.04806 0.21115
 H104 H -0.14631 -0.00783 0.30231
 H105 H -0.14638 -0.00674 0.19059
 H106 H -0.08916 0.03866 0.28010
 H107 H -0.11065 -0.11889 0.30056
 H108 H -0.12174 0.10685 0.19124
 C109 C 0.40353 0.44848 0.73946
 C110 C 0.38546 0.47702 0.75689
 C111 C 0.36887 0.47109 0.79089
 C112 C 0.37003 0.43667 0.80705
 C113 C 0.38852 0.40844 0.78962
 C114 C 0.40537 0.41436 0.75597
 C115 C 0.38373 0.51287 0.73929
 C116 C 0.36696 0.51721 0.70555
 C117 C 0.36511 0.55140 0.68907
 C118 C 0.38074 0.58116 0.70586
 C119 C 0.39779 0.57688 0.73928
 C120 C 0.39895 0.54287 0.75614
 H121 H 0.41632 0.45295 0.71322
 H122 H 0.35442 0.49297 0.80416
 H123 H 0.35466 0.49423 0.69268
 H124 H 0.41201 0.53962 0.78213
 H125 H 0.38937 0.38170 0.80194
 H126 H 0.37919 0.60767 0.69319
 C127 C 0.63005 1.04147 0.74088
 C128 C 0.64708 1.01286 0.75924
 C129 C 0.66000 1.01813 0.79445
 C130 C 0.65616 1.05199 0.81090
 C131 C 0.63870 1.08031 0.79245
 C132 C 0.62544 1.07495 0.75759
 C133 C 0.64893 0.97699 0.74226
 C134 C 0.66523 0.97263 0.70795
 C135 C 0.66409 0.93913 0.69068
 C136 C 0.64607 0.91010 0.70735
 C137 C 0.62949 0.91446 0.74133
 C138 C 0.63139 0.94768 0.75896
 H139 H 0.61934 1.03730 0.71402
 H140 H 0.67298 0.99599 0.80882
 H141 H 0.67841 0.99532 0.69467
 H142 H 0.61784 0.95121 0.78493
 H143 H 0.63515 1.10639 0.80525
 H144 H 0.64436 0.88441 0.69360
 C145 C -0.05219 0.24031 -0.09993
 C146 C -0.02384 0.25783 -0.11838
 C147 C -0.02995 0.29183 -0.13457
 C148 C -0.06439 0.30786 -0.13266
 C149 C -0.09244 0.29030 -0.11382
 C150 C -0.08631 0.25666 -0.09734
 C151 C 0.01207 0.24042 -0.12068
 C152 C 0.01618 0.20642 -0.13692
 C153 C 0.05031 0.18980 -0.13874
 C154 C 0.08023 0.20680 -0.12358
 C155 C 0.07616 0.24048 -0.10706
 C156 C 0.04223 0.25744 -0.10599
 H157 H -0.04757 0.21410 -0.08738
 H158 H -0.00821 0.30522 -0.14926
 H159 H -0.00704 0.19334 -0.14858
 H160 H 0.03912 0.28353 -0.09316
 H161 H -0.11916 0.30252 -0.11237
 H162 H 0.10668 0.19398 -0.12478
 C163 C 0.54039 0.24062 0.12774
 C164 C 0.51152 0.25921 0.14428
 C165 C 0.51675 0.29446 0.15695
 C166 C 0.55075 0.31070 0.15338
 C167 C 0.57930 0.29205 0.13645
 C168 C 0.57404 0.25715 0.12342
 C169 C 0.47556 0.24231 0.14609
 C170 C 0.47095 0.20831 0.16270
 C171 C 0.43734 0.19117 0.16173
 C172 C 0.40846 0.20767 0.14359
 C173 C 0.41305 0.24135 0.12669
 C174 C 0.44638 0.25885 0.12840
 H175 H 0.53630 0.21371 0.11725
 H176 H 0.49452 0.30906 0.16961
 H177 H 0.49352 0.19516 0.17603
 H178 H 0.45009 0.28460 0.11465
 H179 H 0.60547 0.30478 0.13320
 H180 H 0.38268 0.19403 0.14204
 C181 C 1.04152 0.74176 0.62953
 C182 C 1.01269 0.76014 0.64632
 C183 C 1.01789 0.79529 0.65931
 C184 C 1.05188 0.81163 0.65578
 C185 C 1.08041 0.79314 0.63857
 C186 C 1.07513 0.75835 0.62524
 C187 C 0.97676 0.74318 0.64792
 C188 C 0.97223 0.70891 0.66399
 C189 C 0.93872 0.69162 0.66254
 C190 C 0.90987 0.70825 0.64447
 C191 C 0.91439 0.74221 0.62812
 C192 C 0.94760 0.75984 0.63032
 H193 H 1.03743 0.71494 0.61879
 H194 H 0.99560 0.80967 0.67214
 H195 H 0.99479 0.69566 0.67722
 H196 H 0.95128 0.78579 0.61693
 H197 H 1.10662 0.80584 0.63530
 H198 H 0.88419 0.69450 0.64252
 C199 C 0.44911 0.73977 0.40263
 C200 C 0.47769 0.75733 0.38459
 C201 C 0.47180 0.79140 0.36847
 C202 C 0.43741 0.80746 0.37007
 C203 C 0.40914 0.78990 0.38850
 C204 C 0.41500 0.75618 0.40490
 C205 C 0.51356 0.73984 0.38247
 C206 C 0.51778 0.70613 0.36568
 C207 C 0.55194 0.68967 0.36361
 C208 C 0.58179 0.70647 0.37903
 C209 C 0.57763 0.73986 0.39610
 C210 C 0.54365 0.75670 0.39748
 H211 H 0.45354 0.71349 0.41510
 H212 H 0.49364 0.80486 0.35402
 H213 H 0.49472 0.69323 0.35356
 H214 H 0.54049 0.78264 0.41059
 H215 H 0.38247 0.80223 0.38963
 H216 H 0.60828 0.69382 0.37733
 C217 C 0.41379 -0.04319 0.28576
 H218 H 0.43068 -0.02138 0.27597
 C219 C 0.42924 -0.07275 0.30409
 H220 H 0.45811 -0.07374 0.30852
 C221 C 0.35554 -0.06913 0.29189
 H222 H 0.32682 -0.06749 0.28692
 C223 C 0.36976 -0.09892 0.31018
 H224 H 0.35194 -0.12033 0.31935
 N225 N 0.37746 -0.04193 0.28033
 C226 C 0.38350 0.03652 0.19822
 H227 H 0.36831 0.01893 0.18105
 C228 C 0.39936 0.06730 0.18310
 H229 H 0.39666 0.07285 0.15437
 C230 C 0.40262 0.05305 0.25686
 H231 H 0.40232 0.04807 0.28580
 C232 C 0.41868 0.08439 0.24281
 H233 H 0.43115 0.10336 0.26090
 Zn234 Zn 0.35311 -0.00412 0.25580
 N235 N 0.38464 0.03040 0.23463
 C236 C 0.30526 0.05130 0.27705
 N237 N 0.32335 0.02143 0.28904
 C238 C 0.32344 0.01216 0.32483
 C239 C 0.30492 0.03334 0.35012
 C240 C 0.28640 0.07329 0.30153
 C241 C 0.34413 -0.04819 0.19627
 C242 C 0.32640 -0.06512 0.16803
 C243 C 0.27060 -0.03681 0.18789
 C244 C 0.28942 -0.02035 0.21587
 N245 N 0.32564 -0.02592 0.21916
 H246 H 0.30635 0.05855 0.24859
 H247 H 0.33878 -0.01099 0.33407
 H248 H 0.30564 0.02606 0.37862
 H249 H 0.27256 0.09734 0.29190
 H250 H 0.37283 -0.05243 0.19981
 H251 H 0.34145 -0.08243 0.14968
 H252 H 0.24185 -0.03199 0.18509
 H253 H 0.27514 -0.00307 0.23472
 C254 C 0.41615 0.09198 0.20569
 C255 C 0.40687 -0.10081 0.31643
 C256 C 0.28937 -0.05921 0.16367
 C257 C 0.28655 0.06434 0.33843
 C258 C 0.09772 1.03876 0.80642
 H259 H 0.10863 1.01553 0.82060
 C260 C 0.08247 1.06714 0.82625
 H261 H 0.08192 1.06577 0.85559
 C262 C 0.08685 1.07006 0.75128
 H263 H 0.08932 1.07173 0.72220
 C264 C 0.07133 1.09897 0.77005
 H265 H 0.06207 1.12263 0.75525
 N266 N 0.10095 1.04128 0.76966
 C267 C 0.11946 0.95795 0.69040
 H268 H 0.14304 0.97010 0.67793
 C269 C 0.10496 0.92694 0.67536
 H270 H 0.11705 0.91574 0.65100
 C271 C 0.07701 0.95554 0.73907
 H272 H 0.06719 0.96620 0.76457
 C273 C 0.06177 0.92421 0.72496
 H274 H 0.03992 0.91087 0.73945
 Zn275 Zn 0.13200 1.00800 0.74513
 N276 N 0.10559 0.97144 0.72185
 C277 C 0.16386 0.94863 0.78162
 N278 N 0.16257 0.98537 0.77969
 C279 C 0.18147 1.00598 0.80314
 C280 C 0.20212 0.98967 0.83029
 C281 C 0.18418 0.93127 0.80829
 C282 C 0.14333 1.04550 0.67946
 C283 C 0.16236 1.06492 0.65297
 C284 C 0.21617 1.05869 0.68896
 C285 C 0.19611 1.03931 0.71483
 N286 N 0.16019 1.03348 0.70991
 H287 H 0.14879 0.93265 0.76278
 H288 H 0.17984 1.03512 0.80122
 H289 H 0.21657 1.00623 0.84924
 H290 H 0.18461 0.90204 0.80993
 H291 H 0.11510 1.03955 0.67547
 H292 H 0.14865 1.07434 0.62885
 H293 H 0.24469 1.06334 0.69311
 H294 H 0.20931 1.02907 0.73876
 C295 C 0.07631 0.90953 0.69309
 C296 C 0.07018 1.09798 0.80791
 C297 C 0.19904 1.07174 0.65787
 C298 C 0.20320 0.95197 0.83301
 C299 C 0.58972 0.53746 0.29578
 H300 H 0.59195 0.51040 0.30687
 C301 C 0.57426 0.56497 0.31680
 H302 H 0.56417 0.55897 0.34386
 C303 C 0.60323 0.57935 0.24864
 H304 H 0.61568 0.58550 0.22282
 C305 C 0.58784 0.60743 0.26856
 H306 H 0.58836 0.63472 0.25768
 N307 N 0.60447 0.54519 0.26261
 C308 C 0.61793 0.46016 0.18485
 H309 H 0.64028 0.47282 0.17073
 C310 C 0.60285 0.42909 0.17051
 H311 H 0.61321 0.41849 0.14512
 C312 C 0.57949 0.45614 0.23662
 H313 H 0.57141 0.46613 0.26294
 C314 C 0.56375 0.42475 0.22325
 H315 H 0.54334 0.41076 0.23919
 Zn316 Zn 0.63395 0.50982 0.23928
 N317 N 0.60643 0.47288 0.21755
 C318 C 0.66669 0.45138 0.27605
 N319 N 0.66347 0.48802 0.27492
 C320 C 0.67963 0.50908 0.29996
 C321 C 0.69956 0.49324 0.32793
 C322 C 0.68636 0.43449 0.30349
 C323 C 0.64667 0.54610 0.17322
 C324 C 0.66650 0.56487 0.14686
 C325 C 0.72024 0.55534 0.18237
 C326 C 0.69937 0.53668 0.20815
 N327 N 0.66317 0.53284 0.20337
 H328 H 0.65375 0.43514 0.25587
 H329 H 0.67648 0.53813 0.29851
 H330 H 0.71193 0.51008 0.34809
 H331 H 0.68843 0.40529 0.30443
 H332 H 0.61791 0.54250 0.16998
 H333 H 0.65304 0.57567 0.12317
 H334 H 0.74895 0.55868 0.18649
 H335 H 0.71203 0.52574 0.23212
 C336 C 0.57601 0.41083 0.19014
 C337 C 0.57401 0.60040 0.30324
 C338 C 0.70353 0.56979 0.15164
 C339 C 0.70269 0.45558 0.32980
 C340 C 0.91394 0.45566 0.78411
 H341 H 0.93119 0.47722 0.77440
 C342 C 0.92889 0.42584 0.80244
 H343 H 0.95774 0.42441 0.80695
 C344 C 0.85529 0.43060 0.79003
 H345 H 0.82661 0.43268 0.78498
 C346 C 0.86902 0.40057 0.80834
 H347 H 0.85085 0.37942 0.81743
 N348 N 0.87765 0.45747 0.77856
 C349 C 0.88512 0.53637 0.69678
 H350 H 0.86986 0.51904 0.67941
 C351 C 0.90108 0.56727 0.68202
 H352 H 0.89841 0.57316 0.65335
 C353 C 0.90418 0.55222 0.75564
 H354 H 0.90375 0.54698 0.78453
 C355 C 0.92035 0.58366 0.74195
 H356 H 0.93280 0.60241 0.76029
 Zn357 Zn 0.85401 0.49576 0.75402
 N358 N 0.88613 0.52989 0.73313
 C359 C 0.80724 0.55202 0.77500
 N360 N 0.82456 0.52175 0.78713
 C361 C 0.82413 0.51243 0.82290
 C362 C 0.80589 0.53401 0.84805
 C363 C 0.78869 0.57442 0.79932
 C364 C 0.84425 0.45227 0.69410
 C365 C 0.82613 0.43587 0.66580
 C366 C 0.77086 0.46487 0.68615
 C367 C 0.79006 0.48078 0.71417
 N368 N 0.82622 0.47463 0.71725
 H369 H 0.80874 0.55927 0.74655
 H370 H 0.83887 0.48893 0.83223
 H371 H 0.80621 0.52671 0.87655
 H372 H 0.77549 0.59879 0.78959
 H373 H 0.87291 0.44755 0.69748
 H374 H 0.84082 0.41849 0.64722
 H375 H 0.74218 0.47016 0.68352
 H376 H 0.77613 0.49810 0.73323
 C377 C 0.91786 0.59168 0.70492
 C378 C 0.90608 0.39811 0.81469
 C379 C 0.78917 0.44241 0.66165
 C380 C 0.78834 0.56544 0.83621
 C381 C 0.28516 0.41432 -0.04546
 H382 H 0.27564 0.43132 -0.02361
 C383 C 0.30390 0.42952 -0.07509
 H384 H 0.30890 0.45831 -0.07610
 C385 C 0.29029 0.35606 -0.07137
 H386 H 0.28481 0.32742 -0.06967
 C387 C 0.30896 0.37003 -0.10124
 H388 H 0.31791 0.35212 -0.12266
 N389 N 0.27905 0.37810 -0.04414
 C390 C 0.19721 0.38512 0.03476
 H391 H 0.17983 0.37004 0.01727
 C392 C 0.18245 0.40114 0.06567
 H393 H 0.15378 0.39868 0.07143
 C394 C 0.25602 0.40375 0.05092
 H395 H 0.28486 0.40317 0.04576
 C396 C 0.24233 0.41997 0.08237
 H397 H 0.26062 0.43227 0.10126
 Zn398 Zn 0.25418 0.35409 -0.00605
 N399 N 0.23352 0.38592 0.02841
 C400 C 0.27469 0.30649 0.04993
 N401 N 0.28691 0.32422 0.01974
 C402 C 0.32261 0.32398 0.01037
 C403 C 0.34759 0.30555 0.03182
 C404 C 0.29885 0.28774 0.07221
 C405 C 0.19464 0.34530 -0.05003
 C406 C 0.16636 0.32760 -0.06689
 C407 C 0.18576 0.27184 -0.03832
 C408 C 0.21377 0.29062 -0.02194
 N409 N 0.21732 0.32681 -0.02768
 H410 H 0.24631 0.30785 0.05723
 H411 H 0.33204 0.33903 -0.01304
 H412 H 0.37603 0.30605 0.02449
 H413 H 0.28905 0.27424 0.09654
 H414 H 0.19839 0.37397 -0.05440
 H415 H 0.14817 0.34265 -0.08427
 H416 H 0.18276 0.24313 -0.03338
 H417 H 0.23247 0.27634 -0.00461
 C418 C 0.20530 0.41776 0.09023
 C419 C 0.31594 0.40702 -0.10316
 C420 C 0.16175 0.29061 -0.06082
 C421 C 0.33567 0.28761 0.06319
 C422 C 0.79761 0.08918 1.03636
 H423 H 0.80864 0.09148 1.00917
 C424 C 0.81847 0.07345 1.06381
 H425 H 0.84532 0.06323 1.05762
 C426 C 0.75086 0.10275 1.07868
 H427 H 0.72527 0.11533 1.08503
 C428 C 0.77060 0.08708 1.10670
 H429 H 0.75981 0.08753 1.13413
 N430 N 0.76470 0.10407 1.04432
 C431 C 0.68713 0.11757 0.95929
 H432 H 0.67300 0.13965 0.97223
 C433 C 0.67282 0.10274 0.92804
 H434 H 0.64746 0.11301 0.91763
 C435 C 0.73888 0.07964 0.95466
 H436 H 0.76517 0.07167 0.96446
 C437 C 0.72554 0.06416 0.92306
 H438 H 0.74148 0.04407 0.90875
 Zn439 Zn 0.74141 0.13359 1.00897
 N440 N 0.71980 0.10620 0.97180
 C441 C 0.77774 0.16714 0.95032
 N442 N 0.77686 0.16356 0.98707
 C443 C 0.80193 0.17971 1.00807
 C444 C 0.82969 0.19997 0.99204
 C445 C 0.80496 0.18715 0.93326
 C446 C 0.67545 0.14544 1.04557
 C447 C 0.64882 0.16495 1.06412
 C448 C 0.68374 0.21917 1.05425
 C449 C 0.70980 0.19860 1.03581
 N450 N 0.70541 0.16233 1.03219
 H451 H 0.75752 0.15424 0.93412
 H452 H 0.80068 0.17629 1.03721
 H453 H 0.84988 0.21234 1.00884
 H454 H 0.80569 0.18951 0.90397
 H455 H 0.67251 0.11663 1.04212
 H456 H 0.62524 0.15120 1.07494
 H457 H 0.68750 0.24796 1.05735
 H458 H 0.73363 0.21156 1.02478
 C459 C 0.69246 0.07632 0.90937
 C460 C 0.80501 0.07304 1.09943
 C461 C 0.65313 0.20208 1.06872
 C462 C 0.83131 0.20347 0.95426
 C463 C 0.29716 0.58978 0.53687
 H464 H 0.30815 0.59210 0.50966
 C465 C 0.31812 0.57420 0.56431
 H466 H 0.34501 0.56409 0.55810
 C467 C 0.25039 0.60322 0.57922
 H468 H 0.22476 0.61570 0.58557
 C469 C 0.27024 0.58770 0.60724
 H470 H 0.25950 0.58814 0.63469
 N471 N 0.26421 0.60455 0.54486
 C472 C 0.18680 0.61868 0.45977
 H473 H 0.17293 0.64103 0.47255
 C474 C 0.17232 0.60376 0.42865
 H475 H 0.14709 0.61425 0.41812
 C476 C 0.23803 0.58002 0.45555
 H477 H 0.26419 0.57177 0.46549
 C478 C 0.22452 0.56444 0.42410
 H479 H 0.24019 0.54399 0.41001
 Zn480 Zn 0.24109 0.63422 0.50956
 N481 N 0.21929 0.60697 0.47244
 C482 C 0.27819 0.66717 0.45102
 N483 N 0.27681 0.66388 0.48778
 C484 C 0.30167 0.68005 0.50900
 C485 C 0.32971 0.70008 0.49321
 C486 C 0.30571 0.68695 0.43418
 C487 C 0.17526 0.64656 0.54618
 C488 C 0.14889 0.66623 0.56493
 C489 C 0.18431 0.72015 0.55523
 C490 C 0.21010 0.69943 0.53659
 N491 N 0.20536 0.66322 0.53283
 H492 H 0.25815 0.65421 0.43465
 H493 H 0.30003 0.67683 0.53815
 H494 H 0.34972 0.71249 0.51020
 H495 H 0.30685 0.68910 0.40489
 H496 H 0.17204 0.61780 0.54260
 H497 H 0.12522 0.65265 0.57576
 H498 H 0.18838 0.74888 0.55848
 H499 H 0.23402 0.71222 0.52556
 C500 C 0.19161 0.57689 0.41026
 C501 C 0.30472 0.57384 0.59994
 C502 C 0.15360 0.70328 0.56973
 C503 C 0.33184 0.70331 0.45544
 C504 C 0.78656 0.91476 0.45415
 H505 H 0.77694 0.93201 0.47576
 C506 C 0.80491 0.92970 0.42413
 H507 H 0.80953 0.95853 0.42259
 C508 C 0.79221 0.85613 0.42917
 H509 H 0.78702 0.82747 0.43136
 C510 C 0.81051 0.86984 0.39895
 H511 H 0.81949 0.85167 0.37775
 N512 N 0.78086 0.87849 0.45610
 C513 C 0.69906 0.88610 0.53505
 H514 H 0.68172 0.87099 0.51757
 C515 C 0.68425 0.90203 0.56600
 H516 H 0.65559 0.89948 0.57175
 C517 C 0.75782 0.90484 0.55126
 H518 H 0.78667 0.90430 0.54614
 C519 C 0.74408 0.92095 0.58275
 H520 H 0.76234 0.93325 0.60168
 Zn521 Zn 0.75612 0.85487 0.49454
 N522 N 0.73538 0.88696 0.52874
 C523 C 0.77654 0.80795 0.55102
 N524 N 0.78885 0.82530 0.52065
 C525 C 0.82454 0.82478 0.51126
 C526 C 0.84942 0.80638 0.53286
 C527 C 0.80059 0.78924 0.57345
 C528 C 0.69652 0.84534 0.45080
 C529 C 0.66813 0.82737 0.43442
 C530 C 0.68765 0.77208 0.46381
 C531 C 0.71577 0.79112 0.47970
 N532 N 0.71929 0.82722 0.47335
 H533 H 0.74817 0.80953 0.55833
 H534 H 0.83403 0.83953 0.48768
 H535 H 0.87786 0.80661 0.52550
 H536 H 0.79073 0.77601 0.59789
 H537 H 0.70024 0.87394 0.44595
 H538 H 0.64984 0.84214 0.41690
 H539 H 0.68466 0.74345 0.46927
 H540 H 0.73454 0.77711 0.49716
 C541 C 0.70706 0.91861 0.59062
 C542 C 0.81701 0.90688 0.39633
 C543 C 0.66352 0.79049 0.44118
 C544 C 0.83740 0.78877 0.56439
 C545 C -0.04539 0.28449 0.41333
 H546 H -0.02386 0.27499 0.43060
 C547 C -0.07511 0.30306 0.42829
 H548 H -0.07651 0.30794 0.45717
 C549 C -0.07041 0.28978 0.35459
 H550 H -0.06832 0.28444 0.32587
 C551 C -0.10035 0.30830 0.36833
 H552 H -0.12144 0.31725 0.35014
 N553 N -0.04358 0.27855 0.37699
 C554 C 0.03466 0.19692 0.38486
 H555 H 0.01735 0.17963 0.36948
 C556 C 0.06514 0.18205 0.40127
 H557 H 0.07074 0.15340 0.39880
 C558 C 0.05086 0.25558 0.40388
 H559 H 0.04592 0.28442 0.40330
 C560 C 0.08190 0.24179 0.42049
 H561 H 0.10066 0.25998 0.43311
 Zn562 Zn -0.00521 0.25400 0.35333
 N563 N 0.02855 0.23321 0.38566
 C564 C 0.05146 0.27502 0.30651
 N565 N 0.02105 0.28699 0.32389
 C566 C 0.01163 0.32260 0.32350
 C567 C 0.03320 0.34774 0.30519
 C568 C 0.07387 0.29935 0.28789
 C569 C -0.04898 0.19442 0.34344
 C570 C -0.06526 0.16608 0.32529
 C571 C -0.03540 0.18582 0.27000
 C572 C -0.01963 0.21389 0.28923
 N573 N -0.02626 0.21728 0.32542
 H574 H 0.05879 0.24671 0.30798
 H575 H -0.01199 0.33183 0.33827
 H576 H 0.02578 0.37610 0.30551
 H577 H 0.09833 0.28975 0.27460
 H578 H -0.05406 0.19803 0.37212
 H579 H -0.08292 0.14772 0.33999
 H580 H -0.02973 0.18293 0.24130
 H581 H -0.00201 0.23272 0.27530
 C582 C 0.08953 0.20478 0.41828
 C583 C -0.10276 0.31512 0.40544
 C584 C -0.05822 0.16160 0.28832
 C585 C 0.06475 0.33607 0.28754
 C586 C 1.03813 0.79522 0.08971
 H587 H 1.01114 0.80647 0.09190
 C588 C 1.06600 0.81600 0.07441
 H589 H 1.06035 0.84302 0.06440
 C590 C 1.07947 0.74792 0.10319
 H591 H 1.08528 0.72213 0.11558
 C592 C 1.10790 0.76757 0.08795
 H593 H 1.13509 0.75652 0.08852
 N594 N 1.04542 0.76210 0.10440
 C595 C 0.95943 0.68530 0.11826
 H596 H 0.97184 0.67133 0.14076
 C597 C 0.92819 0.67117 0.10335
 H598 H 0.91724 0.64609 0.11398
 C599 C 0.95614 0.73653 0.07935
 H600 H 0.96648 0.76259 0.07104
 C601 C 0.92458 0.72338 0.06378
 H602 H 0.91080 0.73920 0.04325
 Zn603 Zn 1.00966 0.73915 0.13395
 N604 N 0.97261 0.71763 0.10644
 C605 C 0.95130 0.77629 0.16665
 N606 N 0.98798 0.77491 0.16357
 C607 C 1.00911 0.79988 0.17971
 C608 C 0.99329 0.82807 0.19942
 C609 C 0.93445 0.80394 0.18610
 C610 C 1.04515 0.67305 0.14639
 C611 C 1.06367 0.64661 0.16604
 C612 C 1.05474 0.68211 0.22009
 C613 C 1.03630 0.70797 0.19939
 N614 N 1.03229 0.70323 0.16312
 H615 H 0.93499 0.75616 0.15374
 H616 H 1.03819 0.79826 0.17666
 H617 H 1.01020 0.84819 0.21176
 H618 H 0.90522 0.80507 0.18804
 H619 H 1.04144 0.66985 0.11756
 H620 H 1.07417 0.62290 0.15238
 H621 H 1.05825 0.68620 0.24886
 H622 H 1.02570 0.73200 0.21221
 C623 C 0.91020 0.69065 0.07638
 C624 C 1.10133 0.80223 0.07424
 C625 C 1.06878 0.65133 0.20313
 C626 C 0.95560 0.83022 0.20235
 C627 C 0.53590 0.29633 0.58970
 H628 H 0.50888 0.30738 0.59240
 C629 C 0.56335 0.31737 0.57401
 H630 H 0.55732 0.34439 0.56420
 C631 C 0.57782 0.24930 0.60232
 H632 H 0.58402 0.22351 0.61454
 C633 C 0.60584 0.26923 0.58668
 H634 H 0.63313 0.25839 0.58676
 N635 N 0.54369 0.26322 0.60416
 C636 C 0.45834 0.18596 0.61912
 H637 H 0.47117 0.17193 0.64134
 C638 C 0.42694 0.17177 0.60458
 H639 H 0.41626 0.14658 0.61521
 C640 C 0.45427 0.23738 0.58053
 H641 H 0.46438 0.26351 0.57219
 C642 C 0.42256 0.22416 0.56533
 H643 H 0.40845 0.24002 0.54507
 Zn644 Zn 0.50856 0.24006 0.63426
 N645 N 0.47119 0.21842 0.60729
 C646 C 0.45060 0.27708 0.66784
 N647 N 0.48724 0.27574 0.66418
 C648 C 0.50861 0.30072 0.67999
 C649 C 0.49309 0.32887 0.69996
 C650 C 0.43404 0.30470 0.68758
 C651 C 0.54472 0.17419 0.64636
 C652 C 0.56362 0.14792 0.66589
 C653 C 0.55490 0.18346 0.71995
 C654 C 0.53609 0.20914 0.69937
 N655 N 0.53178 0.20430 0.66315
 H656 H 0.43411 0.25694 0.65517
 H657 H 0.53764 0.29912 0.67647
 H658 H 0.51018 0.34900 0.71203
 H659 H 0.40485 0.30581 0.68998
 H660 H 0.54075 0.17090 0.61758
 H661 H 0.57417 0.12426 0.65219
 H662 H 0.55862 0.18763 0.74867
 H663 H 0.52540 0.23309 0.71226
 C664 C 0.40850 0.19131 0.57796
 C665 C 0.59878 0.30388 0.57320
 C666 C 0.56902 0.15276 0.70292
 C667 C 0.45545 0.33098 0.70350
 C668 C 0.45639 0.78483 0.91509
 H669 H 0.47797 0.77519 0.93223
 C670 C 0.42648 0.80287 0.93034
 H671 H 0.42501 0.80724 0.95930
 C672 C 0.43133 0.79079 0.85643
 H673 H 0.43344 0.78584 0.82763
 C674 C 0.40121 0.80881 0.87045
 H675 H 0.38002 0.81779 0.85240
 N676 N 0.45824 0.77943 0.87866
 C677 C 0.53701 0.69812 0.88569
 H678 H 0.51962 0.68075 0.87050
 C679 C 0.56784 0.68343 0.90161
 H680 H 0.57361 0.65483 0.89898
 C681 C 0.55308 0.75685 0.90462
 H682 H 0.54793 0.78566 0.90417
 C683 C 0.58445 0.74324 0.92074
 H684 H 0.60327 0.76154 0.93312
 Zn685 Zn 0.49652 0.75504 0.85466
 N686 N 0.53068 0.73437 0.88665
 C687 C 0.55274 0.77596 0.80734
 N688 N 0.52249 0.78803 0.82494
 C689 C 0.51314 0.82366 0.82455
 C690 C 0.53464 0.84871 0.80602
 C691 C 0.57506 0.80019 0.78849
 C692 C 0.45292 0.69525 0.84518
 C693 C 0.43653 0.66690 0.82715
 C694 C 0.46564 0.68691 0.77156
 C695 C 0.48154 0.71498 0.79067
 N696 N 0.47534 0.71825 0.82693
 H697 H 0.56002 0.74764 0.80882
 H698 H 0.48966 0.83295 0.83950
 H699 H 0.52730 0.87709 0.80635
 H700 H 0.59940 0.79051 0.77506
 H701 H 0.44817 0.69878 0.87392
 H702 H 0.41911 0.64843 0.84201
 H703 H 0.47096 0.68412 0.74279
 H704 H 0.49890 0.73393 0.77657
 C705 C 0.59232 0.70630 0.91831
 C706 C 0.39870 0.81498 0.90768
 C707 C 0.44313 0.66255 0.79008
 C708 C 0.56603 0.83694 0.78814
 C709 C 0.42994 -0.15911 0.35125
 C710 C 0.42101 -0.13193 0.33534
 C711 C 0.92842 0.33949 0.84951
 C712 C 0.91975 0.36677 0.83361
 C713 C 0.05499 1.15784 0.84372
 C714 C 0.06076 1.13011 0.82768
 C715 C 0.55725 0.65684 0.34358
 C716 C 0.56364 0.63036 0.32577
 C717 C 0.55692 0.34646 0.16690
 C718 C 0.56429 0.37610 0.17779
 C719 C 0.05768 0.84536 0.66893
 C720 C 0.06483 0.87491 0.68020
 C721 C 0.93386 0.65627 0.67839
 C722 C 0.92788 0.62669 0.69095
 C723 C 0.43236 0.15612 0.17820
 C724 C 0.42628 0.12676 0.19123
 C725 C 0.35173 0.42960 -0.16142
 C726 C 0.33538 0.42089 -0.13427
 C727 C 0.85180 0.92905 0.33728
 C728 C 0.83590 0.92051 0.36476
 C729 C 0.84510 0.05578 1.15588
 C730 C 0.82740 0.06235 1.12936
 C731 C 0.34506 0.55684 0.65626
 C732 C 0.32723 0.56335 0.62983
 C733 C 0.16798 0.55786 0.34592
 C734 C 0.17906 0.56522 0.37553
 C735 C 0.66909 0.05781 0.84476
 C736 C 0.68008 0.06491 0.87448
 C737 C 0.68019 0.93441 0.65530
 C738 C 0.69293 0.92854 0.62568
 C739 C 0.17848 0.43387 0.15484
 C740 C 0.19120 0.42788 0.12524
 C741 C -0.16101 0.35059 0.42783
 C742 C -0.13391 0.33440 0.41911
 C743 C 0.33978 0.84915 0.93041
 C744 C 0.36722 0.83354 0.92163
 C745 C 1.15835 0.84203 0.05785
 C746 C 1.13162 0.82447 0.06409
 C747 C 0.65515 0.34431 0.55617
 C748 C 0.62871 0.32644 0.56270
 C749 C 0.34370 0.16845 0.55985
 C750 C 0.37352 0.17914 0.56680
 C751 C 0.84558 0.66776 0.05771
 C752 C 0.87532 0.67852 0.06486
 C753 C 0.65677 0.67971 0.93410
 C754 C 0.62726 0.69233 0.92825
 C755 C 0.15352 0.17779 0.43517
 C756 C 0.12419 0.19058 0.42882
 C757 C 0.60589 0.10323 0.73920
 C758 C 0.58911 0.12616 0.72311
 C759 C 1.10512 0.60145 0.23948
 C760 C 1.08856 0.62455 0.22339
 C761 C 0.92328 0.88433 0.23631
 C762 C 0.93838 0.85972 0.22108
 C763 C 0.42367 0.38510 0.73790
 C764 C 0.43853 0.36047 0.72248
 C765 C 0.41376 0.60745 0.75655
 C766 C 0.42717 0.63279 0.77147
 C767 C -0.08738 0.10650 0.25461
 C768 C -0.07405 0.13184 0.26960
 C769 C 0.10685 0.38520 0.25677
 C770 C 0.08810 0.36220 0.27043
 C771 C 0.60824 0.88586 0.75716
 C772 C 0.58940 0.86297 0.77088
 C773 C 0.74034 0.60635 0.10186
 C774 C 0.72402 0.58971 0.12493
 C775 C 0.23515 1.10756 0.60699
 C776 C 0.21900 1.09142 0.63055
 C777 C 0.23837 0.91934 0.88608
 C778 C 0.22267 0.93444 0.86179
 C779 C 0.73702 0.42331 0.38365
 C780 C 0.72165 0.43835 0.35910
 C781 C 0.75547 0.41303 0.60662
 C782 C 0.77045 0.42644 0.63194
 C783 C 0.25647 -0.08965 0.10872
 C784 C 0.27108 -0.07575 0.13400
 C785 C 0.25537 0.10598 0.38769
 C786 C 0.26922 0.08738 0.36468
 C787 C 0.75792 0.60779 0.88529
 C788 C 0.77140 0.58889 0.86232
 C789 C 0.10368 0.73987 0.60603
 C790 C 0.12681 0.72364 0.58952
 C791 C 0.60269 0.23853 1.10448
 C792 C 0.62602 0.22232 1.08822
 C793 C 0.88469 0.23844 0.92147
 C794 C 0.86038 0.22279 0.93679
 C795 C 0.38575 0.73799 0.42328
 C796 C 0.36119 0.72244 0.43827
 C797 C 0.60828 0.75709 0.41194
 C798 C 0.63369 0.77195 0.42528
 C799 C 0.10674 0.25761 -0.09095
 C800 C 0.13205 0.27231 -0.07725
 C801 C 0.38452 0.25700 0.10541
 C802 C 0.36166 0.27055 0.08657
 C803 C 0.88599 0.75798 0.60677
 C804 C 0.86325 0.77163 0.58786
   
