data_POSCAR
  _audit_creation_date              2014-09-24
  _audit_creation_method            'ToBaCCo'
  _symmetry_space_group_name_H-M    'P1'
  _symmetry_Int_Tables_number       1
  _symmetry_cell_setting            triclinic
  loop_
  _symmetry_equiv_pos_as_xyz
 x,y,z
_cell_length_a 40.9490
_cell_length_b 42.1249
_cell_length_c 38.9922
_cell_angle_alpha 91.788400
_cell_angle_beta 90.061700
_cell_angle_gamma 92.652100
loop_
  _atom_site_label
  _atom_site_type_symbol
  _atom_site_fract_x
  _atom_site_fract_y
  _atom_site_fract_z
C1 C 0.27445 0.45580 0.99144
 C2 C 0.25231 0.45360 1.02307
 C3 C 0.23370 0.47944 1.02799
 C4 C 0.23886 0.50507 1.00097
 C5 C 0.25140 0.46118 0.96145
 C6 C 0.23275 0.48693 0.96648
 C7 C 0.29445 0.48714 0.99660
 C8 C 0.27592 0.51284 1.00164
 H9 H 0.25112 0.43337 1.03972
 H10 H 0.22376 0.52612 1.00496
 H11 H 0.24897 0.44529 0.93900
 H12 H 0.32102 0.48875 0.99722
 C13 C 0.72997 0.54862 0.00898
 C14 C 0.75199 0.54341 0.03990
 C15 C 0.76974 0.51685 0.03635
 C16 C 0.76386 0.49788 0.00233
 C17 C 0.75294 0.54910 -0.02204
 C18 C 0.77067 0.52252 -0.02544
 C19 C 0.70902 0.51783 0.00439
 C20 C 0.72663 0.49136 0.00089
 H21 H 0.75443 0.55991 0.06183
 H22 H 0.77821 0.47619 -0.00051
 H23 H 0.75548 0.56887 -0.03923
 H24 H 0.68243 0.51700 0.00401
 C25 C 0.04172 0.22176 0.50406
 C26 C 0.03949 0.24042 0.47348
 C27 C 0.01071 0.25851 0.47259
 C28 C -0.01057 0.25455 0.50229
 C29 C 0.03932 0.24564 0.53442
 C30 C 0.01187 0.26289 0.53342
 C31 C 0.00989 0.20131 0.50507
 C32 C -0.01749 0.21836 0.50415
 H33 H 0.05895 0.24269 0.45465
 H34 H -0.03305 0.26837 0.50164
 H35 H 0.05841 0.24989 0.55362
 H36 H 0.00906 0.17549 0.50564
 C37 C 0.95477 0.77649 0.49488
 C38 C 0.95759 0.75245 0.46476
 C39 C 0.98550 0.73592 0.46565
 C40 C 1.00808 0.74501 0.49633
 C41 C 0.95798 0.75691 0.52714
 C42 C 0.98588 0.74036 0.52778
 C43 C 0.98607 0.79760 0.49376
 C44 C 1.01389 0.78126 0.49450
 H45 H 0.93832 0.74741 0.44592
 H46 H 1.03092 0.73176 0.49695
 H47 H 0.93882 0.75435 0.54624
 H48 H 0.98623 0.82335 0.49233
 C49 C 0.49905 0.05282 0.21627
 C50 C 0.46915 0.05132 0.23998
 C51 C 0.46789 0.02519 0.25990
 C52 C 0.49648 0.00309 0.25429
 C53 C 0.52858 0.05130 0.24037
 C54 C 0.52713 0.02517 0.26030
 C55 C 0.49771 0.02295 0.19668
 C56 C 0.49628 -0.00427 0.21759
 H57 H 0.45110 0.06943 0.24138
 H58 H 0.49535 -0.01816 0.27056
 H59 H 0.54835 0.06940 0.24203
 H60 H 0.49836 0.02126 0.16880
 C61 C 0.49895 -0.05236 0.78244
 C62 C 0.46860 -0.05099 0.75965
 C63 C 0.46926 -0.02522 0.73932
 C64 C 0.50008 -0.00315 0.74350
 C65 C 0.52801 -0.05101 0.75770
 C66 C 0.52852 -0.02521 0.73739
 C67 C 0.50108 -0.02051 0.80253
 C68 C 0.50168 0.00517 0.78212
 H69 H 0.44875 -0.06904 0.75910
 H70 H 0.50052 0.01785 0.72691
 H71 H 0.54634 -0.06884 0.75625
 H72 H 0.50248 -0.01844 0.83035
 C73 C 0.30097 0.02373 0.46364
 H74 H 0.30167 0.04070 0.48508
 C75 C 0.32377 0.02677 0.43731
 H76 H 0.34212 0.04612 0.43875
 C77 C 0.27690 -0.02287 0.43670
 H78 H 0.25896 -0.04247 0.43690
 C79 C 0.29936 -0.02078 0.40981
 H80 H 0.29804 -0.03853 0.38909
 N81 N 0.27797 -0.00060 0.46275
 C82 C 0.20269 0.03564 0.53032
 H83 H 0.20132 0.01737 0.54924
 C84 C 0.18209 0.06111 0.53284
 H85 H 0.16521 0.06249 0.55413
 C86 C 0.22625 0.05572 0.47946
 H87 H 0.24289 0.05314 0.45820
 C88 C 0.20607 0.08156 0.48095
 H89 H 0.20745 0.09857 0.46070
 Zn90 Zn 0.24979 -0.00293 0.50096
 N91 N 0.22429 0.03344 0.50400
 C92 C 0.27818 0.01748 0.56533
 N93 N 0.27708 -0.00526 0.53976
 C94 C 0.29762 -0.02969 0.53954
 C95 C 0.32026 -0.03217 0.56592
 C96 C 0.30058 0.01598 0.59225
 C97 C 0.19951 -0.04099 0.47022
 C98 C 0.17622 -0.06617 0.46698
 C99 C 0.19666 -0.08707 0.51943
 C100 C 0.21967 -0.06153 0.52158
 N101 N 0.22068 -0.03914 0.49715
 H102 H 0.26219 0.03714 0.56460
 H103 H 0.29669 -0.04703 0.51845
 H104 H 0.33680 -0.05150 0.56489
 H105 H 0.30113 0.03421 0.61246
 H106 H 0.20056 -0.02265 0.45138
 H107 H 0.15973 -0.06724 0.44521
 H108 H 0.19565 -0.10410 0.53967
 H109 H 0.23612 -0.05923 0.54328
 C110 C 0.18343 0.08441 0.50779
 C111 C 0.32315 0.00435 0.40991
 C112 C 0.17431 -0.08949 0.49200
 C113 C 0.32206 -0.00907 0.59267
 C114 C 0.69975 0.02407 0.54141
 H115 H 0.69994 0.04331 0.52366
 C116 C 0.67681 0.02291 0.56788
 H117 H 0.65937 0.04140 0.57031
 C118 C 0.72093 -0.02449 0.55829
 H119 H 0.73753 -0.04337 0.55397
 C120 C 0.69844 -0.02658 0.58507
 H121 H 0.69859 -0.04675 0.60160
 N122 N 0.72109 0.00050 0.53701
 C123 C 0.79881 0.03931 0.47204
 H124 H 0.79792 0.02126 0.45166
 C125 C 0.82197 0.06458 0.47108
 H126 H 0.83860 0.06596 0.44955
 C127 C 0.77793 0.05923 0.52471
 H128 H 0.76104 0.05673 0.54582
 C129 C 0.80087 0.08490 0.52486
 H130 H 0.80152 0.10185 0.54632
 Zn131 Zn 0.74788 0.00111 0.49757
 N132 N 0.77730 0.03714 0.49847
 C133 C 0.72115 0.02681 0.43782
 N134 N 0.71938 0.00209 0.45947
 C135 C 0.69537 -0.02121 0.45622
 C136 C 0.67185 -0.02024 0.43037
 C137 C 0.69815 0.02872 0.41164
 C138 C 0.79583 -0.03815 0.52032
 C139 C 0.81549 -0.06432 0.52042
 C140 C 0.78869 -0.08432 0.46837
 C141 C 0.76944 -0.05773 0.46932
 N142 N 0.77312 -0.03548 0.49525
 H143 H 0.73988 0.04552 0.44126
 H144 H 0.69411 -0.04022 0.47428
 H145 H 0.65247 -0.03860 0.42873
 H146 H 0.69998 0.04859 0.39467
 H147 H 0.79860 -0.01983 0.54032
 H148 H 0.83364 -0.06577 0.54045
 H149 H 0.78519 -0.10197 0.44776
 H150 H 0.75169 -0.05491 0.44926
 C151 C 0.82346 0.08769 0.49788
 C152 C 0.67565 -0.00293 0.58982
 C153 C 0.81202 -0.08792 0.49425
 C154 C 0.67287 0.00518 0.40788
 C155 C 0.48402 0.21094 1.01665
 H156 H 0.46651 0.20763 0.99590
 C157 C 0.48227 0.19093 1.04445
 H158 H 0.46344 0.17203 1.04478
 C159 C 0.53072 0.23883 1.04046
 H160 H 0.54990 0.25715 1.03851
 C161 C 0.52992 0.21927 1.06876
 H162 H 0.54823 0.22314 1.08869
 N163 N 0.50780 0.23445 1.01527
 C164 C 0.46610 0.30048 0.94550
 H165 H 0.48425 0.30104 0.92536
 C166 C 0.43917 0.31956 0.94380
 H167 H 0.43653 0.33447 0.92194
 C168 C 0.44794 0.28075 0.99879
 H169 H 0.45191 0.26637 1.02072
 C170 C 0.42073 0.29946 0.99816
 H171 H 0.40408 0.29918 1.01971
 Zn172 Zn 0.50867 0.25891 0.97551
 N173 N 0.46999 0.28160 0.97273
 C174 C 0.48775 0.22470 0.91467
 N175 N 0.51220 0.22977 0.93812
 C176 C 0.53847 0.21122 0.93824
 C177 C 0.54060 0.18592 0.91457
 C178 C 0.48879 0.19946 0.89062
 C179 C 0.54361 0.31158 1.00290
 C180 C 0.56858 0.33509 1.00610
 C181 C 0.59458 0.31206 0.95621
 C182 C 0.56901 0.28889 0.95396
 N183 N 0.54433 0.28899 0.97731
 H184 H 0.46665 0.23917 0.91564
 H185 H 0.55725 0.21544 0.95760
 H186 H 0.56155 0.17120 0.91543
 H187 H 0.46838 0.19485 0.87322
 H188 H 0.52353 0.31122 1.02091
 H189 H 0.56770 0.35262 1.02695
 H190 H 0.61379 0.31199 0.93716
 H191 H 0.56875 0.27116 0.93334
 C192 C 0.41622 0.31947 0.97058
 C193 C 0.50546 0.19494 1.07095
 C194 C 0.59445 0.33565 0.98247
 C195 C 0.51513 0.17923 0.89092
 C196 C 0.46848 0.78609 -0.02056
 H197 H 0.44970 0.78764 -0.00116
 C198 C 0.46820 0.80579 -0.04862
 H199 H 0.44914 0.82263 -0.05054
 C200 C 0.51725 0.76350 -0.04029
 H201 H 0.53677 0.74760 -0.03653
 C202 C 0.51793 0.78282 -0.06876
 H203 H 0.53768 0.78103 -0.08706
 N204 N 0.49274 0.76548 -0.01690
 C205 C 0.45015 0.69801 0.05496
 H206 H 0.46745 0.70068 0.07596
 C207 C 0.42364 0.67603 0.05676
 H208 H 0.42048 0.66217 0.07953
 C209 C 0.43374 0.71254 -0.00046
 H210 H 0.43825 0.72613 -0.02314
 C211 C 0.40705 0.69073 0.00017
 H212 H 0.39142 0.68780 -0.02223
 Zn213 Zn 0.49280 0.74266 0.02405
 N214 N 0.45471 0.71568 0.02664
 C215 C 0.47052 0.77658 0.08367
 N216 N 0.49470 0.77369 0.06003
 C217 C 0.52037 0.79525 0.05892
 C218 C 0.52238 0.82118 0.08197
 C219 C 0.47149 0.80235 0.10722
 C220 C 0.53165 0.69396 0.00045
 C221 C 0.55884 0.67521 -0.00122
 C222 C 0.58070 0.70355 0.04918
 C223 C 0.55309 0.72184 0.04982
 N224 N 0.52958 0.71716 0.02526
 H225 H 0.44989 0.75965 0.08351
 H226 H 0.53896 0.79262 0.03947
 H227 H 0.54300 0.83812 0.08049
 H228 H 0.45149 0.80497 0.12507
 H229 H 0.51232 0.69040 -0.01841
 H230 H 0.56006 0.65691 -0.02124
 H231 H 0.59951 0.70806 0.06847
 H232 H 0.55066 0.73988 0.06982
 C233 C 0.40189 0.67183 0.02888
 C234 C 0.49334 0.80452 -0.07302
 C235 C 0.58400 0.68013 0.02315
 C236 C 0.49740 0.82536 0.10610
 C237 C 1.04274 0.46289 0.20675
 H238 H 1.02333 0.44456 0.20587
 C239 C 1.06837 0.46171 0.18330
 H240 H 1.06840 0.44237 0.16434
 C241 C 1.06507 0.51121 0.23152
 H242 H 1.06332 0.53076 0.24991
 C243 C 1.09118 0.51102 0.20840
 H244 H 1.10970 0.53020 0.20971
 N245 N 1.04156 0.48729 0.23031
 C246 C 0.97623 0.44863 0.30897
 H247 H 0.95734 0.46577 0.30929
 C248 C 0.97462 0.42354 0.33166
 H249 H 0.95409 0.42127 0.34902
 C250 C 1.02608 0.43108 0.28613
 H251 H 1.04656 0.43449 0.26900
 C252 C 1.02542 0.40566 0.30830
 H253 H 1.04549 0.38979 0.30786
 Zn254 Zn 1.00377 0.48769 0.25828
 N255 N 1.00162 0.45187 0.28670
 C256 C 0.94261 0.46511 0.22781
 N257 N 0.96778 0.48736 0.22770
 C258 C 0.96901 0.51077 0.20445
 C259 C 0.94382 0.51315 0.18078
 C260 C 0.91680 0.46657 0.20440
 C261 C 1.02786 0.53008 0.31106
 C262 C 1.02755 0.55654 0.33365
 C263 C 0.97747 0.57147 0.30705
 C264 C 0.97875 0.54483 0.28502
 N265 N 1.00377 0.52483 0.28721
 H266 H 0.94241 0.44633 0.24607
 H267 H 0.98962 0.52780 0.20456
 H268 H 0.94539 0.53199 0.16250
 H269 H 0.89660 0.44909 0.20521
 H270 H 1.04715 0.51349 0.31272
 H271 H 1.04667 0.56010 0.35276
 H272 H 0.95746 0.58718 0.30459
 H273 H 0.95939 0.53999 0.26653
 C274 C 0.99950 0.40166 0.33158
 C275 C 1.09298 0.48606 0.18378
 C276 C 1.00196 0.57756 0.33193
 C277 C 0.91708 0.49108 0.18072
 C278 C -0.03987 0.48676 0.79573
 H279 H -0.02192 0.46872 0.79607
 C280 C -0.06492 0.48669 0.82001
 H281 H -0.06598 0.46852 0.83906
 C282 C -0.05903 0.53335 0.77154
 H283 H -0.05629 0.55186 0.75308
 C284 C -0.08445 0.53421 0.79537
 H285 H -0.10146 0.55309 0.79444
 N286 N -0.03738 0.50985 0.77214
 C287 C 0.02216 0.47145 0.68939
 H288 H 0.04074 0.49048 0.68804
 C289 C 0.02311 0.44516 0.66681
 H290 H 0.04243 0.44427 0.64792
 C291 C -0.02604 0.45011 0.71521
 H292 H -0.04530 0.45227 0.73392
 C293 C -0.02607 0.42336 0.69304
 H294 H -0.04512 0.40487 0.69537
 Zn295 Zn -0.00065 0.51001 0.74267
 N296 N -0.00187 0.47326 0.71330
 C297 C 0.05749 0.48641 0.76967
 N298 N 0.03683 0.51078 0.77133
 C299 C 0.04065 0.53453 0.79565
 C300 C 0.06590 0.53421 0.81979
 C301 C 0.08301 0.48515 0.79326
 C302 C -0.02462 0.54631 0.69070
 C303 C -0.02538 0.57093 0.66765
 C304 C 0.02443 0.59387 0.69317
 C305 C 0.02427 0.56870 0.71576
 N306 N -0.00015 0.54566 0.71422
 H307 H 0.05371 0.46737 0.75071
 H308 H 0.02346 0.55328 0.79687
 H309 H 0.06797 0.55284 0.83954
 H310 H 0.09907 0.46546 0.79156
 H311 H -0.04353 0.52749 0.68981
 H312 H -0.04531 0.57114 0.64941
 H313 H 0.04427 0.61177 0.69442
 H314 H 0.04388 0.56739 0.73413
 C315 C -0.00109 0.42053 0.66860
 C316 C -0.08748 0.51082 0.82024
 C317 C -0.00056 0.59511 0.66857
 C318 C 0.08720 0.50899 0.81909
 C319 C 0.11559 0.15943 0.50797
 C320 C 0.14822 0.16579 0.49878
 C321 C 0.17050 0.14155 0.49916
 C322 C 0.07027 0.20197 0.50518
 C323 C 0.12757 0.10470 0.51822
 C324 C 0.10542 0.12890 0.51784
 C325 C 0.09188 0.18353 0.50637
 C326 C 0.16036 0.11066 0.50872
 H327 H 0.15635 0.18934 0.49108
 H328 H 0.19564 0.14698 0.49205
 H329 H 0.11880 0.08112 0.52512
 H330 H 0.08017 0.12366 0.52479
 C331 C 0.66657 0.62090 0.01760
 C332 C 0.65396 0.63325 -0.01229
 C333 C 0.62755 0.65306 -0.01041
 C334 C 0.70968 0.57629 0.01257
 C335 C 0.62673 0.64888 0.05146
 C336 C 0.65314 0.62901 0.04950
 C337 C 0.69092 0.59744 0.01512
 C338 C 0.61331 0.66070 0.02144
 H339 H 0.66402 0.62693 -0.03714
 H340 H 0.61807 0.66219 -0.03390
 H341 H 0.61609 0.65408 0.07630
 H342 H 0.66245 0.61925 0.07276
 C343 C 0.87741 -0.16494 0.49320
 C344 C 0.86883 -0.15116 0.46245
 C345 C 0.84686 -0.12670 0.46261
 C346 C 0.92551 -0.20469 0.49408
 C347 C 0.84138 -0.13021 0.52427
 C348 C 0.86333 -0.15467 0.52404
 C349 C 0.90287 -0.18738 0.49356
 C350 C 0.83330 -0.11557 0.49363
 H351 H 0.87987 -0.15867 0.43847
 H352 H 0.84144 -0.11571 0.43866
 H353 H 0.83100 -0.12249 0.54849
 H354 H 0.86992 -0.16503 0.54803
 C355 C 0.33883 0.38493 0.97642
 C356 C 0.36928 0.39442 0.96301
 C357 C 0.39414 0.37289 0.96026
 C358 C 0.29544 0.42884 0.98597
 C359 C 0.35791 0.33193 0.98367
 C360 C 0.33305 0.35356 0.98643
 C361 C 0.31443 0.40810 0.98149
 C362 C 0.38889 0.34148 0.97094
 H363 H 0.37408 0.41871 0.95541
 H364 H 0.41781 0.38118 0.95090
 H365 H 0.35300 0.30782 0.99174
 H366 H 0.30956 0.34598 0.99688
 C367 C 0.89946 0.16183 0.49974
 C368 C 0.90590 0.13106 0.48795
 C369 C 0.88117 0.10716 0.48725
 C370 C 0.95071 0.20222 0.50295
 C371 C 0.84301 0.14470 0.50999
 C372 C 0.86795 0.16869 0.51073
 C373 C 0.92614 0.18531 0.50168
 C374 C 0.84940 0.11362 0.49826
 H375 H 0.93028 0.12538 0.47973
 H376 H 0.88716 0.08342 0.47876
 H377 H 0.81874 0.15049 0.51838
 H378 H 0.86272 0.19241 0.52007
 C379 C 0.32852 0.59554 0.02195
 C380 C 0.32187 0.62528 0.00928
 C381 C 0.34521 0.65057 0.01265
 C382 C 0.29114 0.54379 0.00907
 C383 C 0.38148 0.61652 0.04206
 C384 C 0.35813 0.59140 0.03879
 C385 C 0.30681 0.56824 0.01514
 C386 C 0.37556 0.64629 0.02852
 H387 H 0.29909 0.62871 -0.00395
 H388 H 0.33973 0.67329 0.00233
 H389 H 0.40472 0.61216 0.05387
 H390 H 0.36368 0.56838 0.04836
 C391 C 0.09703 -0.16234 0.49041
 C392 C 0.09112 -0.13169 0.47988
 C393 C 0.11634 -0.10825 0.47994
 C394 C 0.04539 -0.20213 0.49325
 C395 C 0.15392 -0.14614 0.50067
 C396 C 0.12852 -0.16963 0.50065
 C397 C 0.06997 -0.18530 0.49202
 C398 C 0.14803 -0.11509 0.49051
 H399 H 0.06678 -0.12570 0.47219
 H400 H 0.11075 -0.08452 0.47261
 H401 H 0.17811 -0.15225 0.50864
 H402 H 0.13335 -0.19326 0.50895
 C403 C 0.66899 0.41073 0.99029
 C404 C 0.67771 0.37968 0.98198
 C405 C 0.65349 0.35510 0.97916
 C406 C 0.71019 0.46056 0.99659
 C407 C 0.61204 0.39275 0.99278
 C408 C 0.63614 0.41715 0.99555
 C409 C 0.69297 0.43669 0.99341
 C410 C 0.62039 0.36141 0.98475
 H411 H 0.70308 0.37449 0.97781
 H412 H 0.66065 0.33114 0.97315
 H413 H 0.58677 0.39850 0.99659
 H414 H 0.62911 0.44114 1.00176
 C415 C 0.50287 0.12774 1.15145
 C416 C 0.53286 0.13837 1.13781
 C417 C 0.53382 0.16092 1.11226
 C418 C 0.50051 0.08050 1.19440
 C419 C 0.47476 0.16273 1.11447
 C420 C 0.47387 0.14021 1.14003
 C421 C 0.50165 0.10248 1.17537
 C422 C 0.50472 0.17298 1.09995
 H423 H 0.55543 0.12865 1.14632
 H424 H 0.55720 0.16805 1.10128
 H425 H 0.45200 0.17191 1.10581
 H426 H 0.45052 0.13207 1.15039
 C427 C -0.00314 0.67060 0.59686
 C428 C -0.01103 0.63918 0.58611
 C429 C -0.00982 0.61464 0.60932
 C430 C -0.00916 0.71642 0.55267
 C431 C 0.00765 0.65279 0.65421
 C432 C 0.00637 0.67734 0.63091
 C433 C -0.00593 0.69582 0.57306
 C434 C -0.00072 0.62117 0.64373
 H435 H -0.01838 0.63366 0.55981
 H436 H -0.01590 0.59052 0.60030
 H437 H 0.01444 0.65862 0.68058
 H438 H 0.01239 0.70160 0.63957
 C439 C 0.49688 0.87300 -0.15232
 C440 C 0.46710 0.85765 -0.14382
 C441 C 0.46600 0.83473 -0.11864
 C442 C 0.49827 0.92026 -0.19529
 C443 C 0.52467 0.84200 -0.11095
 C444 C 0.52569 0.86491 -0.13611
 C445 C 0.49765 0.89835 -0.17616
 C446 C 0.49473 0.82695 -0.10161
 H447 H 0.44465 0.86379 -0.15620
 H448 H 0.44267 0.82328 -0.11227
 H449 H 0.54712 0.83687 -0.09797
 H450 H 0.54884 0.87683 -0.14236
 C451 C 1.00121 0.32635 0.40369
 C452 C 1.01046 0.32080 0.36957
 C453 C 1.00941 0.34509 0.34599
 C454 C 1.00676 0.28136 0.44902
 C455 C 0.98934 0.38055 0.39048
 C456 C 0.99045 0.35622 0.41403
 C457 C 1.00387 0.30176 0.42832
 C458 C 0.99908 0.37536 0.35622
 H459 H 1.01882 0.29778 0.36125
 H460 H 1.01665 0.34019 0.31973
 H461 H 0.98170 0.40367 0.39932
 H462 H 0.98338 0.36085 0.44042
 C463 C 0.49704 0.91085 0.16908
 C464 C 0.50690 0.91193 0.13482
 C465 C 0.50711 0.88411 0.11455
 C466 C 0.49619 0.96573 0.20350
 C467 C 0.48756 0.85369 0.16278
 C468 C 0.48737 0.88170 0.18312
 C469 C 0.49637 0.94009 0.18899
 C470 C 0.49750 0.85464 0.12826
 H471 H 0.51419 0.93440 0.12365
 H472 H 0.51422 0.88578 0.08790
 H473 H 0.48021 0.83132 0.17407
 H474 H 0.47961 0.88065 0.20962
 C475 C 0.00259 0.33867 0.60010
 C476 C -0.02748 0.35167 0.60784
 C477 C -0.02881 0.37817 0.63030
 C478 C 0.00712 0.28936 0.55693
 C479 C 0.03002 0.37862 0.63740
 C480 C 0.03128 0.35215 0.61502
 C481 C 0.00440 0.31174 0.57661
 C482 C -0.00002 0.39205 0.64521
 H483 H -0.04983 0.34147 0.59636
 H484 H -0.05225 0.38815 0.63552
 H485 H 0.05255 0.38840 0.64884
 H486 H 0.05468 0.34224 0.60930
 C487 C 0.51084 0.09281 0.82920
 C488 C 0.50073 0.12100 0.81528
 C489 C 0.50268 0.14939 0.83501
 C490 C 0.50471 0.03710 0.79634
 C491 C 0.52516 0.12137 0.88232
 C492 C 0.52324 0.09315 0.86262
 C493 C 0.50743 0.06303 0.81024
 C494 C 0.51475 0.14982 0.86886
 H495 H 0.49103 0.12095 0.78943
 H496 H 0.49469 0.17094 0.82386
 H497 H 0.53390 0.12067 0.90849
 H498 H 0.53088 0.07142 0.87373
 C499 C 0.99630 0.65878 0.40112
 C500 C 1.02658 0.65047 0.38776
 C501 C 1.02859 0.62389 0.36549
 C502 C 0.99056 0.70906 0.44273
 C503 C 0.97004 0.61379 0.37010
 C504 C 0.96811 0.64028 0.39233
 C505 C 0.99378 0.68627 0.42373
 C506 C 1.00027 0.60536 0.35623
 H507 H 1.04858 0.66463 0.39438
 H508 H 1.05216 0.61819 0.35501
 H509 H 0.94788 0.59973 0.36398
 H510 H 0.94456 0.64637 0.40264
 C511 C 1.16756 0.48442 0.10619
 C512 C 1.15753 0.45643 0.12235
 C513 C 1.13376 0.45707 0.14804
 C514 C 1.21056 0.48183 0.05568
 C515 C 1.13030 0.51390 0.14197
 C516 C 1.15407 0.51319 0.11622
 C517 C 1.19108 0.48332 0.07879
 C518 C 1.11964 0.48577 0.15794
 H519 H 1.16786 0.43403 0.11487
 H520 H 1.12640 0.43509 0.16014
 H521 H 1.11962 0.53628 0.14870
 H522 H 1.16159 0.53499 0.10382
 C523 C 0.60008 -0.01230 0.66574
 C524 C 0.60950 -0.03893 0.64656
 C525 C 0.63419 -0.03587 0.62205
 C526 C 0.55356 -0.01968 0.71211
 C527 C 0.64021 0.02062 0.63579
 C528 C 0.61548 0.01749 0.66036
 C529 C 0.57471 -0.01584 0.69099
 C530 C 0.64986 -0.00607 0.61639
 H531 H 0.59768 -0.06208 0.65046
 H532 H 0.64063 -0.05676 0.60712
 H533 H 0.65201 0.04381 0.63222
 H534 H 0.60842 0.03824 0.67517
 C535 C -0.16092 0.51503 0.89889
 C536 C -0.14475 0.54293 0.88807
 C537 C -0.12109 0.54157 0.86233
 C538 C -0.20527 0.51890 0.94795
 C539 C -0.12972 0.48428 0.85798
 C540 C -0.15342 0.48570 0.88374
 C541 C -0.18510 0.51671 0.92559
 C542 C -0.11324 0.51222 0.84700
 H543 H -0.15030 0.56575 0.89968
 H544 H -0.10851 0.56345 0.85489
 H545 H -0.12448 0.46136 0.84644
 H546 H -0.16586 0.46396 0.89185
 C547 C 0.39597 0.01280 0.33115
 C548 C 0.38675 -0.01716 0.34344
 C549 C 0.36267 -0.02006 0.36871
 C550 C 0.44260 0.01983 0.28490
 C551 C 0.35678 0.03697 0.36912
 C552 C 0.38080 0.03979 0.34388
 C553 C 0.42133 0.01615 0.30590
 C554 C 0.34762 0.00704 0.38201
 H555 H 0.39842 -0.03819 0.33379
 H556 H 0.35638 -0.04335 0.37841
 H557 H 0.34531 0.05819 0.37852
 H558 H 0.38769 0.06308 0.33443
 C559 C 0.16099 0.50166 0.89675
 C560 C 0.14262 0.47464 0.88507
 C561 C 0.11866 0.47711 0.85991
 C562 C 0.20742 0.49405 0.94258
 C563 C 0.13109 0.53384 0.85804
 C564 C 0.15516 0.53130 0.88325
 C565 C 0.18625 0.49838 0.92195
 C566 C 0.11270 0.50670 0.84594
 H567 H 0.14688 0.45159 0.89536
 H568 H 0.10454 0.45587 0.85165
 H569 H 0.12724 0.55690 0.84761
 H570 H 0.16934 0.55235 0.89200
 C571 C 0.59758 0.01318 0.33219
 C572 C 0.61006 -0.01651 0.33825
 C573 C 0.63463 -0.01920 0.36281
 C574 C 0.55169 0.01984 0.28564
 C575 C 0.63425 0.03753 0.37522
 C576 C 0.60972 0.04015 0.35072
 C577 C 0.57250 0.01629 0.30684
 C578 C 0.64704 0.00783 0.38153
 H579 H 0.60089 -0.03753 0.32395
 H580 H 0.64420 -0.04233 0.36688
 H581 H 0.64287 0.05869 0.38960
 H582 H 0.60015 0.06324 0.34628
 C583 C 0.83966 0.50063 0.10765
 C584 C 0.85364 0.52745 0.12505
 C585 C 0.87843 0.52421 0.14911
 C586 C 0.79414 0.50945 0.06116
 C587 C 0.87516 0.46709 0.13896
 C588 C 0.85031 0.47040 0.11478
 C589 C 0.81476 0.50463 0.08225
 C590 C 0.88971 0.49404 0.15615
 H591 H 0.84549 0.55094 0.11987
 H592 H 0.88874 0.54536 0.16232
 H593 H 0.88351 0.44360 0.14363
 H594 H 0.83966 0.44948 0.10143
 C595 C 0.39622 -0.01477 0.66993
 C596 C 0.37832 -0.04219 0.65857
 C597 C 0.35382 -0.04025 0.63389
 C598 C 0.44372 -0.02034 0.71493
 C599 C 0.36463 0.01675 0.63221
 C600 C 0.38920 0.01474 0.65689
 C601 C 0.42211 -0.01727 0.69449
 C602 C 0.34687 -0.01079 0.62022
 H603 H 0.38349 -0.06514 0.66859
 H604 H 0.34028 -0.06180 0.62551
 H605 H 0.36011 0.03970 0.62186
 H606 H 0.40297 0.03611 0.66548
   
