data_POSCAR
  _audit_creation_date              2014-09-24
  _audit_creation_method            'ToBaCCo'
  _symmetry_space_group_name_H-M    'P1'
  _symmetry_Int_Tables_number       1
  _symmetry_cell_setting            triclinic
  loop_
  _symmetry_equiv_pos_as_xyz
 x,y,z
_cell_length_a 49.4946
_cell_length_b 48.8382
_cell_length_c 49.0609
_cell_angle_alpha 87.672800
_cell_angle_beta 89.964100
_cell_angle_gamma 87.205400
loop_
  _atom_site_label
  _atom_site_type_symbol
  _atom_site_fract_x
  _atom_site_fract_y
  _atom_site_fract_z
C1 C 0.20994 0.53126 1.03435
 H2 H 0.21069 0.54846 1.01980
 C3 C 0.19064 0.53160 1.05505
 H4 H 0.17774 0.54997 1.05650
 C5 C 0.22696 0.48723 1.04965
 H6 H 0.24058 0.46960 1.04687
 C7 C 0.20788 0.48660 1.07069
 H8 H 0.20736 0.46799 1.08331
 N9 N 0.22744 0.50925 1.03188
 C10 C 0.28907 0.54195 0.97797
 H11 H 0.28761 0.52828 0.96128
 C12 C 0.30880 0.56141 0.97751
 H13 H 0.32211 0.56294 0.96006
 C14 C 0.27384 0.55587 1.02131
 H15 H 0.26079 0.55300 1.03874
 C16 C 0.29337 0.57558 1.02173
 H17 H 0.29502 0.58777 1.03955
 Zn18 Zn 0.24948 0.50944 1.00042
 N19 N 0.27222 0.53942 0.99971
 C20 C 0.22407 0.53288 0.95181
 N21 N 0.22553 0.51138 0.97037
 C22 C 0.20815 0.49075 0.96948
 C23 C 0.18825 0.49116 0.94938
 C24 C 0.20432 0.53416 0.93133
 C25 C 0.29094 0.47297 1.01995
 C26 C 0.31084 0.45178 1.01862
 C27 C 0.29243 0.44005 0.97525
 C28 C 0.27282 0.46139 0.97747
 N29 N 0.27258 0.47748 0.99947
 H30 H 0.23767 0.54940 0.95329
 H31 H 0.20960 0.47408 0.98470
 H32 H 0.17476 0.47439 0.94902
 H33 H 0.20295 0.55175 0.91715
 H34 H 0.29067 0.48647 1.03691
 H35 H 0.32585 0.44914 1.03467
 H36 H 0.29258 0.42774 0.95739
 H37 H 0.25851 0.46571 0.96106
 C38 C 0.31150 0.57820 0.99983
 C39 C 0.18869 0.50877 1.07346
 C40 C 0.31205 0.43533 0.99579
 C41 C 0.18587 0.51325 0.93016
 C42 C 0.79412 0.51267 -0.03194
 H43 H 0.79265 0.52720 -0.01587
 C44 C 0.81354 0.51549 -0.05229
 H45 H 0.82655 0.53266 -0.05197
 C46 C 0.77875 0.47270 -0.05156
 H47 H 0.76558 0.45568 -0.05075
 C48 C 0.79816 0.47457 -0.07222
 H49 H 0.79967 0.45887 -0.08717
 N50 N 0.77718 0.49162 -0.03194
 C51 C 0.71343 0.52260 0.02160
 H52 H 0.71407 0.50662 0.03754
 C53 C 0.69383 0.54414 0.02230
 H54 H 0.67939 0.54454 0.03888
 C55 C 0.73028 0.54029 -0.02043
 H56 H 0.74390 0.53827 -0.03751
 C57 C 0.71097 0.56210 -0.02058
 H58 H 0.71040 0.57702 -0.03754
 Zn59 Zn 0.75375 0.48882 -0.00163
 N60 N 0.73102 0.52097 0.00036
 C61 C 0.77813 0.50278 0.04843
 N62 N 0.77644 0.48356 0.02927
 C63 C 0.79348 0.46088 0.02963
 C64 C 0.81360 0.45705 0.04946
 C65 C 0.79813 0.49983 0.06862
 C66 C 0.71396 0.46025 -0.02662
 C67 C 0.69434 0.44090 -0.02885
 C68 C 0.70951 0.41991 0.01425
 C69 C 0.72896 0.43963 0.01559
 N70 N 0.73069 0.45936 -0.00463
 H71 H 0.76484 0.52102 0.04733
 H72 H 0.79193 0.44615 0.01389
 H73 H 0.82711 0.43895 0.04915
 H74 H 0.79996 0.51591 0.08297
 H75 H 0.71551 0.47643 -0.04219
 H76 H 0.68123 0.44204 -0.04656
 H77 H 0.70781 0.40499 0.03101
 H78 H 0.74193 0.43975 0.03329
 C79 C 0.69210 0.56395 0.00073
 C80 C 0.81609 0.49606 -0.07260
 C81 C 0.69159 0.42063 -0.00801
 C82 C 0.81659 0.47700 0.06893
 C83 C -0.03859 0.27721 0.46589
 H84 H -0.05509 0.26353 0.46697
 C85 C -0.03788 0.29720 0.44470
 H86 H -0.05437 0.29843 0.43021
 C87 C 0.00118 0.29319 0.48517
 H88 H 0.01630 0.29150 0.50114
 C89 C 0.00270 0.31347 0.46448
 H90 H 0.01990 0.32627 0.46467
 N91 N -0.01913 0.27551 0.48549
 C92 C -0.06756 0.22591 0.53536
 H93 H -0.06556 0.23835 0.55289
 C94 C -0.08775 0.20688 0.53495
 H95 H -0.10150 0.20511 0.55203
 C96 C -0.05132 0.21196 0.49236
 H97 H -0.03650 0.21355 0.47623
 C98 C -0.07139 0.19299 0.49094
 H99 H -0.07192 0.18001 0.47359
 Zn100 Zn -0.01983 0.25039 0.51583
 N101 N -0.04980 0.22798 0.51428
 C102 C -0.04212 0.29049 0.54927
 N103 N -0.02111 0.27170 0.54716
 C104 C -0.00008 0.27059 0.56506
 C105 C 0.00070 0.28942 0.58568
 C106 C -0.04218 0.30968 0.56961
 C107 C 0.03054 0.22786 0.49654
 C108 C 0.05264 0.20894 0.49680
 C109 C 0.03501 0.18759 0.53795
 C110 C 0.01329 0.20691 0.53691
 N111 N 0.01146 0.22655 0.51646
 H112 H -0.05829 0.29126 0.53439
 H113 H 0.01672 0.25593 0.56270
 H114 H 0.01788 0.28862 0.59938
 H115 H -0.05851 0.32522 0.57020
 H116 H 0.02837 0.24316 0.48006
 H117 H 0.06729 0.20990 0.48044
 H118 H 0.03613 0.17219 0.55447
 H119 H -0.00234 0.20616 0.55230
 C120 C -0.08970 0.19003 0.51258
 C121 C -0.01713 0.31612 0.44370
 C122 C 0.05496 0.18831 0.51759
 C123 C -0.02025 0.30969 0.58776
 C124 C 1.00189 0.72557 0.53283
 H125 H 0.98385 0.73895 0.53183
 C126 C 1.00463 0.70526 0.55367
 H127 H 0.98861 0.70333 0.56855
 C128 C 1.04353 0.71033 0.51340
 H129 H 1.05831 0.71213 0.49725
 C130 C 1.04709 0.68976 0.53385
 H131 H 1.06496 0.67608 0.53354
 N132 N 1.02114 0.72759 0.51314
 C133 C 0.96443 0.77612 0.46653
 H134 H 0.96584 0.76326 0.44913
 C135 C 0.94275 0.79541 0.46849
 H136 H 0.92761 0.79710 0.45252
 C137 C 0.98350 0.79106 0.50731
 H138 H 0.99979 0.78956 0.52206
 C139 C 0.96219 0.81046 0.51015
 H140 H 0.96199 0.82340 0.52756
 Zn141 Zn 1.01609 0.75179 0.48230
 N142 N 0.98429 0.77442 0.48577
 C143 C 0.99394 0.71199 0.45108
 N144 N 1.01436 0.72958 0.45176
 C145 C 1.03445 0.72907 0.43282
 C146 C 1.03470 0.70994 0.41239
 C147 C 0.99325 0.69274 0.43087
 C148 C 1.06425 0.77719 0.49780
 C149 C 1.08276 0.79794 0.49592
 C150 C 1.06097 0.81502 0.45412
 C151 C 1.04289 0.79410 0.45685
 N152 N 1.04465 0.77589 0.47853
 H153 H 0.97860 0.71241 0.46680
 H154 H 1.05089 0.74272 0.43413
 H155 H 1.05111 0.70940 0.39779
 H156 H 0.97728 0.67835 0.43117
 H157 H 1.06486 0.76292 0.51523
 H158 H 1.09751 0.79939 0.51202
 H159 H 1.05901 0.82946 0.43681
 H160 H 1.02685 0.79278 0.44205
 C161 C 0.94164 0.81318 0.49035
 C162 C 1.02725 0.68672 0.55409
 C163 C 1.08086 0.81755 0.47414
 C164 C 1.01409 0.69123 0.41148
 C165 C 0.45199 -0.01980 0.27680
 H166 H 0.45266 -0.03658 0.26309
 C167 C 0.43115 -0.01766 0.29592
 H168 H 0.41597 -0.03290 0.29664
 C169 C 0.47205 0.01911 0.29388
 H170 H 0.48839 0.03305 0.29321
 C171 C 0.45155 0.02211 0.31322
 H172 H 0.45202 0.03881 0.32703
 N173 N 0.47192 -0.00158 0.27618
 C174 C 0.51498 -0.05741 0.22848
 H175 H 0.53195 -0.05961 0.24237
 C176 C 0.51187 -0.07684 0.20864
 H177 H 0.52707 -0.09343 0.20773
 C178 C 0.47640 -0.03152 0.21184
 H179 H 0.46278 -0.01361 0.21314
 C180 C 0.47250 -0.05030 0.19178
 H181 H 0.45496 -0.04676 0.17878
 Zn182 Zn 0.50210 -0.00600 0.25288
 N183 N 0.49745 -0.03519 0.22951
 C184 C 0.53275 -0.03426 0.29378
 N185 N 0.53275 -0.01246 0.27564
 C186 C 0.55259 0.00584 0.27591
 C187 C 0.57328 0.00281 0.29530
 C188 C 0.55304 -0.03806 0.31354
 C189 C 0.48747 0.04717 0.22942
 C190 C 0.48942 0.06871 0.20997
 C191 C 0.52942 0.04555 0.19200
 C192 C 0.52666 0.02447 0.21167
 N193 N 0.50590 0.02556 0.22981
 H194 H 0.51648 -0.04825 0.29339
 H195 H 0.55182 0.02348 0.26189
 H196 H 0.58827 0.01820 0.29583
 H197 H 0.55250 -0.05536 0.32801
 H198 H 0.47068 0.04729 0.24350
 H199 H 0.47403 0.08526 0.20936
 H200 H 0.54609 0.04420 0.17774
 H201 H 0.54078 0.00683 0.21219
 C202 C 0.49070 -0.07326 0.18927
 C203 C 0.43090 0.00334 0.31468
 C204 C 0.51038 0.06786 0.19064
 C205 C 0.57341 -0.01910 0.31477
 C206 C 0.54654 -0.01393 0.72995
 H207 H 0.54561 -0.03147 0.74399
 C208 C 0.56742 -0.01301 0.71081
 H209 H 0.58244 -0.02987 0.71047
 C210 C 0.52698 0.02818 0.71183
 H211 H 0.51076 0.04385 0.71205
 C212 C 0.54741 0.02988 0.69230
 H213 H 0.54705 0.04722 0.67782
 N214 N 0.52677 0.00642 0.72999
 C215 C 0.47916 -0.04714 0.77581
 H216 H 0.46234 -0.04469 0.76176
 C217 C 0.48019 -0.06904 0.79506
 H218 H 0.46438 -0.08361 0.79530
 C219 C 0.51947 -0.03051 0.79358
 H220 H 0.53429 -0.01493 0.79329
 C221 C 0.52143 -0.05221 0.81299
 H222 H 0.53782 -0.05317 0.82765
 Zn223 Zn 0.49582 0.00358 0.75235
 N224 N 0.49861 -0.02838 0.77548
 C225 C 0.46660 -0.01841 0.71096
 N226 N 0.46599 0.00245 0.72848
 C227 C 0.44600 0.02259 0.72722
 C228 C 0.42560 0.02226 0.70756
 C229 C 0.44658 -0.01963 0.69114
 C230 C 0.51045 0.05265 0.77720
 C231 C 0.50823 0.07223 0.79723
 C232 C 0.46698 0.05222 0.81283
 C233 C 0.47005 0.03304 0.79265
 N234 N 0.49161 0.03341 0.77552
 H235 H 0.48295 -0.03395 0.71221
 H236 H 0.44629 0.03940 0.74086
 H237 H 0.41033 0.03890 0.70631
 H238 H 0.44744 -0.03653 0.67751
 H239 H 0.52778 0.05216 0.76378
 H240 H 0.52396 0.08670 0.79899
 H241 H 0.44975 0.05138 0.82639
 H242 H 0.45558 0.01727 0.79107
 C243 C 0.50142 -0.07162 0.81412
 C244 C 0.56776 0.00887 0.69134
 C245 C 0.48653 0.07181 0.81573
 C246 C 0.42591 0.00110 0.68896
 C247 C 0.21990 -0.01842 0.49216
 C248 C 0.23302 0.00525 0.49881
 C249 C 0.21780 0.02938 0.50429
 C250 C 0.18944 0.03006 0.50299
 C251 C 0.17656 0.00626 0.49621
 C252 C 0.19158 -0.01803 0.49082
 C253 C 0.26273 0.00494 0.49945
 C254 C 0.27734 0.00504 0.47496
 C255 C 0.30570 0.00517 0.47525
 C256 C 0.31922 0.00446 0.50046
 C257 C 0.30483 0.00401 0.52517
 C258 C 0.27645 0.00465 0.52446
 H259 H 0.23176 -0.03696 0.48778
 H260 H 0.22808 0.04756 0.50949
 H261 H 0.26651 0.00572 0.45573
 H262 H 0.26499 0.00422 0.54329
 H263 H 0.15468 0.00665 0.49501
 H264 H 0.34110 0.00424 0.50087
 C265 C 0.77923 -0.02817 0.50269
 C266 C 0.76264 -0.00429 0.50501
 C267 C 0.77428 0.02105 0.50766
 C268 C 0.80250 0.02272 0.50793
 C269 C 0.81895 -0.00137 0.50587
 C270 C 0.80753 -0.02697 0.50333
 C271 C 0.73303 -0.00577 0.50475
 C272 C 0.71826 -0.00226 0.52882
 C273 C 0.68996 -0.00339 0.52876
 C274 C 0.67661 -0.00766 0.50411
 C275 C 0.69121 -0.01103 0.47976
 C276 C 0.71955 -0.01032 0.48038
 H277 H 0.76999 -0.04769 0.50103
 H278 H 0.76133 0.03943 0.50948
 H279 H 0.72885 0.00148 0.54753
 H280 H 0.73120 -0.01315 0.46190
 H281 H 0.84072 -0.00003 0.50539
 H282 H 0.65477 -0.00826 0.50387
 C283 C 0.52719 0.27884 0.99422
 C284 C 0.50245 0.26604 0.99442
 C285 C 0.47813 0.28191 0.99223
 C286 C 0.47836 0.31062 0.98981
 C287 C 0.50326 0.32324 0.98942
 C288 C 0.52783 0.30757 0.99152
 C289 C 0.50193 0.23596 0.99662
 C290 C 0.50588 0.22211 1.02202
 C291 C 0.50479 0.19343 1.02438
 C292 C 0.49971 0.17886 1.00097
 C293 C 0.49583 0.19249 0.97542
 C294 C 0.49699 0.22115 0.97338
 H295 H 0.54588 0.26635 0.99558
 H296 H 0.45909 0.27186 0.99227
 H297 H 0.50980 0.23370 1.03985
 H298 H 0.49377 0.23199 0.95385
 H299 H 0.50345 0.34543 0.98825
 H300 H 0.49867 0.15675 1.00262
 C301 C 0.52510 0.71654 0.00742
 C302 C 0.50048 0.73177 0.00945
 C303 C 0.47606 0.71837 0.01012
 C304 C 0.47600 0.68975 0.00837
 C305 C 0.50080 0.67470 0.00648
 C306 C 0.52539 0.68789 0.00587
 C307 C 0.49992 0.76191 0.00849
 C308 C 0.50167 0.77618 -0.01679
 C309 C 0.49875 0.80491 -0.01847
 C310 C 0.49453 0.81921 0.00552
 C311 C 0.49318 0.80517 0.03100
 C312 C 0.49587 0.77640 0.03238
 H313 H 0.54388 0.72705 0.00629
 H314 H 0.45712 0.73041 0.01087
 H315 H 0.50435 0.76482 -0.03520
 H316 H 0.49429 0.76530 0.05185
 H317 H 0.50104 0.65255 0.00570
 H318 H 0.49281 0.84144 0.00444
 C319 C 1.00308 0.52141 0.27594
 C320 C 0.99838 0.49644 0.26404
 C321 C 0.99431 0.47296 0.28069
 C322 C 0.99562 0.47411 0.30922
 C323 C 1.00033 0.49926 0.32085
 C324 C 1.00399 0.52296 0.30440
 C325 C 0.99938 0.49444 0.23418
 C326 C 1.02384 0.49814 0.22036
 C327 C 1.02548 0.49536 0.19203
 C328 C 1.00215 0.48918 0.17766
 C329 C 0.97744 0.48579 0.19120
 C330 C 0.97624 0.48829 0.21959
 H331 H 1.00641 0.53948 0.26305
 H332 H 0.99127 0.45361 0.27136
 H333 H 1.04157 0.50307 0.23177
 H334 H 0.95740 0.48539 0.23035
 H335 H 1.00071 0.50056 0.34284
 H336 H 1.00317 0.48702 0.15579
 C337 C 0.01084 0.52949 0.71514
 C338 C 0.00374 0.50701 0.73188
 C339 C -0.00132 0.48199 0.72027
 C340 C 0.00129 0.47908 0.69203
 C341 C 0.00830 0.50178 0.67547
 C342 C 0.01295 0.52708 0.68679
 C343 C 0.00252 0.50928 0.76168
 C344 C -0.02229 0.50782 0.77537
 C345 C -0.02345 0.50940 0.80387
 C346 C 0.00070 0.51164 0.81848
 C347 C 0.02574 0.51264 0.80508
 C348 C 0.02641 0.51195 0.77651
 H349 H 0.01483 0.54874 0.72423
 H350 H -0.00634 0.46458 0.73338
 H351 H -0.04065 0.50596 0.76372
 H352 H 0.04556 0.51238 0.76583
 H353 H 0.00947 0.49992 0.65356
 H354 H 0.00006 0.51233 0.84051
 C355 C 0.11844 0.12559 0.51518
 C356 C 0.12433 0.15302 0.50893
 C357 C 0.10372 0.17356 0.50993
 C358 C 0.07736 0.16697 0.51738
 C359 C 0.07251 0.13945 0.52409
 N360 N 0.09280 0.11983 0.52275
 C361 C 0.13876 0.10237 0.51344
 N362 N 0.13260 0.07766 0.52504
 C363 C 0.14892 0.05469 0.52287
 C364 C 0.17303 0.05561 0.50790
 C365 C 0.18021 0.08094 0.49626
 C366 C 0.16314 0.10433 0.49889
 H367 H 0.10845 0.19462 0.50508
 H368 H 0.05246 0.13336 0.52970
 H369 H 0.14281 0.03565 0.53251
 H370 H 0.19846 0.08242 0.48422
 H371 H 0.14449 0.15881 0.50351
 H372 H 0.16869 0.12326 0.48870
 C373 C 0.62400 0.62141 -0.00204
 C374 C 0.63310 0.60939 -0.02610
 C375 C 0.65572 0.59123 -0.02529
 C376 C 0.66945 0.58503 -0.00062
 C377 C 0.66027 0.59821 0.02281
 N378 N 0.63809 0.61581 0.02153
 C379 C 0.59900 0.63925 -0.00150
 N380 N 0.59646 0.65906 0.01724
 C381 C 0.57351 0.67532 0.01950
 C382 C 0.55115 0.67159 0.00271
 C383 C 0.55335 0.65132 -0.01670
 C384 C 0.57717 0.63518 -0.01891
 H385 H 0.66197 0.58142 -0.04382
 H386 H 0.67054 0.59434 0.04215
 H387 H 0.57246 0.69061 0.03488
 H388 H 0.53656 0.64789 -0.03009
 H389 H 0.62284 0.61382 -0.04536
 H390 H 0.57808 0.61916 -0.03353
 C391 C 0.88013 -0.12218 0.49478
 C392 C 0.87329 -0.14782 0.48551
 C393 C 0.89326 -0.16897 0.48408
 C394 C 0.91997 -0.16474 0.49193
 C395 C 0.92585 -0.13885 0.50118
 N396 N 0.90611 -0.11864 0.50241
 C397 C 0.86015 -0.09880 0.49698
 N398 N 0.86578 -0.07853 0.51404
 C399 C 0.84918 -0.05583 0.51667
 C400 C 0.82527 -0.05227 0.50129
 C401 C 0.81895 -0.07295 0.48361
 C402 C 0.83630 -0.09620 0.48136
 H403 H 0.88770 -0.18874 0.47726
 H404 H 0.94620 -0.13443 0.50704
 H405 H 0.85469 -0.04065 0.53086
 H406 H 0.80098 -0.07084 0.47098
 H407 H 0.85276 -0.15180 0.47993
 H408 H 0.83138 -0.11140 0.46697
 C409 C 0.38027 0.37895 0.98772
 C410 C 0.37043 0.39438 0.96475
 C411 C 0.34779 0.41225 0.96725
 C412 C 0.33480 0.41477 0.99253
 C413 C 0.34475 0.39832 1.01480
 N414 N 0.36690 0.38108 1.01187
 C415 C 0.40511 0.36090 0.98660
 N416 N 0.40828 0.33911 1.00472
 C417 C 0.43109 0.32239 1.00563
 C418 C 0.45272 0.32760 0.98796
 C419 C 0.44991 0.34994 0.96914
 C420 C 0.42620 0.36658 0.96835
 H421 H 0.34092 0.42464 0.94957
 H422 H 0.33507 0.39930 1.03454
 H423 H 0.43261 0.30554 1.02066
 H424 H 0.46612 0.35459 0.95512
 H425 H 0.38004 0.39278 0.94503
 H426 H 0.42486 0.38413 0.95416
 C427 C 0.85670 0.12407 0.51126
 C428 C 0.85881 0.14167 0.48806
 C429 C 0.87578 0.16365 0.48868
 C430 C 0.89044 0.16829 0.51237
 C431 C 0.88724 0.15066 0.53532
 N432 N 0.87099 0.12909 0.53408
 C433 C 0.84113 0.09899 0.51089
 N434 N 0.84956 0.07684 0.52697
 C435 C 0.83724 0.05258 0.52676
 C436 C 0.81496 0.04959 0.50965
 C437 C 0.80538 0.07240 0.49353
 C438 C 0.81841 0.09710 0.49404
 H439 H 0.87773 0.17680 0.47055
 H440 H 0.89847 0.15335 0.55387
 H441 H 0.84495 0.03560 0.53985
 H442 H 0.78825 0.07091 0.48003
 H443 H 0.84839 0.13797 0.46929
 H444 H 0.81073 0.11443 0.48142
 C445 C 0.37799 0.63090 0.00440
 C446 C 0.35244 0.63995 0.01399
 C447 C 0.33063 0.62293 0.01232
 C448 C 0.33411 0.59705 0.00098
 C449 C 0.35987 0.58902 -0.00868
 N450 N 0.38075 0.60585 -0.00675
 C451 C 0.40221 0.64750 0.00565
 N452 N 0.42368 0.64068 -0.01047
 C453 C 0.44712 0.65398 -0.01011
 C454 C 0.45016 0.67557 0.00750
 C455 C 0.42827 0.68312 0.02427
 C456 C 0.40432 0.66913 0.02349
 H457 H 0.31100 0.63013 0.01962
 H458 H 0.36365 0.56911 -0.01722
 H459 H 0.46328 0.64774 -0.02372
 H460 H 0.42990 0.69941 0.03842
 H461 H 0.34904 0.65997 0.02232
 H462 H 0.38812 0.67484 0.03724
 C463 C 0.12975 -0.11238 0.47360
 C464 C 0.10250 -0.10935 0.46554
 C465 C 0.08684 -0.13226 0.46536
 C466 C 0.09803 -0.15831 0.47328
 C467 C 0.12531 -0.16052 0.48132
 N468 N 0.14023 -0.13782 0.48138
 C469 C 0.14678 -0.08839 0.47556
 N470 N 0.16841 -0.09013 0.49283
 C471 C 0.18379 -0.06834 0.49710
 C472 C 0.17731 -0.04281 0.48398
 C473 C 0.15584 -0.04085 0.46529
 C474 C 0.14071 -0.06357 0.46083
 H475 H 0.06569 -0.12940 0.45981
 H476 H 0.13478 -0.18023 0.48753
 H477 H 0.20031 -0.07067 0.51159
 H478 H 0.15064 -0.02164 0.45428
 H479 H 0.09290 -0.08948 0.46032
 H480 H 0.12444 -0.06147 0.44610
 C481 C 0.62581 0.36667 0.99121
 C482 C 0.65126 0.35658 1.00089
 C483 C 0.67284 0.37402 1.00092
 C484 C 0.66922 0.40141 0.99123
 C485 C 0.64357 0.41048 0.98135
 N486 N 0.62292 0.39318 0.98160
 C487 C 0.60182 0.34968 0.99100
 N488 N 0.58084 0.35789 0.97420
 C489 C 0.55748 0.34447 0.97360
 C490 C 0.55394 0.32138 0.99098
 C491 C 0.57539 0.31231 1.00832
 C492 C 0.59931 0.32638 1.00845
 H493 H 0.69239 0.36599 1.00827
 H494 H 0.63967 0.43149 0.97402
 H495 H 0.54167 0.35195 0.95958
 H496 H 0.57337 0.29486 1.02238
 H497 H 0.65472 0.33546 1.00803
 H498 H 0.61510 0.31954 1.02271
 C499 C 0.51166 0.12791 1.12449
 C500 C 0.50493 0.13634 1.15081
 C501 C 0.50476 0.11688 1.17252
 C502 C 0.51147 0.08912 1.16817
 C503 C 0.51858 0.08172 1.14167
 N504 N 0.51844 0.10095 1.12091
 C505 C 0.51128 0.14692 1.10014
 N506 N 0.52403 0.13831 1.07719
 C507 C 0.52312 0.15327 1.05326
 C508 C 0.50827 0.17847 1.05118
 C509 C 0.49546 0.18817 1.07468
 C510 C 0.49684 0.17248 1.09916
 H511 H 0.49960 0.12356 1.19272
 H512 H 0.52356 0.06055 1.13722
 H513 H 0.53367 0.14521 1.03576
 H514 H 0.48348 0.20735 1.07385
 H515 H 0.50006 0.15760 1.15484
 H516 H 0.48580 0.17992 1.11659
 C517 C 0.02973 0.61834 0.61179
 C518 C 0.03863 0.61470 0.58491
 C519 C 0.03840 0.63712 0.56638
 C520 C 0.02921 0.66322 0.57433
 C521 C 0.02067 0.66608 0.60142
 N522 N 0.02101 0.64389 0.61913
 C523 C 0.02774 0.59495 0.63185
 N524 N 0.01077 0.59777 0.65354
 C525 C 0.00654 0.57680 0.67191
 C526 C 0.01947 0.55092 0.66872
 C527 C 0.03777 0.54779 0.64711
 C528 C 0.04213 0.56971 0.62880
 H529 H 0.04451 0.63378 0.54553
 H530 H 0.01359 0.68586 0.60849
 H531 H -0.00770 0.58008 0.68834
 H532 H 0.04862 0.52830 0.64432
 H533 H 0.04477 0.59473 0.57772
 H534 H 0.05658 0.56669 0.61255
 C535 C 0.50229 0.86899 -0.11934
 C536 C 0.52637 0.87363 -0.13362
 C537 C 0.52604 0.89255 -0.15575
 C538 C 0.50181 0.90670 -0.16381
 C539 C 0.47812 0.90102 -0.14937
 N540 N 0.47902 0.88284 -0.12765
 C541 C 0.50170 0.85112 -0.09428
 N542 N 0.48217 0.85649 -0.07543
 C543 C 0.48068 0.84182 -0.05142
 C544 C 0.49961 0.82015 -0.04518
 C545 C 0.51949 0.81369 -0.06460
 C546 C 0.52066 0.82914 -0.08914
 H547 H 0.54475 0.89636 -0.16639
 H548 H 0.45909 0.91176 -0.15467
 H549 H 0.46471 0.84711 -0.03721
 H550 H 0.53442 0.79707 -0.06055
 H551 H 0.54544 0.86363 -0.12726
 H552 H 0.53611 0.82378 -0.10386
 C553 C 0.98549 0.37984 0.38245
 C554 C 0.97183 0.35610 0.37724
 C555 C 0.97083 0.33510 0.39740
 C556 C 0.98361 0.33730 0.42291
 C557 C 0.99717 0.36160 0.42696
 N558 N 0.99767 0.38169 0.40707
 C559 C 0.98767 0.40304 0.36223
 N560 N 1.00654 0.42172 0.36669
 C561 C 1.00961 0.44415 0.34994
 C562 C 0.99288 0.44908 0.32702
 C563 C 0.97338 0.43004 0.32177
 C564 C 0.97061 0.40707 0.33934
 H565 H 0.96094 0.31675 0.39224
 H566 H 1.00653 0.36548 0.44620
 H567 H 1.02520 0.45804 0.35455
 H568 H 0.95983 0.43328 0.30449
 H569 H 0.96250 0.35324 0.35772
 H570 H 0.95486 0.39324 0.33524
 C571 C 0.48469 0.87337 0.12365
 C572 C 0.47340 0.90024 0.12121
 C573 C 0.47507 0.91757 0.14291
 C574 C 0.48824 0.90866 0.16744
 C575 C 0.49945 0.88145 0.16883
 N576 N 0.49742 0.86492 0.14731
 C577 C 0.48460 0.85461 0.10060
 N578 N 0.50333 0.83322 0.10015
 C579 C 0.50566 0.81633 0.07878
 C580 C 0.48885 0.82095 0.05588
 C581 C 0.46874 0.84212 0.05635
 C582 C 0.46633 0.85876 0.07870
 H583 H 0.46724 0.93847 0.13948
 H584 H 0.50921 0.87283 0.18713
 H585 H 0.52134 0.80008 0.07919
 H586 H 0.45501 0.84591 0.03927
 H587 H 0.46422 0.90846 0.10245
 H588 H 0.45039 0.87469 0.07853
 C589 C -0.01377 0.37758 0.63950
 C590 C -0.03881 0.36547 0.63712
 C591 C -0.04087 0.34282 0.62084
 C592 C -0.01810 0.33214 0.60704
 C593 C 0.00661 0.34451 0.61045
 N594 N 0.00804 0.36669 0.62610
 C595 C -0.01051 0.40298 0.65441
 N596 N 0.01058 0.41873 0.64750
 C597 C 0.01481 0.44276 0.65940
 C598 C -0.00280 0.45236 0.67969
 C599 C -0.02434 0.43619 0.68768
 C600 C -0.02830 0.41152 0.67510
 H601 H -0.06032 0.33387 0.61879
 H602 H 0.02459 0.33729 0.59984
 H603 H 0.03200 0.45431 0.65302
 H604 H -0.03837 0.44286 0.70330
 H605 H -0.05685 0.37382 0.64680
 H606 H -0.04493 0.39934 0.68173
 C607 C 0.48403 0.12459 0.88349
 C608 C 0.47655 0.09730 0.88706
 C609 C 0.47710 0.08035 0.86490
 C610 C 0.48517 0.09029 0.83908
 C611 C 0.49271 0.11763 0.83635
 N612 N 0.49203 0.13382 0.85832
 C613 C 0.48488 0.14304 0.90672
 N614 N 0.50159 0.16442 0.90537
 C615 C 0.50462 0.18116 0.92656
 C616 C 0.49067 0.17647 0.95109
 C617 C 0.47260 0.15524 0.95256
 C618 C 0.46948 0.13866 0.93044
 H619 H 0.47191 0.05919 0.86820
 H620 H 0.49902 0.12616 0.81681
 H621 H 0.51869 0.19741 0.92460
 H622 H 0.46095 0.15140 0.97090
 H623 H 0.47115 0.08866 0.90684
 H624 H 0.45517 0.12265 0.93210
 C625 C 1.01618 0.62316 0.35938
 C626 C 1.04022 0.63093 0.37141
 C627 C 1.03971 0.65375 0.38763
 C628 C 1.01534 0.66885 0.39193
 C629 C 0.99197 0.66104 0.37866
 N630 N 0.99295 0.63869 0.36297
 C631 C 1.01515 0.59782 0.34401
 N632 N 0.99658 0.59649 0.32369
 C633 C 0.99340 0.57316 0.31002
 C634 C 1.00890 0.54915 0.31723
 C635 C 1.02822 0.55010 0.33799
 C636 C 1.03152 0.57438 0.35133
 H637 H 1.05818 0.65900 0.39758
 H638 H 0.97287 0.67242 0.38113
 H639 H 0.97813 0.57310 0.29424
 H640 H 1.04053 0.53194 0.34410
 H641 H 1.05917 0.61939 0.36857
 H642 H 1.04596 0.57440 0.36787
 C643 C 1.12405 0.50422 0.13018
 C644 C 1.14802 0.48820 0.13504
 C645 C 1.16952 0.49000 0.11668
 C646 C 1.16755 0.50769 0.09318
 C647 C 1.14311 0.52363 0.08955
 N648 N 1.12250 0.52129 0.10761
 C649 C 1.09966 0.50231 0.14766
 N650 N 1.07574 0.51340 0.13762
 C651 C 1.05211 0.51194 0.15156
 C652 C 1.05150 0.49849 0.17736
 C653 C 1.07599 0.48747 0.18850
 C654 C 1.10008 0.48939 0.17382
 H655 H 1.18782 0.47780 0.12154
 H656 H 1.13941 0.53692 0.07168
 H657 H 1.03384 0.52126 0.14241
 H658 H 1.07644 0.47685 0.20832
 H659 H 1.15025 0.47396 0.15240
 H660 H 1.11857 0.48081 0.18307
 C661 C 0.62521 0.00601 0.62600
 C662 C 0.63379 -0.00120 0.65279
 C663 C 0.61520 0.00009 0.67419
 C664 C 0.58817 0.00883 0.66914
 C665 C 0.58062 0.01658 0.64225
 N666 N 0.59899 0.01489 0.62174
 C667 C 0.64338 0.00406 0.60200
 N668 N 0.63505 0.01675 0.57801
 C669 C 0.64968 0.01506 0.55465
 C670 C 0.67435 -0.00036 0.55441
 C671 C 0.68350 -0.01347 0.57889
 C672 C 0.66811 -0.01143 0.60266
 H673 H 0.62197 -0.00562 0.69472
 H674 H 0.55995 0.02321 0.63735
 H675 H 0.64201 0.02578 0.53630
 H676 H 0.70219 -0.02596 0.57949
 H677 H 0.65453 -0.00761 0.65745
 H678 H 0.67531 -0.02258 0.62090
 C679 C -0.11975 0.50143 0.86890
 C680 C -0.14479 0.49212 0.86073
 C681 C -0.16581 0.49031 0.87971
 C682 C -0.16194 0.49772 0.90677
 C683 C -0.13653 0.50683 0.91399
 N684 N -0.11653 0.50853 0.89518
 C685 C -0.09658 0.50415 0.85009
 N686 N -0.07736 0.52188 0.85632
 C687 C -0.05453 0.52455 0.84133
 C688 C -0.04958 0.50831 0.81873
 C689 C -0.06936 0.49022 0.81154
 C690 C -0.09289 0.48807 0.82715
 H691 H -0.18518 0.48360 0.87309
 H692 H -0.13234 0.51227 0.93467
 H693 H -0.04014 0.53917 0.84732
 H694 H -0.06621 0.47703 0.79449
 H695 H -0.14839 0.48685 0.83988
 H696 H -0.10735 0.47325 0.82186
 C697 C 0.37209 0.00584 0.37882
 C698 C 0.36417 -0.00115 0.35260
 C699 C 0.38320 -0.00167 0.33155
 C700 C 0.41006 0.00483 0.33648
 C701 C 0.41695 0.01214 0.36288
 N702 N 0.39811 0.01246 0.38299
 C703 C 0.35328 0.00630 0.40228
 N704 N 0.35951 0.02136 0.42394
 C705 C 0.34431 0.02183 0.44696
 C706 C 0.32139 0.00608 0.44943
 C707 C 0.31433 -0.00939 0.42724
 C708 C 0.33020 -0.00938 0.40367
 H709 H 0.37685 -0.00690 0.31138
 H710 H 0.43744 0.01697 0.36779
 H711 H 0.35025 0.03445 0.46335
 H712 H 0.29705 -0.02216 0.42843
 H713 H 0.34353 -0.00582 0.34817
 H714 H 0.32489 -0.02226 0.38727
 C715 C 0.12093 0.51612 0.87219
 C716 C 0.14635 0.52506 0.86392
 C717 C 0.16757 0.52440 0.88281
 C718 C 0.16358 0.51476 0.90980
 C719 C 0.13781 0.50624 0.91718
 N720 N 0.11758 0.50702 0.89849
 C721 C 0.09756 0.51541 0.85342
 N722 N 0.07702 0.49917 0.86086
 C723 C 0.05434 0.49770 0.84560
 C724 C 0.05106 0.51348 0.82119
 C725 C 0.07206 0.53024 0.81286
 C726 C 0.09530 0.53134 0.82892
 H727 H 0.18722 0.53084 0.87615
 H728 H 0.13361 0.49912 0.93786
 H729 H 0.03893 0.48409 0.85259
 H730 H 0.07020 0.54301 0.79432
 H731 H 0.15016 0.53185 0.84309
 H732 H 0.11080 0.54504 0.82247
 C733 C 0.62974 -0.02036 0.38113
 C734 C 0.63864 -0.01402 0.35450
 C735 C 0.62048 -0.01420 0.33273
 C736 C 0.59356 -0.02095 0.33729
 C737 C 0.58578 -0.02814 0.36406
 N738 N 0.60373 -0.02754 0.38494
 C739 C 0.64734 -0.01893 0.40542
 N740 N 0.64003 -0.03214 0.42907
 C741 C 0.65403 -0.03052 0.45273
 C742 C 0.67677 -0.01449 0.45367
 C743 C 0.68486 -0.00089 0.42949
 C744 C 0.67024 -0.00298 0.40541
 H745 H 0.62749 -0.00906 0.31233
 H746 H 0.56519 -0.03328 0.36860
 H747 H 0.64726 -0.04165 0.47078
 H748 H 0.70195 0.01213 0.42940
 H749 H 0.65932 -0.00903 0.35032
 H750 H 0.67636 0.00863 0.38742
 C751 C 0.88481 0.47305 0.12302
 C752 C 0.88788 0.46451 0.09615
 C753 C 0.86557 0.46545 0.07881
 C754 C 0.84005 0.47494 0.08793
 C755 C 0.83778 0.48337 0.11491
 N756 N 0.85990 0.48234 0.13148
 C757 C 0.90825 0.47391 0.14173
 N758 N 0.90697 0.49158 0.16253
 C759 C 0.92833 0.49484 0.17934
 C760 C 0.95299 0.48014 0.17532
 C761 C 0.95444 0.46104 0.15474
 C762 C 0.93213 0.45769 0.13809
 H763 H 0.86851 0.45952 0.05795
 H764 H 0.81849 0.49076 0.12284
 H765 H 0.92639 0.50973 0.19507
 H766 H 0.97291 0.44883 0.15142
 H767 H 0.90740 0.45808 0.08808
 H768 H 0.93380 0.44262 0.12256
 C769 C 0.36864 0.00207 0.62336
 C770 C 0.35994 0.01027 0.64920
 C771 C 0.37852 0.00989 0.67069
 C772 C 0.40566 0.00126 0.66659
 C773 C 0.41338 -0.00695 0.64051
 N774 N 0.39499 -0.00638 0.61997
 C775 C 0.35038 0.00205 0.59947
 N776 N 0.35814 -0.01352 0.57819
 C777 C 0.34358 -0.01375 0.55478
 C778 C 0.31972 0.00277 0.55149
 C779 C 0.31102 0.01872 0.57329
 C780 C 0.32628 0.01848 0.59729
 H781 H 0.37157 0.01596 0.69059
 H782 H 0.43413 -0.01335 0.63621
 H783 H 0.35080 -0.02676 0.53871
 H784 H 0.29291 0.03204 0.57146
 H785 H 0.33907 0.01647 0.65303
 H786 H 0.31967 0.03173 0.61337
   
