data_POSCAR
  _audit_creation_date              2014-09-24
  _audit_creation_method            'ToBaCCo'
  _symmetry_space_group_name_H-M    'P1'
  _symmetry_Int_Tables_number       1
  _symmetry_cell_setting            triclinic
  loop_
  _symmetry_equiv_pos_as_xyz
 x,y,z
_cell_length_a 35.0317
_cell_length_b 34.9897
_cell_length_c 33.6500
_cell_angle_alpha 90.676200
_cell_angle_beta 90.056900
_cell_angle_gamma 91.339800
loop_
  _atom_site_label
  _atom_site_type_symbol
  _atom_site_fract_x
  _atom_site_fract_y
  _atom_site_fract_z
C1 C 0.21242 0.16848 0.22544
 C2 C 0.19388 0.15532 0.25989
 C3 C 0.16312 0.17540 0.27686
 C4 C 0.15265 0.20997 0.25912
 C5 C 0.17080 0.22323 0.22477
 C6 C 0.20055 0.20233 0.20760
 C7 C 0.24167 0.14739 0.20777
 C8 C 0.25937 0.15937 0.17204
 C9 C 0.24703 0.19368 0.15483
 C10 C 0.21785 0.21496 0.17216
 C11 C 0.20514 0.24837 0.15411
 C12 C 0.17530 0.26916 0.17110
 C13 C 0.15865 0.25660 0.20668
 H14 H 0.20220 0.12814 0.27175
 H15 H 0.13068 0.22732 0.27223
 H16 H 0.24896 0.12055 0.22113
 H17 H 0.26069 0.20488 0.12845
 H18 H 0.21809 0.25799 0.12663
 H19 H 0.13499 0.27197 0.21941
 C20 C -0.22419 0.82088 0.21994
 C21 C -0.21041 0.83171 0.25774
 C22 C -0.18001 0.81228 0.27572
 C23 C -0.16544 0.78020 0.25551
 C24 C -0.17869 0.76948 0.21765
 C25 C -0.20782 0.79011 0.19950
 C26 C -0.25301 0.84158 0.20170
 C27 C -0.26593 0.83235 0.16282
 C28 C -0.24879 0.80145 0.14263
 C29 C -0.21996 0.78045 0.16061
 C30 C -0.20261 0.75022 0.14011
 C31 C -0.17358 0.72954 0.15828
 C32 C -0.16213 0.73913 0.19717
 H33 H -0.22193 0.85702 0.27155
 H34 H -0.14376 0.76308 0.26906
 H35 H -0.26377 0.86621 0.21745
 H36 H -0.25851 0.79257 0.11334
 H37 H -0.21149 0.74287 0.11006
 H38 H -0.13909 0.72385 0.21093
 C39 C -0.24846 0.19064 -0.24741
 C40 C -0.23349 0.17885 -0.28405
 C41 C -0.19863 0.19427 -0.29791
 C42 C -0.18074 0.22435 -0.27651
 C43 C -0.19594 0.23706 -0.24033
 C44 C -0.22945 0.21956 -0.22516
 C45 C -0.28085 0.17218 -0.23183
 C46 C -0.29415 0.18061 -0.19314
 C47 C -0.27532 0.21065 -0.17155
 C48 C -0.24308 0.22996 -0.18721
 C49 C -0.22304 0.25823 -0.16484
 C50 C -0.18984 0.27611 -0.18021
 C51 C -0.17670 0.26537 -0.21801
 H52 H -0.24789 0.15607 -0.30075
 H53 H -0.15362 0.23621 -0.28657
 H54 H -0.29555 0.15110 -0.25041
 H55 H -0.28382 0.21764 -0.14149
 H56 H -0.23302 0.26614 -0.13546
 H57 H -0.15045 0.27804 -0.22944
 C58 C 0.22070 0.81720 -0.24882
 C59 C 0.20134 0.83367 -0.28065
 C60 C 0.16791 0.81617 -0.29688
 C61 C 0.15607 0.78031 -0.28197
 C62 C 0.17510 0.76372 -0.25015
 C63 C 0.20725 0.78232 -0.23306
 C64 C 0.25220 0.83617 -0.23129
 C65 C 0.27014 0.82129 -0.19762
 C66 C 0.25674 0.78616 -0.18217
 C67 C 0.22523 0.76661 -0.19957
 C68 C 0.21016 0.73263 -0.18307
 C69 C 0.17746 0.71443 -0.19975
 C70 C 0.16109 0.72958 -0.23405
 H71 H 0.21102 0.86162 -0.29040
 H72 H 0.13189 0.76490 -0.29498
 H73 H 0.26253 0.86294 -0.24365
 H74 H 0.26998 0.77475 -0.15586
 H75 H 0.22282 0.72133 -0.15640
 H76 H 0.13637 0.71539 -0.24752
 C77 C 0.18932 1.23064 0.77985
 C78 C 0.17204 1.21085 0.74757
 C79 C 0.18659 1.17582 0.73313
 C80 C 0.21982 1.16200 0.75142
 C81 C 0.23710 1.18129 0.78366
 C82 C 0.22179 1.21561 0.79805
 C83 C 0.17366 1.26446 0.79513
 C84 C 0.18979 1.28366 0.82876
 C85 C 0.22297 1.26832 0.84579
 C86 C 0.23865 1.23452 0.83110
 C87 C 0.27053 1.21885 0.84967
 C88 C 0.28566 1.18438 0.83573
 C89 C 0.26906 1.16608 0.80235
 H90 H 0.14606 1.22204 0.73538
 H91 H 0.23328 1.13654 0.74022
 H92 H 0.14758 1.27426 0.78185
 H93 H 0.23753 1.28288 0.87018
 H94 H 0.28332 1.23321 0.87529
 H95 H 0.28011 1.13910 0.79185
 C96 C 0.83157 0.78524 0.80208
 C97 C 0.84841 0.80486 0.77003
 C98 C 0.83121 0.83729 0.75339
 C99 C 0.79629 0.84925 0.77005
 C100 C 0.77931 0.82999 0.80208
 C101 C 0.79705 0.79798 0.81825
 C102 C 0.84909 0.75324 0.81843
 C103 C 0.83294 0.73371 0.85130
 C104 C 0.79823 0.74718 0.86697
 C105 C 0.78039 0.77895 0.85084
 C106 C 0.74613 0.79209 0.86710
 C107 C 0.72835 0.82417 0.85136
 C108 C 0.74511 0.84286 0.81871
 H109 H 0.87432 0.79370 0.75741
 H110 H 0.78280 0.87478 0.75966
 H111 H 0.87637 0.74499 0.80642
 H112 H 0.78396 0.73234 0.89098
 H113 H 0.73325 0.77734 0.89206
 H114 H 0.73197 0.86803 0.80681
 C115 C 0.19461 0.76596 1.25133
 C116 C 0.17690 0.78709 1.28173
 C117 C 0.19383 0.82138 1.29642
 C118 C 0.22947 0.83351 1.28142
 C119 C 0.24728 0.81295 1.25099
 C120 C 0.22988 0.77905 1.23592
 C121 C 0.17677 0.73301 1.23485
 C122 C 0.19341 0.71287 1.20267
 C123 C 0.22916 0.72622 1.18839
 C124 C 0.24706 0.75911 1.20431
 C125 C 0.28068 0.77379 1.18710
 C126 C 0.29725 0.80837 1.20088
 C127 C 0.28111 0.82706 1.23380
 H128 H 0.14915 0.77779 1.29265
 H129 H 0.24296 0.85962 1.29278
 H130 H 0.15004 0.72309 1.24764
 H131 H 0.24214 0.71301 1.16267
 H132 H 0.29259 0.75950 1.16135
 H133 H 0.29399 0.85356 1.24494
 C134 C 0.82301 1.22721 1.21574
 C135 C 0.84191 1.20587 1.24465
 C136 C 0.82432 1.17309 1.26186
 C137 C 0.78713 1.16231 1.24875
 C138 C 0.76803 1.18326 1.21992
 C139 C 0.78584 1.21597 1.20364
 C140 C 0.84098 1.25913 1.19796
 C141 C 0.82222 1.27956 1.16813
 C142 C 0.78482 1.26869 1.15733
 C143 C 0.76677 1.23691 1.17443
 C144 C 0.73049 1.22488 1.16135
 C145 C 0.71328 1.19128 1.17596
 C146 C 0.73191 1.17101 1.20590
 H147 H 0.86990 1.21584 1.25437
 H148 H 0.77333 1.13635 1.25923
 H149 H 0.86997 1.26725 1.20630
 H150 H 0.76995 1.28463 1.13487
 H151 H 0.71611 1.24106 1.13875
 H152 H 0.71909 1.14478 1.21706
 O153 O 0.51777 0.94703 0.94412
 O154 O 0.46171 0.95988 1.07844
 O155 O 0.57542 0.99165 1.03680
 O156 O 0.44795 0.94559 0.95376
 O157 O 0.53360 0.96130 1.07430
 O158 O 0.46635 0.97535 0.90097
 O159 O 0.44664 0.93260 1.02302
 O160 O 0.56854 0.97810 0.96585
 C161 C 0.55310 0.94842 0.95030
 C162 C 0.44800 0.93193 1.05972
 C163 C 0.56698 0.96598 1.06172
 C164 C 0.44220 0.95182 0.91732
 O165 O 0.47132 1.03854 0.93887
 O166 O 0.53336 1.03464 1.07992
 O167 O 0.53963 1.05126 0.95793
 O168 O 0.41806 1.00284 1.03950
 O169 O 0.46146 1.03385 1.07535
 O170 O 0.53228 1.01127 0.91233
 O171 O 0.42127 1.01722 0.96849
 O172 O 0.54487 1.06221 1.02506
 Co173 Co 0.49334 0.99252 0.94389
 Co174 Co 0.49740 0.99751 1.06996
 Co175 Co 0.55258 1.01896 0.99674
 Co176 Co 0.43880 0.97665 0.99670
 O177 O 0.49695 0.99776 1.00435
 C178 C 0.43726 1.04210 0.94755
 C179 C 0.54564 1.06283 1.06160
 C180 C 0.54652 1.04232 0.92314
 C181 C 0.42745 1.02858 1.06467
 O182 O 0.04706 0.46982 0.07319
 O183 O 0.02403 0.53520 -0.08465
 O184 O 0.05407 0.44085 -0.02441
 O185 O 0.07196 0.55699 0.02776
 O186 O 0.03568 0.46613 -0.07827
 O187 O 0.04164 0.54079 0.08011
 O188 O 0.06527 0.54547 -0.04047
 O189 O 0.02279 0.42274 0.03805
 C190 C 0.04629 0.43526 0.06341
 C191 C 0.05662 0.54679 -0.07560
 C192 C 0.05943 0.44674 -0.06008
 C193 C 0.06957 0.55671 0.06430
 O194 O -0.03036 0.53765 0.07162
 O195 O -0.03826 0.45540 -0.05660
 O196 O -0.04357 0.44494 0.01311
 O197 O -0.00819 0.57468 -0.03796
 O198 O -0.04485 0.52583 -0.05416
 O199 O -0.02835 0.46449 0.07198
 O200 O -0.00165 0.58116 0.03369
 O201 O -0.00937 0.40444 -0.03428
 Co202 Co 0.00772 0.50269 0.06721
 Co203 Co -0.00394 0.49610 -0.06185
 Co204 Co 0.00571 0.44640 -0.00640
 Co205 Co 0.03026 0.55978 -0.00434
 O206 O 0.01156 0.50321 0.00170
 C207 C -0.02750 0.57113 0.05833
 C208 C -0.03354 0.41933 -0.05937
 C209 C -0.05026 0.44599 0.04932
 C210 C -0.03987 0.56114 -0.05002
 O211 O 1.04512 0.05459 0.48084
 O212 O 0.91637 0.03691 0.53885
 O213 O 0.95595 0.01255 0.41871
 O214 O 1.03614 0.05342 0.55269
 O215 O 0.91839 0.03797 0.46388
 O216 O 1.08639 0.02411 0.53287
 O217 O 0.96964 0.06520 0.55301
 O218 O 1.02490 0.02637 0.42642
 C219 C 1.04043 0.05492 0.44398
 C220 C 0.93441 0.06560 0.55143
 C221 C 0.93033 0.03581 0.42877
 C222 C 1.07115 0.04719 0.55827
 O223 O 1.04950 -0.03905 0.52498
 O224 O 0.91476 -0.03533 0.46260
 O225 O 1.03227 -0.04838 0.45234
 O226 O 0.95415 -0.00600 0.58232
 O227 O 0.92061 -0.03735 0.53717
 O228 O 1.07600 -0.00844 0.46352
 O229 O 1.02224 -0.01946 0.57811
 O230 O 0.96771 -0.05972 0.44567
 Co231 Co 1.04508 0.00789 0.50419
 Co232 Co 0.92430 0.00068 0.50076
 Co233 Co 0.99485 -0.01556 0.44076
 Co234 Co 0.99491 0.02134 0.56090
 O235 O 0.98730 0.00217 0.49996
 C236 C 1.04202 -0.04363 0.56050
 C237 C 0.93261 -0.06163 0.44691
 C238 C 1.06600 -0.03877 0.44700
 C239 C 0.93117 -0.03285 0.57246
 C240 C 1.09894 0.12688 0.37155
 C241 C 1.08192 0.15241 0.34583
 C242 C 1.10327 0.16926 0.31538
 C243 C 1.14224 0.16059 0.30971
 C244 C 1.15912 0.13556 0.33695
 C245 C 1.13765 0.11895 0.36742
 C246 C 1.07611 0.10524 0.39912
 C247 C 1.05846 0.08407 0.42066
 H248 H 1.05175 0.15817 0.34829
 H249 H 1.08808 0.18699 0.29488
 H250 H 1.18910 0.12900 0.33541
 H251 H 1.15110 0.09909 0.38722
 C252 C 0.87439 -0.13805 0.37710
 C253 C 0.89448 -0.16236 0.35201
 C254 C 0.87615 -0.18023 0.31973
 C255 C 0.83715 -0.17382 0.31155
 C256 C 0.81684 -0.15091 0.33883
 C257 C 0.83538 -0.13310 0.37109
 C258 C 0.89489 -0.11388 0.40491
 C259 C 0.91231 -0.09126 0.42559
 H260 H 0.92489 -0.16587 0.35605
 H261 H 0.89386 -0.19638 0.29967
 H262 H 0.78657 -0.14642 0.33555
 H263 H 0.81954 -0.11428 0.39047
 C264 C 0.86824 0.13749 0.61380
 C265 C 0.86807 0.17748 0.61485
 C266 C 0.84483 0.19636 0.64229
 C267 C 0.82182 0.17530 0.66897
 C268 C 0.82154 0.13515 0.66659
 C269 C 0.84445 0.11650 0.63918
 C270 C 0.89384 0.11681 0.58876
 C271 C 0.91373 0.09544 0.57031
 H272 H 0.88640 0.19395 0.59523
 H273 H 0.84546 0.22730 0.64322
 H274 H 0.80502 0.11797 0.68720
 H275 H 0.84456 0.08552 0.63869
 C276 C 1.09981 -0.12201 0.62302
 C277 C 1.08297 -0.15004 0.64683
 C278 C 1.10552 -0.17142 0.67215
 C279 C 1.14556 -0.16486 0.67449
 C280 C 1.16207 -0.13729 0.64897
 C281 C 1.13939 -0.11614 0.62362
 C282 C 1.07668 -0.09695 0.60027
 C283 C 1.05928 -0.07378 0.58185
 H284 H 1.05226 -0.15448 0.64687
 H285 H 1.09079 -0.19111 0.69170
 H286 H 1.19260 -0.13211 0.64792
 H287 H 1.15272 -0.09457 0.60502
 C288 C 0.34522 1.09288 1.11679
 C289 C 0.33935 1.09083 1.15776
 C290 C 0.31126 1.11267 1.17602
 C291 C 0.28827 1.13729 1.15362
 C292 C 0.29487 1.13894 1.11213
 C293 C 0.32296 1.11697 1.09406
 C294 C 0.37411 1.07024 1.09809
 C295 C 0.39839 1.05124 1.08264
 H296 H 0.35670 1.07248 1.17574
 H297 H 0.30891 1.11108 1.20799
 H298 H 0.27741 1.15582 1.09287
 H299 H 0.32706 1.11855 1.06220
 C300 C 0.36157 0.88706 0.85789
 C301 C 0.36414 0.84725 0.85420
 C302 C 0.33439 0.82564 0.83642
 C303 C 0.30171 0.84364 0.82205
 C304 C 0.29939 0.88363 0.82622
 C305 C 0.32906 0.90509 0.84393
 C306 C 0.39135 0.90952 0.87737
 C307 C 0.41521 0.92882 0.89472
 H308 H 0.38906 0.83292 0.86514
 H309 H 0.33713 0.79498 0.83344
 H310 H 0.27434 0.89833 0.81621
 H311 H 0.32649 0.93579 0.84703
 C312 C 0.64894 0.89921 1.10872
 C313 C 0.67502 0.87969 1.08509
 C314 C 0.70277 0.85726 1.10269
 C315 C 0.70515 0.85403 1.14454
 C316 C 0.67799 0.87365 1.16772
 C317 C 0.65035 0.89593 1.14997
 C318 C 0.62059 0.92271 1.09098
 C319 C 0.59639 0.94254 1.07714
 H320 H 0.67422 0.88217 1.05302
 H321 H 0.72330 0.84410 1.08320
 H322 H 0.67687 0.87100 1.19968
 H323 H 0.62991 0.91053 1.16853
 C324 C 0.61803 1.11181 0.85959
 C325 C 0.62425 1.14958 0.87255
 C326 C 0.65269 1.17255 0.85500
 C327 C 0.67567 1.15819 0.82392
 C328 C 0.66841 1.11995 0.81106
 C329 C 0.64002 1.09721 0.82869
 C330 C 0.59115 1.08712 0.87987
 C331 C 0.56995 1.06633 0.89837
 H332 H 0.60737 1.16120 0.89659
 H333 H 0.65574 1.20180 0.86544
 H334 H 0.68590 1.10626 0.78889
 H335 H 0.63598 1.06778 0.81889
 C336 C 0.11812 0.36014 0.11389
 C337 C 0.13026 0.32874 0.09152
 C338 C 0.15074 0.29995 0.10971
 C339 C 0.15909 0.30225 0.15055
 C340 C 0.14825 0.33478 0.17236
 C341 C 0.12781 0.36352 0.15412
 C342 C 0.09351 0.38745 0.09627
 C343 C 0.07208 0.40959 0.08149
 H344 H 0.12277 0.32586 0.06036
 H345 H 0.15833 0.27502 0.09233
 H346 H 0.15467 0.33742 0.20378
 H347 H 0.11858 0.38778 0.17165
 C348 C -0.11415 0.35229 -0.11568
 C349 C -0.12511 0.36089 -0.15446
 C350 C -0.15130 0.33710 -0.17473
 C351 C -0.16686 0.30428 -0.15649
 C352 C -0.15692 0.29668 -0.11691
 C353 C -0.13061 0.32055 -0.09666
 C354 C -0.08531 0.37558 -0.09596
 C355 C -0.06126 0.39532 -0.07959
 H356 H -0.11279 0.38553 -0.16936
 H357 H -0.15873 0.34381 -0.20507
 H358 H -0.16815 0.27139 -0.10232
 H359 H -0.12241 0.31372 -0.06655
 C360 C 0.11930 0.61984 -0.14365
 C361 C 0.15930 0.62073 -0.14556
 C362 C 0.17860 0.65143 -0.16377
 C363 C 0.15799 0.68151 -0.18014
 C364 C 0.11786 0.68024 -0.17774
 C365 C 0.09876 0.64966 -0.15980
 C366 C 0.09881 0.59067 -0.12202
 C367 C 0.07997 0.56891 -0.10214
 H368 H 0.17551 0.59803 -0.13257
 H369 H 0.20948 0.65160 -0.16525
 H370 H 0.10112 0.70335 -0.18910
 H371 H 0.06788 0.64970 -0.15777
 C372 C -0.10488 0.64638 0.10027
 C373 C -0.11466 0.67953 0.08011
 C374 C -0.13884 0.70588 0.09810
 C375 C -0.15320 0.69928 0.13648
 C376 C -0.14453 0.66508 0.15567
 C377 C -0.12049 0.63884 0.13766
 C378 C -0.07747 0.62075 0.08390
 C379 C -0.05436 0.59859 0.07169
 H380 H -0.10273 0.68555 0.05109
 H381 H -0.14482 0.73218 0.08288
 H382 H -0.15553 0.65919 0.18509
 H383 H -0.11324 0.61315 0.15340
 C384 C 1.13108 0.11154 0.64025
 C385 C 1.15385 0.09336 0.66795
 C386 C 1.17211 0.11442 0.69828
 C387 C 1.16813 0.15455 0.70181
 C388 C 1.14486 0.17241 0.67338
 C389 C 1.12665 0.15111 0.64301
 C390 C 1.11104 0.08918 0.61017
 C391 C 1.09351 0.07003 0.58591
 H392 H 1.15701 0.06263 0.66657
 H393 H 1.18780 0.09843 0.71991
 H394 H 1.14148 0.20303 0.67339
 H395 H 1.10905 0.16557 0.62168
 C396 C 0.88324 -0.09959 0.65912
 C397 C 0.84373 -0.09929 0.66456
 C398 C 0.82658 -0.12033 0.69510
 C399 C 0.84860 -0.14234 0.72131
 C400 C 0.88855 -0.14277 0.71478
 C401 C 0.90555 -0.12157 0.68417
 C402 C 0.90074 -0.07669 0.62833
 C403 C 0.91486 -0.05696 0.60273
 H404 H 0.82602 -0.08271 0.64511
 H405 H 0.79579 -0.12002 0.69696
 H406 H 0.90737 -0.15786 0.73430
 H407 H 0.93626 -0.12187 0.68046
 C408 C 1.13346 -0.10662 0.37862
 C409 C 1.13298 -0.14632 0.38375
 C410 C 1.15281 -0.16988 0.35731
 C411 C 1.17339 -0.15398 0.32539
 C412 C 1.17378 -0.11401 0.32069
 C413 C 1.15400 -0.09058 0.34709
 C414 C 1.11118 -0.08242 0.40414
 C415 C 1.09141 -0.06217 0.42436
 H416 H 1.11696 -0.15910 0.40791
 H417 H 1.15216 -0.20047 0.36189
 H418 H 1.18866 -0.10086 0.29601
 H419 H 1.15422 -0.05998 0.34250
 C420 C 0.88094 0.10474 0.34696
 C421 C 0.84114 0.10573 0.34598
 C422 C 0.82260 0.12850 0.31849
 C423 C 0.84345 0.15102 0.29089
 C424 C 0.88383 0.15018 0.29292
 C425 C 0.90224 0.12721 0.32053
 C426 C 0.89954 0.08058 0.37520
 C427 C 0.91407 0.06012 0.39932
 H428 H 0.82428 0.08890 0.36667
 H429 H 0.79181 0.12915 0.32014
 H430 H 0.90163 0.16570 0.27210
 H431 H 0.93315 0.12664 0.32092
 C432 C 0.13420 0.37864 -0.11811
 C433 C 0.12961 0.37072 -0.15868
 C434 C 0.14853 0.34015 -0.17651
 C435 C 0.17245 0.31648 -0.15404
 C436 C 0.17748 0.32585 -0.11323
 C437 C 0.15853 0.35640 -0.09564
 C438 C 0.11047 0.40616 -0.09845
 C439 C 0.08852 0.42656 -0.08113
 H440 H 0.11066 0.38766 -0.17642
 H441 H 0.14458 0.33577 -0.20812
 H442 H 0.19397 0.30832 -0.09368
 H443 H 0.16170 0.36169 -0.06399
 C444 C -0.12148 0.37075 0.10481
 C445 C -0.11746 0.36841 0.14615
 C446 C -0.13568 0.33879 0.16695
 C447 C -0.15817 0.31115 0.14656
 C448 C -0.16210 0.31386 0.10501
 C449 C -0.14385 0.34342 0.08431
 C450 C -0.09973 0.39902 0.08323
 C451 C -0.07894 0.42144 0.06641
 H452 H -0.09977 0.38917 0.16224
 H453 H -0.13237 0.33758 0.19890
 H454 H -0.17867 0.29262 0.08837
 H455 H -0.14659 0.34452 0.05227
 C456 C -0.11048 0.63984 -0.09692
 C457 C -0.13521 0.66179 -0.07407
 C458 C -0.15424 0.69229 -0.09111
 C459 C -0.14873 0.70184 -0.13158
 C460 C -0.12393 0.67883 -0.15421
 C461 C -0.10512 0.64830 -0.13704
 C462 C -0.08830 0.61045 -0.07887
 C463 C -0.06759 0.58702 -0.06486
 H464 H -0.13909 0.65594 -0.04276
 H465 H -0.17157 0.70942 -0.07159
 H466 H -0.11958 0.68338 -0.18562
 H467 H -0.08601 0.63148 -0.15508
 C468 C 0.13497 0.62536 0.13655
 C469 C 0.11446 0.65131 0.15951
 C470 C 0.13357 0.67909 0.18271
 C471 C 0.17391 0.68180 0.18313
 C472 C 0.19407 0.65393 0.16119
 C473 C 0.17477 0.62622 0.13804
 C474 C 0.11475 0.59923 0.11025
 C475 C 0.09565 0.57886 0.08858
 H476 H 0.08353 0.65090 0.15851
 H477 H 0.11627 0.69984 0.19789
 H478 H 0.22489 0.65295 0.16198
 H479 H 0.19095 0.60585 0.12085
 C480 C 0.37187 1.12320 0.89745
 C481 C 0.37380 1.12700 0.85614
 C482 C 0.34668 1.14826 0.83616
 C483 C 0.31718 1.16597 0.85727
 C484 C 0.31638 1.16333 0.89897
 C485 C 0.34350 1.14194 0.91891
 C486 C 0.39640 1.09683 0.91694
 C487 C 0.41575 1.07283 0.93184
 H488 H 0.39551 1.11244 0.83922
 H489 H 0.34823 1.15014 0.80410
 H490 H 0.29374 1.17627 0.91596
 H491 H 0.34150 1.13886 0.95085
 C492 C 0.38209 0.86315 1.12796
 C493 C 0.38464 0.82406 1.13557
 C494 C 0.35777 0.80614 1.16042
 C495 C 0.32824 0.82728 1.17781
 C496 C 0.32654 0.86664 1.17037
 C497 C 0.35327 0.88436 1.14573
 C498 C 0.40821 0.88260 1.10187
 C499 C 0.42780 0.90297 1.08133
 H500 H 0.40699 0.80745 1.12206
 H501 H 0.35986 0.77581 1.16577
 H502 H 0.30372 0.88356 1.18247
 H503 H 0.35106 0.91464 1.13997
 C504 C 0.61485 1.13922 1.11967
 C505 C 0.64221 1.15883 1.09707
 C506 C 0.67346 1.17686 1.11562
 C507 C 0.67780 1.17559 1.15718
 C508 C 0.64935 1.15704 1.17986
 C509 C 0.61810 1.13883 1.16115
 C510 C 0.58708 1.11501 1.09977
 C511 C 0.56651 1.09245 1.08236
 H512 H 0.64035 1.15868 1.06492
 H513 H 0.69517 1.19018 1.09717
 H514 H 0.65173 1.15588 1.21191
 H515 H 0.59728 1.12326 1.17887
 C516 C 0.62935 0.87385 0.90475
 C517 C 0.65820 0.85944 0.92876
 C518 C 0.68981 0.84208 0.91145
 C519 C 0.69310 0.83918 0.86984
 C520 C 0.66334 0.85260 0.84603
 C521 C 0.63174 0.86987 0.86339
 C522 C 0.60002 0.89695 0.92201
 C523 C 0.57727 0.91891 0.93557
 H524 H 0.65698 0.86288 0.96078
 H525 H 0.71244 0.83244 0.93056
 H526 H 0.66484 0.85035 0.81395
 H527 H 0.60980 0.88125 0.84448
   
