data_POSCAR
  _audit_creation_date              2014-09-24
  _audit_creation_method            'ToBaCCo'
  _symmetry_space_group_name_H-M    'P1'
  _symmetry_Int_Tables_number       1
  _symmetry_cell_setting            triclinic
  loop_
  _symmetry_equiv_pos_as_xyz
 x,y,z
_cell_length_a 56.9008
_cell_length_b 57.3140
_cell_length_c 57.3247
_cell_angle_alpha 89.965300
_cell_angle_beta 90.017600
_cell_angle_gamma 89.996000
loop_
  _atom_site_label
  _atom_site_type_symbol
  _atom_site_fract_x
  _atom_site_fract_y
  _atom_site_fract_z
N1 N 0.30676 0.36811 1.35713
 N2 N 0.30763 0.35092 1.37233
 C3 C 0.28985 0.35333 1.38767
 C4 C 0.27737 0.37303 1.38161
 C5 C 0.28842 0.38205 1.36223
 H6 H 0.28616 0.34166 1.40204
 H7 H 0.28344 0.39747 1.35252
 Cu8 Cu 0.33180 0.32699 1.37041
 Cu9 Cu 0.32930 0.37105 1.33173
 Cu10 Cu 0.37299 0.32897 1.32842
 N11 N 0.35664 0.30373 1.36859
 N12 N 0.37271 0.30461 1.35211
 C13 C 0.38759 0.28651 1.35468
 C14 C 0.38036 0.27378 1.37377
 C15 C 0.36075 0.28502 1.38225
 H16 H 0.40242 0.28283 1.34347
 H17 H 0.35025 0.27986 1.39712
 N18 N 0.37032 0.35499 1.30607
 N19 N 0.35367 0.37101 1.30733
 C20 C 0.35644 0.38623 1.28961
 C21 C 0.37567 0.37938 1.27676
 C22 C 0.38411 0.35960 1.28752
 H23 H 0.34528 0.40113 1.28620
 H24 H 0.39909 0.34933 1.28214
 H25 H 0.33737 0.33598 1.32917
 H26 H 0.35649 0.35401 1.34854
 N27 N 1.19205 0.63157 0.85815
 N28 N 1.19095 0.64876 0.87333
 C29 C 1.20880 0.64660 0.88864
 C30 C 1.22158 0.62709 0.88262
 C31 C 1.21061 0.61792 0.86327
 H32 H 1.21238 0.65837 0.90295
 H33 H 1.21586 0.60262 0.85355
 Cu34 Cu 1.16648 0.67239 0.87125
 Cu35 Cu 1.16967 0.62839 0.83266
 Cu36 Cu 1.12555 0.67001 0.82903
 N37 N 1.14145 0.69543 0.86926
 N38 N 1.12547 0.69438 0.85269
 C39 C 1.11044 0.71238 0.85508
 C40 C 1.11747 0.72523 0.87415
 C41 C 1.13713 0.71417 0.88281
 H42 H 1.09567 0.71593 0.84374
 H43 H 1.14751 0.71946 0.89770
 N44 N 1.12859 0.64401 0.80674
 N45 N 1.14540 0.62815 0.80813
 C46 C 1.14300 0.61299 0.79032
 C47 C 1.12384 0.61971 0.77728
 C48 C 1.11507 0.63935 0.78801
 H49 H 1.15442 0.59831 0.78692
 H50 H 1.10011 0.64955 0.78242
 H51 H 1.16124 0.66338 0.82999
 H52 H 1.14219 0.64514 0.84924
 N53 N 0.69277 -0.13001 0.14225
 N54 N 0.69152 -0.14708 0.12695
 C55 C 0.70942 -0.14500 0.11169
 C56 C 0.72238 -0.12565 0.11786
 C57 C 0.71147 -0.11651 0.13726
 H58 H 0.71293 -0.15672 0.09733
 H59 H 0.71685 -0.10133 0.14710
 Cu60 Cu 0.66686 -0.17051 0.12886
 Cu61 Cu 0.67037 -0.12681 0.16774
 Cu62 Cu 0.62598 -0.16820 0.17107
 N63 N 0.64176 -0.19347 0.13069
 N64 N 0.62580 -0.19245 0.14728
 C65 C 0.61074 -0.21041 0.14481
 C66 C 0.61773 -0.22320 0.12570
 C67 C 0.63740 -0.21214 0.11708
 H68 H 0.59599 -0.21400 0.15616
 H69 H 0.64780 -0.21743 0.10220
 N70 N 0.62916 -0.14232 0.19349
 N71 N 0.64606 -0.12656 0.19223
 C72 C 0.64368 -0.11146 0.21009
 C73 C 0.62444 -0.11811 0.22303
 C74 C 0.61559 -0.13765 0.21219
 H75 H 0.65517 -0.09684 0.21359
 H76 H 0.60054 -0.14778 0.21766
 H77 H 0.66173 -0.16175 0.17018
 H78 H 0.64278 -0.14326 0.15106
 N79 N -0.19391 1.13033 -0.35772
 N80 N -0.19263 1.14746 -0.37296
 C81 C -0.21042 1.14536 -0.38836
 C82 C -0.22335 1.12594 -0.38232
 C83 C -0.21252 1.11677 -0.36287
 H84 H -0.21382 1.15706 -0.40278
 H85 H -0.21786 1.10147 -0.35317
 Cu86 Cu -0.16798 1.17090 -0.37098
 Cu87 Cu -0.17153 1.12699 -0.33222
 Cu88 Cu -0.12704 1.16823 -0.32877
 N89 N -0.14274 1.19371 -0.36908
 N90 N -0.12677 1.19257 -0.35250
 C91 C -0.11155 1.21039 -0.35502
 C92 C -0.11844 1.22322 -0.37416
 C93 C -0.13821 1.21232 -0.38275
 H94 H -0.09669 1.21380 -0.34374
 H95 H -0.14851 1.21762 -0.39770
 N96 N -0.13028 1.14230 -0.30641
 N97 N -0.14723 1.12659 -0.30771
 C98 C -0.14484 1.11138 -0.28993
 C99 C -0.12553 1.11791 -0.27700
 C100 C -0.11667 1.13749 -0.28778
 H101 H -0.15631 1.09673 -0.28651
 H102 H -0.10154 1.14751 -0.28232
 H103 H -0.16279 1.16190 -0.32969
 H104 H -0.14393 1.14345 -0.34891
 N105 N 0.69460 0.63010 0.64388
 N106 N 0.69368 0.64724 0.62862
 C107 C 0.71156 0.64489 0.61338
 C108 C 0.72418 0.62531 0.61954
 C109 C 0.71307 0.61629 0.63890
 H110 H 0.71525 0.65655 0.59900
 H111 H 0.71814 0.60096 0.64868
 Cu112 Cu 0.66935 0.67103 0.63040
 Cu113 Cu 0.67201 0.62712 0.66922
 Cu114 Cu 0.62809 0.66898 0.67229
 N115 N 0.64441 0.69419 0.63208
 N116 N 0.62832 0.69328 0.64853
 C117 C 0.61337 0.71130 0.64588
 C118 C 0.62054 0.72405 0.62679
 C119 C 0.64023 0.71286 0.61838
 H120 H 0.59850 0.71494 0.65705
 H121 H 0.65070 0.71803 0.60351
 N122 N 0.63082 0.64305 0.69472
 N123 N 0.64755 0.62710 0.69356
 C124 C 0.64482 0.61194 0.71134
 C125 C 0.62552 0.61876 0.72412
 C126 C 0.61701 0.63845 0.71325
 H127 H 0.65605 0.59712 0.71485
 H128 H 0.60198 0.64868 0.71857
 H129 H 0.64477 0.64394 0.65231
 H130 H 0.66376 0.66215 0.67165
 N131 N 0.80838 0.37192 0.14182
 N132 N 0.80990 0.35549 0.12588
 C133 C 0.79214 0.35804 0.11053
 C134 C 0.77899 0.37705 0.11730
 C135 C 0.78964 0.38550 0.13716
 H136 H 0.78887 0.34688 0.09568
 H137 H 0.78408 0.40029 0.14749
 Cu138 Cu 0.83469 0.33212 0.12691
 Cu139 Cu 0.83055 0.37430 0.16756
 Cu140 Cu 0.87424 0.33226 0.17059
 N141 N 0.85893 0.30831 0.12930
 N142 N 0.87435 0.30845 0.14641
 C143 C 0.88884 0.29001 0.14407
 C144 C 0.88205 0.27781 0.12450
 C145 C 0.86308 0.28974 0.11550
 H146 H 0.90309 0.28570 0.15579
 H147 H 0.85301 0.28509 0.10019
 N148 N 0.87127 0.35776 0.19342
 N149 N 0.85461 0.37379 0.19228
 C150 C 0.85716 0.38864 0.21032
 C151 C 0.87627 0.38154 0.22325
 C152 C 0.88484 0.36200 0.21220
 H153 H 0.84597 0.40347 0.21387
 H154 H 0.89980 0.35165 0.21754
 H155 H 0.85840 0.35816 0.15100
 H156 H 0.83858 0.33912 0.16868
 N157 N 0.30655 0.13254 0.85639
 N158 N 0.30760 0.14974 0.87154
 C159 C 0.28978 0.14753 0.88688
 C160 C 0.27707 0.12796 0.88090
 C161 C 0.28805 0.11882 0.86154
 H162 H 0.28622 0.15925 0.90122
 H163 H 0.28291 0.10343 0.85190
 Cu164 Cu 0.33203 0.17340 0.86956
 Cu165 Cu 0.32905 0.12931 0.83101
 Cu166 Cu 0.37323 0.17086 0.82759
 N167 N 0.35715 0.19635 0.86769
 N168 N 0.37322 0.19525 0.85123
 C169 C 0.38833 0.21315 0.85380
 C170 C 0.38128 0.22601 0.87285
 C171 C 0.36151 0.21501 0.88132
 H172 H 0.40323 0.21663 0.84262
 H173 H 0.35111 0.22029 0.89619
 N174 N 0.37026 0.14485 0.80531
 N175 N 0.35342 0.12902 0.80661
 C176 C 0.35598 0.11377 0.78891
 C177 C 0.37528 0.12038 0.77603
 C178 C 0.38397 0.14006 0.78675
 H179 H 0.34462 0.09903 0.78552
 H180 H 0.39905 0.15017 0.78131
 H181 H 0.35643 0.14606 0.84778
 H182 H 0.33753 0.16428 0.82835
 N183 N 0.19151 0.86865 0.35784
 N184 N 0.18977 0.85208 0.37364
 C185 C 0.20765 0.85418 0.38893
 C186 C 0.22109 0.87303 0.38226
 C187 C 0.21049 0.88186 0.36254
 H188 H 0.21080 0.84280 0.40365
 H189 H 0.21627 0.89664 0.35229
 Cu190 Cu 0.16460 0.82913 0.37246
 Cu191 Cu 0.16933 0.87163 0.33217
 Cu192 Cu 0.12497 0.83034 0.32883
 N193 N 0.13997 0.80572 0.36988
 N194 N 0.12453 0.80628 0.35280
 C195 C 0.10976 0.78805 0.35499
 C196 C 0.11638 0.77553 0.37443
 C197 C 0.13555 0.78707 0.38352
 H198 H 0.09542 0.78408 0.34325
 H199 H 0.14558 0.78210 0.39876
 N200 N 0.12833 0.85601 0.30622
 N201 N 0.14524 0.87176 0.30749
 C202 C 0.14300 0.88677 0.28952
 C203 C 0.12383 0.88008 0.27649
 C204 C 0.11489 0.86060 0.28740
 H205 H 0.15450 0.90138 0.28604
 H206 H 0.09983 0.85049 0.28192
 H207 H 0.14125 0.85576 0.34863
 H208 H 0.16074 0.83658 0.33075
 Zn209 Zn 0.00290 1.02954 -0.01322
 Zn210 Zn -0.01824 0.98200 -0.01872
 Zn211 Zn 0.02943 0.98750 0.00279
 Zn212 Zn -0.01324 1.00317 0.02878
 O213 O 0.00020 1.00054 -0.00010
 O214 O -0.01275 1.03201 -0.04018
 O215 O -0.00306 0.95653 -0.02893
 O216 O 0.05239 1.00607 -0.00785
 O217 O -0.02849 0.99687 -0.04434
 O218 O 0.03270 1.03727 -0.01970
 O219 O 0.03219 0.96072 -0.01300
 O220 O 0.00522 0.99235 0.05169
 O221 O -0.04403 0.97157 -0.00401
 O222 O 0.03685 0.98067 0.03240
 O223 O -0.04019 0.98727 0.03112
 O224 O -0.02031 1.03269 0.03628
 O225 O -0.00838 1.05225 0.00510
 C226 C -0.02515 1.01754 -0.05149
 C227 C 0.01776 0.94945 -0.02551
 C228 C 0.05180 1.02626 -0.01686
 C229 C 0.02554 0.98332 0.05126
 C230 C -0.05137 0.97482 0.01662
 C231 C -0.01767 1.05164 0.02518
 Zn232 Zn 0.51281 -0.00338 0.52889
 Zn233 Zn 0.51731 0.01767 0.48126
 Zn234 Zn 0.49650 -0.02999 0.48712
 Zn235 Zn 0.46985 0.01194 0.50314
 O236 O 0.49913 -0.00092 0.50009
 O237 O 0.53972 0.01263 0.53095
 O238 O 0.52750 0.00275 0.45566
 O239 O 0.50789 -0.05260 0.50554
 O240 O 0.54314 0.02832 0.49575
 O241 O 0.51998 -0.03285 0.53653
 O242 O 0.51207 -0.03249 0.46013
 O243 O 0.44693 -0.00676 0.49268
 O244 O 0.50189 0.04301 0.47100
 O245 O 0.46671 -0.03785 0.48074
 O246 O 0.46681 0.03864 0.48725
 O247 O 0.46260 0.01884 0.53276
 O248 O 0.49449 0.00749 0.55186
 C249 C 0.55069 0.02513 0.51632
 C250 C 0.52429 -0.01799 0.44866
 C251 C 0.51727 -0.05186 0.52558
 C252 C 0.44756 -0.02693 0.48365
 C253 C 0.48104 0.04996 0.47456
 C254 C 0.47410 0.01639 0.55154
 Zn255 Zn 1.00431 0.46906 0.48784
 Zn256 Zn 1.03022 0.51146 0.50384
 Zn257 Zn 0.98251 0.51631 0.48226
 Zn258 Zn 0.98775 0.49518 0.52980
 O259 O 1.00118 0.49802 0.50092
 O260 O 1.03423 0.46175 0.48141
 O261 O 1.03262 0.53829 0.48805
 O262 O 0.97258 0.50134 0.45660
 O263 O 1.05345 0.49324 0.49323
 O264 O 0.98880 0.46642 0.46082
 O265 O 0.99733 0.54202 0.47209
 O266 O 0.96057 0.51070 0.53208
 O267 O 1.03750 0.51837 0.53344
 O268 O 0.95654 0.52635 0.49693
 O269 O 1.00602 0.50627 0.55272
 O270 O 0.98111 0.46556 0.53732
 O271 O 0.99333 0.44618 0.50615
 C272 C 1.05317 0.47304 0.48425
 C273 C 1.01805 0.54938 0.47553
 C274 C 0.97627 0.48073 0.44945
 C275 C 0.94923 0.52299 0.51755
 C276 C 1.02622 0.51558 0.55229
 C277 C 0.98403 0.44666 0.52623
 Zn278 Zn 0.51333 0.50407 1.02970
 Zn279 Zn 0.51804 0.48297 0.98214
 Zn280 Zn 0.47055 0.48798 1.00414
 Zn281 Zn 0.49647 0.53030 0.98788
 O282 O 0.49961 0.50132 1.00095
 O283 O 0.54051 0.48853 1.03173
 O284 O 0.50302 0.45736 0.97205
 O285 O 0.46351 0.48103 1.03381
 O286 O 0.54410 0.47282 0.99658
 O287 O 0.49528 0.49295 1.05276
 O288 O 0.46790 0.46119 0.98835
 O289 O 0.46653 0.53767 0.98159
 O290 O 0.52787 0.49797 0.95645
 O291 O 0.44729 0.50630 0.99369
 O292 O 0.51188 0.53298 0.96081
 O293 O 0.50757 0.55314 1.00617
 O294 O 0.52004 0.53366 1.03721
 C295 C 0.55166 0.47619 1.01711
 C296 C 0.48230 0.45008 0.97567
 C297 C 0.47504 0.48372 1.05254
 C298 C 0.44758 0.52646 0.98461
 C299 C 0.52429 0.51863 0.94937
 C300 C 0.51701 0.55259 1.02618
 C301 C 1.25788 0.38160 0.39229
 C302 C 1.24053 0.38925 0.40162
 C303 C 1.21975 0.39847 0.41254
 C304 C 1.21514 0.42243 0.41172
 C305 C 1.19472 0.43138 0.42190
 C306 C 1.17860 0.41644 0.43302
 C307 C 1.18348 0.39238 0.43388
 C308 C 1.20393 0.38347 0.42371
 C309 C 1.15661 0.42588 0.44327
 C310 C 1.13520 0.41390 0.44053
 C311 C 1.11436 0.42316 0.44954
 C312 C 1.11464 0.44447 0.46145
 C313 C 1.13588 0.45640 0.46450
 C314 C 1.15673 0.44718 0.45548
 C315 C 1.09304 0.45438 0.46994
 C316 C 1.07487 0.46283 0.47668
 H317 H 1.22723 0.43418 0.40305
 H318 H 1.19131 0.44993 0.42066
 H319 H 1.17156 0.38048 0.44255
 H320 H 1.20736 0.36489 0.42448
 H321 H 1.13446 0.39764 0.43096
 H322 H 1.09800 0.41384 0.44698
 H323 H 1.13629 0.47290 0.47370
 H324 H 1.17297 0.45666 0.45814
 C325 C 0.24245 0.61844 0.89376
 C326 C 0.26005 0.61110 0.90289
 C327 C 0.28116 0.60226 0.91353
 C328 C 0.27978 0.58679 0.93238
 C329 C 0.30030 0.57783 0.94239
 C330 C 0.32249 0.58424 0.93366
 C331 C 0.32368 0.59993 0.91480
 C332 C 0.30314 0.60885 0.90481
 C333 C 0.34431 0.57434 0.94389
 C334 C 0.36437 0.58837 0.94697
 C335 C 0.38510 0.57886 0.95597
 C336 C 0.38608 0.55522 0.96202
 C337 C 0.36617 0.54116 0.95923
 C338 C 0.34541 0.55064 0.95025
 C339 C 0.40768 0.54523 0.97045
 C340 C 0.42586 0.53674 0.97714
 H341 H 0.26284 0.58161 0.93930
 H342 H 0.29881 0.56602 0.95707
 H343 H 0.34047 0.60495 0.90747
 H344 H 0.30441 0.62074 0.89016
 H345 H 0.36399 0.60673 0.94252
 H346 H 0.40041 0.58990 0.95807
 H347 H 0.36677 0.52281 0.96374
 H348 H 0.33038 0.53932 0.94781
 C349 C -0.25664 0.88284 0.10683
 C350 C -0.23894 0.89000 0.09777
 C351 C -0.21770 0.89862 0.08721
 C352 C -0.21856 0.91034 0.06580
 C353 C -0.19795 0.91909 0.05581
 C354 C -0.17618 0.91622 0.06712
 C355 C -0.17550 0.90427 0.08857
 C356 C -0.19613 0.89555 0.09853
 C357 C -0.15432 0.92598 0.05685
 C358 C -0.13311 0.91340 0.05787
 C359 C -0.11238 0.92294 0.04889
 C360 C -0.11258 0.94516 0.03875
 C361 C -0.13363 0.95771 0.03742
 C362 C -0.15438 0.94820 0.04638
 C363 C -0.09106 0.95539 0.03043
 C364 C -0.07296 0.96415 0.02388
 H365 H -0.23517 0.91276 0.05687
 H366 H -0.19901 0.92796 0.03916
 H367 H -0.15908 0.90206 0.09787
 H368 H -0.19527 0.88658 0.11515
 H369 H -0.13255 0.89614 0.06555
 H370 H -0.09618 0.91307 0.05001
 H371 H -0.13395 0.97499 0.02973
 H372 H -0.17035 0.95845 0.04560
 C373 C 0.75591 0.11728 0.60633
 C374 C 0.73844 0.10993 0.59697
 C375 C 0.71751 0.10102 0.58603
 C376 C 0.71483 0.07700 0.58265
 C377 C 0.69428 0.06824 0.57255
 C378 C 0.67610 0.08342 0.56571
 C379 C 0.67905 0.10758 0.56901
 C380 C 0.69963 0.11630 0.57910
 C381 C 0.65397 0.07403 0.55566
 C382 C 0.63209 0.08338 0.56227
 C383 C 0.61122 0.07397 0.55349
 C384 C 0.61192 0.05515 0.53796
 C385 C 0.63359 0.04591 0.53105
 C386 C 0.65449 0.05528 0.53982
 C387 C 0.59038 0.04482 0.52979
 C388 C 0.57228 0.03595 0.52339
 H389 H 0.72852 0.06501 0.58803
 H390 H 0.69242 0.04955 0.57055
 H391 H 0.66551 0.11973 0.56366
 H392 H 0.70155 0.13494 0.58159
 H393 H 0.63108 0.09759 0.57466
 H394 H 0.59454 0.08117 0.55906
 H395 H 0.63433 0.03134 0.51904
 H396 H 0.67105 0.04791 0.53417
 C397 C 0.39023 0.25390 0.38222
 C398 C 0.39883 0.23621 0.38974
 C399 C 0.40887 0.21500 0.39878
 C400 C 0.39417 0.19702 0.40650
 C401 C 0.40382 0.17640 0.41533
 C402 C 0.42835 0.17349 0.41657
 C403 C 0.44299 0.19169 0.40877
 C404 C 0.43329 0.21230 0.39992
 C405 C 0.43855 0.15161 0.42608
 C406 C 0.45823 0.15229 0.44095
 C407 C 0.46745 0.13170 0.45033
 C408 C 0.45717 0.11018 0.44494
 C409 C 0.43774 0.10931 0.43000
 C410 C 0.42849 0.12986 0.42062
 C411 C 0.46612 0.08904 0.45518
 C412 C 0.47318 0.07124 0.46393
 H413 H 0.37524 0.19897 0.40577
 H414 H 0.39208 0.16287 0.42151
 H415 H 0.46192 0.18987 0.40926
 H416 H 0.44483 0.22609 0.39394
 H417 H 0.46619 0.16877 0.44570
 H418 H 0.48243 0.13259 0.46197
 H419 H 0.42966 0.09274 0.42570
 H420 H 0.41353 0.12873 0.40899
 C421 C 0.89192 0.24283 0.61735
 C422 C 0.90100 0.26027 0.60979
 C423 C 0.91168 0.28113 0.60069
 C424 C 0.92092 0.29787 0.61591
 C425 C 0.93095 0.31832 0.60708
 C426 C 0.93189 0.32228 0.58287
 C427 C 0.92266 0.30527 0.56771
 C428 C 0.91262 0.28486 0.57658
 C429 C 0.94214 0.34418 0.57344
 C430 C 0.95619 0.34380 0.55325
 C431 C 0.96532 0.36451 0.54406
 C432 C 0.96054 0.38585 0.55492
 C433 C 0.94675 0.38639 0.57512
 C434 C 0.93762 0.36571 0.58435
 C435 C 0.96925 0.40724 0.54501
 C436 C 0.97620 0.42521 0.53653
 H437 H 0.92032 0.29514 0.63461
 H438 H 0.93814 0.33094 0.61918
 H439 H 0.92282 0.30795 0.54901
 H440 H 0.90544 0.27205 0.56465
 H441 H 0.96024 0.32748 0.54463
 H442 H 0.97599 0.36389 0.52843
 H443 H 0.94284 0.40283 0.58360
 H444 H 0.92662 0.36661 0.59973
 C445 C 0.10744 0.74511 -0.11761
 C446 C 0.09866 0.76279 -0.11028
 C447 C 0.08838 0.78397 -0.10149
 C448 C 0.06672 0.78336 -0.08993
 C449 C 0.05692 0.80391 -0.08109
 C450 C 0.06866 0.82536 -0.08372
 C451 C 0.09036 0.82579 -0.09549
 C452 C 0.10014 0.80522 -0.10429
 C453 C 0.05853 0.84715 -0.07395
 C454 C 0.05989 0.86825 -0.08646
 C455 C 0.05093 0.88887 -0.07695
 C456 C 0.04049 0.88869 -0.05485
 C457 C 0.03886 0.86777 -0.04237
 C458 C 0.04779 0.84712 -0.05184
 C459 C 0.03205 0.91008 -0.04472
 C460 C 0.02533 0.92803 -0.03605
 H461 H 0.05744 0.76700 -0.08771
 H462 H 0.04006 0.80305 -0.07237
 H463 H 0.09999 0.84196 -0.09751
 H464 H 0.11695 0.80588 -0.11313
 H465 H 0.06778 0.86878 -0.10364
 H466 H 0.05227 0.90497 -0.08677
 H467 H 0.03092 0.86746 -0.02519
 H468 H 0.04675 0.83124 -0.04166
 C469 C 0.60773 0.75692 1.11743
 C470 C 0.59902 0.73922 1.11007
 C471 C 0.58885 0.71800 1.10126
 C472 C 0.56547 0.71764 1.09368
 C473 C 0.55570 0.69705 1.08489
 C474 C 0.56922 0.67653 1.08359
 C475 C 0.59269 0.67707 1.09134
 C476 C 0.60242 0.69767 1.10009
 C477 C 0.55902 0.65470 1.07399
 C478 C 0.56412 0.63300 1.08432
 C479 C 0.55497 0.61241 1.07494
 C480 C 0.54060 0.61321 1.05514
 C481 C 0.53526 0.63471 1.04484
 C482 C 0.54438 0.65533 1.05421
 C483 C 0.53185 0.59192 1.04507
 C484 C 0.52487 0.57400 1.03652
 H485 H 0.55479 0.73327 1.09456
 H486 H 0.53752 0.69712 1.07933
 H487 H 0.60365 0.66166 1.09026
 H488 H 0.62056 0.69778 1.10584
 H489 H 0.57508 0.63196 1.09973
 H490 H 0.55920 0.59585 1.08305
 H491 H 0.52426 0.63551 1.02944
 H492 H 0.54038 0.67172 1.04568
 C493 C 0.38484 0.39033 1.25615
 C494 C 0.39258 0.39939 1.23880
 C495 C 0.40190 0.41001 1.21802
 C496 C 0.42328 0.40225 1.20879
 C497 C 0.43228 0.41234 1.18848
 C498 C 0.41999 0.43036 1.17709
 C499 C 0.39853 0.43808 1.18654
 C500 C 0.38957 0.42797 1.20688
 C501 C 0.42944 0.44086 1.15534
 C502 C 0.41440 0.44617 1.13657
 C503 C 0.42342 0.45550 1.11588
 C504 C 0.44755 0.45969 1.11369
 C505 C 0.46261 0.45467 1.13232
 C506 C 0.45364 0.44533 1.15301
 C507 C 0.45697 0.46859 1.09216
 C508 C 0.46509 0.47570 1.07408
 H509 H 0.43292 0.38829 1.21723
 H510 H 0.44866 0.40578 1.18146
 H511 H 0.38880 0.45210 1.17833
 H512 H 0.37302 0.43413 1.21390
 H513 H 0.39574 0.44266 1.13771
 H514 H 0.41161 0.45922 1.10152
 H515 H 0.48132 0.45786 1.13082
 H516 H 0.46562 0.44172 1.16725
 C517 C 0.61578 -0.10735 0.24396
 C518 C 0.60850 -0.09849 0.26160
 C519 C 0.59976 -0.08816 0.28277
 C520 C 0.60341 -0.09935 0.30417
 C521 C 0.59466 -0.08956 0.32473
 C522 C 0.58209 -0.06841 0.32416
 C523 C 0.57861 -0.05724 0.30257
 C524 C 0.58740 -0.06706 0.28201
 C525 C 0.57239 -0.05828 0.34598
 C526 C 0.54980 -0.04828 0.34623
 C527 C 0.54038 -0.03939 0.36693
 C528 C 0.55341 -0.04033 0.38762
 C529 C 0.57598 -0.05001 0.38751
 C530 C 0.58543 -0.05892 0.36684
 C531 C 0.54334 -0.03199 0.40908
 C532 C 0.53474 -0.02537 0.42713
 H533 H 0.61288 -0.11573 0.30494
 H534 H 0.59734 -0.09876 0.34102
 H535 H 0.56926 -0.04081 0.30159
 H536 H 0.58451 -0.05823 0.26554
 H537 H 0.53920 -0.04779 0.33055
 H538 H 0.52284 -0.03204 0.36684
 H539 H 0.58622 -0.05082 0.40342
 H540 H 0.60298 -0.06622 0.36715
 C541 C -0.11671 1.10689 -0.25626
 C542 C -0.10924 1.09781 -0.23880
 C543 C -0.10022 1.08718 -0.21788
 C544 C -0.11565 1.07973 -0.20039
 C545 C -0.10686 1.06988 -0.17984
 C546 C -0.08249 1.06735 -0.17652
 C547 C -0.06714 1.07474 -0.19430
 C548 C -0.07597 1.08460 -0.21482
 C549 C -0.07307 1.05744 -0.15447
 C550 C -0.05372 1.04214 -0.15477
 C551 C -0.04445 1.03338 -0.13394
 C552 C -0.05438 1.03977 -0.11255
 C553 C -0.07376 1.05480 -0.11206
 C554 C -0.08307 1.06357 -0.13287
 C555 C -0.04429 1.03147 -0.09107
 C556 C -0.03565 1.02489 -0.07302
 H557 H -0.13447 1.08160 -0.20260
 H558 H -0.11914 1.06409 -0.16661
 H559 H -0.04828 1.07334 -0.19215
 H560 H -0.06386 1.09039 -0.22821
 H561 H -0.04582 1.03687 -0.17112
 H562 H -0.02945 1.02175 -0.13451
 H563 H -0.08151 1.05995 -0.09559
 H564 H -0.09776 1.07554 -0.13202
 C565 C 1.11525 0.60894 0.75633
 C566 C 1.10808 0.60004 0.73867
 C567 C 1.09950 0.58962 0.71748
 C568 C 1.09487 0.56565 0.71655
 C569 C 1.08640 0.55560 0.69598
 C570 C 1.08248 0.56941 0.67605
 C571 C 1.08725 0.59348 0.67717
 C572 C 1.09569 0.60349 0.69775
 C573 C 1.07324 0.55886 0.65424
 C574 C 1.08199 0.56590 0.63238
 C575 C 1.07285 0.55644 0.61183
 C576 C 1.05486 0.53982 0.61282
 C577 C 1.04619 0.53252 0.63447
 C578 C 1.05533 0.54195 0.65506
 C579 C 1.04491 0.53078 0.59159
 C580 C 1.03644 0.52360 0.57370
 H581 H 1.09782 0.55474 0.73171
 H582 H 1.08315 0.53699 0.69558
 H583 H 1.08409 0.60463 0.66224
 H584 H 1.09915 0.62207 0.69830
 H585 H 1.09598 0.57865 0.63119
 H586 H 1.07970 0.56220 0.59516
 H587 H 1.03219 0.51974 0.63543
 H588 H 1.04803 0.53638 0.67159
 C589 C 0.74493 0.61640 0.60842
 C590 C 0.76243 0.60889 0.59926
 C591 C 0.78341 0.59987 0.58854
 C592 C 0.78181 0.58423 0.56987
 C593 C 0.80221 0.57513 0.55976
 C594 C 0.82451 0.58159 0.56821
 C595 C 0.82591 0.59744 0.58690
 C596 C 0.80550 0.60649 0.59699
 C597 C 0.84621 0.57157 0.55788
 C598 C 0.86624 0.58555 0.55443
 C599 C 0.88689 0.57591 0.54541
 C600 C 0.88780 0.55219 0.53970
 C601 C 0.86791 0.53819 0.54282
 C602 C 0.84723 0.54780 0.55182
 C603 C 0.90936 0.54205 0.53135
 C604 C 0.92752 0.53343 0.52480
 H605 H 0.76480 0.57902 0.56316
 H606 H 0.80056 0.56318 0.54523
 H607 H 0.84279 0.60250 0.59402
 H608 H 0.80694 0.61851 0.61150
 H609 H 0.86591 0.60396 0.55865
 H610 H 0.90220 0.58691 0.54305
 H611 H 0.86846 0.51978 0.53857
 H612 H 0.83222 0.53651 0.55455
 C613 C 0.75816 0.38591 1.10626
 C614 C 0.74063 0.39336 1.09710
 C615 C 0.71961 0.40229 1.08636
 C616 C 0.70311 0.38695 1.07675
 C617 C 0.68245 0.39562 1.06676
 C618 C 0.67804 0.41977 1.06625
 C619 C 0.69484 0.43505 1.07580
 C620 C 0.71547 0.42635 1.08579
 C621 C 0.65583 0.42900 1.05623
 C622 C 0.65585 0.44952 1.04272
 C623 C 0.63481 0.45861 1.03398
 C624 C 0.61350 0.44734 1.03860
 C625 C 0.61332 0.42679 1.05179
 C626 C 0.63433 0.41765 1.06053
 C627 C 0.59175 0.45727 1.03049
 C628 C 0.57347 0.46579 1.02413
 H629 H 0.70617 0.36830 1.07705
 H630 H 0.66999 0.38344 1.05930
 H631 H 0.69182 0.45370 1.07596
 H632 H 0.72809 0.43838 1.09326
 H633 H 0.67214 0.45848 1.03886
 H634 H 0.63515 0.47453 1.02379
 H635 H 0.59690 0.41800 1.05558
 H636 H 0.63369 0.40201 1.07112
 C637 C 0.25640 1.11911 -0.10779
 C638 C 0.23899 1.11158 -0.09847
 C639 C 0.21813 1.10246 -0.08759
 C640 C 0.20020 1.11758 -0.08050
 C641 C 0.17967 1.10866 -0.07047
 C642 C 0.17683 1.08445 -0.06740
 C643 C 0.19507 1.06942 -0.07442
 C644 C 0.21556 1.07838 -0.08445
 C645 C 0.15478 1.07487 -0.05738
 C646 C 0.15543 1.05598 -0.04168
 C647 C 0.13460 1.04652 -0.03284
 C648 C 0.11287 1.05580 -0.03954
 C649 C 0.11205 1.07473 -0.05495
 C650 C 0.13284 1.08423 -0.06380
 C651 C 0.09141 1.04554 -0.03112
 C652 C 0.07335 1.03681 -0.02441
 H653 H 0.20203 1.13626 -0.08281
 H654 H 0.16609 1.12070 -0.06499
 H655 H 0.19329 1.05070 -0.07259
 H656 H 0.22930 1.06651 -0.08996
 H657 H 0.17204 1.04859 -0.03617
 H658 H 0.13544 1.03189 -0.02090
 H659 H 0.09532 1.08198 -0.06033
 H660 H 0.13173 1.09855 -0.07607
 C661 C 0.24216 -0.11858 0.39321
 C662 C 0.25992 -0.11146 0.40219
 C663 C 0.28121 -0.10285 0.41266
 C664 C 0.30267 -0.10549 0.40105
 C665 C 0.32334 -0.09677 0.41094
 C666 C 0.32281 -0.08525 0.43261
 C667 C 0.30115 -0.08280 0.44421
 C668 C 0.28050 -0.09156 0.43428
 C669 C 0.34470 -0.07552 0.44283
 C670 C 0.34457 -0.05353 0.45375
 C671 C 0.36533 -0.04405 0.46273
 C672 C 0.38646 -0.05641 0.46097
 C673 C 0.38674 -0.07840 0.45037
 C674 C 0.36601 -0.08791 0.44136
 C675 C 0.40796 -0.04624 0.46941
 C676 C 0.42602 -0.03753 0.47613
 H677 H 0.30341 -0.11413 0.38425
 H678 H 0.33966 -0.09865 0.40142
 H679 H 0.30021 -0.07428 0.46103
 H680 H 0.26398 -0.08946 0.44344
 H681 H 0.32853 -0.04343 0.45488
 H682 H 0.36494 -0.02696 0.47079
 H683 H 0.40300 -0.08812 0.44892
 H684 H 0.36662 -0.10499 0.43334
 C685 C 0.60997 -0.25505 0.61779
 C686 C 0.60118 -0.23745 0.61026
 C687 C 0.59084 -0.21636 0.60127
 C688 C 0.60401 -0.19577 0.60055
 C689 C 0.59408 -0.17529 0.59170
 C690 C 0.57079 -0.17514 0.58342
 C691 C 0.55767 -0.19594 0.58426
 C692 C 0.56764 -0.21641 0.59314
 C693 C 0.56035 -0.15343 0.57375
 C694 C 0.54619 -0.15419 0.55364
 C695 C 0.53686 -0.13367 0.54421
 C696 C 0.54152 -0.11215 0.55478
 C697 C 0.55540 -0.11124 0.57491
 C698 C 0.56476 -0.13173 0.58435
 C699 C 0.53256 -0.09096 0.54465
 C700 C 0.52539 -0.07314 0.53602
 H701 H 0.62201 -0.19556 0.60673
 H702 H 0.60474 -0.15965 0.59099
 H703 H 0.53962 -0.19633 0.57827
 H704 H 0.55726 -0.23225 0.59368
 H705 H 0.54272 -0.17058 0.54491
 H706 H 0.52623 -0.13456 0.52856
 H707 H 0.55909 -0.09468 0.58325
 H708 H 0.57533 -0.13061 0.60002
 C709 C 1.10589 0.75446 0.38312
 C710 C 1.09724 0.73672 0.39047
 C711 C 1.08713 0.71546 0.39930
 C712 C 1.06556 0.71593 0.41101
 C713 C 1.05593 0.69532 0.41991
 C714 C 1.06778 0.67394 0.41719
 C715 C 1.08940 0.67365 0.40528
 C716 C 1.09900 0.69428 0.39641
 C717 C 1.05783 0.65207 0.42700
 C718 C 1.05924 0.63101 0.41446
 C719 C 1.05044 0.61032 0.42400
 C720 C 1.04012 0.61039 0.44615
 C721 C 1.03843 0.63128 0.45867
 C722 C 1.04720 0.65199 0.44916
 C723 C 1.03188 0.58893 0.45631
 C724 C 1.02534 0.57090 0.46499
 H725 H 1.05620 0.73224 0.41330
 H726 H 1.03913 0.69607 0.42875
 H727 H 1.09911 0.65754 0.40318
 H728 H 1.11575 0.69373 0.38745
 H729 H 1.06704 0.63055 0.39725
 H730 H 1.05183 0.59424 0.41415
 H731 H 1.03059 0.63150 0.47588
 H732 H 1.04613 0.66784 0.45937
 C733 C -0.10776 1.25670 0.11560
 C734 C -0.09938 1.23892 0.10807
 C735 C -0.08960 1.21763 0.09898
 C736 C -0.06701 1.21052 0.10557
 C737 C -0.05760 1.18977 0.09678
 C738 C -0.07069 1.17584 0.08131
 C739 C -0.09337 1.18317 0.07478
 C740 C -0.10273 1.20392 0.08356
 C741 C -0.06080 1.15374 0.07199
 C742 C -0.07506 1.13381 0.06977
 C743 C -0.06587 1.11311 0.06069
 C744 C -0.04234 1.11202 0.05370
 C745 C -0.02796 1.13170 0.05596
 C746 C -0.03711 1.15243 0.06507
 C747 C -0.03315 1.09080 0.04387
 C748 C -0.02585 1.07295 0.03544
 H749 H -0.05672 1.22098 0.11755
 H750 H -0.04021 1.18446 0.10234
 H751 H -0.10376 1.17301 0.06265
 H752 H -0.12020 1.20930 0.07830
 H753 H -0.09327 1.13416 0.07524
 H754 H -0.07715 1.09796 0.05905
 H755 H -0.00973 1.13107 0.05053
 H756 H -0.02577 1.16755 0.06630
 C757 C 0.39203 0.24682 0.88182
 C758 C 0.40091 0.26434 0.88939
 C759 C 0.41130 0.28535 0.89848
 C760 C 0.40050 0.30692 0.89449
 C761 C 0.41036 0.32732 0.90356
 C762 C 0.43117 0.32642 0.91680
 C763 C 0.44194 0.30464 0.92065
 C764 C 0.43206 0.28426 0.91153
 C765 C 0.44140 0.34806 0.92678
 C766 C 0.45059 0.34819 0.94957
 C767 C 0.45961 0.36873 0.95920
 C768 C 0.45960 0.38939 0.94618
 C769 C 0.45071 0.38940 0.92342
 C770 C 0.44167 0.36889 0.91376
 C771 C 0.46808 0.41072 0.95641
 C772 C 0.47480 0.42865 0.96512
 H773 H 0.38437 0.30795 0.88449
 H774 H 0.40147 0.34376 0.90058
 H775 H 0.45812 0.30341 0.93053
 H776 H 0.44059 0.26765 0.91469
 H777 H 0.45035 0.33252 0.96014
 H778 H 0.46633 0.36856 0.97688
 H779 H 0.45063 0.40530 0.91318
 H780 H 0.43499 0.36928 0.89608
 C781 C 0.61638 0.60790 0.74479
 C782 C 0.60861 0.59897 0.76220
 C783 C 0.59920 0.58856 0.78305
 C784 C 0.57600 0.59316 0.78970
 C785 C 0.56690 0.58337 0.81012
 C786 C 0.58092 0.56884 0.82421
 C787 C 0.60420 0.56424 0.81733
 C788 C 0.61326 0.57404 0.79687
 C789 C 0.57134 0.55881 0.84613
 C790 C 0.58520 0.55795 0.86646
 C791 C 0.57594 0.54913 0.88726
 C792 C 0.55275 0.54101 0.88802
 C793 C 0.53891 0.54157 0.86785
 C794 C 0.54813 0.55040 0.84704
 C795 C 0.54294 0.53270 0.90962
 C796 C 0.53453 0.52608 0.92775
 H797 H 0.56500 0.60446 0.77918
 H798 H 0.54903 0.58751 0.81511
 H799 H 0.61533 0.55290 0.82765
 H800 H 0.63124 0.57032 0.79186
 H801 H 0.60302 0.56456 0.86640
 H802 H 0.58677 0.54888 0.90281
 H803 H 0.52095 0.53532 0.86824
 H804 H 0.53713 0.55055 0.83162
 C805 C 0.38421 0.10934 0.75537
 C806 C 0.39171 0.10017 0.73798
 C807 C 0.40069 0.08938 0.71715
 C808 C 0.42493 0.08865 0.71310
 C809 C 0.43367 0.07851 0.69270
 C810 C 0.41826 0.06897 0.67603
 C811 C 0.39391 0.06969 0.68033
 C812 C 0.38521 0.07983 0.70076
 C813 C 0.42753 0.05864 0.65413
 C814 C 0.41612 0.06268 0.63272
 C815 C 0.42520 0.05347 0.61202
 C816 C 0.44576 0.04008 0.61243
 C817 C 0.45712 0.03577 0.63365
 C818 C 0.44808 0.04497 0.65437
 C819 C 0.45554 0.03130 0.59101
 C820 C 0.46391 0.02428 0.57302
 H821 H 0.43706 0.09607 0.72563
 H822 H 0.45247 0.07852 0.68976
 H823 H 0.38162 0.06225 0.66798
 H824 H 0.36642 0.08026 0.70374
 H825 H 0.40046 0.07338 0.63190
 H826 H 0.41633 0.05701 0.59567
 H827 H 0.47304 0.02541 0.63417
 H828 H 0.45709 0.04130 0.67060
 C829 C 0.11526 0.89084 0.25552
 C830 C 0.10808 0.89975 0.23785
 C831 C 0.09949 0.91021 0.21667
 C832 C 0.09099 0.93312 0.21679
 C833 C 0.08245 0.94318 0.19624
 C834 C 0.08232 0.93042 0.17526
 C835 C 0.09099 0.90742 0.17533
 C836 C 0.09951 0.89741 0.19590
 C837 C 0.07293 0.94090 0.15347
 C838 C 0.08414 0.93692 0.13195
 C839 C 0.07491 0.94624 0.11136
 C840 C 0.05438 0.95966 0.11197
 C841 C 0.04322 0.96393 0.13329
 C842 C 0.05243 0.95464 0.15392
 C843 C 0.04440 0.96846 0.09063
 C844 C 0.03588 0.97546 0.07269
 H845 H 0.09095 0.94321 0.23277
 H846 H 0.07615 0.96100 0.19669
 H847 H 0.09082 0.89704 0.15956
 H848 H 0.10597 0.87963 0.19562
 H849 H 0.10012 0.92669 0.13107
 H850 H 0.08370 0.94284 0.09494
 H851 H 0.02725 0.97420 0.13395
 H852 H 0.04323 0.95777 0.17015
 C853 C 0.88528 0.39212 0.24412
 C854 C 0.89297 0.40083 0.26167
 C855 C 0.90230 0.41100 0.28266
 C856 C 0.88967 0.42826 0.29453
 C857 C 0.89868 0.43794 0.31506
 C858 C 0.92047 0.43047 0.32397
 C859 C 0.93304 0.41315 0.31186
 C860 C 0.92400 0.40349 0.29136
 C861 C 0.92999 0.44051 0.34591
 C862 C 0.95411 0.44550 0.34804
 C863 C 0.96317 0.45436 0.36890
 C864 C 0.94828 0.45837 0.38789
 C865 C 0.92422 0.45367 0.38590
 C866 C 0.91511 0.44483 0.36504
 C867 C 0.95783 0.46670 0.40960
 C868 C 0.96610 0.47332 0.42779
 H869 H 0.87288 0.43423 0.28792
 H870 H 0.88872 0.45143 0.32383
 H871 H 0.94969 0.40679 0.31844
 H872 H 0.93388 0.39007 0.28236
 H873 H 0.96595 0.44266 0.33353
 H874 H 0.98181 0.45794 0.37024
 H875 H 0.91256 0.45661 0.40054
 H876 H 0.89653 0.44090 0.36405
   
