data_POSCAR
  _audit_creation_date              2014-09-24
  _audit_creation_method            'ToBaCCo'
  _symmetry_space_group_name_H-M    'P1'
  _symmetry_Int_Tables_number       1
  _symmetry_cell_setting            triclinic
  loop_
  _symmetry_equiv_pos_as_xyz
 x,y,z
_cell_length_a 13.0118
_cell_length_b 13.0905
_cell_length_c 22.3334
_cell_angle_alpha 89.914500
_cell_angle_beta 91.436300
_cell_angle_gamma 90.292600
loop_
  _atom_site_label
  _atom_site_type_symbol
  _atom_site_fract_x
  _atom_site_fract_y
  _atom_site_fract_z
O1 O 0.07895 0.60432 1.06067
 O2 O 0.09092 0.40291 0.94670
 O3 O 0.08820 0.60343 0.94455
 O4 O 0.07718 0.40596 1.06227
 O5 O -0.09222 0.40139 1.05166
 O6 O -0.08105 0.60369 0.93780
 O7 O -0.07853 0.40469 0.93634
 O8 O -0.09047 0.60161 1.05391
 Cu9 Cu 0.10086 0.50446 1.00420
 Cu10 Cu -0.10260 0.50297 0.99414
 C11 C -0.00751 0.63743 1.07693
 C12 C 0.00830 0.36901 0.92261
 C13 C 0.00517 0.63870 0.92161
 C14 C -0.00950 0.36901 1.07603
 O15 O 0.40358 0.08020 0.55730
 O16 O 0.59960 0.08134 0.44160
 O17 O 0.39970 0.07981 0.44051
 O18 O 0.60307 0.07948 0.55820
 O19 O 0.60506 -0.08912 0.55639
 O20 O 0.39644 -0.08884 0.44202
 O21 O 0.59817 -0.08699 0.44045
 O22 O 0.40415 -0.08836 0.55797
 Cu23 Cu 0.50149 0.09708 0.49936
 Cu24 Cu 0.50089 -0.10526 0.49909
 C25 C 0.37017 -0.00414 0.57740
 C26 C 0.63331 -0.00244 0.42139
 C27 C 0.36231 -0.00449 0.42186
 C28 C 0.63962 -0.00490 0.57687
 C29 C 0.18227 0.07588 0.29545
 H30 H 0.17625 0.13581 0.26241
 C31 C 0.26647 0.07519 0.33552
 H32 H 0.32336 0.13571 0.33359
 C33 C 0.11791 -0.07693 0.33777
 H34 H 0.05924 -0.13563 0.33865
 C35 C 0.20227 -0.08211 0.37752
 H36 H 0.20766 -0.14463 0.40924
 N37 N 0.10860 0.00190 0.29827
 C38 C -0.10394 -0.15099 0.17591
 H39 H -0.17523 -0.11303 0.18568
 C40 C -0.10420 -0.23369 0.13640
 H41 H -0.17629 -0.25937 0.11621
 C42 C 0.07718 -0.16059 0.18852
 H43 H 0.14786 -0.13039 0.20803
 C44 C 0.08050 -0.24314 0.14923
 H45 H 0.15420 -0.27637 0.13935
 Zn46 Zn -0.01224 0.00334 0.24865
 N47 N -0.01396 -0.11587 0.20071
 C48 C -0.03501 0.10409 0.13771
 N49 N -0.01528 0.11989 0.19716
 C50 C 0.00322 0.21576 0.21880
 C51 C 0.00596 0.29945 0.17983
 C52 C -0.03593 0.18580 0.09762
 C53 C -0.16287 -0.08895 0.31960
 C54 C -0.24418 -0.09264 0.35925
 C55 C -0.25167 0.09166 0.35594
 C56 C -0.17112 0.09157 0.31583
 N57 N -0.12783 0.00222 0.29885
 H58 H -0.04985 0.02803 0.12099
 H59 H 0.01818 0.22714 0.26617
 H60 H 0.02297 0.37507 0.19716
 H61 H -0.05166 0.17214 0.05045
 H62 H -0.12679 -0.15910 0.30593
 H63 H -0.26974 -0.16630 0.37546
 H64 H -0.28351 0.16422 0.36927
 H65 H -0.14238 0.16328 0.29915
 C66 C -0.01084 -0.27997 0.12202
 C67 C 0.27668 -0.00428 0.37736
 C68 C -0.28902 -0.00131 0.37876
 C69 C -0.01386 0.28415 0.11864
 C70 C 0.00487 0.21492 0.78034
 H71 H -0.00299 0.22633 0.73247
 C72 C 0.00236 0.29914 0.81877
 H73 H -0.00755 0.37530 0.80057
 C74 C 0.02588 0.10250 0.86302
 H75 H 0.03425 0.02595 0.88044
 C76 C 0.02592 0.18450 0.90277
 H77 H 0.03445 0.17066 0.95046
 N78 N 0.01493 0.11857 0.80296
 C79 C 0.15244 -0.08923 0.67488
 H80 H 0.10823 -0.15752 0.68356
 C81 C 0.23307 -0.09299 0.63486
 H82 H 0.24937 -0.16422 0.61248
 C83 C 0.18501 0.08617 0.69354
 H84 H 0.16657 0.15589 0.71645
 C85 C 0.26542 0.08617 0.65330
 H86 H 0.30773 0.15628 0.64575
 Zn87 Zn 0.01217 0.00161 0.75201
 N88 N 0.12890 -0.00021 0.70265
 C89 C -0.12283 -0.08259 0.66551
 N90 N -0.10827 -0.00011 0.70181
 C91 C -0.17674 0.07823 0.70124
 C92 C -0.26035 0.07807 0.66077
 C93 C -0.20666 -0.08697 0.62535
 C94 C 0.10232 -0.15570 0.82237
 C95 C 0.10217 -0.23872 0.86181
 C96 C -0.08357 -0.24104 0.85465
 C97 C -0.07969 -0.15818 0.81544
 N98 N 0.01219 -0.11706 0.80038
 H99 H -0.06911 -0.14514 0.66756
 H100 H -0.16681 0.14149 0.73168
 H101 H -0.31286 0.14202 0.66002
 H102 H -0.21599 -0.15258 0.59619
 H103 H 0.17431 -0.12059 0.81025
 H104 H 0.17493 -0.26710 0.87939
 H105 H -0.15806 -0.27117 0.86647
 H106 H -0.15031 -0.12508 0.79801
 C107 C 0.28949 -0.00398 0.62285
 C108 C 0.01285 0.28358 0.88059
 C109 C 0.00814 -0.28195 0.87918
 C110 C -0.27543 -0.00495 0.62188
   
