data_POSCAR
  _audit_creation_date              2014-09-24
  _audit_creation_method            'ToBaCCo'
  _symmetry_space_group_name_H-M    'P1'
  _symmetry_Int_Tables_number       1
  _symmetry_cell_setting            triclinic
  loop_
  _symmetry_equiv_pos_as_xyz
 x,y,z
_cell_length_a 47.3021
_cell_length_b 48.9496
_cell_length_c 49.4334
_cell_angle_alpha 89.047100
_cell_angle_beta 90.977700
_cell_angle_gamma 90.017000
loop_
  _atom_site_label
  _atom_site_type_symbol
  _atom_site_fract_x
  _atom_site_fract_y
  _atom_site_fract_z
C1 C 0.11319 0.13892 0.16011
 C2 C 0.11465 0.15800 0.13875
 C3 C 0.13653 0.15693 0.12067
 C4 C 0.15709 0.13633 0.12351
 C5 C 0.15567 0.11753 0.14455
 C6 C 0.13363 0.11900 0.16318
 C7 C 0.09648 0.13766 0.18254
 N8 N 0.10632 0.11760 0.19971
 C9 C 0.12905 0.10597 0.18763
 C10 C 0.17959 0.10159 0.14362
 N11 N 0.19576 0.11001 0.12238
 C12 C 0.18180 0.13148 0.11016
 C13 C 0.13465 0.18013 0.10451
 N14 N 0.11222 0.19529 0.11246
 C15 C 0.09977 0.18157 0.13325
 H16 H 0.07989 0.15210 0.18674
 H17 H 0.14212 0.08972 0.19600
 H18 H 0.18455 0.08529 0.15790
 H19 H 0.18912 0.14377 0.09334
 H20 H 0.14979 0.18636 0.08945
 H21 H 0.08185 0.18858 0.14451
 C22 C -0.11920 0.85199 0.17538
 C23 C -0.12022 0.83213 0.15537
 C24 C -0.14212 0.83201 0.13651
 C25 C -0.16337 0.85206 0.13745
 C26 C -0.16219 0.87171 0.15714
 C27 C -0.13994 0.87163 0.17631
 C28 C -0.10133 0.85572 0.19717
 N29 N -0.11058 0.87728 0.21179
 C30 C -0.13433 0.88709 0.19877
 C31 C -0.18602 0.88758 0.15407
 N32 N -0.20209 0.87823 0.13294
 C33 C -0.18802 0.85634 0.12277
 C34 C -0.13838 0.80929 0.12079
 N35 N -0.11477 0.79573 0.12975
 C36 C -0.10366 0.80971 0.15093
 H37 H -0.08314 0.84305 0.20175
 H38 H -0.14764 0.90354 0.20533
 H39 H -0.19135 0.90410 0.16728
 H40 H -0.19480 0.84402 0.10593
 H41 H -0.15210 0.80301 0.10430
 H42 H -0.08547 0.80348 0.16309
 C43 C -0.11409 0.14768 -0.16842
 C44 C -0.11548 0.16777 -0.14868
 C45 C -0.13803 0.16849 -0.13131
 C46 C -0.15942 0.14862 -0.13325
 C47 C -0.15793 0.12876 -0.15268
 C48 C -0.13517 0.12842 -0.17055
 C49 C -0.09654 0.14454 -0.18998
 N50 N -0.10642 0.12385 -0.20572
 C51 C -0.13008 0.11379 -0.19351
 C52 C -0.18228 0.11353 -0.15120
 N53 N -0.19888 0.12338 -0.13120
 C54 C -0.18471 0.14503 -0.12025
 C55 C -0.13522 0.19205 -0.11654
 N56 N -0.11154 0.20555 -0.12463
 C57 C -0.09933 0.19055 -0.14415
 H58 H -0.07907 0.15799 -0.19451
 H59 H -0.14357 0.09764 -0.20087
 H60 H -0.18706 0.09649 -0.16409
 H61 H -0.19224 0.15816 -0.10457
 H62 H -0.15025 0.19951 -0.10215
 H63 H -0.08042 0.19605 -0.15498
 C64 C 0.11778 0.84795 -0.17306
 C65 C 0.11724 0.82678 -0.15364
 C66 C 0.13910 0.82404 -0.13494
 C67 C 0.16176 0.84251 -0.13530
 C68 C 0.16223 0.86336 -0.15434
 C69 C 0.14008 0.86605 -0.17345
 C70 C 0.10070 0.85404 -0.19508
 N71 N 0.11201 0.87549 -0.20927
 C72 C 0.13617 0.88291 -0.19570
 C73 C 0.18734 0.87710 -0.15084
 N74 N 0.20244 0.86522 -0.12995
 C75 C 0.18655 0.84390 -0.12050
 C76 C 0.13421 0.80056 -0.12013
 N77 N 0.10982 0.78890 -0.12931
 C78 C 0.09931 0.80499 -0.14982
 H79 H 0.08212 0.84246 -0.20060
 H80 H 0.15081 0.89877 -0.20159
 H81 H 0.19400 0.89404 -0.16347
 H82 H 0.19212 0.83000 -0.10408
 H83 H 0.14827 0.79200 -0.10473
 H84 H 0.08029 0.80101 -0.16156
 C85 C 0.13508 1.12695 0.84255
 C86 C 0.15280 1.12632 0.86559
 C87 C 0.14876 1.14470 0.88599
 C88 C 0.12720 1.16419 0.88353
 C89 C 0.10989 1.16511 0.86081
 C90 C 0.11378 1.14611 0.84010
 C91 C 0.13550 1.11268 0.81890
 N92 N 0.11487 1.12244 0.80163
 C93 C 0.10158 1.14309 0.81479
 C94 C 0.09321 1.18806 0.86285
 N95 N 0.10008 1.20136 0.88623
 C96 C 0.12089 1.18635 0.89889
 C97 C 0.17069 1.14143 0.90438
 N98 N 0.18831 1.12164 0.89553
 C99 C 0.17730 1.11226 0.87179
 H100 H 0.15039 1.09659 0.81495
 H101 H 0.08475 1.15587 0.80670
 H102 H 0.07820 1.19486 0.84747
 H103 H 0.13208 1.19134 0.91736
 H104 H 0.17396 1.15344 0.92233
 H105 H 0.18726 1.09764 0.85884
 C106 C 0.84097 0.85456 0.80876
 C107 C 0.82226 0.85323 0.83038
 C108 C 0.82571 0.83339 0.85022
 C109 C 0.84789 0.81462 0.84877
 C110 C 0.86635 0.81567 0.82746
 C111 C 0.86290 0.83607 0.80718
 C112 C 0.84212 0.87156 0.78653
 N113 N 0.86432 0.86422 0.77095
 C114 C 0.87711 0.84234 0.78372
 C115 C 0.88487 0.79404 0.83122
 N116 N 0.87809 0.77992 0.85436
 C117 C 0.85530 0.79277 0.86495
 C118 C 0.80412 0.83632 0.86821
 N119 N 0.78749 0.85753 0.85970
 C120 C 0.79855 0.86800 0.83652
 H121 H 0.82780 0.88842 0.78271
 H122 H 0.89505 0.83109 0.77651
 H123 H 0.90193 0.78927 0.81782
 H124 H 0.84367 0.78643 0.88259
 H125 H 0.80085 0.82386 0.88617
 H126 H 0.78961 0.88462 0.82447
 C127 C 0.14498 0.87275 1.18031
 C128 C 0.16698 0.87066 1.16186
 C129 C 0.16815 0.84870 1.14471
 C130 C 0.14700 0.82856 1.14564
 C131 C 0.12513 0.83082 1.16368
 C132 C 0.12421 0.85307 1.18122
 C133 C 0.14025 0.89049 1.20101
 N134 N 0.11703 0.88211 1.21494
 C135 C 0.10709 0.85919 1.20249
 C136 C 0.10854 0.80790 1.16106
 N137 N 0.11977 0.79159 1.14195
 C138 C 0.14337 0.80422 1.13247
 C139 C 0.19273 0.85132 1.13030
 N140 N 0.20645 0.87435 1.13832
 C141 C 0.19066 0.88624 1.15762
 H142 H 0.15355 0.90780 1.20557
 H143 H 0.08969 0.84655 1.20903
 H144 H 0.08969 0.80354 1.17244
 H145 H 0.15756 0.79600 1.11774
 H146 H 0.20043 0.83697 1.11572
 H147 H 0.19591 0.90490 1.16799
 C148 C 0.86473 1.11873 1.15671
 C149 C 0.84566 1.11860 1.13464
 C150 C 0.84868 1.13733 1.11373
 C151 C 0.87043 1.15669 1.11469
 C152 C 0.88906 1.15709 1.13652
 C153 C 0.88624 1.13778 1.15768
 C154 C 0.86556 1.10428 1.18078
 N155 N 0.88714 1.11386 1.19673
 C156 C 0.89975 1.13454 1.18241
 C157 C 0.90549 1.18020 1.13353
 N158 N 0.89707 1.19386 1.11054
 C159 C 0.87570 1.17940 1.09893
 C160 C 0.82582 1.13449 1.09652
 N161 N 0.80855 1.11468 1.10654
 C162 C 0.82073 1.10478 1.12988
 H163 H 0.85042 1.08873 1.18631
 H164 H 0.91733 1.14691 1.18913
 H165 H 0.92156 1.18705 1.14770
 H166 H 0.86337 1.18587 1.08132
 H167 H 0.82179 1.14677 1.07847
 H168 H 0.81138 1.08989 1.14345
 N169 N 0.47092 1.03504 0.94769
 N170 N 0.44699 1.03593 0.93367
 N171 N 0.53003 1.05205 0.97010
 N172 N 0.55315 1.06717 0.97051
 N173 N 0.53056 1.03488 0.95002
 N174 N 0.55410 1.03785 0.93627
 N175 N 0.47025 1.05221 0.96782
 N176 N 0.44572 1.06518 0.96786
 C177 C 0.43158 1.05503 0.94621
 C178 C 0.56791 1.05823 0.94918
 N179 N 0.52795 1.02582 1.04539
 N180 N 0.55163 1.02457 1.05984
 N181 N 0.46912 1.04690 1.02577
 N182 N 0.44585 1.06159 1.02681
 N183 N 0.46813 1.02620 1.04298
 N184 N 0.44397 1.02633 1.05610
 N185 N 0.52869 1.04642 1.02803
 N186 N 0.55294 1.05963 1.03029
 Mn187 Mn 0.49954 1.04975 0.99797
 C188 C 0.56689 1.04596 1.05045
 C189 C 0.43040 1.04875 1.04592
 N190 N 0.53015 0.97648 0.94562
 N191 N 0.55326 0.97608 0.93113
 N192 N 0.47019 0.95598 0.96054
 N193 N 0.44736 0.94098 0.95667
 N194 N 0.47070 0.97658 0.94321
 N195 N 0.44819 0.97608 0.92705
 N196 N 0.52973 0.95569 0.96275
 N197 N 0.55263 0.94054 0.96026
 Mn198 Mn 0.50061 1.00581 0.94630
 C199 C 0.56702 0.95349 0.94033
 C200 C 0.43391 0.95364 0.93559
 N201 N 0.46834 0.96763 1.03869
 N202 N 0.44542 0.96426 1.05316
 N203 N 0.52812 0.95013 1.02079
 N204 N 0.55101 0.93474 1.02206
 N205 N 0.52795 0.96733 1.04090
 N206 N 0.55086 0.96411 1.05630
 N207 N 0.46849 0.95054 1.01850
 N208 N 0.44553 0.93516 1.01868
 Mn209 Mn 0.49807 0.99674 1.04237
 Mn210 Mn 0.49913 0.95271 0.99062
 Cl211 Cl 0.49934 1.00123 0.99432
 C212 C 0.43142 0.94386 1.04057
 C213 C 0.56494 0.94353 1.04441
 N214 N 0.03074 0.47209 0.06139
 N215 N 0.03122 0.44972 0.07667
 N216 N 0.05036 0.52833 0.03889
 N217 N 0.06596 0.55072 0.03899
 N218 N 0.03083 0.52959 0.05737
 N219 N 0.03270 0.55277 0.07056
 N220 N 0.04979 0.47063 0.04245
 N221 N 0.06354 0.44718 0.04432
 C222 C 0.05196 0.43449 0.06598
 C223 C 0.05485 0.56569 0.05901
 N224 N 0.02958 0.52527 -0.03770
 N225 N 0.03047 0.54787 -0.05265
 N226 N 0.04903 0.46794 -0.01571
 N227 N 0.06346 0.44483 -0.01538
 N228 N 0.02934 0.46766 -0.03476
 N229 N 0.02990 0.44438 -0.04782
 N230 N 0.04960 0.52546 -0.01898
 N231 N 0.06454 0.54812 -0.02070
 Mn232 Mn 0.05007 0.49802 0.01167
 C233 C 0.05261 0.56179 -0.04194
 C234 C 0.05145 0.43043 -0.03572
 N235 N -0.03005 0.52972 0.05704
 N236 N -0.03181 0.55295 0.07013
 N237 N -0.04942 0.47043 0.04207
 N238 N -0.06281 0.44677 0.04389
 N239 N -0.03000 0.47220 0.06128
 N240 N -0.02997 0.45000 0.07676
 N241 N -0.05028 0.52807 0.03863
 N242 N -0.06643 0.55003 0.03883
 Mn243 Mn 0.00039 0.50101 0.05962
 C244 C -0.05479 0.56530 0.05868
 C245 C -0.05069 0.43442 0.06590
 N246 N -0.03129 0.46779 -0.03506
 N247 N -0.03297 0.44496 -0.04881
 N248 N -0.05085 0.52575 -0.01939
 N249 N -0.06600 0.54834 -0.02176
 N250 N -0.03138 0.52529 -0.03800
 N251 N -0.03290 0.54746 -0.05355
 N252 N -0.05040 0.46806 -0.01613
 N253 N -0.06552 0.44538 -0.01648
 Mn254 Mn -0.00093 0.49656 -0.03676
 Mn255 Mn -0.05063 0.49801 0.01130
 Cl256 Cl -0.00029 0.49841 0.01146
 C257 C -0.05454 0.43125 -0.03714
 C258 C -0.05476 0.56157 -0.04332
 N259 N 1.03237 0.06798 0.52963
 N260 N 1.03143 0.08205 0.55208
 N261 N 1.05528 0.05213 0.47415
 N262 N 1.07116 0.05420 0.45263
 N263 N 1.03405 0.06939 0.47242
 N264 N 1.03486 0.08340 0.44929
 N265 N 1.05292 0.04995 0.53103
 N266 N 1.06638 0.05129 0.55466
 C267 C 1.05286 0.07167 0.56747
 C268 C 1.05847 0.07391 0.43738
 N269 N 1.04039 -0.02632 0.47122
 N270 N 1.04266 -0.03967 0.44846
 N271 N 1.05710 -0.00870 0.52950
 N272 N 1.07156 -0.00987 0.55253
 N273 N 1.03885 -0.02885 0.52814
 N274 N 1.04034 -0.04417 0.55036
 N275 N 1.05895 -0.00639 0.47242
 N276 N 1.07434 -0.00576 0.45030
 Mn277 Mn 1.05644 0.02177 0.50186
 C278 C 1.06404 -0.02686 0.43566
 C279 C 1.06105 -0.03223 0.56526
 N280 N 0.97322 0.06585 0.47036
 N281 N 0.97249 0.08051 0.44776
 N282 N 0.95357 0.04379 0.52631
 N283 N 0.93836 0.04271 0.54840
 N284 N 0.97186 0.06396 0.52744
 N285 N 0.96959 0.07698 0.55051
 N286 N 0.95486 0.04574 0.46919
 N287 N 0.94136 0.04620 0.44553
 Mn288 Mn 1.00284 0.06718 0.49990
 C289 C 0.95236 0.06825 0.43251
 C290 C 0.94835 0.06368 0.56322
 N291 N 0.97853 -0.03279 0.52529
 N292 N 0.97768 -0.04947 0.54640
 N293 N 0.95862 -0.01268 0.46866
 N294 N 0.94325 -0.01430 0.44627
 N295 N 0.97966 -0.03014 0.46844
 N296 N 0.97907 -0.04417 0.44581
 N297 N 0.95771 -0.01508 0.52573
 N298 N 0.94208 -0.01939 0.54737
 Mn299 Mn 1.00941 -0.02985 0.49820
 Mn300 Mn 0.95578 0.01545 0.49753
 Cl301 Cl 1.00610 0.01865 0.49937
 C302 C 0.95483 -0.04110 0.55997
 C303 C 0.95607 -0.03411 0.43225
 C304 C 1.06194 0.11922 0.26066
 C305 C 1.07883 0.10501 0.28011
 C306 C 1.10463 0.09378 0.27129
 C307 C 1.11310 0.09702 0.24433
 C308 C 1.09673 0.11221 0.22538
 C309 C 1.07074 0.12274 0.23401
 C310 C 1.12231 0.07972 0.28953
 C311 C 1.11545 0.07715 0.31658
 C312 C 1.09033 0.08847 0.32662
 C313 C 1.07126 0.10191 0.30796
 C314 C 1.04535 0.11174 0.31781
 C315 C 1.03837 0.10877 0.34490
 C316 C 1.05700 0.09631 0.36344
 C317 C 1.08345 0.08637 0.35466
 C318 C 1.10201 0.07474 0.37441
 C319 C 1.09396 0.07173 0.40122
 C320 C 1.06739 0.08050 0.40956
 C321 C 1.04916 0.09335 0.39070
 H322 H 1.04195 0.12834 0.26538
 H323 H 1.13330 0.08867 0.23880
 H324 H 1.05666 0.13366 0.22020
 H325 H 1.14195 0.07082 0.28288
 H326 H 1.13030 0.06577 0.32904
 H327 H 1.02965 0.12160 0.30501
 H328 H 1.01813 0.11640 0.35143
 H329 H 1.12296 0.06773 0.36998
 H330 H 1.10861 0.06206 0.41549
 H331 H 1.02855 0.10025 0.39703
 C332 C 0.93462 -0.11893 0.27368
 C333 C 0.92377 -0.09574 0.28662
 C334 C 0.90167 -0.08116 0.27314
 C335 C 0.89076 -0.08987 0.24812
 C336 C 0.90112 -0.11347 0.23567
 C337 C 0.92358 -0.12751 0.24888
 C338 C 0.89025 -0.05798 0.28474
 C339 C 0.89954 -0.04935 0.30994
 C340 C 0.92073 -0.06373 0.32477
 C341 C 0.93368 -0.08681 0.31257
 C342 C 0.95590 -0.10030 0.32685
 C343 C 0.96459 -0.09216 0.35244
 C344 C 0.95153 -0.07037 0.36500
 C345 C 0.92936 -0.05583 0.35143
 C346 C 0.91635 -0.03434 0.36544
 C347 C 0.92506 -0.02764 0.39155
 C348 C 0.94711 -0.04189 0.40468
 C349 C 0.96038 -0.06318 0.39124
 H350 H 0.95140 -0.13132 0.28231
 H351 H 0.87409 -0.07789 0.23861
 H352 H 0.93268 -0.14573 0.24069
 H353 H 0.87364 -0.04645 0.27436
 H354 H 0.88960 -0.03115 0.31716
 H355 H 0.96718 -0.11738 0.31885
 H356 H 0.98146 -0.10341 0.36272
 H357 H 0.89902 -0.02250 0.35711
 H358 H 0.91440 -0.01109 0.40150
 H359 H 0.97746 -0.07434 0.40131
 C360 C 0.93942 0.12148 0.73428
 C361 C 0.92372 0.10472 0.71652
 C362 C 0.89870 0.09263 0.72654
 C363 C 0.88920 0.09841 0.75260
 C364 C 0.90410 0.11640 0.76964
 C365 C 0.92983 0.12714 0.76014
 C366 C 0.88287 0.07506 0.71037
 C367 C 0.89097 0.06950 0.68422
 C368 C 0.91517 0.08171 0.67285
 C369 C 0.93182 0.09968 0.68923
 C370 C 0.95555 0.11253 0.67756
 C371 C 0.96274 0.10814 0.65087
 C372 C 0.94682 0.09065 0.63469
 C373 C 0.92299 0.07691 0.64547
 C374 C 0.90794 0.05895 0.62826
 C375 C 0.91610 0.05511 0.60164
 C376 C 0.93939 0.06898 0.59110
 C377 C 0.95468 0.08679 0.60772
 H378 H 0.95933 0.13057 0.72892
 H379 H 0.86953 0.08933 0.75889
 H380 H 0.94310 0.13997 0.77256
 H381 H 0.86378 0.06559 0.71794
 H382 H 0.87729 0.05584 0.67329
 H383 H 0.96885 0.12665 0.68836
 H384 H 0.98097 0.11868 0.64276
 H385 H 0.88992 0.04725 0.63466
 H386 H 0.90409 0.04102 0.58927
 H387 H 0.97300 0.09735 0.59980
 C388 C 1.06757 -0.11396 0.72894
 C389 C 1.08329 -0.09445 0.71411
 C390 C 1.10792 -0.08373 0.72667
 C391 C 1.11690 -0.09317 0.75239
 C392 C 1.10199 -0.11375 0.76646
 C393 C 1.07673 -0.12334 0.75442
 C394 C 1.12390 -0.06389 0.71337
 C395 C 1.11631 -0.05467 0.68760
 C396 C 1.09232 -0.06507 0.67385
 C397 C 1.07554 -0.08536 0.68729
 C398 C 1.05197 -0.09630 0.67326
 C399 C 1.04515 -0.08804 0.64698
 C400 C 1.06127 -0.06837 0.63362
 C401 C 1.08482 -0.05623 0.64692
 C402 C 1.09988 -0.03575 0.63257
 C403 C 1.09216 -0.02820 0.60615
 C404 C 1.06929 -0.04075 0.59304
 C405 C 1.05386 -0.06076 0.60692
 H406 H 1.04803 -0.12254 0.72153
 H407 H 1.13603 -0.08452 0.76086
 H408 H 1.06358 -0.13834 0.76433
 H409 H 1.14274 -0.05552 0.72293
 H410 H 1.13017 -0.03962 0.67886
 H411 H 1.03846 -0.11177 0.68182
 H412 H 1.02703 -0.09725 0.63697
 H413 H 1.11761 -0.02492 0.64114
 H414 H 1.10425 -0.01244 0.59593
 H415 H 1.03586 -0.07030 0.59702
 C416 C 0.26181 1.06894 1.12408
 C417 C 0.27590 1.07857 1.10080
 C418 C 0.26208 1.09887 1.08469
 C419 C 0.23539 1.10885 1.09170
 C420 C 0.22157 1.09948 1.11515
 C421 C 0.23534 1.07912 1.13102
 C422 C 0.27496 1.10936 1.06159
 C423 C 0.30177 1.10091 1.05455
 C424 C 0.31690 1.08132 1.07033
 C425 C 0.30331 1.06914 1.09321
 C426 C 0.31755 1.04791 1.10760
 C427 C 0.34445 1.03949 1.10049
 C428 C 0.35857 1.05219 1.07918
 C429 C 0.34509 1.07341 1.06387
 C430 C 0.36069 1.08625 1.04305
 C431 C 0.38820 1.07816 1.03758
 C432 C 0.40127 1.05699 1.05250
 C433 C 0.38627 1.04393 1.07321
 H434 H 0.27086 1.05388 1.13779
 H435 H 0.22567 1.12402 1.07845
 H436 H 0.22625 1.07101 1.14934
 H437 H 0.26431 1.12459 1.04890
 H438 H 0.30989 1.10996 1.03627
 H439 H 0.30834 1.03704 1.12439
 H440 H 0.35446 1.02308 1.11212
 H441 H 0.35257 1.10304 1.03089
 H442 H 0.39927 1.08865 1.02147
 H443 H 0.39624 1.02753 1.08490
 C444 C 0.27012 0.86506 0.90901
 C445 C 0.28368 0.88884 0.89910
 C446 C 0.26920 0.90450 0.87891
 C447 C 0.24225 0.89667 0.86947
 C448 C 0.22880 0.87295 0.87948
 C449 C 0.24341 0.85737 0.89946
 C450 C 0.28163 0.92799 0.86810
 C451 C 0.30830 0.93630 0.87668
 C452 C 0.32372 0.92148 0.89673
 C453 C 0.31107 0.89752 0.90838
 C454 C 0.32613 0.88312 0.92900
 C455 C 0.35270 0.89151 0.93774
 C456 C 0.36548 0.91450 0.92634
 C457 C 0.35132 0.92988 0.90566
 C458 C 0.36551 0.95302 0.89483
 C459 C 0.39236 0.96047 0.90432
 C460 C 0.40598 0.94523 0.92487
 C461 C 0.39243 0.92222 0.93572
 H462 H 0.27960 0.85161 0.92403
 H463 H 0.23196 0.90960 0.85439
 H464 H 0.23475 0.83875 0.90784
 H465 H 0.27065 0.94011 0.85266
 H466 H 0.31613 0.95466 0.86717
 H467 H 0.31795 0.86525 0.93912
 H468 H 0.36339 0.87980 0.95367
 H469 H 0.35661 0.96587 0.87899
 H470 H 0.40243 0.97834 0.89559
 H471 H 0.40283 0.91028 0.95167
 C472 C 0.73490 0.92316 1.12621
 C473 C 0.71783 0.90931 1.10710
 C474 C 0.72882 0.88500 1.09625
 C475 C 0.75543 0.87489 1.10470
 C476 C 0.77212 0.88850 1.12418
 C477 C 0.76129 0.91299 1.13450
 C478 C 0.71316 0.87063 1.07705
 C479 C 0.68678 0.87979 1.06823
 C480 C 0.67469 0.90382 1.07845
 C481 C 0.69035 0.91872 1.09841
 C482 C 0.67790 0.94235 1.10917
 C483 C 0.65123 0.95119 1.10077
 C484 C 0.63582 0.93705 1.08123
 C485 C 0.64734 0.91330 1.06956
 C486 C 0.63095 0.90012 1.04937
 C487 C 0.60435 0.90998 1.04145
 C488 C 0.59298 0.93316 1.05337
 C489 C 0.60886 0.94664 1.07324
 H490 H 0.72866 0.94210 1.13513
 H491 H 0.76254 0.85595 1.09621
 H492 H 0.77313 0.92497 1.14890
 H493 H 0.72140 0.85197 1.06867
 H494 H 0.67628 0.86725 1.05349
 H495 H 0.68809 0.95448 1.12445
 H496 H 0.64257 0.96940 1.10969
 H497 H 0.63804 0.88228 1.03902
 H498 H 0.59260 0.89928 1.02589
 H499 H 0.60036 0.96482 1.08234
 C500 C 0.73445 1.08343 0.86812
 C501 C 0.72023 1.09339 0.89086
 C502 C 0.73398 1.11388 0.90611
 C503 C 0.76083 1.12366 0.89882
 C504 C 0.77490 1.11363 0.87608
 C505 C 0.76103 1.09327 0.86100
 C506 C 0.72088 1.12467 0.92863
 C507 C 0.69423 1.11588 0.93625
 C508 C 0.67945 1.09564 0.92166
 C509 C 0.69286 1.08392 0.89880
 C510 C 0.67848 1.06308 0.88469
 C511 C 0.65177 1.05437 0.89215
 C512 C 0.63815 1.06599 0.91390
 C513 C 0.65173 1.08669 0.92912
 C514 C 0.63679 1.09761 0.95110
 C515 C 0.60970 1.08841 0.95742
 C516 C 0.59647 1.06808 0.94216
 C517 C 0.61090 1.05689 0.92048
 H518 H 0.72556 1.06818 0.85504
 H519 H 0.77058 1.13898 0.91137
 H520 H 0.77014 1.08487 0.84310
 H521 H 0.73130 1.14031 0.94048
 H522 H 0.68583 1.12543 0.95385
 H523 H 0.68728 1.05283 0.86770
 H524 H 0.64163 1.03833 0.88063
 H525 H 0.64530 1.11333 0.96385
 H526 H 0.59907 1.09730 0.97441
 H527 H 0.60092 1.04100 0.90863
 C528 C 0.10834 0.25930 0.06928
 C529 C 0.09403 0.27767 0.08618
 C530 C 0.08456 0.26740 0.11142
 C531 C 0.09030 0.24041 0.11965
 C532 C 0.10517 0.22263 0.10307
 C533 C 0.11376 0.23233 0.07764
 C534 C 0.06977 0.28418 0.12871
 C535 C 0.06401 0.31111 0.12161
 C536 C 0.07316 0.32259 0.09688
 C537 C 0.08892 0.30578 0.07907
 C538 C 0.09959 0.31782 0.05516
 C539 C 0.09513 0.34526 0.04887
 C540 C 0.07930 0.36169 0.06570
 C541 C 0.06757 0.35051 0.08966
 C542 C 0.05047 0.36778 0.10529
 C543 C 0.04589 0.39499 0.09772
 C544 C 0.05813 0.40603 0.07444
 C545 C 0.07488 0.38928 0.05851
 H546 H 0.11550 0.26501 0.04941
 H547 H 0.08373 0.23361 0.13951
 H548 H 0.12476 0.21904 0.06406
 H549 H 0.06258 0.27642 0.14809
 H550 H 0.05292 0.32260 0.13647
 H551 H 0.11208 0.30670 0.04103
 H552 H 0.10408 0.35368 0.03050
 H553 H 0.03975 0.36085 0.12316
 H554 H 0.03247 0.40739 0.11012
 H555 H 0.08405 0.39756 0.04018
 C556 C -0.07636 0.27428 -0.12494
 C557 C -0.08391 0.28494 -0.09966
 C558 C -0.10155 0.26874 -0.08292
 C559 C -0.11021 0.24256 -0.09096
 C560 C -0.10222 0.23219 -0.11600
 C561 C -0.08541 0.24851 -0.13288
 C562 C -0.11066 0.27884 -0.05833
 C563 C -0.10335 0.30501 -0.05028
 C564 C -0.08603 0.32203 -0.06634
 C565 C -0.07512 0.31133 -0.09082
 C566 C -0.05550 0.32720 -0.10550
 C567 C -0.04761 0.35304 -0.09719
 C568 C -0.05928 0.36439 -0.07429
 C569 C -0.07890 0.34927 -0.05863
 C570 C -0.09091 0.36235 -0.03620
 C571 C -0.08324 0.38898 -0.02946
 C572 C -0.06332 0.40340 -0.04467
 C573 C -0.05142 0.39094 -0.06705
 H574 H -0.06415 0.28560 -0.13951
 H575 H -0.12320 0.23028 -0.07765
 H576 H -0.07965 0.24174 -0.15274
 H577 H -0.12395 0.26650 -0.04529
 H578 H -0.11120 0.31114 -0.03097
 H579 H -0.04527 0.32002 -0.12332
 H580 H -0.03246 0.36444 -0.10913
 H581 H -0.10675 0.35282 -0.02381
 H582 H -0.09295 0.39827 -0.01220
 H583 H -0.03609 0.40202 -0.07907
 C584 C 0.07043 0.72224 -0.12895
 C585 C 0.07827 0.71070 -0.10349
 C586 C 0.09665 0.72601 -0.08660
 C587 C 0.10599 0.75201 -0.09476
 C588 C 0.09842 0.76301 -0.12025
 C589 C 0.08045 0.74782 -0.13714
 C590 C 0.10606 0.71513 -0.06182
 C591 C 0.09878 0.68877 -0.05392
 C592 C 0.08109 0.67243 -0.07031
 C593 C 0.06929 0.68418 -0.09466
 C594 C 0.04881 0.66910 -0.10922
 C595 C 0.04124 0.64285 -0.10112
 C596 C 0.05426 0.63032 -0.07866
 C597 C 0.07457 0.64481 -0.06304
 C598 C 0.08804 0.63077 -0.04114
 C599 C 0.08111 0.60380 -0.03477
 C600 C 0.06053 0.58989 -0.04984
 C601 C 0.04714 0.60326 -0.07177
 H602 H 0.05749 0.71158 -0.14349
 H603 H 0.11953 0.76353 -0.08124
 H604 H 0.07465 0.75526 -0.15719
 H605 H 0.11978 0.72688 -0.04862
 H606 H 0.10697 0.68196 -0.03449
 H607 H 0.03770 0.67729 -0.12675
 H608 H 0.02536 0.63206 -0.11288
 H609 H 0.10449 0.63978 -0.02888
 H610 H 0.09191 0.59384 -0.01782
 H611 H 0.03126 0.59255 -0.08361
 C612 C -0.06549 0.73751 0.11682
 C613 C -0.08368 0.71780 0.10519
 C614 C -0.11213 0.72555 0.09978
 C615 C -0.12214 0.75130 0.10739
 C616 C -0.10412 0.77009 0.12008
 C617 C -0.07560 0.76309 0.12407
 C618 C -0.13063 0.70746 0.08711
 C619 C -0.12158 0.68176 0.07956
 C620 C -0.09366 0.67276 0.08501
 C621 C -0.07461 0.69080 0.09872
 C622 C -0.04746 0.68098 0.10623
 C623 C -0.03905 0.65459 0.10034
 C624 C -0.05702 0.63708 0.08624
 C625 C -0.08436 0.64604 0.07783
 C626 C -0.10115 0.62788 0.06236
 C627 C -0.09143 0.60182 0.05628
 C628 C -0.06485 0.59284 0.06550
 C629 C -0.04768 0.61060 0.08041
 H630 H -0.04324 0.73399 0.12031
 H631 H -0.14421 0.75637 0.10402
 H632 H -0.06088 0.77749 0.13286
 H633 H -0.15242 0.71323 0.08294
 H634 H -0.13740 0.66907 0.07016
 H635 H -0.03236 0.69295 0.11746
 H636 H -0.01814 0.64787 0.10682
 H637 H -0.12166 0.63329 0.05415
 H638 H -0.10489 0.58860 0.04432
 H639 H -0.02678 0.60399 0.08710
 C640 C 1.12092 0.08477 0.73741
 C641 C 1.09863 0.09591 0.72139
 C642 C 1.08168 0.11625 0.73314
 C643 C 1.08683 0.12466 0.75985
 C644 C 1.10928 0.11362 0.77570
 C645 C 1.12606 0.09339 0.76381
 C646 C 1.05969 0.12835 0.71812
 C647 C 1.05456 0.12133 0.69140
 C648 C 1.07116 0.10153 0.67854
 C649 C 1.09293 0.08793 0.69406
 C650 C 1.10810 0.06668 0.68179
 C651 C 1.10291 0.05957 0.65508
 C652 C 1.08268 0.07346 0.63932
 C653 C 1.06654 0.09469 0.65074
 C654 C 1.04664 0.10842 0.63368
 C655 C 1.04265 0.10100 0.60679
 C656 C 1.05834 0.07978 0.59576
 C657 C 1.07844 0.06612 0.61213
 H658 H 1.13531 0.06969 0.73003
 H659 H 1.07306 0.13998 0.76793
 H660 H 1.14376 0.08406 0.77441
 H661 H 1.04640 0.14373 0.72704
 H662 H 1.03706 0.13168 0.68150
 H663 H 1.12397 0.05472 0.69242
 H664 H 1.11506 0.04308 0.64662
 H665 H 1.03403 0.12527 0.64028
 H666 H 1.02704 0.11201 0.59458
 H667 H 1.09071 0.04964 0.60378
 C668 C 0.86240 -0.09040 0.71017
 C669 C 0.88841 -0.09610 0.69787
 C670 C 0.90599 -0.11617 0.71049
 C671 C 0.89789 -0.12943 0.73463
 C672 C 0.87211 -0.12325 0.74704
 C673 C 0.85453 -0.10359 0.73409
 C674 C 0.93177 -0.12287 0.69908
 C675 C 0.94030 -0.11056 0.67508
 C676 C 0.92336 -0.09076 0.66142
 C677 C 0.89738 -0.08280 0.67342
 C678 C 0.88141 -0.06165 0.66071
 C679 C 0.89009 -0.04915 0.63683
 C680 C 0.91471 -0.05744 0.62427
 C681 C 0.93164 -0.07850 0.63626
 C682 C 0.95594 -0.08673 0.62225
 C683 C 0.96310 -0.07446 0.59769
 C684 C 0.94649 -0.05352 0.58611
 C685 C 0.92236 -0.04495 0.59959
 H686 H 0.84729 -0.07607 0.70169
 H687 H 0.91226 -0.14417 0.74381
 H688 H 0.83406 -0.09842 0.74183
 H689 H 0.94555 -0.13794 0.70877
 H690 H 0.96065 -0.11682 0.66800
 H691 H 0.86211 -0.05391 0.66886
 H692 H 0.87712 -0.03298 0.62791
 H693 H 0.96964 -0.10298 0.62931
 H694 H 0.98183 -0.08159 0.58767
 H695 H 0.90936 -0.02877 0.59075
 C696 C 1.07196 -0.10625 0.27415
 C697 C 1.08744 -0.08647 0.28875
 C698 C 1.11224 -0.07593 0.27683
 C699 C 1.12157 -0.08581 0.25194
 C700 C 1.10678 -0.10664 0.23820
 C701 C 1.08144 -0.11606 0.24960
 C702 C 1.12802 -0.05589 0.29002
 C703 C 1.12012 -0.04643 0.31512
 C704 C 1.09606 -0.05682 0.32830
 C705 C 1.07937 -0.07711 0.31482
 C706 C 1.05558 -0.08791 0.32814
 C707 C 1.04866 -0.07980 0.35388
 C708 C 1.06478 -0.06034 0.36736
 C709 C 1.08841 -0.04809 0.35476
 C710 C 1.10340 -0.02782 0.36942
 C711 C 1.09555 -0.02078 0.39560
 C712 C 1.07267 -0.03371 0.40800
 C713 C 1.05728 -0.05327 0.39360
 H714 H 1.05235 -0.11479 0.28106
 H715 H 1.14098 -0.07755 0.24405
 H716 H 1.06836 -0.13108 0.23969
 H717 H 1.14696 -0.04759 0.28096
 H718 H 1.13376 -0.03124 0.32393
 H719 H 1.04197 -0.10320 0.31951
 H720 H 1.03054 -0.08909 0.36348
 H721 H 1.12122 -0.01694 0.36129
 H722 H 1.10749 -0.00525 0.40618
 H723 H 1.03921 -0.06310 0.40283
 C724 C 0.88689 0.07357 0.26097
 C725 C 0.90667 0.08773 0.27726
 C726 C 0.92039 0.11059 0.26543
 C727 C 0.91424 0.11885 0.23862
 C728 C 0.89401 0.10502 0.22265
 C729 C 0.88077 0.08202 0.23441
 C730 C 0.94012 0.12540 0.28047
 C731 C 0.94598 0.11863 0.30733
 C732 C 0.93226 0.09656 0.32040
 C733 C 0.91294 0.08031 0.30489
 C734 C 0.90056 0.05724 0.31755
 C735 C 0.90610 0.05069 0.34455
 C736 C 0.92394 0.06693 0.36022
 C737 C 0.93729 0.09012 0.34845
 C738 C 0.95482 0.10612 0.36544
 C739 C 0.95924 0.09906 0.39261
 C740 C 0.94627 0.07599 0.40398
 C741 C 0.92851 0.06004 0.38769
 H742 H 0.87537 0.05600 0.26817
 H743 H 0.92499 0.13667 0.23079
 H744 H 0.86554 0.07000 0.22331
 H745 H 0.95102 0.14269 0.27144
 H746 H 0.96164 0.13113 0.31721
 H747 H 0.88651 0.04352 0.30710
 H748 H 0.89607 0.03278 0.35334
 H749 H 0.96527 0.12441 0.35856
 H750 H 0.97301 0.11182 0.40477
 H751 H 0.91838 0.04212 0.39632
 C752 C 0.06014 0.26658 -0.11347
 C753 C 0.07112 0.27937 -0.09009
 C754 C 0.09105 0.26453 -0.07403
 C755 C 0.09977 0.23833 -0.08146
 C756 C 0.08969 0.22612 -0.10545
 C757 C 0.06920 0.24064 -0.12091
 C758 C 0.10263 0.27600 -0.05069
 C759 C 0.09592 0.30246 -0.04355
 C760 C 0.07711 0.31861 -0.05947
 C761 C 0.06351 0.30647 -0.08243
 C762 C 0.04291 0.32188 -0.09698
 C763 C 0.03652 0.34849 -0.09000
 C764 C 0.05066 0.36106 -0.06861
 C765 C 0.07135 0.34647 -0.05313
 C766 C 0.08586 0.36066 -0.03234
 C767 C 0.07957 0.38787 -0.02692
 C768 C 0.05874 0.40191 -0.04200
 C769 C 0.04435 0.38833 -0.06280
 H770 H 0.04493 0.27626 -0.12694
 H771 H 0.11498 0.22803 -0.06838
 H772 H 0.06008 0.23246 -0.13921
 H773 H 0.11748 0.26455 -0.03796
 H774 H 0.10570 0.30957 -0.02514
 H775 H 0.03106 0.31391 -0.11389
 H776 H 0.02063 0.35953 -0.10183
 H777 H 0.10261 0.35154 -0.02025
 H778 H 0.09116 0.39795 -0.01086
 H779 H 0.02821 0.39905 -0.07464
 C780 C -0.09207 0.25578 0.06626
 C781 C -0.08271 0.27551 0.08499
 C782 C -0.07702 0.26655 0.11196
 C783 C -0.08278 0.23950 0.12009
 C784 C -0.09386 0.22067 0.10165
 C785 C -0.09752 0.22893 0.07452
 C786 C -0.06617 0.28476 0.13086
 C787 C -0.06100 0.31183 0.12374
 C788 C -0.06724 0.32205 0.09741
 C789 C -0.07894 0.30374 0.07791
 C790 C -0.08752 0.31444 0.05235
 C791 C -0.08464 0.34200 0.04594
 C792 C -0.07241 0.35992 0.06435
 C793 C -0.06293 0.35016 0.09014
 C794 C -0.04928 0.36899 0.10746
 C795 C -0.04578 0.39628 0.09962
 C796 C -0.05598 0.40588 0.07450
 C797 C -0.06939 0.38761 0.05697
 H798 H -0.09521 0.26033 0.04503
 H799 H -0.07955 0.23350 0.14109
 H800 H -0.10486 0.21460 0.05953
 H801 H -0.06168 0.27804 0.15150
 H802 H -0.05302 0.32451 0.13974
 H803 H -0.09750 0.30218 0.03703
 H804 H -0.09197 0.34934 0.02623
 H805 H -0.04038 0.36321 0.12692
 H806 H -0.03485 0.40993 0.11331
 H807 H -0.07676 0.39476 0.03721
 C808 C -0.07812 0.71708 -0.14003
 C809 C -0.08635 0.70593 -0.11474
 C810 C -0.10578 0.72113 -0.09959
 C811 C -0.11652 0.74608 -0.10953
 C812 C -0.10928 0.75656 -0.13524
 C813 C -0.08936 0.74181 -0.15001
 C814 C -0.11488 0.71128 -0.07460
 C815 C -0.10624 0.68594 -0.06475
 C816 C -0.08772 0.66940 -0.07943
 C817 C -0.07654 0.68008 -0.10420
 C818 C -0.05600 0.66454 -0.11752
 C819 C -0.04745 0.63907 -0.10758
 C820 C -0.05941 0.62774 -0.08436
 C821 C -0.07988 0.64261 -0.07002
 C822 C -0.09214 0.62974 -0.04717
 C823 C -0.08404 0.60350 -0.03880
 C824 C -0.06350 0.58914 -0.05277
 C825 C -0.05117 0.60143 -0.07551
 H826 H -0.06364 0.70685 -0.15305
 H827 H -0.13067 0.75712 -0.09674
 H828 H -0.08283 0.74864 -0.16982
 H829 H -0.12936 0.72309 -0.06268
 H830 H -0.11426 0.68005 -0.04526
 H831 H -0.04579 0.67165 -0.13562
 H832 H -0.03161 0.62791 -0.11851
 H833 H -0.10851 0.63905 -0.03559
 H834 H -0.09395 0.59446 -0.02119
 H835 H -0.03527 0.59042 -0.08651
 C836 C 0.08114 0.72440 0.14347
 C837 C 0.08873 0.71264 0.11866
 C838 C 0.10737 0.72762 0.10186
 C839 C 0.11694 0.75367 0.10931
 C840 C 0.10915 0.76513 0.13395
 C841 C 0.09125 0.75004 0.15092
 C842 C 0.11658 0.71647 0.07778
 C843 C 0.10842 0.69037 0.07030
 C844 C 0.08994 0.67454 0.08633
 C845 C 0.07895 0.68637 0.11027
 C846 C 0.05824 0.67173 0.12479
 C847 C 0.04934 0.64602 0.11687
 C848 C 0.06108 0.63354 0.09455
 C849 C 0.08176 0.64742 0.07906
 C850 C 0.09370 0.63330 0.05721
 C851 C 0.08508 0.60683 0.05092
 C852 C 0.06427 0.59353 0.06602
 C853 C 0.05228 0.60708 0.08775
 H854 H 0.06811 0.71400 0.15802
 H855 H 0.13055 0.76498 0.09576
 H856 H 0.08537 0.75770 0.17042
 H857 H 0.13067 0.72789 0.06472
 H858 H 0.11653 0.68338 0.05140
 H859 H 0.04794 0.67987 0.14216
 H860 H 0.03330 0.63563 0.12861
 H861 H 0.11017 0.64187 0.04492
 H862 H 0.09479 0.59674 0.03411
 H863 H 0.03619 0.59692 0.09962
 C864 C 0.25716 1.12569 0.93450
 C865 C 0.27121 1.10169 0.92656
 C866 C 0.25643 1.08383 0.90900
 C867 C 0.22877 1.08983 0.90013
 C868 C 0.21548 1.11419 0.90732
 C869 C 0.22993 1.13186 0.92488
 C870 C 0.26952 1.06036 0.89976
 C871 C 0.29761 1.05495 0.90621
 C872 C 0.31363 1.07262 0.92275
 C873 C 0.29973 1.09536 0.93451
 C874 C 0.31481 1.11092 0.95378
 C875 C 0.34295 1.10532 0.96028
 C876 C 0.35742 1.08464 0.94726
 C877 C 0.34305 1.06815 0.92810
 C878 C 0.35894 1.04833 0.91446
 C879 C 0.38762 1.04466 0.92013
 C880 C 0.40152 1.06041 0.93963
 C881 C 0.38630 1.08040 0.95317
 H882 H 0.26708 1.14078 0.94713
 H883 H 0.21786 1.07564 0.88703
 H884 H 0.22072 1.15108 0.93060
 H885 H 0.25816 1.04638 0.88671
 H886 H 0.30607 1.03638 0.89822
 H887 H 0.30524 1.12732 0.96465
 H888 H 0.35364 1.11771 0.97529
 H889 H 0.35005 1.03573 0.89881
 H890 H 0.39890 1.02914 0.90929
 H891 H 0.39695 1.09278 0.96822
 C892 C 0.27597 0.91115 1.13621
 C893 C 0.28602 0.90486 1.11026
 C894 C 0.26947 0.88705 1.09412
 C895 C 0.24332 0.87719 1.10330
 C896 C 0.23339 0.88419 1.12887
 C897 C 0.25024 0.90096 1.14525
 C898 C 0.27914 0.87908 1.06895
 C899 C 0.30519 0.88791 1.05959
 C900 C 0.32244 0.90573 1.07485
 C901 C 0.31213 0.91518 1.10010
 C902 C 0.32801 0.93500 1.11417
 C903 C 0.35371 0.94434 1.10467
 C904 C 0.36484 0.93416 1.08097
 C905 C 0.34951 0.91471 1.06562
 C906 C 0.36220 0.90491 1.04187
 C907 C 0.38878 0.91421 1.03383
 C908 C 0.40352 0.93358 1.04906
 C909 C 0.39135 0.94349 1.07256
 H910 H 0.28777 0.92334 1.15039
 H911 H 0.23063 0.86423 1.09037
 H912 H 0.24383 0.90596 1.16547
 H913 H 0.26657 0.86556 1.05643
 H914 H 0.31098 0.88076 1.03996
 H915 H 0.32085 0.94429 1.13242
 H916 H 0.36510 0.95961 1.11618
 H917 H 0.35238 0.88978 1.02923
 H918 H 0.39777 0.90620 1.01558
 H919 H 0.40263 0.95847 1.08454
 C920 C 0.73886 1.11974 1.06910
 C921 C 0.72522 1.09515 1.07670
 C922 C 0.74010 1.07691 1.09440
 C923 C 0.76773 1.08297 1.10339
 C924 C 0.78086 1.10762 1.09588
 C925 C 0.76601 1.12583 1.07861
 C926 C 0.72718 1.05291 1.10342
 C927 C 0.69932 1.04713 1.09625
 C928 C 0.68338 1.06494 1.07917
 C929 C 0.69707 1.08855 1.06805
 C930 C 0.68223 1.10465 1.04854
 C931 C 0.65448 1.09880 1.04121
 C932 C 0.64017 1.07708 1.05336
 C933 C 0.65430 1.05985 1.07260
 C934 C 0.63848 1.03860 1.08489
 C935 C 0.61011 1.03447 1.07793
 C936 C 0.59653 1.05126 1.05855
 C937 C 0.61170 1.07254 1.04634
 H938 H 0.72876 1.13527 1.05664
 H939 H 0.77885 1.06850 1.11651
 H940 H 0.77493 1.14537 1.07287
 H941 H 0.73853 1.03868 1.11669
 H942 H 0.69100 1.02818 1.10414
 H943 H 0.69170 1.12173 1.03807
 H944 H 0.64397 1.11169 1.02609
 H945 H 0.64718 1.02512 1.10033
 H946 H 0.59880 1.01795 1.08776
 H947 H 0.60133 1.08565 1.03130
 C948 C 0.72109 0.85707 0.90017
 C949 C 0.71114 0.88419 0.89666
 C950 C 0.72730 0.90230 0.88043
 C951 C 0.75255 0.89358 0.86883
 C952 C 0.76206 0.86664 0.87247
 C953 C 0.74605 0.84855 0.88826
 C954 C 0.71811 0.92899 0.87557
 C955 C 0.69268 0.93801 0.88571
 C956 C 0.67550 0.92072 0.90162
 C957 C 0.68544 0.89375 0.90813
 C958 C 0.66947 0.87733 0.92598
 C959 C 0.64401 0.88638 0.93614
 C960 C 0.63322 0.91195 0.92872
 C961 C 0.64874 0.92954 0.91133
 C962 C 0.63646 0.95503 0.90394
 C963 C 0.61009 0.96258 0.91346
 C964 C 0.59501 0.94516 0.93069
 C965 C 0.60679 0.91995 0.93845
 H966 H 0.70975 0.84165 0.91135
 H967 H 0.76483 0.90789 0.85690
 H968 H 0.75244 0.82745 0.89096
 H969 H 0.73051 0.94300 0.86337
 H970 H 0.68730 0.95892 0.88094
 H971 H 0.67626 0.85737 0.93288
 H972 H 0.63246 0.87300 0.94973
 H973 H 0.64632 0.96947 0.89041
 H974 H 0.60146 0.98224 0.90721
 H975 H 0.59517 0.90632 0.95173
   
