data_POSCAR
  _audit_creation_date              2014-09-24
  _audit_creation_method            'ToBaCCo'
  _symmetry_space_group_name_H-M    'P1'
  _symmetry_Int_Tables_number       1
  _symmetry_cell_setting            triclinic
  loop_
  _symmetry_equiv_pos_as_xyz
 x,y,z
_cell_length_a 6.4026
_cell_length_b 6.4026
_cell_length_c 6.4026
_cell_angle_alpha 90.000000
_cell_angle_beta 90.000000
_cell_angle_gamma 90.000000
loop_
  _atom_site_label
  _atom_site_type_symbol
  _atom_site_fract_x
  _atom_site_fract_y
  _atom_site_fract_z
Si1 Si 0.00028 0.50048 0.24756
 Si2 Si 0.00028 0.50048 0.74756
 Si3 Si 0.25028 0.00048 0.49756
 Si4 Si 0.75028 0.00048 0.49756
 Si5 Si 0.50028 0.25048 0.99756
 Si6 Si 0.50028 0.75048 0.99756
 B7 B 1.00028 1.21545 0.12564
 B8 B 1.12836 1.00048 0.21253
 B9 B 0.87220 1.00048 0.21253
 B10 B 0.78531 1.12856 -0.00244
 B11 B 1.00028 1.21545 -0.13052
 B12 B 1.21525 1.12856 -0.00244
 B13 B 1.00028 0.78551 -0.13052
 B14 B 0.87220 1.00048 -0.21741
 B15 B 1.12836 1.00048 -0.21741
 B16 B 1.21525 0.87240 -0.00244
 B17 B 1.00028 0.78551 0.12564
 B18 B 0.78531 0.87240 -0.00244
 B19 B 0.71525 0.50048 0.36948
 B20 B 0.71525 0.50048 0.62564
 B21 B 0.62836 0.71545 0.49756
 B22 B 0.50028 0.62856 0.28259
 B23 B 0.50028 0.37240 0.28259
 B24 B 0.62836 0.28551 0.49756
 B25 B 0.28531 0.50048 0.62564
 B26 B 0.28531 0.50048 0.36948
 B27 B 0.37220 0.28551 0.49756
 B28 B 0.50028 0.37240 0.71253
 B29 B 0.50028 0.62856 0.71253
 B30 B 0.37220 0.71545 0.49756
   
