data_POSCAR
  _audit_creation_date              2014-09-24
  _audit_creation_method            'ToBaCCo'
  _symmetry_space_group_name_H-M    'P1'
  _symmetry_Int_Tables_number       1
  _symmetry_cell_setting            triclinic
  loop_
  _symmetry_equiv_pos_as_xyz
 x,y,z
_cell_length_a 25.8760
_cell_length_b 25.3992
_cell_length_c 26.0080
_cell_angle_alpha 88.278000
_cell_angle_beta 91.633300
_cell_angle_gamma 89.025200
loop_
  _atom_site_label
  _atom_site_type_symbol
  _atom_site_fract_x
  _atom_site_fract_y
  _atom_site_fract_z
C1 C 0.20133 1.20012 0.22515
 C2 C 0.23616 1.16397 0.20471
 C3 C 0.24215 1.11397 0.22715
 C4 C 0.21387 1.09961 0.27034
 C5 C 0.17963 1.13542 0.29086
 C6 C 0.17321 1.18597 0.26804
 C7 C 0.18768 1.25135 0.21132
 N8 N 0.15226 1.26785 0.24480
 C9 C 0.14288 1.22888 0.27970
 C10 C 0.15865 1.11120 0.33345
 N11 N 0.17954 1.06202 0.33837
 C12 C 0.21328 1.05415 0.30051
 C13 C 0.27819 1.08720 0.19965
 N14 N 0.29415 1.11986 0.16153
 C15 C 0.26899 1.16699 0.16387
 H16 H 0.20231 1.27483 0.17967
 H17 H 0.11631 1.23168 0.31096
 H18 H 0.13119 1.12813 0.35919
 H19 H 0.23612 1.01858 0.29592
 H20 H 0.29192 1.04707 0.20672
 H21 H 0.27401 1.20047 0.13786
 C22 C 0.80524 0.75958 0.12750
 C23 C 0.78333 0.80911 0.11380
 C24 C 0.77936 0.84727 0.15053
 C25 C 0.79749 0.83673 0.20106
 C26 C 0.81902 0.78775 0.21486
 C27 C 0.82291 0.74889 0.17781
 C28 C 0.80847 0.71325 0.10142
 N29 N 0.82788 0.67558 0.13475
 C30 C 0.83664 0.69621 0.18148
 C31 C 0.82696 0.78653 0.26763
 N32 N 0.81118 0.83368 0.28506
 C33 C 0.79273 0.86456 0.24527
 C34 C 0.75021 0.88839 0.12900
 N35 N 0.73675 0.87604 0.08014
 C36 C 0.75677 0.82797 0.07012
 H37 H 0.79552 0.70681 0.06219
 H38 H 0.84963 0.67410 0.21582
 H39 H 0.84019 0.75316 0.29166
 H40 H 0.77444 0.90291 0.24872
 H41 H 0.73713 0.92314 0.14833
 H42 H 0.74934 0.80691 0.03518
 C43 C 0.85220 1.28633 -0.20689
 C44 C 0.80063 1.26995 -0.20822
 C45 C 0.77942 1.24975 -0.25291
 C46 C 0.80944 1.24538 -0.29662
 C47 C 0.86039 1.26159 -0.29539
 C48 C 0.88179 1.28232 -0.25038
 C49 C 0.88440 1.30288 -0.16758
 N50 N 0.93197 1.30928 -0.18693
 C51 C 0.93133 1.29663 -0.23705
 C52 C 0.88153 1.24866 -0.34151
 N53 N 0.84431 1.22549 -0.36998
 C54 C 0.80023 1.22280 -0.34343
 C55 C 0.73091 1.23206 -0.24182
 N56 N 0.72246 1.24116 -0.19161
 C57 C 0.76455 1.26414 -0.17057
 H58 H 0.87466 1.30767 -0.12776
 H59 H 0.96478 1.29563 -0.26111
 H60 H 0.92111 1.25400 -0.35278
 H61 H 0.76499 1.20437 -0.35649
 H62 H 0.70509 1.21132 -0.26734
 H63 H 0.76960 1.27298 -0.13030
 C64 C 0.20873 0.76458 -0.14129
 C65 C 0.23033 0.80947 -0.16372
 C66 C 0.20096 0.84247 -0.19688
 C67 C 0.14935 0.82994 -0.20877
 C68 C 0.12800 0.78510 -0.18651
 C69 C 0.15774 0.75239 -0.15231
 C70 C 0.22754 0.72874 -0.10446
 N71 N 0.18915 0.69526 -0.09331
 C72 C 0.14609 0.70896 -0.12179
 C73 C 0.07757 0.78279 -0.20426
 N74 N 0.06825 0.82483 -0.23651
 C75 C 0.11130 0.85417 -0.23993
 C76 C 0.23086 0.88572 -0.20821
 N77 N 0.27714 0.87880 -0.18290
 C78 C 0.27730 0.83242 -0.15577
 H79 H 0.26543 0.72829 -0.08564
 H80 H 0.10887 0.69050 -0.11904
 H81 H 0.05003 0.75248 -0.19525
 H82 H 0.11490 0.88953 -0.26374
 H83 H 0.21901 0.92062 -0.23070
 H84 H 0.30806 0.81811 -0.12963
 C85 C 0.56837 1.14504 -0.07526
 H86 H 0.56910 1.14490 -0.03364
 C87 C 0.60282 1.17623 -0.10243
 H88 H 0.62956 1.20060 -0.08149
 C89 C 0.53557 1.10982 -0.15283
 H90 H 0.51096 1.08214 -0.17204
 C91 C 0.56925 1.14061 -0.18152
 H92 H 0.57006 1.13705 -0.22288
 N93 N 0.53667 1.11174 -0.10060
 C94 C 0.43215 1.05227 0.01451
 H95 H 0.44106 1.01091 0.01007
 C96 C 0.39617 1.06743 0.05016
 H97 H 0.37745 1.03740 0.07302
 C98 C 0.44598 1.14138 -0.01047
 H99 H 0.46547 1.16982 -0.03447
 C100 C 0.40963 1.15837 0.02469
 H101 H 0.40124 1.20001 0.02803
 Zn102 Zn 0.50421 1.06015 -0.05998
 N103 N 0.45672 1.08903 -0.01439
 C104 C 0.56075 1.02835 0.03068
 N105 N 0.55774 1.02403 -0.02134
 C106 C 0.59380 0.99584 -0.04656
 C107 C 0.63296 0.96777 -0.01896
 C108 C 0.59982 1.00184 0.05957
 C109 C 0.42380 1.03178 -0.12789
 C110 C 0.38836 0.99718 -0.14957
 C111 C 0.44166 0.92427 -0.11622
 C112 C 0.47583 0.96002 -0.09502
 N113 N 0.46598 1.01271 -0.10036
 H114 H 0.53307 1.05257 0.04993
 H115 H 0.59143 0.99435 -0.08809
 H116 H 0.66066 0.94442 -0.03931
 H117 H 0.60162 1.00496 0.10102
 H118 H 0.41619 1.07381 -0.13047
 H119 H 0.35362 1.01272 -0.16909
 H120 H 0.44847 0.88240 -0.10955
 H121 H 0.50823 0.94531 -0.07154
 C122 C 0.38474 1.12113 0.05572
 C123 C 0.60443 1.17283 -0.15614
 C124 C 0.39680 0.94270 -0.14243
 C125 C 0.63570 0.97047 0.03485
 C126 C -0.03303 0.56109 1.06360
 H127 H -0.00035 0.58439 1.05270
 C128 C -0.07751 0.58616 1.08076
 H129 H -0.07901 0.62872 1.08209
 C130 C -0.07012 0.47733 1.07765
 H131 H -0.06632 0.43485 1.07749
 C132 C -0.11551 0.50082 1.09452
 H133 H -0.14705 0.47648 1.10690
 N134 N -0.03014 0.50758 1.06240
 C135 C 0.06844 0.38237 1.10512
 H136 H 0.06441 0.36117 1.06992
 C137 C 0.08704 0.35588 1.14993
 H138 H 0.09746 0.31449 1.14868
 C139 C 0.05920 0.46166 1.15009
 H140 H 0.04838 0.50300 1.14967
 C141 C 0.07703 0.43655 1.19584
 H142 H 0.08004 0.45851 1.23081
 Zn143 Zn 0.03228 0.47304 1.04583
 N144 N 0.05584 0.43459 1.10580
 C145 C 0.12788 0.52507 1.05368
 N146 N 0.08240 0.52264 1.02640
 C147 C 0.07307 0.55338 0.98325
 C148 C 0.11005 0.58902 0.96648
 C149 C 0.16583 0.56000 1.03820
 C150 C -0.02410 0.42142 0.96604
 C151 C -0.02883 0.38833 0.92417
 C152 C 0.06306 0.37005 0.93152
 C153 C 0.06610 0.40351 0.97298
 N154 N 0.02282 0.42782 0.98987
 H155 H 0.13518 0.49947 1.08708
 H156 H 0.03694 0.54992 0.96174
 H157 H 0.10219 0.61293 0.93202
 H158 H 0.20198 0.56163 1.06006
 H159 H -0.05780 0.44218 0.97909
 H160 H -0.06633 0.38352 0.90561
 H161 H 0.09768 0.35057 0.91859
 H162 H 0.10307 0.41014 0.99194
 C163 C 0.09175 0.38336 1.19589
 C164 C -0.11924 0.55567 1.09675
 C165 C 0.01532 0.36209 0.90680
 C166 C 0.15707 0.59244 0.99436
 C167 C 1.00173 -0.05646 0.61061
 H168 H 1.02486 -0.02213 0.60312
 C169 C 1.01010 -0.08648 0.65624
 H170 H 1.03928 -0.07489 0.68407
 C171 C 0.93570 -0.11383 0.58358
 H172 H 0.90750 -0.12547 0.55503
 C173 C 0.94171 -0.14380 0.62919
 H174 H 0.91772 -0.17775 0.63565
 N175 N 0.96510 -0.07064 0.57517
 C176 C 1.02326 0.01248 0.43921
 H177 H 0.98982 0.03537 0.42580
 C178 C 1.07037 0.01980 0.41531
 H179 H 1.07260 0.04837 0.38379
 C180 C 1.06112 -0.05302 0.49586
 H181 H 1.05730 -0.08201 0.52668
 C182 C 1.10896 -0.04689 0.47307
 H183 H 1.14192 -0.07069 0.48683
 Zn184 Zn 0.95522 -0.03052 0.51217
 N185 N 1.01954 -0.02298 0.47920
 C186 C 0.90477 0.06441 0.48337
 N187 N 0.92633 0.03700 0.52457
 C188 C 0.92514 0.05654 0.57272
 C189 C 0.90253 0.10599 0.58051
 C190 C 0.88214 0.11400 0.48938
 C191 C 0.92356 -0.08632 0.42373
 C192 C 0.88828 -0.11255 0.39230
 C193 C 0.82187 -0.09474 0.45324
 C194 C 0.85803 -0.06797 0.48289
 N195 N 0.90799 -0.06512 0.46830
 H196 H 0.90435 0.04736 0.44578
 H197 H 0.94150 0.03388 0.60518
 H198 H 0.90198 0.12109 0.61897
 H199 H 0.86518 0.13549 0.45631
 H200 H 0.96342 -0.08335 0.41276
 H201 H 0.90113 -0.12962 0.35713
 H202 H 0.78238 -0.09767 0.46560
 H203 H 0.84660 -0.05024 0.51823
 C204 C 1.11398 -0.00994 0.43270
 C205 C 0.97951 -0.13063 0.66568
 C206 C 0.83685 -0.11727 0.40751
 C207 C 0.88085 0.13523 0.53824
 N208 N 0.13129 0.31401 1.24389
 N209 N 0.11148 0.35848 1.24278
 N210 N -0.16846 0.62641 1.12520
 N211 N -0.16513 0.57912 1.11634
 N212 N -0.02688 0.31892 0.83958
 N213 N 0.01326 0.32752 0.86430
 N214 N 0.19213 0.66026 0.94337
 N215 N 0.19698 0.62757 0.97924
 N216 N 1.17107 0.02869 0.37511
 N217 N 1.16355 -0.00357 0.41032
 N218 N 1.02607 -0.16756 0.73695
 N219 N 0.98504 -0.16239 0.71196
 N220 N 0.80564 -0.15569 0.33251
 N221 N 0.79923 -0.14483 0.37774
 N222 N 0.85089 0.20538 0.58598
 N223 N 0.85694 0.18600 0.54368
 N224 N 0.33043 1.10526 0.12529
 N225 N 0.34824 1.13801 0.09258
 N226 N 0.68120 1.22167 -0.16323
 N227 N 0.64462 1.19687 -0.18486
 N228 N 0.31510 0.91733 -0.17776
 N229 N 0.35799 0.90537 -0.15482
 N230 N 0.70090 0.90416 0.04791
 N231 N 0.67367 0.94133 0.06550
   
