data_POSCAR
  _audit_creation_date              2014-09-24
  _audit_creation_method            'ToBaCCo'
  _symmetry_space_group_name_H-M    'P1'
  _symmetry_Int_Tables_number       1
  _symmetry_cell_setting            triclinic
  loop_
  _symmetry_equiv_pos_as_xyz
 x,y,z
_cell_length_a 25.3449
_cell_length_b 25.3502
_cell_length_c 41.5365
_cell_angle_alpha 89.905300
_cell_angle_beta 90.527300
_cell_angle_gamma 89.995400
loop_
  _atom_site_label
  _atom_site_type_symbol
  _atom_site_fract_x
  _atom_site_fract_y
  _atom_site_fract_z
O1 O -0.04421 0.44878 1.03030
 O2 O -0.04307 0.55191 0.96764
 O3 O -0.04368 0.44898 0.96772
 O4 O -0.04481 0.55167 1.03026
 O5 O 0.04244 0.55176 1.03137
 O6 O 0.04357 0.44887 0.96877
 O7 O 0.04417 0.55180 0.96875
 O8 O 0.04305 0.44888 1.03135
 Cu9 Cu -0.05274 0.50036 0.99887
 Cu10 Cu 0.05211 0.50035 1.00016
 C11 C -0.00072 0.43126 1.04128
 C12 C 0.00078 0.56940 0.95771
 C13 C 0.00009 0.43137 0.95781
 C14 C -0.00142 0.56918 1.04130
 O15 O 0.55134 0.04571 0.46786
 O16 O 0.45030 0.04563 0.53114
 O17 O 0.55320 0.04625 0.53048
 O18 O 0.44840 0.04632 0.46853
 O19 O 0.44831 -0.04092 0.46855
 O20 O 0.55331 -0.04099 0.53055
 O21 O 0.45042 -0.04161 0.53116
 O22 O 0.55124 -0.04152 0.46794
 Cu23 Cu 0.50081 0.05478 0.49949
 Cu24 Cu 0.50082 -0.05006 0.49955
 C25 C 0.56851 0.00206 0.45733
 C26 C 0.43317 0.00195 0.54173
 C27 C 0.57110 0.00266 0.54088
 C28 C 0.43048 0.00275 0.45819
 C29 C 0.10319 0.00459 0.26369
 H30 H 0.10623 0.00515 0.23773
 C31 C 0.14885 0.00589 0.28280
 H32 H 0.18724 0.00732 0.27158
 C33 C 0.04953 0.00231 0.31016
 H34 H 0.01085 0.00164 0.32079
 C35 C 0.09413 0.00361 0.33012
 H36 H 0.08959 0.00337 0.35603
 N37 N 0.05481 0.00194 0.27757
 C38 C -0.04764 -0.07242 0.20577
 H39 H -0.07979 -0.04436 0.20500
 C40 C -0.04916 -0.11709 0.18615
 H41 H -0.08249 -0.12348 0.17012
 C42 C 0.03532 -0.09836 0.22744
 H43 H 0.06794 -0.09128 0.24375
 C44 C 0.03535 -0.14355 0.20824
 H45 H 0.06825 -0.17077 0.20958
 Zn46 Zn -0.00539 -0.00063 0.25019
 N47 N -0.00534 -0.06336 0.22542
 C48 C -0.00284 0.05361 0.19027
 N49 N -0.00310 0.05928 0.22286
 C50 C -0.00043 0.10783 0.23675
 C51 C 0.00082 0.15324 0.21764
 C52 C -0.00160 0.09795 0.17032
 C53 C -0.07677 -0.04256 0.29443
 C54 C -0.12135 -0.04403 0.31393
 C55 C -0.14812 0.04023 0.29192
 C56 C -0.10303 0.04016 0.27283
 N57 N -0.06792 -0.00041 0.27487
 H58 H -0.00350 0.01481 0.17963
 H59 H 0.00024 0.11119 0.26271
 H60 H 0.00230 0.19176 0.22886
 H61 H -0.00189 0.09309 0.14440
 H62 H -0.04864 -0.07465 0.29521
 H63 H -0.12757 -0.07726 0.32988
 H64 H -0.17544 0.07305 0.29057
 H65 H -0.09610 0.07265 0.25659
 C66 C -0.00703 -0.15270 0.18720
 C67 C 0.14421 0.00505 0.31632
 C68 C -0.15708 -0.00202 0.31286
 C69 C -0.00010 0.14819 0.18412
 C70 C 0.00015 0.10731 0.76341
 H71 H -0.00041 0.11059 0.73744
 C72 C -0.00116 0.15277 0.78237
 H73 H -0.00258 0.19126 0.77103
 C74 C 0.00237 0.05321 0.81005
 H75 H 0.00299 0.01444 0.82081
 C76 C 0.00106 0.09761 0.82987
 H77 H 0.00125 0.09283 0.85580
 N78 N 0.00276 0.05879 0.77745
 C79 C 0.07679 -0.04321 0.70632
 H80 H 0.04867 -0.07530 0.70559
 C81 C 0.12139 -0.04468 0.68684
 H82 H 0.12766 -0.07792 0.67097
 C83 C 0.10293 0.03957 0.72770
 H84 H 0.09594 0.07210 0.74384
 C85 C 0.14806 0.03964 0.70864
 H86 H 0.17533 0.07249 0.70991
 Zn87 Zn 0.00518 -0.00116 0.75028
 N88 N 0.06786 -0.00102 0.72574
 C89 C -0.04924 0.00188 0.69016
 N90 N -0.05481 0.00145 0.72273
 C91 C -0.10332 0.00408 0.73644
 C92 C -0.14881 0.00542 0.71718
 C93 C -0.09366 0.00322 0.67004
 C94 C 0.04707 -0.07300 0.79495
 C95 C 0.04849 -0.11776 0.81459
 C96 C -0.03582 -0.14419 0.79228
 C97 C -0.03570 -0.09891 0.77306
 N98 N 0.00492 -0.06389 0.77518
 H99 H -0.01047 0.00124 0.67965
 H100 H -0.10659 0.00460 0.76239
 H101 H -0.18730 0.00683 0.72826
 H102 H -0.08889 0.00303 0.64415
 H103 H 0.07921 -0.04493 0.79580
 H104 H 0.08172 -0.12420 0.83071
 H105 H -0.06868 -0.17145 0.79084
 H106 H -0.06819 -0.09179 0.75665
 C107 C 0.15707 -0.00263 0.68781
 C108 C -0.00037 0.14781 0.81591
 C109 C 0.00642 -0.15342 0.81343
 C110 C -0.14387 0.00464 0.68367
 C111 C -0.00204 -0.38997 0.06516
 C112 C -0.00283 -0.35508 0.08482
 C113 C -0.00393 -0.31357 0.10742
 C114 C -0.00490 -0.27758 0.12632
 C115 C -0.00594 -0.23478 0.14800
 C116 C -0.00662 -0.19768 0.16610
 C117 C -0.00095 0.39004 0.06498
 C118 C -0.00086 0.35469 0.08442
 C119 C -0.00054 0.31251 0.10665
 C120 C -0.00021 0.27584 0.12515
 C121 C 0.00010 0.23215 0.14626
 C122 C 0.00017 0.19421 0.16379
 C123 C 0.39289 0.00171 0.56576
 C124 C 0.35838 0.00117 0.58553
 C125 C 0.31724 0.00029 0.60820
 C126 C 0.28149 -0.00055 0.62713
 C127 C 0.23891 -0.00150 0.64878
 C128 C 0.20194 -0.00216 0.66683
 C129 C -0.38711 0.00281 0.56441
 C130 C -0.35139 0.00318 0.58376
 C131 C -0.30885 0.00376 0.60593
 C132 C -0.27195 0.00426 0.62443
 C133 C -0.22805 0.00472 0.64559
 C134 C -0.18999 0.00488 0.66320
 C135 C 0.00136 -0.39177 0.93518
 C136 C 0.00213 -0.35673 0.91553
 C137 C 0.00322 -0.31502 0.89299
 C138 C 0.00419 -0.27885 0.87414
 C139 C 0.00525 -0.23584 0.85253
 C140 C 0.00596 -0.19857 0.83448
 C141 C 0.00033 0.39014 0.93421
 C142 C 0.00024 0.35474 0.91487
 C143 C -0.00006 0.31247 0.89279
 C144 C -0.00037 0.27572 0.87442
 C145 C -0.00064 0.23192 0.85348
 C146 C -0.00069 0.19391 0.83609
 C147 C -0.39328 0.00190 0.43464
 C148 C -0.35872 0.00145 0.41490
 C149 C -0.31750 0.00066 0.39228
 C150 C -0.28168 -0.00011 0.37341
 C151 C -0.23901 -0.00099 0.35181
 C152 C -0.20198 -0.00160 0.33381
 C153 C 0.38858 0.00296 0.43473
 C154 C 0.35271 0.00337 0.41548
 C155 C 0.30998 0.00400 0.39345
 C156 C 0.27289 0.00455 0.37508
 C157 C 0.22877 0.00505 0.35410
 C158 C 0.19052 0.00525 0.33663
   
