data_POSCAR
  _audit_creation_date              2014-09-24
  _audit_creation_method            'ToBaCCo'
  _symmetry_space_group_name_H-M    'P1'
  _symmetry_Int_Tables_number       1
  _symmetry_cell_setting            triclinic
  loop_
  _symmetry_equiv_pos_as_xyz
 x,y,z
_cell_length_a 43.0376
_cell_length_b 42.9480
_cell_length_c 19.2801
_cell_angle_alpha 89.799000
_cell_angle_beta 90.163300
_cell_angle_gamma 119.667600
loop_
  _atom_site_label
  _atom_site_type_symbol
  _atom_site_fract_x
  _atom_site_fract_y
  _atom_site_fract_z
C1 C 0.30750 0.45696 0.47432
 C2 C 0.30647 0.45550 0.54529
 C3 C 0.27130 0.44380 0.56457
 N4 N 0.25095 0.43861 0.50750
 C5 C 0.27311 0.44666 0.45233
 C6 C 0.25836 0.43695 0.63380
 C7 C 0.22448 0.43240 0.65213
 C8 C 0.20579 0.41530 0.71180
 C9 C 0.17466 0.41687 0.71099
 C10 C 0.17532 0.43538 0.65136
 N11 N 0.20572 0.44449 0.61544
 C12 C 0.14857 0.44396 0.63190
 C13 C 0.14686 0.45536 0.56356
 C14 C 0.12898 0.47353 0.54471
 C15 C 0.13079 0.47653 0.47416
 C16 C 0.15084 0.46125 0.45197
 N17 N 0.16057 0.44819 0.50675
 C18 C 0.15714 0.45670 0.38187
 C19 C 0.18236 0.44664 0.36131
 C20 C 0.18538 0.43582 0.29514
 C21 C 0.21520 0.43185 0.29542
 C22 C 0.22975 0.44077 0.36147
 N23 N 0.20957 0.44972 0.40121
 C24 C 0.26246 0.44341 0.38207
 H25 H 0.33100 0.46514 0.44256
 H26 H 0.32919 0.46255 0.57883
 H27 H 0.21643 0.46159 0.44989
 H28 H 0.21352 0.40245 0.75127
 H29 H 0.15379 0.40534 0.74973
 H30 H 0.11571 0.48346 0.57823
 H31 H 0.11844 0.48852 0.44337
 H32 H 0.22544 0.42411 0.25150
 H33 H 0.21485 0.46091 0.57177
 H34 H 0.16844 0.43193 0.25073
 C35 C 0.58863 -0.12610 0.55142
 C36 C 0.58708 -0.12473 0.48057
 C37 C 0.57567 -0.15909 0.45687
 N38 N 0.57107 -0.18119 0.51068
 C39 C 0.57884 -0.16122 0.56892
 C40 C 0.56381 -0.17100 0.38873
 C41 C 0.55685 -0.20505 0.36544
 C42 C 0.53593 -0.22279 0.30849
 C43 C 0.53606 -0.25462 0.30310
 C44 C 0.55753 -0.25534 0.35638
 N45 N 0.56990 -0.22504 0.39447
 C46 C 0.56515 -0.28352 0.36913
 C47 C 0.57627 -0.28830 0.43577
 C48 C 0.59188 -0.30918 0.45056
 C49 C 0.59325 -0.31111 0.52147
 C50 C 0.57930 -0.29064 0.54750
 N51 N 0.56917 -0.27649 0.49523
 C52 C 0.57237 -0.28834 0.61809
 C53 C 0.56557 -0.26135 0.64286
 C54 C 0.55077 -0.26179 0.70682
 C55 C 0.55059 -0.23006 0.71244
 C56 C 0.56445 -0.21127 0.65092
 N57 N 0.57415 -0.23036 0.60939
 C58 C 0.57028 -0.17629 0.63647
 H59 H 0.59473 -0.10386 0.58538
 H60 H 0.59191 -0.10150 0.45024
 H61 H 0.58881 -0.22142 0.56365
 H62 H 0.52135 -0.21415 0.27515
 H63 H 0.52123 -0.27522 0.26508
 H64 H 0.60045 -0.32248 0.41401
 H65 H 0.60294 -0.32618 0.55062
 H66 H 0.54173 -0.22179 0.75764
 H67 H 0.58838 -0.21728 0.43490
 H68 H 0.54127 -0.28262 0.74592
 C69 C 1.34277 0.84138 0.44920
 C70 C 1.34453 0.84118 0.52020
 C71 C 1.30966 0.82579 0.54412
 N72 N 1.28663 0.81627 0.48991
 C73 C 1.30686 0.82601 0.43176
 C74 C 1.29914 0.82015 0.61479
 C75 C 1.26331 0.79513 0.63289
 C76 C 1.24704 0.79515 0.69493
 C77 C 1.21446 0.76436 0.69620
 C78 C 1.21136 0.74664 0.63438
 N79 N 1.24090 0.76589 0.59524
 C80 C 1.18255 0.71240 0.61766
 C81 C 1.17226 0.70182 0.54785
 C82 C 1.14794 0.66745 0.52566
 C83 C 1.14525 0.66917 0.45483
 C84 C 1.16830 0.70438 0.43602
 N85 N 1.18463 0.72430 0.49287
 C86 C 1.17402 0.71802 0.36764
 C87 C 1.20277 0.75227 0.35103
 C88 C 1.20548 0.77049 0.28986
 C89 C 1.23938 0.79957 0.28820
 C90 C 1.25653 0.79821 0.34829
 N91 N 1.23381 0.76969 0.38702
 C92 C 1.29321 0.82112 0.36312
 H93 H 1.36537 0.85087 0.41443
 H94 H 1.36869 0.85029 0.55047
 H95 H 1.24093 0.75997 0.43017
 H96 H 1.25784 0.81499 0.73573
 H97 H 1.19521 0.75581 0.73804
 H98 H 1.13393 0.64349 0.55696
 H99 H 1.12877 0.64693 0.42104
 H100 H 1.25050 0.81901 0.24659
 H101 H 1.24715 0.75719 0.54969
 H102 H 1.18546 0.76292 0.24960
 C103 C 0.86994 0.60451 0.52913
 C104 C 0.86650 0.59832 0.45909
 C105 C 0.83020 0.58088 0.44526
 N106 N 0.81131 0.57601 0.50391
 C107 C 0.83549 0.58983 0.55543
 C108 C 0.81438 0.56351 0.38288
 C109 C 0.77931 0.55533 0.36569
 C110 C 0.75837 0.53272 0.31306
 C111 C 0.72612 0.53239 0.31524
 C112 C 0.72849 0.55469 0.36937
 N113 N 0.76112 0.56904 0.39870
 C114 C 0.70157 0.56219 0.39048
 C115 C 0.70226 0.57716 0.45567
 C116 C 0.68149 0.59226 0.47361
 C117 C 0.68475 0.59719 0.54399
 C118 C 0.70683 0.58420 0.56669
 N119 N 0.71812 0.57262 0.51240
 C120 C 0.71172 0.57768 0.63674
 C121 C 0.74169 0.57412 0.65615
 C122 C 0.74370 0.55590 0.71409
 C123 C 0.77606 0.55678 0.71103
 C124 C 0.79312 0.57556 0.65133
 N125 N 0.77204 0.58617 0.61847
 C126 C 0.82622 0.58076 0.62553
 H127 H 0.89464 0.61568 0.55840
 H128 H 0.88795 0.60418 0.42301
 H129 H 0.77847 0.60172 0.57348
 H130 H 0.76540 0.51777 0.27746
 H131 H 0.70340 0.51708 0.28163
 H132 H 0.66471 0.59783 0.43974
 H133 H 0.67101 0.60741 0.57548
 H134 H 0.78492 0.54338 0.74695
 H135 H 0.77114 0.58903 0.43640
 H136 H 0.72325 0.54166 0.75270
 C137 C 0.46199 0.32051 0.48115
 C138 C 0.45887 0.31801 0.55199
 C139 C 0.45140 0.28362 0.57004
 N140 N 0.45060 0.26534 0.51243
 C141 C 0.45713 0.28793 0.45818
 C142 C 0.44450 0.26920 0.63836
 C143 C 0.44286 0.23622 0.65440
 C144 C 0.42331 0.21387 0.70858
 C145 C 0.42873 0.18490 0.70690
 C146 C 0.45245 0.19082 0.65308
 N147 N 0.46047 0.22206 0.62067
 C148 C 0.46671 0.16817 0.63555
 C149 C 0.48494 0.17277 0.57184
 C150 C 0.50944 0.16138 0.55843
 C151 C 0.51849 0.16839 0.48974
 C152 C 0.49958 0.18417 0.46374
 N153 N 0.47921 0.18698 0.51389
 C154 C 0.49836 0.19235 0.39335
 C155 C 0.48173 0.21172 0.37086
 C156 C 0.46987 0.21158 0.30389
 C157 C 0.45761 0.23566 0.30280
 C158 C 0.46282 0.25009 0.36892
 N159 N 0.47723 0.23507 0.41023
 C160 C 0.45803 0.27910 0.38795
 H161 H 0.46801 0.34392 0.45028
 H162 H 0.46218 0.33937 0.58616
 H163 H 0.48766 0.24346 0.45979
 H164 H 0.40619 0.21767 0.74448
 H165 H 0.41624 0.16201 0.74129
 H166 H 0.51961 0.14915 0.59439
 H167 H 0.53655 0.16220 0.46187
 H168 H 0.44690 0.24241 0.25797
 H169 H 0.47943 0.23492 0.58187
 H170 H 0.47029 0.19600 0.26027
 C171 C 0.68168 0.14479 0.50652
 C172 C 0.68572 0.14190 0.43691
 C173 C 0.72200 0.16231 0.42309
 N174 N 0.74027 0.17786 0.48190
 C175 C 0.71562 0.16693 0.53302
 C176 C 0.73795 0.16460 0.35788
 C177 C 0.77239 0.19325 0.34136
 C178 C 0.79218 0.19512 0.28328
 C179 C 0.82204 0.22880 0.28307
 C180 C 0.81983 0.24641 0.34140
 N181 N 0.78956 0.22457 0.37655
 C182 C 0.84386 0.28266 0.35807
 C183 C 0.84543 0.29730 0.42463
 C184 C 0.86482 0.33347 0.44101
 C185 C 0.86136 0.33611 0.51116
 C186 C 0.83966 0.30156 0.53525
 N187 N 0.83005 0.27786 0.48245
 C188 C 0.83099 0.29206 0.60561
 C189 C 0.80410 0.25767 0.62624
 C190 C 0.80032 0.24383 0.69268
 C191 C 0.76997 0.21079 0.69228
 C192 C 0.75588 0.20554 0.62571
 N193 N 0.77699 0.23416 0.58564
 C194 C 0.72354 0.17551 0.60395
 H195 H 0.65659 0.13227 0.53443
 H196 H 0.66428 0.12672 0.40058
 H197 H 0.77109 0.23893 0.53563
 H198 H 0.78547 0.17465 0.24437
 H199 H 0.84280 0.23929 0.24400
 H200 H 0.88004 0.35573 0.40624
 H201 H 0.87339 0.36063 0.54103
 H202 H 0.75950 0.19270 0.73609
 H203 H 0.77906 0.23225 0.41729
 H204 H 0.81766 0.25622 0.73686
 O205 O 0.94649 0.51082 -0.14092
 O206 O 1.00304 0.55775 0.10624
 O207 O 0.93958 0.52719 0.06576
 O208 O 1.05771 0.55965 -0.06945
 O209 O 0.94769 0.50292 0.15112
 O210 O 1.01219 0.55219 -0.13382
 O211 O 1.05223 0.56995 0.05706
 O212 O 0.93566 0.53044 -0.04950
 C213 C 0.93515 0.52920 -0.11296
 C214 C 1.03534 0.57913 0.09694
 C215 C 0.93241 0.51859 0.12713
 C216 C 1.04473 0.56972 -0.11874
 O217 O 1.02279 0.49791 -0.13164
 O218 O 0.96950 0.46166 0.10352
 O219 O 0.91319 0.45797 -0.06594
 O220 O 1.03584 0.50175 0.08604
 O221 O 1.01325 0.51388 0.17578
 O222 O 0.95706 0.45695 -0.11970
 O223 O 1.04225 0.49197 -0.03303
 O224 O 0.91987 0.45470 0.05939
 Co225 Co 0.98462 0.50497 -0.11940
 Co226 Co 0.98699 0.50985 0.09990
 Co227 Co 0.93127 0.49362 0.00220
 Co228 Co 1.04170 0.52928 0.00885
 O229 O 0.98508 0.50953 -0.00640
 C230 C 1.04049 0.48775 -0.09647
 C231 C 0.93679 0.44185 0.09142
 C232 C 0.92467 0.44222 -0.10536
 C233 C 1.03886 0.51009 0.14967
 O234 O 0.45048 0.42090 -0.08050
 O235 O 0.42321 0.45807 0.11163
 O236 O 0.50943 0.43677 0.05705
 O237 O 0.42728 0.50502 -0.06968
 O238 O 0.45665 0.42397 0.08958
 O239 O 0.41645 0.45159 -0.09041
 O240 O 0.42788 0.50571 0.05964
 O241 O 0.50496 0.43448 -0.06765
 C242 C 0.47341 0.41156 -0.08222
 C243 C 0.41143 0.47905 0.09986
 C244 C 0.48018 0.41530 0.08558
 C245 C 0.40606 0.47379 -0.08966
 O246 O 0.47289 0.50854 -0.14872
 O247 O 0.51635 0.48214 0.13472
 O248 O 0.54421 0.50786 -0.07219
 O249 O 0.49546 0.55613 0.06081
 O250 O 0.48387 0.51539 0.14072
 O251 O 0.50587 0.47616 -0.14783
 O252 O 0.49716 0.55157 -0.07340
 O253 O 0.55022 0.50966 0.04969
 Co254 Co 0.46313 0.46589 -0.10724
 Co255 Co 0.47096 0.47072 0.10733
 Co256 Co 0.52323 0.47296 -0.00807
 Co257 Co 0.46389 0.52523 -0.00610
 O258 O 0.47985 0.48357 -0.00304
 C259 C 0.49321 0.54121 -0.13490
 C260 C 0.54625 0.50543 0.11288
 C261 C 0.53682 0.50046 -0.13386
 C262 C 0.49631 0.54770 0.12281
 O263 O 0.57326 0.04216 -0.09646
 O264 O 0.51658 -0.03599 0.13148
 O265 O 0.58140 0.05726 0.02936
 O266 O 0.50687 -0.06829 -0.08478
 O267 O 0.56021 0.02885 0.12396
 O268 O 0.55194 -0.01824 -0.11282
 O269 O 0.51812 -0.06680 0.04279
 O270 O 0.56227 0.08228 -0.06770
 C271 C 0.58055 0.07370 -0.10364
 C272 C 0.52360 -0.05885 0.10568
 C273 C 0.58673 0.05039 0.08899
 C274 C 0.53646 -0.05129 -0.11360
 O275 O 0.48531 -0.02943 -0.14543
 O276 O 0.50415 0.04066 0.09841
 O277 O 0.49821 0.05172 -0.02436
 O278 O 0.45639 -0.07053 0.06592
 O279 O 0.46404 -0.02040 0.10305
 O280 O 0.50650 0.03436 -0.12528
 O281 O 0.44956 -0.06493 -0.06438
 O282 O 0.54782 0.08996 0.06095
 Co283 Co 0.52822 0.00673 -0.11129
 Co284 Co 0.51197 0.00293 0.10433
 Co285 Co 0.53870 0.05216 0.00516
 Co286 Co 0.48596 -0.06127 -0.00942
 O287 O 0.51603 -0.00217 -0.00596
 C288 C 0.45470 -0.05375 -0.12591
 C289 C 0.52511 0.07341 0.11025
 C290 C 0.49259 0.04876 -0.08856
 C291 C 0.44611 -0.05336 0.10240
 C292 C 1.10693 0.43129 0.29658
 C293 C 1.13511 0.46142 0.32828
 C294 C 1.13997 0.49565 0.31447
 C295 C 1.11531 0.49955 0.27313
 C296 C 1.08688 0.46902 0.24140
 C297 C 1.08333 0.43512 0.25234
 C298 C 1.06200 0.47281 0.20066
 C299 C 1.06442 0.50639 0.19367
 C300 C 1.09212 0.53648 0.22611
 C301 C 1.11777 0.53319 0.26500
 H302 H 1.16163 0.51884 0.33953
 H303 H 1.06159 0.41149 0.22870
 H304 H 1.04037 0.44964 0.17544
 H305 H 1.13920 0.55677 0.28944
 H306 H 1.10282 0.40475 0.30739
 H307 H 1.09420 0.56256 0.22023
 C308 C 0.56725 0.70079 0.24671
 C309 C 0.55812 0.69060 0.31662
 C310 C 0.54042 0.65375 0.33311
 C311 C 0.53164 0.62787 0.28154
 C312 C 0.53992 0.63846 0.21154
 C313 C 0.55810 0.67503 0.19477
 C314 C 0.52918 0.61227 0.15955
 C315 C 0.51048 0.57564 0.17702
 C316 C 0.50362 0.56559 0.24723
 C317 C 0.51393 0.59144 0.29893
 H318 H 0.53190 0.64494 0.38590
 H319 H 0.56504 0.68371 0.14145
 H320 H 0.53487 0.62037 0.10565
 H321 H 0.50759 0.58289 0.35247
 H322 H 0.58165 0.72884 0.23216
 H323 H 0.48932 0.53761 0.26224
 C324 C 0.31697 -0.17994 0.24814
 C325 C 0.31681 -0.16090 0.30747
 C326 C 0.34065 -0.12381 0.31052
 C327 C 0.36469 -0.10620 0.25627
 C328 C 0.36585 -0.12588 0.19862
 C329 C 0.34156 -0.16270 0.19474
 C330 C 0.39169 -0.10849 0.14664
 C331 C 0.41581 -0.07152 0.15112
 C332 C 0.41299 -0.05203 0.20694
 C333 C 0.38791 -0.06922 0.25924
 H334 H 0.34011 -0.10859 0.35484
 H335 H 0.34180 -0.17822 0.15077
 H336 H 0.39347 -0.12373 0.10365
 H337 H 0.38711 -0.05365 0.30263
 H338 H 0.29896 -0.20856 0.24441
 H339 H 0.43119 -0.02354 0.21182
 C340 C 0.84353 0.52585 0.37293
 C341 C 0.83355 0.54921 0.34142
 C342 C 0.84414 0.56063 0.27313
 C343 C 0.86544 0.54968 0.23726
 C344 C 0.87609 0.52680 0.26985
 C345 C 0.86458 0.51473 0.33751
 C346 C 0.89824 0.51666 0.23444
 C347 C 0.90965 0.52901 0.16671
 C348 C 0.89855 0.55143 0.13478
 C349 C 0.87678 0.56172 0.16967
 H350 H 0.83664 0.57879 0.24891
 H351 H 0.87226 0.49711 0.36337
 H352 H 0.90645 0.49920 0.25927
 H353 H 0.86892 0.57920 0.14381
 H354 H 0.83551 0.51679 0.42575
 H355 H 0.90686 0.56124 0.08243
 C356 C 0.42627 0.30800 0.32971
 C357 C 0.45536 0.30177 0.33197
 C358 C 0.48178 0.31676 0.28022
 C359 C 0.47932 0.33788 0.22711
 C360 C 0.45034 0.34460 0.22613
 C361 C 0.42381 0.32932 0.27737
 C362 C 0.44910 0.36760 0.17561
 C363 C 0.47693 0.38469 0.12692
 C364 C 0.50467 0.37636 0.12637
 C365 C 0.50581 0.35310 0.17589
 H366 H 0.50439 0.31219 0.28180
 H367 H 0.40137 0.33414 0.27738
 H368 H 0.42759 0.37383 0.17693
 H369 H 0.52806 0.34797 0.17553
 H370 H 0.40549 0.29639 0.36869
 H371 H 0.52640 0.38911 0.08952
 C372 C 0.69878 0.10004 0.32378
 C373 C 0.71654 0.13655 0.30504
 C374 C 0.70972 0.14632 0.23955
 C375 C 0.68315 0.12054 0.19635
 C376 C 0.66259 0.08464 0.21936
 C377 C 0.67164 0.07441 0.28192
 C378 C 0.63216 0.06030 0.18151
 C379 C 0.62273 0.07137 0.12012
 C380 C 0.64559 0.10608 0.09436
 C381 C 0.67526 0.13054 0.13244
 H382 H 0.72331 0.17430 0.22426
 H383 H 0.65677 0.04691 0.29987
 H384 H 0.61488 0.03355 0.20157
 H385 H 0.69104 0.15775 0.11339
 H386 H 0.70417 0.09179 0.37344
 H387 H 0.63899 0.11534 0.04718
 C388 C 0.45425 0.10630 -0.34651
 C389 C 0.46246 0.13999 -0.31906
 C390 C 0.46794 0.14512 -0.24670
 C391 C 0.46759 0.11823 -0.20412
 C392 C 0.46188 0.08580 -0.23390
 C393 C 0.45419 0.07971 -0.30468
 C394 C 0.46619 0.06096 -0.19346
 C395 C 0.47658 0.06821 -0.12357
 C396 C 0.47920 0.09909 -0.09286
 C397 C 0.47484 0.12394 -0.13284
 H398 H 0.47497 0.17084 -0.22405
 H399 H 0.44911 0.05474 -0.32818
 H400 H 0.46408 0.03725 -0.21770
 H401 H 0.47893 0.14845 -0.10877
 H402 H 0.44835 0.10063 -0.40118
 H403 H 0.48744 0.10548 -0.03923
 C404 C 0.69168 0.58212 -0.24559
 C405 C 0.68396 0.57001 -0.31469
 C406 C 0.64770 0.54880 -0.33431
 C407 C 0.62008 0.53937 -0.28629
 C408 C 0.62839 0.55103 -0.21698
 C409 C 0.66422 0.57277 -0.19735
 C410 C 0.60080 0.53972 -0.16802
 C411 C 0.56504 0.51635 -0.18730
 C412 C 0.55700 0.50604 -0.25699
 C413 C 0.58429 0.51749 -0.30611
 H414 H 0.64083 0.53794 -0.38632
 H415 H 0.67106 0.58216 -0.14442
 H416 H 0.60735 0.54797 -0.11440
 H417 H 0.57748 0.50850 -0.35927
 H418 H 0.71907 0.59910 -0.22888
 H419 H 0.52969 0.48826 -0.27317
 C420 C 0.88930 0.33059 -0.33496
 C421 C 0.85252 0.31836 -0.33968
 C422 C 0.83632 0.33042 -0.29143
 C423 C 0.85702 0.35533 -0.24001
 C424 C 0.89412 0.36778 -0.23663
 C425 C 0.90993 0.35501 -0.28376
 C426 C 0.91522 0.39390 -0.18802
 C427 C 0.90029 0.40912 -0.14392
 C428 C 0.86316 0.39567 -0.14561
 C429 C 0.84164 0.36877 -0.19301
 H430 H 0.80785 0.32080 -0.29479
 H431 H 0.93837 0.36434 -0.28170
 H432 H 0.94380 0.40378 -0.18731
 H433 H 0.81320 0.35944 -0.19460
 H434 H 0.90201 0.32114 -0.37111
 H435 H 0.85101 0.40697 -0.11249
 C436 C 0.52462 -0.17494 -0.29193
 C437 C 0.56054 -0.15897 -0.31318
 C438 C 0.58544 -0.12511 -0.28673
 C439 C 0.57429 -0.10707 -0.24129
 C440 C 0.53813 -0.12373 -0.22024
 C441 C 0.51364 -0.15775 -0.24519
 C442 C 0.52664 -0.10570 -0.17624
 C443 C 0.55039 -0.07061 -0.15453
 C444 C 0.58632 -0.05404 -0.17550
 C445 C 0.59831 -0.07234 -0.21792
 H446 H 0.61324 -0.11267 -0.30240
 H447 H 0.48576 -0.17066 -0.23001
 H448 H 0.49874 -0.11857 -0.16113
 H449 H 0.62609 -0.05906 -0.23373
 H450 H 0.50479 -0.20062 -0.31276
 H451 H 0.60502 -0.02694 -0.15939
 C452 C 0.29492 0.41184 -0.32290
 C453 C 0.27993 0.43418 -0.31376
 C454 C 0.28869 0.45555 -0.25370
 C455 C 0.31465 0.45717 -0.20723
 C456 C 0.33030 0.43543 -0.21853
 C457 C 0.31946 0.41210 -0.27526
 C458 C 0.35810 0.43891 -0.17553
 C459 C 0.37201 0.46529 -0.12368
 C460 C 0.35576 0.48616 -0.11140
 C461 C 0.32687 0.48171 -0.15214
 H462 H 0.27753 0.47307 -0.24621
 H463 H 0.33112 0.39516 -0.28446
 H464 H 0.37067 0.42289 -0.18593
 H465 H 0.31525 0.49865 -0.14270
 H466 H 0.28791 0.39445 -0.36769
 H467 H 0.36606 0.50659 -0.07158
 C468 C 1.18106 0.68249 -0.27264
 C469 C 1.16310 0.68907 -0.32717
 C470 C 1.12572 0.67309 -0.32438
 C471 C 1.10655 0.65039 -0.26928
 C472 C 1.12456 0.64234 -0.21677
 C473 C 1.16194 0.65889 -0.21866
 C474 C 1.10475 0.61733 -0.16443
 C475 C 1.06722 0.60074 -0.16413
 C476 C 1.05011 0.61110 -0.21424
 C477 C 1.06948 0.63536 -0.26642
 H478 H 1.11161 0.67903 -0.36435
 H479 H 1.17639 0.65346 -0.17870
 H480 H 1.11831 0.60982 -0.12605
 H481 H 1.05532 0.64175 -0.30547
 H482 H 1.20993 0.69470 -0.27312
 H483 H 1.02129 0.59930 -0.21503
 C484 C 0.85942 0.54833 -0.36608
 C485 C 0.84723 0.57011 -0.33508
 C486 C 0.85617 0.58037 -0.26536
 C487 C 0.87713 0.56937 -0.22793
 C488 C 0.88931 0.54793 -0.26055
 C489 C 0.88036 0.53763 -0.32948
 C490 C 0.90957 0.53629 -0.22339
 C491 C 0.91733 0.54504 -0.15325
 C492 C 0.90567 0.56679 -0.12106
 C493 C 0.88588 0.57905 -0.15827
 H494 H 0.84741 0.59736 -0.24077
 H495 H 0.88909 0.52083 -0.35490
 H496 H 0.91828 0.51938 -0.24857
 H497 H 0.87688 0.59549 -0.13227
 H498 H 0.85198 0.53869 -0.41873
 H499 H 0.91137 0.57386 -0.06681
 C500 C 0.41498 0.30122 -0.31581
 C501 C 0.43903 0.28819 -0.30762
 C502 C 0.45977 0.29670 -0.24659
 C503 C 0.45962 0.32125 -0.19885
 C504 C 0.43646 0.33534 -0.20949
 C505 C 0.41332 0.32413 -0.26669
 C506 C 0.43861 0.36234 -0.16579
 C507 C 0.46525 0.37722 -0.11444
 C508 C 0.48733 0.36225 -0.10248
 C509 C 0.48406 0.33397 -0.14351
 H510 H 0.47847 0.28690 -0.23961
 H511 H 0.39524 0.33451 -0.27535
 H512 H 0.42165 0.37392 -0.17584
 H513 H 0.50204 0.32351 -0.13455
 H514 H 0.39788 0.29415 -0.36114
 H515 H 0.50796 0.37333 -0.06303
 C516 C 0.68433 0.11558 -0.34951
 C517 C 0.69878 0.15297 -0.34572
 C518 C 0.68778 0.16739 -0.29178
 C519 C 0.66205 0.14474 -0.24370
 C520 C 0.64817 0.10733 -0.24796
 C521 C 0.65962 0.09304 -0.30063
 C522 C 0.62246 0.08464 -0.20035
 C523 C 0.60922 0.09855 -0.15004
 C524 C 0.62279 0.13569 -0.14623
 C525 C 0.64938 0.15871 -0.19231
 H526 H 0.69815 0.19608 -0.28903
 H527 H 0.64912 0.06438 -0.30455
 H528 H 0.61206 0.05596 -0.20373
 H529 H 0.65959 0.18732 -0.18849
 H530 H 0.69277 0.10383 -0.38975
 H531 H 0.61288 0.14687 -0.10762
 C532 C 1.08655 0.42667 -0.33840
 C533 C 1.12280 0.44142 -0.31895
 C534 C 1.13311 0.45640 -0.25211
 C535 C 1.10870 0.45987 -0.20904
 C536 C 1.07346 0.44805 -0.23263
 C537 C 1.06230 0.43028 -0.29615
 C538 C 1.05047 0.45562 -0.19383
 C539 C 1.06209 0.47440 -0.13110
 C540 C 1.09618 0.48370 -0.10542
 C541 C 1.11943 0.47675 -0.14434
 H542 H 1.16076 0.46799 -0.23575
 H543 H 1.03514 0.42023 -0.31428
 H544 H 1.02403 0.44804 -0.21349
 H545 H 1.14619 0.48568 -0.12496
 H546 H 1.07726 0.41346 -0.38803
 H547 H 1.10561 0.49817 -0.05705
 C548 C 0.58600 0.69036 -0.26998
 C549 C 0.56767 0.68240 -0.33363
 C550 C 0.54173 0.64677 -0.34810
 C551 C 0.53240 0.61987 -0.29783
 C552 C 0.54920 0.62864 -0.23210
 C553 C 0.57672 0.66374 -0.21945
 C554 C 0.53722 0.60251 -0.17944
 C555 C 0.50882 0.56768 -0.19193
 C556 C 0.49386 0.55879 -0.25877
 C557 C 0.50539 0.58468 -0.31113
 H558 H 0.52749 0.64041 -0.39711
 H559 H 0.59023 0.67088 -0.16972
 H560 H 0.54932 0.60951 -0.12837
 H561 H 0.49248 0.57741 -0.36143
 H562 H 0.60630 0.71761 -0.25822
 H563 H 0.47215 0.53210 -0.26990
 C564 C 0.32416 -0.17898 -0.26954
 C565 C 0.32448 -0.16111 -0.33146
 C566 C 0.35034 -0.12445 -0.33800
 C567 C 0.37508 -0.10636 -0.28448
 C568 C 0.37384 -0.12477 -0.22274
 C569 C 0.34825 -0.16102 -0.21586
 C570 C 0.39875 -0.10688 -0.16953
 C571 C 0.42574 -0.07102 -0.17799
 C572 C 0.42673 -0.05291 -0.23958
 C573 C 0.40139 -0.07026 -0.29194
 H574 H 0.35081 -0.10970 -0.38409
 H575 H 0.34719 -0.17571 -0.16927
 H576 H 0.39807 -0.12133 -0.12280
 H577 H 0.40287 -0.05566 -0.33892
 H578 H 0.30565 -0.20734 -0.26303
 H579 H 0.44743 -0.02539 -0.24759
 C580 C 0.52962 -0.13843 0.36856
 C581 C 0.55371 -0.14898 0.34372
 C582 C 0.56760 -0.13887 0.27631
 C583 C 0.55759 -0.11838 0.23442
 C584 C 0.53414 -0.10711 0.26092
 C585 C 0.52031 -0.11731 0.32801
 C586 C 0.52428 -0.08646 0.21943
 C587 C 0.53644 -0.07803 0.15075
 C588 C 0.55930 -0.08974 0.12441
 C589 C 0.57020 -0.10933 0.16617
 H590 H 0.58592 -0.14718 0.25656
 H591 H 0.50196 -0.10931 0.34884
 H592 H 0.50612 -0.07805 0.23970
 H593 H 0.58801 -0.11787 0.14475
 H594 H 0.51808 -0.14649 0.41981
 H595 H 0.56886 -0.08361 0.07147
 C596 C 0.29658 0.41613 0.32950
 C597 C 0.28677 0.44280 0.32786
 C598 C 0.30099 0.46941 0.27611
 C599 C 0.32573 0.47003 0.22785
 C600 C 0.33619 0.44363 0.23135
 C601 C 0.32107 0.41651 0.28167
 C602 C 0.36258 0.44550 0.18624
 C603 C 0.37931 0.47380 0.13817
 C604 C 0.36763 0.49907 0.13317
 C605 C 0.34102 0.49715 0.17749
 H606 H 0.29348 0.49007 0.27474
 H607 H 0.32871 0.39601 0.28492
 H608 H 0.37118 0.42574 0.19081
 H609 H 0.33318 0.51750 0.17376
 H610 H 0.28564 0.39531 0.36872
 H611 H 0.37998 0.52111 0.09668
 C612 C 1.16900 0.68719 0.25526
 C613 C 1.15188 0.69479 0.30915
 C614 C 1.11461 0.68099 0.30567
 C615 C 1.09474 0.65939 0.24917
 C616 C 1.11251 0.65204 0.19560
 C617 C 1.14962 0.66627 0.19893
 C618 C 1.09283 0.62905 0.14120
 C619 C 1.05520 0.61157 0.14071
 C620 C 1.03773 0.62006 0.19268
 C621 C 1.05736 0.64409 0.24598
 H622 H 1.10124 0.68683 0.34697
 H623 H 1.16360 0.66067 0.15852
 H624 H 1.10681 0.62256 0.10219
 H625 H 1.04317 0.64938 0.28640
 H626 H 1.19762 0.69751 0.25703
 H627 H 1.00880 0.60667 0.19427
 C628 C 0.53957 0.19758 0.29658
 C629 C 0.51071 0.17614 0.34035
 C630 C 0.49171 0.13903 0.33100
 C631 C 0.50088 0.12326 0.27751
 C632 C 0.52992 0.14473 0.23307
 C633 C 0.54933 0.18193 0.24352
 C634 C 0.53847 0.12861 0.17850
 C635 C 0.51788 0.09147 0.16775
 C636 C 0.48907 0.07071 0.21239
 C637 C 0.48082 0.08635 0.26694
 H638 H 0.46912 0.12264 0.36435
 H639 H 0.57157 0.19892 0.21007
 H640 H 0.56062 0.14485 0.14419
 H641 H 0.45838 0.06961 0.30026
 H642 H 0.55421 0.22638 0.30318
 H643 H 0.47243 0.04215 0.20484
 C644 C 0.63586 0.52362 0.37470
 C645 C 0.66896 0.54961 0.34776
 C646 C 0.67076 0.56354 0.28116
 C647 C 0.63961 0.55119 0.24120
 C648 C 0.60639 0.52468 0.26842
 C649 C 0.60476 0.51127 0.33540
 C650 C 0.57550 0.51122 0.22750
 C651 C 0.57748 0.52332 0.15913
 C652 C 0.61037 0.55045 0.13323
 C653 C 0.64117 0.56438 0.17404
 H654 H 0.69635 0.58373 0.26066
 H655 H 0.57957 0.49096 0.35702
 H656 H 0.55027 0.49026 0.24788
 H657 H 0.66633 0.58481 0.15250
 H658 H 0.63422 0.51273 0.42620
 H659 H 0.61247 0.56030 0.08068
 C660 C 0.90496 0.32542 0.31146
 C661 C 0.86765 0.30700 0.30280
 C662 C 0.85265 0.31492 0.24537
 C663 C 0.87438 0.34308 0.20030
 C664 C 0.91169 0.36316 0.21209
 C665 C 0.92685 0.35330 0.26641
 C666 C 0.93278 0.39402 0.17223
 C667 C 0.91684 0.40544 0.12183
 C668 C 0.88016 0.38383 0.10751
 C669 C 0.85914 0.35289 0.14623
 H670 H 0.82386 0.30071 0.23857
 H671 H 0.95540 0.36816 0.27594
 H672 H 0.96104 0.41037 0.18372
 H673 H 0.83068 0.33759 0.13600
 H674 H 0.91691 0.31938 0.35527
 H675 H 0.86727 0.39178 0.06847
   
