data_POSCAR
  _audit_creation_date              2014-09-24
  _audit_creation_method            'ToBaCCo'
  _symmetry_space_group_name_H-M    'P1'
  _symmetry_Int_Tables_number       1
  _symmetry_cell_setting            triclinic
  loop_
  _symmetry_equiv_pos_as_xyz
 x,y,z
_cell_length_a 47.6204
_cell_length_b 47.6167
_cell_length_c 45.5688
_cell_angle_alpha 90.049800
_cell_angle_beta 89.897500
_cell_angle_gamma 89.973900
loop_
  _atom_site_label
  _atom_site_type_symbol
  _atom_site_fract_x
  _atom_site_fract_y
  _atom_site_fract_z
C1 C 0.29331 0.28771 0.23808
 H2 H 0.29474 0.28815 0.26177
 C3 C 0.31144 0.30414 0.22118
 H4 H 0.32686 0.31739 0.23183
 C5 C 0.27165 0.26973 0.19515
 H6 H 0.25641 0.25603 0.18506
 C7 C 0.28938 0.28584 0.17744
 H8 H 0.28754 0.28471 0.15377
 N9 N 0.27365 0.27124 0.22491
 C10 C 0.20742 0.26082 0.29031
 H11 H 0.20592 0.23816 0.29096
 C12 C 0.18957 0.27718 0.30767
 H13 H 0.17430 0.26714 0.32184
 C14 C 0.22891 0.30171 0.27080
 H15 H 0.24394 0.31123 0.25611
 C16 C 0.21147 0.31883 0.28781
 H17 H 0.21333 0.34147 0.28638
 Zn18 Zn 0.25002 0.24959 0.24953
 N19 N 0.22684 0.27324 0.27262
 C20 C 0.27206 0.22923 0.30354
 N21 N 0.27355 0.22749 0.27375
 C22 C 0.29265 0.21053 0.26028
 C23 C 0.31076 0.19386 0.27691
 C24 C 0.28980 0.21293 0.32098
 C25 C 0.20678 0.23917 0.20940
 C26 C 0.18837 0.22314 0.19243
 C27 C 0.20941 0.18110 0.21236
 C28 C 0.22745 0.19789 0.22894
 N29 N 0.22607 0.22639 0.22690
 H30 H 0.25726 0.24332 0.31385
 H31 H 0.29368 0.20990 0.23657
 H32 H 0.32575 0.18025 0.26603
 H33 H 0.28841 0.21429 0.34468
 H34 H 0.20581 0.26185 0.20860
 H35 H 0.17322 0.23346 0.17838
 H36 H 0.21071 0.15843 0.21398
 H37 H 0.24238 0.18811 0.24351
 C38 C 0.19171 0.30644 0.30646
 C39 C 0.30935 0.30327 0.19059
 C40 C 0.18979 0.19385 0.19387
 C41 C 0.30923 0.19502 0.30753
 C42 C 0.79400 0.78860 0.23774
 H43 H 0.79549 0.78909 0.26142
 C44 C 0.81204 0.80508 0.22077
 H45 H 0.82741 0.81839 0.23144
 C46 C 0.77231 0.77048 0.19490
 H47 H 0.75709 0.75670 0.18487
 C48 C 0.78993 0.78662 0.17710
 H49 H 0.78796 0.78540 0.15344
 N50 N 0.77438 0.77204 0.22465
 C51 C 0.70823 0.76155 0.29013
 H52 H 0.70678 0.73889 0.29080
 C53 C 0.69035 0.77788 0.30749
 H54 H 0.67511 0.76781 0.32168
 C55 C 0.72962 0.80247 0.27059
 H56 H 0.74463 0.81201 0.25589
 C57 C 0.71215 0.81957 0.28759
 H58 H 0.71396 0.84220 0.28615
 Zn59 Zn 0.75083 0.75037 0.24936
 N60 N 0.72761 0.77401 0.27243
 C61 C 0.77290 0.73009 0.30338
 N62 N 0.77443 0.72835 0.27359
 C63 C 0.79355 0.71140 0.26015
 C64 C 0.81161 0.69471 0.27680
 C65 C 0.79060 0.71375 0.32085
 C66 C 0.70756 0.73977 0.20931
 C67 C 0.68917 0.72366 0.19239
 C68 C 0.71036 0.68171 0.21236
 C69 C 0.72837 0.69859 0.22889
 N70 N 0.72691 0.72707 0.22680
 H71 H 0.75809 0.74417 0.31368
 H72 H 0.79460 0.71077 0.23644
 H73 H 0.82660 0.68107 0.26593
 H74 H 0.78915 0.71509 0.34454
 H75 H 0.70652 0.76245 0.20847
 H76 H 0.67398 0.73391 0.17834
 H77 H 0.71173 0.65905 0.21402
 H78 H 0.74335 0.68887 0.24345
 C79 C 0.69243 0.80714 0.30627
 C80 C 0.80988 0.80417 0.19017
 C81 C 0.69068 0.69437 0.19388
 C82 C 0.81002 0.69583 0.30741
 C83 C 0.79414 0.28700 0.73911
 H84 H 0.79566 0.28748 0.76279
 C85 C 0.81217 0.30345 0.72211
 H86 H 0.82760 0.31675 0.73268
 C87 C 0.77234 0.26894 0.69630
 H88 H 0.75708 0.25521 0.68629
 C89 C 0.78996 0.28507 0.67849
 H90 H 0.78800 0.28393 0.65484
 N91 N 0.77445 0.27049 0.72605
 C92 C 0.70832 0.26025 0.79158
 H93 H 0.70681 0.23759 0.79232
 C94 C 0.69046 0.27667 0.80888
 H95 H 0.67519 0.26668 0.82309
 C96 C 0.72979 0.30107 0.77192
 H97 H 0.74482 0.31054 0.75718
 C98 C 0.71235 0.31825 0.78885
 H99 H 0.71420 0.34088 0.78733
 Zn100 Zn 0.75086 0.24889 0.75078
 N101 N 0.72773 0.27261 0.77384
 C102 C 0.77293 0.22856 0.80478
 N103 N 0.77441 0.22680 0.77499
 C104 C 0.79347 0.20980 0.76153
 C105 C 0.81155 0.19308 0.77814
 C106 C 0.79062 0.21221 0.82225
 C107 C 0.70753 0.23846 0.71077
 C108 C 0.68912 0.22244 0.69380
 C109 C 0.71021 0.18039 0.71365
 C110 C 0.72826 0.19719 0.73023
 N111 N 0.72686 0.22568 0.72822
 H112 H 0.75815 0.24268 0.81508
 H113 H 0.79449 0.20917 0.73781
 H114 H 0.82647 0.17945 0.76712
 H115 H 0.78912 0.21367 0.84595
 H116 H 0.70656 0.26115 0.70998
 H117 H 0.67395 0.23277 0.67977
 H118 H 0.71153 0.15773 0.71524
 H119 H 0.74322 0.18740 0.74476
 C120 C 0.69259 0.30592 0.80755
 C121 C 0.80994 0.30257 0.69154
 C122 C 0.69056 0.19315 0.69520
 C123 C 0.81003 0.19422 0.80880
 C124 C 0.29310 0.78807 0.73847
 H125 H 0.29458 0.78856 0.76215
 C126 C 0.31118 0.80449 0.72150
 H127 H 0.32661 0.81778 0.73209
 C128 C 0.27138 0.77000 0.69562
 H129 H 0.25614 0.75626 0.68558
 C130 C 0.28906 0.78610 0.67784
 H131 H 0.28717 0.78492 0.65418
 N132 N 0.27344 0.77156 0.72537
 C133 C 0.20732 0.76115 0.79091
 H134 H 0.20588 0.73848 0.79163
 C135 C 0.18943 0.77751 0.80822
 H136 H 0.17419 0.76747 0.82243
 C137 C 0.22869 0.80203 0.77126
 H138 H 0.24369 0.81154 0.75652
 C139 C 0.21121 0.81916 0.78821
 H140 H 0.21301 0.84179 0.78670
 Zn141 Zn 0.24988 0.74991 0.75007
 N142 N 0.22670 0.77356 0.77316
 C143 C 0.27202 0.72957 0.80405
 N144 N 0.27348 0.72786 0.77426
 C145 C 0.29260 0.71094 0.76076
 C146 C 0.31074 0.69428 0.77735
 C147 C 0.28979 0.71326 0.82146
 C148 C 0.20660 0.73937 0.71002
 C149 C 0.18822 0.72329 0.69307
 C150 C 0.20938 0.68131 0.71300
 C151 C 0.22738 0.69816 0.72956
 N152 N 0.22593 0.72665 0.72751
 H153 H 0.25721 0.74362 0.81440
 H154 H 0.29360 0.71033 0.73704
 H155 H 0.32573 0.68069 0.76643
 H156 H 0.28841 0.71459 0.84516
 H157 H 0.20558 0.76205 0.70920
 H158 H 0.17304 0.73356 0.67901
 H159 H 0.21074 0.65865 0.71463
 H160 H 0.24235 0.68842 0.74412
 C161 C 0.19149 0.80677 0.80691
 C162 C 0.30903 0.80357 0.69092
 C163 C 0.18972 0.69400 0.69452
 C164 C 0.30923 0.69539 0.80797
 C165 C 0.03692 0.04383 0.01127
 H166 H 0.03737 0.04533 -0.01242
 C167 C 0.05339 0.06188 0.02820
 H168 H 0.06668 0.07730 0.01757
 C169 C 0.01891 0.02208 0.05417
 H170 H 0.00518 0.00683 0.06424
 C171 C 0.03506 0.03971 0.07190
 H172 H 0.03394 0.03779 0.09556
 N173 N 0.02042 0.02416 0.02441
 C174 C 0.01008 -0.04200 -0.04101
 H175 H -0.01258 -0.04350 -0.04168
 C176 C 0.02647 -0.05986 -0.05833
 H177 H 0.01645 -0.07513 -0.07250
 C178 C 0.05093 -0.02053 -0.02147
 H179 H 0.06043 -0.00551 -0.00678
 C180 C 0.06808 -0.03798 -0.03844
 H181 H 0.09071 -0.03613 -0.03698
 Zn182 Zn -0.00121 0.00056 -0.00023
 N183 N 0.02247 -0.02259 -0.02332
 C184 C -0.02158 0.02263 -0.05423
 N185 N -0.02331 0.02411 -0.02444
 C186 C -0.04028 0.04320 -0.01097
 C187 C -0.05698 0.06129 -0.02759
 C188 C -0.03792 0.04034 -0.07167
 C189 C -0.01163 -0.04274 0.03987
 C190 C -0.02764 -0.06115 0.05689
 C191 C -0.06969 -0.04007 0.03704
 C192 C -0.05290 -0.02203 0.02042
 N193 N -0.02441 -0.02342 0.02240
 H194 H -0.00749 0.00784 -0.06455
 H195 H -0.04091 0.04423 0.01274
 H196 H -0.07061 0.07626 -0.01671
 H197 H -0.03657 0.03894 -0.09537
 H198 H 0.01106 -0.04371 0.04064
 H199 H -0.01732 -0.07631 0.07092
 H200 H -0.09236 -0.03876 0.03547
 H201 H -0.06269 -0.00707 0.00588
 C202 C 0.05572 -0.05774 -0.05708
 C203 C 0.05254 0.05968 0.05878
 C204 C -0.05694 -0.05972 0.05551
 C205 C -0.05585 0.05975 -0.05821
 C206 C 0.03776 0.54329 0.51171
 H207 H 0.03823 0.54479 0.48803
 C208 C 0.05418 0.56138 0.52865
 H209 H 0.06745 0.57682 0.51803
 C210 C 0.01973 0.52153 0.55460
 H211 H 0.00601 0.50627 0.56466
 C212 C 0.03582 0.53920 0.57235
 H213 H 0.03467 0.53729 0.59601
 N214 N 0.02127 0.52361 0.52484
 C215 C 0.01087 0.45750 0.45938
 H216 H -0.01179 0.45601 0.45874
 C217 C 0.02722 0.43965 0.44202
 H218 H 0.01717 0.42440 0.42784
 C219 C 0.05175 0.47893 0.47888
 H220 H 0.06127 0.49394 0.49357
 C221 C 0.06887 0.46149 0.46187
 H222 H 0.09150 0.46334 0.46329
 Zn223 Zn -0.00037 0.50004 0.50018
 N224 N 0.02329 0.47688 0.47707
 C225 C -0.02065 0.52218 0.44620
 N226 N -0.02244 0.52362 0.47599
 C227 C -0.03941 0.54271 0.48946
 C228 C -0.05605 0.56085 0.47284
 C229 C -0.03693 0.53996 0.42876
 C230 C -0.01081 0.45671 0.54024
 C231 C -0.02684 0.43829 0.55723
 C232 C -0.06888 0.45942 0.53742
 C233 C -0.05208 0.47747 0.52082
 N234 N -0.02359 0.47605 0.52279
 H235 H -0.00656 0.50740 0.43588
 H236 H -0.04007 0.54370 0.51317
 H237 H -0.06967 0.57583 0.48372
 H238 H -0.03553 0.53860 0.40507
 H239 H 0.01187 0.45572 0.54100
 H240 H -0.01652 0.42310 0.57125
 H241 H -0.09154 0.46075 0.53585
 H242 H -0.06186 0.49244 0.50629
 C243 C 0.05648 0.44176 0.44322
 C244 C 0.05328 0.55920 0.55923
 C245 C -0.05613 0.43975 0.55586
 C246 C -0.05485 0.55937 0.44222
 C247 C 0.53820 0.04347 0.51186
 H248 H 0.53872 0.04502 0.48818
 C249 C 0.55464 0.06147 0.52888
 H250 H 0.56797 0.07690 0.51832
 C251 C 0.52006 0.02163 0.55465
 H252 H 0.50629 0.00638 0.56465
 C253 C 0.53618 0.03922 0.57248
 H254 H 0.53499 0.03724 0.59613
 N255 N 0.52165 0.02378 0.52490
 C256 C 0.51132 -0.04221 0.45930
 H257 H 0.48865 -0.04368 0.45860
 C258 C 0.52769 -0.06003 0.44191
 H259 H 0.51766 -0.07523 0.42768
 C260 C 0.55218 -0.02084 0.47892
 H261 H 0.56168 -0.00586 0.49366
 C262 C 0.56932 -0.03824 0.46190
 H263 H 0.59195 -0.03641 0.46336
 Zn264 Zn 0.50003 0.00028 0.50015
 N265 N 0.52372 -0.02286 0.47705
 C266 C 0.47980 0.02248 0.44616
 N267 N 0.47803 0.02392 0.47595
 C268 C 0.46105 0.04300 0.48942
 C269 C 0.44438 0.06111 0.47280
 C270 C 0.46348 0.04021 0.42872
 C271 C 0.48941 -0.04309 0.54013
 C272 C 0.47330 -0.06148 0.55707
 C273 C 0.43136 -0.04026 0.53713
 C274 C 0.44824 -0.02224 0.52060
 N275 N 0.47673 -0.02371 0.52266
 H276 H 0.49390 0.00769 0.43584
 H277 H 0.46040 0.04400 0.51313
 H278 H 0.43072 0.07607 0.48368
 H279 H 0.46485 0.03883 0.40502
 H280 H 0.51209 -0.04412 0.54097
 H281 H 0.48354 -0.07669 0.57111
 H282 H 0.40871 -0.03888 0.53550
 H283 H 0.43853 -0.00724 0.50605
 C284 C 0.55695 -0.05792 0.44317
 C285 C 0.55370 0.05921 0.55945
 C286 C 0.44401 -0.05996 0.55561
 C287 C 0.44554 0.05960 0.44218
 C288 C 0.53834 0.54358 0.01153
 H289 H 0.53881 0.54505 -0.01215
 C290 C 0.55478 0.56167 0.02844
 H291 H 0.56806 0.57708 0.01780
 C292 C 0.52031 0.52187 0.05445
 H293 H 0.50659 0.50663 0.06454
 C294 C 0.53643 0.53955 0.07217
 H295 H 0.53529 0.53767 0.09584
 N296 N 0.52184 0.52392 0.02469
 C297 C 0.51144 0.45775 -0.04070
 H298 H 0.48878 0.45629 -0.04139
 C299 C 0.52781 0.43984 -0.05800
 H300 H 0.51777 0.42457 -0.07215
 C301 C 0.55232 0.47916 -0.02116
 H302 H 0.56183 0.49418 -0.00647
 C303 C 0.56945 0.46167 -0.03809
 H304 H 0.59208 0.46348 -0.03662
 Zn305 Zn 0.50020 0.50033 0.00006
 N306 N 0.52385 0.47715 -0.02302
 C307 C 0.47980 0.52241 -0.05393
 N308 N 0.47812 0.52390 -0.02414
 C309 C 0.46119 0.54301 -0.01064
 C310 C 0.44448 0.56111 -0.02723
 C311 C 0.46345 0.54014 -0.07134
 C312 C 0.48969 0.45706 0.04018
 C313 C 0.47363 0.43864 0.05714
 C314 C 0.43163 0.45974 0.03719
 C315 C 0.44847 0.47778 0.02062
 N316 N 0.47696 0.47638 0.02268
 H317 H 0.49386 0.50760 -0.06427
 H318 H 0.46061 0.54404 0.01307
 H319 H 0.43088 0.57610 -0.01633
 H320 H 0.46475 0.53873 -0.09504
 H321 H 0.51238 0.45607 0.04100
 H322 H 0.48391 0.42347 0.07120
 H323 H 0.40898 0.46106 0.03555
 H324 H 0.43872 0.49274 0.00605
 C325 C 0.55707 0.44191 -0.05673
 C326 C 0.55390 0.55952 0.05903
 C327 C 0.44434 0.44009 0.05568
 C328 C 0.44556 0.55956 -0.05785
 C329 C 0.10559 -0.10860 -0.10764
 C330 C 0.13235 -0.09890 -0.11668
 C331 C 0.14985 -0.11637 -0.13422
 C332 C 0.14050 -0.14344 -0.14260
 C333 C 0.11374 -0.15313 -0.13356
 C334 C 0.09623 -0.13565 -0.11604
 C335 C 0.06957 -0.14579 -0.10729
 C336 C 0.06046 -0.17245 -0.11560
 C337 C 0.07759 -0.18954 -0.13271
 C338 C 0.10395 -0.18010 -0.14165
 C339 C 0.17650 -0.10620 -0.14301
 C340 C 0.18561 -0.07956 -0.13469
 C341 C 0.16850 -0.06249 -0.11753
 C342 C 0.14216 -0.07194 -0.10856
 C343 C 0.15842 -0.16126 -0.16050
 C344 C 0.17342 -0.17592 -0.17536
 C345 C 0.08774 -0.09073 -0.08973
 C346 C 0.07306 -0.07576 -0.07484
 H347 H 0.05549 -0.13327 -0.09396
 H348 H 0.04001 -0.17987 -0.10871
 H349 H 0.07042 -0.21023 -0.13910
 H350 H 0.11651 -0.19417 -0.15495
 H351 H 0.19056 -0.11870 -0.15638
 H352 H 0.20605 -0.07212 -0.14161
 H353 H 0.17568 -0.04181 -0.11112
 H354 H 0.12963 -0.05789 -0.09522
 C355 C 0.10618 0.39096 0.39242
 C356 C 0.09674 0.36396 0.38394
 C357 C 0.11418 0.34651 0.36631
 C358 C 0.14094 0.35617 0.35725
 C359 C 0.15037 0.38318 0.36573
 C360 C 0.13295 0.40062 0.38338
 C361 C 0.14285 0.42753 0.39160
 C362 C 0.16920 0.43694 0.38263
 C363 C 0.18622 0.41990 0.36535
 C364 C 0.17703 0.39332 0.35693
 C365 C 0.10430 0.31959 0.35812
 C366 C 0.07794 0.31018 0.36708
 C367 C 0.06089 0.32725 0.38430
 C368 C 0.07007 0.35385 0.39270
 C369 C 0.15878 0.33838 0.33924
 C370 C 0.17372 0.32373 0.32429
 C371 C 0.08840 0.40881 0.41044
 C372 C 0.07377 0.42376 0.42539
 H373 H 0.13037 0.44156 0.40502
 H374 H 0.17643 0.45758 0.38911
 H375 H 0.20667 0.42732 0.35843
 H376 H 0.19104 0.38084 0.34349
 H377 H 0.11681 0.30555 0.34474
 H378 H 0.07072 0.28954 0.36061
 H379 H 0.04043 0.31985 0.39120
 H380 H 0.05605 0.36636 0.40610
 C381 C 0.60673 -0.10857 0.39230
 C382 C 0.59734 -0.13557 0.38377
 C383 C 0.61481 -0.15297 0.36611
 C384 C 0.64156 -0.14324 0.35708
 C385 C 0.65094 -0.11623 0.36559
 C386 C 0.63348 -0.09885 0.38327
 C387 C 0.64334 -0.07193 0.39153
 C388 C 0.66967 -0.06246 0.38258
 C389 C 0.68673 -0.07944 0.36528
 C390 C 0.67759 -0.10604 0.35682
 C391 C 0.60499 -0.17989 0.35788
 C392 C 0.57864 -0.18936 0.36682
 C393 C 0.56155 -0.17234 0.38407
 C394 C 0.57069 -0.14574 0.39251
 C395 C 0.65943 -0.16099 0.33905
 C396 C 0.67440 -0.17559 0.32409
 C397 C 0.58892 -0.09078 0.41034
 C398 C 0.57426 -0.07587 0.42532
 H399 H 0.63083 -0.05794 0.40498
 H400 H 0.67687 -0.04182 0.38910
 H401 H 0.70717 -0.07198 0.35837
 H402 H 0.69162 -0.11847 0.34335
 H403 H 0.61752 -0.19389 0.34448
 H404 H 0.57145 -0.21000 0.36032
 H405 H 0.54111 -0.17979 0.39095
 H406 H 0.55664 -0.13328 0.40593
 C407 C 0.60686 0.39086 -0.10714
 C408 C 0.59726 0.36399 -0.11590
 C409 C 0.61474 0.34644 -0.13338
 C410 C 0.64171 0.35588 -0.14202
 C411 C 0.65131 0.38276 -0.13327
 C412 C 0.63384 0.40029 -0.11576
 C413 C 0.64390 0.42705 -0.10726
 C414 C 0.67046 0.43624 -0.11583
 C415 C 0.68753 0.41911 -0.13296
 C416 C 0.67818 0.39266 -0.14164
 C417 C 0.60470 0.31967 -0.14184
 C418 C 0.57814 0.31049 -0.13329
 C419 C 0.56104 0.32764 -0.11622
 C420 C 0.57038 0.35411 -0.10755
 C421 C 0.65959 0.33800 -0.15989
 C422 C 0.67456 0.32329 -0.17473
 C423 C 0.58904 0.40880 -0.08927
 C424 C 0.57437 0.42382 -0.07444
 H425 H 0.63140 0.44114 -0.09394
 H426 H 0.67782 0.45677 -0.10913
 H427 H 0.70814 0.42635 -0.13956
 H428 H 0.69223 0.38011 -0.15496
 H429 H 0.61723 0.30557 -0.15513
 H430 H 0.57079 0.28994 -0.13996
 H431 H 0.54042 0.32041 -0.10964
 H432 H 0.55632 0.36669 -0.09427
 C433 C -0.10520 0.11136 -0.10820
 C434 C -0.10368 0.10997 -0.13920
 C435 C -0.12119 0.12752 -0.15656
 C436 C -0.14011 0.14635 -0.14280
 C437 C -0.14152 0.14785 -0.11179
 C438 C -0.12401 0.13031 -0.09444
 C439 C -0.12582 0.13216 -0.06349
 C440 C -0.14439 0.15081 -0.05006
 C441 C -0.16151 0.16797 -0.06703
 C442 C -0.16018 0.16659 -0.09754
 C443 C -0.11932 0.12573 -0.18751
 C444 C -0.10068 0.10714 -0.20094
 C445 C -0.08357 0.08999 -0.18398
 C446 C -0.08496 0.09129 -0.15346
 C447 C -0.15827 0.16399 -0.16052
 C448 C -0.17344 0.17854 -0.17524
 C449 C -0.08759 0.09317 -0.09048
 C450 C -0.07306 0.07798 -0.07576
 H451 H -0.11293 0.11925 -0.04935
 H452 H -0.14550 0.15196 -0.02636
 H453 H -0.17589 0.18242 -0.05649
 H454 H -0.17391 0.18037 -0.10980
 H455 H -0.13219 0.13866 -0.20164
 H456 H -0.09952 0.10605 -0.22464
 H457 H -0.06913 0.07558 -0.19452
 H458 H -0.07122 0.07753 -0.14121
 C459 C -0.10391 0.61119 0.39217
 C460 C -0.12273 0.63015 0.40589
 C461 C -0.14015 0.64776 0.38850
 C462 C -0.13863 0.64630 0.35750
 C463 C -0.11968 0.62747 0.34378
 C464 C -0.10227 0.60986 0.36117
 C465 C -0.08353 0.59117 0.34696
 C466 C -0.08202 0.58992 0.31645
 C467 C -0.09904 0.60714 0.29945
 C468 C -0.11770 0.62573 0.31283
 C469 C -0.15883 0.66651 0.40271
 C470 C -0.16026 0.66783 0.43323
 C471 C -0.14324 0.65062 0.45023
 C472 C -0.12465 0.63195 0.43684
 C473 C -0.15671 0.66399 0.33974
 C474 C -0.17182 0.67857 0.32499
 C475 C -0.08641 0.59293 0.40993
 C476 C -0.07197 0.57767 0.42466
 H477 H -0.06985 0.57737 0.35924
 H478 H -0.06756 0.57551 0.30594
 H479 H -0.09779 0.60608 0.27575
 H480 H -0.13049 0.63870 0.29867
 H481 H -0.17249 0.68033 0.39043
 H482 H -0.17466 0.68230 0.44373
 H483 H -0.14443 0.65173 0.47392
 H484 H -0.11184 0.61900 0.45100
 C485 C 0.39607 0.11107 0.39217
 C486 C 0.37716 0.12993 0.40591
 C487 C 0.35957 0.14738 0.38854
 C488 C 0.36099 0.14586 0.35754
 C489 C 0.38002 0.12713 0.34380
 C490 C 0.39761 0.10968 0.36117
 C491 C 0.41644 0.09109 0.34693
 C492 C 0.41785 0.08978 0.31641
 C493 C 0.40065 0.10684 0.29943
 C494 C 0.38191 0.12534 0.31285
 C495 C 0.34081 0.16603 0.40278
 C496 C 0.33947 0.16742 0.43330
 C497 C 0.35667 0.15036 0.45027
 C498 C 0.37534 0.13179 0.43686
 C499 C 0.34274 0.16340 0.33981
 C500 C 0.32751 0.17787 0.32508
 C501 C 0.41374 0.09295 0.40991
 C502 C 0.42830 0.07780 0.42463
 H503 H 0.43025 0.07741 0.35919
 H504 H 0.43237 0.07545 0.30589
 H505 H 0.40183 0.10575 0.27573
 H506 H 0.36897 0.13818 0.29870
 H507 H 0.32701 0.17973 0.39052
 H508 H 0.32501 0.18181 0.44382
 H509 H 0.35556 0.15152 0.47397
 H510 H 0.38830 0.11896 0.45101
 C511 C 0.39608 0.61116 -0.10770
 C512 C 0.37729 0.63008 -0.09389
 C513 C 0.35970 0.64760 -0.11118
 C514 C 0.36101 0.64609 -0.14219
 C515 C 0.37993 0.62729 -0.15601
 C516 C 0.39751 0.60978 -0.13871
 C517 C 0.41622 0.59113 -0.15302
 C518 C 0.41753 0.58982 -0.18355
 C519 C 0.40033 0.60695 -0.20045
 C520 C 0.38171 0.62551 -0.18697
 C521 C 0.34105 0.66631 -0.09687
 C522 C 0.33983 0.66769 -0.06635
 C523 C 0.35702 0.65057 -0.04944
 C524 C 0.37558 0.63194 -0.06293
 C525 C 0.34276 0.66369 -0.15985
 C526 C 0.32751 0.67820 -0.17452
 C527 C 0.41375 0.59298 -0.09004
 C528 C 0.42832 0.57779 -0.07537
 H529 H 0.43003 0.57739 -0.14082
 H530 H 0.43196 0.57544 -0.19413
 H531 H 0.40143 0.60586 -0.22416
 H532 H 0.36877 0.63841 -0.20106
 H533 H 0.32726 0.68007 -0.10908
 H534 H 0.32545 0.68213 -0.05576
 H535 H 0.35599 0.65172 -0.02574
 H536 H 0.38854 0.61906 -0.04883
 C537 C -0.10564 -0.11224 0.10529
 C538 C -0.13149 -0.12220 0.09405
 C539 C -0.14878 -0.13989 0.11154
 C540 C -0.14013 -0.14748 0.14017
 C541 C -0.11418 -0.13768 0.15133
 C542 C -0.09688 -0.12002 0.13383
 C543 C -0.07105 -0.11047 0.14547
 C544 C -0.06255 -0.11813 0.17359
 C545 C -0.07948 -0.13538 0.19070
 C546 C -0.10502 -0.14511 0.17982
 C547 C -0.17454 -0.14956 0.09984
 C548 C -0.18300 -0.14198 0.07168
 C549 C -0.16610 -0.12467 0.05459
 C550 C -0.14063 -0.11484 0.06553
 C551 C -0.15804 -0.16511 0.15822
 C552 C -0.17304 -0.17961 0.17323
 C553 C -0.08822 -0.09378 0.08761
 C554 C -0.07389 -0.07832 0.07296
 H555 H -0.05715 -0.09702 0.13299
 H556 H -0.04273 -0.11064 0.18215
 H557 H -0.07278 -0.14127 0.21254
 H558 H -0.11744 -0.15849 0.19395
 H559 H -0.18840 -0.16308 0.11229
 H560 H -0.20276 -0.14957 0.06308
 H561 H -0.17277 -0.11884 0.03273
 H562 H -0.12822 -0.10144 0.05140
 C563 C -0.10488 0.38721 0.60557
 C564 C -0.13236 0.38039 0.59612
 C565 C -0.14961 0.36269 0.61361
 C566 C -0.13930 0.35192 0.64047
 C567 C -0.11175 0.35857 0.64983
 C568 C -0.09449 0.37626 0.63232
 C569 C -0.06703 0.38264 0.64214
 C570 C -0.05693 0.37186 0.66851
 C571 C -0.07381 0.35459 0.68564
 C572 C -0.10093 0.34795 0.67652
 C573 C -0.17702 0.35619 0.60372
 C574 C -0.18709 0.36690 0.57730
 C575 C -0.17023 0.38422 0.56021
 C576 C -0.14317 0.39097 0.56940
 C577 C -0.15712 0.33424 0.65858
 C578 C -0.17206 0.31972 0.67362
 C579 C -0.08744 0.40567 0.58793
 C580 C -0.07309 0.42114 0.57330
 H581 H -0.05310 0.39598 0.62957
 H582 H -0.03588 0.37695 0.67569
 H583 H -0.06586 0.34627 0.70610
 H584 H -0.11326 0.33442 0.69059
 H585 H -0.19092 0.34279 0.61624
 H586 H -0.20810 0.36172 0.57006
 H587 H -0.17816 0.39249 0.53971
 H588 H -0.13085 0.40451 0.55533
 C589 C 0.39492 -0.11231 0.60517
 C590 C 0.36750 -0.11913 0.59552
 C591 C 0.35010 -0.13673 0.61297
 C592 C 0.36020 -0.14738 0.63997
 C593 C 0.38768 -0.14072 0.64951
 C594 C 0.40510 -0.12314 0.63205
 C595 C 0.43249 -0.11675 0.64206
 C596 C 0.44239 -0.12742 0.66857
 C597 C 0.42535 -0.14459 0.68565
 C598 C 0.39829 -0.15123 0.67634
 C599 C 0.32276 -0.14324 0.60288
 C600 C 0.31290 -0.13265 0.57633
 C601 C 0.32991 -0.11543 0.55928
 C602 C 0.35691 -0.10868 0.56866
 C603 C 0.34222 -0.16494 0.65803
 C604 C 0.32716 -0.17938 0.67303
 C605 C 0.41250 -0.09393 0.58758
 C606 C 0.42696 -0.07852 0.57300
 H607 H 0.44653 -0.10350 0.62953
 H608 H 0.46339 -0.12233 0.67589
 H609 H 0.43313 -0.15281 0.70622
 H610 H 0.38584 -0.16468 0.69039
 H611 H 0.30874 -0.15656 0.61536
 H612 H 0.29194 -0.13784 0.56895
 H613 H 0.32215 -0.10726 0.53867
 H614 H 0.36936 -0.09521 0.55462
 C615 C 0.39541 0.38756 0.10521
 C616 C 0.40385 0.38004 0.13393
 C617 C 0.38643 0.36240 0.15133
 C618 C 0.36069 0.35237 0.13989
 C619 C 0.35236 0.35969 0.11108
 C620 C 0.36976 0.37735 0.09369
 C621 C 0.36095 0.38445 0.06499
 C622 C 0.33568 0.37438 0.05377
 C623 C 0.31867 0.35710 0.07076
 C624 C 0.32680 0.34978 0.09910
 C625 C 0.39528 0.35524 0.18000
 C626 C 0.42062 0.36520 0.19116
 C627 C 0.43766 0.38242 0.17415
 C628 C 0.42948 0.38983 0.14584
 C629 C 0.34264 0.33479 0.15785
 C630 C 0.32753 0.32034 0.17278
 C631 C 0.41292 0.40601 0.08764
 C632 C 0.42733 0.42148 0.07306
 H633 H 0.37346 0.39781 0.05092
 H634 H 0.32926 0.38001 0.03177
 H635 H 0.29906 0.34933 0.06195
 H636 H 0.31287 0.33627 0.11147
 H637 H 0.38275 0.34189 0.19407
 H638 H 0.42707 0.35951 0.21314
 H639 H 0.45733 0.39010 0.18291
 H640 H 0.44345 0.40327 0.13345
 C641 C 0.10192 0.11055 0.10961
 C642 C 0.11265 0.10031 0.13652
 C643 C 0.13036 0.11760 0.15393
 C644 C 0.13723 0.14504 0.14434
 C645 C 0.12633 0.15535 0.11754
 C646 C 0.10863 0.13805 0.10012
 C647 C 0.09805 0.14879 0.07337
 C648 C 0.10475 0.17586 0.06412
 C649 C 0.12203 0.19279 0.08116
 C650 C 0.13276 0.18276 0.10759
 C651 C 0.14089 0.10688 0.18071
 C652 C 0.13410 0.07985 0.19003
 C653 C 0.11676 0.06296 0.17302
 C654 C 0.10610 0.07295 0.14655
 C655 C 0.15570 0.16251 0.16190
 C656 C 0.17118 0.17688 0.17648
 C657 C 0.08423 0.09269 0.09159
 C658 C 0.06970 0.07772 0.07662
 H659 H 0.08451 0.13643 0.05936
 H660 H 0.09646 0.18375 0.04361
 H661 H 0.12716 0.21380 0.07388
 H662 H 0.14611 0.19671 0.12009
 H663 H 0.15445 0.11923 0.19471
 H664 H 0.14233 0.07199 0.21057
 H665 H 0.11154 0.04198 0.18036
 H666 H 0.09269 0.05902 0.13410
 C667 C 0.10233 0.61034 0.61012
 C668 C 0.10999 0.63738 0.59999
 C669 C 0.12756 0.65478 0.61745
 C670 C 0.13740 0.64501 0.64492
 C671 C 0.12957 0.61805 0.65514
 C672 C 0.11197 0.60067 0.63770
 C673 C 0.10445 0.57378 0.64837
 C674 C 0.11406 0.56434 0.67549
 C675 C 0.13128 0.58132 0.69254
 C676 C 0.13901 0.60788 0.68259
 C677 C 0.13496 0.68171 0.60685
 C678 C 0.12529 0.69120 0.57977
 C679 C 0.10812 0.67419 0.56269
 C680 C 0.10049 0.64757 0.57257
 C681 C 0.15577 0.66255 0.66252
 C682 C 0.17118 0.67697 0.67711
 C683 C 0.08477 0.59237 0.59208
 C684 C 0.07033 0.57732 0.57710
 H685 H 0.09109 0.55980 0.63591
 H686 H 0.10810 0.54372 0.68332
 H687 H 0.13868 0.57388 0.71359
 H688 H 0.15243 0.62032 0.69665
 H689 H 0.14826 0.69572 0.61935
 H690 H 0.13115 0.71186 0.57200
 H691 H 0.10066 0.68165 0.54167
 H692 H 0.08708 0.63512 0.55851
 C693 C 0.60290 0.11001 0.61054
 C694 C 0.61059 0.13709 0.60055
 C695 C 0.62823 0.15436 0.61808
 C696 C 0.63810 0.14443 0.64547
 C697 C 0.63025 0.11743 0.65555
 C698 C 0.61258 0.10017 0.63804
 C699 C 0.60504 0.07325 0.64858
 C700 C 0.61468 0.06364 0.67563
 C701 C 0.63196 0.08050 0.69273
 C702 C 0.63973 0.10710 0.68292
 C703 C 0.63566 0.18134 0.60762
 C704 C 0.62594 0.19099 0.58061
 C705 C 0.60871 0.17410 0.56348
 C706 C 0.60105 0.14744 0.57322
 C707 C 0.65653 0.16186 0.66313
 C708 C 0.67198 0.17620 0.67777
 C709 C 0.58528 0.09216 0.59243
 C710 C 0.57080 0.07721 0.57739
 H711 H 0.59163 0.05936 0.63607
 H712 H 0.60870 0.04299 0.68335
 H713 H 0.63939 0.07294 0.71373
 H714 H 0.65320 0.11945 0.69702
 H715 H 0.64900 0.19526 0.62017
 H716 H 0.63182 0.21168 0.57295
 H717 H 0.60122 0.18169 0.54252
 H718 H 0.58760 0.13508 0.55911
 C719 C 0.60309 0.61063 0.10979
 C720 C 0.61390 0.60046 0.13669
 C721 C 0.63155 0.61784 0.15407
 C722 C 0.63826 0.64531 0.14447
 C723 C 0.62727 0.65556 0.11768
 C724 C 0.60964 0.63817 0.10029
 C725 C 0.59897 0.64885 0.07356
 C726 C 0.60551 0.67595 0.06429
 C727 C 0.62273 0.69297 0.08130
 C728 C 0.63355 0.68300 0.10771
 C729 C 0.64217 0.60718 0.18084
 C730 C 0.63552 0.58012 0.19018
 C731 C 0.61825 0.56313 0.17319
 C732 C 0.60751 0.57307 0.14674
 C733 C 0.65668 0.66288 0.16199
 C734 C 0.67211 0.67732 0.17654
 C735 C 0.58547 0.59268 0.09180
 C736 C 0.57099 0.57763 0.07685
 H737 H 0.58548 0.63641 0.05957
 H738 H 0.59717 0.68380 0.04379
 H739 H 0.62774 0.71401 0.07401
 H740 H 0.64684 0.69703 0.12019
 H741 H 0.65567 0.61960 0.19483
 H742 H 0.64382 0.57230 0.21071
 H743 H 0.61315 0.54213 0.18055
 H744 H 0.59415 0.55906 0.13431
   
