data_POSCAR
  _audit_creation_date              2014-09-24
  _audit_creation_method            'ToBaCCo'
  _symmetry_space_group_name_H-M    'P1'
  _symmetry_Int_Tables_number       1
  _symmetry_cell_setting            triclinic
  loop_
  _symmetry_equiv_pos_as_xyz
 x,y,z
_cell_length_a 27.7724
_cell_length_b 28.4601
_cell_length_c 50.4749
_cell_angle_alpha 87.530700
_cell_angle_beta 89.137400
_cell_angle_gamma 120.700500
loop_
  _atom_site_label
  _atom_site_type_symbol
  _atom_site_fract_x
  _atom_site_fract_y
  _atom_site_fract_z
C1 C -0.06207 0.02223 0.55624
 H2 H -0.05526 -0.00831 0.56596
 C3 C -0.07185 0.05647 0.57157
 H4 H -0.07336 0.05125 0.59301
 C5 C -0.06494 0.06849 0.51669
 H6 H -0.06051 0.07381 0.49526
 C7 C -0.07447 0.10383 0.53123
 H8 H -0.07700 0.13611 0.52051
 N9 N -0.05856 0.02897 0.52931
 C10 C 0.02604 -0.05633 0.53057
 H11 H 0.06209 -0.02369 0.51948
 C12 C 0.03114 -0.09618 0.54531
 H13 H 0.07144 -0.09352 0.54569
 C14 C -0.07067 -0.10076 0.54293
 H15 H -0.11033 -0.10234 0.54168
 C16 C -0.06745 -0.14133 0.55790
 H17 H -0.10479 -0.17303 0.56864
 Zn18 Zn -0.03551 -0.00993 0.50820
 N19 N -0.02438 -0.05934 0.52969
 C20 C 0.07394 0.07804 0.50519
 N21 N 0.03183 0.04346 0.48995
 C22 C 0.03633 0.05062 0.46304
 C23 C 0.08463 0.09447 0.45041
 C24 C 0.12288 0.12221 0.49347
 C25 C -0.14200 -0.05739 0.48481
 C26 C -0.18492 -0.09608 0.46992
 C27 C -0.12166 -0.12449 0.45417
 C28 C -0.08011 -0.08530 0.46934
 N29 N -0.09100 -0.05316 0.48444
 H30 H 0.06885 0.07192 0.52658
 H31 H 0.00191 0.02320 0.45132
 H32 H 0.08623 0.09852 0.42901
 H33 H 0.15545 0.14946 0.50617
 H34 H -0.15021 -0.03232 0.49743
 H35 H -0.22562 -0.09954 0.47102
 H36 H -0.11115 -0.15000 0.44323
 H37 H -0.03948 -0.08182 0.46989
 C38 C -0.01614 -0.13983 0.55887
 C39 C -0.07762 0.09830 0.55915
 C40 C -0.17563 -0.13112 0.45461
 C41 C 0.12869 0.13180 0.46573
 C42 C 1.09666 0.03204 0.11928
 H43 H 1.08742 0.06446 0.11627
 C44 C 1.13630 0.03046 0.10265
 H45 H 1.15648 0.06127 0.08649
 C46 C 1.08092 -0.04759 0.14408
 H47 H 1.05977 -0.07732 0.16055
 C48 C 1.12008 -0.05093 0.12777
 H49 H 1.12873 -0.08357 0.13168
 N50 N 1.07089 -0.00588 0.13985
 C51 C 0.96207 0.05532 0.14700
 H52 H 0.98404 0.08423 0.16183
 C53 C 0.92153 0.05935 0.13260
 H54 H 0.91222 0.09084 0.13697
 C55 C 0.94648 -0.02136 0.12367
 H56 H 0.95730 -0.05195 0.11979
 C57 C 0.90532 -0.01924 0.10909
 H58 H 0.88386 -0.04904 0.09443
 Zn59 Zn 1.02360 0.00392 0.16335
 N60 N 0.97277 0.01452 0.14277
 C61 C 1.04430 0.07957 0.20289
 N62 N 1.06845 0.06557 0.18351
 C63 C 1.12508 0.09231 0.17960
 C64 C 1.15980 0.13457 0.19549
 C65 C 1.07751 0.12126 0.21951
 C66 C 0.94101 -0.10617 0.17745
 C67 C 0.90516 -0.15070 0.19472
 C68 C 0.95739 -0.09912 0.23139
 C69 C 0.99216 -0.05561 0.21337
 N70 N 0.98234 -0.05907 0.18700
 H71 H 0.99921 0.05698 0.20606
 H72 H 1.14385 0.07989 0.16467
 H73 H 1.20446 0.15294 0.19210
 H74 H 1.05733 0.13088 0.23515
 H75 H 0.93456 -0.10893 0.15645
 H76 H 0.87180 -0.18618 0.18608
 H77 H 0.96513 -0.09453 0.25237
 H78 H 1.02631 -0.01870 0.22065
 C79 C 0.89210 0.02115 0.11360
 C80 C 1.14943 -0.01068 0.10726
 C81 C 0.91206 -0.14712 0.22235
 C82 C 1.13623 0.14954 0.21604
 C83 C 0.07623 0.96168 0.86263
 H84 H 0.03725 0.92276 0.86399
 C85 C 0.12260 0.96730 0.87560
 H86 H 0.11892 0.93252 0.88712
 C87 C 0.12864 1.05350 0.84495
 H88 H 0.13097 1.08637 0.83237
 C89 C 0.17631 1.06100 0.85770
 H90 H 0.21501 1.09986 0.85465
 N91 N 0.07999 1.00430 0.84762
 C92 C -0.09293 0.96334 0.84142
 H93 H -0.09734 0.96013 0.82021
 C94 C -0.13548 0.96151 0.85736
 H95 H -0.17256 0.95515 0.84769
 C96 C -0.03742 0.97682 0.87865
 H97 H 0.00160 0.98471 0.88677
 C98 C -0.07894 0.97485 0.89539
 H99 H -0.07115 0.98039 0.91633
 Zn100 Zn 0.01577 0.98751 0.82855
 N101 N -0.04469 0.97203 0.85214
 C102 C -0.04757 0.87762 0.81202
 N103 N 0.00095 0.92680 0.80903
 C104 C 0.04453 0.93382 0.79334
 C105 C 0.04063 0.89036 0.77994
 C106 C -0.05338 0.83270 0.79894
 C107 C 0.03384 1.09212 0.81660
 C108 C 0.03280 1.13341 0.80108
 C109 C 0.02025 1.08133 0.76257
 C110 C 0.02109 1.04092 0.77889
 N111 N 0.02711 1.04667 0.80543
 H112 H -0.08121 0.87278 0.82508
 H113 H 0.08297 0.97321 0.79171
 H114 H 0.07641 0.89709 0.76783
 H115 H -0.09210 0.79404 0.80228
 H116 H 0.03755 1.09515 0.83785
 H117 H 0.03666 1.16784 0.81107
 H118 H 0.01389 1.07501 0.74159
 H119 H 0.01443 1.00396 0.77043
 C120 C -0.12816 0.96923 0.88483
 C121 C 0.17352 1.01722 0.87315
 C122 C 0.02461 1.12784 0.77358
 C123 C -0.00845 0.83863 0.78276
 C124 C 0.52220 0.08323 -0.02271
 C125 C 0.52383 0.08202 0.00531
 C126 C 0.56859 0.08162 0.01756
 C127 C 0.61028 0.07913 0.00262
 C128 C 0.60673 0.07694 -0.02526
 C129 C 0.56393 0.08079 -0.03761
 H130 H 0.56335 0.08189 -0.05908
 H131 H 0.57094 0.08346 0.03894
 C132 C -0.05512 0.42154 0.65808
 C133 C -0.04093 0.43003 0.68499
 C134 C -0.04397 0.47130 0.69774
 C135 C -0.05945 0.50538 0.68419
 C136 C -0.06966 0.49946 0.65682
 C137 C -0.06908 0.45671 0.64434
 H138 H -0.07672 0.45270 0.62333
 H139 H -0.03579 0.47560 0.71869
 C140 C 0.55387 0.52888 0.32160
 C141 C 0.54739 0.53130 0.34925
 C142 C 0.49488 0.49592 0.36217
 C143 C 0.44871 0.45894 0.34792
 C144 C 0.45515 0.45843 0.32009
 C145 C 0.50767 0.49300 0.30744
 H146 H 0.51274 0.49196 0.28615
 H147 H 0.48999 0.49698 0.38344
 C148 C -0.08274 0.13720 0.57597
 C149 C -0.09648 0.17554 0.56642
 C150 C -0.09541 0.21822 0.58267
 C151 C -0.12443 0.24410 0.57412
 C152 C -0.12293 0.28589 0.58828
 C153 C -0.09172 0.30338 0.61113
 C154 C -0.06284 0.27729 0.61989
 C155 C -0.06437 0.23541 0.60571
 C156 C -0.09158 0.34785 0.62542
 C157 C -0.05175 0.37904 0.64361
 H158 H -0.11008 0.17383 0.54635
 H159 H -0.14840 0.23194 0.55638
 H160 H -0.14584 0.30503 0.58118
 H161 H -0.03941 0.28849 0.63775
 H162 H -0.04032 0.21751 0.61268
 H163 H -0.12438 0.35670 0.62122
 H164 H -0.07553 0.13506 0.59687
 H165 H -0.01843 0.37131 0.64816
 C166 C 0.87432 0.81216 0.24125
 C167 C 0.82703 0.76278 0.23511
 C168 C 0.78217 0.72556 0.25490
 C169 C 0.74428 0.67196 0.24817
 C170 C 0.69850 0.63666 0.26514
 C171 C 0.68960 0.65423 0.28940
 C172 C 0.72756 0.70779 0.29622
 C173 C 0.77338 0.74319 0.27919
 C174 C 0.63966 0.61924 0.30717
 C175 C 0.60775 0.56239 0.30638
 H176 H 0.82147 0.74999 0.21501
 H177 H 0.74946 0.65761 0.22940
 H178 H 0.66942 0.59650 0.25857
 H179 H 0.72124 0.72258 0.31461
 H180 H 0.80039 0.78470 0.28479
 H181 H 0.62699 0.63922 0.32111
 H182 H 0.88180 0.82036 0.26199
 H183 H 0.61908 0.54159 0.29239
 C184 C 0.22283 0.02023 -0.11439
 C185 C 0.27214 0.06882 -0.10970
 C186 C 0.32029 0.06862 -0.09763
 C187 C 0.35582 0.11139 -0.08189
 C188 C 0.40042 0.11100 -0.06956
 C189 C 0.41046 0.06784 -0.07298
 C190 C 0.37631 0.02637 -0.08962
 C191 C 0.33165 0.02662 -0.10180
 C192 C 0.45626 0.06487 -0.05991
 C193 C 0.47924 0.09018 -0.03651
 H194 H 0.27435 0.10767 -0.11316
 H195 H 0.34853 0.14473 -0.07881
 H196 H 0.42708 0.14475 -0.05765
 H197 H 0.38379 -0.00677 -0.09298
 H198 H 0.30645 -0.00590 -0.11465
 H199 H 0.46899 0.03786 -0.06778
 H200 H 0.21913 -0.01819 -0.10767
 H201 H 0.46259 0.11244 -0.02690
 C202 C -0.01037 0.81763 0.57399
 C203 C -0.05563 0.76490 0.58047
 C204 C -0.05096 0.72192 0.59585
 C205 C -0.09484 0.66730 0.59537
 C206 C -0.09284 0.62551 0.60999
 C207 C -0.04661 0.63759 0.62546
 C208 C -0.00312 0.69230 0.62622
 C209 C -0.00519 0.73407 0.61166
 C210 C -0.04259 0.59524 0.64176
 C211 C -0.07800 0.53877 0.64023
 H212 H -0.09625 0.75335 0.57293
 H213 H -0.13099 0.65689 0.58367
 H214 H -0.12799 0.58425 0.60933
 H215 H 0.03259 0.70291 0.63829
 H216 H 0.02865 0.77568 0.61337
 H217 H -0.00864 0.60932 0.65531
 H218 H 0.03152 0.82753 0.57872
 H219 H -0.10780 0.52282 0.62475
 C220 C 0.16900 0.18959 0.23379
 C221 C 0.22705 0.22477 0.23047
 C222 C 0.26184 0.26227 0.25068
 C223 C 0.31288 0.30902 0.24236
 C224 C 0.34879 0.34382 0.26084
 C225 C 0.33452 0.33233 0.28815
 C226 C 0.28382 0.28517 0.29658
 C227 C 0.24749 0.25053 0.27801
 C228 C 0.37334 0.36734 0.30803
 C229 C 0.40904 0.42355 0.30290
 H230 H 0.24841 0.22751 0.21189
 H231 H 0.32533 0.31836 0.22146
 H232 H 0.38848 0.37869 0.25367
 H233 H 0.27246 0.27507 0.31755
 H234 H 0.20924 0.21387 0.28513
 H235 H 0.37440 0.34804 0.32678
 H236 H 0.14788 0.19414 0.25086
 H237 H 0.40755 0.44215 0.28400
 C238 C 0.83539 -0.02639 -0.09879
 C239 C 0.78808 -0.02465 -0.10674
 C240 C 0.75437 -0.01219 -0.08845
 C241 C 0.72672 0.01366 -0.09896
 C242 C 0.69572 0.02753 -0.08238
 C243 C 0.69149 0.01551 -0.05482
 C244 C 0.71763 -0.01195 -0.04439
 C245 C 0.74888 -0.02562 -0.06098
 C246 C 0.65828 0.02867 -0.03661
 C247 C 0.64588 0.06970 -0.04240
 H248 H 0.77801 -0.02646 -0.12738
 H249 H 0.72954 0.02365 -0.12010
 H250 H 0.67441 0.04666 -0.09137
 H251 H 0.71404 -0.02267 -0.02330
 H252 H 0.76787 -0.04732 -0.05226
 H253 H 0.64283 0.00487 -0.01787
 H254 H 0.84539 -0.02019 -0.07809
 H255 H 0.66006 0.09337 -0.06116
 C256 C 0.19370 -0.01206 0.09124
 C257 C 0.24059 0.03566 0.08029
 C258 C 0.28702 0.03631 0.06516
 C259 C 0.33963 0.08467 0.06329
 C260 C 0.38437 0.08749 0.04878
 C261 C 0.37721 0.04189 0.03567
 C262 C 0.32434 -0.00617 0.03713
 C263 C 0.27965 -0.00912 0.05180
 C264 C 0.42296 0.04394 0.01929
 C265 C 0.47971 0.08115 0.02249
 H266 H 0.24551 0.07486 0.08445
 H267 H 0.34615 0.12049 0.07307
 H268 H 0.42395 0.12581 0.04740
 H269 H 0.31753 -0.04154 0.02682
 H270 H 0.23928 -0.04652 0.05210
 H271 H 0.41165 0.01389 0.00450
 H272 H 0.19170 -0.05092 0.09014
 H273 H 0.49253 0.10622 0.03945
 C274 C 0.77896 0.82739 0.44154
 C275 C 0.78225 0.79019 0.42536
 C276 C 0.73263 0.74325 0.41435
 C277 C 0.74034 0.72021 0.39183
 C278 C 0.69512 0.67482 0.38128
 C279 C 0.64104 0.65073 0.39336
 C280 C 0.63329 0.67386 0.41585
 C281 C 0.67857 0.71939 0.42638
 C282 C 0.59160 0.60359 0.38232
 C283 C 0.59556 0.56923 0.36462
 H284 H 0.82248 0.79571 0.41958
 H285 H 0.78152 0.73776 0.38217
 H286 H 0.70287 0.65972 0.36339
 H287 H 0.59207 0.65632 0.42546
 H288 H 0.67110 0.73492 0.44420
 H289 H 0.55053 0.59703 0.38754
 H290 H 0.73851 0.82394 0.44432
 H291 H 0.63591 0.57421 0.35952
 C292 C 0.01761 0.16478 0.75692
 C293 C 0.01764 0.21116 0.76523
 C294 C 0.00195 0.24442 0.74803
 C295 C 0.01835 0.29762 0.75495
 C296 C 0.00239 0.32959 0.74007
 C297 C -0.03050 0.30894 0.71781
 C298 C -0.04765 0.25545 0.71111
 C299 C -0.03169 0.22343 0.72602
 C300 C -0.04917 0.34107 0.70174
 C301 C -0.02151 0.39815 0.70066
 H302 H 0.02975 0.22469 0.78496
 H303 H 0.04329 0.31441 0.77211
 H304 H 0.01487 0.36980 0.74656
 H305 H -0.07367 0.23827 0.69431
 H306 H -0.04713 0.18194 0.72057
 H307 H -0.08540 0.31891 0.68985
 H308 H 0.01031 0.15577 0.73625
 H309 H 0.01394 0.42099 0.71283
 C310 C 0.84563 0.02025 0.09927
 C311 C 0.84131 0.06648 0.09413
 C312 C 0.79327 0.06356 0.08041
 C313 C 0.80136 0.10845 0.06415
 C314 C 0.75656 0.10648 0.05088
 C315 C 0.70260 0.05977 0.05404
 C316 C 0.69422 0.01559 0.07094
 C317 C 0.73914 0.01722 0.08387
 C318 C 0.65412 0.05669 0.04071
 C319 C 0.65922 0.08305 0.01600
 H320 H 0.87556 0.10635 0.09870
 H321 H 0.84254 0.14489 0.06152
 H322 H 0.76405 0.14189 0.03860
 H323 H 0.65285 -0.02047 0.07398
 H324 H 0.73121 -0.01740 0.09692
 H325 H 0.61267 0.02976 0.04975
 H326 H 0.81485 -0.01808 0.09140
 H327 H 0.69956 0.10436 0.00534
 C328 C 0.17770 0.17850 0.45480
 C329 C 0.18800 0.19624 0.42787
 C330 C 0.23981 0.24661 0.41745
 C331 C 0.23914 0.27087 0.39276
 C332 C 0.28718 0.31778 0.38196
 C333 C 0.33730 0.34161 0.39570
 C334 C 0.33810 0.31698 0.42025
 C335 C 0.29010 0.27001 0.43102
 C336 C 0.39041 0.38932 0.38444
 C337 C 0.39421 0.42178 0.36204
 H338 H 0.15625 0.17482 0.41374
 H339 H 0.20127 0.25330 0.38168
 H340 H 0.28477 0.33401 0.36261
 H341 H 0.37634 0.33374 0.43104
 H342 H 0.29331 0.25166 0.44960
 H343 H 0.42897 0.39728 0.39333
 H344 H 0.20873 0.20373 0.46857
 H345 H 0.35680 0.41545 0.35267
 C346 C -0.00918 0.79526 0.77004
 C347 C -0.05459 0.74152 0.77029
 C348 C -0.04980 0.69782 0.75787
 C349 C -0.09698 0.65475 0.74690
 C350 C -0.09308 0.61370 0.73452
 C351 C -0.04183 0.61484 0.73312
 C352 C 0.00467 0.65667 0.74507
 C353 C 0.00087 0.69783 0.75728
 C354 C -0.03548 0.57297 0.71970
 C355 C -0.06853 0.54439 0.69891
 H356 H -0.09535 0.73112 0.77831
 H357 H -0.13673 0.65328 0.74759
 H358 H -0.13036 0.58099 0.72636
 H359 H 0.04431 0.65788 0.74469
 H360 H 0.03751 0.72923 0.76648
 H361 H -0.00046 0.56808 0.72476
 H362 H 0.02867 0.80429 0.75901
 H363 H -0.09943 0.55371 0.69177
   
