data_POSCAR
  _audit_creation_date              2014-09-24
  _audit_creation_method            'ToBaCCo'
  _symmetry_space_group_name_H-M    'P1'
  _symmetry_Int_Tables_number       1
  _symmetry_cell_setting            triclinic
  loop_
  _symmetry_equiv_pos_as_xyz
 x,y,z
_cell_length_a 56.2091
_cell_length_b 54.9965
_cell_length_c 54.2417
_cell_angle_alpha 86.615400
_cell_angle_beta 91.220900
_cell_angle_gamma 90.606100
loop_
  _atom_site_label
  _atom_site_type_symbol
  _atom_site_fract_x
  _atom_site_fract_y
  _atom_site_fract_z
C1 C 0.27809 0.46795 0.98673
 C2 C 0.26667 0.48953 0.99169
 C3 C 0.28003 0.51068 0.99558
 C4 C 0.30513 0.51065 0.99453
 C5 C 0.31624 0.48835 0.99029
 C6 C 0.30298 0.46712 0.98615
 C7 C 0.24056 0.49001 0.99265
 C8 C 0.22940 0.48947 1.01557
 C9 C 0.20435 0.48890 1.01698
 C10 C 0.19101 0.48973 0.99458
 C11 C 0.20203 0.49102 0.97154
 C12 C 0.22691 0.49069 0.97073
 H13 H 0.26753 0.45185 0.98337
 H14 H 0.27043 0.52724 0.99819
 H15 H 0.24049 0.48824 1.03214
 H16 H 0.23573 0.49156 0.95313
 H17 H 0.33540 0.48690 0.99141
 H18 H 0.17180 0.49031 0.99478
 C19 C 0.72416 0.46975 0.00671
 C20 C 0.73482 0.49226 0.01139
 C21 C 0.72070 0.51159 0.01816
 C22 C 0.69592 0.50875 0.02002
 C23 C 0.68560 0.48600 0.01564
 C24 C 0.69956 0.46637 0.00939
 C25 C 0.76085 0.49551 0.01000
 C26 C 0.77248 0.49278 -0.01229
 C27 C 0.79711 0.49762 -0.01422
 C28 C 0.80990 0.50377 0.00726
 C29 C 0.79857 0.50583 0.02987
 C30 C 0.77389 0.50214 0.03089
 H31 H 0.73511 0.45468 0.00196
 H32 H 0.72910 0.52882 0.02201
 H33 H 0.76185 0.48851 -0.02837
 H34 H 0.76474 0.50427 0.04800
 H35 H 0.66648 0.48356 0.01663
 H36 H 0.82908 0.50561 0.00682
 C37 C 0.01730 0.22755 0.51355
 C38 C -0.00388 0.23920 0.50574
 C39 C -0.02350 0.22539 0.49803
 C40 C -0.02222 0.19991 0.49826
 C41 C -0.00097 0.18847 0.50621
 C42 C 0.01889 0.20207 0.51377
 C43 C -0.00571 0.26588 0.50554
 C44 C -0.00626 0.27975 0.48298
 C45 C -0.00947 0.30525 0.48215
 C46 C -0.01257 0.31613 0.50482
 C47 C -0.01237 0.30232 0.52739
 C48 C -0.00846 0.27722 0.52773
 H49 H 0.03243 0.23829 0.51945
 H50 H -0.03970 0.23456 0.49179
 H51 H -0.00505 0.27020 0.46618
 H52 H -0.00848 0.26640 0.54509
 H53 H 0.00018 0.16880 0.50645
 H54 H -0.01408 0.33566 0.50551
 C55 C 1.02604 0.78696 0.49573
 C56 C 1.00516 0.77279 0.49643
 C57 C 0.98311 0.78390 0.49878
 C58 C 0.98164 0.80922 0.49998
 C59 C 1.00270 0.82326 0.49935
 C60 C 1.02529 0.81249 0.49740
 C61 C 1.00624 0.74632 0.49378
 C62 C 0.99988 0.72998 0.51346
 C63 C 0.99993 0.70457 0.51088
 C64 C 1.00657 0.69621 0.48791
 C65 C 1.01308 0.71240 0.46818
 C66 C 1.01289 0.73749 0.47125
 H67 H 1.04268 0.77786 0.49303
 H68 H 0.96709 0.77276 0.49937
 H69 H 0.99411 0.73738 0.53037
 H70 H 1.01775 0.75018 0.45610
 H71 H 1.00125 0.84266 0.50101
 H72 H 1.00740 0.67689 0.48529
 C73 C 0.47921 0.01387 0.22122
 C74 C 0.48012 -0.00546 0.23932
 C75 C 0.47635 -0.02942 0.23262
 C76 C 0.47019 -0.03404 0.20821
 C77 C 0.46806 -0.01456 0.19049
 C78 C 0.47359 0.00953 0.19637
 C79 C 0.48430 -0.00072 0.26549
 C80 C 0.46561 0.00796 0.27920
 C81 C 0.46850 0.01056 0.30470
 C82 C 0.49050 0.00467 0.31615
 C83 C 0.50940 -0.00384 0.30261
 C84 C 0.50619 -0.00650 0.27718
 H85 H 0.48346 0.03203 0.22669
 H86 H 0.47773 -0.04441 0.24647
 H87 H 0.44873 0.01224 0.27002
 H88 H 0.52045 -0.01357 0.26661
 H89 H 0.46272 -0.01856 0.17187
 H90 H 0.49288 0.00631 0.33586
 C91 C 0.51942 0.00956 0.77080
 C92 C 0.51528 -0.01304 0.76080
 C93 C 0.51352 -0.03423 0.77643
 C94 C 0.51619 -0.03325 0.80235
 C95 C 0.51993 -0.01010 0.81188
 C96 C 0.52175 0.01113 0.79638
 C97 C 0.51396 -0.01465 0.73380
 C98 C 0.53463 -0.01120 0.71994
 C99 C 0.53373 -0.01265 0.69419
 C100 C 0.51176 -0.01736 0.68249
 C101 C 0.49084 -0.02055 0.69609
 C102 C 0.49214 -0.01936 0.72190
 H103 H 0.52102 0.02583 0.75865
 H104 H 0.51142 -0.05145 0.76793
 H105 H 0.55134 -0.00726 0.72927
 H106 H 0.47624 -0.02197 0.73273
 H107 H 0.52034 -0.00801 0.83158
 H108 H 0.51089 -0.01836 0.66262
 C109 C 0.28421 0.03964 0.47872
 H110 H 0.28440 0.05360 0.49196
 C111 C 0.29954 0.04153 0.45875
 H112 H 0.31110 0.05733 0.45655
 C113 C 0.26882 0.00212 0.46574
 H114 H 0.25728 -0.01354 0.46893
 C115 C 0.28408 0.00309 0.44572
 H116 H 0.28406 -0.01198 0.43376
 N117 N 0.26916 0.02024 0.48175
 C118 C 0.22129 0.04780 0.53558
 H119 H 0.22348 0.03363 0.55013
 C120 C 0.20568 0.06689 0.53858
 H121 H 0.19643 0.06753 0.55582
 C122 C 0.23040 0.06359 0.49527
 H123 H 0.23940 0.06170 0.47809
 C124 C 0.21463 0.08283 0.49733
 H125 H 0.21178 0.09558 0.48161
 Zn126 Zn 0.25046 0.01758 0.51040
 N127 N 0.23324 0.04644 0.51420
 C128 C 0.27698 0.02836 0.55362
 N129 N 0.27157 0.01093 0.53758
 C130 C 0.28272 -0.01094 0.53924
 C131 C 0.29977 -0.01615 0.55784
 C132 C 0.29416 0.02405 0.57231
 C133 C 0.21216 -0.00439 0.48770
 C134 C 0.19313 -0.02047 0.48469
 C135 C 0.20519 -0.04230 0.52279
 C136 C 0.22411 -0.02577 0.52505
 N137 N 0.22719 -0.00727 0.50759
 H138 H 0.26861 0.04597 0.55142
 H139 H 0.27849 -0.02429 0.52590
 H140 H 0.30813 -0.03383 0.55896
 H141 H 0.29873 0.03852 0.58429
 H142 H 0.21483 0.01069 0.47429
 H143 H 0.18147 -0.01785 0.46863
 H144 H 0.20259 -0.05652 0.53718
 H145 H 0.23580 -0.02731 0.54112
 C146 C 0.20166 0.08442 0.51906
 C147 C 0.29986 0.02293 0.44204
 C148 C 0.18924 -0.03957 0.50253
 C149 C 0.30597 0.00159 0.57455
 C150 C 0.71364 0.02285 0.50704
 H151 H 0.71565 0.03699 0.49248
 C152 C 0.69556 0.02439 0.52406
 H153 H 0.68403 0.04007 0.52270
 C154 C 0.72629 -0.01479 0.52617
 H155 H 0.73787 -0.03036 0.52645
 C156 C 0.70825 -0.01411 0.54347
 H157 H 0.70621 -0.02926 0.55696
 N158 N 0.72863 0.00358 0.50844
 C159 C 0.78358 0.03486 0.46061
 H160 H 0.78315 0.02190 0.44636
 C161 C 0.79945 0.05455 0.45906
 H162 H 0.81081 0.05686 0.44322
 C163 C 0.76952 0.04713 0.49878
 H164 H 0.75843 0.04366 0.51466
 C165 C 0.78532 0.06692 0.49812
 H166 H 0.78610 0.07850 0.51358
 Zn167 Zn 0.75081 0.00245 0.48283
 N168 N 0.76904 0.03152 0.48024
 C169 C 0.72884 0.01693 0.43665
 N170 N 0.73264 -0.00187 0.45367
 C171 C 0.72091 -0.02347 0.45211
 C172 C 0.70434 -0.02674 0.43305
 C173 C 0.71219 0.01454 0.41741
 C174 C 0.78471 -0.02356 0.51131
 C175 C 0.80299 -0.04016 0.51645
 C176 C 0.79680 -0.05519 0.47583
 C177 C 0.77836 -0.03849 0.47160
 N178 N 0.77278 -0.02304 0.48923
 H179 H 0.73773 0.03423 0.43872
 H180 H 0.72390 -0.03794 0.46618
 H181 H 0.69510 -0.04406 0.43231
 H182 H 0.70856 0.03013 0.40481
 H183 H 0.78026 -0.01070 0.52480
 H184 H 0.81206 -0.04030 0.53426
 H185 H 0.80159 -0.06660 0.46116
 H186 H 0.76923 -0.03719 0.45384
 C187 C 0.80083 0.07066 0.47823
 C188 C 0.69244 0.00559 0.54243
 C189 C 0.80961 -0.05599 0.49843
 C190 C 0.69928 -0.00736 0.41574
 C191 C 0.48916 0.22611 1.02824
 H192 H 0.48712 0.24531 1.03085
 C193 C 0.48541 0.20912 1.04804
 H194 H 0.47946 0.21564 1.06526
 C195 C 0.49940 0.19473 1.00256
 H196 H 0.50521 0.18912 0.98493
 C197 C 0.49681 0.17729 1.02205
 H198 H 0.50117 0.15865 1.01889
 N199 N 0.49529 0.21863 1.00578
 C200 C 0.47330 0.27673 0.95110
 H201 H 0.48679 0.27453 0.93755
 C202 C 0.45609 0.29467 0.94675
 H203 H 0.45667 0.30615 0.92986
 C204 C 0.45559 0.26366 0.98881
 H205 H 0.45502 0.25139 1.00499
 C206 C 0.43822 0.28159 0.98540
 H207 H 0.42516 0.28323 0.99957
 Zn208 Zn 0.49996 0.24124 0.97817
 N209 N 0.47338 0.26227 0.97233
 C210 C 0.48404 0.21249 0.94046
 N211 N 0.50375 0.22353 0.94974
 C212 C 0.52551 0.22077 0.93983
 C213 C 0.52812 0.20585 0.92010
 C214 C 0.48582 0.19751 0.92072
 C215 C 0.53944 0.25801 1.00612
 C216 C 0.55844 0.27354 1.01146
 C217 C 0.55370 0.29315 0.97067
 C218 C 0.53476 0.27730 0.96615
 N219 N 0.52761 0.26051 0.98398
 H220 H 0.46701 0.21486 0.94888
 H221 H 0.54096 0.22953 0.94769
 H222 H 0.54561 0.20352 0.91264
 H223 H 0.47004 0.18822 0.91416
 H224 H 0.53393 0.24429 1.01993
 H225 H 0.56734 0.27155 1.02936
 H226 H 0.55849 0.30697 0.95655
 H227 H 0.52559 0.27867 0.94846
 C228 C 0.43869 0.29788 0.96445
 C229 C 0.48916 0.18417 1.04517
 C230 C 0.56548 0.29172 0.99378
 C231 C 0.50814 0.19374 0.91051
 C232 C 0.48954 0.76732 -0.01838
 H233 H 0.47406 0.75553 -0.01865
 C234 C 0.49171 0.78647 -0.03634
 H235 H 0.47774 0.78916 -0.05025
 C236 C 0.52555 0.77922 0.00116
 H237 H 0.53849 0.77643 0.01609
 C238 C 0.52859 0.79836 -0.01656
 H239 H 0.54424 0.80990 -0.01533
 N240 N 0.50641 0.76403 -0.00016
 C241 C 0.46021 0.71324 0.03600
 H242 H 0.46002 0.72258 0.05298
 C243 C 0.44365 0.69462 0.03202
 H244 H 0.43079 0.68981 0.04610
 C245 C 0.47856 0.70672 -0.00196
 H246 H 0.49266 0.71114 -0.01479
 C247 C 0.46224 0.68830 -0.00682
 H248 H 0.46360 0.67907 -0.02381
 Zn249 Zn 0.50316 0.73968 0.02572
 N250 N 0.47741 0.71861 0.01922
 C251 C 0.48063 0.77254 0.05405
 N252 N 0.49853 0.75608 0.05493
 C253 C 0.51345 0.75343 0.07496
 C254 C 0.51075 0.76784 0.09506
 C255 C 0.47760 0.78767 0.07348
 C256 C 0.54738 0.72133 0.01079
 C257 C 0.56606 0.70474 0.01155
 C258 C 0.54983 0.68536 0.04869
 C259 C 0.53124 0.70202 0.04695
 N260 N 0.53045 0.71971 0.02837
 H261 H 0.46927 0.77456 0.03771
 H262 H 0.52792 0.74067 0.07518
 H263 H 0.52282 0.76532 0.11079
 H264 H 0.46398 0.80146 0.07163
 H265 H 0.54594 0.73484 -0.00443
 H266 H 0.57877 0.70583 -0.00320
 H267 H 0.55021 0.67175 0.06393
 H268 H 0.51717 0.70066 0.06029
 C269 C 0.44487 0.68151 0.01059
 C270 C 0.51142 0.80239 -0.03554
 C271 C 0.56742 0.68628 0.03059
 C272 C 0.49296 0.78570 0.09431
 C273 C 1.03635 0.48829 0.21492
 H274 H 1.02166 0.47617 0.21969
 C275 C 1.05229 0.48212 0.19704
 H276 H 1.04999 0.46492 0.18851
 C277 C 1.05665 0.52571 0.21994
 H278 H 1.05773 0.54307 0.22828
 C279 C 1.07292 0.52036 0.20193
 H280 H 1.08646 0.53371 0.19667
 N281 N 1.03875 0.50975 0.22595
 C282 C 0.98815 0.49354 0.28418
 H283 H 0.97597 0.50839 0.28005
 C284 C 0.98336 0.47627 0.30332
 H285 H 0.96711 0.47776 0.31347
 C286 C 1.02414 0.47386 0.27581
 H287 H 1.04034 0.47343 0.26546
 C288 C 1.02021 0.45635 0.29508
 H289 H 1.03354 0.44259 0.29932
 Zn290 Zn 1.01401 0.51767 0.24696
 N291 N 1.00816 0.49196 0.27077
 C292 C 0.97002 0.50551 0.22438
 N293 N 0.98686 0.52326 0.22633
 C294 C 0.98606 0.54409 0.21155
 C295 C 0.96762 0.54783 0.19413
 C296 C 0.95145 0.50834 0.20698
 C297 C 1.04313 0.54501 0.27723
 C298 C 1.04863 0.56283 0.29375
 C299 C 1.01001 0.58056 0.28491
 C300 C 1.00538 0.56255 0.26827
 N301 N 1.02181 0.54514 0.26492
 H302 H 0.97153 0.48866 0.23559
 H303 H 1.00002 0.55764 0.21303
 H304 H 0.96728 0.56464 0.18271
 H305 H 0.93885 0.49351 0.20511
 H306 H 1.05561 0.53056 0.27475
 H307 H 1.06568 0.56227 0.30340
 H308 H 0.99620 0.59347 0.28822
 H309 H 0.98817 0.56174 0.25909
 C310 C 0.99965 0.45752 0.30928
 C311 C 1.07061 0.49846 0.18993
 C312 C 1.03172 0.58059 0.29829
 C313 C 0.95016 0.52964 0.19136
 C314 C -0.04602 0.47927 0.78679
 H315 H -0.03483 0.46337 0.78692
 C316 C -0.06378 0.48052 0.80427
 H317 H -0.06629 0.46546 0.81779
 C318 C -0.05507 0.51906 0.77028
 H319 H -0.05105 0.53438 0.75762
 C320 C -0.07272 0.52124 0.78773
 H321 H -0.08247 0.53809 0.78808
 N322 N -0.04195 0.49841 0.77032
 C323 C 0.00612 0.46588 0.71954
 H324 H 0.02065 0.47890 0.72024
 C325 C 0.00767 0.44609 0.70473
 H326 H 0.02343 0.44404 0.69394
 C327 C -0.03258 0.45353 0.73187
 H328 H -0.04843 0.45682 0.74204
 C329 C -0.03188 0.43359 0.71707
 H330 H -0.04711 0.42141 0.71631
 Zn331 Zn -0.01455 0.49760 0.75075
 N332 N -0.01370 0.46915 0.73285
 C333 C 0.02687 0.48006 0.77743
 N334 N 0.01171 0.49901 0.77299
 C335 C 0.01365 0.51943 0.78584
 C336 C 0.03162 0.52162 0.80368
 C337 C 0.04495 0.48133 0.79543
 C338 C -0.03279 0.52709 0.71124
 C339 C -0.03337 0.54635 0.69329
 C340 C 0.00496 0.55984 0.70850
 C341 C 0.00480 0.54033 0.72618
 N342 N -0.01402 0.52457 0.72739
 H343 H 0.02454 0.46366 0.76760
 H344 H 0.00108 0.53404 0.78224
 H345 H 0.03300 0.53827 0.81332
 H346 H 0.05635 0.46576 0.79923
 H347 H -0.04739 0.51412 0.71243
 H348 H -0.04863 0.54822 0.68084
 H349 H 0.02027 0.57195 0.70758
 H350 H 0.01992 0.53759 0.73860
 C351 C -0.01158 0.42975 0.70321
 C352 C -0.07695 0.50194 0.80523
 C353 C -0.01430 0.56305 0.69174
 C354 C 0.04743 0.50229 0.80897
 C355 C 0.06064 0.15382 0.54102
 C356 C 0.08251 0.16031 0.52979
 C357 C 0.08355 0.18270 0.51542
 C358 C 0.06307 0.19700 0.51134
 C359 C 0.04123 0.18927 0.52119
 C360 C 0.04042 0.16799 0.53661
 C361 C 0.10480 0.19032 0.50451
 C362 C 0.12493 0.17584 0.50671
 C363 C 0.12457 0.15284 0.51976
 C364 C 0.10307 0.14508 0.53174
 C365 C 0.10253 0.12194 0.54448
 C366 C 0.12189 0.10654 0.54484
 C367 C 0.14273 0.11356 0.53283
 C368 C 0.14470 0.13696 0.52059
 C369 C 0.16663 0.14315 0.50925
 C370 C 0.18521 0.12642 0.50930
 C371 C 0.18272 0.10299 0.52063
 C372 C 0.16145 0.09691 0.53264
 H373 H 0.05831 0.13771 0.55300
 H374 H 0.06385 0.21353 0.49944
 H375 H 0.02386 0.16200 0.54495
 H376 H 0.10578 0.20752 0.49373
 H377 H 0.14041 0.18303 0.49735
 H378 H 0.08714 0.11476 0.55396
 H379 H 0.12039 0.08874 0.55441
 H380 H 0.17003 0.16069 0.50006
 H381 H 0.20160 0.13189 0.50032
 H382 H 0.15901 0.07877 0.54119
 C383 C 0.64491 0.54400 0.04473
 C384 C 0.64855 0.56775 0.03387
 C385 C 0.66964 0.57224 0.02040
 C386 C 0.68527 0.55315 0.01638
 C387 C 0.68062 0.52940 0.02606
 C388 C 0.66067 0.52527 0.04085
 C389 C 0.67482 0.59566 0.01060
 C390 C 0.65943 0.61480 0.01366
 C391 C 0.63774 0.61112 0.02608
 C392 C 0.63195 0.58706 0.03580
 C393 C 0.60934 0.58285 0.04617
 C394 C 0.59293 0.60141 0.04702
 C395 C 0.59852 0.62505 0.03822
 C396 C 0.62120 0.63047 0.02826
 C397 C 0.62625 0.65507 0.02081
 C398 C 0.60907 0.67311 0.02212
 C399 C 0.58625 0.66737 0.03078
 C400 C 0.58128 0.64323 0.03904
 H401 H 0.63019 0.53931 0.05654
 H402 H 0.70068 0.55670 0.00500
 H403 H 0.65712 0.50736 0.04946
 H404 H 0.69096 0.59924 0.00036
 H405 H 0.66467 0.63218 0.00518
 H406 H 0.60334 0.56509 0.05297
 H407 H 0.57560 0.59717 0.05466
 H408 H 0.64339 0.66107 0.01419
 H409 H 0.61379 0.69169 0.01636
 H410 H 0.56370 0.63831 0.04560
 C411 C 0.91725 -0.17380 0.48610
 C412 C 0.91425 -0.15320 0.50020
 C413 C 0.93381 -0.14591 0.51506
 C414 C 0.95523 -0.15885 0.51575
 C415 C 0.95813 -0.17873 0.50112
 C416 C 0.93883 -0.18620 0.48654
 C417 C 0.93213 -0.12544 0.52886
 C418 C 0.91186 -0.11122 0.52737
 C419 C 0.89215 -0.11718 0.51224
 C420 C 0.89286 -0.13920 0.49947
 C421 C 0.87219 -0.14644 0.48647
 C422 C 0.85191 -0.13216 0.48503
 C423 C 0.85153 -0.10984 0.49593
 C424 C 0.87168 -0.10191 0.50956
 C425 C 0.87076 -0.07864 0.51929
 C426 C 0.85066 -0.06409 0.51579
 C427 C 0.83060 -0.07215 0.50269
 C428 C 0.83118 -0.09522 0.49295
 H429 H 0.90360 -0.18029 0.47383
 H430 H 0.96985 -0.15313 0.52748
 H431 H 0.94064 -0.20125 0.47472
 H432 H 0.94689 -0.12000 0.54057
 H433 H 0.91207 -0.09578 0.53869
 H434 H 0.87096 -0.16335 0.47744
 H435 H 0.83649 -0.13846 0.47479
 H436 H 0.88557 -0.07069 0.52896
 H437 H 0.85117 -0.04610 0.52287
 H438 H 0.81579 -0.10181 0.48288
 C439 C 0.31992 0.40032 0.98966
 C440 C 0.34094 0.40045 0.97568
 C441 C 0.34867 0.42306 0.96455
 C442 C 0.33576 0.44439 0.96732
 C443 C 0.31535 0.44405 0.98172
 C444 C 0.30745 0.42177 0.99263
 C445 C 0.36948 0.42445 0.95103
 C446 C 0.38357 0.40411 0.94924
 C447 C 0.37719 0.38132 0.96069
 C448 C 0.35493 0.37916 0.97301
 C449 C 0.34746 0.35584 0.98227
 C450 C 0.36177 0.33557 0.98073
 C451 C 0.38426 0.33772 0.97042
 C452 C 0.39234 0.36060 0.96026
 C453 C 0.41566 0.36195 0.95088
 C454 C 0.43024 0.34155 0.95182
 C455 C 0.42219 0.31895 0.96185
 C456 C 0.39893 0.31715 0.97075
 H457 H 0.31303 0.38413 0.99925
 H458 H 0.34185 0.46145 0.95844
 H459 H 0.29194 0.42099 1.00416
 H460 H 0.37525 0.44161 0.94213
 H461 H 0.39931 0.40683 0.93841
 H462 H 0.33044 0.35256 0.99063
 H463 H 0.35534 0.31807 0.98826
 H464 H 0.42360 0.37869 0.94359
 H465 H 0.44828 0.34381 0.94540
 H466 H 0.39230 0.29977 0.97833
 C467 C 0.94138 0.14936 0.47105
 C468 C 0.91828 0.15337 0.47982
 C469 C 0.91480 0.17454 0.49298
 C470 C 0.93405 0.19006 0.49828
 C471 C 0.95703 0.18498 0.49061
 C472 C 0.96033 0.16486 0.47646
 C473 C 0.89226 0.17986 0.50127
 C474 C 0.87304 0.16440 0.49732
 C475 C 0.87567 0.14259 0.48517
 C476 C 0.89870 0.13695 0.47634
 C477 C 0.90160 0.11469 0.46510
 C478 C 0.88291 0.09827 0.46295
 C479 C 0.86044 0.10340 0.47154
 C480 C 0.85625 0.12582 0.48226
 C481 C 0.83282 0.13022 0.48994
 C482 C 0.81482 0.11266 0.48805
 C483 C 0.81940 0.09014 0.47840
 C484 C 0.84226 0.08587 0.46985
 H485 H 0.94556 0.13442 0.45999
 H486 H 0.93126 0.20564 0.50920
 H487 H 0.97776 0.16096 0.46962
 H488 H 0.88945 0.19610 0.51120
 H489 H 0.85640 0.16981 0.50467
 H490 H 0.91836 0.10894 0.45830
 H491 H 0.88617 0.08119 0.45464
 H492 H 0.82772 0.14702 0.49751
 H493 H 0.79719 0.11676 0.49424
 H494 H 0.84622 0.06846 0.46257
 C495 C 0.32399 0.57276 0.01343
 C496 C 0.34690 0.57554 0.00325
 C497 C 0.35557 0.55602 -0.00977
 C498 C 0.34166 0.53504 -0.01279
 C499 C 0.31889 0.53226 -0.00254
 C500 C 0.31036 0.55165 0.01057
 C501 C 0.37814 0.55743 -0.01991
 C502 C 0.39272 0.57754 -0.01686
 C503 C 0.38517 0.59738 -0.00372
 C504 C 0.36156 0.59679 0.00572
 C505 C 0.35336 0.61758 0.01695
 C506 C 0.36782 0.63801 0.01934
 C507 C 0.39119 0.63842 0.01119
 C508 C 0.40034 0.61798 -0.00011
 C509 C 0.42449 0.61885 -0.00696
 C510 C 0.43860 0.63936 -0.00341
 C511 C 0.42932 0.65988 0.00699
 C512 C 0.40554 0.65918 0.01440
 H513 H 0.31625 0.58630 0.02428
 H514 H 0.34859 0.52127 -0.02408
 H515 H 0.29347 0.55039 0.01974
 H516 H 0.38476 0.54268 -0.03017
 H517 H 0.40973 0.57714 -0.02557
 H518 H 0.33557 0.61886 0.02372
 H519 H 0.36066 0.65359 0.02793
 H520 H 0.43330 0.60378 -0.01454
 H521 H 0.45712 0.63890 -0.00845
 H522 H 0.39811 0.67487 0.02256
 C523 C 0.08898 -0.16839 0.50694
 C524 C 0.08863 -0.14331 0.49942
 C525 C 0.06672 -0.13354 0.49035
 C526 C 0.04621 -0.14825 0.48918
 C527 C 0.04649 -0.17307 0.49731
 C528 C 0.06843 -0.18286 0.50586
 C529 C 0.06520 -0.10902 0.48250
 C530 C 0.08479 -0.09365 0.48404
 C531 C 0.10696 -0.10221 0.49349
 C532 C 0.10909 -0.12758 0.50077
 C533 C 0.13158 -0.13631 0.50912
 C534 C 0.15119 -0.12084 0.51068
 C535 C 0.14926 -0.09601 0.50429
 C536 C 0.12711 -0.08626 0.49574
 C537 C 0.12604 -0.06082 0.49006
 C538 C 0.14612 -0.04598 0.49236
 C539 C 0.16804 -0.05576 0.50039
 C540 C 0.16942 -0.08084 0.50646
 H541 H 0.10472 -0.17740 0.51430
 H542 H 0.03017 -0.14017 0.48110
 H543 H 0.06978 -0.20157 0.51304
 H544 H 0.04853 -0.10150 0.47526
 H545 H 0.08190 -0.07506 0.47742
 H546 H 0.13476 -0.15517 0.51449
 H547 H 0.16808 -0.12843 0.51716
 H548 H 0.10992 -0.05162 0.48414
 H549 H 0.14434 -0.02657 0.48815
 H550 H 0.18631 -0.08864 0.51264
 C551 C 0.67912 0.40774 0.98184
 C552 C 0.66228 0.39848 0.99923
 C553 C 0.65972 0.41122 1.02098
 C554 C 0.67245 0.43286 1.02433
 C555 C 0.68810 0.44233 1.00642
 C556 C 0.69181 0.42932 0.98548
 C557 C 0.64412 0.40266 1.03917
 C558 C 0.63033 0.38200 1.03609
 C559 C 0.63130 0.36913 1.01437
 C560 C 0.64763 0.37742 0.99566
 C561 C 0.64818 0.36484 0.97372
 C562 C 0.63290 0.34537 0.96981
 C563 C 0.61664 0.33738 0.98763
 C564 C 0.61596 0.34870 1.01043
 C565 C 0.59953 0.33934 1.02812
 C566 C 0.58379 0.32050 1.02284
 C567 C 0.58386 0.31012 0.99991
 C568 C 0.60068 0.31836 0.98254
 H569 H 0.68280 0.39895 0.96514
 H570 H 0.66995 0.44264 1.04086
 H571 H 0.70401 0.43626 0.97149
 H572 H 0.64231 0.41224 1.05592
 H573 H 0.61859 0.37701 1.05099
 H574 H 0.65988 0.36997 0.95880
 H575 H 0.63364 0.33665 0.95243
 H576 H 0.59808 0.34627 1.04616
 H577 H 0.57093 0.31457 1.03659
 H578 H 0.60119 0.31012 0.96489
 C579 C 0.47963 0.04210 1.13287
 C580 C 0.47567 0.06669 1.13743
 C581 C 0.47253 0.07263 1.16218
 C582 C 0.47101 0.05411 1.18118
 C583 C 0.47438 0.02951 1.17632
 C584 C 0.47943 0.02406 1.15197
 C585 C 0.47122 0.09704 1.16781
 C586 C 0.47388 0.11565 1.14948
 C587 C 0.47651 0.11047 1.12450
 C588 C 0.47566 0.08560 1.11828
 C589 C 0.47414 0.08042 1.09313
 C590 C 0.47464 0.09891 1.07462
 C591 C 0.47785 0.12312 1.08039
 C592 C 0.47939 0.12925 1.10537
 C593 C 0.48451 0.15378 1.11013
 C594 C 0.48780 0.17140 1.09079
 C595 C 0.48539 0.16545 1.06599
 C596 C 0.47987 0.14118 1.06116
 H597 H 0.48408 0.03642 1.11485
 H598 H 0.46725 0.05907 1.19970
 H599 H 0.48381 0.00577 1.14744
 H600 H 0.46877 0.10183 1.18668
 H601 H 0.47287 0.13404 1.15524
 H602 H 0.47159 0.06216 1.08724
 H603 H 0.47317 0.09412 1.05554
 H604 H 0.48718 0.15964 1.12862
 H605 H 0.49281 0.18961 1.09549
 H606 H 0.47727 0.13602 1.04234
 C607 C -0.02025 0.64731 0.54523
 C608 C -0.01490 0.65199 0.57009
 C609 C -0.00583 0.67541 0.57494
 C610 C -0.00189 0.69303 0.55553
 C611 C -0.00614 0.68772 0.53071
 C612 C -0.01588 0.66470 0.52610
 C613 C -0.00015 0.68101 0.59911
 C614 C -0.00250 0.66365 0.61859
 C615 C -0.01079 0.63982 0.61471
 C616 C -0.01774 0.63411 0.59014
 C617 C -0.02696 0.61059 0.58638
 C618 C -0.02857 0.59298 0.60565
 C619 C -0.02102 0.59792 0.62946
 C620 C -0.01215 0.62140 0.63449
 C621 C -0.00458 0.62520 0.65908
 C622 C -0.00554 0.60641 0.67754
 C623 C -0.01412 0.58324 0.67231
 C624 C -0.02202 0.57925 0.64821
 H625 H -0.02755 0.63027 0.53969
 H626 H 0.00604 0.71032 0.55992
 H627 H -0.02086 0.66002 0.50758
 H628 H 0.00659 0.69895 0.60302
 H629 H 0.00244 0.66958 0.63657
 H630 H -0.03313 0.60501 0.56865
 H631 H -0.03556 0.57513 0.60175
 H632 H 0.00249 0.64233 0.66468
 H633 H 0.00042 0.61009 0.69609
 H634 H -0.02837 0.56129 0.64383
 C635 C 0.50179 0.90340 -0.17202
 C636 C 0.51262 0.90294 -0.14820
 C637 C 0.52488 0.92422 -0.14143
 C638 C 0.52648 0.94471 -0.15797
 C639 C 0.51529 0.94533 -0.18152
 C640 C 0.50312 0.92410 -0.18824
 C641 C 0.53555 0.92511 -0.11807
 C642 C 0.53364 0.90565 -0.10080
 C643 C 0.52124 0.88414 -0.10636
 C644 C 0.51145 0.88233 -0.13078
 C645 C 0.50115 0.85991 -0.13699
 C646 C 0.49994 0.84016 -0.11983
 C647 C 0.50831 0.84207 -0.09562
 C648 C 0.51871 0.86421 -0.08840
 C649 C 0.52574 0.86563 -0.06331
 C650 C 0.52322 0.84570 -0.04644
 C651 C 0.51375 0.82354 -0.05382
 C652 C 0.50624 0.82195 -0.07853
 H653 H 0.49151 0.88832 -0.17848
 H654 H 0.53723 0.95994 -0.15238
 H655 H 0.49347 0.92353 -0.20566
 H656 H 0.54526 0.94124 -0.11291
 H657 H 0.54262 0.90786 -0.08333
 H658 H 0.49426 0.85683 -0.15523
 H659 H 0.49205 0.82325 -0.12552
 H660 H 0.53264 0.88207 -0.05588
 H661 H 0.52838 0.84788 -0.02735
 H662 H 0.49888 0.80495 -0.08459
 C663 C 1.00395 0.32694 0.41692
 C664 C 0.99314 0.35010 0.41477
 C665 C 0.98070 0.35755 0.43540
 C666 C 0.97916 0.34236 0.45701
 C667 C 0.99062 0.31964 0.45941
 C668 C 1.00271 0.31212 0.43871
 C669 C 0.96995 0.38032 0.43459
 C670 C 0.97221 0.39646 0.41416
 C671 C 0.98507 0.39030 0.39339
 C672 C 0.99468 0.36632 0.39317
 C673 C 1.00535 0.35937 0.37135
 C674 C 1.00734 0.37553 0.35079
 C675 C 0.99938 0.39943 0.35131
 C676 C 0.98839 0.40727 0.37271
 C677 C 0.98176 0.43201 0.37275
 C678 C 0.98542 0.44801 0.35227
 C679 C 0.99567 0.44006 0.33087
 C680 C 1.00259 0.41563 0.33057
 H681 H 1.01428 0.32003 0.40241
 H682 H 0.96843 0.34839 0.47178
 H683 H 1.01250 0.29527 0.43946
 H684 H 0.96003 0.38595 0.45017
 H685 H 0.96323 0.41357 0.41507
 H686 H 1.01203 0.34133 0.36937
 H687 H 1.01560 0.36935 0.33443
 H688 H 0.97438 0.43986 0.38860
 H689 H 0.98065 0.46692 0.35348
 H690 H 1.01050 0.40914 0.31416
 C691 C 0.44594 0.91096 0.17726
 C692 C 0.46582 0.89527 0.17829
 C693 C 0.48654 0.90282 0.19128
 C694 C 0.48708 0.92507 0.20271
 C695 C 0.46766 0.94078 0.20041
 C696 C 0.44704 0.93346 0.18790
 C697 C 0.50699 0.88865 0.19187
 C698 C 0.50798 0.86802 0.17837
 C699 C 0.48823 0.86040 0.16419
 C700 C 0.46632 0.87316 0.16568
 C701 C 0.44577 0.86354 0.15426
 C702 C 0.44696 0.84327 0.14023
 C703 C 0.46870 0.83224 0.13642
 C704 C 0.48967 0.84058 0.14836
 C705 C 0.51142 0.82957 0.14292
 C706 C 0.51228 0.81149 0.12597
 C707 C 0.49152 0.80331 0.11412
 C708 C 0.46968 0.81341 0.12007
 H709 H 0.42975 0.90700 0.16722
 H710 H 0.50322 0.93096 0.21203
 H711 H 0.43195 0.94555 0.18577
 H712 H 0.52273 0.89406 0.20216
 H713 H 0.52450 0.85821 0.17961
 H714 H 0.42836 0.87118 0.15607
 H715 H 0.43077 0.83671 0.13154
 H716 H 0.52829 0.83541 0.15043
 H717 H 0.52954 0.80467 0.12143
 H718 H 0.45336 0.80709 0.11145
 C719 C -0.04056 0.34239 0.57246
 C720 C -0.02385 0.34188 0.59239
 C721 C -0.00353 0.32698 0.59081
 C722 C -0.00043 0.31307 0.57018
 C723 C -0.01684 0.31449 0.55040
 C724 C -0.03695 0.32905 0.55183
 C725 C 0.01394 0.32661 0.60946
 C726 C 0.01239 0.34165 0.62906
 C727 C -0.00710 0.35737 0.63109
 C728 C -0.02614 0.35641 0.61323
 C729 C -0.04676 0.37015 0.61669
 C730 C -0.04812 0.38559 0.63591
 C731 C -0.02895 0.38827 0.65226
 C732 C -0.00817 0.37415 0.65025
 C733 C 0.01100 0.37817 0.66695
 C734 C 0.00963 0.39576 0.68442
 C735 C -0.01089 0.40972 0.68610
 C736 C -0.03028 0.40552 0.67024
 H737 H -0.05614 0.35365 0.57171
 H738 H 0.01532 0.30202 0.56895
 H739 H -0.04980 0.33039 0.53664
 H740 H 0.02936 0.31504 0.60856
 H741 H 0.02674 0.34036 0.64253
 H742 H -0.06238 0.36921 0.60493
 H743 H -0.06421 0.39601 0.63763
 H744 H 0.02763 0.36867 0.66649
 H745 H 0.02483 0.39863 0.69657
 H746 H -0.04610 0.41653 0.67114
 C747 C 0.54604 0.05843 0.83817
 C748 C 0.53068 0.07840 0.83288
 C749 C 0.51315 0.07618 0.81389
 C750 C 0.51113 0.05473 0.80109
 C751 C 0.52586 0.03486 0.80739
 C752 C 0.54351 0.03707 0.82571
 C753 C 0.49720 0.09505 0.80833
 C754 C 0.49734 0.11560 0.82205
 C755 C 0.51375 0.11827 0.84181
 C756 C 0.53146 0.09994 0.84647
 C757 C 0.54911 0.10359 0.86483
 C758 C 0.54855 0.12348 0.87937
 C759 C 0.53038 0.14048 0.87636
 C760 C 0.51286 0.13841 0.85737
 C761 C 0.49466 0.15610 0.85545
 C762 C 0.49360 0.17441 0.87217
 C763 C 0.51066 0.17593 0.89122
 C764 C 0.52931 0.15919 0.89282
 H765 H 0.55965 0.05827 0.85244
 H766 H 0.49728 0.05301 0.78705
 H767 H 0.55518 0.02194 0.83075
 H768 H 0.48400 0.09364 0.79361
 H769 H 0.48425 0.12915 0.81664
 H770 H 0.56375 0.09135 0.86850
 H771 H 0.56225 0.12524 0.89355
 H772 H 0.48051 0.15592 0.84176
 H773 H 0.47913 0.18729 0.87037
 H774 H 0.54244 0.15998 0.90769
 C775 C 1.01225 0.70076 0.40005
 C776 C 1.02599 0.67931 0.39953
 C777 C 1.03728 0.67060 0.42192
 C778 C 1.03417 0.68240 0.44381
 C779 C 1.01937 0.70267 0.44426
 C780 C 1.00899 0.71214 0.42210
 C781 C 1.05103 0.64964 0.42263
 C782 C 1.05258 0.63605 0.40202
 C783 C 1.04042 0.64298 0.37970
 C784 C 1.02806 0.66566 0.37799
 C785 C 1.01781 0.67362 0.35495
 C786 C 1.01827 0.65924 0.33474
 C787 C 1.02854 0.63622 0.33674
 C788 C 1.03992 0.62779 0.35917
 C789 C 1.04938 0.60399 0.36045
 C790 C 1.04719 0.58918 0.34054
 C791 C 1.03576 0.59748 0.31846
 C792 C 1.02687 0.62128 0.31658
 H793 H 1.00298 0.70867 0.38401
 H794 H 1.04265 0.67526 0.46084
 H795 H 0.99742 0.72777 0.42201
 H796 H 1.06018 0.64325 0.43955
 H797 H 1.06354 0.62010 0.40423
 H798 H 1.00922 0.69097 0.35189
 H799 H 1.00985 0.66596 0.31754
 H800 H 1.05770 0.59578 0.37691
 H801 H 1.05372 0.57072 0.34290
 H802 H 1.01817 0.62806 0.29956
 C803 C 1.19064 0.49874 0.08302
 C804 C 1.16716 0.48935 0.08507
 C805 C 1.15712 0.47832 0.06428
 C806 C 1.16980 0.47746 0.04240
 C807 C 1.19267 0.48793 0.04003
 C808 C 1.20309 0.49795 0.06102
 C809 C 1.13426 0.46835 0.06518
 C810 C 1.12050 0.47011 0.08586
 C811 C 1.12911 0.48200 0.10666
 C812 C 1.15314 0.49092 0.10670
 C813 C 1.16221 0.50127 0.12824
 C814 C 1.14809 0.50364 0.14867
 C815 C 1.12430 0.49620 0.14841
 C816 C 1.11442 0.48529 0.12741
 C817 C 1.08999 0.47879 0.12780
 C818 C 1.07616 0.48285 0.14812
 C819 C 1.08601 0.49343 0.16891
 C820 C 1.11020 0.49996 0.16895
 H821 H 1.19973 0.50748 0.09781
 H822 H 1.16172 0.46807 0.02730
 H823 H 1.22045 0.50662 0.06030
 H824 H 1.12668 0.45941 0.04950
 H825 H 1.10312 0.46179 0.08490
 H826 H 1.18027 0.50773 0.12998
 H827 H 1.15581 0.51182 0.16473
 H828 H 1.08073 0.47116 0.11245
 H829 H 1.05739 0.47824 0.14720
 H830 H 1.11808 0.50809 0.18495
 C831 C 0.59730 -0.01805 0.67297
 C832 C 0.59657 -0.00570 0.64927
 C833 C 0.57472 0.00503 0.64116
 C834 C 0.55472 0.00343 0.65623
 C835 C 0.55559 -0.00937 0.67934
 C836 C 0.57713 -0.01984 0.68763
 C837 C 0.57274 0.01705 0.61790
 C838 C 0.59169 0.01792 0.60192
 C839 C 0.61366 0.00698 0.60873
 C840 C 0.61648 -0.00410 0.63316
 C841 C 0.63911 -0.01309 0.64065
 C842 C 0.65810 -0.01206 0.62462
 C843 C 0.65527 -0.00253 0.60036
 C844 C 0.63297 0.00694 0.59195
 C845 C 0.63081 0.01546 0.56687
 C846 C 0.65004 0.01499 0.55111
 C847 C 0.67220 0.00614 0.55962
 C848 C 0.67464 -0.00261 0.58436
 H849 H 0.61294 -0.02715 0.68047
 H850 H 0.53828 0.01202 0.64977
 H851 H 0.57825 -0.03012 0.70527
 H852 H 0.55617 0.02558 0.61176
 H853 H 0.58859 0.02771 0.58439
 H854 H 0.64289 -0.02079 0.65901
 H855 H 0.67514 -0.01917 0.63123
 H856 H 0.61434 0.02200 0.55858
 H857 H 0.64733 0.02115 0.53194
 H858 H 0.69168 -0.00944 0.59126
 C859 C -0.18626 0.47910 0.92304
 C860 C -0.16609 0.49402 0.91785
 C861 C -0.15949 0.51121 0.93524
 C862 C -0.17156 0.51208 0.95752
 C863 C -0.19113 0.49665 0.96295
 C864 C -0.19863 0.48060 0.94500
 C865 C -0.14084 0.52757 0.93039
 C866 C -0.12851 0.52737 0.90855
 C867 C -0.13389 0.51019 0.89087
 C868 C -0.15238 0.49264 0.89602
 C869 C -0.15594 0.47383 0.87965
 C870 C -0.14191 0.47217 0.85902
 C871 C -0.12440 0.48965 0.85332
 C872 C -0.12072 0.50941 0.86867
 C873 C -0.10395 0.52760 0.86112
 C874 C -0.09046 0.52539 0.84012
 C875 C -0.09311 0.50505 0.82596
 C876 C -0.11032 0.48736 0.83246
 H877 H -0.19315 0.46629 0.91033
 H878 H -0.16614 0.52570 0.97021
 H879 H -0.21348 0.46822 0.94824
 H880 H -0.13571 0.54078 0.94364
 H881 H -0.11412 0.54037 0.90654
 H882 H -0.16886 0.45944 0.88285
 H883 H -0.14487 0.45706 0.84733
 H884 H -0.10099 0.54390 0.87087
 H885 H -0.07736 0.53937 0.83531
 H886 H -0.11272 0.47180 0.82124
 C887 C 0.43444 0.03782 0.35573
 C888 C 0.41152 0.02721 0.35319
 C889 C 0.40704 0.01326 0.33238
 C890 C 0.42537 0.00867 0.31609
 C891 C 0.44839 0.01798 0.31990
 C892 C 0.45247 0.03319 0.33941
 C893 C 0.38446 0.00340 0.32828
 C894 C 0.36622 0.00659 0.34463
 C895 C 0.37000 0.01937 0.36623
 C896 C 0.39312 0.02960 0.37073
 C897 C 0.39739 0.04096 0.39310
 C898 C 0.37990 0.04199 0.41066
 C899 C 0.35727 0.03229 0.40651
 C900 C 0.35171 0.02145 0.38399
 C901 C 0.32810 0.01289 0.38043
 C902 C 0.31128 0.01395 0.39893
 C903 C 0.31727 0.02353 0.42165
 C904 C 0.34030 0.03301 0.42507
 H905 H 0.43909 0.04979 0.37012
 H906 H 0.42191 -0.00307 0.30102
 H907 H 0.46985 0.04136 0.34229
 H908 H 0.38087 -0.00715 0.31233
 H909 H 0.34951 -0.00201 0.34020
 H910 H 0.41443 0.04852 0.39812
 H911 H 0.38423 0.05039 0.42780
 H912 H 0.32194 0.00540 0.36351
 H913 H 0.29345 0.00721 0.39535
 H914 H 0.34537 0.04036 0.44255
 C915 C 0.17697 0.48011 0.90750
 C916 C 0.15616 0.49452 0.90630
 C917 C 0.15159 0.50859 0.92673
 C918 C 0.16719 0.50814 0.94723
 C919 C 0.18719 0.49312 0.94852
 C920 C 0.19214 0.47942 0.92832
 C921 C 0.13123 0.52278 0.92692
 C922 C 0.11454 0.52249 0.90778
 C923 C 0.11773 0.50817 0.88738
 C924 C 0.13944 0.49499 0.88596
 C925 C 0.14366 0.48284 0.86428
 C926 C 0.12694 0.48288 0.84501
 C927 C 0.10508 0.49435 0.84682
 C928 C 0.10001 0.50686 0.86819
 C929 C 0.07710 0.51699 0.86976
 C930 C 0.06031 0.51534 0.85066
 C931 C 0.06564 0.50373 0.82917
 C932 C 0.08815 0.49321 0.82744
 H933 H 0.18163 0.46850 0.89306
 H934 H 0.16347 0.51927 0.96252
 H935 H 0.20740 0.46751 0.92892
 H936 H 0.12789 0.53390 0.94231
 H937 H 0.09942 0.53413 0.90935
 H938 H 0.15999 0.47344 0.86140
 H939 H 0.13101 0.47340 0.82867
 H940 H 0.07125 0.52565 0.88584
 H941 H 0.04283 0.52284 0.85304
 H942 H 0.09257 0.48414 0.81096
 C943 C 0.55288 -0.02828 0.35176
 C944 C 0.57491 -0.01832 0.34367
 C945 C 0.57512 -0.00507 0.32041
 C946 C 0.55392 -0.00138 0.30646
 C947 C 0.53217 -0.01030 0.31552
 C948 C 0.53197 -0.02418 0.33796
 C949 C 0.59633 0.00503 0.31150
 C950 C 0.61728 0.00319 0.32552
 C951 C 0.61789 -0.00893 0.34923
 C952 C 0.59648 -0.02040 0.35817
 C953 C 0.59718 -0.03305 0.38160
 C954 C 0.61763 -0.03354 0.39632
 C955 C 0.63830 -0.02162 0.38837
 C956 C 0.63901 -0.00951 0.36458
 C957 C 0.66072 0.00203 0.35755
 C958 C 0.68038 0.00217 0.37381
 C959 C 0.67922 -0.00922 0.39756
 C960 C 0.65814 -0.02138 0.40448
 H961 H 0.55092 -0.03888 0.36892
 H962 H 0.55417 0.00942 0.28908
 H963 H 0.51540 -0.03166 0.34508
 H964 H 0.59666 0.01494 0.29362
 H965 H 0.63270 0.01180 0.31729
 H966 H 0.58209 -0.04264 0.38941
 H967 H 0.61711 -0.04310 0.41437
 H968 H 0.66308 0.01143 0.33979
 H969 H 0.69654 0.01138 0.36777
 H970 H 0.65676 -0.02994 0.42292
 C971 C 0.82199 0.50200 0.09612
 C972 C 0.84243 0.51729 0.09492
 C973 C 0.84746 0.52960 0.07189
 C974 C 0.83252 0.52671 0.05118
 C975 C 0.81279 0.51090 0.05249
 C976 C 0.80758 0.49882 0.07524
 C977 C 0.86771 0.54431 0.06941
 C978 C 0.88388 0.54609 0.08893
 C979 C 0.88017 0.53351 0.11200
 C980 C 0.85845 0.52005 0.11546
 C981 C 0.85355 0.50976 0.13931
 C982 C 0.86989 0.51130 0.15873
 C983 C 0.89195 0.52262 0.15511
 C984 C 0.89747 0.53389 0.13172
 C985 C 0.92047 0.54428 0.12882
 C986 C 0.93718 0.54326 0.14823
 C987 C 0.93163 0.53214 0.17135
 C988 C 0.90874 0.52223 0.17470
 H989 H 0.81716 0.49142 0.11263
 H990 H 0.83657 0.53649 0.03381
 H991 H 0.79275 0.48614 0.07677
 H992 H 0.87145 0.55410 0.05196
 H993 H 0.89906 0.55779 0.08541
 H994 H 0.83702 0.50059 0.14368
 H995 H 0.86542 0.50295 0.17666
 H996 H 0.92650 0.55245 0.11150
 H997 H 0.95485 0.55052 0.14477
 H998 H 0.90403 0.51381 0.19253
 C999 C 0.44560 -0.03976 0.64817
 C1000 C 0.42552 -0.02562 0.65310
 C1001 C 0.42652 -0.01204 0.67454
 C1002 C 0.44746 -0.01130 0.68915
 C1003 C 0.46772 -0.02405 0.68290
 C1004 C 0.46628 -0.03885 0.66277
 C1005 C 0.40686 0.00131 0.68091
 C1006 C 0.38633 0.00204 0.66618
 C1007 C 0.38478 -0.01020 0.64402
 C1008 C 0.40478 -0.02413 0.63729
 C1009 C 0.40380 -0.03525 0.61447
 C1010 C 0.38425 -0.03256 0.59856
 C1011 C 0.36465 -0.01911 0.60482
 C1012 C 0.36426 -0.00825 0.62787
 C1013 C 0.34343 0.00440 0.63354
 C1014 C 0.32445 0.00704 0.61656
 C1015 C 0.32545 -0.00276 0.59333
 C1016 C 0.34557 -0.01613 0.58782
 H1017 H 0.44604 -0.05165 0.63312
 H1018 H 0.44831 0.00013 0.70477
 H1019 H 0.48140 -0.04956 0.65803
 H1020 H 0.40744 0.01158 0.69738
 H1021 H 0.37222 0.01314 0.67233
 H1022 H 0.41826 -0.04558 0.60785
 H1023 H 0.38459 -0.04099 0.58100
 H1024 H 0.34111 0.01239 0.65097
 H1025 H 0.30888 0.01684 0.62171
 H1026 H 0.34680 -0.02368 0.56989
   
