data_POSCAR
  _audit_creation_date              2014-09-24
  _audit_creation_method            'ToBaCCo'
  _symmetry_space_group_name_H-M    'P1'
  _symmetry_Int_Tables_number       1
  _symmetry_cell_setting            triclinic
  loop_
  _symmetry_equiv_pos_as_xyz
 x,y,z
_cell_length_a 39.6017
_cell_length_b 39.3523
_cell_length_c 14.2161
_cell_angle_alpha 90.223800
_cell_angle_beta 89.787700
_cell_angle_gamma 119.408100
loop_
  _atom_site_label
  _atom_site_type_symbol
  _atom_site_fract_x
  _atom_site_fract_y
  _atom_site_fract_z
C1 C 0.21093 0.48449 0.44107
 C2 C 0.20594 0.48030 0.54040
 C3 C 0.22793 0.46746 0.59136
 C4 C 0.25731 0.46260 0.54983
 C5 C 0.26265 0.46685 0.45055
 C6 C 0.23819 0.47623 0.39739
 H7 H 0.24114 0.47838 0.32165
 H8 H 0.22294 0.46151 0.66571
 C9 C 0.52255 -0.25851 0.44954
 C10 C 0.52618 -0.25826 0.54964
 C11 C 0.51841 -0.23246 0.60361
 C12 C 0.50495 -0.20879 0.56198
 C13 C 0.49895 -0.21166 0.46353
 C14 C 0.50922 -0.23488 0.40932
 H15 H 0.50546 -0.23535 0.33358
 H16 H 0.52315 -0.23077 0.67859
 C17 C 1.29884 0.75537 0.44692
 C18 C 1.30388 0.75370 0.54550
 C19 C 1.27563 0.72271 0.59869
 C20 C 1.24294 0.69225 0.55613
 C21 C 1.23894 0.69201 0.45747
 C22 C 1.26656 0.72366 0.40406
 H23 H 1.26294 0.72274 0.32858
 H24 H 1.27905 0.72247 0.67430
 C25 C 0.78835 0.51205 0.47877
 C26 C 0.79405 0.51972 0.57713
 C27 C 0.76508 0.52186 0.62956
 C28 C 0.73262 0.52058 0.58713
 C29 C 0.72606 0.51159 0.48945
 C30 C 0.75442 0.50801 0.43668
 H31 H 0.74891 0.49932 0.36344
 H32 H 0.76942 0.52776 0.70459
 C33 C 0.50262 0.28206 0.42866
 C34 C 0.51145 0.29181 0.52507
 C35 C 0.50973 0.26269 0.58602
 C36 C 0.49543 0.22385 0.55633
 C37 C 0.48460 0.21405 0.46052
 C38 C 0.48884 0.24356 0.39825
 H39 H 0.48389 0.23728 0.32375
 H40 H 0.51828 0.26927 0.65873
 C41 C 0.72365 0.21394 0.44128
 C42 C 0.71510 0.20887 0.53867
 C43 C 0.74194 0.23649 0.60190
 C44 C 0.77642 0.26917 0.57147
 C45 C 0.78296 0.27577 0.47283
 C46 C 0.75684 0.24731 0.41001
 H47 H 0.76115 0.25182 0.33481
 H48 H 0.73725 0.23129 0.67678
 N49 N 0.96368 0.54665 0.10009
 N50 N 0.93598 0.55584 0.11057
 N51 N 1.04221 0.55528 0.17294
 N52 N 1.07186 0.57117 0.23180
 N53 N 1.04462 0.58125 0.11158
 N54 N 1.07563 0.61528 0.12678
 N55 N 0.96045 0.52107 0.16391
 N56 N 0.93020 0.51202 0.21894
 C57 C 0.91524 0.53397 0.18474
 C58 C 1.09231 0.60867 0.20172
 N59 N 1.03145 0.45322 0.09661
 N60 N 1.05951 0.44445 0.10186
 N61 N 0.95309 0.44423 0.15624
 N62 N 0.92600 0.42395 0.21945
 N63 N 0.95088 0.42174 0.08519
 N64 N 0.92261 0.38579 0.09830
 N65 N 1.03497 0.47798 0.16324
 N66 N 1.06594 0.48684 0.21538
 Mn67 Mn 0.99783 0.49972 0.16572
 C68 C 1.08075 0.46538 0.17597
 C69 C 0.90698 0.38764 0.18140
 N70 N 1.05153 0.58674 -0.08898
 N71 N 1.08368 0.62094 -0.09320
 N72 N 0.97161 0.53064 -0.17219
 N73 N 0.94724 0.52641 -0.23974
 N74 N 0.97005 0.55232 -0.10382
 N75 N 0.94425 0.56341 -0.12306
 N76 N 1.05191 0.56324 -0.15415
 N77 N 1.08396 0.58058 -0.20449
 Mn78 Mn 1.00724 0.56709 0.00488
 C79 C 1.10359 0.61653 -0.16571
 C80 C 0.93039 0.54695 -0.20830
 N81 N 0.95662 0.42736 -0.11920
 N82 N 0.93049 0.39281 -0.15220
 N83 N 1.04343 0.48659 -0.16253
 N84 N 1.07597 0.49765 -0.20901
 N85 N 1.03741 0.45908 -0.10211
 N86 N 1.06595 0.45094 -0.10480
 N87 N 0.96342 0.45464 -0.18135
 N88 N 0.94255 0.43959 -0.25763
 Mn89 Mn 0.99367 0.43988 -0.00986
 Mn90 Mn 1.00777 0.50888 -0.16809
 Cl91 Cl 1.00140 0.50381 -0.00156
 C92 C 0.92160 0.40130 -0.23797
 C93 C 1.08953 0.47505 -0.17208
 N94 N 0.46057 0.41881 0.06015
 N95 N 0.45123 0.38160 0.06137
 N96 N 0.44012 0.47699 0.14852
 N97 N 0.41846 0.48387 0.20812
 N98 N 0.42081 0.46150 0.07048
 N99 N 0.38585 0.45778 0.07441
 N100 N 0.48273 0.43730 0.13218
 N101 N 0.48910 0.41343 0.18420
 C102 C 0.46960 0.37888 0.13871
 C103 C 0.38468 0.47149 0.16100
 N104 N 0.53603 0.57697 0.13479
 N105 N 0.54358 0.61050 0.17502
 N106 N 0.55474 0.50937 0.16958
 N107 N 0.57335 0.49688 0.22484
 N108 N 0.57965 0.53828 0.11688
 N109 N 0.61532 0.54571 0.13294
 N110 N 0.51087 0.54763 0.18602
 N111 N 0.50055 0.56003 0.26091
 Mn112 Mn 0.49715 0.49253 0.15996
 C113 C 0.52063 0.59908 0.25319
 C114 C 0.61122 0.51994 0.20022
 N115 N 0.43096 0.47554 -0.13208
 N116 N 0.39669 0.46584 -0.16931
 N117 N 0.49910 0.46082 -0.18851
 N118 N 0.51702 0.44565 -0.23775
 N119 N 0.47160 0.43379 -0.13652
 N120 N 0.47042 0.40003 -0.14756
 N121 N 0.45863 0.50318 -0.18227
 N122 N 0.44433 0.51351 -0.25278
 Mn123 Mn 0.44542 0.44723 -0.03458
 C124 C 0.40586 0.49054 -0.24369
 C125 C 0.49827 0.40753 -0.21170
 N126 N 0.58968 0.55340 -0.08121
 N127 N 0.62678 0.56406 -0.09397
 N128 N 0.52846 0.57387 -0.14625
 N129 N 0.52249 0.59697 -0.20241
 N130 N 0.54574 0.59229 -0.06851
 N131 N 0.55164 0.62841 -0.06935
 N132 N 0.56933 0.53324 -0.15398
 N133 N 0.59154 0.53028 -0.21842
 Mn134 Mn 0.56306 0.56587 0.02581
 Mn135 Mn 0.51398 0.51768 -0.16829
 Cl136 Cl 0.50490 0.50598 -0.00405
 C137 C 0.62719 0.54931 -0.18037
 C138 C 0.53709 0.63082 -0.15364
 N139 N 0.39663 -0.05407 0.08894
 N140 N 0.36432 -0.08816 0.09070
 N141 N 0.44778 0.02872 0.16641
 N142 N 0.45293 0.05658 0.22574
 N143 N 0.42650 0.02778 0.09484
 N144 N 0.41642 0.05511 0.10399
 N145 N 0.41972 -0.05196 0.15745
 N146 N 0.40381 -0.08419 0.20785
 C147 C 0.36919 -0.10653 0.16561
 C148 C 0.43309 0.07268 0.18653
 N149 N 0.55328 0.04907 0.12556
 N150 N 0.58562 0.08024 0.15293
 N151 N 0.49796 -0.03857 0.17532
 N152 N 0.49058 -0.06854 0.22991
 N153 N 0.52678 -0.03123 0.11802
 N154 N 0.53980 -0.05579 0.13144
 N155 N 0.52490 0.04215 0.18411
 N156 N 0.53674 0.06858 0.25138
 Mn157 Mn 0.47243 -0.00519 0.17170
 C158 C 0.57449 0.09221 0.23109
 C159 C 0.51699 -0.07885 0.20102
 N160 N 0.43421 0.03041 -0.11006
 N161 N 0.42129 0.05454 -0.13318
 N162 N 0.43183 -0.04741 -0.16880
 N163 N 0.41845 -0.07838 -0.22437
 N164 N 0.40452 -0.05044 -0.11111
 N165 N 0.37203 -0.08320 -0.12551
 N166 N 0.46171 0.03429 -0.16847
 N167 N 0.46898 0.06177 -0.23081
 Mn168 Mn 0.41507 -0.01134 -0.00939
 C169 C 0.44375 0.07428 -0.20782
 C170 C 0.38104 -0.10030 -0.19607
 N171 N 0.53422 -0.02927 -0.08128
 N172 N 0.54491 -0.05623 -0.08355
 N173 N 0.53914 0.04659 -0.15175
 N174 N 0.55752 0.07487 -0.21350
 N175 N 0.56116 0.05181 -0.07822
 N176 N 0.59490 0.08390 -0.08729
 N177 N 0.51023 -0.03455 -0.15048
 N178 N 0.50410 -0.06510 -0.20181
 Mn179 Mn 0.54438 0.01050 0.02098
 Mn180 Mn 0.48566 -0.00046 -0.16115
 Cl181 Cl 0.47942 -0.00148 0.00541
 C182 C 0.52608 -0.07824 -0.15931
 C183 C 0.59215 0.09794 -0.17183
 C184 C 1.18945 0.49757 0.38762
 C185 C 1.17218 0.48153 0.30596
 C186 C 1.14036 0.48776 0.27126
 C187 C 1.11574 0.46412 0.20625
 H188 H 1.17701 0.45943 0.27275
 H189 H 1.13531 0.50983 0.30386
 H190 H 1.18154 0.51762 0.42010
 H191 H 1.12094 0.44209 0.17406
 C192 C 0.53169 0.71980 0.38457
 C193 C 0.52617 0.68383 0.39811
 C194 C 0.53290 0.66251 0.32078
 C195 C 0.51845 0.62410 0.32746
 H196 H 0.51289 0.66825 0.46236
 H197 H 0.54797 0.67770 0.25741
 H198 H 0.53922 0.73110 0.31343
 H199 H 0.50237 0.60932 0.39023
 C200 C 0.32518 -0.21114 0.39530
 C201 C 0.31893 -0.20067 0.30997
 C202 C 0.34787 -0.16255 0.27081
 C203 C 0.34053 -0.14612 0.19716
 H204 H 0.29211 -0.21791 0.27228
 H205 H 0.37559 -0.14664 0.30622
 H206 H 0.35180 -0.19030 0.42927
 H207 H 0.31293 -0.16137 0.16121
 C208 C 0.81378 0.50170 0.42282
 C209 C 0.83002 0.51918 0.34144
 C210 C 0.86126 0.51403 0.29807
 C211 C 0.88145 0.53549 0.22425
 H212 H 0.82247 0.53977 0.31095
 H213 H 0.86907 0.49383 0.32975
 H214 H 0.82289 0.48260 0.45508
 H215 H 0.87374 0.55584 0.19310
 C216 C 0.51026 0.31262 0.35810
 C217 C 0.48500 0.30874 0.29124
 C218 C 0.49106 0.34355 0.23946
 C219 C 0.46636 0.34238 0.17425
 H220 H 0.45845 0.28132 0.28155
 H221 H 0.51519 0.37155 0.26003
 H222 H 0.53629 0.34061 0.36680
 H223 H 0.44273 0.31475 0.15034
 C224 C 0.69952 0.18520 0.36868
 C225 C 0.66147 0.17167 0.36131
 C226 C 0.63830 0.14232 0.28960
 C227 C 0.59975 0.12501 0.29241
 H228 H 0.64710 0.18158 0.41043
 H229 H 0.65258 0.13331 0.23797
 H230 H 0.71411 0.17677 0.31656
 H231 H 0.58580 0.13327 0.34661
 C232 C 0.49438 0.19710 -0.37613
 C233 C 0.46654 0.15965 -0.37070
 C234 C 0.47024 0.13297 -0.30447
 C235 C 0.43950 0.10357 -0.26283
 H236 H 0.44100 0.14846 -0.41477
 H237 H 0.49901 0.13727 -0.29075
 H238 H 0.51562 0.20828 -0.31990
 H239 H 0.41100 0.10072 -0.27013
 C240 C 0.70863 0.52869 -0.35407
 C241 C 0.68841 0.54565 -0.38368
 C242 C 0.65992 0.54950 -0.32461
 C243 C 0.66149 0.55337 -0.23055
 H244 H 0.69024 0.55480 -0.45598
 H245 H 0.63557 0.54822 -0.36227
 H246 H 0.70870 0.52330 -0.27938
 H247 H 0.68675 0.55809 -0.19112
 C248 C 0.80220 0.29273 -0.35706
 C249 C 0.84044 0.31588 -0.36753
 C250 C 0.86462 0.34044 -0.28960
 C251 C 0.89746 0.37289 -0.30941
 H252 H 0.85483 0.31709 -0.43312
 H253 H 0.85449 0.33370 -0.21753
 H254 H 0.79066 0.29009 -0.28640
 H255 H 0.90544 0.38091 -0.38234
 C256 C 0.49891 -0.18138 -0.38582
 C257 C 0.51328 -0.16696 -0.30041
 C258 C 0.50826 -0.13461 -0.26258
 C259 C 0.52892 -0.11262 -0.19011
 H260 H 0.53116 -0.17592 -0.26228
 H261 H 0.48847 -0.12734 -0.29821
 H262 H 0.48380 -0.16821 -0.41975
 H263 H 0.54899 -0.11932 -0.15401
 C264 C 0.28007 0.45457 -0.38738
 C265 C 0.31851 0.47057 -0.39415
 C266 C 0.34141 0.46684 -0.31724
 C267 C 0.37944 0.49101 -0.31506
 H268 H 0.33390 0.49014 -0.45167
 H269 H 0.32735 0.44539 -0.26219
 H270 H 0.26701 0.44025 -0.32139
 H271 H 0.39269 0.51256 -0.37035
 C272 C 1.21210 0.66167 -0.38481
 C273 C 1.19621 0.67032 -0.31174
 C274 C 1.16075 0.63948 -0.26702
 C275 C 1.14147 0.64727 -0.20050
 H276 H 1.20748 0.70040 -0.29005
 H277 H 1.14907 0.60984 -0.29275
 H278 H 1.19940 0.63158 -0.40750
 H279 H 1.15296 0.67666 -0.17343
 C280 C 0.82700 0.52536 -0.37202
 C281 C 0.86276 0.53928 -0.40776
 C282 C 0.89502 0.54136 -0.35237
 C283 C 0.90009 0.54996 -0.26041
 H284 H 0.86919 0.54825 -0.48019
 H285 H 0.91565 0.53582 -0.39012
 H286 H 0.82346 0.51997 -0.29692
 H287 H 0.88187 0.55890 -0.22302
 C288 C 0.51907 0.32911 -0.44155
 C289 C 0.52305 0.34028 -0.35117
 C290 C 0.52212 0.37606 -0.32381
 C291 C 0.50822 0.37762 -0.23946
 H292 H 0.52257 0.32170 -0.29500
 H293 H 0.52830 0.39867 -0.37521
 H294 H 0.51821 0.34948 -0.49101
 H295 H 0.49926 0.35322 -0.19174
 C296 C 0.68016 0.17368 -0.42451
 C297 C 0.66335 0.17349 -0.34238
 C298 C 0.63008 0.13787 -0.30548
 C299 C 0.62360 0.13366 -0.21290
 H300 H 0.67443 0.19966 -0.29991
 H301 H 0.61211 0.11435 -0.35323
 H302 H 0.66797 0.14701 -0.46550
 H303 H 0.64360 0.15596 -0.16513
 C304 C 1.17704 0.48554 -0.41374
 C305 C 1.17376 0.48829 -0.32071
 C306 C 1.14121 0.49184 -0.28402
 C307 C 1.12520 0.47603 -0.20201
 H308 H 1.19379 0.48755 -0.27059
 H309 H 1.12801 0.50441 -0.32857
 H310 H 1.15490 0.48674 -0.45555
 H311 H 1.13670 0.46111 -0.16004
 C312 C 0.54081 0.71804 -0.40188
 C313 C 0.52925 0.70320 -0.31551
 C314 C 0.53784 0.67335 -0.27892
 C315 C 0.53552 0.66528 -0.18713
 H316 H 0.51047 0.71019 -0.27413
 H317 H 0.54436 0.65638 -0.32862
 H318 H 0.56019 0.71078 -0.43975
 H319 H 0.53152 0.68359 -0.13627
 C320 C 0.33659 -0.21405 -0.40393
 C321 C 0.32988 -0.19425 -0.33726
 C322 C 0.36120 -0.15781 -0.29787
 C323 C 0.35249 -0.13800 -0.23537
 H324 H 0.30022 -0.20376 -0.31588
 H325 H 0.39080 -0.14664 -0.32179
 H326 H 0.36597 -0.20410 -0.42801
 H327 H 0.32279 -0.14985 -0.21143
 C328 C 0.48562 -0.18758 0.41338
 C329 C 0.50750 -0.16329 0.34608
 C330 C 0.49831 -0.13480 0.30479
 C331 C 0.52205 -0.11020 0.24040
 H332 H 0.53410 -0.16285 0.32510
 H333 H 0.47325 -0.13299 0.32905
 H334 H 0.45957 -0.18751 0.43667
 H335 H 0.54678 -0.11262 0.21613
 C336 C 0.29111 0.45824 0.40223
 C337 C 0.30932 0.47514 0.32201
 C338 C 0.34151 0.46986 0.28688
 C339 C 0.35150 0.47486 0.19619
 H340 H 0.30216 0.49454 0.28406
 H341 H 0.35714 0.46159 0.33588
 H342 H 0.29902 0.43863 0.43659
 H343 H 0.33414 0.48017 0.14587
 C344 C 1.20518 0.65928 0.41056
 C345 C 1.18444 0.66524 0.34566
 C346 C 1.14863 0.63260 0.30739
 C347 C 1.12846 0.63940 0.24269
 H348 H 1.19305 0.69473 0.32342
 H349 H 1.13863 0.60317 0.33241
 H350 H 1.19554 0.62980 0.43424
 H351 H 1.13915 0.66884 0.21695
 C352 C 0.47682 0.17591 0.42070
 C353 C 0.45419 0.15903 0.34577
 C354 C 0.45108 0.12295 0.30673
 C355 C 0.43224 0.10681 0.22666
 H356 H 0.43876 0.17205 0.31235
 H357 H 0.46604 0.11004 0.34313
 H358 H 0.49135 0.16167 0.45287
 H359 H 0.41736 0.11945 0.18899
 C360 C 0.68764 0.49998 0.44587
 C361 C 0.68390 0.50986 0.35820
 C362 C 0.64615 0.50308 0.32104
 C363 C 0.64532 0.51928 0.23935
 H364 H 0.70963 0.52590 0.31530
 H365 H 0.61995 0.48736 0.36251
 H366 H 0.66197 0.48541 0.48965
 H367 H 0.67227 0.53607 0.20115
 C368 C 0.81329 0.31356 0.43305
 C369 C 0.83198 0.31545 0.35291
 C370 C 0.86143 0.35274 0.31187
 C371 C 0.87598 0.35273 0.22695
 H372 H 0.82579 0.28875 0.31660
 H373 H 0.87128 0.37973 0.35066
 H374 H 0.82046 0.34026 0.47068
 H375 H 0.86537 0.32543 0.18901
   
