data_POSCAR
  _audit_creation_date              2014-09-24
  _audit_creation_method            'ToBaCCo'
  _symmetry_space_group_name_H-M    'P1'
  _symmetry_Int_Tables_number       1
  _symmetry_cell_setting            triclinic
  loop_
  _symmetry_equiv_pos_as_xyz
 x,y,z
_cell_length_a 23.2902
_cell_length_b 22.5165
_cell_length_c 49.6249
_cell_angle_alpha 92.049100
_cell_angle_beta 92.702900
_cell_angle_gamma 123.968300
loop_
  _atom_site_label
  _atom_site_type_symbol
  _atom_site_fract_x
  _atom_site_fract_y
  _atom_site_fract_z
C1 C 0.07166 0.18472 0.51799
 H2 H 0.11432 0.18902 0.50837
 C3 C 0.07847 0.24697 0.52814
 H4 H 0.12633 0.29840 0.52604
 C5 C -0.04081 0.11260 0.53351
 H6 H -0.08705 0.05981 0.53551
 C7 C -0.03561 0.17377 0.54445
 H8 H -0.07832 0.16790 0.55472
 N9 N 0.01266 0.11916 0.52069
 C10 C 0.02277 -0.06696 0.53125
 H11 H 0.02352 -0.08388 0.51066
 C12 C 0.02632 -0.10395 0.55257
 H13 H 0.02987 -0.14914 0.54811
 C14 C 0.01890 0.01344 0.56195
 H15 H 0.01595 0.05914 0.56566
 C16 C 0.02269 -0.02173 0.58385
 H17 H 0.02164 -0.00283 0.60405
 Zn18 Zn 0.00826 0.03688 0.50691
 N19 N 0.01792 -0.01013 0.53619
 C20 C 0.13606 0.06320 0.48996
 N21 N 0.08142 0.06825 0.48382
 C22 C 0.07906 0.10053 0.46153
 C23 C 0.13352 0.13073 0.44475
 C24 C 0.19136 0.09187 0.47343
 C25 C -0.11058 -0.09846 0.48568
 C26 C -0.16753 -0.14395 0.46722
 C27 C -0.15882 -0.03999 0.45068
 C28 C -0.10183 0.00342 0.46941
 N29 N -0.07747 -0.02602 0.48589
 H30 H 0.13796 0.03890 0.50805
 H31 H 0.03587 0.10505 0.45721
 H32 H 0.13085 0.15695 0.42733
 H33 H 0.23510 0.08877 0.47892
 H34 H -0.09203 -0.12153 0.49926
 H35 H -0.19113 -0.20103 0.46747
 H36 H -0.17468 -0.01361 0.43754
 H37 H -0.07583 0.06108 0.47031
 C38 C 0.02580 -0.08170 0.57930
 C39 C 0.02461 0.24199 0.54164
 C40 C -0.19152 -0.11509 0.44862
 C41 C 0.19081 0.12707 0.45073
 C42 C 1.07325 -0.04879 0.11075
 H43 H 1.08991 0.00500 0.11768
 C44 C 1.11026 -0.05858 0.09183
 H45 H 1.15530 -0.01195 0.08441
 C46 C 0.99380 -0.17460 0.11174
 H47 H 0.94885 -0.21962 0.11979
 C48 C 1.02891 -0.18685 0.09258
 H49 H 1.01065 -0.24154 0.08624
 N50 N 1.01699 -0.10638 0.12071
 C51 C 0.84130 -0.11350 0.14862
 H52 H 0.84551 -0.12367 0.16950
 C53 C 0.78011 -0.12316 0.13769
 H54 H 0.73748 -0.14070 0.15031
 C55 C 0.89180 -0.07831 0.10681
 H56 H 0.93529 -0.06184 0.09484
 C57 C 0.83197 -0.08571 0.09523
 H58 H 0.82956 -0.07506 0.07424
 Zn59 Zn 0.97299 -0.08937 0.14824
 N60 N 0.89497 -0.09301 0.13298
 C61 C 1.01765 0.04752 0.17203
 N62 N 1.03718 0.00203 0.16642
 C63 C 1.10155 0.01931 0.17478
 C64 C 1.14861 0.08377 0.19002
 C65 C 1.06299 0.11246 0.18735
 C66 C 0.88170 -0.22589 0.16742
 C67 C 0.85023 -0.27444 0.18729
 C68 C 0.94454 -0.18879 0.21961
 C69 C 0.97350 -0.14148 0.19930
 N70 N 0.94144 -0.16010 0.17385
 H71 H 0.96615 0.03261 0.16525
 H72 H 1.11576 -0.01792 0.17007
 H73 H 1.19917 0.09564 0.19653
 H74 H 1.04504 0.14636 0.19211
 H75 H 0.85632 -0.23913 0.14721
 H76 H 0.80142 -0.32552 0.18205
 H77 H 0.96968 -0.17151 0.23991
 H78 H 1.02016 -0.08885 0.20432
 C79 C 0.77478 -0.10985 0.11063
 C80 C 1.08859 -0.12833 0.08271
 C81 C 0.88119 -0.25542 0.21387
 C82 C 1.12931 0.13104 0.19691
 C83 C 0.10056 1.02333 0.87722
 H84 H 0.05048 0.97555 0.88043
 C85 C 0.16068 1.03599 0.89082
 H86 H 0.15642 0.99783 0.90464
 C87 C 0.16653 1.13145 0.85549
 H88 H 0.16898 1.16777 0.84125
 C89 C 0.22784 1.14680 0.86901
 H90 H 0.27681 1.19521 0.86515
 N91 N 0.10430 1.07137 0.86030
 C92 C -0.10365 1.02428 0.86454
 H93 H -0.12651 1.00275 0.84413
 C94 C -0.14283 1.02938 0.88384
 H95 H -0.19584 1.01086 0.87779
 C96 C -0.00527 1.07862 0.89616
 H97 H 0.04879 1.09906 0.90077
 C98 C -0.04163 1.08708 0.91577
 H99 H -0.01480 1.11192 0.93543
 Zn100 Zn 0.01876 1.04957 0.84392
 N101 N -0.03641 1.04803 0.87107
 C102 C -0.08532 0.90023 0.82946
 N103 N -0.02325 0.95962 0.82404
 C104 C 0.01508 0.95620 0.80499
 C105 C -0.00861 0.89133 0.79044
 C106 C -0.11153 0.83433 0.81506
 C107 C 0.06850 1.18990 0.83257
 C108 C 0.08234 1.24631 0.81710
 C109 C 0.01811 1.16058 0.77869
 C110 C 0.00735 1.10581 0.79472
 N111 N 0.03335 1.12157 0.82107
 H112 H -0.11394 0.90323 0.84532
 H113 H 0.06475 1.00401 0.80139
 H114 H 0.02278 0.88990 0.77537
 H115 H -0.16062 0.78745 0.81981
 H116 H 0.08673 1.20062 0.85377
 H117 H 0.11163 1.30062 0.82644
 H118 H -0.00236 1.14774 0.75770
 H119 H -0.02215 1.05084 0.78618
 C120 C -0.11145 1.06289 0.90978
 C121 C 0.22521 1.09900 0.88709
 C122 C 0.05708 1.23184 0.78985
 C123 C -0.07268 0.82933 0.79543
 C124 C 0.48370 -0.03421 0.00628
 C125 C 0.50945 0.00417 -0.01567
 C126 C 0.47269 0.03061 -0.03058
 C127 C 0.57617 0.02297 -0.02542
 C128 C 0.52297 -0.05573 0.02290
 C129 C 0.41456 -0.05664 0.01475
 C130 C 0.43040 -0.00740 -0.05428
 C131 C 0.39494 0.01729 -0.06816
 C132 C 0.40285 0.08136 -0.05890
 C133 C 0.44618 0.11986 -0.03536
 C134 C 0.48042 0.09429 -0.02116
 C135 C 0.57885 -0.02558 -0.04281
 C136 C 0.64233 -0.00800 -0.05170
 C137 C 0.70472 0.05764 -0.04254
 C138 C 0.70098 0.10638 -0.02532
 C139 C 0.63717 0.08983 -0.01742
 C140 C 0.58852 -0.00393 0.03592
 C141 C 0.62440 -0.02462 0.05201
 C142 C 0.59421 -0.09735 0.05618
 C143 C 0.52798 -0.14907 0.04364
 C144 C 0.49280 -0.12842 0.02706
 C145 C 0.40923 -0.02973 0.03971
 C146 C 0.34411 -0.05222 0.04824
 C147 C 0.28306 -0.10283 0.03208
 C148 C 0.28873 -0.12977 0.00707
 C149 C 0.35393 -0.10693 -0.00149
 H150 H 0.42439 -0.05647 -0.06182
 H151 H 0.36227 -0.01304 -0.08638
 H152 H 0.45261 0.16900 -0.02765
 H153 H 0.51307 0.12414 -0.00288
 H154 H 0.53181 -0.07718 -0.04939
 H155 H 0.64238 -0.04741 -0.06480
 H156 H 0.63552 0.12856 -0.00449
 H157 H 0.61129 0.05265 0.03418
 H158 H 0.67469 0.01644 0.06194
 H159 H 0.50359 -0.20552 0.04649
 H160 H 0.44186 -0.16916 0.01750
 H161 H 0.45558 0.00863 0.05260
 H162 H 0.34170 -0.03101 0.06775
 H163 H 0.24294 -0.16825 -0.00599
 H164 H 0.35712 -0.12916 -0.02063
 H165 H 0.74684 0.15843 -0.01844
 C166 C -0.02356 0.52035 0.68969
 C167 C -0.01159 0.53958 0.66382
 C168 C 0.00174 0.49958 0.64341
 C169 C -0.00676 0.60481 0.65524
 C170 C -0.04798 0.55338 0.70833
 C171 C -0.00406 0.47359 0.70139
 C172 C 0.05777 0.53724 0.62736
 C173 C 0.06814 0.50098 0.60685
 C174 C 0.02235 0.42614 0.60176
 C175 C -0.03310 0.38821 0.61819
 C176 C -0.04339 0.42464 0.63879
 C177 C 0.03945 0.67153 0.66967
 C178 C 0.04734 0.73368 0.66089
 C179 C 0.01014 0.73069 0.63718
 C180 C -0.03571 0.66395 0.62259
 C181 C -0.04402 0.60156 0.63155
 C182 C -0.11022 0.54773 0.70173
 C183 C -0.12984 0.58447 0.71800
 C184 C -0.08696 0.62827 0.74088
 C185 C -0.02567 0.63224 0.74786
 C186 C -0.00678 0.59437 0.73189
 C187 C -0.05070 0.41583 0.71611
 C188 C -0.02933 0.37721 0.72980
 C189 C 0.03951 0.39691 0.72947
 C190 C 0.08550 0.45355 0.71416
 C191 C 0.06392 0.49145 0.70022
 H192 H 0.09354 0.59500 0.63067
 H193 H 0.11239 0.53199 0.59514
 H194 H -0.06956 0.33064 0.61478
 H195 H -0.08754 0.39459 0.65071
 H196 H 0.07066 0.67576 0.68746
 H197 H 0.08422 0.78428 0.67229
 H198 H -0.07926 0.55076 0.61994
 H199 H -0.14272 0.51613 0.68364
 H200 H -0.17710 0.58083 0.71207
 H201 H 0.00794 0.66509 0.76555
 H202 H 0.04147 0.59944 0.73729
 H203 H -0.10314 0.40174 0.71746
 H204 H -0.06570 0.33421 0.74165
 H205 H 0.13866 0.46952 0.71334
 H206 H 0.10116 0.53665 0.68940
 H207 H -0.06536 0.65980 0.60432
 C208 C 0.50899 0.46786 0.34241
 C209 C 0.50982 0.45825 0.31532
 C210 C 0.57530 0.50290 0.30185
 C211 C 0.44428 0.40670 0.29841
 C212 C 0.45920 0.40682 0.35799
 C213 C 0.55608 0.54031 0.35676
 C214 C 0.57633 0.53333 0.27754
 C215 C 0.63819 0.57413 0.26494
 C216 C 0.70018 0.58485 0.27629
 C217 C 0.69849 0.55328 0.30043
 C218 C 0.63687 0.51295 0.31305
 C219 C 0.38516 0.40746 0.30184
 C220 C 0.32546 0.36545 0.28429
 C221 C 0.32340 0.32149 0.26298
 C222 C 0.38180 0.31903 0.25996
 C223 C 0.44204 0.36185 0.27740
 C224 C 0.45181 0.34065 0.35427
 C225 C 0.40913 0.28433 0.37008
 C226 C 0.37245 0.29277 0.38979
 C227 C 0.37866 0.35848 0.39314
 C228 C 0.42217 0.41524 0.37754
 C229 C 0.59171 0.54976 0.38178
 C230 C 0.63287 0.61785 0.39562
 C231 C 0.63848 0.67814 0.38495
 C232 C 0.60219 0.66764 0.35975
 C233 C 0.56178 0.59988 0.34593
 H234 H 0.52946 0.52623 0.26849
 H235 H 0.63729 0.59785 0.24650
 H236 H 0.74439 0.55876 0.30960
 H237 H 0.63702 0.48871 0.33150
 H238 H 0.38596 0.44245 0.31764
 H239 H 0.28102 0.36772 0.28740
 H240 H 0.48720 0.36084 0.27428
 H241 H 0.48042 0.33314 0.33949
 H242 H 0.40474 0.23411 0.36680
 H243 H 0.35134 0.36669 0.40830
 H244 H 0.42717 0.46581 0.38079
 H245 H 0.58758 0.50437 0.39064
 H246 H 0.65883 0.62213 0.41494
 H247 H 0.60479 0.71125 0.35016
 H248 H 0.53378 0.59371 0.32683
 H249 H 0.38173 0.28581 0.24363
 N250 N 0.07171 0.42096 0.55859
 N251 N 0.07197 0.37265 0.54283
 C252 C 0.03259 0.30805 0.55295
 C253 C 0.00570 0.31556 0.57619
 C254 C 0.03242 0.38838 0.57927
 H255 H -0.02604 0.27440 0.58955
 H256 H 0.09795 0.47512 0.55487
 H257 H 0.09867 0.38422 0.52538
 N258 N 0.83019 0.65744 0.27585
 N259 N 0.87763 0.69876 0.25939
 C260 C 0.84550 0.69809 0.23598
 C261 C 0.77429 0.65405 0.23762
 C262 C 0.76648 0.62959 0.26337
 H263 H 0.73421 0.64428 0.22259
 H264 H 0.84219 0.65114 0.29561
 H265 H 0.93109 0.72777 0.26449
 N266 N 0.39059 0.17783 -0.07531
 N267 N 0.34441 0.18243 -0.08986
 C268 C 0.28914 0.11555 -0.09760
 C269 C 0.30110 0.06625 -0.08772
 C270 C 0.36600 0.10796 -0.07370
 H271 H 0.26702 0.00825 -0.09005
 H272 H 0.43821 0.22204 -0.06682
 H273 H 0.35031 0.23074 -0.09378
 N274 N 0.04409 0.85771 0.64331
 N275 N 0.04840 0.90690 0.62816
 C276 C 0.02799 0.87912 0.60228
 C277 C 0.00961 0.80883 0.60103
 C278 C 0.02056 0.79728 0.62749
 H279 H -0.00881 0.77144 0.58336
 H280 H 0.05658 0.86581 0.66418
 H281 H 0.06607 0.95881 0.63561
 N282 N 0.21668 0.29902 0.23772
 N283 N 0.16625 0.24973 0.22021
 C284 C 0.17701 0.19769 0.21465
 C285 C 0.23773 0.21559 0.22926
 C286 C 0.26098 0.27988 0.24371
 H287 H 0.26082 0.18523 0.23013
 H288 H 0.22066 0.34530 0.24510
 H289 H 0.12564 0.25268 0.21236
 N290 N 0.83115 0.12380 -0.03673
 N291 N 0.88281 0.12331 -0.04959
 C292 C 0.85223 0.07465 -0.07113
 C293 C 0.78067 0.04209 -0.07192
 C294 C 0.76939 0.07410 -0.05013
 H295 H 0.74174 0.00097 -0.08671
 H296 H 0.84051 0.15546 -0.01905
 H297 H 0.93577 0.15874 -0.04391
 N298 N 0.15451 -0.19195 0.03339
 N299 N 0.10357 -0.19891 0.04679
 C300 C 0.12920 -0.13971 0.06364
 C301 C 0.19968 -0.09316 0.06083
 C302 C 0.21390 -0.12832 0.04153
 H303 H 0.23576 -0.04154 0.07173
 H304 H 0.14843 -0.23128 0.01945
 H305 H 0.05227 -0.24365 0.04426
 N306 N 0.68163 0.80547 0.39150
 N307 N 0.72888 0.86352 0.40960
 C308 C 0.75528 0.84036 0.42801
 C309 C 0.72445 0.76702 0.42205
 C310 C 0.67925 0.74705 0.39895
 H311 H 0.73584 0.73304 0.43244
 H312 H 0.65345 0.80922 0.37549
 H313 H 0.74043 0.91513 0.40814
 N314 N 0.13029 0.39806 0.75872
 N315 N 0.13459 0.35520 0.77491
 C316 C 0.07269 0.29152 0.77332
 C317 C 0.02664 0.29392 0.75540
 C318 C 0.06525 0.36285 0.74668
 H319 H -0.02775 0.25246 0.75032
 H320 H 0.17069 0.45147 0.75693
 H321 H 0.17910 0.36989 0.78706
 N322 N 0.59809 -0.17408 0.09037
 N323 N 0.64552 -0.17645 0.10502
 C324 C 0.70899 -0.12338 0.09850
 C325 C 0.70163 -0.08520 0.07892
 C326 C 0.63037 -0.11899 0.07440
 H327 H 0.74231 -0.03904 0.06953
 H328 H 0.54466 -0.20881 0.09183
 H329 H 0.63421 -0.21437 0.11904
 N330 N 0.34078 0.18379 0.41403
 N331 N 0.29357 0.14069 0.43027
 C332 C 0.25035 0.16181 0.43380
 C333 C 0.27140 0.22134 0.41931
 C334 C 0.32898 0.23368 0.40707
 H335 H 0.24838 0.25175 0.41803
 H336 H 0.38103 0.17957 0.40834
 H337 H 0.29104 0.09735 0.43853
 N338 N -0.16934 0.65383 0.76011
 N339 N -0.16554 0.70653 0.77461
 C340 C -0.09808 0.75985 0.78048
 C341 C -0.05729 0.73967 0.76949
 C342 C -0.10440 0.67215 0.75675
 H343 H -0.00119 0.77030 0.77022
 H344 H -0.21579 0.60626 0.75276
 H345 H -0.20862 0.70629 0.77976
   
