data_POSCAR
  _audit_creation_date              2014-09-24
  _audit_creation_method            'ToBaCCo'
  _symmetry_space_group_name_H-M    'P1'
  _symmetry_Int_Tables_number       1
  _symmetry_cell_setting            triclinic
  loop_
  _symmetry_equiv_pos_as_xyz
 x,y,z
_cell_length_a 33.0598
_cell_length_b 24.3413
_cell_length_c 12.9942
_cell_angle_alpha 89.934100
_cell_angle_beta 89.947300
_cell_angle_gamma 90.006400
loop_
  _atom_site_label
  _atom_site_type_symbol
  _atom_site_fract_x
  _atom_site_fract_y
  _atom_site_fract_z
C1 C 0.81929 0.18022 0.40518
 C2 C 0.83737 0.16670 0.49980
 C3 C 0.81896 0.17911 0.59452
 C4 C 0.78392 0.21316 0.59499
 C5 C 0.76696 0.23146 0.50052
 C6 C 0.78435 0.21453 0.40547
 C7 C 0.76766 0.23525 0.31362
 C8 C 0.73367 0.26867 0.31420
 C9 C 0.71594 0.28594 0.40680
 C10 C 0.73274 0.26748 0.50110
 C11 C 0.76657 0.23204 0.68732
 C12 C 0.73252 0.26521 0.68772
 C13 C 0.71566 0.28534 0.59590
 C14 C 0.68135 0.32091 0.59589
 C15 C 0.66390 0.33542 0.50110
 C16 C 0.68170 0.32086 0.40729
 H17 H 0.78110 0.22760 0.23941
 H18 H 0.72159 0.28074 0.24035
 H19 H 0.77935 0.22293 0.76163
 H20 H 0.71960 0.27388 0.76210
 H21 H 0.86337 0.13969 0.49966
 H22 H 0.63851 0.36356 0.49951
 C23 C 0.18322 0.82323 0.59371
 C24 C 0.16648 0.83932 0.49977
 C25 C 0.18305 0.82255 0.40602
 C26 C 0.21629 0.78578 0.40567
 C27 C 0.23298 0.76755 0.50049
 C28 C 0.21652 0.78665 0.59477
 C29 C 0.23377 0.76857 0.68744
 C30 C 0.26699 0.73365 0.68800
 C31 C 0.28345 0.71276 0.59596
 C32 C 0.26656 0.73081 0.50099
 C33 C 0.23307 0.76638 0.31330
 C34 C 0.26625 0.73132 0.31363
 C35 C 0.28333 0.71267 0.40637
 C36 C 0.31733 0.67741 0.40697
 C37 C 0.33478 0.66225 0.50063
 C38 C 0.31759 0.67693 0.59550
 H39 H 0.22191 0.78125 0.76119
 H40 H 0.28003 0.72491 0.76221
 H41 H 0.22072 0.77786 0.23938
 H42 H 0.27867 0.71981 0.23980
 H43 H 0.14190 0.86881 0.49960
 H44 H 0.35990 0.63371 0.49880
 C45 C 0.18022 0.18114 -0.40695
 C46 C 0.16202 0.16834 -0.50148
 C47 C 0.18055 0.18048 -0.59603
 C48 C 0.21595 0.21382 -0.59649
 C49 C 0.23309 0.23154 -0.50191
 C50 C 0.21550 0.21474 -0.40693
 C51 C 0.23241 0.23478 -0.31492
 C52 C 0.26678 0.26747 -0.31530
 C53 C 0.28472 0.28455 -0.40782
 C54 C 0.26775 0.26671 -0.50227
 C55 C 0.23357 0.23244 -0.68877
 C56 C 0.26798 0.26501 -0.68896
 C57 C 0.28505 0.28447 -0.59697
 C58 C 0.31973 0.31937 -0.59653
 C59 C 0.33728 0.33314 -0.50175
 C60 C 0.31933 0.31876 -0.40822
 H61 H 0.21885 0.22713 -0.24079
 H62 H 0.27903 0.27911 -0.24141
 H63 H 0.22071 0.22356 -0.76308
 H64 H 0.28102 0.27376 -0.76323
 H65 H 0.13583 0.14172 -0.50142
 H66 H 0.36285 0.36095 -0.49987
 C67 C -0.31991 0.68154 -0.40662
 C68 C -0.33813 0.66842 -0.50125
 C69 C -0.31955 0.68048 -0.59600
 C70 C -0.28408 0.71383 -0.59633
 C71 C -0.26695 0.73173 -0.50180
 C72 C -0.28463 0.71520 -0.40686
 C73 C -0.26780 0.73560 -0.31497
 C74 C -0.23332 0.76805 -0.31536
 C75 C -0.21525 0.78494 -0.40783
 C76 C -0.23223 0.76693 -0.50220
 C77 C -0.26636 0.73234 -0.68855
 C78 C -0.23186 0.76466 -0.68876
 C79 C -0.21487 0.78446 -0.59689
 C80 C -0.18020 0.81943 -0.59677
 C81 C -0.16257 0.83343 -0.50192
 C82 C -0.18055 0.81912 -0.40811
 H83 H -0.28149 0.72844 -0.24085
 H84 H -0.22115 0.77967 -0.24141
 H85 H -0.27917 0.72360 -0.76294
 H86 H -0.21869 0.77294 -0.76306
 H87 H -0.36441 0.64192 -0.50106
 H88 H -0.13691 0.86110 -0.50030
 O89 O 0.05756 0.90539 -0.18711
 O90 O 0.10141 0.95512 -0.08713
 C91 C 0.09379 0.91958 -0.15857
 O92 O -0.05720 1.09845 -0.18389
 O93 O -0.10135 1.04767 -0.08608
 C94 C -0.09347 1.08430 -0.15588
 O95 O 0.05630 1.09532 -0.19139
 O96 O 0.10082 1.04849 -0.08831
 C97 C 0.09269 1.08285 -0.16169
 O98 O -0.05635 0.89998 -0.17929
 O99 O -0.10091 0.95238 -0.08586
 C100 C -0.09278 0.91458 -0.15317
 Zr101 Zr 0.00043 0.93118 -0.12991
 O102 O -0.00102 0.93565 -0.29230
 O103 O 0.00366 0.84437 -0.13186
 Zr104 Zr -0.00031 1.06990 -0.13109
 O105 O -0.00344 1.07089 -0.29370
 O106 O 0.00324 1.15674 -0.12785
 O107 O 0.03623 1.00078 -0.15044
 O108 O -0.03510 1.00011 -0.14911
 O109 O -0.05635 0.90152 0.18194
 O110 O -0.10098 0.95231 0.08560
 C111 C -0.09276 0.91534 0.15451
 O112 O 0.05652 1.09606 0.18832
 O113 O 0.10096 1.04839 0.08651
 C114 C 0.09289 1.08307 0.15916
 O115 O -0.05697 1.09937 0.18236
 O116 O -0.10116 1.04723 0.08781
 C117 C -0.09325 1.08472 0.15585
 O118 O 0.05758 0.90589 0.18768
 O119 O 0.10147 0.95544 0.08720
 C120 C 0.09382 0.91989 0.15882
 Zr121 Zr 0.00038 0.93145 0.13021
 O122 O -0.00300 0.92878 0.29284
 O123 O 0.00201 0.84485 0.11991
 Zr124 Zr -0.00024 1.07038 0.12943
 O125 O -0.00423 1.07246 0.29196
 O126 O 0.00347 1.15719 0.12431
 Zr127 Zr 0.06015 1.00133 -0.00031
 Zr128 Zr -0.06005 1.00035 -0.00015
 O129 O -0.03492 1.00061 0.14862
 O130 O 0.03616 1.00124 0.15005
 O131 O -0.03569 0.92041 0.00041
 O132 O 0.03473 1.08060 -0.00102
 O133 O 0.03555 0.92160 0.00022
 O134 O -0.03650 1.08077 -0.00080
 H135 H -0.05319 0.99968 -0.20985
 H136 H 0.05285 1.11303 -0.00136
 H137 H -0.05282 1.00035 0.20981
 H138 H 0.05376 0.88927 0.00027
 H139 H -0.02100 1.17042 -0.09128
 H140 H -0.02079 1.17078 0.08777
 H141 H 0.01658 1.04715 0.31915
 H142 H 0.01797 0.95393 0.31969
 H143 H 0.00224 0.83113 0.19173
 H144 H -0.01402 0.83092 -0.07575
 H145 H -0.00076 0.89718 -0.31715
 H146 H 0.01319 1.03984 -0.31864
 O147 O 0.44383 0.40500 0.18863
 O148 O 0.39931 0.45276 0.08708
 C149 C 0.40744 0.41798 0.15968
 O150 O 0.55634 0.59909 0.18211
 O151 O 0.60095 0.54901 0.08460
 C152 C 0.59276 0.58551 0.15432
 O153 O 0.44274 0.59447 0.18741
 O154 O 0.39881 0.54601 0.08563
 C155 C 0.40649 0.58091 0.15813
 O156 O 0.55757 0.40155 0.18024
 O157 O 0.60161 0.45384 0.08477
 C158 C 0.59384 0.41637 0.15315
 Zr159 Zr 0.50060 0.43087 0.12921
 O160 O 0.50373 0.42784 0.29182
 O161 O 0.49976 0.34432 0.11687
 Zr162 Zr 0.49979 0.57003 0.12783
 O163 O 0.49963 0.57800 0.28991
 O164 O 0.49878 0.65631 0.11026
 O165 O 0.46425 0.50012 0.14908
 O166 O 0.53519 0.50077 0.14736
 O167 O 0.55737 0.40154 -0.18269
 O168 O 0.60155 0.45335 -0.08712
 C169 C 0.59366 0.41607 -0.15558
 O170 O 0.44255 0.59416 -0.19032
 O171 O 0.39863 0.54560 -0.08819
 C172 C 0.40631 0.58055 -0.16082
 O173 O 0.55629 0.59954 -0.18413
 O174 O 0.60101 0.54887 -0.08792
 C175 C 0.59273 0.58583 -0.15684
 O176 O 0.44370 0.40387 -0.18846
 O177 O 0.39931 0.45224 -0.08754
 C178 C 0.40733 0.41714 -0.15957
 Zr179 Zr 0.50049 0.43032 -0.13034
 O180 O 0.50363 0.42549 -0.29273
 O181 O 0.49997 0.34389 -0.11487
 Zr182 Zr 0.49970 0.56926 -0.13222
 O183 O 0.50368 0.56969 -0.29486
 O184 O 0.49568 0.65605 -0.13067
 Zr185 Zr 0.44004 0.49958 -0.00101
 Zr186 Zr 0.56022 0.50083 -0.00144
 O187 O 0.53511 0.50012 -0.15018
 O188 O 0.46399 0.49937 -0.15143
 O189 O 0.53682 0.42038 -0.00065
 O190 O 0.46453 0.57938 -0.00199
 O191 O 0.46529 0.42031 -0.00027
 O192 O 0.53588 0.58079 -0.00228
 H193 H 0.55332 0.50062 0.20798
 H194 H 0.44612 0.61151 -0.00217
 H195 H 0.55308 0.50019 -0.21124
 H196 H 0.44721 0.38783 0.00019
 H197 H 0.49761 0.67159 0.18083
 H198 H 0.51719 0.66973 -0.08438
 H199 H 0.48162 0.54621 -0.32141
 H200 H 0.48456 0.45306 -0.32040
 H201 H 0.49946 0.32910 -0.18586
 H202 H 0.49932 0.33016 0.18838
 H203 H 0.48378 0.45460 0.31849
 H204 H 0.50866 0.54247 0.31859
 N205 N 0.33733 0.38820 0.16938
 N206 N 0.31317 0.36043 0.23193
 C207 C 0.33541 0.34507 0.31427
 C208 C 0.37425 0.36528 0.29997
 N209 N 0.37409 0.39141 0.20894
 H210 H 0.40020 0.36131 0.35022
 N211 N -0.16299 0.88611 0.16640
 N212 N -0.18713 0.85958 0.23090
 C213 C -0.16467 0.84462 0.31319
 C214 C -0.12571 0.86386 0.29685
 N215 N -0.12598 0.88876 0.20445
 H216 H -0.09965 0.86017 0.34680
 N217 N 0.66340 0.61236 0.16868
 N218 N 0.68761 0.63842 0.23342
 C219 C 0.66491 0.65501 0.31422
 C220 C 0.62564 0.63714 0.29669
 N221 N 0.62605 0.61149 0.20502
 H222 H 0.59930 0.64226 0.34533
 N223 N 0.16341 1.11053 0.17118
 N224 N 0.18762 1.13776 0.23419
 C225 C 0.16501 1.15468 0.31485
 C226 C 0.12588 1.13595 0.29910
 N227 N 0.12627 1.10916 0.20884
 H228 H 0.09961 1.14127 0.34789
 N229 N 0.66402 0.38716 -0.16713
 N230 N 0.68822 0.36071 -0.23154
 C231 C 0.66583 0.34598 -0.31405
 C232 C 0.62688 0.36524 -0.29794
 N233 N 0.62706 0.38996 -0.20549
 H234 H 0.60086 0.36159 -0.34803
 N235 N 0.16559 0.90075 -0.17765
 N236 N 0.19044 0.87448 -0.24060
 C237 C 0.16724 0.84992 -0.31246
 C238 C 0.12731 0.86270 -0.29235
 N239 N 0.12765 0.89421 -0.20764
 H240 H 0.10085 0.85190 -0.33702
 N241 N 0.33615 0.61043 -0.16861
 N242 N 0.31170 0.63766 -0.23121
 C243 C 0.33353 0.65191 -0.31505
 C244 C 0.37238 0.63171 -0.30155
 N245 N 0.37267 0.60660 -0.20958
 H246 H 0.39807 0.63507 -0.35293
 N247 N -0.16422 1.11077 -0.17011
 N248 N -0.18842 1.13688 -0.23494
 C249 C -0.16567 1.15346 -0.31574
 C250 C -0.12646 1.13559 -0.29823
 N251 N -0.12689 1.10992 -0.20655
 H252 H -0.10011 1.14082 -0.34681
 N253 N 0.66302 0.61483 -0.16960
 N254 N 0.68709 0.64132 -0.23434
 C255 C 0.66450 0.65661 -0.31623
 C256 C 0.62548 0.63764 -0.29923
 N257 N 0.62590 0.61249 -0.20701
 H258 H 0.59930 0.64155 -0.34868
 N259 N 0.16291 1.11224 -0.17259
 N260 N 0.18699 1.13991 -0.23555
 C261 C 0.16456 1.15560 -0.31738
 C262 C 0.12566 1.13571 -0.30222
 N263 N 0.12601 1.10938 -0.21135
 H264 H 0.09954 1.13997 -0.35180
 N265 N 0.33566 0.39814 -0.18096
 N266 N 0.31125 0.37135 -0.24414
 C267 C 0.33488 0.34600 -0.31426
 C268 C 0.37469 0.35892 -0.29280
 N269 N 0.37379 0.39126 -0.20913
 H270 H 0.40147 0.34769 -0.33596
 N271 N -0.16448 0.89648 -0.17751
 N272 N -0.18877 0.87119 -0.24315
 C273 C -0.16504 0.84605 -0.31337
 C274 C -0.12518 0.85754 -0.28913
 N275 N -0.12622 0.88870 -0.20363
 H276 H -0.09828 0.84628 -0.33171
 N277 N 0.33471 0.59992 0.17792
 N278 N 0.30998 0.62630 0.24104
 C279 C 0.33328 0.65081 0.31280
 C280 C 0.37318 0.63786 0.29233
 N281 N 0.37270 0.60628 0.20766
 H282 H 0.39973 0.64861 0.33669
 N283 N -0.16368 1.11347 0.16836
 N284 N -0.18775 1.14009 0.23286
 C285 C -0.16520 1.15523 0.31484
 C286 C -0.12622 1.13607 0.29814
 N287 N -0.12661 1.11090 0.20607
 H288 H -0.10005 1.13999 0.34763
 N289 N 0.66568 0.39876 0.17715
 N290 N 0.69002 0.37328 0.24253
 C291 C 0.66630 0.34800 0.31271
 C292 C 0.62647 0.35953 0.28882
 N293 N 0.62745 0.39093 0.20357
 H294 H 0.59960 0.34805 0.33139
 N295 N 0.16551 0.89931 0.17601
 N296 N 0.19025 0.87250 0.23853
 C297 C 0.16703 0.84885 0.31166
 C298 C 0.12721 0.86274 0.29263
 N299 N 0.12762 0.89404 0.20746
 H300 H 0.10079 0.85288 0.33837
   
