data_POSCAR
  _audit_creation_date              2014-09-24
  _audit_creation_method            'ToBaCCo'
  _symmetry_space_group_name_H-M    'P1'
  _symmetry_Int_Tables_number       1
  _symmetry_cell_setting            triclinic
  loop_
  _symmetry_equiv_pos_as_xyz
 x,y,z
_cell_length_a 59.7480
_cell_length_b 59.3434
_cell_length_c 9.1285
_cell_angle_alpha 89.645300
_cell_angle_beta 90.048400
_cell_angle_gamma 90.058800
loop_
  _atom_site_label
  _atom_site_type_symbol
  _atom_site_fract_x
  _atom_site_fract_y
  _atom_site_fract_z
O1 O 0.23336 0.27092 0.10698
 O2 O 0.27663 0.22722 0.15165
 O3 O 0.23356 0.22702 0.10537
 O4 O 0.27633 0.27118 0.15367
 O5 O 0.27048 0.27072 0.39274
 O6 O 0.22771 0.22665 0.34443
 O7 O 0.27074 0.22675 0.39064
 O8 O 0.22752 0.27050 0.34610
 Cu9 Cu 0.25560 0.24912 0.10586
 Cu10 Cu 0.24854 0.24858 0.39200
 C11 C 0.22313 0.27809 0.21909
 C12 C 0.28096 0.21958 0.27857
 C13 C 0.22335 0.21943 0.21714
 C14 C 0.28056 0.27847 0.28101
 O15 O 0.72901 0.22907 0.38893
 O16 O 0.77262 0.27261 0.35033
 O17 O 0.72949 0.27295 0.39422
 O18 O 0.77212 0.22881 0.34826
 O19 O 0.76661 0.22937 0.10872
 O20 O 0.72392 0.27354 0.15475
 O21 O 0.76707 0.27321 0.11086
 O22 O 0.72346 0.22965 0.14939
 Cu23 Cu 0.75134 0.25080 0.39402
 Cu24 Cu 0.74469 0.25154 0.10717
 C25 C 0.71891 0.22198 0.27589
 C26 C 0.77728 0.28018 0.22373
 C27 C 0.71948 0.28068 0.28214
 C28 C 0.77661 0.22167 0.22101
 O29 O 0.77133 0.77091 0.88994
 O30 O 0.72842 0.72697 0.84399
 O31 O 0.77150 0.72697 0.88694
 O32 O 0.72834 0.77076 0.84469
 O33 O 0.73397 0.77116 0.60532
 O34 O 0.77720 0.72734 0.64770
 O35 O 0.73406 0.72729 0.60463
 O36 O 0.77702 0.77131 0.65068
 Cu37 Cu 0.74935 0.74885 0.89007
 Cu38 Cu 0.75616 0.74932 0.60350
 C39 C 0.78139 0.77857 0.77794
 C40 C 0.72394 0.71975 0.71687
 C41 C 0.78162 0.71973 0.77460
 C42 C 0.72384 0.77833 0.71784
 O43 O 0.26589 0.72833 0.60907
 O44 O 0.22311 0.77249 0.65150
 O45 O 0.26620 0.77216 0.60843
 O46 O 0.22272 0.72857 0.64987
 O47 O 0.22812 0.72826 0.88949
 O48 O 0.27167 0.77185 0.84800
 O49 O 0.22857 0.77222 0.89109
 O50 O 0.27130 0.72804 0.84873
 Cu51 Cu 0.24390 0.75042 0.60612
 Cu52 Cu 0.25044 0.75006 0.89307
 C53 C 0.27588 0.72079 0.72186
 C54 C 0.21864 0.77983 0.77833
 C55 C 0.27633 0.77931 0.72112
 C56 C 0.21809 0.72103 0.77655
 C57 C 1.01101 0.07265 0.07365
 C58 C 0.98810 0.07284 0.06522
 C59 C 0.98141 0.05075 0.04219
 N60 N 0.99952 0.03716 0.03632
 C61 C 1.01765 0.05045 0.05536
 C62 C 0.95889 0.04360 0.03166
 C63 C 0.95189 0.02095 0.01393
 C64 C 0.92986 0.01373 0.02642
 C65 C 0.92987 -0.00914 0.00498
 C66 C 0.95190 -0.01542 -0.02034
 N67 N 0.96516 0.00310 -0.01691
 C68 C 0.95888 -0.03786 -0.04596
 C69 C 0.98139 -0.04512 -0.05120
 C70 C 0.98804 -0.06725 -0.07257
 C71 C 1.01095 -0.06740 -0.06640
 C72 C 1.01763 -0.04537 -0.04122
 N73 N 0.99952 -0.03184 -0.03210
 C74 C 1.04015 -0.03819 -0.03195
 C75 C 1.04712 -0.01558 -0.01220
 C76 C 1.06909 -0.00829 -0.02641
 C77 C 1.06909 0.01453 -0.00296
 C78 C 1.04712 0.02072 0.02506
 N79 N 1.03389 0.00217 0.02193
 C80 C 1.04016 0.04315 0.05138
 H81 H 1.02158 0.08725 0.08992
 H82 H 0.97757 0.08759 0.07555
 H83 H 1.01722 0.00140 0.05269
 H84 H 0.91527 0.02384 0.05053
 H85 H 0.91528 -0.01996 0.00935
 H86 H 0.97749 -0.08182 -0.09049
 H87 H 1.02148 -0.08207 -0.08025
 H88 H 1.08364 0.02539 -0.00876
 H89 H 0.98192 0.00378 -0.04513
 H90 H 1.08364 -0.01830 -0.05349
 C91 C 0.48763 0.57250 0.56390
 C92 C 0.51056 0.57236 0.57164
 C93 C 0.51723 0.55019 0.55225
 N94 N 0.49911 0.53688 0.53367
 C95 C 0.48097 0.55040 0.54078
 C96 C 0.53974 0.54292 0.54770
 C97 C 0.54675 0.52046 0.52245
 C98 C 0.56882 0.51417 0.49904
 C99 C 0.56885 0.49132 0.47658
 C100 C 0.54679 0.48412 0.48631
 N101 N 0.53349 0.50196 0.51690
 C102 C 0.53982 0.46152 0.46655
 C103 C 0.51732 0.45429 0.45660
 C104 C 0.51067 0.43218 0.43396
 C105 C 0.48775 0.43232 0.42600
 C106 C 0.48108 0.45450 0.44475
 N107 N 0.49918 0.46782 0.46324
 C108 C 0.45855 0.46175 0.44943
 C109 C 0.45152 0.48421 0.47453
 C110 C 0.42945 0.49049 0.49819
 C111 C 0.42942 0.51335 0.52055
 C112 C 0.45148 0.52056 0.51083
 N113 N 0.46477 0.50272 0.48013
 C114 C 0.45847 0.54316 0.53095
 H115 H 0.47709 0.58723 0.57408
 H116 H 0.52110 0.58695 0.58871
 H117 H 0.48160 0.50341 0.45401
 H118 H 0.58344 0.52495 0.49665
 H119 H 0.58351 0.48121 0.45428
 H120 H 0.52121 0.41744 0.42458
 H121 H 0.47723 0.41771 0.40894
 H122 H 0.41477 0.52345 0.54332
 H123 H 0.51666 0.50128 0.54286
 H124 H 0.41484 0.47970 0.50076
 C125 C 0.01186 0.56827 -0.05901
 C126 C -0.01103 0.56807 -0.06938
 C127 C -0.01771 0.54581 -0.05285
 N128 N 0.00038 0.53247 -0.03343
 C129 C 0.01850 0.54611 -0.03713
 C130 C -0.04024 0.53848 -0.05099
 C131 C -0.04727 0.51594 -0.02707
 C132 C -0.06935 0.50956 -0.00371
 C133 C -0.06938 0.48666 0.01891
 C134 C -0.04731 0.47952 0.00890
 N135 N -0.03402 0.49744 -0.02183
 C136 C -0.04033 0.45687 0.02840
 C137 C -0.01782 0.44971 0.03942
 C138 C -0.01118 0.42755 0.06132
 C139 C 0.01172 0.42775 0.07173
 C140 C 0.01840 0.45001 0.05506
 N141 N 0.00030 0.46334 0.03563
 C142 C 0.04093 0.45733 0.05260
 C143 C 0.04794 0.47989 0.02879
 C144 C 0.06999 0.48626 0.00440
 C145 C 0.07001 0.50916 -0.01806
 C146 C 0.04797 0.51630 -0.00700
 N147 N 0.03468 0.49840 0.02430
 C148 C 0.04101 0.53895 -0.02624
 H149 H 0.02240 0.58308 -0.06709
 H150 H -0.02154 0.58271 -0.08614
 H151 H 0.01787 0.49901 0.05138
 H152 H -0.08396 0.52032 -0.00099
 H153 H -0.08402 0.47648 0.04176
 H154 H -0.02172 0.41275 0.06952
 H155 H 0.02224 0.41311 0.08847
 H156 H 0.08464 0.51933 -0.04149
 H157 H -0.01718 0.49683 -0.04803
 H158 H 0.08459 0.47549 0.00044
 C159 C 0.51240 1.06775 0.43625
 C160 C 0.48947 1.06762 0.43143
 C161 C 0.48280 1.04540 0.45095
 N162 N 0.50095 1.03206 0.46675
 C163 C 0.51907 1.04559 0.45809
 C164 C 0.46027 1.03806 0.45526
 C165 C 0.45315 1.01550 0.47742
 C166 C 0.43094 1.00892 0.49109
 C167 C 0.43089 0.98601 0.51385
 C168 C 0.45307 0.97905 0.51339
 N169 N 0.46644 0.99712 0.48933
 C170 C 0.46011 0.95646 0.53535
 C171 C 0.48264 0.94929 0.54650
 C172 C 0.48928 0.92722 0.57238
 C173 C 0.51222 0.92740 0.57955
 C174 C 0.51891 0.94955 0.55694
 N175 N 0.50079 0.96279 0.53685
 C176 C 0.54143 0.95687 0.55116
 C177 C 0.54849 0.97933 0.52423
 C178 C 0.57055 0.98564 0.49943
 C179 C 0.57059 1.00850 0.47488
 C180 C 0.54856 1.01570 0.48530
 N181 N 0.53529 0.99785 0.51819
 C182 C 0.54159 1.03833 0.46476
 H183 H 0.52294 1.08249 0.42384
 H184 H 0.47892 1.08225 0.41508
 H185 H 0.51855 0.99851 0.54608
 H186 H 0.41624 1.01954 0.48656
 H187 H 0.41612 0.97569 0.52940
 H188 H 0.47873 0.91251 0.58515
 H189 H 0.52274 0.91284 0.59905
 H190 H 0.58524 1.01864 0.45127
 H191 H 0.48353 0.99680 0.47528
 H192 H 0.58516 0.97487 0.49761
 C193 C 1.20736 0.20339 0.20056
 C194 C 1.19298 0.18926 0.18754
 C195 C 1.17564 0.17257 0.17313
 C196 C 1.15410 0.17904 0.12994
 C197 C 1.13719 0.16290 0.11605
 C198 C 1.14158 0.14002 0.14576
 C199 C 1.16329 0.13370 0.18948
 C200 C 1.18020 0.14987 0.20312
 C201 C 1.12360 0.12287 0.13073
 C202 C 1.12825 0.10162 0.07024
 C203 C 1.11128 0.08556 0.05518
 C204 C 1.08946 0.09049 0.10023
 C205 C 1.08467 0.11150 0.16140
 C206 C 1.10161 0.12761 0.17641
 C207 C 1.07200 0.07400 0.08323
 C208 C 1.05748 0.06007 0.06865
 H209 H 1.15038 0.19656 0.10681
 H210 H 1.12077 0.16826 0.07971
 H211 H 1.16716 0.11628 0.21455
 H212 H 1.19678 0.14469 0.23761
 H213 H 1.14494 0.09752 0.03288
 H214 H 1.11516 0.06932 0.00797
 H215 H 1.06787 0.11542 0.19780
 H216 H 1.09757 0.14365 0.22564
 C217 C 0.70698 0.70285 0.70021
 C218 C 0.69255 0.68879 0.68781
 C219 C 0.67512 0.67220 0.67378
 C220 C 0.65385 0.67867 0.62529
 C221 C 0.63686 0.66263 0.61125
 C222 C 0.64094 0.63985 0.64540
 C223 C 0.66235 0.63354 0.69523
 C224 C 0.67933 0.64962 0.70905
 C225 C 0.62297 0.62275 0.62836
 C226 C 0.62784 0.60132 0.57145
 C227 C 0.61091 0.58526 0.55503
 C228 C 0.58889 0.59041 0.59462
 C229 C 0.58386 0.61167 0.65122
 C230 C 0.60077 0.62774 0.66811
 C231 C 0.57151 0.57385 0.57787
 C232 C 0.55702 0.55988 0.56409
 H233 H 0.65042 0.69612 0.59773
 H234 H 0.62063 0.66800 0.57153
 H235 H 0.66590 0.61622 0.72511
 H236 H 0.69572 0.64445 0.74740
 H237 H 0.64468 0.59708 0.53771
 H238 H 0.61497 0.56884 0.51120
 H239 H 0.56687 0.61579 0.68270
 H240 H 0.59653 0.64398 0.71385
 C241 C -0.20638 0.29592 0.20843
 C242 C -0.19181 0.30983 0.19437
 C243 C -0.17439 0.32640 0.17711
 C244 C -0.17885 0.34913 0.20409
 C245 C -0.16205 0.36529 0.18506
 C246 C -0.14052 0.35892 0.13845
 C247 C -0.13619 0.33599 0.11217
 C248 C -0.15302 0.31986 0.13159
 C249 C -0.12271 0.37612 0.11727
 C250 C -0.10051 0.37163 0.16012
 C251 C -0.08381 0.38791 0.14096
 C252 C -0.08905 0.40886 0.07865
 C253 C -0.11105 0.41347 0.03532
 C254 C -0.12777 0.39722 0.05432
 C255 C -0.07192 0.42570 0.06024
 C256 C -0.05760 0.43985 0.04543
 H257 H -0.19533 0.35437 0.23977
 H258 H -0.16583 0.38274 0.20838
 H259 H -0.11990 0.33057 0.07443
 H260 H -0.14939 0.30230 0.11020
 H261 H -0.09611 0.35565 0.21026
 H262 H -0.06684 0.38420 0.17533
 H263 H -0.11527 0.42962 -0.01336
 H264 H -0.14460 0.40106 0.01793
 C265 C 0.29346 0.79605 0.70459
 C266 C 0.30795 0.81004 0.69056
 C267 C 0.32534 0.82663 0.67378
 C268 C 0.34670 0.82011 0.62804
 C269 C 0.36364 0.83618 0.61166
 C270 C 0.35940 0.85905 0.64040
 C271 C 0.33786 0.86543 0.68677
 C272 C 0.32096 0.84931 0.70320
 C273 C 0.37731 0.87620 0.62134
 C274 C 0.37240 0.89744 0.55991
 C275 C 0.38924 0.91360 0.54240
 C276 C 0.41118 0.90875 0.58581
 C277 C 0.41627 0.88766 0.64638
 C278 C 0.39947 0.87146 0.66394
 C279 C 0.42844 0.92543 0.56795
 C280 C 0.44285 0.93948 0.55296
 H281 H 0.35027 0.80259 0.60484
 H282 H 0.37997 0.83076 0.57478
 H283 H 0.33417 0.88282 0.71228
 H284 H 0.30450 0.85452 0.73937
 H285 H 0.35561 0.90146 0.52360
 H286 H 0.38515 0.92986 0.49488
 H287 H 0.43322 0.88375 0.68037
 H288 H 0.40376 0.85533 0.71242
 C289 C -0.20254 0.70353 -0.20911
 C290 C -0.18849 0.68914 -0.19377
 C291 C -0.17172 0.67196 -0.17498
 C292 C -0.15014 0.67780 -0.12902
 C293 C -0.13383 0.66115 -0.11050
 C294 C -0.13887 0.63839 -0.13824
 C295 C -0.16067 0.63269 -0.18346
 C296 C -0.17696 0.64938 -0.20178
 C297 C -0.12142 0.62073 -0.12175
 C298 C -0.12678 0.59947 -0.06213
 C299 C -0.11041 0.58276 -0.04875
 C300 C -0.08845 0.58709 -0.09402
 C301 C -0.08292 0.60817 -0.15337
 C302 C -0.09927 0.62488 -0.16728
 C303 C -0.07160 0.56991 -0.07943
 C304 C -0.05743 0.55557 -0.06680
 H305 H -0.14594 0.69522 -0.10723
 H306 H -0.11734 0.66604 -0.07295
 H307 H -0.16505 0.61538 -0.20694
 H308 H -0.19362 0.64467 -0.23737
 H309 H -0.14357 0.59584 -0.02415
 H310 H -0.11486 0.56649 -0.00275
 H311 H -0.06598 0.61165 -0.18949
 H312 H -0.09467 0.64094 -0.21561
 C313 C 0.29771 1.20246 0.29530
 C314 C 0.31179 1.18805 0.30813
 C315 C 0.32864 1.17088 0.32220
 C316 C 0.35039 1.17666 0.36477
 C317 C 0.36679 1.16002 0.37864
 C318 C 0.36166 1.13732 0.34990
 C319 C 0.33975 1.13168 0.30676
 C320 C 0.32336 1.14836 0.29303
 C321 C 0.37902 1.11961 0.36703
 C322 C 0.37360 1.09855 0.42947
 C323 C 0.39004 1.08204 0.44795
 C324 C 0.41206 1.08632 0.40411
 C325 C 0.41762 1.10713 0.34108
 C326 C 0.40122 1.12368 0.32254
 C327 C 0.42893 1.06932 0.42301
 C328 C 0.44311 1.05509 0.43809
 H329 H 0.35465 1.19403 0.38792
 H330 H 0.38340 1.16486 0.41409
 H331 H 0.33533 1.11441 0.28224
 H332 H 0.30659 1.14371 0.25966
 H333 H 0.35674 1.09498 0.46621
 H334 H 0.38559 1.06596 0.49675
 H335 H 0.43463 1.11055 0.30609
 H336 H 0.40586 1.13958 0.27221
 C337 C 1.20199 -0.20296 -0.20558
 C338 C 1.18798 -0.18851 -0.19252
 C339 C 1.17125 -0.17126 -0.17670
 C340 C 1.15012 -0.17389 -0.24065
 C341 C 1.13376 -0.15727 -0.22317
 C342 C 1.13837 -0.13777 -0.14143
 C343 C 1.15970 -0.13529 -0.07789
 C344 C 1.17601 -0.15191 -0.09563
 C345 C 1.12104 -0.12008 -0.12228
 C346 C 1.12689 -0.09711 -0.12804
 C347 C 1.11062 -0.08046 -0.10923
 C348 C 1.08830 -0.08652 -0.08471
 C349 C 1.08228 -0.10931 -0.07909
 C350 C 1.09852 -0.12599 -0.09799
 C351 C 1.07154 -0.06939 -0.06607
 C352 C 1.05737 -0.05514 -0.05063
 H353 H 1.14628 -0.18877 -0.30414
 H354 H 1.11762 -0.15956 -0.27496
 H355 H 1.16366 -0.12065 -0.01258
 H356 H 1.19231 -0.14972 -0.04558
 H357 H 1.14400 -0.09201 -0.14893
 H358 H 1.11545 -0.06287 -0.11412
 H359 H 1.06505 -0.11417 -0.05966
 H360 H 1.09351 -0.14351 -0.09150
 C361 C 0.70275 0.29777 0.29967
 C362 C 0.68866 0.31210 0.31433
 C363 C 0.67184 0.32921 0.33196
 C364 C 0.67529 0.35083 0.27428
 C365 C 0.65899 0.36749 0.29147
 C366 C 0.63896 0.36270 0.36650
 C367 C 0.63566 0.34089 0.42419
 C368 C 0.65201 0.32428 0.40706
 C369 C 0.62153 0.38032 0.38386
 C370 C 0.59870 0.37483 0.37031
 C371 C 0.58229 0.39138 0.38640
 C372 C 0.58842 0.41363 0.41620
 C373 C 0.61106 0.41931 0.43014
 C374 C 0.62752 0.40277 0.41405
 C375 C 0.57144 0.43056 0.43366
 C376 C 0.55711 0.44463 0.44858
 H377 H 0.69056 0.35479 0.21546
 H378 H 0.66191 0.38402 0.24434
 H379 H 0.62056 0.33675 0.48414
 H380 H 0.64918 0.30759 0.45230
 H381 H 0.59354 0.35779 0.34514
 H382 H 0.56481 0.38682 0.37541
 H383 H 0.61597 0.43648 0.45400
 H384 H 0.64491 0.40750 0.42694
 C385 C 0.79799 -0.20418 -0.20459
 C386 C 0.81191 -0.18965 -0.19040
 C387 C 0.82852 -0.17228 -0.17388
 C388 C 0.82357 -0.15004 -0.21406
 C389 C 0.83969 -0.13314 -0.19768
 C390 C 0.86102 -0.13829 -0.14113
 C391 C 0.86580 -0.16071 -0.10094
 C392 C 0.84966 -0.17758 -0.11754
 C393 C 0.87821 -0.12038 -0.12466
 C394 C 0.90078 -0.12473 -0.15824
 C395 C 0.91695 -0.10787 -0.14274
 C396 C 0.91081 -0.08646 -0.09382
 C397 C 0.88842 -0.08192 -0.06070
 C398 C 0.87221 -0.09876 -0.07594
 C399 C 0.92752 -0.06921 -0.07696
 C400 C 0.94166 -0.05489 -0.06274
 H401 H 0.80729 -0.14577 -0.25850
 H402 H 0.83556 -0.11611 -0.23094
 H403 H 0.88191 -0.16516 -0.05469
 H404 H 0.85365 -0.19474 -0.08607
 H405 H 0.90589 -0.14107 -0.19837
 H406 H 0.93425 -0.11154 -0.16906
 H407 H 0.88350 -0.06540 -0.02248
 H408 H 0.85504 -0.09494 -0.04778
 C409 C 0.29702 0.29585 0.29880
 C410 C 0.31087 0.31047 0.31268
 C411 C 0.32750 0.32783 0.32897
 C412 C 0.32286 0.34997 0.28478
 C413 C 0.33906 0.36680 0.30109
 C414 C 0.36015 0.36168 0.36166
 C415 C 0.36463 0.33936 0.40536
 C416 C 0.34840 0.32258 0.38917
 C417 C 0.37748 0.37948 0.37757
 C418 C 0.40009 0.37478 0.34735
 C419 C 0.41640 0.39151 0.36221
 C420 C 0.41035 0.41315 0.40741
 C421 C 0.38792 0.41804 0.43716
 C422 C 0.37157 0.40134 0.42227
 C423 C 0.42716 0.43034 0.42280
 C424 C 0.44135 0.44467 0.43454
 H425 H 0.30676 0.35421 0.23744
 H426 H 0.33522 0.38374 0.26423
 H427 H 0.38060 0.33491 0.45356
 H428 H 0.35214 0.30550 0.42400
 H429 H 0.40515 0.35822 0.31091
 H430 H 0.43371 0.38759 0.33805
 H431 H 0.38308 0.43475 0.47219
 H432 H 0.35437 0.40542 0.44819
 C433 C 0.20218 0.70484 -0.20865
 C434 C 0.18814 0.69034 -0.19601
 C435 C 0.17154 0.67290 -0.18008
 C436 C 0.17645 0.65355 -0.09789
 C437 C 0.16030 0.63670 -0.07979
 C438 C 0.13899 0.63897 -0.14387
 C439 C 0.13425 0.65846 -0.22696
 C440 C 0.15045 0.67529 -0.24509
 C441 C 0.12175 0.62116 -0.12339
 C442 C 0.09923 0.62695 -0.09901
 C443 C 0.08306 0.61020 -0.07795
 C444 C 0.08915 0.58745 -0.08072
 C445 C 0.11148 0.58149 -0.10520
 C446 C 0.12769 0.59822 -0.12625
 C447 C 0.07242 0.57026 -0.06041
 C448 C 0.05825 0.55597 -0.04429
 H449 H 0.19273 0.65155 -0.04708
 H450 H 0.16439 0.62206 -0.01379
 H451 H 0.11812 0.66056 -0.27940
 H452 H 0.14651 0.69014 -0.30973
 H453 H 0.09416 0.64444 -0.09391
 H454 H 0.06580 0.61499 -0.05940
 H455 H 0.11635 0.56392 -0.10876
 H456 H 0.14482 0.59319 -0.14639
 C457 C 0.70209 1.20490 0.29190
 C458 C 0.68808 1.19045 0.30664
 C459 C 0.67150 1.17307 0.32504
 C460 C 0.64984 1.17857 0.37062
 C461 C 0.63374 1.16165 0.38845
 C462 C 0.63913 1.13898 0.36094
 C463 C 0.66101 1.13364 0.31608
 C464 C 0.67706 1.15058 0.29831
 C465 C 0.62199 1.12101 0.37828
 C466 C 0.62774 1.09991 0.43882
 C467 C 0.61162 1.08297 0.45397
 C468 C 0.58956 1.08688 0.40920
 C469 C 0.58365 1.10779 0.34910
 C470 C 0.59973 1.12475 0.33379
 C471 C 0.57290 1.06960 0.42731
 C472 C 0.55878 1.05529 0.44383
 H473 H 0.64538 1.19592 0.39242
 H474 H 0.61717 1.16628 0.42540
 H475 H 0.66563 1.11640 0.29267
 H476 H 0.69379 1.14614 0.26311
 H477 H 0.64463 1.09661 0.47628
 H478 H 0.61634 1.06686 0.50112
 H479 H 0.56660 1.11098 0.31418
 H480 H 0.59480 1.14072 0.28568
 C481 C 0.20624 0.29506 0.20210
 C482 C 0.19197 0.30928 0.18843
 C483 C 0.17484 0.32616 0.17263
 C484 C 0.15400 0.32305 0.23970
 C485 C 0.13728 0.33935 0.22414
 C486 C 0.14121 0.35906 0.14148
 C487 C 0.16223 0.36203 0.07450
 C488 C 0.17893 0.34568 0.09016
 C489 C 0.12345 0.37643 0.12575
 C490 C 0.12882 0.39951 0.13088
 C491 C 0.11209 0.41583 0.11558
 C492 C 0.08978 0.40933 0.09569
 C493 C 0.08425 0.38643 0.09078
 C494 C 0.10096 0.37008 0.10541
 C495 C 0.07258 0.42616 0.08060
 C496 C 0.05820 0.44029 0.06804
 H497 H 0.15069 0.30804 0.30435
 H498 H 0.12139 0.33669 0.27850
 H499 H 0.16568 0.37686 0.00851
 H500 H 0.19500 0.34824 0.03771
 H501 H 0.14591 0.40495 0.14877
 H502 H 0.11655 0.43351 0.11993
 H503 H 0.06704 0.38121 0.07535
 H504 H 0.09632 0.35248 0.09891
 C505 C 0.70690 0.79523 0.70150
 C506 C 0.69256 0.80937 0.68856
 C507 C 0.67535 0.82614 0.67340
 C508 C 0.67952 0.84844 0.71422
 C509 C 0.66281 0.86475 0.69848
 C510 C 0.64165 0.85892 0.64218
 C511 C 0.63762 0.83642 0.60203
 C512 C 0.65437 0.82016 0.61759
 C513 C 0.62387 0.87621 0.62572
 C514 C 0.60145 0.87097 0.65913
 C515 C 0.58474 0.88728 0.64411
 C516 C 0.59018 0.90899 0.59539
 C517 C 0.61239 0.91438 0.56169
 C518 C 0.62914 0.89811 0.57675
 C519 C 0.57301 0.92577 0.58029
 C520 C 0.55865 0.93987 0.56734
 H521 H 0.69567 0.85322 0.75836
 H522 H 0.66635 0.88186 0.73184
 H523 H 0.62162 0.83145 0.55659
 H524 H 0.65097 0.80293 0.58580
 H525 H 0.59689 0.85436 0.69890
 H526 H 0.56759 0.88298 0.67102
 H527 H 0.61675 0.93115 0.52371
 H528 H 0.64617 0.90260 0.54850
 C529 C 0.79347 0.20470 0.20401
 C530 C 0.80780 0.19059 0.19057
 C531 C 0.82507 0.17391 0.17454
 C532 C 0.82052 0.15118 0.20359
 C533 C 0.83726 0.13498 0.18578
 C534 C 0.85879 0.14131 0.13829
 C535 C 0.86324 0.16425 0.11095
 C536 C 0.84650 0.18041 0.12917
 C537 C 0.87653 0.12410 0.11697
 C538 C 0.89878 0.12858 0.15843
 C539 C 0.91546 0.11237 0.13871
 C540 C 0.91013 0.09147 0.07773
 C541 C 0.88810 0.08688 0.03522
 C542 C 0.87139 0.10309 0.05451
 C543 C 0.92725 0.07466 0.06057
 C544 C 0.94162 0.06057 0.04720
 H545 H 0.80403 0.14599 0.24000
 H546 H 0.83342 0.11753 0.21048
 H547 H 0.87956 0.16966 0.07309
 H548 H 0.85023 0.19797 0.10714
 H549 H 0.90325 0.14448 0.20807
 H550 H 0.93247 0.11608 0.17186
 H551 H 0.88382 0.07078 -0.01271
 H552 H 0.85452 0.09927 0.01902
 C553 C 0.29280 0.70387 0.70569
 C554 C 0.30714 0.68976 0.69237
 C555 C 0.32437 0.67304 0.67605
 C556 C 0.31968 0.65031 0.70384
 C557 C 0.33640 0.63406 0.68693
 C558 C 0.35804 0.64035 0.64149
 C559 C 0.36259 0.66328 0.61441
 C560 C 0.34585 0.67948 0.63148
 C561 C 0.37581 0.62311 0.62258
 C562 C 0.39799 0.62761 0.66565
 C563 C 0.41471 0.61144 0.64691
 C564 C 0.40953 0.59058 0.58500
 C565 C 0.38754 0.58591 0.54166
 C566 C 0.37078 0.60207 0.56012
 C567 C 0.42676 0.57396 0.56597
 C568 C 0.44118 0.56002 0.54994
 H569 H 0.30312 0.64515 0.73900
 H570 H 0.33248 0.61663 0.71155
 H571 H 0.37901 0.66866 0.57846
 H572 H 0.34966 0.69703 0.60959
 H573 H 0.40237 0.64355 0.71514
 H574 H 0.43168 0.61519 0.68094
 H575 H 0.38338 0.56983 0.49309
 H576 H 0.35397 0.59823 0.52337
   
