data_POSCAR
  _audit_creation_date              2014-09-24
  _audit_creation_method            'ToBaCCo'
  _symmetry_space_group_name_H-M    'P1'
  _symmetry_Int_Tables_number       1
  _symmetry_cell_setting            triclinic
  loop_
  _symmetry_equiv_pos_as_xyz
 x,y,z
_cell_length_a 32.3905
_cell_length_b 31.8399
_cell_length_c 62.2886
_cell_angle_alpha 89.848800
_cell_angle_beta 89.061000
_cell_angle_gamma 119.953400
loop_
  _atom_site_label
  _atom_site_type_symbol
  _atom_site_fract_x
  _atom_site_fract_y
  _atom_site_fract_z
C1 C -0.01112 0.03534 0.53645
 H2 H 0.00520 0.01532 0.54235
 C3 C -0.01320 0.06968 0.54962
 H4 H 0.00132 0.07526 0.56557
 C5 C -0.04805 0.05384 0.50837
 H6 H -0.06106 0.04804 0.49217
 C7 C -0.05123 0.08826 0.52106
 H8 H -0.06661 0.10866 0.51437
 N9 N -0.02733 0.02887 0.51602
 C10 C -0.03815 -0.10166 0.51170
 H11 H -0.06938 -0.11209 0.50227
 C12 C -0.03534 -0.13706 0.52367
 H13 H -0.06425 -0.17420 0.52298
 C14 C 0.03629 -0.04092 0.52453
 H15 H 0.06357 -0.00315 0.52523
 C16 C 0.04087 -0.07553 0.53660
 H17 H 0.07193 -0.06411 0.54639
 Zn18 Zn -0.01397 -0.00934 0.49677
 N19 N -0.00291 -0.05446 0.51237
 C20 C 0.08214 0.03675 0.47911
 N21 N 0.03881 0.03399 0.47914
 C22 C 0.03086 0.06397 0.46649
 C23 C 0.06751 0.09980 0.45391
 C24 C 0.12014 0.07248 0.46681
 C25 C -0.11141 -0.05878 0.48420
 C26 C -0.14924 -0.09178 0.47174
 C27 C -0.09214 -0.09577 0.44757
 C28 C -0.05565 -0.06281 0.46047
 N29 N -0.06578 -0.04555 0.47850
 H30 H 0.08762 0.01183 0.48876
 H31 H -0.00410 0.06029 0.46627
 H32 H 0.06017 0.12363 0.44432
 H33 H 0.15462 0.07483 0.46732
 H34 H -0.11864 -0.04544 0.49890
 H35 H -0.18523 -0.10250 0.47702
 H36 H -0.08250 -0.10943 0.43359
 H37 H -0.01906 -0.05225 0.45653
 C38 C 0.00433 -0.12425 0.53645
 C39 C -0.03244 0.09751 0.54178
 C40 C -0.14013 -0.11196 0.45333
 C41 C 0.11317 0.10509 0.45423
 C42 C 1.07315 0.03062 0.13416
 H43 H 1.07022 0.06302 0.13411
 C44 C 1.10830 0.02898 0.12163
 H45 H 1.13204 0.06035 0.11189
 C46 C 1.04641 -0.04867 0.14769
 H47 H 1.02291 -0.07829 0.15829
 C48 C 1.08143 -0.05179 0.13546
 H49 H 1.08409 -0.08429 0.13657
 N50 N 1.04313 -0.00774 0.14684
 C51 C 0.93273 0.03007 0.15825
 H52 H 0.93520 0.03543 0.17543
 C53 C 0.89794 0.03403 0.14692
 H54 H 0.87410 0.04300 0.15551
 C55 C 0.95903 0.00886 0.12652
 H56 H 0.98177 -0.00259 0.11876
 C57 C 0.92446 0.01191 0.11461
 H58 H 0.92177 0.00373 0.09766
 Zn59 Zn 1.00190 0.00320 0.16472
 N60 N 0.96225 0.01749 0.14797
 C61 C 1.04577 0.09948 0.18194
 N62 N 1.04227 0.05510 0.18249
 C63 C 1.07112 0.04620 0.19497
 C64 C 1.10510 0.08252 0.20768
 C65 C 1.07966 0.13717 0.19437
 C66 C 0.93140 -0.09391 0.17166
 C67 C 0.89552 -0.13320 0.18325
 C68 C 0.92049 -0.08482 0.21530
 C69 C 0.95614 -0.04668 0.20315
 N70 N 0.96065 -0.05169 0.18170
 H71 H 1.02323 0.10607 0.17150
 H72 H 1.06803 0.01076 0.19479
 H73 H 1.12785 0.07443 0.21731
 H74 H 1.08244 0.17246 0.19356
 H75 H 0.93494 -0.09648 0.15448
 H76 H 0.87189 -0.16610 0.17485
 H77 H 0.91680 -0.07961 0.23225
 H78 H 0.97869 -0.01237 0.21073
 C79 C 0.89284 0.02389 0.12487
 C80 C 1.11326 -0.01236 0.12235
 C81 C 0.88909 -0.12854 0.20530
 C82 C 1.11012 0.12894 0.20736
 C83 C 0.05223 0.97387 0.86955
 H84 H 0.01730 0.94173 0.86994
 C85 C 0.08834 0.97570 0.88204
 H86 H 0.08059 0.94475 0.89211
 C87 C 0.10455 1.05223 0.85517
 H88 H 0.11089 1.08136 0.84424
 C89 C 0.14199 1.05551 0.86735
 H90 H 0.17681 1.08767 0.86587
 N91 N 0.06081 1.01167 0.85645
 C92 C -0.08614 0.97339 0.84507
 H93 H -0.08822 0.96671 0.82800
 C94 C -0.12545 0.96982 0.85633
 H95 H -0.15777 0.95961 0.84766
 C96 C -0.04027 0.99734 0.87656
 H97 H -0.00652 1.00961 0.88423
 C98 C -0.07839 0.99494 0.88838
 H99 H -0.07339 1.00451 0.90519
 Zn100 Zn 0.00988 1.00040 0.83855
 N101 N -0.04463 0.98704 0.85528
 C102 C -0.04037 0.90370 0.82166
 N103 N -0.00000 0.94787 0.82111
 C104 C 0.03826 0.95636 0.80864
 C105 C 0.03689 0.91994 0.79585
 C106 C -0.04322 0.86593 0.80913
 C107 C 0.03617 1.09760 0.83080
 C108 C 0.04013 1.13667 0.81884
 C109 C 0.01837 1.08680 0.78723
 C110 C 0.01531 1.04890 0.79975
 N111 N 0.02381 1.05477 0.82115
 H112 H -0.06995 0.89739 0.83210
 H113 H 0.07016 0.99163 0.80882
 H114 H 0.06802 0.92776 0.78616
 H115 H -0.07543 0.83086 0.80986
 H116 H 0.04147 1.10087 0.84796
 H117 H 0.04899 1.17012 0.82692
 H118 H 0.01035 1.08093 0.77033
 H119 H 0.00400 1.01415 0.79248
 C120 C -0.12167 0.98179 0.87824
 C121 C 0.13419 1.01661 0.88085
 C122 C 0.03021 1.13118 0.79682
 C123 C -0.00410 0.87383 0.79604
 C124 C 0.50624 0.00156 0.01214
 C125 C 0.50789 0.00347 -0.00979
 C126 C 0.46907 0.00351 -0.02214
 C127 C 0.54774 0.00487 -0.02259
 C128 C 0.54395 0.00033 0.02496
 C129 C 0.46652 0.00133 0.02450
 C130 C 0.42189 -0.03466 -0.01996
 C131 C 0.38536 -0.03293 -0.03082
 C132 C 0.39538 0.00680 -0.04426
 C133 C 0.44296 0.04426 -0.04688
 C134 C 0.47944 0.04250 -0.03598
 C135 C 0.53748 -0.02898 -0.03894
 C136 C 0.57423 -0.02997 -0.05054
 C137 C 0.62209 0.00276 -0.04594
 C138 C 0.63239 0.03762 -0.02998
 C139 C 0.59553 0.03912 -0.01863
 C140 C 0.56631 0.03472 0.04107
 C141 C 0.60338 0.03587 0.05265
 C142 C 0.61899 0.00269 0.04833
 C143 C 0.59561 -0.03271 0.03261
 C144 C 0.55802 -0.03426 0.02122
 C145 C 0.45679 0.03940 0.02235
 C146 C 0.41788 0.03755 0.03326
 C147 C 0.38819 -0.00223 0.04671
 C148 C 0.39893 -0.03962 0.04926
 C149 C 0.43785 -0.03772 0.03832
 H150 H 0.41333 -0.06547 -0.00962
 H151 H 0.34923 -0.06260 -0.02855
 H152 H 0.45203 0.07525 -0.05718
 H153 H 0.51572 0.07212 -0.03795
 H154 H 0.50090 -0.05547 -0.04241
 H155 H 0.56510 -0.05719 -0.06275
 H156 H 0.60430 0.06647 -0.00651
 H157 H 0.55577 0.06148 0.04434
 H158 H 0.62051 0.06351 0.06467
 H159 H 0.60637 -0.05919 0.02910
 H160 H 0.54044 -0.06191 0.00925
 H161 H 0.47904 0.07025 0.01201
 H162 H 0.41092 0.06716 0.03103
 H163 H 0.37705 -0.07063 0.05957
 H164 H 0.44504 -0.06727 0.04027
 H165 H 0.66892 0.06377 -0.02628
 C166 C 0.00648 0.49881 0.67848
 C167 C 0.00729 0.49926 0.65659
 C168 C 0.00646 0.45957 0.64377
 C169 C 0.00702 0.53906 0.64432
 C170 C 0.00569 0.53827 0.69079
 C171 C 0.00651 0.45949 0.69137
 C172 C 0.04013 0.44461 0.64664
 C173 C 0.03655 0.40506 0.63530
 C174 C -0.00019 0.38042 0.62057
 C175 C -0.03263 0.39681 0.61716
 C176 C -0.02933 0.43590 0.62864
 C177 C 0.04698 0.57076 0.63176
 C178 C 0.04773 0.60926 0.62059
 C179 C 0.00808 0.61609 0.62146
 C180 C -0.03227 0.58365 0.63380
 C181 C -0.03270 0.54557 0.64520
 C182 C -0.03275 0.52733 0.70481
 C183 C -0.03461 0.56409 0.71621
 C184 C 0.00223 0.61253 0.71392
 C185 C 0.04116 0.62321 0.70009
 C186 C 0.04294 0.58638 0.68870
 C187 C -0.02769 0.41054 0.68846
 C188 C -0.02559 0.37421 0.70024
 C189 C 0.01002 0.38628 0.71553
 C190 C 0.04307 0.43541 0.71893
 C191 C 0.04135 0.47157 0.70695
 H192 H 0.06867 0.46304 0.65790
 H193 H 0.06246 0.39373 0.63813
 H194 H -0.06127 0.37884 0.60591
 H195 H -0.05553 0.44698 0.62607
 H196 H 0.07786 0.56605 0.63090
 H197 H 0.07917 0.63338 0.61111
 H198 H -0.06394 0.52116 0.65474
 H199 H -0.06167 0.49031 0.70670
 H200 H -0.06498 0.55450 0.72678
 H201 H 0.07028 0.66003 0.69802
 H202 H 0.07331 0.59536 0.67822
 H203 H -0.05567 0.40046 0.67693
 H204 H -0.05194 0.33673 0.69744
 H205 H 0.07089 0.44596 0.73059
 H206 H 0.06781 0.50912 0.70958
 H207 H -0.06335 0.58796 0.63482
 C208 C 0.49091 0.50359 0.34255
 C209 C 0.49081 0.50430 0.32065
 C210 C 0.53009 0.54356 0.30764
 C211 C 0.45161 0.46495 0.30848
 C212 C 0.45151 0.46382 0.35524
 C213 C 0.53013 0.54224 0.35500
 C214 C 0.54490 0.59263 0.31105
 C215 C 0.58377 0.62890 0.29943
 C216 C 0.60775 0.61672 0.28381
 C217 C 0.59152 0.56753 0.27982
 C218 C 0.55316 0.53138 0.29164
 C219 C 0.42468 0.47607 0.29461
 C220 C 0.38671 0.43933 0.28354
 C221 C 0.37519 0.39072 0.28602
 C222 C 0.40303 0.37988 0.29959
 C223 C 0.44101 0.41668 0.31064
 C224 C 0.46140 0.43526 0.36905
 C225 C 0.42450 0.39598 0.38021
 C226 C 0.37694 0.38474 0.37789
 C227 C 0.36735 0.41440 0.36450
 C228 C 0.40432 0.45369 0.35334
 C229 C 0.57771 0.55411 0.35158
 C230 C 0.61428 0.59247 0.36263
 C231 C 0.60386 0.61913 0.37758
 C232 C 0.55597 0.60590 0.38150
 C233 C 0.51952 0.56780 0.37034
 H234 H 0.52682 0.60284 0.32292
 H235 H 0.59500 0.66646 0.30268
 H236 H 0.60910 0.55689 0.26789
 H237 H 0.54209 0.49376 0.28862
 H238 H 0.43260 0.51320 0.29264
 H239 H 0.36625 0.44905 0.27314
 H240 H 0.46197 0.40753 0.32100
 H241 H 0.49767 0.44274 0.37079
 H242 H 0.43325 0.37416 0.39047
 H243 H 0.33123 0.40706 0.36244
 H244 H 0.39611 0.47584 0.34301
 H245 H 0.58654 0.53414 0.34012
 H246 H 0.65071 0.60133 0.35939
 H247 H 0.54660 0.62544 0.39295
 H248 H 0.48299 0.55894 0.37332
 H249 H 0.39542 0.34293 0.30178
 C250 C -0.02191 0.21506 0.57663
 N251 N -0.04915 0.19925 0.55891
 N252 N -0.05317 0.16142 0.54806
 C253 C -0.03036 0.13770 0.55458
 N254 N -0.00347 0.15335 0.57246
 N255 N 0.00070 0.19130 0.58327
 C256 C -0.01630 0.25777 0.58814
 N257 N 0.01451 0.27668 0.60458
 N258 N 0.01992 0.31580 0.61480
 C259 C -0.00531 0.33749 0.60899
 N260 N -0.03613 0.31841 0.59254
 N261 N -0.04142 0.27944 0.58228
 C262 C 0.77090 0.76205 0.23916
 N263 N 0.78428 0.75285 0.21977
 N264 N 0.82215 0.78736 0.20912
 C265 C 0.84832 0.83231 0.21751
 N266 N 0.83503 0.84126 0.23700
 N267 N 0.79704 0.80685 0.24760
 C268 C 0.72852 0.72443 0.25068
 N269 N 0.71167 0.73535 0.26865
 N270 N 0.67308 0.70127 0.27906
 C271 C 0.64993 0.65492 0.27195
 N272 N 0.66692 0.64411 0.25397
 N273 N 0.70535 0.67822 0.24349
 C274 C 0.24582 0.01584 -0.08612
 N275 N 0.25460 0.05376 -0.09918
 N276 N 0.21916 0.05447 -0.10945
 C277 C 0.17359 0.01732 -0.10705
 N278 N 0.16500 -0.02036 -0.09386
 N279 N 0.20035 -0.02109 -0.08359
 C280 C 0.28473 0.01400 -0.07517
 N281 N 0.27533 -0.02446 -0.06238
 N282 N 0.31045 -0.02673 -0.05262
 C283 C 0.35641 0.00931 -0.05528
 N284 N 0.36571 0.04782 -0.06809
 N285 N 0.33058 0.05012 -0.07787
 C286 C 0.00821 0.76817 0.57398
 N287 N -0.03359 0.76201 0.56662
 N288 N -0.03455 0.79629 0.55475
 C289 C 0.00618 0.83828 0.54985
 N290 N 0.04807 0.84465 0.55736
 N291 N 0.04909 0.81012 0.56914
 C292 C 0.00871 0.72953 0.58670
 N293 N 0.05025 0.73081 0.59104
 N294 N 0.05011 0.69483 0.60211
 C295 C 0.00848 0.65640 0.60937
 N296 N -0.03296 0.65544 0.60511
 N297 N -0.03285 0.69119 0.59393
 C298 C 0.21992 0.24075 0.24204
 N299 N 0.21094 0.19447 0.24383
 N300 N 0.17575 0.15908 0.23301
 C301 C 0.14800 0.16842 0.21996
 N302 N 0.15684 0.21478 0.21829
 N303 N 0.19214 0.25028 0.22912
 C304 C 0.25968 0.27972 0.25361
 N305 N 0.27013 0.32646 0.25148
 N306 N 0.30676 0.36168 0.26177
 C307 C 0.33439 0.35158 0.27456
 N308 N 0.32373 0.30473 0.27667
 N309 N 0.28715 0.26952 0.26639
 C310 C 0.76941 -0.01173 -0.08941
 N311 N 0.76347 -0.02857 -0.10977
 N312 N 0.79843 -0.03113 -0.12014
 C313 C 0.84067 -0.01733 -0.11053
 N314 N 0.84619 -0.00100 -0.09003
 N315 N 0.81136 0.00188 -0.07970
 C316 C 0.73131 -0.00776 -0.07818
 N317 N 0.73974 0.01621 -0.05932
 N318 N 0.70521 0.02001 -0.04920
 C319 C 0.66087 -0.00020 -0.05748
 N320 N 0.65254 -0.02421 -0.07634
 N321 N 0.68713 -0.02774 -0.08654
 C322 C 0.22744 -0.01147 0.08898
 N323 N 0.21869 0.02573 0.08677
 N324 N 0.18208 0.02498 0.09715
 C325 C 0.15264 -0.01301 0.11015
 N326 N 0.16126 -0.05044 0.11224
 N327 N 0.19796 -0.04970 0.10185
 C328 C 0.26872 -0.00961 0.07792
 N329 N 0.27879 -0.04590 0.08038
 N330 N 0.31672 -0.04355 0.07051
 C331 C 0.34610 -0.00482 0.05782
 N332 N 0.33584 0.03138 0.05538
 N333 N 0.29796 0.02906 0.06525
 C334 C 0.75206 0.77895 0.42038
 N335 N 0.74231 0.79979 0.43722
 N336 N 0.77747 0.83594 0.44781
 C337 C 0.82390 0.85288 0.44200
 N338 N 0.83326 0.83215 0.42491
 N339 N 0.79817 0.79598 0.41435
 C340 C 0.71357 0.73789 0.40917
 N341 N 0.72381 0.71512 0.39333
 N342 N 0.68903 0.67735 0.38336
 C343 C 0.64261 0.66083 0.38884
 N344 N 0.63248 0.68377 0.40469
 N345 N 0.66726 0.72148 0.41469
 C346 C 0.02412 0.24060 0.76174
 N347 N 0.04571 0.25034 0.78103
 N348 N 0.04817 0.21579 0.79209
 C349 C 0.02945 0.17026 0.78419
 N350 N 0.00819 0.16076 0.76479
 N351 N 0.00551 0.19521 0.75380
 C352 C 0.02040 0.27832 0.74977
 N353 N -0.00651 0.26708 0.73194
 N354 N -0.01013 0.30126 0.72116
 C355 C 0.01316 0.34803 0.72773
 N356 N 0.04010 0.35915 0.74557
 N357 N 0.04353 0.32496 0.75643
 C358 C 0.77781 0.01718 0.09183
 N359 N 0.80386 -0.00138 0.08312
 N360 N 0.84086 0.00153 0.09345
 C361 C 0.85322 0.02299 0.11294
 N362 N 0.82714 0.04167 0.12160
 N363 N 0.79027 0.03899 0.11121
 C364 C 0.73652 0.01322 0.08060
 N365 N 0.71361 0.03625 0.08811
 N366 N 0.67619 0.03270 0.07791
 C367 C 0.65998 0.00571 0.05989
 N368 N 0.68285 -0.01750 0.05247
 N369 N 0.72044 -0.01375 0.06261
 C370 C 0.22598 0.22144 0.42065
 N371 N 0.18060 0.21234 0.41884
 N372 N 0.14490 0.17505 0.42929
 C373 C 0.15303 0.14522 0.44195
 N374 N 0.19851 0.15418 0.44364
 N375 N 0.23432 0.19158 0.43319
 C376 C 0.26525 0.26345 0.40949
 N377 N 0.31105 0.27392 0.41160
 N378 N 0.34650 0.31246 0.40162
 C379 C 0.33758 0.34208 0.38917
 N380 N 0.29168 0.33143 0.38710
 N381 N 0.25625 0.29294 0.39708
 C382 C -0.00452 0.76226 0.76007
 N383 N -0.04217 0.75293 0.77316
 N384 N -0.04241 0.78834 0.78445
 C385 C -0.00499 0.83441 0.78308
 N386 N 0.03246 0.84354 0.76988
 N387 N 0.03270 0.80823 0.75860
 C388 C -0.00335 0.72338 0.74794
 N389 N 0.03456 0.73341 0.73493
 N390 N 0.03625 0.69826 0.72411
 C391 C 0.00013 0.65164 0.72589
 N392 N -0.03785 0.64171 0.73892
 N393 N -0.03957 0.67688 0.74974
   
