data_POSCAR
  _audit_creation_date              2014-09-24
  _audit_creation_method            'ToBaCCo'
  _symmetry_space_group_name_H-M    'P1'
  _symmetry_Int_Tables_number       1
  _symmetry_cell_setting            triclinic
  loop_
  _symmetry_equiv_pos_as_xyz
 x,y,z
_cell_length_a 22.3247
_cell_length_b 22.3360
_cell_length_c 22.3552
_cell_angle_alpha 90.088900
_cell_angle_beta 90.053800
_cell_angle_gamma 89.911100
loop_
  _atom_site_label
  _atom_site_type_symbol
  _atom_site_fract_x
  _atom_site_fract_y
  _atom_site_fract_z
C1 C -0.00026 0.50044 0.24964
 C2 C 0.00021 0.49970 0.75035
 C3 C 0.24941 0.00033 0.50024
 C4 C 0.75055 -0.00045 0.49983
 C5 C 0.49963 0.25078 0.99961
 C6 C 0.50039 0.74923 1.00034
 B7 B 0.99994 1.06103 0.03770
 B8 B 0.99987 1.06096 -0.03754
 B9 B 1.06093 1.03769 0.00006
 B10 B 1.03772 1.00008 0.06094
 B11 B 0.96238 1.00010 0.06094
 B12 B 0.93894 1.03771 0.00006
 B13 B 1.00003 0.93906 -0.03764
 B14 B 1.00012 0.93913 0.03759
 B15 B 0.93905 0.96241 0.00001
 B16 B 0.96225 1.00000 -0.06088
 B17 B 1.03760 0.99999 -0.06089
 B18 B 1.06104 0.96238 -0.00001
 B19 B 0.56094 0.49983 0.46234
 B20 B 0.56103 0.49986 0.53757
 B21 B 0.53766 0.56085 0.50004
 B22 B 0.49993 0.53758 0.43911
 B23 B 0.49993 0.46228 0.43901
 B24 B 0.53767 0.43890 0.49988
 B25 B 0.43905 0.50004 0.53760
 B26 B 0.43896 0.50003 0.46235
 B27 B 0.46232 0.43903 0.49988
 B28 B 0.50007 0.46230 0.56082
 B29 B 0.50007 0.53761 0.56092
 B30 B 0.46231 0.56097 0.50006
 C31 C 0.99969 1.33820 0.16159
 C32 C 0.98482 1.33578 0.09462
 C33 C 0.98480 1.27912 0.07179
 C34 C 0.99971 1.23064 0.11823
 C35 C 0.95410 1.23983 0.16863
 C36 C 0.95409 1.29638 0.19145
 C37 C 1.06017 1.30593 0.16776
 C38 C 1.06017 1.24936 0.14492
 C39 C 0.99969 1.39844 0.18761
 C40 C 0.99971 1.44606 0.21304
 C41 C 0.99976 1.17000 0.09351
 C42 C 0.99984 1.12101 0.07118
 H43 H 0.97510 1.37494 0.06758
 H44 H 0.97491 1.26972 0.02516
 H45 H 0.92434 1.20507 0.18486
 H46 H 0.92426 1.31009 0.22730
 H47 H 1.09956 1.32584 0.18816
 H48 H 1.09953 1.22074 0.14575
 C49 C 0.99989 0.66229 0.16131
 C50 C 1.03602 0.66797 0.10324
 C51 C 1.03615 0.72452 0.08034
 C52 C 1.00011 0.76965 0.11782
 C53 C 1.02675 0.76582 0.18088
 C54 C 1.02665 0.70938 0.20375
 C55 C 0.93714 0.68589 0.14586
 C56 C 0.93727 0.74238 0.12294
 C57 C 0.99975 0.60217 0.18744
 C58 C 0.99969 0.55467 0.21297
 C59 C 1.00020 0.83021 0.09313
 C60 C 1.00020 0.87918 0.07092
 H61 H 1.05921 0.63091 0.08191
 H62 H 1.05949 0.73595 0.03932
 H63 H 1.04419 0.80402 0.20541
 H64 H 1.04409 0.69921 0.24795
 H65 H 0.89627 0.66040 0.15214
 H66 H 0.89650 0.76534 0.10956
 C67 C 1.00016 1.33763 -0.16170
 C68 C 1.01211 1.28857 -0.20849
 C69 C 1.01203 1.23214 -0.18559
 C70 C 1.00003 1.23028 -0.11816
 C71 C 0.94049 1.26366 -0.10949
 C72 C 0.94055 1.32016 -0.13243
 C73 C 1.04773 1.32779 -0.11311
 C74 C 1.04768 1.27126 -0.09018
 C75 C 1.00019 1.39777 -0.18778
 C76 C 1.00019 1.44534 -0.21318
 C77 C 0.99993 1.16977 -0.09334
 C78 C 0.99985 1.12087 -0.07097
 H79 H 1.01998 1.29744 -0.25558
 H80 H 1.01980 1.19266 -0.21294
 H81 H 0.90179 1.24467 -0.08710
 H82 H 0.90192 1.34962 -0.12972
 H83 H 1.07851 1.36218 -0.09787
 H84 H 1.07843 1.25718 -0.05524
 C85 C 1.00001 0.66175 -0.16120
 C86 C 0.96636 0.70736 -0.20018
 C87 C 0.96637 0.76391 -0.17738
 C88 C 1.00001 0.76931 -0.11785
 C89 C 1.06298 0.74469 -0.13031
 C90 C 1.06299 0.68811 -0.15316
 C91 C 0.97070 0.66629 -0.09931
 C92 C 0.97068 0.72295 -0.07647
 C93 C 1.00005 0.60153 -0.18730
 C94 C 1.00011 0.55397 -0.21287
 C95 C 1.00002 0.82999 -0.09322
 C96 C 1.00004 0.87904 -0.07103
 H97 H 0.94435 0.69616 -0.24206
 H98 H 0.94448 0.80116 -0.19967
 H99 H 1.10395 0.76946 -0.12179
 H100 H 1.10397 0.66434 -0.16422
 H101 H 0.95181 0.62846 -0.07549
 H102 H 0.95169 0.73369 -0.03304
 C103 C 1.16121 1.00006 0.33813
 C104 C 1.19780 1.03750 0.29366
 C105 C 1.17506 1.03746 0.23714
 C106 C 1.11796 1.00002 0.23060
 C107 C 1.07454 1.02518 0.27771
 C108 C 1.09732 1.02518 0.33434
 C109 C 1.15763 0.93746 0.30988
 C110 C 1.13483 0.93744 0.25333
 C111 C 1.18724 1.00012 0.39835
 C112 C 1.21272 1.00021 0.44592
 C113 C 1.09337 1.00003 0.16994
 C114 C 1.07117 1.00006 0.12092
 H115 H 1.23807 1.06199 0.30559
 H116 H 1.19579 1.06181 0.20064
 H117 H 1.02986 1.04152 0.26746
 H118 H 1.07219 1.04142 0.37264
 H119 H 1.17159 0.89672 0.33240
 H120 H 1.12925 0.89670 0.22734
 C121 C 1.16111 1.00048 -0.33786
 C122 C 1.20460 0.97595 -0.29051
 C123 C 1.18179 0.97586 -0.23407
 C124 C 1.11773 1.00028 -0.23046
 C125 C 1.08147 0.96231 -0.27495
 C126 C 1.10432 0.96242 -0.33150
 C127 C 1.14342 1.06294 -0.31515
 C128 C 1.12055 1.06283 -0.25865
 C129 C 1.18721 1.00054 -0.39800
 C130 C 1.21273 1.00049 -0.44551
 C131 C 1.09310 1.00014 -0.16986
 C132 C 1.07093 1.00003 -0.12087
 H133 H 1.24947 0.96000 -0.30050
 H134 H 1.20704 0.95994 -0.19570
 H135 H 1.04123 0.93778 -0.26312
 H136 H 1.08372 0.93801 -0.36815
 H137 H 1.14820 1.10362 -0.34123
 H138 H 1.10571 1.10341 -0.23627
 C139 C 0.83878 0.99969 0.33788
 C140 C 0.89436 0.95983 0.33072
 C141 C 0.91721 0.95994 0.27418
 C142 C 0.88218 0.99991 0.23049
 C143 C 0.88130 1.06201 0.25998
 C144 C 0.85842 1.06191 0.31648
 C145 C 0.79457 0.97751 0.29004
 C146 C 0.81739 0.97764 0.23360
 C147 C 0.81269 0.99959 0.39803
 C148 C 0.78720 0.99955 0.44555
 C149 C 0.90683 1.00003 0.16990
 C150 C 0.92902 1.00010 0.12092
 H151 H 0.91417 0.93409 0.36685
 H152 H 0.95668 0.93427 0.26183
 H153 H 0.89743 1.10243 0.23847
 H154 H 0.85493 1.10225 0.34341
 H155 H 0.74922 0.96294 0.29970
 H156 H 0.79168 0.96327 0.19491
 C157 C 0.83882 0.99970 -0.33810
 C158 C 0.80083 1.03527 -0.29306
 C159 C 0.82356 1.03531 -0.23653
 C160 C 0.88205 0.99981 -0.23056
 C161 C 0.92448 1.02707 -0.27725
 C162 C 0.90172 1.02699 -0.33389
 C163 C 0.84478 0.93692 -0.31084
 C164 C 0.86755 0.93698 -0.25428
 C165 C 0.81279 0.99964 -0.39832
 C166 C 0.78728 0.99960 -0.44588
 C167 C 0.90663 0.99988 -0.16990
 C168 C 0.92882 0.99994 -0.12087
 H169 H 0.75965 1.05847 -0.30462
 H170 H 0.80191 1.05844 -0.19966
 H171 H 0.96852 1.04482 -0.26673
 H172 H 0.92621 1.04456 -0.37192
 H173 H 0.83235 0.89601 -0.33399
 H174 H 0.87461 0.89616 -0.22890
 C175 C 1.33762 1.16239 -0.00025
 C176 C 1.33348 1.10030 -0.02938
 C177 C 1.27696 1.07723 -0.02931
 C178 C 1.23030 1.11858 -0.00006
 C179 C 1.23528 1.17804 -0.03378
 C180 C 1.29170 1.20108 -0.03390
 C181 C 1.31132 1.15454 0.06269
 C182 C 1.25486 1.13146 0.06278
 C183 C 1.39775 1.18864 -0.00035
 C184 C 1.44529 1.21418 -0.00040
 C185 C 1.16978 1.09363 0.00004
 C186 C 1.12086 1.07119 0.00008
 H187 H 1.37149 1.07654 -0.04828
 H188 H 1.26650 1.03368 -0.04826
 H189 H 1.19783 1.20010 -0.05565
 H190 H 1.30261 1.24294 -0.05596
 H191 H 1.33500 1.16600 0.10357
 H192 H 1.23010 1.12319 0.10371
 C193 C 0.66177 1.16219 -0.00019
 C194 C 0.70752 1.20119 0.03329
 C195 C 0.76403 1.17820 0.03335
 C196 C 0.76927 1.11846 -0.00005
 C197 C 0.74471 1.13079 -0.06297
 C198 C 0.68816 1.15382 -0.06305
 C199 C 0.66612 1.10034 0.02928
 C200 C 0.72274 1.07732 0.02938
 C201 C 0.60156 1.18843 -0.00027
 C202 C 0.55398 1.21403 -0.00034
 C203 C 0.82989 1.09358 0.00001
 C204 C 0.87890 1.07119 0.00005
 H205 H 0.69642 1.24322 0.05514
 H206 H 0.80137 1.20046 0.05515
 H207 H 0.76953 1.12218 -0.10384
 H208 H 0.66447 1.16489 -0.10402
 H209 H 0.62820 1.07672 0.04828
 H210 H 0.73335 1.03394 0.04858
 C211 C 1.33816 0.83773 0.00006
 C212 C 1.33291 0.89742 0.03372
 C213 C 1.27632 0.92048 0.03367
 C214 C 1.23069 0.88154 -0.00007
 C215 C 1.23495 0.81966 0.02913
 C216 C 1.29145 0.79662 0.02922
 C217 C 1.31366 0.85041 -0.06286
 C218 C 1.25713 0.87350 -0.06292
 C219 C 1.39837 0.81147 0.00016
 C220 C 1.44598 0.78591 0.00025
 C221 C 1.17008 0.90647 -0.00011
 C222 C 1.12109 0.92889 -0.00008
 H223 H 1.37026 0.91967 0.05546
 H224 H 1.26515 0.96254 0.05544
 H225 H 1.19698 0.79602 0.04807
 H226 H 1.30188 0.75317 0.04832
 H227 H 1.33858 0.84213 -0.10374
 H228 H 1.23354 0.88497 -0.10384
 C229 C 0.66232 0.83776 0.00046
 C230 C 0.68693 0.85066 0.06331
 C231 C 0.74340 0.87376 0.06322
 C232 C 0.76964 0.88159 0.00029
 C233 C 0.72380 0.92042 -0.03333
 C234 C 0.66729 0.89734 -0.03322
 C235 C 0.70909 0.79657 -0.02881
 C236 C 0.76550 0.81961 -0.02888
 C237 C 0.60220 0.81149 0.00051
 C238 C 0.55468 0.78591 0.00047
 C239 C 0.83017 0.90652 0.00018
 C240 C 0.87910 0.92893 0.00007
 H241 H 0.66215 0.84253 0.10426
 H242 H 0.76705 0.88538 0.10407
 H243 H 0.73477 0.96240 -0.05515
 H244 H 0.62980 0.91952 -0.05487
 H245 H 0.69874 0.75305 -0.04789
 H246 H 0.80350 0.79592 -0.04792
 C247 C 0.83780 0.50032 0.33809
 C248 C 0.83251 0.53392 0.39777
 C249 C 0.77596 0.53377 0.42076
 C250 C 0.73041 0.49999 0.38175
 C251 C 0.75706 0.43713 0.37367
 C252 C 0.81356 0.43730 0.35066
 C253 C 0.79091 0.52949 0.29701
 C254 C 0.73446 0.52931 0.31997
 C255 C 0.89794 0.50048 0.31189
 C256 C 0.94546 0.50053 0.28632
 C257 C 0.66985 0.49983 0.40658
 C258 C 0.62089 0.49977 0.42891
 H259 H 0.86982 0.55572 0.42006
 H260 H 0.76477 0.55550 0.46280
 H261 H 0.73365 0.39613 0.38505
 H262 H 0.83862 0.39642 0.34236
 H263 H 0.80122 0.54869 0.25363
 H264 H 0.69638 0.54824 0.29634
 C265 C 0.16198 0.50038 0.33778
 C266 C 0.16383 0.51023 0.40568
 C267 C 0.22043 0.51020 0.42867
 C268 C 0.26946 0.50029 0.38144
 C269 C 0.25901 0.54925 0.33458
 C270 C 0.20250 0.54930 0.31160
 C271 C 0.19609 0.44155 0.32719
 C272 C 0.25261 0.44150 0.35018
 C273 C 0.10177 0.50042 0.31165
 C274 C 0.05415 0.50044 0.28621
 C275 C 0.33004 0.50022 0.40636
 C276 C 0.37898 0.50014 0.42883
 H277 H 0.12431 0.51672 0.43323
 H278 H 0.22943 0.51678 0.47594
 H279 H 0.29294 0.58113 0.32075
 H280 H 0.18798 0.58130 0.27805
 H281 H 0.17742 0.40324 0.30378
 H282 H 0.28242 0.40321 0.34647
 C283 C 0.83819 0.49993 0.66173
 C284 C 0.83367 0.46935 0.60039
 C285 C 0.77707 0.46934 0.57740
 C286 C 0.73071 0.49994 0.61807
 C287 C 0.75567 0.56292 0.62941
 C288 C 0.81221 0.56292 0.65242
 C289 C 0.79222 0.46754 0.70121
 C290 C 0.73572 0.46756 0.67825
 C291 C 0.89838 0.49989 0.68796
 C292 C 0.94593 0.49981 0.71357
 C293 C 0.67009 0.49990 0.59327
 C294 C 0.62107 0.49986 0.57097
 H295 H 0.87150 0.44965 0.57704
 H296 H 0.76637 0.44955 0.53429
 H297 H 0.73115 0.60389 0.62005
 H298 H 0.83619 0.60390 0.66279
 H299 H 0.80315 0.44638 0.74354
 H300 H 0.69823 0.44652 0.70085
 C301 C 0.16240 0.49976 0.66232
 C302 C 0.17352 0.44943 0.61685
 C303 C 0.23005 0.44950 0.59383
 C304 C 0.26976 0.49990 0.61860
 C305 C 0.26822 0.49226 0.68667
 C306 C 0.21178 0.49219 0.70967
 C307 C 0.17827 0.55775 0.62924
 C308 C 0.23478 0.55783 0.60622
 C309 C 0.10223 0.49971 0.68846
 C310 C 0.05462 0.49970 0.71387
 C311 C 0.33027 0.49999 0.59364
 C312 C 0.37915 0.50006 0.57114
 H313 H 0.13996 0.41683 0.60371
 H314 H 0.24495 0.41693 0.56091
 H315 H 0.30791 0.48737 0.71436
 H316 H 0.20312 0.48719 0.75719
 H317 H 0.14777 0.59531 0.62412
 H318 H 0.25273 0.59545 0.58134
 C319 C 0.50026 0.66112 0.16228
 C320 C 0.52448 0.70460 0.20981
 C321 C 0.52436 0.68183 0.26625
 C322 C 0.50007 0.61781 0.26967
 C323 C 0.53837 0.58154 0.22544
 C324 C 0.53846 0.60434 0.16889
 C325 C 0.43771 0.64349 0.18455
 C326 C 0.43762 0.62066 0.24104
 C327 C 0.50034 0.68715 0.10213
 C328 C 0.50038 0.71260 0.05460
 C329 C 0.49996 0.59318 0.33024
 C330 C 0.49991 0.57098 0.37919
 H331 H 0.54041 0.74942 0.19993
 H332 H 0.54013 0.70704 0.30473
 H333 H 0.56302 0.54135 0.23746
 H334 H 0.56313 0.58375 0.13243
 H335 H 0.39711 0.64829 0.15819
 H336 H 0.39696 0.60588 0.26313
 C337 C 0.50049 0.66113 0.83815
 C338 C 0.56233 0.66184 0.80815
 C339 C 0.56227 0.63907 0.75157
 C340 C 0.50036 0.61791 0.73059
 C341 C 0.45911 0.67228 0.73826
 C342 C 0.45916 0.69501 0.79481
 C343 C 0.47989 0.59571 0.83496
 C344 C 0.47980 0.57295 0.77831
 C345 C 0.50053 0.68711 0.89840
 C346 C 0.50049 0.71256 0.94600
 C347 C 0.50027 0.59329 0.66993
 C348 C 0.50018 0.57105 0.62092
 H349 H 0.60266 0.67861 0.82953
 H350 H 0.60250 0.63635 0.72443
 H351 H 0.43221 0.69124 0.70248
 H352 H 0.43220 0.73349 0.80749
 H353 H 0.46659 0.56960 0.87363
 H354 H 0.46629 0.52731 0.76843
 C355 C 0.49970 0.33899 0.16171
 C356 C 0.47311 0.40224 0.16583
 C357 C 0.47313 0.42498 0.22248
 C358 C 0.49978 0.38217 0.26928
 C359 C 0.56254 0.36679 0.24589
 C360 C 0.56250 0.34403 0.18931
 C361 C 0.46356 0.30153 0.20653
 C362 C 0.46361 0.32424 0.26307
 C363 C 0.49967 0.31300 0.10147
 C364 C 0.49965 0.28752 0.05390
 C365 C 0.49983 0.40672 0.32996
 C366 C 0.49987 0.42889 0.37899
 H367 H 0.45592 0.42699 0.12773
 H368 H 0.45585 0.46925 0.23295
 H369 H 0.60341 0.37332 0.27145
 H370 H 0.60336 0.33107 0.16634
 H371 H 0.43989 0.26072 0.19480
 H372 H 0.44010 0.30293 0.29981
 C373 C 0.49984 0.33878 0.83763
 C374 C 0.51625 0.29271 0.78919
 C375 C 0.51634 0.31547 0.73275
 C376 C 0.50004 0.38207 0.73024
 C377 C 0.54453 0.41308 0.77259
 C378 C 0.54442 0.39029 0.82914
 C379 C 0.43899 0.36427 0.81817
 C380 C 0.43910 0.38708 0.76166
 C381 C 0.49972 0.31278 0.89778
 C382 C 0.49965 0.28736 0.94532
 C383 C 0.50011 0.40670 0.66968
 C384 C 0.50013 0.42891 0.62073
 H385 H 0.52691 0.24619 0.79847
 H386 H 0.52700 0.28856 0.69368
 H387 H 0.57332 0.44990 0.75938
 H388 H 0.57310 0.40751 0.86440
 H389 H 0.39941 0.36461 0.84635
 H390 H 0.39961 0.40698 0.74137
 C391 C 0.66230 0.83749 0.49988
 C392 C 0.63448 0.81942 0.55995
 C393 C 0.61143 0.76295 0.56002
 C394 C 0.61854 0.73017 0.50001
 C395 C 0.68574 0.73208 0.48635
 C396 C 0.70875 0.78849 0.48627
 C397 C 0.61242 0.82819 0.45352
 C398 C 0.58938 0.77170 0.45359
 C399 C 0.68850 0.89762 0.49981
 C400 C 0.71398 0.94518 0.49979
 C401 C 0.59361 0.66966 0.50008
 C402 C 0.57118 0.62076 0.50009
 H403 H 0.63282 0.84847 0.59890
 H404 H 0.59001 0.74356 0.59903
 H405 H 0.71287 0.69265 0.47753
 H406 H 0.75570 0.79737 0.47733
 H407 H 0.59642 0.86292 0.42355
 H408 H 0.55358 0.75799 0.42366
 C409 C 0.66189 0.16165 0.49991
 C410 C 0.64413 0.18421 0.56234
 C411 C 0.62111 0.24076 0.56232
 C412 C 0.61821 0.26914 0.49989
 C413 C 0.58209 0.22470 0.46173
 C414 C 0.60509 0.16810 0.46176
 C415 C 0.70526 0.20911 0.47564
 C416 C 0.68229 0.26560 0.47565
 C417 C 0.68813 0.10144 0.49991
 C418 C 0.71374 0.05387 0.49988
 C419 C 0.59340 0.32979 0.49986
 C420 C 0.57110 0.37883 0.49984
 H421 H 0.64900 0.15802 0.60293
 H422 H 0.60626 0.26306 0.60288
 H423 H 0.54183 0.23660 0.43713
 H424 H 0.58460 0.13149 0.43721
 H425 H 0.75015 0.19916 0.45979
 H426 H 0.70744 0.30404 0.45990
 C427 C 0.33785 0.83811 0.50037
 C428 C 0.33342 0.80651 0.43947
 C429 C 0.35642 0.74998 0.43945
 C430 C 0.38152 0.73061 0.50033
 C431 C 0.32977 0.73918 0.54455
 C432 C 0.30680 0.79569 0.54458
 C433 C 0.40448 0.83563 0.51704
 C434 C 0.42748 0.77903 0.51704
 C435 C 0.31165 0.89833 0.50037
 C436 C 0.28612 0.94594 0.50032
 C437 C 0.40640 0.66999 0.50027
 C438 C 0.42880 0.62100 0.50018
 H439 H 0.31405 0.82682 0.39981
 H440 H 0.35675 0.72182 0.39981
 H441 H 0.31272 0.70402 0.57335
 H442 H 0.27003 0.80896 0.57349
 H443 H 0.43119 0.87474 0.52791
 H444 H 0.47392 0.76962 0.52805
 C445 C 0.33786 0.16228 0.49999
 C446 C 0.34222 0.19002 0.43734
 C447 C 0.36524 0.24648 0.43726
 C448 C 0.38156 0.26962 0.49984
 C449 C 0.42451 0.22239 0.52565
 C450 C 0.40150 0.16587 0.52571
 C451 C 0.30105 0.20734 0.53679
 C452 C 0.32403 0.26377 0.53670
 C453 C 0.31164 0.10215 0.50009
 C454 C 0.28609 0.05462 0.50018
 C455 C 0.40644 0.33017 0.49978
 C456 C 0.42882 0.37909 0.49980
 H457 H 0.32855 0.16726 0.39661
 H458 H 0.37126 0.27215 0.39651
 H459 H 0.46904 0.23250 0.54243
 H460 H 0.42628 0.12751 0.54240
 H461 H 0.26047 0.19587 0.56090
 H462 H 0.30319 0.30065 0.56063
   
