data_POSCAR
  _audit_creation_date              2014-09-24
  _audit_creation_method            'ToBaCCo'
  _symmetry_space_group_name_H-M    'P1'
  _symmetry_Int_Tables_number       1
  _symmetry_cell_setting            triclinic
  loop_
  _symmetry_equiv_pos_as_xyz
 x,y,z
_cell_length_a 43.2440
_cell_length_b 44.2444
_cell_length_c 43.8471
_cell_angle_alpha 89.569900
_cell_angle_beta 90.019900
_cell_angle_gamma 90.044800
loop_
  _atom_site_label
  _atom_site_type_symbol
  _atom_site_fract_x
  _atom_site_fract_y
  _atom_site_fract_z
C1 C 0.14384 0.10539 0.14831
 C2 C 0.12914 0.09065 0.17274
 C3 C 0.10234 0.10291 0.18569
 C4 C 0.08962 0.12965 0.17377
 C5 C 0.10401 0.14468 0.14929
 C6 C 0.13131 0.13256 0.13653
 C7 C 0.17174 0.09430 0.13651
 C8 C 0.18727 0.11017 0.11333
 C9 C 0.17464 0.13687 0.10130
 C10 C 0.14678 0.14828 0.11285
 C11 C 0.13496 0.17592 0.10223
 C12 C 0.10818 0.18811 0.11519
 C13 C 0.09256 0.17242 0.13840
 H14 H 0.13920 0.07027 0.18245
 H15 H 0.06921 0.13933 0.18425
 H16 H 0.18189 0.07389 0.14606
 H17 H 0.18700 0.14928 0.08367
 H18 H 0.14715 0.18849 0.08462
 H19 H 0.07212 0.18229 0.14862
 C20 C -0.14018 0.89412 0.14747
 C21 C -0.12611 0.90870 0.17218
 C22 C -0.09962 0.89636 0.18588
 C23 C -0.08653 0.86976 0.17444
 C24 C -0.10029 0.85488 0.14974
 C25 C -0.12728 0.86707 0.13621
 C26 C -0.16792 0.90516 0.13502
 C27 C -0.18294 0.88931 0.11172
 C28 C -0.16986 0.86279 0.10014
 C29 C -0.14219 0.85144 0.11237
 C30 C -0.13015 0.82383 0.10235
 C31 C -0.10372 0.81154 0.11610
 C32 C -0.08860 0.82715 0.13946
 H33 H -0.13648 0.92894 0.18153
 H34 H -0.06639 0.86001 0.18552
 H35 H -0.17842 0.92539 0.14425
 H36 H -0.18184 0.85035 0.08247
 H37 H -0.14196 0.81131 0.08463
 H38 H -0.06844 0.81721 0.15030
 C39 C -0.14590 0.11575 -0.15102
 C40 C -0.13400 0.10391 -0.17816
 C41 C -0.10807 0.11713 -0.19200
 C42 C -0.09342 0.14193 -0.17851
 C43 C -0.10501 0.15408 -0.15134
 C44 C -0.13139 0.14095 -0.13751
 C45 C -0.17298 0.10382 -0.13804
 C46 C -0.18576 0.11698 -0.11194
 C47 C -0.17111 0.14163 -0.09819
 C48 C -0.14405 0.15383 -0.11091
 C49 C -0.13040 0.17970 -0.09846
 C50 C -0.10459 0.19296 -0.11245
 C51 C -0.09170 0.18004 -0.13860
 H52 H -0.14547 0.08506 -0.18910
 H53 H -0.07368 0.15230 -0.18970
 H54 H -0.18470 0.08503 -0.14886
 H55 H -0.18139 0.15200 -0.07826
 H56 H -0.14052 0.19021 -0.07854
 H57 H -0.07204 0.19080 -0.14957
 C58 C 0.14520 0.88972 -0.15025
 C59 C 0.13211 0.90209 -0.17681
 C60 C 0.10620 0.88852 -0.19020
 C61 C 0.09270 0.86291 -0.17666
 C62 C 0.10548 0.85025 -0.15006
 C63 C 0.13191 0.86365 -0.13680
 C64 C 0.17237 0.90192 -0.13790
 C65 C 0.18646 0.88820 -0.11258
 C66 C 0.17306 0.86267 -0.09889
 C67 C 0.14589 0.85017 -0.11093
 C68 C 0.13346 0.82345 -0.09863
 C69 C 0.10757 0.80996 -0.11208
 C70 C 0.09338 0.82349 -0.13746
 H71 H 0.14277 0.92160 -0.18769
 H72 H 0.07297 0.85220 -0.18744
 H73 H 0.18326 0.92134 -0.14868
 H74 H 0.18448 0.85189 -0.07965
 H75 H 0.14460 0.81250 -0.07934
 H76 H 0.07368 0.81257 -0.14803
 C77 C 0.11226 1.15952 0.84318
 C78 C 0.10180 1.14815 0.81523
 C79 C 0.11646 1.12322 0.80203
 C80 C 0.14116 1.10902 0.81704
 C81 C 0.15191 1.12011 0.84497
 C82 C 0.13748 1.14551 0.85813
 C83 C 0.09905 1.18563 0.85560
 C84 C 0.11101 1.19798 0.88248
 C85 C 0.13571 1.18385 0.89760
 C86 C 0.14918 1.15772 0.88551
 C87 C 0.17527 1.14465 0.89931
 C88 C 0.18982 1.11979 0.88590
 C89 C 0.17793 1.10731 0.85909
 H90 H 0.08293 1.15926 0.80329
 H91 H 0.15265 1.08996 0.80650
 H92 H 0.08030 1.19699 0.84372
 H93 H 0.14523 1.19386 0.91809
 H94 H 0.18504 1.15451 0.91974
 H95 H 0.18974 1.08845 0.84856
 C96 C 0.88573 0.84556 0.84843
 C97 C 0.89505 0.85498 0.81923
 C98 C 0.88193 0.88077 0.80575
 C99 C 0.85985 0.89767 0.82163
 C100 C 0.85027 0.88854 0.85086
 C101 C 0.86322 0.86235 0.86435
 C102 C 0.89751 0.81888 0.86138
 C103 C 0.88680 0.80871 0.88982
 C104 C 0.86476 0.82551 0.90586
 C105 C 0.85276 0.85229 0.89325
 C106 C 0.82937 0.86833 0.90826
 C107 C 0.81628 0.89404 0.89462
 C108 C 0.82694 0.90431 0.86621
 H109 H 0.91188 0.84181 0.80668
 H110 H 0.84956 0.91745 0.81095
 H111 H 0.91422 0.80551 0.84888
 H112 H 0.85622 0.81725 0.92766
 H113 H 0.82051 0.86022 0.92998
 H114 H 0.81623 0.92390 0.85558
 C115 C 0.10351 0.84961 1.14546
 C116 C 0.09203 0.86214 1.17247
 C117 C 0.10634 0.88746 1.18525
 C118 C 0.13160 0.90108 1.17064
 C119 C 0.14334 0.88890 1.14357
 C120 C 0.12935 0.86296 1.13094
 C121 C 0.09092 0.82281 1.13390
 C122 C 0.10414 0.80907 1.10833
 C123 C 0.12938 0.82261 1.09350
 C124 C 0.14223 0.84943 1.10475
 C125 C 0.16898 0.86184 1.09152
 C126 C 0.18304 0.88727 1.10439
 C127 C 0.17003 0.90100 1.13003
 H128 H 0.07286 0.85143 1.18431
 H129 H 0.14290 0.92032 1.18106
 H130 H 0.07179 0.81189 1.14563
 H131 H 0.13988 0.81155 1.07408
 H132 H 0.17962 0.85100 1.07206
 H133 H 0.18149 0.92028 1.14020
 C134 C 0.89028 1.14622 1.14632
 C135 C 0.90255 1.13428 1.17343
 C136 C 0.89156 1.10678 1.18519
 C137 C 0.86899 1.09044 1.16933
 C138 C 0.85657 1.10201 1.14206
 C139 C 0.86707 1.13014 1.13057
 C140 C 0.89949 1.17480 1.13570
 C141 C 0.88546 1.18764 1.10992
 C142 C 0.86272 1.17161 1.09396
 C143 C 0.85333 1.14287 1.10418
 C144 C 0.82922 1.12741 1.08957
 C145 C 0.81860 1.09970 1.10125
 C146 C 0.83248 1.08688 1.12715
 H147 H 0.91969 1.14702 1.18608
 H148 H 0.86021 1.06940 1.17882
 H149 H 0.91675 1.18757 1.14813
 H150 H 0.85168 1.18195 1.07427
 H151 H 0.81783 1.13747 1.06993
 H152 H 0.82358 1.06580 1.13641
 N153 N 0.46965 1.03310 0.94945
 N154 N 0.44372 1.03463 0.93362
 N155 N 0.53481 1.05307 0.97192
 N156 N 0.56071 1.06891 0.97166
 N157 N 0.53491 1.03309 0.94992
 N158 N 0.56089 1.03484 0.93417
 N159 N 0.46958 1.05317 0.97141
 N160 N 0.44359 1.06881 0.97104
 C161 C 0.42803 1.05726 0.94711
 C162 C 0.57645 1.05749 0.94779
 N163 N 0.53397 1.02806 1.05789
 N164 N 0.56109 1.02618 1.07165
 N165 N 0.46901 1.05038 1.03685
 N166 N 0.44331 1.06640 1.03816
 N167 N 0.46850 1.02840 1.05716
 N168 N 0.44237 1.02894 1.07277
 N169 N 0.53427 1.05000 1.03747
 N170 N 0.56153 1.06344 1.03703
 Mn171 Mn 0.50192 1.05203 1.00446
 C172 C 0.57770 1.04877 1.05886
 C173 C 0.42724 1.05303 1.06093
 N174 N 0.53497 0.96820 0.94756
 N175 N 0.56217 0.96981 0.93398
 N176 N 0.46951 0.94615 0.96717
 N177 N 0.44342 0.93071 0.96567
 N178 N 0.46962 0.96816 0.94689
 N179 N 0.44358 0.96824 0.93114
 N180 N 0.53484 0.94629 0.96800
 N181 N 0.56196 0.93259 0.96870
 Mn182 Mn 0.50226 1.00062 0.94806
 C183 C 0.57843 0.94712 0.94696
 C184 C 0.42781 0.94448 0.94282
 N185 N 0.46823 0.96335 1.05455
 N186 N 0.44164 0.96224 1.06934
 N187 N 0.53388 0.94315 1.03355
 N188 N 0.55995 0.92761 1.03406
 N189 N 0.53355 0.96311 1.05559
 N190 N 0.55940 0.96159 1.07159
 N191 N 0.46868 0.94322 1.03266
 N192 N 0.44246 0.92792 1.03209
 Mn193 Mn 0.50101 0.99574 1.05671
 Mn194 Mn 0.50174 0.94432 1.00031
 Cl195 Cl 0.50173 0.99819 1.00239
 C196 C 0.42616 0.93969 1.05538
 C197 C 0.57532 0.93909 1.05815
 N198 N 0.02967 0.46672 0.05920
 N199 N 0.03049 0.44092 0.07452
 N200 N 0.05154 0.53087 0.03903
 N201 N 0.06710 0.55654 0.03953
 N202 N 0.03027 0.53051 0.06044
 N203 N 0.03089 0.55596 0.07598
 N204 N 0.05092 0.46711 0.03778
 N205 N 0.06670 0.44156 0.03801
 C206 C 0.05397 0.42577 0.06132
 C207 C 0.05431 0.57161 0.06300
 N208 N 0.02895 0.53349 -0.04746
 N209 N 0.02965 0.55934 -0.06266
 N210 N 0.05019 0.46896 -0.02780
 N211 N 0.06597 0.44348 -0.02943
 N212 N 0.02852 0.46979 -0.04879
 N213 N 0.02906 0.44494 -0.06526
 N214 N 0.05072 0.53281 -0.02654
 N215 N 0.06675 0.55825 -0.02703
 Mn216 Mn 0.05125 0.49993 0.00562
 C217 C 0.05358 0.57425 -0.04996
 C218 C 0.05276 0.42906 -0.05316
 N219 N -0.03622 0.53098 0.06126
 N220 N -0.03630 0.55606 0.07738
 N221 N -0.05857 0.46804 0.03913
 N222 N -0.07534 0.44309 0.04026
 N223 N -0.03681 0.46731 0.06004
 N224 N -0.03822 0.44186 0.07590
 N225 N -0.05789 0.53189 0.04025
 N226 N -0.07316 0.55772 0.04155
 Mn227 Mn -0.00325 0.49886 0.06062
 C228 C -0.05975 0.57220 0.06516
 C229 C -0.06262 0.42731 0.06358
 N230 N -0.03790 0.47024 -0.04810
 N231 N -0.03812 0.44490 -0.06375
 N232 N -0.05870 0.53347 -0.02544
 N233 N -0.07464 0.55893 -0.02595
 N234 N -0.03745 0.53378 -0.04684
 N235 N -0.03843 0.55937 -0.06247
 N236 N -0.05907 0.46948 -0.02658
 N237 N -0.07406 0.44344 -0.02708
 Mn238 Mn -0.00448 0.50185 -0.04815
 Mn239 Mn -0.05900 0.50073 0.00683
 Cl240 Cl -0.00389 0.50034 0.00624
 C241 C -0.06110 0.42873 -0.05077
 C242 C -0.06199 0.57451 -0.04946
 N243 N 1.03405 0.05174 0.52904
 N244 N 1.03610 0.06841 0.55380
 N245 N 1.05494 0.03006 0.46488
 N246 N 1.06896 0.02888 0.43815
 N247 N 1.03375 0.05138 0.46467
 N248 N 1.03299 0.06510 0.43783
 N249 N 1.05514 0.03041 0.52934
 N250 N 1.07211 0.03201 0.55434
 C251 C 1.06015 0.05603 0.56905
 C252 C 1.05545 0.05124 0.42185
 N253 N 1.03224 -0.05555 0.46598
 N254 N 1.03281 -0.07116 0.44044
 N255 N 1.05387 -0.03463 0.53025
 N256 N 1.06910 -0.03506 0.55636
 N257 N 1.03206 -0.05536 0.53034
 N258 N 1.03197 -0.07035 0.55649
 N259 N 1.05409 -0.03492 0.46585
 N260 N 1.07005 -0.03601 0.44020
 Mn261 Mn 1.05492 -0.00227 0.49761
 C262 C 1.05677 -0.05897 0.42490
 C263 C 1.05553 -0.05780 0.57214
 N264 N 0.96726 0.05252 0.46508
 N265 N 0.96660 0.06807 0.43927
 N266 N 0.94580 0.03183 0.52978
 N267 N 0.93024 0.03279 0.55567
 N268 N 0.96759 0.05257 0.52938
 N269 N 0.96735 0.06813 0.55495
 N270 N 0.94540 0.03190 0.46539
 N271 N 0.92935 0.03293 0.43978
 Mn272 Mn 1.00068 0.05243 0.49705
 C273 C 0.94258 0.05585 0.42403
 C274 C 0.94364 0.05585 0.57079
 N275 N 0.96557 -0.05459 0.53008
 N276 N 0.96329 -0.07145 0.55495
 N277 N 0.94453 -0.03309 0.46559
 N278 N 0.93042 -0.03199 0.43888
 N279 N 0.96572 -0.05440 0.46572
 N280 N 0.96640 -0.06821 0.43913
 N281 N 0.94449 -0.03325 0.53003
 N282 N 0.92733 -0.03501 0.55489
 Mn283 Mn 0.99889 -0.05536 0.49804
 Mn284 Mn 0.94464 -0.00065 0.49774
 Cl285 Cl 0.99977 -0.00146 0.49762
 C286 C 0.93912 -0.05917 0.56990
 C287 C 0.94387 -0.05440 0.42295
 C288 C 1.06381 0.05957 0.32927
 C289 C 1.08789 0.04441 0.31379
 C290 C 1.09244 0.04962 0.28210
 C291 C 1.07304 0.07012 0.26621
 C292 C 1.04706 0.08274 0.28098
 C293 C 1.04245 0.07752 0.31268
 C294 C 1.01652 0.09068 0.32708
 C295 C 0.99567 0.10839 0.31058
 C296 C 1.00005 0.11329 0.27952
 C297 C 1.02552 0.10079 0.26479
 C298 C 1.11647 0.03410 0.26697
 C299 C 1.13526 0.01366 0.28267
 C300 C 1.13080 0.00853 0.31369
 C301 C 1.10754 0.02382 0.32923
 C302 C 1.08183 0.08068 0.23601
 C303 C 1.09073 0.09065 0.21189
 C304 C 1.06121 0.05690 0.36218
 C305 C 1.05900 0.05465 0.38949
 H306 H 1.01199 0.08725 0.35114
 H307 H 0.97598 0.11832 0.32195
 H308 H 0.98364 0.12688 0.26679
 H309 H 1.02798 0.10506 0.24057
 H310 H 1.12059 0.03718 0.24280
 H311 H 1.15334 0.00171 0.27070
 H312 H 1.14539 -0.00742 0.32576
 H313 H 1.10478 0.01893 0.35329
 C314 C 0.93588 -0.06267 0.33045
 C315 C 0.95731 -0.08070 0.31431
 C316 C 0.95323 -0.08548 0.28254
 C317 C 0.92769 -0.07236 0.26724
 C318 C 0.90811 -0.05199 0.28275
 C319 C 0.91214 -0.04720 0.31452
 C320 C 0.89235 -0.02668 0.32956
 C321 C 0.86946 -0.01105 0.31358
 C322 C 0.86551 -0.01576 0.28251
 C323 C 0.88444 -0.03611 0.26718
 C324 C 0.97484 -0.10360 0.26681
 C325 C 0.99984 -0.11664 0.28207
 C326 C 1.00369 -0.11218 0.31319
 C327 C 0.98278 -0.09437 0.32924
 C328 C 0.91953 -0.08224 0.23677
 C329 C 0.91123 -0.09174 0.21239
 C330 C 0.93820 -0.06008 0.36335
 C331 C 0.94031 -0.05784 0.39065
 H332 H 0.89470 -0.02212 0.35366
 H333 H 0.85476 0.00484 0.32536
 H334 H 0.84773 -0.00353 0.27019
 H335 H 0.88072 -0.03884 0.24294
 H336 H 0.97280 -0.10755 0.24256
 H337 H 1.01630 -0.13030 0.26969
 H338 H 1.02301 -0.12253 0.32496
 H339 H 0.98691 -0.09132 0.35336
 C340 C 0.92661 0.07527 0.66028
 C341 C 0.95081 0.08667 0.67872
 C342 C 0.94507 0.09369 0.70981
 C343 C 0.91512 0.08951 0.72216
 C344 C 0.89110 0.07750 0.70389
 C345 C 0.89688 0.07034 0.67287
 C346 C 0.87248 0.05846 0.65504
 C347 C 0.84321 0.05379 0.66750
 C348 C 0.83754 0.06082 0.69782
 C349 C 0.86111 0.07255 0.71590
 C350 C 0.96961 0.10498 0.72783
 C351 C 0.99895 0.10943 0.71543
 C352 C 1.00446 0.10289 0.68497
 C353 C 0.98082 0.09149 0.66675
 C354 C 0.90845 0.09874 0.75317
 C355 C 0.90165 0.10687 0.77847
 C356 C 0.93225 0.06868 0.62837
 C357 C 0.93709 0.06303 0.60195
 H358 H 0.87575 0.05264 0.63133
 H359 H 0.82483 0.04467 0.65354
 H360 H 0.81476 0.05715 0.70739
 H361 H 0.85556 0.07758 0.73939
 H362 H 0.96637 0.11045 0.75163
 H363 H 1.01749 0.11811 0.72949
 H364 H 1.02712 0.10681 0.67536
 H365 H 0.98632 0.08660 0.64322
 C366 C 1.07011 -0.07364 0.66298
 C367 C 1.05146 -0.09494 0.67874
 C368 C 1.05646 -0.10048 0.71033
 C369 C 1.08027 -0.08493 0.72586
 C370 C 1.09785 -0.06254 0.71046
 C371 C 1.09290 -0.05701 0.67887
 C372 C 1.11089 -0.03464 0.66391
 C373 C 1.13283 -0.01791 0.67983
 C374 C 1.13755 -0.02320 0.71077
 C375 C 1.12043 -0.04534 0.72599
 C376 C 1.03731 -0.12158 0.72571
 C377 C 1.01373 -0.13664 0.71036
 C378 C 1.00892 -0.13134 0.67943
 C379 C 1.02760 -0.11086 0.66365
 C380 C 1.08826 -0.09352 0.75689
 C381 C 1.09608 -0.10155 0.78207
 C382 C 1.06550 -0.06846 0.63058
 C383 C 1.06135 -0.06389 0.60377
 H384 H 1.10793 -0.02956 0.63991
 H385 H 1.14614 -0.00064 0.66813
 H386 H 1.15453 -0.01006 0.72307
 H387 H 1.12481 -0.04856 0.75010
 H388 H 1.04008 -0.12632 0.74981
 H389 H 0.99907 -0.15248 0.72254
 H390 H 0.99053 -0.14303 0.66763
 H391 H 1.02286 -0.10737 0.63965
 C392 C 0.33679 1.07302 1.07920
 C393 C 0.32295 1.06316 1.10679
 C394 C 0.29122 1.06928 1.11244
 C395 C 0.27355 1.08547 1.09059
 C396 C 0.28735 1.09528 1.06296
 C397 C 0.31912 1.08923 1.05733
 C398 C 0.33259 1.09993 1.02988
 C399 C 0.31514 1.11605 1.00855
 C400 C 0.28399 1.12159 1.01387
 C401 C 0.27013 1.11139 1.04073
 C402 C 0.27792 1.05921 1.14023
 C403 C 0.29560 1.04402 1.16202
 C404 C 0.32674 1.03847 1.15669
 C405 C 0.34031 1.04758 1.12931
 C406 C 0.24183 1.09367 1.09754
 C407 C 0.21594 1.10109 1.10441
 C408 C 0.36909 1.06631 1.07326
 C409 C 0.39578 1.06044 1.06804
 H410 H 0.35668 1.09595 1.02459
 H411 H 0.32579 1.12398 0.98763
 H412 H 0.27047 1.13382 0.99706
 H413 H 0.24582 1.11624 1.04386
 H414 H 0.25379 1.06306 1.14547
 H415 H 0.28511 1.03662 1.18321
 H416 H 0.34047 1.02696 1.17384
 H417 H 0.36457 1.04254 1.12616
 C418 C 0.33722 0.92654 0.92319
 C419 C 0.31372 0.93606 0.94347
 C420 C 0.28225 0.92920 0.93711
 C421 C 0.27448 0.91311 0.91040
 C422 C 0.29797 0.90390 0.88996
 C423 C 0.32942 0.91061 0.89640
 C424 C 0.35249 0.90107 0.87569
 C425 C 0.34472 0.88540 0.84933
 C426 C 0.31396 0.87886 0.84300
 C427 C 0.29077 0.88793 0.86298
 C428 C 0.25920 0.93854 0.95790
 C429 C 0.26704 0.95408 0.98434
 C430 C 0.29779 0.96075 0.99058
 C431 C 0.32095 0.95212 0.97035
 C432 C 0.24250 0.90551 0.90384
 C433 C 0.21654 0.89820 0.89709
 C434 C 0.36944 0.93282 0.92996
 C435 C 0.39620 0.93798 0.93556
 H436 H 0.37675 0.90563 0.87959
 H437 H 0.36266 0.87831 0.83374
 H438 H 0.30803 0.86670 0.82248
 H439 H 0.26720 0.88229 0.85699
 H440 H 0.23497 0.93377 0.95403
 H441 H 0.24917 0.96082 1.00018
 H442 H 0.30380 0.97240 1.01137
 H443 H 0.34454 0.95777 0.97624
 C444 C 0.66640 0.92124 1.07601
 C445 C 0.67497 0.89535 1.09315
 C446 C 0.70668 0.88952 1.09929
 C447 C 0.72968 0.90968 1.08834
 C448 C 0.72115 0.93540 1.07089
 C449 C 0.68940 0.94117 1.06466
 C450 C 0.68143 0.96696 1.04709
 C451 C 0.70413 0.98662 1.03624
 C452 C 0.73514 0.98102 1.04233
 C453 C 0.74369 0.95570 1.05945
 C454 C 0.71464 0.86343 1.11648
 C455 C 0.69195 0.84373 1.12731
 C456 C 0.66095 0.84946 1.12132
 C457 C 0.65242 0.87492 1.10443
 C458 C 0.76194 0.90388 1.09554
 C459 C 0.78817 0.89774 1.10261
 C460 C 0.63395 0.92725 1.06997
 C461 C 0.60705 0.93234 1.06485
 H462 H 0.65761 0.97237 1.04179
 H463 H 0.69755 1.00657 1.02340
 H464 H 0.75263 0.99648 1.03393
 H465 H 0.76810 0.95226 1.06368
 H466 H 0.73843 0.85793 1.12174
 H467 H 0.69847 0.82391 1.14044
 H468 H 0.64340 0.83410 1.12980
 H469 H 0.62799 0.87837 1.10034
 C470 C 0.66649 1.07889 0.92883
 C471 C 0.69052 1.05856 0.93679
 C472 C 0.72173 1.06592 0.92968
 C473 C 0.72869 1.09360 0.91483
 C474 C 0.70473 1.11422 0.90753
 C475 C 0.67354 1.10682 0.91450
 C476 C 0.64998 1.12777 0.90691
 C477 C 0.65704 1.15524 0.89280
 C478 C 0.68754 1.16249 0.88598
 C479 C 0.71120 1.14232 0.89320
 C480 C 0.74535 1.04520 0.93760
 C481 C 0.73838 1.01800 0.95227
 C482 C 0.70791 1.01090 0.95936
 C483 C 0.68414 1.03082 0.95177
 C484 C 0.76030 1.10079 0.90629
 C485 C 0.78598 1.10781 0.89822
 C486 C 0.63452 1.07126 0.93546
 C487 C 0.60792 1.06513 0.94090
 H488 H 0.62590 1.12321 0.91181
 H489 H 0.63873 1.17099 0.88715
 H490 H 0.69291 1.18387 0.87503
 H491 H 0.73455 1.14906 0.88748
 H492 H 0.76940 1.04982 0.93259
 H493 H 0.75668 1.00231 0.95808
 H494 H 0.70265 0.98966 0.97055
 H495 H 0.66079 1.02419 0.95766
 C496 C 0.07317 0.33700 0.07986
 C497 C 0.05400 0.31418 0.06749
 C498 C 0.06010 0.28326 0.07421
 C499 C 0.08539 0.27536 0.09316
 C500 C 0.10456 0.29820 0.10552
 C501 C 0.09842 0.32910 0.09885
 C502 C 0.11783 0.35152 0.11154
 C503 C 0.14260 0.34365 0.13030
 C504 C 0.14863 0.31345 0.13682
 C505 C 0.12992 0.29090 0.12464
 C506 C 0.04040 0.26088 0.06192
 C507 C 0.01507 0.26885 0.04391
 C508 C 0.00894 0.29908 0.03760
 C509 C 0.02832 0.32157 0.04886
 C510 C 0.09192 0.24385 0.10013
 C511 C 0.09858 0.21813 0.10661
 C512 C 0.06670 0.36861 0.07342
 C513 C 0.06117 0.39481 0.06807
 H514 H 0.11409 0.37533 0.10712
 H515 H 0.15719 0.36109 0.13983
 H516 H 0.16790 0.30744 0.15141
 H517 H 0.13558 0.26774 0.13042
 H518 H 0.04417 0.23708 0.06638
 H519 H -0.00002 0.25149 0.03501
 H520 H -0.01110 0.30520 0.02416
 H521 H 0.02259 0.34476 0.04328
 C522 C -0.07217 0.33885 -0.06884
 C523 C -0.09529 0.32162 -0.05390
 C524 C -0.09891 0.29049 -0.06080
 C525 C -0.07955 0.27686 -0.08280
 C526 C -0.05544 0.29370 -0.09662
 C527 C -0.05184 0.32486 -0.08977
 C528 C -0.02771 0.34132 -0.10407
 C529 C -0.00740 0.32725 -0.12414
 C530 C -0.01080 0.29672 -0.13065
 C531 C -0.03464 0.28007 -0.11726
 C532 C -0.12222 0.27370 -0.04557
 C533 C -0.14158 0.28737 -0.02436
 C534 C -0.13827 0.31791 -0.01796
 C535 C -0.11533 0.33491 -0.03232
 C536 C -0.08622 0.24637 -0.09289
 C537 C -0.09359 0.22164 -0.10165
 C538 C -0.06918 0.37088 -0.06254
 C539 C -0.06620 0.39741 -0.05723
 H540 H -0.02401 0.36506 -0.09955
 H541 H 0.01120 0.34006 -0.13453
 H542 H 0.00515 0.28587 -0.14612
 H543 H -0.03632 0.25635 -0.12289
 H544 H -0.12567 0.24988 -0.04981
 H545 H -0.15933 0.27424 -0.01295
 H546 H -0.15367 0.32856 -0.00192
 H547 H -0.11359 0.35855 -0.02639
 C548 C 0.07279 0.66280 -0.06976
 C549 C 0.05196 0.68573 -0.06065
 C550 C 0.05793 0.71640 -0.06865
 C551 C 0.08480 0.72396 -0.08550
 C552 C 0.10578 0.70104 -0.09433
 C553 C 0.09973 0.67039 -0.08646
 C554 C 0.12098 0.64790 -0.09565
 C555 C 0.14745 0.65546 -0.11213
 C556 C 0.15339 0.68542 -0.11980
 C557 C 0.13289 0.70804 -0.11107
 C558 C 0.03660 0.73887 -0.05967
 C559 C 0.00999 0.73125 -0.04343
 C560 C 0.00411 0.70128 -0.03567
 C561 C 0.02489 0.67871 -0.04389
 C562 C 0.09111 0.75515 -0.09400
 C563 C 0.09777 0.78051 -0.10182
 C564 C 0.06629 0.63135 -0.06252
 C565 C 0.06082 0.60520 -0.05680
 H566 H 0.11740 0.62426 -0.09020
 H567 H 0.16344 0.63796 -0.11896
 H568 H 0.17399 0.69119 -0.13260
 H569 H 0.13859 0.73101 -0.11761
 H570 H 0.04016 0.76247 -0.06530
 H571 H -0.00629 0.74866 -0.03702
 H572 H -0.01686 0.69544 -0.02354
 H573 H 0.01926 0.65572 -0.03739
 C574 C -0.07401 0.66154 0.08406
 C575 C -0.05124 0.67803 0.10018
 C576 C -0.05531 0.70950 0.10521
 C577 C -0.08236 0.72417 0.09454
 C578 C -0.10510 0.70767 0.07840
 C579 C -0.10098 0.67625 0.07330
 C580 C -0.12438 0.66010 0.05777
 C581 C -0.15113 0.67455 0.04770
 C582 C -0.15496 0.70536 0.05223
 C583 C -0.13228 0.72186 0.06737
 C584 C -0.03208 0.72559 0.12101
 C585 C -0.00565 0.71097 0.13175
 C586 C -0.00185 0.68014 0.12719
 C587 C -0.02430 0.66374 0.11159
 C588 C -0.08794 0.75569 0.10177
 C589 C -0.09418 0.78145 0.10813
 C590 C -0.06949 0.62960 0.07803
 C591 C -0.06550 0.60324 0.07247
 H592 H -0.12244 0.63611 0.05355
 H593 H -0.16902 0.66173 0.03638
 H594 H -0.17570 0.71652 0.04411
 H595 H -0.13637 0.74577 0.07040
 H596 H -0.03403 0.74960 0.12508
 H597 H 0.01200 0.72364 0.14362
 H598 H 0.01875 0.66890 0.13552
 H599 H -0.02020 0.63985 0.10839
 C600 C 1.08289 0.08040 0.65598
 C601 C 1.09506 0.10946 0.66200
 C602 C 1.10107 0.11823 0.69254
 C603 C 1.09500 0.09785 0.71687
 C604 C 1.08279 0.06883 0.71087
 C605 C 1.07668 0.06008 0.68033
 C606 C 1.06427 0.03103 0.67491
 C607 C 1.05816 0.01121 0.69898
 C608 C 1.06425 0.01966 0.72882
 C609 C 1.07641 0.04814 0.73485
 C610 C 1.11307 0.14747 0.69801
 C611 C 1.11896 0.16746 0.67400
 C612 C 1.11311 0.15886 0.64413
 C613 C 1.10129 0.13022 0.63806
 C614 C 1.10189 0.10660 0.74796
 C615 C 1.10830 0.11417 0.77354
 C616 C 1.07564 0.07185 0.62490
 C617 C 1.06900 0.06474 0.59924
 H618 H 1.05930 0.02326 0.65209
 H619 H 1.04900 -0.01097 0.69440
 H620 H 1.05960 0.00402 0.74737
 H621 H 1.08072 0.05375 0.75845
 H622 H 1.11799 0.15522 0.72086
 H623 H 1.12812 0.18974 0.67860
 H624 H 1.11774 0.17446 0.62555
 H625 H 1.09715 0.12456 0.61444
 C626 C 0.91639 -0.08262 0.65745
 C627 C 0.88817 -0.09718 0.66475
 C628 C 0.88130 -0.10471 0.69559
 C629 C 0.90273 -0.09768 0.71894
 C630 C 0.93102 -0.08328 0.71162
 C631 C 0.93779 -0.07558 0.68081
 C632 C 0.96605 -0.06086 0.67409
 C633 C 0.98704 -0.05407 0.69711
 C634 C 0.98062 -0.06185 0.72719
 C635 C 0.95293 -0.07629 0.73451
 C636 C 0.85290 -0.11921 0.70233
 C637 C 0.83191 -0.12608 0.67927
 C638 C 0.83865 -0.11872 0.64912
 C639 C 0.86643 -0.10443 0.64181
 C640 C 0.89559 -0.10516 0.75046
 C641 C 0.88939 -0.11157 0.77653
 C642 C 0.92352 -0.07479 0.62601
 C643 C 0.93016 -0.06792 0.60018
 H644 H 0.97233 -0.05454 0.65102
 H645 H 1.00857 -0.04309 0.69145
 H646 H 0.99721 -0.05677 0.74492
 H647 H 0.94893 -0.08191 0.75825
 H648 H 0.84661 -0.12539 0.72543
 H649 H 0.81030 -0.13718 0.68483
 H650 H 0.82226 -0.12409 0.63129
 H651 H 0.87064 -0.09913 0.61803
 C652 C 1.07390 -0.07725 0.33523
 C653 C 1.08908 -0.10430 0.32699
 C654 C 1.09444 -0.11073 0.29574
 C655 C 1.08477 -0.08995 0.27292
 C656 C 1.06933 -0.06303 0.28113
 C657 C 1.06382 -0.05668 0.31240
 C658 C 1.04822 -0.02970 0.32006
 C659 C 1.03851 -0.00953 0.29749
 C660 C 1.04389 -0.01571 0.26694
 C661 C 1.05914 -0.04214 0.25871
 C662 C 1.10949 -0.13805 0.28806
 C663 C 1.11900 -0.15839 0.31059
 C664 C 1.11380 -0.15206 0.34115
 C665 C 1.09903 -0.12537 0.34939
 C666 C 1.09121 -0.09636 0.24115
 C667 C 1.09752 -0.10295 0.21527
 C668 C 1.06827 -0.07089 0.36716
 C669 C 1.06336 -0.06568 0.39365
 H670 H 1.04350 -0.02382 0.34352
 H671 H 1.02686 0.01113 0.30376
 H672 H 1.03627 0.00012 0.24955
 H673 H 1.06283 -0.04602 0.23464
 H674 H 1.11403 -0.14406 0.26461
 H675 H 1.13046 -0.17916 0.30429
 H676 H 1.12125 -0.16792 0.35857
 H677 H 1.09550 -0.12148 0.37347
 C678 C 0.92525 0.07353 0.33404
 C679 C 0.93562 0.05296 0.31166
 C680 C 0.92981 0.05892 0.28028
 C681 C 0.91381 0.08548 0.27150
 C682 C 0.90403 0.10636 0.29386
 C683 C 0.90965 0.10030 0.32522
 C684 C 0.89958 0.12145 0.34716
 C685 C 0.88447 0.14790 0.33834
 C686 C 0.87902 0.15389 0.30766
 C687 C 0.88860 0.13344 0.28558
 C688 C 0.94028 0.03802 0.25831
 C689 C 0.95615 0.01198 0.26711
 C690 C 0.96185 0.00620 0.29778
 C691 C 0.95181 0.02636 0.31991
 C692 C 0.90697 0.09147 0.23964
 C693 C 0.90026 0.09788 0.21371
 C694 C 0.93097 0.06744 0.36609
 C695 C 0.93592 0.06241 0.39268
 H696 H 0.90331 0.11783 0.37131
 H697 H 0.87696 0.16384 0.35542
 H698 H 0.86731 0.17449 0.30091
 H699 H 0.88386 0.13919 0.26202
 H700 H 0.93634 0.04160 0.23418
 H701 H 0.96400 -0.00385 0.25007
 H702 H 0.97390 -0.01420 0.30450
 H703 H 0.95678 0.02079 0.34347
 C704 C 0.07231 0.34177 -0.07601
 C705 C 0.05199 0.31814 -0.06719
 C706 C 0.05877 0.28783 -0.07538
 C707 C 0.08598 0.28134 -0.09201
 C708 C 0.10633 0.30498 -0.10074
 C709 C 0.09944 0.33528 -0.09274
 C710 C 0.12010 0.35854 -0.10175
 C711 C 0.14681 0.35204 -0.11818
 C712 C 0.15358 0.32240 -0.12599
 C713 C 0.13366 0.29906 -0.11745
 C714 C 0.03794 0.26463 -0.06671
 C715 C 0.01113 0.27120 -0.05044
 C716 C 0.00455 0.30081 -0.04237
 C717 C 0.02476 0.32409 -0.05040
 C718 C 0.09336 0.25048 -0.10026
 C719 C 0.10093 0.22544 -0.10792
 C720 C 0.06537 0.37278 -0.06800
 C721 C 0.05980 0.39857 -0.06138
 H722 H 0.11587 0.38196 -0.09620
 H723 H 0.16234 0.37010 -0.12488
 H724 H 0.17437 0.31745 -0.13875
 H725 H 0.13997 0.27639 -0.12409
 H726 H 0.04208 0.24126 -0.07256
 H727 H -0.00474 0.25324 -0.04423
 H728 H -0.01656 0.30585 -0.03019
 H729 H 0.01857 0.34678 -0.04367
 C730 C -0.08322 0.33884 0.08211
 C731 C -0.05991 0.31973 0.09418
 C732 C -0.06581 0.28833 0.09818
 C733 C -0.09514 0.27631 0.09047
 C734 C -0.11873 0.29560 0.07923
 C735 C -0.11279 0.32699 0.07521
 C736 C -0.13696 0.34597 0.06476
 C737 C -0.16625 0.33432 0.05868
 C738 C -0.17193 0.30356 0.06213
 C739 C -0.14850 0.28430 0.07219
 C740 C -0.04213 0.26968 0.11025
 C741 C -0.01372 0.28182 0.11885
 C742 C -0.00816 0.31259 0.11544
 C743 C -0.03076 0.33138 0.10292
 C744 C -0.10167 0.24452 0.09599
 C745 C -0.10736 0.21838 0.10163
 C746 C -0.07657 0.37053 0.07628
 C747 C -0.07059 0.39663 0.07085
 H748 H -0.13361 0.37002 0.06150
 H749 H -0.18452 0.34919 0.05087
 H750 H -0.19462 0.29457 0.05702
 H751 H -0.15405 0.26055 0.07457
 H752 H -0.04538 0.24560 0.11336
 H753 H 0.00410 0.26727 0.12817
 H754 H 0.01392 0.32193 0.12224
 H755 H -0.02522 0.35513 0.10046
 C756 C -0.07937 0.66341 -0.06859
 C757 C -0.10656 0.67751 -0.05778
 C758 C -0.11193 0.70858 -0.06424
 C759 C -0.09023 0.72527 -0.08173
 C760 C -0.06282 0.71128 -0.09217
 C761 C -0.05746 0.68018 -0.08576
 C762 C -0.03024 0.66649 -0.09705
 C763 C -0.00878 0.68312 -0.11395
 C764 C -0.01385 0.71361 -0.11991
 C765 C -0.04055 0.72764 -0.10926
 C766 C -0.13934 0.72219 -0.05326
 C767 C -0.16104 0.70543 -0.03682
 C768 C -0.15599 0.67493 -0.03094
 C769 C -0.12898 0.66107 -0.04097
 C770 C -0.09735 0.75605 -0.09096
 C771 C -0.10429 0.78109 -0.09952
 C772 C -0.07392 0.63168 -0.06202
 C773 C -0.06899 0.60543 -0.05641
 H774 H -0.02514 0.64289 -0.09280
 H775 H 0.01204 0.67235 -0.12220
 H776 H 0.00303 0.72649 -0.13279
 H777 H -0.04349 0.75141 -0.11444
 H778 H -0.14433 0.74583 -0.05733
 H779 H -0.18197 0.71613 -0.02874
 H780 H -0.17314 0.66189 -0.01860
 H781 H -0.12604 0.63732 -0.03568
 C782 C 0.07112 0.66108 0.07837
 C783 C 0.09829 0.67012 0.09380
 C784 C 0.10407 0.70129 0.09883
 C785 C 0.08256 0.72325 0.08851
 C786 C 0.05538 0.71421 0.07306
 C787 C 0.04971 0.68302 0.06783
 C788 C 0.02235 0.67448 0.05241
 C789 C 0.00092 0.69610 0.04295
 C790 C 0.00647 0.72659 0.04803
 C791 C 0.03342 0.73570 0.06281
 C792 C 0.13147 0.70976 0.11430
 C793 C 0.15244 0.68806 0.12456
 C794 C 0.14673 0.65758 0.11968
 C795 C 0.12003 0.64858 0.10446
 C796 C 0.08854 0.75497 0.09434
 C797 C 0.09508 0.78075 0.10030
 C798 C 0.06526 0.62922 0.07343
 C799 C 0.06048 0.60279 0.06908
 H800 H 0.01695 0.65103 0.04801
 H801 H -0.02025 0.68909 0.03189
 H802 H -0.01028 0.74327 0.04062
 H803 H 0.03675 0.75966 0.06632
 H804 H 0.13701 0.73318 0.11866
 H805 H 0.17324 0.69495 0.13637
 H806 H 0.16308 0.64079 0.12771
 H807 H 0.11664 0.62459 0.10118
 C808 C 0.33833 1.07845 0.92686
 C809 C 0.33176 1.09649 0.90088
 C810 C 0.30068 1.10413 0.89379
 C811 C 0.27633 1.09378 0.91281
 C812 C 0.28289 1.07581 0.93885
 C813 C 0.31400 1.06795 0.94580
 C814 C 0.32003 1.04992 0.97193
 C815 C 0.29606 1.04044 0.99097
 C816 C 0.26567 1.04815 0.98419
 C817 C 0.25900 1.06555 0.95838
 C818 C 0.29470 1.12220 0.86763
 C819 C 0.31874 1.13241 0.84907
 C820 C 0.34913 1.12492 0.85602
 C821 C 0.35571 1.10719 0.88159
 C822 C 0.24470 1.10182 0.90523
 C823 C 0.21916 1.10946 0.89733
 C824 C 0.37016 1.07098 0.93411
 C825 C 0.39666 1.06488 0.93992
 H826 H 0.34331 1.04340 0.97820
 H827 H 0.30115 1.02731 1.01127
 H828 H 0.24716 1.04075 0.99909
 H829 H 0.23502 1.07105 0.95403
 H830 H 0.27146 1.12867 0.86122
 H831 H 0.31373 1.14621 0.82919
 H832 H 0.36774 1.13290 0.84154
 H833 H 0.37974 1.10197 0.88602
 C834 C 0.33421 0.92325 1.06941
 C835 C 0.31976 0.93467 1.09589
 C836 C 0.28769 0.92961 1.10079
 C837 C 0.27034 0.91284 1.07936
 C838 C 0.28462 0.90202 1.05254
 C839 C 0.31671 0.90707 1.04763
 C840 C 0.33062 0.89551 1.02093
 C841 C 0.31323 0.87969 0.99954
 C842 C 0.28179 0.87503 1.00420
 C843 C 0.26754 0.88596 1.03040
 C844 C 0.27376 0.94127 1.12746
 C845 C 0.29113 0.95703 1.14888
 C846 C 0.32259 0.96152 1.14430
 C847 C 0.33681 0.95077 1.11804
 C848 C 0.23859 0.90467 1.08633
 C849 C 0.21284 0.89714 1.09368
 C850 C 0.36701 0.92836 1.06461
 C851 C 0.39415 0.93314 1.06068
 H852 H 0.35495 0.89877 1.01619
 H853 H 0.32417 0.87126 0.97909
 H854 H 0.26835 0.86297 0.98739
 H855 H 0.24300 0.88187 1.03302
 H856 H 0.24935 0.93831 1.13205
 H857 H 0.28015 0.96568 1.16921
 H858 H 0.33611 0.97331 1.16122
 H859 H 0.36132 0.95502 1.11547
 C860 C 0.67177 1.05552 1.06470
 C861 C 0.68766 1.07479 1.04407
 C862 C 0.71986 1.07993 1.04784
 C863 C 0.73585 1.06582 1.07222
 C864 C 0.72068 1.04401 1.09064
 C865 C 0.68845 1.03895 1.08699
 C866 C 0.67369 1.01714 1.10573
 C867 C 0.69045 1.00039 1.12710
 C868 C 0.72201 1.00531 1.13062
 C869 C 0.73703 1.02704 1.11282
 C870 C 0.73531 1.09945 1.02718
 C871 C 0.71937 1.11343 1.00331
 C872 C 0.68781 1.10858 0.99974
 C873 C 0.67202 1.08945 1.01978
 C874 C 0.76648 1.07630 1.08062
 C875 C 0.79086 1.08638 1.08918
 C876 C 0.63834 1.05318 1.06333
 C877 C 0.61058 1.05140 1.06190
 H878 H 0.64923 1.01237 1.10362
 H879 H 0.67890 0.98344 1.14093
 H880 H 0.73494 0.99220 1.14721
 H881 H 0.76165 1.02996 1.11616
 H882 H 0.75987 1.10378 1.02908
 H883 H 0.73155 1.12815 0.98755
 H884 H 0.67550 1.11966 0.98132
 H885 H 0.64753 1.08614 1.01591
 C886 C 0.67220 0.93988 0.93840
 C887 C 0.68744 0.95528 0.91433
 C888 C 0.71935 0.94996 0.90895
 C889 C 0.73565 0.92909 0.92749
 C890 C 0.72125 0.91632 0.95353
 C891 C 0.68936 0.92174 0.95903
 C892 C 0.67531 0.90850 0.98502
 C893 C 0.69236 0.89045 1.00505
 C894 C 0.72361 0.88529 0.99976
 C895 C 0.73798 0.89790 0.97420
 C896 C 0.73424 0.96571 0.88491
 C897 C 0.71813 0.98653 0.86698
 C898 C 0.68688 0.99175 0.87224
 C899 C 0.67153 0.97618 0.89547
 C900 C 0.76563 0.91814 0.91768
 C901 C 0.78938 0.90776 0.90794
 C902 C 0.63890 0.94210 0.94139
 C903 C 0.61122 0.94399 0.94365
 H904 H 0.65114 0.91217 0.99024
 H905 H 0.68127 0.88049 1.02483
 H906 H 0.73679 0.87145 1.01553
 H907 H 0.76236 0.89342 0.97099
 H908 H 0.75858 0.96252 0.88018
 H909 H 0.72996 0.99870 0.84893
 H910 H 0.67448 1.00799 0.85831
 H911 H 0.64728 0.98116 0.89889
   
