data_POSCAR
  _audit_creation_date              2014-09-24
  _audit_creation_method            'ToBaCCo'
  _symmetry_space_group_name_H-M    'P1'
  _symmetry_Int_Tables_number       1
  _symmetry_cell_setting            triclinic
  loop_
  _symmetry_equiv_pos_as_xyz
 x,y,z
_cell_length_a 23.3204
_cell_length_b 23.3411
_cell_length_c 40.3606
_cell_angle_alpha 91.892500
_cell_angle_beta 90.550600
_cell_angle_gamma 85.703400
loop_
  _atom_site_label
  _atom_site_type_symbol
  _atom_site_fract_x
  _atom_site_fract_y
  _atom_site_fract_z
C1 C 0.01104 0.64538 1.00269
 C2 C 0.01375 0.61618 1.03269
 C3 C 0.00749 0.55666 1.03136
 C4 C -0.00494 0.52716 1.00138
 C5 C -0.00857 0.55840 0.97195
 C6 C 0.00189 0.61717 0.97191
 C7 C -0.01323 0.46380 1.00090
 C8 C -0.00372 0.42912 0.97180
 C9 C -0.01311 0.37044 0.97124
 C10 C -0.02790 0.34489 1.00053
 C11 C -0.03511 0.37750 1.03018
 C12 C -0.03018 0.43707 1.02980
 H13 H 0.01095 0.69169 1.00354
 H14 H 0.01482 0.53292 1.05370
 H15 H -0.01773 0.53641 0.94887
 H16 H 0.01092 0.44697 0.94931
 H17 H -0.03132 0.29884 1.00036
 H18 H -0.03980 0.46209 1.05233
 C19 C 0.34656 0.03675 0.49853
 C20 C 0.37504 0.03794 0.52919
 C21 C 0.43533 0.03575 0.53010
 C22 C 0.46789 0.02660 0.50073
 C23 C 0.43767 0.02295 0.47024
 C24 C 0.37742 0.03003 0.46895
 C25 C 0.53259 0.01793 0.50183
 C26 C 0.56556 0.02533 0.47332
 C27 C 0.62555 0.01197 0.47276
 C28 C 0.65266 -0.00621 0.50238
 C29 C 0.62199 -0.00980 0.53200
 C30 C 0.56186 0.00092 0.53109
 H31 H 0.29995 0.03941 0.49776
 H32 H 0.45604 0.03936 0.55403
 H33 H 0.46026 0.01413 0.44719
 H34 H 0.54484 0.04399 0.45180
 H35 H 0.69843 -0.01682 0.50269
 H36 H 0.53813 -0.00717 0.55305
 C37 C 0.08189 0.07877 0.27897
 H38 H 0.06054 0.11433 0.26625
 C39 C 0.12636 0.08903 0.30139
 H40 H 0.13874 0.13249 0.30556
 C41 C 0.09180 -0.02066 0.28956
 H42 H 0.07800 -0.06342 0.28502
 C43 C 0.13646 -0.01241 0.31200
 H44 H 0.15574 -0.04893 0.32501
 N45 N 0.06440 0.02476 0.27418
 C46 C -0.02902 -0.09623 0.21766
 H47 H -0.07110 -0.08687 0.22844
 C48 C -0.01965 -0.14230 0.19483
 H49 H -0.05493 -0.16812 0.18814
 C50 C 0.06650 -0.07048 0.21089
 H51 H 0.09923 -0.04106 0.21643
 C52 C 0.07781 -0.11611 0.18819
 H53 H 0.11988 -0.12219 0.17694
 Zn54 Zn -0.00216 0.00932 0.24868
 N55 N 0.01352 -0.06082 0.22462
 C56 C -0.02190 0.05177 0.18497
 N57 N -0.02153 0.06782 0.21770
 C58 C -0.03588 0.12332 0.22772
 C59 C -0.04993 0.16525 0.20436
 C60 C -0.03625 0.09197 0.16095
 C61 C -0.05411 -0.03259 0.30415
 C62 C -0.09319 -0.03193 0.33007
 C63 C -0.15429 0.03892 0.30153
 C64 C -0.11353 0.03743 0.27622
 N65 N -0.06370 0.00336 0.27853
 H66 H -0.01107 0.00763 0.17724
 H67 H -0.03691 0.13501 0.25387
 H68 H -0.06100 0.20925 0.21266
 H69 H -0.03530 0.07828 0.13505
 H70 H -0.01501 -0.06024 0.30521
 H71 H -0.08375 -0.05916 0.35095
 H72 H -0.19257 0.06805 0.30018
 H73 H -0.12096 0.06496 0.25539
 C74 C 0.03389 -0.15162 0.17905
 C75 C 0.15338 0.04321 0.31879
 C76 C -0.14315 0.00535 0.32938
 C77 C -0.05029 0.14956 0.17048
 C78 C -0.05285 0.08281 0.77507
 H79 H -0.08638 0.07365 0.75749
 C80 C -0.06157 0.12924 0.79770
 H81 H -0.10194 0.15537 0.79739
 C82 C 0.04021 0.06011 0.79723
 H83 H 0.07965 0.03271 0.79710
 C84 C 0.03358 0.10637 0.81998
 H85 H 0.06781 0.11365 0.83759
 N86 N -0.00309 0.04846 0.77581
 C87 C 0.10264 -0.06697 0.71232
 H88 H 0.08803 -0.10743 0.71985
 C89 C 0.14608 -0.06654 0.68883
 H90 H 0.16557 -0.10701 0.67892
 C91 C 0.09246 0.03492 0.71462
 H92 H 0.06974 0.07422 0.72385
 C93 C 0.13576 0.03731 0.69110
 H94 H 0.14614 0.07870 0.68245
 Zn95 Zn 0.00792 -0.01960 0.74894
 N96 N 0.07606 -0.01673 0.72416
 C97 C -0.04056 -0.03148 0.68559
 N98 N -0.05435 -0.02740 0.71829
 C99 C -0.10991 -0.02948 0.72812
 C100 C -0.15352 -0.03790 0.70471
 C101 C -0.08255 -0.03946 0.66152
 C102 C 0.06788 -0.09255 0.79328
 C103 C 0.07500 -0.13380 0.81752
 C104 C -0.02343 -0.15605 0.80843
 C105 C -0.02839 -0.11493 0.78398
 N106 N 0.01644 -0.08298 0.77751
 H107 H 0.00322 -0.02864 0.67783
 H108 H -0.12049 -0.02488 0.75414
 H109 H -0.19718 -0.04064 0.71304
 H110 H -0.07016 -0.04172 0.63570
 H111 H 0.10330 -0.06738 0.78745
 H112 H 0.11632 -0.14027 0.82982
 H113 H -0.06072 -0.17861 0.81432
 H114 H -0.06880 -0.10746 0.77115
 C115 C 0.16188 -0.01395 0.67716
 C116 C -0.01831 0.14086 0.82088
 C117 C 0.02843 -0.16507 0.82615
 C118 C -0.13984 -0.04374 0.67087
 C119 C -0.00390 -0.37109 0.09290
 C120 C 0.02036 -0.35310 0.06335
 C121 C 0.04861 -0.30157 0.06480
 C122 C 0.04869 -0.26699 0.09381
 C123 C 0.02137 -0.28405 0.12252
 C124 C -0.00354 -0.33686 0.12203
 C125 C 0.01821 -0.24731 0.15088
 C126 C 0.04197 -0.19362 0.15071
 C127 C 0.07067 -0.17819 0.12221
 C128 C 0.07423 -0.21458 0.09413
 H129 H 0.07098 -0.28793 0.04337
 H130 H -0.02445 -0.35088 0.14389
 H131 H -0.00347 -0.26001 0.17280
 H132 H 0.09545 -0.20088 0.07229
 H133 H -0.02674 -0.40973 0.09329
 H134 H 0.08858 -0.13682 0.12112
 C135 C -0.01180 0.36406 0.09035
 C136 C -0.04287 0.34826 0.06185
 C137 C -0.07617 0.30053 0.06286
 C138 C -0.07502 0.26660 0.09094
 C139 C -0.04150 0.28139 0.11888
 C140 C -0.01138 0.33113 0.11866
 C141 C -0.03636 0.24470 0.14582
 C142 C -0.06315 0.19268 0.14477
 C143 C -0.09834 0.17969 0.11748
 C144 C -0.10454 0.21649 0.09090
 H145 H -0.10111 0.28841 0.04129
 H146 H 0.01445 0.34323 0.13986
 H147 H -0.00882 0.25489 0.16665
 H148 H -0.13074 0.20467 0.06980
 H149 H 0.01463 0.40027 0.09022
 H150 H -0.12005 0.14024 0.11639
 C151 C 0.35057 0.07290 0.58745
 C152 C 0.34148 0.03589 0.56007
 C153 C 0.30022 -0.00466 0.56215
 C154 C 0.26774 -0.00787 0.59090
 C155 C 0.27611 0.03022 0.61818
 C156 C 0.31789 0.07031 0.61625
 C157 C 0.24227 0.02765 0.64669
 C158 C 0.20057 -0.01282 0.64822
 C159 C 0.19351 -0.05087 0.62100
 C160 C 0.22673 -0.04844 0.59265
 H161 H 0.29377 -0.03418 0.54135
 H162 H 0.32512 0.09974 0.63693
 H163 H 0.24831 0.05700 0.66759
 H164 H 0.21983 -0.07788 0.57192
 H165 H 0.38231 0.10435 0.58635
 H166 H 0.16102 -0.08166 0.62125
 C167 C -0.36684 0.00641 0.59225
 C168 C -0.34817 -0.02123 0.56217
 C169 C -0.29608 -0.05617 0.56245
 C170 C -0.26091 -0.05869 0.59075
 C171 C -0.27776 -0.02656 0.61974
 C172 C -0.33172 0.00422 0.62058
 C173 C -0.23936 -0.02393 0.64676
 C174 C -0.18428 -0.05305 0.64495
 C175 C -0.17007 -0.08831 0.61682
 C176 C -0.20787 -0.09096 0.58997
 H177 H -0.28220 -0.08116 0.54048
 H178 H -0.34580 0.02855 0.64274
 H179 H -0.25116 0.00322 0.66828
 H180 H -0.19476 -0.11676 0.56814
 H181 H -0.40639 0.03380 0.59340
 H182 H -0.12884 -0.11282 0.61518
 C183 C -0.02770 -0.36834 0.91326
 C184 C 0.00302 -0.35199 0.94202
 C185 C 0.03554 -0.30336 0.94032
 C186 C 0.03550 -0.27096 0.91175
 C187 C 0.00367 -0.28732 0.88359
 C188 C -0.02727 -0.33643 0.88449
 C189 C 0.00275 -0.25382 0.85524
 C190 C 0.03268 -0.20353 0.85494
 C191 C 0.06467 -0.18830 0.88320
 C192 C 0.06643 -0.22186 0.91116
 H193 H 0.06254 -0.29095 0.96091
 H194 H -0.05218 -0.34958 0.86313
 H195 H -0.02149 -0.26674 0.83357
 H196 H 0.09098 -0.20860 0.93265
 H197 H -0.05459 -0.40409 0.91304
 H198 H 0.08714 -0.14935 0.88417
 C199 C 0.04305 0.33441 0.92107
 C200 C -0.00695 0.33495 0.94022
 C201 C -0.05079 0.29981 0.93033
 C202 C -0.04430 0.26337 0.90211
 C203 C 0.00698 0.26156 0.88357
 C204 C 0.05009 0.29779 0.89302
 C205 C 0.01466 0.22272 0.85637
 C206 C -0.02842 0.18592 0.84737
 C207 C -0.07997 0.18960 0.86532
 C208 C -0.08780 0.22787 0.89249
 H209 H -0.08976 0.30061 0.94484
 H210 H 0.08956 0.29718 0.87903
 H211 H 0.05434 0.22056 0.84246
 H212 H -0.12744 0.22891 0.90636
 H213 H 0.07733 0.36113 0.92837
 H214 H -0.11347 0.16132 0.85905
 C215 C -0.36728 0.00896 0.41145
 C216 C -0.34198 0.01582 0.44323
 C217 C -0.28255 0.02429 0.44473
 C218 C -0.24900 0.02181 0.41608
 C219 C -0.27477 0.01321 0.38471
 C220 C -0.33413 0.00787 0.38266
 C221 C -0.24047 0.00912 0.35611
 C222 C -0.18060 0.01213 0.35884
 C223 C -0.15571 0.02140 0.39019
 C224 C -0.18960 0.02670 0.41851
 H225 H -0.26168 0.03384 0.46811
 H226 H -0.35474 0.00115 0.35881
 H227 H -0.25990 0.00198 0.33196
 H228 H -0.16915 0.03354 0.44239
 H229 H -0.41219 0.00111 0.40850
 H230 H -0.10978 0.02475 0.39273
 C231 C 0.35930 -0.01553 0.41298
 C232 C 0.34592 0.02841 0.43689
 C233 C 0.30028 0.06962 0.43084
 C234 C 0.26695 0.06586 0.40187
 C235 C 0.27942 0.02036 0.37847
 C236 C 0.32630 -0.01955 0.38399
 C237 C 0.24378 0.01460 0.35051
 C238 C 0.19550 0.05348 0.34576
 C239 C 0.18489 0.09974 0.36862
 C240 C 0.22032 0.10593 0.39638
 H241 H 0.29018 0.10410 0.44900
 H242 H 0.33660 -0.05462 0.36628
 H243 H 0.25284 -0.02083 0.33283
 H244 H 0.21027 0.14114 0.41405
 H245 H 0.39411 -0.04790 0.41722
 H246 H 0.14769 0.12988 0.36578
   
