data_POSCAR
  _audit_creation_date              2014-09-24
  _audit_creation_method            'ToBaCCo'
  _symmetry_space_group_name_H-M    'P1'
  _symmetry_Int_Tables_number       1
  _symmetry_cell_setting            triclinic
  loop_
  _symmetry_equiv_pos_as_xyz
 x,y,z
_cell_length_a 27.3134
_cell_length_b 28.2880
_cell_length_c 22.4464
_cell_angle_alpha 90.684100
_cell_angle_beta 90.678500
_cell_angle_gamma 88.162600
loop_
  _atom_site_label
  _atom_site_type_symbol
  _atom_site_fract_x
  _atom_site_fract_y
  _atom_site_fract_z
C1 C 1.21101 0.22997 0.20111
 C2 C 1.23867 0.25912 0.15594
 C3 C 1.27141 0.28849 0.18094
 C4 C 1.27552 0.28555 0.24953
 C5 C 1.25091 0.20443 0.23852
 C6 C 1.28448 0.23295 0.26482
 C7 C 1.18924 0.26856 0.24223
 C8 C 1.22264 0.29701 0.26937
 H9 H 1.22755 0.26346 0.10987
 H10 H 1.30472 0.30738 0.26872
 H11 H 1.25142 0.16652 0.24490
 H12 H 1.15012 0.27348 0.24846
 C13 C 0.71882 -0.29214 0.21073
 C14 C 0.74274 -0.25303 0.17456
 C15 C 0.76414 -0.21820 0.20820
 C16 C 0.75463 -0.22463 0.27661
 C17 C 0.75998 -0.30800 0.25256
 C18 C 0.77692 -0.27391 0.28891
 C19 C 0.68070 -0.26573 0.24836
 C20 C 0.69836 -0.23090 0.28332
 H21 H 0.74761 -0.25559 0.12711
 H22 H 0.77015 -0.19831 0.30770
 H23 H 0.77464 -0.34410 0.25371
 H24 H 0.64205 -0.27329 0.24609
 C25 C 0.71713 0.23642 -0.29654
 C26 C 0.74243 0.26778 -0.33645
 C27 C 0.77804 0.29708 -0.30755
 C28 C 0.77955 0.29079 -0.24222
 C29 C 0.75616 0.21087 -0.26476
 C30 C 0.79024 0.23980 -0.23291
 C31 C 0.69500 0.26918 -0.25371
 C32 C 0.72877 0.29867 -0.22306
 H33 H 0.72879 0.27685 -0.38044
 H34 H 0.80638 0.31366 -0.21966
 H35 H 0.75726 0.17259 -0.26192
 H36 H 0.65579 0.27262 -0.24679
 C37 C 1.22877 -0.28469 -0.30231
 C38 C 1.26523 -0.25020 -0.32489
 C39 C 1.28080 -0.21878 -0.28351
 C40 C 1.25803 -0.22487 -0.22089
 C41 C 1.25276 -0.30788 -0.24769
 C42 C 1.26900 -0.27691 -0.20610
 C43 C 1.18716 -0.25368 -0.27500
 C44 C 1.20149 -0.22423 -0.23027
 H45 H 1.27655 -0.24953 -0.37101
 H46 H 1.27125 -0.19971 -0.18641
 H47 H 1.25626 -0.34574 -0.24142
 H48 H 1.14885 -0.25789 -0.28593
 C49 C 0.20885 0.22907 0.80083
 C50 C 0.22827 0.26912 0.83495
 C51 C 0.25963 0.29945 0.80173
 C52 C 0.26557 0.28264 0.74003
 C53 C 0.18378 0.25285 0.74742
 C54 C 0.21271 0.28051 0.71540
 C55 C 0.25480 0.20323 0.77610
 C56 C 0.28441 0.23090 0.74387
 H57 H 0.21484 0.28004 0.87801
 H58 H 0.29078 0.30248 0.71225
 H59 H 0.14427 0.25402 0.74156
 H60 H 0.26228 0.16574 0.78216
 C61 C 0.71705 0.70342 0.79323
 C62 C 0.74192 0.74051 0.82651
 C63 C 0.76428 0.77535 0.78960
 C64 C 0.75364 0.76637 0.72436
 C65 C 0.68057 0.72987 0.75805
 C66 C 0.69927 0.76306 0.71681
 C67 C 0.75430 0.68526 0.75357
 C68 C 0.77279 0.71789 0.71309
 H69 H 0.74096 0.74467 0.87430
 H70 H 0.76976 0.79124 0.69356
 H71 H 0.64207 0.72905 0.76884
 H72 H 0.76867 0.64898 0.75546
 C73 C 0.71718 0.22805 0.30555
 C74 C 0.74440 0.26561 0.34251
 C75 C 0.77005 0.29605 0.30854
 C76 C 0.76951 0.28369 0.24126
 C77 C 0.68822 0.25771 0.26002
 C78 C 0.71525 0.28550 0.22566
 C79 C 0.75917 0.20261 0.27140
 C80 C 0.78531 0.23112 0.23604
 H81 H 0.74444 0.26821 0.39054
 H82 H 0.79109 0.30692 0.21278
 H83 H 0.64853 0.25828 0.25732
 H84 H 0.76643 0.16478 0.27357
 C85 C 0.22458 0.70992 0.29259
 C86 C 0.25447 0.74699 0.32614
 C87 C 0.27354 0.78019 0.29002
 C88 C 0.25916 0.77391 0.22267
 C89 C 0.18527 0.73934 0.25913
 C90 C 0.20234 0.77187 0.22150
 C91 C 0.26072 0.69079 0.24693
 C92 C 0.27683 0.72251 0.20792
 H93 H 0.26248 0.74664 0.37336
 H94 H 0.27281 0.80140 0.19286
 H95 H 0.14644 0.73396 0.26436
 H96 H 0.27133 0.65351 0.24430
 O97 O 1.07175 -0.06762 0.10743
 O98 O 1.02753 -0.11932 0.04983
 C99 C 1.06072 -0.10988 0.09065
 O100 O 0.90005 0.07244 0.10524
 O101 O 0.94688 0.12352 0.05317
 C102 C 0.91314 0.11443 0.09159
 O103 O 0.89964 -0.05626 0.10764
 O104 O 0.94011 -0.11377 0.05242
 C105 C 0.90955 -0.10015 0.09463
 O106 O 1.07827 0.06134 0.10617
 O107 O 1.03585 0.11806 0.05192
 C108 C 1.06887 0.10472 0.09111
 Zr109 Zr 1.04748 -0.00170 0.07487
 O110 O 1.04232 -0.00042 0.16878
 O111 O 1.12479 -0.01039 0.07793
 Zr112 Zr 0.92514 0.00625 0.07221
 O113 O 0.92179 0.01114 0.16606
 O114 O 0.84768 0.00591 0.06511
 O115 O 0.98490 -0.04066 0.08429
 O116 O 0.98789 0.04390 0.08551
 O117 O 1.07655 0.06339 -0.10302
 O118 O 1.03480 0.11975 -0.04754
 C119 C 1.06703 0.10690 -0.08738
 O120 O 0.89828 -0.05605 -0.11354
 O121 O 0.93914 -0.11358 -0.05922
 C122 C 0.90777 -0.10010 -0.10103
 O123 O 0.90118 0.07483 -0.10613
 O124 O 0.94852 0.12498 -0.05112
 C125 C 0.91517 0.11703 -0.09157
 O126 O 1.06532 -0.06423 -0.11636
 O127 O 1.02818 -0.11769 -0.05731
 C128 C 1.05880 -0.10689 -0.09931
 Zr129 Zr 1.04802 -0.00049 -0.07376
 O130 O 1.05898 0.00183 -0.16669
 O131 O 1.12487 -0.01097 -0.06309
 Zr132 Zr 0.92502 0.00697 -0.07619
 O133 O 0.92245 0.01212 -0.17001
 O134 O 0.84752 0.00728 -0.07239
 Zr135 Zr 0.98429 -0.07000 -0.00277
 Zr136 Zr 0.98909 0.07444 0.00057
 O137 O 0.98803 0.04440 -0.08566
 O138 O 0.98515 -0.03926 -0.08818
 O139 O 1.05914 0.04086 0.00162
 O140 O 0.91497 -0.03507 -0.00300
 O141 O 1.05547 -0.04341 -0.00068
 O142 O 0.91682 0.05021 -0.00116
 H143 H 0.98881 0.06464 0.12132
 H144 H 0.88555 -0.05469 -0.00352
 H145 H 0.98899 0.06519 -0.12078
 H146 H 1.08406 -0.06586 -0.00124
 H147 H 0.83612 0.03652 0.04830
 H148 H 0.83615 0.03795 -0.05499
 H149 H 0.94902 -0.00897 -0.18537
 H150 H 1.02676 0.00904 -0.18535
 H151 H 1.13910 0.01971 -0.05211
 H152 H 1.13840 0.01294 0.05071
 H153 H 1.07638 -0.00166 0.18458
 H154 H 0.95324 -0.00207 0.18162
 O155 O 1.07636 0.58734 0.60542
 O156 O 1.12914 0.54115 0.54930
 C157 C 1.11973 0.57521 0.58662
 O158 O 0.93139 0.42447 0.59572
 O159 O 0.87810 0.47409 0.54415
 C160 C 0.88789 0.43825 0.57925
 O161 O 1.06567 0.42114 0.60703
 O162 O 1.12363 0.45927 0.55427
 C163 C 1.11064 0.42866 0.59296
 O164 O 0.94316 0.60952 0.59115
 O165 O 0.88430 0.56668 0.54325
 C166 C 0.89836 0.60303 0.57480
 Zr167 Zr 1.00630 0.56749 0.57624
 O168 O 0.99774 0.55896 0.66906
 O169 O 1.01499 0.64009 0.59496
 Zr170 Zr 0.99919 0.45141 0.57489
 O171 O 0.99235 0.45963 0.66838
 O172 O 0.99882 0.37725 0.58504
 O173 O 1.04764 0.50573 0.58848
 O174 O 0.95793 0.51354 0.58479
 O175 O 0.94432 0.60540 0.40313
 O176 O 0.88417 0.56427 0.44744
 C177 C 0.89891 0.59869 0.41457
 O178 O 1.06753 0.42003 0.39381
 O179 O 1.12409 0.45810 0.45180
 C180 C 1.11202 0.42773 0.41105
 O181 O 0.93206 0.42858 0.39467
 O182 O 0.87824 0.47767 0.44492
 C183 C 0.88799 0.44323 0.40747
 O184 O 1.07703 0.58498 0.39548
 O185 O 1.12907 0.53888 0.45288
 C186 C 1.12013 0.57021 0.41244
 Zr187 Zr 1.00784 0.56680 0.42476
 O188 O 1.00088 0.56132 0.33082
 O189 O 1.01747 0.64029 0.41634
 Zr190 Zr 1.00079 0.45020 0.42385
 O191 O 0.99685 0.45330 0.32965
 O192 O 1.00061 0.37538 0.41992
 Zr193 Zr 1.07692 0.50290 0.50172
 Zr194 Zr 0.92939 0.51569 0.49737
 O195 O 0.96066 0.51250 0.41216
 O196 O 1.04894 0.50462 0.41379
 O197 O 0.96546 0.58045 0.49910
 O198 O 1.04154 0.43791 0.50049
 O199 O 1.04905 0.57313 0.50138
 O200 O 0.95634 0.44497 0.49780
 H201 H 0.93362 0.51608 0.61722
 H202 H 1.06108 0.40778 0.50074
 H203 H 0.93820 0.51502 0.37725
 H204 H 1.07074 0.60050 0.50070
 H205 H 0.99571 0.36348 0.54458
 H206 H 0.97495 0.36504 0.44720
 H207 H 1.02808 0.46565 0.31547
 H208 H 1.03226 0.54819 0.31526
 H209 H 1.00793 0.65502 0.45486
 H210 H 1.01994 0.65534 0.55617
 H211 H 1.03095 0.55507 0.68681
 H212 H 1.02512 0.46650 0.68501
 O213 O 0.58053 -0.06263 0.60815
 O214 O 0.53281 -0.11317 0.55371
 C215 C 0.56813 -0.10480 0.59206
 O216 O 0.40915 0.07956 0.61794
 O217 O 0.45345 0.13084 0.56294
 C218 C 0.42209 0.12162 0.60463
 O219 O 0.40191 -0.04806 0.61476
 O220 O 0.44206 -0.10593 0.55934
 C221 C 0.40966 -0.09173 0.59901
 O222 O 0.58874 0.06677 0.60539
 O223 O 0.54338 0.12447 0.55609
 C224 C 0.57860 0.11049 0.59209
 Zr225 Zr 0.55350 0.00437 0.58023
 O226 O 0.54744 0.00882 0.67423
 O227 O 0.63051 -0.00221 0.58956
 Zr228 Zr 0.43214 0.01375 0.58270
 O229 O 0.43818 0.01599 0.67691
 O230 O 0.35465 0.01848 0.58526
 O231 O 0.49102 -0.03452 0.59248
 O232 O 0.49532 0.05107 0.59260
 O233 O 0.58153 0.06806 0.40371
 O234 O 0.53980 0.12558 0.45770
 C235 C 0.57219 0.11183 0.41843
 O236 O 0.39690 -0.04825 0.39996
 O237 O 0.43971 -0.10611 0.45184
 C238 C 0.40541 -0.09206 0.41398
 O239 O 0.40204 0.08012 0.40424
 O240 O 0.45150 0.13114 0.45506
 C241 C 0.41690 0.12222 0.41603
 O242 O 0.57416 -0.06067 0.39734
 O243 O 0.52847 -0.11210 0.44949
 C244 C 0.56218 -0.10309 0.41057
 Zr245 Zr 0.55002 0.00509 0.43059
 O246 O 0.54430 0.00853 0.33651
 O247 O 0.62717 -0.00359 0.42565
 Zr248 Zr 0.42881 0.01382 0.43250
 O249 O 0.43671 0.01311 0.33894
 O250 O 0.35172 0.02005 0.42523
 Zr251 Zr 0.48761 -0.06317 0.50522
 Zr252 Zr 0.49416 0.08137 0.50748
 O253 O 0.49111 0.05151 0.42123
 O254 O 0.48711 -0.03390 0.41918
 O255 O 0.56352 0.04608 0.50583
 O256 O 0.41940 -0.02647 0.50715
 O257 O 0.55903 -0.03692 0.50429
 O258 O 0.42210 0.05704 0.50848
 H259 H 0.49820 0.07220 0.62771
 H260 H 0.38898 -0.04424 0.50725
 H261 H 0.49177 0.07248 0.38624
 H262 H 0.58817 -0.05861 0.50264
 H263 H 0.34341 0.04628 0.56184
 H264 H 0.33923 0.02289 0.46624
 H265 H 0.40319 0.01676 0.32189
 H266 H 0.52536 -0.01872 0.32223
 H267 H 0.64164 0.01798 0.45558
 H268 H 0.64367 -0.00917 0.54951
 H269 H 0.54008 -0.02297 0.68901
 H270 H 0.45382 -0.01414 0.69031
 O271 O 0.57079 0.57890 0.10692
 O272 O 0.62308 0.53098 0.05198
 C273 C 0.61387 0.56367 0.09140
 O274 O 0.42384 0.42306 0.09757
 O275 O 0.37120 0.46964 0.04163
 C276 C 0.38074 0.43434 0.07735
 O277 O 0.55660 0.41274 0.10548
 O278 O 0.61580 0.44762 0.05071
 C279 C 0.60138 0.41692 0.08884
 O280 O 0.43890 0.60479 0.08815
 O281 O 0.37889 0.56281 0.04138
 C282 C 0.39394 0.59954 0.07130
 Zr283 Zr 0.50145 0.56150 0.07454
 O284 O 0.49161 0.55503 0.16751
 O285 O 0.51306 0.63393 0.09169
 Zr286 Zr 0.49213 0.44624 0.07388
 O287 O 0.49123 0.45779 0.16698
 O288 O 0.48612 0.37290 0.08647
 O289 O 0.54182 0.49902 0.08683
 O290 O 0.45188 0.50873 0.08381
 O291 O 0.43851 0.60078 -0.09613
 O292 O 0.37871 0.55947 -0.05208
 C293 C 0.39305 0.59496 -0.08275
 O294 O 0.55974 0.41210 -0.10807
 O295 O 0.61732 0.44985 -0.05098
 C296 C 0.60455 0.41892 -0.09086
 O297 O 0.42412 0.42074 -0.10381
 O298 O 0.37168 0.47182 -0.05329
 C299 C 0.38081 0.43626 -0.08916
 O300 O 0.57232 0.57781 -0.10578
 O301 O 0.62403 0.53099 -0.04855
 C302 C 0.61541 0.56263 -0.08892
 Zr303 Zr 0.50261 0.56064 -0.07676
 O304 O 0.49552 0.55543 -0.17065
 O305 O 0.51358 0.63383 -0.08570
 Zr306 Zr 0.49341 0.44452 -0.07808
 O307 O 0.49214 0.45366 -0.17134
 O308 O 0.49081 0.37030 -0.08902
 Zr309 Zr 0.57111 0.49522 0.00010
 Zr310 Zr 0.42344 0.51079 -0.00351
 O311 O 0.45391 0.50725 -0.08918
 O312 O 0.54280 0.49780 -0.08781
 O313 O 0.46088 0.57490 -0.00232
 O314 O 0.53348 0.43169 -0.00128
 O315 O 0.54474 0.56593 -0.00007
 O316 O 0.44963 0.43993 -0.00327
 H317 H 0.42761 0.51183 0.11626
 H318 H 0.55181 0.40122 -0.00205
 H319 H 0.43086 0.51002 -0.12345
 H320 H 0.56787 0.59219 0.00043
 H321 H 0.47918 0.35910 0.04675
 H322 H 0.47712 0.35796 -0.05197
 H323 H 0.48868 0.42165 -0.18895
 H324 H 0.52550 0.53897 -0.18566
 H325 H 0.50504 0.64873 -0.04694
 H326 H 0.52183 0.64808 0.05334
 H327 H 0.52348 0.54445 0.18506
 H328 H 0.48776 0.42629 0.18498
 C329 C 1.13590 0.17567 0.21044
 C330 C 1.17287 0.19614 0.17510
 C331 C 1.17446 0.18371 0.11412
 C332 C 1.13892 0.15619 0.08753
 C333 C 1.09983 0.14013 0.12008
 C334 C 1.09817 0.14931 0.18212
 C335 C 1.13605 0.17933 0.27338
 C336 C 1.09848 0.16094 0.30669
 C337 C 1.06038 0.13776 0.27848
 C338 C 1.06027 0.13158 0.21686
 H339 H 1.16544 0.19539 0.29801
 H340 H 1.09908 0.16454 0.35476
 H341 H 1.03119 0.12379 0.30458
 H342 H 1.03038 0.11271 0.19668
 H343 H 1.20439 0.19343 0.08629
 H344 H 1.14349 0.14516 0.04161
 C345 C 1.23514 0.63513 0.64095
 C346 C 1.21286 0.68081 0.64960
 C347 C 1.17041 0.69228 0.61703
 C348 C 1.14265 0.65675 0.59357
 C349 C 1.15744 0.60920 0.60042
 C350 C 1.20615 0.59800 0.61817
 C351 C 1.28520 0.62580 0.65344
 C352 C 1.30555 0.58029 0.64627
 C353 C 1.27643 0.54348 0.62688
 C354 C 1.22688 0.55185 0.61381
 H355 H 1.30901 0.65381 0.66740
 H356 H 1.34411 0.57357 0.65558
 H357 H 1.29258 0.50847 0.62066
 H358 H 1.20585 0.52226 0.59868
 H359 H 1.15598 0.72832 0.61471
 H360 H 1.10773 0.66653 0.57316
 C361 C 0.64817 0.17797 0.71239
 C362 C 0.68164 0.20392 0.67689
 C363 C 0.68077 0.19501 0.61473
 C364 C 0.64623 0.16606 0.58817
 C365 C 0.60988 0.14573 0.62146
 C366 C 0.61082 0.15121 0.68408
 C367 C 0.65170 0.17626 0.77539
 C368 C 0.61764 0.15287 0.80904
 C369 C 0.57943 0.12997 0.78115
 C370 C 0.57614 0.12876 0.71935
 H371 H 0.68142 0.19157 0.79967
 H372 H 0.62113 0.15211 0.85705
 H373 H 0.55297 0.11198 0.80746
 H374 H 0.54664 0.10944 0.69946
 H375 H 0.70823 0.20843 0.58571
 H376 H 0.64967 0.15733 0.54149
 C377 C 0.68248 0.62417 0.21141
 C378 C 0.69685 0.66528 0.17940
 C379 C 0.68810 0.66691 0.11778
 C380 C 0.66589 0.63013 0.08823
 C381 C 0.65355 0.58945 0.11811
 C382 C 0.66330 0.58522 0.17934
 C383 C 0.68451 0.62105 0.27447
 C384 C 0.67195 0.57999 0.30367
 C385 C 0.65586 0.54123 0.27130
 C386 C 0.65092 0.54387 0.20969
 H387 H 0.69506 0.64995 0.30268
 H388 H 0.67449 0.57840 0.35178
 H389 H 0.64621 0.50939 0.29409
 H390 H 0.63713 0.51347 0.18578
 H391 H 0.69430 0.69811 0.09221
 H392 H 0.65316 0.63589 0.04312
 C393 C 0.81764 -0.14383 0.20754
 C394 C 0.80319 -0.18739 0.18162
 C395 C 0.82977 -0.20389 0.13093
 C396 C 0.86601 -0.17720 0.10436
 C397 C 0.88100 -0.13481 0.13028
 C398 C 0.86007 -0.12123 0.18623
 C399 C 0.79061 -0.12096 0.25323
 C400 C 0.80926 -0.08252 0.28447
 C401 C 0.85499 -0.06589 0.27033
 C402 C 0.88021 -0.08500 0.22165
 H403 H 0.75448 -0.13170 0.26429
 H404 H 0.78851 -0.06610 0.32038
 H405 H 0.87042 -0.03735 0.29620
 H406 H 0.91595 -0.07185 0.21231
 H407 H 0.82248 -0.23763 0.11025
 H408 H 0.88166 -0.18945 0.06260
 C409 C 0.82033 0.32488 0.60112
 C410 C 0.80367 0.33199 0.66093
 C411 C 0.81252 0.37588 0.68876
 C412 C 0.83410 0.41258 0.65865
 C413 C 0.84930 0.40690 0.59979
 C414 C 0.84253 0.36270 0.57071
 C415 C 0.82072 0.27973 0.57278
 C416 C 0.83763 0.27322 0.51484
 C417 C 0.85736 0.31057 0.48484
 C418 C 0.86104 0.35435 0.51303
 H419 H 0.81024 0.24827 0.59540
 H420 H 0.83679 0.23861 0.49382
 H421 H 0.87142 0.30520 0.44028
 H422 H 0.87931 0.38150 0.48975
 H423 H 0.80264 0.38270 0.73440
 H424 H 0.84182 0.44490 0.68294
 C425 C 0.29314 -0.14305 0.66280
 C426 C 0.31311 -0.18088 0.69681
 C427 C 0.36397 -0.18996 0.69617
 C428 C 0.39496 -0.16211 0.66281
 C429 C 0.37594 -0.12537 0.62715
 C430 C 0.32421 -0.11616 0.62656
 C431 C 0.24221 -0.13244 0.66269
 C432 C 0.22203 -0.09683 0.62691
 C433 C 0.25191 -0.07165 0.58999
 C434 C 0.30224 -0.08141 0.58934
 H435 H 0.21760 -0.15141 0.69040
 H436 H 0.18296 -0.08910 0.62737
 H437 H 0.23602 -0.04446 0.56156
 H438 H 0.32340 -0.06202 0.55859
 H439 H 0.37971 -0.21982 0.72025
 H440 H 0.43402 -0.16906 0.66549
 C441 C 0.26906 0.37201 0.13812
 C442 C 0.29223 0.32660 0.14593
 C443 C 0.33712 0.31661 0.11977
 C444 C 0.36163 0.35184 0.09176
 C445 C 0.34393 0.39921 0.09246
 C446 C 0.29614 0.40944 0.11353
 C447 C 0.22026 0.38140 0.15547
 C448 C 0.19962 0.42710 0.15223
 C449 C 0.22705 0.46407 0.13146
 C450 C 0.27493 0.45549 0.11213
 H451 H 0.19799 0.35377 0.17232
 H452 H 0.16237 0.43400 0.16668
 H453 H 0.21099 0.49954 0.12992
 H454 H 0.29474 0.48505 0.09582
 H455 H 0.35401 0.28148 0.12238
 H456 H 0.39673 0.34226 0.07255
 C457 C 0.84320 0.23210 -0.13817
 C458 C 0.82826 0.21778 -0.19714
 C459 C 0.84968 0.17562 -0.22025
 C460 C 0.87984 0.14600 -0.18620
 C461 C 0.89200 0.15692 -0.12701
 C462 C 0.87694 0.20231 -0.10414
 C463 C 0.82292 0.27282 -0.10955
 C464 C 0.83844 0.28676 -0.05290
 C465 C 0.87392 0.26013 -0.02252
 C466 C 0.89267 0.21814 -0.04736
 H467 H 0.79404 0.29399 -0.12896
 H468 H 0.82252 0.31834 -0.03226
 H469 H 0.88590 0.27126 0.02146
 H470 H 0.91899 0.19851 -0.02070
 H471 H 0.84198 0.16429 -0.26561
 H472 H 0.89270 0.11294 -0.20635
 C473 C 0.79688 0.69392 0.38852
 C474 C 0.81341 0.71240 0.33448
 C475 C 0.85811 0.69621 0.31189
 C476 C 0.88293 0.65812 0.33748
 C477 C 0.86481 0.63495 0.38770
 C478 C 0.82049 0.65285 0.41347
 C479 C 0.75609 0.71505 0.41702
 C480 C 0.73634 0.69444 0.46694
 C481 C 0.75605 0.65184 0.48788
 C482 C 0.79811 0.63145 0.46219
 H483 H 0.73989 0.74797 0.40102
 H484 H 0.70511 0.71106 0.48887
 H485 H 0.73891 0.63479 0.52475
 H486 H 0.81153 0.59860 0.48052
 H487 H 0.87099 0.70946 0.26993
 H488 H 0.91637 0.64576 0.31601
 C489 C 0.33908 0.23058 0.36160
 C490 C 0.32538 0.21288 0.30385
 C491 C 0.34982 0.17187 0.28275
 C492 C 0.38248 0.14603 0.31856
 C493 C 0.39312 0.15980 0.37757
 C494 C 0.37421 0.20438 0.39784
 C495 C 0.31807 0.27277 0.38549
 C496 C 0.33412 0.29112 0.43995
 C497 C 0.36905 0.26648 0.47382
 C498 C 0.38836 0.22315 0.45362
 H499 H 0.28915 0.29222 0.36316
 H500 H 0.31890 0.32449 0.45638
 H501 H 0.38085 0.28078 0.51639
 H502 H 0.41520 0.20536 0.48172
 H503 H 0.34199 0.15827 0.23843
 H504 H 0.39791 0.11318 0.30052
 C505 C 0.27737 0.67443 -0.11457
 C506 C 0.29816 0.70510 -0.15568
 C507 C 0.34844 0.70433 -0.16319
 C508 C 0.37755 0.66924 -0.13730
 C509 C 0.35763 0.63333 -0.10254
 C510 C 0.30668 0.63750 -0.08792
 C511 C 0.22730 0.67972 -0.10090
 C512 C 0.20569 0.64923 -0.06165
 C513 C 0.23352 0.61281 -0.03583
 C514 C 0.28322 0.60674 -0.04873
 H515 H 0.20513 0.70843 -0.11934
 H516 H 0.16728 0.65402 -0.05103
 H517 H 0.21657 0.58919 -0.00518
 H518 H 0.30172 0.57806 -0.02627
 H519 H 0.36474 0.72778 -0.19463
 H520 H 0.41609 0.66920 -0.14803
 C521 C 1.12112 -0.21974 -0.16946
 C522 C 1.16511 -0.19929 -0.19033
 C523 C 1.17374 -0.15243 -0.17547
 C524 C 1.13929 -0.12501 -0.14456
 C525 C 1.09344 -0.14236 -0.12813
 C526 C 1.08429 -0.19058 -0.14029
 C527 C 1.11323 -0.26872 -0.17524
 C528 C 1.06937 -0.28781 -0.15754
 C529 C 1.03245 -0.25880 -0.13345
 C530 C 1.03966 -0.21067 -0.12474
 H531 H 1.14102 -0.29313 -0.19222
 H532 H 1.06395 -0.32538 -0.16277
 H533 H 0.99818 -0.27379 -0.12074
 H534 H 1.00980 -0.18980 -0.10597
 H535 H 1.20701 -0.13615 -0.18950
 H536 H 1.14873 -0.08888 -0.13448
 C537 C 1.21923 0.38084 0.31779
 C538 C 1.20628 0.33229 0.31529
 C539 C 1.17026 0.31678 0.35389
 C540 C 1.14181 0.34850 0.38649
 C541 C 1.15005 0.39679 0.38458
 C542 C 1.19068 0.41331 0.35336
 C543 C 1.25818 0.39877 0.28503
 C544 C 1.26887 0.44661 0.28714
 C545 C 1.24102 0.47792 0.32185
 C546 C 1.20224 0.46156 0.35461
 H547 H 1.28068 0.37707 0.25669
 H548 H 1.29876 0.45948 0.26124
 H549 H 1.24931 0.51509 0.32317
 H550 H 1.18170 0.48714 0.38083
 H551 H 1.16152 0.27971 0.35572
 H552 H 1.11192 0.33525 0.41221
 C553 C 0.63491 -0.21923 0.36678
 C554 C 0.66382 -0.20108 0.32013
 C555 C 0.65405 -0.15510 0.30138
 C556 C 0.61886 -0.12637 0.32916
 C557 C 0.59235 -0.14123 0.37903
 C558 C 0.60022 -0.18891 0.39796
 C559 C 0.63989 -0.26708 0.38327
 C560 C 0.61335 -0.28476 0.43015
 C561 C 0.58177 -0.25506 0.46232
 C562 C 0.57516 -0.20775 0.44670
 H563 H 0.66490 -0.29118 0.36076
 H564 H 0.61809 -0.32156 0.44231
 H565 H 0.56201 -0.26881 0.49955
 H566 H 0.54995 -0.18727 0.47359
 H567 H 0.67242 -0.14164 0.26296
 H568 H 0.61312 -0.09123 0.31122
 C569 C 0.68176 0.30942 -0.13282
 C570 C 0.71210 0.32839 -0.17650
 C571 C 0.71235 0.37762 -0.18311
 C572 C 0.67905 0.40698 -0.15199
 C573 C 0.64313 0.38753 -0.11643
 C574 C 0.64435 0.33813 -0.10649
 C575 C 0.68741 0.26159 -0.11625
 C576 C 0.65288 0.24089 -0.08080
 C577 C 0.61246 0.26751 -0.06141
 C578 C 0.60890 0.31602 -0.07213
 H579 H 0.71835 0.24001 -0.13143
 H580 H 0.65692 0.20389 -0.06949
 H581 H 0.58402 0.25043 -0.03762
 H582 H 0.57792 0.33551 -0.05418
 H583 H 0.73446 0.39335 -0.21650
 H584 H 0.67869 0.44475 -0.15961
 C585 C 1.14656 0.16139 -0.20493
 C586 C 1.17215 0.19584 -0.16991
 C587 C 1.15822 0.20218 -0.10978
 C588 C 1.12088 0.17637 -0.08492
 C589 C 1.09610 0.14262 -0.11839
 C590 C 1.10682 0.13719 -0.17973
 C591 C 1.15860 0.15078 -0.26512
 C592 C 1.13071 0.12035 -0.29984
 C593 C 1.08987 0.09996 -0.27618
 C594 C 1.07778 0.10842 -0.21695
 H595 H 1.18925 0.16571 -0.28701
 H596 H 1.14039 0.11327 -0.34580
 H597 H 1.06746 0.07742 -0.30380
 H598 H 1.04481 0.09304 -0.20084
 H599 H 1.17627 0.22658 -0.08035
 H600 H 1.11219 0.18197 -0.03851
 C601 C 1.17847 0.63180 0.29022
 C602 C 1.20243 0.66823 0.32391
 C603 C 1.20686 0.66365 0.38611
 C604 C 1.18543 0.62662 0.41523
 C605 C 1.16016 0.59257 0.38295
 C606 C 1.15982 0.59273 0.32038
 C607 C 1.17130 0.63335 0.22742
 C608 C 1.15033 0.59618 0.19594
 C609 C 1.13443 0.55705 0.22593
 C610 C 1.13831 0.55556 0.28765
 H611 H 1.18107 0.66300 0.20113
 H612 H 1.14615 0.59797 0.14799
 H613 H 1.11816 0.52822 0.20144
 H614 H 1.12437 0.52505 0.30977
 H615 H 1.22453 0.68978 0.41346
 H616 H 1.18493 0.62687 0.46352
 C617 C 0.65310 0.16205 0.30009
 C618 C 0.68033 0.19550 0.33495
 C619 C 0.66456 0.20527 0.39365
 C620 C 0.62589 0.18146 0.41869
 C621 C 0.60162 0.14661 0.38664
 C622 C 0.61252 0.13954 0.32569
 C623 C 0.66355 0.15146 0.23947
 C624 C 0.63423 0.12201 0.20520
 C625 C 0.59328 0.10255 0.22972
 C626 C 0.58225 0.11139 0.28914
 H627 H 0.69369 0.16575 0.21644
 H628 H 0.64287 0.11505 0.15890
 H629 H 0.56979 0.08074 0.20253
 H630 H 0.54889 0.09713 0.30580
 H631 H 0.68110 0.23218 0.42088
 H632 H 0.61514 0.19002 0.46373
 C633 C 0.67324 0.62538 -0.21118
 C634 C 0.69631 0.66278 -0.17716
 C635 C 0.70328 0.65556 -0.11542
 C636 C 0.68333 0.61717 -0.08720
 C637 C 0.65564 0.58484 -0.11904
 C638 C 0.65414 0.58623 -0.18133
 C639 C 0.66881 0.62522 -0.27425
 C640 C 0.64695 0.58863 -0.30580
 C641 C 0.62889 0.55053 -0.27576
 C642 C 0.63244 0.54915 -0.21407
 H643 H 0.68258 0.65272 -0.30081
 H644 H 0.64441 0.58976 -0.35394
 H645 H 0.61225 0.52193 -0.30030
 H646 H 0.61864 0.51855 -0.19192
 H647 H 0.72343 0.67949 -0.08748
 H648 H 0.68707 0.61429 -0.03960
 C649 C 0.81252 -0.14942 -0.21182
 C650 C 0.79992 -0.19275 -0.18533
 C651 C 0.82647 -0.20545 -0.13267
 C652 C 0.86303 -0.17705 -0.10760
 C653 C 0.87740 -0.13569 -0.13538
 C654 C 0.85450 -0.12448 -0.19128
 C655 C 0.78208 -0.12759 -0.25499
 C656 C 0.79765 -0.08900 -0.28694
 C657 C 0.84343 -0.07070 -0.27489
 C658 C 0.87150 -0.08795 -0.22712
 H659 H 0.74526 -0.13905 -0.26181
 H660 H 0.77427 -0.07348 -0.32123
 H661 H 0.85643 -0.04190 -0.30113
 H662 H 0.90676 -0.07298 -0.21883
 H663 H 0.81967 -0.23809 -0.11007
 H664 H 0.87953 -0.18723 -0.06535
 C665 C 0.77263 0.37065 0.37561
 C666 C 0.79365 0.33921 0.33208
 C667 C 0.83848 0.34986 0.30760
 C668 C 0.86436 0.38793 0.32813
 C669 C 0.84877 0.41539 0.37754
 C670 C 0.80094 0.40831 0.40007
 C671 C 0.72385 0.36628 0.39449
 C672 C 0.70453 0.39532 0.43945
 C673 C 0.73276 0.43006 0.46553
 C674 C 0.78014 0.43700 0.44583
 H675 H 0.69957 0.34135 0.37395
 H676 H 0.66722 0.39114 0.45375
 H677 H 0.71741 0.45261 0.50035
 H678 H 0.79878 0.46589 0.46637
 H679 H 0.85500 0.32749 0.27335
 H680 H 0.89931 0.39345 0.30739
 C681 C 0.28728 -0.14531 0.35025
 C682 C 0.30662 -0.18376 0.31623
 C683 C 0.35749 -0.19335 0.31821
 C684 C 0.38912 -0.16484 0.35183
 C685 C 0.37086 -0.12636 0.38582
 C686 C 0.31908 -0.11728 0.38613
 C687 C 0.23637 -0.13467 0.35009
 C688 C 0.21685 -0.09808 0.38538
 C689 C 0.24740 -0.07185 0.42196
 C690 C 0.29776 -0.08152 0.42281
 H691 H 0.21126 -0.15445 0.32260
 H692 H 0.17778 -0.09037 0.38480
 H693 H 0.23198 -0.04391 0.44999
 H694 H 0.31953 -0.06130 0.45338
 H695 H 0.37279 -0.22382 0.29448
 H696 H 0.42821 -0.17254 0.35062
 C697 C 0.29831 0.38037 -0.20545
 C698 C 0.28188 0.34048 -0.17250
 C699 C 0.29129 0.34064 -0.11038
 C700 C 0.31959 0.37489 -0.08286
 C701 C 0.34024 0.41032 -0.11599
 C702 C 0.32925 0.41391 -0.17719
 C703 C 0.28323 0.39002 -0.26451
 C704 C 0.30243 0.42658 -0.29691
 C705 C 0.33563 0.45657 -0.27038
 C706 C 0.34829 0.45101 -0.21071
 H707 H 0.25544 0.37092 -0.28631
 H708 H 0.29086 0.43176 -0.34268
 H709 H 0.35054 0.48507 -0.29548
 H710 H 0.37232 0.47658 -0.19084
 H711 H 0.28045 0.31193 -0.08258
 H712 H 0.32862 0.37144 -0.03595
 C713 C 1.16478 -0.20163 0.12074
 C714 C 1.16693 -0.19909 0.18407
 C715 C 1.13030 -0.17234 0.21366
 C716 C 1.09368 -0.14714 0.18233
 C717 C 1.09139 -0.14790 0.11982
 C718 C 1.12719 -0.17570 0.08853
 C719 C 1.19895 -0.22965 0.08840
 C720 C 1.19781 -0.23117 0.02639
 C721 C 1.16235 -0.20497 -0.00483
 C722 C 1.12732 -0.17751 0.02572
 H723 H 1.22677 -0.25054 0.11052
 H724 H 1.22475 -0.25265 0.00249
 H725 H 1.16203 -0.20612 -0.05294
 H726 H 1.10028 -0.15812 -0.00025
 H727 H 1.13036 -0.17045 0.26191
 H728 H 1.06772 -0.12523 0.20732
 C729 C 1.19710 0.32441 0.61977
 C730 C 1.18937 0.31903 0.68109
 C731 C 1.16203 0.35344 0.71279
 C732 C 1.14117 0.39215 0.68396
 C733 C 1.14771 0.39823 0.62284
 C734 C 1.17884 0.36593 0.59095
 C735 C 1.22093 0.28851 0.58607
 C736 C 1.23147 0.29545 0.52641
 C737 C 1.21840 0.33821 0.49967
 C738 C 1.19129 0.37276 0.53102
 H739 H 1.23016 0.25454 0.60533
 H740 H 1.25005 0.26766 0.50107
 H741 H 1.22869 0.34430 0.45413
 H742 H 1.18172 0.40508 0.50847
 H743 H 1.15654 0.35001 0.76027
 H744 H 1.11759 0.41646 0.70905
 C745 C 0.61748 -0.22280 0.66085
 C746 C 0.66730 -0.21052 0.67557
 C747 C 0.68340 -0.16904 0.64891
 C748 C 0.65074 -0.13661 0.62166
 C749 C 0.60023 -0.14430 0.61689
 C750 C 0.58350 -0.18857 0.63523
 C751 C 0.60124 -0.26944 0.66556
 C752 C 0.55249 -0.28057 0.65570
 C753 C 0.51857 -0.24565 0.63869
 C754 C 0.53389 -0.20018 0.62779
 H755 H 0.62631 -0.29826 0.67397
 H756 H 0.54113 -0.31660 0.66079
 H757 H 0.48056 -0.25421 0.63178
 H758 H 0.50646 -0.17482 0.61265
 H759 H 0.72125 -0.15982 0.64960
 H760 H 0.66542 -0.10439 0.60456
 C761 C 0.65495 0.29952 0.14199
 C762 C 0.69263 0.31619 0.17978
 C763 C 0.70506 0.36386 0.17829
 C764 C 0.67750 0.39603 0.14417
 C765 C 0.63636 0.38122 0.11230
 C766 C 0.62546 0.33238 0.10974
 C767 C 0.64547 0.25075 0.13629
 C768 C 0.60441 0.23526 0.10565
 C769 C 0.57349 0.26780 0.07731
 C770 C 0.58531 0.31529 0.07663
 H771 H 0.66964 0.22416 0.15537
 H772 H 0.59687 0.19794 0.10346
 H773 H 0.54142 0.25594 0.05337
 H774 H 0.56297 0.33795 0.04920
 H775 H 0.73416 0.37687 0.20664
 H776 H 0.68598 0.43317 0.14644
 C777 C 0.81135 0.20372 0.13177
 C778 C 0.82236 0.21123 0.19328
 C779 C 0.86638 0.19200 0.21661
 C780 C 0.89799 0.16413 0.18121
 C781 C 0.88588 0.15348 0.12180
 C782 C 0.84208 0.17291 0.09679
 C783 C 0.76952 0.22457 0.10448
 C784 C 0.75636 0.21354 0.04588
 C785 C 0.78462 0.18107 0.01315
 C786 C 0.82710 0.16079 0.03823
 H787 H 0.74730 0.25020 0.12764
 H788 H 0.72396 0.23011 0.02595
 H789 H 0.77411 0.17222 -0.03218
 H790 H 0.84847 0.13619 0.01103
 H791 H 0.87529 0.19686 0.26340
 H792 H 0.93062 0.14817 0.20146
 C793 C 0.84534 0.71672 0.64486
 C794 C 0.80006 0.69935 0.66433
 C795 C 0.78481 0.65566 0.64024
 C796 C 0.81593 0.62573 0.60857
 C797 C 0.86213 0.64003 0.59381
 C798 C 0.87478 0.68782 0.60563
 C799 C 0.86439 0.75972 0.66594
 C800 C 0.90738 0.77687 0.64262
 C801 C 0.93264 0.75128 0.59876
 C802 C 0.91671 0.70703 0.58053
 H803 H 0.84738 0.78022 0.70105
 H804 H 0.92098 0.81035 0.65842
 H805 H 0.96527 0.76532 0.57968
 H806 H 0.93695 0.68825 0.54603
 H807 H 0.74955 0.64204 0.65024
 H808 H 0.80438 0.59026 0.59800
 C809 C 0.36481 0.18238 0.74062
 C810 C 0.32879 0.21155 0.71205
 C811 C 0.33298 0.21906 0.65058
 C812 C 0.36691 0.19293 0.61618
 C813 C 0.39915 0.15971 0.64247
 C814 C 0.39992 0.15618 0.70574
 C815 C 0.36691 0.17888 0.80331
 C816 C 0.40176 0.14927 0.83103
 C817 C 0.43532 0.12297 0.79707
 C818 C 0.43465 0.12646 0.73518
 H819 H 0.34226 0.19955 0.83145
 H820 H 0.40287 0.14689 0.87912
 H821 H 0.46225 0.09999 0.81885
 H822 H 0.46193 0.10620 0.71071
 H823 H 0.30781 0.24302 0.62807
 H824 H 0.36501 0.19583 0.56830
 C825 C 0.34873 0.71683 0.13606
 C826 C 0.30190 0.70336 0.15396
 C827 C 0.28159 0.66288 0.12712
 C828 C 0.31066 0.63010 0.09627
 C829 C 0.35948 0.63938 0.08594
 C830 C 0.37622 0.68583 0.09780
 C831 C 0.36959 0.75928 0.15572
 C832 C 0.41433 0.77308 0.13343
 C833 C 0.43881 0.74501 0.09123
 C834 C 0.41993 0.70182 0.07332
 H835 H 0.35163 0.78251 0.18746
 H836 H 0.42958 0.80617 0.14807
 H837 H 0.47272 0.75658 0.07257
 H838 H 0.43906 0.68151 0.03921
 H839 H 0.24460 0.65326 0.13681
 H840 H 0.29593 0.59601 0.08494
   
