data_POSCAR
  _audit_creation_date              2014-09-24
  _audit_creation_method            'ToBaCCo'
  _symmetry_space_group_name_H-M    'P1'
  _symmetry_Int_Tables_number       1
  _symmetry_cell_setting            triclinic
  loop_
  _symmetry_equiv_pos_as_xyz
 x,y,z
_cell_length_a 41.3447
_cell_length_b 51.1522
_cell_length_c 22.6960
_cell_angle_alpha 89.495700
_cell_angle_beta 89.138300
_cell_angle_gamma 90.151000
loop_
  _atom_site_label
  _atom_site_type_symbol
  _atom_site_fract_x
  _atom_site_fract_y
  _atom_site_fract_z
C1 C 0.17408 0.23839 0.15925
 C2 C 0.18407 0.21529 0.18808
 C3 C 0.21020 0.21715 0.22733
 C4 C 0.22669 0.24097 0.23609
 C5 C 0.21564 0.26352 0.20660
 C6 C 0.18875 0.26261 0.16977
 C7 C 0.25514 0.24236 0.27637
 C8 C 0.26340 0.26592 0.30396
 C9 C 0.29133 0.26798 0.33774
 C10 C 0.30994 0.24559 0.34835
 C11 C 0.30194 0.22123 0.32338
 C12 C 0.27491 0.22033 0.28590
 H13 H 0.15550 0.23770 0.12631
 H14 H 0.21682 0.20032 0.25350
 H15 H 0.22765 0.28204 0.21260
 H16 H 0.24827 0.28300 0.29954
 H17 H 0.33042 0.24749 0.37697
 H18 H 0.27017 0.20282 0.26127
 C19 C 0.82569 0.25734 0.14897
 C20 C 0.81774 0.28041 0.17854
 C21 C 0.79184 0.28017 0.21919
 C22 C 0.77323 0.25731 0.22940
 C23 C 0.78235 0.23423 0.19966
 C24 C 0.80929 0.23385 0.16113
 C25 C 0.74499 0.25759 0.27188
 C26 C 0.73461 0.23460 0.30165
 C27 C 0.70750 0.23449 0.34048
 C28 C 0.69312 0.25883 0.35321
 C29 C 0.70247 0.28185 0.32360
 C30 C 0.72786 0.28092 0.28213
 H31 H 0.84498 0.25769 0.11618
 H32 H 0.78688 0.29775 0.24384
 H33 H 0.76892 0.21635 0.20677
 H34 H 0.74726 0.21670 0.29297
 H35 H 0.67502 0.26038 0.38780
 H36 H 0.73377 0.29843 0.25716
 C37 C 0.67908 0.74453 0.66259
 C38 C 0.68769 0.72036 0.68767
 C39 C 0.71319 0.71936 0.72798
 C40 C 0.73093 0.74199 0.74163
 C41 C 0.72256 0.76573 0.71404
 C42 C 0.69607 0.76740 0.67634
 C43 C 0.75776 0.74124 0.78514
 C44 C 0.76479 0.76348 0.81880
 C45 C 0.79133 0.76426 0.85707
 C46 C 0.80903 0.74099 0.86516
 C47 C 0.80185 0.71823 0.83366
 C48 C 0.77666 0.71869 0.79289
 H49 H 0.65835 0.74567 0.63408
 H50 H 0.71904 0.70088 0.74869
 H51 H 0.73666 0.78319 0.72165
 H52 H 0.74870 0.78005 0.81646
 H53 H 0.82940 0.74051 0.89432
 H54 H 0.77243 0.70160 0.76633
 C55 C 0.31153 0.75625 0.61479
 C56 C 0.30244 0.78047 0.63853
 C57 C 0.27801 0.78123 0.68231
 C58 C 0.26158 0.75831 0.70051
 C59 C 0.27011 0.73454 0.67359
 C60 C 0.29582 0.73311 0.63272
 C61 C 0.23611 0.75881 0.74821
 C62 C 0.23043 0.73650 0.78375
 C63 C 0.20532 0.73554 0.82650
 C64 C 0.18801 0.75880 0.83729
 C65 C 0.19406 0.78170 0.80420
 C66 C 0.21743 0.78127 0.75870
 H67 H 0.33170 0.75535 0.58388
 H68 H 0.27198 0.79976 0.70210
 H69 H 0.25680 0.71686 0.68431
 H70 H 0.24655 0.72004 0.77941
 H71 H 0.16889 0.75922 0.87016
 H72 H 0.22049 0.79843 0.73098
 O73 O 1.00985 -0.03522 0.02881
 O74 O 0.94699 0.01373 0.06271
 O75 O 0.94716 -0.03481 0.02999
 O76 O 1.01002 0.01340 0.06544
 O77 O 1.01097 0.02702 -0.02703
 O78 O 0.94890 -0.02182 -0.06295
 O79 O 0.94839 0.02680 -0.03018
 O80 O 1.01162 -0.02136 -0.06348
 Cu81 Cu 0.97852 -0.01202 0.05609
 Cu82 Cu 0.98019 0.00399 -0.05516
 C83 C 1.02110 -0.03691 -0.02348
 C84 C 0.93697 0.02867 0.02184
 C85 C 0.93744 -0.03672 -0.02260
 C86 C 1.02083 0.02880 0.02556
 O87 O 0.45419 0.47616 0.45165
 O88 O 0.51628 0.52672 0.47717
 O89 O 0.51704 0.47774 0.44571
 O90 O 0.45361 0.52591 0.47891
 O91 O 0.45504 0.51485 0.57298
 O92 O 0.51775 0.46587 0.53936
 O93 O 0.51771 0.51488 0.57077
 O94 O 0.45522 0.46523 0.54582
 Cu95 Cu 0.48509 0.50274 0.45394
 Cu96 Cu 0.48651 0.48908 0.56660
 C97 C 0.44440 0.46180 0.49441
 C98 C 0.52741 0.52955 0.52867
 C99 C 0.52796 0.46332 0.48661
 C100 C 0.44394 0.52905 0.53173
 O101 O -0.00531 0.53750 0.03712
 O102 O 0.05450 0.48609 0.06953
 O103 O 0.05724 0.53452 0.03230
 O104 O -0.00833 0.48971 0.07833
 O105 O -0.01129 0.47506 -0.01257
 O106 O 0.05327 0.52081 -0.05918
 O107 O 0.05107 0.47227 -0.02195
 O108 O -0.00935 0.52275 -0.05353
 Cu109 Cu 0.02489 0.51334 0.06351
 Cu110 Cu 0.02064 0.49629 -0.04592
 C111 C -0.01742 0.53898 -0.01398
 C112 C 0.06281 0.47024 0.02924
 C113 C 0.06608 0.53570 -0.02147
 C114 C -0.02082 0.47453 0.04094
 O115 O 0.49096 1.03527 0.51837
 O116 O 0.54848 0.98171 0.54641
 O117 O 0.55347 1.03096 0.51630
 O118 O 0.48632 0.98653 0.55321
 O119 O 0.48388 0.97430 0.46044
 O120 O 0.55101 1.01970 0.42290
 O121 O 0.54612 0.97035 0.45305
 O122 O 0.48805 1.02321 0.42555
 Cu123 Cu 0.52007 1.00983 0.54281
 Cu124 Cu 0.51699 0.99581 0.43109
 C125 C 0.47979 1.03846 0.46692
 C126 C 0.55675 0.96661 0.50461
 C127 C 0.56358 1.03322 0.46344
 C128 C 0.47404 0.97237 0.51369
 C129 C 1.18403 0.16678 0.18560
 C130 C 1.16869 0.14317 0.17212
 C131 C 1.13735 0.14303 0.14957
 C132 C 1.12091 0.16683 0.14361
 C133 C 1.13596 0.19036 0.15746
 C134 C 1.16819 0.19103 0.17749
 C135 C 1.12185 0.11797 0.13369
 C136 C 1.10136 0.11633 0.08859
 C137 C 1.08377 0.09223 0.07242
 C138 C 1.07187 0.09025 0.01506
 C139 C 1.05248 0.06912 -0.00075
 C140 C 1.04415 0.04963 0.04079
 C141 C 1.05664 0.05126 0.09795
 C142 C 1.07628 0.07234 0.11366
 H143 H 1.20888 0.16577 0.19957
 H144 H 1.18173 0.12499 0.17766
 H145 H 1.09609 0.16729 0.12909
 H146 H 1.12152 0.20788 0.15402
 H147 H 1.12851 0.10056 0.15801
 H148 H 1.09757 0.13345 0.06110
 H149 H 1.07712 0.10538 -0.01742
 H150 H 1.04320 0.06852 -0.04508
 H151 H 1.05056 0.03661 0.13104
 H152 H 1.08438 0.07349 0.15867
 C153 C 0.66066 0.67800 0.71640
 C154 C 0.64331 0.65551 0.70204
 C155 C 0.63468 0.65065 0.64354
 C156 C 0.64346 0.66905 0.59959
 C157 C 0.66076 0.69156 0.61400
 C158 C 0.66956 0.69629 0.67253
 C159 C 0.61536 0.62689 0.63107
 C160 C 0.61307 0.61611 0.57752
 C161 C 0.59252 0.59298 0.56561
 C162 C 0.58099 0.58936 0.50837
 C163 C 0.56040 0.56846 0.49588
 C164 C 0.55111 0.55057 0.54039
 C165 C 0.56366 0.55361 0.59715
 C166 C 0.58423 0.57449 0.60961
 H167 H 0.66660 0.68129 0.76205
 H168 H 0.63654 0.64186 0.73687
 H169 H 0.63652 0.66656 0.55426
 H170 H 0.66739 0.70527 0.57922
 H171 H 0.60244 0.61813 0.66807
 H172 H 0.62573 0.62486 0.54024
 H173 H 0.58733 0.60312 0.47349
 H174 H 0.55127 0.56660 0.45163
 H175 H 0.55732 0.53999 0.63228
 H176 H 0.59362 0.57591 0.65368
 C177 C -0.12913 0.30261 0.15832
 C178 C -0.11097 0.32451 0.14161
 C179 C -0.12580 0.34889 0.13439
 C180 C -0.15927 0.35112 0.14528
 C181 C -0.17761 0.32905 0.16145
 C182 C -0.16279 0.30445 0.16704
 C183 C -0.10586 0.37088 0.11155
 C184 C -0.11200 0.39608 0.12256
 C185 C -0.09039 0.41702 0.09963
 C186 C -0.08343 0.43857 0.13506
 C187 C -0.06115 0.45755 0.11576
 C188 C -0.04600 0.45556 0.06007
 C189 C -0.05421 0.43460 0.02355
 C190 C -0.07610 0.41549 0.04318
 H191 H -0.11683 0.28410 0.16359
 H192 H -0.08521 0.32232 0.13369
 H193 H -0.17154 0.36957 0.13898
 H194 H -0.20352 0.33103 0.16731
 H195 H -0.08414 0.36590 0.08679
 H196 H -0.13161 0.40135 0.15228
 H197 H -0.09443 0.44026 0.17847
 H198 H -0.05551 0.47361 0.14466
 H199 H -0.04311 0.43260 -0.01969
 H200 H -0.08171 0.39943 0.01424
 C201 C 0.32647 0.80868 0.55804
 C202 C 0.34236 0.83139 0.53866
 C203 C 0.35129 0.85076 0.57875
 C204 C 0.34308 0.84721 0.63879
 C205 C 0.32725 0.82445 0.65818
 C206 C 0.31895 0.80485 0.61810
 C207 C 0.36898 0.87416 0.55593
 C208 C 0.38712 0.88962 0.58973
 C209 C 0.40673 0.91198 0.56699
 C210 C 0.41738 0.93062 0.60739
 C211 C 0.43820 0.95079 0.58952
 C212 C 0.44911 0.95275 0.53070
 C213 C 0.43784 0.93454 0.48974
 C214 C 0.41695 0.91430 0.50765
 H215 H 0.31985 0.79418 0.52589
 H216 H 0.34802 0.83369 0.49213
 H217 H 0.34846 0.86191 0.67110
 H218 H 0.32192 0.82207 0.70477
 H219 H 0.36770 0.87805 0.50912
 H220 H 0.38845 0.88571 0.63651
 H221 H 0.41001 0.92929 0.65334
 H222 H 0.44642 0.96447 0.62227
 H223 H 0.44602 0.93538 0.44421
 H224 H 0.41008 0.90005 0.47524
 C225 C -0.19416 0.66946 -0.15343
 C226 C -0.17633 0.64699 -0.14027
 C227 C -0.14312 0.64876 -0.12915
 C228 C -0.12766 0.67318 -0.13451
 C229 C -0.14535 0.69555 -0.14829
 C230 C -0.17894 0.69407 -0.15666
 C231 C -0.12499 0.62492 -0.11292
 C232 C -0.10016 0.62554 -0.07560
 C233 C -0.08109 0.60222 -0.05909
 C234 C -0.06474 0.60216 -0.00535
 C235 C -0.04482 0.58125 0.01020
 C236 C -0.04043 0.56013 -0.02824
 C237 C -0.05702 0.56008 -0.08187
 C238 C -0.07717 0.58088 -0.09716
 H239 H -0.22000 0.66766 -0.15946
 H240 H -0.18866 0.62831 -0.13709
 H241 H -0.10183 0.67502 -0.12850
 H242 H -0.13269 0.71404 -0.15236
 H243 H -0.13348 0.60640 -0.12958
 H244 H -0.09410 0.64378 -0.05448
 H245 H -0.06718 0.61847 0.02450
 H246 H -0.03223 0.58195 0.05166
 H247 H -0.05402 0.54414 -0.11255
 H248 H -0.08870 0.58056 -0.13962
 C249 C 0.30702 1.17306 0.33032
 C250 C 0.32504 1.15070 0.34332
 C251 C 0.35695 1.15276 0.36247
 C252 C 0.37098 1.17768 0.36652
 C253 C 0.35317 1.20008 0.35310
 C254 C 0.32058 1.19838 0.33522
 C255 C 0.37532 1.12863 0.37581
 C256 C 0.39901 1.12781 0.41555
 C257 C 0.41798 1.10395 0.42869
 C258 C 0.43278 1.10159 0.48372
 C259 C 0.45218 1.08001 0.49676
 C260 C 0.45759 1.06048 0.45460
 C261 C 0.44269 1.06280 0.39952
 C262 C 0.42310 1.08428 0.38665
 H263 H 0.28198 1.17017 0.31892
 H264 H 0.31371 1.13167 0.33960
 H265 H 0.39604 1.17995 0.37868
 H266 H 0.36584 1.21856 0.35468
 H267 H 0.36793 1.11085 0.35423
 H268 H 0.40405 1.14503 0.44132
 H269 H 0.42944 1.11657 0.51668
 H270 H 0.46346 1.07890 0.53946
 H271 H 0.44654 1.04817 0.36593
 H272 H 0.41287 1.08576 0.34316
 C273 C 1.19158 -0.16951 -0.18367
 C274 C 1.17491 -0.14680 -0.16787
 C275 C 1.14238 -0.14809 -0.14965
 C276 C 1.12633 -0.17234 -0.15018
 C277 C 1.14284 -0.19497 -0.16665
 C278 C 1.17583 -0.19393 -0.18256
 C279 C 1.12551 -0.12388 -0.13168
 C280 C 1.10231 -0.12384 -0.08974
 C281 C 1.08418 -0.10017 -0.07202
 C282 C 1.06963 -0.09951 -0.01579
 C283 C 1.05017 -0.07845 0.00094
 C284 C 1.04445 -0.05777 -0.03867
 C285 C 1.05948 -0.05820 -0.09464
 C286 C 1.07916 -0.07916 -0.11119
 H287 H 1.21701 -0.16803 -0.19534
 H288 H 1.18766 -0.12827 -0.16845
 H289 H 1.10089 -0.17382 -0.13855
 H290 H 1.12968 -0.21329 -0.16709
 H291 H 1.13358 -0.10563 -0.15148
 H292 H 1.09681 -0.14183 -0.06603
 H293 H 1.07296 -0.11554 0.01502
 H294 H 1.03879 -0.07879 0.04423
 H295 H 1.05542 -0.04263 -0.12629
 H296 H 1.08928 -0.07927 -0.15541
 C297 C 0.70198 0.33070 0.33834
 C298 C 0.68568 0.35376 0.35303
 C299 C 0.65250 0.35324 0.36684
 C300 C 0.63553 0.32951 0.36290
 C301 C 0.65165 0.30660 0.34746
 C302 C 0.68520 0.30676 0.33613
 C303 C 0.63578 0.37759 0.38414
 C304 C 0.61186 0.37755 0.42469
 C305 C 0.59323 0.40108 0.44135
 C306 C 0.57829 0.40182 0.49721
 C307 C 0.55808 0.42257 0.51277
 C308 C 0.55191 0.44281 0.47226
 C309 C 0.56730 0.44231 0.41661
 C310 C 0.58785 0.42170 0.40131
 H311 H 0.72783 0.33152 0.33013
 H312 H 0.69915 0.37191 0.35514
 H313 H 0.60968 0.32868 0.37114
 H314 H 0.63776 0.28870 0.34431
 H315 H 0.64426 0.39586 0.36496
 H316 H 0.60596 0.35950 0.44786
 H317 H 0.58188 0.38607 0.52863
 H318 H 0.54645 0.42231 0.55585
 H319 H 0.56294 0.45759 0.38439
 H320 H 0.59836 0.42145 0.35737
 C321 C 0.81964 -0.21186 -0.06425
 C322 C 0.83217 -0.18860 -0.04211
 C323 C 0.82653 -0.16468 -0.07060
 C324 C 0.80610 -0.16425 -0.11947
 C325 C 0.79364 -0.18746 -0.14190
 C326 C 0.80094 -0.21196 -0.11591
 C327 C 0.84317 -0.14094 -0.04911
 C328 C 0.84964 -0.12005 -0.08364
 C329 C 0.87029 -0.09779 -0.06580
 C330 C 0.88408 -0.08183 -0.11017
 C331 C 0.90531 -0.06162 -0.09612
 C332 C 0.91318 -0.05687 -0.03720
 C333 C 0.89848 -0.07218 0.00748
 C334 C 0.87711 -0.09232 -0.00656
 H335 H 0.82453 -0.22962 -0.03987
 H336 H 0.84710 -0.18942 -0.00332
 H337 H 0.80004 -0.14611 -0.14141
 H338 H 0.77998 -0.18591 -0.18201
 H339 H 0.85305 -0.14200 -0.00533
 H340 H 0.84204 -0.12011 -0.12903
 H341 H 0.87903 -0.08541 -0.15611
 H342 H 0.91610 -0.05011 -0.13157
 H343 H 0.90371 -0.06875 0.05338
 H344 H 0.86614 -0.10345 0.02921
 C345 C 0.30174 0.31571 0.32085
 C346 C 0.31443 0.33969 0.33841
 C347 C 0.32795 0.34252 0.39437
 C348 C 0.32712 0.32096 0.43355
 C349 C 0.31450 0.29691 0.41583
 C350 C 0.30214 0.29392 0.35898
 C351 C 0.34325 0.36800 0.40872
 C352 C 0.36377 0.37145 0.45326
 C353 C 0.38162 0.39618 0.46329
 C354 C 0.39327 0.40109 0.51985
 C355 C 0.41266 0.42291 0.53033
 C356 C 0.42120 0.44023 0.48419
 C357 C 0.40905 0.43565 0.42770
 C358 C 0.38950 0.41384 0.41727
 H359 H 0.29262 0.31397 0.27657
 H360 H 0.31451 0.35591 0.30740
 H361 H 0.33613 0.32234 0.47783
 H362 H 0.31451 0.28060 0.44656
 H363 H 0.33834 0.38428 0.37945
 H364 H 0.36856 0.35557 0.48356
 H365 H 0.38778 0.38773 0.55596
 H366 H 0.42168 0.42579 0.57436
 H367 H 0.41538 0.44850 0.39113
 H368 H 0.38183 0.41039 0.37266
 C369 C 0.17991 0.71124 -0.08972
 C370 C 0.16861 0.68780 -0.06480
 C371 C 0.17377 0.66395 -0.09328
 C372 C 0.19242 0.66383 -0.14550
 C373 C 0.20360 0.68722 -0.17075
 C374 C 0.19685 0.71162 -0.14433
 C375 C 0.15849 0.63996 -0.06803
 C376 C 0.15207 0.61862 -0.09998
 C377 C 0.13247 0.59615 -0.07780
 C378 C 0.11802 0.57969 -0.11909
 C379 C 0.09728 0.55950 -0.10078
 C380 C 0.09060 0.55526 -0.04060
 C381 C 0.10622 0.57092 0.00094
 C382 C 0.12709 0.59105 -0.01737
 H383 H 0.17554 0.72890 -0.06510
 H384 H 0.15505 0.68841 -0.02362
 H385 H 0.19811 0.64581 -0.16787
 H386 H 0.21583 0.68585 -0.21302
 H387 H 0.14952 0.64112 -0.02314
 H388 H 0.15871 0.61841 -0.14624
 H389 H 0.12199 0.58295 -0.16587
 H390 H 0.08576 0.54771 -0.13391
 H391 H 0.10192 0.56790 0.04769
 H392 H 0.13867 0.60254 0.01606
 C393 C 0.66160 1.20977 0.38498
 C394 C 0.64776 1.18663 0.40627
 C395 C 0.66534 1.16337 0.40630
 C396 C 0.69764 1.16376 0.38661
 C397 C 0.71195 1.18711 0.36650
 C398 C 0.69414 1.21076 0.36446
 C399 C 0.64913 1.13929 0.42785
 C400 C 0.65398 1.11577 0.40375
 C401 C 0.63364 1.09299 0.42078
 C402 C 0.62398 1.07528 0.37754
 C403 C 0.60183 1.05531 0.39146
 C404 C 0.58940 1.05250 0.44919
 C405 C 0.60062 1.06935 0.49308
 C406 C 0.62247 1.08937 0.47906
 H407 H 0.64566 1.22642 0.38232
 H408 H 0.62270 1.18673 0.42101
 H409 H 0.71204 1.14612 0.38780
 H410 H 0.73725 1.18628 0.35433
 H411 H 0.62995 1.14161 0.46044
 H412 H 0.67056 1.11387 0.36661
 H413 H 0.63253 1.07756 0.33243
 H414 H 0.59387 1.04252 0.35677
 H415 H 0.59183 1.06757 0.53813
 H416 H 0.63025 1.10225 0.51373
 C417 C 0.14124 0.28945 0.13789
 C418 C 0.12780 0.31233 0.11523
 C419 C 0.14751 0.33365 0.09964
 C420 C 0.18120 0.33146 0.10533
 C421 C 0.19480 0.30828 0.12686
 C422 C 0.17495 0.28702 0.14394
 C423 C 0.13207 0.35759 0.07667
 C424 C 0.14264 0.38171 0.08869
 C425 C 0.12432 0.40521 0.07075
 C426 C 0.12222 0.42655 0.10899
 C427 C 0.10270 0.44800 0.09520
 C428 C 0.08548 0.44868 0.04226
 C429 C 0.08895 0.42784 0.00270
 C430 C 0.10808 0.40630 0.01685
 H431 H 0.12504 0.27384 0.15174
 H432 H 0.10177 0.31360 0.11117
 H433 H 0.19703 0.34744 0.09222
 H434 H 0.22086 0.30701 0.12959
 H435 H 0.10943 0.35523 0.05382
 H436 H 0.16323 0.38424 0.11709
 H437 H 0.13477 0.42621 0.15054
 H438 H 0.10071 0.46386 0.12634
 H439 H 0.07618 0.42783 -0.03861
 H440 H 0.10995 0.39042 -0.01422
 C441 C 0.68478 0.81490 0.69225
 C442 C 0.67341 0.83912 0.67299
 C443 C 0.66186 0.84240 0.61561
 C444 C 0.66290 0.82094 0.57706
 C445 C 0.67430 0.79663 0.59642
 C446 C 0.68515 0.79332 0.65437
 C447 C 0.64868 0.86836 0.59886
 C448 C 0.62892 0.87242 0.55335
 C449 C 0.61317 0.89789 0.54115
 C450 C 0.60226 0.90308 0.48402
 C451 C 0.58496 0.92586 0.47166
 C452 C 0.57786 0.94387 0.51644
 C453 C 0.58926 0.93894 0.57346
 C454 C 0.60664 0.91618 0.58579
 H455 H 0.69257 0.81294 0.73741
 H456 H 0.67300 0.85525 0.70360
 H457 H 0.65524 0.82270 0.53190
 H458 H 0.67484 0.78047 0.56594
 H459 H 0.65456 0.88454 0.62717
 H460 H 0.62322 0.85656 0.52411
 H461 H 0.60672 0.88925 0.44896
 H462 H 0.57642 0.92900 0.42729
 H463 H 0.58396 0.95230 0.60905
 H464 H 0.61367 0.91259 0.63083
 C465 C 0.85540 0.20559 0.12776
 C466 C 0.86781 0.18258 0.10433
 C467 C 0.84722 0.16187 0.09047
 C468 C 0.81370 0.16471 0.09925
 C469 C 0.80108 0.18814 0.12136
 C470 C 0.82184 0.20891 0.13602
 C471 C 0.86172 0.13795 0.06592
 C472 C 0.85188 0.11385 0.08125
 C473 C 0.87067 0.09063 0.06321
 C474 C 0.87562 0.07029 0.10389
 C475 C 0.89663 0.04974 0.09016
 C476 C 0.91254 0.04897 0.03500
 C477 C 0.90601 0.06858 -0.00689
 C478 C 0.88536 0.08923 0.00709
 H479 H 0.87236 0.22065 0.14018
 H480 H 0.89374 0.18072 0.09817
 H481 H 0.79728 0.14908 0.08788
 H482 H 0.77512 0.19003 0.12619
 H483 H 0.88365 0.14032 0.03961
 H484 H 0.83224 0.11134 0.11297
 H485 H 0.86435 0.07091 0.14725
 H486 H 0.90093 0.03477 0.12314
 H487 H 0.91763 0.06845 -0.04996
 H488 H 0.88132 0.10434 -0.02566
 C489 C 0.31840 0.70384 0.55344
 C490 C 0.33111 0.67982 0.53541
 C491 C 0.33342 0.65880 0.57532
 C492 C 0.32134 0.66193 0.63311
 C493 C 0.30876 0.68591 0.65116
 C494 C 0.30745 0.70726 0.61180
 C495 C 0.34879 0.63415 0.55531
 C496 C 0.36316 0.61728 0.59230
 C497 C 0.38124 0.59357 0.57385
 C498 C 0.39080 0.57580 0.61778
 C499 C 0.41020 0.55433 0.60389
 C500 C 0.42061 0.55012 0.54558
 C501 C 0.41031 0.56741 0.50122
 C502 C 0.39093 0.58893 0.51509
 H503 H 0.31722 0.71974 0.52177
 H504 H 0.33983 0.67784 0.49042
 H505 H 0.32148 0.64600 0.66473
 H506 H 0.30073 0.68787 0.69654
 H507 H 0.34943 0.63076 0.50841
 H508 H 0.36283 0.62132 0.63900
 H509 H 0.38377 0.57883 0.66338
 H510 H 0.41771 0.54141 0.63915
 H511 H 0.41804 0.56479 0.45586
 H512 H 0.38476 0.60216 0.47972
   
