data_POSCAR
  _audit_creation_date              2014-09-24
  _audit_creation_method            'ToBaCCo'
  _symmetry_space_group_name_H-M    'P1'
  _symmetry_Int_Tables_number       1
  _symmetry_cell_setting            triclinic
  loop_
  _symmetry_equiv_pos_as_xyz
 x,y,z
_cell_length_a 40.5362
_cell_length_b 18.2565
_cell_length_c 38.8476
_cell_angle_alpha 89.983200
_cell_angle_beta 90.079600
_cell_angle_gamma 90.225100
loop_
  _atom_site_label
  _atom_site_type_symbol
  _atom_site_fract_x
  _atom_site_fract_y
  _atom_site_fract_z
C1 C 0.22886 0.20790 0.22784
 C2 C 0.22926 0.28532 0.22755
 C3 C 0.25137 0.32361 0.24871
 C4 C 0.27267 0.28527 0.27059
 C5 C 0.27142 0.20793 0.27180
 C6 C 0.24974 0.16956 0.25018
 H7 H 0.24911 0.11012 0.25075
 H8 H 0.25199 0.38299 0.24814
 C9 C 0.77334 0.29328 0.22931
 C10 C 0.77179 0.21599 0.22776
 C11 C 0.74992 0.17761 0.24906
 C12 C 0.72916 0.21581 0.27145
 C13 C 0.72985 0.29307 0.27215
 C14 C 0.75212 0.33154 0.25130
 H15 H 0.75289 0.39092 0.25223
 H16 H 0.74905 0.11825 0.24821
 C17 C 0.72511 0.72039 0.73279
 C18 C 0.73038 0.79578 0.72691
 C19 C 0.75452 0.83366 0.74571
 C20 C 0.77351 0.79653 0.77030
 C21 C 0.76818 0.72098 0.77612
 C22 C 0.74402 0.68330 0.75733
 H23 H 0.74002 0.62527 0.76172
 H24 H 0.75850 0.89166 0.74116
 C25 C 0.27136 0.78424 0.72838
 C26 C 0.26996 0.70703 0.72758
 C27 C 0.24824 0.66928 0.74930
 C28 C 0.22744 0.70826 0.77142
 C29 C 0.22802 0.78569 0.77134
 C30 C 0.25018 0.82331 0.75003
 H31 H 0.25094 0.88269 0.75029
 H32 H 0.24756 0.60987 0.74895
 O33 O 0.96947 0.03609 -0.04163
 O34 O 1.03256 0.08022 0.02343
 O35 O 1.03356 0.03438 -0.03997
 O36 O 0.96838 0.08185 0.02194
 O37 O 0.96720 -0.03285 0.04024
 O38 O 1.03240 -0.08035 -0.02168
 O39 O 1.03143 -0.03447 0.04175
 O40 O 0.96828 -0.07864 -0.02338
 Cu41 Cu 1.00108 0.06971 -0.01086
 Cu42 Cu 0.99967 -0.06811 0.01111
 C43 C 0.95835 -0.02881 -0.04362
 C44 C 1.04269 0.03034 0.04351
 C45 C 1.04393 -0.03102 -0.04133
 C46 C 0.95684 0.03253 0.04158
 O47 O 0.46912 0.53017 0.45977
 O48 O 0.53163 0.57881 0.52474
 O49 O 0.53336 0.53197 0.46135
 O50 O 0.46759 0.57649 0.52306
 O51 O 0.46769 0.46198 0.54167
 O52 O 0.53348 0.41746 0.47992
 O53 O 0.53177 0.46431 0.54335
 O54 O 0.46921 0.41565 0.47834
 Cu55 Cu 0.50046 0.56585 0.49032
 Cu56 Cu 0.50060 0.42828 0.51267
 C57 C 0.45855 0.46478 0.45813
 C58 C 0.54210 0.52987 0.54515
 C59 C 0.54447 0.46717 0.46015
 C60 C 0.45657 0.52678 0.54280
 O61 O 0.03030 0.46743 -0.04235
 O62 O -0.03235 0.42113 0.02279
 O63 O -0.03396 0.46958 -0.04017
 O64 O 0.03184 0.41926 0.02081
 O65 O 0.03330 0.53327 0.03999
 O66 O -0.03245 0.58355 -0.02093
 O67 O -0.03085 0.53514 0.04199
 O68 O 0.03177 0.58140 -0.02312
 Cu69 Cu -0.00117 0.43289 -0.01171
 Cu70 Cu 0.00062 0.56982 0.01139
 C71 C 0.04163 0.53222 -0.04369
 C72 C -0.04218 0.47034 0.04337
 C73 C -0.04439 0.53498 -0.04074
 C74 C 0.04360 0.46778 0.04077
 O75 O 0.46681 1.07621 0.47666
 O76 O 0.53226 1.03049 0.53876
 O77 O 0.53092 1.07828 0.47569
 O78 O 0.46796 1.02844 0.53983
 O79 O 0.46816 0.91429 0.52079
 O80 O 0.53116 0.96417 0.45659
 O81 O 0.53250 0.91636 0.51970
 O82 O 0.46701 0.96208 0.45758
 Cu83 Cu 0.49944 1.06481 0.50969
 Cu84 Cu 0.49971 0.92771 0.48677
 C85 C 0.45592 1.02692 0.45659
 C86 C 0.54352 0.96579 0.53962
 C87 C 0.54167 1.02965 0.45533
 C88 C 0.45742 0.96300 0.54113
 C89 C 1.11476 0.08177 0.11324
 C90 C 1.13635 0.14077 0.10576
 C91 C 1.16234 0.15838 0.12891
 C92 C 1.16577 0.11881 0.16009
 C93 C 1.14414 0.06002 0.16763
 C94 C 1.11863 0.04118 0.14404
 C95 C 1.09724 -0.01774 0.15216
 C96 C 1.10089 -0.05681 0.18275
 C97 C 1.12579 -0.03823 0.20584
 C98 C 1.14724 0.01952 0.19850
 C99 C 1.18401 0.21672 0.12054
 C100 C 1.17947 0.25802 0.09076
 C101 C 1.15361 0.24181 0.06850
 C102 C 1.13236 0.18361 0.07566
 C103 C 1.18945 0.14379 0.18560
 C104 C 1.20834 0.17059 0.20605
 C105 C 1.08881 0.06271 0.08904
 C106 C 1.06758 0.04757 0.06847
 H107 H 1.07745 -0.03407 0.13505
 H108 H 1.08429 -0.10171 0.18857
 H109 H 1.12852 -0.06875 0.22956
 H110 H 1.16632 0.03184 0.21715
 H111 H 1.20451 0.23146 0.13702
 H112 H 1.19599 0.30314 0.08506
 H113 H 1.15004 0.27435 0.04551
 H114 H 1.11268 0.17299 0.05748
 C115 C 0.60841 0.58681 0.61996
 C116 C 0.60327 0.65180 0.63906
 C117 C 0.62594 0.67211 0.66532
 C118 C 0.65409 0.62836 0.67169
 C119 C 0.65906 0.56310 0.65282
 C120 C 0.63610 0.54212 0.62693
 C121 C 0.64169 0.47681 0.60824
 C122 C 0.66922 0.43354 0.61493
 C123 C 0.69170 0.45417 0.64022
 C124 C 0.68681 0.51819 0.65902
 C125 C 0.62021 0.73716 0.68420
 C126 C 0.59328 0.78171 0.67681
 C127 C 0.57137 0.76236 0.65080
 C128 C 0.57608 0.69803 0.63217
 C129 C 0.67938 0.65467 0.69513
 C130 C 0.70040 0.68142 0.71317
 C131 C 0.58522 0.56611 0.59316
 C132 C 0.56571 0.54932 0.57107
 H133 H 0.62493 0.45858 0.58828
 H134 H 0.67313 0.38376 0.60038
 H135 H 0.71304 0.42036 0.64531
 H136 H 0.70489 0.53189 0.67853
 H137 H 0.63660 0.75463 0.70463
 H138 H 0.58954 0.83176 0.69120
 H139 H 0.55059 0.79737 0.64500
 H140 H 0.55834 0.68530 0.61220
 C141 C -0.11081 0.41833 0.11659
 C142 C -0.13949 0.46152 0.12068
 C143 C -0.16314 0.44278 0.14623
 C144 C -0.15783 0.38140 0.16773
 C145 C -0.12874 0.33923 0.16418
 C146 C -0.10548 0.35694 0.13813
 C147 C -0.07745 0.31176 0.13396
 C148 C -0.07244 0.25110 0.15507
 C149 C -0.09485 0.23461 0.18100
 C150 C -0.12261 0.27821 0.18573
 C151 C -0.19185 0.48599 0.14950
 C152 C -0.19704 0.54625 0.12817
 C153 C -0.17389 0.56472 0.10323
 C154 C -0.14540 0.52303 0.09940
 C155 C -0.18348 0.35678 0.19111
 C156 C -0.20427 0.33036 0.20954
 C157 C -0.08671 0.43705 0.09038
 C158 C -0.06646 0.45231 0.06881
 H159 H -0.05926 0.32246 0.11422
 H160 H -0.05101 0.21682 0.15135
 H161 H -0.09083 0.18753 0.19740
 H162 H -0.13930 0.26314 0.20627
 H163 H -0.21047 0.47384 0.16863
 H164 H -0.21912 0.57881 0.13103
 H165 H -0.17804 0.61158 0.08672
 H166 H -0.12816 0.53943 0.07958
 C167 C 0.38823 0.90869 0.61342
 C168 C 0.39363 0.84772 0.63521
 C169 C 0.37031 0.83017 0.66123
 C170 C 0.34112 0.87207 0.66452
 C171 C 0.33566 0.93281 0.64267
 C172 C 0.35935 0.95139 0.61712
 C173 C 0.35330 1.01231 0.59551
 C174 C 0.32465 1.05357 0.59899
 C175 C 0.30146 1.03525 0.62392
 C176 C 0.30678 0.97558 0.64558
 C177 C 0.37655 0.76967 0.68308
 C178 C 0.40447 0.72643 0.67865
 C179 C 0.42693 0.74276 0.65276
 C180 C 0.42181 0.80291 0.63135
 C181 C 0.31560 0.84811 0.68822
 C182 C 0.29488 0.82263 0.70701
 C183 C 0.41254 0.92781 0.58749
 C184 C 0.43296 0.94376 0.56620
 H185 H 0.37056 1.02856 0.57568
 H186 H 0.32040 1.09997 0.58223
 H187 H 0.27925 1.06748 0.62651
 H188 H 0.28811 0.96355 0.66468
 H189 H 0.35980 0.75472 0.70358
 H190 H 0.40856 0.67973 0.69528
 H191 H 0.44848 0.70874 0.64928
 H192 H 0.44005 0.81351 0.61164
 C193 C -0.11908 0.59056 -0.10645
 C194 C -0.13711 0.65562 -0.10058
 C195 C -0.16324 0.67509 -0.12315
 C196 C -0.17057 0.63050 -0.15203
 C197 C -0.15276 0.56517 -0.15773
 C198 C -0.12699 0.54498 -0.13480
 C199 C -0.10941 0.47954 -0.14112
 C200 C -0.11704 0.43540 -0.16932
 C201 C -0.14220 0.45527 -0.19176
 C202 C -0.15993 0.51939 -0.18617
 C203 C -0.18109 0.74013 -0.11661
 C204 C -0.17285 0.78549 -0.08905
 C205 C -0.14695 0.76702 -0.06729
 C206 C -0.12931 0.70271 -0.07276
 C207 C -0.19402 0.65606 -0.17753
 C208 C -0.21211 0.68233 -0.19880
 C209 C -0.09240 0.57067 -0.08337
 C210 C -0.07037 0.55431 -0.06402
 H211 H -0.08959 0.46187 -0.12442
 H212 H -0.10333 0.38553 -0.17378
 H213 H -0.14803 0.42078 -0.21362
 H214 H -0.17939 0.53248 -0.20423
 H215 H -0.20139 0.75694 -0.13286
 H216 H -0.18648 0.83552 -0.08473
 H217 H -0.14048 0.80270 -0.04606
 H218 H -0.10940 0.69065 -0.05509
 C219 C 0.38321 1.07989 0.38801
 C220 C 0.37812 1.03743 0.35795
 C221 C 0.35288 1.05699 0.33426
 C222 C 0.33274 1.11842 0.34094
 C223 C 0.33731 1.15979 0.37145
 C224 C 0.36302 1.14133 0.39471
 C225 C 0.36820 1.18580 0.42410
 C226 C 0.34836 1.24645 0.43045
 C227 C 0.32276 1.26361 0.40809
 C228 C 0.31707 1.22074 0.37900
 C229 C 0.34856 1.01454 0.30412
 C230 C 0.36856 0.95421 0.29761
 C231 C 0.39319 0.93493 0.32080
 C232 C 0.39803 0.97588 0.35067
 C233 C 0.30953 1.14385 0.31515
 C234 C 0.29118 1.17073 0.29427
 C235 C 0.40915 1.06051 0.41210
 C236 C 0.43056 1.04492 0.43233
 H237 H 0.38774 1.17454 0.44233
 H238 H 0.35283 1.28020 0.45290
 H239 H 0.30735 1.31066 0.41316
 H240 H 0.29684 1.23632 0.36239
 H241 H 0.32963 1.02732 0.28542
 H242 H 0.36491 0.92222 0.27445
 H243 H 0.40866 0.88802 0.31562
 H244 H 0.41756 0.95887 0.36790
 C245 C 1.11356 -0.08540 -0.11287
 C246 C 1.10713 -0.14473 -0.13539
 C247 C 1.13020 -0.16254 -0.16154
 C248 C 1.16017 -0.12270 -0.16420
 C249 C 1.16669 -0.06371 -0.14158
 C250 C 1.14325 -0.04476 -0.11592
 C251 C 1.15034 0.01440 -0.09354
 C252 C 1.17979 0.05358 -0.09637
 C253 C 1.20274 0.03488 -0.12141
 C254 C 1.19639 -0.02307 -0.14383
 C255 C 1.12291 -0.22125 -0.18415
 C256 C 1.09419 -0.26264 -0.18034
 C257 C 1.07197 -0.24616 -0.15431
 C258 C 1.07812 -0.18765 -0.13216
 C259 C 1.18531 -0.14744 -0.18804
 C260 C 1.20547 -0.17407 -0.20701
 C261 C 1.08938 -0.06574 -0.08698
 C262 C 1.06884 -0.04975 -0.06590
 H263 H 1.13329 0.03082 -0.07359
 H264 H 1.18484 0.09864 -0.07902
 H265 H 1.22557 0.06549 -0.12350
 H266 H 1.21490 -0.03547 -0.16299
 H267 H 1.13941 -0.23624 -0.20481
 H268 H 1.08929 -0.30803 -0.19755
 H269 H 1.04979 -0.27875 -0.15131
 H270 H 1.06002 -0.17685 -0.11238
 C271 C 0.61468 0.41607 0.38864
 C272 C 0.60835 0.35802 0.36537
 C273 C 0.63160 0.34150 0.33920
 C274 C 0.66164 0.38126 0.33725
 C275 C 0.66807 0.43894 0.36065
 C276 C 0.64445 0.45665 0.38633
 C277 C 0.65145 0.51449 0.40948
 C278 C 0.68097 0.55360 0.40737
 C279 C 0.70409 0.53614 0.38230
 C280 C 0.69784 0.47948 0.35914
 C281 C 0.62440 0.28408 0.31583
 C282 C 0.59562 0.24265 0.31893
 C283 C 0.57322 0.25784 0.34497
 C284 C 0.57927 0.31511 0.36786
 C285 C 0.68694 0.35769 0.31331
 C286 C 0.70721 0.33206 0.29414
 C287 C 0.59030 0.43453 0.41455
 C288 C 0.56959 0.44955 0.43562
 H289 H 0.63427 0.52993 0.42949
 H290 H 0.68595 0.59766 0.42531
 H291 H 0.72698 0.56669 0.38078
 H292 H 0.71648 0.46800 0.33999
 H293 H 0.64104 0.27013 0.29512
 H294 H 0.59079 0.19824 0.30114
 H295 H 0.55099 0.22522 0.34741
 H296 H 0.56104 0.32493 0.38762
 C297 C 0.89098 -0.07943 -0.11851
 C298 C 0.86354 -0.03338 -0.12461
 C299 C 0.84013 -0.05210 -0.15047
 C300 C 0.84441 -0.11645 -0.17021
 C301 C 0.87234 -0.16144 -0.16476
 C302 C 0.89544 -0.14343 -0.13852
 C303 C 0.92235 -0.19100 -0.13254
 C304 C 0.92640 -0.25440 -0.15201
 C305 C 0.90409 -0.27147 -0.17800
 C306 C 0.87742 -0.22556 -0.18452
 C307 C 0.81265 -0.00591 -0.15576
 C308 C 0.80843 0.05719 -0.13610
 C309 C 0.83134 0.07560 -0.11085
 C310 C 0.85862 0.03102 -0.10505
 C311 C 0.81856 -0.14096 -0.19345
 C312 C 0.79717 -0.16699 -0.21130
 C313 C 0.91456 -0.06119 -0.09165
 C314 C 0.93439 -0.04633 -0.06955
 H315 H 0.94039 -0.18006 -0.11262
 H316 H 0.94697 -0.29047 -0.14690
 H317 H 0.90731 -0.32080 -0.19307
 H318 H 0.86072 -0.24124 -0.20500
 H319 H 0.79427 -0.01789 -0.17521
 H320 H 0.78729 0.09201 -0.14051
 H321 H 0.82794 0.12468 -0.09565
 H322 H 0.87572 0.04754 -0.08507
 C323 C 0.38958 0.41148 0.38527
 C324 C 0.36087 0.45463 0.38121
 C325 C 0.33718 0.43602 0.35561
 C326 C 0.34249 0.37482 0.33404
 C327 C 0.37154 0.33254 0.33763
 C328 C 0.39485 0.35012 0.36373
 C329 C 0.42288 0.30493 0.36790
 C330 C 0.42787 0.24438 0.34673
 C331 C 0.40542 0.22802 0.32077
 C332 C 0.37765 0.27162 0.31604
 C333 C 0.30846 0.47923 0.35235
 C334 C 0.30329 0.53936 0.37374
 C335 C 0.32647 0.55770 0.39873
 C336 C 0.35497 0.51601 0.40255
 C337 C 0.31689 0.35063 0.31041
 C338 C 0.29616 0.32465 0.29173
 C339 C 0.41382 0.43040 0.41138
 C340 C 0.43417 0.44604 0.43283
 H341 H 0.44110 0.31555 0.38767
 H342 H 0.44931 0.21009 0.35046
 H343 H 0.40942 0.18101 0.30434
 H344 H 0.36092 0.25662 0.29548
 H345 H 0.28981 0.46719 0.33318
 H346 H 0.28120 0.57192 0.37088
 H347 H 0.32234 0.60445 0.41528
 H348 H 0.37224 0.53230 0.42241
 C349 C 0.11317 0.58461 -0.11371
 C350 C 0.11691 0.54377 -0.14444
 C351 C 0.14238 0.56227 -0.16807
 C352 C 0.16410 0.62100 -0.16066
 C353 C 0.16075 0.66093 -0.12959
 C354 C 0.13481 0.64364 -0.10640
 C355 C 0.13092 0.68680 -0.07641
 C356 C 0.15223 0.74500 -0.06939
 C357 C 0.17805 0.76090 -0.09169
 C358 C 0.18249 0.71927 -0.12136
 C359 C 0.14535 0.52147 -0.19885
 C360 C 0.12382 0.46377 -0.20606
 C361 C 0.09897 0.44552 -0.18293
 C362 C 0.09544 0.48488 -0.15243
 C363 C 0.18785 0.64540 -0.18617
 C364 C 0.20682 0.67161 -0.20668
 C365 C 0.08739 0.56556 -0.08938
 C366 C 0.06632 0.55015 -0.06872
 H367 H 0.11127 0.67644 -0.05821
 H368 H 0.14874 0.77780 -0.04649
 H369 H 0.19461 0.80602 -0.08609
 H370 H 0.20296 0.73379 -0.13788
 H371 H 0.16439 0.53353 -0.21753
 H372 H 0.12646 0.43303 -0.22971
 H373 H 0.08231 0.40066 -0.18866
 H374 H 0.07567 0.46880 -0.13529
 C375 C 0.61319 1.08598 0.38598
 C376 C 0.61708 1.04631 0.35493
 C377 C 0.64257 1.06590 0.33154
 C378 C 0.66418 1.12452 0.33949
 C379 C 0.66063 1.16339 0.37083
 C380 C 0.63466 1.14502 0.39380
 C381 C 0.63058 1.18709 0.42411
 C382 C 0.65174 1.24525 0.43164
 C383 C 0.67760 1.26219 0.40957
 C384 C 0.68222 1.22166 0.37959
 C385 C 0.64572 1.02623 0.30045
 C386 C 0.62432 0.96860 0.29271
 C387 C 0.59943 0.94929 0.31562
 C388 C 0.59574 0.98752 0.34641
 C389 C 0.68809 1.14973 0.31433
 C390 C 0.70722 1.17631 0.29412
 C391 C 0.58744 1.06563 0.41012
 C392 C 0.56639 1.04903 0.43058
 H393 H 0.61089 1.17588 0.44216
 H394 H 0.64811 1.27721 0.45479
 H395 H 0.69405 1.30728 0.41556
 H396 H 0.70269 1.23699 0.36324
 H397 H 0.66479 1.03913 0.28192
 H398 H 0.62708 0.93874 0.26883
 H399 H 0.58287 0.90449 0.30948
 H400 H 0.57595 0.97064 0.36336
 C401 C 0.11403 0.41186 0.11146
 C402 C 0.14370 0.45266 0.11432
 C403 C 0.16734 0.43397 0.13991
 C404 C 0.16103 0.37507 0.16265
 C405 C 0.13113 0.33491 0.16009
 C406 C 0.10787 0.35246 0.13401
 C407 C 0.07892 0.30926 0.13091
 C408 C 0.07301 0.25074 0.15312
 C409 C 0.09541 0.23454 0.17910
 C410 C 0.12407 0.27621 0.18279
 C411 C 0.19699 0.47482 0.14199
 C412 C 0.20312 0.53272 0.11948
 C413 C 0.17998 0.55116 0.09451
 C414 C 0.15057 0.51178 0.09185
 C415 C 0.18630 0.35091 0.18658
 C416 C 0.20656 0.32486 0.20569
 C417 C 0.08953 0.43169 0.08583
 C418 C 0.06875 0.44812 0.06501
 H419 H 0.06070 0.31985 0.11118
 H420 H 0.05088 0.21794 0.15022
 H421 H 0.09069 0.18915 0.19636
 H422 H 0.14072 0.26143 0.20340
 H423 H 0.21565 0.46262 0.16108
 H424 H 0.22592 0.56349 0.12144
 H425 H 0.18486 0.59618 0.07709
 H426 H 0.13338 0.52800 0.07195
 C427 C 0.61795 0.91652 0.60691
 C428 C 0.62491 0.96364 0.63498
 C429 C 0.65059 0.94592 0.65848
 C430 C 0.66929 0.88152 0.65364
 C431 C 0.66293 0.83543 0.62502
 C432 C 0.63687 0.85239 0.60189
 C433 C 0.63003 0.80373 0.57440
 C434 C 0.64852 0.74032 0.56978
 C435 C 0.67435 0.72432 0.59206
 C436 C 0.68167 0.77128 0.61931
 C437 C 0.65678 0.99319 0.68662
 C438 C 0.63817 1.05640 0.69139
 C439 C 0.61310 1.07384 0.66839
 C440 C 0.60642 1.02818 0.64047
 C441 C 0.69267 0.85826 0.67976
 C442 C 0.71073 0.83345 0.70147
 C443 C 0.59136 0.93392 0.58323
 C444 C 0.56941 0.94837 0.56341
 H445 H 0.61020 0.81384 0.55636
 H446 H 0.64278 0.70341 0.54879
 H447 H 0.68865 0.67500 0.58838
 H448 H 0.70196 0.75639 0.63598
 H449 H 0.67613 0.98200 0.70509
 H450 H 0.64326 1.09205 0.71303
 H451 H 0.59872 1.12300 0.67221
 H452 H 0.58663 1.04399 0.62333
 C453 C 0.88448 0.08660 0.11016
 C454 C 0.86471 0.14891 0.10383
 C455 C 0.83907 0.16741 0.12710
 C456 C 0.83415 0.12509 0.15726
 C457 C 0.85391 0.06286 0.16361
 C458 C 0.87907 0.04332 0.13991
 C459 C 0.89858 -0.01908 0.14684
 C460 C 0.89342 -0.06088 0.17639
 C461 C 0.86887 -0.04162 0.19960
 C462 C 0.84926 0.01953 0.19342
 C463 C 0.81925 0.22925 0.11989
 C464 C 0.82524 0.27286 0.09112
 C465 C 0.85077 0.25563 0.06875
 C466 C 0.87022 0.19417 0.07477
 C467 C 0.81091 0.15012 0.18304
 C468 C 0.79255 0.17654 0.20397
 C469 C 0.91027 0.06702 0.08602
 C470 C 0.93157 0.05112 0.06577
 H471 H 0.91803 -0.03612 0.12960
 H472 H 0.90858 -0.10843 0.18132
 H473 H 0.86496 -0.07426 0.22251
 H474 H 0.83037 0.03226 0.21212
 H475 H 0.79911 0.24497 0.13653
 H476 H 0.81014 0.32057 0.08631
 H477 H 0.85548 0.28996 0.04655
 H478 H 0.88971 0.18288 0.05655
 C479 C 0.38333 0.57813 0.61081
 C480 C 0.36289 0.63913 0.60398
 C481 C 0.33705 0.65708 0.62710
 C482 C 0.33258 0.61561 0.65760
 C483 C 0.35296 0.55459 0.66440
 C484 C 0.37833 0.53555 0.64085
 C485 C 0.39848 0.47440 0.64825
 C486 C 0.39373 0.43333 0.67810
 C487 C 0.36896 0.45210 0.70115
 C488 C 0.34873 0.51203 0.69451
 C489 C 0.31659 0.71763 0.61942
 C490 C 0.32215 0.76057 0.59034
 C491 C 0.34786 0.74390 0.56811
 C492 C 0.36794 0.68367 0.57459
 C493 C 0.30925 0.64063 0.68328
 C494 C 0.29081 0.66724 0.70407
 C495 C 0.40945 0.55935 0.58692
 C496 C 0.43102 0.54425 0.56685
 H497 H 0.41811 0.45779 0.63114
 H498 H 0.40937 0.38673 0.68338
 H499 H 0.36537 0.42003 0.72430
 H500 H 0.32970 0.52441 0.71311
 H501 H 0.29628 0.73284 0.63594
 H502 H 0.30656 0.80731 0.58517
 H503 H 0.35223 0.77771 0.54566
 H504 H 0.38756 0.67279 0.55646
   
