data_POSCAR
  _audit_creation_date              2014-09-24
  _audit_creation_method            'ToBaCCo'
  _symmetry_space_group_name_H-M    'P1'
  _symmetry_Int_Tables_number       1
  _symmetry_cell_setting            triclinic
  loop_
  _symmetry_equiv_pos_as_xyz
 x,y,z
_cell_length_a 10.2851
_cell_length_b 10.2862
_cell_length_c 27.2276
_cell_angle_alpha 89.533400
_cell_angle_beta 90.549400
_cell_angle_gamma 119.714400
loop_
  _atom_site_label
  _atom_site_type_symbol
  _atom_site_fract_x
  _atom_site_fract_y
  _atom_site_fract_z
Si1 Si 0.00681 0.00184 0.50029
 Si2 Si 1.00097 0.00498 0.16634
 Si3 Si -0.00617 0.99474 0.83335
 O4 O 0.41894 0.10342 0.04568
 O5 O 0.67146 0.09956 -0.04944
 O6 O 0.44097 0.14558 -0.04964
 O7 O 0.69390 0.14893 0.04529
 O8 O 0.57444 -0.09852 0.04692
 O9 O 0.31467 -0.10187 -0.04859
 O10 O 0.54492 -0.14783 -0.04795
 O11 O 0.29934 -0.14405 0.04656
 Cu12 Cu 0.56753 0.14710 -0.00223
 Cu13 Cu 0.42210 -0.14594 -0.00068
 C14 C 0.31537 -0.02163 0.06204
 C15 C 0.65049 -0.02670 -0.06443
 C16 C 0.33433 0.02322 -0.06496
 C17 C 0.67915 0.02766 0.06207
 O18 O 0.10554 0.42050 0.62118
 O19 O 0.10085 0.67294 0.71634
 O20 O 0.14444 0.44136 0.71666
 O21 O 0.14905 0.69462 0.62172
 O22 O -0.09846 0.57498 0.61950
 O23 O -0.10307 0.31514 0.71508
 O24 O -0.14652 0.54671 0.71432
 O25 O -0.14191 0.30088 0.61983
 Cu26 Cu 0.14786 0.56856 0.66919
 Cu27 Cu -0.14590 0.42291 0.66704
 C28 C -0.01932 0.31699 0.60457
 C29 C -0.02553 0.65210 0.73106
 C30 C 0.02182 0.33481 0.73174
 C31 C 0.02793 0.67978 0.60465
 O32 O 0.58004 0.68208 0.28562
 O33 O 0.32663 0.42603 0.38097
 O34 O 0.55523 0.70088 0.38059
 O35 O 0.30523 0.45318 0.28590
 O36 O 0.42624 0.32569 0.28572
 O37 O 0.68309 0.58021 0.38099
 O38 O 0.45444 0.30527 0.38080
 O39 O 0.70096 0.55438 0.28602
 Cu40 Cu 0.43023 0.57706 0.33325
 Cu41 Cu 0.57745 0.43013 0.33340
 C42 C 0.68467 0.66091 0.26996
 C43 C 0.34833 0.32108 0.39677
 C44 C 0.66201 0.68491 0.39663
 C45 C 0.32105 0.34704 0.26994
 C46 C -0.02048 0.12590 0.54033
 C47 C -0.02222 0.21359 0.56900
 C48 C 0.87741 0.85239 0.20626
 C49 C 0.78920 0.76204 0.23467
 C50 C 0.13931 0.02300 -0.12864
 C51 C 0.23140 0.02622 -0.10024
 C52 C 0.03380 0.87578 0.54039
 C53 C 0.03396 0.78606 0.56906
 C54 C 0.12625 0.15688 0.20617
 C55 C 0.21542 0.24665 0.23460
 C56 C 0.84111 -0.03233 -0.12734
 C57 C 0.75099 -0.03258 -0.09934
 C58 C 0.12451 -0.02285 0.12627
 C59 C 0.21199 -0.02476 0.09760
 C60 C 0.85399 0.87818 0.46031
 C61 C 0.76340 0.78976 0.43190
 C62 C 0.02136 0.13996 0.79543
 C63 C 0.02445 0.23188 0.76703
 C64 C 0.87504 0.03254 0.12630
 C65 C 0.78540 0.03320 0.09766
 C66 C 0.15865 0.12664 0.46052
 C67 C 0.24825 0.21563 0.43211
 C68 C -0.03216 0.84240 0.79396
 C69 C -0.03181 0.75249 0.76596
   
