data_POSCAR
  _audit_creation_date              2014-09-24
  _audit_creation_method            'ToBaCCo'
  _symmetry_space_group_name_H-M    'P1'
  _symmetry_Int_Tables_number       1
  _symmetry_cell_setting            triclinic
  loop_
  _symmetry_equiv_pos_as_xyz
 x,y,z
_cell_length_a 17.4461
_cell_length_b 17.4461
_cell_length_c 17.4935
_cell_angle_alpha 90.173700
_cell_angle_beta 90.169400
_cell_angle_gamma 90.002700
loop_
  _atom_site_label
  _atom_site_type_symbol
  _atom_site_fract_x
  _atom_site_fract_y
  _atom_site_fract_z
O1 O 0.42849 0.93681 -0.57600
 O2 O 0.57329 0.93631 -0.42252
 O3 O 0.42419 0.93489 -0.42752
 O4 O 0.57734 0.93376 -0.57129
 O5 O 0.57445 1.06039 -0.57516
 O6 O 0.42855 1.06150 -0.42350
 O7 O 0.57779 1.06286 -0.42629
 O8 O 0.42553 1.06347 -0.57203
 Cu9 Cu 0.50081 0.92263 -0.49931
 Cu10 Cu 0.50171 1.07487 -0.49918
 C11 C 0.40195 1.00032 -0.59941
 C12 C 0.60063 0.99959 -0.39889
 C13 C 0.40101 0.99829 -0.40055
 C14 C 0.60108 0.99675 -0.59836
 O15 O -0.57579 1.42308 0.06366
 O16 O -0.43099 1.57614 0.06619
 O17 O -0.58005 1.57238 0.06287
 O18 O -0.42679 1.42732 0.06271
 O19 O -0.43012 1.42435 -0.06362
 O20 O -0.57555 1.57691 -0.06329
 O21 O -0.42647 1.57328 -0.06009
 O22 O -0.57919 1.42755 -0.06256
 Cu23 Cu -0.50355 1.49965 0.07662
 Cu24 Cu -0.50285 1.50061 -0.07516
 C25 C -0.60270 1.39992 0.00023
 C26 C -0.40348 1.59993 0.00358
 C27 C -0.60312 1.59993 -0.00025
 C28 C -0.40302 1.40081 -0.00059
 O29 O -0.06121 0.42600 0.42778
 O30 O -0.05995 0.57823 0.57409
 O31 O -0.06268 0.57492 0.42522
 O32 O -0.06308 0.42917 0.57648
 O33 O 0.06350 0.42455 0.57272
 O34 O 0.06398 0.57799 0.42872
 O35 O 0.06662 0.57365 0.57745
 O36 O 0.06542 0.42922 0.42412
 Cu37 Cu -0.07454 0.50220 0.50092
 Cu38 Cu 0.07769 0.50133 0.50082
 C39 C 0.00199 0.40250 0.40059
 C40 C 0.00368 0.60103 0.60127
 C41 C 0.00062 0.60166 0.40186
 C42 C 0.00004 0.40142 0.59949
 O43 O -0.19807 1.00104 -0.10341
 O44 O 0.19654 0.99819 -0.10418
 O45 O -0.00216 1.10246 -0.19767
 O46 O 0.00026 0.89535 -0.19707
 O47 O 0.00255 0.80240 -0.10335
 O48 O -0.00375 1.19663 -0.10458
 O49 O 0.10254 0.99567 -0.19742
 O50 O -0.10498 1.00237 -0.19700
 Zr51 Zr -0.00095 0.99929 -0.13510
 O52 O 0.06885 0.92997 -0.06995
 O53 O -0.07015 1.06949 -0.07014
 C54 C -0.17556 1.00233 -0.17396
 C55 C 0.17335 0.99617 -0.17461
 C56 C -0.00363 1.17328 -0.17502
 C57 C 0.00261 0.82486 -0.17394
 H58 H 0.10118 1.10121 -0.10262
 O59 O 0.06858 1.06872 -0.06987
 H60 H -0.10283 0.89768 -0.10168
 O61 O -0.06996 0.93063 -0.06925
 O62 O 0.19772 1.00146 0.10204
 O63 O -0.19687 0.99940 0.10331
 O64 O 0.10339 1.19733 -0.00021
 O65 O 0.10268 0.80257 -0.00129
 O66 O -0.10442 0.80310 0.00175
 O67 O -0.10350 1.19760 -0.00203
 O68 O 0.00209 1.10470 0.19578
 O69 O -0.00023 0.89808 0.19646
 O70 O 0.00376 1.19790 0.10234
 O71 O -0.00341 0.80376 0.10359
 O72 O 0.19702 1.10374 0.00195
 O73 O -0.19726 1.10414 -0.00361
 O74 O -0.19760 0.89712 0.00377
 O75 O 0.19659 0.89586 -0.00412
 O76 O 0.10464 1.00448 0.19558
 O77 O -0.10248 0.99752 0.19614
 Zr78 Zr 0.13463 0.99992 -0.00094
 Zr79 Zr -0.13507 1.00043 -0.00028
 Zr80 Zr -0.00010 1.13498 -0.00096
 Zr81 Zr -0.00061 0.86529 -0.00017
 Zr82 Zr 0.00064 1.00099 0.13370
 O83 O -0.06957 0.93115 0.06917
 O84 O 0.06999 1.07018 0.06844
 C85 C 0.17520 1.00369 0.17255
 C86 C -0.17334 0.99726 0.17367
 C87 C 0.17406 1.17447 0.00148
 C88 C 0.17342 0.82520 -0.00336
 C89 C -0.17498 0.82635 0.00408
 C90 C -0.17421 1.17480 -0.00350
 C91 C 0.00371 1.17525 0.17288
 C92 C -0.00241 0.82727 0.17399
 H93 H -0.10150 1.10264 0.10106
 O94 O -0.06894 1.06983 0.06837
 H95 H 0.10200 0.89872 0.10096
 O96 O 0.06918 0.93128 0.06830
 C97 C 0.32076 0.98465 0.21859
 C98 C 0.34331 1.05375 0.26959
 C99 C 0.34199 1.00094 0.33980
 C100 C 0.32017 0.93181 0.28954
 C101 C 0.25706 1.01952 0.35386
 C102 C 0.25748 1.07232 0.28286
 C103 C 0.23577 1.00322 0.23265
 C104 C 0.23449 0.95036 0.30280
 H105 H 0.34650 0.97026 0.16238
 H106 H 0.38877 1.09623 0.25653
 H107 H 0.34644 0.87395 0.29271
 H108 H 0.23158 1.03371 0.41024
 H109 H 0.23097 1.13006 0.27928
 H110 H 0.18900 0.90784 0.31572
 C111 C -0.30532 0.94572 0.23275
 C112 C -0.29141 0.92553 0.31779
 C113 C -0.33884 0.99606 0.34128
 C114 C -0.35358 1.01625 0.25702
 C115 C -0.26651 1.04634 0.34278
 C116 C -0.21833 0.97590 0.31857
 C117 C -0.23306 0.99610 0.23427
 C118 C -0.28048 1.06655 0.25770
 H119 H -0.32051 0.90431 0.18682
 H120 H -0.29632 0.86745 0.34306
 H121 H -0.40990 1.03283 0.23244
 H122 H -0.25114 1.08771 0.38867
 H123 H -0.16215 0.95914 0.34337
 H124 H -0.27520 1.12452 0.23222
 C125 C -0.23529 0.94875 -0.30445
 C126 C -0.32109 0.93064 -0.29116
 C127 C -0.34252 0.99979 -0.34116
 C128 C -0.25754 1.01790 -0.35533
 C129 C -0.34358 1.05284 -0.27081
 C130 C -0.32131 0.98374 -0.22003
 C131 C -0.23621 1.00182 -0.23410
 C132 C -0.25763 1.07090 -0.28410
 H133 H -0.19003 0.90597 -0.31756
 H134 H -0.34757 0.87285 -0.29436
 H135 H -0.23196 1.03182 -0.41164
 H136 H -0.38874 1.09563 -0.25747
 H137 H -0.34707 0.96967 -0.16384
 H138 H -0.23081 1.12851 -0.28037
 C139 C 0.25746 0.92647 -0.28247
 C140 C 0.25609 0.97700 -0.35511
 C141 C 0.34044 0.99824 -0.34068
 C142 C 0.34268 0.94771 -0.26884
 C143 C 0.31651 1.06831 -0.29286
 C144 C 0.23140 1.04711 -0.30647
 C145 C 0.23364 0.99650 -0.23469
 C146 C 0.31806 1.01774 -0.22031
 H147 H 0.23253 0.86817 -0.27736
 H148 H 0.23132 0.96038 -0.41129
 H149 H 0.38915 0.90689 -0.25393
 H150 H 0.34129 1.12671 -0.29753
 H151 H 0.18489 1.08797 -0.32122
 H152 H 0.34312 1.03457 -0.16432
 C153 C 0.21927 1.31986 -0.01779
 C154 C 0.26928 1.34333 0.05167
 C155 C 0.34025 1.34240 -0.00021
 C156 C 0.29100 1.31973 -0.06974
 C157 C 0.35536 1.25774 0.01870
 C158 C 0.28350 1.25773 0.07054
 C159 C 0.23423 1.23508 0.00111
 C160 C 0.30519 1.23423 -0.05083
 H161 H 0.16276 1.34498 -0.03286
 H162 H 0.25497 1.38883 0.09378
 H163 H 0.29435 1.34566 -0.12751
 H164 H 0.41204 1.23286 0.03356
 H165 H 0.27962 1.23148 0.12815
 H166 H 0.31922 1.18862 -0.09293
 C167 C 0.28345 0.74236 -0.07163
 C168 C 0.35481 0.74209 -0.01867
 C169 C 0.33964 0.65729 -0.00055
 C170 C 0.26918 0.65659 -0.05354
 C171 C 0.28968 0.67943 0.06834
 C172 C 0.30394 0.76506 0.05021
 C173 C 0.23348 0.76447 -0.00282
 C174 C 0.21845 0.67954 0.01529
 H175 H 0.28011 0.76899 -0.12911
 H176 H 0.41158 0.76716 -0.03252
 H177 H 0.25534 0.61134 -0.09617
 H178 H 0.29249 0.65315 0.12600
 H179 H 0.31751 0.81040 0.09283
 H180 H 0.16183 0.65424 0.02930
 C181 C -0.23392 0.69381 0.05480
 C182 C -0.31912 0.70728 0.07541
 C183 C -0.34293 0.66018 0.00474
 C184 C -0.25852 0.64589 -0.01587
 C185 C -0.34467 0.73281 -0.04475
 C186 C -0.32015 0.78067 0.02583
 C187 C -0.23570 0.76638 0.00522
 C188 C -0.25945 0.71928 -0.06536
 H189 H -0.18766 0.67849 0.09571
 H190 H -0.34422 0.70194 0.13339
 H191 H -0.23390 0.58975 -0.03302
 H192 H -0.39087 0.74826 -0.08568
 H193 H -0.34501 0.83666 0.04312
 H194 H -0.23412 0.72498 -0.12323
 C195 C -0.28433 1.25690 -0.07227
 C196 C -0.35597 1.25607 -0.02022
 C197 C -0.34207 1.34100 -0.00107
 C198 C -0.27122 1.34271 -0.05313
 C199 C -0.29223 1.31915 0.06816
 C200 C -0.30534 1.23348 0.04905
 C201 C -0.23454 1.23515 -0.00306
 C202 C -0.22064 1.32014 0.01607
 H203 H -0.28024 1.23056 -0.12998
 H204 H -0.41237 1.23044 -0.03499
 H205 H -0.25778 1.38834 -0.09511
 H206 H -0.29591 1.34524 0.12599
 H207 H -0.31867 1.18784 0.09106
 H208 H -0.16441 1.34602 0.03105
 C209 C -0.04924 1.30628 0.23258
 C210 C -0.06736 1.29241 0.31799
 C211 C 0.00198 1.34229 0.34001
 C212 C 0.02014 1.35699 0.25536
 C213 C 0.05467 1.27163 0.34060
 C214 C -0.01464 1.22105 0.31790
 C215 C 0.00351 1.23568 0.23318
 C216 C 0.07282 1.28552 0.25508
 H217 H -0.09195 1.31979 0.18740
 H218 H -0.12506 1.29566 0.34437
 H219 H 0.03430 1.41365 0.23038
 H220 H 0.09736 1.25794 0.38571
 H221 H -0.02899 1.16458 0.34323
 H222 H 0.13041 1.28188 0.22847
 C223 C -0.07189 1.28396 -0.25661
 C224 C -0.01857 1.35494 -0.25610
 C225 C -0.00058 1.34055 -0.34092
 C226 C -0.05391 1.27036 -0.34230
 C227 C 0.06830 1.28991 -0.31951
 C228 C 0.05035 1.30350 -0.23396
 C229 C -0.00304 1.23337 -0.23530
 C230 C 0.01494 1.21898 -0.32017
 H231 H -0.12951 1.28070 -0.23002
 H232 H -0.03222 1.41158 -0.23045
 H233 H -0.09676 1.25731 -0.38754
 H234 H 0.12603 1.29277 -0.34586
 H235 H 0.09322 1.31642 -0.18868
 H236 H 0.02876 1.16249 -0.34607
 C237 C -0.06695 0.73963 -0.28045
 C238 C -0.01819 0.74198 -0.35424
 C239 C 0.00434 0.65790 -0.34104
 C240 C -0.04444 0.65462 -0.26810
 C241 C 0.07530 0.68246 -0.29462
 C242 C 0.05272 0.76738 -0.30693
 C243 C 0.00387 0.76421 -0.23400
 C244 C 0.02641 0.68003 -0.22087
 H245 H -0.12540 0.76387 -0.27378
 H246 H -0.03650 0.76681 -0.40973
 H247 H -0.08439 0.60763 -0.25269
 H248 H 0.13394 0.65854 -0.30076
 H249 H 0.09264 0.81444 -0.32217
 H250 H 0.04488 0.65513 -0.16547
 C251 C 0.01930 0.78239 0.31880
 C252 C -0.05054 0.73371 0.34331
 C253 C 0.00032 0.66176 0.34157
 C254 C 0.07020 0.70971 0.31778
 C255 C -0.02076 0.64690 0.25742
 C256 C -0.07161 0.71965 0.25829
 C257 C -0.00178 0.76755 0.23459
 C258 C 0.04916 0.69565 0.23288
 H259 H 0.03583 0.83869 0.34359
 H260 H -0.09148 0.74880 0.38943
 H261 H 0.12859 0.70522 0.34276
 H262 H -0.03710 0.59043 0.23289
 H263 H -0.12990 0.72455 0.23315
 H264 H 0.09014 0.68072 0.18672
   
