data_POSCAR
  _audit_creation_date              2014-09-24
  _audit_creation_method            'ToBaCCo'
  _symmetry_space_group_name_H-M    'P1'
  _symmetry_Int_Tables_number       1
  _symmetry_cell_setting            triclinic
  loop_
  _symmetry_equiv_pos_as_xyz
 x,y,z
_cell_length_a 32.6041
_cell_length_b 32.3900
_cell_length_c 32.3932
_cell_angle_alpha 89.981800
_cell_angle_beta 90.016400
_cell_angle_gamma 90.021200
loop_
  _atom_site_label
  _atom_site_type_symbol
  _atom_site_fract_x
  _atom_site_fract_y
  _atom_site_fract_z
C1 C 0.21048 1.23996 0.18249
 C2 C 0.24026 1.20872 0.18286
 C3 C 0.23961 1.17887 0.21333
 C4 C 0.20909 1.17973 0.24381
 C5 C 0.17969 1.21042 0.24341
 C6 C 0.18040 1.24076 0.21251
 C7 C 0.20216 1.27142 0.15521
 N8 N 0.16805 1.29194 0.16826
 C9 C 0.15429 1.27271 0.20301
 C10 C 0.15249 1.20198 0.27477
 N11 N 0.16498 1.16716 0.29480
 C12 C 0.19933 1.15315 0.27542
 C13 C 0.27051 1.15129 0.20472
 N14 N 0.29023 1.16382 0.16987
 C15 C 0.27153 1.19876 0.15618
 H16 H 0.21885 1.27744 0.12699
 H17 H 0.12646 1.28057 0.21946
 H18 H 0.12468 1.21906 0.28097
 H19 H 0.21527 1.12478 0.28287
 H20 H 0.27679 1.12334 0.22183
 H21 H 0.27950 1.21511 0.12815
 C22 C 0.79069 0.75590 0.18018
 C23 C 0.75993 0.78613 0.17952
 C24 C 0.75908 0.81641 0.20955
 C25 C 0.78890 0.81681 0.24075
 C26 C 0.81922 0.78703 0.24138
 C27 C 0.82014 0.75635 0.21084
 C28 C 0.80062 0.72449 0.15346
 N29 N 0.83511 0.70526 0.16736
 C30 C 0.84752 0.72520 0.20225
 C31 C 0.84539 0.79659 0.27329
 N32 N 0.83135 0.83112 0.29273
 C33 C 0.79713 0.84398 0.27230
 C34 C 0.72768 0.84298 0.19969
 N35 N 0.70909 0.82942 0.16464
 C36 C 0.72901 0.79476 0.15193
 H37 H 0.78466 0.71702 0.12510
 H38 H 0.87536 0.71906 0.21933
 H39 H 0.87358 0.78047 0.28039
 H40 H 0.78023 0.87197 0.27899
 H41 H 0.71960 0.87091 0.21614
 H42 H 0.72290 0.77786 0.12383
 C43 C 0.79090 1.24444 -0.18010
 C44 C 0.76067 1.21365 -0.17881
 C45 C 0.75996 1.18311 -0.20857
 C46 C 0.78940 1.18294 -0.24013
 C47 C 0.81919 1.21326 -0.24137
 C48 C 0.81995 1.24423 -0.21113
 C49 C 0.80072 1.27615 -0.15365
 N50 N 0.83470 1.29588 -0.16819
 C51 C 0.84697 1.27583 -0.20303
 C52 C 0.84511 1.20387 -0.27349
 N53 N 0.83150 1.16890 -0.29243
 C54 C 0.79769 1.15561 -0.27154
 C55 C 0.72893 1.15625 -0.19828
 N56 N 0.71042 1.16989 -0.16323
 C57 C 0.73004 1.20490 -0.15095
 H58 H 0.78525 1.28285 -0.12488
 H59 H 0.87453 1.28269 -0.22038
 H60 H 0.87276 1.22052 -0.28163
 H61 H 0.78125 1.12717 -0.27724
 H62 H 0.72090 1.12819 -0.21454
 H63 H 0.72380 1.22213 -0.12309
 C64 C 0.21118 0.75952 -0.18321
 C65 C 0.24076 0.79096 -0.18349
 C66 C 0.23989 0.82092 -0.21385
 C67 C 0.20937 0.81993 -0.24435
 C68 C 0.18016 0.78903 -0.24401
 C69 C 0.18108 0.75858 -0.21322
 C70 C 0.20296 0.72802 -0.15597
 N71 N 0.16895 0.70733 -0.16899
 C72 C 0.15504 0.72654 -0.20372
 C73 C 0.15294 0.79737 -0.27536
 N74 N 0.16523 0.83224 -0.29539
 C75 C 0.19943 0.84656 -0.27588
 C76 C 0.27064 0.84868 -0.20516
 N77 N 0.29047 0.83617 -0.17036
 C78 C 0.27199 0.80105 -0.15679
 H79 H 0.21968 0.72157 -0.12781
 H80 H 0.12699 0.71923 -0.22001
 H81 H 0.12530 0.78011 -0.28213
 H82 H 0.21503 0.87526 -0.28264
 H83 H 0.27675 0.87671 -0.22220
 H84 H 0.28011 0.78465 -0.12882
 C85 C 0.56326 1.05644 -0.01335
 H86 H 0.56476 1.05620 0.02002
 C87 C 0.59083 1.08037 -0.03596
 H88 H 0.61367 1.09834 -0.01965
 C89 C 0.53296 1.03146 -0.07488
 H90 H 0.51113 1.01142 -0.08996
 C91 C 0.55994 1.05498 -0.09876
 H92 H 0.55836 1.05189 -0.13188
 N93 N 0.53476 1.03297 -0.03299
 C94 C 0.43700 1.01373 0.05663
 H95 H 0.43534 0.98037 0.05645
 C96 C 0.40952 1.03650 0.08049
 H97 H 0.38661 1.02032 0.09849
 C98 C 0.46762 1.07510 0.03162
 H99 H 0.48956 1.09006 0.01160
 C100 C 0.44073 1.09913 0.05505
 H101 H 0.44252 1.13225 0.05193
 Zn102 Zn 0.50010 0.99987 0.00015
 N103 N 0.46560 1.03321 0.03317
 C104 C 0.53233 0.96826 0.07545
 N105 N 0.53436 0.96664 0.03356
 C106 C 0.56283 0.94299 0.01416
 C107 C 0.59016 0.91900 0.03700
 C108 C 0.55908 0.94470 0.09954
 C109 C 0.43730 0.98627 -0.05679
 C110 C 0.40986 0.96359 -0.08082
 C111 C 0.44061 0.90085 -0.05514
 C112 C 0.46747 0.92478 -0.03153
 N113 N 0.46567 0.96668 -0.03313
 H114 H 0.51052 0.98843 0.09034
 H115 H 0.56451 0.94314 -0.01920
 H116 H 0.61299 0.90086 0.02087
 H117 H 0.55731 0.94788 0.13265
 H118 H 0.43579 1.01963 -0.05662
 H119 H 0.38710 0.97987 -0.09894
 H120 H 0.44217 0.86773 -0.05196
 H121 H 0.48918 0.90974 -0.01133
 C122 C 0.41145 1.07990 0.08061
 C123 C 0.58907 1.08059 -0.07936
 C124 C 0.41160 0.92019 -0.08093
 C125 C 0.58822 0.91895 0.08039
 C126 C -0.01244 0.56251 1.05716
 H127 H 0.02067 0.56377 1.05903
 C128 C -0.03617 0.58956 1.08065
 H129 H -0.02098 0.61173 1.10047
 C130 C -0.07213 0.53323 1.02760
 H131 H -0.08602 0.51202 1.00601
 C132 C -0.09708 0.55976 1.05050
 H133 H -0.12974 0.55836 1.04540
 N134 N -0.03066 0.53467 1.03172
 C135 C 0.06054 0.43755 1.01600
 H136 H 0.06246 0.43658 0.98267
 C137 C 0.08357 0.41006 1.03971
 H138 H 0.10312 0.38787 1.02429
 C139 C 0.03124 0.46649 1.07624
 H140 H 0.00992 0.48773 1.09033
 C141 C 0.05369 0.43951 1.10119
 H142 H 0.04853 0.44063 1.13405
 Zn143 Zn 0.00392 0.50021 0.99991
 N144 N 0.03540 0.46538 1.03450
 C145 C 0.07981 0.53388 0.97231
 N146 N 0.03832 0.53515 0.96840
 C147 C 0.01986 0.56309 0.94325
 C148 C 0.04334 0.59049 0.91992
 C149 C 0.10454 0.56081 0.94957
 C150 C -0.05270 0.43769 0.98330
 C151 C -0.07603 0.41067 0.95937
 C152 C -0.04618 0.44064 0.89810
 C153 C -0.02346 0.46718 0.92327
 N154 N -0.02748 0.46562 0.96501
 H155 H 0.09388 0.51243 0.99355
 H156 H -0.01326 0.56410 0.94145
 H157 H 0.02798 0.61261 0.90018
 H158 H 0.13722 0.55929 0.95435
 H159 H -0.05459 0.43642 1.01662
 H160 H -0.09586 0.38858 0.97460
 H161 H -0.04133 0.44239 0.86524
 H162 H -0.00216 0.48858 0.90933
 C163 C 0.08096 0.41108 1.08306
 C164 C -0.07923 0.58810 1.07818
 C165 C -0.07351 0.41209 0.91603
 C166 C 0.08642 0.58943 0.92235
 C167 C 1.05235 -0.01637 0.56284
 H168 H 1.05418 0.01696 0.56409
 C169 C 1.07569 -0.04024 0.58991
 H170 H 1.09544 -0.02496 0.61204
 C171 C 1.02330 -0.07648 0.53332
 H172 H 1.00207 -0.09047 0.51189
 C173 C 1.04603 -0.10159 0.55991
 H174 H 1.04125 -0.13447 0.55817
 N175 N 1.02724 -0.03472 0.53486
 C176 C 1.01245 0.05728 0.43775
 H177 H 0.97935 0.05916 0.43643
 C178 C 1.03626 0.08071 0.41069
 H179 H 1.02113 0.10050 0.38845
 C180 C 1.07206 0.02778 0.46724
 H181 H 1.08588 0.00623 0.48854
 C182 C 1.09708 0.05061 0.44068
 H183 H 1.12973 0.04551 0.44218
 Zn184 Zn 0.99592 0.00010 0.50012
 N185 N 1.03060 0.03188 0.46569
 C186 C 0.96852 0.07648 0.53358
 N187 N 0.96433 0.03474 0.53477
 C188 C 0.93909 0.01628 0.56257
 C189 C 0.91599 0.04004 0.58992
 C190 C 0.94600 0.10147 0.56042
 C191 C 0.98019 -0.05662 0.43727
 C192 C 0.95679 -0.08000 0.40983
 C193 C 0.89549 -0.05043 0.43934
 C194 C 0.92013 -0.02764 0.46631
 N195 N 0.96163 -0.03149 0.46515
 H196 H 0.98993 0.09053 0.51238
 H197 H 0.93716 -0.01705 0.56361
 H198 H 0.89638 0.02466 0.61209
 H199 H 0.95119 0.13434 0.55926
 H200 H 1.01331 -0.05836 0.43634
 H201 H 0.97223 -0.09969 0.38775
 H202 H 0.86280 -0.04568 0.44073
 H203 H 0.90599 -0.00640 0.48769
 C204 C 1.07931 0.07821 0.41222
 C205 C 1.07328 -0.08359 0.58848
 C206 C 0.91371 -0.07765 0.41081
 C207 C 0.91862 0.08339 0.58880
 C208 C 0.14706 0.32305 1.14723
 C209 C 0.11032 0.30625 1.12293
 C210 C 0.08867 0.33579 1.10266
 C211 C 0.10542 0.37982 1.10821
 C212 C 0.10751 0.38619 1.15548
 C213 C 0.12924 0.35654 1.17575
 C214 C 0.17268 0.34759 1.11557
 C215 C 0.15085 0.37715 1.09529
 H216 H 0.10205 0.27380 1.12184
 H217 H 0.06174 0.32850 1.08432
 H218 H 0.09625 0.41306 1.17180
 H219 H 0.13533 0.35826 1.20865
 H220 H 0.20549 0.34436 1.11121
 H221 H 0.16517 0.39823 1.07359
 C222 C -0.14367 0.67463 1.14590
 C223 C -0.17167 0.64093 1.12782
 C224 C -0.15131 0.61176 1.10556
 C225 C -0.10444 0.61879 1.10324
 C226 C -0.09959 0.66304 1.08675
 C227 C -0.11997 0.69210 1.10894
 C228 C -0.11172 0.65031 1.17128
 C229 C -0.09135 0.62122 1.14891
 H230 H -0.20431 0.63873 1.13409
 H231 H -0.16724 0.58478 1.09407
 H232 H -0.08162 0.67082 1.05963
 H233 H -0.11933 0.72464 1.10092
 H234 H -0.10722 0.65325 1.20430
 H235 H -0.06943 0.60029 1.16301
 C236 C -0.14281 0.32629 0.85227
 C237 C -0.16769 0.35317 0.88252
 C238 C -0.14466 0.38193 0.90258
 C239 C -0.09886 0.38161 0.89080
 C240 C -0.08486 0.33682 0.89796
 C241 C -0.10775 0.30804 0.87796
 C242 C -0.12233 0.35782 0.82330
 C243 C -0.09934 0.38670 0.84331
 H244 H -0.20072 0.35175 0.88620
 H245 H -0.15819 0.40428 0.92350
 H246 H -0.05879 0.32849 0.91708
 H247 H -0.10139 0.27521 0.88007
 H248 H -0.12738 0.35893 0.79020
 H249 H -0.08580 0.41211 0.82644
 C250 C 0.14883 0.67651 0.85329
 C251 C 0.17793 0.64502 0.87351
 C252 C 0.15837 0.61574 0.89642
 C253 C 0.11115 0.62040 0.89707
 C254 C 0.10372 0.66497 0.91164
 C255 C 0.12328 0.69416 0.88885
 C256 C 0.11890 0.64961 0.82807
 C257 C 0.09929 0.62044 0.85101
 H258 H 0.21082 0.64433 0.86839
 H259 H 0.17539 0.59037 0.90978
 H260 H 0.08473 0.67287 0.93801
 H261 H 0.12091 0.72691 0.89558
 H262 H 0.11516 0.65123 0.79484
 H263 H 0.07869 0.59800 0.83722
 C264 C 1.14379 0.14574 0.32550
 C265 C 1.17185 0.12745 0.35904
 C266 C 1.15148 0.10523 0.38827
 C267 C 1.10457 0.10318 0.38146
 C268 C 1.09173 0.14892 0.37914
 C269 C 1.11211 0.17124 0.35000
 C270 C 1.11981 0.10894 0.30809
 C271 C 1.09943 0.08680 0.33721
 H272 H 1.20453 0.13353 0.36109
 H273 H 1.16749 0.09357 0.41514
 H274 H 1.06997 0.16308 0.40017
 H275 H 1.10777 0.20430 0.34710
 H276 H 1.11898 0.10098 0.27555
 H277 H 1.08129 0.05977 0.32948
 C278 C 1.14273 -0.14727 0.67423
 C279 C 1.10749 -0.12185 0.69249
 C280 C 1.08457 -0.10186 0.66372
 C281 C 1.09870 -0.10877 0.61895
 C282 C 1.14443 -0.09673 0.61875
 C283 C 1.16751 -0.11676 0.64750
 C284 C 1.12246 -0.17623 0.64256
 C285 C 1.09942 -0.15625 0.61371
 H286 H 1.10106 -0.11989 0.72531
 H287 H 1.05839 -0.08291 0.67206
 H288 H 1.15791 -0.07568 0.59648
 H289 H 1.20052 -0.11292 0.64894
 H290 H 1.12767 -0.20931 0.64137
 H291 H 1.08604 -0.17310 0.58821
 C292 C 0.85144 -0.14664 0.32359
 C293 C 0.88159 -0.17183 0.35026
 C294 C 0.90116 -0.14893 0.37949
 C295 C 0.88906 -0.10294 0.37980
 C296 C 0.89627 -0.08807 0.33528
 C297 C 0.87674 -0.11082 0.30604
 C298 C 0.82233 -0.12678 0.35528
 C299 C 0.84186 -0.10393 0.38461
 H300 H 0.88551 -0.20503 0.34846
 H301 H 0.92190 -0.16274 0.40179
 H302 H 0.91510 -0.06155 0.32746
 H303 H 0.87897 -0.10389 0.27332
 H304 H 0.78948 -0.13216 0.35609
 H305 H 0.82487 -0.09088 0.41016
 C306 C 0.85250 0.14781 0.67655
 C307 C 0.82689 0.11599 0.65220
 C308 C 0.84872 0.09562 0.62272
 C309 C 0.89413 0.10861 0.61994
 C310 C 0.89198 0.15586 0.61334
 C311 C 0.87025 0.17622 0.64291
 C312 C 0.88927 0.12365 0.69344
 C313 C 0.91092 0.10328 0.66398
 H314 H 0.79409 0.11159 0.65551
 H315 H 0.83440 0.07379 0.60176
 H316 H 0.90316 0.17206 0.58636
 H317 H 0.86409 0.20910 0.64100
 H318 H 0.89757 0.12271 0.72588
 H319 H 0.93787 0.08501 0.67134
 C320 C 0.32305 1.14197 0.14764
 C321 C 0.34477 1.10743 0.17198
 C322 C 0.37458 1.08785 0.15002
 C323 C 0.38007 1.10416 0.10564
 C324 C 0.33709 1.10161 0.08625
 C325 C 0.30741 1.12130 0.10811
 C326 C 0.35803 1.17048 0.13363
 C327 C 0.38791 1.15086 0.11176
 H328 H 0.33941 1.10039 0.20423
 H329 H 0.39386 1.06419 0.16369
 H330 H 0.33061 1.08568 0.05749
 H331 H 0.27562 1.12211 0.09823
 H332 H 0.36022 1.20282 0.14213
 H333 H 0.41564 1.16698 0.10287
 C334 C 0.67760 1.14769 -0.14130
 C335 C 0.64232 1.13422 -0.16970
 C336 C 0.61240 1.11236 -0.15008
 C337 C 0.62051 1.10569 -0.10351
 C338 C 0.66335 1.08598 -0.10144
 C339 C 0.69307 1.10784 -0.12112
 C340 C 0.65631 1.17183 -0.10638
 C341 C 0.62646 1.14987 -0.08681
 H342 H 0.63997 1.14308 -0.20193
 H343 H 0.58447 1.10386 -0.16605
 H344 H 0.66972 1.05702 -0.08581
 H345 H 0.72479 1.09774 -0.12224
 H346 H 0.66194 1.20396 -0.09904
 H347 H 0.60742 1.16345 -0.06292
 C348 C 0.32325 0.85810 -0.14812
 C349 C 0.35846 0.82972 -0.13444
 C350 C 0.38832 0.84939 -0.11255
 C351 C 0.38024 0.89598 -0.10607
 C352 C 0.37447 0.91256 -0.15032
 C353 C 0.34467 0.89294 -0.17231
 C354 C 0.30767 0.87840 -0.10839
 C355 C 0.33733 0.89813 -0.08651
 H356 H 0.36081 0.79746 -0.14319
 H357 H 0.41621 0.83343 -0.10391
 H358 H 0.39358 0.93641 -0.16392
 H359 H 0.33915 0.90016 -0.20449
 H360 H 0.27592 0.87732 -0.09840
 H361 H 0.33088 0.91384 -0.05763
 C362 C 0.67635 0.85172 0.14272
 C363 C 0.69212 0.89119 0.12202
 C364 C 0.66252 0.91311 0.10225
 C365 C 0.61949 0.89384 0.10474
 C366 C 0.62489 0.84942 0.08851
 C367 C 0.65461 0.82739 0.10819
 C368 C 0.64137 0.86584 0.17114
 C369 C 0.61157 0.88778 0.15143
 H370 H 0.72394 0.90099 0.12289
 H371 H 0.66911 0.94184 0.08629
 H372 H 0.60559 0.83577 0.06485
 H373 H 0.65989 0.79511 0.10124
 H374 H 0.63910 0.85736 0.20348
 H375 H 0.58383 0.89674 0.16746
   
