data_POSCAR
  _audit_creation_date              2014-09-24
  _audit_creation_method            'ToBaCCo'
  _symmetry_space_group_name_H-M    'P1'
  _symmetry_Int_Tables_number       1
  _symmetry_cell_setting            triclinic
  loop_
  _symmetry_equiv_pos_as_xyz
 x,y,z
_cell_length_a 25.5792
_cell_length_b 25.8495
_cell_length_c 25.9949
_cell_angle_alpha 90.044200
_cell_angle_beta 90.258200
_cell_angle_gamma 90.131200
loop_
  _atom_site_label
  _atom_site_type_symbol
  _atom_site_fract_x
  _atom_site_fract_y
  _atom_site_fract_z
C1 C 0.30995 0.37350 1.37014
 C2 C 0.33432 0.39933 1.32876
 C3 C 0.38037 0.37996 1.30662
 C4 C 0.40299 0.33513 1.32756
 C5 C 0.38043 0.30903 1.36935
 C6 C 0.33431 0.32912 1.39067
 H7 H 0.31540 0.43238 1.31133
 H8 H 0.43974 0.32157 1.31222
 H9 H 0.31653 0.30925 1.42258
 C10 C 1.19082 0.62264 0.87838
 C11 C 1.16427 0.66545 0.89945
 C12 C 1.12166 0.68875 0.87406
 C13 C 1.10390 0.66750 0.82745
 C14 C 1.12943 0.62494 0.80557
 C15 C 1.17303 0.60352 0.83043
 H16 H 1.17540 0.68006 0.93689
 H17 H 1.07122 0.68477 0.80722
 H18 H 1.19266 0.57195 0.81142
 C19 C 0.68705 -0.12114 0.11414
 C20 C 0.66024 -0.16422 0.09317
 C21 C 0.61624 -0.18574 0.11755
 C22 C 0.59543 -0.16103 0.16083
 C23 C 0.62007 -0.11738 0.18159
 C24 C 0.66551 -0.09804 0.15854
 H25 H 0.67323 -0.18227 0.05810
 H26 H 0.56233 -0.17788 0.18062
 H27 H 0.68487 -0.06597 0.17726
 C28 C -0.19088 1.12357 -0.37888
 C29 C -0.17349 1.09990 -0.33297
 C30 C -0.13332 1.12182 -0.30309
 C31 C -0.10762 1.16623 -0.32094
 C32 C -0.12211 1.18908 -0.36757
 C33 C -0.16391 1.16818 -0.39592
 H34 H -0.19331 1.06680 -0.31750
 H35 H -0.07544 1.18260 -0.29906
 H36 H -0.17415 1.18629 -0.43211
 C37 C 0.68497 0.62064 0.61482
 C38 C 0.66324 0.59831 0.65885
 C39 C 0.61876 0.61916 0.68195
 C40 C 0.59442 0.66247 0.66004
 C41 C 0.61468 0.68576 0.61513
 C42 C 0.65999 0.66375 0.59300
 H43 H 0.68055 0.56446 0.67591
 H44 H 0.56207 0.67961 0.68029
 H45 H 0.67654 0.68040 0.55865
 C46 C 0.81495 0.37267 0.11454
 C47 C 0.82694 0.39416 0.16272
 C48 C 0.86553 0.37184 0.19416
 C49 C 0.89293 0.32831 0.17619
 C50 C 0.88305 0.30740 0.12700
 C51 C 0.84343 0.33004 0.09669
 H52 H 0.80456 0.42679 0.17668
 H53 H 0.92393 0.31227 0.19972
 H54 H 0.83286 0.31350 0.05979
 C55 C 0.31373 0.12103 0.87266
 C56 C 0.33961 0.09466 0.83250
 C57 C 0.38605 0.11445 0.81111
 C58 C 0.40786 0.15981 0.83210
 C59 C 0.38342 0.18585 0.87245
 C60 C 0.33687 0.16629 0.89272
 H61 H 0.32141 0.06107 0.81513
 H62 H 0.44393 0.17543 0.81686
 H63 H 0.31892 0.18687 0.92430
 C64 C 0.18614 0.87708 0.38379
 C65 C 0.16957 0.89566 0.33532
 C66 C 0.12734 0.87316 0.30904
 C67 C 0.10168 0.83027 0.33021
 C68 C 0.11814 0.80960 0.37748
 C69 C 0.15957 0.83384 0.40420
 H70 H 0.18959 0.92728 0.31668
 H71 H 0.07030 0.81201 0.30875
 H72 H 0.16992 0.81946 0.44191
 Zn73 Zn 0.01256 1.06291 -0.03043
 Zn74 Zn -0.03925 0.95891 -0.03951
 Zn75 Zn 0.06692 0.97031 0.00888
 Zn76 Zn -0.02595 1.01179 0.06342
 O77 O 0.00334 1.00072 0.00049
 O78 O -0.02476 1.06820 -0.08748
 O79 O -0.00762 0.89927 -0.05917
 O80 O 0.11974 1.00598 -0.01912
 O81 O -0.06216 0.99143 -0.09710
 O82 O 0.07871 1.07530 -0.04829
 O83 O 0.06950 0.90931 -0.02160
 O84 O 0.01157 0.98441 0.11470
 O85 O -0.09758 0.93993 -0.00562
 O86 O 0.08275 0.95726 0.07489
 O87 O -0.08856 0.98234 0.06809
 O88 O -0.03553 1.07901 0.07896
 O89 O -0.00780 1.11630 0.00772
 C90 C -0.05458 1.03769 -0.11206
 C91 C 0.03801 0.88277 -0.04862
 C92 C 0.12005 1.04890 -0.04270
 C93 C 0.05598 0.96266 0.11555
 C94 C -0.11452 0.95281 0.03847
 C95 C -0.02745 1.11929 0.05225
 Zn96 Zn 0.46673 0.00991 0.43436
 Zn97 Zn 0.46004 -0.04114 0.53825
 Zn98 Zn 0.56216 -0.03222 0.48343
 Zn99 Zn 0.51305 0.06215 0.52546
 O100 O 0.50026 -0.00042 0.49555
 O101 O 0.40305 -0.01778 0.43405
 O102 O 0.49043 -0.10251 0.55314
 O103 O 0.57349 -0.04416 0.41695
 O104 O 0.39714 -0.05612 0.51010
 O105 O 0.50057 -0.01670 0.38019
 O106 O 0.56587 -0.09378 0.51284
 O107 O 0.58143 0.07576 0.53396
 O108 O 0.44724 -0.01010 0.59932
 O109 O 0.61739 0.00312 0.50650
 O110 O 0.48591 0.06578 0.58802
 O111 O 0.48608 0.11541 0.49046
 O112 O 0.45642 0.07674 0.42015
 C113 C 0.37748 -0.04380 0.46680
 C114 C 0.53486 -0.12012 0.54030
 C115 C 0.54530 -0.03757 0.37729
 C116 C 0.62135 0.04782 0.52618
 C117 C 0.46001 0.03459 0.61569
 C118 C 0.46418 0.11723 0.44666
 Zn119 Zn 1.00911 0.43188 0.46905
 Zn120 Zn 1.06449 0.52528 0.50719
 Zn121 Zn 0.95840 0.53596 0.45753
 Zn122 Zn 0.97090 0.48604 0.56153
 O123 O 1.00055 0.49501 0.49864
 O124 O 1.07543 0.41895 0.45160
 O125 O 1.06722 0.58621 0.47663
 O126 O 0.93595 0.50247 0.40023
 O127 O 1.11681 0.48909 0.47907
 O128 O 0.97182 0.42541 0.41168
 O129 O 0.99056 0.59553 0.43791
 O130 O 0.91014 0.51830 0.56629
 O131 O 1.08089 0.53874 0.57339
 O132 O 0.89968 0.55571 0.49040
 O133 O 1.00911 0.51238 0.61257
 O134 O 0.95874 0.41958 0.57772
 O135 O 0.98794 0.37948 0.50858
 C136 C 1.11688 0.44563 0.45635
 C137 C 1.03593 0.61252 0.44930
 C138 C 0.94279 0.45581 0.38619
 C139 C 0.88384 0.54627 0.53573
 C140 C 1.05378 0.53361 0.61390
 C141 C 0.96704 0.37826 0.55269
 Zn142 Zn 0.46993 0.48819 0.93358
 Zn143 Zn 0.56509 0.53077 0.98319
 Zn144 Zn 0.46195 0.53931 1.03707
 Zn145 Zn 0.51522 0.43626 1.02496
 O146 O 0.50288 0.49877 0.99493
 O147 O 0.50447 0.51399 0.87978
 O148 O 0.56988 0.59075 1.01578
 O149 O 0.40024 0.55604 1.00737
 O150 O 0.57606 0.54479 0.91670
 O151 O 0.40698 0.51669 0.93193
 O152 O 0.49366 0.59929 1.05486
 O153 O 0.48669 0.43228 1.08689
 O154 O 0.62023 0.49432 1.00496
 O155 O 0.44644 0.50731 1.09711
 O156 O 0.58339 0.42282 1.03420
 O157 O 0.48849 0.38289 0.98966
 O158 O 0.45835 0.42158 0.91984
 C159 C 0.54835 0.53668 0.87688
 C160 C 0.53917 0.61603 1.04443
 C161 C 0.38130 0.54360 0.96374
 C162 C 0.45915 0.46276 1.11369
 C163 C 0.62377 0.44999 1.02549
 C164 C 0.46586 0.38105 0.94621
 C165 C 1.24508 0.44215 0.38467
 C166 C 1.26083 0.39027 0.38879
 C167 C 1.22408 0.35541 0.41057
 C168 C 1.17675 0.37320 0.43157
 C169 C 1.16546 0.42639 0.43308
 C170 C 1.19918 0.45975 0.40690
 C171 C 1.22339 0.50964 0.42330
 C172 C 1.27376 0.49056 0.39903
 H173 H 1.23113 0.31417 0.41111
 H174 H 1.15004 0.34553 0.44850
 H175 H 1.22596 0.51369 0.46583
 H176 H 1.20612 0.54322 0.40277
 H177 H 1.30559 0.48355 0.42745
 H178 H 1.28545 0.51338 0.36471
 C179 C 0.26003 0.62491 0.94570
 C180 C 0.23357 0.59945 0.90506
 C181 C 0.25185 0.54909 0.89291
 C182 C 0.29851 0.52987 0.91420
 C183 C 0.32803 0.55961 0.94918
 C184 C 0.30587 0.60538 0.96719
 C185 C 0.32995 0.65757 0.97302
 C186 C 0.28016 0.67928 0.94959
 H187 H 0.23134 0.52416 0.86624
 H188 H 0.31265 0.49254 0.90147
 H189 H 0.36490 0.66298 0.94829
 H190 H 0.33549 0.66841 1.01407
 H191 H 0.28612 0.69753 0.91133
 H192 H 0.25755 0.70284 0.97746
 C193 C -0.24014 0.94187 0.11292
 C194 C -0.26404 0.89635 0.09418
 C195 C -0.23419 0.86726 0.05818
 C196 C -0.18580 0.88545 0.03965
 C197 C -0.16499 0.93272 0.05692
 C198 C -0.19201 0.95905 0.09529
 C199 C -0.20783 1.01446 0.09648
 C200 C -0.26071 0.99610 0.11529
 H201 H -0.24682 0.83005 0.04404
 H202 H -0.16472 0.86245 0.01177
 H203 H -0.20922 1.03225 0.05756
 H204 H -0.18556 1.03684 0.12585
 H205 H -0.29291 1.00302 0.08725
 H206 H -0.26887 1.00901 0.15524
 C207 C 0.75311 0.05097 0.58996
 C208 C 0.76557 0.10413 0.59292
 C209 C 0.73271 0.13771 0.56397
 C210 C 0.68655 0.11943 0.54016
 C211 C 0.67331 0.06665 0.54190
 C212 C 0.70994 0.03281 0.56304
 C213 C 0.70280 -0.01270 0.59732
 C214 C 0.74921 0.00751 0.62803
 H215 H 0.73932 0.17906 0.56368
 H216 H 0.66008 0.14692 0.52254
 H217 H 0.71100 -0.04970 0.57714
 H218 H 0.66531 -0.01158 0.61880
 H219 H 0.78364 -0.01862 0.62679
 H220 H 0.73694 0.02013 0.66702
 C221 C 0.39930 0.24721 0.43958
 C222 C 0.40267 0.26263 0.38803
 C223 C 0.42931 0.22737 0.35510
 C224 C 0.44950 0.17987 0.37390
 C225 C 0.44602 0.16707 0.42657
 C226 C 0.42147 0.20303 0.45786
 C227 C 0.40592 0.21264 0.51199
 C228 C 0.38144 0.26314 0.49197
 H229 H 0.43236 0.23473 0.31424
 H230 H 0.46782 0.15334 0.34726
 H231 H 0.44022 0.21885 0.53767
 H232 H 0.37673 0.18398 0.52580
 H233 H 0.40184 0.29851 0.50594
 H234 H 0.33820 0.26355 0.49576
 C235 C 0.91764 0.27680 0.64574
 C236 C 0.90690 0.23474 0.61343
 C237 C 0.92519 0.23731 0.56244
 C238 C 0.94776 0.28320 0.54337
 C239 C 0.95153 0.32780 0.57464
 C240 C 0.93876 0.32239 0.62670
 C241 C 0.90549 0.35499 0.66082
 C242 C 0.88250 0.30498 0.68179
 H243 H 0.92009 0.20464 0.53678
 H244 H 0.95897 0.28467 0.50328
 H245 H 0.87668 0.37864 0.63901
 H246 H 0.92907 0.37663 0.68974
 H247 H 0.84042 0.29966 0.67219
 H248 H 0.89300 0.29777 0.72270
 C249 C 0.12718 0.76990 -0.07384
 C250 C 0.09704 0.73573 -0.10341
 C251 C 0.04346 0.74798 -0.10995
 C252 C 0.02311 0.79544 -0.09164
 C253 C 0.05596 0.83148 -0.06648
 C254 C 0.10730 0.81618 -0.05598
 C255 C 0.15748 0.84417 -0.06547
 C256 C 0.17936 0.79328 -0.08493
 H257 H 0.01754 0.72171 -0.13014
 H258 H -0.01763 0.80447 -0.09853
 H259 H 0.17623 0.85762 -0.02917
 H260 H 0.15373 0.87402 -0.09602
 H261 H 0.21062 0.77752 -0.05970
 H262 H 0.18860 0.79364 -0.12669
 C263 C 0.54361 0.74855 1.10710
 C264 C 0.59631 0.76259 1.10173
 C265 C 0.63113 0.72391 1.08496
 C266 C 0.61244 0.67586 1.06766
 C267 C 0.55843 0.66481 1.06717
 C268 C 0.52506 0.70080 1.09021
 C269 C 0.47520 0.72364 1.07084
 C270 C 0.49547 0.77585 1.08936
 H271 H 0.67284 0.73099 1.08401
 H272 H 0.64033 0.64800 1.05320
 H273 H 0.44079 0.70967 1.09283
 H274 H 0.47124 0.72099 1.02829
 H275 H 0.47274 0.79186 1.12204
 H276 H 0.50329 0.80356 1.05760
 C277 C 0.43448 0.37469 1.22647
 C278 C 0.40430 0.40439 1.26024
 C279 C 0.39849 0.45750 1.24807
 C280 C 0.41724 0.47758 1.20093
 C281 C 0.44251 0.44507 1.16519
 C282 C 0.45310 0.39439 1.18065
 C283 C 0.44442 0.34446 1.15290
 C284 C 0.42389 0.32279 1.20324
 H285 H 0.37828 0.48330 1.27399
 H286 H 0.41036 0.51786 1.19184
 H287 H 0.48175 0.32644 1.14059
 H288 H 0.41397 0.34737 1.12237
 H289 H 0.44942 0.29219 1.21971
 H290 H 0.38151 0.31317 1.20201
 C291 C 0.54962 -0.08355 0.23975
 C292 C 0.60190 -0.09507 0.23063
 C293 C 0.63700 -0.08522 0.27184
 C294 C 0.61883 -0.06589 0.31956
 C295 C 0.56514 -0.05507 0.32717
 C296 C 0.53237 -0.06390 0.28514
 C297 C 0.47662 -0.06409 0.26844
 C298 C 0.49622 -0.08598 0.21684
 H299 H 0.67821 -0.09373 0.26775
 H300 H 0.64676 -0.05985 0.35042
 H301 H 0.46033 -0.02438 0.26541
 H302 H 0.45267 -0.09203 0.29076
 H303 H 0.49152 -0.05883 0.18402
 H304 H 0.48315 -0.12635 0.20945
 C305 C -0.12186 1.04673 -0.24193
 C306 C -0.12023 1.10008 -0.25179
 C307 C -0.10637 1.13280 -0.21050
 C308 C -0.08723 1.11214 -0.16421
 C309 C -0.08189 1.05820 -0.15776
 C310 C -0.10320 1.02621 -0.19594
 C311 C -0.08043 0.98025 -0.22233
 C312 C -0.10095 1.00266 -0.27262
 H313 H -0.10810 1.17444 -0.21461
 H314 H -0.07434 1.13862 -0.13441
 H315 H -0.10034 0.94372 -0.21112
 H316 H -0.03702 0.97931 -0.21995
 H317 H -0.13271 0.97907 -0.29025
 H318 H -0.06947 1.01472 -0.29947
 C319 C 1.14230 0.59075 0.71588
 C320 C 1.10974 0.60158 0.75732
 C321 C 1.05662 0.58734 0.75118
 C322 C 1.03856 0.56379 0.70501
 C323 C 1.07297 0.55460 0.66330
 C324 C 1.12481 0.56914 0.67124
 C325 C 1.17677 0.57277 0.64592
 C326 C 1.19659 0.59729 0.69649
 H327 H 1.02917 0.59399 0.78207
 H328 H 0.99753 0.55387 0.70172
 H329 H 1.17652 0.60008 0.61291
 H330 H 1.19377 0.53407 0.63794
 H331 H 1.20767 0.63869 0.69251
 H332 H 1.22513 0.57277 0.71760
 C333 C 0.77732 0.58835 0.62640
 C334 C 0.73573 0.60197 0.59371
 C335 C 0.74673 0.60394 0.54034
 C336 C 0.79561 0.58778 0.52101
 C337 C 0.83465 0.56908 0.55454
 C338 C 0.82520 0.57288 0.60733
 C339 C 0.83477 0.53574 0.65010
 C340 C 0.78176 0.55155 0.67078
 H341 H 0.71695 0.61583 0.51315
 H342 H 0.80173 0.58750 0.47982
 H343 H 0.86786 0.54805 0.67517
 H344 H 0.83604 0.49481 0.63696
 H345 H 0.78416 0.57190 0.70841
 H346 H 0.75338 0.51897 0.66892
 C347 C 0.73192 0.35873 1.06541
 C348 C 0.77052 0.39249 1.08386
 C349 C 0.76422 0.44569 1.07384
 C350 C 0.71757 0.46430 1.05144
 C351 C 0.67584 0.43018 1.04010
 C352 C 0.68547 0.37711 1.04479
 C353 C 0.65418 0.33496 1.06915
 C354 C 0.70520 0.31471 1.09158
 H355 H 0.79414 0.47300 1.08562
 H356 H 0.71274 0.50564 1.04675
 H357 H 0.63650 0.30852 1.04013
 H358 H 0.62678 0.34954 1.09890
 H359 H 0.71697 0.27672 1.07534
 H360 H 0.70731 0.31752 1.13424
 C361 C 0.24931 1.05185 -0.11255
 C362 C 0.26437 1.10406 -0.10958
 C363 C 0.22689 1.13904 -0.08955
 C364 C 0.17945 1.12121 -0.06882
 C365 C 0.16876 1.06794 -0.06589
 C366 C 0.20322 1.03424 -0.09056
 C367 C 0.22776 0.98533 -0.07221
 C368 C 0.27831 1.00442 -0.09623
 H369 H 0.23357 1.18037 -0.09005
 H370 H 0.15219 1.14901 -0.05313
 H371 H 0.21129 0.95081 -0.09197
 H372 H 0.22962 0.98272 -0.02954
 H373 H 0.29086 0.98069 -0.12963
 H374 H 0.30956 1.01287 -0.06752
 C375 C 0.25504 -0.12448 0.45143
 C376 C 0.22831 -0.09916 0.41103
 C377 C 0.24640 -0.04863 0.39895
 C378 C 0.29354 -0.02941 0.41946
 C379 C 0.32358 -0.05929 0.45370
 C380 C 0.30133 -0.10494 0.47219
 C381 C 0.32505 -0.15717 0.47797
 C382 C 0.27477 -0.17888 0.45536
 H383 H 0.22551 -0.02373 0.37266
 H384 H 0.30769 0.00789 0.40653
 H385 H 0.33108 -0.16774 0.51901
 H386 H 0.35960 -0.16287 0.45278
 H387 H 0.25233 -0.20212 0.48367
 H388 H 0.28004 -0.19745 0.41713
 C389 C 0.62005 -0.23750 0.55934
 C390 C 0.59170 -0.26914 0.59333
 C391 C 0.53953 -0.25343 0.60378
 C392 C 0.51985 -0.20577 0.58548
 C393 C 0.55167 -0.17235 0.55641
 C394 C 0.60070 -0.19072 0.54175
 C395 C 0.65272 -0.16473 0.54488
 C396 C 0.67422 -0.21571 0.56432
 H397 H 0.51349 -0.27728 0.62628
 H398 H 0.48052 -0.19441 0.59568
 H399 H 0.65395 -0.13342 0.57422
 H400 H 0.66776 -0.15384 0.50631
 H401 H 0.68802 -0.21403 0.60493
 H402 H 0.70209 -0.23365 0.53693
 C403 C 1.12352 0.72809 0.42904
 C404 C 1.09374 0.76188 0.39888
 C405 C 1.04075 0.74826 0.39015
 C406 C 1.02085 0.69996 0.40685
 C407 C 1.05357 0.66436 0.43251
 C408 C 1.10408 0.68095 0.44528
 C409 C 1.15533 0.65457 0.43753
 C410 C 1.17671 0.70638 0.41978
 H411 H 1.01500 0.77413 0.36941
 H412 H 0.98059 0.68999 0.39835
 H413 H 1.15373 0.62506 0.40642
 H414 H 1.17281 0.64115 0.47439
 H415 H 1.18775 0.70693 0.37845
 H416 H 1.20645 0.72264 0.44655
 C417 C -0.06637 1.22781 0.14249
 C418 C -0.08793 1.26463 0.10872
 C419 C -0.07930 1.25649 0.05553
 C420 C -0.05622 1.21057 0.03757
 C421 C -0.04255 1.17068 0.07196
 C422 C -0.04537 1.18166 0.12457
 C423 C -0.06751 1.15103 0.16790
 C424 C -0.09048 1.20137 0.18778
 H425 H -0.09100 1.28505 0.02735
 H426 H -0.05259 1.20495 -0.00356
 H427 H -0.03651 1.13503 0.19338
 H428 H -0.09774 1.12276 0.15511
 H429 H -0.07272 1.21422 0.22476
 H430 H -0.13394 1.20219 0.18664
 C431 C 0.40884 0.24625 0.94353
 C432 C 0.40400 0.23589 0.89093
 C433 C 0.41514 0.27625 0.85621
 C434 C 0.43506 0.32381 0.87408
 C435 C 0.44533 0.33146 0.92690
 C436 C 0.42955 0.29268 0.96105
 C437 C 0.45882 0.26689 1.00366
 C438 C 0.43601 0.21598 0.98449
 H439 H 0.40905 0.27079 0.81530
 H440 H 0.44401 0.35385 0.84645
 H441 H 0.44398 0.27836 1.04213
 H442 H 0.50193 0.26964 0.99900
 H443 H 0.40800 0.19821 1.01190
 H444 H 0.46587 0.18913 0.96876
 C445 C 0.55115 0.57480 0.73639
 C446 C 0.60084 0.59688 0.73112
 C447 C 0.63620 0.59132 0.77255
 C448 C 0.61973 0.57033 0.81970
 C449 C 0.56770 0.55353 0.82619
 C450 C 0.53517 0.55334 0.78267
 C451 C 0.48042 0.57196 0.77595
 C452 C 0.49790 0.59583 0.72537
 H453 H 0.67602 0.60520 0.76912
 H454 H 0.64722 0.56899 0.85147
 H455 H 0.46917 0.60108 0.80538
 H456 H 0.45232 0.53949 0.77078
 H457 H 0.49632 0.63876 0.72592
 H458 H 0.47958 0.57728 0.69115
 C459 C 0.43866 0.12128 0.73022
 C460 C 0.41014 0.09066 0.76463
 C461 C 0.40488 0.03753 0.75229
 C462 C 0.42221 0.01820 0.70437
 C463 C 0.44540 0.05155 0.66800
 C464 C 0.45584 0.10232 0.68354
 C465 C 0.44523 0.15224 0.65659
 C466 C 0.42631 0.17311 0.70786
 H467 H 0.38586 0.01119 0.77861
 H468 H 0.41563 -0.02215 0.69513
 H469 H 0.41367 0.14890 0.62719
 H470 H 0.48172 0.17117 0.64305
 H471 H 0.38376 0.18183 0.70829
 H472 H 0.45191 0.20413 0.72366
 C473 C 0.05861 0.90793 0.24961
 C474 C 0.11042 0.89485 0.25916
 C475 C 0.14621 0.90567 0.21904
 C476 C 0.12901 0.92808 0.17199
 C477 C 0.07581 0.94147 0.16445
 C478 C 0.04244 0.93072 0.20527
 C479 C -0.01307 0.93349 0.22208
 C480 C 0.00545 0.90820 0.27264
 H481 H 0.18720 0.89635 0.22376
 H482 H 0.15727 0.93505 0.14189
 H483 H -0.03906 0.90821 0.19859
 H484 H -0.02661 0.97403 0.22692
 H485 H -0.01022 0.86850 0.27846
 H486 H 0.00301 0.93428 0.30655
 C487 C 0.87535 0.44651 0.25623
 C488 C 0.87670 0.39318 0.24618
 C489 C 0.89051 0.36043 0.28740
 C490 C 0.90988 0.38106 0.33378
 C491 C 0.91549 0.43501 0.34039
 C492 C 0.89416 0.46697 0.30229
 C493 C 0.91705 0.51301 0.27603
 C494 C 0.89644 0.49066 0.22569
 H495 H 0.88890 0.31879 0.28305
 H496 H 0.92281 0.35458 0.36347
 H497 H 0.96047 0.51401 0.27838
 H498 H 0.89727 0.54949 0.28738
 H499 H 0.92787 0.47868 0.19880
 H500 H 0.86478 0.51427 0.20815
   
