data_POSCAR
  _audit_creation_date              2014-09-24
  _audit_creation_method            'ToBaCCo'
  _symmetry_space_group_name_H-M    'P1'
  _symmetry_Int_Tables_number       1
  _symmetry_cell_setting            triclinic
  loop_
  _symmetry_equiv_pos_as_xyz
 x,y,z
_cell_length_a 41.7303
_cell_length_b 41.3224
_cell_length_c 41.0827
_cell_angle_alpha 91.834300
_cell_angle_beta 91.770700
_cell_angle_gamma 91.667500
loop_
  _atom_site_label
  _atom_site_type_symbol
  _atom_site_fract_x
  _atom_site_fract_y
  _atom_site_fract_z
N1 N 0.19921 1.26675 0.17830
 N2 N 0.17739 1.26622 0.20074
 C3 C 0.15566 1.28886 0.19439
 C4 C 0.16462 1.30426 0.16670
 C5 C 0.19217 1.28974 0.15692
 H6 H 0.13441 1.29310 0.20813
 H7 H 0.20544 1.29472 0.13534
 Cu8 Cu 0.17840 1.23450 0.23469
 Cu9 Cu 0.23376 1.23613 0.17709
 Cu10 Cu 0.23599 1.17937 0.23750
 N11 N 0.17985 1.20258 0.26843
 N12 N 0.20253 1.18112 0.26945
 C13 C 0.19703 1.16091 0.29388
 C14 C 0.16958 1.17043 0.30882
 C15 C 0.15910 1.19674 0.29218
 H16 H 0.21121 1.14020 0.29955
 H17 H 0.13742 1.20978 0.29634
 N18 N 0.26770 1.18157 0.20301
 N19 N 0.26683 1.20319 0.18001
 C20 C 0.29032 1.19725 0.15905
 C21 C 0.30662 1.17084 0.16952
 C22 C 0.29178 1.16132 0.19726
 H23 H 0.29449 1.21027 0.13709
 H24 H 0.29732 1.14043 0.21136
 H25 H 0.20965 1.19921 0.20003
 H26 H 0.23540 1.22768 0.22638
 N27 N 0.82315 0.75921 0.13641
 N28 N 0.84260 0.75767 0.16211
 C29 C 0.86289 0.73331 0.15729
 C30 C 0.85562 0.71907 0.12707
 C31 C 0.83036 0.73590 0.11440
 H32 H 0.88142 0.72630 0.17441
 H33 H 0.81807 0.73141 0.09105
 Cu34 Cu 0.83934 0.78777 0.19918
 Cu35 Cu 0.78966 0.79102 0.13355
 Cu36 Cu 0.78330 0.84434 0.19992
 N37 N 0.83576 0.81775 0.23630
 N38 N 0.81362 0.83980 0.23640
 C39 C 0.81739 0.85860 0.26371
 C40 C 0.84309 0.84756 0.28157
 C41 C 0.85443 0.82182 0.26359
 H42 H 0.80345 0.87960 0.26941
 H43 H 0.87547 0.80813 0.26927
 N44 N 0.75487 0.84508 0.16074
 N45 N 0.75735 0.82489 0.13539
 C46 C 0.73471 0.83157 0.11266
 C47 C 0.71742 0.85706 0.12439
 C48 C 0.73063 0.86512 0.15478
 H49 H 0.73096 0.81884 0.08938
 H50 H 0.72305 0.88412 0.17126
 H51 H 0.81219 0.82574 0.16429
 H52 H 0.78369 0.79670 0.18304
 N53 N 0.81603 1.23503 -0.16498
 N54 N 0.83842 1.23390 -0.18681
 C55 C 0.85639 1.26156 -0.18438
 C56 C 0.84440 1.28086 -0.15991
 C57 C 0.81895 1.26343 -0.14797
 H58 H 0.87725 1.26687 -0.19847
 H59 H 0.80441 1.27039 -0.12770
 Cu60 Cu 0.84300 1.19556 -0.21484
 Cu61 Cu 0.78609 1.19885 -0.15888
 Cu62 Cu 0.79410 1.13013 -0.20842
 N63 N 0.84718 1.15700 -0.24264
 N64 N 0.82803 1.13141 -0.23992
 C65 C 0.83573 1.10840 -0.26206
 C66 C 0.86101 1.12034 -0.27933
 C67 C 0.86777 1.15113 -0.26662
 H68 H 0.82366 1.08497 -0.26555
 H69 H 0.88605 1.16799 -0.27448
 N70 N 0.76123 1.13357 -0.17512
 N71 N 0.75811 1.15980 -0.15637
 C72 C 0.73336 1.15493 -0.13662
 C73 C 0.72051 1.12431 -0.14335
 C74 C 0.73852 1.11133 -0.16779
 H75 H 0.72507 1.17238 -0.11885
 H76 H 0.73508 1.08762 -0.17950
 H77 H 0.81582 1.16290 -0.17505
 H78 H 0.78739 1.17942 -0.20585
 N79 N 0.16221 0.75435 -0.15472
 N80 N 0.13702 0.75794 -0.17419
 C81 C 0.11413 0.73574 -0.16728
 C82 C 0.12574 0.71756 -0.14221
 C83 C 0.15621 0.72984 -0.13475
 H84 H 0.09088 0.73287 -0.17956
 H85 H 0.17274 0.72152 -0.11625
 Cu86 Cu 0.13665 0.79103 -0.20687
 Cu87 Cu 0.20076 0.78177 -0.15651
 Cu88 Cu 0.20181 0.83972 -0.21556
 N89 N 0.13823 0.82298 -0.24064
 N90 N 0.16382 0.84181 -0.24399
 C91 C 0.15869 0.86133 -0.26913
 C92 C 0.12836 0.85422 -0.28204
 C93 C 0.11591 0.82985 -0.26363
 H94 H 0.17574 0.87922 -0.27745
 H95 H 0.09253 0.81798 -0.26687
 N96 N 0.23796 0.83394 -0.18452
 N97 N 0.23757 0.81178 -0.16205
 C98 C 0.26461 0.81524 -0.14333
 C99 C 0.28275 0.84058 -0.15473
 C100 C 0.26527 0.85207 -0.18066
 H101 H 0.27002 0.80150 -0.12198
 H102 H 0.27130 0.87306 -0.19455
 H103 H 0.17898 0.82153 -0.17580
 H104 H 0.19511 0.79136 -0.20544
 C105 C 0.47352 1.02794 0.02487
 C106 C 0.49558 1.00491 0.04288
 C107 C 0.51150 0.98473 0.02240
 C108 C 0.50382 0.98921 -0.01399
 C109 C 0.49536 1.04578 0.00156
 C110 C 0.51131 1.02540 -0.01867
 C111 C 0.45131 1.00603 0.00302
 C112 C 0.46708 0.98581 -0.01724
 H113 H 0.50027 1.00634 0.06905
 H114 H 0.51656 0.97264 -0.03068
 H115 H 0.50005 1.07179 0.00299
 H116 H 0.42530 1.00590 0.00407
 C117 C 0.02097 0.47010 1.02404
 C118 C 0.03933 0.49280 1.00184
 C119 C 0.01969 0.51020 0.98228
 C120 C -0.01629 0.50326 0.98651
 C121 C -0.00144 0.49214 1.04289
 C122 C -0.02083 0.50957 1.02313
 C123 C -0.00104 0.44904 1.00111
 C124 C -0.02048 0.46635 0.98152
 H125 H 0.06520 0.49672 1.00337
 H126 H -0.03229 0.51724 0.97043
 H127 H -0.00009 0.49578 1.06922
 H128 H -0.00101 0.42271 1.00019
 C129 C 1.02925 0.02499 0.47364
 C130 C 1.00656 0.04205 0.49686
 C131 C 0.98695 0.02108 0.51257
 C132 C 0.99159 -0.01482 0.50356
 C133 C 1.04736 0.00123 0.49486
 C134 C 1.02753 -0.01950 0.51061
 C135 C 1.00745 0.00385 0.45061
 C136 C 0.98779 -0.01693 0.46622
 H137 H 1.00776 0.06795 0.50238
 H138 H 0.97547 -0.03191 0.51614
 H139 H 1.07316 0.00269 0.49941
 H140 H 1.00699 0.00574 0.42426
 C141 C 0.07661 0.41149 1.08027
 C142 C 0.06962 0.37776 1.07736
 C143 C 0.08805 0.35597 1.09571
 C144 C 0.11338 0.36803 1.11686
 C145 C 0.12029 0.40177 1.11987
 C146 C 0.10184 0.42357 1.10150
 C147 C 0.10919 0.45718 1.10485
 C148 C 0.13407 0.46894 1.12579
 C149 C 0.15210 0.44762 1.14376
 C150 C 0.14540 0.41440 1.14093
 C151 C 0.08061 0.32235 1.09238
 C152 C 0.05569 0.31060 1.07151
 C153 C 0.03767 0.33190 1.05354
 C154 C 0.04445 0.36510 1.05633
 C155 C 0.13232 0.34563 1.13531
 C156 C 0.14769 0.32645 1.15026
 C157 C 0.05782 0.43352 1.06123
 C158 C 0.04158 0.45075 1.04481
 H159 H 0.09581 0.47468 1.09137
 H160 H 0.13938 0.49472 1.12807
 H161 H 0.17139 0.45688 1.16000
 H162 H 0.16007 0.39877 1.15540
 H163 H 0.09392 0.30479 1.10584
 H164 H 0.05033 0.28482 1.06927
 H165 H 0.01834 0.32266 1.03735
 H166 H 0.02972 0.38067 1.04184
 C167 C -0.07040 0.58619 1.05914
 C168 C -0.08893 0.58294 1.08720
 C169 C -0.10440 0.61026 1.10065
 C170 C -0.10124 0.64068 1.08595
 C171 C -0.08298 0.64385 1.05768
 C172 C -0.06753 0.61651 1.04421
 C173 C -0.04939 0.62027 1.01594
 C174 C -0.04665 0.65016 1.00135
 C175 C -0.06166 0.67691 1.01458
 C176 C -0.07964 0.67393 1.04241
 C177 C -0.12270 0.60642 1.12879
 C178 C -0.12565 0.57645 1.14322
 C179 C -0.11053 0.54975 1.13006
 C180 C -0.09235 0.55281 1.10238
 C181 C -0.11655 0.66869 1.10014
 C182 C -0.12925 0.69177 1.11227
 C183 C -0.05362 0.55859 1.04614
 C184 C -0.03910 0.53598 1.03558
 H185 H -0.03723 0.60019 1.00477
 H186 H -0.03280 0.65258 0.97967
 H187 H -0.05940 0.70009 1.00318
 H188 H -0.09091 0.69542 1.05177
 H189 H -0.13492 0.62647 1.13993
 H190 H -0.13975 0.57395 1.16472
 H191 H -0.11291 0.52652 1.14135
 H192 H -0.08107 0.53132 1.09303
 C193 C -0.07925 0.41384 0.91687
 C194 C -0.11109 0.40545 0.92494
 C195 C -0.12839 0.38044 0.90677
 C196 C -0.11373 0.36401 0.88066
 C197 C -0.08276 0.37401 0.87115
 C198 C -0.06546 0.39902 0.88932
 C199 C -0.03430 0.40822 0.87974
 C200 C -0.02064 0.39319 0.85290
 C201 C -0.03756 0.36873 0.83512
 C202 C -0.06826 0.35912 0.84405
 C203 C -0.15999 0.37207 0.91562
 C204 C -0.17413 0.38802 0.94165
 C205 C -0.15719 0.41247 0.95943
 C206 C -0.12599 0.42116 0.95131
 C207 C -0.12938 0.33535 0.86529
 C208 C -0.14168 0.31080 0.85340
 C209 C -0.05954 0.43489 0.93880
 C210 C -0.04223 0.45041 0.95787
 H211 H -0.02030 0.42724 0.89274
 H212 H 0.00319 0.40058 0.84586
 H213 H -0.02685 0.35715 0.81428
 H214 H -0.08055 0.34008 0.82942
 H215 H -0.17413 0.35328 0.90242
 H216 H -0.19836 0.38138 0.94804
 H217 H -0.16829 0.42480 0.97961
 H218 H -0.11378 0.44042 0.96572
 C219 C 0.05412 0.58732 0.93236
 C220 C 0.06775 0.58294 0.90146
 C221 C 0.08139 0.60995 0.88570
 C222 C 0.08131 0.64118 0.90093
 C223 C 0.06701 0.64567 0.93151
 C224 C 0.05336 0.61866 0.94726
 C225 C 0.03933 0.62372 0.97789
 C226 C 0.03888 0.65456 0.99256
 C227 C 0.05221 0.68097 0.97715
 C228 C 0.06616 0.67672 0.94698
 C229 C 0.09504 0.60493 0.85489
 C230 C 0.09517 0.57413 0.84007
 C231 C 0.08182 0.54773 0.85548
 C232 C 0.06825 0.55194 0.88584
 C233 C 0.09659 0.66849 0.88551
 C234 C 0.10969 0.69097 0.87279
 C235 C 0.04165 0.55956 0.94925
 C236 C 0.03158 0.53680 0.96389
 H237 H 0.02853 0.60396 0.99078
 H238 H 0.02805 0.65799 1.01599
 H239 H 0.05174 0.70489 0.98863
 H240 H 0.07619 0.69801 0.93594
 H241 H 0.10567 0.62472 0.84191
 H242 H 0.10568 0.57074 0.81648
 H243 H 0.08197 0.52386 0.84386
 H244 H 0.05812 0.53068 0.89685
 C245 C 1.08487 0.08588 0.41983
 C246 C 1.11879 0.08546 0.42137
 C247 C 1.13688 0.10406 0.39950
 C248 C 1.12093 0.12299 0.37626
 C249 C 1.08703 0.12411 0.37534
 C250 C 1.06895 0.10550 0.39719
 C251 C 1.03506 0.10678 0.39562
 C252 C 1.01950 0.12590 0.37309
 C253 C 1.03719 0.14409 0.35171
 C254 C 1.07056 0.14330 0.35271
 C255 C 1.17075 0.10303 0.40127
 C256 C 1.18631 0.08417 0.42404
 C257 C 1.16861 0.06599 0.44544
 C258 C 1.13522 0.06652 0.44422
 C259 C 1.13919 0.14045 0.35258
 C260 C 1.15378 0.15466 0.33230
 C261 C 1.06623 0.06498 0.44026
 C262 C 1.05000 0.04716 0.45607
 H263 H 1.02024 0.09312 0.41178
 H264 H 0.99358 0.12660 0.37223
 H265 H 1.02499 0.15890 0.33425
 H266 H 1.08326 0.15792 0.33561
 H267 H 1.18554 0.11679 0.38516
 H268 H 1.21224 0.08367 0.42509
 H269 H 1.18081 0.05140 0.46309
 H270 H 1.12247 0.05203 0.46139
 C271 C 1.06146 -0.07227 0.58624
 C272 C 1.04593 -0.07073 0.61639
 C273 C 1.05901 -0.08672 0.64367
 C274 C 1.08754 -0.10417 0.64062
 C275 C 1.10271 -0.10622 0.61029
 C276 C 1.08963 -0.09022 0.58302
 C277 C 1.10532 -0.09246 0.55301
 C278 C 1.13314 -0.11002 0.55000
 C279 C 1.14593 -0.12568 0.57665
 C280 C 1.13100 -0.12388 0.60651
 C281 C 1.04317 -0.08468 0.67360
 C282 C 1.01514 -0.06742 0.67648
 C283 C 1.00230 -0.05186 0.64979
 C284 C 1.01745 -0.05333 0.62005
 C285 C 1.10171 -0.11943 0.66876
 C286 C 1.11401 -0.13191 0.69197
 C287 C 1.04910 -0.05448 0.55891
 C288 C 1.03916 -0.03901 0.53658
 H289 H 1.09626 -0.08074 0.53157
 H290 H 1.14482 -0.11150 0.52686
 H291 H 1.16754 -0.13930 0.57419
 H292 H 1.14186 -0.13649 0.62651
 H293 H 1.05221 -0.09645 0.69503
 H294 H 1.00330 -0.06614 0.69954
 H295 H 0.98048 -0.03855 0.65213
 H296 H 1.00655 -0.04080 0.60000
 C297 C 0.92432 -0.07006 0.40705
 C298 C 0.91416 -0.10246 0.41194
 C299 C 0.89572 -0.11996 0.38715
 C300 C 0.88758 -0.10491 0.35765
 C301 C 0.89673 -0.07210 0.35329
 C302 C 0.91514 -0.05463 0.37804
 C303 C 0.92427 -0.02194 0.37295
 C304 C 0.91546 -0.00696 0.34426
 C305 C 0.89745 -0.02405 0.32007
 C306 C 0.88813 -0.05623 0.32438
 C307 C 0.88605 -0.15240 0.39246
 C308 C 0.89428 -0.16713 0.42148
 C309 C 0.91231 -0.15001 0.44570
 C310 C 0.92224 -0.11803 0.44110
 C311 C 0.87087 -0.12323 0.33121
 C312 C 0.85757 -0.13745 0.30827
 C313 C 0.94574 -0.05290 0.43066
 C314 C 0.96446 -0.03729 0.44821
 H315 H 0.93820 -0.00754 0.39107
 H316 H 0.92264 0.01805 0.34081
 H317 H 0.89064 -0.01230 0.29782
 H318 H 0.87407 -0.06845 0.30485
 H319 H 0.87195 -0.16663 0.37433
 H320 H 0.88661 -0.19195 0.42519
 H321 H 0.91862 -0.16157 0.46820
 H322 H 0.93616 -0.10562 0.46063
 C323 C 0.93581 0.05198 0.59052
 C324 C 0.94989 0.05013 0.62219
 C325 C 0.93391 0.06310 0.64952
 C326 C 0.90392 0.07779 0.64501
 C327 C 0.88946 0.07887 0.61343
 C328 C 0.90546 0.06593 0.58611
 C329 C 0.89065 0.06746 0.55476
 C330 C 0.86085 0.08137 0.55052
 C331 C 0.84520 0.09403 0.57723
 C332 C 0.85923 0.09286 0.60838
 C333 C 0.94857 0.06119 0.68090
 C334 C 0.97818 0.04689 0.68517
 C335 C 0.99381 0.03422 0.65845
 C336 C 0.97993 0.03571 0.62727
 C337 C 0.88836 0.09261 0.67265
 C338 C 0.87549 0.10543 0.69535
 C339 C 0.95308 0.04056 0.56247
 C340 C 0.96807 0.03152 0.53947
 H341 H 0.90186 0.05788 0.53325
 H342 H 0.84984 0.08233 0.52638
 H343 H 0.82205 0.10480 0.57382
 H344 H 0.84609 0.10298 0.62840
 H345 H 0.93731 0.07067 0.70244
 H346 H 0.98905 0.04563 0.70934
 H347 H 1.01679 0.02311 0.66189
 H348 H 0.99296 0.02538 0.60728
 C349 C 0.41669 1.08513 0.08138
 C350 C 0.38396 1.08553 0.07122
 C351 C 0.36205 1.10362 0.08971
 C352 C 0.37299 1.12122 0.11825
 C353 C 0.40576 1.12100 0.12829
 C354 C 0.42768 1.10289 0.10977
 C355 C 0.46029 1.10295 0.12027
 C356 C 0.47096 1.12044 0.14829
 C357 C 0.44954 1.13816 0.16640
 C358 C 0.41727 1.13852 0.15663
 C359 C 0.32943 1.10357 0.07910
 C360 C 0.31877 1.08614 0.05105
 C361 C 0.34019 1.06844 0.03297
 C362 C 0.37242 1.06805 0.04281
 C363 C 0.35036 1.13930 0.13723
 C364 C 0.33081 1.15391 0.15235
 C365 C 0.43867 1.06597 0.06268
 C366 C 0.45543 1.04928 0.04620
 H367 H 0.47783 1.08954 0.10695
 H368 H 0.49600 1.12025 0.15599
 H369 H 0.45796 1.15170 0.18815
 H370 H 0.40150 1.15264 0.17149
 H371 H 0.31181 1.11697 0.09231
 H372 H 0.29375 1.08639 0.04330
 H373 H 0.33180 1.05493 0.01119
 H374 H 0.38811 1.05393 0.02787
 C375 C 0.58731 1.05886 -0.06997
 C376 C 0.58630 1.08971 -0.08394
 C377 C 0.61362 1.10244 -0.09955
 C378 C 0.64180 1.08424 -0.10112
 C379 C 0.64267 1.05319 -0.08754
 C380 C 0.61533 1.04047 -0.07191
 C381 C 0.61679 1.00945 -0.05837
 C382 C 0.64444 0.99146 -0.06031
 C383 C 0.67118 1.00392 -0.07554
 C384 C 0.67044 1.03442 -0.08905
 C385 C 0.61207 1.13342 -0.11317
 C386 C 0.58433 1.15129 -0.11143
 C387 C 0.55762 1.13883 -0.09618
 C388 C 0.55845 1.10841 -0.08254
 C389 C 0.66998 1.09776 -0.11626
 C390 C 0.69316 1.10958 -0.12868
 C391 C 0.55994 1.04657 -0.05269
 C392 C 0.53751 1.03674 -0.03765
 H393 H 0.59662 0.99874 -0.04623
 H394 H 0.64514 0.96777 -0.04985
 H395 H 0.69262 0.98987 -0.07693
 H396 H 0.69182 1.04307 -0.10068
 H397 H 0.63222 1.14417 -0.12531
 H398 H 0.58357 1.17494 -0.12198
 H399 H 0.53612 1.15280 -0.09489
 H400 H 0.53705 1.09974 -0.07096
 C401 C 0.40797 0.92301 -0.07101
 C402 C 0.41462 0.90772 -0.10125
 C403 C 0.39005 0.88933 -0.11884
 C404 C 0.35901 0.88639 -0.10604
 C405 C 0.35263 0.90097 -0.07535
 C406 C 0.37716 0.91932 -0.05779
 C407 C 0.37008 0.93388 -0.02724
 C408 C 0.33968 0.93043 -0.01447
 C409 C 0.31570 0.91248 -0.03165
 C410 C 0.32195 0.89787 -0.06173
 C411 C 0.39717 0.87442 -0.14912
 C412 C 0.42774 0.87753 -0.16166
 C413 C 0.45174 0.89551 -0.14445
 C414 C 0.44538 0.91052 -0.11457
 C415 C 0.33321 0.86924 -0.12455
 C416 C 0.31070 0.85578 -0.13889
 C417 C 0.43195 0.94384 -0.05383
 C418 C 0.44955 0.96236 -0.03803
 H419 H 0.38790 0.94802 -0.01284
 H420 H 0.33472 0.94174 0.00890
 H421 H 0.29211 0.90985 -0.02163
 H422 H 0.30248 0.88412 -0.07409
 H423 H 0.37927 0.86017 -0.16333
 H424 H 0.43282 0.86592 -0.18485
 H425 H 0.47543 0.89784 -0.15430
 H426 H 0.46478 0.92421 -0.10200
 C427 C 0.58734 0.93265 0.05501
 C428 C 0.58257 0.90430 0.07292
 C429 C 0.60943 0.88807 0.08592
 C430 C 0.64089 0.90030 0.08095
 C431 C 0.64568 0.92822 0.06237
 C432 C 0.61882 0.94444 0.04935
 C433 C 0.62419 0.97242 0.03102
 C434 C 0.65520 0.98408 0.02578
 C435 C 0.68146 0.96820 0.03846
 C436 C 0.67690 0.94058 0.05657
 C437 C 0.60404 0.85987 0.10389
 C438 C 0.57303 0.84803 0.10886
 C439 C 0.54677 0.86391 0.09615
 C440 C 0.55135 0.89175 0.07838
 C441 C 0.66822 0.88471 0.09574
 C442 C 0.69076 0.87198 0.10855
 C443 C 0.55995 0.95026 0.04323
 C444 C 0.53757 0.96554 0.03370
 H445 H 0.60454 0.98556 0.02054
 H446 H 0.65888 1.00556 0.01178
 H447 H 0.70551 0.97733 0.03427
 H448 H 0.69808 0.92905 0.06592
 H449 H 0.62370 0.84663 0.11422
 H450 H 0.56935 0.82641 0.12264
 H451 H 0.52273 0.85462 0.10007
 H452 H 0.53018 0.90324 0.06894
   
