data_POSCAR
  _audit_creation_date              2014-09-24
  _audit_creation_method            'ToBaCCo'
  _symmetry_space_group_name_H-M    'P1'
  _symmetry_Int_Tables_number       1
  _symmetry_cell_setting            triclinic
  loop_
  _symmetry_equiv_pos_as_xyz
 x,y,z
_cell_length_a 29.8406
_cell_length_b 31.5212
_cell_length_c 16.2310
_cell_angle_alpha 89.997700
_cell_angle_beta 89.790400
_cell_angle_gamma 90.146200
loop_
  _atom_site_label
  _atom_site_type_symbol
  _atom_site_fract_x
  _atom_site_fract_y
  _atom_site_fract_z
C1 C 0.79719 0.16839 0.42872
 C2 C 0.80683 0.15025 0.50561
 C3 C 0.79613 0.17004 0.58062
 C4 C 0.77145 0.20854 0.57883
 C5 C 0.75861 0.22631 0.50184
 C6 C 0.77173 0.20642 0.42673
 C7 C 0.75653 0.22364 0.35193
 C8 C 0.73201 0.26097 0.34996
 C9 C 0.71908 0.28143 0.42295
 C10 C 0.73190 0.26378 0.49990
 C11 C 0.75699 0.22850 0.65169
 C12 C 0.73255 0.26591 0.64966
 C13 C 0.71812 0.28351 0.57478
 C14 C 0.69218 0.32138 0.57221
 C15 C 0.68179 0.33879 0.49500
 C16 C 0.69381 0.31924 0.42103
 H17 H 0.76270 0.20810 0.29365
 H18 H 0.72307 0.27342 0.29018
 H19 H 0.76385 0.21524 0.71169
 H20 H 0.72538 0.28087 0.70809
 H21 H 0.82805 0.12237 0.50727
 H22 H 0.66066 0.36671 0.49181
 C23 C 0.31139 0.68258 0.42945
 C24 C 0.32405 0.66605 0.50572
 C25 C 0.31039 0.68435 0.58003
 C26 C 0.28295 0.72088 0.57864
 C27 C 0.26910 0.73793 0.50181
 C28 C 0.28342 0.71875 0.42690
 C29 C 0.26906 0.73596 0.35174
 C30 C 0.24250 0.77209 0.34969
 C31 C 0.22776 0.79156 0.42276
 C32 C 0.24092 0.77428 0.49983
 C33 C 0.26900 0.74074 0.65168
 C34 C 0.24247 0.77693 0.64972
 C35 C 0.22657 0.79355 0.57482
 C36 C 0.19906 0.83039 0.57217
 C37 C 0.18779 0.84726 0.49489
 C38 C 0.20090 0.82835 0.42088
 H39 H 0.27825 0.72174 0.29348
 H40 H 0.23388 0.78473 0.28989
 H41 H 0.27879 0.72877 0.71137
 H42 H 0.23534 0.79208 0.70799
 H43 H 0.34619 0.63879 0.50733
 H44 H 0.16538 0.87427 0.49168
 C45 C 0.19324 0.17727 -0.42841
 C46 C 0.18393 0.15889 -0.50524
 C47 C 0.19424 0.17884 -0.58030
 C48 C 0.21808 0.21793 -0.57865
 C49 C 0.23067 0.23599 -0.50170
 C50 C 0.21781 0.21595 -0.42650
 C51 C 0.23251 0.23366 -0.35173
 C52 C 0.25673 0.27129 -0.34997
 C53 C 0.26994 0.29158 -0.42306
 C54 C 0.25712 0.27377 -0.49990
 C55 C 0.23206 0.23818 -0.65158
 C56 C 0.25626 0.27585 -0.64964
 C57 C 0.27095 0.29344 -0.57486
 C58 C 0.29734 0.33117 -0.57255
 C59 C 0.30780 0.34872 -0.49542
 C60 C 0.29560 0.32930 -0.42132
 H61 H 0.22632 0.21825 -0.29332
 H62 H 0.26534 0.28405 -0.29024
 H63 H 0.22514 0.22492 -0.71156
 H64 H 0.26318 0.29097 -0.70806
 H65 H 0.16343 0.13043 -0.50681
 H66 H 0.32945 0.37637 -0.49236
 C67 C -0.29587 0.66680 -0.42843
 C68 C -0.30520 0.64840 -0.50524
 C69 C -0.29486 0.66833 -0.58032
 C70 C -0.27074 0.70728 -0.57865
 C71 C -0.25824 0.72540 -0.50174
 C72 C -0.27099 0.70531 -0.42658
 C73 C -0.25608 0.72289 -0.35184
 C74 C -0.23237 0.76080 -0.34998
 C75 C -0.21984 0.78149 -0.42303
 C76 C -0.23229 0.76348 -0.49991
 C77 C -0.25657 0.72743 -0.65156
 C78 C -0.23294 0.76542 -0.64967
 C79 C -0.21890 0.78343 -0.57485
 C80 C -0.19369 0.82186 -0.57242
 C81 C -0.18368 0.83961 -0.49529
 C82 C -0.19531 0.81986 -0.42125
 H83 H -0.26191 0.70724 -0.29353
 H84 H -0.22375 0.77352 -0.29023
 H85 H -0.26306 0.71392 -0.71151
 H86 H -0.22610 0.78049 -0.70816
 H87 H -0.32609 0.62020 -0.50678
 H88 H -0.16301 0.86794 -0.49220
 N89 N 0.04272 1.07767 -0.09233
 N90 N 0.07225 1.10727 -0.11286
 N91 N -0.05180 1.04494 -0.14077
 N92 N -0.08305 1.05165 -0.19624
 N93 N -0.05118 1.07570 -0.08620
 N94 N -0.08163 1.10467 -0.10435
 N95 N 0.04255 1.04707 -0.14723
 N96 N 0.07232 1.05456 -0.20554
 C97 C 0.09092 1.09194 -0.18312
 C98 C -0.10180 1.08867 -0.17246
 N99 N -0.04776 0.92348 -0.08605
 N100 N -0.07664 0.89298 -0.10391
 N101 N 0.04452 0.95612 -0.14735
 N102 N 0.07440 0.94970 -0.20590
 N103 N 0.04603 0.92563 -0.09233
 N104 N 0.07662 0.89720 -0.11289
 N105 N -0.04992 0.95406 -0.14081
 N106 N -0.08085 0.94567 -0.19623
 Mn107 Mn -0.00367 1.00056 -0.14463
 C108 C -0.09765 0.90779 -0.17196
 C109 C 0.09451 0.91312 -0.18337
 N110 N -0.04801 1.07558 0.09263
 N111 N -0.07883 1.10380 0.11321
 N112 N 0.04787 1.04709 0.14099
 N113 N 0.07877 1.05517 0.19651
 N114 N 0.04589 1.07781 0.08649
 N115 N 0.07501 1.10812 0.10474
 N116 N -0.04647 1.04498 0.14748
 N117 N -0.07656 1.05110 0.20578
 Mn118 Mn -0.00266 1.07724 0.00015
 C119 C -0.09682 1.08761 0.18342
 C120 C 0.09585 1.09301 0.17283
 N121 N 0.04921 0.92558 0.08594
 N122 N 0.07946 0.89641 0.10361
 N123 N -0.04442 0.95407 0.14737
 N124 N -0.07401 0.94632 0.20588
 N125 N -0.04458 0.92357 0.09228
 N126 N -0.07389 0.89380 0.11280
 N127 N 0.05001 0.95618 0.14080
 N128 N 0.08133 0.94915 0.19612
 Mn129 Mn 0.00073 0.92408 -0.00004
 Mn130 Mn 0.00177 1.00059 0.14474
 Cl131 Cl -0.00096 1.00064 0.00006
 C132 C 0.09982 0.91209 0.17168
 C133 C -0.09247 0.90889 0.18328
 N134 N 0.54908 0.57404 -0.09232
 N135 N 0.58037 0.60195 -0.11279
 N136 N 0.45235 0.54719 -0.14059
 N137 N 0.42161 0.55618 -0.19591
 N138 N 0.45537 0.57773 -0.08586
 N139 N 0.42724 0.60874 -0.10357
 N140 N 0.54672 0.54372 -0.14760
 N141 N 0.57677 0.54966 -0.20614
 C142 C 0.59782 0.58582 -0.18338
 C143 C 0.40580 0.59435 -0.17158
 N144 N 0.44890 0.42542 -0.08615
 N145 N 0.41833 0.39645 -0.10415
 N146 N 0.54280 0.45292 -0.14777
 N147 N 0.57238 0.44514 -0.20617
 N148 N 0.54268 0.42242 -0.09266
 N149 N 0.57179 0.39258 -0.11315
 N150 N 0.44844 0.45617 -0.14075
 N151 N 0.41708 0.44940 -0.19621
 Mn152 Mn 0.49751 0.50000 -0.14479
 C153 C 0.39817 0.41239 -0.17210
 C154 C 0.59053 0.40767 -0.18363
 N155 N 0.45856 0.57742 0.09226
 N156 N 0.43004 0.60774 0.11252
 N157 N 0.55207 0.54339 0.14124
 N158 N 0.58325 0.54989 0.19704
 N159 N 0.55228 0.57398 0.08631
 N160 N 0.58317 0.60264 0.10453
 N161 N 0.45769 0.54685 0.14721
 N162 N 0.42809 0.55514 0.20544
 Mn163 Mn 0.50389 0.57628 0.00009
 C164 C 0.41077 0.59296 0.18265
 C165 C 0.60278 0.58661 0.17302
 N166 N 0.54586 0.42214 0.08610
 N167 N 0.57456 0.39156 0.10370
 N168 N 0.45393 0.45581 0.14717
 N169 N 0.42393 0.44960 0.20569
 N170 N 0.45208 0.42529 0.09221
 N171 N 0.42112 0.39707 0.11279
 N172 N 0.54832 0.45264 0.14104
 N173 N 0.57929 0.44415 0.19620
 Mn174 Mn 0.49740 0.42331 -0.00013
 Mn175 Mn 0.50297 0.49967 0.14479
 Cl176 Cl 0.50045 0.49981 -0.00001
 C177 C 0.59577 0.40627 0.17176
 C178 C 0.40338 0.41315 0.18318
 C179 C 0.34047 0.32693 0.29745
 C180 C 0.31687 0.35075 0.35711
 C181 C 0.31879 0.39539 0.35191
 C182 C 0.34514 0.41545 0.29246
 C183 C 0.37002 0.39158 0.23581
 C184 C 0.36633 0.34721 0.23679
 H185 H 0.34185 0.29266 0.30120
 H186 H 0.30068 0.41498 0.39556
 H187 H 0.34717 0.44977 0.29247
 H188 H 0.38581 0.32814 0.19434
 C189 C -0.15071 0.81971 0.29725
 C190 C -0.17531 0.84235 0.35724
 C191 C -0.17566 0.88703 0.35238
 C192 C -0.15054 0.90834 0.29283
 C193 C -0.12460 0.88571 0.23585
 C194 C -0.12603 0.84123 0.23655
 H195 H -0.14766 0.78553 0.30076
 H196 H -0.19460 0.90569 0.39638
 H197 H -0.15026 0.94271 0.29308
 H198 H -0.10570 0.82314 0.19381
 C199 C 0.66206 0.67346 0.29045
 C200 C 0.68742 0.64960 0.34718
 C201 C 0.68865 0.60515 0.33748
 C202 C 0.66323 0.58508 0.27710
 C203 C 0.63618 0.60879 0.22402
 C204 C 0.63710 0.65322 0.22883
 H205 H 0.65841 0.70743 0.29766
 H206 H 0.70818 0.58565 0.37892
 H207 H 0.66328 0.55074 0.27413
 H208 H 0.61588 0.67209 0.18921
 C209 C 0.15149 1.18235 0.28981
 C210 C 0.17749 1.15947 0.34709
 C211 C 0.18044 1.11510 0.33781
 C212 C 0.15609 1.09405 0.27724
 C213 C 0.12823 1.11665 0.22373
 C214 C 0.12742 1.16110 0.22816
 H215 H 0.14669 1.21621 0.29663
 H216 H 0.20050 1.09637 0.37975
 H217 H 0.15754 1.05973 0.27460
 H218 H 0.10561 1.17913 0.18816
 C219 C 0.64942 0.31886 -0.29715
 C220 C 0.67369 0.34171 -0.35747
 C221 C 0.67365 0.38639 -0.35292
 C222 C 0.64848 0.40748 -0.29335
 C223 C 0.62278 0.38466 -0.23609
 C224 C 0.62459 0.34019 -0.23649
 H225 H 0.64675 0.28463 -0.30036
 H226 H 0.69235 0.40521 -0.39717
 H227 H 0.64796 0.44185 -0.29384
 H228 H 0.60447 0.32193 -0.19352
 C229 C 0.15726 0.82659 -0.29633
 C230 C 0.18000 0.85021 -0.35750
 C231 C 0.17782 0.89486 -0.35362
 C232 C 0.15191 0.91509 -0.29401
 C233 C 0.12763 0.89141 -0.23601
 C234 C 0.13169 0.84707 -0.23564
 H235 H 0.15631 0.79227 -0.29887
 H236 H 0.19539 0.91429 -0.39843
 H237 H 0.14966 0.94939 -0.29504
 H238 H 0.11274 0.82814 -0.19201
 C239 C 0.31955 0.62046 -0.33153
 C240 C 0.32700 0.66403 -0.34347
 C241 C 0.35648 0.68563 -0.29066
 C242 C 0.37965 0.66351 -0.22933
 C243 C 0.37458 0.61937 -0.22191
 C244 C 0.34342 0.59827 -0.27183
 H245 H 0.29725 0.60314 -0.37202
 H246 H 0.36349 0.71902 -0.30001
 H247 H 0.40393 0.68030 -0.19202
 H248 H 0.33901 0.56422 -0.26708
 C249 C -0.16098 1.17545 -0.28985
 C250 C -0.18625 1.15145 -0.34673
 C251 C -0.18754 1.10702 -0.33700
 C252 C -0.16227 1.08707 -0.27642
 C253 C -0.13518 1.11087 -0.22330
 C254 C -0.13604 1.15530 -0.22815
 H255 H -0.15740 1.20945 -0.29704
 H256 H -0.20699 1.08744 -0.37858
 H257 H -0.16242 1.05273 -0.27344
 H258 H -0.11483 1.17425 -0.18849
 C259 C 0.68311 0.60281 -0.35119
 C260 C 0.68457 0.64743 -0.35778
 C261 C 0.66053 0.67149 -0.29905
 C262 C 0.63467 0.65149 -0.23813
 C263 C 0.63134 0.60713 -0.23596
 C264 C 0.65664 0.58301 -0.29156
 H265 H 0.70165 0.58303 -0.39388
 H266 H 0.65883 0.70572 -0.30375
 H267 H 0.61485 0.67073 -0.19649
 H268 H 0.65487 0.54867 -0.29058
 C269 C 0.17490 1.11255 -0.35159
 C270 C 0.17465 1.15718 -0.35768
 C271 C 0.14999 1.18027 -0.29835
 C272 C 0.12504 1.15921 -0.23738
 C273 C 0.12342 1.11474 -0.23565
 C274 C 0.14951 1.09169 -0.29178
 H275 H 0.19397 1.09353 -0.39482
 H276 H 0.14713 1.21444 -0.30261
 H277 H 0.10463 1.17762 -0.19530
 H278 H 0.14913 1.05732 -0.29119
 C279 C 0.34349 0.32502 -0.29449
 C280 C 0.31418 0.34831 -0.34474
 C281 C 0.30892 0.39195 -0.33020
 C282 C 0.33461 0.41243 -0.27046
 C283 C 0.36527 0.38947 -0.22283
 C284 C 0.36828 0.34536 -0.23292
 H285 H 0.34910 0.29160 -0.30597
 H286 H 0.28687 0.41062 -0.36865
 H287 H 0.33189 0.44652 -0.26371
 H288 H 0.39222 0.32717 -0.19758
 C289 C -0.18549 0.88303 -0.33023
 C290 C -0.17792 0.83969 -0.34459
 C291 C -0.14757 0.81782 -0.29406
 C292 C -0.12397 0.83934 -0.23242
 C293 C -0.12929 0.88327 -0.22254
 C294 C -0.16103 0.90472 -0.27038
 H295 H -0.20840 0.90062 -0.36892
 H296 H -0.14026 0.78468 -0.30539
 H297 H -0.09916 0.82234 -0.19688
 H298 H -0.16554 0.93865 -0.26379
 C299 C 0.32526 0.61719 0.34669
 C300 C 0.32993 0.66132 0.35511
 C301 C 0.35797 0.68341 0.30003
 C302 C 0.38202 0.66147 0.23934
 C303 C 0.37942 0.61705 0.23481
 C304 C 0.35010 0.59521 0.28765
 H305 H 0.30408 0.59948 0.38884
 H306 H 0.36296 0.71728 0.30663
 H307 H 0.40484 0.67886 0.19972
 H308 H 0.34757 0.56095 0.28511
 C309 C -0.18176 1.10449 0.35173
 C310 C -0.18329 1.14910 0.35806
 C311 C -0.15945 1.17323 0.29898
 C312 C -0.13363 1.15330 0.23800
 C313 C -0.13025 1.10894 0.23602
 C314 C -0.15546 1.08477 0.29193
 H315 H -0.20015 1.08465 0.39470
 H316 H -0.15789 1.20748 0.30344
 H317 H -0.11392 1.17259 0.19612
 H318 H -0.15370 1.05044 0.29113
 C319 C 0.64612 0.31662 0.29371
 C320 C 0.67636 0.33880 0.34423
 C321 C 0.68381 0.38216 0.32968
 C322 C 0.65932 0.40359 0.26971
 C323 C 0.62759 0.38189 0.22199
 C324 C 0.62241 0.33792 0.23200
 H325 H 0.63898 0.28343 0.30513
 H326 H 0.70664 0.39996 0.36834
 H327 H 0.66375 0.43754 0.26302
 H328 H 0.59762 0.32071 0.19657
 C329 C 0.18824 0.89127 0.33067
 C330 C 0.18302 0.84750 0.34405
 C331 C 0.15435 0.82423 0.29236
 C332 C 0.12983 0.84478 0.23080
 C333 C 0.13262 0.88901 0.22206
 C334 C 0.16291 0.91190 0.27084
 H335 H 0.20988 0.90988 0.37018
 H336 H 0.14895 0.79066 0.30280
 H337 H 0.10622 0.82663 0.19444
 H338 H 0.16553 0.94606 0.26507
   
