data_POSCAR
  _audit_creation_date              2014-09-24
  _audit_creation_method            'ToBaCCo'
  _symmetry_space_group_name_H-M    'P1'
  _symmetry_Int_Tables_number       1
  _symmetry_cell_setting            triclinic
  loop_
  _symmetry_equiv_pos_as_xyz
 x,y,z
_cell_length_a 37.9812
_cell_length_b 37.9814
_cell_length_c 37.4077
_cell_angle_alpha 89.959400
_cell_angle_beta 89.959400
_cell_angle_gamma 90.096100
loop_
  _atom_site_label
  _atom_site_type_symbol
  _atom_site_fract_x
  _atom_site_fract_y
  _atom_site_fract_z
C1 C -0.07494 0.30932 0.03233
 C2 C -0.09307 0.30897 -0.00016
 C3 C -0.07507 0.30925 -0.03275
 C4 C -0.03782 0.31025 -0.03320
 C5 C -0.01908 0.31072 -0.00038
 C6 C -0.03768 0.31034 0.03256
 C7 C -0.01852 0.31046 0.06475
 C8 C 0.01813 0.31047 0.06462
 C9 C 0.03706 0.31034 0.03232
 C10 C 0.01834 0.31071 -0.00050
 C11 C -0.01879 0.31026 -0.06551
 C12 C 0.01785 0.31022 -0.06561
 C13 C 0.03698 0.31019 -0.03341
 C14 C 0.07423 0.30913 -0.03312
 C15 C 0.09230 0.30888 -0.00059
 C16 C 0.07423 0.30931 0.03192
 H17 H -0.03176 0.31037 0.09040
 H18 H 0.03153 0.31037 0.09016
 H19 H -0.03214 0.31009 -0.09108
 H20 H 0.03112 0.31003 -0.09124
 H21 H -0.12167 0.30759 -0.00007
 H22 H 0.12087 0.30746 -0.00049
 C23 C 0.42549 0.81120 0.53253
 C24 C 0.40746 0.81078 0.50000
 C25 C 0.42558 0.81117 0.46750
 C26 C 0.46276 0.81233 0.46719
 C27 C 0.48138 0.81284 0.50006
 C28 C 0.46267 0.81233 0.53291
 C29 C 0.48164 0.81240 0.56518
 C30 C 0.51830 0.81247 0.56522
 C31 C 0.53737 0.81249 0.53298
 C32 C 0.51876 0.81294 0.50010
 C33 C 0.48182 0.81245 0.43495
 C34 C 0.51849 0.81257 0.43498
 C35 C 0.53746 0.81256 0.46726
 C36 C 0.57465 0.81161 0.46763
 C37 C 0.59268 0.81125 0.50016
 C38 C 0.57456 0.81151 0.53266
 H39 H 0.46825 0.81219 0.59074
 H40 H 0.53162 0.81232 0.59080
 H41 H 0.46851 0.81225 0.40936
 H42 H 0.53188 0.81246 0.40942
 H43 H 0.37892 0.80924 0.49998
 H44 H 0.62122 0.80985 0.50017
 C45 C 1.07417 0.68963 0.03160
 C46 C 1.09239 0.69003 -0.00082
 C47 C 1.07446 0.68973 -0.03344
 C48 C 1.03721 0.68868 -0.03392
 C49 C 1.01843 0.68817 -0.00111
 C50 C 1.03698 0.68857 0.03181
 C51 C 1.01788 0.68844 0.06402
 C52 C 0.98123 0.68841 0.06394
 C53 C 0.96230 0.68853 0.03164
 C54 C 0.98103 0.68816 -0.00119
 C55 C 1.01823 0.68867 -0.06623
 C56 C 0.98158 0.68868 -0.06631
 C57 C 0.96242 0.68869 -0.03409
 C58 C 0.92516 0.68975 -0.03377
 C59 C 0.90707 0.69000 -0.00122
 C60 C 0.92512 0.68956 0.03128
 H61 H 1.03115 0.68855 0.08963
 H62 H 0.96782 0.68851 0.08949
 H63 H 1.03161 0.68886 -0.09179
 H64 H 0.96833 0.68888 -0.09193
 H65 H 1.12096 0.69148 -0.00060
 H66 H 0.87851 0.69144 -0.00110
 C67 C 0.42570 0.18963 0.46793
 C68 C 0.40766 0.19004 0.50048
 C69 C 0.42576 0.18970 0.53296
 C70 C 0.46295 0.18860 0.53324
 C71 C 0.48157 0.18812 0.50034
 C72 C 0.46288 0.18858 0.46751
 C73 C 0.48186 0.18853 0.43522
 C74 C 0.51853 0.18851 0.43514
 C75 C 0.53758 0.18853 0.46736
 C76 C 0.51895 0.18807 0.50026
 C77 C 0.48201 0.18852 0.56545
 C78 C 0.51867 0.18845 0.56538
 C79 C 0.53765 0.18847 0.53308
 C80 C 0.57484 0.18943 0.53266
 C81 C 0.59288 0.18981 0.50011
 C82 C 0.57477 0.18953 0.46763
 H83 H 0.46848 0.18870 0.40967
 H84 H 0.53185 0.18868 0.40954
 H85 H 0.46869 0.18871 0.59105
 H86 H 0.53205 0.18858 0.59093
 H87 H 0.37911 0.19150 0.50053
 H88 H 0.62143 0.19121 0.50006
 C89 C 0.69081 -0.07504 0.03218
 C90 C 0.69119 -0.09318 -0.00031
 C91 C 0.69089 -0.07517 -0.03290
 C92 C 0.68983 -0.03793 -0.03335
 C93 C 0.68931 -0.01920 -0.00053
 C94 C 0.68973 -0.03780 0.03241
 C95 C 0.68956 -0.01863 0.06460
 C96 C 0.68950 0.01801 0.06447
 C97 C 0.68960 0.03694 0.03217
 C98 C 0.68926 0.01822 -0.00065
 C99 C 0.68979 -0.01891 -0.06566
 C100 C 0.68976 0.01774 -0.06576
 C101 C 0.68976 0.03686 -0.03356
 C102 C 0.69075 0.07412 -0.03327
 C103 C 0.69097 0.09220 -0.00074
 C104 C 0.69056 0.07412 0.03177
 H105 H 0.68967 -0.03187 0.09025
 H106 H 0.68956 0.03141 0.09001
 H107 H 0.68998 -0.03226 -0.09123
 H108 H 0.68994 0.03101 -0.09139
 H109 H 0.69261 -0.12177 -0.00023
 H110 H 0.69235 0.12077 -0.00064
 C111 C 0.18869 0.57384 0.53275
 C112 C 0.18906 0.59196 0.50025
 C113 C 0.18869 0.57393 0.46773
 C114 C 0.18763 0.53674 0.46735
 C115 C 0.18713 0.51804 0.50019
 C116 C 0.18759 0.53665 0.53307
 C117 C 0.18749 0.51759 0.56531
 C118 C 0.18743 0.48092 0.56528
 C119 C 0.18749 0.46196 0.53300
 C120 C 0.18709 0.48066 0.50016
 C121 C 0.18761 0.51778 0.43507
 C122 C 0.18760 0.48111 0.43504
 C123 C 0.18759 0.46205 0.46728
 C124 C 0.18864 0.42486 0.46760
 C125 C 0.18891 0.40675 0.50010
 C126 C 0.18850 0.42477 0.53262
 H127 H 0.18765 0.53091 0.59089
 H128 H 0.18755 0.46754 0.59084
 H129 H 0.18780 0.53117 0.40951
 H130 H 0.18779 0.46780 0.40946
 H131 H 0.19055 0.62051 0.50027
 H132 H 0.19036 0.37820 0.50008
 C133 C 0.31031 1.07565 0.03282
 C134 C 0.30993 1.09380 0.00032
 C135 C 0.31024 1.07582 -0.03226
 C136 C 0.31130 1.03858 -0.03269
 C137 C 0.31182 1.01983 0.00015
 C138 C 0.31140 1.03840 0.03308
 C139 C 0.31154 1.01920 0.06529
 C140 C 0.31158 0.98255 0.06518
 C141 C 0.31148 0.96366 0.03288
 C142 C 0.31186 0.98243 0.00007
 C143 C 0.31133 1.01956 -0.06498
 C144 C 0.31134 0.98290 -0.06504
 C145 C 0.31135 0.96384 -0.03282
 C146 C 0.31031 0.92664 -0.03255
 C147 C 0.31005 0.90849 -0.00008
 C148 C 0.31046 0.92647 0.03245
 H149 H 0.31143 1.03242 0.09093
 H150 H 0.31149 0.96912 0.09071
 H151 H 0.31113 1.03291 -0.09057
 H152 H 0.31115 0.96961 -0.09063
 H153 H 0.30849 1.12239 0.00038
 H154 H 0.30859 0.87994 -0.00013
 C155 C 0.81068 0.42574 0.46760
 C156 C 0.81035 0.40770 0.50015
 C157 C 0.81061 0.42581 0.53263
 C158 C 0.81155 0.46300 0.53290
 C159 C 0.81196 0.48163 0.50000
 C160 C 0.81158 0.46293 0.46718
 C161 C 0.81155 0.48191 0.43488
 C162 C 0.81141 0.51858 0.43481
 C163 C 0.81131 0.53763 0.46703
 C164 C 0.81185 0.51901 0.49993
 C165 C 0.81155 0.48206 0.56512
 C166 C 0.81147 0.51873 0.56505
 C167 C 0.81137 0.53770 0.53275
 C168 C 0.81026 0.57488 0.53233
 C169 C 0.80981 0.59292 0.49978
 C170 C 0.81015 0.57481 0.46730
 H171 H 0.81143 0.46853 0.40934
 H172 H 0.81119 0.53190 0.40921
 H173 H 0.81143 0.46874 0.59072
 H174 H 0.81129 0.53211 0.59059
 H175 H 0.80900 0.37914 0.50020
 H176 H 0.80829 0.62146 0.49973
 O177 O 0.23654 0.28412 0.20671
 O178 O 0.30199 0.25315 0.27207
 O179 O 0.28492 0.23604 0.20665
 O180 O 0.25360 0.30127 0.27209
 O181 O 0.21525 0.26267 0.29286
 O182 O 0.24658 0.19744 0.22742
 O183 O 0.26363 0.21456 0.29284
 O184 O 0.19818 0.24554 0.22749
 Cu185 Cu 0.27311 0.27251 0.23731
 Cu186 Cu 0.22708 0.22618 0.26223
 C187 C 0.20628 0.26985 0.20562
 C188 C 0.29388 0.22885 0.29396
 C189 C 0.27081 0.20571 0.20552
 C190 C 0.22934 0.29302 0.29396
 O191 O 0.75373 0.80265 0.22685
 O192 O 0.78450 0.73719 0.29238
 O193 O 0.80171 0.75414 0.22695
 O194 O 0.73652 0.78569 0.29233
 O195 O 0.69785 0.74741 0.27168
 O196 O 0.76304 0.71586 0.20630
 O197 O 0.74584 0.69889 0.27173
 O198 O 0.71507 0.76435 0.20620
 Cu199 Cu 0.77298 0.77376 0.26169
 Cu200 Cu 0.72657 0.72780 0.23692
 C201 C 0.72943 0.79457 0.20499
 C202 C 0.77017 0.70696 0.29356
 C203 C 0.79341 0.72988 0.20514
 C204 C 0.70616 0.77165 0.29350
 O205 O 0.80273 0.24637 0.22719
 O206 O 0.73722 0.21533 0.29269
 O207 O 0.75435 0.19809 0.22735
 O208 O 0.78560 0.26359 0.29258
 O209 O 0.74726 0.30200 0.27172
 O210 O 0.71601 0.23649 0.20649
 O211 O 0.69887 0.25372 0.27183
 O212 O 0.76438 0.28476 0.20633
 Cu213 Cu 0.77382 0.22701 0.26204
 Cu214 Cu 0.72779 0.27310 0.23701
 C215 C 0.79463 0.27057 0.20522
 C216 C 0.70695 0.22950 0.29377
 C217 C 0.73012 0.20620 0.20546
 C218 C 0.77147 0.29387 0.29363
 O219 O 0.19766 0.75364 0.22757
 O220 O 0.26306 0.78471 0.29303
 O221 O 0.24600 0.80198 0.22770
 O222 O 0.21471 0.73641 0.29296
 O223 O 0.25311 0.69805 0.27215
 O224 O 0.28439 0.76362 0.20686
 O225 O 0.30148 0.74637 0.27220
 O226 O 0.23608 0.71528 0.20676
 Cu227 Cu 0.22650 0.77302 0.26240
 Cu228 Cu 0.27261 0.72698 0.23741
 C229 C 0.20581 0.72943 0.20566
 C230 C 0.29335 0.77060 0.29409
 C231 C 0.27028 0.79390 0.20582
 C232 C 0.22884 0.70614 0.29403
 O233 O 0.76407 0.28418 0.79380
 O234 O 0.69869 0.25302 0.72841
 O235 O 0.71591 0.23570 0.79371
 O236 O 0.74690 0.30147 0.72845
 O237 O 0.78539 0.26325 0.70752
 O238 O 0.75439 0.19748 0.77276
 O239 O 0.73718 0.21482 0.70746
 O240 O 0.80257 0.24597 0.77287
 Cu241 Cu 0.72754 0.27242 0.76318
 Cu242 Cu 0.77374 0.22656 0.73806
 C243 C 0.79437 0.27011 0.79484
 C244 C 0.70687 0.22888 0.70644
 C245 C 0.73014 0.20545 0.79470
 C246 C 0.77115 0.29349 0.70651
 O247 O 0.30127 0.74661 0.72797
 O248 O 0.23582 0.71542 0.79342
 O249 O 0.25301 0.69818 0.72807
 O250 O 0.28405 0.76384 0.79327
 O251 O 0.24561 0.80213 0.77238
 O252 O 0.21457 0.73647 0.70718
 O253 O 0.19737 0.75368 0.77252
 O254 O 0.26281 0.78488 0.70707
 Cu255 Cu 0.27238 0.72717 0.76277
 Cu256 Cu 0.22623 0.77312 0.73770
 C257 C 0.29312 0.77082 0.70604
 C258 C 0.20552 0.72950 0.79447
 C259 C 0.22876 0.70621 0.70617
 C260 C 0.26987 0.79411 0.79427
 O261 O 0.28433 0.23641 0.79399
 O262 O 0.25286 0.30147 0.72845
 O263 O 0.23572 0.28427 0.79384
 O264 O 0.30144 0.25354 0.72855
 O265 O 0.26328 0.21479 0.70784
 O266 O 0.19755 0.24552 0.77310
 O267 O 0.21472 0.26271 0.70771
 O268 O 0.24618 0.19764 0.77327
 Cu269 Cu 0.27241 0.27280 0.76328
 Cu270 Cu 0.22661 0.22628 0.73841
 C271 C 0.27034 0.20602 0.79516
 C272 C 0.22869 0.29311 0.70657
 C273 C 0.20551 0.26988 0.79494
 C274 C 0.29348 0.22919 0.70671
 O275 O 0.73686 0.78547 0.70735
 O276 O 0.80236 0.75418 0.77253
 O277 O 0.78502 0.73715 0.70719
 O278 O 0.75414 0.80247 0.77273
 O279 O 0.71568 0.76402 0.79357
 O280 O 0.74657 0.69870 0.72805
 O281 O 0.76388 0.71575 0.79339
 O282 O 0.69839 0.74703 0.72819
 Cu283 Cu 0.77345 0.77367 0.73786
 Cu284 Cu 0.72727 0.72753 0.76288
 C285 C 0.70655 0.77132 0.70631
 C286 C 0.79421 0.72989 0.79441
 C287 C 0.77080 0.70686 0.70612
 C288 C 0.72992 0.79430 0.79467
 C289 C 0.29810 0.13445 0.12094
 C290 C 0.27358 0.12435 0.14696
 C291 C 0.26550 0.14706 0.17518
 C292 C 0.30737 0.09496 0.06353
 C293 C 0.30720 0.18974 0.15197
 C294 C 0.31522 0.16697 0.12377
 C295 C 0.30375 0.11262 0.09005
 C296 C 0.28180 0.18028 0.17768
 H297 H 0.26006 0.09929 0.14493
 H298 H 0.24584 0.13898 0.19450
 H299 H 0.32021 0.21510 0.15309
 H300 H 0.33412 0.17512 0.10367
 C301 C 0.79790 0.63526 0.62180
 C302 C 0.77336 0.62531 0.64785
 C303 C 0.76532 0.64815 0.67597
 C304 C 0.80720 0.59545 0.56465
 C305 C 0.80709 0.69067 0.65258
 C306 C 0.81507 0.66778 0.62447
 C307 C 0.80356 0.61326 0.59105
 C308 C 0.78169 0.68135 0.67833
 H309 H 0.75981 0.60026 0.64594
 H310 H 0.74566 0.64017 0.69534
 H311 H 0.82015 0.71601 0.65360
 H312 H 0.83398 0.67581 0.60435
 C313 C 0.70271 0.86604 0.12034
 C314 C 0.72733 0.87593 0.14628
 C315 C 0.73523 0.85315 0.17453
 C316 C 0.69367 0.90561 0.06290
 C317 C 0.69317 0.81082 0.15147
 C318 C 0.68533 0.83365 0.12324
 C319 C 0.69720 0.88792 0.08943
 C320 C 0.71865 0.82008 0.17711
 H321 H 0.74106 0.90088 0.14419
 H322 H 0.75497 0.86108 0.19380
 H323 H 0.67995 0.78557 0.15266
 H324 H 0.66635 0.82565 0.10320
 C325 C 0.20105 0.36447 0.62218
 C326 C 0.22544 0.37465 0.64822
 C327 C 0.23365 0.35188 0.67638
 C328 C 0.19157 0.40420 0.56496
 C329 C 0.19231 0.30898 0.65302
 C330 C 0.18417 0.33180 0.62488
 C331 C 0.19527 0.38641 0.59139
 C332 C 0.21759 0.31853 0.67876
 H333 H 0.23877 0.39983 0.64628
 H334 H 0.25321 0.36004 0.69574
 H335 H 0.17949 0.28352 0.65407
 H336 H 0.16537 0.32360 0.60476
 C337 C 0.86612 0.29743 0.12052
 C338 C 0.83370 0.31465 0.12333
 C339 C 0.81087 0.30678 0.15157
 C340 C 0.90571 0.30647 0.06306
 C341 C 0.85326 0.26501 0.17486
 C342 C 0.87605 0.27295 0.14659
 C343 C 0.88801 0.30294 0.08960
 C344 C 0.82015 0.28142 0.17734
 H345 H 0.82569 0.33352 0.10319
 H346 H 0.78559 0.31987 0.15268
 H347 H 0.86121 0.24537 0.19423
 H348 H 0.90102 0.25934 0.14458
 C349 C 0.36497 0.79845 0.62194
 C350 C 0.37487 0.77390 0.64795
 C351 C 0.35194 0.76568 0.67600
 C352 C 0.40490 0.80803 0.56486
 C353 C 0.30944 0.80729 0.65261
 C354 C 0.33241 0.81545 0.62458
 C355 C 0.38704 0.80427 0.59124
 C356 C 0.31871 0.78187 0.67832
 H357 H 0.39995 0.76047 0.64606
 H358 H 0.35989 0.74601 0.69534
 H359 H 0.28407 0.82022 0.65361
 H360 H 0.32442 0.83437 0.60448
 C361 C 0.13426 0.70213 0.12130
 C362 C 0.16672 0.68498 0.12410
 C363 C 0.18958 0.69302 0.15222
 C364 C 0.09459 0.69272 0.06404
 C365 C 0.14716 0.73483 0.17539
 C366 C 0.12434 0.72672 0.14724
 C367 C 0.11231 0.69641 0.09050
 C368 C 0.18029 0.71848 0.17787
 H369 H 0.17473 0.66603 0.10406
 H370 H 0.21488 0.67997 0.15333
 H371 H 0.13920 0.75453 0.19466
 H372 H 0.09933 0.74027 0.14523
 C373 C 0.63524 0.20167 0.62214
 C374 C 0.66779 0.18467 0.62475
 C375 C 0.69069 0.19266 0.65286
 C376 C 0.59543 0.19243 0.56498
 C377 C 0.64811 0.23411 0.67639
 C378 C 0.62526 0.22605 0.64826
 C379 C 0.61325 0.19604 0.59138
 C380 C 0.68133 0.21792 0.67868
 H381 H 0.67585 0.16587 0.60457
 H382 H 0.71606 0.17974 0.65383
 H383 H 0.64010 0.25367 0.69580
 H384 H 0.60018 0.23949 0.64640
 C385 C 0.70299 0.13343 0.87886
 C386 C 0.68576 0.16586 0.87618
 C387 C 0.69374 0.18888 0.84813
 C388 C 0.69373 0.09355 0.93607
 C389 C 0.73565 0.14666 0.82476
 C390 C 0.72760 0.12369 0.85284
 C391 C 0.69735 0.11136 0.90962
 C392 C 0.71922 0.17977 0.82241
 H393 H 0.66679 0.17374 0.89628
 H394 H 0.68064 0.21415 0.84712
 H395 H 0.75537 0.13884 0.80543
 H396 H 0.74121 0.09871 0.85475
 C397 C 0.20132 0.63436 0.37822
 C398 C 0.18421 0.66684 0.37548
 C399 C 0.19231 0.68978 0.34741
 C400 C 0.19183 0.59451 0.43539
 C401 C 0.23411 0.64738 0.32417
 C402 C 0.22593 0.62449 0.35227
 C403 C 0.19555 0.61234 0.40898
 C404 C 0.21780 0.68055 0.32175
 H405 H 0.16523 0.67481 0.39554
 H406 H 0.17930 0.71511 0.34634
 H407 H 0.25383 0.63947 0.30488
 H408 H 0.23945 0.59946 0.35424
 C409 C 0.29746 0.86618 0.87808
 C410 C 0.27274 0.87592 0.85219
 C411 C 0.26453 0.85292 0.82423
 C412 C 0.30709 0.90615 0.93508
 C413 C 0.30645 0.81066 0.84748
 C414 C 0.31461 0.83371 0.87541
 C415 C 0.30329 0.88830 0.90872
 C416 C 0.28089 0.81978 0.82189
 H417 H 0.25919 0.90093 0.85410
 H418 H 0.24474 0.86075 0.80499
 H419 H 0.31952 0.78537 0.84646
 H420 H 0.33366 0.82583 0.89542
 C421 C 0.79855 0.36543 0.37803
 C422 C 0.81568 0.33296 0.37531
 C423 C 0.80774 0.31010 0.34716
 C424 C 0.80771 0.40516 0.43527
 C425 C 0.76609 0.35257 0.32379
 C426 C 0.77410 0.37539 0.35196
 C427 C 0.80414 0.38738 0.40884
 C428 C 0.78241 0.31941 0.32140
 H429 H 0.83453 0.32493 0.39545
 H430 H 0.82075 0.28477 0.34612
 H431 H 0.74648 0.36055 0.30442
 H432 H 0.76058 0.40041 0.35390
 C433 C 0.13352 0.29688 0.87904
 C434 C 0.12380 0.27214 0.85315
 C435 C 0.14677 0.26412 0.82509
 C436 C 0.09365 0.30615 0.93623
 C437 C 0.18892 0.30632 0.84823
 C438 C 0.16592 0.31427 0.87627
 C439 C 0.11145 0.30251 0.90978
 C440 C 0.17985 0.28072 0.82264
 H441 H 0.09885 0.25840 0.85515
 H442 H 0.13897 0.24430 0.80586
 H443 H 0.21417 0.31956 0.84713
 H444 H 0.17377 0.33335 0.89627
 C445 C 0.63486 0.79918 0.37799
 C446 C 0.62471 0.77472 0.35199
 C447 C 0.64745 0.76656 0.32380
 C448 C 0.59521 0.80857 0.43528
 C449 C 0.69024 0.80809 0.34700
 C450 C 0.66745 0.81618 0.37518
 C451 C 0.61297 0.80491 0.40883
 C452 C 0.68073 0.78274 0.32131
 H453 H 0.59959 0.76130 0.35401
 H454 H 0.63932 0.74694 0.30449
 H455 H 0.71566 0.82100 0.34588
 H456 H 0.67563 0.83503 0.39526
 C457 C 0.86599 0.70231 0.87843
 C458 C 0.83345 0.68519 0.87574
 C459 C 0.81051 0.69332 0.84773
 C460 C 0.90577 0.69281 0.93559
 C461 C 0.85302 0.73514 0.82443
 C462 C 0.87591 0.72695 0.85247
 C463 C 0.88801 0.69654 0.90916
 C464 C 0.81980 0.71883 0.82207
 H465 H 0.82544 0.66620 0.89580
 H466 H 0.78515 0.68029 0.84670
 H467 H 0.86097 0.75489 0.80515
 H468 H 0.90098 0.74048 0.85440
 C469 C 0.36541 0.20187 0.37837
 C470 C 0.37533 0.22647 0.35237
 C471 C 0.35253 0.23446 0.32420
 C472 C 0.40514 0.19265 0.43560
 C473 C 0.31011 0.19251 0.34745
 C474 C 0.33297 0.18459 0.37560
 C475 C 0.38735 0.19626 0.40918
 C476 C 0.31940 0.21798 0.32175
 H477 H 0.40033 0.24012 0.35436
 H478 H 0.36048 0.25418 0.30489
 H479 H 0.28482 0.17937 0.34635
 H480 H 0.32496 0.16562 0.39568
 C481 C 0.70298 0.86571 0.87920
 C482 C 0.68576 0.83323 0.87645
 C483 C 0.69368 0.81041 0.84827
 C484 C 0.69381 0.90537 0.93650
 C485 C 0.73548 0.85294 0.82495
 C486 C 0.72750 0.87571 0.85316
 C487 C 0.69739 0.88762 0.91004
 C488 C 0.71907 0.81977 0.82252
 H489 H 0.66686 0.82517 0.89657
 H490 H 0.68058 0.78509 0.84719
 H491 H 0.75514 0.86094 0.80559
 H492 H 0.74110 0.90074 0.85513
 C493 C 0.20158 0.36458 0.37812
 C494 C 0.18455 0.33200 0.37539
 C495 C 0.19276 0.30911 0.34734
 C496 C 0.19187 0.40436 0.43523
 C497 C 0.23447 0.35177 0.32411
 C498 C 0.22620 0.37461 0.35218
 C499 C 0.19569 0.38658 0.40884
 C500 C 0.21824 0.31851 0.32170
 H501 H 0.16558 0.32391 0.39542
 H502 H 0.17980 0.28372 0.34627
 H503 H 0.25419 0.35981 0.30483
 H504 H 0.23966 0.39971 0.35414
 C505 C 0.29785 0.13485 0.87977
 C506 C 0.27345 0.12463 0.85374
 C507 C 0.26530 0.14733 0.82551
 C508 C 0.30724 0.09528 0.93712
 C509 C 0.30670 0.19022 0.84874
 C510 C 0.31479 0.16747 0.87696
 C511 C 0.30358 0.11300 0.91064
 C512 C 0.28141 0.18064 0.82302
 H513 H 0.26007 0.09948 0.85576
 H514 H 0.24573 0.13915 0.80617
 H515 H 0.31956 0.21566 0.84762
 H516 H 0.33359 0.17571 0.89706
 C517 C 0.79742 0.63518 0.37778
 C518 C 0.81472 0.66762 0.37493
 C519 C 0.80667 0.69057 0.34687
 C520 C 0.80695 0.59532 0.43492
 C521 C 0.76454 0.64827 0.32386
 C522 C 0.77265 0.62537 0.35194
 C523 C 0.80319 0.61314 0.40851
 C524 C 0.78106 0.68138 0.32132
 H525 H 0.83381 0.67555 0.39489
 H526 H 0.81985 0.71584 0.34571
 H527 H 0.74472 0.64040 0.30466
 H528 H 0.75898 0.60039 0.35399
 C529 C 0.13383 0.70210 0.87878
 C530 C 0.16637 0.68508 0.87612
 C531 C 0.18929 0.69315 0.84801
 C532 C 0.09400 0.69273 0.93598
 C533 C 0.14675 0.73470 0.82459
 C534 C 0.12388 0.72657 0.85272
 C535 C 0.11183 0.69639 0.90956
 C536 C 0.17997 0.71849 0.82224
 H537 H 0.17440 0.66622 0.89626
 H538 H 0.21465 0.68021 0.84700
 H539 H 0.13877 0.75432 0.80521
 H540 H 0.09881 0.74001 0.85463
 C541 C 0.63516 0.20216 0.37806
 C542 C 0.62532 0.22676 0.35207
 C543 C 0.64822 0.23488 0.32396
 C544 C 0.59530 0.19268 0.43524
 C545 C 0.69059 0.19308 0.34724
 C546 C 0.66764 0.18502 0.37533
 C547 C 0.61312 0.19640 0.40882
 C548 C 0.68137 0.21854 0.32155
 H549 H 0.60030 0.24030 0.35403
 H550 H 0.64031 0.25459 0.30465
 H551 H 0.71589 0.18003 0.34618
 H552 H 0.67559 0.16606 0.39540
 C553 C 0.86581 0.29718 0.87935
 C554 C 0.83330 0.31425 0.87664
 C555 C 0.81048 0.30630 0.84846
 C556 C 0.90547 0.30634 0.93665
 C557 C 0.85306 0.26479 0.82505
 C558 C 0.87583 0.27280 0.85325
 C559 C 0.88771 0.30277 0.91019
 C560 C 0.81986 0.28103 0.82266
 H561 H 0.82521 0.33305 0.89680
 H562 H 0.78513 0.31927 0.84742
 H563 H 0.86108 0.24522 0.80565
 H564 H 0.90088 0.25932 0.85519
 C565 C 0.36517 0.79825 0.37810
 C566 C 0.33265 0.81530 0.37541
 C567 C 0.30968 0.80712 0.34742
 C568 C 0.40507 0.80793 0.43515
 C569 C 0.35211 0.76537 0.32417
 C570 C 0.37504 0.77361 0.35219
 C571 C 0.38724 0.80412 0.40878
 C572 C 0.31892 0.78163 0.32180
 H573 H 0.32468 0.83429 0.39544
 H574 H 0.28434 0.82011 0.34638
 H575 H 0.36004 0.74564 0.30491
 H576 H 0.40009 0.76013 0.35412
 C577 C 0.29791 0.86585 0.12182
 C578 C 0.27334 0.87571 0.14783
 C579 C 0.26512 0.85275 0.17586
 C580 C 0.30739 0.90584 0.06476
 C581 C 0.30680 0.81031 0.15246
 C582 C 0.31494 0.83332 0.12445
 C583 C 0.30369 0.88795 0.09113
 C584 C 0.28135 0.81954 0.17815
 H585 H 0.25988 0.90077 0.14595
 H586 H 0.24543 0.86066 0.19519
 H587 H 0.31975 0.78496 0.15344
 H588 H 0.33388 0.82536 0.10435
 C589 C 0.79824 0.36540 0.62224
 C590 C 0.81551 0.33300 0.62497
 C591 C 0.80755 0.31002 0.65307
 C592 C 0.80755 0.40528 0.56503
 C593 C 0.76558 0.35222 0.67635
 C594 C 0.77361 0.37516 0.64823
 C595 C 0.80390 0.38746 0.59146
 C596 C 0.78205 0.31914 0.67876
 H597 H 0.83451 0.32512 0.60490
 H598 H 0.82069 0.28477 0.65413
 H599 H 0.74583 0.36005 0.69565
 H600 H 0.75996 0.40011 0.64627
 C601 C 0.70281 0.13450 0.12127
 C602 C 0.72730 0.12457 0.14731
 C603 C 0.73539 0.14744 0.17541
 C604 C 0.69355 0.09469 0.06411
 C605 C 0.69376 0.18992 0.15202
 C606 C 0.68573 0.16700 0.12394
 C607 C 0.69716 0.11250 0.09051
 C608 C 0.71913 0.18063 0.17775
 H609 H 0.74079 0.09953 0.14540
 H610 H 0.75503 0.13949 0.19476
 H611 H 0.68078 0.21526 0.15302
 H612 H 0.66686 0.17501 0.10382
 C613 C 0.20136 0.63427 0.62218
 C614 C 0.18417 0.66672 0.62488
 C615 C 0.19226 0.68972 0.65288
 C616 C 0.19184 0.59436 0.56512
 C617 C 0.23418 0.64745 0.67613
 C618 C 0.22603 0.62449 0.64811
 C619 C 0.19559 0.61219 0.59150
 C620 C 0.21779 0.68057 0.67850
 H621 H 0.16516 0.67462 0.60486
 H622 H 0.17917 0.71500 0.65392
 H623 H 0.25394 0.63960 0.69539
 H624 H 0.23961 0.59950 0.64617
 C625 C 0.86485 0.70214 0.12085
 C626 C 0.87497 0.72664 0.14682
 C627 C 0.85218 0.73488 0.17495
 C628 C 0.90457 0.69263 0.06363
 C629 C 0.80939 0.69336 0.15173
 C630 C 0.83223 0.68518 0.12362
 C631 C 0.88679 0.69634 0.09006
 C632 C 0.81888 0.71874 0.17739
 H633 H 0.90011 0.74004 0.14482
 H634 H 0.86029 0.75452 0.19424
 H635 H 0.78396 0.68047 0.15283
 H636 H 0.82407 0.66630 0.10356
 C637 C 0.36538 0.20219 0.62252
 C638 C 0.37510 0.22699 0.64836
 C639 C 0.35217 0.23501 0.67645
 C640 C 0.40525 0.19282 0.56536
 C641 C 0.31004 0.19271 0.65344
 C642 C 0.33301 0.18475 0.62537
 C643 C 0.38744 0.19651 0.59177
 C644 C 0.31912 0.21836 0.67898
 H645 H 0.40003 0.24076 0.64631
 H646 H 0.35996 0.25487 0.69564
 H647 H 0.28481 0.17943 0.65460
 H648 H 0.32516 0.16564 0.60542
 C649 C 0.13460 0.29703 0.12142
 C650 C 0.12470 0.27241 0.14740
 C651 C 0.14756 0.26435 0.17550
 C652 C 0.09479 0.30631 0.06426
 C653 C 0.18998 0.30626 0.15221
 C654 C 0.16707 0.31426 0.12412
 C655 C 0.11260 0.30268 0.09066
 C656 C 0.18072 0.28077 0.17789
 H657 H 0.09968 0.25880 0.14546
 H658 H 0.13963 0.24461 0.19482
 H659 H 0.21530 0.31937 0.15325
 H660 H 0.17506 0.33324 0.10405
 C661 C 0.63485 0.79883 0.62218
 C662 C 0.62492 0.77417 0.64812
 C663 C 0.64779 0.76600 0.67619
 C664 C 0.59506 0.80836 0.56503
 C665 C 0.69028 0.80787 0.65297
 C666 C 0.66737 0.81598 0.62491
 C667 C 0.61285 0.80461 0.59144
 C668 C 0.68098 0.78235 0.67860
 H669 H 0.59987 0.76061 0.64616
 H670 H 0.63982 0.74624 0.69547
 H671 H 0.71563 0.82093 0.65403
 H672 H 0.67539 0.83499 0.60487
   
