data_POSCAR
  _audit_creation_date              2014-09-24
  _audit_creation_method            'ToBaCCo'
  _symmetry_space_group_name_H-M    'P1'
  _symmetry_Int_Tables_number       1
  _symmetry_cell_setting            triclinic
  loop_
  _symmetry_equiv_pos_as_xyz
 x,y,z
_cell_length_a 50.1490
_cell_length_b 49.7543
_cell_length_c 23.7983
_cell_angle_alpha 89.883900
_cell_angle_beta 90.067200
_cell_angle_gamma 119.766800
loop_
  _atom_site_label
  _atom_site_type_symbol
  _atom_site_fract_x
  _atom_site_fract_y
  _atom_site_fract_z
C1 C 0.49970 0.99925 0.47343
 C2 C 0.49973 0.99918 0.53066
 C3 C 0.48408 0.96998 0.56363
 C4 C 0.51543 1.02831 0.56365
 C5 C 0.51333 1.02852 0.44056
 C6 C 0.48606 0.97007 0.44048
 C7 C 0.45265 0.94882 0.55618
 C8 C 0.43811 0.92188 0.58883
 C9 C 0.45483 0.91597 0.62951
 C10 C 0.48614 0.93709 0.63715
 C11 C 0.50062 0.96396 0.60455
 C12 C 0.49892 1.03427 0.60463
 C13 C 0.51344 1.06111 0.63713
 C14 C 0.54469 1.08222 0.62932
 C15 C 0.56138 1.07640 0.58870
 C16 C 0.54685 1.04950 0.55612
 C17 C 0.53568 1.03416 0.39968
 C18 C 0.54840 1.06130 0.36774
 C19 C 0.53879 1.08303 0.37602
 C20 C 0.51633 1.07748 0.41642
 C21 C 0.50355 1.05029 0.44843
 C22 C 0.49585 0.94828 0.44821
 C23 C 0.48313 0.92122 0.41600
 C24 C 0.46071 0.91582 0.37553
 C25 C 0.45106 0.93755 0.36743
 C26 C 0.46373 0.96457 0.39957
 H27 H 0.43936 0.95335 0.52557
 H28 H 0.41383 0.90590 0.58259
 H29 H 0.49940 0.93298 0.66856
 H30 H 0.52481 0.98009 0.61114
 H31 H 0.47474 1.01812 0.61131
 H32 H 0.50035 1.06531 0.66860
 H33 H 0.56012 1.04503 0.52548
 H34 H 0.54337 1.01758 0.39275
 H35 H 0.56565 1.06528 0.33642
 H36 H 0.50856 1.09405 0.42289
 H37 H 0.48591 1.04609 0.47899
 H38 H 0.51348 0.95238 0.47878
 H39 H 0.49092 0.90465 0.42233
 H40 H 0.43384 0.93368 0.33607
 H41 H 0.45603 0.98116 0.39273
 H42 H 0.58562 1.09248 0.58259
 C43 C -0.00043 0.49983 0.46967
 C44 C -0.00038 0.49992 0.52690
 C45 C 0.02862 0.51512 0.55977
 C46 C -0.02931 0.48481 0.55996
 C47 C -0.02942 0.48602 0.43678
 C48 C 0.02850 0.51356 0.43665
 C49 C 0.03424 0.49793 0.60020
 C50 C 0.06111 0.51189 0.63221
 C51 C 0.08259 0.54325 0.62447
 C52 C 0.07708 0.56063 0.58450
 C53 C 0.05015 0.54667 0.55240
 C54 C -0.05085 0.45324 0.55306
 C55 C -0.07769 0.43935 0.58539
 C56 C -0.08309 0.45683 0.62515
 C57 C -0.06160 0.48820 0.63241
 C58 C -0.03482 0.50209 0.60015
 C59 C -0.05089 0.49610 0.44381
 C60 C -0.07780 0.48315 0.41166
 C61 C -0.08337 0.46018 0.37192
 C62 C -0.06192 0.45024 0.36455
 C63 C -0.03507 0.46315 0.39665
 C64 C 0.03410 0.53635 0.39619
 C65 C 0.06092 0.54921 0.36405
 C66 C 0.08237 0.53931 0.37170
 C67 C 0.07687 0.51643 0.41169
 C68 C 0.05000 0.50350 0.44391
 H69 H 0.01783 0.47365 0.60673
 H70 H 0.06506 0.49827 0.66321
 H71 H 0.09345 0.58497 0.57847
 H72 H 0.04597 0.56046 0.52218
 H73 H -0.04674 0.43937 0.52303
 H74 H -0.09406 0.41499 0.57974
 H75 H -0.01840 0.52639 0.60633
 H76 H -0.04667 0.51414 0.47380
 H77 H -0.09408 0.49124 0.41753
 H78 H -0.06582 0.43260 0.33380
 H79 H -0.01871 0.45522 0.39040
 H80 H 0.01772 0.54426 0.38974
 H81 H 0.06486 0.56678 0.33304
 H82 H 0.09322 0.50843 0.41765
 H83 H 0.04582 0.48554 0.47415
 H84 H -0.06547 0.50190 0.66323
 C85 C 0.50007 0.50008 0.47286
 C86 C 0.50008 0.50011 0.53009
 C87 C 0.48646 0.51572 0.56286
 C88 C 0.51371 0.48453 0.56311
 C89 C 0.51578 0.48664 0.43999
 C90 C 0.48434 0.51350 0.43976
 C91 C 0.49622 0.54727 0.55482
 C92 C 0.48345 0.56167 0.58670
 C93 C 0.46100 0.54472 0.62721
 C94 C 0.45140 0.51335 0.63565
 C95 C 0.46413 0.49897 0.60381
 C96 C 0.53606 0.50132 0.60398
 C97 C 0.54881 0.48697 0.63604
 C98 C 0.53921 0.45559 0.62790
 C99 C 0.51674 0.43860 0.58748
 C100 C 0.50395 0.45297 0.55538
 C101 C 0.49929 0.46412 0.39905
 C102 C 0.51386 0.45190 0.36650
 C103 C 0.54514 0.46217 0.37422
 C104 C 0.56180 0.48470 0.41485
 C105 C 0.54723 0.49699 0.44749
 C106 C 0.45290 0.50317 0.44722
 C107 C 0.43832 0.51542 0.41437
 C108 C 0.45497 0.53792 0.37357
 C109 C 0.48624 0.54818 0.36588
 C110 C 0.50082 0.53598 0.39864
 H111 H 0.51385 0.56074 0.52420
 H112 H 0.49126 0.58602 0.57997
 H113 H 0.43416 0.49997 0.66699
 H114 H 0.45646 0.47469 0.61087
 H115 H 0.54374 0.52561 0.61080
 H116 H 0.56607 0.50038 0.66731
 H117 H 0.48631 0.43948 0.52483
 H118 H 0.47510 0.45600 0.39240
 H119 H 0.50079 0.43458 0.33502
 H120 H 0.58607 0.49297 0.42089
 H121 H 0.56048 0.51477 0.47810
 H122 H 0.43966 0.48541 0.47796
 H123 H 0.41405 0.50717 0.42038
 H124 H 0.49930 0.56547 0.33428
 H125 H 0.52501 0.54409 0.39202
 H126 H 0.50893 0.41425 0.58099
 O127 O 0.37705 0.66826 -0.06746
 O128 O 0.37828 0.72033 -0.04647
 C129 C 0.35917 0.72521 -0.07353
 O130 O 0.33060 0.71075 -0.06325
 O131 O 0.27869 0.65966 -0.04674
 C132 C 0.27450 0.63673 -0.07670
 O133 O 0.28903 0.62226 -0.06854
 O134 O 0.33943 0.62007 -0.05160
 C135 C 0.36302 0.63960 -0.07871
 O136 O 0.37808 0.65762 0.04361
 O137 O 0.37698 0.70851 0.06459
 C138 C 0.36297 0.72315 0.07582
 O139 O 0.33947 0.71921 0.04852
 O140 O 0.28896 0.66665 0.06500
 C141 C 0.27434 0.63763 0.07305
 O142 O 0.27852 0.61889 0.04311
 O143 O 0.33031 0.61959 0.06008
 C144 C 0.35886 0.63365 0.07060
 Cr145 Cr 0.37592 0.68784 -0.00145
 Cr146 Cr 0.31026 0.68821 0.00080
 Cr147 Cr 0.31016 0.62189 -0.00416
 O148 O 0.33214 0.66600 -0.00161
 O149 O 0.62325 0.33208 -0.06541
 O150 O 0.62205 0.28002 -0.04418
 C151 C 0.64119 0.27519 -0.07112
 O152 O 0.66976 0.28967 -0.06079
 O153 O 0.72163 0.34077 -0.04433
 C154 C 0.72578 0.36370 -0.07442
 O155 O 0.71124 0.37815 -0.06637
 O156 O 0.66082 0.38028 -0.04962
 C157 C 0.63725 0.36076 -0.07673
 O158 O 0.62217 0.34261 0.04561
 O159 O 0.62331 0.29171 0.06682
 C160 C 0.63732 0.27707 0.07815
 O161 O 0.66086 0.28109 0.05098
 O162 O 0.71134 0.33366 0.06741
 C163 C 0.72594 0.36267 0.07536
 O164 O 0.72175 0.38143 0.04530
 O165 O 0.66993 0.38066 0.06209
 C166 C 0.64137 0.36657 0.07256
 Cr167 Cr 0.62438 0.31245 0.00071
 Cr168 Cr 0.69006 0.31215 0.00324
 Cr169 Cr 0.69010 0.37844 -0.00206
 O170 O 0.66815 0.33433 0.00062
 C171 C 0.41380 0.78939 -0.17107
 C172 C 0.39373 0.79659 -0.19960
 C173 C 0.36224 0.77999 -0.18793
 C174 C 0.35088 0.75648 -0.14744
 C175 C 0.44131 0.89127 -0.33879
 C176 C 0.40252 0.76593 -0.13057
 C177 C 0.40571 0.82170 -0.23944
 C178 C 0.41631 0.84318 -0.27182
 C179 C 0.42944 0.86887 -0.30853
 C180 C 0.37094 0.74933 -0.11794
 H181 H 0.43823 0.80215 -0.17971
 H182 H 0.34651 0.78542 -0.20970
 H183 H 0.32646 0.74416 -0.13883
 H184 H 0.41861 0.76103 -0.10881
 C185 C 0.22112 0.58890 -0.19482
 C186 C 0.20445 0.60422 -0.20389
 C187 C 0.21132 0.63068 -0.17269
 C188 C 0.23444 0.64155 -0.13198
 C189 C 0.10985 0.55752 -0.34134
 C190 C 0.24429 0.59973 -0.15412
 C191 C 0.17942 0.59209 -0.24341
 C192 C 0.15795 0.58162 -0.27540
 C193 C 0.13225 0.56889 -0.31156
 C194 C 0.25102 0.62603 -0.12180
 H195 H 0.21592 0.56833 -0.21865
 H196 H 0.19850 0.64268 -0.17926
 H197 H 0.23904 0.66189 -0.10801
 H198 H 0.25660 0.58724 -0.14744
 C199 C 0.37257 0.58540 -0.17792
 C200 C 0.39991 0.60580 -0.20547
 C201 C 0.41461 0.63746 -0.19319
 C202 C 0.40230 0.64862 -0.15280
 C203 C 0.44881 0.55865 -0.34082
 C204 C 0.36023 0.59648 -0.13753
 C205 C 0.41344 0.59393 -0.24447
 C206 C 0.42473 0.58341 -0.27597
 C207 C 0.43781 0.57039 -0.31154
 C208 C 0.37512 0.62819 -0.12401
 H209 H 0.36103 0.56084 -0.18703
 H210 H 0.43583 0.65345 -0.21418
 H211 H 0.41435 0.67315 -0.14347
 H212 H 0.33927 0.58010 -0.11631
 C213 C 0.63825 0.22054 -0.18521
 C214 C 0.60677 0.20388 -0.19688
 C215 C 0.58666 0.21100 -0.16847
 C216 C 0.59788 0.23444 -0.12807
 C217 C 0.55953 0.10939 -0.33592
 C218 C 0.64957 0.24402 -0.14481
 C219 C 0.59484 0.17880 -0.23663
 C220 C 0.58431 0.15735 -0.26896
 C221 C 0.57129 0.13172 -0.30565
 C222 C 0.62946 0.25110 -0.11544
 H223 H 0.65402 0.21517 -0.20689
 H224 H 0.56223 0.19820 -0.17712
 H225 H 0.58177 0.23928 -0.10639
 H226 H 0.67399 0.25639 -0.13620
 C227 C 0.78884 0.36974 -0.17052
 C228 C 0.79561 0.39616 -0.20197
 C229 C 0.77895 0.41148 -0.19297
 C230 C 0.75586 0.40067 -0.15213
 C231 C 0.88976 0.44263 -0.34037
 C232 C 0.76580 0.35890 -0.12966
 C233 C 0.82052 0.40823 -0.24172
 C234 C 0.84189 0.41866 -0.27392
 C235 C 0.86746 0.43132 -0.31036
 C236 C 0.74921 0.37441 -0.11958
 H237 H 0.80165 0.35775 -0.17703
 H238 H 0.78407 0.43201 -0.21700
 H239 H 0.74355 0.41315 -0.14553
 H240 H 0.76127 0.33859 -0.10552
 C241 C 0.58569 0.36292 -0.19151
 C242 C 0.60035 0.39459 -0.20387
 C243 C 0.62765 0.41499 -0.17627
 C244 C 0.64000 0.40391 -0.13575
 C245 C 0.55142 0.44169 -0.33991
 C246 C 0.59800 0.35175 -0.15099
 C247 C 0.58682 0.40646 -0.24304
 C248 C 0.57553 0.41697 -0.27469
 C249 C 0.56243 0.42997 -0.31045
 C250 C 0.62514 0.37218 -0.12215
 H251 H 0.56450 0.34693 -0.21255
 H252 H 0.63917 0.43957 -0.18544
 H253 H 0.66093 0.42029 -0.11449
 H254 H 0.58598 0.32721 -0.14161
 C255 C 0.78934 0.41980 0.17088
 C256 C 0.79617 0.40017 0.20224
 C257 C 0.77941 0.36816 0.19340
 C258 C 0.75619 0.35583 0.15280
 C259 C 0.89085 0.44792 0.33949
 C260 C 0.76616 0.40756 0.13026
 C261 C 0.82122 0.41304 0.24169
 C262 C 0.84271 0.42400 0.27364
 C263 C 0.86843 0.43693 0.30975
 C264 C 0.74949 0.37544 0.12033
 H265 H 0.80221 0.44462 0.17727
 H266 H 0.78458 0.35276 0.21736
 H267 H 0.74382 0.33102 0.14631
 H268 H 0.76159 0.42332 0.10617
 C269 C 0.62779 0.21333 0.17789
 C270 C 0.60056 0.20650 0.20563
 C271 C 0.58592 0.22353 0.19329
 C272 C 0.59819 0.24695 0.15265
 C273 C 0.55166 0.11063 0.34208
 C274 C 0.64010 0.23670 0.13725
 C275 C 0.58705 0.18116 0.24492
 C276 C 0.57577 0.15939 0.27667
 C277 C 0.56268 0.13333 0.31254
 C278 C 0.62527 0.25359 0.12367
 H279 H 0.63928 0.20025 0.18705
 H280 H 0.56479 0.21839 0.21443
 H281 H 0.58619 0.25948 0.14329
 H282 H 0.66097 0.24120 0.11589
 C283 C 0.63866 0.41814 0.18718
 C284 C 0.60720 0.40325 0.19910
 C285 C 0.58704 0.37605 0.17062
 C286 C 0.59818 0.36391 0.12994
 C287 C 0.56004 0.45000 0.33926
 C288 C 0.64989 0.40605 0.14649
 C289 C 0.59535 0.41629 0.23918
 C290 C 0.58485 0.42710 0.27179
 C291 C 0.57183 0.43956 0.30878
 C292 C 0.62973 0.37889 0.11707
 H293 H 0.65447 0.43926 0.20890
 H294 H 0.56263 0.36436 0.17945
 H295 H 0.58202 0.34296 0.10824
 H296 H 0.67430 0.41815 0.13771
 C297 C 0.21094 0.58047 0.16868
 C298 C 0.20414 0.60008 0.19993
 C299 C 0.22090 0.63210 0.19097
 C300 C 0.24411 0.64444 0.15035
 C301 C 0.10959 0.55226 0.33742
 C302 C 0.23411 0.59272 0.12805
 C303 C 0.17910 0.58719 0.23942
 C304 C 0.15764 0.57621 0.27141
 C305 C 0.13196 0.56327 0.30760
 C306 C 0.25079 0.62485 0.11801
 H307 H 0.19806 0.55564 0.17517
 H308 H 0.21575 0.64749 0.21484
 H309 H 0.25649 0.66925 0.14377
 H310 H 0.23866 0.57697 0.10406
 C311 C 0.41413 0.77626 0.19144
 C312 C 0.39948 0.79324 0.20375
 C313 C 0.37234 0.78657 0.17575
 C314 C 0.36013 0.76336 0.13492
 C315 C 0.44793 0.88839 0.34130
 C316 C 0.40196 0.75300 0.15062
 C317 C 0.41286 0.81839 0.24332
 C318 C 0.42404 0.83999 0.27533
 C319 C 0.43701 0.86585 0.31151
 C320 C 0.37497 0.74650 0.12142
 H321 H 0.43520 0.78129 0.21279
 H322 H 0.36084 0.79962 0.18487
 H323 H 0.33931 0.75896 0.11339
 H324 H 0.41397 0.74048 0.14132
 C325 C 0.36149 0.58198 0.18556
 C326 C 0.39295 0.59685 0.19756
 C327 C 0.41313 0.62407 0.16900
 C328 C 0.40202 0.63623 0.12818
 C329 C 0.44005 0.55008 0.33841
 C330 C 0.35029 0.59410 0.14473
 C331 C 0.40477 0.58378 0.23782
 C332 C 0.41526 0.57297 0.27059
 C333 C 0.42827 0.56051 0.30776
 C334 C 0.37047 0.62128 0.11524
 H335 H 0.34567 0.56085 0.20735
 H336 H 0.43754 0.63574 0.17790
 H337 H 0.41819 0.65720 0.10643
 H338 H 0.32589 0.58202 0.13589
   
