data_POSCAR
  _audit_creation_date              2014-09-24
  _audit_creation_method            'ToBaCCo'
  _symmetry_space_group_name_H-M    'P1'
  _symmetry_Int_Tables_number       1
  _symmetry_cell_setting            triclinic
  loop_
  _symmetry_equiv_pos_as_xyz
 x,y,z
_cell_length_a 17.6002
_cell_length_b 17.6262
_cell_length_c 17.2290
_cell_angle_alpha 90.229400
_cell_angle_beta 90.920300
_cell_angle_gamma 91.049800
loop_
  _atom_site_label
  _atom_site_type_symbol
  _atom_site_fract_x
  _atom_site_fract_y
  _atom_site_fract_z
O1 O 0.54762 0.15494 0.00841
 O2 O 0.43552 -0.06205 -0.15103
 O3 O 0.64096 0.02157 -0.10009
 O4 O 0.31220 0.05855 0.00961
 O5 O 0.57607 -0.07792 -0.14376
 O6 O 0.41270 0.13431 0.01325
 O7 O 0.39621 0.04355 -0.10253
 O8 O 0.64807 0.09299 0.02648
 C9 C 0.61764 0.15326 0.00981
 C10 C 0.40028 -0.00031 -0.15981
 C11 C 0.62585 -0.02519 -0.15341
 C12 C 0.34054 0.12719 0.01695
 O13 O 0.42990 0.04927 0.14423
 O14 O 0.55233 -0.16457 -0.00952
 O15 O 0.63666 -0.02963 0.10219
 O16 O 0.33757 -0.07886 -0.04802
 O17 O 0.42590 -0.15000 -0.01668
 O18 O 0.57165 0.06889 0.14189
 O19 O 0.37906 -0.04592 0.08619
 O20 O 0.65241 -0.10033 -0.02349
 Co21 Co 0.49198 0.09126 0.07036
 Co22 Co 0.49788 -0.10485 -0.07500
 Co23 Co 0.63083 -0.00451 0.00100
 Co24 Co 0.39336 0.00085 -0.00670
 O25 O 0.50691 -0.00872 -0.00286
 C26 C 0.38543 -0.00683 0.14602
 C27 C 0.62187 -0.16189 -0.00962
 C28 C 0.62194 0.01822 0.15389
 C29 C 0.35742 -0.14404 -0.03097
 O30 O -0.15187 0.41962 -0.06549
 O31 O 0.04586 0.58326 0.15050
 O32 O 0.01961 0.35488 0.09656
 O33 O -0.09886 0.64473 -0.04161
 O34 O 0.02499 0.45438 0.16465
 O35 O -0.16253 0.54542 -0.03309
 O36 O -0.05451 0.62817 0.09424
 O37 O -0.10684 0.37597 0.04083
 C38 C -0.16159 0.38230 -0.00459
 C39 C -0.01397 0.62139 0.15410
 C40 C 0.01696 0.38504 0.16109
 C41 C -0.16042 0.61473 -0.02751
 O42 O -0.05557 0.58303 -0.15031
 O43 O 0.13673 0.42040 0.06086
 O44 O -0.04513 0.35528 -0.09675
 O45 O 0.08232 0.64873 0.04380
 O46 O 0.15287 0.55666 0.03185
 O47 O -0.02742 0.45339 -0.16197
 O48 O 0.04117 0.62954 -0.08996
 O49 O 0.08193 0.36602 -0.03821
 Co50 Co -0.09044 0.50076 -0.09323
 Co51 Co 0.08168 0.50382 0.09158
 Co52 Co -0.01267 0.37760 0.00032
 Co53 Co -0.00787 0.62386 0.00097
 O54 O -0.00667 0.50109 0.00006
 C55 C 0.00239 0.62596 -0.15038
 C56 C 0.13790 0.37181 0.00696
 C57 C -0.02549 0.38348 -0.15859
 C58 C 0.14541 0.62634 0.02674
 O59 O -0.02427 -0.15407 0.44979
 O60 O 0.17168 0.02734 0.54561
 O61 O 0.09734 -0.04321 0.36529
 O62 O 0.05849 -0.09023 0.63379
 O63 O 0.15432 0.05488 0.41399
 O64 O -0.04333 -0.14123 0.58442
 O65 O 0.11178 0.03855 0.64877
 O66 O -0.03553 -0.08770 0.34988
 C67 C -0.02480 -0.15055 0.37851
 C68 C 0.17283 0.02615 0.61698
 C69 C 0.15639 -0.00374 0.37201
 C70 C 0.01434 -0.14615 0.62829
 O71 O -0.14552 -0.02476 0.55586
 O72 O 0.04017 0.15864 0.45411
 O73 O -0.08531 0.04977 0.37038
 O74 O -0.02563 0.09515 0.63310
 O75 O 0.07382 0.14649 0.58388
 O76 O -0.13853 -0.04836 0.42179
 O77 O -0.07620 -0.03250 0.65509
 O78 O 0.04555 0.09637 0.35119
 Co79 Co -0.07849 -0.08338 0.50270
 Co80 Co 0.10099 0.08808 0.49944
 Co81 Co 0.00656 0.00373 0.37406
 Co82 Co 0.01676 0.00293 0.62744
 O83 O 0.01165 0.00256 0.50097
 C84 C -0.14060 -0.02427 0.62721
 C85 C 0.03480 0.15789 0.38311
 C86 C -0.14354 0.00937 0.37918
 C87 C 0.01470 0.15270 0.62313
 C88 C -0.33087 0.22102 0.00407
 C89 C -0.26592 0.20427 -0.05135
 C90 C -0.21151 0.25907 -0.05282
 C91 C -0.22670 0.32701 0.00021
 C92 C -0.30635 0.35404 -0.02501
 C93 C -0.36155 0.29795 -0.02280
 C94 C -0.29215 0.23784 0.08314
 C95 C -0.23793 0.29334 0.08120
 H96 H -0.26326 0.15365 -0.08731
 H97 H -0.16225 0.25461 -0.08952
 H98 H -0.31823 0.41183 -0.04226
 H99 H -0.42057 0.30752 -0.03839
 H100 H -0.30835 0.21039 0.13691
 H101 H -0.20881 0.31397 0.13330
 C102 C 0.30435 0.79495 -0.01687
 C103 C 0.22818 0.82175 -0.00307
 C104 C 0.17518 0.76271 0.01146
 C105 C 0.20676 0.68583 0.00975
 C106 C 0.24210 0.67986 -0.06608
 C107 C 0.29618 0.74029 -0.08092
 C108 C 0.32341 0.74910 0.05164
 C109 C 0.26950 0.68872 0.06598
 H110 H 0.21225 0.88076 0.00139
 H111 H 0.11819 0.77711 0.02765
 H112 H 0.22890 0.63492 -0.10770
 H113 H 0.32699 0.74459 -0.13490
 H114 H 0.37261 0.75957 0.08931
 H115 H 0.27506 0.65000 0.11452
 C116 C 0.28902 0.19512 0.01378
 C117 C 0.20513 0.17274 0.02352
 C118 C 0.15751 0.23193 0.02172
 C119 C 0.19633 0.30952 0.00866
 C120 C 0.25677 0.31517 0.07450
 C121 C 0.30481 0.25510 0.07739
 C122 C 0.29142 0.24040 -0.06252
 C123 C 0.24240 0.29971 -0.06548
 H124 H 0.18456 0.11566 0.03565
 H125 H 0.09825 0.22387 0.03484
 H126 H 0.26151 0.36209 0.11538
 H127 H 0.34978 0.25091 0.12084
 H128 H 0.33193 0.23037 -0.10791
 H129 H 0.23985 0.33847 -0.11420
 C130 C -0.32865 0.77019 -0.00939
 C131 C -0.29884 0.75741 -0.09149
 C132 C -0.24661 0.70250 -0.09615
 C133 C -0.22714 0.66535 -0.01830
 C134 C -0.20540 0.73114 0.03702
 C135 C -0.25816 0.78528 0.04189
 C136 C -0.35835 0.69116 0.01599
 C137 C -0.30436 0.63551 0.01138
 H138 H -0.32098 0.78566 -0.14279
 H139 H -0.22621 0.68262 -0.15158
 H140 H -0.15267 0.73499 0.07023
 H141 H -0.25069 0.83426 0.07994
 H142 H -0.41572 0.68006 0.03566
 H143 H -0.31558 0.57683 0.02697
 C144 C -0.02056 -0.32291 0.21932
 C145 C 0.03120 -0.25423 0.20258
 C146 C 0.03028 -0.19955 0.25731
 C147 C -0.02270 -0.21724 0.32480
 C148 C -0.10071 -0.23462 0.28628
 C149 C -0.09968 -0.29017 0.23121
 C150 C 0.00498 -0.34976 0.30072
 C151 C 0.00380 -0.29398 0.35639
 H152 H 0.06626 -0.24877 0.15175
 H153 H 0.06365 -0.14756 0.25208
 H154 H -0.15286 -0.20760 0.30317
 H155 H -0.15091 -0.31120 0.20192
 H156 H 0.02158 -0.40744 0.31350
 H157 H 0.01962 -0.30377 0.41661
 C158 C -0.01235 0.32938 0.77549
 C159 C -0.08665 0.28670 0.75327
 C160 C -0.07816 0.22986 0.70099
 C161 C 0.00404 0.22033 0.67488
 C162 C 0.02814 0.29958 0.64455
 C163 C 0.01933 0.35719 0.69770
 C164 C 0.04256 0.26721 0.80176
 C165 C 0.05053 0.21055 0.74979
 H166 H -0.14199 0.30189 0.77485
 H167 H -0.12609 0.19659 0.67833
 H168 H 0.04954 0.30945 0.58667
 H169 H 0.03333 0.41609 0.68542
 H170 H 0.07334 0.26746 0.85673
 H171 H 0.08732 0.16293 0.76108
 C172 C 0.01893 0.33305 0.22942
 C173 C 0.09460 0.29133 0.23050
 C174 C 0.09915 0.23636 0.28451
 C175 C 0.02747 0.22665 0.33309
 C176 C 0.01524 0.30617 0.36836
 C177 C 0.01078 0.36267 0.31331
 C178 C -0.04269 0.27083 0.22062
 C179 C -0.03830 0.21567 0.27456
 H180 H 0.14252 0.30676 0.19458
 H181 H 0.15134 0.20600 0.29528
 H182 H 0.01050 0.31701 0.43011
 H183 H 0.00222 0.42178 0.32800
 H184 H -0.08739 0.27107 0.17657
 H185 H -0.08004 0.16988 0.27713
 C186 C 0.01077 -0.31697 0.79067
 C187 C -0.05777 -0.27161 0.78574
 C188 C -0.05481 -0.21375 0.72879
 C189 C 0.01662 -0.21012 0.68703
 C190 C 0.07519 -0.20219 0.74789
 C191 C 0.07262 -0.26137 0.80451
 C192 C 0.02226 -0.34547 0.71193
 C193 C 0.02566 -0.28618 0.65453
 H194 H -0.10565 -0.27757 0.82397
 H195 H -0.10199 -0.17607 0.71892
 H196 H 0.10792 -0.15079 0.75906
 H197 H 0.10756 -0.25830 0.85690
 H198 H 0.02890 -0.40503 0.69762
 H199 H 0.03491 -0.29737 0.59341
 C200 C 0.34791 0.00851 0.77552
 C201 C 0.37813 0.00844 0.69639
 C202 C 0.31911 0.01465 0.63645
 C203 C 0.24262 0.01935 0.66860
 C204 C 0.23487 -0.04784 0.71642
 C205 C 0.29155 -0.05356 0.77547
 C206 C 0.30423 0.07812 0.78012
 C207 C 0.24699 0.08396 0.72178
 H208 H 0.43813 0.00469 0.68349
 H209 H 0.33087 0.01575 0.57482
 H210 H 0.20143 -0.09701 0.69827
 H211 H 0.29844 -0.10633 0.80697
 H212 H 0.31905 0.12605 0.81703
 H213 H 0.21625 0.13621 0.71298
 C214 C -0.32196 0.02125 0.22105
 C215 C -0.31335 -0.05642 0.25964
 C216 C -0.25588 -0.05921 0.31290
 C217 C -0.21113 0.01623 0.32389
 C218 C -0.18566 0.03749 0.24207
 C219 C -0.24295 0.04121 0.18939
 C220 C -0.33105 0.07726 0.28907
 C221 C -0.27259 0.07463 0.34322
 H222 H -0.35060 -0.10492 0.24728
 H223 H -0.24486 -0.11043 0.34561
 H224 H -0.12783 0.05228 0.22683
 H225 H -0.23302 0.06156 0.13111
 H226 H -0.37861 0.11513 0.29435
 H227 H -0.27041 0.11037 0.39466
 C228 C 0.32765 -0.01337 0.21055
 C229 C 0.26558 0.04519 0.19619
 C230 C 0.21016 0.04534 0.24946
 C231 C 0.22073 -0.01204 0.31494
 C232 C 0.22803 -0.08888 0.27279
 C233 C 0.28370 -0.08946 0.21791
 C234 C 0.35709 0.00434 0.29339
 C235 C 0.30123 0.00515 0.34792
 H236 H 0.26525 0.08449 0.14829
 H237 H 0.16209 0.08271 0.24452
 H238 H 0.19486 -0.13922 0.28699
 H239 H 0.29687 -0.14000 0.18496
 H240 H 0.41664 0.01437 0.30805
 H241 H 0.31335 0.01582 0.40901
 C242 C -0.31839 -0.02630 0.78094
 C243 C -0.33025 -0.08399 0.71436
 C244 C -0.27237 -0.08312 0.66181
 C245 C -0.20824 -0.02459 0.68076
 C246 C -0.24882 0.05141 0.68785
 C247 C -0.30632 0.05063 0.74028
 C248 C -0.24035 -0.04544 0.81553
 C249 C -0.18342 -0.04372 0.76443
 H250 H -0.37951 -0.12164 0.70869
 H251 H -0.27247 -0.12019 0.61138
 H252 H -0.23438 0.10115 0.65383
 H253 H -0.34089 0.09985 0.75097
 H254 H -0.23055 -0.06192 0.87538
 H255 H -0.12592 -0.05693 0.78278
   
