data_POSCAR
  _audit_creation_date              2014-09-24
  _audit_creation_method            'ToBaCCo'
  _symmetry_space_group_name_H-M    'P1'
  _symmetry_Int_Tables_number       1
  _symmetry_cell_setting            triclinic
  loop_
  _symmetry_equiv_pos_as_xyz
 x,y,z
_cell_length_a 47.2793
_cell_length_b 52.0977
_cell_length_c 37.5471
_cell_angle_alpha 89.893600
_cell_angle_beta 89.997700
_cell_angle_gamma 90.024200
loop_
  _atom_site_label
  _atom_site_type_symbol
  _atom_site_fract_x
  _atom_site_fract_y
  _atom_site_fract_z
C1 C 1.27357 0.22238 0.26553
 C2 C 1.25080 0.23589 0.25063
 C3 C 1.22801 0.22241 0.23584
 C4 C 1.22787 0.19549 0.23547
 C5 C 1.25070 0.18218 0.25080
 C6 C 1.27368 0.19537 0.26618
 C7 C 1.25080 0.26420 0.25052
 C8 C 1.27358 0.27771 0.23560
 C9 C 1.27367 0.30472 0.23483
 C10 C 1.25065 0.31791 0.25012
 C11 C 1.22782 0.30460 0.26546
 C12 C 1.22798 0.27768 0.26521
 H13 H 1.29090 0.23313 0.27710
 H14 H 1.21062 0.23304 0.22416
 H15 H 1.29092 0.26696 0.22408
 H16 H 1.21058 0.26705 0.27689
 H17 H 1.25050 0.16140 0.25067
 H18 H 1.25043 0.33869 0.25014
 C19 C 0.77284 -0.27808 0.26517
 C20 C 0.74999 -0.26456 0.25053
 C21 C 0.72712 -0.27801 0.23590
 C22 C 0.72698 -0.30493 0.23544
 C23 C 0.74990 -0.31827 0.25051
 C24 C 0.77297 -0.30509 0.26571
 C25 C 0.75001 -0.23625 0.25050
 C26 C 0.77291 -0.22275 0.23591
 C27 C 0.77301 -0.19581 0.23541
 C28 C 0.75003 -0.18253 0.25037
 C29 C 0.72704 -0.19581 0.26539
 C30 C 0.72712 -0.22275 0.26502
 H31 H 0.79023 -0.26735 0.27664
 H32 H 0.70967 -0.26736 0.22439
 H33 H 0.79040 -0.23335 0.22448
 H34 H 0.70962 -0.23336 0.27649
 H35 H 0.74971 -0.33905 0.25031
 H36 H 0.75004 -0.16175 0.25032
 C37 C 0.77324 0.22292 -0.23587
 C38 C 0.75035 0.23638 -0.25055
 C39 C 0.72751 0.22283 -0.26512
 C40 C 0.72746 0.19589 -0.26547
 C41 C 0.75044 0.18267 -0.25037
 C42 C 0.77337 0.19599 -0.23535
 C43 C 0.75030 0.26468 -0.25065
 C44 C 0.77310 0.27821 -0.26545
 C45 C 0.77318 0.30522 -0.26613
 C46 C 0.75013 0.31838 -0.25090
 C47 C 0.72727 0.30503 -0.23568
 C48 C 0.72744 0.27811 -0.23601
 H49 H 0.79070 0.23356 -0.22441
 H50 H 0.71002 0.23340 -0.27666
 H51 H 0.79047 0.26748 -0.27693
 H52 H 0.71004 0.26746 -0.22440
 H53 H 0.75047 0.16189 -0.25030
 H54 H 0.74990 0.33917 -0.25082
 C55 C 1.27286 -0.27816 -0.23469
 C56 C 1.25000 -0.26462 -0.24924
 C57 C 1.22707 -0.27802 -0.26373
 C58 C 1.22687 -0.30494 -0.26414
 C59 C 1.24979 -0.31832 -0.24918
 C60 C 1.27293 -0.30517 -0.23412
 C61 C 1.25008 -0.23633 -0.24927
 C62 C 1.27305 -0.22287 -0.26372
 C63 C 1.27320 -0.19593 -0.26420
 C64 C 1.25018 -0.18263 -0.24939
 C65 C 1.22712 -0.19588 -0.23453
 C66 C 1.22716 -0.22281 -0.23489
 H67 H 1.29030 -0.26745 -0.22331
 H68 H 1.20962 -0.26735 -0.27518
 H69 H 1.29056 -0.23349 -0.27506
 H70 H 1.20961 -0.23340 -0.22352
 H71 H 1.24956 -0.33910 -0.24934
 H72 H 1.25022 -0.16185 -0.24944
 C73 C 0.21973 0.27023 0.73492
 C74 C 0.23464 0.25005 0.75101
 C75 C 0.21974 0.22981 0.76705
 C76 C 0.18991 0.22963 0.76768
 C77 C 0.17533 0.24996 0.75087
 C78 C 0.18999 0.27024 0.73424
 C79 C 0.26595 0.25010 0.75101
 C80 C 0.28084 0.27032 0.76699
 C81 C 0.31067 0.27049 0.76763
 C82 C 0.32526 0.25017 0.75089
 C83 C 0.31060 0.22991 0.73433
 C84 C 0.28086 0.22993 0.73500
 H85 H 0.23146 0.28567 0.72241
 H86 H 0.23165 0.21446 0.77952
 H87 H 0.26894 0.28566 0.77940
 H88 H 0.26913 0.21450 0.72254
 H89 H 0.15243 0.25008 0.75066
 H90 H 0.34816 0.25006 0.75070
 C91 C 0.71883 0.77027 0.73413
 C92 C 0.73369 0.75005 0.75019
 C93 C 0.71876 0.72983 0.76621
 C94 C 0.68895 0.72971 0.76687
 C95 C 0.67438 0.75006 0.75009
 C96 C 0.68902 0.77041 0.73336
 C97 C 0.76500 0.75003 0.75020
 C98 C 0.77996 0.77022 0.76619
 C99 C 0.80971 0.77027 0.76674
 C100 C 0.82432 0.75002 0.75011
 C101 C 0.80965 0.72977 0.73352
 C102 C 0.77990 0.72983 0.73416
 H103 H 0.73076 0.78563 0.72171
 H104 H 0.73064 0.71446 0.77865
 H105 H 0.76825 0.78564 0.77869
 H106 H 0.76815 0.71442 0.72168
 H107 H 0.65147 0.75007 0.75004
 H108 H 0.84722 0.75001 0.75007
 C109 C 0.71984 0.27023 0.23352
 C110 C 0.73476 0.25000 0.24952
 C111 C 0.71986 0.22976 0.26552
 C112 C 0.69011 0.22969 0.26613
 C113 C 0.67546 0.24997 0.24954
 C114 C 0.69009 0.27026 0.23293
 C115 C 0.76603 0.25003 0.24953
 C116 C 0.78093 0.27027 0.26545
 C117 C 0.81067 0.27034 0.26608
 C118 C 0.82533 0.25007 0.24958
 C119 C 0.81071 0.22978 0.23305
 C120 C 0.78096 0.22981 0.23363
 H121 H 0.73156 0.28569 0.22103
 H122 H 0.73159 0.21432 0.27801
 H123 H 0.76918 0.28570 0.27787
 H124 H 0.76925 0.21436 0.22119
 H125 H 0.65257 0.24996 0.24955
 H126 H 0.84823 0.25009 0.24960
 C127 C 0.21894 0.77022 0.23368
 C128 C 0.23380 0.75006 0.24986
 C129 C 0.21890 0.72991 0.26605
 C130 C 0.18909 0.72980 0.26678
 C131 C 0.17450 0.75009 0.24988
 C132 C 0.18913 0.77037 0.23297
 C133 C 0.26509 0.75004 0.24986
 C134 C 0.28003 0.77017 0.26602
 C135 C 0.30978 0.77020 0.26665
 C136 C 0.32440 0.75000 0.24991
 C137 C 0.30975 0.72983 0.23315
 C138 C 0.27999 0.72990 0.23373
 H139 H 0.23087 0.78553 0.22113
 H140 H 0.23080 0.71459 0.27859
 H141 H 0.26830 0.78555 0.27860
 H142 H 0.26825 0.71453 0.22114
 H143 H 0.15159 0.75011 0.24989
 H144 H 0.34730 0.74999 0.24993
 N145 N 1.05059 0.02684 0.03808
 N146 N 1.06953 0.04489 0.04409
 N147 N 1.03106 -0.02717 0.06310
 N148 N 1.03607 -0.04536 0.08682
 N149 N 1.05062 -0.02714 0.03828
 N150 N 1.06948 -0.04531 0.04443
 N151 N 1.03114 0.02681 0.06305
 N152 N 1.03638 0.04485 0.08684
 C153 C 1.06026 0.05607 0.07439
 C154 C 1.06000 -0.05661 0.07466
 N155 N 0.95055 -0.02705 0.03818
 N156 N 0.93163 -0.04512 0.04422
 N157 N 0.97011 0.02688 0.06319
 N158 N 0.96513 0.04502 0.08692
 N159 N 0.95050 0.02691 0.03842
 N160 N 0.93165 0.04506 0.04461
 N161 N 0.97004 -0.02708 0.06310
 N162 N 0.96484 -0.04518 0.08689
 Mn163 Mn 1.00058 -0.00014 0.06351
 C164 C 0.94096 -0.05638 0.07450
 C165 C 0.94117 0.05628 0.07481
 N166 N 1.05038 -0.02696 -0.03843
 N167 N 1.06914 -0.04517 -0.04437
 N168 N 1.03101 0.02708 -0.06340
 N169 N 1.03606 0.04527 -0.08713
 N170 N 1.05062 0.02700 -0.03863
 N171 N 1.06954 0.04513 -0.04482
 N172 N 1.03089 -0.02689 -0.06335
 N173 N 1.03590 -0.04503 -0.08702
 Mn174 Mn 1.05084 -0.00007 -0.00018
 C175 C 1.05969 -0.05637 -0.07457
 C176 C 1.06006 0.05646 -0.07503
 N177 N 0.95053 0.02703 -0.03827
 N178 N 0.93166 0.04516 -0.04421
 N179 N 0.96988 -0.02692 -0.06339
 N180 N 0.96477 -0.04500 -0.08717
 N181 N 0.95033 -0.02695 -0.03854
 N182 N 0.93140 -0.04504 -0.04473
 N183 N 0.96998 0.02707 -0.06323
 N184 N 0.96483 0.04522 -0.08695
 Mn185 Mn 0.95020 -0.00001 -0.00005
 Mn186 Mn 1.00044 0.00009 -0.06374
 Cl187 Cl 1.00052 -0.00003 -0.00011
 C188 C 0.94100 0.05645 -0.07446
 C189 C 0.94080 -0.05624 -0.07501
 N190 N 1.04987 0.52721 0.53823
 N191 N 1.06865 0.54539 0.54427
 N192 N 1.03045 0.47313 0.56309
 N193 N 1.03549 0.45496 0.58683
 N194 N 1.05010 0.47324 0.53836
 N195 N 1.06903 0.45515 0.54461
 N196 N 1.03035 0.52709 0.56311
 N197 N 1.03537 0.54519 0.58686
 C198 C 1.05919 0.55654 0.57450
 C199 C 1.05952 0.44381 0.57479
 N200 N 0.95001 0.47315 0.53781
 N201 N 0.93109 0.45504 0.54373
 N202 N 0.96935 0.52708 0.56305
 N203 N 0.96424 0.54515 0.58684
 N204 N 0.94982 0.52712 0.53817
 N205 N 0.93090 0.54521 0.54436
 N206 N 0.96943 0.47310 0.56282
 N207 N 0.96420 0.45497 0.58654
 Mn208 Mn 0.99990 0.50010 0.56341
 C209 C 0.94036 0.44376 0.57401
 C210 C 0.94028 0.55639 0.57467
 N211 N 1.05015 0.47346 0.46165
 N212 N 1.06909 0.45540 0.45570
 N213 N 1.03065 0.52747 0.43666
 N214 N 1.03570 0.54567 0.41295
 N215 N 1.05019 0.52744 0.46151
 N216 N 1.06907 0.54561 0.45540
 N217 N 1.03074 0.47349 0.43663
 N218 N 1.03600 0.45545 0.41287
 Mn219 Mn 1.05036 0.50034 0.49994
 C220 C 1.05985 0.44422 0.42537
 C221 C 1.05963 0.55692 0.42515
 N222 N 0.95013 0.52728 0.46146
 N223 N 0.93119 0.54532 0.45540
 N224 N 0.96971 0.47338 0.43639
 N225 N 0.96476 0.45525 0.41264
 N226 N 0.95007 0.47332 0.46113
 N227 N 0.93123 0.45516 0.45489
 N228 N 0.96963 0.52734 0.43655
 N229 N 0.96442 0.54543 0.41275
 Mn230 Mn 0.94973 0.50022 0.49964
 Mn231 Mn 1.00018 0.50042 0.43616
 Cl232 Cl 1.00004 0.50027 0.49979
 C233 C 0.94052 0.55659 0.42514
 C234 C 0.94079 0.44396 0.42470
 N235 N 0.55011 0.02677 0.53841
 N236 N 0.56904 0.04486 0.54428
 N237 N 0.53059 -0.02718 0.56364
 N238 N 0.53565 -0.04531 0.58744
 N239 N 0.55012 -0.02721 0.53877
 N240 N 0.56900 -0.04535 0.54497
 N241 N 0.53068 0.02680 0.56340
 N242 N 0.53591 0.04491 0.58707
 C243 C 0.55977 0.05611 0.57453
 C244 C 0.55958 -0.05658 0.57528
 N245 N 0.45007 -0.02703 0.53881
 N246 N 0.43128 -0.04522 0.54480
 N247 N 0.46966 0.02693 0.56366
 N248 N 0.46469 0.04507 0.58739
 N249 N 0.45001 0.02694 0.53894
 N250 N 0.43115 0.04508 0.54516
 N251 N 0.46960 -0.02703 0.56369
 N252 N 0.46457 -0.04522 0.58739
 Mn253 Mn 0.50013 -0.00012 0.56399
 C254 C 0.44073 -0.05650 0.57500
 C255 C 0.44071 0.05632 0.57534
 N256 N 0.54983 -0.02716 0.46205
 N257 N 0.56869 -0.04526 0.45601
 N258 N 0.53043 0.02686 0.43698
 N259 N 0.53545 0.04501 0.41321
 N260 N 0.55007 0.02680 0.46172
 N261 N 0.56898 0.04490 0.45546
 N262 N 0.53032 -0.02711 0.43714
 N263 N 0.53545 -0.04517 0.41337
 Mn264 Mn 0.55031 -0.00020 0.50023
 C265 C 0.55931 -0.05644 0.42576
 C266 C 0.55947 0.05619 0.42525
 N267 N 0.44997 0.02693 0.46222
 N268 N 0.43110 0.04505 0.45626
 N269 N 0.46930 -0.02707 0.43724
 N270 N 0.46422 -0.04521 0.41355
 N271 N 0.44976 -0.02705 0.46209
 N272 N 0.43084 -0.04518 0.45599
 N273 N 0.46939 0.02692 0.43722
 N274 N 0.46419 0.04503 0.41344
 Mn275 Mn 0.44967 -0.00006 0.50052
 Mn276 Mn 0.49986 -0.00010 0.43675
 Cl277 Cl 0.49999 -0.00012 0.50037
 C278 C 0.44038 0.05628 0.42594
 C279 C 0.44026 -0.05644 0.42576
 N280 N 0.54948 0.52715 0.03770
 N281 N 0.56837 0.54524 0.04376
 N282 N 0.53016 0.47310 0.06276
 N283 N 0.53523 0.45493 0.08650
 N284 N 0.54975 0.47320 0.03797
 N285 N 0.56869 0.45510 0.04415
 N286 N 0.53001 0.52706 0.06265
 N287 N 0.53518 0.54508 0.08646
 C288 C 0.55903 0.55637 0.07406
 C289 C 0.55923 0.44378 0.07437
 N290 N 0.44967 0.47292 0.03774
 N291 N 0.43080 0.45479 0.04378
 N292 N 0.46899 0.52694 0.06271
 N293 N 0.46394 0.54508 0.08640
 N294 N 0.44941 0.52690 0.03791
 N295 N 0.43050 0.54502 0.04405
 N296 N 0.46913 0.47296 0.06270
 N297 N 0.46397 0.45486 0.08651
 Mn298 Mn 0.49957 0.50001 0.06310
 C299 C 0.44013 0.44358 0.07409
 C300 C 0.43996 0.55629 0.07425
 N301 N 0.54967 0.47327 -0.03872
 N302 N 0.56862 0.45522 -0.04467
 N303 N 0.53008 0.52720 -0.06385
 N304 N 0.53512 0.54535 -0.08765
 N305 N 0.54965 0.52724 -0.03902
 N306 N 0.56852 0.54540 -0.04525
 N307 N 0.53021 0.47322 -0.06367
 N308 N 0.53543 0.45515 -0.08738
 Mn309 Mn 0.54992 0.50022 -0.00052
 C310 C 0.55932 0.44398 -0.07492
 C311 C 0.55906 0.55663 -0.07553
 N312 N 0.44959 0.52691 -0.03880
 N313 N 0.43074 0.54505 -0.04473
 N314 N 0.46918 0.47299 -0.06377
 N315 N 0.46419 0.45485 -0.08749
 N316 N 0.44959 0.47295 -0.03897
 N317 N 0.43074 0.45477 -0.04514
 N318 N 0.46907 0.52696 -0.06374
 N319 N 0.46394 0.54513 -0.08743
 Mn320 Mn 0.44928 0.49992 -0.00053
 Mn321 Mn 0.49963 0.50009 -0.06415
 Cl322 Cl 0.49960 0.50006 -0.00053
 C323 C 0.44010 0.55635 -0.07496
 C324 C 0.44024 0.44355 -0.07535
 N325 N 1.16283 0.18070 0.18456
 C326 C 1.16255 0.15469 0.18547
 N327 N 1.18330 0.14212 0.20318
 N328 N 1.20378 0.15512 0.21944
 C329 C 1.20433 0.18119 0.21854
 N330 N 1.18334 0.19372 0.20088
 C331 C 1.14169 0.14040 0.16621
 C332 C 1.12528 0.12744 0.14958
 C333 C 1.10722 0.11091 0.12932
 N334 N 1.08279 0.10175 0.14338
 N335 N 1.06732 0.08468 0.12549
 C336 C 1.07590 0.07620 0.09307
 N337 N 1.10026 0.08555 0.07900
 N338 N 1.11567 0.10260 0.09685
 N339 N 1.16142 0.68068 0.68569
 C340 C 1.16106 0.65468 0.68641
 N341 N 1.18188 0.64196 0.70379
 N342 N 1.20252 0.65483 0.71993
 C343 C 1.20316 0.68089 0.71920
 N344 N 1.18209 0.69356 0.70188
 C345 C 1.14012 0.64057 0.66711
 C346 C 1.12369 0.62776 0.65034
 C347 C 1.10569 0.61138 0.62985
 N348 N 1.11425 0.60323 0.59734
 N349 N 1.09895 0.58620 0.57932
 C350 C 1.07462 0.57672 0.59326
 N351 N 1.06592 0.58506 0.62570
 N352 N 1.08127 0.60210 0.64376
 N353 N 0.66216 0.18094 0.68432
 C354 C 0.66204 0.15493 0.68510
 N355 N 0.68299 0.14240 0.70251
 N356 N 0.70351 0.15546 0.71861
 C357 C 0.70390 0.18153 0.71783
 N358 N 0.68270 0.19401 0.70048
 C359 C 0.64115 0.14061 0.66597
 C360 C 0.62473 0.12763 0.64940
 C361 C 0.60668 0.11109 0.62919
 N362 N 0.61513 0.10272 0.59676
 N363 N 0.59973 0.08562 0.57898
 C364 C 0.57538 0.07630 0.59309
 N365 N 0.56680 0.08485 0.62548
 N366 N 0.58225 0.10195 0.64329
 N367 N 0.68226 0.64183 0.20314
 C368 C 0.66141 0.65447 0.18570
 N369 N 0.66168 0.68048 0.18501
 N370 N 0.68227 0.69343 0.20126
 C371 C 0.70336 0.68083 0.21864
 N372 N 0.70282 0.65476 0.21933
 C373 C 0.64049 0.64029 0.16644
 C374 C 0.62404 0.62742 0.14974
 C375 C 0.60596 0.61101 0.12934
 N376 N 0.58153 0.60181 0.14334
 N377 N 0.56606 0.58482 0.12532
 C378 C 0.57463 0.57646 0.09284
 N379 N 0.59898 0.58586 0.07883
 N380 N 0.61440 0.60284 0.09681
 N381 N 0.83842 -0.18097 0.18525
 C382 C 0.83859 -0.15496 0.18588
 N383 N 0.81765 -0.14239 0.20319
 N384 N 0.79708 -0.15541 0.21933
 C385 C 0.79664 -0.18148 0.21870
 N386 N 0.81782 -0.19400 0.20144
 C387 C 0.85951 -0.14068 0.16667
 C388 C 0.87595 -0.12773 0.15001
 C389 C 0.89402 -0.11123 0.12966
 N390 N 0.88555 -0.10290 0.09716
 N391 N 0.90097 -0.08585 0.07923
 C392 C 0.92534 -0.07653 0.09324
 N393 N 0.93394 -0.08505 0.12568
 N394 N 0.91847 -0.10211 0.14365
 N395 N 0.83809 0.31935 0.68583
 C396 C 0.83756 0.34535 0.68495
 N397 N 0.81591 0.35793 0.70076
 N398 N 0.79534 0.34495 0.71691
 C399 C 0.79552 0.31885 0.71781
 N400 N 0.81748 0.30635 0.70205
 C401 C 0.85860 0.35953 0.66580
 C402 C 0.87513 0.37242 0.64920
 C403 C 0.89328 0.38888 0.62892
 N404 N 0.88492 0.39720 0.59638
 N405 N 0.90039 0.41425 0.57852
 C406 C 0.92471 0.42358 0.59265
 N407 N 0.93321 0.41507 0.62514
 N408 N 0.91769 0.39801 0.64304
 N409 N 0.33873 -0.18128 0.68588
 C410 C 0.33898 -0.15527 0.68653
 N411 N 0.31806 -0.14265 0.70379
 N412 N 0.29743 -0.15561 0.71988
 C413 C 0.29690 -0.18167 0.71922
 N414 N 0.31807 -0.19425 0.70202
 C415 C 0.35990 -0.14107 0.66727
 C416 C 0.37631 -0.12815 0.65055
 C417 C 0.39428 -0.11165 0.63012
 N418 N 0.38570 -0.10333 0.59768
 N419 N 0.40097 -0.08619 0.57973
 C420 C 0.42531 -0.07677 0.59368
 N421 N 0.43403 -0.08528 0.62607
 N422 N 0.41871 -0.10243 0.64406
 N423 N 0.33840 0.31888 0.18638
 C424 C 0.33784 0.34488 0.18545
 N425 N 0.31623 0.35745 0.20138
 N426 N 0.29573 0.34445 0.21768
 C427 C 0.29595 0.31836 0.21861
 N428 N 0.31787 0.30587 0.20274
 C429 C 0.35880 0.35910 0.16619
 C430 C 0.37525 0.37204 0.14952
 C431 C 0.39331 0.38858 0.12918
 N432 N 0.38487 0.39688 0.09666
 N433 N 0.40024 0.41398 0.07876
 C434 C 0.42455 0.42338 0.09282
 N435 N 0.43313 0.41490 0.12529
 N436 N 0.41770 0.39779 0.14324
 N437 N 0.83866 0.18126 -0.18493
 C438 C 0.83888 0.15525 -0.18561
 N439 N 0.81801 0.14265 -0.20302
 N440 N 0.79747 0.15564 -0.21923
 C441 C 0.79697 0.18171 -0.21855
 N442 N 0.81809 0.19426 -0.20119
 C443 C 0.85978 0.14100 -0.16635
 C444 C 0.87620 0.12805 -0.14969
 C445 C 0.89423 0.11151 -0.12938
 N446 N 0.88575 0.10314 -0.09691
 N447 N 0.90112 0.08602 -0.07905
 C448 C 0.92544 0.07667 -0.09310
 N449 N 0.93406 0.08523 -0.12552
 N450 N 0.91865 0.10236 -0.14342
 N451 N 0.83804 0.68078 0.31338
 C452 C 0.83756 0.65478 0.31413
 N453 N 0.81590 0.64219 0.29834
 N454 N 0.79525 0.65517 0.28235
 C455 C 0.79538 0.68127 0.28160
 N456 N 0.81736 0.69378 0.29733
 C457 C 0.85865 0.64060 0.33316
 C458 C 0.87521 0.62772 0.34972
 C459 C 0.89338 0.61130 0.37003
 N460 N 0.88502 0.60300 0.40258
 N461 N 0.90051 0.58600 0.42049
 C462 C 0.92485 0.57671 0.40640
 N463 N 0.93335 0.58519 0.37390
 N464 N 0.91781 0.60220 0.35594
 N465 N 0.33846 0.18117 0.31449
 C466 C 0.33793 0.15517 0.31525
 N467 N 0.31633 0.14261 0.29928
 N468 N 0.29580 0.15562 0.28309
 C469 C 0.29599 0.18172 0.28231
 N470 N 0.31790 0.19420 0.29824
 C471 C 0.35893 0.14092 0.33439
 C472 C 0.37541 0.12795 0.35095
 C473 C 0.39350 0.11138 0.37116
 N474 N 0.38513 0.10304 0.40370
 N475 N 0.40053 0.08591 0.42149
 C476 C 0.42478 0.07650 0.40731
 N477 N 0.43329 0.08502 0.37482
 N478 N 0.41785 0.10217 0.35699
 N479 N 0.33810 0.68073 -0.18672
 C480 C 0.33758 0.65474 -0.18588
 N481 N 0.31587 0.64213 -0.20155
 N482 N 0.29520 0.65511 -0.21750
 C483 C 0.29537 0.68120 -0.21833
 N484 N 0.31740 0.69371 -0.20273
 C485 C 0.35865 0.64058 -0.16683
 C486 C 0.37518 0.62773 -0.15023
 C487 C 0.39329 0.61130 -0.12991
 N488 N 0.38486 0.60299 -0.09739
 N489 N 0.40026 0.58592 -0.07950
 C490 C 0.42457 0.57656 -0.09360
 N491 N 0.43313 0.58506 -0.12606
 N492 N 0.41769 0.60214 -0.14399
 N493 N 1.18240 -0.14251 -0.20283
 C494 C 1.16139 -0.15511 -0.18561
 N495 N 1.16154 -0.18111 -0.18488
 N496 N 1.18219 -0.19412 -0.20090
 C497 C 1.20345 -0.18158 -0.21805
 N498 N 1.20302 -0.15551 -0.21880
 C499 C 1.14048 -0.14087 -0.16649
 C500 C 1.12407 -0.12795 -0.14985
 C501 C 1.10610 -0.11146 -0.12952
 N502 N 1.11465 -0.10323 -0.09705
 N503 N 1.09938 -0.08610 -0.07916
 C504 C 1.07510 -0.07662 -0.09320
 N505 N 1.06641 -0.08504 -0.12561
 N506 N 1.08173 -0.10217 -0.14354
 N507 N 1.18309 0.35799 0.29724
 C508 C 1.16231 0.34544 0.31495
 N509 N 1.16263 0.31943 0.31604
 N510 N 1.18320 0.30640 0.29989
 C511 C 1.20423 0.31891 0.28223
 N512 N 1.20363 0.34497 0.28115
 C513 C 1.14138 0.35975 0.33404
 C514 C 1.12493 0.37274 0.35055
 C515 C 1.10685 0.38930 0.37070
 N516 N 1.11521 0.39762 0.40321
 N517 N 1.09978 0.41470 0.42096
 C518 C 1.07550 0.42407 0.40677
 N519 N 1.06700 0.41558 0.37431
 N520 N 1.08248 0.39849 0.35652
 N521 N 0.68241 -0.14241 0.29726
 C522 C 0.66145 -0.15498 0.31463
 N523 N 0.66162 -0.18099 0.31542
 N524 N 0.68221 -0.19401 0.29932
 C525 C 0.70341 -0.18149 0.28201
 N526 N 0.70298 -0.15542 0.28122
 C527 C 0.64054 -0.14070 0.33376
 C528 C 0.62411 -0.12776 0.35037
 C529 C 0.60608 -0.11127 0.37068
 N530 N 0.61455 -0.10303 0.40317
 N531 N 0.59918 -0.08598 0.42108
 C532 C 0.57486 -0.07658 0.40704
 N533 N 0.56625 -0.08500 0.37459
 N534 N 0.58167 -0.10206 0.35665
 N535 N 0.66204 0.31964 -0.18511
 C536 C 0.66173 0.34564 -0.18598
 N537 N 0.68252 0.35828 -0.20356
 N538 N 0.70307 0.34534 -0.21974
 C539 C 0.70366 0.31927 -0.21888
 N540 N 0.68263 0.30668 -0.20135
 C541 C 0.64081 0.35985 -0.16676
 C542 C 0.62437 0.37274 -0.15011
 C543 C 0.60629 0.38920 -0.12983
 N544 N 0.58183 0.39830 -0.14386
 N545 N 0.56636 0.41534 -0.12597
 C546 C 0.57495 0.42385 -0.09356
 N547 N 0.59932 0.41456 -0.07951
 N548 N 0.61475 0.39753 -0.09737
 N549 N 1.13205 0.19109 -0.19725
 C550 C 1.14614 0.17180 -0.18075
 N551 N 1.17480 0.17163 -0.18164
 N552 N 1.18892 0.19021 -0.19843
 C553 C 1.17497 0.20972 -0.21501
 N554 N 1.14618 0.20966 -0.21403
 C555 C 1.13090 0.15190 -0.16232
 C556 C 1.11813 0.13522 -0.14676
 C557 C 1.10302 0.11532 -0.12816
 N558 N 1.11325 0.10562 -0.09719
 N559 N 1.09944 0.08698 -0.08013
 C560 C 1.07490 0.07742 -0.09343
 N561 N 1.06465 0.08720 -0.12441
 N562 N 1.07848 0.10584 -0.14147
 N563 N 1.17408 0.67201 0.31797
 C564 C 1.14543 0.67220 0.31901
 N565 N 1.13130 0.69144 0.30244
 N566 N 1.14538 0.70994 0.28545
 C567 C 1.17417 0.70997 0.28432
 N568 N 1.18816 0.69052 0.30097
 C569 C 1.13024 0.65236 0.33762
 C570 C 1.11752 0.63571 0.35329
 C571 C 1.10245 0.61582 0.37197
 N572 N 1.07795 0.60627 0.35865
 N573 N 1.06417 0.58762 0.37575
 C574 C 1.07443 0.57790 0.40676
 N575 N 1.09893 0.58754 0.42007
 N576 N 1.11270 0.60619 0.40297
 N577 N 0.63149 0.19034 0.30239
 C578 C 0.64558 0.17104 0.31887
 N579 N 0.67424 0.17078 0.31785
 N580 N 0.68837 0.18930 0.30094
 C581 C 0.67437 0.20876 0.28440
 N582 N 0.64562 0.20885 0.28549
 C583 C 0.63034 0.15124 0.33743
 C584 C 0.61756 0.13464 0.35310
 C585 C 0.60244 0.11483 0.37182
 N586 N 0.61270 0.10520 0.40280
 N587 N 0.59887 0.08663 0.41998
 C588 C 0.57430 0.07709 0.40676
 N589 N 0.56402 0.08680 0.37577
 N590 N 0.57786 0.10538 0.35859
 N591 N 0.63106 0.69120 -0.19797
 C592 C 0.64515 0.67189 -0.18152
 N593 N 0.67380 0.67169 -0.18245
 N594 N 0.68793 0.69027 -0.19925
 C595 C 0.67398 0.70979 -0.21580
 N596 N 0.64520 0.70976 -0.21477
 C597 C 0.62989 0.65200 -0.16306
 C598 C 0.61711 0.63533 -0.14747
 C599 C 0.60201 0.61544 -0.12883
 N600 N 0.61219 0.60584 -0.09778
 N601 N 0.59838 0.58722 -0.08066
 C602 C 0.57389 0.57757 -0.09401
 N603 N 0.56370 0.58725 -0.12507
 N604 N 0.57752 0.60587 -0.14218
 N605 N 0.86844 -0.19041 -0.19725
 C606 C 0.85439 -0.17110 -0.18079
 N607 N 0.82573 -0.17086 -0.18172
 N608 N 0.81156 -0.18936 -0.19852
 C609 C 0.82551 -0.20882 -0.21505
 N610 N 0.85427 -0.20890 -0.21405
 C611 C 0.86969 -0.15129 -0.16235
 C612 C 0.88251 -0.13467 -0.14679
 C613 C 0.89768 -0.11485 -0.12818
 N614 N 0.88752 -0.10529 -0.09714
 N615 N 0.90139 -0.08673 -0.08007
 C616 C 0.92590 -0.07711 -0.09344
 N617 N 0.93606 -0.08676 -0.12449
 N618 N 0.92219 -0.10532 -0.14156
 N619 N 0.86925 0.30970 0.30222
 C620 C 0.85513 0.32900 0.31859
 N621 N 0.82648 0.32924 0.31753
 N622 N 0.81237 0.31072 0.30069
 C623 C 0.82639 0.29127 0.28427
 N624 N 0.85514 0.29119 0.28539
 C625 C 0.87034 0.34881 0.33708
 C626 C 0.88307 0.36542 0.35271
 C627 C 0.89810 0.38524 0.37139
 N628 N 0.88779 0.39479 0.40235
 N629 N 0.90154 0.41338 0.41949
 C630 C 0.92606 0.42304 0.40625
 N631 N 0.93638 0.41342 0.37528
 N632 N 0.92263 0.39482 0.35814
 N633 N 0.36839 -0.19061 0.30320
 C634 C 0.35429 -0.17138 0.31972
 N635 N 0.32563 -0.17112 0.31865
 N636 N 0.31152 -0.18957 0.30166
 C637 C 0.32552 -0.20896 0.28507
 N638 N 0.35427 -0.20905 0.28621
 C639 C 0.36951 -0.15160 0.33832
 C640 C 0.38226 -0.13500 0.35398
 C641 C 0.39735 -0.11517 0.37264
 N642 N 0.38711 -0.10559 0.40362
 N643 N 0.40091 -0.08699 0.42070
 C644 C 0.42543 -0.07736 0.40739
 N645 N 0.43568 -0.08703 0.37640
 N646 N 0.42187 -0.10563 0.35932
 N647 N 0.36852 0.30900 -0.19737
 C648 C 0.35442 0.32827 -0.18094
 N649 N 0.32576 0.32844 -0.18186
 N650 N 0.31166 0.30988 -0.19861
 C651 C 0.32562 0.29039 -0.21511
 N652 N 0.35440 0.29044 -0.21411
 C653 C 0.36965 0.34815 -0.16255
 C654 C 0.38240 0.36481 -0.14701
 C655 C 0.39746 0.38470 -0.12843
 N656 N 0.38721 0.39429 -0.09745
 N657 N 0.40098 0.41292 -0.08040
 C658 C 0.42547 0.42259 -0.09374
 N659 N 0.43572 0.41293 -0.12473
 N660 N 0.42195 0.39429 -0.14178
 N661 N 1.13141 -0.19119 0.19737
 C662 C 1.14558 -0.17196 0.18080
 N663 N 1.17424 -0.17181 0.18181
 N664 N 1.18828 -0.19034 0.19879
 C665 C 1.17425 -0.20977 0.21545
 N666 N 1.14546 -0.20971 0.21434
 C667 C 1.13043 -0.15210 0.16221
 C668 C 1.11774 -0.13544 0.14655
 C669 C 1.10271 -0.11553 0.12788
 N670 N 1.11299 -0.10590 0.09689
 N671 N 1.09926 -0.08724 0.07978
 C672 C 1.07476 -0.07760 0.09307
 N673 N 1.06447 -0.08732 0.12406
 N674 N 1.07821 -0.10598 0.14117
 N675 N 1.13142 0.30954 0.69769
 C676 C 1.14554 0.32885 0.68123
 N677 N 1.17420 0.32912 0.68234
 N678 N 1.18829 0.31062 0.69932
 C679 C 1.17427 0.29115 0.71584
 N680 N 1.14552 0.29105 0.71466
 C681 C 1.13032 0.34866 0.66261
 C682 C 1.11757 0.36528 0.64692
 C683 C 1.10246 0.38511 0.62820
 N684 N 1.11276 0.39480 0.59725
 N685 N 1.09894 0.41338 0.58009
 C686 C 1.07435 0.42290 0.59328
 N687 N 1.06405 0.41313 0.62423
 N688 N 1.07787 0.39454 0.64140
 N689 N 0.63129 -0.19109 0.69789
 C690 C 0.64545 -0.17179 0.68146
 N691 N 0.67410 -0.17161 0.68253
 N692 N 0.68815 -0.19017 0.69943
 C693 C 0.67413 -0.20968 0.71594
 N694 N 0.64535 -0.20964 0.71478
 C695 C 0.63027 -0.15191 0.66292
 C696 C 0.61755 -0.13525 0.64728
 C697 C 0.60247 -0.11536 0.62861
 N698 N 0.61267 -0.10578 0.59755
 N699 N 0.59888 -0.08717 0.58042
 C700 C 0.57440 -0.07751 0.59376
 N701 N 0.56419 -0.08717 0.62483
 N702 N 0.57799 -0.10579 0.64196
 N703 N 0.63143 0.30958 0.19681
 C704 C 0.64550 0.32891 0.18034
 N705 N 0.67416 0.32919 0.18131
 N706 N 0.68831 0.31067 0.19817
 C707 C 0.67434 0.29118 0.21470
 N708 N 0.64558 0.29107 0.21366
 C709 C 0.63024 0.34872 0.16184
 C710 C 0.61744 0.36532 0.14623
 C711 C 0.60229 0.38513 0.12759
 N712 N 0.61250 0.39480 0.09659
 N713 N 0.59864 0.41338 0.07949
 C714 C 0.57409 0.42289 0.09279
 N715 N 0.56387 0.41313 0.12379
 N716 N 0.57774 0.39456 0.14090
 N717 N 0.86937 0.19049 0.19705
 C718 C 0.85529 0.17117 0.18067
 N719 N 0.82663 0.17088 0.18167
 N720 N 0.81249 0.18939 0.19846
 C721 C 0.82647 0.20887 0.21490
 N722 N 0.85522 0.20899 0.21384
 C723 C 0.87054 0.15137 0.16222
 C724 C 0.88330 0.13478 0.14663
 C725 C 0.89837 0.11496 0.12800
 N726 N 0.88812 0.10540 0.09702
 N727 N 0.90189 0.08681 0.07992
 C728 C 0.92641 0.07719 0.09322
 N729 N 0.93668 0.08683 0.12421
 N730 N 0.92289 0.10542 0.14130
 N731 N 0.86824 0.69046 0.69721
 C732 C 0.85412 0.67118 0.68077
 N733 N 0.82546 0.67094 0.68182
 N734 N 0.81136 0.68943 0.69871
 C735 C 0.82537 0.70887 0.71522
 N736 N 0.85413 0.70895 0.71410
 C737 C 0.86935 0.65138 0.66223
 C738 C 0.88212 0.63478 0.64660
 C739 C 0.89724 0.61497 0.62795
 N740 N 0.88707 0.60543 0.59689
 N741 N 0.90091 0.58688 0.57978
 C742 C 0.92541 0.57725 0.59313
 N743 N 0.93559 0.58687 0.62419
 N744 N 0.92174 0.60542 0.64130
 N745 N 0.36915 0.19062 0.69791
 C746 C 0.35502 0.17132 0.68153
 N747 N 0.32636 0.17107 0.68266
 N748 N 0.31228 0.18956 0.69957
 C749 C 0.32631 0.20901 0.71601
 N750 N 0.35506 0.20911 0.71481
 C751 C 0.37022 0.15152 0.66298
 C752 C 0.38294 0.13490 0.64733
 C753 C 0.39798 0.11506 0.62864
 N754 N 0.38766 0.10547 0.59770
 N755 N 0.40140 0.08687 0.58057
 C756 C 0.42595 0.07725 0.59379
 N757 N 0.43628 0.08692 0.62474
 N758 N 0.42253 0.10552 0.64187
 N759 N 0.36830 0.69055 0.19675
 C760 C 0.35417 0.67132 0.18020
 N761 N 0.32551 0.67111 0.18121
 N762 N 0.31143 0.68958 0.19817
 C763 C 0.32546 0.70896 0.21478
 N764 N 0.35421 0.70901 0.21369
 C765 C 0.36937 0.65152 0.16164
 C766 C 0.38209 0.63491 0.14600
 C767 C 0.39715 0.61506 0.12736
 N768 N 0.38686 0.60543 0.09642
 N769 N 0.40063 0.58682 0.07935
 C770 C 0.42516 0.57722 0.09263
 N771 N 0.43545 0.58692 0.12358
 N772 N 0.42168 0.60553 0.14065
   
