data_POSCAR
  _audit_creation_date              2014-09-24
  _audit_creation_method            'ToBaCCo'
  _symmetry_space_group_name_H-M    'P1'
  _symmetry_Int_Tables_number       1
  _symmetry_cell_setting            triclinic
  loop_
  _symmetry_equiv_pos_as_xyz
 x,y,z
_cell_length_a 33.3545
_cell_length_b 33.2716
_cell_length_c 45.1157
_cell_angle_alpha 90.160200
_cell_angle_beta 89.256400
_cell_angle_gamma 89.983400
loop_
  _atom_site_label
  _atom_site_type_symbol
  _atom_site_fract_x
  _atom_site_fract_y
  _atom_site_fract_z
C1 C -0.00071 0.50136 0.98594
 C2 C 0.00024 0.50141 1.01615
 C3 C -0.00160 0.53937 1.03355
 C4 C 0.00317 0.46350 1.03332
 C5 C -0.00357 0.46339 0.96867
 C6 C 0.00109 0.53924 0.96861
 C7 C 0.02805 0.54764 1.05451
 C8 C 0.02693 0.58337 1.07084
 C9 C -0.00406 0.61114 1.06656
 C10 C -0.03413 0.60276 1.04600
 C11 C -0.03301 0.56697 1.02969
 C12 C 0.03432 0.43590 1.02773
 C13 C 0.03638 0.40011 1.04382
 C14 C 0.00761 0.39177 1.06582
 C15 C -0.02304 0.41947 1.07184
 C16 C -0.02517 0.45522 1.05576
 C17 C -0.03467 0.43578 0.97417
 C18 C -0.03672 0.39999 0.95793
 C19 C -0.00797 0.39167 0.93587
 C20 C 0.02267 0.41937 0.92996
 C21 C 0.02478 0.45511 0.94619
 C22 C -0.02852 0.54738 0.94761
 C23 C -0.02730 0.58296 0.93126
 C24 C 0.00368 0.61066 0.93557
 C25 C 0.03365 0.60250 0.95615
 C26 C 0.03250 0.56687 0.97250
 H27 H 0.05235 0.52663 1.05793
 H28 H 0.05037 0.58930 1.08671
 H29 H -0.05845 0.62380 1.04251
 H30 H -0.05659 0.56077 1.01405
 H31 H 0.05692 0.44208 1.01091
 H32 H 0.06035 0.37897 1.03909
 H33 H -0.04925 0.47621 1.06052
 H34 H -0.05728 0.44196 0.99102
 H35 H -0.06067 0.37885 0.96257
 H36 H 0.04500 0.41327 0.91288
 H37 H 0.04883 0.47612 0.94150
 H38 H -0.05282 0.52636 0.94416
 H39 H -0.05058 0.58893 0.91533
 H40 H 0.05788 0.62363 0.95953
 H41 H 0.05606 0.56079 0.98816
 H42 H -0.04539 0.41336 1.08888
 C43 C 0.50029 -0.00145 0.48460
 C44 C 0.49982 -0.00141 0.51482
 C45 C 0.46170 -0.00371 0.53216
 C46 C 0.53738 0.00101 0.53209
 C47 C 0.53840 -0.00381 0.46725
 C48 C 0.46273 0.00096 0.46734
 C49 C 0.45315 0.02541 0.55392
 C50 C 0.41724 0.02387 0.57017
 C51 C 0.38964 -0.00697 0.56499
 C52 C 0.39824 -0.03651 0.54367
 C53 C 0.43420 -0.03502 0.52742
 C54 C 0.56495 0.03239 0.52738
 C55 C 0.60037 0.03404 0.54359
 C56 C 0.60836 0.00460 0.56484
 C57 C 0.58069 -0.02631 0.56998
 C58 C 0.54531 -0.02802 0.55377
 C59 C 0.56591 -0.03513 0.47190
 C60 C 0.60187 -0.03667 0.45565
 C61 C 0.61048 -0.00719 0.43442
 C62 C 0.58287 0.02365 0.42932
 C63 C 0.54696 0.02525 0.44557
 C64 C 0.45480 -0.02812 0.44557
 C65 C 0.41942 -0.02642 0.42937
 C66 C 0.39176 0.00452 0.43459
 C67 C 0.39975 0.03400 0.45592
 C68 C 0.43516 0.03236 0.47213
 H69 H 0.47406 0.04964 0.55803
 H70 H 0.41092 0.04681 0.58667
 H71 H 0.37718 -0.06062 0.53960
 H72 H 0.44058 -0.05821 0.51114
 H73 H 0.55903 0.05551 0.51117
 H74 H 0.62148 0.05821 0.53956
 H75 H 0.52433 -0.05228 0.55785
 H76 H 0.55953 -0.05828 0.48812
 H77 H 0.62294 -0.06078 0.45965
 H78 H 0.58919 0.04655 0.41289
 H79 H 0.52604 0.04948 0.44153
 H80 H 0.47578 -0.05240 0.44142
 H81 H 0.41358 -0.04931 0.41285
 H82 H 0.37864 0.05820 0.46002
 H83 H 0.44109 0.05552 0.48840
 H84 H 0.58653 -0.04916 0.58643
 C85 C 0.08673 0.00431 0.26002
 H86 H 0.08836 0.00529 0.23607
 C87 C 0.12184 0.00574 0.27651
 H88 H 0.15067 0.00766 0.26527
 C89 C 0.04717 0.00099 0.30403
 H90 H 0.01803 -0.00029 0.31468
 C91 C 0.08156 0.00237 0.32136
 H92 H 0.07882 0.00172 0.34531
 N93 N 0.05038 0.00146 0.27391
 C94 C -0.02809 -0.05368 0.20869
 H95 H -0.05207 -0.03179 0.20819
 C96 C -0.03038 -0.08850 0.19141
 H97 H -0.05610 -0.09344 0.17744
 C98 C 0.03444 -0.07446 0.22789
 H99 H 0.05930 -0.06929 0.24249
 C100 C 0.03332 -0.10966 0.21098
 H101 H 0.05753 -0.13126 0.21240
 Zn102 Zn 0.00443 0.00013 0.24972
 N103 N 0.00417 -0.04713 0.22623
 C104 C 0.00590 0.04377 0.19541
 N105 N 0.00617 0.04652 0.22552
 C106 C 0.00898 0.08275 0.23943
 C107 C 0.01051 0.11819 0.22297
 C108 C 0.00739 0.07852 0.17810
 C109 C -0.04991 -0.03277 0.29083
 C110 C -0.08486 -0.03511 0.30814
 C111 C -0.10547 0.02904 0.28847
 C112 C -0.07015 0.03020 0.27154
 N113 N -0.04302 -0.00027 0.27323
 H114 H 0.00464 0.01472 0.18473
 H115 H 0.00977 0.08401 0.26338
 H116 H 0.01234 0.14692 0.23423
 H117 H 0.00685 0.07615 0.15415
 H118 H -0.02817 -0.05690 0.29135
 H119 H -0.09007 -0.06101 0.32217
 H120 H -0.12689 0.05342 0.28703
 H121 H -0.06471 0.05526 0.25688
 C122 C 0.00066 -0.11669 0.19256
 C123 C 0.11921 0.00461 0.30745
 C124 C -0.11283 -0.00386 0.30697
 C125 C 0.00954 0.11604 0.19203
 C126 C -0.00895 0.08325 0.76033
 H127 H -0.00968 0.08453 0.73638
 C128 C -0.01056 0.11868 0.77696
 H129 H -0.01237 0.14742 0.76583
 C130 C -0.00598 0.04424 0.80418
 H131 H -0.00475 0.01519 0.81473
 C132 C -0.00755 0.07897 0.82165
 H133 H -0.00708 0.07657 0.84558
 N134 N -0.00616 0.04702 0.77408
 C135 C 0.05007 -0.03234 0.70851
 H136 H 0.02836 -0.05647 0.70791
 C137 C 0.08503 -0.03468 0.69120
 H138 H 0.09027 -0.06060 0.67709
 C139 C 0.07022 0.03068 0.72801
 H140 H 0.06475 0.05577 0.74274
 C141 C 0.10555 0.02952 0.71107
 H142 H 0.12694 0.05391 0.71259
 Zn143 Zn -0.00433 0.00060 0.74972
 N144 N 0.04313 0.00020 0.72621
 C145 C -0.04705 0.00131 0.69541
 N146 N -0.05028 0.00184 0.72552
 C147 C -0.08663 0.00470 0.73942
 C148 C -0.12173 0.00608 0.72292
 C149 C -0.08144 0.00264 0.67807
 C150 C 0.02828 -0.05305 0.79059
 C151 C 0.03055 -0.08771 0.80790
 C152 C -0.03318 -0.10896 0.78836
 C153 C -0.03428 -0.07391 0.77143
 N154 N -0.00401 -0.04659 0.77308
 H155 H -0.01791 0.00003 0.68475
 H156 H -0.08827 0.00572 0.76337
 H157 H -0.15057 0.00800 0.73416
 H158 H -0.07870 0.00195 0.65412
 H159 H 0.05225 -0.03117 0.79109
 H160 H 0.05626 -0.09255 0.82188
 H161 H -0.05742 -0.13053 0.78698
 H162 H -0.05917 -0.06882 0.75685
 C163 C 0.11296 -0.00341 0.69248
 C164 C -0.00967 0.11650 0.80788
 C165 C -0.00052 -0.11585 0.80679
 C166 C -0.11909 0.00489 0.69198
 C167 C -0.00441 -0.28688 0.11287
 C168 C 0.03366 -0.28167 0.13123
 C169 C 0.03433 -0.24694 0.14728
 C170 C -0.00314 -0.22079 0.14339
 C171 C -0.03857 -0.24836 0.15134
 C172 C -0.03923 -0.28311 0.13529
 C173 C -0.00678 -0.24885 0.09378
 C174 C -0.00611 -0.21409 0.10984
 C175 C -0.00488 -0.32434 0.09566
 C176 C -0.00474 -0.35526 0.08165
 C177 C -0.00223 -0.18346 0.16074
 C178 C -0.00109 -0.15293 0.17516
 H179 H 0.05797 -0.30337 0.13161
 H180 H 0.05921 -0.23889 0.16139
 H181 H -0.06115 -0.24119 0.16808
 H182 H -0.06238 -0.30573 0.13828
 H183 H -0.00883 -0.24918 0.06979
 H184 H -0.00759 -0.18465 0.09959
 C185 C 0.01055 0.28634 0.11302
 C186 C 0.01028 0.24832 0.09365
 C187 C 0.01044 0.21353 0.10954
 C188 C 0.01084 0.22018 0.14322
 C189 C -0.02558 0.24708 0.14990
 C190 C -0.02573 0.28185 0.13403
 C191 C 0.04731 0.28178 0.13285
 C192 C 0.04747 0.24699 0.14873
 C193 C 0.01014 0.32384 0.09601
 C194 C 0.00928 0.35476 0.08217
 C195 C 0.01081 0.18282 0.16040
 C196 C 0.01041 0.15228 0.17472
 H197 H 0.01003 0.24869 0.06960
 H198 H 0.01032 0.18410 0.09909
 H199 H -0.04918 0.23950 0.16571
 H200 H -0.04947 0.30404 0.13624
 H201 H 0.07114 0.30390 0.13427
 H202 H 0.07142 0.23930 0.16377
 C203 C 0.28382 -0.00805 0.61270
 C204 C 0.27960 -0.04336 0.63435
 C205 C 0.24469 -0.04283 0.65040
 C206 C 0.21745 -0.00705 0.64322
 C207 C 0.21124 -0.00935 0.60960
 C208 C 0.24615 -0.00988 0.59355
 C209 C 0.27850 0.02977 0.63190
 C210 C 0.24362 0.03030 0.64794
 C211 C 0.32144 -0.00836 0.59550
 C212 C 0.35248 -0.00805 0.58152
 C213 C 0.17997 -0.00626 0.66058
 C214 C 0.14933 -0.00517 0.67503
 H215 H 0.30202 -0.06672 0.63684
 H216 H 0.23722 -0.06574 0.66665
 H217 H 0.18202 -0.01049 0.59932
 H218 H 0.24682 -0.01148 0.56951
 H219 H 0.30022 0.05403 0.63282
 H220 H 0.23548 0.05501 0.66260
 C221 C -0.28744 0.00665 0.61247
 C222 C -0.25071 -0.00879 0.59502
 C223 C -0.21634 -0.00886 0.61103
 C224 C -0.22207 0.00653 0.64292
 C225 C -0.25542 -0.01982 0.65628
 C226 C -0.28977 -0.01975 0.64028
 C227 C -0.27532 0.04843 0.62376
 C228 C -0.24094 0.04837 0.63977
 C229 C -0.32449 0.00651 0.59532
 C230 C -0.35506 0.00591 0.58136
 C231 C -0.18514 0.00630 0.66022
 C232 C -0.15495 0.00580 0.67461
 H233 H -0.25161 -0.01877 0.57211
 H234 H -0.18779 -0.01889 0.60183
 H235 H -0.25233 -0.03701 0.67654
 H236 H -0.31611 -0.03689 0.64684
 H237 H -0.29224 0.07566 0.61953
 H238 H -0.22840 0.07555 0.64926
 C239 C 0.00425 -0.28476 0.88729
 C240 C 0.04151 -0.27918 0.86738
 C241 C 0.04089 -0.24470 0.85114
 C242 C 0.00308 -0.21920 0.85640
 C243 C 0.00126 -0.21196 0.89002
 C244 C 0.00188 -0.24643 0.90626
 C245 C -0.03145 -0.28202 0.86626
 C246 C -0.03206 -0.24757 0.85003
 C247 C 0.00468 -0.32192 0.90469
 C248 C 0.00452 -0.35259 0.91884
 C249 C 0.00222 -0.18217 0.83886
 C250 C 0.00115 -0.15187 0.82431
 H251 H 0.06620 -0.30041 0.86617
 H252 H 0.06505 -0.23640 0.83602
 H253 H -0.00034 -0.18236 0.90017
 H254 H 0.00081 -0.24637 0.93032
 H255 H -0.05425 -0.30512 0.86428
 H256 H -0.05539 -0.24117 0.83416
 C257 C -0.01089 0.28644 0.88800
 C258 C 0.01855 0.28676 0.86157
 C259 C 0.01842 0.25209 0.84545
 C260 C -0.01112 0.22046 0.85732
 C261 C -0.05193 0.24180 0.85849
 C262 C -0.05181 0.27651 0.87463
 C263 C 0.00042 0.24912 0.90600
 C264 C 0.00029 0.21442 0.88986
 C265 C -0.01051 0.32385 0.90528
 C266 C -0.00965 0.35471 0.91931
 C267 C -0.01105 0.18319 0.83988
 C268 C -0.01061 0.15271 0.82538
 H269 H 0.03779 0.31202 0.85599
 H270 H 0.03756 0.24765 0.82606
 H271 H -0.07857 0.23063 0.84762
 H272 H -0.07834 0.29507 0.87758
 H273 H 0.00783 0.24987 0.92935
 H274 H 0.00760 0.18545 0.89940
 C275 C -0.28369 -0.00839 0.38672
 C276 C -0.27889 0.02888 0.36702
 C277 C -0.24402 0.02938 0.35099
 C278 C -0.21732 -0.00744 0.35620
 C279 C -0.24405 -0.04382 0.34949
 C280 C -0.27896 -0.04432 0.36554
 C281 C -0.24601 -0.00908 0.40590
 C282 C -0.21111 -0.00858 0.38985
 C283 C -0.32132 -0.00867 0.40391
 C284 C -0.35236 -0.00832 0.41789
 C285 C -0.17984 -0.00668 0.33885
 C286 C -0.14920 -0.00561 0.32441
 H287 H -0.30096 0.05280 0.36578
 H288 H -0.23621 0.05372 0.33601
 H289 H -0.23624 -0.06714 0.33356
 H290 H -0.30104 -0.06807 0.36336
 H291 H -0.24669 -0.00992 0.42996
 H292 H -0.18188 -0.00898 0.40016
 C293 C 0.28756 0.00651 0.38696
 C294 C 0.28659 -0.02620 0.36292
 C295 C 0.25224 -0.02629 0.34692
 C296 C 0.22219 0.00634 0.35651
 C297 C 0.24563 0.04596 0.35447
 C298 C 0.28001 0.04605 0.37048
 C299 C 0.24956 -0.00043 0.40583
 C300 C 0.21519 -0.00052 0.38982
 C301 C 0.32461 0.00639 0.40412
 C302 C 0.35517 0.00581 0.41808
 C303 C 0.18526 0.00607 0.33920
 C304 C 0.15506 0.00555 0.32482
 H305 H 0.31077 -0.04743 0.35882
 H306 H 0.24700 -0.04759 0.32911
 H307 H 0.23607 0.07168 0.34160
 H308 H 0.29989 0.07184 0.37133
 H309 H 0.24965 -0.00485 0.42966
 H310 H 0.18582 -0.00502 0.39993
   
