data_POSCAR
  _audit_creation_date              2014-09-24
  _audit_creation_method            'ToBaCCo'
  _symmetry_space_group_name_H-M    'P1'
  _symmetry_Int_Tables_number       1
  _symmetry_cell_setting            triclinic
  loop_
  _symmetry_equiv_pos_as_xyz
 x,y,z
_cell_length_a 29.4775
_cell_length_b 29.1321
_cell_length_c 36.0791
_cell_angle_alpha 90.513000
_cell_angle_beta 88.986900
_cell_angle_gamma 91.812300
loop_
  _atom_site_label
  _atom_site_type_symbol
  _atom_site_fract_x
  _atom_site_fract_y
  _atom_site_fract_z
C1 C 1.21867 0.26941 0.32611
 H2 H 1.24227 0.24614 0.33753
 C3 C 1.19188 0.29489 0.35038
 H4 H 1.19626 0.29178 0.37999
 C5 C 1.18326 0.30122 0.27432
 H6 H 1.17948 0.30324 0.24470
 C7 C 1.15472 0.32631 0.29773
 H8 H 1.12932 0.34761 0.28591
 N9 N 1.21520 0.27400 0.28871
 C10 C 1.24784 0.18141 0.19725
 H11 H 1.28442 0.18587 0.19672
 C12 C 1.22623 0.15664 0.16910
 H13 H 1.24616 0.14173 0.14682
 C14 C 1.17697 0.19712 0.22611
 H15 H 1.15801 0.21339 0.24822
 C16 C 1.15389 0.17279 0.19828
 H17 H 1.11714 0.17058 0.19882
 Zn18 Zn 1.25581 0.24113 0.25684
 N19 N 1.22305 0.20182 0.22453
 C20 C 1.29077 0.15953 0.28624
 N21 N 1.29411 0.20619 0.28655
 C22 C 1.32158 0.22916 0.31072
 C23 C 1.34364 0.20553 0.33808
 C24 C 1.31297 0.13431 0.31283
 C25 C 1.26888 0.30589 0.20024
 C26 C 1.29302 0.33278 0.17434
 C27 C 1.36283 0.31003 0.20185
 C28 C 1.33736 0.28341 0.22720
 N29 N 1.29114 0.28194 0.22614
 H30 H 1.26886 0.14184 0.26671
 H31 H 1.32417 0.26628 0.31012
 H32 H 1.36504 0.22494 0.35709
 H33 H 1.30713 0.09743 0.31320
 H34 H 1.23241 0.30261 0.19859
 H35 H 1.27491 0.35089 0.15340
 H36 H 1.39956 0.31014 0.20241
 H37 H 1.35480 0.26272 0.24671
 C38 C 1.17873 0.15346 0.16892
 C39 C 1.16015 0.32458 0.33627
 C40 C 1.34052 0.33497 0.17503
 C41 C 1.33728 0.15750 0.34114
 C42 C 0.68207 -0.23526 0.30564
 H43 H 0.67752 -0.27225 0.30483
 C44 C 0.65703 -0.20961 0.33101
 H45 H 0.63326 -0.22679 0.34991
 C46 C 0.72010 -0.16785 0.28324
 H47 H 0.74449 -0.15160 0.26456
 C48 C 0.69575 -0.14081 0.30834
 H49 H 0.70219 -0.10402 0.30943
 N50 N 0.71423 -0.21442 0.28344
 C51 C 0.72556 -0.33321 0.21112
 H52 H 0.75835 -0.34605 0.21751
 C53 C 0.69903 -0.35630 0.18477
 H54 H 0.71160 -0.38674 0.17109
 C55 C 0.67032 -0.27625 0.21847
 H56 H 0.66002 -0.24397 0.23034
 C57 C 0.64243 -0.29868 0.19285
 H58 H 0.61055 -0.28393 0.18554
 Zn59 Zn 0.75113 -0.25460 0.25489
 N60 N 0.71150 -0.29314 0.22656
 C61 C 0.77940 -0.28470 0.32503
 N62 N 0.78589 -0.28990 0.28776
 C63 C 0.81718 -0.31929 0.27397
 C64 C 0.84178 -0.34629 0.29791
 C65 C 0.80315 -0.31090 0.34980
 C66 C 0.78990 -0.23308 0.18495
 C67 C 0.81753 -0.20953 0.15923
 C68 C 0.84602 -0.16125 0.20882
 C69 C 0.81932 -0.18721 0.23395
 N70 N 0.79093 -0.22156 0.22158
 H71 H 0.75629 -0.25986 0.33593
 H72 H 0.82368 -0.32127 0.24444
 H73 H 0.86689 -0.36928 0.28681
 H74 H 0.79787 -0.30617 0.37937
 H75 H 0.76751 -0.26052 0.17539
 H76 H 0.81624 -0.21956 0.13028
 H77 H 0.86626 -0.13227 0.21892
 H78 H 0.82020 -0.17901 0.26324
 C79 C 0.65783 -0.33792 0.17452
 C80 C 0.66485 -0.16209 0.33313
 C81 C 0.84586 -0.17275 0.17087
 C82 C 0.83439 -0.34224 0.33622
 C83 C 0.71979 0.26798 -0.17243
 H84 H 0.74002 0.24123 -0.16154
 C85 C 0.69812 0.29741 -0.14769
 H86 H 0.70316 0.29359 -0.11822
 C87 C 0.68771 0.30482 -0.22346
 H88 H 0.68386 0.30775 -0.25304
 C89 C 0.66378 0.33382 -0.19949
 H90 H 0.64095 0.35823 -0.21086
 N91 N 0.71571 0.27305 -0.20969
 C92 C 0.73429 0.17249 -0.29908
 H93 H 0.77095 0.17324 -0.30131
 C94 C 0.70857 0.14826 -0.32528
 H95 H 0.72559 0.12980 -0.34741
 C96 C 0.66750 0.19778 -0.26869
 H97 H 0.65171 0.21796 -0.24706
 C98 C 0.64045 0.17454 -0.29471
 H99 H 0.60390 0.17714 -0.29307
 Zn100 Zn 0.75138 0.23620 -0.24255
 N101 N 0.71356 0.19702 -0.27175
 C102 C 0.79155 0.15421 -0.21630
 N103 N 0.79184 0.20096 -0.21427
 C104 C 0.81886 0.22421 -0.18987
 C105 C 0.84520 0.20055 -0.16519
 C106 C 0.81921 0.12918 -0.19318
 C107 C 0.75973 0.28986 -0.30558
 C108 C 0.78098 0.31374 -0.33469
 C109 C 0.85213 0.30918 -0.30316
 C110 C 0.82950 0.28442 -0.27485
 N111 N 0.78411 0.27484 -0.27675
 H112 H 0.76943 0.13612 -0.23541
 H113 H 0.81807 0.26127 -0.18825
 H114 H 0.86417 0.21987 -0.14452
 H115 H 0.81882 0.09208 -0.19537
 H116 H 0.72369 0.28202 -0.30663
 H117 H 0.76004 0.32596 -0.35668
 H118 H 0.88855 0.31458 -0.30137
 H119 H 0.84859 0.27193 -0.25198
 C120 C 0.66107 0.14971 -0.32361
 C121 C 0.67024 0.33146 -0.16107
 C122 C 0.82836 0.32235 -0.33489
 C123 C 0.84656 0.15239 -0.16710
 C124 C 1.23197 -0.23220 -0.17811
 H125 H 1.25952 -0.25212 -0.16836
 C126 C 1.20778 -0.20548 -0.15286
 H127 H 1.21722 -0.20475 -0.12397
 C128 C 1.18642 -0.20807 -0.22733
 H129 H 1.17841 -0.20906 -0.25647
 C130 C 1.16052 -0.18188 -0.20280
 H131 H 1.13235 -0.16301 -0.21310
 N132 N 1.22153 -0.23250 -0.21473
 C133 C 1.24208 -0.32868 -0.30641
 H134 H 1.27863 -0.32643 -0.30880
 C135 C 1.21741 -0.35426 -0.33231
 H136 H 1.23495 -0.37120 -0.35498
 C137 C 1.17435 -0.30888 -0.27446
 H138 H 1.15777 -0.29168 -0.25160
 C139 C 1.14824 -0.33390 -0.30001
 H140 H 1.11157 -0.33493 -0.29735
 Zn141 Zn 1.25718 -0.26757 -0.24831
 N142 N 1.22031 -0.30542 -0.27891
 C143 C 1.28060 -0.34951 -0.21480
 N144 N 1.29448 -0.30525 -0.22108
 C145 C 1.33233 -0.28650 -0.20522
 C146 C 1.35668 -0.31199 -0.18034
 C147 C 1.30398 -0.37620 -0.19013
 C148 C 1.28170 -0.18520 -0.28641
 C149 C 1.30772 -0.15792 -0.31088
 C150 C 1.35966 -0.21996 -0.31860
 C151 C 1.33262 -0.24611 -0.29410
 N152 N 1.29419 -0.22866 -0.27885
 H153 H 1.25003 -0.36330 -0.22740
 H154 H 1.34211 -0.25101 -0.21042
 H155 H 1.38529 -0.29617 -0.16613
 H156 H 1.29137 -0.41056 -0.18356
 H157 H 1.25117 -0.17186 -0.27411
 H158 H 1.29704 -0.12371 -0.31736
 H159 H 1.38961 -0.23452 -0.33123
 H160 H 1.34201 -0.28066 -0.28761
 C161 C 1.16996 -0.35563 -0.32985
 C162 C 1.17207 -0.17932 -0.16525
 C163 C 1.34702 -0.17547 -0.32729
 C164 C 1.34158 -0.35681 -0.17201
 C165 C 0.26320 0.18019 0.70088
 H166 H 0.22716 0.17398 0.70539
 C167 C 0.28777 0.15035 0.67838
 H168 H 0.27062 0.12127 0.66521
 C169 C 0.32944 0.22646 0.71167
 H170 H 0.34530 0.25641 0.72451
 C171 C 0.35522 0.19770 0.68904
 H172 H 0.39098 0.20563 0.68427
 N173 N 0.28423 0.21744 0.71686
 C174 C 0.16624 0.22632 0.78460
 H175 H 0.15061 0.25569 0.77284
 C176 C 0.14091 0.19781 0.80873
 H177 H 0.10638 0.20648 0.81599
 C178 C 0.23049 0.18047 0.79100
 H179 H 0.26504 0.17296 0.78328
 C180 C 0.20683 0.15164 0.81554
 H181 H 0.22382 0.12249 0.82671
 Zn182 Zn 0.24844 0.25649 0.74671
 N183 N 0.21054 0.21775 0.77683
 C184 C 0.18404 0.32462 0.72976
 N185 N 0.21309 0.29332 0.71542
 C186 C 0.21625 0.28571 0.67819
 C187 C 0.18824 0.30827 0.65403
 C188 C 0.15516 0.34793 0.70646
 C189 C 0.31134 0.26867 0.80287
 C190 C 0.33928 0.29143 0.82818
 C191 C 0.31855 0.36360 0.80202
 C192 C 0.29013 0.33928 0.77735
 N193 N 0.28703 0.29253 0.77828
 H194 H 0.18258 0.33078 0.75936
 H195 H 0.23989 0.26140 0.66706
 H196 H 0.19047 0.30111 0.62454
 H197 H 0.13141 0.37198 0.71809
 H198 H 0.30913 0.23173 0.80306
 H199 H 0.35734 0.27161 0.84810
 H200 H 0.32086 0.40075 0.80109
 H201 H 0.27070 0.35774 0.75756
 C202 C 0.16136 0.16001 0.82489
 C203 C 0.33422 0.15921 0.67222
 C204 C 0.34384 0.33942 0.82763
 C205 C 0.15670 0.33901 0.66821
 C206 C 0.77771 0.67370 0.71707
 H207 H 0.75060 0.65814 0.73368
 C208 C 0.80228 0.64656 0.69220
 H209 H 0.79405 0.61018 0.68968
 C210 C 0.81979 0.74037 0.69794
 H211 H 0.82561 0.77717 0.69972
 C212 C 0.84509 0.71457 0.67279
 H213 H 0.87041 0.73149 0.65510
 N214 N 0.78633 0.71985 0.71904
 C215 C 0.66473 0.72221 0.77894
 H216 H 0.64826 0.74157 0.75792
 C217 C 0.63845 0.69952 0.80625
 H218 H 0.60195 0.70262 0.80616
 C219 C 0.73232 0.69667 0.80538
 H220 H 0.76900 0.69609 0.80499
 C221 C 0.70751 0.67321 0.83282
 H222 H 0.72556 0.65346 0.85279
 Zn223 Zn 0.74909 0.75818 0.74878
 N224 N 0.71083 0.72162 0.77984
 C225 C 0.71983 0.78955 0.67953
 N226 N 0.71393 0.79485 0.71685
 C227 C 0.68322 0.82478 0.73083
 C228 C 0.65857 0.85197 0.70710
 C229 C 0.69609 0.81607 0.65494
 C230 C 0.83133 0.78617 0.78371
 C231 C 0.85841 0.81042 0.80909
 C232 C 0.79309 0.85325 0.82799
 C233 C 0.76715 0.82789 0.80254
 N234 N 0.78653 0.79539 0.78061
 H235 H 0.74284 0.76466 0.66849
 H236 H 0.67704 0.82716 0.76030
 H237 H 0.63446 0.87587 0.71846
 H238 H 0.70167 0.81190 0.62536
 H239 H 0.84594 0.75878 0.76761
 H240 H 0.89364 0.80179 0.81195
 H241 H 0.77702 0.87870 0.84543
 H242 H 0.73129 0.83341 0.80124
 C243 C 0.65998 0.67666 0.83503
 C244 C 0.83570 0.66734 0.66934
 C245 C 0.83933 0.84467 0.83141
 C246 C 0.66563 0.84812 0.66874
 C247 C 0.77893 0.20568 0.17536
 H248 H 0.75184 0.22431 0.16337
 C249 C 0.80788 0.18121 0.15215
 H250 H 0.80332 0.18187 0.12243
 C251 C 0.81755 0.18106 0.22831
 H252 H 0.82124 0.18102 0.25798
 C253 C 0.84686 0.15546 0.20609
 H254 H 0.87284 0.13567 0.21877
 N255 N 0.78518 0.20661 0.21264
 C256 C 0.69359 0.23458 0.30446
 H257 H 0.70108 0.27093 0.30802
 C258 C 0.66634 0.21126 0.33044
 H259 H 0.65304 0.22969 0.35425
 C260 C 0.70341 0.16592 0.26976
 H261 H 0.71842 0.14857 0.24616
 C262 C 0.67573 0.14128 0.29493
 H263 H 0.66929 0.10482 0.29067
 Zn264 Zn 0.75004 0.24619 0.24295
 N265 N 0.71154 0.21173 0.27496
 C266 C 0.66898 0.28581 0.21839
 N267 N 0.71476 0.28421 0.21305
 C268 C 0.73628 0.30892 0.18581
 C269 C 0.71163 0.33590 0.16224
 C270 C 0.64313 0.31353 0.19606
 C271 C 0.80734 0.26156 0.30257
 C272 C 0.83311 0.28664 0.32812
 C273 C 0.82097 0.35526 0.29298
 C274 C 0.79528 0.32880 0.26800
 N275 N 0.78898 0.28277 0.27320
 H276 H 0.65239 0.26564 0.23996
 H277 H 0.77263 0.30684 0.18192
 H278 H 0.72918 0.35417 0.13995
 H279 H 0.60682 0.31490 0.20084
 H280 H 0.80028 0.22543 0.30715
 H281 H 0.84659 0.26955 0.35189
 H282 H 0.82495 0.39202 0.28921
 H283 H 0.77951 0.34537 0.24514
 C284 C 0.65664 0.16420 0.32553
 C285 C 0.84308 0.15681 0.16746
 C286 C 0.83992 0.33399 0.32346
 C287 C 0.66458 0.33929 0.16774
 C288 C 0.25861 0.68038 0.19658
 H289 H 0.22190 0.68039 0.19683
 C290 C 0.28170 0.65478 0.16978
 H291 H 0.26281 0.63504 0.14931
 C292 C 0.32824 0.70868 0.22120
 H293 H 0.34628 0.73089 0.24042
 C294 C 0.35266 0.68366 0.19479
 H295 H 0.38939 0.68657 0.19389
 N296 N 0.28201 0.70687 0.22146
 C297 C 0.18639 0.73493 0.31191
 H298 H 0.18913 0.77204 0.31279
 C299 C 0.15980 0.71140 0.33837
 H300 H 0.14166 0.73030 0.35961
 C301 C 0.20791 0.66465 0.28397
 H302 H 0.22754 0.64654 0.26332
 C303 C 0.18154 0.63979 0.30980
 H304 H 0.18047 0.60259 0.30874
 Zn305 Zn 0.24791 0.74599 0.25294
 N306 N 0.20965 0.71138 0.28538
 C307 C 0.16763 0.78660 0.22542
 N308 N 0.21339 0.78261 0.22146
 C309 C 0.23655 0.80182 0.19232
 C310 C 0.21381 0.82626 0.16573
 C311 C 0.14360 0.81178 0.19979
 C312 C 0.31262 0.76049 0.30753
 C313 C 0.34088 0.78492 0.33181
 C314 C 0.31413 0.85550 0.30683
 C315 C 0.28681 0.82951 0.28254
 N316 N 0.28686 0.78288 0.28313
 H317 H 0.14960 0.77007 0.24822
 H318 H 0.27271 0.79722 0.18934
 H319 H 0.23270 0.84053 0.14229
 H320 H 0.10731 0.81523 0.20340
 H321 H 0.31070 0.72336 0.30842
 H322 H 0.35916 0.76561 0.35191
 H323 H 0.31401 0.89253 0.30474
 H324 H 0.26529 0.84667 0.26344
 C325 C 0.15742 0.66339 0.33732
 C326 C 0.32920 0.65690 0.16852
 C327 C 0.34303 0.83348 0.33160
 C328 C 0.16689 0.83233 0.16967
 O329 O 1.09033 0.02102 0.04274
 O330 O 0.93369 -0.02696 0.04956
 O331 O 0.99284 0.07359 0.04800
 O332 O 1.03617 -0.08311 0.04607
 O333 O 0.92894 0.04999 0.02952
 O334 O 1.09801 -0.05672 0.02285
 O335 O 0.95752 -0.09101 0.02954
 O336 O 1.06787 0.08383 0.02261
 C337 C 1.08871 0.06287 0.04641
 C338 C 0.93868 -0.06829 0.05467
 C339 C 0.95193 0.06840 0.05464
 C340 C 1.07768 -0.07656 0.04911
 O341 O 1.08627 -0.03000 -0.04869
 O342 O 0.93339 0.02091 -0.04294
 O343 O 1.03421 0.07239 -0.04646
 O344 O 0.98280 -0.08495 -0.04360
 O345 O 0.92269 -0.05709 -0.02103
 O346 O 1.09708 0.04780 -0.02978
 O347 O 1.06012 -0.09246 -0.02653
 O348 O 0.96035 0.08397 -0.02248
 Co349 Co 1.08499 -0.00437 -0.00285
 Co350 Co 0.93734 -0.00333 0.00332
 Co351 Co 1.01358 0.07010 0.00069
 Co352 Co 1.00926 -0.07988 0.00129
 O353 O 1.01128 -0.00457 0.00061
 C354 C 1.07918 -0.07164 -0.05291
 C355 C 0.93983 0.06273 -0.04763
 C356 C 1.07429 0.06602 -0.05403
 C357 C 0.94242 -0.07643 -0.04741
 O358 O 1.06932 0.51333 0.54904
 O359 O 0.91153 0.46642 0.54593
 O360 O 0.96925 0.56861 0.55091
 O361 O 1.00979 0.41165 0.54576
 O362 O 0.90660 0.54483 0.52843
 O363 O 1.07404 0.43644 0.52695
 O364 O 0.93426 0.40405 0.52258
 O365 O 1.04696 0.57749 0.53055
 C366 C 1.06825 0.55524 0.55339
 C367 C 0.91417 0.42437 0.54823
 C368 C 0.92745 0.56627 0.55328
 C369 C 1.05073 0.41649 0.55160
 O370 O 1.06986 0.46788 0.45567
 O371 O 0.91774 0.52021 0.45560
 O372 O 1.02025 0.57220 0.45959
 O373 O 0.96769 0.41606 0.45253
 O374 O 0.90541 0.44196 0.47242
 O375 O 1.08118 0.54422 0.47802
 O376 O 1.04196 0.40475 0.47431
 O377 O 0.94394 0.58183 0.47919
 Co378 Co 1.06576 0.49053 0.50240
 Co379 Co 0.91818 0.49318 0.50077
 Co380 Co 0.99482 0.56673 0.50498
 Co381 Co 0.98876 0.41715 0.49919
 O382 O 0.99185 0.49194 0.50187
 C383 C 1.06252 0.42676 0.44934
 C384 C 0.92513 0.56204 0.45248
 C385 C 1.06068 0.56535 0.45382
 C386 C 0.92768 0.42410 0.44668
 O387 O 0.58122 0.06498 0.52366
 O388 O 0.41885 -0.06425 0.52755
 O389 O 0.44180 0.07905 0.53046
 O390 O 0.55948 -0.07870 0.52805
 O391 O 0.41989 0.01400 0.55084
 O392 O 0.57912 -0.01206 0.54669
 O393 O 0.48265 -0.08141 0.54757
 O394 O 0.51836 0.08041 0.54794
 C395 C 0.55971 0.07907 0.55111
 C396 C 0.44145 -0.07981 0.55313
 C397 C 0.42443 0.05588 0.55624
 C398 C 0.57816 -0.05370 0.55216
 O399 O 0.59196 -0.04277 0.47634
 O400 O 0.40706 0.04270 0.48039
 O401 O 0.54314 0.09210 0.47354
 O402 O 0.45613 -0.09273 0.47491
 O403 O 0.42300 -0.03305 0.45742
 O404 O 0.57354 0.03138 0.45370
 O405 O 0.53209 -0.07408 0.45562
 O406 O 0.46720 0.07351 0.45768
 Co407 Co 0.57334 0.00936 0.50030
 Co408 Co 0.42526 -0.00913 0.50393
 Co409 Co 0.49351 0.07369 0.50248
 Co410 Co 0.50684 -0.07400 0.50157
 O411 O 0.49965 -0.00004 0.50203
 C412 C 0.57321 -0.06706 0.45222
 C413 C 0.42614 0.06568 0.45536
 C414 C 0.56420 0.07183 0.44817
 C415 C 0.43364 -0.07320 0.45078
 O416 O 0.57438 0.53346 0.04708
 O417 O 0.42425 0.46966 0.04855
 O418 O 0.46932 0.57903 0.04478
 O419 O 0.52856 0.42693 0.04961
 O420 O 0.40944 0.54420 0.02581
 O421 O 0.59005 0.45635 0.02861
 O422 O 0.45368 0.40847 0.02911
 O423 O 0.54591 0.59296 0.02534
 C424 C 0.56710 0.57478 0.05052
 C425 C 0.43282 0.42923 0.05411
 C426 C 0.42844 0.56982 0.04912
 C427 C 0.56943 0.43553 0.05415
 O428 O 0.58034 0.48143 -0.04393
 O429 O 0.42165 0.51271 -0.04484
 O430 O 0.52183 0.57856 -0.04661
 O431 O 0.48354 0.41824 -0.04294
 O432 O 0.41891 0.43589 -0.02262
 O433 O 0.58446 0.55934 -0.02456
 O434 O 0.55948 0.41760 -0.02189
 O435 O 0.44342 0.57952 -0.02675
 Co436 Co 0.57409 0.50666 0.00174
 Co437 Co 0.42657 0.49137 0.00173
 Co438 Co 0.49574 0.57430 -0.00073
 Co439 Co 0.50573 0.42560 0.00328
 O440 O 0.50043 0.49953 0.00155
 C441 C 0.57723 0.43954 -0.04819
 C442 C 0.42383 0.55446 -0.05008
 C443 C 0.56367 0.57970 -0.04887
 C444 C 0.44232 0.41849 -0.04794
 C445 C 1.15866 0.15241 0.10109
 C446 C 1.15535 0.13250 0.13680
 C447 C 1.13104 0.09096 0.14178
 C448 C 1.11033 0.06871 0.11197
 C449 C 1.11339 0.08730 0.07628
 C450 C 1.13859 0.12905 0.07034
 C451 C 1.18147 0.19523 0.09531
 C452 C 1.18638 0.21346 0.05985
 C453 C 1.16897 0.18948 0.02952
 C454 C 1.14546 0.14767 0.03452
 H455 H 1.19558 0.21508 0.11807
 H456 H 1.20421 0.24615 0.05584
 H457 H 1.17369 0.20335 0.00193
 H458 H 1.13372 0.13006 0.00988
 H459 H 1.12841 0.07546 0.16895
 H460 H 1.09129 0.03685 0.11688
 C461 C 1.14447 0.64319 0.60387
 C462 C 1.14343 0.62364 0.63970
 C463 C 1.11868 0.58267 0.64620
 C464 C 1.09513 0.56063 0.61769
 C465 C 1.09572 0.57899 0.58192
 C466 C 1.12158 0.62006 0.57442
 C467 C 1.16790 0.68539 0.59672
 C468 C 1.17074 0.70315 0.56102
 C469 C 1.15060 0.67931 0.53179
 C470 C 1.12642 0.63819 0.53823
 H471 H 1.18416 0.70512 0.61858
 H472 H 1.18908 0.73533 0.55594
 H473 H 1.15370 0.69272 0.50394
 H474 H 1.11260 0.62076 0.51432
 H475 H 1.11793 0.56747 0.67352
 H476 H 1.07585 0.52919 0.62368
 C477 C 0.59751 0.09678 0.65162
 C478 C 0.63370 0.12939 0.64581
 C479 C 0.64446 0.14375 0.60965
 C480 C 0.61994 0.12709 0.57958
 C481 C 0.58310 0.09623 0.58460
 C482 C 0.57155 0.08053 0.62083
 C483 C 0.58767 0.07857 0.68710
 C484 C 0.55234 0.04622 0.69239
 C485 C 0.52655 0.03099 0.66255
 C486 C 0.53613 0.04753 0.62705
 H487 H 0.60754 0.08849 0.71093
 H488 H 0.54514 0.03264 0.71977
 H489 H 0.49928 0.00581 0.66690
 H490 H 0.51586 0.03370 0.60473
 H491 H 0.67210 0.16846 0.60463
 H492 H 0.62953 0.13889 0.55205
 C493 C 0.62768 0.66833 0.10952
 C494 C 0.63305 0.64284 0.14240
 C495 C 0.61518 0.59803 0.14472
 C496 C 0.59261 0.57784 0.11502
 C497 C 0.58686 0.60168 0.08186
 C498 C 0.60304 0.64837 0.07935
 C499 C 0.64760 0.71290 0.10563
 C500 C 0.64142 0.73837 0.07381
 C501 C 0.61570 0.72005 0.04513
 C502 C 0.59687 0.67569 0.04763
 H503 H 0.66861 0.72845 0.12685
 H504 H 0.65667 0.77253 0.07140
 H505 H 0.61080 0.74009 0.02048
 H506 H 0.57782 0.66417 0.02408
 H507 H 0.61916 0.57829 0.16971
 H508 H 0.57976 0.54276 0.11791
 C509 C 0.91872 -0.13144 0.14640
 C510 C 0.87212 -0.14487 0.14274
 C511 C 0.84898 -0.13087 0.11123
 C512 C 0.87098 -0.10542 0.08344
 C513 C 0.91647 -0.09144 0.08670
 C514 C 0.94017 -0.10252 0.11906
 C515 C 0.94503 -0.14681 0.17592
 C516 C 0.98969 -0.13063 0.18032
 C517 C 1.00907 -0.09918 0.15544
 C518 C 0.98476 -0.08544 0.12488
 H519 H 0.93176 -0.17175 0.19560
 H520 H 1.00924 -0.14228 0.20335
 H521 H 1.04336 -0.08592 0.15949
 H522 H 1.00078 -0.06076 0.10628
 H523 H 0.81338 -0.14006 0.10788
 H524 H 0.85234 -0.09676 0.05897
 C525 C 0.83755 0.33525 0.59793
 C526 C 0.84998 0.34363 0.63574
 C527 C 0.88488 0.37685 0.64258
 C528 C 0.90384 0.40380 0.61418
 C529 C 0.88978 0.39803 0.57764
 C530 C 0.85624 0.36387 0.56923
 C531 C 0.81047 0.29638 0.58728
 C532 C 0.79742 0.28963 0.55064
 C533 C 0.81198 0.32048 0.52349
 C534 C 0.84141 0.35702 0.53250
 H535 H 0.80011 0.27001 0.60682
 H536 H 0.77608 0.26014 0.54327
 H537 H 0.80138 0.31543 0.49513
 H538 H 0.85259 0.37963 0.51038
 H539 H 0.89590 0.38450 0.67050
 H540 H 0.93021 0.42920 0.62077
 C541 C 0.41803 -0.13212 0.64958
 C542 C 0.37286 -0.14869 0.64438
 C543 C 0.35117 -0.13999 0.61118
 C544 C 0.37388 -0.11691 0.58258
 C545 C 0.41905 -0.10113 0.58621
 C546 C 0.44110 -0.10712 0.62063
 C547 C 0.44012 -0.13842 0.68348
 C548 C 0.48375 -0.12017 0.68905
 C549 C 0.50573 -0.09449 0.66144
 C550 C 0.48459 -0.08743 0.62780
 H551 H 0.42367 -0.15682 0.70617
 H552 H 0.50024 -0.12517 0.71521
 H553 H 0.53913 -0.07931 0.66631
 H554 H 0.50228 -0.06504 0.60841
 H555 H 0.31653 -0.15228 0.60701
 H556 H 0.35604 -0.11232 0.55694
 C557 C 0.39522 0.39894 0.15316
 C558 C 0.36661 0.36000 0.14570
 C559 C 0.36261 0.34378 0.10920
 C560 C 0.38570 0.36577 0.08012
 C561 C 0.41320 0.40493 0.08656
 C562 C 0.41917 0.42125 0.12334
 C563 C 0.40003 0.41670 0.18945
 C564 C 0.42896 0.45452 0.19636
 C565 C 0.45358 0.47525 0.16742
 C566 C 0.44893 0.45884 0.13123
 H567 H 0.38147 0.40171 0.21271
 H568 H 0.43246 0.46767 0.22435
 H569 H 0.47628 0.50433 0.17302
 H570 H 0.46888 0.47579 0.10961
 H571 H 0.34114 0.31386 0.10316
 H572 H 0.38100 0.35285 0.05214
 C573 C 0.91882 0.14280 -0.13065
 C574 C 0.87463 0.12697 -0.14041
 C575 C 0.85509 0.08916 -0.12157
 C576 C 0.87751 0.06864 -0.09259
 C577 C 0.91902 0.08680 -0.07951
 C578 C 0.93940 0.12561 -0.09825
 C579 C 0.94330 0.17514 -0.15287
 C580 C 0.98478 0.19398 -0.14157
 C581 C 1.00252 0.18113 -0.10801
 C582 C 0.98018 0.14749 -0.08666
 H583 H 0.93085 0.18570 -0.17939
 H584 H 1.00297 0.21896 -0.15872
 H585 H 1.03436 0.19648 -0.09884
 H586 H 0.99574 0.13922 -0.06140
 H587 H 0.82155 0.07600 -0.12864
 H588 H 0.86109 0.03929 -0.07912
 C589 C 0.90120 0.65365 0.37843
 C590 C 0.86204 0.63289 0.36269
 C591 C 0.84667 0.58962 0.37460
 C592 C 0.86858 0.56728 0.40282
 C593 C 0.90629 0.58768 0.42067
 C594 C 0.92354 0.63132 0.40774
 C595 C 0.91858 0.69641 0.36532
 C596 C 0.95751 0.71676 0.38029
 C597 C 0.97962 0.69519 0.40860
 C598 C 0.96284 0.65327 0.42222
 H599 H 0.90260 0.71421 0.34308
 H600 H 0.97068 0.74931 0.36977
 H601 H 1.01015 0.71089 0.42000
 H602 H 0.98201 0.63843 0.44340
 H603 H 0.81664 0.57351 0.36262
 H604 H 0.85474 0.53416 0.41161
 C605 C 0.35362 0.15276 0.40746
 C606 C 0.35400 0.13448 0.37042
 C607 C 0.37357 0.09137 0.36425
 C608 C 0.39654 0.06955 0.39215
 C609 C 0.39989 0.08920 0.42741
 C610 C 0.37800 0.13064 0.43559
 C611 C 0.32607 0.18986 0.41823
 C612 C 0.32700 0.20782 0.45415
 C613 C 0.35402 0.18845 0.48058
 C614 C 0.37884 0.14994 0.47161
 H615 H 0.30238 0.20454 0.39952
 H616 H 0.30620 0.23656 0.46160
 H617 H 0.35469 0.20246 0.50847
 H618 H 0.39790 0.13493 0.49331
 H619 H 0.37445 0.07576 0.33690
 H620 H 0.41275 0.03742 0.38591
 C621 C 0.34576 0.63029 -0.10352
 C622 C 0.36023 0.61966 -0.14014
 C623 C 0.39226 0.58593 -0.14647
 C624 C 0.41153 0.56380 -0.11684
 C625 C 0.39904 0.57493 -0.08034
 C626 C 0.36493 0.60726 -0.07333
 C627 C 0.31222 0.66301 -0.09629
 C628 C 0.29769 0.67236 -0.06010
 C629 C 0.31567 0.64896 -0.03059
 C630 C 0.34869 0.61649 -0.03704
 H631 H 0.29670 0.68139 -0.11843
 H632 H 0.27199 0.69748 -0.05497
 H633 H 0.30379 0.65579 -0.00258
 H634 H 0.36066 0.59820 -0.01344
 H635 H 0.40297 0.57735 -0.17450
 H636 H 0.43730 0.53880 -0.12236
 C637 C 1.14152 -0.10221 -0.14436
 C638 C 1.14687 -0.14985 -0.13871
 C639 C 1.12769 -0.17042 -0.10700
 C640 C 1.10462 -0.14468 -0.08056
 C641 C 1.09891 -0.09738 -0.08502
 C642 C 1.11529 -0.07631 -0.11841
 C643 C 1.16239 -0.07947 -0.17493
 C644 C 1.15418 -0.03362 -0.18186
 C645 C 1.12525 -0.00958 -0.15859
 C646 C 1.10603 -0.03043 -0.12714
 H647 H 1.18540 -0.09660 -0.19369
 H648 H 1.16980 -0.01685 -0.20573
 H649 H 1.11789 0.02544 -0.16505
 H650 H 1.08276 -0.01064 -0.11075
 H651 H 1.13121 -0.20682 -0.10234
 H652 H 1.09207 -0.16204 -0.05582
 C653 C 1.13097 0.40144 0.35964
 C654 C 1.13268 0.35293 0.36219
 C655 C 1.10850 0.33044 0.39079
 C656 C 1.08461 0.35495 0.41754
 C657 C 1.08292 0.40303 0.41640
 C658 C 1.10381 0.42639 0.38561
 C659 C 1.15648 0.42595 0.33235
 C660 C 1.15209 0.47304 0.32831
 C661 C 1.12235 0.49658 0.35122
 C662 C 1.09838 0.47373 0.37955
 H663 H 1.18028 0.40930 0.31398
 H664 H 1.17136 0.49124 0.30692
 H665 H 1.11807 0.53280 0.34697
 H666 H 1.07451 0.49335 0.39544
 H667 H 1.10907 0.29340 0.39302
 H668 H 1.06833 0.33589 0.44001
 C669 C 0.66313 -0.13576 0.39983
 C670 C 0.64436 -0.13590 0.36395
 C671 C 0.60392 -0.11359 0.35791
 C672 C 0.58172 -0.09127 0.38693
 C673 C 0.59932 -0.09059 0.42279
 C674 C 0.64015 -0.11356 0.42972
 C675 C 0.70400 -0.15806 0.40668
 C676 C 0.72127 -0.15948 0.44232
 C677 C 0.69812 -0.13923 0.47179
 C678 C 0.65789 -0.11672 0.46577
 H679 H 0.72286 -0.17470 0.38463
 H680 H 0.75252 -0.17684 0.44717
 H681 H 0.71127 -0.14115 0.49954
 H682 H 0.64085 -0.10284 0.48987
 H683 H 0.58911 -0.11406 0.33064
 H684 H 0.55033 -0.07442 0.38135
 C685 C 0.64563 0.41070 -0.13776
 C686 C 0.64618 0.36211 -0.13438
 C687 C 0.62324 0.34135 -0.10438
 C688 C 0.60088 0.36720 -0.07774
 C689 C 0.59885 0.41514 -0.08032
 C690 C 0.61967 0.43721 -0.11184
 C691 C 0.67123 0.43376 -0.16578
 C692 C 0.66831 0.48095 -0.17047
 C693 C 0.63989 0.50611 -0.14752
 C694 C 0.61567 0.48469 -0.11864
 H695 H 0.69420 0.41585 -0.18407
 H696 H 0.68779 0.49801 -0.19233
 H697 H 0.63682 0.54256 -0.15199
 H698 H 0.59318 0.50599 -0.10284
 H699 H 0.62286 0.30438 -0.10124
 H700 H 0.58515 0.34900 -0.05458
 C701 C 1.09368 0.11425 -0.15192
 C702 C 1.13855 0.13316 -0.14783
 C703 C 1.16175 0.12478 -0.11498
 C704 C 1.14061 0.10204 -0.08556
 C705 C 1.09575 0.08555 -0.08795
 C706 C 1.07260 0.08934 -0.12197
 C707 C 1.07101 0.11554 -0.18613
 C708 C 1.02854 0.09398 -0.19048
 C709 C 1.00836 0.06936 -0.16147
 C710 C 1.03027 0.06642 -0.12775
 H711 H 1.08639 0.13154 -0.21035
 H712 H 1.01171 0.09541 -0.21685
 H713 H 0.97581 0.05183 -0.16528
 H714 H 1.01408 0.04499 -0.10681
 H715 H 1.19597 0.13843 -0.11099
 H716 H 1.15920 0.09875 -0.06012
 C717 C 1.08637 0.62037 0.35940
 C718 C 1.13094 0.63771 0.36574
 C719 C 1.15193 0.62894 0.39926
 C720 C 1.12913 0.60406 0.42692
 C721 C 1.08466 0.58706 0.42184
 C722 C 1.06340 0.59366 0.38723
 C723 C 1.06454 0.62826 0.32564
 C724 C 1.02158 0.60893 0.31890
 C725 C 1.00007 0.58080 0.34520
 C726 C 1.02075 0.57283 0.37889
 H727 H 1.08059 0.64913 0.30416
 H728 H 1.00524 0.61515 0.29286
 H729 H 0.96718 0.56497 0.33947
 H730 H 1.00328 0.54944 0.39773
 H731 H 1.18624 0.64176 0.40411
 H732 H 1.14613 0.59896 0.45286
 C733 C 0.58508 0.15360 0.36515
 C734 C 0.62856 0.13900 0.35363
 C735 C 0.64759 0.10194 0.37131
 C736 C 0.62543 0.08065 0.40111
 C737 C 0.58387 0.09629 0.41517
 C738 C 0.56315 0.13341 0.39694
 C739 C 0.56263 0.18744 0.34519
 C740 C 0.52044 0.20264 0.35699
 C741 C 0.49990 0.18467 0.38883
 C742 C 0.52096 0.15070 0.40863
 H743 H 0.57708 0.20189 0.31995
 H744 H 0.50368 0.22858 0.34142
 H745 H 0.46727 0.19690 0.39817
 H746 H 0.50353 0.13892 0.43302
 H747 H 0.68069 0.09020 0.36269
 H748 H 0.64199 0.05248 0.41417
 C749 C 0.65065 0.66136 -0.09736
 C750 C 0.63490 0.65785 -0.13449
 C751 C 0.59370 0.63367 -0.14095
 C752 C 0.57095 0.60962 -0.11267
 C753 C 0.58856 0.60827 -0.07692
 C754 C 0.62858 0.63501 -0.06873
 C755 C 0.68581 0.69325 -0.08747
 C756 C 0.70209 0.69567 -0.05155
 C757 C 0.68292 0.66760 -0.02431
 C758 C 0.64624 0.63820 -0.03247
 H759 H 0.70029 0.71770 -0.10705
 H760 H 0.72937 0.71987 -0.04472
 H761 H 0.69556 0.66968 0.00368
 H762 H 0.63184 0.61939 -0.00944
 H763 H 0.58016 0.63084 -0.16862
 H764 H 0.54014 0.59016 -0.11923
 C765 C 0.90776 -0.10684 -0.14691
 C766 C 0.86641 -0.13165 -0.13934
 C767 C 0.85044 -0.13517 -0.10264
 C768 C 0.87518 -0.11623 -0.07352
 C769 C 0.91710 -0.09357 -0.07997
 C770 C 0.93349 -0.08785 -0.11696
 C771 C 0.92345 -0.09928 -0.18362
 C772 C 0.96384 -0.07445 -0.19070
 C773 C 0.98903 -0.05615 -0.16155
 C774 C 0.97402 -0.06238 -0.12504
 H775 H 0.90437 -0.11170 -0.20719
 H776 H 0.97542 -0.06894 -0.21900
 H777 H 1.02005 -0.03647 -0.16732
 H778 H 0.99411 -0.04633 -0.10350
 H779 H 0.81885 -0.15375 -0.09635
 H780 H 0.86201 -0.12046 -0.04548
 C781 C 0.90599 0.38362 0.34710
 C782 C 0.86301 0.36131 0.35262
 C783 C 0.84132 0.36360 0.38734
 C784 C 0.86206 0.38602 0.41691
 C785 C 0.90541 0.40656 0.41285
 C786 C 0.92715 0.40711 0.37738
 C787 C 0.92871 0.38251 0.31236
 C788 C 0.97051 0.40553 0.30716
 C789 C 0.99035 0.43003 0.33628
 C790 C 0.96904 0.43097 0.37108
 H791 H 0.91439 0.36404 0.28898
 H792 H 0.98743 0.40468 0.28030
 H793 H 1.02239 0.44848 0.33181
 H794 H 0.98534 0.45122 0.39259
 H795 H 0.80825 0.34702 0.39176
 H796 H 0.84467 0.38572 0.44360
 C797 C 0.41299 -0.15736 0.36783
 C798 C 0.36986 -0.14217 0.35606
 C799 C 0.35371 -0.10152 0.37231
 C800 C 0.37543 -0.08031 0.40214
 C801 C 0.41461 -0.09805 0.41749
 C802 C 0.43439 -0.13674 0.39956
 C803 C 0.43757 -0.18956 0.34642
 C804 C 0.47914 -0.20504 0.35791
 C805 C 0.49785 -0.18816 0.39044
 C806 C 0.47604 -0.15432 0.41085
 H807 H 0.42564 -0.20205 0.31990
 H808 H 0.49709 -0.23000 0.34132
 H809 H 0.53016 -0.20038 0.39941
 H810 H 0.49319 -0.14209 0.43488
 H811 H 0.32167 -0.08768 0.36440
 H812 H 0.35995 -0.05036 0.41435
 C813 C 0.41841 0.34981 -0.13834
 C814 C 0.37340 0.36336 -0.14471
 C815 C 0.35399 0.39579 -0.12101
 C816 C 0.37734 0.41310 -0.09045
 C817 C 0.42064 0.39788 -0.08165
 C818 C 0.44137 0.36501 -0.10565
 C819 C 0.44090 0.32092 -0.16387
 C820 C 0.48326 0.30401 -0.15610
 C821 C 0.50386 0.31525 -0.12280
 C822 C 0.48342 0.34535 -0.09781
 H823 H 0.42592 0.31118 -0.19007
 H824 H 0.49975 0.28132 -0.17568
 H825 H 0.53588 0.30041 -0.11626
 H826 H 0.50069 0.35131 -0.07216
 H827 H 0.31971 0.40668 -0.12542
 H828 H 0.36075 0.43825 -0.07305
 C829 C 1.15868 -0.09646 0.13056
 C830 C 1.14273 -0.14069 0.14169
 C831 C 1.10557 -0.16123 0.12363
 C832 C 1.08528 -0.13951 0.09419
 C833 C 1.10239 -0.09724 0.08054
 C834 C 1.14060 -0.07588 0.09845
 C835 C 1.19209 -0.07198 0.15112
 C836 C 1.20996 -0.02988 0.13895
 C837 C 1.19535 -0.01166 0.10601
 C838 C 1.16135 -0.03440 0.08596
 H839 H 1.20430 -0.08483 0.17702
 H840 H 1.23570 -0.01166 0.15487
 H841 H 1.21015 0.02050 0.09604
 H842 H 1.15278 -0.01927 0.06044
 H843 H 1.09259 -0.19486 0.13193
 H844 H 1.05636 -0.15662 0.08130
 C845 C 1.07975 0.34540 0.63834
 C846 C 1.12544 0.36093 0.64251
 C847 C 1.14355 0.39489 0.61914
 C848 C 1.11788 0.41276 0.59113
 C849 C 1.07306 0.39697 0.58471
 C850 C 1.05308 0.36312 0.60916
 C851 C 1.06050 0.31154 0.66214
 C852 C 1.01591 0.29554 0.65791
 C853 C 0.98990 0.31222 0.62961
 C854 C 1.00812 0.34517 0.60532
 H855 H 1.07966 0.29715 0.68428
 H856 H 1.00156 0.26977 0.67651
 H857 H 0.95535 0.29930 0.62627
 H858 H 0.98588 0.35532 0.58389
 H859 H 1.17846 0.40701 0.62209
 H860 H 1.13398 0.43885 0.57370
 C861 C 0.65341 -0.07595 0.63706
 C862 C 0.64149 -0.12292 0.64253
 C863 C 0.60914 -0.14444 0.62002
 C864 C 0.58902 -0.12072 0.59182
 C865 C 0.60088 -0.07454 0.58440
 C866 C 0.63378 -0.05145 0.60739
 C867 C 0.68578 -0.05335 0.65982
 C868 C 0.69884 -0.00770 0.65380
 C869 C 0.68098 0.01595 0.62453
 C870 C 0.64932 -0.00552 0.60135
 H871 H 0.70150 -0.07072 0.68237
 H872 H 0.72356 0.00918 0.67157
 H873 H 0.69213 0.05112 0.61944
 H874 H 0.63874 0.01485 0.57868
 H875 H 0.59983 -0.18037 0.62398
 H876 H 0.56401 -0.13922 0.57531
 C877 C 0.65212 0.41382 0.13381
 C878 C 0.63806 0.36822 0.14278
 C879 C 0.60021 0.34832 0.12525
 C880 C 0.57792 0.37167 0.09783
 C881 C 0.59371 0.41505 0.08566
 C882 C 0.63164 0.43652 0.10377
 C883 C 0.68586 0.43756 0.15454
 C884 C 0.70150 0.48133 0.14446
 C885 C 0.68397 0.50222 0.11366
 C886 C 0.64955 0.48019 0.09359
 H887 H 0.69995 0.42285 0.17906
 H888 H 0.72750 0.49898 0.16049
 H889 H 0.69661 0.53602 0.10555
 H890 H 0.63763 0.49817 0.07031
 H891 H 0.58860 0.31367 0.13196
 H892 H 0.54915 0.35453 0.08474
 C893 C 0.92215 0.14217 0.14089
 C894 C 0.87474 0.13204 0.14267
 C895 C 0.85595 0.09874 0.11901
 C896 C 0.88244 0.07726 0.09240
 C897 C 0.92912 0.08777 0.08835
 C898 C 0.95009 0.11864 0.11449
 C899 C 0.94225 0.17610 0.16414
 C900 C 0.98897 0.18473 0.16335
 C901 C 1.01657 0.16003 0.13942
 C902 C 0.99760 0.12747 0.11525
 H903 H 0.92224 0.19645 0.18308
 H904 H 1.00389 0.21048 0.18164
 H905 H 1.05299 0.16624 0.13946
 H906 H 1.02131 0.10907 0.09839
 H907 H 0.81990 0.09021 0.12042
 H908 H 0.86553 0.05294 0.07397
 C909 C 0.84303 0.64532 0.60181
 C910 C 0.85717 0.64112 0.63891
 C911 C 0.89345 0.61325 0.64693
 C912 C 0.91601 0.58962 0.61873
 C913 C 0.90276 0.59299 0.58177
 C914 C 0.86640 0.62174 0.57286
 C915 C 0.80619 0.67287 0.59290
 C916 C 0.79353 0.67825 0.55622
 C917 C 0.81733 0.65669 0.52777
 C918 C 0.85347 0.62891 0.53581
 H919 H 0.78688 0.69053 0.61412
 H920 H 0.76538 0.69963 0.54982
 H921 H 0.80784 0.66160 0.49926
 H922 H 0.87127 0.61406 0.51253
 H923 H 0.90460 0.61011 0.67522
 H924 H 0.94387 0.56815 0.62587
 C925 C 0.37081 0.08485 0.65197
 C926 C 0.35967 0.13096 0.64529
 C927 C 0.37218 0.15121 0.61165
 C928 C 0.39372 0.12623 0.58404
 C929 C 0.40393 0.07984 0.58886
 C930 C 0.39394 0.05916 0.62385
 C931 C 0.36047 0.06420 0.68644
 C932 C 0.37323 0.01954 0.69349
 C933 C 0.39695 -0.00504 0.66669
 C934 C 0.40750 0.01445 0.63229
 H935 H 0.34310 0.08260 0.70837
 H936 H 0.36536 0.00418 0.72015
 H937 H 0.40775 -0.03918 0.67287
 H938 H 0.42757 -0.00545 0.61322
 H939 H 0.36419 0.18659 0.60633
 H940 H 0.40168 0.14359 0.55826
 C941 C 0.36541 0.66115 0.10473
 C942 C 0.35401 0.63585 0.13710
 C943 C 0.36560 0.58973 0.13928
 C944 C 0.38910 0.56870 0.11018
 C945 C 0.40177 0.59322 0.07826
 C946 C 0.38916 0.63958 0.07497
 C947 C 0.35318 0.70739 0.10114
 C948 C 0.36369 0.73162 0.06881
 C949 C 0.38625 0.71032 0.03950
 C950 C 0.39879 0.66478 0.04244
 H951 H 0.33519 0.72511 0.12311
 H952 H 0.35396 0.76696 0.06637
 H953 H 0.39379 0.72905 0.01424
 H954 H 0.41510 0.64928 0.01876
 H955 H 0.35655 0.56996 0.16376
 H956 H 0.39773 0.53308 0.11268
   
