data_POSCAR
  _audit_creation_date              2014-09-24
  _audit_creation_method            'ToBaCCo'
  _symmetry_space_group_name_H-M    'P1'
  _symmetry_Int_Tables_number       1
  _symmetry_cell_setting            triclinic
  loop_
  _symmetry_equiv_pos_as_xyz
 x,y,z
_cell_length_a 61.4899
_cell_length_b 32.9653
_cell_length_c 27.2949
_cell_angle_alpha 89.957800
_cell_angle_beta 89.980600
_cell_angle_gamma 90.077100
loop_
  _atom_site_label
  _atom_site_type_symbol
  _atom_site_fract_x
  _atom_site_fract_y
  _atom_site_fract_z
C1 C 0.78664 0.19277 0.45430
 C2 C 0.79495 0.17950 0.49942
 C3 C 0.78575 0.19078 0.54447
 C4 C 0.76631 0.21416 0.54427
 C5 C 0.75729 0.22750 0.49910
 C6 C 0.76734 0.21652 0.45403
 C7 C 0.75667 0.22638 0.40997
 C8 C 0.73756 0.24869 0.40977
 C9 C 0.72781 0.26124 0.45366
 C10 C 0.73752 0.25016 0.49889
 C11 C 0.75444 0.22098 0.58753
 C12 C 0.73526 0.24317 0.58729
 C13 C 0.72689 0.25979 0.54376
 C14 C 0.70701 0.28208 0.54314
 C15 C 0.69788 0.29239 0.49763
 C16 C 0.70790 0.28249 0.45340
 H17 H 0.76245 0.21568 0.37492
 H18 H 0.73013 0.25487 0.37463
 H19 H 0.75929 0.20770 0.62205
 H20 H 0.72661 0.24542 0.62163
 H21 H 0.81027 0.16320 0.49957
 H22 H 0.68296 0.30989 0.49623
 C23 C 0.20823 0.78480 0.54697
 C24 C 0.19889 0.79652 0.50248
 C25 C 0.20875 0.78744 0.45768
 C26 C 0.22870 0.76610 0.45698
 C27 C 0.23841 0.75390 0.50183
 C28 C 0.22800 0.76289 0.54694
 C29 C 0.23704 0.74798 0.59057
 C30 C 0.25625 0.72578 0.59022
 C31 C 0.26767 0.71844 0.54636
 C32 C 0.25818 0.73148 0.50149
 C33 C 0.23874 0.75530 0.41265
 C34 C 0.25798 0.73321 0.41225
 C35 C 0.26800 0.72109 0.45616
 C36 C 0.28716 0.69752 0.45584
 C37 C 0.29626 0.68475 0.50008
 C38 C 0.28735 0.69561 0.54565
 H39 H 0.22905 0.75238 0.62547
 H40 H 0.26159 0.71337 0.62481
 H41 H 0.23163 0.76320 0.37768
 H42 H 0.26470 0.72508 0.37697
 H43 H 0.18363 0.81300 0.50271
 H44 H 0.31145 0.66805 0.49869
 C45 C 0.20967 0.20854 -0.45740
 C46 C 0.20141 0.19605 -0.50290
 C47 C 0.21101 0.20719 -0.54756
 C48 C 0.23056 0.23031 -0.54670
 C49 C 0.23937 0.24335 -0.50120
 C50 C 0.22868 0.23327 -0.45652
 C51 C 0.23640 0.25078 -0.41279
 C52 C 0.25514 0.27430 -0.41208
 C53 C 0.26679 0.28228 -0.45521
 C54 C 0.25872 0.26733 -0.50042
 C55 C 0.24201 0.23950 -0.58992
 C56 C 0.26057 0.26349 -0.58920
 C57 C 0.26967 0.27706 -0.54489
 C58 C 0.28860 0.30212 -0.54378
 C59 C 0.29591 0.31686 -0.49842
 C60 C 0.28577 0.30642 -0.45441
 H61 H 0.22776 0.24764 -0.37856
 H62 H 0.26011 0.28707 -0.37732
 H63 H 0.23687 0.22820 -0.62520
 H64 H 0.26735 0.27171 -0.62430
 H65 H 0.18674 0.17774 -0.50358
 H66 H 0.31074 0.33471 -0.49679
 C67 C -0.28876 0.70602 -0.45581
 C68 C -0.29887 0.69753 -0.50076
 C69 C -0.29089 0.71222 -0.54565
 C70 C -0.27192 0.73703 -0.54543
 C71 C -0.26064 0.74404 -0.50078
 C72 C -0.26890 0.72817 -0.45603
 C73 C -0.25653 0.73334 -0.41309
 C74 C -0.23786 0.75705 -0.41285
 C75 C -0.23011 0.77505 -0.45605
 C76 C -0.24124 0.76781 -0.50069
 C77 C -0.26491 0.75782 -0.58765
 C78 C -0.24611 0.78125 -0.58742
 C79 C -0.23331 0.78507 -0.54500
 C80 C -0.21383 0.80856 -0.54472
 C81 C -0.20398 0.81714 -0.49940
 C82 C -0.21168 0.80062 -0.45561
 H83 H -0.26103 0.71889 -0.37900
 H84 H -0.22959 0.76111 -0.37823
 H85 H -0.27425 0.75745 -0.62116
 H86 H -0.24213 0.79745 -0.62070
 H87 H -0.31365 0.67957 -0.50075
 H88 H -0.18911 0.83484 -0.49805
 O89 O -0.02964 0.93409 0.09281
 O90 O -0.05329 0.96931 0.04398
 C91 C -0.04913 0.94464 0.07979
 O92 O 0.03151 1.07677 0.08408
 O93 O 0.05546 1.03711 0.04114
 C94 C 0.05109 1.06548 0.07254
 O95 O -0.02964 1.07314 0.08771
 O96 O -0.05357 1.03613 0.04123
 C97 C -0.04922 1.06225 0.07540
 O98 O 0.03112 0.92944 0.08812
 O99 O 0.05526 0.96727 0.04316
 C100 C 0.05076 0.94011 0.07606
 Zr101 Zr 0.00076 0.95147 0.06307
 O102 O 0.00267 0.94930 0.14042
 O103 O -0.00052 0.88755 0.05811
 Zr104 Zr 0.00098 1.05436 0.06024
 O105 O 0.00314 1.05763 0.13753
 O106 O -0.00133 1.11836 0.05620
 O107 O -0.01840 1.00325 0.07113
 O108 O 0.01962 1.00296 0.07108
 O109 O 0.03143 0.92592 -0.08279
 O110 O 0.05539 0.96560 -0.03974
 C111 C 0.05102 0.93713 -0.07104
 O112 O -0.02913 1.06957 -0.09247
 O113 O -0.05332 1.03465 -0.04421
 C114 C -0.04879 1.05941 -0.07976
 O115 O 0.03209 1.07317 -0.08755
 O116 O 0.05573 1.03528 -0.04152
 C117 C 0.05160 1.06227 -0.07480
 O118 O -0.02956 0.93065 -0.08815
 O119 O -0.05353 0.96824 -0.04259
 C120 C -0.04914 0.94188 -0.07645
 Zr121 Zr 0.00099 0.94915 -0.05998
 O122 O 0.00351 0.94598 -0.13722
 O123 O -0.00143 0.88516 -0.05594
 Zr124 Zr 0.00138 1.05196 -0.06301
 O125 O 0.00391 1.05270 -0.14032
 O126 O -0.00093 1.11605 -0.06239
 Zr127 Zr -0.03132 1.00205 -0.00038
 Zr128 Zr 0.03345 1.00156 0.00056
 O129 O 0.01998 1.00020 -0.07035
 O130 O -0.01804 1.00054 -0.07158
 O131 O 0.02042 0.94242 0.00205
 O132 O -0.01783 1.06070 -0.00188
 O133 O -0.01828 0.94315 0.00159
 O134 O 0.02075 1.06094 -0.00134
 H135 H 0.02917 1.00340 0.10029
 H136 H -0.02782 1.08425 -0.00268
 H137 H 0.02969 0.99949 -0.09931
 H138 H -0.02842 0.91976 0.00219
 H139 H 0.01172 1.12838 0.03876
 H140 H 0.01227 1.12672 -0.04616
 H141 H -0.00681 1.03300 -0.15309
 H142 H -0.00762 0.96433 -0.15104
 H143 H 0.01021 0.87563 -0.03369
 H144 H -0.00057 0.87742 0.09230
 H145 H -0.00659 0.97144 0.15307
 H146 H -0.00828 1.03974 0.15115
 O147 O 0.47176 0.43100 0.09020
 O148 O 0.44747 0.46682 0.04355
 C149 C 0.45210 0.44133 0.07826
 O150 O 0.53238 0.57382 0.08580
 O151 O 0.55616 0.53604 0.04007
 C152 C 0.55192 0.56327 0.07297
 O153 O 0.47153 0.57000 0.09154
 O154 O 0.44740 0.53425 0.04435
 C155 C 0.45191 0.55936 0.07946
 O156 O 0.53239 0.42702 0.08333
 O157 O 0.55619 0.46624 0.03911
 C158 C 0.55194 0.43820 0.07111
 Zr159 Zr 0.50181 0.44889 0.05950
 O160 O 0.50299 0.44131 0.13637
 O161 O 0.50087 0.38537 0.04950
 Zr162 Zr 0.50179 0.55175 0.06186
 O163 O 0.50421 0.55180 0.13924
 O164 O 0.49937 0.61583 0.06115
 O165 O 0.48260 0.50012 0.07085
 O166 O 0.52062 0.50030 0.06957
 O167 O 0.53185 0.42898 -0.08823
 O168 O 0.55591 0.46731 -0.04373
 C169 C 0.55147 0.43991 -0.07632
 O170 O 0.47047 0.57161 -0.08874
 O171 O 0.44660 0.53470 -0.04177
 C172 C 0.45090 0.56065 -0.07623
 O173 O 0.53166 0.57610 -0.08587
 O174 O 0.55579 0.53715 -0.04248
 C175 C 0.55130 0.56514 -0.07430
 O176 O 0.47093 0.43293 -0.09253
 O177 O 0.44712 0.46807 -0.04395
 C178 C 0.45139 0.44337 -0.07961
 Zr179 Zr 0.50137 0.45076 -0.06326
 O180 O 0.50351 0.44953 -0.14062
 O181 O 0.49912 0.38667 -0.06146
 Zr182 Zr 0.50126 0.55353 -0.06129
 O183 O 0.50329 0.55673 -0.13860
 O184 O 0.49869 0.61752 -0.05759
 Zr185 Zr 0.46904 0.50116 -0.00012
 Zr186 Zr 0.53399 0.50151 -0.00134
 O187 O 0.52007 0.50238 -0.07179
 O188 O 0.48201 0.50220 -0.07168
 O189 O 0.52122 0.44215 -0.00233
 O190 O 0.48244 0.55992 0.00082
 O191 O 0.48235 0.44244 -0.00158
 O192 O 0.52106 0.56070 0.00003
 H193 H 0.53042 0.50007 0.09837
 H194 H 0.47242 0.58343 0.00143
 H195 H 0.52959 0.50278 -0.10108
 H196 H 0.47225 0.41898 -0.00179
 H197 H 0.51220 0.62653 0.04347
 H198 H 0.51194 0.62786 -0.04127
 H199 H 0.49213 0.53819 -0.15202
 H200 H 0.49309 0.46977 -0.15331
 H201 H 0.51165 0.37647 -0.04234
 H202 H 0.50080 0.37343 0.08281
 H203 H 0.50493 0.46859 0.15063
 H204 H 0.49277 0.53348 0.15199
 C205 C 0.32116 0.36316 0.36742
 C206 C 0.32780 0.33343 0.33418
 C207 C 0.32121 0.29315 0.34085
 C208 C 0.30799 0.28266 0.38067
 C209 C 0.30094 0.31246 0.41417
 C210 C 0.30803 0.35279 0.40722
 C211 C 0.34223 0.34431 0.29475
 C212 C 0.35473 0.35440 0.26297
 C213 C 0.36991 0.36709 0.22731
 C214 C 0.38340 0.37844 0.19830
 C215 C 0.40018 0.39238 0.16557
 C216 C 0.42138 0.37779 0.17108
 C217 C 0.43815 0.39312 0.14196
 C218 C 0.43398 0.42338 0.10679
 C219 C 0.41249 0.43727 0.10075
 C220 C 0.39572 0.42192 0.13010
 H221 H 0.32632 0.39438 0.36286
 H222 H 0.32663 0.26974 0.31585
 H223 H 0.30394 0.25100 0.38622
 H224 H 0.30309 0.37655 0.43226
 H225 H 0.42502 0.35503 0.19853
 H226 H 0.45446 0.38163 0.14755
 H227 H 0.40871 0.46057 0.07411
 H228 H 0.37937 0.43358 0.12570
 C229 C -0.18748 0.80704 0.33167
 C230 C -0.17751 0.84519 0.33081
 C231 C -0.18056 0.87195 0.36988
 C232 C -0.19311 0.86038 0.41020
 C233 C -0.20307 0.82179 0.41209
 C234 C -0.20012 0.79537 0.37194
 C235 C -0.16290 0.85609 0.29171
 C236 C -0.14999 0.86562 0.26050
 C237 C -0.13414 0.87721 0.22576
 C238 C -0.12005 0.88741 0.19760
 C239 C -0.10259 0.89992 0.16581
 C240 C -0.10639 0.92737 0.12763
 C241 C -0.08908 0.94128 0.09884
 C242 C -0.06770 0.92803 0.10809
 C243 C -0.06415 0.89989 0.14606
 C244 C -0.08147 0.88598 0.17465
 H245 H -0.18493 0.78581 0.30193
 H246 H -0.17286 0.90154 0.36968
 H247 H -0.19511 0.88185 0.43987
 H248 H -0.20659 0.76479 0.37272
 H249 H -0.12266 0.93851 0.12060
 H250 H -0.09241 0.96294 0.06997
 H251 H -0.04794 0.88900 0.15420
 H252 H -0.07834 0.86483 0.20421
 C253 C 0.66304 0.69098 0.36908
 C254 C 0.67399 0.67698 0.32758
 C255 C 0.69673 0.67520 0.32751
 C256 C 0.70846 0.68732 0.36901
 C257 C 0.69759 0.70171 0.41112
 C258 C 0.67465 0.70302 0.41047
 C259 C 0.66152 0.66346 0.28605
 C260 C 0.64998 0.65215 0.25308
 C261 C 0.63530 0.63891 0.21668
 C262 C 0.62189 0.62756 0.18755
 C263 C 0.60492 0.61388 0.15521
 C264 C 0.60887 0.58318 0.12096
 C265 C 0.59176 0.56758 0.09286
 C266 C 0.57044 0.58235 0.09899
 C267 C 0.56680 0.61400 0.13255
 C268 C 0.58392 0.62959 0.16042
 H269 H 0.64543 0.69243 0.36957
 H270 H 0.70537 0.66391 0.29574
 H271 H 0.72599 0.68414 0.36872
 H272 H 0.66561 0.71425 0.44170
 H273 H 0.62504 0.57065 0.11680
 H274 H 0.59513 0.54318 0.06744
 H275 H 0.55065 0.62619 0.13811
 H276 H 0.58066 0.65326 0.18695
 C277 C 0.18321 1.21397 0.33076
 C278 C 0.17513 1.17449 0.32594
 C279 C 0.17953 1.14566 0.36216
 C280 C 0.19175 1.15626 0.40331
 C281 C 0.20010 1.19590 0.40876
 C282 C 0.19552 1.22469 0.37189
 C283 C 0.16120 1.16389 0.28557
 C284 C 0.14892 1.15424 0.25318
 C285 C 0.13386 1.14213 0.21704
 C286 C 0.12039 1.13116 0.18782
 C287 C 0.10361 1.11736 0.15508
 C288 C 0.08264 1.13340 0.15904
 C289 C 0.06569 1.11744 0.13095
 C290 C 0.06948 1.08506 0.09846
 C291 C 0.09080 1.07000 0.09354
 C292 C 0.10773 1.08599 0.12182
 H293 H 0.17955 1.23674 0.30334
 H294 H 0.17323 1.11506 0.35898
 H295 H 0.19489 1.13322 0.43073
 H296 H 0.20067 1.25595 0.37582
 H297 H 0.07926 1.15757 0.18481
 H298 H 0.04953 1.12986 0.13558
 H299 H 0.09429 1.04505 0.06899
 H300 H 0.12389 1.07320 0.11866
 C301 C 0.66152 0.30469 -0.37058
 C302 C 0.67256 0.32275 -0.33154
 C303 C 0.69520 0.32701 -0.33349
 C304 C 0.70674 0.31318 -0.37448
 C305 C 0.69579 0.29456 -0.41401
 C306 C 0.67294 0.29098 -0.41147
 C307 C 0.66024 0.33768 -0.29050
 C308 C 0.64880 0.34988 -0.25782
 C309 C 0.63423 0.36387 -0.22163
 C310 C 0.62091 0.37564 -0.19255
 C311 C 0.60404 0.38960 -0.16012
 C312 C 0.60815 0.42044 -0.12613
 C313 C 0.59118 0.43601 -0.09762
 C314 C 0.56984 0.42105 -0.10304
 C315 C 0.56604 0.38933 -0.13644
 C316 C 0.58302 0.37378 -0.16473
 H317 H 0.64399 0.30133 -0.36953
 H318 H 0.70388 0.34152 -0.30374
 H319 H 0.72413 0.31831 -0.37592
 H320 H 0.66386 0.27667 -0.44076
 H321 H 0.62435 0.43304 -0.12241
 H322 H 0.59469 0.46048 -0.07236
 H323 H 0.54986 0.37701 -0.14148
 H324 H 0.57964 0.34999 -0.19103
 C325 C 0.16354 0.79195 -0.35835
 C326 C 0.17251 0.81935 -0.32478
 C327 C 0.19356 0.83448 -0.33226
 C328 C 0.20547 0.82259 -0.37352
 C329 C 0.19642 0.79540 -0.40750
 C330 C 0.17540 0.78010 -0.39955
 C331 C 0.15954 0.83329 -0.28427
 C332 C 0.14787 0.84499 -0.25173
 C333 C 0.13330 0.85872 -0.21541
 C334 C 0.12009 0.87053 -0.18608
 C335 C 0.10343 0.88477 -0.15333
 C336 C 0.10757 0.91673 -0.12090
 C337 C 0.09069 0.93288 -0.09260
 C338 C 0.06941 0.91737 -0.09671
 C339 C 0.06561 0.88443 -0.12835
 C340 C 0.08250 0.86830 -0.15641
 H341 H 0.14722 0.78027 -0.35310
 H342 H 0.20059 0.85594 -0.30671
 H343 H 0.22157 0.83505 -0.37947
 H344 H 0.16813 0.75933 -0.42557
 H345 H 0.12370 0.92984 -0.11840
 H346 H 0.09417 0.95830 -0.06875
 H347 H 0.04947 0.87168 -0.13237
 H348 H 0.07909 0.84365 -0.18152
 C349 C 0.32102 0.63494 -0.36730
 C350 C 0.32501 0.66327 -0.33031
 C351 C 0.31601 0.70212 -0.33358
 C352 C 0.30316 0.71270 -0.37393
 C353 C 0.29897 0.68440 -0.41157
 C354 C 0.30827 0.64541 -0.40765
 C355 C 0.33935 0.65283 -0.29059
 C356 C 0.35191 0.64334 -0.25871
 C357 C 0.36729 0.63151 -0.22311
 C358 C 0.38100 0.62095 -0.19426
 C359 C 0.39807 0.60792 -0.16182
 C360 C 0.39403 0.57861 -0.12580
 C361 C 0.41111 0.56394 -0.09691
 C362 C 0.43247 0.57828 -0.10396
 C363 C 0.43622 0.60836 -0.13961
 C364 C 0.41914 0.62302 -0.16828
 H365 H 0.32802 0.60483 -0.36529
 H366 H 0.31932 0.72454 -0.30555
 H367 H 0.29728 0.74358 -0.37663
 H368 H 0.30543 0.62268 -0.43559
 H369 H 0.37779 0.56655 -0.12067
 H370 H 0.40764 0.54074 -0.06990
 H371 H 0.45242 0.62013 -0.14602
 H372 H 0.42247 0.64559 -0.19619
 C373 C -0.18062 1.13104 -0.36741
 C374 C -0.17658 1.15982 -0.33097
 C375 C -0.18586 1.19845 -0.33452
 C376 C -0.19887 1.20845 -0.37483
 C377 C -0.20291 1.17983 -0.41221
 C378 C -0.19353 1.14094 -0.40771
 C379 C -0.16179 1.15014 -0.29181
 C380 C -0.14879 1.14114 -0.26060
 C381 C -0.13294 1.12970 -0.22586
 C382 C -0.11891 1.11929 -0.19770
 C383 C -0.10163 1.10621 -0.16585
 C384 C -0.10578 1.07869 -0.12791
 C385 C -0.08866 1.06407 -0.09914
 C386 C -0.06713 1.07667 -0.10818
 C387 C -0.06322 1.10489 -0.14590
 C388 C -0.08035 1.11950 -0.17450
 H389 H -0.17345 1.10109 -0.36514
 H390 H -0.18254 1.22119 -0.30687
 H391 H -0.20487 1.23923 -0.37787
 H392 H -0.19631 1.11792 -0.43534
 H393 H -0.12217 1.06804 -0.12105
 H394 H -0.09227 1.04239 -0.07045
 H395 H -0.04689 1.11530 -0.15386
 H396 H -0.07695 1.14068 -0.20390
 C397 C 0.68499 0.70997 -0.33222
 C398 C 0.67548 0.67145 -0.32970
 C399 C 0.67853 0.64393 -0.36801
 C400 C 0.69075 0.65497 -0.40904
 C401 C 0.70043 0.69373 -0.41232
 C402 C 0.69730 0.72110 -0.37320
 C403 C 0.66151 0.66080 -0.28939
 C404 C 0.64917 0.65137 -0.25698
 C405 C 0.63404 0.63973 -0.22073
 C406 C 0.62052 0.62923 -0.19134
 C407 C 0.60372 0.61595 -0.15829
 C408 C 0.60791 0.58549 -0.12384
 C409 C 0.59100 0.56991 -0.09513
 C410 C 0.56962 0.58449 -0.10077
 C411 C 0.56574 0.61598 -0.13449
 C412 C 0.58268 0.63153 -0.16303
 H413 H 0.68242 0.73176 -0.30310
 H414 H 0.67115 0.61409 -0.36656
 H415 H 0.69284 0.63291 -0.43805
 H416 H 0.70352 0.75181 -0.37521
 H417 H 0.62413 0.57305 -0.12006
 H418 H 0.59457 0.54562 -0.06965
 H419 H 0.54952 0.62795 -0.13978
 H420 H 0.57923 0.65500 -0.18974
 C421 C 0.16362 1.18648 -0.37244
 C422 C 0.17444 1.17009 -0.33205
 C423 C 0.19712 1.16635 -0.33289
 C424 C 0.20891 1.17924 -0.37401
 C425 C 0.19818 1.19643 -0.41474
 C426 C 0.17529 1.19927 -0.41344
 C427 C 0.16188 1.15661 -0.29060
 C428 C 0.15024 1.14569 -0.25758
 C429 C 0.13544 1.13320 -0.22101
 C430 C 0.12192 1.12263 -0.19164
 C431 C 0.10485 1.10997 -0.15891
 C432 C 0.10863 1.08002 -0.12358
 C433 C 0.09144 1.06542 -0.09491
 C434 C 0.07021 1.08047 -0.10149
 C435 C 0.06674 1.11140 -0.13616
 C436 C 0.08394 1.12598 -0.16463
 H437 H 0.14606 1.18937 -0.37229
 H438 H 0.20564 1.15311 -0.30207
 H439 H 0.22636 1.17477 -0.37447
 H440 H 0.16638 1.21242 -0.44376
 H441 H 0.12474 1.06731 -0.11896
 H442 H 0.09470 1.04154 -0.06865
 H443 H 0.05065 1.12377 -0.14212
 H444 H 0.08082 1.14910 -0.19197
 C445 C 0.31350 0.37220 -0.35945
 C446 C 0.32204 0.34285 -0.32776
 C447 C 0.31741 0.30176 -0.33563
 C448 C 0.30479 0.28999 -0.37579
 C449 C 0.29660 0.31925 -0.40836
 C450 C 0.30088 0.36047 -0.39962
 C451 C 0.33696 0.35464 -0.28969
 C452 C 0.35012 0.36457 -0.25922
 C453 C 0.36620 0.37634 -0.22516
 C454 C 0.38043 0.38654 -0.19739
 C455 C 0.39795 0.39900 -0.16581
 C456 C 0.41911 0.38544 -0.17513
 C457 C 0.43644 0.39918 -0.14646
 C458 C 0.43285 0.42675 -0.10796
 C459 C 0.41143 0.43960 -0.09827
 C460 C 0.39412 0.42587 -0.12711
 H461 H 0.31713 0.40405 -0.35394
 H462 H 0.32412 0.27876 -0.31164
 H463 H 0.30201 0.25802 -0.38247
 H464 H 0.29491 0.38341 -0.42465
 H465 H 0.42226 0.36472 -0.20509
 H466 H 0.45268 0.38863 -0.15497
 H467 H 0.40806 0.46083 -0.06900
 H468 H 0.37782 0.43668 -0.11967
 C469 C -0.18739 0.86132 -0.35178
 C470 C -0.17423 0.83228 -0.32896
 C471 C -0.17402 0.79231 -0.34639
 C472 C -0.18667 0.78158 -0.38697
 C473 C -0.19968 0.81076 -0.41025
 C474 C -0.20002 0.85063 -0.39233
 C475 C -0.15991 0.84424 -0.28984
 C476 C -0.14741 0.85489 -0.25836
 C477 C -0.13216 0.86792 -0.22309
 C478 C -0.11856 0.87935 -0.19444
 C479 C -0.10161 0.89322 -0.16216
 C480 C -0.08054 0.87801 -0.16764
 C481 C -0.06358 0.89320 -0.13898
 C482 C -0.06746 0.92394 -0.10429
 C483 C -0.08883 0.93845 -0.09825
 C484 C -0.10578 0.92323 -0.12713
 H485 H -0.18753 0.89239 -0.33888
 H486 H -0.16374 0.76970 -0.32929
 H487 H -0.18602 0.75083 -0.40084
 H488 H -0.20980 0.87355 -0.41026
 H489 H -0.07711 0.85488 -0.19475
 H490 H -0.04738 0.88125 -0.14459
 H491 H -0.09238 0.96213 -0.07199
 H492 H -0.12203 0.93535 -0.12275
 C493 C 0.31425 0.63445 0.35768
 C494 C 0.32458 0.66440 0.32965
 C495 C 0.32167 0.70541 0.34134
 C496 C 0.30885 0.71637 0.38154
 C497 C 0.29876 0.68638 0.41023
 C498 C 0.30145 0.64537 0.39785
 C499 C 0.33935 0.65284 0.29122
 C500 C 0.35229 0.64269 0.26039
 C501 C 0.36804 0.63034 0.22590
 C502 C 0.38198 0.61943 0.19782
 C503 C 0.39921 0.60606 0.16599
 C504 C 0.39505 0.57793 0.12876
 C505 C 0.41211 0.56330 0.09986
 C506 C 0.43360 0.57653 0.10801
 C507 C 0.43752 0.60529 0.14508
 C508 C 0.42044 0.61991 0.17380
 H509 H 0.31653 0.60263 0.34921
 H510 H 0.32976 0.72881 0.32019
 H511 H 0.30724 0.74811 0.39109
 H512 H 0.29398 0.62186 0.41995
 H513 H 0.37868 0.56686 0.12255
 H514 H 0.40851 0.54114 0.07174
 H515 H 0.45382 0.61616 0.15240
 H516 H 0.42385 0.64157 0.20264
 C517 C -0.17996 1.13404 0.36488
 C518 C -0.17498 1.16379 0.33013
 C519 C -0.18314 1.20311 0.33576
 C520 C -0.19617 1.21268 0.37618
 C521 C -0.20142 1.18290 0.41146
 C522 C -0.19290 1.14350 0.40529
 C523 C -0.16056 1.15412 0.29030
 C524 C -0.14795 1.14507 0.25831
 C525 C -0.13258 1.13357 0.22255
 C526 C -0.11890 1.12313 0.19356
 C527 C -0.10190 1.11010 0.16095
 C528 C -0.10601 1.08073 0.12510
 C529 C -0.08900 1.06590 0.09618
 C530 C -0.06761 1.08014 0.10302
 C531 C -0.06378 1.11033 0.13845
 C532 C -0.08080 1.12514 0.16715
 H533 H -0.17360 1.10356 0.36107
 H534 H -0.17906 1.22658 0.30951
 H535 H -0.20143 1.24380 0.38081
 H536 H -0.19651 1.11971 0.43148
 H537 H -0.12227 1.06870 0.12019
 H538 H -0.09252 1.04264 0.06934
 H539 H -0.04755 1.12203 0.14470
 H540 H -0.07742 1.14775 0.19494
 C541 C 0.69398 0.33674 0.33496
 C542 C 0.67345 0.32030 0.32475
 C543 C 0.66462 0.29067 0.35570
 C544 C 0.67610 0.27784 0.39701
 C545 C 0.69659 0.29438 0.40768
 C546 C 0.70552 0.32386 0.37636
 C547 C 0.66075 0.33510 0.28424
 C548 C 0.64920 0.34729 0.25175
 C549 C 0.63467 0.36134 0.21554
 C550 C 0.62141 0.37319 0.18635
 C551 C 0.60462 0.38721 0.15380
 C552 C 0.60863 0.41880 0.12069
 C553 C 0.59165 0.43453 0.09234
 C554 C 0.57040 0.41898 0.09708
 C555 C 0.56672 0.38647 0.12948
 C556 C 0.58371 0.37076 0.15759
 H557 H 0.70088 0.35993 0.31148
 H558 H 0.64869 0.27798 0.34836
 H559 H 0.66892 0.25535 0.42105
 H560 H 0.72119 0.33728 0.38448
 H561 H 0.62475 0.43190 0.11763
 H562 H 0.59504 0.45964 0.06789
 H563 H 0.55061 0.37369 0.13400
 H564 H 0.58040 0.34639 0.18321
 C565 C 0.19333 0.84257 0.34081
 C566 C 0.17307 0.82494 0.33065
 C567 C 0.16495 0.79428 0.36111
 C568 C 0.17684 0.78162 0.40189
 C569 C 0.19705 0.79936 0.41253
 C570 C 0.20528 0.82986 0.38169
 C571 C 0.15995 0.83939 0.29063
 C572 C 0.14811 0.85123 0.25848
 C573 C 0.13332 0.86485 0.22255
 C574 C 0.11994 0.87638 0.19345
 C575 C 0.10312 0.89015 0.16080
 C576 C 0.10735 0.92055 0.12625
 C577 C 0.09045 0.93599 0.09743
 C578 C 0.06907 0.92130 0.10305
 C579 C 0.06514 0.89001 0.13704
 C580 C 0.08205 0.87460 0.16566
 H581 H 0.19969 0.86652 0.31768
 H582 H 0.14925 0.78061 0.35378
 H583 H 0.17021 0.75828 0.42555
 H584 H 0.22073 0.84415 0.38977
 H585 H 0.12359 0.93294 0.12233
 H586 H 0.09404 0.96016 0.07177
 H587 H 0.04892 0.87794 0.14231
 H588 H 0.07858 0.85115 0.19240
   
