data_POSCAR
  _audit_creation_date              2014-09-24
  _audit_creation_method            'ToBaCCo'
  _symmetry_space_group_name_H-M    'P1'
  _symmetry_Int_Tables_number       1
  _symmetry_cell_setting            triclinic
  loop_
  _symmetry_equiv_pos_as_xyz
 x,y,z
_cell_length_a 62.1296
_cell_length_b 60.0591
_cell_length_c 61.5593
_cell_angle_alpha 92.562400
_cell_angle_beta 91.600500
_cell_angle_gamma 88.247800
loop_
  _atom_site_label
  _atom_site_type_symbol
  _atom_site_fract_x
  _atom_site_fract_y
  _atom_site_fract_z
N1 N 0.60000 0.65326 0.61170
 N2 N 0.58978 0.64200 0.62584
 C3 C 0.57081 0.65256 0.63010
 C4 C 0.56920 0.67153 0.61814
 C5 C 0.58803 0.67146 0.60667
 H6 H 0.55927 0.64723 0.64148
 H7 H 0.59253 0.68359 0.59529
 Cu8 Cu 0.60304 0.61564 0.63851
 Cu9 Cu 0.62756 0.64300 0.60002
 Cu10 Cu 0.65092 0.59533 0.62142
 N11 N 0.61673 0.58932 0.65088
 N12 N 0.63585 0.58207 0.64470
 C13 C 0.64251 0.56509 0.65698
 C14 C 0.62665 0.56127 0.67174
 C15 C 0.61044 0.57699 0.66718
 H16 H 0.65782 0.55629 0.65520
 H17 H 0.59560 0.57998 0.67572
 N18 N 0.66369 0.61113 0.59781
 N19 N 0.65522 0.62972 0.59018
 C20 C 0.66749 0.63626 0.57406
 C21 C 0.68433 0.62089 0.57125
 C22 C 0.68141 0.60520 0.58658
 H23 H 0.66394 0.65055 0.56437
 H24 H 0.69136 0.59043 0.58917
 H25 H 0.62422 0.60973 0.60594
 H26 H 0.63829 0.62716 0.62751
 N27 N 0.89741 0.33498 0.11378
 N28 N 0.90531 0.34377 0.13209
 C29 C 0.92412 0.33326 0.13708
 C30 C 0.92841 0.31698 0.12087
 C31 C 0.91101 0.31875 0.10628
 H32 H 0.93396 0.33744 0.15134
 H33 H 0.90790 0.30849 0.09173
 Cu34 Cu 0.89026 0.36807 0.14775
 Cu35 Cu 0.86909 0.34381 0.10231
 Cu36 Cu 0.84896 0.39489 0.12234
 N37 N 0.87977 0.39734 0.15800
 N38 N 0.86348 0.40763 0.14825
 C39 C 0.85927 0.42719 0.15906
 C40 C 0.87388 0.42939 0.17635
 C41 C 0.88671 0.41015 0.17513
 H42 H 0.84665 0.43904 0.15456
 H43 H 0.89988 0.40564 0.18609
 N44 N 0.83655 0.37898 0.09642
 N45 N 0.84389 0.35925 0.08920
 C46 C 0.83157 0.35224 0.07206
 C47 C 0.81574 0.36838 0.06820
 C48 C 0.81943 0.38513 0.08392
 H49 H 0.83404 0.33661 0.06294
 H50 H 0.80996 0.40039 0.08640
 H51 H 0.87557 0.37609 0.11183
 H52 H 0.85563 0.36221 0.12839
 N53 N 0.40000 0.16365 -0.10059
 N54 N 0.40747 0.15493 -0.11894
 C55 C 0.42464 0.16639 -0.12447
 C56 C 0.42821 0.18308 -0.10866
 C57 C 0.41228 0.18080 -0.09372
 H58 H 0.43403 0.16274 -0.13879
 H59 H 0.40956 0.19113 -0.07916
 Cu60 Cu 0.39419 0.12929 -0.13368
 Cu61 Cu 0.37456 0.15260 -0.08734
 Cu62 Cu 0.35103 0.10640 -0.11277
 N63 N 0.38115 0.10300 -0.14741
 N64 N 0.36416 0.09428 -0.13927
 C65 C 0.35809 0.07675 -0.15213
 C66 C 0.37210 0.07422 -0.16923
 C67 C 0.38657 0.09117 -0.16565
 H68 H 0.34453 0.06653 -0.14919
 H69 H 0.39978 0.09487 -0.17584
 N70 N 0.34008 0.12107 -0.08584
 N71 N 0.34874 0.13897 -0.07645
 C72 C 0.33714 0.14559 -0.05903
 C73 C 0.32050 0.13106 -0.05727
 C74 C 0.32290 0.11569 -0.07450
 H75 H 0.34060 0.15984 -0.04830
 H76 H 0.31255 0.10192 -0.07872
 H77 H 0.37875 0.12011 -0.09935
 H78 H 0.36055 0.13882 -0.11549
 N79 N 0.10323 0.83093 0.37575
 N80 N 0.09675 0.83914 0.35718
 C81 C 0.07892 0.82866 0.34991
 C82 C 0.07371 0.81314 0.36487
 C83 C 0.08961 0.81520 0.38110
 H84 H 0.07016 0.83246 0.33506
 H85 H 0.09155 0.80568 0.39554
 Cu86 Cu 0.11179 0.86327 0.34465
 Cu87 Cu 0.12923 0.84067 0.39129
 Cu88 Cu 0.15624 0.88383 0.36975
 N89 N 0.12655 0.88836 0.33352
 N90 N 0.14426 0.89585 0.34305
 C91 C 0.15137 0.91279 0.33189
 C92 C 0.13724 0.91632 0.31455
 C93 C 0.12162 0.90056 0.31612
 H94 H 0.16550 0.92222 0.33633
 H95 H 0.10784 0.89809 0.30526
 N96 N 0.16587 0.86953 0.39663
 N97 N 0.15584 0.85278 0.40463
 C98 C 0.16655 0.84641 0.42276
 C99 C 0.18398 0.85997 0.42647
 C100 C 0.18303 0.87444 0.40961
 H101 H 0.16183 0.83315 0.43278
 H102 H 0.19420 0.88742 0.40690
 H103 H 0.12733 0.87280 0.38054
 H104 H 0.14448 0.85210 0.36476
 N105 N 0.10360 0.15796 0.12519
 N106 N 0.09664 0.15071 0.14348
 C107 C 0.08011 0.16402 0.15030
 C108 C 0.07638 0.18029 0.13533
 C109 C 0.09154 0.17590 0.11956
 H110 H 0.07108 0.16177 0.16476
 H111 H 0.09379 0.18528 0.10525
 Cu112 Cu 0.10893 0.12399 0.15629
 Cu113 Cu 0.12824 0.14412 0.11056
 Cu114 Cu 0.14972 0.09549 0.13143
 N115 N 0.11998 0.09542 0.16622
 N116 N 0.13621 0.08465 0.15686
 C117 C 0.14070 0.06577 0.16728
 C118 C 0.12633 0.06448 0.18391
 C119 C 0.11337 0.08356 0.18272
 H120 H 0.15318 0.05361 0.16281
 H121 H 0.10025 0.08850 0.19323
 N122 N 0.16122 0.10905 0.10581
 N123 N 0.15324 0.12779 0.09806
 C124 C 0.16489 0.13312 0.08102
 C125 C 0.18083 0.11683 0.07774
 C126 C 0.17797 0.10180 0.09371
 H127 H 0.16191 0.14767 0.07153
 H128 H 0.18769 0.08692 0.09656
 H129 H 0.12226 0.11246 0.12054
 H130 H 0.14227 0.12903 0.13721
 N131 N 0.40693 0.84602 0.61226
 N132 N 0.41926 0.85935 0.62428
 C133 C 0.43834 0.84891 0.62821
 C134 C 0.43790 0.82781 0.61826
 C135 C 0.41768 0.82651 0.60833
 H136 H 0.45147 0.85603 0.63782
 H137 H 0.41153 0.81267 0.59844
 Cu138 Cu 0.40931 0.88888 0.63431
 Cu139 Cu 0.37873 0.85581 0.60101
 Cu140 Cu 0.35790 0.90515 0.62371
 N141 N 0.39528 0.91311 0.65101
 N142 N 0.37507 0.91909 0.64713
 C143 C 0.36924 0.93547 0.66159
 C144 C 0.38676 0.94007 0.67528
 C145 C 0.40305 0.92556 0.66802
 H146 H 0.35342 0.94346 0.66207
 H147 H 0.41916 0.92373 0.67494
 N148 N 0.34315 0.88827 0.59991
 N149 N 0.35071 0.86902 0.59169
 C150 C 0.33746 0.86201 0.57525
 C151 C 0.32092 0.87776 0.57288
 C152 C 0.32505 0.89415 0.58882
 H153 H 0.34025 0.84720 0.56496
 H154 H 0.31579 0.90945 0.59182
 H155 H 0.38225 0.88982 0.60506
 H156 H 0.37341 0.87471 0.62921
 N157 N 0.89718 0.66730 0.38512
 N158 N 0.90352 0.65891 0.36618
 C159 C 0.92130 0.66937 0.36057
 C160 C 0.92647 0.68493 0.37699
 C161 C 0.91085 0.68312 0.39233
 H162 H 0.93012 0.66566 0.34589
 H163 H 0.90939 0.69282 0.40747
 Cu164 Cu 0.88849 0.63456 0.35109
 Cu165 Cu 0.87144 0.65752 0.39876
 Cu166 Cu 0.84448 0.61388 0.37268
 N167 N 0.87376 0.60924 0.33737
 N168 N 0.85622 0.60169 0.34555
 C169 C 0.84911 0.58455 0.33276
 C170 C 0.86308 0.58096 0.31578
 C171 C 0.87859 0.59688 0.31925
 H172 H 0.83512 0.57503 0.33587
 H173 H 0.89225 0.59935 0.30922
 N174 N 0.83508 0.62837 0.40028
 N175 N 0.84507 0.64532 0.40998
 C176 C 0.83455 0.65180 0.42815
 C177 C 0.81730 0.63809 0.43010
 C178 C 0.81815 0.62341 0.41218
 H179 H 0.83930 0.66522 0.43940
 H180 H 0.80707 0.61026 0.40802
 H181 H 0.87345 0.62525 0.38559
 H182 H 0.85596 0.64566 0.37064
 N183 N 0.59166 0.34568 -0.11666
 N184 N 0.58270 0.35366 -0.13439
 C185 C 0.56574 0.34124 -0.14061
 C186 C 0.56386 0.32471 -0.12589
 C187 C 0.58056 0.32808 -0.11086
 H188 H 0.55540 0.34408 -0.15469
 H189 H 0.58461 0.31815 -0.09701
 Cu190 Cu 0.59411 0.37946 -0.14763
 Cu191 Cu 0.61751 0.35817 -0.10294
 Cu192 Cu 0.63864 0.40367 -0.12686
 N193 N 0.60580 0.40527 -0.16060
 N194 N 0.62367 0.41415 -0.15287
 C195 C 0.62878 0.43096 -0.16535
 C196 C 0.61312 0.43288 -0.18162
 C197 C 0.59874 0.41637 -0.17809
 H198 H 0.64268 0.44122 -0.16263
 H199 H 0.58450 0.41248 -0.18784
 N200 N 0.65139 0.39067 -0.10045
 N201 N 0.64355 0.37315 -0.09154
 C202 C 0.65597 0.36807 -0.07406
 C203 C 0.67228 0.38324 -0.07173
 C204 C 0.66884 0.39734 -0.08871
 H205 H 0.65320 0.35455 -0.06357
 H206 H 0.67854 0.41126 -0.09240
 H207 H 0.61219 0.39020 -0.11326
 H208 H 0.62920 0.37098 -0.13073
 C209 C -0.03280 0.27319 0.09962
 C210 C -0.01872 0.27004 0.11773
 C211 C -0.02300 0.28273 0.13717
 C212 C -0.04001 0.29869 0.13789
 C213 C -0.05395 0.30164 0.11978
 C214 C -0.05014 0.28851 0.10073
 C215 C -0.01050 0.27920 0.15595
 C216 C 0.00574 0.26280 0.15611
 C217 C 0.01065 0.24973 0.13716
 C218 C -0.00094 0.25433 0.11739
 C219 C 0.00588 0.24337 0.09789
 C220 C 0.02290 0.22784 0.09781
 C221 C 0.03331 0.22201 0.11719
 C222 C 0.02706 0.23250 0.13722
 C223 C 0.03713 0.22487 0.15655
 C224 C 0.05298 0.20789 0.15584
 C225 C 0.05961 0.19825 0.13594
 C226 C 0.04980 0.20547 0.11665
 H227 H -0.03128 0.26356 0.08451
 H228 H -0.04276 0.30812 0.15300
 H229 H -0.06035 0.29013 0.08634
 H230 H -0.01357 0.28896 0.17085
 H231 H 0.01466 0.26120 0.17125
 H232 H -0.00124 0.24698 0.08223
 H233 H 0.02771 0.22000 0.08243
 H234 H 0.03265 0.23119 0.17250
 H235 H 0.06024 0.20242 0.17097
 H236 H 0.05454 0.19770 0.10121
 C237 C 0.51344 0.69843 0.62133
 C238 C 0.51728 0.72104 0.61752
 C239 C 0.53889 0.72703 0.61462
 C240 C 0.55561 0.71076 0.61442
 C241 C 0.55144 0.68846 0.61797
 C242 C 0.53030 0.68251 0.62168
 C243 C 0.54377 0.74924 0.61210
 C244 C 0.52776 0.76586 0.61290
 C245 C 0.50598 0.76080 0.61562
 C246 C 0.50054 0.73793 0.61690
 C247 C 0.47855 0.73266 0.61702
 C248 C 0.46243 0.74919 0.61649
 C249 C 0.46753 0.77164 0.61653
 C250 C 0.48938 0.77784 0.61660
 C251 C 0.49369 0.80088 0.61806
 C252 C 0.47698 0.81694 0.61879
 C253 C 0.45547 0.81066 0.61782
 C254 C 0.45084 0.78797 0.61665
 H255 H 0.49769 0.69259 0.62463
 H256 H 0.57202 0.71558 0.61202
 H257 H 0.52672 0.66539 0.62463
 H258 H 0.56024 0.75390 0.60975
 H259 H 0.53291 0.78254 0.61064
 H260 H 0.47320 0.71576 0.61684
 H261 H 0.44576 0.74433 0.61634
 H262 H 0.50979 0.80707 0.61922
 H263 H 0.48095 0.83439 0.61984
 H264 H 0.43420 0.78299 0.61638
 C265 C 1.02651 0.78112 0.34348
 C266 C 1.02140 0.76856 0.36145
 C267 C 1.03370 0.77199 0.38097
 C268 C 1.05113 0.78639 0.38187
 C269 C 1.05628 0.79855 0.36381
 C270 C 1.04348 0.79589 0.34474
 C271 C 1.02849 0.76114 0.39959
 C272 C 1.01101 0.74728 0.39947
 C273 C 0.99838 0.74312 0.38039
 C274 C 1.00431 0.75308 0.36082
 C275 C 0.99332 0.74682 0.34121
 C276 C 0.97675 0.73179 0.34079
 C277 C 0.96996 0.72296 0.35992
 C278 C 0.98031 0.72888 0.38009
 C279 C 0.97186 0.72058 0.39917
 C280 C 0.95432 0.70655 0.39808
 C281 C 0.94481 0.70006 0.37802
 C282 C 0.95273 0.70831 0.35898
 H283 H 1.01738 0.78033 0.32835
 H284 H 1.06024 0.78847 0.39704
 H285 H 1.04664 0.80490 0.33041
 H286 H 1.03789 0.76360 0.41457
 H287 H 1.00823 0.73944 0.41450
 H288 H 0.99765 0.75271 0.32569
 H289 H 0.96897 0.72726 0.32530
 H290 H 0.97808 0.72505 0.41523
 H291 H 0.94836 0.70051 0.41303
 H292 H 0.94510 0.70375 0.34343
 C293 C 0.46838 0.22557 -0.08759
 C294 C 0.47769 0.23228 -0.10691
 C295 C 0.46983 0.22269 -0.12695
 C296 C 0.45401 0.20645 -0.12736
 C297 C 0.44515 0.19990 -0.10806
 C298 C 0.45234 0.20974 -0.08824
 C299 C 0.47765 0.22944 -0.14653
 C300 C 0.49280 0.24591 -0.14680
 C301 C 0.50119 0.25602 -0.12734
 C302 C 0.49419 0.24841 -0.10706
 C303 C 0.50418 0.25688 -0.08766
 C304 C 0.52001 0.27267 -0.08797
 C305 C 0.52618 0.28111 -0.10750
 C306 C 0.51664 0.27321 -0.12747
 C307 C 0.52272 0.28318 -0.14671
 C308 C 0.53790 0.29987 -0.14608
 C309 C 0.54770 0.30708 -0.12637
 C310 C 0.54179 0.29757 -0.10714
 H311 H 0.47277 0.23255 -0.07172
 H312 H 0.44824 0.19928 -0.14283
 H313 H 0.44570 0.20504 -0.07309
 H314 H 0.47180 0.22206 -0.16189
 H315 H 0.49805 0.24997 -0.16263
 H316 H 0.50050 0.25120 -0.07187
 H317 H 0.52733 0.27854 -0.07266
 H318 H 0.51573 0.27886 -0.16248
 H319 H 0.54214 0.30697 -0.16118
 H320 H 0.54898 0.30337 -0.09174
 C321 C 0.15969 -0.04248 0.27704
 C322 C 0.14089 -0.03320 0.26703
 C323 C 0.12070 -0.04066 0.27353
 C324 C 0.11963 -0.05746 0.28860
 C325 C 0.13844 -0.06651 0.29819
 C326 C 0.15840 -0.05873 0.29243
 C327 C 0.10165 -0.03117 0.26513
 C328 C 0.10210 -0.01400 0.25079
 C329 C 0.12176 -0.00603 0.24371
 C330 C 0.14143 -0.01652 0.25117
 C331 C 0.16092 -0.01031 0.24222
 C332 C 0.16130 0.00602 0.22698
 C333 C 0.14242 0.01728 0.22050
 C334 C 0.12240 0.01177 0.22906
 C335 C 0.10393 0.02463 0.22287
 C336 C 0.10532 0.04177 0.20842
 C337 C 0.12501 0.04652 0.19944
 C338 C 0.14351 0.03418 0.20554
 H339 H 0.17564 -0.03715 0.27378
 H340 H 0.10408 -0.06305 0.29333
 H341 H 0.17316 -0.06539 0.29972
 H342 H 0.08617 -0.03687 0.26994
 H343 H 0.08666 -0.00772 0.24501
 H344 H 0.17622 -0.01826 0.24619
 H345 H 0.17664 0.01006 0.22040
 H346 H 0.08825 0.02225 0.22929
 H347 H 0.09081 0.05117 0.20405
 H348 H 0.15892 0.03808 0.19903
 C349 C 0.64739 0.51885 -0.28983
 C350 C 0.62913 0.51520 -0.27741
 C351 C 0.60956 0.52637 -0.28328
 C352 C 0.60886 0.54168 -0.29991
 C353 C 0.62728 0.54563 -0.31178
 C354 C 0.64640 0.53362 -0.30672
 C355 C 0.59072 0.52218 -0.27255
 C356 C 0.59075 0.50682 -0.25634
 C357 C 0.60990 0.49553 -0.24965
 C358 C 0.62957 0.50060 -0.25965
 C359 C 0.64908 0.49142 -0.25119
 C360 C 0.64935 0.47729 -0.23394
 C361 C 0.63021 0.47115 -0.22488
 C362 C 0.61016 0.47974 -0.23290
 C363 C 0.59118 0.47183 -0.22404
 C364 C 0.59222 0.45654 -0.20758
 C365 C 0.61211 0.44889 -0.19918
 C366 C 0.63105 0.45630 -0.20787
 H367 H 0.66262 0.51017 -0.28723
 H368 H 0.59368 0.55010 -0.30380
 H369 H 0.66100 0.53582 -0.31544
 H370 H 0.57568 0.53070 -0.27690
 H371 H 0.57555 0.50471 -0.24880
 H372 H 0.66458 0.49546 -0.25709
 H373 H 0.66473 0.47087 -0.22781
 H374 H 0.57527 0.47669 -0.22984
 H375 H 0.57736 0.45088 -0.20122
 H376 H 0.64651 0.45002 -0.20177
 C377 C 0.35143 1.03126 0.78901
 C378 C 0.36987 1.02578 0.77661
 C379 C 0.38936 1.03621 0.78303
 C380 C 0.38995 1.05199 0.80057
 C381 C 0.37144 1.05744 0.81240
 C382 C 0.35228 1.04677 0.80657
 C383 C 0.40821 1.03084 0.77196
 C384 C 0.40832 1.01516 0.75471
 C385 C 0.38936 1.00439 0.74750
 C386 C 0.36969 1.01026 0.75825
 C387 C 0.35045 1.00071 0.75006
 C388 C 0.35040 0.98571 0.73227
 C389 C 0.36948 0.97927 0.72207
 C390 C 0.38931 0.98822 0.72967
 C391 C 0.40826 0.98040 0.71914
 C392 C 0.40738 0.96478 0.70166
 C393 C 0.38766 0.95648 0.69394
 C394 C 0.36877 0.96381 0.70429
 H395 H 0.33611 1.02370 0.78580
 H396 H 0.40499 1.05980 0.80518
 H397 H 0.33772 1.05060 0.81541
 H398 H 0.42314 1.03880 0.77676
 H399 H 0.42356 1.01220 0.74704
 H400 H 0.33494 1.00484 0.75676
 H401 H 0.33518 0.97896 0.72648
 H402 H 0.42410 0.98573 0.72416
 H403 H 0.42224 0.95938 0.69401
 H404 H 0.35345 0.95717 0.69877
 C405 C 0.89642 0.47088 0.21845
 C406 C 0.87793 0.48384 0.22449
 C407 C 0.85788 0.47796 0.21459
 C408 C 0.85678 0.46056 0.19862
 C409 C 0.87527 0.44806 0.19277
 C410 C 0.89501 0.45323 0.20297
 C411 C 0.83899 0.48933 0.22080
 C412 C 0.83938 0.50608 0.23708
 C413 C 0.85889 0.51261 0.24743
 C414 C 0.87857 0.50206 0.24028
 C415 C 0.89823 0.51034 0.24884
 C416 C 0.89867 0.52784 0.26436
 C417 C 0.87962 0.53737 0.27246
 C418 C 0.85943 0.52964 0.26444
 C419 C 0.84063 0.53899 0.27417
 C420 C 0.84193 0.55552 0.29078
 C421 C 0.86188 0.56354 0.29809
 C422 C 0.88067 0.55446 0.28877
 H423 H 0.91213 0.47356 0.22578
 H424 H 0.84134 0.45635 0.19114
 H425 H 0.90952 0.44372 0.19881
 H426 H 0.82364 0.48502 0.21319
 H427 H 0.82408 0.51407 0.24077
 H428 H 0.91367 0.50403 0.24340
 H429 H 0.91415 0.53376 0.27032
 H430 H 0.82470 0.53348 0.26974
 H431 H 0.82718 0.56220 0.29783
 H432 H 0.89622 0.56025 0.29468
 C433 C 0.28105 0.15339 -0.01530
 C434 C 0.27055 0.13395 -0.00962
 C435 C 0.27753 0.11331 -0.01955
 C436 C 0.29358 0.11253 -0.03521
 C437 C 0.30354 0.13200 -0.04082
 C438 C 0.29730 0.15234 -0.03056
 C439 C 0.26855 0.09351 -0.01374
 C440 C 0.25304 0.09359 0.00206
 C441 C 0.24542 0.11367 0.01237
 C442 C 0.25367 0.13424 0.00576
 C443 C 0.24447 0.15440 0.01441
 C444 C 0.22819 0.15453 0.02941
 C445 C 0.22077 0.13465 0.03684
 C446 C 0.22950 0.11391 0.02876
 C447 C 0.22215 0.09429 0.03774
 C448 C 0.20650 0.09534 0.05363
 C449 C 0.19749 0.11585 0.06099
 C450 C 0.20470 0.13545 0.05248
 H451 H 0.27742 0.16964 -0.00795
 H452 H 0.29863 0.09663 -0.04274
 H453 H 0.30480 0.16762 -0.03453
 H454 H 0.27374 0.07770 -0.02135
 H455 H 0.24688 0.07757 0.00542
 H456 H 0.24910 0.17051 0.00945
 H457 H 0.22150 0.17043 0.03543
 H458 H 0.22846 0.07789 0.03321
 H459 H 0.20128 0.07994 0.06002
 H460 H 0.19815 0.15144 0.05841
 C461 C 0.72485 0.59945 0.53002
 C462 C 0.73166 0.61928 0.52104
 C463 C 0.72325 0.63985 0.52988
 C464 C 0.70773 0.64026 0.54609
 C465 C 0.70087 0.62043 0.55441
 C466 C 0.70980 0.60010 0.54646
 C467 C 0.73037 0.65990 0.52255
 C468 C 0.74595 0.66010 0.50682
 C469 C 0.75461 0.64010 0.49724
 C470 C 0.74667 0.61939 0.50383
 C471 C 0.75354 0.59953 0.49262
 C472 C 0.76804 0.59978 0.47589
 C473 C 0.77674 0.61969 0.47003
 C474 C 0.77056 0.64011 0.48090
 C475 C 0.78086 0.65964 0.47511
 C476 C 0.79613 0.65887 0.45883
 C477 C 0.80146 0.63877 0.44762
 C478 C 0.79171 0.61924 0.45333
 H479 H 0.73112 0.58316 0.52501
 H480 H 0.70124 0.65610 0.55250
 H481 H 0.70486 0.58453 0.55270
 H482 H 0.72397 0.67569 0.52920
 H483 H 0.75039 0.67631 0.50198
 H484 H 0.74747 0.58345 0.49592
 H485 H 0.77263 0.58414 0.46757
 H486 H 0.77784 0.67569 0.48314
 H487 H 0.80357 0.67418 0.45481
 H488 H 0.79613 0.60351 0.44507
 C489 C 0.77437 0.34616 0.02712
 C490 C 0.76441 0.36588 0.01930
 C491 C 0.77235 0.38657 0.02754
 C492 C 0.78886 0.38728 0.04361
 C493 C 0.79830 0.36758 0.05133
 C494 C 0.79105 0.34709 0.04278
 C495 C 0.76386 0.40648 0.01966
 C496 C 0.74786 0.40641 0.00346
 C497 C 0.73927 0.38630 -0.00521
 C498 C 0.74710 0.36576 0.00344
 C499 C 0.73709 0.34585 -0.00371
 C500 C 0.72039 0.34587 -0.01916
 C501 C 0.71326 0.36557 -0.02849
 C502 C 0.72280 0.38605 -0.02197
 C503 C 0.71562 0.40536 -0.03277
 C504 C 0.69939 0.40434 -0.04892
 C505 C 0.68962 0.38417 -0.05476
 C506 C 0.69666 0.36484 -0.04445
 H507 H 0.76998 0.32973 0.02120
 H508 H 0.79466 0.40324 0.04980
 H509 H 0.79809 0.33160 0.04840
 H510 H 0.76980 0.42235 0.02596
 H511 H 0.74215 0.42255 -0.00154
 H512 H 0.74142 0.32991 0.00274
 H513 H 0.71308 0.33018 -0.02399
 H514 H 0.72246 0.42146 -0.02947
 H515 H 0.69431 0.41952 -0.05667
 H516 H 0.68952 0.34905 -0.04917
 C517 C 0.22085 0.83867 0.47145
 C518 C 0.23166 0.85812 0.47890
 C519 C 0.22564 0.87841 0.46915
 C520 C 0.21032 0.87880 0.45197
 C521 C 0.20010 0.85934 0.44459
 C522 C 0.20527 0.83937 0.45467
 C523 C 0.23489 0.89828 0.47658
 C524 C 0.24981 0.89862 0.49377
 C525 C 0.25655 0.87888 0.50393
 C526 C 0.24798 0.85818 0.49579
 C527 C 0.25641 0.83823 0.50443
 C528 C 0.27240 0.83848 0.52066
 C529 C 0.28021 0.85856 0.52942
 C530 C 0.27204 0.87908 0.52158
 C531 C 0.27958 0.89899 0.53194
 C532 C 0.29512 0.89842 0.54872
 C533 C 0.30380 0.87811 0.55570
 C534 C 0.29619 0.85821 0.54603
 H535 H 0.22374 0.82272 0.47852
 H536 H 0.20604 0.89445 0.44459
 H537 H 0.19747 0.82412 0.44935
 H538 H 0.23041 0.91383 0.46912
 H539 H 0.25629 0.91465 0.49828
 H540 H 0.25145 0.82200 0.49848
 H541 H 0.27860 0.82272 0.52655
 H542 H 0.27355 0.91529 0.52776
 H543 H 0.30063 0.91406 0.55598
 H544 H 0.30251 0.84239 0.55166
   
