data_POSCAR
  _audit_creation_date              2014-09-24
  _audit_creation_method            'ToBaCCo'
  _symmetry_space_group_name_H-M    'P1'
  _symmetry_Int_Tables_number       1
  _symmetry_cell_setting            triclinic
  loop_
  _symmetry_equiv_pos_as_xyz
 x,y,z
_cell_length_a 38.0088
_cell_length_b 38.0470
_cell_length_c 38.1097
_cell_angle_alpha 90.970700
_cell_angle_beta 90.972200
_cell_angle_gamma 91.007900
loop_
  _atom_site_label
  _atom_site_type_symbol
  _atom_site_fract_x
  _atom_site_fract_y
  _atom_site_fract_z
N1 N 0.15270 0.23382 0.24409
 N2 N 0.16271 0.20616 0.26168
 C3 C 0.14086 0.20119 0.28862
 C4 C 0.11617 0.22712 0.28748
 C5 C 0.12417 0.24742 0.25914
 H6 H 0.14268 0.18043 0.30755
 H7 H 0.11030 0.27027 0.25017
 Cu8 Cu 0.20336 0.17999 0.24753
 Cu9 Cu 0.17726 0.25048 0.20325
 Cu10 Cu 0.25024 0.20341 0.17782
 N11 N 0.24402 0.15382 0.23337
 N12 N 0.26226 0.16323 0.20594
 C13 C 0.28901 0.14103 0.20163
 C14 C 0.28718 0.11669 0.22776
 C15 C 0.25856 0.12527 0.24754
 H16 H 0.30821 0.14241 0.18104
 H17 H 0.24910 0.11169 0.27032
 N18 N 0.23359 0.24487 0.15310
 N19 N 0.20582 0.26280 0.16278
 C20 C 0.20124 0.28961 0.14070
 C21 C 0.22736 0.28820 0.11632
 C22 C 0.24744 0.25977 0.12460
 H23 H 0.18048 0.30863 0.14211
 H24 H 0.27027 0.25065 0.11082
 H25 H 0.19718 0.20247 0.18850
 H26 H 0.22596 0.23129 0.21744
 N27 N 0.65301 0.73423 0.74414
 N28 N 0.66298 0.70655 0.76171
 C29 C 0.64085 0.70132 0.78837
 C30 C 0.61607 0.72716 0.78714
 C31 C 0.62426 0.74762 0.75898
 H32 H 0.64257 0.68045 0.80721
 H33 H 0.61040 0.77047 0.75001
 Cu34 Cu 0.70401 0.68057 0.74826
 Cu35 Cu 0.67774 0.75099 0.70355
 Cu36 Cu 0.75051 0.70405 0.67794
 N37 N 0.74421 0.65423 0.73315
 N38 N 0.76236 0.66372 0.70568
 C39 C 0.78900 0.64146 0.70112
 C40 C 0.78719 0.61699 0.72710
 C41 C 0.75867 0.62549 0.74702
 H42 H 0.80818 0.64294 0.68053
 H43 H 0.74928 0.61180 0.76977
 N44 N 0.73408 0.74566 0.65352
 N45 N 0.70635 0.76358 0.66328
 C46 C 0.70173 0.79041 0.64127
 C47 C 0.72780 0.78902 0.61685
 C48 C 0.74789 0.76059 0.62504
 H49 H 0.68092 0.80937 0.64269
 H50 H 0.77063 0.75140 0.61114
 H51 H 0.69756 0.70264 0.68908
 H52 H 0.72649 0.73171 0.71770
 N53 N 0.34544 0.76331 0.74878
 N54 N 0.33611 0.79205 0.76565
 C55 C 0.35750 0.79717 0.79398
 C56 C 0.38105 0.77000 0.79469
 C57 C 0.37298 0.74921 0.76566
 H58 H 0.35638 0.81906 0.81236
 H59 H 0.38644 0.72580 0.75724
 Cu60 Cu 0.29662 0.81892 0.74829
 Cu61 Cu 0.32079 0.74537 0.70670
 Cu62 Cu 0.24837 0.79239 0.67821
 N63 N 0.25586 0.84524 0.73313
 N64 N 0.23702 0.83460 0.70551
 C65 C 0.20988 0.85647 0.70093
 C66 C 0.21195 0.88186 0.72716
 C67 C 0.24128 0.87418 0.74716
 H68 H 0.19004 0.85391 0.68032
 H69 H 0.25100 0.88840 0.77026
 N70 N 0.26433 0.74903 0.65440
 N71 N 0.29212 0.73141 0.66499
 C72 C 0.29642 0.70355 0.64322
 C73 C 0.26997 0.70364 0.61809
 C74 C 0.25024 0.73279 0.62564
 H75 H 0.31748 0.68490 0.64510
 H76 H 0.22773 0.74180 0.61081
 H77 H 0.30146 0.79272 0.68977
 H78 H 0.27266 0.76632 0.71879
 N79 N 0.84691 0.26245 0.24940
 N80 N 0.83707 0.29068 0.26682
 C81 C 0.85839 0.29569 0.29522
 C82 C 0.88239 0.26893 0.29539
 C83 C 0.87474 0.24853 0.26599
 H84 H 0.85692 0.31726 0.31396
 H85 H 0.88864 0.22556 0.25710
 Cu86 Cu 0.79721 0.31742 0.25017
 Cu87 Cu 0.82262 0.24494 0.20701
 Cu88 Cu 0.75043 0.29205 0.17852
 N89 N 0.75699 0.34403 0.23417
 N90 N 0.73878 0.33390 0.20599
 C91 C 0.71191 0.35600 0.20106
 C92 C 0.71348 0.38103 0.22761
 C93 C 0.74228 0.37290 0.24816
 H94 H 0.69251 0.35384 0.18001
 H95 H 0.75148 0.38678 0.27166
 N96 N 0.76652 0.24902 0.15446
 N97 N 0.79427 0.23132 0.16500
 C98 C 0.79851 0.20352 0.14312
 C99 C 0.77202 0.20377 0.11802
 C100 C 0.75238 0.23292 0.12568
 H101 H 0.81944 0.18473 0.14503
 H102 H 0.72979 0.24194 0.11098
 H103 H 0.80336 0.29270 0.19119
 H104 H 0.77422 0.26526 0.21899
 N105 N 0.84503 0.73479 0.25592
 N106 N 0.83428 0.70643 0.23831
 C107 C 0.85619 0.70074 0.21139
 C108 C 0.88164 0.72704 0.21239
 C109 C 0.87398 0.74813 0.24086
 H110 H 0.85370 0.67943 0.19232
 H111 H 0.88818 0.77162 0.24968
 Cu112 Cu 0.79209 0.68077 0.25215
 Cu113 Cu 0.82008 0.75327 0.29625
 Cu114 Cu 0.74540 0.70686 0.32148
 N115 N 0.74989 0.65511 0.26599
 N116 N 0.73203 0.66526 0.29355
 C117 C 0.70443 0.64310 0.29773
 C118 C 0.70503 0.61802 0.27126
 C119 C 0.73423 0.62608 0.25173
 H120 H 0.68564 0.64485 0.31865
 H121 H 0.74356 0.61151 0.22922
 N122 N 0.76302 0.74981 0.34593
 N123 N 0.79124 0.76772 0.33625
 C124 C 0.79578 0.79605 0.35770
 C125 C 0.76897 0.79585 0.38153
 C126 C 0.74888 0.76626 0.37369
 H127 H 0.81713 0.81512 0.35641
 H128 H 0.72589 0.75727 0.38751
 H129 H 0.79867 0.70565 0.31132
 H130 H 0.77086 0.73311 0.28216
 N131 N 0.34559 0.23469 -0.24453
 N132 N 0.33503 0.20625 -0.26214
 C133 C 0.35707 0.20063 -0.28900
 C134 C 0.38249 0.22701 -0.28786
 C135 C 0.37461 0.24811 -0.25944
 H136 H 0.35469 0.17930 -0.30807
 H137 H 0.38873 0.27161 -0.25049
 Cu138 Cu 0.29271 0.18054 -0.24842
 Cu139 Cu 0.32037 0.25305 -0.20424
 Cu140 Cu 0.24548 0.20670 -0.17940
 N141 N 0.25032 0.15488 -0.23489
 N142 N 0.23221 0.16512 -0.20753
 C143 C 0.20452 0.14301 -0.20358
 C144 C 0.20526 0.11789 -0.23002
 C145 C 0.23465 0.12591 -0.24932
 H146 H 0.18558 0.14477 -0.18278
 H147 H 0.24413 0.11133 -0.27176
 N148 N 0.26310 0.24961 -0.15472
 N149 N 0.29140 0.26749 -0.16426
 C150 C 0.29604 0.29566 -0.14260
 C151 C 0.26922 0.29543 -0.11875
 C152 C 0.24901 0.26594 -0.12683
 H153 H 0.31749 0.31463 -0.14372
 H154 H 0.22601 0.25690 -0.11305
 H155 H 0.29860 0.20554 -0.18918
 H156 H 0.27102 0.23286 -0.21865
 N157 N 0.65358 0.26468 -0.25043
 N158 N 0.66392 0.29280 -0.26739
 C159 C 0.64206 0.29753 -0.29515
 C160 C 0.61708 0.27075 -0.29548
 C161 C 0.62488 0.25054 -0.26676
 H162 H 0.64375 0.31904 -0.31327
 H163 H 0.61035 0.22771 -0.25799
 Cu164 Cu 0.70510 0.31962 -0.25066
 Cu165 Cu 0.67774 0.24854 -0.20802
 Cu166 Cu 0.75262 0.29603 -0.18061
 N167 N 0.74782 0.34545 -0.23677
 N168 N 0.76636 0.33591 -0.20915
 C169 C 0.79465 0.35751 -0.20508
 C170 C 0.79377 0.38146 -0.23176
 C171 C 0.76376 0.37341 -0.25127
 H172 H 0.81406 0.35620 -0.18408
 H173 H 0.75408 0.38729 -0.27391
 N174 N 0.73438 0.25481 -0.15555
 N175 N 0.70598 0.23666 -0.16593
 C176 C 0.70093 0.20978 -0.14383
 C177 C 0.72741 0.21127 -0.11869
 C178 C 0.74811 0.23997 -0.12667
 H179 H 0.67979 0.19044 -0.14592
 H180 H 0.77154 0.24911 -0.11259
 H181 H 0.69925 0.29640 -0.19178
 H182 H 0.72672 0.26832 -0.22051
 N183 N 0.15454 0.76515 0.24978
 N184 N 0.16543 0.79275 0.23240
 C185 C 0.14379 0.79734 0.20449
 C186 C 0.11838 0.77103 0.20442
 C187 C 0.12570 0.75122 0.23352
 H188 H 0.14588 0.81849 0.18600
 H189 H 0.11072 0.72880 0.24255
 Cu190 Cu 0.20661 0.82019 0.24813
 Cu191 Cu 0.17824 0.74941 0.29230
 Cu192 Cu 0.25277 0.79656 0.31990
 N193 N 0.24927 0.84538 0.26350
 N194 N 0.26720 0.83621 0.29164
 C195 C 0.29528 0.85807 0.29620
 C196 C 0.29484 0.88177 0.26926
 C197 C 0.26533 0.87336 0.24918
 H198 H 0.31417 0.85711 0.31770
 H199 H 0.25600 0.88702 0.22626
 N200 N 0.23432 0.75561 0.34507
 N201 N 0.20592 0.73757 0.33459
 C202 C 0.20086 0.71050 0.35645
 C203 C 0.22738 0.71174 0.38157
 C204 C 0.24806 0.74052 0.37381
 H205 H 0.17981 0.69108 0.35410
 H206 H 0.27161 0.74944 0.38784
 H207 H 0.19933 0.79784 0.30736
 H208 H 0.22706 0.76894 0.27945
 N209 N 0.48636 0.40064 0.49206
 N210 N 0.45882 0.40946 0.51055
 C211 C 0.45525 0.38680 0.53716
 C212 C 0.48189 0.36265 0.53523
 C213 C 0.50118 0.37205 0.50632
 H214 H 0.43478 0.38760 0.55651
 H215 H 0.52414 0.35905 0.49637
 Cu216 Cu 0.43044 0.44987 0.49774
 Cu217 Cu 0.50083 0.42729 0.45092
 Cu218 Cu 0.45065 0.49933 0.42850
 N219 N 0.40217 0.49056 0.48541
 N220 N 0.41043 0.50965 0.45815
 C221 C 0.38738 0.53596 0.45512
 C222 C 0.36349 0.53332 0.48183
 C223 C 0.37345 0.50424 0.50064
 H224 H 0.38785 0.55558 0.43491
 H225 H 0.36069 0.49389 0.52352
 N226 N 0.49234 0.48482 0.40170
 N227 N 0.51138 0.45741 0.41031
 C228 C 0.53788 0.45435 0.38742
 C229 C 0.53541 0.48100 0.36346
 C230 C 0.50630 0.49985 0.37309
 H231 H 0.55757 0.43419 0.38796
 H232 H 0.49610 0.52270 0.36015
 H233 H 0.48022 0.47492 0.46645
 H234 H 0.45166 0.44607 0.43762
 N235 N -0.01365 -0.09866 0.99121
 N236 N -0.04103 -0.08974 1.00988
 C237 C -0.04469 -0.11256 1.03634
 C238 C -0.01823 -0.13686 1.03413
 C239 C 0.00100 -0.12743 1.00522
 H240 H -0.06511 -0.11179 1.05575
 H241 H 0.02381 -0.14056 0.99509
 Cu242 Cu -0.06930 -0.04915 0.99761
 Cu243 Cu 0.00069 -0.07202 0.95012
 Cu244 Cu -0.04933 0.00018 0.92800
 N245 N -0.09748 -0.00850 0.98518
 N246 N -0.08937 0.01058 0.95787
 C247 C -0.11256 0.03678 0.95490
 C248 C -0.13637 0.03404 0.98168
 C249 C -0.12624 0.00503 1.00046
 H250 H -0.11226 0.05636 0.93466
 H251 H -0.13897 -0.00542 1.02333
 N252 N -0.00776 -0.01445 0.90100
 N253 N 0.01119 -0.04193 0.90954
 C254 C 0.03762 -0.04511 0.88660
 C255 C 0.03522 -0.01848 0.86264
 C256 C 0.00620 0.00051 0.87235
 H257 H 0.05723 -0.06535 0.88712
 H258 H -0.00394 0.02342 0.85945
 H259 H -0.01963 -0.02428 0.96574
 H260 H -0.04858 -0.05308 0.93721
 N261 N 1.02090 0.60123 0.99011
 N262 N 1.04907 0.59258 1.00837
 C263 C 1.05414 0.61609 1.03499
 C264 C 1.02785 0.64064 1.03294
 C265 C 1.00715 0.63041 1.00441
 H266 H 1.07498 0.61524 1.05461
 H267 H 0.98352 0.64297 0.99511
 Cu268 Cu 1.07590 0.55148 0.99449
 Cu269 Cu 1.00351 0.57388 0.94937
 Cu270 Cu 1.05223 0.50136 0.92481
 N271 N 1.10376 0.51116 0.98041
 N272 N 1.09418 0.49194 0.95271
 C273 C 1.11727 0.46593 0.94812
 C274 C 1.14270 0.46920 0.97412
 C275 C 1.13345 0.49791 0.99439
 H276 H 1.11533 0.44573 0.92782
 H277 H 1.14696 0.50788 1.01779
 N278 N 1.00910 0.51501 0.89985
 N279 N 0.99058 0.54263 0.90912
 C280 C 0.96305 0.54531 0.88670
 C281 C 0.96449 0.51811 0.86251
 C282 C 0.99386 0.49941 0.87130
 H283 H 0.94363 0.56573 0.88752
 H284 H 1.00358 0.47651 0.85764
 H285 H 1.02418 0.52673 0.96384
 H286 H 1.05158 0.55508 0.93524
 N287 N 0.52066 0.10143 0.49050
 N288 N 0.54885 0.09275 0.50870
 C289 C 0.55388 0.11611 0.53547
 C290 C 0.52754 0.14062 0.53361
 C291 C 0.50684 0.13050 0.50501
 H292 H 0.57472 0.11516 0.55509
 H293 H 0.48315 0.14300 0.49582
 Cu294 Cu 0.57568 0.05169 0.49466
 Cu295 Cu 0.50327 0.07405 0.44966
 Cu296 Cu 0.55216 0.00169 0.42484
 N297 N 0.60371 0.01156 0.48039
 N298 N 0.59419 -0.00760 0.45264
 C299 C 0.61727 -0.03359 0.44802
 C300 C 0.64264 -0.03038 0.47407
 C301 C 0.63337 -0.00172 0.49440
 H302 H 0.61530 -0.05382 0.42775
 H303 H 0.64680 0.00812 0.51789
 N304 N 0.50894 0.01522 0.40000
 N305 N 0.49034 0.04279 0.40932
 C306 C 0.46267 0.04524 0.38702
 C307 C 0.46411 0.01796 0.36290
 C308 C 0.49362 -0.00055 0.37160
 H309 H 0.44311 0.06552 0.38793
 H310 H 0.50334 -0.02348 0.35799
 H311 H 0.52410 0.02681 0.46385
 H312 H 0.55144 0.05531 0.43534
 N313 N -0.01907 0.10485 0.51084
 N314 N -0.04699 0.09467 0.49220
 C315 C -0.05227 0.11741 0.46600
 C316 C -0.02644 0.14314 0.46859
 C317 C -0.00558 0.13443 0.49702
 H318 H -0.07284 0.11513 0.44609
 H319 H 0.01792 0.14821 0.50652
 Cu320 Cu -0.07313 0.05238 0.50369
 Cu321 Cu -0.00271 0.07900 0.55181
 Cu322 Cu -0.05084 0.00425 0.57342
 N323 N -0.09966 0.01038 0.51525
 N324 N -0.09076 -0.00825 0.54268
 C325 C -0.11341 -0.03558 0.54524
 C326 C -0.13752 -0.03382 0.51800
 C327 C -0.12838 -0.00444 0.49944
 H328 H -0.11268 -0.05507 0.56557
 H329 H -0.14186 0.00550 0.47655
 N330 N -0.00940 0.02145 0.60090
 N331 N 0.00936 0.04955 0.59247
 C332 C 0.03623 0.05382 0.61588
 C333 C 0.03391 0.02731 0.64006
 C334 C 0.00496 0.00719 0.62979
 H335 H 0.05621 0.07437 0.61520
 H336 H -0.00451 -0.01645 0.64218
 H337 H -0.02270 0.02979 0.53608
 H338 H -0.05146 0.05725 0.56419
 N339 N 0.48169 0.60443 0.01091
 N340 N 0.45370 0.59432 -0.00765
 C341 C 0.44851 0.61702 -0.03393
 C342 C 0.47447 0.64264 -0.03144
 C343 C 0.49530 0.63391 -0.00299
 H344 H 0.42790 0.61478 -0.05378
 H345 H 0.51878 0.64770 0.00654
 Cu346 Cu 0.42726 0.55221 0.00399
 Cu347 Cu 0.49794 0.57867 0.05197
 Cu348 Cu 0.44972 0.50400 0.07369
 N349 N 0.40084 0.51010 0.01560
 N350 N 0.40978 0.49142 0.04297
 C351 C 0.38716 0.46406 0.04551
 C352 C 0.36302 0.46581 0.01829
 C353 C 0.37213 0.49524 -0.00022
 H354 H 0.38788 0.44459 0.06587
 H355 H 0.35866 0.50517 -0.02310
 N356 N 0.49112 0.52124 0.10118
 N357 N 0.50990 0.54932 0.09272
 C358 C 0.53665 0.55374 0.11624
 C359 C 0.53422 0.52735 0.14054
 C360 C 0.50536 0.50713 0.13021
 H361 H 0.55660 0.57431 0.11559
 H362 H 0.49585 0.48356 0.14268
 H363 H 0.47775 0.52957 0.03623
 H364 H 0.44919 0.55707 0.06452
 N365 N 0.51438 -0.10024 0.01001
 N366 N 0.54207 -0.09068 -0.00801
 C367 C 0.54530 -0.11296 -0.03556
 C368 C 0.51818 -0.13743 -0.03452
 C369 C 0.49905 -0.12884 -0.00539
 H370 H 0.56597 -0.11185 -0.05469
 H371 H 0.47602 -0.14256 0.00407
 Cu372 Cu 0.57118 -0.05024 0.00655
 Cu373 Cu 0.50069 -0.07548 0.05242
 Cu374 Cu 0.55183 -0.00306 0.07895
 N375 N 0.60055 -0.01039 0.02230
 N376 N 0.59250 0.00844 0.05023
 C377 C 0.61634 0.03489 0.05460
 C378 C 0.64058 0.03218 0.02817
 C379 C 0.62980 0.00340 0.00803
 H380 H 0.61577 0.05489 0.07508
 H381 H 0.64203 -0.00624 -0.01558
 N382 N 0.50991 -0.01936 0.10458
 N383 N 0.49084 -0.04725 0.09460
 C384 C 0.46457 -0.05204 0.11741
 C385 C 0.46742 -0.02612 0.14292
 C386 C 0.49614 -0.00564 0.13408
 H387 H 0.44444 -0.07244 0.11535
 H388 H 0.50590 0.01771 0.14787
 H389 H 0.52192 -0.02702 0.03930
 H390 H 0.55042 -0.05593 0.06637
 N391 N 1.01410 0.39993 0.50944
 N392 N 1.04170 0.40951 0.49130
 C393 C 1.04494 0.38712 0.46385
 C394 C 1.01785 0.36263 0.46503
 C395 C 0.99878 0.37126 0.49417
 H396 H 1.06557 0.38820 0.44467
 H397 H 0.97583 0.35751 0.50375
 Cu398 Cu 1.07085 0.44999 0.50564
 Cu399 Cu 1.00051 0.42472 0.55182
 Cu400 Cu 1.05172 0.49709 0.57816
 N401 N 1.10034 0.48970 0.52152
 N402 N 1.09236 0.50852 0.54947
 C403 C 1.11633 0.53483 0.55394
 C404 C 1.14062 0.53202 0.52757
 C405 C 1.12974 0.50332 0.50737
 H406 H 1.11586 0.55476 0.57449
 H407 H 1.14198 0.49362 0.48377
 N408 N 1.00984 0.48091 0.60380
 N409 N 0.99074 0.45300 0.59393
 C410 C 0.96453 0.44828 0.61679
 C411 C 0.96750 0.47424 0.64223
 C412 C 0.99616 0.49470 0.63329
 H413 H 0.94438 0.42788 0.61482
 H414 H 1.00596 0.51807 0.64702
 H415 H 1.02164 0.47310 0.53860
 H416 H 1.05031 0.44418 0.56548
 C417 C 0.35048 0.03264 0.24274
 C418 C 0.32934 -0.00121 0.24812
 C419 C 0.34969 -0.02969 0.25377
 C420 C 0.38965 -0.02180 0.25339
 C421 C 0.37448 0.03665 0.27512
 C422 C 0.39498 0.00825 0.28071
 C423 C 0.37498 0.02463 0.21237
 C424 C 0.39557 -0.00377 0.21793
 H425 H 0.30073 -0.00249 0.24797
 H426 H 0.40628 -0.04508 0.25794
 H427 H 0.37572 0.06015 0.29176
 H428 H 0.37672 0.04062 0.18908
 C429 C 0.14786 -0.03629 0.74348
 C430 C 0.16922 -0.00246 0.75048
 C431 C 0.14917 0.02629 0.75618
 C432 C 0.10911 0.01870 0.75440
 C433 C 0.12375 -0.03981 0.77506
 C434 C 0.10335 -0.01118 0.78083
 C435 C 0.12336 -0.02807 0.71251
 C436 C 0.10311 0.00068 0.71812
 H437 H 0.19781 -0.00117 0.75015
 H438 H 0.09271 0.04216 0.75904
 H439 H 0.12263 -0.06304 0.79123
 H440 H 0.12213 -0.04358 0.68830
 C441 C 0.64791 0.46407 0.24419
 C442 C 0.66917 0.49791 0.25133
 C443 C 0.64901 0.52656 0.25713
 C444 C 0.60899 0.51888 0.25528
 C445 C 0.62381 0.46034 0.27573
 C446 C 0.60332 0.48888 0.28159
 C447 C 0.62343 0.47232 0.21322
 C448 C 0.60309 0.50098 0.21892
 H449 H 0.69776 0.49929 0.25103
 H450 H 0.59252 0.54228 0.26000
 H451 H 0.62281 0.43708 0.29186
 H452 H 0.62229 0.45691 0.18894
 C453 C 0.85116 0.53362 0.74218
 C454 C 0.82996 0.49981 0.74747
 C455 C 0.85024 0.47130 0.75304
 C456 C 0.89020 0.47910 0.75280
 C457 C 0.87510 0.53757 0.77461
 C458 C 0.89554 0.50910 0.78016
 C459 C 0.87568 0.52564 0.71185
 C460 C 0.89619 0.49719 0.71741
 H461 H 0.80135 0.49856 0.74717
 H462 H 0.90678 0.45580 0.75735
 H463 H 0.87639 0.56106 0.79126
 H464 H 0.87743 0.54160 0.68854
 C465 C 0.24249 0.35230 0.03312
 C466 C 0.24789 0.33128 -0.00071
 C467 C 0.25355 0.35169 -0.02908
 C468 C 0.25320 0.39158 -0.02113
 C469 C 0.27499 0.37626 0.03721
 C470 C 0.28056 0.39684 0.00888
 C471 C 0.21207 0.37679 0.02518
 C472 C 0.21768 0.39745 -0.00310
 H473 H 0.24778 0.30270 -0.00204
 H474 H 0.25779 0.40827 -0.04431
 H475 H 0.29166 0.37745 0.06067
 H476 H 0.18872 0.37849 0.04116
 C477 C 0.74397 0.14623 -0.03532
 C478 C 0.75112 0.16753 -0.00156
 C479 C 0.75703 0.14743 0.02707
 C480 C 0.75521 0.10744 0.01947
 C481 C 0.77566 0.12223 -0.03899
 C482 C 0.78156 0.10179 -0.01047
 C483 C 0.71298 0.12170 -0.02702
 C484 C 0.71877 0.10141 0.00161
 H485 H 0.75091 0.19609 -0.00025
 H486 H 0.75997 0.09102 0.04285
 H487 H 0.79181 0.12125 -0.06223
 H488 H 0.68866 0.12043 -0.04243
 C489 C 0.24422 0.64599 0.46438
 C490 C 0.25124 0.66733 0.49813
 C491 C 0.25699 0.64729 0.52683
 C492 C 0.25528 0.60728 0.51927
 C493 C 0.27593 0.62198 0.46085
 C494 C 0.28176 0.60159 0.48945
 C495 C 0.21322 0.62144 0.47261
 C496 C 0.21893 0.60119 0.50128
 H497 H 0.25082 0.69589 0.49943
 H498 H 0.25996 0.59091 0.54271
 H499 H 0.29208 0.62085 0.43761
 H500 H 0.18896 0.62013 0.45710
 C501 C 0.74223 0.85264 0.53325
 C502 C 0.74760 0.83158 0.49945
 C503 C 0.75318 0.85199 0.47106
 C504 C 0.75279 0.89186 0.47894
 C505 C 0.77470 0.87665 0.53724
 C506 C 0.78018 0.89718 0.50886
 C507 C 0.71175 0.87708 0.52534
 C508 C 0.71731 0.89769 0.49701
 H509 H 0.74753 0.80300 0.49814
 H510 H 0.75732 0.90850 0.45571
 H511 H 0.79145 0.87787 0.56066
 H512 H 0.68842 0.87876 0.54133
 C513 C 0.03274 0.24215 0.35150
 C514 C -0.00103 0.24803 0.33042
 C515 C -0.02947 0.25396 0.35072
 C516 C -0.02167 0.25335 0.39056
 C517 C 0.03714 0.27447 0.37557
 C518 C 0.00873 0.28032 0.39600
 C519 C 0.02429 0.21175 0.37579
 C520 C -0.00408 0.21761 0.39634
 H521 H -0.00232 0.24780 0.30189
 H522 H -0.04493 0.25813 0.40714
 H523 H 0.06083 0.29089 0.37685
 H524 H 0.04004 0.18825 0.37753
 C525 C -0.03534 0.74375 0.14679
 C526 C -0.00159 0.75139 0.16805
 C527 C 0.02710 0.75744 0.14800
 C528 C 0.01953 0.75532 0.10806
 C529 C -0.03934 0.77521 0.12259
 C530 C -0.01076 0.78131 0.10221
 C531 C -0.02669 0.71276 0.12253
 C532 C 0.00200 0.71870 0.10228
 H533 H -0.00027 0.75111 0.19657
 H534 H 0.04295 0.76022 0.09167
 H535 H -0.06279 0.79111 0.12149
 H536 H -0.04199 0.68836 0.12131
 C537 C 0.46461 0.24338 0.64826
 C538 C 0.49838 0.25094 0.66956
 C539 C 0.52712 0.25700 0.64956
 C540 C 0.51957 0.25495 0.60959
 C541 C 0.46073 0.27490 0.62409
 C542 C 0.48934 0.28101 0.60373
 C543 C 0.47328 0.21242 0.62394
 C544 C 0.50198 0.21834 0.60370
 H545 H 0.49965 0.25067 0.69809
 H546 H 0.54303 0.25984 0.59325
 H547 H 0.43729 0.29081 0.62294
 H548 H 0.45792 0.18805 0.62264
 C549 C 0.53290 0.74227 0.85152
 C550 C 0.49899 0.74809 0.83067
 C551 C 0.47066 0.75394 0.85115
 C552 C 0.47873 0.75330 0.89096
 C553 C 0.53738 0.77459 0.87560
 C554 C 0.50909 0.78036 0.89624
 C555 C 0.52470 0.71183 0.87585
 C556 C 0.49646 0.71758 0.89659
 H557 H 0.49755 0.74804 0.80215
 H558 H 0.45557 0.75799 0.90770
 H559 H 0.56102 0.79111 0.87669
 H560 H 0.54052 0.68837 0.87743
 C561 C 0.08748 0.23181 0.31055
 C562 C 0.06297 0.23619 0.32940
 C563 C 0.58739 0.73188 0.81023
 C564 C 0.56297 0.73632 0.82919
 C565 C 0.41056 0.76559 0.81811
 C566 C 0.43696 0.76072 0.83513
 C567 C -0.08952 0.26500 0.31738
 C568 C -0.06313 0.26044 0.33451
 C569 C -0.09000 0.73223 0.18850
 C570 C -0.06572 0.73724 0.16916
 C571 C 0.40961 0.23189 0.68975
 C572 C 0.43407 0.23687 0.67055
 C573 C 0.58816 0.26692 0.68308
 C574 C 0.56125 0.26279 0.66609
 C575 C 0.08807 0.76704 0.18151
 C576 C 0.06121 0.76304 0.16449
 C577 C 0.30976 0.08765 0.23277
 C578 C 0.32839 0.06295 0.23709
 C579 C 0.81007 0.58824 0.73214
 C580 C 0.82897 0.56379 0.73651
 C581 C 0.81684 0.41119 0.76359
 C582 C 0.83390 0.43763 0.75908
 C583 C 0.31646 -0.08986 0.26496
 C584 C 0.33344 -0.06337 0.26025
 C585 C 0.18960 -0.09110 0.73245
 C586 C 0.17029 -0.06675 0.73736
 C587 C 0.68979 0.40948 0.23313
 C588 C 0.67041 0.43375 0.23801
 C589 C 0.68240 0.58755 0.26683
 C590 C 0.66547 0.56066 0.26269
 C591 C 0.18266 0.08735 0.76554
 C592 C 0.16573 0.06042 0.76151
 C593 C 0.23231 0.31116 0.08765
 C594 C 0.23673 0.33005 0.06322
 C595 C 0.73246 0.81177 0.58799
 C596 C 0.73664 0.83051 0.56343
 C597 C 0.76445 0.81901 0.41107
 C598 C 0.75968 0.83592 0.43747
 C599 C 0.26472 0.31857 -0.08912
 C600 C 0.26001 0.33555 -0.06271
 C601 C 0.73276 0.18774 -0.09011
 C602 C 0.73768 0.16857 -0.06571
 C603 C 0.23290 0.68781 0.40982
 C604 C 0.23794 0.66840 0.43401
 C605 C 0.26595 0.68085 0.58774
 C606 C 0.26215 0.66384 0.56090
 C607 C 0.76750 0.18089 0.08781
 C608 C 0.76305 0.16390 0.06104
 C609 C 0.48720 0.33337 0.55838
 C610 C 0.48958 0.30925 0.57860
 C611 C -0.01295 0.83375 0.05708
 C612 C -0.01056 0.80956 0.07717
 C613 C 0.02106 0.66914 0.05711
 C614 C 0.01353 0.69238 0.07746
 C615 C 0.52074 0.16899 0.55803
 C616 C 0.51332 0.19212 0.57861
 C617 C -0.02022 0.17077 0.44413
 C618 C -0.01393 0.19289 0.42277
 C619 C 0.48058 0.67041 0.94421
 C620 C 0.48675 0.69269 0.92295
 C621 C 0.51246 0.83323 0.94188
 C622 C 0.50951 0.80885 0.92147
 C623 C 0.01208 0.33325 0.44154
 C624 C 0.00910 0.30882 0.42119
 C625 C 0.33406 0.55618 0.48750
 C626 C 0.30991 0.57637 0.48988
 C627 C 0.83409 0.05670 -0.01258
 C628 C 0.80983 0.07673 -0.01011
 C629 C 0.66913 0.05620 0.02078
 C630 C 0.69238 0.07654 0.01306
 C631 C 0.16925 0.55595 0.52028
 C632 C 0.19253 0.57629 0.51264
 C633 C 0.17054 0.44507 -0.01919
 C634 C 0.19279 0.42383 -0.01279
 C635 C 0.67033 0.94538 0.48085
 C636 C 0.69248 0.92407 0.48731
 C637 C 0.83299 0.94290 0.51186
 C638 C 0.80858 0.92251 0.50894
 C639 C 0.33348 0.44253 0.01211
 C640 C 0.30901 0.42217 0.00910
 C641 C 0.55826 0.48665 0.33408
 C642 C 0.57830 0.48918 0.30986
 C643 C 0.05811 -0.01300 0.83323
 C644 C 0.07823 -0.01068 0.80904
 C645 C 0.05810 0.01999 0.66843
 C646 C 0.07840 0.01222 0.69166
 C647 C 0.55825 0.52021 0.16908
 C648 C 0.57845 0.51253 0.19241
 C649 C 0.44315 -0.01978 0.17072
 C650 C 0.42191 -0.01351 0.19301
 C651 C 0.94336 0.48072 0.67006
 C652 C 0.92229 0.48720 0.69240
 C653 C 0.94112 0.51215 0.83307
 C654 C 0.92079 0.50921 0.80863
 C655 C 0.44062 0.01171 0.33357
 C656 C 0.42026 0.00853 0.30916
   
