data_POSCAR
  _audit_creation_date              2014-09-24
  _audit_creation_method            'ToBaCCo'
  _symmetry_space_group_name_H-M    'P1'
  _symmetry_Int_Tables_number       1
  _symmetry_cell_setting            triclinic
  loop_
  _symmetry_equiv_pos_as_xyz
 x,y,z
_cell_length_a 21.6678
_cell_length_b 21.6679
_cell_length_c 21.6679
_cell_angle_alpha 112.167600
_cell_angle_beta 112.156300
_cell_angle_gamma 112.156000
loop_
  _atom_site_label
  _atom_site_type_symbol
  _atom_site_fract_x
  _atom_site_fract_y
  _atom_site_fract_z
O1 O 0.62219 0.55037 0.03230
 O2 O 0.48815 0.56302 0.09422
 O3 O 0.56142 0.49036 0.09556
 O4 O 0.54932 0.62266 0.03100
 O5 O 0.43643 0.50965 -0.09611
 O6 O 0.44884 0.37733 -0.03171
 O7 O 0.37588 0.44948 -0.03280
 O8 O 0.50977 0.43716 -0.09496
 Cu9 Cu 0.56647 0.56787 0.07605
 Cu10 Cu 0.43153 0.43214 -0.07666
 C11 C 0.58878 0.49088 -0.04163
 C12 C 0.40909 0.50919 0.04099
 C13 C 0.50797 0.41128 0.04260
 C14 C 0.49006 0.58872 -0.04324
 O15 O -0.09406 0.51161 0.43717
 O16 O -0.03215 0.37755 0.44981
 O17 O -0.09547 0.43830 0.50976
 O18 O -0.03091 0.45038 0.37744
 O19 O 0.09619 0.56329 0.49044
 O20 O 0.03181 0.55087 0.62278
 O21 O 0.09510 0.48999 0.56298
 O22 O 0.03294 0.62389 0.55073
 Cu23 Cu -0.07593 0.43325 0.43226
 Cu24 Cu 0.07677 0.56821 0.56799
 C25 C -0.04084 0.59068 0.49105
 C26 C 0.04176 0.41097 0.50930
 C27 C -0.04251 0.49176 0.58884
 C28 C 0.04332 0.50966 0.41138
 O29 O 0.55069 0.03214 0.62397
 O30 O 0.56303 0.09428 0.49012
 O31 O 0.49038 0.09526 0.56328
 O32 O 0.62274 0.03086 0.55089
 O33 O 0.50972 -0.09640 0.43829
 O34 O 0.37741 -0.03186 0.45037
 O35 O 0.44984 -0.03296 0.37765
 O36 O 0.43717 -0.09490 0.51170
 Cu37 Cu 0.56798 0.07590 0.56827
 Cu38 Cu 0.43227 -0.07682 0.43330
 C39 C 0.49097 -0.04163 0.59077
 C40 C 0.50930 0.04098 0.41109
 C41 C 0.41132 0.04237 0.50964
 C42 C 0.58879 -0.04346 0.49175
 O43 O 0.46767 -0.04947 -0.12346
 O44 O 0.40411 -0.06377 0.00909
 O45 O 0.40370 0.00981 -0.06320
 O46 O 0.46809 -0.12268 -0.05142
 O47 O 0.59504 -0.00979 0.06191
 O48 O 0.53062 0.12270 0.05018
 O49 O 0.53105 0.04943 0.12209
 O50 O 0.59456 0.06377 -0.01038
 Cu51 Cu 0.42315 -0.06779 -0.06852
 Cu52 Cu 0.57557 0.06780 0.06723
 C53 C 0.54165 0.01037 -0.08947
 C54 C 0.45708 -0.01036 0.08818
 C55 C 0.45650 0.08885 -0.00926
 C56 C 0.54220 -0.08884 0.00802
 O57 O -0.00912 0.59573 1.06385
 O58 O 0.12342 0.53217 1.04949
 O59 O 0.06321 0.59620 0.99032
 O60 O 0.05145 0.53178 1.12279
 O61 O -0.06190 0.40484 1.00990
 O62 O -0.05014 0.46926 0.87743
 O63 O 0.01036 0.40526 0.93627
 O64 O -0.12211 0.46879 0.95061
 Cu65 Cu 0.06852 0.57672 1.06790
 Cu66 Cu -0.06721 0.42428 0.93230
 C67 C -0.08821 0.54278 1.01039
 C68 C 0.08944 0.45819 0.98962
 C69 C 0.00930 0.54338 0.91128
 C70 C -0.00801 0.45767 1.08895
 O71 O -0.04955 -0.12355 0.46857
 O72 O -0.06392 0.00896 0.40501
 O73 O 0.00973 -0.06325 0.40468
 O74 O -0.12276 -0.05148 0.46912
 O75 O -0.00987 0.06189 0.59604
 O76 O 0.12259 0.05012 0.53163
 O77 O 0.04931 0.12198 0.53194
 O78 O 0.06366 -0.01048 0.59549
 Cu79 Cu -0.06791 -0.06861 0.42410
 Cu80 Cu 0.06767 0.06715 0.57653
 C81 C 0.01033 -0.08957 0.54254
 C82 C -0.01046 0.08805 0.45794
 C83 C 0.08877 -0.00933 0.45751
 C84 C -0.08890 0.00799 0.54324
 C85 C -0.35856 0.48088 0.93438
 C86 C -0.27495 0.53470 0.98710
 C87 C -0.22407 0.51479 0.96706
 C88 C -0.14045 0.56715 1.02097
 H89 H -0.24369 0.59118 1.04785
 H90 H -0.25544 0.45426 0.91022
 H91 H -0.38937 0.42476 0.87357
 H92 H -0.10944 0.62778 1.07744
 C93 C 0.35919 0.51857 1.06384
 C94 C 0.27536 0.46567 1.01105
 C95 C 0.22510 0.48581 1.03216
 C96 C 0.14147 0.43372 0.97859
 H97 H 0.24326 0.40972 0.94947
 H98 H 0.25685 0.54622 1.08935
 H99 H 0.39005 0.57340 1.12565
 H100 H 0.11017 0.37317 0.92184
 C101 C -0.06371 -0.35940 0.48175
 C102 C -0.01097 -0.27557 0.53477
 C103 C -0.03212 -0.22528 0.51476
 C104 C 0.02139 -0.14163 0.56694
 H105 H 0.05059 -0.24348 0.59072
 H106 H -0.08928 -0.25700 0.45434
 H107 H -0.12552 -0.39025 0.42694
 H108 H 0.07811 -0.11035 0.62749
 C109 C 0.06573 0.35832 0.51937
 C110 C 0.01294 0.27470 0.46571
 C111 C 0.03295 0.22386 0.48574
 C112 C -0.02103 0.14024 0.43349
 H113 H -0.04785 0.24341 0.40926
 H114 H 0.08982 0.25528 0.54624
 H115 H 0.12657 0.38916 0.57546
 H116 H -0.07752 0.10920 0.37287
 C117 C 0.48154 -0.06439 -0.35929
 C118 C 0.53437 -0.01149 -0.27546
 C119 C 0.51416 -0.03245 -0.22515
 C120 C 0.56616 0.02129 -0.14151
 H121 H 0.59029 0.05008 -0.24338
 H122 H 0.45379 -0.08966 -0.25688
 H123 H 0.42673 -0.12620 -0.39012
 H124 H 0.62667 0.07805 -0.11024
 C125 C 0.51927 0.06506 0.35850
 C126 C 0.46535 0.01250 0.27488
 C127 C 0.48520 0.03269 0.22405
 C128 C 0.43274 -0.02103 0.14042
 H129 H 0.40881 -0.04822 0.24357
 H130 H 0.54578 0.08947 0.25545
 H131 H 0.57543 0.12585 0.38934
 H132 H 0.37207 -0.07745 0.10937
 C133 C 0.48018 -0.35911 -0.06804
 C134 C 0.53431 -0.27552 -0.01585
 C135 C 0.51437 -0.22473 -0.03599
 C136 C 0.56684 -0.14112 0.01789
 H137 H 0.59098 -0.24412 0.04481
 H138 H 0.45363 -0.25609 -0.09254
 H139 H 0.42388 -0.39013 -0.12880
 H140 H 0.62763 -0.11015 0.07411
 C141 C 0.51792 0.35909 0.06734
 C142 C 0.46403 0.27549 0.01496
 C143 C 0.48410 0.22470 0.03500
 C144 C 0.43180 0.14110 -0.01906
 H145 H 0.40747 0.24409 -0.04579
 H146 H 0.54477 0.25609 0.09164
 H147 H 0.57412 0.39012 0.12818
 H148 H 0.37105 0.11013 -0.07536
 C149 C -0.35906 -0.06825 0.48179
 C150 C -0.27546 -0.01594 0.53570
 C151 C -0.22473 -0.03609 0.51562
 C152 C -0.14113 0.01786 0.56795
 H153 H -0.24403 0.04481 0.59229
 H154 H -0.25614 -0.09272 0.45491
 H155 H -0.39011 -0.12910 0.42557
 H156 H -0.11013 0.07415 0.62872
 C157 C 0.35910 0.06711 0.51950
 C158 C 0.27551 0.01483 0.46538
 C159 C 0.22466 0.03487 0.48531
 C160 C 0.14107 -0.01913 0.43287
 H161 H 0.24416 -0.04583 0.40873
 H162 H 0.25599 0.09145 0.54602
 H163 H 0.39007 0.12787 0.57578
 H164 H 0.11014 -0.07538 0.37211
 C165 C 0.06811 0.51956 1.35920
 C166 C 0.01589 0.46548 1.27560
 C167 C 0.03602 0.48546 1.22482
 C168 C -0.01787 0.43302 1.14121
 H169 H -0.04478 0.40882 1.24420
 H170 H 0.09258 0.54619 1.25620
 H171 H 0.12887 0.57586 1.39022
 H172 H -0.07410 0.37223 1.11024
 C173 C -0.06725 0.48184 0.64103
 C174 C -0.01489 0.53577 0.72463
 C175 C -0.03494 0.51575 0.77543
 C176 C 0.01910 0.56808 0.85903
 H177 H 0.04584 0.59235 0.75602
 H178 H -0.09157 0.45507 0.74405
 H179 H -0.12809 0.42563 0.61001
 H180 H 0.07539 0.62883 0.88999
   
