data_POSCAR
  _audit_creation_date              2014-09-24
  _audit_creation_method            'ToBaCCo'
  _symmetry_space_group_name_H-M    'P1'
  _symmetry_Int_Tables_number       1
  _symmetry_cell_setting            triclinic
  loop_
  _symmetry_equiv_pos_as_xyz
 x,y,z
_cell_length_a 24.2017
_cell_length_b 24.3855
_cell_length_c 24.2527
_cell_angle_alpha 90.126400
_cell_angle_beta 90.102100
_cell_angle_gamma 89.976600
loop_
  _atom_site_label
  _atom_site_type_symbol
  _atom_site_fract_x
  _atom_site_fract_y
  _atom_site_fract_z
C1 C 0.55106 1.00981 -0.38467
 C2 C 0.50095 1.00782 -0.35578
 C3 C 0.44991 1.01061 -0.38237
 C4 C 0.44796 1.01277 -0.44058
 C5 C 0.49791 1.01422 -0.47122
 C6 C 0.54969 1.01427 -0.44322
 C7 C 0.59824 1.01584 -0.47490
 C8 C 0.59631 1.01885 -0.53197
 C9 C 0.54608 1.01460 -0.56088
 C10 C 0.49603 1.01437 -0.53007
 C11 C 0.39740 1.01319 -0.46889
 C12 C 0.39552 1.01170 -0.52600
 C13 C 0.44408 1.01342 -0.55776
 C14 C 0.44245 1.01085 -0.61625
 C15 C 0.49230 1.01073 -0.64549
 C16 C 0.54411 1.01295 -0.61956
 H17 H 0.63878 1.01431 -0.45650
 H18 H 0.63527 1.02433 -0.55276
 H19 H 0.35837 1.01350 -0.44734
 H20 H 0.35511 1.00819 -0.54451
 H21 H 0.50153 1.00555 -0.31108
 H22 H 0.49056 1.00820 -0.69017
 C23 C -0.55568 1.38205 0.00647
 C24 C -0.50610 1.35299 0.00150
 C25 C -0.45571 1.37961 -0.00694
 C26 C -0.45462 1.43738 -0.01226
 C27 C -0.50421 1.46780 -0.00586
 C28 C -0.55479 1.44008 0.00433
 C29 C -0.60264 1.47116 0.01416
 C30 C -0.60165 1.52804 0.01117
 C31 C -0.55276 1.55630 -0.00175
 C32 C -0.50304 1.52613 -0.00840
 C33 C -0.40530 1.46558 -0.02313
 C34 C -0.40448 1.52241 -0.02728
 C35 C -0.45213 1.55400 -0.01713
 C36 C -0.45101 1.61248 -0.01829
 C37 C -0.50156 1.64083 -0.01506
 C38 C -0.55192 1.61405 -0.00657
 H39 H -0.64133 1.45194 0.02516
 H40 H -0.63970 1.54954 0.01997
 H41 H -0.36671 1.44410 -0.02914
 H42 H -0.36586 1.54107 -0.03925
 H43 H -0.50662 1.30859 0.00438
 H44 H -0.50189 1.68528 -0.01578
 C45 C 0.00799 0.38066 0.45043
 C46 C 0.00930 0.35395 0.50166
 C47 C 0.01133 0.38208 0.55220
 C48 C 0.01263 0.44042 0.55147
 C49 C 0.00935 0.46888 0.50041
 C50 C 0.00877 0.43908 0.44979
 C51 C 0.01454 0.46860 0.40030
 C52 C 0.01452 0.52548 0.39970
 C53 C 0.01079 0.55580 0.44873
 C54 C 0.01030 0.52748 0.49984
 C55 C 0.02323 0.47099 0.59957
 C56 C 0.02416 0.52790 0.59895
 C57 C 0.01438 0.55746 0.55020
 C58 C 0.01478 0.61598 0.54932
 C59 C 0.01277 0.64245 0.49792
 C60 C 0.01152 0.61373 0.44807
 H61 H 0.02125 0.44837 0.36126
 H62 H 0.01942 0.54533 0.36019
 H63 H 0.03343 0.45136 0.63817
 H64 H 0.03516 0.54811 0.63707
 H65 H 0.00467 0.30972 0.50234
 H66 H 0.01124 0.68689 0.49629
 O67 O -0.14123 0.99696 -0.08103
 O68 O 0.14173 1.00185 -0.06699
 O69 O 0.00134 1.07321 -0.14106
 O70 O 0.00725 0.92549 -0.14216
 O71 O 0.00321 0.85685 -0.07684
 O72 O -0.00485 1.14023 -0.07399
 O73 O 0.07825 0.99866 -0.13802
 O74 O -0.07150 1.00025 -0.14575
 Zr75 Zr 0.00116 0.99899 -0.09696
 O76 O 0.04958 0.94930 -0.04818
 O77 O -0.05211 1.04770 -0.05222
 C78 C -0.12307 0.99851 -0.13123
 C79 C 0.12829 1.00074 -0.11874
 C80 C -0.00150 1.12390 -0.12493
 C81 C 0.00758 0.87441 -0.12725
 H82 H 0.07199 1.07338 -0.06856
 O83 O 0.04753 1.04923 -0.04685
 H84 H -0.07184 0.92438 -0.07771
 O85 O -0.04977 0.94790 -0.05280
 O86 O 0.13432 0.99949 0.08084
 O87 O -0.14836 0.99425 0.06685
 O88 O 0.06867 1.14097 0.00645
 O89 O 0.07437 0.85777 -0.00125
 O90 O -0.07654 0.85513 -0.00279
 O91 O -0.08105 1.13826 -0.00438
 O92 O -0.00804 1.07080 0.14209
 O93 O -0.00799 0.92267 0.14071
 O94 O -0.00801 1.13903 0.07617
 O95 O -0.00513 0.85544 0.07341
 O96 O 0.13605 1.07421 0.01239
 O97 O -0.14649 1.06937 -0.00697
 O98 O -0.14387 0.92202 -0.00629
 O99 O 0.13930 0.92693 0.00378
 O100 O 0.06453 0.99996 0.14555
 O101 O -0.08514 0.99377 0.13809
 Zr102 Zr 0.09273 0.99976 0.00460
 Zr103 Zr -0.09978 0.99638 -0.00479
 Zr104 Zr -0.00542 1.09521 0.00069
 Zr105 Zr -0.00194 0.90060 -0.00127
 Zr106 Zr -0.00807 0.99701 0.09677
 O107 O -0.05502 0.94643 0.04708
 O108 O 0.04288 1.04836 0.05272
 C109 C 0.11611 0.99974 0.13105
 C110 C -0.13522 0.99387 0.11867
 C111 C 0.11950 1.12478 0.01205
 C112 C 0.12489 0.87576 0.00124
 C113 C -0.12766 0.87133 -0.00510
 C114 C -0.13149 1.12041 -0.00644
 C115 C -0.00749 1.12179 0.12686
 C116 C -0.00616 0.87200 0.12440
 H117 H -0.08108 1.06924 0.07045
 O118 O -0.05616 1.04643 0.04770
 H119 H 0.06778 0.92553 0.07511
 O120 O 0.04444 0.94866 0.05111
 C121 C 0.29863 0.99599 0.28426
 C122 C 0.30249 1.03895 0.32341
 C123 C 0.34948 1.04328 0.35746
 C124 C 0.39317 1.00541 0.35280
 C125 C 0.38919 0.96359 0.31308
 C126 C 0.34267 0.95856 0.27975
 C127 C 0.24893 0.99355 0.24751
 C128 C 0.24151 0.95205 0.20770
 C129 C 0.19700 0.95381 0.17145
 C130 C 0.15836 0.99627 0.17430
 C131 C 0.16320 1.03628 0.21555
 C132 C 0.20851 1.03538 0.25206
 C133 C 0.26019 1.07809 0.32719
 C134 C 0.21440 1.07655 0.29205
 H135 H 0.26302 1.11105 0.35711
 H136 H 0.18342 1.10843 0.29587
 H137 H 0.35304 1.07737 0.38605
 H138 H 0.42218 0.93388 0.30827
 H139 H 0.19286 0.92200 0.14055
 H140 H 0.13326 1.06922 0.21761
 H141 H 0.34268 0.92548 0.25025
 H142 H 0.26982 0.91825 0.20313
 C143 C -0.31928 1.01002 0.27025
 C144 C -0.31806 0.97735 0.31830
 C145 C -0.36327 0.97779 0.35474
 C146 C -0.40862 1.01307 0.34584
 C147 C -0.40808 1.04678 0.29882
 C148 C -0.36431 1.04545 0.26179
 C149 C -0.27225 1.00596 0.23054
 C150 C -0.27366 1.03096 0.17835
 C151 C -0.22920 1.02603 0.14250
 C152 C -0.18169 0.99689 0.15780
 C153 C -0.17987 0.97107 0.20945
 C154 C -0.22556 0.97416 0.24527
 C155 C -0.27154 0.94496 0.32975
 C156 C -0.22568 0.94453 0.29474
 H157 H -0.27013 0.92033 0.36687
 H158 H -0.19036 0.91956 0.30591
 H159 H -0.36363 0.94957 0.38922
 H160 H -0.44157 1.07525 0.29096
 H161 H -0.23187 1.04572 0.10260
 H162 H -0.14376 0.94735 0.22093
 H163 H -0.36633 1.07311 0.22722
 H164 H -0.30905 1.05363 0.16386
 C165 C -0.30560 0.99521 -0.28449
 C166 C -0.30958 1.03852 -0.32303
 C167 C -0.35662 1.04315 -0.35692
 C168 C -0.39983 1.00467 -0.35343
 C169 C -0.39554 0.96224 -0.31458
 C170 C -0.34920 0.95722 -0.28104
 C171 C -0.25605 0.99273 -0.24754
 C172 C -0.24943 0.95191 -0.20708
 C173 C -0.20490 0.95350 -0.17089
 C174 C -0.16536 0.99505 -0.17445
 C175 C -0.16954 1.03449 -0.21616
 C176 C -0.21511 1.03400 -0.25238
 C177 C -0.26713 1.07747 -0.32665
 C178 C -0.22091 1.07523 -0.29214
 H179 H -0.26998 1.11059 -0.35624
 H180 H -0.18962 1.10676 -0.29607
 H181 H -0.36048 1.07784 -0.38458
 H182 H -0.42812 0.93200 -0.31067
 H183 H -0.20151 0.92231 -0.13942
 H184 H -0.13888 1.06681 -0.21869
 H185 H -0.34888 0.92347 -0.25247
 H186 H -0.27852 0.91893 -0.20171
 C187 C 0.31043 1.01394 -0.27241
 C188 C 0.31454 0.97216 -0.31283
 C189 C 0.36004 0.97090 -0.34876
 C190 C 0.40005 1.01248 -0.34687
 C191 C 0.39459 1.05499 -0.30835
 C192 C 0.35048 1.05583 -0.27153
 C193 C 0.26341 1.01192 -0.23247
 C194 C 0.25978 1.04724 -0.18655
 C195 C 0.21579 1.04311 -0.14982
 C196 C 0.17389 1.00448 -0.15844
 C197 C 0.17689 0.96902 -0.20384
 C198 C 0.22209 0.97149 -0.24006
 C199 C 0.27304 0.93233 -0.31734
 C200 C 0.22715 0.93277 -0.28254
 H201 H 0.27573 0.90073 -0.34871
 H202 H 0.19584 0.90146 -0.28809
 H203 H 0.36440 0.93772 -0.37829
 H204 H 0.42508 1.08747 -0.30646
 H205 H 0.21419 1.07057 -0.11465
 H206 H 0.14520 0.93824 -0.20966
 H207 H 0.34838 1.08977 -0.24303
 H208 H 0.29099 1.07753 -0.17756
 C209 C 0.30030 1.27961 0.02293
 C210 C 0.30213 1.32040 -0.01847
 C211 C 0.34872 1.35445 -0.02318
 C212 C 0.39288 1.34971 0.01408
 C213 C 0.38977 1.31104 0.05658
 C214 C 0.34414 1.27645 0.06112
 C215 C 0.25220 1.24094 0.02361
 C216 C 0.24998 1.19497 0.05864
 C217 C 0.20608 1.15814 0.05537
 C218 C 0.16277 1.16671 0.01803
 C219 C 0.16354 1.21300 -0.01608
 C220 C 0.20862 1.24936 -0.01456
 C221 C 0.25775 1.32659 -0.05511
 C222 C 0.21156 1.29246 -0.05254
 H223 H 0.25876 1.35830 -0.08634
 H224 H 0.17839 1.29884 -0.08193
 H225 H 0.35112 1.38412 -0.05633
 H226 H 0.42331 1.30707 0.08594
 H227 H 0.20616 1.12242 0.08190
 H228 H 0.13056 1.21902 -0.04580
 H229 H 0.34423 1.24747 0.09462
 H230 H 0.28244 1.18570 0.08765
 C231 C 0.30768 0.72211 0.00628
 C232 C 0.30613 0.67744 -0.03099
 C233 C 0.35183 0.64200 -0.03521
 C234 C 0.39793 0.64886 -0.00058
 C235 C 0.39776 0.69129 0.03845
 C236 C 0.35340 0.72752 0.04190
 C237 C 0.26045 0.76170 0.00641
 C238 C 0.26238 0.81167 0.03542
 C239 C 0.21823 0.84813 0.03319
 C240 C 0.17037 0.83545 0.00317
 C241 C 0.16784 0.78582 -0.02617
 C242 C 0.21329 0.74968 -0.02609
 C243 C 0.25891 0.66840 -0.06334
 C244 C 0.21291 0.70294 -0.05986
 H245 H 0.25723 0.63372 -0.09131
 H246 H 0.17718 0.69385 -0.08528
 H247 H 0.35172 0.60918 -0.06545
 H248 H 0.43258 0.69677 0.06605
 H249 H 0.22167 0.88667 0.05512
 H250 H 0.13159 0.77652 -0.05081
 H251 H 0.35561 0.75922 0.07290
 H252 H 0.29819 0.82416 0.05879
 C253 C -0.30666 0.71294 -0.01493
 C254 C -0.35300 0.72761 -0.04734
 C255 C -0.39908 0.69291 -0.05022
 C256 C -0.40155 0.64400 -0.01949
 C257 C -0.35596 0.63071 0.01417
 C258 C -0.30899 0.66411 0.01586
 C259 C -0.25835 0.75153 -0.01291
 C260 C -0.20820 0.73921 0.01424
 C261 C -0.16513 0.77756 0.01603
 C262 C -0.17154 0.82929 -0.00829
 C263 C -0.22084 0.84136 -0.03617
 C264 C -0.26343 0.80270 -0.03983
 C265 C -0.35406 0.77775 -0.07532
 C266 C -0.31074 0.81498 -0.07071
 H267 H -0.38967 0.78911 -0.09995
 H268 H -0.31415 0.85387 -0.09203
 H269 H -0.43336 0.70427 -0.07671
 H270 H -0.35735 0.59555 0.04133
 H271 H -0.12724 0.76721 0.03747
 H272 H -0.22596 0.88096 -0.05564
 H273 H -0.27582 0.65206 0.04303
 H274 H -0.20139 0.70016 0.03396
 C275 C -0.31327 1.27404 -0.00048
 C276 C -0.32548 1.30308 -0.04954
 C277 C -0.37179 1.33792 -0.05179
 C278 C -0.40510 1.34544 -0.00512
 C279 C -0.39202 1.31787 0.04372
 C280 C -0.34674 1.28271 0.04622
 C281 C -0.26537 1.23511 -0.00044
 C282 C -0.25299 1.20097 0.04478
 C283 C -0.20896 1.16428 0.04237
 C284 C -0.17591 1.16109 -0.00467
 C285 C -0.18706 1.19499 -0.04985
 C286 C -0.23224 1.23131 -0.04844
 C287 C -0.29142 1.29714 -0.09585
 C288 C -0.24536 1.26262 -0.09505
 H289 H -0.30038 1.31970 -0.13326
 H290 H -0.22025 1.25959 -0.13189
 H291 H -0.38214 1.35906 -0.08972
 H292 H -0.41740 1.32335 0.08009
 H293 H -0.20050 1.13824 0.07751
 H294 H -0.16166 1.19178 -0.08652
 H295 H -0.33880 1.26288 0.08510
 H296 H -0.27723 1.20114 0.08201
 C297 C -0.00147 1.27746 0.30823
 C298 C 0.03279 1.26359 0.35338
 C299 C 0.03663 1.29869 0.39904
 C300 C 0.00530 1.34734 0.40221
 C301 C -0.03110 1.35920 0.35843
 C302 C -0.03387 1.32534 0.31182
 C303 C -0.00312 1.23928 0.25960
 C304 C -0.03118 1.25157 0.21005
 C305 C -0.03188 1.21395 0.16631
 C306 C -0.00557 1.16299 0.17148
 C307 C 0.02313 1.15091 0.22018
 C308 C 0.02572 1.18892 0.26345
 C309 C 0.06217 1.21411 0.35348
 C310 C 0.05771 1.17702 0.31003
 H311 H 0.08806 1.20329 0.38831
 H312 H 0.08029 1.13871 0.31261
 H313 H 0.06488 1.28818 0.43215
 H314 H -0.05882 1.39401 0.36077
 H315 H -0.05396 1.22422 0.12884
 H316 H 0.04436 1.11197 0.22405
 H317 H -0.06270 1.33648 0.27975
 H318 H -0.05228 1.29011 0.20419
 C319 C 0.00599 1.28140 -0.30412
 C320 C 0.03936 1.26706 -0.34977
 C321 C 0.04200 1.30143 -0.39588
 C322 C 0.01096 1.35022 -0.39871
 C323 C -0.02319 1.36361 -0.35368
 C324 C -0.02530 1.33009 -0.30692
 C325 C 0.00427 1.24298 -0.25577
 C326 C -0.02524 1.25425 -0.20684
 C327 C -0.02643 1.21614 -0.16369
 C328 C 0.00115 1.16582 -0.16869
 C329 C 0.03156 1.15488 -0.21658
 C330 C 0.03390 1.19304 -0.25956
 C331 C 0.06916 1.21786 -0.34990
 C332 C 0.06592 1.18133 -0.30609
 H333 H 0.09461 1.20688 -0.38497
 H334 H 0.08902 1.14331 -0.30864
 H335 H 0.06898 1.29020 -0.42976
 H336 H -0.05005 1.39912 -0.35531
 H337 H -0.04991 1.22552 -0.12686
 H338 H 0.05404 1.11654 -0.22022
 H339 H -0.05271 1.34226 -0.27408
 H340 H -0.04753 1.29214 -0.20112
 C341 C 0.02161 0.72254 -0.31120
 C342 C -0.01176 0.67500 -0.30946
 C343 C -0.01418 0.63957 -0.35540
 C344 C 0.01806 0.64957 -0.40275
 C345 C 0.05235 0.69622 -0.40293
 C346 C 0.05430 0.73187 -0.35811
 C347 C 0.02045 0.76123 -0.26314
 C348 C 0.04726 0.81243 -0.26401
 C349 C 0.04321 0.84819 -0.21945
 C350 C 0.01334 0.83382 -0.17221
 C351 C -0.01303 0.78256 -0.17031
 C352 C -0.01080 0.74679 -0.21603
 C353 C -0.04246 0.66326 -0.26193
 C354 C -0.04117 0.69784 -0.21586
 H355 H -0.06763 0.62657 -0.26015
 H356 H -0.06547 0.68677 -0.18009
 H357 H -0.04256 0.60519 -0.35480
 H358 H 0.07897 0.70480 -0.43774
 H359 H 0.06329 0.88771 -0.22221
 H360 H -0.03725 0.77166 -0.13441
 H361 H 0.08213 0.76623 -0.36105
 H362 H 0.07032 0.82649 -0.29922
 C363 C 0.01359 0.71790 0.30462
 C364 C -0.02819 0.67769 0.31015
 C365 C -0.02868 0.64310 0.35656
 C366 C 0.01326 0.64672 0.39654
 C367 C 0.05599 0.68474 0.38932
 C368 C 0.05632 0.71983 0.34409
 C369 C 0.01035 0.75696 0.25713
 C370 C 0.04570 0.80255 0.25237
 C371 C 0.03989 0.83911 0.20879
 C372 C -0.00051 0.83086 0.16826
 C373 C -0.03571 0.78537 0.17183
 C374 C -0.03149 0.74917 0.21690
 C375 C -0.06903 0.67246 0.26939
 C376 C -0.06995 0.70668 0.22321
 H377 H -0.10064 0.64122 0.27310
 H378 H -0.10227 0.70078 0.19277
 H379 H -0.06186 0.61375 0.36199
 H380 H 0.08899 0.68775 0.41943
 H381 H 0.06726 0.87423 0.20664
 H382 H -0.06768 0.77961 0.14098
 H383 H 0.09042 0.74808 0.34091
 H384 H 0.07718 0.81162 0.28254
   
