data_POSCAR
  _audit_creation_date              2014-09-24
  _audit_creation_method            'ToBaCCo'
  _symmetry_space_group_name_H-M    'P1'
  _symmetry_Int_Tables_number       1
  _symmetry_cell_setting            triclinic
  loop_
  _symmetry_equiv_pos_as_xyz
 x,y,z
_cell_length_a 53.8289
_cell_length_b 33.1821
_cell_length_c 20.9456
_cell_angle_alpha 89.941600
_cell_angle_beta 89.912500
_cell_angle_gamma 89.530100
loop_
  _atom_site_label
  _atom_site_type_symbol
  _atom_site_fract_x
  _atom_site_fract_y
  _atom_site_fract_z
C1 C 0.76067 0.29660 0.47099
 C2 C 0.75998 0.29710 0.53596
 C3 C 0.74013 0.31766 0.57292
 C4 C 0.77956 0.27660 0.57371
 C5 C 0.78154 0.27627 0.43731
 C6 C 0.74098 0.31530 0.43064
 C7 C 0.73604 0.35922 0.56784
 C8 C 0.71775 0.37822 0.60496
 C9 C 0.70268 0.35601 0.64802
 C10 C 0.70730 0.31392 0.65212
 C11 C 0.72580 0.29533 0.61567
 C12 C 0.79634 0.29952 0.60922
 C13 C 0.81586 0.28066 0.64168
 C14 C 0.81866 0.23854 0.63974
 C15 C 0.80138 0.21556 0.60553
 C16 C 0.78198 0.23449 0.57266
 C17 C 0.77752 0.23971 0.40583
 C18 C 0.79740 0.21863 0.37839
 C19 C 0.82168 0.23411 0.38092
 C20 C 0.82544 0.27140 0.41132
 C21 C 0.80557 0.29218 0.43949
 C22 C 0.71568 0.30796 0.44175
 C23 C 0.69751 0.32594 0.40326
 C24 C 0.70425 0.35072 0.35155
 C25 C 0.72965 0.35702 0.33951
 C26 C 0.74775 0.33962 0.37870
 H27 H 0.74707 0.37700 0.53512
 H28 H 0.71488 0.41006 0.59673
 H29 H 0.69783 0.29494 0.68613
 H30 H 0.72901 0.26323 0.62101
 H31 H 0.79461 0.33205 0.61057
 H32 H 0.82877 0.29894 0.66838
 H33 H 0.76903 0.21643 0.54567
 H34 H 0.75908 0.22690 0.40431
 H35 H 0.79381 0.18972 0.35655
 H36 H 0.84373 0.28465 0.41320
 H37 H 0.80891 0.32050 0.46351
 H38 H 0.70992 0.28822 0.48007
 H39 H 0.67818 0.32063 0.41447
 H40 H 0.73561 0.37503 0.29929
 H41 H 0.76715 0.34527 0.36848
 H42 H 0.80323 0.18308 0.60304
 C43 C 0.26145 0.79903 0.46461
 C44 C 0.26182 0.79834 0.52965
 C45 C 0.24192 0.81659 0.56992
 C46 C 0.28260 0.77797 0.56363
 C47 C 0.28125 0.77838 0.42758
 C48 C 0.24179 0.81961 0.42671
 C49 C 0.24847 0.84050 0.62242
 C50 C 0.23021 0.85749 0.66164
 C51 C 0.20486 0.85122 0.64913
 C52 C 0.19833 0.82678 0.59696
 C53 C 0.21666 0.80921 0.55834
 C54 C 0.30660 0.79408 0.56219
 C55 C 0.32643 0.77318 0.59025
 C56 C 0.32265 0.73560 0.61986
 C57 C 0.29842 0.71993 0.62174
 C58 C 0.27857 0.74111 0.59438
 C59 C 0.28345 0.73624 0.42860
 C60 C 0.30284 0.71712 0.39590
 C61 C 0.32032 0.73990 0.36182
 C62 C 0.31778 0.78207 0.36006
 C63 C 0.29827 0.80114 0.39237
 C64 C 0.22969 0.79816 0.37836
 C65 C 0.21172 0.81690 0.34047
 C66 C 0.20544 0.85766 0.34986
 C67 C 0.21776 0.87933 0.39795
 C68 C 0.23585 0.86049 0.43593
 H69 H 0.26781 0.84616 0.63304
 H70 H 0.23601 0.87521 0.70223
 H71 H 0.17904 0.82147 0.58546
 H72 H 0.21108 0.78985 0.51944
 H73 H 0.30995 0.82263 0.53874
 H74 H 0.34471 0.78653 0.58890
 H75 H 0.26018 0.72813 0.59529
 H76 H 0.27031 0.71830 0.45530
 H77 H 0.30450 0.68460 0.39828
 H78 H 0.33085 0.80022 0.33348
 H79 H 0.29669 0.83370 0.39099
 H80 H 0.23415 0.76671 0.36997
 H81 H 0.20296 0.79955 0.30311
 H82 H 0.21326 0.91072 0.40654
 H83 H 0.24530 0.87781 0.47220
 H84 H 0.29484 0.69080 0.64297
 C85 C 0.25283 0.21134 -0.46622
 C86 C 0.25032 0.21615 -0.53042
 C87 C 0.27084 0.23298 -0.56926
 C88 C 0.22715 0.20479 -0.56382
 C89 C 0.23467 0.18804 -0.42811
 C90 C 0.27402 0.22917 -0.43134
 C91 C 0.26749 0.26892 -0.60324
 C92 C 0.28757 0.28694 -0.63438
 C93 C 0.31159 0.26919 -0.63275
 C94 C 0.31423 0.23182 -0.60073
 C95 C 0.29418 0.21412 -0.56948
 C96 C 0.20426 0.22128 -0.54506
 C97 C 0.18232 0.20946 -0.57494
 C98 C 0.18261 0.18064 -0.62470
 C99 C 0.20602 0.16498 -0.64387
 C100 C 0.22792 0.17711 -0.61406
 C101 C 0.22978 0.14769 -0.44272
 C102 C 0.21295 0.12566 -0.40603
 C103 C 0.20033 0.14360 -0.35390
 C104 C 0.20575 0.18423 -0.33943
 C105 C 0.22281 0.20593 -0.37576
 C106 C 0.28993 0.20454 -0.39516
 C107 C 0.31031 0.22112 -0.36375
 C108 C 0.31489 0.26271 -0.36736
 C109 C 0.29863 0.28740 -0.40272
 C110 C 0.27835 0.27078 -0.43433
 H111 H 0.24956 0.28399 -0.60324
 H112 H 0.28422 0.31597 -0.65628
 H113 H 0.33162 0.21530 -0.60055
 H114 H 0.29694 0.18581 -0.54457
 H115 H 0.20340 0.24349 -0.50724
 H116 H 0.16534 0.22422 -0.55983
 H117 H 0.24547 0.16388 -0.62890
 H118 H 0.23901 0.13324 -0.48267
 H119 H 0.20918 0.09510 -0.42077
 H120 H 0.19764 0.19921 -0.29850
 H121 H 0.22670 0.23691 -0.36316
 H122 H 0.28676 0.17240 -0.39207
 H123 H 0.32237 0.20153 -0.33612
 H124 H 0.30181 0.31949 -0.40664
 H125 H 0.26605 0.29032 -0.46139
 H126 H 0.20770 0.14174 -0.67975
 C127 C -0.25160 0.72233 -0.47251
 C128 C -0.24879 0.71458 -0.53598
 C129 C -0.22748 0.73126 -0.57202
 C130 C -0.26673 0.69003 -0.57259
 C131 C -0.27481 0.71264 -0.43713
 C132 C -0.23095 0.74064 -0.43596
 C133 C -0.22441 0.77299 -0.57667
 C134 C -0.20414 0.78889 -0.60943
 C135 C -0.18624 0.76337 -0.63842
 C136 C -0.18972 0.72125 -0.63355
 C137 C -0.21022 0.70551 -0.60129
 C138 C -0.27746 0.70575 -0.62817
 C139 C -0.29445 0.68320 -0.66307
 C140 C -0.30101 0.64381 -0.64389
 C141 C -0.28946 0.62786 -0.58865
 C142 C -0.27265 0.65080 -0.55338
 C143 C -0.27347 0.69377 -0.37745
 C144 C -0.29506 0.68403 -0.34402
 C145 C -0.31891 0.69255 -0.36944
 C146 C -0.31992 0.71288 -0.42884
 C147 C -0.29823 0.72306 -0.46168
 C148 C -0.20795 0.72068 -0.43185
 C149 C -0.18787 0.73905 -0.40187
 C150 C -0.19038 0.77783 -0.37545
 C151 C -0.21373 0.79721 -0.37793
 C152 C -0.23389 0.77864 -0.40765
 H153 H -0.23766 0.79331 -0.55433
 H154 H -0.20215 0.82128 -0.60921
 H155 H -0.17723 0.70011 -0.65660
 H156 H -0.21249 0.67314 -0.59853
 H157 H -0.27281 0.73579 -0.64435
 H158 H -0.30165 0.69651 -0.70649
 H159 H -0.26430 0.63797 -0.51087
 H160 H -0.25560 0.68630 -0.35664
 H161 H -0.29264 0.67084 -0.29725
 H162 H -0.33733 0.71972 -0.45218
 H163 H -0.29979 0.73881 -0.50681
 H164 H -0.20548 0.69106 -0.45273
 H165 H -0.17035 0.72288 -0.39949
 H166 H -0.21624 0.82721 -0.35858
 H167 H -0.25154 0.79444 -0.41051
 H168 H -0.29408 0.59835 -0.57048
 O169 O -0.04312 0.92490 0.11895
 O170 O -0.07035 0.96365 0.06064
 C171 C -0.06541 0.93732 0.10463
 O172 O 0.02946 1.06342 0.10730
 O173 O 0.05512 1.02391 0.04552
 C174 C 0.05134 1.05185 0.08762
 O175 O -0.04074 1.06507 0.11807
 O176 O -0.06910 1.03032 0.05850
 C177 C -0.06341 1.05635 0.10203
 O178 O 0.02644 0.91677 0.10679
 O179 O 0.05385 0.95452 0.04819
 C180 C 0.04879 0.92681 0.08991
 Zr181 Zr -0.00829 0.94145 0.07934
 O182 O -0.00469 0.93887 0.17985
 O183 O -0.01069 0.87806 0.07265
 Zr184 Zr -0.00648 1.04333 0.07998
 O185 O -0.00267 1.04232 0.18058
 O186 O -0.00787 1.10712 0.08078
 O187 O -0.02932 0.99372 0.09420
 O188 O 0.01431 0.99112 0.08938
 O189 O 0.02351 0.91614 -0.11418
 O190 O 0.05220 0.95398 -0.06063
 C191 C 0.04621 0.92595 -0.10079
 O192 O -0.04372 1.06487 -0.11351
 O193 O -0.07073 1.02914 -0.05104
 C194 C -0.06599 1.05518 -0.09543
 O195 O 0.02589 1.06684 -0.11083
 O196 O 0.05350 1.02460 -0.06019
 C197 C 0.04826 1.05450 -0.09793
 O198 O -0.04602 0.92477 -0.11430
 O199 O -0.07172 0.96222 -0.04972
 C200 C -0.06793 0.93620 -0.09491
 Zr201 Zr -0.01030 0.94175 -0.08153
 O202 O -0.00878 0.94234 -0.18254
 O203 O -0.01381 0.87828 -0.08109
 Zr204 Zr -0.00865 1.04338 -0.08172
 O205 O -0.00667 1.04031 -0.18263
 O206 O -0.01060 1.10694 -0.08743
 Zr207 Zr -0.04523 0.99479 0.00234
 Zr208 Zr 0.02861 0.99050 -0.00426
 O209 O 0.01209 0.99144 -0.09523
 O210 O -0.03180 0.99387 -0.09221
 O211 O 0.01283 0.93261 -0.00293
 O212 O -0.02886 1.05213 0.00095
 O213 O -0.03108 0.93555 0.00095
 O214 O 0.01459 1.05007 -0.00279
 H215 H 0.02591 0.99044 0.12606
 H216 H -0.03958 1.07654 0.00158
 H217 H 0.02303 0.99107 -0.13333
 H218 H -0.04279 0.91267 0.00222
 H219 H 0.00643 1.11691 0.05559
 H220 H -0.00104 1.11749 -0.05095
 H221 H -0.02252 1.02905 -0.19810
 H222 H -0.02274 0.95932 -0.19786
 H223 H -0.00209 0.86767 -0.04871
 H224 H -0.01045 0.86784 0.11711
 H225 H -0.01615 0.95936 0.19782
 H226 H -0.01729 1.02830 0.19829
 O227 O 0.45379 0.42593 0.11641
 O228 O 0.42814 0.46243 0.05052
 C229 C 0.43189 0.43700 0.09664
 O230 O 0.52635 0.56560 0.10980
 O231 O 0.55369 0.52307 0.05873
 C232 C 0.54862 0.55300 0.09651
 O233 O 0.45672 0.56480 0.11270
 O234 O 0.42946 0.52930 0.05092
 C235 C 0.43438 0.55536 0.09505
 O236 O 0.52316 0.41656 0.11628
 O237 O 0.55203 0.45285 0.06034
 C238 C 0.54590 0.42564 0.10186
 Zr239 Zr 0.48945 0.44120 0.08137
 O240 O 0.48854 0.43631 0.18204
 O241 O 0.48725 0.37792 0.07206
 Zr242 Zr 0.49166 0.54307 0.08024
 O243 O 0.49329 0.54196 0.18123
 O244 O 0.48998 0.60677 0.08237
 O245 O 0.46839 0.49379 0.09186
 O246 O 0.51204 0.49080 0.09442
 O247 O 0.52601 0.41465 -0.10600
 O248 O 0.55359 0.45268 -0.04860
 C249 C 0.54839 0.42470 -0.08957
 O250 O 0.45956 0.56420 -0.11925
 O251 O 0.43104 0.53023 -0.05865
 C252 C 0.43685 0.55594 -0.10270
 O253 O 0.52977 0.56144 -0.11007
 O254 O 0.55506 0.52167 -0.04803
 C255 C 0.55158 0.54904 -0.09125
 O256 O 0.45640 0.42382 -0.11764
 O257 O 0.42940 0.46330 -0.05982
 C258 C 0.43417 0.43652 -0.10324
 Zr259 Zr 0.49135 0.44032 -0.07924
 O260 O 0.49527 0.43929 -0.17980
 O261 O 0.48742 0.37690 -0.07782
 Zr262 Zr 0.49374 0.54216 -0.08126
 O263 O 0.49739 0.54080 -0.18191
 O264 O 0.49273 0.60596 -0.08240
 Zr265 Zr 0.45474 0.49447 -0.00243
 Zr266 Zr 0.52858 0.48916 0.00343
 O267 O 0.51421 0.48956 -0.09011
 O268 O 0.47057 0.49281 -0.09452
 O269 O 0.51253 0.43143 0.00299
 O270 O 0.47140 0.55162 -0.00218
 O271 O 0.46853 0.43502 -0.00044
 O272 O 0.51498 0.54895 0.00107
 H273 H 0.52295 0.49065 0.13246
 H274 H 0.46078 0.57614 -0.00294
 H275 H 0.52577 0.48843 -0.12694
 H276 H 0.45666 0.41235 -0.00109
 H277 H 0.50161 0.61665 0.04943
 H278 H 0.50728 0.61555 -0.05812
 H279 H 0.48283 0.52645 -0.19913
 H280 H 0.48233 0.45732 -0.19774
 H281 H 0.49937 0.36616 -0.04610
 H282 H 0.48586 0.36716 0.11604
 H283 H 0.49368 0.46259 0.19943
 H284 H 0.47825 0.52803 0.19673
 C285 C 0.32962 0.31666 0.28858
 C286 C 0.35029 0.33575 0.26126
 C287 C 0.37438 0.32673 0.28397
 C288 C 0.37742 0.29907 0.33373
 C289 C 0.35685 0.28029 0.36086
 C290 C 0.33247 0.28844 0.33889
 C291 C 0.39510 0.34544 0.25657
 C292 C 0.39205 0.37308 0.20648
 C293 C 0.36795 0.38232 0.18379
 C294 C 0.34722 0.36358 0.21125
 C295 C 0.36501 0.41004 0.13377
 C296 C 0.38575 0.42815 0.10604
 C297 C 0.40986 0.41888 0.12775
 C298 C 0.41279 0.39140 0.17843
 H299 H 0.31152 0.32296 0.26840
 H300 H 0.39576 0.29217 0.35223
 H301 H 0.36035 0.26060 0.40104
 H302 H 0.41359 0.33834 0.27406
 H303 H 0.32874 0.37060 0.19366
 H304 H 0.34668 0.41753 0.11579
 H305 H 0.38286 0.44917 0.06711
 H306 H 0.43121 0.38393 0.19585
 C307 C -0.16675 0.81813 0.30005
 C308 C -0.14625 0.83437 0.26794
 C309 C -0.12378 0.81226 0.26449
 C310 C -0.12230 0.77405 0.29259
 C311 C -0.14284 0.75781 0.32394
 C312 C -0.16545 0.77958 0.32877
 C313 C -0.10320 0.82861 0.23276
 C314 C -0.10498 0.86660 0.20357
 C315 C -0.12763 0.88845 0.20622
 C316 C -0.14805 0.87233 0.23868
 C317 C -0.12955 0.92602 0.17598
 C318 C -0.10928 0.94176 0.14302
 C319 C -0.08661 0.92047 0.14034
 C320 C -0.08454 0.88295 0.17116
 H321 H -0.18398 0.83517 0.29992
 H322 H -0.10516 0.75671 0.29063
 H323 H -0.14042 0.72878 0.34669
 H324 H -0.08591 0.81166 0.23037
 H325 H -0.16537 0.88922 0.24088
 H326 H -0.14677 0.94315 0.17752
 H327 H -0.11130 0.97085 0.11999
 H328 H -0.06721 0.86613 0.16891
 C329 C 0.66221 0.64118 0.28637
 C330 C 0.64430 0.61944 0.25264
 C331 C 0.64519 0.57691 0.25233
 C332 C 0.66394 0.55689 0.28648
 C333 C 0.68156 0.57873 0.32088
 C334 C 0.68116 0.62135 0.32128
 C335 C 0.62715 0.55519 0.21866
 C336 C 0.60788 0.57559 0.18660
 C337 C 0.60685 0.61822 0.18802
 C338 C 0.62519 0.63981 0.22029
 C339 C 0.58718 0.63866 0.15815
 C340 C 0.56840 0.61713 0.12810
 C341 C 0.56928 0.57489 0.12598
 C342 C 0.58925 0.55418 0.15449
 H343 H 0.66041 0.67369 0.28768
 H344 H 0.66497 0.52426 0.28674
 H345 H 0.69602 0.56184 0.34503
 H346 H 0.62782 0.52253 0.21845
 H347 H 0.62436 0.67249 0.22110
 H348 H 0.58609 0.67128 0.15898
 H349 H 0.55314 0.63350 0.10622
 H350 H 0.58974 0.52156 0.15377
 C351 C 0.16015 1.15099 0.28390
 C352 C 0.13824 1.13657 0.25612
 C353 C 0.11563 1.13885 0.29013
 C354 C 0.11530 1.15575 0.35127
 C355 C 0.13718 1.16977 0.37897
 C356 C 0.16017 1.16746 0.34620
 C357 C 0.09377 1.12388 0.26276
 C358 C 0.09433 1.10625 0.20188
 C359 C 0.11702 1.10411 0.16781
 C360 C 0.13874 1.11955 0.19487
 C361 C 0.11770 1.08603 0.10746
 C362 C 0.09624 1.06954 0.08144
 C363 C 0.07358 1.07118 0.11491
 C364 C 0.07268 1.09011 0.17491
 H365 H 0.17694 1.15025 0.25547
 H366 H 0.09814 1.15751 0.37829
 H367 H 0.13592 1.18065 0.42748
 H368 H 0.07642 1.12550 0.28910
 H369 H 0.15612 1.11775 0.16864
 H370 H 0.13491 1.08422 0.08065
 H371 H 0.09739 1.05545 0.03489
 H372 H 0.05535 1.09130 0.20131
 C373 C 0.66440 0.35201 -0.29025
 C374 C 0.64602 0.37036 -0.25236
 C375 C 0.64755 0.41175 -0.23786
 C376 C 0.66721 0.43424 -0.26255
 C377 C 0.68529 0.41602 -0.30113
 C378 C 0.68460 0.37426 -0.31549
 C379 C 0.62924 0.43008 -0.19959
 C380 C 0.60903 0.40762 -0.17715
 C381 C 0.60721 0.36632 -0.19292
 C382 C 0.62585 0.34786 -0.22972
 C383 C 0.58650 0.34431 -0.17268
 C384 C 0.56749 0.36322 -0.13819
 C385 C 0.56921 0.40411 -0.12192
 C386 C 0.59021 0.42604 -0.14072
 H387 H 0.66179 0.32070 -0.30261
 H388 H 0.66871 0.46607 -0.25177
 H389 H 0.70048 0.43487 -0.31618
 H390 H 0.63049 0.46190 -0.18825
 H391 H 0.62448 0.31613 -0.24149
 H392 H 0.58476 0.31270 -0.18462
 H393 H 0.55138 0.34593 -0.12423
 H394 H 0.59137 0.45782 -0.12932
 C395 C 0.16320 0.84980 -0.29581
 C396 C 0.14487 0.86775 -0.25715
 C397 C 0.14898 0.90628 -0.23062
 C398 C 0.17115 0.92643 -0.24398
 C399 C 0.18908 0.90871 -0.28344
 C400 C 0.18545 0.87012 -0.30955
 C401 C 0.13079 0.92424 -0.19172
 C402 C 0.10823 0.90464 -0.18037
 C403 C 0.10394 0.86635 -0.20762
 C404 C 0.12242 0.84791 -0.24510
 C405 C 0.08106 0.84744 -0.19772
 C406 C 0.06239 0.86662 -0.16234
 C407 C 0.06645 0.90468 -0.13506
 C408 C 0.08963 0.92318 -0.14337
 H409 H 0.16018 0.81984 -0.31464
 H410 H 0.17454 0.95608 -0.22438
 H411 H 0.20572 0.92556 -0.29407
 H412 H 0.13405 0.95367 -0.17106
 H413 H 0.11915 0.81847 -0.26578
 H414 H 0.07744 0.81811 -0.21827
 H415 H 0.04473 0.85167 -0.15637
 H416 H 0.09294 0.95258 -0.12278
 C417 C 0.34053 0.68987 -0.29578
 C418 C 0.36027 0.66753 -0.26952
 C419 C 0.38393 0.66836 -0.29882
 C420 C 0.38731 0.69116 -0.35451
 C421 C 0.36745 0.71290 -0.38090
 C422 C 0.34385 0.71264 -0.35181
 C423 C 0.40377 0.64637 -0.27204
 C424 C 0.40014 0.62325 -0.21663
 C425 C 0.37631 0.62201 -0.18812
 C426 C 0.35662 0.64430 -0.21446
 C427 C 0.37252 0.59852 -0.13351
 C428 C 0.39215 0.57668 -0.10681
 C429 C 0.41610 0.57805 -0.13383
 C430 C 0.41993 0.60140 -0.18909
 H431 H 0.32263 0.68977 -0.27209
 H432 H 0.40525 0.69195 -0.37795
 H433 H 0.37053 0.72947 -0.42471
 H434 H 0.42196 0.64722 -0.29430
 H435 H 0.33842 0.64347 -0.19219
 H436 H 0.35437 0.59717 -0.11118
 H437 H 0.38859 0.55918 -0.06414
 H438 H 0.43823 0.60261 -0.21061
 C439 C -0.16404 1.18425 -0.28975
 C440 C -0.14403 1.16544 -0.25855
 C441 C -0.11980 1.18105 -0.26576
 C442 C -0.11606 1.21535 -0.30354
 C443 C -0.13612 1.23409 -0.33393
 C444 C -0.16022 1.21869 -0.32743
 C445 C -0.09973 1.16219 -0.23507
 C446 C -0.10357 1.12810 -0.19682
 C447 C -0.12781 1.11275 -0.18899
 C448 C -0.14788 1.13142 -0.22011
 C449 C -0.13157 1.07895 -0.15007
 C450 C -0.11149 1.06042 -0.11933
 C451 C -0.08727 1.07520 -0.12729
 C452 C -0.08349 1.10916 -0.16619
 H453 H -0.18264 1.17246 -0.28406
 H454 H -0.09763 1.22768 -0.30962
 H455 H -0.13276 1.26037 -0.36333
 H456 H -0.08114 1.17408 -0.24083
 H457 H -0.16647 1.11955 -0.21431
 H458 H -0.15002 1.06682 -0.14343
 H459 H -0.11494 1.03424 -0.08979
 H460 H -0.06495 1.12106 -0.17241
 C461 C 0.65954 0.64881 -0.29176
 C462 C 0.63796 0.63656 -0.25986
 C463 C 0.61502 0.65561 -0.27310
 C464 C 0.61419 0.68717 -0.31743
 C465 C 0.63582 0.69962 -0.34861
 C466 C 0.65903 0.68063 -0.33678
 C467 C 0.59332 0.64266 -0.24200
 C468 C 0.59441 0.61101 -0.19744
 C469 C 0.61758 0.59253 -0.18364
 C470 C 0.63910 0.60522 -0.21510
 C471 C 0.61892 0.56147 -0.13863
 C472 C 0.59751 0.54834 -0.10793
 C473 C 0.57416 0.56560 -0.12201
 C474 C 0.57278 0.59727 -0.16672
 H475 H 0.67642 0.63188 -0.28281
 H476 H 0.59681 0.70251 -0.32773
 H477 H 0.63412 0.72516 -0.38035
 H478 H 0.57565 0.65710 -0.25257
 H479 H 0.65676 0.59069 -0.20467
 H480 H 0.63654 0.54714 -0.12734
 H481 H 0.59932 0.52406 -0.07363
 H482 H 0.55498 0.61101 -0.17789
 C483 C 0.16269 1.14189 -0.28684
 C484 C 0.14478 1.12054 -0.25220
 C485 C 0.14670 1.07823 -0.24664
 C486 C 0.16645 1.05798 -0.27650
 C487 C 0.18404 1.07933 -0.31186
 C488 C 0.18259 1.12175 -0.31764
 C489 C 0.12868 1.05688 -0.21217
 C490 C 0.10840 1.07731 -0.18458
 C491 C 0.10632 1.11965 -0.19124
 C492 C 0.12465 1.14100 -0.22423
 C493 C 0.08566 1.13998 -0.16586
 C494 C 0.06693 1.11854 -0.13518
 C495 C 0.06882 1.07657 -0.12797
 C496 C 0.08979 1.05609 -0.15186
 H497 H 0.16015 1.17411 -0.29225
 H498 H 0.16828 1.02553 -0.27271
 H499 H 0.19928 1.06234 -0.33253
 H500 H 0.13016 1.02438 -0.20793
 H501 H 0.12302 1.17347 -0.22907
 H502 H 0.08376 1.17237 -0.17071
 H503 H 0.05092 1.13481 -0.11682
 H504 H 0.09114 1.02365 -0.14708
 C505 C 0.33384 0.31648 -0.29978
 C506 C 0.35424 0.33343 -0.26847
 C507 C 0.37775 0.31419 -0.27192
 C508 C 0.38037 0.27819 -0.30636
 C509 C 0.35991 0.26138 -0.33709
 C510 C 0.33651 0.28038 -0.33423
 C511 C 0.39819 0.33114 -0.24078
 C512 C 0.39539 0.36692 -0.20577
 C513 C 0.37183 0.38597 -0.20197
 C514 C 0.35144 0.36921 -0.23354
 C515 C 0.36902 0.42142 -0.16633
 C516 C 0.38931 0.43781 -0.13443
 C517 C 0.41285 0.41921 -0.13792
 C518 C 0.41575 0.38379 -0.17406
 H519 H 0.31578 0.33107 -0.29664
 H520 H 0.39824 0.26305 -0.30956
 H521 H 0.36245 0.23377 -0.36392
 H522 H 0.41623 0.31641 -0.24352
 H523 H 0.33339 0.38389 -0.23069
 H524 H 0.35111 0.43641 -0.16291
 H525 H 0.38655 0.46522 -0.10719
 H526 H 0.43376 0.36901 -0.17684
 C527 C -0.17110 0.82165 -0.29121
 C528 C -0.15037 0.84046 -0.26400
 C529 C -0.12670 0.83561 -0.29252
 C530 C -0.12422 0.81248 -0.34809
 C531 C -0.14493 0.79403 -0.37500
 C532 C -0.16855 0.79812 -0.34674
 C533 C -0.10588 0.85381 -0.26499
 C534 C -0.10839 0.87694 -0.20930
 C535 C -0.13210 0.88224 -0.18121
 C536 C -0.15292 0.86390 -0.20862
 C537 C -0.13457 0.90570 -0.12594
 C538 C -0.11375 0.92350 -0.09841
 C539 C -0.09000 0.91802 -0.12537
 C540 C -0.08753 0.89474 -0.18114
 H541 H -0.18912 0.82478 -0.26853
 H542 H -0.10626 0.80867 -0.37084
 H543 H -0.14247 0.77683 -0.41848
 H544 H -0.08772 0.84988 -0.28677
 H545 H -0.17107 0.86780 -0.18680
 H546 H -0.15259 0.91017 -0.10383
 H547 H -0.11626 0.94122 -0.05544
 H548 H -0.06939 0.89047 -0.20277
 C549 C 0.33723 0.68560 0.29080
 C550 C 0.35711 0.66650 0.25940
 C551 C 0.38146 0.68153 0.26669
 C552 C 0.38546 0.71558 0.30473
 C553 C 0.36553 0.73463 0.33531
 C554 C 0.34130 0.71978 0.32877
 C555 C 0.40140 0.66236 0.23580
 C556 C 0.39731 0.62855 0.19725
 C557 C 0.37294 0.61378 0.18933
 C558 C 0.35300 0.63275 0.22067
 C559 C 0.36894 0.58027 0.15010
 C560 C 0.38888 0.56146 0.11913
 C561 C 0.41323 0.57567 0.12716
 C562 C 0.41725 0.60933 0.16639
 H563 H 0.31853 0.67424 0.28506
 H564 H 0.40399 0.72748 0.31085
 H565 H 0.36907 0.76071 0.36489
 H566 H 0.42009 0.67381 0.24164
 H567 H 0.33432 0.62131 0.21481
 H568 H 0.35039 0.56858 0.14337
 H569 H 0.38524 0.53553 0.08932
 H570 H 0.43589 0.62079 0.17270
 C571 C -0.16029 1.18879 0.29614
 C572 C -0.14047 1.16672 0.26963
 C573 C -0.11683 1.16761 0.29886
 C574 C -0.11357 1.19014 0.35476
 C575 C -0.13350 1.21156 0.38144
 C576 C -0.15707 1.21132 0.35238
 C577 C -0.09690 1.14595 0.27181
 C578 C -0.10041 1.12302 0.21627
 C579 C -0.12422 1.12165 0.18786
 C580 C -0.14401 1.14368 0.21441
 C581 C -0.12790 1.09829 0.13315
 C582 C -0.10818 1.07670 0.10630
 C583 C -0.08426 1.07823 0.13323
 C584 C -0.08053 1.10147 0.18853
 H585 H -0.17816 1.18869 0.27244
 H586 H -0.09564 1.19095 0.37816
 H587 H -0.13050 1.22788 0.42543
 H588 H -0.07872 1.14688 0.29400
 H589 H -0.16220 1.14277 0.19221
 H590 H -0.14603 1.09683 0.11090
 H591 H -0.11165 1.05927 0.06358
 H592 H -0.06225 1.10277 0.20999
 C593 C 0.66275 0.34943 0.29626
 C594 C 0.64445 0.36748 0.25783
 C595 C 0.64856 0.40608 0.23139
 C596 C 0.67071 0.42624 0.24481
 C597 C 0.68861 0.40842 0.28417
 C598 C 0.68496 0.36975 0.31012
 C599 C 0.63038 0.42406 0.19255
 C600 C 0.60782 0.40445 0.18137
 C601 C 0.60351 0.36618 0.20881
 C602 C 0.62199 0.34767 0.24604
 C603 C 0.58059 0.34733 0.19937
 C604 C 0.56192 0.36656 0.16415
 C605 C 0.56605 0.40451 0.13647
 C606 C 0.58925 0.42295 0.14437
 H607 H 0.65972 0.31940 0.31491
 H608 H 0.67407 0.45600 0.22543
 H609 H 0.70523 0.42526 0.29490
 H610 H 0.63364 0.45353 0.17187
 H611 H 0.61872 0.31821 0.26677
 H612 H 0.57695 0.31804 0.22012
 H613 H 0.54423 0.35168 0.15846
 H614 H 0.59260 0.45225 0.12334
 C615 C 0.16460 0.85592 0.29252
 C616 C 0.14662 0.87342 0.25257
 C617 C 0.15005 0.91291 0.22894
 C618 C 0.17145 0.93420 0.24598
 C619 C 0.18931 0.91650 0.28582
 C620 C 0.18615 0.87714 0.30925
 C621 C 0.13198 0.93047 0.18907
 C622 C 0.11039 0.90917 0.17329
 C623 C 0.10702 0.86970 0.19725
 C624 C 0.12521 0.85201 0.23628
 C625 C 0.08524 0.84877 0.18282
 C626 C 0.06661 0.86711 0.14648
 C627 C 0.06961 0.90638 0.12280
 C628 C 0.09179 0.92704 0.13536
 H629 H 0.16171 0.82582 0.31110
 H630 H 0.17442 0.96449 0.22833
 H631 H 0.20585 0.93334 0.29735
 H632 H 0.13456 0.96082 0.17108
 H633 H 0.12255 0.82175 0.25461
 H634 H 0.08237 0.81853 0.20080
 H635 H 0.04968 0.85067 0.13732
 H636 H 0.09410 0.95759 0.11803
   
