data_POSCAR
  _audit_creation_date              2014-09-24
  _audit_creation_method            'ToBaCCo'
  _symmetry_space_group_name_H-M    'P1'
  _symmetry_Int_Tables_number       1
  _symmetry_cell_setting            triclinic
  loop_
  _symmetry_equiv_pos_as_xyz
 x,y,z
_cell_length_a 30.6690
_cell_length_b 30.1715
_cell_length_c 16.6044
_cell_angle_alpha 89.872000
_cell_angle_beta 90.063900
_cell_angle_gamma 120.704300
loop_
  _atom_site_label
  _atom_site_type_symbol
  _atom_site_fract_x
  _atom_site_fract_y
  _atom_site_fract_z
C1 C 0.45791 0.84329 0.54331
 C2 C 0.45823 0.84279 0.46064
 C3 C 0.47192 0.89209 0.43586
 N4 N 0.47983 0.92258 0.50014
 C5 C 0.47146 0.89295 0.56596
 C6 C 0.47226 0.90712 0.35554
 C7 C 0.49033 0.95862 0.33231
 C8 C 0.47951 0.97313 0.25927
 C9 C 0.50525 1.02599 0.25827
 C10 C 0.53200 1.04251 0.33024
 N11 N 0.52223 1.00107 0.37547
 C12 C 0.56578 1.09464 0.35158
 C13 C 0.58040 1.10947 0.43257
 C14 C 0.62384 1.15422 0.45616
 C15 C 0.62395 1.15440 0.53862
 C16 C 0.57992 1.11015 0.56330
 N17 N 0.55377 1.08224 0.49800
 C18 C 0.56287 1.09630 0.64417
 C19 C 0.52552 1.04440 0.66302
 C20 C 0.49358 1.02826 0.72962
 C21 C 0.46854 0.97542 0.73103
 C22 C 0.48413 0.96022 0.66364
 N23 N 0.51847 1.00246 0.62199
 C24 C 0.46960 0.90876 0.64501
 H25 H 0.44702 0.81031 0.58187
 H26 H 0.44819 0.80964 0.42310
 H27 H 0.54041 1.00281 0.57381
 H28 H 0.45512 0.94818 0.21186
 H29 H 0.50376 1.04937 0.21008
 H30 H 0.65343 1.18290 0.41796
 H31 H 0.65430 1.18323 0.57524
 H32 H 0.44168 0.95138 0.77665
 H33 H 0.54028 1.00193 0.42911
 H34 H 0.48825 1.05173 0.77306
 C35 C -0.15576 0.42766 0.54280
 C36 C -0.15581 0.42594 0.46053
 C37 C -0.10857 0.46515 0.43515
 N38 N -0.07943 0.49054 0.49979
 C39 C -0.10845 0.46778 0.56581
 C40 C -0.09273 0.47624 0.35352
 C41 C -0.04084 0.50720 0.33204
 C42 C -0.02326 0.53170 0.25826
 C43 C 0.02840 0.55337 0.25835
 C44 C 0.04142 0.54265 0.33282
 N45 N -0.00105 0.51463 0.37761
 C46 C 0.09100 0.55529 0.35508
 C47 C 0.10554 0.55508 0.43552
 C48 C 0.15284 0.56471 0.46010
 C49 C 0.15289 0.56606 0.54271
 C50 C 0.10574 0.55746 0.56557
 N51 N 0.07703 0.55104 0.50009
 C52 C 0.09117 0.55944 0.64519
 C53 C 0.04170 0.54708 0.66681
 C54 C 0.02936 0.56041 0.73945
 C55 C -0.02228 0.53916 0.73963
 C56 C -0.04034 0.51264 0.66751
 N57 N -0.00093 0.51821 0.62295
 C58 C -0.09235 0.48177 0.64675
 H59 H -0.18645 0.40059 0.58101
 H60 H -0.18657 0.39729 0.42421
 H61 H -0.00374 0.49838 0.57021
 H62 H -0.04532 0.53362 0.20893
 H63 H 0.05322 0.57423 0.20856
 H64 H 0.18445 0.57130 0.42264
 H65 H 0.18436 0.57356 0.58140
 H66 H -0.04402 0.54282 0.78772
 H67 H -0.00358 0.49621 0.43192
 H68 H 0.05495 0.58312 0.78742
 C69 C 0.58105 0.42557 0.54279
 C70 C 0.57991 0.42458 0.46038
 C71 C 0.54144 0.43321 0.43729
 N72 N 0.51839 0.43845 0.50301
 C73 C 0.54252 0.43374 0.56776
 C74 C 0.52658 0.43342 0.35681
 C75 C 0.49163 0.44856 0.33412
 C76 C 0.47121 0.44287 0.25761
 C77 C 0.44477 0.46837 0.25727
 C78 C 0.44968 0.48906 0.33358
 N79 N 0.47817 0.47665 0.37999
 C80 C 0.43333 0.52349 0.35556
 C81 C 0.43265 0.53860 0.43580
 C82 C 0.42284 0.57688 0.45813
 C83 C 0.42385 0.57836 0.54052
 C84 C 0.43321 0.54017 0.56624
 N85 N 0.43862 0.51594 0.50197
 C86 C 0.43604 0.52766 0.64766
 C87 C 0.45494 0.49507 0.66984
 C88 C 0.44362 0.46794 0.74183
 C89 C 0.46978 0.44233 0.74217
 C90 C 0.49664 0.45428 0.67039
 N91 N 0.48686 0.48601 0.62590
 C92 C 0.52966 0.43617 0.64893
 H93 H 0.60800 0.42162 0.57957
 H94 H 0.60487 0.41845 0.42211
 H95 H 0.50485 0.50445 0.57255
 H96 H 0.47631 0.42406 0.20614
 H97 H 0.42585 0.47275 0.20550
 H98 H 0.41593 0.60152 0.41937
 H99 H 0.41908 0.60532 0.57680
 H100 H 0.46821 0.41680 0.78944
 H101 H 0.49351 0.49259 0.43564
 H102 H 0.41816 0.46580 0.78879
 O103 O 0.40266 0.64230 -0.06558
 O104 O 0.40956 0.73150 -0.09327
 C105 C 0.38967 0.75873 -0.10704
 O106 O 0.35309 0.75530 -0.06591
 O107 O 0.26530 0.67298 -0.09247
 C108 C 0.23774 0.62525 -0.10697
 O109 O 0.24055 0.59083 -0.06703
 O110 O 0.32183 0.58612 -0.09561
 C111 C 0.36892 0.60574 -0.10776
 O112 O 0.40166 0.65839 0.09325
 O113 O 0.41378 0.74946 0.06603
 C114 C 0.38474 0.75880 0.10785
 O115 O 0.33763 0.73792 0.09447
 O116 O 0.24809 0.65812 0.06786
 C117 C 0.23758 0.61774 0.10752
 O118 O 0.25694 0.59029 0.09217
 O119 O 0.33554 0.58057 0.06472
 C120 C 0.37454 0.61038 0.10638
 Cr121 Cr 0.40421 0.69424 0.00003
 Cr122 Cr 0.30215 0.70458 0.00096
 Cr123 Cr 0.29033 0.58965 -0.00144
 O124 O 0.33216 0.66283 -0.00008
 O125 O 0.59176 0.32380 -0.09298
 O126 O 0.60050 0.24314 -0.06391
 C127 C 0.63427 0.24364 -0.10881
 O128 O 0.68127 0.27414 -0.09808
 O129 O 0.76175 0.36369 -0.06631
 C130 C 0.76303 0.40007 -0.10687
 O131 O 0.73385 0.41741 -0.09328
 O132 O 0.64511 0.40670 -0.06326
 C133 C 0.60959 0.37154 -0.10527
 O134 O 0.58714 0.33804 0.06677
 O135 O 0.60245 0.26209 0.09547
 C136 C 0.62956 0.24202 0.10635
 O137 O 0.66698 0.25155 0.06137
 O138 O 0.74476 0.34389 0.09128
 C139 C 0.76349 0.39134 0.10678
 O140 O 0.75263 0.42078 0.06755
 O141 O 0.66271 0.40615 0.09564
 C142 C 0.61565 0.37767 0.10877
 Cr143 Cr 0.59792 0.29328 0.00123
 Cr144 Cr 0.71210 0.30923 -0.00286
 Cr145 Cr 0.69769 0.41026 0.00149
 O146 O 0.66934 0.33777 0.00026
 N147 N 0.47322 0.84464 -0.26742
 C148 C 0.44855 0.86929 -0.29050
 N149 N 0.40406 0.85665 -0.25415
 N150 N 0.38538 0.82134 -0.19587
 C151 C 0.41018 0.79693 -0.17235
 N152 N 0.45435 0.80904 -0.20945
 N153 N 0.12897 0.54250 -0.23701
 C154 C 0.12988 0.57685 -0.29080
 N155 N 0.16635 0.62732 -0.28415
 N156 N 0.20074 0.64290 -0.22544
 C157 C 0.20000 0.60849 -0.17176
 N158 N 0.16356 0.55802 -0.17876
 N159 N 0.37649 0.55071 -0.30103
 C160 C 0.41863 0.54713 -0.29081
 N161 N 0.44367 0.56249 -0.21937
 N162 N 0.42788 0.58136 -0.16138
 C163 C 0.38574 0.58462 -0.17176
 N164 N 0.36011 0.56870 -0.24241
 N165 N 0.60631 0.18547 -0.31032
 C166 C 0.58242 0.13412 -0.29346
 N167 N 0.57726 0.11991 -0.21458
 N168 N 0.59405 0.15478 -0.15589
 C169 C 0.61779 0.20570 -0.17353
 N170 N 0.62389 0.22056 -0.25176
 N171 N 0.82491 0.45783 -0.30022
 C172 C 0.87128 0.46278 -0.29058
 N173 N 0.88172 0.44792 -0.21928
 N174 N 0.84722 0.42821 -0.16090
 C175 C 0.80115 0.42349 -0.17068
 N176 N 0.79064 0.43895 -0.24116
 N177 N 0.55421 0.37716 -0.29886
 C178 C 0.54936 0.41921 -0.28906
 N179 N 0.56380 0.44471 -0.21765
 N180 N 0.58306 0.42948 -0.15933
 C181 C 0.58762 0.38744 -0.16932
 N182 N 0.57260 0.36132 -0.23992
 N183 N 0.82399 0.44940 0.29987
 C184 C 0.87071 0.45511 0.29120
 N185 N 0.88152 0.43968 0.22087
 N186 N 0.84720 0.41910 0.16231
 C187 C 0.80088 0.41380 0.17126
 N188 N 0.78984 0.42946 0.24082
 N189 N 0.59096 0.18019 0.30504
 C190 C 0.58460 0.13286 0.29077
 N191 N 0.59508 0.12270 0.21577
 N192 N 0.61075 0.15800 0.15754
 C193 C 0.61571 0.20459 0.17164
 N194 N 0.60563 0.21514 0.24637
 N195 N 0.52194 0.37370 0.25146
 C196 C 0.54986 0.41838 0.29263
 N197 N 0.59956 0.44943 0.27359
 N198 N 0.62063 0.43630 0.21535
 C199 C 0.59269 0.39173 0.17389
 N200 N 0.54297 0.36066 0.19301
 N201 N 0.14889 0.54159 0.27010
 C202 C 0.13007 0.57199 0.29154
 N203 N 0.14736 0.61776 0.25328
 N204 N 0.18178 0.63235 0.19493
 C205 C 0.20040 0.60185 0.17302
 N206 N 0.18349 0.55629 0.21191
 N207 N 0.47915 0.86206 0.23757
 C208 C 0.44942 0.86687 0.29307
 N209 N 0.39830 0.83597 0.28780
 N210 N 0.37758 0.80141 0.22885
 C211 C 0.40730 0.79644 0.17337
 N212 N 0.45845 0.82722 0.17905
 N213 N 0.44706 0.59671 0.27135
 C214 C 0.41757 0.54611 0.29085
 N215 N 0.37374 0.51671 0.24978
 N216 N 0.35999 0.53722 0.19103
 C217 C 0.38947 0.58786 0.17151
 N218 N 0.43322 0.61724 0.21282
   
