data_POSCAR
  _audit_creation_date              2014-09-24
  _audit_creation_method            'ToBaCCo'
  _symmetry_space_group_name_H-M    'P1'
  _symmetry_Int_Tables_number       1
  _symmetry_cell_setting            triclinic
  loop_
  _symmetry_equiv_pos_as_xyz
 x,y,z
_cell_length_a 32.7070
_cell_length_b 32.7272
_cell_length_c 32.7339
_cell_angle_alpha 86.790500
_cell_angle_beta 86.941000
_cell_angle_gamma 86.915300
loop_
  _atom_site_label
  _atom_site_type_symbol
  _atom_site_fract_x
  _atom_site_fract_y
  _atom_site_fract_z
C1 C 0.80918 0.64723 1.00891
 C2 C 0.82021 0.61883 0.97403
 C3 C 0.78914 0.59494 0.96553
 C4 C 0.75017 0.60103 0.99343
 C5 C 0.76994 0.67164 0.99612
 C6 C 0.73907 0.64713 0.98806
 C7 C 0.79552 0.61913 1.04539
 C8 C 0.76454 0.59512 1.03746
 H9 H 0.84761 0.62179 0.95400
 H10 H 0.72516 0.58097 0.98699
 H11 H 0.76772 0.70479 0.99136
 H12 H 0.80615 0.62142 1.07606
 C13 C 0.80506 0.34589 0.47768
 C14 C 0.81279 0.37213 0.51338
 C15 C 0.77973 0.39656 0.52511
 C16 C 0.74176 0.39273 0.50005
 C17 C 0.76726 0.32198 0.49171
 C18 C 0.73413 0.34665 0.50330
 C19 C 0.79040 0.37628 0.44359
 C20 C 0.75723 0.40070 0.45524
 H21 H 0.84185 0.37146 0.52810
 H22 H 0.71489 0.41282 0.50967
 H23 H 0.76677 0.28878 0.49254
 H24 H 0.80248 0.37566 0.41203
 C25 C 0.30474 -0.15266 -0.02351
 C26 C 0.31256 -0.12915 0.01143
 C27 C 0.27805 -0.10339 0.02428
 C28 C 0.24222 -0.10591 -0.00025
 C29 C 0.26857 -0.17554 -0.01126
 C30 C 0.23397 -0.14952 0.00153
 C31 C 0.29170 -0.12263 -0.05540
 C32 C 0.25705 -0.09682 -0.04262
 H33 H 0.34159 -0.13059 0.02635
 H34 H 0.21554 -0.08568 0.00986
 H35 H 0.26779 -0.20873 -0.01105
 H36 H 0.30301 -0.12332 -0.08725
 C37 C 0.30911 0.14049 0.51038
 C38 C 0.31942 0.11210 0.47533
 C39 C 0.28780 0.08885 0.46691
 C40 C 0.24910 0.09548 0.49509
 C41 C 0.27020 0.16561 0.49788
 C42 C 0.23881 0.14174 0.48988
 C43 C 0.29520 0.11250 0.54684
 C44 C 0.26371 0.08911 0.53902
 H45 H 0.34670 0.11477 0.45508
 H46 H 0.22365 0.07593 0.48875
 H47 H 0.26867 0.19874 0.49286
 H48 H 0.30615 0.11442 0.57743
 C49 C 0.14169 0.51212 0.30845
 C50 C 0.11278 0.47749 0.31915
 C51 C 0.08948 0.46895 0.28764
 C52 C 0.09655 0.49667 0.24863
 C53 C 0.16676 0.49894 0.26982
 C54 C 0.14279 0.49087 0.23852
 C55 C 0.11420 0.54872 0.29399
 C56 C 0.09076 0.54083 0.26258
 H57 H 0.11528 0.45740 0.34660
 H58 H 0.07693 0.49027 0.22326
 H59 H 0.19987 0.49365 0.26840
 H60 H 0.11659 0.57943 0.30443
 C61 C -0.15171 -0.02549 0.30496
 C62 C -0.12713 0.01163 0.31259
 C63 C -0.10292 0.02412 0.27954
 C64 C -0.10543 -0.00173 0.24191
 C65 C -0.17599 -0.01242 0.26702
 C66 C -0.15154 -0.00001 0.23392
 C67 C -0.12165 -0.05685 0.29157
 C68 C -0.09626 -0.04385 0.25688
 H69 H -0.12848 0.02648 0.34155
 H70 H -0.08554 0.00863 0.21511
 H71 H -0.20918 -0.01243 0.26654
 H72 H -0.12194 -0.08866 0.30310
 C73 C 0.34482 0.47574 0.80472
 C74 C 0.37102 0.51148 0.81258
 C75 C 0.39540 0.52354 0.77958
 C76 C 0.39160 0.49869 0.74154
 C77 C 0.32085 0.48995 0.76701
 C78 C 0.34548 0.50186 0.73394
 C79 C 0.37526 0.44184 0.78993
 C80 C 0.39964 0.45379 0.75681
 H81 H 0.37011 0.52622 0.84159
 H82 H 0.41167 0.50856 0.71472
 H83 H 0.28762 0.49079 0.76657
 H84 H 0.37470 0.41020 0.80191
 C85 C 0.64268 1.01061 0.80827
 C86 C 0.61491 0.97483 0.81852
 C87 C 0.59129 0.96666 0.78707
 C88 C 0.59720 0.99566 0.74870
 C89 C 0.66767 0.99872 0.76905
 C90 C 0.64350 0.99083 0.73780
 C91 C 0.61561 1.04503 0.79585
 C92 C 0.59076 1.03699 0.76308
 H93 H 0.61796 0.95435 0.84562
 H94 H 0.57740 0.98931 0.72342
 H95 H 0.70080 0.99370 0.76733
 H96 H 0.61797 1.07572 0.80640
 C97 C -0.02264 0.30442 -0.15622
 C98 C 0.01299 0.31207 -0.12974
 C99 C 0.02468 0.27897 -0.10526
 C100 C -0.00034 0.24106 -0.10926
 C101 C -0.00848 0.26668 -0.18007
 C102 C 0.00307 0.23350 -0.15532
 C103 C -0.05684 0.28967 -0.12602
 C104 C -0.04519 0.25647 -0.10154
 H105 H 0.02773 0.34110 -0.13031
 H106 H 0.00925 0.21416 -0.08912
 H107 H -0.00763 0.26622 -0.21326
 H108 H -0.08841 0.30182 -0.12671
 C109 C 0.51005 0.30798 0.14418
 C110 C 0.47524 0.31881 0.11550
 C111 C 0.46664 0.28746 0.09207
 C112 C 0.49444 0.24849 0.09880
 C113 C 0.49703 0.26909 0.16909
 C114 C 0.48887 0.23797 0.14498
 C115 C 0.54655 0.29386 0.11646
 C116 C 0.53855 0.26265 0.09289
 H117 H 0.45516 0.34620 0.11816
 H118 H 0.48796 0.22328 0.07907
 H119 H 0.49191 0.26737 0.20219
 H120 H 0.57727 0.30444 0.11870
 C121 C 1.01064 0.80893 0.64411
 C122 C 0.97665 0.81966 0.61797
 C123 C 0.96771 0.78724 0.59257
 C124 C 0.99503 0.75060 0.59791
 C125 C 0.99960 0.77137 0.66750
 C126 C 0.99104 0.73903 0.64167
 C127 C 1.04514 0.79707 0.61662
 C128 C 1.03668 0.76476 0.59117
 H129 H 0.95584 0.84637 0.62207
 H130 H 0.98852 0.72575 0.57762
 H131 H 0.99460 0.76908 0.70064
 H132 H 1.07603 0.80721 0.61915
 C133 C 0.47734 0.80431 0.34688
 C134 C 0.51330 0.81193 0.37293
 C135 C 0.52514 0.77883 0.39738
 C136 C 0.49986 0.74098 0.39377
 C137 C 0.49110 0.76650 0.32304
 C138 C 0.50279 0.73335 0.34772
 C139 C 0.44338 0.78978 0.37744
 C140 C 0.45508 0.75659 0.40188
 H141 H 0.52826 0.84086 0.37197
 H142 H 0.50953 0.71409 0.41388
 H143 H 0.49186 0.76605 0.28984
 H144 H 0.41181 0.80195 0.37688
 C145 C 0.41309 -0.02196 0.28040
 H146 H 0.40995 0.00670 0.29548
 C147 C 0.43395 -0.05580 0.29894
 H148 H 0.44716 -0.05314 0.32827
 C149 C 0.39733 -0.06133 0.22512
 H150 H 0.38228 -0.06355 0.19679
 C151 C 0.41790 -0.09595 0.24266
 H152 H 0.41861 -0.12478 0.22784
 N153 N 0.39460 -0.02552 0.24459
 C154 C 0.36969 0.09749 0.18976
 H155 H 0.33721 0.09660 0.18536
 C156 C 0.39027 0.13277 0.17773
 H157 H 0.37366 0.15908 0.16389
 C158 C 0.43107 0.06438 0.21311
 H159 H 0.44688 0.03769 0.22688
 C160 C 0.45286 0.09915 0.20149
 H161 H 0.48538 0.09909 0.20626
 Zn162 Zn 0.35927 0.01860 0.22618
 N163 N 0.39007 0.06438 0.20765
 C164 C 0.31964 0.07256 0.28228
 N165 N 0.32474 0.03270 0.27238
 C166 C 0.31308 0.00179 0.29945
 C167 C 0.29837 0.01034 0.33916
 C168 C 0.30465 0.08241 0.32135
 C169 C 0.34119 0.01314 0.14369
 C170 C 0.32483 -0.00428 0.11064
 C171 C 0.28327 -0.04541 0.15837
 C172 C 0.30027 -0.02701 0.19067
 N173 N 0.32925 0.00115 0.18282
 H174 H 0.32966 0.09678 0.26108
 H175 H 0.31839 -0.02972 0.29138
 H176 H 0.29192 -0.01455 0.36138
 H177 H 0.30302 0.11410 0.32957
 H178 H 0.36517 0.03447 0.13799
 H179 H 0.33602 0.00409 0.07971
 H180 H 0.26177 -0.06926 0.16486
 H181 H 0.29190 -0.03671 0.22196
 C182 C 0.43213 0.13375 0.18400
 C183 C 0.43564 -0.09330 0.28029
 C184 C 0.29628 -0.03443 0.11800
 C185 C 0.29535 0.05100 0.35048
 C186 C 0.05849 1.05155 0.80327
 H187 H 0.05295 1.02205 0.81856
 C188 C 0.03872 1.08716 0.81811
 H189 H 0.01760 1.08509 0.84470
 C190 C 0.09448 1.09083 0.75140
 H191 H 0.11727 1.09248 0.72636
 C192 C 0.07538 1.12701 0.76516
 H193 H 0.08311 1.15616 0.75021
 N194 N 0.08600 1.05404 0.77063
 C195 C 0.10965 0.93178 0.72553
 H196 H 0.14267 0.93151 0.72655
 C197 C 0.09141 0.89917 0.70959
 H198 H 0.11043 0.87368 0.69825
 C199 C 0.04479 0.96626 0.73763
 H200 H 0.02703 0.99291 0.74791
 C201 C 0.02515 0.93408 0.72154
 H202 H -0.00784 0.93588 0.71945
 Zn203 Zn 0.11793 1.00666 0.75556
 N204 N 0.08638 0.96442 0.73912
 C205 C 0.13961 0.94974 0.81962
 N206 N 0.14778 0.98707 0.80148
 C207 C 0.17547 1.01098 0.81686
 C208 C 0.19747 0.99669 0.85079
 C209 C 0.16075 0.93442 0.85352
 C210 C 0.13307 1.03080 0.67418
 C211 C 0.15530 1.04157 0.63800
 C212 C 0.21783 1.02868 0.67381
 C213 C 0.19436 1.01806 0.70946
 N214 N 0.15270 1.02005 0.70913
 H215 H 0.11651 0.93173 0.80804
 H216 H 0.18070 1.04097 0.80254
 H217 H 0.22011 1.01545 0.86235
 H218 H 0.15445 0.90436 0.86725
 H219 H 0.09994 1.03154 0.67469
 H220 H 0.13930 1.05104 0.61064
 H221 H 0.25094 1.02798 0.67441
 H222 H 0.20941 1.00853 0.73724
 C223 C 0.04889 0.90038 0.70722
 C224 C 0.04767 1.12526 0.79910
 C225 C 0.19803 1.04081 0.63787
 C226 C 0.19015 0.95790 0.86907
 C227 C 0.55964 0.55274 0.30239
 H228 H 0.55477 0.52285 0.31713
 C229 C 0.53978 0.58773 0.31843
 H230 H 0.51922 0.58481 0.34537
 C231 C 0.59414 0.59357 0.25070
 H232 H 0.61640 0.59603 0.22525
 C233 C 0.57493 0.62917 0.26565
 H234 H 0.58201 0.65873 0.25121
 N235 N 0.58646 0.55630 0.26927
 C236 C 0.61050 0.43561 0.22091
 H237 H 0.64357 0.43594 0.22070
 C238 C 0.59220 0.40271 0.20561
 H239 H 0.61121 0.37764 0.19340
 C240 C 0.54548 0.46860 0.23609
 H241 H 0.52764 0.49470 0.24753
 C242 C 0.52577 0.43609 0.22074
 H243 H 0.49264 0.43709 0.22029
 Zn244 Zn 0.61859 0.50964 0.25280
 N245 N 0.58717 0.46760 0.23584
 C246 C 0.64083 0.45146 0.31536
 N247 N 0.64873 0.48924 0.29814
 C248 C 0.67613 0.51298 0.31421
 C249 C 0.69809 0.49811 0.34797
 C250 C 0.66193 0.43556 0.34903
 C251 C 0.63359 0.53568 0.17177
 C252 C 0.65592 0.54703 0.13582
 C253 C 0.71837 0.53317 0.17155
 C254 C 0.69482 0.52201 0.20696
 N255 N 0.65316 0.52416 0.20658
 H256 H 0.61794 0.43358 0.30327
 H257 H 0.68111 0.54332 0.30062
 H258 H 0.72045 0.51676 0.36015
 H259 H 0.65580 0.40520 0.36208
 H260 H 0.60046 0.53650 0.17221
 H261 H 0.63999 0.55704 0.10855
 H262 H 0.75148 0.53226 0.17221
 H263 H 0.70982 0.51184 0.23460
 C264 C 0.54954 0.40294 0.20531
 C265 C 0.54794 0.62632 0.30011
 C266 C 0.69866 0.54603 0.13576
 C267 C 0.69098 0.45891 0.36532
 C268 C 0.91700 0.48005 0.77886
 H269 H 0.91475 0.50856 0.79424
 C270 C 0.93706 0.44547 0.79698
 H271 H 0.95062 0.44742 0.82625
 C272 C 0.89960 0.44178 0.72339
 H273 H 0.88418 0.44025 0.69518
 C274 C 0.91934 0.40647 0.74050
 H275 H 0.91908 0.37785 0.72542
 N276 N 0.89800 0.47739 0.74319
 C277 C 0.87324 0.60047 0.68809
 H278 H 0.84067 0.59948 0.68418
 C279 C 0.89369 0.63558 0.67515
 H280 H 0.87688 0.66167 0.66114
 C281 C 0.93493 0.56776 0.71113
 H282 H 0.95085 0.54127 0.72520
 C283 C 0.95660 0.60238 0.69859
 H284 H 0.98920 0.60247 0.70296
 Zn285 Zn 0.86300 0.52213 0.72547
 N286 N 0.89385 0.56763 0.70619
 C287 C 0.82456 0.57663 0.78167
 N288 N 0.82924 0.53668 0.77201
 C289 C 0.81708 0.50605 0.79916
 C290 C 0.80198 0.51499 0.83865
 C291 C 0.80923 0.58687 0.82050
 C292 C 0.84428 0.51600 0.64343
 C293 C 0.82751 0.49829 0.61080
 C294 C 0.78487 0.45915 0.65933
 C295 C 0.80230 0.47782 0.69119
 N296 N 0.83202 0.50508 0.68274
 H297 H 0.83499 0.60061 0.76039
 H298 H 0.82205 0.47445 0.79128
 H299 H 0.79493 0.49031 0.86093
 H300 H 0.80776 0.61862 0.82850
 H301 H 0.86890 0.53654 0.63730
 H302 H 0.83899 0.50569 0.57975
 H303 H 0.76282 0.43589 0.66631
 H304 H 0.79373 0.46891 0.72264
 C305 C 0.93565 0.63670 0.68076
 C306 C 0.93746 0.40817 0.77805
 C307 C 0.79825 0.46893 0.61881
 C308 C 0.79914 0.55575 0.84966
 C309 C 0.27960 0.41366 -0.02057
 H310 H 0.29495 0.41102 0.00800
 C311 C 0.29787 0.43394 -0.05489
 H312 H 0.32725 0.44725 -0.05271
 C313 C 0.22396 0.39713 -0.05921
 H314 H 0.19560 0.38198 -0.06096
 C315 C 0.24122 0.41710 -0.09429
 H316 H 0.22614 0.41729 -0.12298
 N317 N 0.24376 0.39503 -0.02354
 C318 C 0.18916 0.37092 0.09955
 H319 H 0.18499 0.33839 0.09893
 C320 C 0.17676 0.39172 0.13451
 H321 H 0.16288 0.37522 0.16086
 C322 C 0.21227 0.43220 0.06603
 H323 H 0.22611 0.44787 0.03928
 C324 C 0.20028 0.45421 0.10046
 H325 H 0.20482 0.48677 0.10013
 Zn326 Zn 0.22581 0.36010 0.02106
 N327 N 0.20707 0.39117 0.06639
 C328 C 0.28221 0.32126 0.07535
 N329 N 0.27218 0.32597 0.03548
 C330 C 0.29908 0.31388 0.00471
 C331 C 0.33874 0.29894 0.01338
 C332 C 0.32123 0.30608 0.08533
 C333 C 0.14349 0.34191 0.01509
 C334 C 0.11067 0.32554 -0.00276
 C335 C 0.15890 0.28316 -0.04234
 C336 C 0.19094 0.30019 -0.02354
 N337 N 0.18273 0.32962 0.00398
 H338 H 0.26111 0.33165 0.09943
 H339 H 0.29092 0.31891 -0.02682
 H340 H 0.36085 0.29205 -0.01143
 H341 H 0.32957 0.30467 0.11700
 H342 H 0.13756 0.36625 0.03590
 H343 H 0.07966 0.33707 0.00477
 H344 H 0.16570 0.26138 -0.06580
 H345 H 0.22235 0.29157 -0.03257
 C346 C 0.18270 0.43364 0.13511
 C347 C 0.27891 0.43491 -0.09225
 C348 C 0.11845 0.29664 -0.03242
 C349 C 0.35017 0.29619 0.05403
 C350 C 0.80343 0.05701 1.05304
 H351 H 0.81806 0.05183 1.02322
 C352 C 0.81920 0.03695 1.08816
 H353 H 0.84583 0.01596 1.08541
 C354 C 0.75228 0.09238 1.09358
 H355 H 0.72715 0.11503 1.09589
 C356 C 0.76696 0.07299 1.12930
 H357 H 0.75264 0.08034 1.15877
 N358 N 0.77069 0.08434 1.05639
 C359 C 0.72218 0.10896 0.93568
 H360 H 0.72249 0.14198 0.93601
 C361 C 0.70627 0.09108 0.90288
 H362 H 0.69416 0.11036 0.87787
 C363 C 0.73654 0.04369 0.96862
 H364 H 0.74786 0.02561 0.99470
 C365 C 0.72054 0.02439 0.93620
 H366 H 0.71951 -0.00867 0.93722
 Zn367 Zn 0.75429 0.11651 1.00958
 N368 N 0.73697 0.08532 0.96760
 C369 C 0.81669 0.13856 0.95128
 N370 N 0.79959 0.14664 0.98900
 C371 C 0.81546 0.17452 1.01230
 C372 C 0.84876 0.19688 0.99695
 C373 C 0.84992 0.16004 0.93492
 C374 C 0.67335 0.13148 1.03554
 C375 C 0.63727 0.15375 1.04651
 C376 C 0.67278 0.21624 1.03208
 C377 C 0.70831 0.19274 1.02131
 N378 N 0.70809 0.15109 1.02392
 H379 H 0.80479 0.11530 0.93376
 H380 H 0.80196 0.17966 1.04259
 H381 H 0.86073 0.21966 1.01522
 H382 H 0.86284 0.15379 0.90460
 H383 H 0.67392 0.09835 1.03669
 H384 H 0.61004 0.13780 1.05659
 H385 H 0.67328 0.24936 1.03078
 H386 H 0.73589 0.20777 1.01100
 C387 C 0.70519 0.04851 0.90314
 C388 C 0.80100 0.04544 1.12666
 C389 C 0.63704 0.19648 1.04500
 C390 C 0.86589 0.18968 0.95774
 C391 C 0.30051 0.56006 0.55342
 H392 H 0.31525 0.55521 0.52359
 C393 C 0.31636 0.53991 0.58844
 H394 H 0.34316 0.51914 0.58559
 C395 C 0.24899 0.59477 0.59412
 H396 H 0.22368 0.61720 0.59652
 C397 C 0.26377 0.57526 0.62974
 H398 H 0.24932 0.58231 0.65926
 N399 N 0.26756 0.58711 0.55691
 C400 C 0.21956 0.61174 0.43602
 H401 H 0.21971 0.64478 0.43627
 C402 C 0.20400 0.59365 0.40314
 H403 H 0.19198 0.61279 0.37799
 C404 C 0.23401 0.54662 0.46923
 H405 H 0.24523 0.52867 0.49543
 C406 C 0.21839 0.52712 0.43675
 H407 H 0.21753 0.49404 0.43785
 Zn408 Zn 0.25129 0.61946 0.51022
 N409 N 0.23424 0.58826 0.46811
 C410 C 0.31429 0.64121 0.45244
 N411 N 0.29686 0.64941 0.49000
 C412 C 0.31296 0.67684 0.51366
 C413 C 0.34700 0.69846 0.49893
 C414 C 0.34824 0.66196 0.43670
 C415 C 0.17021 0.63437 0.53586
 C416 C 0.13409 0.65660 0.54682
 C417 C 0.16973 0.71911 0.53314
 C418 C 0.20531 0.69565 0.52236
 N419 N 0.20502 0.65401 0.52456
 H420 H 0.30218 0.61830 0.43463
 H421 H 0.29921 0.68207 0.54383
 H422 H 0.35921 0.72083 0.51752
 H423 H 0.36146 0.65556 0.40652
 H424 H 0.17074 0.60125 0.53672
 H425 H 0.10679 0.64062 0.55658
 H426 H 0.17027 0.75222 0.53211
 H427 H 0.23297 0.71070 0.51238
 C428 C 0.20317 0.55106 0.40351
 C429 C 0.29804 0.54801 0.62697
 C430 C 0.13389 0.69933 0.54567
 C431 C 0.36461 0.69099 0.45997
 C432 C 0.78317 0.91178 0.47983
 H433 H 0.79839 0.90924 0.50847
 C434 C 0.80161 0.93188 0.44548
 H435 H 0.83100 0.94516 0.44772
 C436 C 0.72759 0.89530 0.44109
 H437 H 0.69915 0.88031 0.43932
 C438 C 0.74502 0.91511 0.40599
 H439 H 0.72998 0.91531 0.37728
 N440 N 0.74725 0.89328 0.47685
 C441 C 0.69147 0.87049 0.59972
 H442 H 0.68747 0.83791 0.59937
 C443 C 0.67848 0.89161 0.63430
 H444 H 0.66436 0.87530 0.66064
 C445 C 0.71470 0.93157 0.56587
 H446 H 0.72880 0.94701 0.53913
 C447 C 0.70211 0.95391 0.59994
 H448 H 0.70651 0.98651 0.59937
 Zn449 Zn 0.72871 0.85886 0.52168
 N450 N 0.70967 0.89048 0.56656
 C451 C 0.78472 0.82086 0.57698
 N452 N 0.77484 0.82463 0.53701
 C453 C 0.80182 0.81165 0.50668
 C454 C 0.84140 0.79677 0.51585
 C455 C 0.82365 0.80576 0.58745
 C456 C 0.64622 0.84134 0.51569
 C457 C 0.61313 0.82523 0.49808
 C458 C 0.66076 0.78225 0.45852
 C459 C 0.69312 0.79901 0.47712
 N460 N 0.68535 0.82859 0.50456
 H461 H 0.76362 0.83197 0.60071
 H462 H 0.79382 0.81598 0.47504
 H463 H 0.86357 0.78920 0.49131
 H464 H 0.83186 0.80515 0.61913
 H465 H 0.64059 0.86584 0.53634
 H466 H 0.58226 0.83709 0.50571
 H467 H 0.66722 0.76029 0.43516
 H468 H 0.72442 0.79004 0.46802
 C469 C 0.68413 0.93361 0.63456
 C470 C 0.78275 0.93284 0.40806
 C471 C 0.62044 0.79613 0.46857
 C472 C 0.85269 0.79498 0.55655
 C473 C -0.02055 0.28083 0.41478
 H474 H 0.00803 0.29619 0.41192
 C475 C -0.05465 0.29895 0.43546
 H476 H -0.05230 0.32823 0.44883
 C477 C -0.05943 0.22535 0.39842
 H478 H -0.06137 0.19711 0.38319
 C479 C -0.09431 0.24246 0.41879
 H480 H -0.12304 0.22740 0.41918
 N481 N -0.02376 0.24516 0.39604
 C482 C 0.09938 0.19118 0.37072
 H483 H 0.09862 0.18769 0.33811
 C484 C 0.13441 0.17821 0.39130
 H485 H 0.16071 0.16464 0.37454
 C486 C 0.06603 0.21292 0.43250
 H487 H 0.03930 0.22637 0.44845
 C488 C 0.10055 0.20032 0.45430
 H489 H 0.10032 0.20407 0.48698
 Zn490 Zn 0.02051 0.22748 0.36069
 N491 N 0.06625 0.20863 0.39134
 C492 C 0.07422 0.28450 0.32189
 N493 N 0.03445 0.27408 0.32656
 C494 C 0.00339 0.30069 0.31439
 C495 C 0.01166 0.34043 0.29936
 C496 C 0.08380 0.32361 0.30660
 C497 C 0.01511 0.14525 0.34231
 C498 C -0.00240 0.11227 0.32597
 C499 C -0.04334 0.16013 0.28431
 C500 C -0.02484 0.19237 0.30128
 N501 N 0.00324 0.18441 0.33033
 H502 H 0.09852 0.26366 0.33239
 H503 H -0.02806 0.29224 0.31944
 H504 H -0.01338 0.36229 0.29238
 H505 H 0.11539 0.33224 0.30520
 H506 H 0.03635 0.13946 0.36637
 H507 H 0.00584 0.08130 0.33722
 H508 H -0.06718 0.16668 0.26279
 H509 H -0.03446 0.22368 0.29290
 C510 C 0.13512 0.18309 0.43339
 C511 C -0.09205 0.28000 0.43672
 C512 C -0.03253 0.11974 0.29742
 C513 C 0.05220 0.35224 0.29658
 C514 C 1.05455 0.80718 0.05681
 H515 H 1.02480 0.82202 0.05152
 C516 C 1.08985 0.82293 0.03712
 H517 H 1.08729 0.84974 0.01628
 C518 C 1.09475 0.75553 0.09211
 H519 H 1.09686 0.73022 0.11461
 C520 C 1.13064 0.77020 0.07309
 H521 H 1.16004 0.75565 0.08055
 N522 N 1.05764 0.77421 0.08394
 C523 C 0.93623 0.72679 0.10801
 H524 H 0.93654 0.72704 0.14102
 C525 C 0.90330 0.71116 0.09001
 H526 H 0.87818 0.69922 0.10920
 C527 C 0.96941 0.74089 0.04286
 H528 H 0.99564 0.75196 0.02489
 C529 C 0.93687 0.72516 0.02345
 H530 H 0.93796 0.72407 -0.00960
 Zn531 Zn 1.01060 0.75797 0.11586
 N532 N 0.96835 0.74129 0.08448
 C533 C 0.95282 0.82079 0.13815
 N534 N 0.99044 0.80321 0.14614
 C535 C 1.01404 0.81857 0.17410
 C536 C 0.99910 0.85180 0.19664
 C537 C 0.93686 0.85398 0.15982
 C538 C 1.03601 0.67675 0.13072
 C539 C 1.04645 0.64045 0.15299
 C540 C 1.03183 0.67566 0.21548
 C541 C 1.02160 0.71142 0.19199
 N542 N 1.02453 0.71144 0.15036
 H543 H 0.93507 0.80928 0.11483
 H544 H 1.04424 0.80470 0.17919
 H545 H 1.01759 0.86333 0.21951
 H546 H 0.90660 0.86725 0.15367
 H547 H 1.03739 0.67750 0.09760
 H548 H 1.05639 0.61324 0.13703
 H549 H 1.03025 0.67597 0.24861
 H550 H 1.01139 0.73896 0.20704
 C551 C 0.90363 0.71005 0.04745
 C552 C 1.12828 0.80449 0.04576
 C553 C 1.04456 0.63995 0.19573
 C554 C 0.95999 0.86940 0.18955
 C555 C 0.55301 0.30155 0.55924
 H556 H 0.52317 0.31619 0.55396
 C557 C 0.58818 0.31748 0.53949
 H558 H 0.58545 0.34425 0.51861
 C559 C 0.59355 0.25020 0.59459
 H560 H 0.59584 0.22494 0.61713
 C561 C 0.62931 0.26505 0.57550
 H562 H 0.65881 0.25071 0.58296
 N563 N 0.55634 0.26864 0.58641
 C564 C 0.43554 0.22006 0.61011
 H565 H 0.43559 0.22038 0.64314
 C566 C 0.40299 0.20399 0.59188
 H567 H 0.37786 0.19182 0.61090
 C568 C 0.46903 0.23443 0.54517
 H569 H 0.49525 0.24576 0.52736
 C570 C 0.43688 0.21828 0.52553
 H571 H 0.43822 0.21720 0.49247
 Zn572 Zn 0.50949 0.25212 0.61831
 N573 N 0.46763 0.23491 0.58679
 C574 C 0.45120 0.31463 0.64012
 N575 N 0.48889 0.29739 0.64833
 C576 C 0.51239 0.31334 0.67602
 C577 C 0.49734 0.34698 0.69793
 C578 C 0.43513 0.34819 0.66116
 C579 C 0.53541 0.17117 0.63310
 C580 C 0.54649 0.13499 0.65524
 C581 C 0.53243 0.17019 0.71783
 C582 C 0.52154 0.20583 0.69446
 N583 N 0.52388 0.20580 0.65282
 H584 H 0.43351 0.30263 0.61703
 H585 H 0.54266 0.29973 0.68127
 H586 H 0.51580 0.35905 0.72051
 H587 H 0.40484 0.36125 0.65478
 H588 H 0.53638 0.17190 0.59998
 H589 H 0.55643 0.10784 0.63920
 H590 H 0.53130 0.17052 0.75095
 H591 H 0.51137 0.23335 0.70956
 C592 C 0.40368 0.20282 0.54931
 C593 C 0.62670 0.29928 0.54813
 C594 C 0.54522 0.13455 0.69796
 C595 C 0.45822 0.36435 0.69050
 C596 C 0.47696 0.78189 0.91434
 H597 H 0.50568 0.79698 0.91155
 C598 C 0.44286 0.80049 0.93463
 H599 H 0.44540 0.82983 0.94781
 C600 C 0.43766 0.72665 0.89814
 H601 H 0.43556 0.69834 0.88309
 C602 C 0.40279 0.74426 0.91813
 H603 H 0.37392 0.72946 0.91845
 N604 N 0.47358 0.74606 0.89590
 C605 C 0.59638 0.69056 0.87136
 H606 H 0.59494 0.68559 0.83908
 C607 C 0.63186 0.67852 0.89160
 H608 H 0.65776 0.66412 0.87493
 C609 C 0.56449 0.71539 0.93253
 H610 H 0.53819 0.72979 0.94835
 C611 C 0.59950 0.70379 0.95399
 H612 H 0.60005 0.70919 0.98629
 Zn613 Zn 0.51795 0.72755 0.86096
 N614 N 0.56378 0.70918 0.89177
 C615 C 0.57233 0.78256 0.81996
 N616 N 0.53229 0.77338 0.82593
 C617 C 0.50162 0.80083 0.81451
 C618 C 0.51070 0.84026 0.79918
 C619 C 0.58270 0.82131 0.80432
 C620 C 0.51180 0.64496 0.84432
 C621 C 0.49463 0.61182 0.82789
 C622 C 0.45549 0.65933 0.78416
 C623 C 0.47362 0.69172 0.80127
 N624 N 0.50071 0.68401 0.83128
 H625 H 0.59637 0.76101 0.82970
 H626 H 0.46999 0.79327 0.82040
 H627 H 0.48607 0.86284 0.79293
 H628 H 0.61459 0.82900 0.80200
 H629 H 0.53221 0.63943 0.86912
 H630 H 0.50227 0.58097 0.83986
 H631 H 0.43247 0.66571 0.76174
 H632 H 0.46460 0.72300 0.79206
 C633 C 0.63359 0.68554 0.93317
 C634 C 0.40526 0.78191 0.93581
 C635 C 0.46562 0.61905 0.79817
 C636 C 0.55162 0.85086 0.79527
 C637 C 0.46418 -0.15969 0.32126
 C638 C 0.45202 -0.12957 0.30174
 C639 C 0.96453 0.34067 0.81829
 C640 C 0.95296 0.37123 0.79908
 C641 C 0.01767 1.19485 0.82885
 C642 C 0.03064 1.16280 0.81547
 C643 C 0.51759 0.69491 0.33160
 C644 C 0.53074 0.66324 0.31757
 C645 C 0.52006 0.34194 0.16860
 C646 C 0.53154 0.37005 0.18650
 C647 C 0.02005 0.84059 0.66809
 C648 C 0.03119 0.86815 0.68706
 C649 C 0.97337 0.70391 0.65622
 C650 C 0.95680 0.67304 0.66788
 C651 C 0.47025 0.20098 0.16058
 C652 C 0.45349 0.17013 0.17187
 C653 C 0.31935 0.46256 -0.15925
 C654 C 0.30005 0.45071 -0.12891
 C655 C 0.82303 0.96091 0.34107
 C656 C 0.80385 0.94881 0.37141
 C657 C 0.83219 0.01480 1.19546
 C658 C 0.81824 0.02803 1.16372
 C659 C 0.32931 0.51702 0.69557
 C660 C 0.31533 0.53046 0.66392
 C661 C 0.16607 0.52199 0.34253
 C662 C 0.18409 0.53330 0.37065
 C663 C 0.66738 0.02007 0.84230
 C664 C 0.68571 0.03104 0.87037
 C665 C 0.65928 0.97231 0.70089
 C666 C 0.67112 0.95542 0.67035
 C667 C 0.15859 0.47211 0.20177
 C668 C 0.17017 0.45521 0.17116
 C669 C -0.15888 0.32039 0.46469
 C670 C -0.12859 0.30109 0.45278
 C671 C 0.33871 0.82296 0.96375
 C672 C 0.36883 0.80336 0.95175
 C673 C 1.19740 0.83539 0.01558
 C674 C 1.16551 0.82162 0.02866
 C675 C 0.69558 0.33056 0.51798
 C676 C 0.66378 0.31662 0.53102
 C677 C 0.34319 0.16494 0.52017
 C678 C 0.37114 0.18325 0.53147
 C679 C 0.84290 0.67217 0.01871
 C680 C 0.87086 0.69059 0.02986
 C681 C 0.70156 0.66240 0.97021
 C682 C 0.67033 0.67355 0.95404
 C683 C 0.20189 0.15782 0.47145
 C684 C 0.17121 0.16987 0.45476
 C685 C 0.57311 0.06884 0.74049
 C686 C 0.55942 0.09836 0.72108
 C687 C 1.07177 0.57417 0.23861
 C688 C 1.05828 0.60367 0.21904
 C689 C 0.92519 0.92804 0.23383
 C690 C 0.94229 0.90190 0.21367
 C691 C 0.42310 0.42395 0.73330
 C692 C 0.44044 0.39741 0.71384
 C693 C 0.42160 0.55729 0.78159
 C694 C 0.44232 0.58564 0.78711
 C695 C -0.07691 0.05803 0.28151
 C696 C -0.05612 0.08640 0.28678
 C697 C 0.07254 0.42925 0.28735
 C698 C 0.06164 0.39457 0.28980
 C699 C 0.57379 0.92727 0.78642
 C700 C 0.56213 0.89289 0.78863
 C701 C 0.74119 0.57519 0.07066
 C702 C 0.72190 0.56082 0.09990
 C703 C 0.24033 1.06940 0.57235
 C704 C 0.22113 1.05525 0.60177
 C705 C 0.23388 0.92421 0.92893
 C706 C 0.21385 0.94082 0.90230
 C707 C 0.73379 0.42407 0.42520
 C708 C 0.71434 0.44131 0.39852
 C709 C 0.78178 0.42345 0.55822
 C710 C 0.78725 0.44484 0.58602
 C711 C 0.28016 -0.07866 0.05624
 C712 C 0.28550 -0.05787 0.08458
 C713 C 0.28713 0.07188 0.42730
 C714 C 0.28914 0.06079 0.39272
 C715 C 0.78927 0.57744 0.92612
 C716 C 0.79204 0.56595 0.89170
 C717 C 0.06834 0.74204 0.57346
 C718 C 0.09776 0.72253 0.55979
 C719 C 0.57174 0.23908 1.07336
 C720 C 0.60105 0.21971 1.05934
 C721 C 0.92491 0.23307 0.92206
 C722 C 0.89857 0.21344 0.93964
 C723 C 0.42497 0.73326 0.42528
 C724 C 0.39811 0.71402 0.44248
 C725 C 0.55883 0.78057 0.42377
 C726 C 0.58711 0.78566 0.44478
 C727 C 0.05773 0.28088 -0.07819
 C728 C 0.08554 0.28609 -0.05665
 C729 C 0.42701 0.28721 0.07498
 C730 C 0.39241 0.28957 0.06385
 C731 C 0.92964 0.78657 0.57750
 C732 C 0.89493 0.78857 0.56660
   
