data_POSCAR
  _audit_creation_date              2014-09-24
  _audit_creation_method            'ToBaCCo'
  _symmetry_space_group_name_H-M    'P1'
  _symmetry_Int_Tables_number       1
  _symmetry_cell_setting            triclinic
  loop_
  _symmetry_equiv_pos_as_xyz
 x,y,z
_cell_length_a 57.9048
_cell_length_b 57.9460
_cell_length_c 16.1272
_cell_angle_alpha 90.083200
_cell_angle_beta 89.993900
_cell_angle_gamma 119.880900
loop_
  _atom_site_label
  _atom_site_type_symbol
  _atom_site_fract_x
  _atom_site_fract_y
  _atom_site_fract_z
C1 C 0.22803 0.49883 0.45678
 C2 C 0.22794 0.49849 0.54444
 C3 C 0.24896 0.49843 0.58755
 C4 C 0.27007 0.49866 0.54441
 C5 C 0.27014 0.49899 0.45694
 C6 C 0.24919 0.49909 0.41379
 H7 H 0.24937 0.49930 0.34649
 H8 H 0.24884 0.49815 0.65490
 C9 C 0.50148 -0.27022 0.45502
 C10 C 0.50165 -0.26993 0.54251
 C11 C 0.50177 -0.24883 0.58546
 C12 C 0.50174 -0.22790 0.54215
 C13 C 0.50157 -0.22819 0.45465
 C14 C 0.50143 -0.24930 0.41170
 H15 H 0.50133 -0.24938 0.34440
 H16 H 0.50193 -0.24873 0.65277
 C17 C 1.27061 0.77216 0.45184
 C18 C 1.27046 0.77208 0.53936
 C19 C 1.24951 0.75108 0.58233
 C20 C 1.22863 0.73010 0.53906
 C21 C 1.22875 0.73017 0.45170
 C22 C 1.24970 0.75114 0.40859
 H23 H 1.24965 0.75107 0.34129
 H24 H 1.24944 0.75108 0.64960
 C25 C 0.77285 0.50357 0.45924
 C26 C 0.77291 0.50362 0.54674
 C27 C 0.75190 0.50365 0.58997
 C28 C 0.73086 0.50366 0.54698
 C29 C 0.73084 0.50361 0.45948
 C30 C 0.75181 0.50354 0.41635
 H31 H 0.75179 0.50355 0.34907
 H32 H 0.75197 0.50373 0.65732
 C33 C 0.49599 0.26917 0.46012
 C34 C 0.49581 0.26907 0.54762
 C35 C 0.49577 0.24802 0.59060
 C36 C 0.49583 0.22705 0.54738
 C37 C 0.49598 0.22716 0.45988
 C38 C 0.49609 0.24822 0.41699
 H39 H 0.49617 0.24827 0.34971
 H40 H 0.49561 0.24794 0.65795
 C41 C 0.73137 0.22732 0.45710
 C42 C 0.73154 0.22729 0.54446
 C43 C 0.75255 0.24823 0.58756
 C44 C 0.77348 0.26924 0.54447
 C45 C 0.77330 0.26926 0.45695
 C46 C 0.75224 0.24832 0.41397
 H47 H 0.75213 0.24832 0.34669
 H48 H 0.75261 0.24810 0.65486
 O49 O 1.03731 0.55857 0.14942
 O50 O 1.06658 0.55246 0.06964
 C51 C 1.06127 0.56460 0.12768
 O52 O 0.96288 0.43943 0.14288
 O53 O 0.93353 0.44689 0.06834
 C54 C 0.93888 0.43360 0.12214
 O55 O 1.03757 0.47862 0.15016
 O56 O 1.06674 0.51381 0.07016
 C57 C 1.06152 0.49648 0.12839
 O58 O 0.96287 0.52365 0.14178
 O59 O 0.93365 0.48679 0.06753
 C60 C 0.93891 0.50550 0.12110
 Zr61 Zr 1.00006 0.52914 0.10140
 O62 O 0.99759 0.52940 0.23232
 O63 O 1.00123 0.56607 0.09130
 Zr64 Zr 1.00021 0.47087 0.10259
 O65 O 0.99733 0.46948 0.23356
 O66 O 1.00324 0.43593 0.10167
 O67 O 1.02390 0.51190 0.11830
 O68 O 0.97706 0.48850 0.11735
 O69 O 0.96244 0.52301 -0.14603
 O70 O 0.93324 0.48614 -0.07179
 C71 C 0.93848 0.50484 -0.12521
 O72 O 1.03736 0.47810 -0.15397
 O73 O 1.06661 0.51355 -0.07461
 C74 C 1.06132 0.49602 -0.13230
 O75 O 0.96266 0.43884 -0.14589
 O76 O 0.93335 0.44632 -0.07101
 C77 C 0.93867 0.43293 -0.12472
 O78 O 1.03718 0.55834 -0.15508
 O79 O 1.06656 0.55231 -0.07557
 C80 C 1.06119 0.56440 -0.13362
 Zr81 Zr 0.99995 0.52876 -0.10727
 O82 O 0.99689 0.52715 -0.23819
 O83 O 1.00232 0.56641 -0.10646
 Zr84 Zr 1.00010 0.47051 -0.10657
 O85 O 0.99705 0.46864 -0.23752
 O86 O 1.00316 0.43559 -0.10497
 Zr87 Zr 1.03993 0.51971 -0.00256
 Zr88 Zr 0.96040 0.47992 -0.00239
 O89 O 0.97690 0.48805 -0.12228
 O90 O 1.02380 0.51150 -0.12337
 O91 O 0.97612 0.52144 -0.00285
 O92 O 1.02339 0.47810 -0.00200
 O93 O 1.02334 0.54480 -0.00297
 O94 O 0.97635 0.45421 -0.00186
 H95 H 0.96520 0.48270 0.16644
 H96 H 1.03546 0.47057 -0.00182
 H97 H 0.96485 0.48198 -0.17096
 H98 H 1.03537 0.56434 -0.00315
 H99 H 0.98792 0.42223 0.06983
 H100 H 0.98798 0.42204 -0.07240
 H101 H 1.01165 0.48558 -0.25950
 H102 H 1.01159 0.52486 -0.25996
 H103 H 0.98926 0.56556 -0.06524
 H104 H 1.00137 0.57215 0.14885
 H105 H 1.01068 0.52478 0.25449
 H106 H 1.01212 0.48639 0.25525
 O107 O 0.44133 0.47898 0.15098
 O108 O 0.44740 0.51427 0.07126
 C109 C 0.43530 0.49691 0.12928
 O110 O 0.56054 0.52347 0.14457
 O111 O 0.55325 0.48683 0.06949
 C112 C 0.56648 0.50540 0.12358
 O113 O 0.52092 0.55836 0.15268
 O114 O 0.48602 0.55281 0.07158
 C115 C 0.50320 0.56467 0.13049
 O116 O 0.47676 0.43961 0.14387
 O117 O 0.51348 0.44683 0.06916
 C118 C 0.49486 0.43364 0.12310
 Zr119 Zr 0.47091 0.47116 0.10369
 O120 O 0.47116 0.46914 0.23476
 O121 O 0.43397 0.43542 0.09563
 Zr122 Zr 0.52929 0.52946 0.10261
 O123 O 0.53325 0.53248 0.23306
 O124 O 0.56499 0.56613 0.08833
 O125 O 0.48828 0.51218 0.11962
 O126 O 0.51163 0.48875 0.11891
 O127 O 0.47624 0.43887 -0.14318
 O128 O 0.51329 0.44655 -0.06936
 C129 C 0.49444 0.43304 -0.12244
 O130 O 0.52133 0.55857 -0.15344
 O131 O 0.48597 0.55264 -0.07393
 C132 C 0.50342 0.56469 -0.13185
 O133 O 0.56075 0.52339 -0.14542
 O134 O 0.55322 0.48667 -0.07068
 C135 C 0.56662 0.50528 -0.12436
 O136 O 0.44091 0.47834 -0.15245
 O137 O 0.44720 0.51397 -0.07368
 C138 C 0.43491 0.49637 -0.13123
 Zr139 Zr 0.47072 0.47083 -0.10505
 O140 O 0.47219 0.46917 -0.23599
 O141 O 0.43304 0.43569 -0.10393
 Zr142 Zr 0.52898 0.52897 -0.10587
 O143 O 0.53026 0.52718 -0.23682
 O144 O 0.56413 0.56664 -0.10517
 Zr145 Zr 0.48003 0.52008 -0.00117
 Zr146 Zr 0.51978 0.48013 -0.00061
 O147 O 0.51140 0.48823 -0.12057
 O148 O 0.48793 0.51180 -0.12196
 O149 O 0.47823 0.45455 -0.00037
 O150 O 0.52163 0.54514 -0.00161
 O151 O 0.45497 0.47850 -0.00066
 O152 O 0.54554 0.52165 -0.00139
 H153 H 0.51756 0.48278 0.16793
 H154 H 0.52902 0.56468 -0.00151
 H155 H 0.51735 0.48209 -0.16921
 H156 H 0.43540 0.47099 -0.00062
 H157 H 0.57119 0.57289 0.14517
 H158 H 0.57671 0.56558 -0.06594
 H159 H 0.51337 0.52516 -0.25848
 H160 H 0.47401 0.48592 -0.25795
 H161 H 0.43375 0.42383 -0.06120
 H162 H 0.42829 0.42966 0.15350
 H163 H 0.47413 0.48640 0.25650
 H164 H 0.51839 0.51595 0.25602
 O165 O 0.52135 -0.03722 0.14984
 O166 O 0.48604 -0.06640 0.07001
 C167 C 0.50346 -0.06113 0.12799
 O168 O 0.47667 0.03748 0.14343
 O169 O 0.51325 0.06683 0.06832
 C170 C 0.49468 0.06147 0.12248
 O171 O 0.44173 -0.03708 0.15181
 O172 O 0.44737 -0.06637 0.07050
 C173 C 0.43547 -0.06107 0.12943
 O174 O 0.56057 0.03722 0.14384
 O175 O 0.55307 0.06652 0.06948
 C176 C 0.56641 0.06119 0.12323
 Zr177 Zr 0.52901 0.00010 0.10290
 O178 O 0.53103 0.00239 0.23399
 O179 O 0.56484 -0.00106 0.09448
 Zr180 Zr 0.47054 0.00011 0.10190
 O181 O 0.46765 0.00122 0.23233
 O182 O 0.43375 -0.00093 0.08800
 O183 O 0.48798 -0.02355 0.11874
 O184 O 0.51127 0.02315 0.11826
 O185 O 0.56110 0.03737 -0.14444
 O186 O 0.55332 0.06661 -0.07040
 C187 C 0.56687 0.06132 -0.12353
 O188 O 0.44136 -0.03695 -0.15442
 O189 O 0.44747 -0.06627 -0.07509
 C190 C 0.43535 -0.06091 -0.13300
 O191 O 0.47658 0.03771 -0.14525
 O192 O 0.51336 0.06695 -0.07033
 C193 C 0.49468 0.06168 -0.12407
 O194 O 0.52176 -0.03707 -0.15354
 O195 O 0.48622 -0.06634 -0.07486
 C196 C 0.50379 -0.06104 -0.13244
 Zr197 Zr 0.52919 0.00018 -0.10595
 O198 O 0.53063 0.00326 -0.23688
 O199 O 0.56441 -0.00234 -0.10479
 Zr200 Zr 0.47089 0.00024 -0.10650
 O201 O 0.47243 0.00330 -0.23742
 O202 O 0.43313 -0.00231 -0.10576
 Zr203 Zr 0.48004 -0.03968 -0.00215
 Zr204 Zr 0.51972 0.03985 -0.00120
 O205 O 0.51162 0.02337 -0.12124
 O206 O 0.48819 -0.02356 -0.12285
 O207 O 0.54545 0.02397 -0.00111
 O208 O 0.45485 -0.02321 -0.00241
 O209 O 0.52167 -0.02316 -0.00165
 O210 O 0.47814 0.02405 -0.00193
 H211 H 0.51722 0.03503 0.16736
 H212 H 0.43531 -0.03535 -0.00238
 H213 H 0.51769 0.03543 -0.16980
 H214 H 0.52925 -0.03518 -0.00174
 H215 H 0.42717 -0.00123 0.14491
 H216 H 0.43420 0.01138 -0.06669
 H217 H 0.47477 -0.01136 -0.25928
 H218 H 0.51394 -0.01177 -0.25885
 H219 H 0.57627 0.01021 -0.06194
 H220 H 0.57058 -0.00118 0.15229
 H221 H 0.51389 -0.01201 0.25566
 H222 H 0.48392 0.00221 0.25528
 C223 C 1.13222 0.51654 0.19251
 C224 C 1.12772 0.49782 0.25427
 C225 C 1.10160 0.47871 0.27512
 C226 C 1.08005 0.47828 0.23440
 C227 C 1.20777 0.49878 0.41270
 C228 C 1.11071 0.51616 0.15167
 C229 C 1.14987 0.49822 0.29646
 C230 C 1.16829 0.49847 0.33228
 C231 C 1.18970 0.49868 0.37509
 C232 C 1.08434 0.49699 0.17206
 H233 H 1.15234 0.53144 0.17588
 H234 H 1.09787 0.46413 0.32287
 H235 H 1.06006 0.46325 0.25172
 H236 H 1.11479 0.53088 0.10412
 C237 C 0.48317 0.61539 0.19454
 C238 C 0.50195 0.62962 0.25628
 C239 C 0.52100 0.62248 0.27750
 C240 C 0.52136 0.60129 0.23698
 C241 C 0.50146 0.70943 0.41165
 C242 C 0.48349 0.59420 0.15391
 C243 C 0.50171 0.65155 0.29783
 C244 C 0.50157 0.66989 0.33294
 C245 C 0.50148 0.69130 0.37480
 C246 C 0.50264 0.58692 0.17448
 H247 H 0.46831 0.62070 0.17766
 H248 H 0.53562 0.63333 0.32527
 H249 H 0.53638 0.59627 0.25443
 H250 H 0.46874 0.58359 0.10627
 C251 C 0.38485 -0.13168 0.19259
 C252 C 0.37053 -0.12719 0.25424
 C253 C 0.37760 -0.10106 0.27575
 C254 C 0.39879 -0.07953 0.23559
 C255 C 0.29084 -0.20752 0.40848
 C256 C 0.40604 -0.11021 0.15232
 C257 C 0.34859 -0.14935 0.29540
 C258 C 0.33027 -0.16783 0.33019
 C259 C 0.30890 -0.18935 0.37176
 C260 C 0.41325 -0.08383 0.17317
 H261 H 0.37960 -0.15180 0.17549
 H262 H 0.36669 -0.09733 0.32346
 H263 H 0.40376 -0.05955 0.25324
 H264 H 0.41671 -0.11430 0.10473
 C265 C 0.86846 0.48613 0.18548
 C266 C 0.87322 0.50532 0.24605
 C267 C 0.89938 0.52492 0.26439
 C268 C 0.92074 0.52520 0.22303
 C269 C 0.79420 0.50374 0.41219
 C270 C 0.88979 0.48635 0.14398
 C271 C 0.85134 0.50474 0.29038
 C272 C 0.83319 0.50433 0.32826
 C273 C 0.81210 0.50396 0.37330
 C274 C 0.91622 0.50582 0.16264
 H275 H 0.84828 0.47087 0.17074
 H276 H 0.90330 0.53988 0.31114
 H277 H 0.94079 0.54047 0.23899
 H278 H 0.88555 0.47114 0.09785
 C279 C 0.51403 0.38241 0.18765
 C280 C 0.49481 0.36812 0.24809
 C281 C 0.47532 0.37489 0.26650
 C282 C 0.47514 0.39600 0.22522
 C283 C 0.49591 0.29040 0.41334
 C284 C 0.51391 0.40355 0.14622
 C285 C 0.49525 0.34675 0.29220
 C286 C 0.49554 0.32893 0.32989
 C287 C 0.49578 0.30813 0.37467
 C288 C 0.49452 0.41069 0.16484
 H289 H 0.52923 0.37734 0.17291
 H290 H 0.46035 0.36397 0.31321
 H291 H 0.45993 0.40091 0.24118
 H292 H 0.52913 0.41439 0.10014
 C293 C 0.62541 0.10062 0.26609
 C294 C 0.63209 0.12679 0.24735
 C295 C 0.61762 0.13157 0.18697
 C296 C 0.59643 0.11027 0.14590
 C297 C 0.71010 0.20595 0.41072
 C298 C 0.60424 0.07928 0.22516
 C299 C 0.65355 0.14867 0.29098
 C300 C 0.67144 0.16685 0.32821
 C301 C 0.69231 0.18800 0.37245
 C302 C 0.58939 0.08384 0.16481
 H303 H 0.63646 0.09669 0.31276
 H304 H 0.62262 0.15175 0.17198
 H305 H 0.58547 0.11453 0.09983
 H306 H 0.59940 0.05924 0.24132
 C307 C 0.51359 0.13214 -0.18588
 C308 C 0.49440 0.12743 -0.24636
 C309 C 0.47500 0.10129 -0.26571
 C310 C 0.47490 0.07990 -0.22533
 C311 C 0.49563 0.20675 -0.40884
 C312 C 0.51354 0.11079 -0.14537
 C313 C 0.49480 0.14936 -0.28961
 C314 C 0.49510 0.16758 -0.32660
 C315 C 0.49541 0.18877 -0.37065
 C316 C 0.49426 0.08438 -0.16494
 H317 H 0.52871 0.15230 -0.17042
 H318 H 0.46005 0.09741 -0.31245
 H319 H 0.45977 0.05988 -0.24199
 H320 H 0.52874 0.11499 -0.09923
 C321 C 0.62590 0.52474 -0.26579
 C322 C 0.63264 0.50529 -0.24656
 C323 C 0.61813 0.48612 -0.18627
 C324 C 0.59682 0.48624 -0.14582
 C325 C 0.71078 0.50388 -0.40903
 C326 C 0.60462 0.52492 -0.22548
 C327 C 0.65417 0.50482 -0.28972
 C328 C 0.67210 0.50447 -0.32668
 C329 C 0.69300 0.50412 -0.37075
 C330 C 0.58971 0.50559 -0.16526
 H331 H 0.63699 0.53967 -0.31239
 H332 H 0.62316 0.47096 -0.17090
 H333 H 0.58581 0.47107 -0.09982
 H334 H 0.59974 0.54009 -0.24204
 C335 C 0.89919 0.37369 -0.26656
 C336 C 0.87300 0.36702 -0.24772
 C337 C 0.86823 0.38153 -0.18739
 C338 C 0.88955 0.40277 -0.14657
 C339 C 0.79377 0.28927 -0.41159
 C340 C 0.92054 0.39491 -0.22588
 C341 C 0.85111 0.34560 -0.29140
 C342 C 0.83292 0.32777 -0.32874
 C343 C 0.81176 0.30698 -0.37317
 C344 C 0.91600 0.40982 -0.16569
 H345 H 0.90312 0.36260 -0.31317
 H346 H 0.84803 0.37655 -0.17232
 H347 H 0.88529 0.41379 -0.10060
 H348 H 0.94060 0.39974 -0.24217
 C349 C 0.48397 -0.13163 -0.19678
 C350 C 0.50290 -0.12710 -0.25795
 C351 C 0.52208 -0.10098 -0.27840
 C352 C 0.52237 -0.07947 -0.23781
 C353 C 0.50194 -0.20747 -0.41445
 C354 C 0.48421 -0.11017 -0.15609
 C355 C 0.50262 -0.14924 -0.29986
 C356 C 0.50240 -0.16772 -0.33527
 C357 C 0.50214 -0.18925 -0.37744
 C358 C 0.50345 -0.08380 -0.17603
 H359 H 0.46900 -0.15175 -0.18048
 H360 H 0.53682 -0.09722 -0.32572
 H361 H 0.53746 -0.05948 -0.25479
 H362 H 0.46932 -0.11429 -0.10899
 C363 C 0.38412 0.51633 -0.19491
 C364 C 0.36969 0.49738 -0.25603
 C365 C 0.37665 0.47815 -0.27668
 C366 C 0.39788 0.47782 -0.23634
 C367 C 0.29027 0.49844 -0.41207
 C368 C 0.40535 0.51605 -0.15447
 C369 C 0.34782 0.49769 -0.29772
 C370 C 0.32957 0.49795 -0.33297
 C371 C 0.30829 0.49823 -0.37505
 C372 C 0.41249 0.49676 -0.17461
 H373 H 0.37895 0.53133 -0.17846
 H374 H 0.36565 0.46339 -0.32396
 H375 H 0.40279 0.46270 -0.25347
 H376 H 0.41614 0.53096 -0.10740
 C377 C 1.10097 0.62220 -0.28009
 C378 C 1.12714 0.62927 -0.25921
 C379 C 1.13176 0.61503 -0.19772
 C380 C 1.11034 0.59389 -0.15706
 C381 C 1.20719 0.70872 -0.41505
 C382 C 1.07950 0.60107 -0.23955
 C383 C 1.14922 0.65111 -0.30093
 C384 C 1.16764 0.66937 -0.33617
 C385 C 1.18907 0.69067 -0.37817
 C386 C 1.08391 0.58667 -0.17736
 H387 H 1.09714 0.63305 -0.32768
 H388 H 1.15192 0.62028 -0.18110
 H389 H 1.11452 0.58325 -0.10966
 H390 H 1.05947 0.59608 -0.25684
 C391 C 0.89874 0.52445 -0.26650
 C392 C 0.87260 0.50502 -0.24730
 C393 C 0.86794 0.48581 -0.18710
 C394 C 0.88934 0.48589 -0.14666
 C395 C 0.79319 0.50379 -0.40946
 C396 C 0.92017 0.52458 -0.22619
 C397 C 0.85064 0.50460 -0.29042
 C398 C 0.83240 0.50430 -0.32732
 C399 C 0.81119 0.50400 -0.37130
 C400 C 0.91574 0.50521 -0.16606
 H401 H 0.90257 0.53940 -0.31305
 H402 H 0.84777 0.47067 -0.17180
 H403 H 0.88517 0.47069 -0.10071
 H404 H 0.94019 0.53974 -0.24269
 C405 C 0.47452 0.37356 -0.26334
 C406 C 0.49405 0.36689 -0.24456
 C407 C 0.51338 0.38144 -0.18454
 C408 C 0.51334 0.40277 -0.14397
 C409 C 0.49555 0.28909 -0.40832
 C410 C 0.47443 0.39487 -0.22291
 C411 C 0.49451 0.34543 -0.28809
 C412 C 0.49487 0.32758 -0.32539
 C413 C 0.49526 0.30679 -0.36983
 C414 C 0.49394 0.40984 -0.16307
 H415 H 0.45947 0.36243 -0.30975
 H416 H 0.52860 0.37644 -0.16956
 H417 H 0.52865 0.41383 -0.09825
 H418 H 0.45920 0.39973 -0.23918
 C419 C 0.62630 0.10077 -0.26411
 C420 C 0.63286 0.12692 -0.24536
 C421 C 0.61825 0.13169 -0.18544
 C422 C 0.59698 0.11039 -0.14495
 C423 C 0.71044 0.20593 -0.40904
 C424 C 0.60505 0.07944 -0.22377
 C425 C 0.65425 0.14877 -0.28886
 C426 C 0.67205 0.16692 -0.32616
 C427 C 0.69278 0.18801 -0.37059
 C428 C 0.59002 0.08397 -0.16404
 H429 H 0.63748 0.09687 -0.31044
 H430 H 0.62317 0.15187 -0.17049
 H431 H 0.58586 0.11462 -0.09932
 H432 H 0.60028 0.05940 -0.24001
 C433 C 1.13188 0.51581 -0.19471
 C434 C 1.12737 0.49683 -0.25568
 C435 C 1.10131 0.47765 -0.27674
 C436 C 1.07976 0.47737 -0.23683
 C437 C 1.20762 0.49815 -0.41155
 C438 C 1.11039 0.51559 -0.15468
 C439 C 1.14950 0.49715 -0.29702
 C440 C 1.16798 0.49745 -0.33216
 C441 C 1.18946 0.49782 -0.37426
 C442 C 1.08406 0.49634 -0.17524
 H443 H 1.15201 0.53077 -0.17811
 H444 H 1.09764 0.46290 -0.32401
 H445 H 1.05977 0.46229 -0.25413
 H446 H 1.11445 0.53050 -0.10765
 C447 C 0.48360 0.61543 -0.19457
 C448 C 0.50256 0.62976 -0.25552
 C449 C 0.52170 0.62275 -0.27661
 C450 C 0.52196 0.60151 -0.23668
 C451 C 0.50179 0.70891 -0.41087
 C452 C 0.48380 0.59418 -0.15453
 C453 C 0.50232 0.65159 -0.29668
 C454 C 0.50213 0.66982 -0.33169
 C455 C 0.50194 0.69100 -0.37366
 C456 C 0.50303 0.58700 -0.17504
 H457 H 0.46867 0.62069 -0.17795
 H458 H 0.53644 0.63373 -0.32385
 H459 H 0.53703 0.59653 -0.25395
 H460 H 0.46891 0.58344 -0.10747
 C461 C 0.37736 -0.10066 -0.27847
 C462 C 0.37049 -0.12674 -0.25770
 C463 C 0.38488 -0.13133 -0.19669
 C464 C 0.40605 -0.10992 -0.15628
 C465 C 0.29158 -0.20660 -0.41402
 C466 C 0.39853 -0.07918 -0.23817
 C467 C 0.34874 -0.14877 -0.29924
 C468 C 0.33058 -0.16717 -0.33452
 C469 C 0.30945 -0.18854 -0.37671
 C470 C 0.41310 -0.08357 -0.17648
 H471 H 0.36634 -0.09693 -0.32576
 H472 H 0.37972 -0.15147 -0.18031
 H473 H 0.41684 -0.11403 -0.10920
 H474 H 0.40341 -0.05919 -0.25523
 C475 C 0.48349 -0.13163 0.19087
 C476 C 0.50245 -0.12710 0.25188
 C477 C 0.52166 -0.10105 0.27286
 C478 C 0.52199 -0.07953 0.23280
 C479 C 0.50164 -0.20693 0.40799
 C480 C 0.48376 -0.11017 0.15068
 C481 C 0.50215 -0.14917 0.29325
 C482 C 0.50194 -0.16757 0.32846
 C483 C 0.50175 -0.18892 0.37066
 C484 C 0.50305 -0.08385 0.17111
 H485 H 0.46851 -0.15175 0.17433
 H486 H 0.53640 -0.09736 0.32016
 H487 H 0.53710 -0.05956 0.25004
 H488 H 0.46886 -0.11423 0.10362
 C489 C 0.37738 0.47901 0.27465
 C490 C 0.37053 0.49826 0.25391
 C491 C 0.38489 0.51716 0.19288
 C492 C 0.40603 0.51678 0.15244
 C493 C 0.29145 0.49906 0.41043
 C494 C 0.39851 0.47857 0.23433
 C495 C 0.34879 0.49864 0.29547
 C496 C 0.33061 0.49887 0.33081
 C497 C 0.30942 0.49902 0.37310
 C498 C 0.41305 0.49744 0.17263
 H499 H 0.36637 0.46431 0.32195
 H500 H 0.37975 0.53217 0.17652
 H501 H 0.41681 0.53163 0.10536
 H502 H 0.40337 0.46342 0.25139
 C503 C 1.13181 0.61505 0.19065
 C504 C 1.12729 0.62949 0.25173
 C505 C 1.10121 0.62261 0.27298
 C506 C 1.07967 0.60142 0.23293
 C507 C 1.20743 0.70890 0.40562
 C508 C 1.11033 0.59386 0.15050
 C509 C 1.14941 0.65135 0.29267
 C510 C 1.16788 0.66962 0.32735
 C511 C 1.18933 0.69089 0.36884
 C512 C 1.08399 0.58684 0.17102
 H513 H 1.15194 0.62019 0.17396
 H514 H 1.09753 0.63365 0.32040
 H515 H 1.05968 0.59655 0.25029
 H516 H 1.11440 0.58305 0.10332
 C517 C 0.47526 0.10081 0.26638
 C518 C 0.49462 0.12698 0.24744
 C519 C 0.51371 0.13180 0.18654
 C520 C 0.51359 0.11052 0.14516
 C521 C 0.49587 0.20587 0.41285
 C522 C 0.47508 0.07950 0.22514
 C523 C 0.49508 0.14881 0.29150
 C524 C 0.49540 0.16694 0.32919
 C525 C 0.49569 0.18800 0.37403
 C526 C 0.49434 0.08409 0.16430
 H527 H 0.46039 0.09687 0.31345
 H528 H 0.52879 0.15199 0.17142
 H529 H 0.52870 0.11480 0.09869
 H530 H 0.45998 0.05945 0.24146
 C531 C 0.61767 0.48610 0.18733
 C532 C 0.63200 0.50524 0.24805
 C533 C 0.62527 0.52472 0.26698
 C534 C 0.60414 0.52496 0.22591
 C535 C 0.70966 0.50379 0.41268
 C536 C 0.59652 0.48628 0.14611
 C537 C 0.65337 0.50472 0.29193
 C538 C 0.67118 0.50435 0.32945
 C539 C 0.69195 0.50401 0.37407
 C540 C 0.58942 0.50566 0.16524
 H541 H 0.62273 0.47092 0.17223
 H542 H 0.63624 0.53962 0.31392
 H543 H 0.59925 0.54015 0.24221
 H544 H 0.58564 0.47113 0.09978
 C545 C 0.89953 0.37473 0.26465
 C546 C 0.87335 0.36810 0.24598
 C547 C 0.86852 0.38256 0.18579
 C548 C 0.88980 0.40371 0.14480
 C549 C 0.79453 0.29042 0.41006
 C550 C 0.92085 0.39585 0.22381
 C551 C 0.85151 0.34672 0.28960
 C552 C 0.83340 0.32890 0.32696
 C553 C 0.81236 0.30812 0.37147
 C554 C 0.91625 0.41070 0.16365
 H555 H 0.90348 0.36367 0.31119
 H556 H 0.84831 0.37759 0.17090
 H557 H 0.88552 0.41468 0.09886
 H558 H 0.94091 0.40065 0.23988
   
