data_POSCAR
  _audit_creation_date              2014-09-24
  _audit_creation_method            'ToBaCCo'
  _symmetry_space_group_name_H-M    'P1'
  _symmetry_Int_Tables_number       1
  _symmetry_cell_setting            triclinic
  loop_
  _symmetry_equiv_pos_as_xyz
 x,y,z
_cell_length_a 33.7340
_cell_length_b 37.8347
_cell_length_c 38.7433
_cell_angle_alpha 89.563500
_cell_angle_beta 89.769900
_cell_angle_gamma 90.428400
loop_
  _atom_site_label
  _atom_site_type_symbol
  _atom_site_fract_x
  _atom_site_fract_y
  _atom_site_fract_z
C1 C 0.40376 0.26186 0.02853
 C2 C 0.40150 0.25613 -0.00654
 C3 C 0.36305 0.26417 -0.01616
 N4 N 0.34208 0.27474 0.01177
 C5 C 0.36683 0.27373 0.03900
 C6 C 0.34720 0.26470 -0.04992
 C7 C 0.30985 0.28009 -0.05526
 C8 C 0.28412 0.27100 -0.08174
 C9 C 0.25951 0.29938 -0.08671
 C10 C 0.27075 0.32454 -0.06282
 N11 N 0.30054 0.31222 -0.04309
 C12 C 0.25768 0.35973 -0.06216
 C13 C 0.25435 0.37650 -0.02986
 C14 C 0.24628 0.41177 -0.02331
 C15 C 0.24484 0.41504 0.01199
 C16 C 0.25399 0.38216 0.02556
 N17 N 0.25932 0.35875 0.00017
 C18 C 0.25422 0.37318 0.06068
 C19 C 0.27617 0.34453 0.07412
 C20 C 0.27426 0.33246 0.10794
 C21 C 0.30325 0.30717 0.11145
 C22 C 0.32185 0.30430 0.07958
 N23 N 0.30503 0.32705 0.05696
 C24 C 0.35600 0.28380 0.07285
 H25 H 0.43014 0.25915 0.04408
 H26 H 0.42595 0.24849 -0.02285
 H27 H 0.31577 0.33311 0.03238
 H28 H 0.28571 0.24785 -0.09792
 H29 H 0.23750 0.30213 -0.10678
 H30 H 0.24286 0.43335 -0.04136
 H31 H 0.23901 0.43905 0.02607
 H32 H 0.31029 0.29295 0.13495
 H33 H 0.31836 0.32752 -0.02698
 H34 H 0.25492 0.34173 0.12825
 C35 C 0.73447 0.56990 0.02345
 C36 C 0.74072 0.57765 -0.01080
 C37 C 0.72583 0.61126 -0.01648
 N38 N 0.71120 0.62447 0.01325
 C39 C 0.71636 0.59917 0.03766
 C40 C 0.72888 0.63006 -0.04807
 C41 C 0.70933 0.66245 -0.05469
 C42 C 0.71812 0.68491 -0.08213
 C43 C 0.69365 0.71369 -0.07912
 C44 C 0.67014 0.70801 -0.05005
 N45 N 0.67952 0.67639 -0.03565
 C46 C 0.64184 0.73231 -0.03708
 C47 C 0.62310 0.72853 -0.00435
 C48 C 0.58917 0.74641 0.00554
 C49 C 0.58295 0.73899 0.03968
 C50 C 0.61247 0.71582 0.04961
 N51 N 0.63705 0.70950 0.02257
 C52 C 0.61900 0.70376 0.08377
 C53 C 0.64663 0.67694 0.09164
 C54 C 0.65880 0.66788 0.12469
 C55 C 0.68375 0.63962 0.12149
 C56 C 0.68602 0.63190 0.08660
 N57 N 0.66314 0.65458 0.06859
 C58 C 0.70648 0.60269 0.07290
 H59 H 0.74276 0.54565 0.03644
 H60 H 0.75481 0.56055 -0.02938
 H61 H 0.65561 0.65211 0.04276
 H62 H 0.74050 0.68135 -0.10187
 H63 H 0.69391 0.73657 -0.09604
 H64 H 0.57093 0.76358 -0.01013
 H65 H 0.55944 0.75009 0.05501
 H66 H 0.69816 0.62597 0.14259
 H67 H 0.66483 0.66412 -0.01516
 H68 H 0.65009 0.67973 0.14885
 C69 C 0.57669 0.26974 0.97233
 C70 C 0.57638 0.26587 1.00751
 C71 C 0.60958 0.28356 1.01975
 N72 N 0.62981 0.29857 0.99318
 C73 C 0.60980 0.29002 0.96411
 C74 C 0.62332 0.28130 1.05418
 C75 C 0.65358 0.30320 1.06782
 C76 C 0.67263 0.29722 1.09898
 C77 C 0.70116 0.32315 1.10217
 C78 C 0.69886 0.34433 1.07287
 N79 N 0.66906 0.33249 1.05249
 C80 C 0.72543 0.37237 1.06468
 C81 C 0.72745 0.38831 1.03153
 C82 C 0.74665 0.42013 1.02444
 C83 C 0.74661 0.42430 0.98936
 C84 C 0.72728 0.39499 0.97609
 N85 N 0.71525 0.37307 1.00191
 C86 C 0.72569 0.38690 0.94065
 C87 C 0.70121 0.36011 0.92701
 C88 C 0.70476 0.34635 0.89409
 C89 C 0.67609 0.32053 0.89118
 C90 C 0.65588 0.31920 0.92244
 N91 N 0.67081 0.34400 0.94385
 C92 C 0.62418 0.29582 0.93020
 H93 H 0.55557 0.25797 0.95481
 H94 H 0.55486 0.25068 1.02233
 H95 H 0.65932 0.35119 0.96773
 H96 H 0.66745 0.27578 1.11712
 H97 H 0.72213 0.32532 1.12312
 H98 H 0.76010 0.43805 1.04271
 H99 H 0.76017 0.44599 0.97513
 H100 H 0.67102 0.30437 0.86867
 H101 H 0.65886 0.34445 1.02999
 H102 H 0.72612 0.35377 0.87437
 C103 C 0.21417 0.61965 0.99052
 C104 C 0.22169 0.61599 0.95590
 C105 C 0.25981 0.62882 0.95010
 N106 N 0.27560 0.64053 0.97993
 C107 C 0.24770 0.63505 1.00460
 C108 C 0.28015 0.62849 0.91816
 C109 C 0.31729 0.64537 0.91292
 C110 C 0.34330 0.63764 0.88631
 C111 C 0.37297 0.66257 0.88712
 C112 C 0.36495 0.68465 0.91472
 N113 N 0.33079 0.67384 0.93033
 C114 C 0.38691 0.71563 0.92285
 C115 C 0.38116 0.73416 0.95404
 C116 C 0.39708 0.76702 0.96188
 C117 C 0.38565 0.77440 0.99499
 C118 C 0.36448 0.74523 1.00695
 N119 N 0.36163 0.72080 0.98183
 C120 C 0.34943 0.74056 1.04080
 C121 C 0.32638 0.71060 1.05040
 C122 C 0.32525 0.69619 1.08346
 C123 C 0.29793 0.66929 1.08312
 C124 C 0.28300 0.66784 1.04987
 N125 N 0.30117 0.69264 1.02973
 C126 C 0.25216 0.64475 1.03946
 H127 H 0.18668 0.61287 1.00353
 H128 H 0.20101 0.60563 0.93721
 H129 H 0.29357 0.69963 1.00456
 H130 H 0.34069 0.61671 0.86755
 H131 H 0.39680 0.66454 0.86849
 H132 H 0.41512 0.78428 0.94594
 H133 H 0.39250 0.79856 1.00852
 H134 H 0.29007 0.65255 1.10491
 H135 H 0.31471 0.68755 0.94878
 H136 H 0.34256 0.70416 1.10558
 C137 C 0.02738 0.22532 0.37569
 C138 C 0.06695 0.23323 0.37783
 C139 C 0.07086 0.26889 0.37028
 N140 N 0.03524 0.28276 0.36268
 C141 C 0.00838 0.25628 0.36580
 C142 C 0.10550 0.28935 0.37474
 C143 C 0.11042 0.32229 0.35765
 C144 C 0.13963 0.34724 0.36445
 C145 C 0.13573 0.37372 0.34004
 C146 C 0.10400 0.36434 0.31930
 N147 N 0.08861 0.33319 0.33035
 C148 C 0.09161 0.38236 0.28920
 C149 C 0.05219 0.37907 0.27732
 C150 C 0.03878 0.38776 0.24459
 C151 C -0.00161 0.38303 0.24505
 C152 C -0.01152 0.37139 0.27800
 N153 N 0.02145 0.36862 0.29756
 C154 C -0.05017 0.36317 0.29002
 C155 C -0.05560 0.34032 0.31893
 C156 C -0.08938 0.33797 0.33939
 C157 C -0.08527 0.30861 0.36015
 C158 C -0.04818 0.29469 0.35311
 N159 N -0.03022 0.31452 0.32821
 C160 C -0.03301 0.26215 0.36548
 H161 H 0.01468 0.19996 0.38255
 H162 H 0.08999 0.21498 0.38529
 H163 H -0.00454 0.30780 0.31476
 H164 H 0.16165 0.34646 0.38465
 H165 H 0.15416 0.39717 0.33780
 H166 H 0.05617 0.39567 0.22229
 H167 H -0.02108 0.38646 0.22319
 H168 H -0.10779 0.29878 0.37763
 H169 H 0.06719 0.31848 0.31736
 H170 H -0.11506 0.35491 0.33873
 C171 C 0.00618 0.73668 0.57832
 C172 C 0.04622 0.73101 0.57966
 C173 C 0.05425 0.72010 0.61310
 N174 N 0.02052 0.71833 0.63203
 C175 C -0.00877 0.72853 0.61086
 C176 C 0.09197 0.71306 0.62682
 C177 C 0.09552 0.69479 0.65836
 C178 C 0.12925 0.69350 0.67857
 C179 C 0.12221 0.66805 0.70346
 C180 C 0.08439 0.65476 0.69758
 N181 N 0.06806 0.67172 0.67060
 C182 C 0.06922 0.62301 0.71139
 C183 C 0.02832 0.61504 0.71131
 C184 C 0.01184 0.58200 0.71745
 C185 C -0.02846 0.58585 0.71454
 C186 C -0.03531 0.62129 0.70724
 N187 N -0.00042 0.63903 0.70504
 C188 C -0.07299 0.63723 0.70310
 C189 C -0.07678 0.66962 0.68469
 C190 C -0.10748 0.69353 0.68854
 C191 C -0.10066 0.72059 0.66531
 C192 C -0.06586 0.71265 0.64795
 N193 N -0.05130 0.68171 0.66013
 C194 C -0.04819 0.73358 0.62154
 H195 H -0.01024 0.74561 0.55599
 H196 H 0.06665 0.73419 0.55827
 H197 H -0.02692 0.66822 0.65035
 H198 H 0.15666 0.70809 0.67477
 H199 H 0.14336 0.65874 0.72234
 H200 H 0.02718 0.55752 0.72257
 H201 H -0.05002 0.56461 0.71649
 H202 H -0.11886 0.74381 0.66221
 H203 H 0.04277 0.66330 0.65758
 H204 H -0.13184 0.69214 0.70676
 C205 C 0.97537 0.73103 0.42598
 C206 C 1.01616 0.73145 0.42425
 C207 C 1.02620 0.72236 0.39075
 N208 N 0.99289 0.71610 0.37222
 C209 C 0.96185 0.72109 0.39369
 C210 C 1.06493 0.71811 0.37718
 C211 C 1.06991 0.70357 0.34403
 C212 C 1.10145 0.71113 0.32203
 C213 C 1.09999 0.68666 0.29610
 C214 C 1.06754 0.66500 0.30300
 N215 N 1.04867 0.67605 0.33176
 C216 C 1.05912 0.63321 0.28578
 C217 C 1.02030 0.61896 0.28510
 C218 C 1.00912 0.58665 0.27152
 C219 C 0.96844 0.58501 0.27349
 C220 C 0.95613 0.61589 0.28927
 N221 N 0.98793 0.63660 0.29591
 C222 C 0.91643 0.62652 0.29463
 C223 C 0.90688 0.65651 0.31495
 C224 C 0.86992 0.67233 0.31618
 C225 C 0.87186 0.69826 0.34078
 C226 C 0.90972 0.69744 0.35456
 N227 N 0.93102 0.67214 0.33849
 C228 C 0.92167 0.71631 0.38438
 H229 H 0.95785 0.73602 0.44885
 H230 H 1.03569 0.73649 0.44570
 H231 H 0.95857 0.66311 0.34647
 H232 H 1.12420 0.73113 0.32540
 H233 H 1.12129 0.68417 0.27530
 H234 H 1.02790 0.56631 0.26108
 H235 H 0.95056 0.56341 0.26407
 H236 H 0.84756 0.71497 0.34858
 H237 H 1.02679 0.66211 0.34534
 H238 H 0.84364 0.66539 0.30180
 C239 C 0.97076 0.27501 0.57337
 C240 C 1.01118 0.27286 0.57725
 C241 C 1.01938 0.28273 0.61089
 N242 N 0.98538 0.29209 0.62703
 C243 C 0.95571 0.28767 0.60421
 C244 C 1.05692 0.28305 0.62734
 C245 C 1.06035 0.29814 0.66030
 C246 C 1.08820 0.28897 0.68500
 C247 C 1.08539 0.31363 0.71069
 C248 C 1.05564 0.33668 0.70097
 N249 N 1.03977 0.32654 0.67077
 C250 C 1.04998 0.37026 0.71499
 C251 C 1.01297 0.38698 0.71276
 C252 C 1.00507 0.42195 0.72024
 C253 C 0.96508 0.42640 0.71496
 C254 C 0.95014 0.39398 0.70436
 N255 N 0.97947 0.37002 0.70311
 C256 C 0.90999 0.38583 0.69760
 C257 C 0.89931 0.35580 0.67777
 C258 C 0.86207 0.34007 0.67716
 C259 C 0.86366 0.31329 0.65326
 C260 C 0.90192 0.31316 0.63994
 N261 N 0.92340 0.33920 0.65500
 C262 C 0.91521 0.29128 0.61268
 H263 H 0.95475 0.26870 0.55012
 H264 H 1.03170 0.26557 0.55711
 H265 H 0.95183 0.34734 0.64776
 H266 H 1.10947 0.26773 0.68383
 H267 H 1.10463 0.31578 0.73289
 H268 H 1.02579 0.44225 0.72815
 H269 H 0.94913 0.45090 0.71788
 H270 H 0.83917 0.29625 0.64615
 H271 H 1.02111 0.34179 0.65537
 H272 H 0.83634 0.34705 0.69234
 C273 C 0.35221 0.01744 0.22421
 C274 C 0.35081 0.05239 0.23338
 C275 C 0.35227 0.05297 0.26905
 N276 N 0.35475 0.01987 0.28203
 C277 C 0.35566 -0.00188 0.25465
 C278 C 0.35506 0.08344 0.28946
 C279 C 0.34003 0.08295 0.32355
 C280 C 0.34523 0.10885 0.34831
 C281 C 0.32064 0.09997 0.37563
 C282 C 0.30250 0.06820 0.36728
 N283 N 0.31457 0.05803 0.33573
 C284 C 0.27152 0.05139 0.38557
 C285 C 0.26383 0.01479 0.38210
 C286 C 0.23085 -0.00303 0.39497
 C287 C 0.23600 -0.03807 0.38747
 C288 C 0.27254 -0.04076 0.37118
 N289 N 0.28931 -0.00832 0.36763
 C290 C 0.29118 -0.07246 0.36085
 C291 C 0.32128 -0.07127 0.33514
 C292 C 0.35216 -0.09505 0.33174
 C293 C 0.37270 -0.08573 0.30222
 C294 C 0.35389 -0.05643 0.28838
 N295 N 0.32324 -0.04727 0.30912
 C296 C 0.36464 -0.03815 0.25763
 H297 H 0.35174 0.00744 0.19811
 H298 H 0.34897 0.07478 0.21592
 H299 H 0.30268 -0.02738 0.30415
 H300 H 0.36406 0.13205 0.34691
 H301 H 0.31667 0.11532 0.39877
 H302 H 0.20564 0.00784 0.40843
 H303 H 0.21474 -0.05892 0.39291
 H304 H 0.39935 -0.09833 0.29302
 H305 H 0.30182 0.03760 0.32156
 H306 H 0.35974 -0.11645 0.34912
 C307 C 0.72402 -0.01596 0.58704
 C308 C 0.72081 0.01959 0.58036
 C309 C 0.71782 0.03594 0.61204
 N310 N 0.72005 0.01183 0.63788
 C311 C 0.72413 -0.02007 0.62273
 C312 C 0.71295 0.07253 0.61694
 C313 C 0.69874 0.08658 0.64811
 C314 C 0.70106 0.12189 0.65736
 C315 C 0.67770 0.12567 0.68625
 C316 C 0.66189 0.09256 0.69372
 N317 N 0.67546 0.06878 0.67076
 C318 C 0.63208 0.08538 0.71840
 C319 C 0.62634 0.05104 0.73175
 C320 C 0.59422 0.03923 0.75122
 C321 C 0.60239 0.00508 0.76072
 C322 C 0.63869 -0.00287 0.74600
 N323 N 0.65332 0.02516 0.72844
 C324 C 0.65893 -0.03485 0.75006
 C325 C 0.68766 -0.04609 0.72611
 C326 C 0.71315 -0.07414 0.73112
 C327 C 0.73276 -0.07894 0.70030
 C328 C 0.71832 -0.05387 0.67724
 N329 N 0.69137 -0.03356 0.69341
 C330 C 0.72689 -0.05241 0.64138
 H331 H 0.72430 -0.03616 0.56751
 H332 H 0.71906 0.03180 0.55506
 H333 H 0.67269 -0.01552 0.68137
 H334 H 0.71675 0.14296 0.64393
 H335 H 0.67199 0.15016 0.69958
 H336 H 0.56738 0.05323 0.75757
 H337 H 0.58340 -0.01217 0.77600
 H338 H 0.75442 -0.09920 0.69511
 H339 H 0.66447 0.04324 0.66749
 H340 H 0.71650 -0.09003 0.75426
 C341 C 0.28326 0.96662 0.57855
 C342 C 0.27045 1.00061 0.58217
 C343 C 0.27852 1.01035 0.61592
 N344 N 0.29574 0.98341 0.63307
 C345 C 0.29839 0.95656 0.61027
 C346 C 0.26899 1.04350 0.63024
 C347 C 0.28892 1.05770 0.65945
 C348 C 0.27796 1.08824 0.67633
 C349 C 0.30481 1.09345 0.70240
 C350 C 0.33126 1.06535 0.70184
 N351 N 0.32159 1.04408 0.67497
 C352 C 0.36516 1.06176 0.72380
 C353 C 0.38812 1.03015 0.72555
 C354 C 0.42244 1.02536 0.74485
 C355 C 0.43265 0.99036 0.74228
 C356 C 0.40396 0.97439 0.72224
 N357 N 0.37678 0.99863 0.71225
 C358 C 0.40200 0.93778 0.71480
 C359 C 0.37298 0.92304 0.69291
 C360 C 0.36337 0.88732 0.69167
 C361 C 0.33832 0.88289 0.66418
 C362 C 0.33323 0.91601 0.64948
 N363 N 0.35404 0.94044 0.66735
 C364 C 0.31273 0.92267 0.61853
 H365 H 0.28195 0.95140 0.55507
 H366 H 0.25740 1.01666 0.56202
 H367 H 0.35962 0.96635 0.65943
 H368 H 0.25338 1.10542 0.67041
 H369 H 0.30484 1.11614 0.71913
 H370 H 0.43832 1.04441 0.76020
 H371 H 0.45786 0.97806 0.75451
 H372 H 0.32582 0.85804 0.65563
 H373 H 0.33829 1.02322 0.66579
 H374 H 0.37408 0.86645 0.70839
 C375 C 0.56971 1.01339 0.25827
 C376 C 0.56400 0.97750 0.26089
 C377 C 0.59493 0.96466 0.28063
 N378 N 0.61914 0.99146 0.29035
 C379 C 0.60368 1.02131 0.27684
 C380 C 0.60168 0.92870 0.28832
 C381 C 0.63083 0.91757 0.31175
 C382 C 0.64532 0.88338 0.31412
 C383 C 0.66790 0.88186 0.34345
 C384 C 0.66672 0.91522 0.35788
 N385 N 0.64441 0.93693 0.33829
 C386 C 0.68394 0.92455 0.38945
 C387 C 0.69371 0.95998 0.39691
 C388 C 0.70838 0.97199 0.42805
 C389 C 0.71785 1.00696 0.42307
 C390 C 0.70804 1.01527 0.38921
 N391 N 0.69325 0.98655 0.37328
 C392 C 0.71641 1.04807 0.37290
 C393 C 0.69515 1.06064 0.34377
 C394 C 0.70509 1.09041 0.32431
 C395 C 0.67824 1.09241 0.29764
 C396 C 0.65293 1.06358 0.30118
 N397 N 0.66282 1.04485 0.32979
 C398 C 0.62198 1.05502 0.27804
 H399 H 0.55112 1.03160 0.24411
 H400 H 0.53999 0.96267 0.24935
 H401 H 0.64726 1.02333 0.34000
 H402 H 0.63928 0.86154 0.29699
 H403 H 0.68312 0.85879 0.35320
 H404 H 0.71241 0.95713 0.45172
 H405 H 0.73070 1.02440 0.44210
 H406 H 0.67812 1.11227 0.27738
 H407 H 0.63436 0.96181 0.34538
 H408 H 0.72960 1.10847 0.32840
 O409 O 0.84633 0.81314 0.47167
 O410 O 0.80007 0.86942 0.53943
 O411 O 0.86255 0.83098 0.53446
 O412 O 0.78882 0.86025 0.47321
 O413 O 0.74818 0.81721 0.48957
 O414 O 0.82535 0.78523 0.55008
 O415 O 0.76279 0.82366 0.55483
 O416 O 0.80504 0.77022 0.48695
 Cu417 Cu 0.82805 0.84789 0.50285
 Cu418 Cu 0.78149 0.79459 0.52160
 C419 C 0.83341 0.78156 0.46844
 C420 C 0.77401 0.85524 0.55919
 C421 C 0.85703 0.80354 0.55268
 C422 C 0.75562 0.84472 0.47143
 O423 O 0.14299 0.19920 0.47745
 O424 O 0.16216 0.12955 0.54241
 O425 O 0.12789 0.19108 0.54270
 O426 O 0.16367 0.13338 0.47533
 O427 O 0.22546 0.15133 0.48303
 O428 O 0.18780 0.21426 0.54839
 O429 O 0.22191 0.15198 0.55091
 O430 O 0.20494 0.21777 0.48237
 Cu431 Cu 0.14332 0.16128 0.50889
 Cu432 Cu 0.21604 0.18582 0.51705
 C433 C 0.17114 0.21996 0.46843
 C434 C 0.19549 0.12901 0.55777
 C435 C 0.15107 0.21321 0.55639
 C436 C 0.20003 0.13219 0.46746
 O437 O 0.21356 0.84664 0.45934
 O438 O 0.17068 0.79587 0.53246
 O439 O 0.22248 0.84695 0.52637
 O440 O 0.15835 0.79710 0.46606
 O441 O 0.20527 0.75695 0.46192
 O442 O 0.27004 0.80786 0.51911
 O443 O 0.21884 0.75694 0.52749
 O444 O 0.25872 0.80524 0.45246
 Cu445 Cu 0.18658 0.82579 0.49656
 Cu446 Cu 0.24298 0.77786 0.48969
 C447 C 0.24316 0.83417 0.44320
 C448 C 0.18767 0.76770 0.54234
 C449 C 0.25709 0.83582 0.53294
 C450 C 0.17102 0.76809 0.45412
 O451 O 0.86476 0.17952 0.52610
 O452 O 0.83149 0.12026 0.45806
 O453 O 0.88451 0.16853 0.46037
 O454 O 0.81199 0.13052 0.52096
 O455 O 0.76836 0.17066 0.50487
 O456 O 0.84116 0.20869 0.44376
 O457 O 0.78665 0.15886 0.44101
 O458 O 0.82219 0.22015 0.50913
 Cu459 Cu 0.85311 0.14618 0.49313
 Cu460 Cu 0.80048 0.19393 0.47293
 C461 C 0.84840 0.20926 0.53007
 C462 C 0.80313 0.12884 0.43842
 C463 C 0.87470 0.19406 0.44090
 C464 C 0.77773 0.14393 0.52302
 O465 O 0.55206 0.83488 0.88605
 O466 O 0.48669 0.87149 0.81913
 O467 O 0.48122 0.81815 0.86457
 O468 O 0.55736 0.88485 0.84207
 O469 O 0.58293 0.84866 0.80350
 O470 O 0.50916 0.78105 0.82826
 O471 O 0.51241 0.83409 0.78192
 O472 O 0.57907 0.79815 0.84874
 Cu473 Cu 0.51600 0.85584 0.85661
 Cu474 Cu 0.54783 0.81166 0.81149
 C475 C 0.57704 0.81105 0.87885
 C476 C 0.48975 0.85989 0.78862
 C477 C 0.48383 0.78752 0.85161
 C478 C 0.58314 0.87798 0.81917
 O479 O 0.52626 0.17803 0.13078
 O480 O 0.45322 0.14535 0.19392
 O481 O 0.45271 0.19190 0.14324
 O482 O 0.52729 0.13209 0.17969
 O483 O 0.54425 0.17225 0.21812
 O484 O 0.47195 0.23374 0.17909
 O485 O 0.46925 0.18849 0.22948
 O486 O 0.54536 0.21951 0.16711
 Cu487 Cu 0.48778 0.15758 0.15847
 Cu488 Cu 0.50979 0.20747 0.20237
 C489 C 0.54807 0.20435 0.13804
 C490 C 0.44833 0.16159 0.22213
 C491 C 0.45029 0.22329 0.15438
 C492 C 0.54852 0.14186 0.20486
 O493 O 0.52849 0.14780 0.80956
 O494 O 0.45579 0.18894 0.86958
 O495 O 0.45225 0.14015 0.82105
 O496 O 0.53304 0.18927 0.86232
 O497 O 0.52453 0.23437 0.82658
 O498 O 0.44595 0.18259 0.78200
 O499 O 0.44790 0.23061 0.83008
 O500 O 0.52106 0.19278 0.77349
 Cu501 Cu 0.49301 0.16210 0.84438
 Cu502 Cu 0.48392 0.21443 0.79954
 C503 C 0.53697 0.16374 0.78134
 C504 C 0.43950 0.21737 0.85927
 C505 C 0.43604 0.15238 0.79409
 C506 C 0.54261 0.21992 0.85173
 O507 O 0.45450 0.82367 0.11757
 O508 O 0.52521 0.85851 0.18230
 O509 O 0.53071 0.80991 0.13698
 O510 O 0.46150 0.87910 0.15933
 O511 O 0.43370 0.84548 0.19982
 O512 O 0.50092 0.77282 0.17310
 O513 O 0.49736 0.82294 0.22114
 O514 O 0.42451 0.79381 0.15943
 Cu515 Cu 0.49483 0.84491 0.14384
 Cu516 Cu 0.46224 0.80367 0.19116
 C517 C 0.42600 0.80437 0.12848
 C518 C 0.52172 0.84731 0.21330
 C519 C 0.52864 0.78004 0.15169
 C520 C 0.43785 0.87531 0.18460
 O521 O 0.86381 0.54861 0.79704
 O522 O 0.83323 0.47864 0.85721
 O523 O 0.85999 0.48025 0.79450
 O524 O 0.83399 0.54749 0.85915
 O525 O 0.77264 0.54916 0.83959
 O526 O 0.79933 0.48312 0.77346
 O527 O 0.77208 0.48013 0.83711
 O528 O 0.80286 0.55172 0.77668
 Cu529 Cu 0.85373 0.51362 0.82911
 Cu530 Cu 0.78056 0.51631 0.80470
 C531 C 0.83892 0.56180 0.77630
 C532 C 0.79780 0.46729 0.85746
 C533 C 0.83416 0.47055 0.77268
 C534 C 0.79894 0.55954 0.86066
 O535 O 0.15127 0.47780 0.12908
 O536 O 0.12032 0.54803 0.18679
 O537 O 0.15180 0.55004 0.12350
 O538 O 0.12919 0.48272 0.19089
 O539 O 0.19175 0.48491 0.20773
 O540 O 0.21271 0.55454 0.14364
 O541 O 0.18168 0.55228 0.20631
 O542 O 0.21385 0.48411 0.14465
 Cu543 Cu 0.13286 0.51521 0.15420
 Cu544 Cu 0.20639 0.51996 0.17690
 C545 C 0.18700 0.46777 0.12809
 C546 C 0.14527 0.56092 0.20762
 C547 C 0.18588 0.56457 0.12310
 C548 C 0.15700 0.47218 0.21050
 O549 O 0.80907 0.51928 0.15120
 O550 O 0.87144 0.45998 0.20549
 O551 O 0.83117 0.45430 0.14933
 O552 O 0.85825 0.52925 0.20333
 O553 O 0.80733 0.51769 0.23759
 O554 O 0.77704 0.44338 0.18006
 O555 O 0.81730 0.44546 0.23471
 O556 O 0.75774 0.50575 0.18452
 Cu557 Cu 0.84786 0.49230 0.17457
 Cu558 Cu 0.78585 0.47823 0.21400
 C559 C 0.77214 0.52116 0.15820
 C560 C 0.85362 0.44095 0.22805
 C561 C 0.79946 0.43677 0.15436
 C562 C 0.83730 0.53671 0.22932
 O563 O 0.13506 0.45727 0.80203
 O564 O 0.18715 0.52683 0.85066
 O565 O 0.13817 0.52497 0.79864
 O566 O 0.18428 0.45715 0.85434
 O567 O 0.23512 0.45535 0.81830
 O568 O 0.18837 0.52026 0.76209
 O569 O 0.23619 0.52535 0.81268
 O570 O 0.18674 0.45396 0.76693
 Cu571 Cu 0.15632 0.49176 0.83058
 Cu572 Cu 0.21736 0.48826 0.78694
 C573 C 0.15193 0.44460 0.77555
 C574 C 0.21967 0.53891 0.83876
 C575 C 0.15514 0.53321 0.77032
 C576 C 0.21729 0.44427 0.84516
 N577 N 0.16869 0.41373 0.09608
 N578 N 0.18656 0.38763 0.08009
 C579 C 0.22602 0.39226 0.08268
 C580 C 0.23381 0.42286 0.10099
 C581 C 0.19647 0.43571 0.10883
 H582 H 0.26230 0.43514 0.10587
 H583 H 0.13797 0.41668 0.09755
 H584 H 0.17193 0.36793 0.06620
 N585 N 0.70474 0.53656 0.13904
 N586 N 0.68746 0.55700 0.11602
 C587 C 0.71565 0.57364 0.09725
 C588 C 0.75283 0.56329 0.10874
 C589 C 0.74435 0.53985 0.13555
 H590 H 0.78156 0.57282 0.10011
 H591 H 0.68944 0.52107 0.15720
 H592 H 0.65684 0.56031 0.11397
 N593 N 0.81397 0.42255 0.90208
 N594 N 0.79507 0.40127 0.92375
 C595 C 0.75587 0.40385 0.91805
 C596 C 0.74933 0.42774 0.89137
 C597 C 0.78716 0.43918 0.88219
 H598 H 0.72122 0.43700 0.88161
 H599 H 0.84469 0.42628 0.90170
 H600 H 0.80879 0.38607 0.94282
 N601 N 0.24851 0.59881 0.83484
 N602 N 0.26321 0.62284 0.85576
 C603 C 0.26240 0.60990 0.88829
 C604 C 0.24573 0.57624 0.88812
 C605 C 0.23750 0.57042 0.85371
 H606 H 0.24164 0.55811 0.90960
 H607 H 0.24580 0.60200 0.80815
 H608 H 0.27392 0.64755 0.84771
 N609 N 0.19268 0.25881 0.41930
 N610 N 0.17538 0.27687 0.39419
 C611 C 0.13585 0.27631 0.39956
 C612 C 0.12793 0.25740 0.42968
 C613 C 0.16448 0.24619 0.44093
 H614 H 0.09929 0.25075 0.44074
 H615 H 0.22299 0.25349 0.42032
 H616 H 0.19033 0.28747 0.37280
 N617 N 0.18463 0.71492 0.58081
 N618 N 0.15929 0.70049 0.60292
 C619 C 0.12845 0.72253 0.60713
 C620 C 0.13488 0.75265 0.58718
 C621 C 0.17047 0.74644 0.57052
 H622 H 0.11536 0.77496 0.58369
 H623 H 0.21022 0.70256 0.57183
 H624 H 0.16221 0.67516 0.61348
 N625 N 0.83649 0.72364 0.43960
 N626 N 0.85974 0.70639 0.41827
 C627 C 0.88984 0.72778 0.40842
 C628 C 0.88553 0.76045 0.42439
 C629 C 0.85112 0.75653 0.44398
 H630 H 0.90488 0.78332 0.42249
 H631 H 0.81132 0.71267 0.45140
 H632 H 0.85529 0.68010 0.41111
 N633 N 0.85689 0.21509 0.59291
 N634 N 0.87391 0.23698 0.61475
 C635 C 0.88699 0.26568 0.59728
 C636 C 0.87708 0.26217 0.56259
 C637 C 0.85831 0.22947 0.56106
 H638 H 0.88554 0.27923 0.54123
 H639 H 0.84620 0.18993 0.59951
 H640 H 0.87883 0.23122 0.64079
 N641 N 0.39316 0.16952 0.26439
 N642 N 0.36761 0.14908 0.28138
 C643 C 0.37621 0.11495 0.27495
 C644 C 0.40817 0.11387 0.25237
 C645 C 0.41794 0.14883 0.24640
 H646 H 0.42249 0.09084 0.24176
 H647 H 0.39260 0.19712 0.26419
 H648 H 0.34400 0.15860 0.29602
 N649 N 0.56648 0.15929 0.72312
 N650 N 0.59118 0.13860 0.70648
 C651 C 0.60547 0.11442 0.72880
 C652 C 0.58922 0.12015 0.76125
 C653 C 0.56433 0.14852 0.75628
 H654 H 0.59405 0.10539 0.78488
 H655 H 0.55038 0.17963 0.71155
 H656 H 0.59689 0.14035 0.68000
 N657 N 0.47403 0.86928 0.72670
 N658 N 0.45247 0.89064 0.70748
 C659 C 0.43266 0.91304 0.72810
 C660 C 0.44214 0.90549 0.76228
 C661 C 0.46844 0.87736 0.76012
 H662 H 0.43091 0.91806 0.78529
 H663 H 0.49238 0.84959 0.71691
 H664 H 0.45097 0.88952 0.68059
 N665 N 0.53919 0.85342 0.27463
 N666 N 0.55854 0.87572 0.29442
 C667 C 0.57554 0.90081 0.27432
 C668 C 0.56674 0.89421 0.24001
 C669 C 0.54356 0.86380 0.24151
 H670 H 0.57548 0.90945 0.21745
 H671 H 0.52258 0.83193 0.28389
 H672 H 0.55987 0.87379 0.32130
 N673 N 0.39028 0.26379 0.86589
 N674 N 0.36501 0.27684 0.89082
 C675 C 0.36964 0.25757 0.92002
 C676 C 0.39844 0.23174 0.91417
 C677 C 0.41012 0.23657 0.87979
 H678 H 0.40851 0.21145 0.93182
 H679 H 0.39284 0.27397 0.84083
 H680 H 0.34763 0.29929 0.88725
 N681 N 0.61083 0.81744 0.93479
 N682 N 0.62957 0.79532 0.95832
 C683 C 0.63311 0.76318 0.94379
 C684 C 0.61799 0.76442 0.91037
 C685 C 0.60339 0.79852 0.90629
 H686 H 0.61328 0.74230 0.89326
 H687 H 0.60144 0.84310 0.94001
 H688 H 0.63679 0.80233 0.98357
 N689 N 0.35581 0.79139 0.11754
 N690 N 0.33423 0.77298 0.09296
 C691 C 0.35914 0.76484 0.06692
 C692 C 0.39669 0.77863 0.07392
 C693 C 0.39332 0.79431 0.10598
 H694 H 0.42398 0.77354 0.06008
 H695 H 0.34513 0.79847 0.14185
 H696 H 0.30449 0.76552 0.09569
 N697 N 0.58965 0.19702 0.08589
 N698 N 0.60952 0.21724 0.06390
 C699 C 0.60879 0.25083 0.07515
 C700 C 0.58809 0.25201 0.10616
 C701 C 0.57618 0.21724 0.11179
 H702 H 0.58010 0.27513 0.12084
 H703 H 0.58432 0.17003 0.08250
 H704 H 0.62203 0.20832 0.04088
 N705 N 0.18223 0.07057 0.58482
 N706 N 0.20335 0.04638 0.60465
 C707 C 0.23739 0.06208 0.61477
 C708 C 0.23873 0.09645 0.60163
 C709 C 0.20410 0.10036 0.58248
 H710 H 0.26353 0.11472 0.60263
 H711 H 0.15613 0.06481 0.57151
 H712 H 0.19460 0.02020 0.60918
 N713 N 0.80946 0.07210 0.40853
 N714 N 0.78482 0.04918 0.39065
 C715 C 0.75056 0.06605 0.38425
 C716 C 0.75261 0.10018 0.39759
 C717 C 0.78963 0.10240 0.41339
 H718 H 0.72862 0.11890 0.39960
 H719 H 0.83672 0.06509 0.41917
 H720 H 0.79138 0.02280 0.38543
 N721 N 0.73173 0.85872 0.61103
 N722 N 0.71915 0.88425 0.63413
 C723 C 0.73563 0.91547 0.62457
 C724 C 0.75965 0.91018 0.59556
 C725 C 0.75600 0.87451 0.58793
 H726 H 0.77787 0.92943 0.58197
 H727 H 0.72287 0.83221 0.61171
 H728 H 0.69787 0.87973 0.65335
 N729 N 0.27322 0.83668 0.38475
 N730 N 0.28608 0.86276 0.36162
 C731 C 0.28062 0.89462 0.37647
 C732 C 0.26363 0.88916 0.40908
 C733 C 0.25948 0.85292 0.41302
 H734 H 0.25697 0.90864 0.42850
 H735 H 0.27352 0.80953 0.38010
 H736 H 0.29551 0.85766 0.33646
 N737 N 0.14745 0.40661 0.72442
 N738 N 0.12035 0.38812 0.70804
 C739 C 0.08611 0.38928 0.72604
 C740 C 0.09160 0.40945 0.75538
 C741 C 0.13105 0.41989 0.75318
 H742 H 0.07010 0.41589 0.77511
 H743 H 0.17643 0.41058 0.71550
 H744 H 0.12523 0.37533 0.68462
 N745 N 0.15212 0.59340 0.26281
 N746 N 0.12895 0.61144 0.28371
 C747 C 0.09286 0.61470 0.26915
 C748 C 0.09328 0.59822 0.23736
 C749 C 0.13126 0.58481 0.23455
 H750 H 0.06927 0.59572 0.21908
 H751 H 0.18118 0.58610 0.26850
 H752 H 0.13754 0.62053 0.30797
 N753 N 0.85388 0.38214 0.25546
 N754 N 0.88056 0.36016 0.27220
 C755 C 0.91609 0.37682 0.27292
 C756 C 0.91291 0.40927 0.25553
 C757 C 0.87350 0.41157 0.24559
 H758 H 0.93546 0.42955 0.25241
 H759 H 0.82400 0.37617 0.25134
 H760 H 0.87376 0.33454 0.28061
 N761 N 0.83071 0.60238 0.72571
 N762 N 0.85574 0.62326 0.70509
 C763 C 0.89283 0.62112 0.71806
 C764 C 0.89176 0.59958 0.74732
 C765 C 0.85286 0.58823 0.75097
 H766 H 0.91620 0.59269 0.76401
 H767 H 0.80073 0.59752 0.72090
 H768 H 0.84714 0.63534 0.68201
 N769 N 0.81630 0.60076 0.90811
 N770 N 0.79789 0.61976 0.93162
 C771 C 0.75852 0.61721 0.92657
 C772 C 0.75144 0.59546 0.89847
 C773 C 0.78907 0.58547 0.88760
 H774 H 0.72310 0.58626 0.88896
 H775 H 0.84699 0.59744 0.90697
 H776 H 0.81206 0.63305 0.95169
 N777 N 0.26343 0.39444 0.85198
 N778 N 0.27344 0.37014 0.87753
 C779 C 0.25183 0.37735 0.90603
 C780 C 0.22665 0.40549 0.89871
 C781 C 0.23527 0.41550 0.86497
 H782 H 0.20425 0.41689 0.91518
 H783 H 0.27601 0.39563 0.82732
 H784 H 0.29632 0.35185 0.87521
 N785 N 0.19220 0.62861 0.11427
 N786 N 0.21237 0.65110 0.09156
 C787 C 0.22559 0.63164 0.06491
 C788 C 0.21386 0.59649 0.06995
 C789 C 0.19358 0.59577 0.10134
 H790 H 0.22304 0.57389 0.05501
 H791 H 0.18213 0.63570 0.13877
 H792 H 0.21724 0.67804 0.09568
 N793 N 0.81522 0.39953 0.10443
 N794 N 0.79429 0.38211 0.07878
 C795 C 0.75576 0.38129 0.08804
 C796 C 0.75122 0.39786 0.11990
 C797 C 0.78914 0.40970 0.12872
 H798 H 0.72359 0.40469 0.13237
 H799 H 0.84514 0.40666 0.10262
 H800 H 0.80648 0.37372 0.05543
 N801 N 0.92246 0.81256 0.57880
 N802 N 0.94931 0.79272 0.59764
 C803 C 0.93141 0.76195 0.60645
 C804 C 0.89276 0.76160 0.59395
 C805 C 0.88892 0.79335 0.57607
 H806 H 0.87189 0.73973 0.59453
 H807 H 0.92898 0.83677 0.56688
 H808 H 0.97839 0.80060 0.60294
 N809 N 0.91832 0.18218 0.39123
 N810 N 0.94303 0.20153 0.36919
 C811 C 0.94136 0.23574 0.37860
 C812 C 0.91502 0.23903 0.40617
 C813 C 0.90175 0.20502 0.41328
 H814 H 0.90910 0.26230 0.42136
 H815 H 0.91395 0.15484 0.39044
 H816 H 0.95945 0.19083 0.34893
 N817 N 0.15521 0.26337 0.59743
 N818 N 0.12843 0.28274 0.61703
 C819 C 0.09161 0.26937 0.61181
 C820 C 0.09444 0.24104 0.58936
 C821 C 0.13436 0.23832 0.58099
 H822 H 0.07089 0.22365 0.58086
 H823 H 0.18563 0.26838 0.59560
 H824 H 0.13607 0.30514 0.63121
 N825 N 0.16184 0.71820 0.41447
 N826 N 0.13263 0.70472 0.39303
 C827 C 0.09984 0.72471 0.39646
 C828 C 0.10768 0.75149 0.42030
 C829 C 0.14693 0.74652 0.43054
 H830 H 0.08842 0.77283 0.42787
 H831 H 0.19041 0.70802 0.41672
 H832 H 0.13593 0.68197 0.37822
 N833 N 0.62251 0.93222 0.83047
 N834 N 0.64391 0.95500 0.81222
 C835 C 0.64811 0.94255 0.77992
 C836 C 0.62920 0.91008 0.77764
 C837 C 0.61284 0.90485 0.81011
 H838 H 0.62351 0.89496 0.75455
 H839 H 0.61275 0.93648 0.85571
 H840 H 0.65275 0.97986 0.82101
 N841 N 0.43030 0.93972 0.18809
 N842 N 0.41138 0.96378 0.20931
 C843 C 0.38739 0.94561 0.23127
 C844 C 0.39109 0.90948 0.22446
 C845 C 0.41833 0.90712 0.19758
 H846 H 0.37653 0.88755 0.23749
 H847 H 0.45258 0.94629 0.17032
 H848 H 0.41918 0.99050 0.21017
 N849 N 0.59794 0.09468 0.19703
 N850 N 0.61807 0.07230 0.21631
 C851 C 0.61208 0.08005 0.24978
 C852 C 0.58721 0.10912 0.25195
 C853 C 0.57875 0.11733 0.21773
 H854 H 0.57379 0.12004 0.27489
 H855 H 0.59593 0.09332 0.17018
 H856 H 0.63358 0.05067 0.20672
 N857 N 0.36762 0.12862 0.78909
 N858 N 0.34814 0.10287 0.76976
 C859 C 0.37419 0.08981 0.74668
 C860 C 0.41059 0.10712 0.75075
 C861 C 0.40503 0.13122 0.77724
 H862 H 0.43780 0.10251 0.73664
 H863 H 0.35545 0.14193 0.81008
 H864 H 0.31939 0.09369 0.77473
 N865 N 0.59838 0.76225 0.15391
 N866 N 0.62253 0.74318 0.13487
 C867 C 0.60090 0.72348 0.11299
 C868 C 0.56089 0.72999 0.11896
 C869 C 0.56069 0.75505 0.14495
 H870 H 0.53584 0.72082 0.10406
 H871 H 0.60777 0.78210 0.17067
 H872 H 0.65339 0.74566 0.13514
 N873 N 0.41728 0.28164 0.14868
 N874 N 0.39272 0.29751 0.12720
 C875 C 0.38209 0.27456 0.10238
 C876 C 0.40058 0.24248 0.10855
 C877 C 0.42272 0.24822 0.13809
 H878 H 0.39891 0.21868 0.09327
 H879 H 0.43058 0.29384 0.16982
 H880 H 0.38428 0.32393 0.12910
 N881 N 0.61069 0.22158 0.87478
 N882 N 0.63213 0.24159 0.89538
 C883 C 0.61139 0.27074 0.90312
 C884 C 0.57511 0.26953 0.88623
 C885 C 0.57601 0.23774 0.86855
 H886 H 0.55046 0.28746 0.88893
 H887 H 0.61906 0.19656 0.86631
 H888 H 0.65966 0.23448 0.90541
 N889 N 0.47439 0.72530 0.86990
 N890 N 0.45005 0.70686 0.88995
 C891 C 0.41917 0.72734 0.89882
 C892 C 0.42443 0.76057 0.88378
 C893 C 0.46002 0.75817 0.86595
 H894 H 0.40592 0.78363 0.88651
 H895 H 0.50170 0.71613 0.86103
 H896 H 0.45551 0.68115 0.89860
 N897 N 0.68838 0.84762 0.44463
 N898 N 0.66939 0.86922 0.42350
 C899 C 0.69413 0.89580 0.41404
 C900 C 0.73050 0.89065 0.42939
 C901 C 0.72558 0.85996 0.44864
 H902 H 0.75688 0.90696 0.42691
 H903 H 0.67589 0.82511 0.45619
 H904 H 0.63994 0.86587 0.41590
 N905 N 0.32098 0.84733 0.56283
 N906 N 0.33551 0.87007 0.58526
 C907 C 0.30685 0.89299 0.59405
 C908 C 0.27240 0.88429 0.57645
 C909 C 0.28278 0.85532 0.55683
 H910 H 0.24388 0.89715 0.57777
 H911 H 0.33717 0.82691 0.55170
 H912 H 0.36478 0.87010 0.59397
 N913 N 0.18556 0.09680 0.41571
 N914 N 0.20425 0.07583 0.39420
 C915 C 0.24241 0.07353 0.40390
 C916 C 0.24857 0.09451 0.43271
 C917 C 0.21153 0.10868 0.43931
 H918 H 0.27556 0.09809 0.44730
 H919 H 0.15548 0.10294 0.41403
 H920 H 0.19098 0.06331 0.37322
 N921 N 0.71224 0.14137 0.55270
 N922 N 0.69515 0.12244 0.57745
 C923 C 0.72054 0.09721 0.58786
 C924 C 0.75524 0.10005 0.56896
 C925 C 0.74879 0.12851 0.54712
 H926 H 0.78186 0.08449 0.57166
 H927 H 0.69928 0.16305 0.54044
 H928 H 0.66680 0.12708 0.58728
 N929 N 0.84085 0.60154 0.23402
 N930 N 0.86296 0.62508 0.25017
 C931 C 0.88412 0.60862 0.27485
 C932 C 0.87455 0.57269 0.27438
 C933 C 0.84698 0.56936 0.24799
 H934 H 0.88823 0.55160 0.28898
 H935 H 0.82414 0.60706 0.21201
 H936 H 0.86545 0.65162 0.24277
 N937 N 0.82448 0.43957 0.71652
 N938 N 0.84460 0.41776 0.69659
 C939 C 0.87846 0.40868 0.71270
 C940 C 0.87968 0.42558 0.74443
 C941 C 0.84515 0.44509 0.74569
 H942 H 0.90286 0.42452 0.76364
 H943 H 0.79775 0.45138 0.70962
 H944 H 0.83577 0.41033 0.67187
 N945 N 0.15153 0.56421 0.71423
 N946 N 0.12855 0.58719 0.69854
 C947 C 0.09847 0.59550 0.71988
 C948 C 0.10219 0.57682 0.75059
 C949 C 0.13652 0.55747 0.74585
 H950 H 0.08348 0.57801 0.77331
 H951 H 0.17717 0.55358 0.70339
 H952 H 0.13375 0.59730 0.67375
 N953 N 0.17705 0.42110 0.24685
 N954 N 0.15983 0.39716 0.26699
 C955 C 0.12089 0.40464 0.26977
 C956 C 0.11319 0.43486 0.25036
 C957 C 0.14944 0.44409 0.23603
 H958 H 0.08520 0.44814 0.24673
 H959 H 0.20691 0.42076 0.23961
 H960 H 0.17445 0.37540 0.27753
   
