data_POSCAR
  _audit_creation_date              2014-09-24
  _audit_creation_method            'ToBaCCo'
  _symmetry_space_group_name_H-M    'P1'
  _symmetry_Int_Tables_number       1
  _symmetry_cell_setting            triclinic
  loop_
  _symmetry_equiv_pos_as_xyz
 x,y,z
_cell_length_a 45.0539
_cell_length_b 45.0772
_cell_length_c 17.7833
_cell_angle_alpha 90.028100
_cell_angle_beta 89.868700
_cell_angle_gamma 120.021800
loop_
  _atom_site_label
  _atom_site_type_symbol
  _atom_site_fract_x
  _atom_site_fract_y
  _atom_site_fract_z
C1 C 0.14838 0.45831 0.49940
 C2 C 0.16539 0.46137 0.43177
 C3 C 0.19636 0.46111 0.43160
 C4 C 0.20990 0.45592 0.49909
 C5 C 0.19148 0.45191 0.56672
 C6 C 0.16158 0.45417 0.56689
 C7 C 0.24315 0.45539 0.49914
 C8 C 0.26181 0.46015 0.56657
 C9 C 0.29256 0.45951 0.56629
 C10 C 0.30615 0.45594 0.49874
 C11 C 0.28892 0.45220 0.43138
 C12 C 0.25720 0.45086 0.43153
 H13 H 0.12495 0.45964 0.49964
 H14 H 0.20968 0.46555 0.37861
 H15 H 0.19996 0.44716 0.61977
 H16 H 0.25331 0.46496 0.61962
 H17 H 0.33058 0.45663 0.49845
 H18 H 0.24412 0.44645 0.37841
 C19 C 0.54045 -0.31089 0.50407
 C20 C 0.54333 -0.29464 0.43560
 C21 C 0.54525 -0.26263 0.43412
 C22 C 0.54221 -0.24726 0.50126
 C23 C 0.53830 -0.26498 0.56984
 C24 C 0.53834 -0.29604 0.57112
 C25 C 0.54241 -0.21360 0.49968
 C26 C 0.54619 -0.19486 0.56667
 C27 C 0.54460 -0.16462 0.56529
 C28 C 0.54129 -0.15142 0.49711
 C29 C 0.53846 -0.16869 0.43021
 C30 C 0.53813 -0.19990 0.43133
 H31 H 0.53937 -0.33553 0.50511
 H32 H 0.54899 -0.25036 0.38010
 H33 H 0.53466 -0.25551 0.62275
 H34 H 0.55025 -0.20317 0.62057
 H35 H 0.54042 -0.12779 0.49620
 H36 H 0.53398 -0.21313 0.37848
 C37 C 1.30862 0.85177 0.49704
 C38 C 1.29437 0.83479 0.42972
 C39 C 1.26329 0.80367 0.43039
 C40 C 1.24498 0.78993 0.49849
 C41 C 1.25975 0.80834 0.56580
 C42 C 1.29176 0.83840 0.56498
 C43 C 1.21134 0.75651 0.49942
 C44 C 1.19771 0.73791 0.56721
 C45 C 1.16645 0.70695 0.56765
 C46 C 1.14919 0.69316 0.50036
 C47 C 1.16242 0.71037 0.43273
 C48 C 1.19261 0.74224 0.43225
 H49 H 1.33327 0.87531 0.49680
 H50 H 1.25422 0.79041 0.37752
 H51 H 1.24701 0.79980 0.61943
 H52 H 1.21118 0.74665 0.61993
 H53 H 1.12556 0.66860 0.50034
 H54 H 1.20100 0.75525 0.37890
 C55 C 0.84988 0.54267 0.49910
 C56 C 0.83643 0.54659 0.43186
 C57 C 0.80627 0.54839 0.43244
 C58 C 0.78793 0.54421 0.50040
 C59 C 0.80183 0.53930 0.56757
 C60 C 0.83294 0.53943 0.56683
 C61 C 0.75436 0.54411 0.50108
 C62 C 0.74007 0.54810 0.56902
 C63 C 0.70800 0.54614 0.56950
 C64 C 0.69072 0.54229 0.50206
 C65 C 0.70458 0.53922 0.43441
 C66 C 0.73562 0.53922 0.43385
 H67 H 0.87345 0.54166 0.49861
 H68 H 0.79763 0.55293 0.37943
 H69 H 0.78873 0.53476 0.62084
 H70 H 0.75328 0.55260 0.62202
 H71 H 0.66607 0.54116 0.50219
 H72 H 0.74428 0.53479 0.38061
 C73 C 0.45769 0.30791 0.50273
 C74 C 0.45384 0.29072 0.43519
 C75 C 0.45234 0.25893 0.43506
 C76 C 0.45685 0.24476 0.50250
 C77 C 0.46167 0.26336 0.57005
 C78 C 0.46118 0.29419 0.57013
 C79 C 0.45738 0.21151 0.50213
 C80 C 0.45406 0.19323 0.56966
 C81 C 0.45629 0.16328 0.56894
 C82 C 0.45978 0.15002 0.50081
 C83 C 0.46223 0.16694 0.43362
 C84 C 0.46197 0.19782 0.43416
 H85 H 0.45847 0.33238 0.50256
 H86 H 0.44781 0.24590 0.38180
 H87 H 0.46640 0.25472 0.62291
 H88 H 0.44982 0.20178 0.62323
 H89 H 0.46107 0.12659 0.50000
 H90 H 0.46593 0.21089 0.38110
 C91 C 0.69377 0.14957 0.49760
 C92 C 0.70823 0.16699 0.43079
 C93 C 0.73907 0.19834 0.43226
 C94 C 0.75692 0.21196 0.50085
 C95 C 0.74192 0.19303 0.56758
 C96 C 0.71019 0.16272 0.56587
 C97 C 0.79031 0.24570 0.50306
 C98 C 0.80394 0.26338 0.57185
 C99 C 0.83502 0.29454 0.57337
 C100 C 0.85209 0.30944 0.50637
 C101 C 0.83886 0.29317 0.43797
 C102 C 0.80887 0.26117 0.43620
 H103 H 0.66930 0.12588 0.49658
 H104 H 0.74821 0.21174 0.37955
 H105 H 0.75419 0.20131 0.62157
 H106 H 0.79069 0.25381 0.62463
 H107 H 0.87558 0.33412 0.50722
 H108 H 0.80055 0.24904 0.38205
 N109 N 0.96433 0.53670 0.07757
 N110 N 0.94236 0.54704 0.09470
 N111 N 1.03623 0.55228 0.13026
 N112 N 1.05795 0.56996 0.18424
 N113 N 1.03632 0.57288 0.07788
 N114 N 1.05807 0.60519 0.09518
 N115 N 0.96421 0.51601 0.12981
 N116 N 0.94215 0.51167 0.18350
 C117 C 0.92831 0.53059 0.16014
 C118 C 1.07178 0.60274 0.16089
 N119 N 1.03684 0.46733 0.08297
 N120 N 1.06017 0.45885 0.10040
 N121 N 0.96455 0.45220 0.13292
 N122 N 0.94255 0.43513 0.18718
 N123 N 0.96481 0.43098 0.08256
 N124 N 0.94301 0.39889 0.10148
 N125 N 1.03658 0.48862 0.13309
 N126 N 1.05969 0.49531 0.18558
 Mn127 Mn 1.00037 0.50225 0.13200
 C128 C 1.07452 0.47706 0.16380
 C129 C 0.92890 0.40209 0.16597
 N130 N 1.03688 0.57161 -0.08477
 N131 N 1.06019 0.60351 -0.10183
 N132 N 0.96500 0.51410 -0.13520
 N133 N 0.94157 0.50706 -0.18710
 N134 N 0.96470 0.53532 -0.08501
 N135 N 0.94104 0.54342 -0.10169
 N136 N 1.03704 0.55024 -0.13481
 N137 N 1.06043 0.56689 -0.18690
 Mn138 Mn 1.00056 0.55445 -0.00369
 C139 C 1.07498 0.59990 -0.16493
 C140 C 0.92655 0.52506 -0.16480
 N141 N 0.96491 0.42980 -0.08005
 N142 N 0.94153 0.39771 -0.09539
 N143 N 1.03711 0.48650 -0.13200
 N144 N 1.05897 0.49065 -0.18596
 N145 N 1.03703 0.46588 -0.07974
 N146 N 1.05881 0.45533 -0.09711
 N147 N 0.96508 0.45053 -0.13215
 N148 N 0.94188 0.43329 -0.18394
 Mn149 Mn 1.00090 0.44818 0.00148
 Mn150 Mn 1.00108 0.50037 -0.13404
 Cl151 Cl 1.00074 0.50132 -0.00099
 C152 C 0.92709 0.40058 -0.15973
 C153 C 1.07274 0.47166 -0.16270
 N154 N 0.46338 0.42745 0.07918
 N155 N 0.45310 0.39522 0.09691
 N156 N 0.44745 0.48392 0.12992
 N157 N 0.42953 0.48812 0.18329
 N158 N 0.42705 0.46306 0.07775
 N159 N 0.39464 0.45244 0.09460
 N160 N 0.48375 0.44824 0.13144
 N161 N 0.48797 0.43079 0.18573
 C162 C 0.46928 0.39794 0.16276
 C163 C 0.39682 0.46892 0.15976
 N164 N 0.53277 0.56943 0.08263
 N165 N 0.54295 0.60148 0.10163
 N166 N 0.54743 0.51227 0.13387
 N167 N 0.56391 0.50557 0.18616
 N168 N 0.56895 0.53361 0.08364
 N169 N 0.60079 0.54211 0.10075
 N170 N 0.51130 0.54811 0.13298
 N171 N 0.50625 0.56507 0.18725
 Mn172 Mn 0.49748 0.49816 0.13253
 C173 C 0.52557 0.59816 0.16613
 C174 C 0.59697 0.52387 0.16411
 N175 N 0.42889 0.46423 -0.08484
 N176 N 0.39705 0.45579 -0.10185
 N177 N 0.48689 0.45003 -0.13360
 N178 N 0.49398 0.43352 -0.18524
 N179 N 0.46540 0.42860 -0.08349
 N180 N 0.45719 0.39679 -0.10001
 N181 N 0.45040 0.48554 -0.13507
 N182 N 0.43390 0.49227 -0.18732
 Mn183 Mn 0.44586 0.44551 -0.00296
 C184 C 0.40084 0.47400 -0.16524
 C185 C 0.47578 0.40053 -0.16286
 N186 N 0.57083 0.53491 -0.07904
 N187 N 0.60324 0.54561 -0.09615
 N188 N 0.51378 0.54944 -0.13209
 N189 N 0.50762 0.56643 -0.18411
 N190 N 0.53419 0.57035 -0.08007
 N191 N 0.54260 0.60232 -0.09570
 N192 N 0.55041 0.51409 -0.13118
 N193 N 0.56830 0.50997 -0.18477
 Mn194 Mn 0.55201 0.55240 0.00183
 Mn195 Mn 0.50036 0.49975 -0.13348
 Cl196 Cl 0.49893 0.49896 -0.00045
 C197 C 0.60104 0.52920 -0.16146
 C198 C 0.52526 0.59917 -0.16011
 N199 N 0.42977 -0.03580 0.08196
 N200 N 0.39772 -0.05904 0.09823
 N201 N 0.48722 0.03604 0.13308
 N202 N 0.49390 0.05941 0.18495
 N203 N 0.46634 0.03636 0.08210
 N204 N 0.45810 0.05999 0.09827
 N205 N 0.45076 -0.03592 0.13290
 N206 N 0.43373 -0.05922 0.18483
 C207 C 0.40087 -0.07374 0.16185
 C208 C 0.47606 0.07443 0.16187
 N209 N 0.57165 0.03559 0.08177
 N210 N 0.60367 0.05891 0.09775
 N211 N 0.51412 -0.03642 0.13263
 N212 N 0.50737 -0.05994 0.18423
 N213 N 0.53505 -0.03662 0.08140
 N214 N 0.54324 -0.06032 0.09709
 N215 N 0.55061 0.03560 0.13298
 N216 N 0.56759 0.05888 0.18485
 Mn217 Mn 0.50067 -0.00018 0.13340
 C218 C 0.60047 0.07352 0.16156
 C219 C 0.52522 -0.07493 0.16071
 N220 N 0.46615 0.03646 -0.08058
 N221 N 0.45605 0.05850 -0.09854
 N222 N 0.45065 -0.03562 -0.13224
 N223 N 0.43324 -0.05746 -0.18630
 N224 N 0.42975 -0.03549 -0.08073
 N225 N 0.39752 -0.05721 -0.09869
 N226 N 0.48710 0.03638 -0.13206
 N227 N 0.49186 0.05839 -0.18607
 Mn228 Mn 0.44768 0.00039 0.00075
 C229 C 0.47291 0.07240 -0.16366
 C230 C 0.40030 -0.07113 -0.16386
 N231 N 0.53535 -0.03631 -0.08120
 N232 N 0.54535 -0.05843 -0.09930
 N233 N 0.55091 0.03584 -0.13214
 N234 N 0.56840 0.05787 -0.18598
 N235 N 0.57174 0.03558 -0.08084
 N236 N 0.60399 0.05741 -0.09871
 N237 N 0.51448 -0.03612 -0.13249
 N238 N 0.50966 -0.05813 -0.18652
 Mn239 Mn 0.55377 -0.00044 0.00033
 Mn240 Mn 0.50079 0.00012 -0.13273
 Cl241 Cl 0.50073 -0.00003 0.00029
 C242 C 0.52851 -0.07223 -0.16431
 C243 C 0.60128 0.07151 -0.16358
 C244 C 1.15135 0.46491 0.36693
 C245 C 1.13672 0.46767 0.31304
 C246 C 1.11707 0.47071 0.25501
 C247 C 1.09848 0.47341 0.21036
 C248 C 0.54225 0.68855 0.37096
 C249 C 0.53989 0.67114 0.31728
 C250 C 0.53574 0.64796 0.25929
 C251 C 0.53137 0.62617 0.21420
 C252 C 0.31157 -0.15107 0.36440
 C253 C 0.32875 -0.13633 0.31015
 C254 C 0.35137 -0.11655 0.25196
 C255 C 0.37283 -0.09783 0.20752
 C256 C 0.85312 0.54645 0.36268
 C257 C 0.86848 0.54464 0.30885
 C258 C 0.88795 0.54090 0.25108
 C259 C 0.90575 0.53664 0.20666
 C260 C 0.45381 0.30756 0.36631
 C261 C 0.45549 0.32464 0.31250
 C262 C 0.45911 0.34766 0.25454
 C263 C 0.46329 0.36954 0.20979
 C264 C 0.69028 0.15213 0.36161
 C265 C 0.67294 0.13708 0.30790
 C266 C 0.65010 0.11690 0.25049
 C267 C 0.62853 0.09788 0.20671
 C268 C 0.45701 0.14748 -0.36619
 C269 C 0.45909 0.13218 -0.31264
 C270 C 0.46297 0.11275 -0.25516
 C271 C 0.46717 0.09496 -0.21073
 C272 C 0.69199 0.54580 -0.36499
 C273 C 0.67495 0.54391 -0.31079
 C274 C 0.65182 0.54002 -0.25267
 C275 C 0.62975 0.53556 -0.20805
 C276 C 0.84909 0.31127 -0.36089
 C277 C 0.86391 0.32825 -0.30657
 C278 C 0.88390 0.35083 -0.24861
 C279 C 0.90280 0.37235 -0.20460
 C280 C 0.54412 -0.14762 -0.36649
 C281 C 0.54212 -0.13214 -0.31325
 C282 C 0.53832 -0.11262 -0.25588
 C283 C 0.53417 -0.09481 -0.21143
 C284 C 0.31118 0.46297 -0.36546
 C285 C 0.32879 0.46545 -0.31223
 C286 C 0.35170 0.46817 -0.25504
 C287 C 0.37314 0.47063 -0.21109
 C288 C 1.15239 0.68941 -0.36735
 C289 C 1.13766 0.67195 -0.31343
 C290 C 1.11786 0.64914 -0.25555
 C291 C 1.09911 0.62769 -0.21112
 C292 C 0.84806 0.53591 -0.36505
 C293 C 0.86309 0.53338 -0.31174
 C294 C 0.88317 0.53066 -0.25446
 C295 C 0.90214 0.52826 -0.21050
 C296 C 0.46451 0.31163 -0.36497
 C297 C 0.46707 0.32892 -0.31100
 C298 C 0.46988 0.35153 -0.25306
 C299 C 0.47239 0.37285 -0.20871
 C300 C 0.69262 0.14576 -0.36601
 C301 C 0.67512 0.13047 -0.31264
 C302 C 0.65176 0.11129 -0.25512
 C303 C 0.62969 0.09376 -0.21061
 C304 C 1.14597 0.45457 -0.36766
 C305 C 1.13105 0.45656 -0.31324
 C306 C 1.11216 0.46061 -0.25472
 C307 C 1.09483 0.46520 -0.20971
 C308 C 0.53587 0.68736 -0.36309
 C309 C 0.53388 0.67065 -0.30844
 C310 C 0.53147 0.64844 -0.24990
 C311 C 0.52901 0.62717 -0.20541
 C312 C 0.30911 -0.14500 -0.36648
 C313 C 0.32655 -0.12987 -0.31301
 C314 C 0.34989 -0.11077 -0.25548
 C315 C 0.37193 -0.09331 -0.21096
 C316 C 0.53548 -0.15377 0.36109
 C317 C 0.53333 -0.13875 0.30723
 C318 C 0.53088 -0.11858 0.24963
 C319 C 0.52856 -0.09949 0.20575
 C320 C 0.30572 0.45227 0.36234
 C321 C 0.32283 0.45413 0.30842
 C322 C 0.34600 0.45805 0.25054
 C323 C 0.36810 0.46255 0.20610
 C324 C 1.14565 0.69346 0.36398
 C325 C 1.13047 0.67634 0.31018
 C326 C 1.11137 0.65326 0.25225
 C327 C 1.09393 0.63128 0.20763
 C328 C 0.46529 0.15206 0.36456
 C329 C 0.46753 0.13728 0.31034
 C330 C 0.47009 0.11748 0.25205
 C331 C 0.47254 0.09869 0.20753
 C332 C 0.68604 0.53567 0.36612
 C333 C 0.66860 0.53306 0.31251
 C334 C 0.64593 0.53013 0.25474
 C335 C 0.62461 0.52748 0.21031
 C336 C 0.85551 0.31104 0.36987
 C337 C 0.87056 0.32869 0.31651
 C338 C 0.88949 0.35207 0.25882
 C339 C 0.90682 0.37400 0.21391
   
