data_POSCAR
  _audit_creation_date              2014-09-24
  _audit_creation_method            'ToBaCCo'
  _symmetry_space_group_name_H-M    'P1'
  _symmetry_Int_Tables_number       1
  _symmetry_cell_setting            triclinic
  loop_
  _symmetry_equiv_pos_as_xyz
 x,y,z
_cell_length_a 21.0884
_cell_length_b 21.0701
_cell_length_c 21.1540
_cell_angle_alpha 90.121500
_cell_angle_beta 89.730000
_cell_angle_gamma 89.903500
loop_
  _atom_site_label
  _atom_site_type_symbol
  _atom_site_fract_x
  _atom_site_fract_y
  _atom_site_fract_z
O1 O 0.16897 1.06206 0.44994
 O2 O 0.16825 0.94593 0.57492
 O3 O 0.19299 1.07119 0.56998
 O4 O 0.17303 0.94245 0.45258
 O5 O 0.27709 0.93371 0.44402
 O6 O 0.29647 1.05662 0.56516
 O7 O 0.27182 0.93273 0.56678
 O8 O 0.27360 1.05647 0.44267
 Cu9 Cu 0.16711 1.00625 0.51465
 Cu10 Cu 0.29030 0.99430 0.50466
 C11 C 0.22048 1.07907 0.42456
 C12 C 0.21828 0.91776 0.59084
 C13 C 0.24891 1.08740 0.58530
 C14 C 0.22193 0.91796 0.42669
 O15 O 0.78791 -0.06386 0.41777
 O16 O 0.82147 0.04698 0.54630
 O17 O 0.79475 -0.07669 0.53934
 O18 O 0.78413 0.06060 0.42839
 O19 O 0.68229 0.06815 0.45209
 O20 O 0.69217 -0.06756 0.55879
 O21 O 0.71924 0.05337 0.56814
 O22 O 0.68499 -0.05644 0.43655
 Cu23 Cu 0.80696 -0.00863 0.48151
 Cu24 Cu 0.68525 0.00042 0.50593
 C25 C 0.73150 -0.08009 0.40563
 C26 C 0.77638 0.06952 0.57881
 C27 C 0.74407 -0.09649 0.56614
 C28 C 0.73031 0.08788 0.42205
 O29 O 0.23054 0.43471 0.94547
 O30 O 0.22508 0.56337 1.06552
 O31 O 0.22335 0.55901 0.94161
 O32 O 0.22128 0.43939 1.07050
 O33 O 0.32600 0.43904 1.07159
 O34 O 0.32789 0.55910 0.94538
 O35 O 0.32975 0.56111 1.06714
 O36 O 0.33527 0.43722 0.94780
 Cu37 Cu 0.21420 0.49852 1.00543
 Cu38 Cu 0.33919 0.49899 1.00809
 C39 C 0.28432 0.41560 0.92529
 C40 C 0.27777 0.58377 1.08651
 C41 C 0.27656 0.57959 0.92206
 C42 C 0.27323 0.42039 1.09405
 O43 O 0.43769 0.23689 1.06528
 O44 O 0.55897 0.22915 0.93805
 O45 O 0.56008 0.20237 1.05779
 O46 O 0.43493 0.21877 0.93998
 O47 O 0.44497 0.32300 0.94336
 O48 O 0.57173 0.30611 1.06405
 O49 O 0.56825 0.33339 0.94564
 O50 O 0.44917 0.34093 1.06709
 Cu51 Cu 0.49601 0.21220 1.00098
 Cu52 Cu 0.50860 0.33399 1.00627
 C53 C 0.42236 0.29159 1.08690
 C54 C 0.58468 0.28149 0.92098
 C55 C 0.58929 0.25017 1.07891
 C56 C 0.41900 0.27317 0.92045
 O57 O 0.42968 0.78802 -0.06918
 O58 O 0.56022 0.82509 0.04193
 O59 O 0.55173 0.80300 -0.08136
 O60 O 0.43748 0.82366 0.04890
 O61 O 0.44103 0.72092 0.06900
 O62 O 0.55943 0.70070 -0.06033
 O63 O 0.56603 0.72283 0.06340
 O64 O 0.43957 0.68566 -0.04871
 Cu65 Cu 0.49440 0.81985 -0.01702
 Cu66 Cu 0.50326 0.69775 0.00895
 C67 C 0.41337 0.73048 -0.07859
 C68 C 0.58445 0.77936 0.07257
 C69 C 0.57292 0.74827 -0.09483
 C70 C 0.41886 0.77616 0.08035
 O71 O 1.07036 0.44543 0.17380
 O72 O 0.94534 0.56586 0.20350
 O73 O 1.06520 0.57028 0.17607
 O74 O 0.94499 0.44799 0.16408
 O75 O 0.94734 0.43377 0.26759
 O76 O 1.07062 0.55798 0.27959
 O77 O 0.95360 0.55021 0.30644
 O78 O 1.07456 0.42992 0.27664
 Cu79 Cu 1.00659 0.50800 0.17087
 Cu80 Cu 1.01348 0.48961 0.29194
 C81 C 1.09353 0.41688 0.22129
 C82 C 0.92896 0.57905 0.26040
 C83 C 1.08520 0.58809 0.22929
 C84 C 0.92369 0.42150 0.21334
 O85 O -0.07418 0.42635 0.78850
 O86 O 0.05052 0.54458 0.82051
 O87 O -0.07096 0.55214 0.81130
 O88 O 0.05102 0.42808 0.78814
 O89 O 0.04868 0.44737 0.68558
 O90 O -0.06769 0.57572 0.70967
 O91 O 0.05464 0.56608 0.71834
 O92 O -0.07554 0.45227 0.68753
 Cu93 Cu -0.01279 0.48467 0.81219
 Cu94 Cu -0.01015 0.51227 0.69026
 C95 C -0.09572 0.41851 0.73306
 C96 C 0.07464 0.57466 0.77452
 C97 C -0.08729 0.58720 0.76519
 C98 C 0.07149 0.41783 0.73241
 O99 O 0.44306 0.93785 0.23241
 O100 O 0.57301 1.05739 0.22956
 O101 O 0.56679 0.93280 0.22709
 O102 O 0.44940 1.06295 0.22802
 O103 O 0.45272 1.06497 0.33235
 O104 O 0.56272 0.93001 0.33144
 O105 O 0.57494 1.05358 0.33390
 O106 O 0.44149 0.94312 0.33671
 Cu107 Cu 0.50781 0.99748 0.21855
 Cu108 Cu 0.50813 0.99793 0.34365
 C109 C 0.42030 0.92071 0.28559
 C110 C 0.59578 1.07579 0.28218
 C111 C 0.58372 0.90864 0.27929
 C112 C 0.43269 1.08713 0.28050
 O113 O 1.06672 0.18446 0.55437
 O114 O 0.93633 0.18288 0.44794
 O115 O 1.05882 0.21083 0.43312
 O116 O 0.94412 0.21120 0.56888
 O117 O 0.94540 0.31578 0.56616
 O118 O 1.05393 0.31544 0.43507
 O119 O 0.93184 0.28734 0.44416
 O120 O 1.06772 0.28926 0.55768
 Cu121 Cu 1.00122 0.18948 0.50105
 Cu122 Cu 0.99966 0.31079 0.50067
 C123 C 1.08996 0.23531 0.57518
 C124 C 0.91131 0.23256 0.42716
 C125 C 1.07605 0.26509 0.41160
 C126 C 0.92547 0.26507 0.59028
 O127 O -0.04942 0.81051 0.56120
 O128 O 0.06916 0.78436 0.43768
 O129 O -0.05055 0.81362 0.43911
 O130 O 0.06891 0.77606 0.56045
 O131 O 0.04369 0.67439 0.55651
 O132 O -0.07464 0.71179 0.43406
 O133 O 0.04490 0.68251 0.43301
 O134 O -0.07398 0.70860 0.55833
 Cu135 Cu 0.01231 0.80595 0.50004
 Cu136 Cu -0.01781 0.68404 0.49487
 C137 C -0.08166 0.76404 0.58100
 C138 C 0.07699 0.72961 0.41388
 C139 C -0.08264 0.76861 0.41556
 C140 C 0.07617 0.71930 0.57966
 O141 O 0.78088 0.43456 1.05988
 O142 O 0.80847 0.56032 0.94338
 O143 O 0.77908 0.55813 1.06142
 O144 O 0.81844 0.43805 0.94229
 O145 O 0.71710 0.43387 0.91693
 O146 O 0.67734 0.55506 1.03718
 O147 O 0.70678 0.55791 0.91919
 O148 O 0.67947 0.43021 1.03440
 Cu149 Cu 0.80641 0.49792 1.00451
 Cu150 Cu 0.68516 0.49369 0.97393
 C151 C 0.72591 0.41082 1.06709
 C152 C 0.76172 0.58113 0.91226
 C153 C 0.72271 0.57817 1.06897
 C154 C 0.77415 0.41532 0.90926
 O155 O 0.43687 1.06414 0.80319
 O156 O 0.56026 0.94057 0.80405
 O157 O 0.56041 1.06128 0.78328
 O158 O 0.44052 0.94220 0.82420
 O159 O 0.42804 0.92528 0.72188
 O160 O 0.54719 1.04542 0.68101
 O161 O 0.54873 0.92436 0.70145
 O162 O 0.42277 1.04764 0.70114
 Cu163 Cu 0.50117 1.00484 0.81368
 Cu164 Cu 0.48481 0.98470 0.69098
 C165 C 0.40733 1.07546 0.75238
 C166 C 0.57509 0.91113 0.75371
 C167 C 0.57563 1.07238 0.72620
 C168 C 0.41477 0.91225 0.77916
 C169 C 0.26018 0.19487 0.29994
 C170 C 0.20571 0.23425 0.29555
 C171 C 0.20670 0.28712 0.25376
 C172 C 0.26012 0.29820 0.21439
 C173 C 0.31009 0.25330 0.21489
 C174 C 0.31304 0.20740 0.26203
 C175 C 0.75880 0.79427 0.28472
 C176 C 0.71054 0.79551 0.23714
 C177 C 0.70934 0.74751 0.19015
 C178 C 0.75539 0.69937 0.19041
 C179 C 0.80321 0.69884 0.23539
 C180 C 0.80467 0.74476 0.28374
 C181 C 0.75097 0.18322 0.70916
 C182 C 0.70318 0.18688 0.75522
 C183 C 0.70271 0.23506 0.79971
 C184 C 0.74957 0.28243 0.79856
 C185 C 0.79958 0.27934 0.75369
 C186 C 0.80060 0.22868 0.70849
 C187 C 0.25306 0.78692 0.69946
 C188 C 0.20321 0.74327 0.69783
 C189 C 0.19639 0.69847 0.74710
 C190 C 0.23955 0.69914 0.79900
 C191 C 0.28834 0.74657 0.80077
 C192 C 0.29475 0.78885 0.74980
 C193 C 0.20686 0.26703 0.70124
 C194 C 0.25114 0.21689 0.69718
 C195 C 0.28909 0.20115 0.74947
 C196 C 0.29264 0.24363 0.80132
 C197 C 0.24802 0.29467 0.80506
 C198 C 0.20350 0.30397 0.75672
 C199 C 0.79700 0.74094 0.70311
 C200 C 0.74558 0.77849 0.68271
 C201 C 0.69209 0.78500 0.72214
 C202 C 0.68499 0.74485 0.77514
 C203 C 0.73639 0.70757 0.79537
 C204 C 0.79436 0.70968 0.76149
 C205 C 0.20112 0.76357 0.29630
 C206 C 0.19228 0.71989 0.24732
 C207 C 0.24042 0.70917 0.20278
 C208 C 0.29465 0.74910 0.20213
 C209 C 0.30055 0.79804 0.24785
 C210 C 0.25395 0.80430 0.29621
 C211 C 0.79441 0.26215 0.30061
 C212 C 0.75347 0.20880 0.29657
 C213 C 0.71185 0.20323 0.24353
 C214 C 0.71564 0.24795 0.19389
 C215 C 0.75660 0.30077 0.19910
 C216 C 0.79637 0.30683 0.25206
 N217 N 0.21738 0.12494 0.37572
 N218 N 0.26589 0.14659 0.34746
 N219 N 0.72008 0.87305 0.35811
 N220 N 0.76572 0.84322 0.33197
 N221 N 0.78962 0.11509 0.62672
 N222 N 0.74480 0.13490 0.66184
 N223 N 0.21302 0.86860 0.63630
 N224 N 0.25996 0.83457 0.65185
 N225 N 0.37355 0.29815 0.13300
 N226 N 0.36092 0.25268 0.16987
 N227 N 0.36775 0.71535 0.87409
 N228 N 0.32936 0.75693 0.85377
 N229 N 0.63272 0.79118 0.11832
 N230 N 0.66069 0.74394 0.14314
 N231 N 0.63327 0.28314 0.87430
 N232 N 0.65286 0.23361 0.84632
 N233 N 0.14177 0.37003 0.21231
 N234 N 0.15641 0.33304 0.25746
 N235 N 0.85634 0.37167 0.72189
 N236 N 0.85031 0.32448 0.75899
 N237 N 0.12485 0.61863 0.78624
 N238 N 0.14603 0.65287 0.74153
 N239 N 0.88239 0.62670 0.27293
 N240 N 0.85135 0.65101 0.22780
 N241 N 0.13985 0.23001 0.62026
 N242 N 0.16039 0.27643 0.65252
 N243 N 0.87098 0.77524 0.62754
 N244 N 0.85043 0.73083 0.66251
 N245 N 0.12201 0.72118 0.36437
 N246 N 0.15559 0.76791 0.34650
 N247 N 0.86157 0.22495 0.38247
 N248 N 0.84025 0.27060 0.35008
 N249 N 0.28865 0.37141 0.87458
 N250 N 0.24300 0.33570 0.85896
 N251 N 0.71633 0.36226 0.11316
 N252 N 0.76125 0.34778 0.15037
 N253 N 0.77190 0.63030 0.86780
 N254 N 0.72634 0.66200 0.84463
 N255 N 0.28061 0.63296 0.13236
 N256 N 0.23237 0.65922 0.15723
 N257 N 0.35554 0.10976 0.75465
 N258 N 0.30290 0.13512 0.75839
 N259 N 0.36982 0.87611 0.28941
 N260 N 0.35326 0.84122 0.24337
 N261 N 0.64371 0.12370 0.28507
 N262 N 0.66624 0.15247 0.23721
 N263 N 0.62165 0.86223 0.75773
 N264 N 0.64597 0.83365 0.71035
 N265 N 0.74371 0.84885 0.59539
 N266 N 0.74194 0.79455 0.61694
 N267 N 0.27281 0.38756 0.14656
 N268 N 0.27460 0.36312 0.19949
 N269 N 0.25824 0.14110 0.61479
 N270 N 0.26923 0.19454 0.63577
 N271 N 0.21408 0.87226 0.37762
 N272 N 0.26067 0.85209 0.34465
 N273 N 0.72244 0.14124 0.38088
 N274 N 0.76315 0.15626 0.33899
 N275 N 0.60168 0.73953 0.85083
 N276 N 0.62175 0.73129 0.79653
 N277 N 0.12249 0.27142 0.36254
 N278 N 0.15512 0.22545 0.34101
 N279 N 0.64226 0.24114 0.10965
 N280 N 0.69468 0.22901 0.13233
 N281 N 0.37156 0.27971 0.87250
 N282 N 0.34053 0.23342 0.84899
 N283 N 0.37225 0.78594 0.12870
 N284 N 0.34198 0.74013 0.15355
 N285 N 0.87955 0.63859 0.77633
 N286 N 0.85191 0.68830 0.79047
 N287 N 0.40002 0.13964 0.28149
 N288 N 0.37495 0.19226 0.28485
 N289 N 0.11181 0.64362 0.23319
 N290 N 0.12898 0.69927 0.23578
 N291 N 0.87273 0.37737 0.20727
 N292 N 0.84548 0.35412 0.25565
 N293 N 0.12094 0.37282 0.72159
 N294 N 0.15455 0.35096 0.76637
 N295 N 0.87218 0.78206 0.36723
 N296 N 0.85137 0.73739 0.33257
 N297 N 0.88039 0.26998 0.64056
 N298 N 0.84880 0.22290 0.66048
 N299 N 0.12059 0.70607 0.62876
 N300 N 0.15845 0.74921 0.64700
 N301 N 0.71100 0.62798 0.11331
 N302 N 0.75791 0.64991 0.14378
 N303 N 0.28051 0.62618 0.87325
 N304 N 0.23257 0.65224 0.84798
 N305 N 0.78829 0.36669 0.86443
 N306 N 0.74310 0.33366 0.84274
 N307 N 0.62765 0.85729 0.28044
 N308 N 0.66424 0.84529 0.23408
 N309 N 0.62576 0.11563 0.71335
 N310 N 0.65335 0.14127 0.76003
 N311 N 0.36955 0.86375 0.79247
 N312 N 0.34307 0.83648 0.74603
   
