data_POSCAR
  _audit_creation_date              2014-09-24
  _audit_creation_method            'ToBaCCo'
  _symmetry_space_group_name_H-M    'P1'
  _symmetry_Int_Tables_number       1
  _symmetry_cell_setting            triclinic
  loop_
  _symmetry_equiv_pos_as_xyz
 x,y,z
_cell_length_a 38.8251
_cell_length_b 40.1025
_cell_length_c 27.7124
_cell_angle_alpha 89.979600
_cell_angle_beta 90.069800
_cell_angle_gamma 90.016200
loop_
  _atom_site_label
  _atom_site_type_symbol
  _atom_site_fract_x
  _atom_site_fract_y
  _atom_site_fract_z
C1 C 0.18071 0.24911 0.16355
 C2 C 0.19705 0.21880 0.17515
 C3 C 0.22557 0.21983 0.20666
 C4 C 0.23580 0.24955 0.23000
 C5 C 0.21764 0.27907 0.21909
 C6 C 0.19093 0.27920 0.18491
 C7 C 0.26509 0.24943 0.26570
 C8 C 0.28325 0.27891 0.27701
 C9 C 0.30979 0.27887 0.31144
 C10 C 0.31981 0.24870 0.33273
 C11 C 0.30347 0.21846 0.32077
 C12 C 0.27522 0.21960 0.28883
 H13 H 0.15817 0.24940 0.14055
 H14 H 0.24049 0.19738 0.21153
 H15 H 0.22395 0.30224 0.23685
 H16 H 0.27704 0.30216 0.25939
 H17 H 0.34221 0.24883 0.35600
 H18 H 0.26036 0.19714 0.28358
 C19 C 0.82246 0.24974 0.16967
 C20 C 0.80573 0.27964 0.18087
 C21 C 0.77649 0.27886 0.21050
 C22 C 0.76541 0.24902 0.23285
 C23 C 0.78368 0.21941 0.22217
 C24 C 0.81132 0.21947 0.18945
 C25 C 0.73547 0.24916 0.26752
 C26 C 0.71716 0.21964 0.27870
 C27 C 0.69013 0.21947 0.31286
 C28 C 0.67968 0.25018 0.33267
 C29 C 0.69618 0.28000 0.32035
 C30 C 0.72486 0.27906 0.28986
 H31 H 0.84521 0.25013 0.14704
 H32 H 0.76270 0.30195 0.21561
 H33 H 0.77686 0.19604 0.23894
 H34 H 0.72460 0.19648 0.26210
 H35 H 0.65694 0.25141 0.35518
 H36 H 0.73860 0.30212 0.28413
 C37 C 0.67737 0.74958 0.67016
 C38 C 0.69416 0.71973 0.68153
 C39 C 0.72339 0.72059 0.71125
 C40 C 0.73443 0.75046 0.73353
 C41 C 0.71617 0.78004 0.72260
 C42 C 0.68849 0.77990 0.68981
 C43 C 0.76433 0.75034 0.76837
 C44 C 0.78268 0.77984 0.77959
 C45 C 0.80983 0.77996 0.81369
 C46 C 0.82025 0.74921 0.83350
 C47 C 0.80364 0.71944 0.82124
 C48 C 0.77490 0.72044 0.79079
 H49 H 0.65461 0.74909 0.64749
 H50 H 0.73719 0.69750 0.71647
 H51 H 0.72303 0.80344 0.73924
 H52 H 0.77521 0.80302 0.76301
 H53 H 0.84306 0.74789 0.85595
 H54 H 0.76111 0.69741 0.78512
 C55 C 0.32129 0.75042 0.66731
 C56 C 0.30442 0.78023 0.67854
 C57 C 0.27506 0.77930 0.70790
 C58 C 0.26400 0.74940 0.73007
 C59 C 0.28233 0.71984 0.71928
 C60 C 0.31013 0.72006 0.68679
 C61 C 0.23409 0.74947 0.76480
 C62 C 0.21585 0.71993 0.77615
 C63 C 0.18886 0.71977 0.81040
 C64 C 0.17843 0.75050 0.83021
 C65 C 0.19487 0.78030 0.81773
 C66 C 0.22347 0.77937 0.78714
 H67 H 0.34415 0.75097 0.64492
 H68 H 0.26122 0.80236 0.71299
 H69 H 0.27546 0.69642 0.73583
 H70 H 0.22332 0.69676 0.75960
 H71 H 0.15577 0.75178 0.85285
 H72 H 0.23715 0.80246 0.78135
 O73 O 0.96843 -0.02508 -0.05187
 O74 O 1.03313 0.03949 -0.02785
 O75 O 1.03537 -0.02387 -0.05018
 O76 O 0.96666 0.03716 -0.02394
 O77 O 0.96817 0.02239 0.05269
 O78 O 1.03607 -0.03855 0.02653
 O79 O 1.03506 0.02465 0.04879
 O80 O 0.96950 -0.04006 0.02471
 Cu81 Cu 1.00078 0.00835 -0.04613
 Cu82 Cu 1.00226 -0.00932 0.04585
 C83 C 0.95815 -0.04392 -0.01803
 C84 C 1.04489 0.04346 0.01448
 C85 C 1.04711 -0.04200 -0.01624
 C86 C 0.95606 0.04054 0.01920
 O87 O 0.53431 0.46033 0.52645
 O88 O 0.46785 0.52292 0.55185
 O89 O 0.46754 0.46075 0.52345
 O90 O 0.53473 0.52347 0.54949
 O91 O 0.53430 0.53860 0.47297
 O92 O 0.46807 0.47584 0.44693
 O93 O 0.46762 0.53804 0.47533
 O94 O 0.53502 0.47548 0.44994
 Cu95 Cu 0.50108 0.49037 0.54545
 Cu96 Cu 0.50124 0.50845 0.45363
 C97 C 0.54590 0.45693 0.48395
 C98 C 0.45657 0.54146 0.51825
 C99 C 0.45662 0.45734 0.48043
 C100 C 0.54565 0.54208 0.51561
 O101 O 0.03167 0.52459 -0.05237
 O102 O -0.03357 0.46071 -0.02667
 O103 O -0.03525 0.52392 -0.04931
 O104 O 0.03316 0.46227 -0.02444
 O105 O 0.03292 0.47721 0.05213
 O106 O -0.03487 0.53864 0.02738
 O107 O -0.03404 0.47555 0.04996
 O108 O 0.03163 0.53968 0.02415
 Cu109 Cu -0.00096 0.49141 -0.04586
 Cu110 Cu -0.00100 0.50917 0.04608
 C111 C 0.04245 0.54343 -0.01883
 C112 C -0.04481 0.45695 0.01596
 C113 C -0.04645 0.54212 -0.01515
 C114 C 0.04440 0.45892 0.01843
 O115 O 0.53195 1.02492 0.44893
 O116 O 0.46552 0.96208 0.47352
 O117 O 0.46502 1.02540 0.45120
 O118 O 0.53224 0.96256 0.47687
 O119 O 0.53169 0.97739 0.55348
 O120 O 0.46549 1.04013 0.52793
 O121 O 0.46474 0.97683 0.55018
 O122 O 0.53185 1.03981 0.52555
 Cu123 Cu 0.49873 0.99227 0.45497
 Cu124 Cu 0.49845 1.00991 0.54697
 C125 C 0.54290 1.04351 0.48269
 C126 C 0.45394 0.95840 0.51598
 C127 C 0.45427 1.04393 0.48527
 C128 C 0.54311 0.95898 0.51989
 C129 C 1.16538 0.18610 0.11401
 C130 C 1.14847 0.15668 0.10018
 C131 C 1.14982 0.12835 0.13037
 C132 C 1.16958 0.12937 0.17260
 C133 C 1.18652 0.15866 0.18609
 C134 C 1.18377 0.18797 0.15796
 C135 C 1.13078 0.09974 0.11843
 C136 C 1.11050 0.09913 0.07649
 C137 C 1.11055 0.12696 0.04510
 C138 C 1.12952 0.15552 0.05711
 C139 C 1.09094 0.12608 0.00267
 C140 C 1.07057 0.09835 -0.00788
 C141 C 1.06914 0.07112 0.02402
 C142 C 1.08961 0.07146 0.06590
 H143 H 1.16423 0.20743 0.09006
 H144 H 1.17111 0.10779 0.19604
 H145 H 1.19972 0.15866 0.22051
 H146 H 1.13120 0.07826 0.14224
 H147 H 1.12885 0.17712 0.03353
 H148 H 1.09087 0.14708 -0.02195
 H149 H 1.05503 0.09871 -0.04036
 H150 H 1.08893 0.05044 0.09049
 C151 C 0.66628 0.68361 0.61858
 C152 C 0.64842 0.65452 0.60556
 C153 C 0.64378 0.62879 0.63987
 C154 C 0.65818 0.63207 0.68601
 C155 C 0.67581 0.66113 0.69872
 C156 C 0.67941 0.68742 0.66554
 C157 C 0.62403 0.60066 0.62800
 C158 C 0.60864 0.59803 0.58234
 C159 C 0.61428 0.62323 0.54750
 C160 C 0.63423 0.65124 0.55925
 C161 C 0.59916 0.62040 0.50178
 C162 C 0.57773 0.59344 0.49110
 C163 C 0.57089 0.56882 0.52597
 C164 C 0.58698 0.57101 0.57136
 H165 H 0.66928 0.70360 0.59257
 H166 H 0.65501 0.61256 0.71270
 H167 H 0.68542 0.66359 0.73525
 H168 H 0.61996 0.58124 0.65465
 H169 H 0.63798 0.67084 0.53279
 H170 H 0.60337 0.63937 0.47455
 H171 H 0.56575 0.59237 0.45582
 H172 H 0.58211 0.55209 0.59845
 C173 C -0.16594 0.31554 0.11805
 C174 C -0.14792 0.34455 0.10511
 C175 C -0.14355 0.37042 0.13926
 C176 C -0.15833 0.36733 0.18514
 C177 C -0.17607 0.33834 0.19780
 C178 C -0.17944 0.31190 0.16480
 C179 C -0.12370 0.39850 0.12751
 C180 C -0.10793 0.40094 0.08213
 C181 C -0.11325 0.37558 0.04744
 C182 C -0.13331 0.34763 0.05906
 C183 C -0.09774 0.37824 0.00199
 C184 C -0.07630 0.40522 -0.00856
 C185 C -0.06984 0.43001 0.02618
 C186 C -0.08625 0.42795 0.07129
 H187 H -0.16875 0.29546 0.09215
 H188 H -0.15536 0.38695 0.21171
 H189 H -0.18594 0.33602 0.23419
 H190 H -0.11986 0.41803 0.15404
 H191 H -0.13684 0.32791 0.03272
 H192 H -0.10168 0.35915 -0.02512
 H193 H -0.06405 0.40619 -0.04362
 H194 H -0.08169 0.44702 0.09827
 C195 C 0.33267 0.81656 0.61619
 C196 C 0.35060 0.84569 0.60361
 C197 C 0.35503 0.87130 0.63815
 C198 C 0.34035 0.86788 0.68404
 C199 C 0.32265 0.83878 0.69632
 C200 C 0.31925 0.81259 0.66293
 C201 C 0.37485 0.89948 0.62675
 C202 C 0.39052 0.90226 0.58134
 C203 C 0.38508 0.87718 0.54627
 C204 C 0.36507 0.84913 0.55754
 C205 C 0.40048 0.88017 0.50079
 C206 C 0.42198 0.90716 0.49062
 C207 C 0.42861 0.93165 0.52576
 C208 C 0.41225 0.92931 0.57087
 H209 H 0.32983 0.79664 0.59003
 H210 H 0.34337 0.88730 0.71089
 H211 H 0.31283 0.83619 0.73269
 H212 H 0.37876 0.91881 0.65358
 H213 H 0.36148 0.82961 0.53090
 H214 H 0.39644 0.86130 0.47339
 H215 H 0.43418 0.90835 0.45554
 H216 H 0.41696 0.94813 0.59816
 C217 C -0.16893 0.68276 -0.11603
 C218 C -0.15084 0.65373 -0.10340
 C219 C -0.14564 0.62845 -0.13823
 C220 C -0.15975 0.63208 -0.18449
 C221 C -0.17756 0.66111 -0.19683
 C222 C -0.18167 0.68701 -0.16313
 C223 C -0.12557 0.60046 -0.12676
 C224 C -0.11036 0.59756 -0.08101
 C225 C -0.11657 0.62228 -0.04567
 C226 C -0.13690 0.65011 -0.05701
 C227 C -0.10160 0.61919 0.00011
 C228 C -0.07970 0.59251 0.01034
 C229 C -0.07226 0.56842 -0.02503
 C230 C -0.08825 0.57081 -0.07046
 H231 H -0.17232 0.70244 -0.08964
 H232 H -0.15615 0.61292 -0.21157
 H233 H -0.18686 0.66390 -0.23347
 H234 H -0.12105 0.58141 -0.15380
 H235 H -0.14107 0.66937 -0.03015
 H236 H -0.10624 0.63778 0.02771
 H237 H -0.06782 0.59128 0.04567
 H238 H -0.08293 0.55229 -0.09795
 C239 C 0.33415 1.18570 0.38273
 C240 C 0.35091 1.15632 0.39698
 C241 C 0.35021 1.12806 0.36662
 C242 C 0.33110 1.12911 0.32379
 C243 C 0.31422 1.15836 0.30991
 C244 C 0.31648 1.18761 0.33822
 C245 C 0.36925 1.09955 0.37901
 C246 C 0.38886 1.09896 0.42158
 C247 C 0.38806 1.12668 0.45314
 C248 C 0.36911 1.15514 0.44066
 C249 C 0.40693 1.12583 0.49619
 C250 C 0.42740 1.09829 0.50721
 C251 C 0.42968 1.07120 0.47518
 C252 C 0.40987 1.07146 0.43267
 H253 H 0.33484 1.20699 0.40676
 H254 H 0.33002 1.10758 0.30022
 H255 H 0.30152 1.15843 0.27514
 H256 H 0.36939 1.07815 0.35508
 H257 H 0.36924 1.17667 0.46436
 H258 H 0.40640 1.14675 0.52093
 H259 H 0.44241 1.09872 0.54017
 H260 H 0.41121 1.05055 0.40795
 C261 C 1.16808 -0.18294 -0.11925
 C262 C 1.15017 -0.15387 -0.10640
 C263 C 1.14446 -0.12870 -0.14128
 C264 C 1.15791 -0.13247 -0.18785
 C265 C 1.17560 -0.16151 -0.20039
 C266 C 1.18021 -0.18729 -0.16659
 C267 C 1.12456 -0.10066 -0.12951
 C268 C 1.11007 -0.09759 -0.08339
 C269 C 1.11684 -0.12219 -0.04802
 C270 C 1.13694 -0.15008 -0.05967
 C271 C 1.10261 -0.11892 -0.00186
 C272 C 1.08089 -0.09220 0.00876
 C273 C 1.07288 -0.06824 -0.02661
 C274 C 1.08814 -0.07079 -0.07245
 H275 H 1.17185 -0.20254 -0.09281
 H276 H 1.15392 -0.11339 -0.21498
 H277 H 1.18444 -0.16440 -0.23720
 H278 H 1.11964 -0.08170 -0.15658
 H279 H 1.14153 -0.16924 -0.03278
 H280 H 1.10769 -0.13741 0.02577
 H281 H 1.06958 -0.09085 0.04440
 H282 H 1.08235 -0.05238 -0.09995
 C283 C 0.66851 0.31646 0.38306
 C284 C 0.65029 0.34540 0.39569
 C285 C 0.64520 0.37082 0.36100
 C286 C 0.65952 0.36739 0.31488
 C287 C 0.67741 0.33843 0.30251
 C288 C 0.68144 0.31240 0.33607
 C289 C 0.62506 0.39875 0.37247
 C290 C 0.60966 0.40144 0.41806
 C291 C 0.61571 0.37656 0.45325
 C292 C 0.63611 0.34879 0.44193
 C293 C 0.60053 0.37943 0.49888
 C294 C 0.57866 0.40611 0.50913
 C295 C 0.57145 0.43042 0.47394
 C296 C 0.58757 0.42820 0.42863
 H297 H 0.67183 0.29670 0.40937
 H298 H 0.65600 0.38666 0.28790
 H299 H 0.68684 0.33580 0.26595
 H300 H 0.62066 0.41792 0.34554
 H301 H 0.64018 0.32942 0.46867
 H302 H 0.60503 0.36069 0.52636
 H303 H 0.56668 0.40722 0.54436
 H304 H 0.58243 0.44688 0.40128
 C305 C 0.84134 -0.18678 -0.12598
 C306 C 0.85927 -0.15790 -0.11243
 C307 C 0.86332 -0.13163 -0.14585
 C308 C 0.84843 -0.13431 -0.19175
 C309 C 0.83025 -0.16302 -0.20490
 C310 C 0.82689 -0.19011 -0.17263
 C311 C 0.88250 -0.10330 -0.13302
 C312 C 0.89755 -0.10092 -0.08705
 C313 C 0.89252 -0.12676 -0.05308
 C314 C 0.87341 -0.15507 -0.06597
 C315 C 0.90723 -0.12413 -0.00701
 C316 C 0.92762 -0.09663 0.00492
 C317 C 0.93377 -0.07129 -0.02906
 C318 C 0.91812 -0.07339 -0.07481
 H319 H 0.83790 -0.20625 -0.09932
 H320 H 0.85127 -0.11437 -0.21784
 H321 H 0.82054 -0.16438 -0.24143
 H322 H 0.88607 -0.08335 -0.15898
 H323 H 0.87000 -0.17511 -0.04011
 H324 H 0.90347 -0.14364 0.01954
 H325 H 0.93936 -0.09566 0.04036
 H326 H 0.92246 -0.05393 -0.10128
 C327 C 0.33661 0.31669 0.37286
 C328 C 0.35621 0.34480 0.38528
 C329 C 0.36738 0.36691 0.34877
 C330 C 0.35819 0.36082 0.30060
 C331 C 0.33885 0.33262 0.28851
 C332 C 0.32825 0.31008 0.32438
 C333 C 0.38808 0.39436 0.36088
 C334 C 0.39805 0.39974 0.40896
 C335 C 0.38641 0.37792 0.44555
 C336 C 0.36538 0.35071 0.43352
 C337 C 0.39656 0.38331 0.49349
 C338 C 0.41877 0.40957 0.50499
 C339 C 0.43112 0.43103 0.46881
 C340 C 0.42015 0.42620 0.42087
 H341 H 0.32816 0.29969 0.40088
 H342 H 0.36652 0.37751 0.27216
 H343 H 0.33303 0.32793 0.25089
 H344 H 0.39695 0.41113 0.33280
 H345 H 0.35675 0.33377 0.46154
 H346 H 0.38780 0.36688 0.52200
 H347 H 0.42672 0.41273 0.54218
 H348 H 0.42941 0.44255 0.39256
 C349 C 0.15796 0.68644 -0.12886
 C350 C 0.14025 0.65750 -0.11503
 C351 C 0.13595 0.63123 -0.14836
 C352 C 0.15045 0.63394 -0.19446
 C353 C 0.16846 0.66269 -0.20787
 C354 C 0.17200 0.68980 -0.17569
 C355 C 0.11694 0.60286 -0.13523
 C356 C 0.10234 0.60044 -0.08901
 C357 C 0.10767 0.62628 -0.05514
 C358 C 0.12658 0.65464 -0.06836
 C359 C 0.09347 0.62362 -0.00882
 C360 C 0.07326 0.59609 0.00347
 C361 C 0.06675 0.57076 -0.03038
 C362 C 0.08191 0.57288 -0.07641
 H363 H 0.16157 0.70593 -0.10228
 H364 H 0.14743 0.61399 -0.22049
 H365 H 0.17789 0.66408 -0.24452
 H366 H 0.11315 0.58290 -0.16111
 H367 H 0.13020 0.67468 -0.04256
 H368 H 0.09748 0.64313 0.01765
 H369 H 0.06191 0.59512 0.03912
 H370 H 0.07728 0.55342 -0.10278
 C371 C 0.65924 1.18608 0.37350
 C372 C 0.64151 1.15714 0.38725
 C373 C 0.63712 1.13094 0.35381
 C374 C 0.65159 1.13372 0.30770
 C375 C 0.66965 1.16246 0.29438
 C376 C 0.67324 1.18950 0.32666
 C377 C 0.61804 1.10260 0.36684
 C378 C 0.60344 1.10014 0.41304
 C379 C 0.60889 1.12588 0.44704
 C380 C 0.62788 1.15421 0.43394
 C381 C 0.59467 1.12318 0.49335
 C382 C 0.57427 1.09575 0.50546
 C383 C 0.56760 1.07056 0.47146
 C384 C 0.58284 1.07267 0.42549
 H385 H 0.66289 1.20553 0.40014
 H386 H 0.64852 1.11383 0.28160
 H387 H 0.67906 1.16391 0.25773
 H388 H 0.61417 1.08272 0.34086
 H389 H 0.63157 1.17418 0.45982
 H390 H 0.59878 1.14260 0.51991
 H391 H 0.56286 1.09477 0.54108
 H392 H 0.57809 1.05332 0.39899
 C393 C 0.16422 0.31749 0.12402
 C394 C 0.14478 0.34578 0.11198
 C395 C 0.13364 0.36764 0.14881
 C396 C 0.14274 0.36113 0.19690
 C397 C 0.16197 0.33279 0.20860
 C398 C 0.17251 0.31049 0.17241
 C399 C 0.11307 0.39525 0.13707
 C400 C 0.10319 0.40105 0.08905
 C401 C 0.11484 0.37950 0.05215
 C402 C 0.13574 0.35213 0.06381
 C403 C 0.10478 0.38531 0.00427
 C404 C 0.08259 0.41164 -0.00686
 C405 C 0.07017 0.43278 0.02964
 C406 C 0.08113 0.42761 0.07751
 H407 H 0.17262 0.30066 0.09578
 H408 H 0.13444 0.37763 0.22558
 H409 H 0.16776 0.32780 0.24615
 H410 H 0.10420 0.41181 0.16540
 H411 H 0.14436 0.33539 0.03554
 H412 H 0.11357 0.36910 -0.02447
 H413 H 0.07465 0.41506 -0.04401
 H414 H 0.07180 0.44370 0.10606
 C415 C 0.66135 0.81728 0.62821
 C416 C 0.64229 0.84566 0.61551
 C417 C 0.63216 0.86848 0.65168
 C418 C 0.64191 0.86282 0.69976
 C419 C 0.66083 0.83440 0.71212
 C420 C 0.67033 0.81118 0.67661
 C421 C 0.61196 0.89622 0.63934
 C422 C 0.60151 0.90124 0.59136
 C423 C 0.61219 0.87875 0.55508
 C424 C 0.63266 0.85120 0.56734
 C425 C 0.60164 0.88383 0.50723
 C426 C 0.57990 0.91042 0.49556
 C427 C 0.56842 0.93249 0.53149
 C428 C 0.57986 0.92800 0.57928
 H429 H 0.66898 0.79972 0.60047
 H430 H 0.63440 0.88007 0.72793
 H431 H 0.66721 0.83012 0.74966
 H432 H 0.60385 0.91352 0.66717
 H433 H 0.64053 0.83373 0.53958
 H434 H 0.60969 0.86689 0.47895
 H435 H 0.57155 0.91329 0.45850
 H436 H 0.57128 0.94484 0.60740
 C437 C 0.83783 0.18180 0.12790
 C438 C 0.85681 0.15339 0.11522
 C439 C 0.86744 0.13082 0.15150
 C440 C 0.85819 0.13673 0.19968
 C441 C 0.83930 0.16515 0.21200
 C442 C 0.82938 0.18816 0.17636
 C443 C 0.88766 0.10311 0.13914
 C444 C 0.89761 0.09787 0.09104
 C445 C 0.88633 0.12008 0.05467
 C446 C 0.86586 0.14759 0.06695
 C447 C 0.89635 0.11479 0.00669
 C448 C 0.91821 0.08835 -0.00503
 C449 C 0.93037 0.06661 0.03096
 C450 C 0.91938 0.07123 0.07890
 H451 H 0.82985 0.19921 0.10009
 H452 H 0.86607 0.11966 0.22793
 H453 H 0.83329 0.16964 0.24958
 H454 H 0.89620 0.08602 0.16705
 H455 H 0.85758 0.16485 0.03911
 H456 H 0.88783 0.13150 -0.02165
 H457 H 0.92618 0.08537 -0.04221
 H458 H 0.92849 0.05465 0.10706
 C459 C 0.33760 0.68279 0.62549
 C460 C 0.35679 0.65447 0.61298
 C461 C 0.36684 0.63164 0.64924
 C462 C 0.35688 0.63723 0.69721
 C463 C 0.33783 0.66559 0.70938
 C464 C 0.32841 0.68883 0.67378
 C465 C 0.38717 0.60397 0.63710
 C466 C 0.39782 0.59902 0.58924
 C467 C 0.38722 0.62153 0.55286
 C468 C 0.36662 0.64901 0.56492
 C469 C 0.39797 0.61652 0.50513
 C470 C 0.41981 0.59000 0.49366
 C471 C 0.43121 0.56790 0.52968
 C472 C 0.41959 0.57232 0.57736
 H473 H 0.33003 0.70036 0.59767
 H474 H 0.36432 0.61997 0.72546
 H475 H 0.33129 0.66983 0.74685
 H476 H 0.39522 0.58666 0.66501
 H477 H 0.35881 0.66648 0.53708
 H478 H 0.38998 0.63347 0.47678
 H479 H 0.42828 0.58718 0.45667
 H480 H 0.42810 0.55547 0.60553
   
