data_POSCAR
  _audit_creation_date              2014-09-24
  _audit_creation_method            'ToBaCCo'
  _symmetry_space_group_name_H-M    'P1'
  _symmetry_Int_Tables_number       1
  _symmetry_cell_setting            triclinic
  loop_
  _symmetry_equiv_pos_as_xyz
 x,y,z
_cell_length_a 31.9377
_cell_length_b 26.7199
_cell_length_c 15.4705
_cell_angle_alpha 89.880800
_cell_angle_beta 89.983000
_cell_angle_gamma 90.041700
loop_
  _atom_site_label
  _atom_site_type_symbol
  _atom_site_fract_x
  _atom_site_fract_y
  _atom_site_fract_z
O1 O 0.76107 0.18645 0.58024
 O2 O 0.69878 0.24704 0.40992
 O3 O 0.76474 0.18850 0.41369
 O4 O 0.69541 0.24559 0.57608
 O5 O 0.73697 0.31158 0.58196
 O6 O 0.80610 0.25460 0.41939
 O7 O 0.74009 0.31329 0.41541
 O8 O 0.80256 0.25253 0.58556
 Cu9 Cu 0.72588 0.21024 0.49442
 Cu10 Cu 0.77556 0.28964 0.50107
 C11 C 0.79313 0.20857 0.61016
 C12 C 0.70804 0.29108 0.38556
 C13 C 0.79797 0.21113 0.39072
 C14 C 0.70375 0.28897 0.60482
 O15 O 0.26123 0.68593 0.58451
 O16 O 0.19822 0.74748 0.41593
 O17 O 0.26363 0.68817 0.41791
 O18 O 0.19544 0.74498 0.58207
 O19 O 0.23710 0.81090 0.58751
 O20 O 0.30546 0.75392 0.42364
 O21 O 0.23995 0.81334 0.42096
 O22 O 0.30279 0.75188 0.58989
 Cu23 Cu 0.22548 0.71002 0.49963
 Cu24 Cu 0.27549 0.78913 0.50604
 C25 C 0.29351 0.70779 0.61424
 C26 C 0.20767 0.79146 0.39145
 C27 C 0.29683 0.71068 0.39471
 C28 C 0.20392 0.78832 0.61071
 O29 O 0.26177 0.31354 -0.58654
 O30 O 0.19532 0.25407 -0.42222
 O31 O 0.26217 0.31123 -0.41983
 O32 O 0.19736 0.25223 -0.58853
 O33 O 0.23931 0.18664 -0.58753
 O34 O 0.30365 0.24517 -0.41957
 O35 O 0.23676 0.18798 -0.42082
 O36 O 0.30370 0.24794 -0.58587
 Cu37 Cu 0.22501 0.28936 -0.50438
 Cu38 Cu 0.27499 0.21033 -0.50339
 C39 C 0.29474 0.29173 -0.61257
 C40 C 0.20389 0.21038 -0.39531
 C41 C 0.29476 0.28876 -0.39299
 C42 C 0.20666 0.20857 -0.61499
 O43 O -0.23724 0.81141 -0.58253
 O44 O -0.30601 0.75487 -0.41863
 O45 O -0.24006 0.81352 -0.41599
 O46 O -0.30283 0.75195 -0.58474
 O47 O -0.26133 0.68597 -0.57853
 O48 O -0.19864 0.74745 -0.40980
 O49 O -0.26454 0.68894 -0.41201
 O50 O -0.19568 0.74550 -0.57594
 Cu51 Cu -0.27567 0.78957 -0.50117
 Cu52 Cu -0.22592 0.71033 -0.49353
 C53 C -0.20403 0.78883 -0.60510
 C54 C -0.29773 0.71158 -0.38918
 C55 C -0.20797 0.79149 -0.38586
 C56 C -0.29350 0.70786 -0.60853
 N57 N 0.04312 1.08898 -0.09508
 N58 N 0.07175 1.12289 -0.11482
 N59 N -0.04574 1.05379 -0.14904
 N60 N -0.07458 1.06321 -0.20772
 N61 N -0.04500 1.08915 -0.09027
 N62 N -0.07338 1.12371 -0.10761
 N63 N 0.04212 1.05366 -0.15392
 N64 N 0.06987 1.06254 -0.21509
 C65 C 0.08846 1.10554 -0.18958
 C66 C -0.09192 1.10658 -0.18059
 N67 N -0.04522 0.91110 -0.08857
 N68 N -0.07376 0.87658 -0.10523
 N69 N 0.04194 0.94611 -0.15287
 N70 N 0.06953 0.93667 -0.21403
 N71 N 0.04286 0.91111 -0.09322
 N72 N 0.07122 0.87688 -0.11232
 N73 N -0.04591 0.94626 -0.14795
 N74 N -0.07485 0.93676 -0.20634
 Mn75 Mn -0.00191 0.99996 -0.15159
 C76 C -0.09233 0.89354 -0.17845
 C77 C 0.08788 0.89367 -0.18758
 N78 N -0.04272 1.08951 0.09639
 N79 N -0.07097 1.12384 0.11576
 N80 N 0.04604 1.05450 0.15110
 N81 N 0.07468 1.06445 0.20992
 N82 N 0.04529 1.08962 0.09161
 N83 N 0.07343 1.12453 0.10864
 N84 N -0.04181 1.05448 0.15601
 N85 N -0.06927 1.06401 0.21738
 Mn86 Mn 0.00017 1.08990 0.00064
 C87 C -0.08758 1.10709 0.19113
 C88 C 0.09183 1.10790 0.18218
 N89 N 0.04525 0.91144 0.09333
 N90 N 0.07364 0.87687 0.11062
 N91 N -0.04184 0.94672 0.15707
 N92 N -0.06938 0.93737 0.21850
 N93 N -0.04279 0.91153 0.09800
 N94 N -0.07111 0.87729 0.11773
 N95 N 0.04603 0.94679 0.15214
 N96 N 0.07490 0.93732 0.21079
 Mn97 Mn 0.00002 0.91072 0.00240
 Mn98 Mn 0.00211 1.00062 0.15476
 Cl99 Cl 0.00010 1.00030 0.00159
 C100 C 0.09223 0.89394 0.18360
 C101 C -0.08772 0.89423 0.19276
 N102 N 0.54317 0.58934 -0.09440
 N103 N 0.57142 0.62383 -0.11341
 N104 N 0.45466 0.55452 -0.15105
 N105 N 0.42589 0.56418 -0.20978
 N106 N 0.45507 0.58940 -0.09141
 N107 N 0.42653 0.62389 -0.10824
 N108 N 0.54251 0.55446 -0.15402
 N109 N 0.57013 0.56421 -0.21499
 C110 C 0.58828 0.60727 -0.18854
 C111 C 0.40826 0.60723 -0.18188
 N112 N 0.45489 0.41142 -0.09435
 N113 N 0.42654 0.37703 -0.11312
 N114 N 0.54248 0.44688 -0.15593
 N115 N 0.57000 0.43759 -0.21733
 N116 N 0.54303 0.41134 -0.09723
 N117 N 0.57109 0.37691 -0.11722
 N118 N 0.45467 0.44712 -0.15278
 N119 N 0.42638 0.43806 -0.21261
 Mn120 Mn 0.49859 0.50076 -0.15404
 C121 C 0.40869 0.39457 -0.18673
 C122 C 0.58797 0.39413 -0.19199
 N123 N 0.45654 0.58811 0.09530
 N124 N 0.42850 0.62254 0.11532
 N125 N 0.54498 0.55267 0.15108
 N126 N 0.57362 0.56197 0.21031
 N127 N 0.54460 0.58817 0.09225
 N128 N 0.57301 0.62262 0.11005
 N129 N 0.45710 0.55256 0.15403
 N130 N 0.42961 0.56184 0.21543
 Mn131 Mn 0.49984 0.58933 0.00046
 C132 C 0.41165 0.60529 0.19009
 C133 C 0.59120 0.60538 0.18341
 N134 N 0.54449 0.41013 0.08940
 N135 N 0.57325 0.37586 0.10577
 N136 N 0.45695 0.44471 0.15230
 N137 N 0.42896 0.43481 0.21266
 N138 N 0.45648 0.40999 0.09235
 N139 N 0.42816 0.37546 0.11049
 N140 N 0.54490 0.44499 0.14911
 N141 N 0.57390 0.43552 0.20744
 Mn142 Mn 0.49972 0.41014 -0.00245
 Mn143 Mn 0.50098 0.49872 0.15234
 Cl144 Cl 0.49978 0.49974 -0.00088
 C145 C 0.59164 0.39263 0.17919
 C146 C 0.41096 0.39177 0.18538
 C147 C 0.32358 0.31755 0.33258
 C148 C 0.33420 0.29004 0.24812
 C149 C 0.36309 0.31425 0.19816
 C150 C 0.37870 0.36384 0.23723
 C151 C 0.33883 0.39441 0.25352
 C152 C 0.30994 0.37037 0.30330
 C153 C 0.36602 0.32572 0.37737
 C154 C 0.39475 0.34975 0.32754
 H155 H 0.32001 0.25483 0.22890
 H156 H 0.37350 0.29955 0.13644
 H157 H 0.33360 0.43165 0.22751
 H158 H 0.28010 0.38745 0.31928
 H159 H 0.37291 0.31371 0.44298
 H160 H 0.42612 0.35804 0.35048
 C161 C -0.17296 0.81578 0.33853
 C162 C -0.15797 0.86457 0.38086
 C163 C -0.13002 0.89080 0.33254
 C164 C -0.11922 0.86584 0.24584
 C165 C -0.10439 0.81301 0.27033
 C166 C -0.13245 0.78673 0.31871
 C167 C -0.18984 0.83170 0.24960
 C168 C -0.16165 0.85793 0.20100
 H169 H -0.16838 0.87735 0.44390
 H170 H -0.11684 0.92597 0.35462
 H171 H -0.07436 0.79756 0.25118
 H172 H -0.12625 0.74882 0.34048
 H173 H -0.22111 0.82289 0.22673
 H174 H -0.16886 0.87168 0.13662
 C175 C 0.67701 0.68029 0.33251
 C176 C 0.66766 0.70710 0.24665
 C177 C 0.63936 0.68260 0.19589
 C178 C 0.62307 0.63344 0.23576
 C179 C 0.66267 0.60286 0.25536
 C180 C 0.69093 0.62727 0.30605
 C181 C 0.63402 0.67278 0.37513
 C182 C 0.60588 0.64841 0.32464
 H183 H 0.68228 0.74204 0.22719
 H184 H 0.62988 0.69675 0.13307
 H185 H 0.66813 0.56536 0.23098
 H186 H 0.72051 0.61045 0.32463
 H187 H 0.62634 0.68555 0.43984
 H188 H 0.57417 0.64052 0.34610
 C189 C 0.17829 1.18278 0.32948
 C190 C 0.13593 1.17373 0.37408
 C191 C 0.10752 1.14956 0.32401
 C192 C 0.12380 1.13620 0.23364
 C193 C 0.13886 1.18623 0.19496
 C194 C 0.16747 1.21062 0.24523
 C195 C 0.19256 1.13035 0.29974
 C196 C 0.16399 1.10616 0.24968
 H197 H 0.12881 1.18538 0.43971
 H198 H 0.07620 1.14075 0.34678
 H199 H 0.12834 1.20103 0.13332
 H200 H 0.18131 1.24613 0.22636
 H201 H 0.22261 1.11371 0.31545
 H202 H 0.16968 1.06918 0.22320
 C203 C 0.67277 0.31585 -0.33863
 C204 C 0.65791 0.36486 -0.38064
 C205 C 0.63012 0.39100 -0.33203
 C206 C 0.61931 0.36575 -0.24538
 C207 C 0.60425 0.31307 -0.27008
 C208 C 0.63217 0.28688 -0.31875
 C209 C 0.68980 0.33136 -0.24968
 C210 C 0.66176 0.35749 -0.20080
 H211 H 0.66828 0.37784 -0.44370
 H212 H 0.61704 0.42629 -0.35391
 H213 H 0.57419 0.29765 -0.25089
 H214 H 0.62579 0.24909 -0.34073
 H215 H 0.72106 0.32235 -0.22700
 H216 H 0.66909 0.37094 -0.13639
 C217 C 0.17298 0.81526 -0.33289
 C218 C 0.15795 0.86398 -0.37558
 C219 C 0.13006 0.89018 -0.32736
 C220 C 0.11936 0.86526 -0.24037
 C221 C 0.10450 0.81239 -0.26428
 C222 C 0.13250 0.78614 -0.31257
 C223 C 0.18998 0.83126 -0.24420
 C224 C 0.16184 0.85747 -0.19566
 H225 H 0.16830 0.87676 -0.43877
 H226 H 0.11688 0.92532 -0.34970
 H227 H 0.07451 0.79688 -0.24479
 H228 H 0.12627 0.74820 -0.33392
 H229 H 0.22129 0.82253 -0.22143
 H230 H 0.16912 0.87127 -0.13145
 C231 C 0.32166 0.68170 -0.32999
 C232 C 0.33163 0.70893 -0.24484
 C233 C 0.36022 0.68464 -0.19432
 C234 C 0.37613 0.63528 -0.23358
 C235 C 0.33636 0.60465 -0.25137
 C236 C 0.30780 0.62878 -0.30179
 C237 C 0.36441 0.67383 -0.37359
 C238 C 0.39279 0.64976 -0.32323
 H239 H 0.31721 0.74396 -0.22554
 H240 H 0.37015 0.69904 -0.13207
 H241 H 0.33096 0.56733 -0.22581
 H242 H 0.27806 0.61178 -0.31880
 H243 H 0.37178 0.68610 -0.43886
 H244 H 0.42433 0.64170 -0.34538
 C245 C -0.17752 1.18128 -0.33029
 C246 C -0.19160 1.12841 -0.30287
 C247 C -0.16340 1.10413 -0.25182
 C248 C -0.12372 1.13470 -0.23288
 C249 C -0.10651 1.14931 -0.32204
 C250 C -0.13459 1.17353 -0.37289
 C251 C -0.16807 1.20840 -0.24493
 C252 C -0.13981 1.18402 -0.19377
 H253 H -0.22126 1.11161 -0.32101
 H254 H -0.16899 1.06675 -0.22668
 H255 H -0.07483 1.14132 -0.34341
 H256 H -0.12690 1.18608 -0.43782
 H257 H -0.18258 1.24345 -0.22609
 H258 H -0.13023 1.19834 -0.13123
 C259 C 0.67289 0.68615 -0.33529
 C260 C 0.69021 0.66997 -0.24673
 C261 C 0.66223 0.64367 -0.19770
 C262 C 0.61957 0.63596 -0.24165
 C263 C 0.60464 0.68886 -0.26531
 C264 C 0.63244 0.71525 -0.31415
 C265 C 0.65754 0.63749 -0.37763
 C266 C 0.62987 0.61124 -0.32882
 H267 H 0.72159 0.67869 -0.22430
 H268 H 0.66972 0.62981 -0.13354
 H269 H 0.57477 0.70431 -0.24519
 H270 H 0.62605 0.75326 -0.33519
 H271 H 0.66748 0.62475 -0.44105
 H272 H 0.61653 0.57617 -0.35096
 C273 C 0.17332 1.18321 -0.33788
 C274 C 0.19070 1.16741 -0.24928
 C275 C 0.16269 1.14144 -0.19969
 C276 C 0.11994 1.13362 -0.24338
 C277 C 0.10514 1.18642 -0.26783
 C278 C 0.13297 1.21244 -0.31708
 C279 C 0.15794 1.13442 -0.37947
 C280 C 0.13019 1.10843 -0.33024
 H281 H 0.22215 1.17606 -0.22736
 H282 H 0.17024 1.12779 -0.13543
 H283 H 0.07529 1.20207 -0.24802
 H284 H 0.12667 1.25032 -0.33889
 H285 H 0.16802 1.12139 -0.44260
 H286 H 0.11684 1.07322 -0.35169
 C287 C 0.32486 0.31597 -0.33502
 C288 C 0.36530 0.28709 -0.31349
 C289 C 0.39280 0.31337 -0.26410
 C290 C 0.37755 0.36602 -0.24024
 C291 C 0.36742 0.39110 -0.32743
 C292 C 0.34006 0.36487 -0.37681
 C293 C 0.30705 0.33161 -0.24679
 C294 C 0.33473 0.35782 -0.19700
 H295 H 0.37190 0.24925 -0.33491
 H296 H 0.42268 0.29799 -0.24376
 H297 H 0.38062 0.42640 -0.34913
 H298 H 0.33019 0.37777 -0.44023
 H299 H 0.27558 0.32263 -0.22523
 H300 H 0.32690 0.37138 -0.13291
 C301 C -0.17847 0.81887 -0.32679
 C302 C -0.19234 0.87179 -0.29981
 C303 C -0.16398 0.89605 -0.24919
 C304 C -0.12433 0.86542 -0.23021
 C305 C -0.14050 0.81618 -0.19050
 C306 C -0.16892 0.79182 -0.24120
 C307 C -0.13558 0.82649 -0.36978
 C308 C -0.10734 0.85067 -0.31936
 H309 H -0.22198 0.88864 -0.31793
 H310 H -0.16941 0.93347 -0.22440
 H311 H -0.13085 0.80190 -0.12788
 H312 H -0.18350 0.75683 -0.22188
 H313 H -0.12806 0.81394 -0.43469
 H314 H -0.07568 0.85860 -0.34108
 C315 C 0.32751 0.68377 0.33768
 C316 C 0.31022 0.66855 0.24881
 C317 C 0.33804 0.64234 0.19953
 C318 C 0.38053 0.63374 0.24374
 C319 C 0.39588 0.68627 0.26859
 C320 C 0.36819 0.71254 0.31763
 C321 C 0.34222 0.63460 0.37930
 C322 C 0.36978 0.60839 0.33033
 H323 H 0.27894 0.67781 0.22646
 H324 H 0.33052 0.62906 0.13511
 H325 H 0.42597 0.70154 0.24921
 H326 H 0.37478 0.75025 0.33975
 H327 H 0.33190 0.62154 0.44234
 H328 H 0.38272 0.57295 0.35188
 C329 C -0.17250 1.18564 0.33729
 C330 C -0.18968 1.16937 0.24876
 C331 C -0.16161 1.14315 0.20007
 C332 C -0.11897 1.13558 0.24423
 C333 C -0.10416 1.18854 0.26760
 C334 C -0.13205 1.21484 0.31610
 C335 C -0.15713 1.13701 0.38004
 C336 C -0.12934 1.11083 0.33154
 H337 H -0.22104 1.17795 0.22611
 H338 H -0.16903 1.12924 0.13600
 H339 H -0.07427 1.20409 0.24757
 H340 H -0.12570 1.25287 0.33693
 H341 H -0.16714 1.12424 0.44350
 H342 H -0.11595 1.07581 0.35394
 C343 C 0.67838 0.31834 0.32665
 C344 C 0.69201 0.37140 0.29945
 C345 C 0.66343 0.39555 0.24910
 C346 C 0.62386 0.36467 0.23059
 C347 C 0.64011 0.31561 0.19077
 C348 C 0.66874 0.29136 0.24123
 C349 C 0.63557 0.32558 0.37007
 C350 C 0.60712 0.34964 0.31992
 H351 H 0.72163 0.38841 0.31722
 H352 H 0.66866 0.43306 0.22419
 H353 H 0.63036 0.30138 0.12828
 H354 H 0.68341 0.25651 0.22183
 H355 H 0.62826 0.31288 0.43510
 H356 H 0.57549 0.35731 0.34196
 C357 C 0.17818 0.81898 0.33238
 C358 C 0.19226 0.87183 0.30489
 C359 C 0.16395 0.89622 0.25422
 C360 C 0.12415 0.86578 0.23566
 C361 C 0.14006 0.81644 0.19631
 C362 C 0.16842 0.79195 0.24707
 C363 C 0.13537 0.82681 0.37550
 C364 C 0.10718 0.85114 0.32501
 H365 H 0.22199 0.88855 0.32276
 H366 H 0.16952 0.93362 0.22912
 H367 H 0.13029 0.80217 0.13385
 H368 H 0.18282 0.75688 0.22797
 H369 H 0.12786 0.81430 0.44054
 H370 H 0.07558 0.85923 0.34681
   
