data_POSCAR
  _audit_creation_date              2014-09-24
  _audit_creation_method            'ToBaCCo'
  _symmetry_space_group_name_H-M    'P1'
  _symmetry_Int_Tables_number       1
  _symmetry_cell_setting            triclinic
  loop_
  _symmetry_equiv_pos_as_xyz
 x,y,z
_cell_length_a 43.5792
_cell_length_b 44.4351
_cell_length_c 41.5206
_cell_angle_alpha 90.022700
_cell_angle_beta 89.679500
_cell_angle_gamma 120.056400
loop_
  _atom_site_label
  _atom_site_type_symbol
  _atom_site_fract_x
  _atom_site_fract_y
  _atom_site_fract_z
O1 O -0.03076 0.51026 0.05292
 O2 O -0.06215 0.43851 -0.00528
 O3 O -0.03110 0.45174 0.05076
 O4 O -0.06118 0.49733 -0.00322
 O5 O -0.00894 0.52304 -0.02750
 O6 O 0.02156 0.47812 0.02721
 O7 O -0.00960 0.46450 -0.02902
 O8 O 0.02165 0.53654 0.02891
 Cu9 Cu -0.05154 0.47182 0.02621
 Cu10 Cu 0.01147 0.50316 -0.00248
 C11 C 0.00083 0.53544 0.05101
 C12 C -0.04139 0.43953 -0.02735
 C13 C 0.00046 0.45754 0.04852
 C14 C -0.04043 0.51753 -0.02490
 O15 O 0.45061 0.46683 -0.03767
 O16 O 0.49450 0.53929 0.02009
 O17 O 0.50891 0.52661 -0.03811
 O18 O 0.43553 0.47993 0.01944
 O19 O 0.46366 0.45520 0.04107
 O20 O 0.53652 0.50090 -0.01755
 O21 O 0.52298 0.51443 0.04065
 O22 O 0.47820 0.44162 -0.01587
 Cu23 Cu 0.46969 0.50581 -0.01116
 Cu24 Cu 0.50329 0.47571 0.01429
 C25 C 0.45699 0.44188 -0.03651
 C26 C 0.51604 0.53896 0.04040
 C27 C 0.53481 0.52111 -0.03822
 C28 C 0.43705 0.45962 0.04001
 O29 O 0.49375 1.03902 -0.02558
 O30 O 0.53499 1.00773 0.03306
 O31 O 0.55549 1.04359 -0.02049
 O32 O 0.47400 1.00453 0.02871
 O33 O 0.45378 0.95521 0.00209
 O34 O 0.53481 0.99490 -0.04819
 O35 O 0.51524 0.95918 0.00523
 O36 O 0.47276 0.98954 -0.05211
 Cu37 Cu 0.51663 1.02867 0.00663
 Cu38 Cu 0.49212 0.96982 -0.02598
 C39 C 0.47622 1.01946 -0.04887
 C40 C 0.53191 0.97796 0.02912
 C41 C 0.55895 1.02610 -0.04294
 C42 C 0.45019 0.97312 0.02407
 O43 O 1.05229 0.55281 0.47862
 O44 O 1.03804 0.48641 0.53950
 O45 O 1.06124 0.49915 0.48026
 O46 O 1.03036 0.54064 0.53844
 O47 O 0.97538 0.50749 0.52168
 O48 O 1.00646 0.46603 0.46304
 O49 O 0.98332 0.45341 0.52205
 O50 O 0.99740 0.51971 0.46166
 Cu51 Cu 1.05099 0.52312 0.51086
 Cu52 Cu 0.98513 0.48346 0.49033
 C53 C 1.02727 0.54738 0.45960
 C54 C 1.00814 0.45864 0.54118
 C55 C 1.03925 0.47555 0.46174
 C56 C 0.99761 0.53080 0.54037
 O57 O 0.46797 0.51560 0.48286
 O58 O 0.54733 0.55250 0.53396
 O59 O 0.53303 0.56594 0.47632
 O60 O 0.48286 0.50108 0.53947
 O61 O 0.49885 0.46562 0.51769
 O62 O 0.54845 0.53009 0.45449
 O63 O 0.56312 0.51694 0.51207
 O64 O 0.48344 0.47972 0.46114
 Cu65 Cu 0.50632 0.53745 0.51030
 Cu66 Cu 0.52507 0.49456 0.48411
 C67 C 0.46221 0.49145 0.46325
 C68 C 0.56842 0.54063 0.53213
 C69 C 0.54886 0.55882 0.45440
 C70 C 0.48268 0.47242 0.53949
 O71 O 0.45798 0.00102 0.47252
 O72 O 0.53258 0.03221 0.52922
 O73 O 0.52028 0.00766 0.47064
 O74 O 0.47025 0.02685 0.53086
 O75 O 0.44842 -0.02585 0.55138
 O76 O 0.49669 -0.04586 0.48959
 O77 O 0.51034 -0.02115 0.54825
 O78 O 0.43481 -0.05173 0.49334
 Cu79 Cu 0.49752 0.02233 0.49895
 Cu80 Cu 0.47035 -0.04142 0.52275
 C81 C 0.43402 -0.03087 0.47298
 C82 C 0.53410 0.01071 0.54839
 C83 C 0.51630 -0.02262 0.46925
 C84 C 0.45116 0.00398 0.55162
 C85 C 0.12646 0.40519 0.24932
 C86 C 0.14625 0.41020 0.22103
 C87 C 0.17752 0.40858 0.22243
 C88 C 0.18819 0.39990 0.25131
 C89 C 0.16705 0.39357 0.27908
 C90 C 0.13668 0.39689 0.27853
 C91 C 0.22171 0.39837 0.25267
 C92 C 0.24195 0.40709 0.28111
 C93 C 0.27365 0.40621 0.28231
 C94 C 0.28627 0.39832 0.25423
 C95 C 0.26682 0.38986 0.22555
 C96 C 0.23436 0.38927 0.22518
 H97 H 0.10423 0.40955 0.24868
 H98 H 0.19364 0.41458 0.20087
 H99 H 0.17428 0.38636 0.30148
 H100 H 0.23359 0.41525 0.30236
 H101 H 0.31225 0.40086 0.25435
 H102 H 0.21925 0.38201 0.20311
 C103 C 0.57931 0.71766 0.24387
 C104 C 0.57118 0.73023 0.21601
 C105 C 0.57113 0.76177 0.21746
 C106 C 0.58088 0.78179 0.24582
 C107 C 0.59067 0.76947 0.27282
 C108 C 0.58893 0.73711 0.27250
 C109 C 0.57929 0.81457 0.24796
 C110 C 0.57012 0.82421 0.27722
 C111 C 0.56841 0.85478 0.27972
 C112 C 0.57414 0.87519 0.25209
 C113 C 0.58280 0.86588 0.22245
 C114 C 0.58587 0.83592 0.22079
 H115 H 0.57640 0.69207 0.24351
 H116 H 0.56276 0.77024 0.19651
 H117 H 0.59898 0.78472 0.29470
 H118 H 0.56369 0.80768 0.29824
 H119 H 0.57001 0.89718 0.25341
 H120 H 0.59317 0.82922 0.19805
 C121 C 0.29362 0.88206 0.24180
 C122 C 0.27426 0.86750 0.21350
 C123 C 0.24212 0.83583 0.21533
 C124 C 0.22997 0.81741 0.24470
 C125 C 0.25049 0.83237 0.27248
 C126 C 0.28141 0.86499 0.27147
 C127 C 0.19698 0.78222 0.24629
 C128 C 0.17852 0.76896 0.27567
 C129 C 0.14970 0.73495 0.27806
 C130 C 0.13742 0.71461 0.25013
 C131 C 0.15407 0.72778 0.22028
 C132 C 0.18441 0.76085 0.21879
 H133 H 0.31912 0.90560 0.24056
 H134 H 0.22702 0.82567 0.19349
 H135 H 0.24312 0.81859 0.29519
 H136 H 0.18657 0.78468 0.29720
 H137 H 0.11614 0.68795 0.25168
 H138 H 0.19826 0.76937 0.19600
 C139 C 0.87315 0.57516 0.75231
 C140 C 0.85393 0.56983 0.72378
 C141 C 0.82249 0.57119 0.72460
 C142 C 0.81090 0.57965 0.75313
 C143 C 0.83127 0.58606 0.78119
 C144 C 0.86183 0.58305 0.78125
 C145 C 0.77692 0.58034 0.75387
 C146 C 0.75585 0.57081 0.78196
 C147 C 0.72359 0.57061 0.78274
 C148 C 0.71119 0.57819 0.75446
 C149 C 0.73158 0.58752 0.72598
 C150 C 0.76464 0.58926 0.72620
 H151 H 0.89572 0.57128 0.75216
 H152 H 0.80687 0.56502 0.70288
 H153 H 0.82323 0.59299 0.80339
 H154 H 0.76406 0.56287 0.80335
 H155 H 0.68499 0.57509 0.75439
 H156 H 0.78056 0.59723 0.70442
 C157 C 0.40731 0.29584 0.74780
 C158 C 0.41486 0.28290 0.71983
 C159 C 0.41446 0.25120 0.72133
 C160 C 0.40507 0.23140 0.74991
 C161 C 0.39641 0.24438 0.77735
 C162 C 0.39798 0.27670 0.77667
 C163 C 0.40592 0.19817 0.75130
 C164 C 0.41517 0.18769 0.77993
 C165 C 0.41731 0.15726 0.78105
 C166 C 0.41197 0.13798 0.75273
 C167 C 0.40295 0.14798 0.72381
 C168 C 0.39917 0.17752 0.72357
 H169 H 0.41077 0.32165 0.74753
 H170 H 0.42243 0.24254 0.70017
 H171 H 0.38874 0.22960 0.79958
 H172 H 0.42147 0.20347 0.80140
 H173 H 0.41674 0.11635 0.75296
 H174 H 0.39147 0.18461 0.70136
 C175 C 0.71928 0.13144 0.74727
 C176 C 0.73238 0.15091 0.71884
 C177 C 0.76555 0.18136 0.71911
 C178 C 0.78691 0.19160 0.74688
 C179 C 0.77351 0.17103 0.77494
 C180 C 0.73958 0.14140 0.77550
 C181 C 0.82249 0.22413 0.74668
 C182 C 0.83646 0.24372 0.77499
 C183 C 0.86907 0.27493 0.77470
 C184 C 0.88787 0.28697 0.74551
 C185 C 0.87428 0.26826 0.71682
 C186 C 0.84217 0.23659 0.71787
 H187 H 0.69249 0.10963 0.74777
 H188 H 0.77428 0.19716 0.69752
 H189 H 0.78923 0.17792 0.79663
 H190 H 0.82156 0.23551 0.79732
 H191 H 0.91279 0.31102 0.74512
 H192 H 0.83251 0.22189 0.69582
 C193 C 0.01247 0.44066 0.07172
 C194 C 0.04797 0.44945 0.07411
 C195 C 0.06148 0.43690 0.10054
 C196 C 0.09740 0.45655 0.10895
 C197 C 0.11066 0.44684 0.13513
 C198 C 0.08820 0.41693 0.15323
 C199 C 0.05256 0.39673 0.14420
 C200 C 0.03934 0.40639 0.11802
 C201 C 0.10017 0.40705 0.18267
 C202 C 0.13566 0.41900 0.19017
 H203 H 0.06714 0.46881 0.05774
 H204 H 0.11505 0.48011 0.09582
 H205 H 0.13812 0.46349 0.14164
 H206 H 0.03474 0.37347 0.15763
 H207 H 0.01181 0.38985 0.11171
 H208 H 0.07982 0.38879 0.19893
 H209 H -0.00684 0.42313 0.08903
 H210 H 0.15613 0.43355 0.17245
 C211 C 0.53297 0.56667 0.06459
 C212 C 0.52372 0.59233 0.06883
 C213 C 0.53742 0.61783 0.09559
 C214 C 0.51779 0.63340 0.10562
 C215 C 0.52886 0.65622 0.13182
 C216 C 0.56017 0.66430 0.14833
 C217 C 0.58021 0.64937 0.13780
 C218 C 0.56918 0.62661 0.11162
 C219 C 0.57187 0.68653 0.17746
 C220 C 0.56038 0.70980 0.18576
 H221 H 0.50350 0.59196 0.05350
 H222 H 0.49328 0.62717 0.09367
 H223 H 0.51224 0.66657 0.13952
 H224 H 0.60450 0.65524 0.14998
 H225 H 0.58574 0.61615 0.10407
 H226 H 0.59136 0.68520 0.19253
 H227 H 0.55136 0.56505 0.08088
 H228 H 0.54449 0.71470 0.16895
 C229 C 0.41840 0.95672 0.04483
 C230 C 0.41351 0.97486 0.06997
 C231 C 0.38524 0.95876 0.09491
 C232 C 0.38098 0.98067 0.11660
 C233 C 0.35715 0.96688 0.14241
 C234 C 0.33685 0.93082 0.14711
 C235 C 0.34043 0.90873 0.12501
 C236 C 0.36435 0.92253 0.09920
 C237 C 0.31526 0.91747 0.17693
 C238 C 0.28878 0.88283 0.18138
 H239 H 0.43227 1.00242 0.07220
 H240 H 0.39682 1.00866 0.11404
 H241 H 0.35521 0.98451 0.15922
 H242 H 0.32612 0.88083 0.12829
 H243 H 0.36721 0.90459 0.08366
 H244 H 0.32135 0.93565 0.19652
 H245 H 0.39939 0.92965 0.04063
 H246 H 0.27901 0.86576 0.16073
 C247 C 0.98579 0.54626 0.56534
 C248 C 0.94999 0.53417 0.57172
 C249 C 0.93728 0.54547 0.59992
 C250 C 0.90222 0.52416 0.61060
 C251 C 0.88968 0.53280 0.63813
 C252 C 0.91196 0.56324 0.65540
 C253 C 0.94678 0.58488 0.64440
 C254 C 0.95927 0.57634 0.61681
 C255 C 0.90040 0.57242 0.68560
 C256 C 0.86494 0.56079 0.69320
 H257 H 0.93033 0.51337 0.55699
 H258 H 0.88471 0.50026 0.59806
 H259 H 0.86293 0.51505 0.64625
 H260 H 0.96441 0.60854 0.65722
 H261 H 0.98608 0.59412 0.60893
 H262 H 0.92081 0.59040 0.70175
 H263 H 1.00604 0.56569 0.58059
 H264 H 0.84474 0.54658 0.67538
 C265 C 0.46419 0.44732 0.56562
 C266 C 0.46745 0.41784 0.56944
 C267 C 0.45343 0.39438 0.59766
 C268 C 0.46950 0.37500 0.60624
 C269 C 0.45798 0.35338 0.63332
 C270 C 0.42952 0.35018 0.65214
 C271 C 0.41310 0.36921 0.64324
 C272 C 0.42479 0.39100 0.61624
 C273 C 0.41718 0.32858 0.68174
 C274 C 0.42564 0.30293 0.68928
 H275 H 0.48364 0.41336 0.55237
 H276 H 0.49167 0.37721 0.59234
 H277 H 0.47209 0.34003 0.63966
 H278 H 0.39113 0.36724 0.65728
 H279 H 0.41113 0.40483 0.60992
 H280 H 0.39979 0.33248 0.69773
 H281 H 0.45013 0.45374 0.58338
 H282 H 0.43930 0.29590 0.67165
 C283 C 0.56308 0.02240 0.57170
 C284 C 0.58868 0.05738 0.57545
 C285 C 0.61546 0.07001 0.60142
 C286 C 0.63090 0.10481 0.61124
 C287 C 0.65475 0.11721 0.63690
 C288 C 0.66391 0.09501 0.65303
 C289 C 0.64917 0.06049 0.64266
 C290 C 0.62546 0.04814 0.61698
 C291 C 0.68702 0.10619 0.68169
 C292 C 0.71102 0.14086 0.68906
 H293 H 0.58728 0.07656 0.56039
 H294 H 0.62374 0.12222 0.59961
 H295 H 0.66496 0.14379 0.64458
 H296 H 0.65594 0.04292 0.65458
 H297 H 0.61518 0.02150 0.60950
 H298 H 0.68585 0.08599 0.69714
 H299 H 0.56256 0.00291 0.58764
 H300 H 0.71595 0.16106 0.67181
 C301 C 0.45979 0.03111 0.92708
 C302 C 0.46543 0.06492 0.92623
 C303 C 0.45152 0.07734 0.90007
 C304 C 0.46965 0.11276 0.89189
 C305 C 0.45847 0.12495 0.86598
 C306 C 0.42851 0.10187 0.84803
 C307 C 0.40980 0.06665 0.85689
 C308 C 0.42097 0.05450 0.88273
 C309 C 0.41706 0.11285 0.81896
 C310 C 0.42742 0.14734 0.81156
 H311 H 0.48301 0.08362 0.94374
 H312 H 0.49319 0.13089 0.90496
 H313 H 0.47405 0.15216 0.85961
 H314 H 0.38653 0.04836 0.84359
 H315 H 0.40555 0.02724 0.88898
 H316 H 0.39886 0.09254 0.80297
 H317 H 0.44454 0.01287 0.90833
 H318 H 0.44181 0.16751 0.82912
 C319 C 0.56083 0.53689 0.93800
 C320 C 0.58848 0.52978 0.93417
 C321 C 0.61276 0.54184 0.90598
 C322 C 0.62876 0.52258 0.89647
 C323 C 0.65036 0.53194 0.86902
 C324 C 0.65689 0.56126 0.85073
 C325 C 0.64145 0.58091 0.86063
 C326 C 0.61979 0.57150 0.88804
 C327 C 0.67839 0.57137 0.82072
 C328 C 0.70260 0.56051 0.81303
 H329 H 0.59026 0.51182 0.95067
 H330 H 0.62374 0.49960 0.90985
 H331 H 0.66099 0.51556 0.86188
 H332 H 0.64613 0.60366 0.84706
 H333 H 0.60883 0.58763 0.89509
 H334 H 0.67610 0.58939 0.80475
 H335 H 0.55763 0.55330 0.92069
 H336 H 0.70829 0.54605 0.83061
 C337 C 0.94490 0.41194 0.94821
 C338 C 0.96460 0.41423 0.92076
 C339 C 0.94964 0.39090 0.89263
 C340 C 0.91913 0.35778 0.89478
 C341 C 0.90502 0.33741 0.86719
 C342 C 0.92134 0.34966 0.83694
 C343 C 0.95210 0.38245 0.83504
 C344 C 0.96622 0.40270 0.86257
 C345 C 0.90684 0.32992 0.80671
 C346 C 0.88262 0.29422 0.80535
 H347 H 0.99123 0.43624 0.91839
 H348 H 0.90601 0.34738 0.91761
 H349 H 0.88099 0.31258 0.86976
 H350 H 0.96523 0.39254 0.81208
 H351 H 0.98982 0.42805 0.86024
 H352 H 0.91612 0.34460 0.78454
 H353 H 0.91763 0.39136 0.95061
 H354 H 0.87257 0.27954 0.82744
 C355 C 0.53290 0.96977 0.44432
 C356 C 0.52704 0.93624 0.43884
 C357 C 0.53918 0.92653 0.40924
 C358 C 0.52041 0.89190 0.39877
 C359 C 0.52968 0.88197 0.37004
 C360 C 0.55844 0.90649 0.35136
 C361 C 0.57763 0.94099 0.36217
 C362 C 0.56832 0.95092 0.39088
 C363 C 0.56833 0.89747 0.32008
 C364 C 0.55865 0.86353 0.31117
 H365 H 0.50971 0.91545 0.45510
 H366 H 0.49782 0.87262 0.41243
 H367 H 0.51360 0.85533 0.36225
 H368 H 0.59996 0.96037 0.34832
 H369 H 0.58412 0.97764 0.39858
 H370 H 0.58532 0.91870 0.30413
 H371 H 0.54864 0.99037 0.42736
 H372 H 0.54546 0.84273 0.32857
 C373 C 0.43085 0.47766 0.44242
 C374 C 0.42307 0.45133 0.42010
 C375 C 0.39395 0.43891 0.39635
 C376 C 0.38364 0.40751 0.38031
 C377 C 0.35802 0.39588 0.35619
 C378 C 0.34208 0.41536 0.34748
 C379 C 0.35213 0.44674 0.36368
 C380 C 0.37780 0.45840 0.38786
 C381 C 0.31734 0.40338 0.31989
 C382 C 0.29456 0.41597 0.31241
 H383 H 0.43929 0.43915 0.41988
 H384 H 0.39581 0.39210 0.38615
 H385 H 0.35104 0.37177 0.34392
 H386 H 0.34132 0.46308 0.35706
 H387 H 0.38569 0.48326 0.39885
 H388 H 0.31701 0.38337 0.30474
 H389 H 0.41401 0.48897 0.44465
 H390 H 0.29092 0.43245 0.32934
 C391 C 0.03273 0.57272 0.43419
 C392 C 0.06508 0.60343 0.42984
 C393 C 0.07363 0.62718 0.40182
 C394 C 0.10924 0.65232 0.39615
 C395 C 0.11911 0.67366 0.36887
 C396 C 0.09341 0.67054 0.34666
 C397 C 0.05769 0.64613 0.35275
 C398 C 0.04779 0.62484 0.38011
 C399 C 0.10321 0.68995 0.31575
 C400 C 0.13564 0.72035 0.31051
 H401 H 0.08620 0.60915 0.44671
 H402 H 0.12973 0.65477 0.41240
 H403 H 0.14702 0.69150 0.36472
 H404 H 0.03738 0.64317 0.33602
 H405 H 0.01994 0.60657 0.38376
 H406 H 0.08428 0.67935 0.29633
 H407 H 0.01116 0.56561 0.41763
 H408 H 0.15225 0.73357 0.33097
 C409 C 0.94675 0.53266 0.95358
 C410 C 0.96670 0.55298 0.92735
 C411 C 0.95192 0.56396 0.90059
 C412 C 0.91527 0.55085 0.89683
 C413 C 0.90239 0.55963 0.86982
 C414 C 0.92575 0.58171 0.84585
 C415 C 0.96227 0.59507 0.84972
 C416 C 0.97520 0.58641 0.87683
 C417 C 0.91264 0.58857 0.81544
 C418 C 0.87892 0.58473 0.81251
 H419 H 0.99428 0.55985 0.92539
 H420 H 0.89607 0.53278 0.91384
 H421 H 0.87399 0.54776 0.86723
 H422 H 0.98082 0.61180 0.83145
 H423 H 1.00350 0.59670 0.87887
 H424 H 0.93009 0.59642 0.79467
 H425 H 0.91974 0.52684 0.95705
 H426 H 0.86368 0.58178 0.83415
 C427 C 0.44045 0.41297 0.94050
 C428 C 0.41935 0.41251 0.91515
 C429 C 0.40712 0.38617 0.88922
 C430 C 0.40270 0.35288 0.89408
 C431 C 0.39423 0.32982 0.86832
 C432 C 0.39001 0.33959 0.83714
 C433 C 0.39226 0.37199 0.83283
 C434 C 0.40067 0.39500 0.85860
 C435 C 0.38500 0.31790 0.80831
 C436 C 0.39351 0.29145 0.80720
 H437 H 0.41466 0.43414 0.91244
 H438 H 0.40584 0.34453 0.91769
 H439 H 0.39127 0.30461 0.87311
 H440 H 0.38872 0.38006 0.80918
 H441 H 0.40338 0.42028 0.85431
 H442 H 0.37739 0.32534 0.78625
 H443 H 0.44733 0.39280 0.94248
 H444 H 0.39931 0.28231 0.82917
 C445 C 0.58939 0.04201 0.93782
 C446 C 0.59478 0.02512 0.91180
 C447 C 0.62392 0.04247 0.88775
 C448 C 0.62739 0.02195 0.86387
 C449 C 0.65209 0.03727 0.83888
 C450 C 0.67414 0.07348 0.83724
 C451 C 0.67144 0.09408 0.86157
 C452 C 0.64663 0.07879 0.88652
 C453 C 0.69655 0.08896 0.80821
 C454 C 0.72445 0.12331 0.80649
 H455 H 0.57576 -0.00215 0.90796
 H456 H 0.61025 -0.00603 0.86404
 H457 H 0.65338 0.02081 0.82029
 H458 H 0.68718 0.12214 0.86071
 H459 H 0.64471 0.09589 0.90385
 H460 H 0.68979 0.07289 0.78688
 H461 H 0.60871 0.06869 0.94323
 H462 H 0.73488 0.13801 0.82846
 C463 C 0.05187 0.46058 0.43974
 C464 C 0.02988 0.43469 0.41807
 C465 C 0.04369 0.42114 0.39261
 C466 C 0.02316 0.40613 0.36507
 C467 C 0.03645 0.39559 0.33942
 C468 C 0.07049 0.39958 0.34078
 C469 C 0.09042 0.41314 0.36907
 C470 C 0.07705 0.42354 0.39475
 C471 C 0.08495 0.39193 0.31140
 C472 C 0.11842 0.39489 0.30942
 H473 H 0.00176 0.42590 0.41807
 H474 H -0.00281 0.40359 0.36292
 H475 H 0.02041 0.38518 0.31803
 H476 H 0.11670 0.41677 0.37152
 H477 H 0.09316 0.43365 0.41606
 H478 H 0.06893 0.38531 0.28993
 H479 H 0.08019 0.47067 0.43907
 H480 H 0.13286 0.39719 0.33121
 C481 C 0.56685 0.58328 0.42770
 C482 C 0.56640 0.61437 0.42499
 C483 C 0.57701 0.63618 0.39547
 C484 C 0.56582 0.66062 0.39223
 C485 C 0.57241 0.67982 0.36388
 C486 C 0.59086 0.67534 0.33813
 C487 C 0.60294 0.65161 0.34164
 C488 C 0.59638 0.63238 0.37008
 C489 C 0.59526 0.69285 0.30668
 C490 C 0.59370 0.72334 0.30347
 H491 H 0.55447 0.62141 0.44439
 H492 H 0.55079 0.66405 0.41132
 H493 H 0.56168 0.69704 0.36189
 H494 H 0.61716 0.64764 0.32215
 H495 H 0.60631 0.61453 0.37173
 H496 H 0.59931 0.68088 0.28564
 H497 H 0.57784 0.57487 0.40870
 H498 H 0.59454 0.73737 0.32508
 C499 C 0.40577 0.95523 0.44885
 C500 C 0.40676 0.97436 0.42185
 C501 C 0.38419 0.95812 0.39335
 C502 C 0.37772 0.97876 0.37202
 C503 C 0.35801 0.96437 0.34404
 C504 C 0.34452 0.92910 0.33676
 C505 C 0.35165 0.90860 0.35783
 C506 C 0.37117 0.92292 0.38581
 C507 C 0.32445 0.91490 0.30656
 C508 C 0.30141 0.87940 0.30165
 H509 H 0.42568 1.00199 0.42097
 H510 H 0.38802 1.00608 0.37699
 H511 H 0.35333 0.98086 0.32799
 H512 H 0.34317 0.88176 0.35246
 H513 H 0.37702 0.90655 0.40080
 H514 H 0.32662 0.93326 0.28830
 H515 H 0.38548 0.92815 0.45102
 H516 H 0.29579 0.86146 0.32139
 C517 C 0.54669 0.96405 0.05264
 C518 C 0.56105 0.98051 0.08186
 C519 C 0.57020 0.96400 0.10830
 C520 C 0.59166 0.98480 0.13353
 C521 C 0.59879 0.96980 0.15997
 C522 C 0.58467 0.93368 0.16171
 C523 C 0.56319 0.91283 0.13644
 C524 C 0.55602 0.92778 0.11009
 C525 C 0.59013 0.91829 0.19124
 C526 C 0.58551 0.88482 0.19222
 H527 H 0.56490 1.00627 0.08593
 H528 H 0.60255 1.01270 0.13300
 H529 H 0.61498 0.98641 0.17934
 H530 H 0.55056 0.88479 0.13744
 H531 H 0.53818 0.91054 0.09196
 H532 H 0.59769 0.93387 0.21290
 H533 H 0.54452 0.93928 0.04714
 H534 H 0.58300 0.87137 0.16980
 C535 C 0.40754 0.44161 0.06294
 C536 C 0.40773 0.42003 0.08725
 C537 C 0.38028 0.40541 0.11281
 C538 C 0.38932 0.39844 0.14314
 C539 C 0.36513 0.38785 0.16872
 C540 C 0.33137 0.38391 0.16446
 C541 C 0.32142 0.38847 0.13345
 C542 C 0.34566 0.39915 0.10790
 C543 C 0.30852 0.37718 0.19322
 C544 C 0.28161 0.38558 0.19480
 H545 H 0.43051 0.41651 0.08942
 H546 H 0.41564 0.40252 0.14740
 H547 H 0.37336 0.38409 0.19223
 H548 H 0.29517 0.38415 0.12870
 H549 H 0.33722 0.40264 0.08443
 H550 H 0.31591 0.36904 0.21497
 H551 H 0.38609 0.44718 0.06155
 H552 H 0.27264 0.39203 0.17305
 C553 C 0.01329 0.56298 0.07541
 C554 C 0.04871 0.58930 0.07718
 C555 C 0.06309 0.61435 0.10415
 C556 C 0.09951 0.63066 0.11063
 C557 C 0.11389 0.65309 0.13686
 C558 C 0.09207 0.65999 0.15696
 C559 C 0.05579 0.64426 0.15008
 C560 C 0.04143 0.62188 0.12384
 C561 C 0.10569 0.68203 0.18600
 C562 C 0.14137 0.70670 0.19061
 H563 H 0.06733 0.58972 0.05952
 H564 H 0.11678 0.62532 0.09582
 H565 H 0.14183 0.66406 0.14175
 H566 H 0.03844 0.64926 0.16513
 H567 H 0.01344 0.61075 0.11913
 H568 H 0.08646 0.67967 0.20394
 H569 H -0.00552 0.56062 0.09374
 H570 H 0.16019 0.71256 0.17117
 C571 C 0.43275 0.01217 0.57697
 C572 C 0.43536 0.04478 0.57883
 C573 C 0.42272 0.05693 0.60650
 C574 C 0.43403 0.09252 0.60853
 C575 C 0.42519 0.10591 0.63518
 C576 C 0.40440 0.08385 0.66040
 C577 C 0.39226 0.04812 0.65801
 C578 C 0.40107 0.03468 0.63131
 C579 C 0.39759 0.09756 0.69051
 C580 C 0.40098 0.13048 0.69281
 H581 H 0.44986 0.06351 0.55995
 H582 H 0.45075 0.11030 0.58986
 H583 H 0.43594 0.13372 0.63636
 H584 H 0.37628 0.03057 0.67714
 H585 H 0.39107 0.00701 0.63059
 H586 H 0.39024 0.08116 0.71170
 H587 H 0.41889 -0.00729 0.59533
 H588 H 0.40331 0.14472 0.67093
 C589 C 0.59864 0.55317 0.55425
 C590 C 0.60411 0.57689 0.57878
 C591 C 0.62887 0.58454 0.60603
 C592 C 0.62503 0.60099 0.63337
 C593 C 0.64550 0.60601 0.66079
 C594 C 0.67054 0.59498 0.66148
 C595 C 0.67531 0.57956 0.63369
 C596 C 0.65490 0.57464 0.60622
 C597 C 0.68886 0.59747 0.69225
 C598 C 0.71802 0.59253 0.69489
 H599 H 0.58693 0.58799 0.57976
 H600 H 0.60535 0.60907 0.63392
 H601 H 0.64115 0.61787 0.68182
 H602 H 0.69382 0.57011 0.63318
 H603 H 0.65946 0.56261 0.58554
 H604 H 0.67835 0.60290 0.71373
 H605 H 0.61461 0.54090 0.55267
 H606 H 0.73143 0.59166 0.67322
 C607 C 1.00210 0.43276 0.56622
 C608 C 0.96982 0.40162 0.56878
 C609 C 0.95957 0.37701 0.59623
 C610 C 0.92359 0.35210 0.60019
 C611 C 0.91194 0.32995 0.62689
 C612 C 0.93620 0.33190 0.65018
 C613 C 0.97235 0.35607 0.64573
 C614 C 0.98402 0.37829 0.61898
 C615 C 0.92443 0.31168 0.68062
 C616 C 0.89077 0.28249 0.68490
 H617 H 0.94974 0.39622 0.55084
 H618 H 0.90415 0.35052 0.58308
 H619 H 0.88376 0.31246 0.62969
 H620 H 0.99159 0.35818 0.66332
 H621 H 1.01208 0.39646 0.61656
 H622 H 0.94278 0.32106 0.70051
 H623 H 1.02278 0.43956 0.58374
 H624 H 0.87469 0.27035 0.66390
   
