data_POSCAR
  _audit_creation_date              2014-09-24
  _audit_creation_method            'ToBaCCo'
  _symmetry_space_group_name_H-M    'P1'
  _symmetry_Int_Tables_number       1
  _symmetry_cell_setting            triclinic
  loop_
  _symmetry_equiv_pos_as_xyz
 x,y,z
_cell_length_a 41.3682
_cell_length_b 41.4839
_cell_length_c 39.7656
_cell_angle_alpha 90.055800
_cell_angle_beta 89.871600
_cell_angle_gamma 89.980500
loop_
  _atom_site_label
  _atom_site_type_symbol
  _atom_site_fract_x
  _atom_site_fract_y
  _atom_site_fract_z
C1 C 0.29931 0.29363 0.23645
 H2 H 0.30090 0.29402 0.26360
 C3 C 0.31990 0.31294 0.21723
 H4 H 0.33736 0.32838 0.22957
 C5 C 0.27475 0.27292 0.18710
 H6 H 0.25746 0.25700 0.17541
 C7 C 0.29490 0.29184 0.16694
 H8 H 0.29281 0.29069 0.13982
 N9 N 0.27698 0.27449 0.22122
 C10 C 0.20096 0.26129 0.29623
 H11 H 0.19955 0.23526 0.29691
 C12 C 0.18030 0.27976 0.31634
 H13 H 0.16298 0.26797 0.33268
 C14 C 0.22500 0.30858 0.27389
 H15 H 0.24207 0.31976 0.25698
 C16 C 0.20479 0.32793 0.29356
 H17 H 0.20662 0.35394 0.29199
 Zn18 Zn 0.25000 0.24916 0.24922
 N19 N 0.22304 0.27587 0.27589
 C20 C 0.27557 0.22557 0.31092
 N21 N 0.27732 0.22383 0.27677
 C22 C 0.29945 0.20463 0.26119
 C23 C 0.32036 0.18545 0.28010
 C24 C 0.29606 0.20679 0.33077
 C25 C 0.20036 0.23712 0.20314
 C26 C 0.17941 0.21871 0.18342
 C27 C 0.20417 0.17047 0.20565
 C28 C 0.22467 0.18977 0.22495
 N29 N 0.22271 0.22248 0.22303
 H30 H 0.25844 0.24154 0.32287
 H31 H 0.30067 0.20412 0.23402
 H32 H 0.33770 0.17000 0.26750
 H33 H 0.29439 0.20812 0.35793
 H34 H 0.19896 0.26316 0.20253
 H35 H 0.16188 0.23055 0.16744
 H36 H 0.20600 0.14446 0.20715
 H37 H 0.24196 0.17855 0.24151
 C38 C 0.18235 0.31338 0.31507
 C39 C 0.31754 0.31215 0.18217
 C40 C 0.18145 0.18509 0.18461
 C41 C 0.31854 0.18646 0.31520
 C42 C 0.79987 0.79496 0.23681
 H43 H 0.80154 0.79538 0.26395
 C44 C 0.82030 0.81437 0.21751
 H45 H 0.83770 0.82989 0.22985
 C46 C 0.77527 0.77406 0.18757
 H47 H 0.75802 0.75803 0.17597
 C48 C 0.79525 0.79307 0.16731
 H49 H 0.79301 0.79180 0.14019
 N50 N 0.77760 0.77569 0.22168
 C51 C 0.70181 0.76223 0.29689
 H52 H 0.70051 0.73619 0.29758
 C53 C 0.68110 0.78061 0.31702
 H54 H 0.66385 0.76876 0.33339
 C55 C 0.72561 0.80961 0.27449
 H56 H 0.74261 0.82086 0.25754
 C57 C 0.70534 0.82888 0.29418
 H58 H 0.70705 0.85490 0.29258
 Zn59 Zn 0.75081 0.75027 0.24980
 N60 N 0.72380 0.77690 0.27651
 C61 C 0.77653 0.72673 0.31146
 N62 N 0.77828 0.72506 0.27731
 C63 C 0.80043 0.70590 0.26169
 C64 C 0.82131 0.68666 0.28056
 C65 C 0.79698 0.70788 0.33127
 C66 C 0.70109 0.73790 0.20386
 C67 C 0.68013 0.71933 0.18432
 C68 C 0.70511 0.67128 0.20671
 C69 C 0.72562 0.69073 0.22582
 N70 N 0.72355 0.72343 0.22375
 H71 H 0.75937 0.74266 0.32344
 H72 H 0.80164 0.70544 0.23451
 H73 H 0.83863 0.67120 0.26793
 H74 H 0.79527 0.70911 0.35843
 H75 H 0.69960 0.76393 0.20313
 H76 H 0.66249 0.73103 0.16836
 H77 H 0.70701 0.64528 0.20837
 H78 H 0.74300 0.67963 0.24239
 C79 C 0.68300 0.81424 0.31572
 C80 C 0.81784 0.81354 0.18243
 C81 C 0.68226 0.68572 0.18570
 C82 C 0.81944 0.68755 0.31566
 C83 C 0.80068 0.29327 0.73803
 H84 H 0.80233 0.29368 0.76518
 C85 C 0.82124 0.31256 0.71875
 H86 H 0.83874 0.32799 0.73104
 C87 C 0.77598 0.27258 0.68875
 H88 H 0.75862 0.25669 0.67711
 C89 C 0.79609 0.29148 0.66854
 H90 H 0.79392 0.29033 0.64142
 N91 N 0.77827 0.27417 0.72286
 C92 C 0.70216 0.26162 0.79792
 H93 H 0.70062 0.23560 0.79877
 C94 C 0.68155 0.28032 0.81785
 H95 H 0.66413 0.26872 0.83423
 C96 C 0.72644 0.30865 0.77527
 H97 H 0.74358 0.31965 0.75830
 C98 C 0.70629 0.32822 0.79476
 H99 H 0.70824 0.35421 0.79298
 Zn100 Zn 0.75118 0.24902 0.75094
 N101 N 0.72433 0.27597 0.77750
 C102 C 0.77655 0.22530 0.81269
 N103 N 0.77835 0.22360 0.77855
 C104 C 0.80040 0.20430 0.76299
 C105 C 0.82117 0.18495 0.78188
 C106 C 0.79686 0.20637 0.83258
 C107 C 0.70150 0.23711 0.70485
 C108 C 0.68056 0.21875 0.68507
 C109 C 0.70513 0.17046 0.70738
 C110 C 0.72562 0.18970 0.72673
 N111 N 0.72377 0.22242 0.72479
 H112 H 0.75947 0.24136 0.82462
 H113 H 0.80166 0.20382 0.73581
 H114 H 0.83839 0.16944 0.76914
 H115 H 0.79502 0.20776 0.85975
 H116 H 0.70019 0.26315 0.70422
 H117 H 0.66311 0.23064 0.66903
 H118 H 0.70690 0.14444 0.70888
 H119 H 0.74286 0.17843 0.74333
 C120 C 0.68375 0.31392 0.81632
 C121 C 0.81878 0.31178 0.68370
 C122 C 0.68251 0.18512 0.68626
 C123 C 0.81928 0.18587 0.81703
 C124 C 0.29898 0.79474 0.73767
 H125 H 0.30051 0.79515 0.76482
 C126 C 0.31955 0.81412 0.71849
 H127 H 0.33691 0.82963 0.73086
 C128 C 0.27466 0.77387 0.68826
 H129 H 0.25747 0.75786 0.67654
 C130 C 0.29478 0.79286 0.66815
 H131 H 0.29278 0.79166 0.64102
 N132 N 0.27679 0.77548 0.72239
 C133 C 0.20068 0.76185 0.79724
 H134 H 0.19943 0.73581 0.79793
 C135 C 0.17984 0.78021 0.81725
 H136 H 0.16253 0.76833 0.83353
 C137 C 0.22449 0.80926 0.77493
 H138 H 0.24154 0.82054 0.75805
 C139 C 0.20409 0.82851 0.79450
 H140 H 0.20575 0.85452 0.79289
 Zn141 Zn 0.24989 0.74999 0.75032
 N142 N 0.22273 0.77655 0.77695
 C143 C 0.27544 0.72632 0.81202
 N144 N 0.27729 0.72476 0.77787
 C145 C 0.29956 0.70575 0.76226
 C146 C 0.32051 0.68657 0.78112
 C147 C 0.29596 0.70754 0.83183
 C148 C 0.20042 0.73771 0.70409
 C149 C 0.17966 0.71919 0.68428
 C150 C 0.20463 0.67108 0.70656
 C151 C 0.22495 0.69049 0.72594
 N152 N 0.22279 0.72319 0.72404
 H153 H 0.25818 0.74215 0.82400
 H154 H 0.30085 0.70537 0.73508
 H155 H 0.33795 0.67126 0.76849
 H156 H 0.29420 0.70871 0.85899
 H157 H 0.19887 0.76374 0.70349
 H158 H 0.16210 0.73093 0.66825
 H159 H 0.20662 0.64508 0.70804
 H160 H 0.24226 0.67935 0.74255
 C161 C 0.18167 0.81384 0.81593
 C162 C 0.31730 0.81327 0.68342
 C163 C 0.18190 0.68557 0.68545
 C164 C 0.31858 0.68739 0.81622
 C165 C 0.04285 0.04955 0.01207
 H166 H 0.04330 0.05094 -0.01510
 C167 C 0.06223 0.07018 0.03109
 H168 H 0.07741 0.08758 0.01834
 C169 C 0.02179 0.02564 0.06157
 H170 H 0.00577 0.00850 0.07339
 C171 C 0.04073 0.04584 0.08157
 H172 H 0.03952 0.04351 0.10866
 N173 N 0.02353 0.02751 0.02746
 C174 C 0.01070 -0.04899 -0.04669
 H175 H -0.01540 -0.05035 -0.04755
 C176 C 0.02933 -0.06988 -0.06633
 H177 H 0.01735 -0.08743 -0.08215
 C178 C 0.05792 -0.02502 -0.02416
 H179 H 0.06902 -0.00781 -0.00741
 C180 C 0.07746 -0.04547 -0.04332
 H181 H 0.10348 -0.04322 -0.04157
 Zn182 Zn -0.00176 0.00040 -0.00035
 N183 N 0.02517 -0.02684 -0.02648
 C184 C -0.02499 0.02532 -0.06248
 N185 N -0.02689 0.02741 -0.02839
 C186 C -0.04616 0.04968 -0.01322
 C187 C -0.06524 0.07038 -0.03245
 C188 C -0.04367 0.04554 -0.08269
 C189 C -0.01433 -0.04859 0.04624
 C190 C -0.03298 -0.06924 0.06606
 C191 C -0.08109 -0.04461 0.04325
 C192 C -0.06152 -0.02445 0.02385
 N193 N -0.02877 -0.02647 0.02600
 H194 H -0.00888 0.00812 -0.07413
 H195 H -0.04687 0.05113 0.01394
 H196 H -0.08095 0.08744 -0.01984
 H197 H -0.04169 0.04363 -0.10977
 H198 H 0.01177 -0.05000 0.04709
 H199 H -0.02101 -0.08623 0.08252
 H200 H -0.10711 -0.04279 0.04099
 H201 H -0.07259 -0.00740 0.00692
 C202 C 0.06321 -0.06820 -0.06487
 C203 C 0.06147 0.06835 0.06635
 C204 C -0.06686 -0.06730 0.06484
 C205 C -0.06428 0.06835 -0.06770
 C206 C 0.04471 0.54912 0.51246
 H207 H 0.04522 0.55050 0.48529
 C208 C 0.06397 0.56981 0.53152
 H209 H 0.07913 0.58726 0.51881
 C210 C 0.02356 0.52520 0.56191
 H211 H 0.00753 0.50804 0.57369
 C212 C 0.04238 0.54546 0.58196
 H213 H 0.04109 0.54316 0.60904
 N214 N 0.02538 0.52706 0.52781
 C215 C 0.01242 0.45064 0.45360
 H216 H -0.01369 0.44927 0.45286
 C217 C 0.03096 0.42979 0.43384
 H218 H 0.01892 0.41225 0.41805
 C219 C 0.05973 0.47460 0.47592
 H220 H 0.07089 0.49181 0.49263
 C221 C 0.07919 0.45419 0.45664
 H222 H 0.10522 0.45645 0.45824
 Zn223 Zn 0.00009 0.49997 0.49997
 N224 N 0.02697 0.47277 0.47376
 C225 C -0.02310 0.52498 0.43788
 N226 N -0.02505 0.52701 0.47197
 C227 C -0.04433 0.54926 0.48716
 C228 C -0.06338 0.57000 0.46794
 C229 C -0.04175 0.54524 0.41769
 C230 C -0.01242 0.45092 0.54648
 C231 C -0.03103 0.43023 0.56630
 C232 C -0.07918 0.45487 0.54359
 C233 C -0.05964 0.47508 0.52420
 N234 N -0.02689 0.47307 0.52631
 H235 H -0.00697 0.50781 0.42622
 H236 H -0.04507 0.55066 0.51432
 H237 H -0.07911 0.58704 0.48055
 H238 H -0.03972 0.54338 0.39061
 H239 H 0.01368 0.44952 0.54731
 H240 H -0.01903 0.41323 0.58271
 H241 H -0.10520 0.45668 0.54138
 H242 H -0.07075 0.49215 0.50731
 C243 C 0.06485 0.43149 0.43511
 C244 C 0.06309 0.56803 0.56678
 C245 C -0.06491 0.43216 0.56513
 C246 C -0.06237 0.56803 0.43269
 C247 C 0.54479 0.04964 0.51290
 H248 H 0.54539 0.05101 0.48574
 C249 C 0.56408 0.07026 0.53202
 H250 H 0.57935 0.08765 0.51935
 C251 C 0.52343 0.02580 0.56230
 H252 H 0.50733 0.00869 0.57404
 C253 C 0.54228 0.04599 0.58239
 H254 H 0.54091 0.04369 0.60948
 N255 N 0.52536 0.02764 0.52820
 C256 C 0.51257 -0.04889 0.45406
 H257 H 0.48647 -0.05024 0.45323
 C258 C 0.53117 -0.06974 0.43436
 H259 H 0.51917 -0.08727 0.41853
 C260 C 0.55982 -0.02492 0.47652
 H261 H 0.57094 -0.00770 0.49325
 C262 C 0.57934 -0.04534 0.45730
 H263 H 0.60536 -0.04308 0.45898
 Zn264 Zn 0.50013 0.00055 0.50029
 N265 N 0.52707 -0.02674 0.47425
 C266 C 0.47711 0.02539 0.43806
 N267 N 0.47512 0.02757 0.47214
 C268 C 0.45581 0.04986 0.48721
 C269 C 0.43671 0.07046 0.46788
 C270 C 0.45842 0.04551 0.41776
 C271 C 0.48728 -0.04839 0.54689
 C272 C 0.46850 -0.06897 0.56666
 C273 C 0.42055 -0.04427 0.54359
 C274 C 0.44024 -0.02418 0.52424
 N275 N 0.47298 -0.02626 0.52656
 H276 H 0.49327 0.00819 0.42650
 H277 H 0.45503 0.05137 0.51436
 H278 H 0.42093 0.08751 0.48039
 H279 H 0.46044 0.04351 0.39069
 H280 H 0.51337 -0.04985 0.54787
 H281 H 0.48037 -0.08596 0.58320
 H282 H 0.39455 -0.04240 0.54121
 H283 H 0.42927 -0.00714 0.50724
 C284 C 0.56505 -0.06804 0.43573
 C285 C 0.56312 0.06847 0.56728
 C286 C 0.43464 -0.06695 0.56529
 C287 C 0.43772 0.06830 0.43264
 C288 C 0.54464 0.54965 0.01337
 H289 H 0.54550 0.55113 -0.01378
 C290 C 0.56372 0.57023 0.03277
 H291 H 0.57957 0.58723 0.02031
 C292 C 0.52316 0.52531 0.06244
 H293 H 0.50694 0.50816 0.07395
 C294 C 0.54183 0.54541 0.08281
 H295 H 0.53974 0.54346 0.10987
 N296 N 0.52524 0.52743 0.02837
 C297 C 0.51321 0.45147 -0.04655
 H298 H 0.48711 0.45009 -0.04768
 C299 C 0.53203 0.43088 -0.06632
 H300 H 0.52021 0.41396 -0.08300
 C301 C 0.56019 0.47550 -0.02357
 H302 H 0.57112 0.49249 -0.00645
 C303 C 0.57993 0.45539 -0.04290
 H304 H 0.60592 0.45720 -0.04039
 Zn305 Zn 0.50027 0.50046 0.00010
 N306 N 0.52746 0.47353 -0.02607
 C307 C 0.47734 0.52576 -0.06199
 N308 N 0.47525 0.52762 -0.02790
 C309 C 0.45581 0.54970 -0.01267
 C310 C 0.43670 0.57041 -0.03185
 C311 C 0.45864 0.54600 -0.08215
 C312 C 0.48743 0.45113 0.04625
 C313 C 0.46865 0.43038 0.06584
 C314 C 0.42070 0.45502 0.04269
 C315 C 0.44039 0.47528 0.02354
 N316 N 0.47313 0.47332 0.02600
 H317 H 0.49359 0.50871 -0.07367
 H318 H 0.45495 0.55096 0.01450
 H319 H 0.42083 0.58730 -0.01921
 H320 H 0.46075 0.54427 -0.10923
 H321 H 0.51353 0.44977 0.04735
 H322 H 0.48051 0.41336 0.08234
 H323 H 0.39470 0.45682 0.04022
 H324 H 0.42943 0.49238 0.00660
 C325 C 0.56590 0.43281 -0.06478
 C326 C 0.56262 0.56813 0.06800
 C327 C 0.43478 0.43230 0.06434
 C328 C 0.43783 0.56859 -0.06711
 C329 C 0.12284 -0.13017 -0.12565
 C330 C 0.13147 -0.12353 -0.09235
 C331 C 0.11200 -0.10356 -0.07250
 C332 C 0.16068 -0.16670 -0.16349
 C333 C 0.07500 -0.09695 -0.11917
 C334 C 0.09453 -0.11692 -0.13899
 C335 C 0.14331 -0.15017 -0.14624
 C336 C 0.08358 -0.08994 -0.08573
 H337 H 0.15331 -0.13373 -0.08175
 H338 H 0.11903 -0.09899 -0.04673
 H339 H 0.05350 -0.08652 -0.13021
 H340 H 0.08769 -0.12180 -0.16478
 C341 C 0.12410 0.36958 0.37387
 C342 C 0.09573 0.38289 0.36073
 C343 C 0.07633 0.40285 0.38069
 C344 C 0.16158 0.33294 0.33577
 C345 C 0.11361 0.39616 0.42711
 C346 C 0.13294 0.37618 0.40711
 C347 C 0.14439 0.34954 0.35314
 C348 C 0.08512 0.40981 0.41409
 H349 H 0.08872 0.37803 0.33498
 H350 H 0.05478 0.41331 0.36980
 H351 H 0.12079 0.40069 0.45285
 H352 H 0.15483 0.36595 0.41756
 C353 C 0.62452 -0.12979 0.37453
 C354 C 0.59616 -0.11650 0.36134
 C355 C 0.57668 -0.09660 0.38129
 C356 C 0.66215 -0.16628 0.33644
 C357 C 0.61386 -0.10332 0.42780
 C358 C 0.63327 -0.12323 0.40781
 C359 C 0.64489 -0.14975 0.35380
 C360 C 0.58538 -0.08968 0.41473
 H361 H 0.58922 -0.12133 0.33557
 H362 H 0.55515 -0.08615 0.37037
 H363 H 0.62098 -0.09882 0.45356
 H364 H 0.65515 -0.13345 0.41829
 C365 C 0.62569 0.37118 -0.12578
 C366 C 0.59773 0.35891 -0.11062
 C367 C 0.57822 0.37891 -0.09080
 C368 C 0.66300 0.33376 -0.16322
 C369 C 0.61465 0.42357 -0.10126
 C370 C 0.63408 0.40354 -0.12107
 C371 C 0.64586 0.35066 -0.14613
 C372 C 0.58649 0.41149 -0.08587
 H373 H 0.59106 0.33387 -0.11403
 H374 H 0.55693 0.36879 -0.07897
 H375 H 0.62143 0.44862 -0.09834
 H376 H 0.65563 0.41331 -0.13277
 C377 C -0.12410 0.13012 -0.12812
 C378 C -0.10878 0.14236 -0.09948
 C379 C -0.08923 0.12235 -0.07988
 C380 C -0.16183 0.16760 -0.16481
 C381 C -0.10016 0.07775 -0.11761
 C382 C -0.11971 0.09781 -0.13715
 C383 C -0.14454 0.15060 -0.14808
 C384 C -0.08473 0.08978 -0.08869
 H385 H -0.11196 0.16737 -0.09230
 H386 H -0.07735 0.13243 -0.05803
 H387 H -0.09755 0.05271 -0.12481
 H388 H -0.13155 0.08806 -0.15921
 C389 C -0.12201 0.62994 0.37225
 C390 C -0.10673 0.64213 0.40094
 C391 C -0.08724 0.62206 0.42055
 C392 C -0.15971 0.66747 0.33559
 C393 C -0.09815 0.57754 0.38273
 C394 C -0.11764 0.59764 0.36318
 C395 C -0.14243 0.65046 0.35230
 C396 C -0.08277 0.58950 0.41170
 H397 H -0.10990 0.66713 0.40815
 H398 H -0.07540 0.63210 0.44244
 H399 H -0.09555 0.55250 0.37550
 H400 H -0.12946 0.58793 0.34109
 C401 C 0.37756 0.12949 0.37195
 C402 C 0.39284 0.14194 0.40050
 C403 C 0.41252 0.12212 0.42019
 C404 C 0.33953 0.16657 0.33518
 C405 C 0.40180 0.07730 0.38269
 C406 C 0.38212 0.09716 0.36306
 C407 C 0.35696 0.14975 0.35193
 C408 C 0.41717 0.08954 0.41154
 H409 H 0.38952 0.16696 0.40757
 H410 H 0.42434 0.13236 0.44199
 H411 H 0.40453 0.05224 0.37562
 H412 H 0.37031 0.08724 0.34107
 C413 C 0.37763 0.63016 -0.12734
 C414 C 0.38232 0.59794 -0.13655
 C415 C 0.40202 0.57796 -0.11707
 C416 C 0.33957 0.66744 -0.16387
 C417 C 0.41248 0.62245 -0.07907
 C418 C 0.39279 0.64239 -0.09861
 C419 C 0.35701 0.65054 -0.14720
 C420 C 0.41728 0.58997 -0.08805
 H421 H 0.37061 0.58819 -0.15868
 H422 H 0.40486 0.55297 -0.12440
 H423 H 0.42422 0.63252 -0.05713
 H424 H 0.38937 0.66733 -0.09129
 C425 C -0.12605 -0.12941 0.12578
 C426 C -0.13457 -0.09704 0.12143
 C427 C -0.11533 -0.07684 0.10164
 C428 C -0.16288 -0.16729 0.16315
 C429 C -0.07887 -0.12137 0.09048
 C430 C -0.09818 -0.14153 0.11028
 C431 C -0.14599 -0.15013 0.14610
 C432 C -0.08726 -0.08878 0.08591
 H433 H -0.15605 -0.08738 0.13340
 H434 H -0.12219 -0.05179 0.09899
 H435 H -0.05765 -0.13138 0.07838
 H436 H -0.09142 -0.16658 0.11341
 C437 C -0.12399 0.36993 0.62605
 C438 C -0.13252 0.40231 0.62177
 C439 C -0.11332 0.42254 0.60198
 C440 C -0.16080 0.33200 0.66337
 C441 C -0.07686 0.37805 0.59069
 C442 C -0.09613 0.35784 0.61048
 C443 C -0.14391 0.34918 0.64635
 C444 C -0.08527 0.41064 0.58619
 H445 H -0.15399 0.41194 0.63378
 H446 H -0.12020 0.44760 0.59938
 H447 H -0.05566 0.36806 0.57853
 H448 H -0.08936 0.33279 0.61355
 C449 C 0.37500 -0.12880 0.62603
 C450 C 0.36660 -0.09641 0.62160
 C451 C 0.38599 -0.07629 0.60188
 C452 C 0.33785 -0.16654 0.66319
 C453 C 0.42237 -0.12094 0.59097
 C454 C 0.40291 -0.14102 0.61069
 C455 C 0.35488 -0.14944 0.64624
 C456 C 0.41410 -0.08833 0.58631
 H457 H 0.34510 -0.08667 0.63344
 H458 H 0.37922 -0.05122 0.59917
 H459 H 0.44361 -0.13103 0.57897
 H460 H 0.40958 -0.16609 0.61388
 C461 C 0.37517 0.37016 0.12479
 C462 C 0.40314 0.35803 0.10948
 C463 C 0.42258 0.37820 0.08983
 C464 C 0.33808 0.33232 0.16191
 C465 C 0.38607 0.42273 0.10076
 C466 C 0.36670 0.40253 0.12040
 C467 C 0.35509 0.34945 0.14497
 C468 C 0.41424 0.41080 0.08523
 H469 H 0.40988 0.33298 0.11264
 H470 H 0.44388 0.36820 0.07788
 H471 H 0.37924 0.44779 0.09809
 H472 H 0.34514 0.41219 0.13222
 C473 C 0.12230 0.12921 0.12675
 C474 C 0.13419 0.11576 0.09691
 C475 C 0.11438 0.09610 0.07719
 C476 C 0.16037 0.16559 0.16428
 C477 C 0.07060 0.10333 0.11711
 C478 C 0.09046 0.12301 0.13678
 C479 C 0.14291 0.14910 0.14720
 C480 C 0.08236 0.08960 0.08710
 H481 H 0.15884 0.12031 0.08897
 H482 H 0.12428 0.08555 0.05448
 H483 H 0.04595 0.09912 0.12519
 H484 H 0.08099 0.13335 0.15981
 C485 C 0.12333 0.62932 0.62735
 C486 C 0.09147 0.62297 0.63723
 C487 C 0.07181 0.60315 0.61751
 C488 C 0.16102 0.66596 0.66502
 C489 C 0.11581 0.59607 0.57782
 C490 C 0.13542 0.61587 0.59759
 C491 C 0.14373 0.64935 0.64786
 C492 C 0.08378 0.58942 0.58759
 H493 H 0.08184 0.63332 0.66019
 H494 H 0.04714 0.59883 0.62548
 H495 H 0.12587 0.58552 0.55518
 H496 H 0.16009 0.62053 0.58978
 C497 C 0.62361 0.12935 0.62803
 C498 C 0.59170 0.12318 0.63785
 C499 C 0.57195 0.10350 0.61805
 C500 C 0.66150 0.16568 0.66581
 C501 C 0.61597 0.09622 0.57843
 C502 C 0.63567 0.11587 0.59827
 C503 C 0.64411 0.14921 0.64862
 C504 C 0.58388 0.08974 0.58813
 H505 H 0.58210 0.13354 0.66081
 H506 H 0.54725 0.09931 0.62598
 H507 H 0.62601 0.08564 0.55580
 H508 H 0.66038 0.12040 0.59050
 C509 C 0.62287 0.62916 0.12883
 C510 C 0.61821 0.59686 0.13768
 C511 C 0.59849 0.57706 0.11802
 C512 C 0.66111 0.66604 0.16565
 C513 C 0.58792 0.62189 0.08056
 C514 C 0.60764 0.64165 0.10028
 C515 C 0.64357 0.64934 0.14886
 C516 C 0.58317 0.58933 0.08917
 H517 H 0.62998 0.58692 0.15966
 H518 H 0.59567 0.55201 0.12506
 H519 H 0.57614 0.63215 0.05876
 H520 H 0.61104 0.66665 0.09325
   
