data_POSCAR
  _audit_creation_date              2014-09-24
  _audit_creation_method            'ToBaCCo'
  _symmetry_space_group_name_H-M    'P1'
  _symmetry_Int_Tables_number       1
  _symmetry_cell_setting            triclinic
  loop_
  _symmetry_equiv_pos_as_xyz
 x,y,z
_cell_length_a 30.5099
_cell_length_b 37.4777
_cell_length_c 29.1910
_cell_angle_alpha 90.082500
_cell_angle_beta 89.688100
_cell_angle_gamma 89.952100
loop_
  _atom_site_label
  _atom_site_type_symbol
  _atom_site_fract_x
  _atom_site_fract_y
  _atom_site_fract_z
O1 O 0.23114 0.29111 0.20214
 O2 O 0.30554 0.22283 0.24748
 O3 O 0.24241 0.22308 0.18795
 O4 O 0.29186 0.29027 0.26441
 O5 O 0.24287 0.27725 0.31781
 O6 O 0.19423 0.20987 0.24198
 O7 O 0.25767 0.21012 0.30209
 O8 O 0.18233 0.27816 0.25571
 Cu9 Cu 0.27259 0.25813 0.22010
 Cu10 Cu 0.21434 0.24241 0.28468
 C11 C 0.19417 0.29639 0.22113
 C12 C 0.29456 0.20506 0.28264
 C13 C 0.20983 0.20498 0.20203
 C14 C 0.27561 0.29519 0.30414
 O15 O 0.82953 0.28925 0.26201
 O16 O 0.78147 0.21860 0.33529
 O17 O 0.83840 0.22079 0.26741
 O18 O 0.77777 0.28823 0.33282
 O19 O 0.72143 0.28291 0.28607
 O20 O 0.78319 0.21532 0.21925
 O21 O 0.72645 0.21378 0.28696
 O22 O 0.77295 0.28448 0.21544
 Cu23 Cu 0.81233 0.25451 0.30425
 Cu24 Cu 0.74547 0.24840 0.24716
 C25 C 0.80888 0.29901 0.22640
 C26 C 0.74528 0.20446 0.32368
 C27 C 0.82175 0.20706 0.23188
 C28 C 0.73959 0.29733 0.32059
 O29 O 0.70187 0.70859 0.73525
 O30 O 0.75028 0.77724 0.80970
 O31 O 0.68871 0.77659 0.74893
 O32 O 0.76351 0.70928 0.79654
 O33 O 0.81171 0.72076 0.74184
 O34 O 0.73758 0.78923 0.69527
 O35 O 0.80023 0.78856 0.75662
 O36 O 0.75008 0.72135 0.68099
 Cu37 Cu 0.72119 0.74165 0.77799
 Cu38 Cu 0.77976 0.75636 0.71326
 C39 C 0.71769 0.70329 0.69545
 C40 C 0.78374 0.79433 0.79601
 C41 C 0.70043 0.79441 0.71405
 C42 C 0.80027 0.70339 0.77723
 O43 O 0.27613 0.79052 0.70617
 O44 O 0.22795 0.72038 0.77740
 O45 O 0.28021 0.72128 0.70740
 O46 O 0.21835 0.78956 0.77289
 O47 O 0.16440 0.78539 0.72307
 O48 O 0.22452 0.71643 0.65974
 O49 O 0.17164 0.71625 0.73041
 O50 O 0.22195 0.78572 0.65673
 Cu51 Cu 0.25610 0.75607 0.74587
 Cu52 Cu 0.19007 0.75051 0.68773
 C53 C 0.25796 0.79973 0.66904
 C54 C 0.19187 0.70626 0.76621
 C55 C 0.26251 0.70718 0.67241
 C56 C 0.18068 0.79911 0.75881
 C57 C 1.01955 0.01392 0.04493
 C58 C 0.97341 0.01143 0.04081
 C59 C 0.95543 -0.01493 0.01242
 C60 C 0.98204 -0.03791 -0.01395
 C61 C 1.02823 -0.03477 -0.01044
 C62 C 1.04618 -0.00947 0.01944
 H63 H 1.08148 -0.00837 0.02324
 H64 H 0.92014 -0.01760 0.01165
 C65 C 0.52068 0.51356 0.54216
 C66 C 0.47472 0.51723 0.53796
 C67 C 0.45254 0.49640 0.50543
 C68 C 0.47509 0.47233 0.47692
 C69 C 0.52101 0.46844 0.48129
 C70 C 0.54317 0.48913 0.51406
 H71 H 0.57797 0.48553 0.51921
 H72 H 0.41738 0.49901 0.50197
 C73 C -0.01478 0.47626 0.02780
 C74 C 0.03091 0.48058 0.02086
 C75 C 0.04611 0.50753 -0.00848
 C76 C 0.01705 0.53090 -0.03071
 C77 C -0.02862 0.52665 -0.02350
 C78 C -0.04379 0.49965 0.00567
 H79 H -0.07884 0.49612 0.00949
 H80 H 0.08116 0.51101 -0.01243
 C81 C 0.48112 0.97664 0.52421
 C82 C 0.52709 0.97512 0.51736
 C83 C 0.54792 1.00141 0.49099
 C84 C 0.52459 1.03037 0.47258
 C85 C 0.47866 1.03197 0.47964
 C86 C 0.45784 1.00568 0.50600
 H87 H 0.42293 1.00809 0.51220
 H88 H 0.58283 0.99900 0.48478
 C89 C 1.19138 0.17962 0.17294
 C90 C 1.15521 0.15894 0.18564
 C91 C 1.13565 0.13237 0.15472
 N92 N 1.09956 0.11394 0.16820
 N93 N 1.08134 0.08989 0.14055
 C94 C 1.09862 0.08336 0.09838
 N95 N 1.13476 0.10174 0.08495
 N96 N 1.15294 0.12580 0.11257
 C97 C 1.07885 0.05715 0.06715
 C98 C 1.04039 0.03875 0.07783
 H99 H 1.14038 0.16240 0.21917
 H100 H 1.09426 0.05323 0.03401
 H101 H 1.20574 0.17614 0.13919
 H102 H 1.02383 0.04414 0.11001
 C103 C 0.69864 0.67597 0.66537
 C104 C 0.66376 0.65453 0.67939
 C105 C 0.64407 0.62750 0.64928
 N106 N 0.60913 0.60835 0.66423
 N107 N 0.59031 0.58426 0.63714
 C108 C 0.60581 0.57835 0.59407
 N109 N 0.64093 0.59736 0.57920
 N110 N 0.65974 0.62149 0.60630
 C111 C 0.58423 0.55289 0.56311
 C112 C 0.54571 0.53528 0.57542
 H113 H 0.65001 0.65788 0.71342
 H114 H 0.59740 0.54967 0.52880
 H115 H 0.71249 0.67268 0.63138
 H116 H 0.53222 0.53949 0.60932
 C117 C -0.17427 0.32783 0.19733
 C118 C -0.13036 0.33779 0.19666
 C119 C -0.11491 0.36661 0.16656
 N120 N -0.07215 0.36830 0.15373
 N121 N -0.05818 0.39411 0.12589
 C122 C -0.08641 0.41932 0.11025
 N123 N -0.12899 0.41790 0.12362
 N124 N -0.14305 0.39190 0.15103
 C125 C -0.07145 0.44840 0.08035
 C126 C -0.03240 0.44623 0.05547
 H127 H -0.10668 0.32307 0.21670
 H128 H -0.09165 0.47208 0.07858
 H129 H -0.19699 0.34053 0.17405
 H130 H -0.01336 0.42190 0.05757
 C131 C 0.27921 0.82663 0.63968
 C132 C 0.32103 0.83942 0.64973
 C133 C 0.34462 0.86520 0.62083
 N134 N 0.38621 0.87451 0.63181
 N135 N 0.40835 0.89787 0.60636
 C136 C 0.38969 0.91285 0.56889
 N137 N 0.34803 0.90359 0.55789
 N138 N 0.32588 0.88013 0.58334
 C139 C 0.41350 0.93933 0.54109
 C140 C 0.45719 0.94825 0.54970
 H141 H 0.33783 0.82964 0.67982
 H142 H 0.39615 0.95177 0.51309
 H143 H 0.26241 0.83562 0.60920
 H144 H 0.47432 0.93308 0.57537
 C145 C -0.17130 0.67772 -0.20539
 C146 C -0.18053 0.65851 -0.16556
 C147 C -0.14985 0.63205 -0.14690
 N148 N -0.15672 0.61851 -0.10440
 N149 N -0.12877 0.59505 -0.08662
 C150 C -0.09308 0.58407 -0.11084
 N151 N -0.08645 0.59734 -0.15353
 N152 N -0.11427 0.62095 -0.17122
 C153 C -0.06118 0.55910 -0.09111
 C154 C -0.06204 0.54990 -0.04486
 H155 H -0.21044 0.66373 -0.14650
 H156 H -0.03541 0.54885 -0.11314
 H157 H -0.14061 0.67307 -0.22331
 H158 H -0.08960 0.55820 -0.02383
 C159 C 0.32547 1.17848 0.30050
 C160 C 0.32128 1.16388 0.34417
 C161 C 0.35365 1.13854 0.36241
 N162 N 0.35350 1.13040 0.40768
 N163 N 0.38281 1.10768 0.42468
 C164 C 0.41323 1.09210 0.39697
 N165 N 0.41318 1.10004 0.35164
 N166 N 0.38404 1.12293 0.33469
 C167 C 0.44531 1.06646 0.41504
 C168 C 0.45087 1.06106 0.46185
 H169 H 0.29459 1.17235 0.36629
 H170 H 0.46456 1.05098 0.39086
 H171 H 0.35355 1.17154 0.27942
 H172 H 0.42969 1.07488 0.48593
 C173 C 1.15609 -0.17530 -0.21786
 C174 C 1.16893 -0.15978 -0.17660
 C175 C 1.14039 -0.13404 -0.15256
 N176 N 1.14912 -0.12440 -0.10873
 N177 N 1.12262 -0.10200 -0.08632
 C178 C 1.08655 -0.08828 -0.10703
 N179 N 1.07812 -0.09762 -0.15099
 N180 N 1.10448 -0.12012 -0.17329
 C181 C 1.05615 -0.06439 -0.08253
 C182 C 1.05939 -0.05802 -0.03564
 H183 H 1.19939 -0.16769 -0.16061
 H184 H 1.02971 -0.05231 -0.10169
 H185 H 1.12470 -0.16793 -0.23231
 H186 H 1.08755 -0.06810 -0.01725
 C187 C 0.71703 0.32528 0.34694
 C188 C 0.67296 0.33351 0.34082
 C189 C 0.65142 0.36194 0.36745
 N190 N 0.60707 0.36430 0.36842
 N191 N 0.58724 0.38974 0.39281
 C192 C 0.61104 0.41392 0.41688
 N193 N 0.65539 0.41181 0.41548
 N194 N 0.67522 0.38622 0.39135
 C195 C 0.58955 0.44209 0.44407
 C196 C 0.54481 0.44089 0.45406
 H197 H 0.65348 0.31810 0.31700
 H198 H 0.60957 0.46390 0.45619
 H199 H 0.73573 0.33946 0.37262
 H200 H 0.52626 0.41845 0.44116
 C201 C 0.80300 -0.17873 -0.17361
 C202 C 0.84663 -0.16819 -0.17752
 C203 C 0.86556 -0.14130 -0.14671
 N204 N 0.90960 -0.13964 -0.14073
 N205 N 0.92702 -0.11526 -0.11296
 C206 C 0.90102 -0.09144 -0.09055
 N207 N 0.85705 -0.09287 -0.09696
 N208 N 0.83961 -0.11747 -0.12430
 C209 C 0.91964 -0.06365 -0.06089
 C210 C 0.96166 -0.06636 -0.04245
 H211 H 0.86787 -0.18108 -0.20239
 H212 H 0.89946 -0.04052 -0.05402
 H213 H 0.78292 -0.16827 -0.14596
 H214 H 0.98051 -0.09016 -0.04985
 C215 C 0.29451 0.32175 0.33536
 C216 C 0.33111 0.34211 0.32382
 C217 C 0.35074 0.36751 0.35625
 N218 N 0.38797 0.38516 0.34468
 N219 N 0.40671 0.40752 0.37418
 C220 C 0.38885 0.41314 0.41632
 N221 N 0.35144 0.39569 0.42776
 N222 N 0.33273 0.37329 0.39829
 C223 C 0.41008 0.43665 0.44995
 C224 C 0.45074 0.45228 0.44141
 H225 H 0.34644 0.33881 0.29052
 H226 H 0.39466 0.43985 0.48321
 H227 H 0.27940 0.32492 0.36879
 H228 H 0.46669 0.44761 0.40872
 C229 C 0.17467 0.67753 -0.20473
 C230 C 0.13069 0.66777 -0.20356
 C231 C 0.11548 0.63916 -0.17286
 N232 N 0.07295 0.63776 -0.15912
 N233 N 0.05937 0.61229 -0.13053
 C234 C 0.08776 0.58716 -0.11498
 N235 N 0.13009 0.58828 -0.12927
 N236 N 0.14375 0.61393 -0.15744
 C237 C 0.07326 0.55843 -0.08419
 C238 C 0.03444 0.56075 -0.05891
 H239 H 0.10691 0.68253 -0.22341
 H240 H 0.09357 0.53482 -0.08213
 H241 H 0.19741 0.66475 -0.18155
 H242 H 0.01526 0.58498 -0.06132
 C243 C 0.72571 1.17888 0.35191
 C244 C 0.68465 1.16443 0.34161
 C245 C 0.66119 1.13930 0.37158
 N246 N 0.61985 1.12926 0.36060
 N247 N 0.59766 1.10664 0.38708
 C248 C 0.61599 1.09315 0.42562
 N249 N 0.65743 1.10312 0.43661
 N250 N 0.67963 1.12586 0.41015
 C251 C 0.59212 1.06742 0.45453
 C252 C 0.54837 1.05843 0.44638
 H253 H 0.66790 1.17265 0.31071
 H254 H 0.60948 1.05556 0.48294
 H255 H 0.74216 1.17107 0.38313
 H256 H 0.53108 1.07311 0.42033
 C257 C 0.16462 0.32402 0.20319
 C258 C 0.17445 0.34274 0.16317
 C259 C 0.14550 0.37048 0.14452
 N260 N 0.15372 0.38410 0.10230
 N261 N 0.12760 0.40893 0.08455
 C262 C 0.09245 0.42127 0.10854
 N263 N 0.08445 0.40787 0.15093
 N264 N 0.11045 0.38290 0.16860
 C265 C 0.06230 0.44765 0.08875
 C266 C 0.06415 0.45730 0.04262
 H267 H 0.20402 0.33636 0.14412
 H268 H 0.03654 0.45828 0.11048
 H269 H 0.13442 0.32946 0.22159
 H270 H 0.09181 0.44878 0.02190
 C271 C 0.67024 0.82138 0.69578
 C272 C 0.67642 0.83701 0.65295
 C273 C 0.64576 0.86368 0.63466
 N274 N 0.64789 0.87302 0.58982
 N275 N 0.62027 0.89709 0.57279
 C276 C 0.58967 0.91289 0.60008
 N277 N 0.58776 0.90374 0.64499
 N278 N 0.61519 0.87950 0.66195
 C279 C 0.55923 0.93978 0.58194
 C280 C 0.55481 0.94598 0.53516
 H281 H 0.70372 0.82868 0.63158
 H282 H 0.53980 0.95517 0.60607
 H283 H 0.64160 0.82825 0.71605
 H284 H 0.57624 0.93228 0.51121
 C285 C 0.84893 0.18240 0.20488
 C286 C 0.83228 0.15928 0.17195
 C287 C 0.86206 0.13663 0.14476
 N288 N 0.84796 0.10523 0.12696
 N289 N 0.87536 0.08432 0.10336
 C290 C 0.91768 0.09432 0.09626
 N291 N 0.93150 0.12598 0.11337
 N292 N 0.90429 0.14665 0.13739
 C293 C 0.94865 0.07157 0.07083
 C294 C 0.94224 0.03496 0.06580
 H295 H 0.79721 0.15675 0.16745
 H296 H 0.97788 0.08397 0.05705
 H297 H 0.88379 0.18213 0.21186
 H298 H 0.91169 0.02341 0.07769
 C299 C 0.28572 0.67990 0.64547
 C300 C 0.32583 0.66557 0.65866
 C301 C 0.34841 0.63839 0.63076
 N302 N 0.38528 0.62250 0.64661
 N303 N 0.40601 0.59792 0.62155
 C304 C 0.39069 0.58841 0.57965
 N305 N 0.35391 0.60439 0.56376
 N306 N 0.33311 0.62887 0.58887
 C307 C 0.41349 0.56172 0.55120
 C308 C 0.44991 0.54297 0.56695
 H309 H 0.34080 0.67411 0.69040
 H310 H 0.40187 0.55761 0.51662
 H311 H 0.27027 0.67054 0.61437
 H312 H 0.46131 0.54844 0.60122
   
