data_POSCAR
  _audit_creation_date              2014-09-24
  _audit_creation_method            'ToBaCCo'
  _symmetry_space_group_name_H-M    'P1'
  _symmetry_Int_Tables_number       1
  _symmetry_cell_setting            triclinic
  loop_
  _symmetry_equiv_pos_as_xyz
 x,y,z
_cell_length_a 25.2178
_cell_length_b 30.1052
_cell_length_c 21.9219
_cell_angle_alpha 86.464900
_cell_angle_beta 79.938000
_cell_angle_gamma 82.428800
loop_
  _atom_site_label
  _atom_site_type_symbol
  _atom_site_fract_x
  _atom_site_fract_y
  _atom_site_fract_z
N1 N 0.64426 0.70572 0.63209
 N2 N 0.60746 0.68337 0.66627
 C3 C 0.56219 0.71161 0.68412
 C4 C 0.57193 0.75394 0.66088
 C5 C 0.62427 0.74946 0.62848
 H6 H 0.52484 0.70192 0.71064
 H7 H 0.64472 0.77515 0.60080
 Cu8 Cu 0.62146 0.61927 0.68350
 Cu9 Cu 0.71154 0.67440 0.58763
 Cu10 Cu 0.69752 0.56337 0.56628
 N11 N 0.63060 0.55421 0.68522
 N12 N 0.66073 0.53224 0.63876
 C13 C 0.65552 0.48826 0.64748
 C14 C 0.62122 0.48277 0.70290
 C15 C 0.60520 0.52504 0.72546
 H16 H 0.67223 0.46297 0.61406
 H17 H 0.57452 0.53423 0.76515
 N18 N 0.75041 0.59713 0.51197
 N19 N 0.75823 0.63845 0.52208
 C20 C 0.79871 0.65122 0.47846
 C21 C 0.81627 0.61604 0.43939
 C22 C 0.78523 0.58245 0.46150
 H23 H 0.81308 0.68374 0.47468
 H24 H 0.78825 0.54964 0.44275
 H25 H 0.66212 0.62958 0.57508
 H26 H 0.71370 0.60755 0.62433
 N27 N 0.89642 0.31141 0.09318
 N28 N 0.93538 0.33121 0.10877
 C29 C 0.96303 0.30279 0.14547
 C30 C 0.94039 0.26318 0.15169
 C31 C 0.89805 0.26960 0.11889
 H32 H 0.99400 0.31154 0.16946
 H33 H 0.86832 0.24698 0.11769
 Cu34 Cu 0.93991 0.39446 0.08876
 Cu35 Cu 0.84232 0.34286 0.04731
 Cu36 Cu 0.84444 0.45717 0.02101
 N37 N 0.92716 0.45911 0.09543
 N38 N 0.88699 0.48321 0.07288
 C39 C 0.88137 0.52532 0.09275
 C40 C 0.92089 0.52747 0.12836
 C41 C 0.94928 0.48511 0.12946
 H42 H 0.84982 0.55169 0.08387
 H43 H 0.98025 0.47319 0.15709
 N44 N 0.79335 0.42399 -0.01106
 N45 N 0.79154 0.38059 0.00109
 C46 C 0.75201 0.36745 -0.02501
 C47 C 0.72840 0.40430 -0.05527
 C48 C 0.75536 0.43966 -0.04611
 H49 H 0.74193 0.33354 -0.02346
 H50 H 0.74784 0.47397 -0.06325
 H51 H 0.88597 0.39306 0.00593
 H52 H 0.84383 0.40446 0.08344
 N53 N 0.40087 0.20055 -0.10108
 N54 N 0.42296 0.17912 -0.15172
 C55 C 0.46235 0.20162 -0.18388
 C56 C 0.46557 0.23813 -0.15043
 C57 C 0.42647 0.23667 -0.09806
 H58 H 0.48716 0.19189 -0.22751
 H59 H 0.41632 0.26057 -0.06169
 Cu60 Cu 0.39934 0.12289 -0.16892
 Cu61 Cu 0.33898 0.18110 -0.04416
 Cu62 Cu 0.27592 0.10121 -0.10230
 N63 N 0.37539 0.06490 -0.17750
 N64 N 0.32571 0.05771 -0.15259
 C65 C 0.31585 0.01806 -0.17006
 C66 C 0.36215 -0.00096 -0.20654
 C67 C 0.39953 0.02934 -0.21107
 H68 H 0.27743 0.00466 -0.15833
 H69 H 0.43951 0.02692 -0.23913
 N70 N 0.24181 0.13664 -0.03051
 N71 N 0.26528 0.16731 -0.00806
 C72 C 0.23194 0.18440 0.04233
 C73 C 0.18633 0.16245 0.05200
 C74 C 0.19375 0.13230 0.00563
 H75 H 0.24126 0.20918 0.07122
 H76 H 0.16701 0.10820 -0.00034
 H77 H 0.34133 0.11464 -0.06864
 H78 H 0.31240 0.16084 -0.11844
 N79 N 0.10528 0.77151 0.39962
 N80 N 0.06802 0.79938 0.37692
 C81 C 0.04677 0.77791 0.33654
 C82 C 0.07191 0.73449 0.33503
 C83 C 0.10903 0.73115 0.37476
 H84 H 0.01747 0.79329 0.30854
 H85 H 0.13769 0.70238 0.38330
 Cu86 Cu 0.05530 0.86247 0.39602
 Cu87 Cu 0.14698 0.79033 0.45831
 Cu88 Cu 0.13465 0.90434 0.47971
 N89 N 0.06321 0.92610 0.39092
 N90 N 0.09712 0.94154 0.42125
 C91 C 0.10180 0.98455 0.40320
 C92 C 0.06823 0.99672 0.36032
 C93 C 0.04427 0.95912 0.35296
 H94 H 0.12920 1.00472 0.41826
 H95 H 0.01894 0.95497 0.31917
 N96 N 0.18538 0.86063 0.51742
 N97 N 0.19235 0.81722 0.50746
 C98 C 0.23404 0.79740 0.53466
 C99 C 0.25312 0.83020 0.56316
 C100 C 0.22168 0.86975 0.55151
 H101 H 0.24993 0.76227 0.53272
 H102 H 0.22657 0.90291 0.56429
 H103 H 0.09690 0.84624 0.49018
 H104 H 0.14693 0.85382 0.41824
 C105 C -0.00615 0.16509 0.22720
 N106 N 0.03792 0.16656 0.18164
 C107 C 0.07788 0.13131 0.17546
 N108 N 0.07373 0.09491 0.21477
 C109 C 0.03007 0.09350 0.26046
 N110 N -0.01001 0.12845 0.26632
 C111 C 0.44255 0.82683 0.66653
 N112 N 0.39665 0.82429 0.64299
 C113 C 0.35648 0.85926 0.64783
 N114 N 0.36167 0.89600 0.67767
 C115 C 0.40702 0.89875 0.70189
 N116 N 0.44799 0.86431 0.69565
 C117 C 1.01719 0.65347 0.26498
 N118 N 1.01468 0.62338 0.22222
 C119 C 0.97036 0.60150 0.22681
 N120 N 0.92926 0.60868 0.27545
 C121 C 0.93195 0.63808 0.31910
 N122 N 0.97575 0.66075 0.31353
 C123 C 0.55033 0.32733 -0.14374
 N124 N 0.58603 0.33470 -0.10706
 C125 C 0.61806 0.36789 -0.12218
 N126 N 0.61370 0.39450 -0.17401
 C127 C 0.57760 0.38730 -0.21080
 N128 N 0.54650 0.35343 -0.19586
 N129 N -0.05313 0.23136 0.19392
 N130 N -0.04899 0.20138 0.23422
 N131 N 0.53314 0.79309 0.66214
 N132 N 0.48346 0.78914 0.66278
 N133 N 1.06762 0.70455 0.29613
 N134 N 1.06394 0.67653 0.25896
 N135 N 0.50128 0.27147 -0.16789
 N136 N 0.51678 0.29243 -0.12690
 N137 N 0.06897 0.03635 0.32135
 N138 N 0.02652 0.05548 0.30240
 N139 N 0.59635 0.44752 -0.27997
 N140 N 0.57187 0.41465 -0.26539
 N141 N 0.36541 0.95956 0.75965
 N142 N 0.40974 0.93680 0.73661
 N143 N 0.92370 0.56294 0.16747
 N144 N 0.96850 0.56905 0.18276
 N145 N 0.14349 0.16569 0.10416
 N146 N 0.12253 0.13059 0.12559
 N147 N 0.85789 0.61365 0.38608
 N148 N 0.89080 0.64275 0.37285
 N149 N 0.68614 0.40482 -0.09122
 N150 N 0.65866 0.37185 -0.08562
 N151 N 0.29970 0.82561 0.59302
 N152 N 0.30972 0.85921 0.61957
   
