data_POSCAR
  _audit_creation_date              2014-09-24
  _audit_creation_method            'ToBaCCo'
  _symmetry_space_group_name_H-M    'P1'
  _symmetry_Int_Tables_number       1
  _symmetry_cell_setting            triclinic
  loop_
  _symmetry_equiv_pos_as_xyz
 x,y,z
_cell_length_a 34.1226
_cell_length_b 34.0511
_cell_length_c 34.0395
_cell_angle_alpha 89.810300
_cell_angle_beta 89.813300
_cell_angle_gamma 90.075000
loop_
  _atom_site_label
  _atom_site_type_symbol
  _atom_site_fract_x
  _atom_site_fract_y
  _atom_site_fract_z
C1 C 0.16764 0.16840 0.21534
 C2 C 0.20147 0.15153 0.19910
 C3 C 0.21834 0.16763 0.16503
 C4 C 0.20136 0.20065 0.14725
 C5 C 0.16757 0.21751 0.16344
 C6 C 0.15075 0.20142 0.19748
 H7 H 0.21437 0.12573 0.21269
 H8 H 0.21411 0.21300 0.12070
 H9 H 0.12438 0.21436 0.20974
 C10 C -0.16469 0.83291 0.22087
 C11 C -0.19869 0.84957 0.20492
 C12 C -0.21630 0.83268 0.17190
 C13 C -0.19993 0.79906 0.15484
 C14 C -0.16596 0.78236 0.17073
 C15 C -0.14837 0.79927 0.20376
 H16 H -0.21121 0.87583 0.21784
 H17 H -0.21331 0.78621 0.12903
 H18 H -0.12186 0.78649 0.21578
 C19 C -0.16898 0.16481 -0.21862
 C20 C -0.20206 0.14720 -0.20146
 C21 C -0.21915 0.16364 -0.16781
 C22 C -0.20317 0.19778 -0.15139
 C23 C -0.17012 0.21542 -0.16850
 C24 C -0.15306 0.19895 -0.20212
 H25 H -0.21422 0.12058 -0.21401
 H26 H -0.21609 0.21039 -0.12514
 H27 H -0.12723 0.21245 -0.21508
 C28 C 0.16992 0.83609 -0.21647
 C29 C 0.15196 0.80249 -0.20077
 C30 C 0.16746 0.78440 -0.16724
 C31 C 0.20102 0.79989 -0.14941
 C32 C 0.21907 0.83353 -0.16506
 C33 C 0.20349 0.85159 -0.19864
 H34 H 0.12577 0.79069 -0.21436
 H35 H 0.21276 0.78603 -0.12323
 H36 H 0.21713 0.87783 -0.21066
 C37 C 0.17082 1.16789 0.78291
 C38 C 0.15365 1.20138 0.79943
 C39 C 0.16955 1.21799 0.83345
 C40 C 0.20265 1.20114 0.85091
 C41 C 0.21982 1.16767 0.83442
 C42 C 0.20392 1.15107 0.80040
 H43 H 0.12777 1.21417 0.78614
 H44 H 0.21474 1.21377 0.87746
 H45 H 0.21698 1.12491 0.78786
 C46 C 0.83401 0.83530 0.78117
 C47 C 0.85051 0.80114 0.79717
 C48 C 0.83348 0.78342 0.83033
 C49 C 0.79989 0.79989 0.84743
 C50 C 0.78340 0.83401 0.83144
 C51 C 0.80043 0.85168 0.79831
 H52 H 0.87672 0.78863 0.78411
 H53 H 0.78684 0.78650 0.87333
 H54 H 0.78777 0.87830 0.78621
 C55 C 0.16463 0.83131 1.21860
 C56 C 0.14696 0.79824 1.20174
 C57 C 0.16340 0.78106 1.16819
 C58 C 0.19755 0.79687 1.15152
 C59 C 0.21526 0.82990 1.16833
 C60 C 0.19882 0.84710 1.20188
 H61 H 0.12030 0.78613 1.21437
 H62 H 0.21006 0.78379 1.12532
 H63 H 0.21237 0.87293 1.21460
 C64 C 0.83471 1.16806 1.21795
 C65 C 0.85024 1.20171 1.19984
 C66 C 0.83225 1.21738 1.16629
 C67 C 0.79868 1.19939 1.15094
 C68 C 0.78315 1.16576 1.16903
 C69 C 0.80113 1.15013 1.20253
 H70 H 0.87645 1.21541 1.21155
 H71 H 0.78489 1.21121 1.12477
 H72 H 0.78923 1.12386 1.21625
 O73 O 0.44522 0.92591 0.93499
 O74 O 0.40246 0.96431 0.96992
 C75 C 0.41001 0.93674 0.94483
 O76 O 0.55518 0.92962 1.07514
 O77 O 0.59808 0.96446 1.03649
 C78 C 0.59043 0.93948 1.06430
 O79 O 0.44472 0.92623 1.07152
 O80 O 0.40218 0.96385 1.03549
 C81 C 0.40958 0.93662 1.06109
 O82 O 0.55567 0.92938 0.93149
 O83 O 0.59842 0.96525 0.96889
 C84 C 0.59087 0.93977 0.94171
 Zr85 Zr 0.50044 0.94762 0.95371
 O86 O 0.50468 0.88560 0.95517
 O87 O 0.49638 0.94649 0.89169
 Zr88 Zr 0.50009 0.94818 1.05297
 O89 O 0.50427 0.88616 1.05339
 O90 O 0.49554 0.94858 1.11501
 O91 O 0.46524 0.94032 1.00338
 O92 O 0.53428 0.94074 1.00336
 O93 O 0.55588 1.06560 0.93066
 O94 O 0.59847 1.03079 0.96929
 C95 C 0.59103 1.05577 0.94148
 O96 O 0.44513 1.06972 1.07072
 O97 O 0.40242 1.03135 1.03588
 C98 C 0.40993 1.05900 1.06084
 O99 O 0.55551 1.06594 1.07421
 O100 O 0.59834 1.02993 1.03685
 C101 C 0.59073 1.05549 1.06397
 O102 O 0.44569 1.06906 0.93396
 O103 O 0.40267 1.03105 0.96935
 C104 C 0.41042 1.05846 0.94396
 Zr105 Zr 0.50065 1.04706 0.95277
 O106 O 0.50509 1.10907 0.95227
 O107 O 0.49657 1.04654 0.89072
 Zr108 Zr 0.50032 1.04767 1.05213
 O109 O 0.50487 1.10968 1.05110
 O110 O 0.49581 1.04834 1.11416
 Zr111 Zr 0.44223 0.99777 1.00292
 Zr112 Zr 0.55849 0.99761 1.00289
 O113 O 0.53448 1.05451 1.00242
 O114 O 0.46551 1.05514 1.00238
 O115 O 0.53547 0.99729 0.94550
 O116 O 0.46625 0.99798 1.05978
 O117 O 0.46668 0.99736 0.94606
 O118 O 0.53507 0.99791 1.06027
 H119 H 0.55203 0.91773 1.00342
 H120 H 0.44843 0.99800 1.08283
 H121 H 0.55230 1.07751 1.00236
 H122 H 0.44919 0.99729 0.92289
 H123 H 0.51760 0.96441 1.12514
 H124 H 0.51706 1.03159 1.12458
 H125 H 0.48252 1.11985 1.03571
 H126 H 0.48326 1.11941 0.96836
 H127 H 0.51879 1.03088 0.88060
 H128 H 0.51726 0.96379 0.88120
 H129 H 0.48168 0.87551 0.96982
 H130 H 0.48256 0.87588 1.03722
 O131 O -0.07512 0.44414 0.06548
 O132 O -0.03682 0.40155 0.03027
 C133 C -0.06436 0.40894 0.05549
 O134 O -0.07125 0.55546 -0.07444
 O135 O -0.03652 0.59813 -0.03592
 C136 C -0.06144 0.59069 -0.06357
 O137 O -0.07448 0.44483 -0.07143
 O138 O -0.03641 0.40192 -0.03633
 C139 C -0.06379 0.40952 -0.06153
 O140 O -0.07154 0.55471 0.06919
 O141 O -0.03581 0.59788 0.03159
 C142 C -0.06120 0.59008 0.05895
 Zr143 Zr -0.05312 0.49951 0.04694
 O144 O -0.11501 0.50376 0.04671
 O145 O -0.05337 0.49481 0.10897
 Zr146 Zr -0.05261 0.50007 -0.05264
 O147 O -0.11450 0.50419 -0.05288
 O148 O -0.05186 0.49614 -0.11469
 O149 O -0.06062 0.46477 -0.00294
 O150 O -0.06011 0.53377 -0.00275
 O151 O 0.06439 0.55483 0.06917
 O152 O 0.02960 0.59790 0.03094
 C153 C 0.05455 0.59016 0.05855
 O154 O 0.06874 0.44513 -0.07070
 O155 O 0.03085 0.40194 -0.03530
 C156 C 0.05834 0.40976 -0.06054
 O157 O 0.06531 0.55575 -0.07403
 O158 O 0.02989 0.59831 -0.03588
 C159 C 0.05531 0.59095 -0.06327
 O160 O 0.06804 0.44435 0.06521
 O161 O 0.03055 0.40154 0.02948
 C162 C 0.05779 0.40909 0.05486
 Zr163 Zr 0.04593 0.49969 0.04704
 O164 O 0.10782 0.50417 0.04741
 O165 O 0.04527 0.49491 0.10907
 Zr166 Zr 0.04652 0.50032 -0.05231
 O167 O 0.10841 0.50475 -0.05233
 O168 O 0.04653 0.49632 -0.11437
 Zr169 Zr -0.00337 0.44164 -0.00288
 Zr170 Zr -0.00343 0.55818 -0.00263
 O171 O 0.05334 0.53402 -0.00253
 O172 O 0.05388 0.46505 -0.00271
 O173 O -0.00364 0.53460 0.05473
 O174 O -0.00296 0.46617 -0.05971
 O175 O -0.00358 0.46549 0.05407
 O176 O -0.00304 0.53532 -0.06011
 H177 H -0.08311 0.55151 -0.00262
 H178 H -0.00272 0.44852 -0.08279
 H179 H 0.07643 0.55168 -0.00242
 H180 H -0.00356 0.44758 0.07708
 H181 H -0.03623 0.51850 -0.12478
 H182 H 0.03102 0.51862 -0.12457
 H183 H 0.11859 0.48291 -0.03610
 H184 H 0.11820 0.48265 0.03097
 H185 H 0.02979 0.51718 0.11936
 H186 H -0.03727 0.51660 0.11930
 H187 H -0.12514 0.48179 0.03074
 H188 H -0.12478 0.48236 -0.03659
 O189 O 1.07399 -0.06492 0.55519
 O190 O 1.03636 -0.02918 0.59801
 C191 C 1.06368 -0.05452 0.59047
 O192 O 1.07047 0.07424 0.44363
 O193 O 1.03528 0.03588 0.40117
 C194 C 1.06050 0.06340 0.40845
 O195 O 1.07397 0.07105 0.55435
 O196 O 1.03617 0.03557 0.59755
 C197 C 1.06355 0.06087 0.58974
 O198 O 1.07035 -0.06899 0.44458
 O199 O 1.03527 -0.03094 0.40161
 C200 C 1.06037 -0.05844 0.40927
 Zr201 Zr 1.05182 -0.04686 0.49980
 O202 O 1.11370 -0.04691 0.49517
 O203 O 1.05157 -0.10886 0.50463
 Zr204 Zr 1.05174 0.05258 0.49920
 O205 O 1.11362 0.05318 0.49469
 O206 O 1.05100 0.11462 0.50319
 O207 O 1.05947 0.00298 0.53442
 O208 O 1.05890 0.00277 0.46548
 O209 O 0.93396 -0.06913 0.44513
 O210 O 0.96889 -0.03097 0.40184
 C211 C 0.94377 -0.05851 0.40973
 O212 O 0.93042 0.07073 0.55491
 O213 O 0.96809 0.03522 0.59786
 C214 C 0.94072 0.06047 0.59023
 O215 O 0.93416 0.07422 0.44421
 O216 O 0.96980 0.03652 0.40137
 C217 C 0.94439 0.06377 0.40893
 O218 O 0.93082 -0.06561 0.55554
 O219 O 0.96899 -0.03041 0.59812
 C220 C 0.94151 -0.05564 0.59074
 Zr221 Zr 0.95278 -0.04709 0.50015
 O222 O 0.89088 -0.04743 0.49617
 O223 O 0.95333 -0.10910 0.50482
 Zr224 Zr 0.95276 0.05250 0.49963
 O225 O 0.89089 0.05311 0.49548
 O226 O 0.95356 0.11453 0.50375
 Zr227 Zr 1.00223 0.00294 0.55795
 Zr228 Zr 1.00214 0.00256 0.44139
 O229 O 0.94548 0.00263 0.46596
 O230 O 0.94501 0.00275 0.53485
 O231 O 1.00226 -0.05478 0.46491
 O232 O 1.00225 0.05978 0.53355
 O233 O 1.00234 -0.05401 0.53411
 O234 O 1.00222 0.06006 0.46425
 H235 H 1.08198 0.00272 0.44776
 H236 H 1.00222 0.08272 0.55139
 H237 H 0.92244 0.00263 0.44832
 H238 H 1.00249 -0.07699 0.55205
 H239 H 1.03599 0.12471 0.48051
 H240 H 0.96867 0.12469 0.48105
 H241 H 0.88057 0.03591 0.51659
 H242 H 0.88064 -0.03116 0.51790
 H243 H 0.96867 -0.11932 0.48238
 H244 H 1.03587 -0.11921 0.48259
 H245 H 1.12399 -0.03058 0.51679
 H246 H 1.12392 0.03648 0.51611
 C247 C 1.11612 0.11927 0.30942
 C248 C 1.12641 0.13015 0.34764
 C249 C 1.10819 0.11222 0.37995
 C250 C 1.15052 0.15206 0.24773
 C251 C 1.06918 0.07256 0.33578
 C252 C 1.08742 0.09052 0.30360
 C253 C 1.13502 0.13732 0.27607
 C254 C 1.07943 0.08310 0.37440
 H255 H 1.14859 0.15240 0.35248
 H256 H 1.11679 0.12105 0.40922
 H257 H 1.04716 0.05031 0.33034
 H258 H 1.07920 0.08189 0.27414
 C259 C 0.88800 -0.11596 0.31250
 C260 C 0.87813 -0.12651 0.35105
 C261 C 0.89639 -0.10801 0.38274
 C262 C 0.85305 -0.15001 0.25229
 C263 C 0.93462 -0.06842 0.33731
 C264 C 0.91632 -0.08697 0.30571
 C265 C 0.86892 -0.13464 0.27987
 C266 C 0.92479 -0.07864 0.37624
 H267 H 0.85624 -0.14894 0.35663
 H268 H 0.88812 -0.11662 0.41227
 H269 H 0.95636 -0.04600 0.33118
 H270 H 0.92419 -0.07859 0.27598
 C271 C 0.88271 0.11464 0.68836
 C272 C 0.87271 0.12543 0.64997
 C273 C 0.89138 0.10772 0.61796
 C274 C 0.84829 0.14811 0.74939
 C275 C 0.93004 0.06821 0.66275
 C276 C 0.91133 0.08595 0.69465
 C277 C 0.86381 0.13302 0.72138
 C278 C 0.92037 0.07895 0.62398
 H279 H 0.85057 0.14761 0.64477
 H280 H 0.88321 0.11669 0.58857
 H281 H 0.95214 0.04615 0.66853
 H282 H 0.91927 0.07735 0.72424
 C283 C 1.12070 -0.10941 0.68874
 C284 C 1.13084 -0.12015 0.65039
 C285 C 1.11260 -0.10208 0.61834
 C286 C 1.15319 -0.14474 0.74978
 C287 C 1.07418 -0.06223 0.66301
 C288 C 1.09246 -0.08032 0.69496
 C289 C 1.13867 -0.12864 0.72180
 C290 C 1.08388 -0.07303 0.62427
 H291 H 1.15265 -0.14267 0.64526
 H292 H 1.12079 -0.11111 0.58897
 H293 H 1.05227 -0.03996 0.66872
 H294 H 1.08438 -0.07179 0.72453
 C295 C 0.31170 1.11640 1.11526
 C296 C 0.30561 1.08729 1.08703
 C297 C 0.33754 1.06876 1.06925
 C298 C 0.25049 1.15055 1.14853
 C299 C 0.38199 1.10855 1.10781
 C300 C 0.34994 1.12705 1.12557
 C301 C 0.27861 1.13517 1.13356
 C302 C 0.37616 1.07910 1.07947
 H303 H 0.27614 1.07884 1.07879
 H304 H 0.33190 1.04628 1.04754
 H305 H 0.41127 1.11724 1.11637
 H306 H 0.35498 1.14958 1.14738
 C307 C 0.31197 0.88121 0.88857
 C308 C 0.30577 0.90976 0.91737
 C309 C 0.33763 0.92756 0.93589
 C310 C 0.25101 0.84928 0.85295
 C311 C 0.38221 0.88804 0.89703
 C312 C 0.35023 0.87028 0.87853
 C313 C 0.27899 0.86358 0.86909
 C314 C 0.37628 0.91704 0.92583
 H315 H 0.27627 0.91844 0.92538
 H316 H 0.33192 0.94971 0.95793
 H317 H 0.41152 0.87924 0.88856
 H318 H 0.35536 0.84820 0.85626
 C319 C 0.68845 0.88468 1.12144
 C320 C 0.69464 0.91331 1.09251
 C321 C 0.66277 0.93126 1.07412
 C322 C 0.74964 0.85063 1.15468
 C323 C 0.61819 0.89212 1.11374
 C324 C 0.65018 0.87418 1.13209
 C325 C 0.72150 0.86599 1.13981
 C326 C 0.62412 0.92080 1.08441
 H327 H 0.72413 0.92168 1.08405
 H328 H 0.66849 0.95324 1.05176
 H329 H 0.58887 0.88336 1.12238
 H330 H 0.64507 0.85204 1.15446
 C331 C 0.68885 1.11115 0.88374
 C332 C 0.69521 1.08287 0.91293
 C333 C 0.66342 1.06470 0.93158
 C334 C 0.74935 1.14594 0.84945
 C335 C 0.61868 1.10295 0.89169
 C336 C 0.65055 1.12108 0.87309
 C337 C 0.72167 1.13012 0.86495
 C338 C 0.62473 1.07461 0.92126
 H339 H 0.72476 1.07495 0.92138
 H340 H 0.66921 1.04300 0.95415
 H341 H 0.58934 1.11128 0.88299
 H342 H 0.64531 1.14294 0.85052
 C343 C 0.11555 0.31124 0.10974
 C344 C 0.12557 0.34966 0.12021
 C345 C 0.10700 0.38154 0.10221
 C346 C 0.14957 0.25077 0.14458
 C347 C 0.06839 0.33659 0.06300
 C348 C 0.08702 0.30479 0.08104
 C349 C 0.13421 0.27842 0.12870
 C350 C 0.07806 0.37538 0.07347
 H351 H 0.14762 0.35497 0.14240
 H352 H 0.11518 0.41095 0.11098
 H353 H 0.04632 0.33073 0.04098
 H354 H 0.07905 0.27516 0.07271
 C355 C -0.11997 0.31112 -0.11680
 C356 C -0.13063 0.34944 -0.12722
 C357 C -0.11257 0.38156 -0.10916
 C358 C -0.15293 0.24965 -0.15075
 C359 C -0.07322 0.33700 -0.07008
 C360 C -0.09131 0.30501 -0.08815
 C361 C -0.13816 0.27792 -0.13549
 C362 C -0.08354 0.37571 -0.08043
 H363 H -0.15281 0.35449 -0.14936
 H364 H -0.12123 0.41091 -0.11783
 H365 H -0.05107 0.33133 -0.04807
 H366 H -0.08285 0.27548 -0.07984
 C367 C 0.11225 0.68946 -0.11849
 C368 C 0.08330 0.69555 -0.08998
 C369 C 0.06454 0.66354 -0.07228
 C370 C 0.14825 0.75059 -0.15046
 C371 C 0.10350 0.61906 -0.11181
 C372 C 0.12222 0.65117 -0.12947
 C373 C 0.13193 0.72256 -0.13610
 C374 C 0.07453 0.62486 -0.08286
 H375 H 0.07534 0.72507 -0.08128
 H376 H 0.04238 0.66915 -0.05016
 H377 H 0.11192 0.58973 -0.12065
 H378 H 0.14461 0.64614 -0.15152
 C379 C -0.11517 0.68780 0.11757
 C380 C -0.12605 0.64937 0.12749
 C381 C -0.10843 0.61750 0.10858
 C382 C -0.14842 0.74862 0.15240
 C383 C -0.06888 0.66249 0.06984
 C384 C -0.08652 0.69426 0.08878
 C385 C -0.13342 0.72070 0.13672
 C386 C -0.07968 0.62369 0.07944
 H387 H -0.14820 0.64405 0.14975
 H388 H -0.11745 0.58806 0.11671
 H389 H -0.04683 0.66841 0.04762
 H390 H -0.07785 0.72389 0.08090
 C391 C 1.12057 0.11577 0.68767
 C392 C 1.09232 0.08662 0.69402
 C393 C 1.07400 0.06860 0.66217
 C394 C 1.15364 0.14995 0.74883
 C395 C 1.11237 0.10870 0.61730
 C396 C 1.13065 0.12671 0.64928
 C397 C 1.13883 0.13455 0.72070
 C398 C 1.08369 0.07952 0.62339
 H399 H 1.08432 0.07791 0.72363
 H400 H 1.05214 0.04623 0.66801
 H401 H 1.12053 0.11781 0.58788
 H402 H 1.15251 0.14925 0.64405
 C403 C 0.88482 -0.11171 0.68891
 C404 C 0.91359 -0.08314 0.69523
 C405 C 0.93187 -0.06470 0.66332
 C406 C 0.85110 -0.14689 0.74958
 C407 C 0.89244 -0.10329 0.61856
 C408 C 0.87421 -0.12168 0.65055
 C409 C 0.86637 -0.13092 0.72182
 C410 C 0.92160 -0.07465 0.62457
 H411 H 0.92199 -0.07519 0.72483
 H412 H 0.95414 -0.04278 0.66906
 H413 H 0.88380 -0.11166 0.58917
 H414 H 0.85195 -0.14376 0.64535
 C415 C 1.11465 -0.11651 0.31134
 C416 C 1.12490 -0.12695 0.34975
 C417 C 1.10721 -0.10819 0.38169
 C418 C 1.14796 -0.15127 0.25048
 C419 C 1.06885 -0.06851 0.33678
 C420 C 1.08657 -0.08731 0.30495
 C421 C 1.13292 -0.13559 0.27841
 C422 C 1.07900 -0.07868 0.37557
 H423 H 1.14661 -0.14954 0.35500
 H424 H 1.11571 -0.11675 0.41111
 H425 H 1.04724 -0.04598 0.33094
 H426 H 1.07841 -0.07902 0.27532
 C427 C 0.88847 0.11991 0.31077
 C428 C 0.91753 0.09166 0.30448
 C429 C 0.93596 0.07366 0.33639
 C430 C 0.85284 0.15215 0.24984
 C431 C 0.89648 0.11239 0.38115
 C432 C 0.87808 0.13034 0.34914
 C433 C 0.86903 0.13770 0.27778
 C434 C 0.92553 0.08368 0.37515
 H435 H 0.92580 0.08338 0.27489
 H436 H 0.95821 0.05175 0.33063
 H437 H 0.88773 0.12080 0.41054
 H438 H 0.85560 0.15218 0.35432
 C439 C 0.11655 0.31220 -0.11508
 C440 C 0.12667 0.35064 -0.12566
 C441 C 0.10792 0.38247 -0.10781
 C442 C 0.15118 0.25157 -0.14880
 C443 C 0.06893 0.33735 -0.06861
 C444 C 0.08773 0.30564 -0.08648
 C445 C 0.13555 0.27938 -0.13358
 C446 C 0.07873 0.37619 -0.07914
 H447 H 0.14898 0.35603 -0.14776
 H448 H 0.11619 0.41193 -0.11662
 H449 H 0.04667 0.33139 -0.04663
 H450 H 0.07970 0.27598 -0.07806
 C451 C -0.12003 0.31049 0.11201
 C452 C -0.09155 0.30437 0.08304
 C453 C -0.07371 0.33638 0.06440
 C454 C -0.15198 0.24937 0.14802
 C455 C -0.11309 0.38089 0.10348
 C456 C -0.13088 0.34878 0.12210
 C457 C -0.13766 0.27740 0.13167
 C458 C -0.08413 0.37506 0.07453
 H459 H -0.08295 0.27484 0.07500
 H460 H -0.05160 0.33075 0.04223
 H461 H -0.12182 0.41022 0.11201
 H462 H -0.15291 0.35382 0.14450
 C463 C -0.11604 0.68939 -0.12019
 C464 C -0.08769 0.69534 -0.09123
 C465 C -0.06984 0.66326 -0.07298
 C466 C -0.14973 0.75100 -0.15333
 C467 C -0.10854 0.61892 -0.11279
 C468 C -0.12639 0.65114 -0.13100
 C469 C -0.13456 0.72267 -0.13849
 C470 C -0.08011 0.62461 -0.08346
 H471 H -0.07945 0.72483 -0.08265
 H472 H -0.04805 0.66880 -0.05060
 H473 H -0.11714 0.58962 -0.12157
 H474 H -0.14831 0.64622 -0.15341
 C475 C 0.10977 0.68759 0.11619
 C476 C 0.11962 0.64911 0.12673
 C477 C 0.10153 0.61736 0.10817
 C478 C 0.14463 0.74785 0.15022
 C479 C 0.06348 0.66258 0.06854
 C480 C 0.08161 0.69425 0.08715
 C481 C 0.12877 0.72027 0.13486
 C482 C 0.07331 0.62372 0.07875
 H483 H 0.14140 0.64365 0.14918
 H484 H 0.10980 0.58787 0.11677
 H485 H 0.04187 0.66860 0.04608
 H486 H 0.07377 0.72394 0.07879
 C487 C 0.31324 1.11568 0.88800
 C488 C 0.35163 1.12625 0.87800
 C489 C 0.38332 1.10782 0.89631
 C490 C 0.25305 1.14967 0.85307
 C491 C 0.33817 1.06822 0.93483
 C492 C 0.30658 1.08671 0.91648
 C493 C 0.28062 1.13432 0.86891
 C494 C 0.37695 1.07849 0.92488
 H495 H 0.35709 1.14867 0.85598
 H496 H 0.41274 1.11645 0.88795
 H497 H 0.33215 1.04582 0.95670
 H498 H 0.27695 1.07832 0.92444
 C499 C 0.31102 0.87987 1.11611
 C500 C 0.34917 0.86967 1.12713
 C501 C 0.38134 0.88787 1.10910
 C502 C 0.24950 0.84696 1.15033
 C503 C 0.33718 0.92641 1.06881
 C504 C 0.30513 0.90817 1.08686
 C505 C 0.27779 0.86169 1.13491
 C506 C 0.37571 0.91659 1.07981
 H507 H 0.35403 0.84778 1.14975
 H508 H 0.41056 0.87961 1.11827
 H509 H 0.33170 0.94831 1.04635
 H510 H 0.27572 0.91627 1.07809
 C511 C 0.68859 1.11107 1.12034
 C512 C 0.69487 1.08168 1.09241
 C513 C 0.66305 1.06336 1.07435
 C514 C 0.74944 1.14663 1.15245
 C515 C 0.61839 1.10357 1.11241
 C516 C 0.65032 1.12187 1.13043
 C517 C 0.72153 1.13047 1.13810
 C518 C 0.62438 1.07422 1.08399
 H519 H 0.72439 1.07310 1.08440
 H520 H 0.66880 1.04086 1.05268
 H521 H 0.58907 1.11265 1.12053
 H522 H 0.64515 1.14461 1.15201
 C523 C 0.68881 0.88525 0.88404
 C524 C 0.65054 0.87443 0.87407
 C525 C 0.61860 0.89227 0.89263
 C526 C 0.74968 0.85164 0.84970
 C527 C 0.66322 0.93195 0.93112
 C528 C 0.69506 0.91409 0.91251
 C529 C 0.72175 0.86679 0.86520
 C530 C 0.62457 0.92119 0.92148
 H531 H 0.64540 0.85215 0.85203
 H532 H 0.58929 0.88327 0.88450
 H533 H 0.66894 0.95412 0.95312
 H534 H 0.72457 0.92271 0.92042
   
