data_POSCAR
  _audit_creation_date              2014-09-24
  _audit_creation_method            'ToBaCCo'
  _symmetry_space_group_name_H-M    'P1'
  _symmetry_Int_Tables_number       1
  _symmetry_cell_setting            triclinic
  loop_
  _symmetry_equiv_pos_as_xyz
 x,y,z
_cell_length_a 52.5367
_cell_length_b 51.1308
_cell_length_c 52.7631
_cell_angle_alpha 88.780500
_cell_angle_beta 90.143500
_cell_angle_gamma 89.096600
loop_
  _atom_site_label
  _atom_site_type_symbol
  _atom_site_fract_x
  _atom_site_fract_y
  _atom_site_fract_z
C1 C 0.60680 0.64225 0.61730
 N2 N 0.60905 0.62476 0.63696
 C3 C 0.62868 0.60711 0.63810
 N4 N 0.64624 0.60725 0.61920
 C5 C 0.64425 0.62453 0.59935
 N6 N 0.62445 0.64194 0.59853
 C7 C 0.89571 0.36126 0.12540
 N8 N 0.87618 0.36171 0.10842
 C9 C 0.85666 0.37933 0.11029
 N10 N 0.85671 0.39661 0.12950
 C11 C 0.87600 0.39638 0.14670
 N12 N 0.89540 0.37870 0.14450
 C13 C 0.39921 0.14331 -0.12473
 N14 N 0.39861 0.12489 -0.14291
 C15 C 0.38031 0.10640 -0.14279
 N16 N 0.36240 0.10655 -0.12426
 C17 C 0.36278 0.12474 -0.10588
 N18 N 0.38128 0.14302 -0.10621
 C19 C 0.10803 0.85960 0.37417
 N20 N 0.10847 0.87885 0.35600
 C21 C 0.12717 0.89694 0.35550
 N22 N 0.14564 0.89559 0.37361
 C23 C 0.14561 0.87645 0.39187
 N24 N 0.12678 0.85854 0.39200
 N25 N 0.09066 0.16235 0.10181
 N26 N 0.08039 0.15045 0.12150
 C27 C 0.05905 0.16353 0.12808
 C28 C 0.05593 0.18490 0.11179
 C29 C 0.07640 0.18359 0.09539
 H30 H 0.04682 0.15816 0.14373
 H31 H 0.08032 0.19679 0.07965
 Cu32 Cu 0.09611 0.11925 0.13683
 Cu33 Cu 0.12114 0.14882 0.08535
 Cu34 Cu 0.14934 0.09296 0.11215
 N35 N 0.11275 0.08864 0.15232
 N36 N 0.13311 0.07796 0.14213
 C37 C 0.14021 0.05667 0.15600
 C38 C 0.12358 0.05405 0.17615
 C39 C 0.10644 0.07471 0.17326
 H40 H 0.15651 0.04427 0.15200
 H41 H 0.09035 0.07896 0.18530
 N42 N 0.16292 0.11106 0.08185
 N43 N 0.15201 0.13211 0.07146
 C44 C 0.16538 0.13944 0.05081
 C45 C 0.18580 0.12231 0.04820
 C46 C 0.18367 0.10461 0.06824
 H47 H 0.16078 0.15615 0.03868
 H48 H 0.19609 0.08800 0.07233
 H49 H 0.11687 0.11019 0.09659
 H50 H 0.13657 0.13089 0.11749
 N51 N 0.39710 0.83013 0.62157
 N52 N 0.40627 0.84005 0.64240
 C53 C 0.42745 0.82652 0.64935
 C54 C 0.43182 0.80701 0.63195
 C55 C 0.41211 0.80999 0.61456
 H56 H 0.43885 0.83060 0.66582
 H57 H 0.40860 0.79812 0.59825
 Cu58 Cu 0.38944 0.86947 0.65856
 Cu59 Cu 0.36596 0.84347 0.60552
 Cu60 Cu 0.33538 0.89565 0.63410
 N61 N 0.37276 0.89963 0.67360
 N62 N 0.35147 0.90954 0.66413
 C63 C 0.34407 0.93011 0.67795
 C64 C 0.36170 0.93341 0.69714
 C65 C 0.37967 0.91365 0.69375
 H66 H 0.32734 0.94208 0.67397
 H67 H 0.39646 0.90971 0.70514
 N68 N 0.32219 0.87899 0.60352
 N69 N 0.33419 0.85960 0.59224
 C70 C 0.32090 0.85310 0.57150
 C71 C 0.29941 0.86902 0.56972
 C72 C 0.30084 0.88517 0.59037
 H73 H 0.32623 0.83764 0.55880
 H74 H 0.28751 0.90058 0.59518
 H75 H 0.36866 0.88124 0.61847
 H76 H 0.34964 0.85784 0.63805
 N77 N 0.91382 0.66458 0.38911
 N78 N 0.92384 0.65377 0.36900
 C79 C 0.94526 0.66646 0.36266
 C80 C 0.94869 0.68641 0.37957
 C81 C 0.92833 0.68469 0.39607
 H82 H 0.95728 0.66184 0.34671
 H83 H 0.92463 0.69685 0.41220
 Cu84 Cu 0.90760 0.62465 0.35260
 Cu85 Cu 0.88332 0.65118 0.40533
 Cu86 Cu 0.85371 0.59945 0.37656
 N87 N 0.88986 0.59663 0.33595
 N88 N 0.86918 0.58644 0.34572
 C89 C 0.86118 0.56718 0.33077
 C90 C 0.87759 0.56538 0.31039
 C91 C 0.89553 0.58442 0.31427
 H92 H 0.84441 0.55567 0.33422
 H93 H 0.91167 0.58879 0.30232
 N94 N 0.84093 0.61534 0.40785
 N95 N 0.85234 0.63489 0.41893
 C96 C 0.83943 0.64100 0.44007
 C97 C 0.81880 0.62464 0.44235
 C98 C 0.82033 0.60867 0.42154
 H99 H 0.84452 0.65637 0.45279
 H100 H 0.80761 0.59304 0.41698
 H101 H 0.88669 0.61336 0.39252
 H102 H 0.86748 0.63696 0.37252
 N103 N 0.59520 0.34025 -0.10534
 N104 N 0.58444 0.35050 -0.12582
 C105 C 0.56370 0.33661 -0.13152
 C106 C 0.56127 0.31658 -0.11361
 C107 C 0.58166 0.31957 -0.09727
 H108 H 0.55126 0.34082 -0.14748
 H109 H 0.58661 0.30733 -0.08100
 Cu110 Cu 0.59871 0.38085 -0.14316
 Cu111 Cu 0.62646 0.35383 -0.09117
 Cu112 Cu 0.65364 0.40636 -0.12306
 N113 N 0.61415 0.41042 -0.16075
 N114 N 0.63572 0.42014 -0.15293
 C115 C 0.64203 0.44039 -0.16825
 C116 C 0.62338 0.44364 -0.18672
 C117 C 0.60599 0.42419 -0.18132
 H118 H 0.65874 0.45213 -0.16579
 H119 H 0.58873 0.42029 -0.19165
 N120 N 0.66881 0.38979 -0.09239
 N121 N 0.65812 0.37023 -0.07990
 C122 C 0.67261 0.36371 -0.05957
 C123 C 0.69352 0.37981 -0.05933
 C124 C 0.69049 0.39608 -0.08045
 H125 H 0.66852 0.34809 -0.04615
 H126 H 0.70299 0.41159 -0.08644
 H127 H 0.62194 0.39184 -0.10484
 H128 H 0.64011 0.36868 -0.12517
 C129 C -0.06281 0.34380 0.13958
 C130 C -0.04277 0.32570 0.13744
 C131 C -0.04378 0.30592 0.11953
 C132 C -0.06485 0.30498 0.10317
 C133 C -0.08470 0.32337 0.10491
 C134 C -0.08412 0.34296 0.12332
 C135 C -0.02238 0.28691 0.11794
 C136 C -0.02585 0.26170 0.11269
 C137 C -0.00462 0.24241 0.11231
 C138 C -0.00887 0.21671 0.12087
 C139 C 0.01088 0.19808 0.12094
 C140 C 0.03509 0.20466 0.11180
 C141 C 0.03919 0.23025 0.10265
 C142 C 0.01957 0.24902 0.10306
 H143 H -0.06139 0.35858 0.15390
 H144 H -0.02658 0.32689 0.15011
 H145 H -0.06584 0.29027 0.08874
 H146 H -0.10059 0.32200 0.09191
 H147 H -0.00356 0.29347 0.12299
 H148 H -0.04500 0.25455 0.11037
 H149 H -0.02743 0.21114 0.12786
 H150 H 0.00710 0.17842 0.12781
 H151 H 0.05767 0.23585 0.09550
 H152 H 0.02322 0.26857 0.09581
 C153 C 0.58264 0.67927 0.59579
 C154 C 0.56271 0.69770 0.59515
 C155 C 0.54530 0.69913 0.61520
 C156 C 0.54783 0.68120 0.63571
 C157 C 0.56772 0.66272 0.63633
 C158 C 0.58546 0.66161 0.61645
 C159 C 0.52445 0.71900 0.61371
 C160 C 0.51266 0.72847 0.63418
 C161 C 0.49210 0.74868 0.63281
 C162 C 0.48741 0.76394 0.65413
 C163 C 0.46801 0.78296 0.65381
 C164 C 0.45263 0.78701 0.63219
 C165 C 0.45717 0.77152 0.61091
 C166 C 0.47661 0.75253 0.61122
 H167 H 0.59584 0.67890 0.58007
 H168 H 0.56104 0.71108 0.57901
 H169 H 0.53430 0.68106 0.65112
 H170 H 0.56915 0.64928 0.65243
 H171 H 0.51975 0.72704 0.59511
 H172 H 0.51909 0.72226 0.65290
 H173 H 0.49887 0.76119 0.67110
 H174 H 0.46496 0.79423 0.67068
 H175 H 0.44575 0.77400 0.59392
 H176 H 0.47905 0.74064 0.59466
 C177 C 1.06760 0.84369 0.35767
 C178 C 1.04785 0.82571 0.35845
 C179 C 1.04864 0.80443 0.37559
 C180 C 1.06927 0.80169 0.39246
 C181 C 1.08882 0.81994 0.39210
 C182 C 1.08837 0.84118 0.37460
 C183 C 1.02732 0.78591 0.37606
 C184 C 1.03074 0.76023 0.38065
 C185 C 1.00945 0.74169 0.38040
 C186 C 1.01358 0.71651 0.37108
 C187 C 0.99375 0.69862 0.37053
 C188 C 0.96960 0.70540 0.37996
 C189 C 0.96562 0.73042 0.38982
 C190 C 0.98531 0.74849 0.38988
 H191 H 1.06631 0.85974 0.34398
 H192 H 1.03200 0.82829 0.34540
 H193 H 1.07008 0.78575 0.40630
 H194 H 1.10431 0.81723 0.40553
 H195 H 1.00856 0.79342 0.37094
 H196 H 1.04986 0.75228 0.38307
 H197 H 1.03211 0.71080 0.36391
 H198 H 0.99742 0.67936 0.36310
 H199 H 0.94719 0.73616 0.39718
 H200 H 0.98175 0.76760 0.39771
 C201 C 0.43670 0.16500 -0.14519
 C202 C 0.45507 0.18448 -0.14592
 C203 C 0.45642 0.20289 -0.12664
 C204 C 0.43868 0.20167 -0.10672
 C205 C 0.42026 0.18224 -0.10602
 C206 C 0.41904 0.16366 -0.12524
 C207 C 0.47584 0.22356 -0.12852
 C208 C 0.48475 0.23625 -0.10842
 C209 C 0.50428 0.25681 -0.11040
 C210 C 0.51956 0.26162 -0.08922
 C211 C 0.53808 0.28095 -0.09025
 C212 C 0.54153 0.29614 -0.11246
 C213 C 0.52592 0.29161 -0.13355
 C214 C 0.50748 0.27222 -0.13254
 H215 H 0.43627 0.15111 -0.16039
 H216 H 0.46834 0.18512 -0.16159
 H217 H 0.43855 0.21599 -0.09192
 H218 H 0.40684 0.18193 -0.09047
 H219 H 0.48389 0.22748 -0.14706
 H220 H 0.47859 0.23056 -0.08957
 H221 H 0.51728 0.25026 -0.07183
 H222 H 0.54948 0.28408 -0.07352
 H223 H 0.52798 0.30291 -0.15097
 H224 H 0.49553 0.26969 -0.14901
 C225 C 0.14526 -0.06300 0.33720
 C226 C 0.14525 -0.04325 0.31846
 C227 C 0.12794 -0.04367 0.29824
 C228 C 0.11009 -0.06378 0.29739
 C229 C 0.10968 -0.08323 0.31638
 C230 C 0.12739 -0.08328 0.33652
 C231 C 0.12826 -0.02248 0.27877
 C232 C 0.12375 -0.02680 0.25424
 C233 C 0.12414 -0.00568 0.23470
 C234 C 0.13330 -0.01117 0.21041
 C235 C 0.13354 0.00837 0.19148
 C236 C 0.12392 0.03356 0.19633
 C237 C 0.11437 0.03893 0.22053
 C238 C 0.11464 0.01955 0.23962
 H239 H 0.15914 -0.06210 0.35236
 H240 H 0.15903 -0.02777 0.31957
 H241 H 0.09612 -0.06422 0.28229
 H242 H 0.09553 -0.09833 0.31507
 H243 H 0.13372 -0.00316 0.28461
 H244 H 0.12099 -0.04663 0.24802
 H245 H 0.14048 -0.03056 0.20617
 H246 H 0.14076 0.00363 0.17290
 H247 H 0.10689 0.05819 0.22479
 H248 H 0.10694 0.02417 0.25804
 C249 C 0.65105 0.57055 -0.34025
 C250 C 0.65281 0.55222 -0.32027
 C251 C 0.63424 0.55143 -0.30125
 C252 C 0.61413 0.56992 -0.30220
 C253 C 0.61235 0.58833 -0.32212
 C254 C 0.63069 0.58884 -0.34159
 C255 C 0.63685 0.53158 -0.28047
 C256 C 0.61701 0.52261 -0.26707
 C257 C 0.61942 0.50232 -0.24666
 C258 C 0.59804 0.48748 -0.24033
 C259 C 0.59934 0.46836 -0.22103
 C260 C 0.62206 0.46379 -0.20739
 C261 C 0.64342 0.47888 -0.21353
 C262 C 0.64212 0.49797 -0.23289
 H263 H 0.66570 0.57025 -0.35464
 H264 H 0.66864 0.53838 -0.31983
 H265 H 0.59991 0.57055 -0.28743
 H266 H 0.59651 0.60215 -0.32216
 H267 H 0.65560 0.52308 -0.27721
 H268 H 0.59795 0.52928 -0.27203
 H269 H 0.58024 0.49062 -0.25043
 H270 H 0.58240 0.45742 -0.21668
 H271 H 0.66123 0.47598 -0.20347
 H272 H 0.65882 0.50953 -0.23663
 C273 C 0.39921 1.08508 0.81901
 C274 C 0.39916 1.06567 0.80075
 C275 C 0.37985 1.04704 0.80036
 C276 C 0.36071 1.04796 0.81895
 C277 C 0.36078 1.06732 0.83725
 C278 C 0.38002 1.08613 0.83751
 C279 C 0.38087 1.02647 0.78097
 C280 C 0.36032 1.01361 0.77313
 C281 C 0.36137 0.99312 0.75367
 C282 C 0.33930 0.98802 0.73973
 C283 C 0.33941 0.96872 0.72136
 C284 C 0.36157 0.95384 0.71671
 C285 C 0.38358 0.95867 0.73098
 C286 C 0.38350 0.97804 0.74928
 H287 H 0.41440 1.09914 0.81868
 H288 H 0.41425 1.06526 0.78680
 H289 H 0.34595 1.03346 0.81983
 H290 H 0.34582 1.06739 0.85133
 H291 H 0.39908 1.02279 0.77207
 H292 H 0.34171 1.01908 0.78020
 H293 H 0.32192 0.99913 0.74295
 H294 H 0.32200 0.96536 0.71103
 H295 H 0.40100 0.94762 0.72797
 H296 H 0.40067 0.98079 0.76019
 C297 C 0.89049 0.40985 0.18968
 C298 C 0.89005 0.42722 0.20977
 C299 C 0.87542 0.45036 0.20815
 C300 C 0.86066 0.45557 0.18630
 C301 C 0.86075 0.43797 0.16637
 C302 C 0.87579 0.41500 0.16779
 C303 C 0.87533 0.46825 0.22980
 C304 C 0.87330 0.49429 0.22685
 C305 C 0.87419 0.51215 0.24850
 C306 C 0.88543 0.53668 0.24523
 C307 C 0.88674 0.55390 0.26540
 C308 C 0.87624 0.54714 0.28906
 C309 C 0.86445 0.52283 0.29217
 C310 C 0.86354 0.50542 0.27213
 H311 H 0.90210 0.39221 0.19144
 H312 H 0.90139 0.42271 0.22652
 H313 H 0.84870 0.47296 0.18477
 H314 H 0.84916 0.44244 0.14979
 H315 H 0.87871 0.45979 0.24854
 H316 H 0.87268 0.50294 0.20793
 H317 H 0.89353 0.54237 0.22711
 H318 H 0.89567 0.57264 0.26235
 H319 H 0.85621 0.51709 0.31019
 H320 H 0.85419 0.48688 0.27504
 C321 C 0.34705 0.13836 -0.06324
 C322 C 0.32869 0.13801 -0.04410
 C323 C 0.30595 0.12444 -0.04724
 C324 C 0.30212 0.11063 -0.06967
 C325 C 0.32062 0.11067 -0.08865
 C326 C 0.34324 0.12464 -0.08571
 C327 C 0.28702 0.12426 -0.02652
 C328 C 0.26191 0.12308 -0.03077
 C329 C 0.24294 0.12311 -0.01009
 C330 C 0.21879 0.13434 -0.01466
 C331 C 0.20033 0.13439 0.00437
 C332 C 0.20549 0.12266 0.02819
 C333 C 0.22955 0.11104 0.03264
 C334 C 0.24814 0.11135 0.01374
 H335 H 0.36435 0.14914 -0.06030
 H336 H 0.33215 0.14857 -0.02688
 H337 H 0.28508 0.09939 -0.07238
 H338 H 0.31714 0.09982 -0.10569
 H339 H 0.29397 0.12662 -0.00737
 H340 H 0.25483 0.12352 -0.05007
 H341 H 0.21427 0.14327 -0.03296
 H342 H 0.18187 0.14320 0.00025
 H343 H 0.23411 0.10189 0.05081
 H344 H 0.26636 0.10192 0.01765
 C345 C 0.65879 0.63803 0.55582
 C346 C 0.67685 0.63775 0.53642
 C347 C 0.70012 0.62430 0.53975
 C348 C 0.70478 0.61051 0.56269
 C349 C 0.68660 0.61051 0.58199
 C350 C 0.66345 0.62439 0.57883
 C351 C 0.71874 0.62435 0.51874
 C352 C 0.74395 0.62275 0.52257
 C353 C 0.76262 0.62332 0.50161
 C354 C 0.78678 0.63363 0.50594
 C355 C 0.80494 0.63430 0.48663
 C356 C 0.79946 0.62417 0.46272
 C357 C 0.77540 0.61343 0.45850
 C358 C 0.75712 0.61305 0.47772
 H359 H 0.64107 0.64874 0.55269
 H360 H 0.67273 0.64831 0.51882
 H361 H 0.72223 0.59931 0.56561
 H362 H 0.69075 0.59971 0.59942
 H363 H 0.71143 0.62733 0.49967
 H364 H 0.75136 0.62254 0.54176
 H365 H 0.79155 0.64139 0.52427
 H366 H 0.82341 0.64239 0.49061
 H367 H 0.77057 0.60549 0.44029
 H368 H 0.73892 0.60430 0.47395
 C369 C 0.81279 0.39350 0.09636
 C370 C 0.79277 0.39350 0.07886
 C371 C 0.79521 0.38008 0.05607
 C372 C 0.81790 0.36607 0.05133
 C373 C 0.83781 0.36580 0.06896
 C374 C 0.83553 0.37960 0.09163
 C375 C 0.77352 0.38029 0.03811
 C376 C 0.77652 0.37862 0.01297
 C377 C 0.75485 0.37910 -0.00503
 C378 C 0.75840 0.38932 -0.02962
 C379 C 0.73843 0.38981 -0.04718
 C380 C 0.71460 0.37959 -0.04063
 C381 C 0.71116 0.36896 -0.01612
 C382 C 0.73104 0.36877 0.00154
 H383 H 0.81033 0.40417 0.11372
 H384 H 0.77538 0.40422 0.08304
 H385 H 0.82014 0.35490 0.03427
 H386 H 0.85502 0.35480 0.06477
 H387 H 0.75464 0.38335 0.04580
 H388 H 0.79553 0.37832 0.00507
 H389 H 0.77665 0.39713 -0.03520
 H390 H 0.74180 0.39782 -0.06600
 H391 H 0.69303 0.36096 -0.01047
 H392 H 0.72786 0.36009 0.02012
 C393 C 0.18834 0.88940 0.40827
 C394 C 0.20745 0.88814 0.42675
 C395 C 0.20428 0.87311 0.44903
 C396 C 0.18188 0.85872 0.45221
 C397 C 0.16290 0.85970 0.43359
 C398 C 0.16584 0.87518 0.41148
 C399 C 0.22493 0.87224 0.46818
 C400 C 0.22052 0.86925 0.49307
 C401 C 0.24109 0.86913 0.51229
 C402 C 0.23580 0.87857 0.53650
 C403 C 0.25479 0.87873 0.55510
 C404 C 0.27933 0.86892 0.54999
 C405 C 0.28449 0.85897 0.52589
 C406 C 0.26560 0.85914 0.50718
 H407 H 0.19130 0.90135 0.39137
 H408 H 0.22466 0.89919 0.42377
 H409 H 0.17915 0.84636 0.46886
 H410 H 0.14586 0.84842 0.43660
 H411 H 0.24412 0.87578 0.46163
 H412 H 0.20109 0.86849 0.49984
 H413 H 0.21698 0.88610 0.54095
 H414 H 0.25011 0.88621 0.57358
 H415 H 0.30321 0.85130 0.52136
 H416 H 0.27011 0.85107 0.48891
   
