data_POSCAR
  _audit_creation_date              2014-09-24
  _audit_creation_method            'ToBaCCo'
  _symmetry_space_group_name_H-M    'P1'
  _symmetry_Int_Tables_number       1
  _symmetry_cell_setting            triclinic
  loop_
  _symmetry_equiv_pos_as_xyz
 x,y,z
_cell_length_a 37.2347
_cell_length_b 37.0978
_cell_length_c 37.6560
_cell_angle_alpha 90.000100
_cell_angle_beta 90.000100
_cell_angle_gamma 89.567200
loop_
  _atom_site_label
  _atom_site_type_symbol
  _atom_site_fract_x
  _atom_site_fract_y
  _atom_site_fract_z
N1 N 0.22876 0.22248 0.22062
 N2 N 0.77121 -0.22246 0.22061
 N3 N 0.79488 0.20661 0.78689
 N4 N 0.20510 -0.20660 0.78689
 N5 N 0.70728 -0.29060 0.72512
 N6 N 0.29267 0.29061 0.72512
 N7 N 0.21047 -0.21003 0.22744
 N8 N 0.78948 0.21005 0.22745
 O9 O 0.22064 0.04586 0.47030
 O10 O 0.21570 -0.02052 0.54255
 O11 O 0.22258 0.04931 0.53923
 O12 O 0.21434 -0.02350 0.47323
 O13 O 0.27346 -0.02964 0.47216
 O14 O 0.28169 0.04314 0.53803
 O15 O 0.27480 -0.02674 0.54156
 O16 O 0.27978 0.03980 0.46900
 Cu17 Cu 0.21234 0.01332 0.50658
 Cu18 Cu 0.28341 0.00593 0.50521
 C19 C 0.25095 0.05387 0.45728
 C20 C 0.24436 -0.03477 0.55434
 C21 C 0.25356 0.05867 0.54957
 C22 C 0.24256 -0.03847 0.46116
 O23 O 0.78427 0.02053 0.54255
 O24 O 0.77932 -0.04585 0.47030
 O25 O 0.78562 0.02352 0.47323
 O26 O 0.77738 -0.04930 0.53923
 O27 O 0.71827 -0.04313 0.53803
 O28 O 0.72650 0.02965 0.47216
 O29 O 0.72019 -0.03978 0.46900
 O30 O 0.72516 0.02675 0.54156
 Cu31 Cu 0.78762 -0.01331 0.50658
 Cu32 Cu 0.71656 -0.00592 0.50521
 C33 C 0.75560 0.03477 0.55434
 C34 C 0.74901 -0.05386 0.45728
 C35 C 0.75740 0.03848 0.46116
 C36 C 0.74640 -0.05866 0.54957
 O37 O 0.47386 0.21413 0.03529
 O38 O 0.54646 0.21190 -0.03083
 O39 O 0.54386 0.20935 0.03787
 O40 O 0.47686 0.21724 -0.03384
 O41 O 0.48065 0.27665 -0.03122
 O42 O 0.54748 0.26878 0.04040
 O43 O 0.55033 0.27132 -0.02833
 O44 O 0.47743 0.27354 0.03793
 Cu45 Cu 0.50976 0.20716 0.00195
 Cu46 Cu 0.51423 0.27858 0.00503
 C47 C 0.46331 0.24415 0.04771
 C48 C 0.56080 0.24116 -0.04060
 C49 C 0.55732 0.23776 0.05089
 C50 C 0.46764 0.24831 -0.04478
 O51 O 0.52609 0.78587 0.03530
 O52 O 0.45350 0.78809 -0.03082
 O53 O 0.45610 0.79064 0.03788
 O54 O 0.52309 0.78276 -0.03383
 O55 O 0.51931 0.72335 -0.03121
 O56 O 0.45248 0.73121 0.04042
 O57 O 0.44963 0.72867 -0.02832
 O58 O 0.52253 0.72646 0.03794
 Cu59 Cu 0.49020 0.79283 0.00196
 Cu60 Cu 0.48574 0.72141 0.00504
 C61 C 0.53665 0.75585 0.04773
 C62 C 0.43916 0.75883 -0.04059
 C63 C 0.44263 0.76223 0.05090
 C64 C 0.53232 0.75169 -0.04477
 O65 O 0.03631 0.46619 0.21716
 O66 O -0.03636 0.53382 0.21716
 O67 O 0.03326 0.53645 0.21745
 O68 O -0.03330 0.46356 0.21745
 O69 O -0.03334 0.46355 0.27618
 O70 O 0.03330 0.53646 0.27618
 O71 O -0.03642 0.53395 0.27590
 O72 O 0.03639 0.46606 0.27589
 Cu73 Cu -0.00002 0.50001 0.21138
 Cu74 Cu -0.00002 0.50001 0.28198
 C75 C 0.04844 0.45449 0.24647
 C76 C -0.04848 0.54552 0.24648
 C77 C 0.04433 0.54893 0.24681
 C78 C -0.04437 0.45108 0.24681
 O79 O 0.02997 0.53911 0.78678
 O80 O -0.03002 0.46091 0.78677
 O81 O 0.03933 0.46947 0.78649
 O82 O -0.03937 0.53056 0.78649
 O83 O -0.03921 0.53043 0.72776
 O84 O 0.03917 0.46959 0.72775
 O85 O -0.03012 0.46076 0.72804
 O86 O 0.03008 0.53927 0.72804
 Cu87 Cu -0.00002 0.50001 0.79256
 Cu88 Cu -0.00002 0.50001 0.72197
 C89 C 0.04014 0.55243 0.75748
 C90 C -0.04019 0.44760 0.75748
 C91 C 0.05249 0.45923 0.75704
 C92 C -0.05254 0.54079 0.75705
 C93 C 0.37988 0.24315 0.11830
 C94 C 0.35080 0.26765 0.11438
 C95 C 0.32019 0.26469 0.13671
 C96 C 0.31887 0.23726 0.16280
 C97 C 0.34844 0.21353 0.16752
 C98 C 0.37904 0.21647 0.14518
 C99 C 0.40816 0.19224 0.15020
 C100 C 0.40707 0.16590 0.17657
 C101 C 0.37714 0.16304 0.19842
 C102 C 0.34808 0.18650 0.19406
 C103 C 0.29131 0.28929 0.13214
 C104 C 0.29266 0.31611 0.10629
 C105 C 0.32259 0.31901 0.08444
 C106 C 0.35139 0.29511 0.08830
 C107 C 0.28666 0.23260 0.18393
 C108 C 0.25976 0.22811 0.20112
 C109 C 0.40994 0.24441 0.09379
 C110 C 0.43453 0.24471 0.07297
 H111 H 0.43206 0.19345 0.13392
 H112 H 0.42960 0.14762 0.18007
 H113 H 0.37643 0.14256 0.21888
 H114 H 0.32545 0.18329 0.21176
 H115 H 0.26747 0.28810 0.14851
 H116 H 0.27035 0.33473 0.10319
 H117 H 0.32351 0.33989 0.06438
 H118 H 0.37412 0.29848 0.07073
 C119 C 0.62008 0.75685 0.11831
 C120 C 0.62093 0.78355 0.14518
 C121 C 0.65153 0.78649 0.16751
 C122 C 0.68110 0.76275 0.16280
 C123 C 0.67978 0.73532 0.13672
 C124 C 0.64916 0.73235 0.11439
 C125 C 0.64856 0.70488 0.08832
 C126 C 0.67736 0.68098 0.08446
 C127 C 0.70730 0.68389 0.10631
 C128 C 0.70865 0.71072 0.13216
 C129 C 0.65189 0.81352 0.19405
 C130 C 0.62284 0.83699 0.19841
 C131 C 0.59290 0.83413 0.17656
 C132 C 0.59182 0.80778 0.15020
 C133 C 0.71330 0.76741 0.18392
 C134 C 0.74021 0.77191 0.20112
 C135 C 0.59002 0.75560 0.09380
 C136 C 0.56543 0.75529 0.07298
 H137 H 0.62583 0.70151 0.07075
 H138 H 0.67644 0.66010 0.06441
 H139 H 0.72960 0.66527 0.10321
 H140 H 0.73249 0.71191 0.14852
 H141 H 0.67453 0.81674 0.21175
 H142 H 0.62356 0.85748 0.21886
 H143 H 0.57038 0.85241 0.18005
 H144 H 0.56791 0.80656 0.13392
 C145 C 0.64498 0.23489 -0.11008
 C146 C 0.67644 0.25514 -0.10378
 C147 C 0.70698 0.25027 -0.12594
 C148 C 0.70588 0.22519 -0.15425
 C149 C 0.67409 0.20572 -0.16120
 C150 C 0.64355 0.21056 -0.13902
 C151 C 0.61215 0.19059 -0.14632
 C152 C 0.61096 0.16658 -0.17476
 C153 C 0.64082 0.16189 -0.19648
 C154 C 0.67209 0.18117 -0.18989
 C155 C 0.73820 0.27065 -0.11903
 C156 C 0.73919 0.29521 -0.09105
 C157 C 0.70933 0.29995 -0.06935
 C158 C 0.67825 0.28020 -0.07550
 C159 C 0.73769 0.21875 -0.17564
 C160 C 0.76425 0.21314 -0.19316
 C161 C 0.61467 0.23802 -0.08601
 C162 C 0.58985 0.23988 -0.06553
 H163 H 0.58821 0.19339 -0.13024
 H164 H 0.58671 0.15156 -0.18000
 H165 H 0.63976 0.14325 -0.21857
 H166 H 0.69458 0.17671 -0.20757
 H167 H 0.76211 0.26787 -0.13515
 H168 H 0.76328 0.31061 -0.08617
 H169 H 0.71024 0.31903 -0.04762
 H170 H 0.65568 0.28487 -0.05794
 C171 C 0.35498 0.76511 -0.11007
 C172 C 0.35642 0.78943 -0.13902
 C173 C 0.32588 0.79427 -0.16120
 C174 C 0.29409 0.77481 -0.15425
 C175 C 0.29298 0.74973 -0.12594
 C176 C 0.32352 0.74486 -0.10378
 C177 C 0.32170 0.71981 -0.07549
 C178 C 0.29062 0.70006 -0.06934
 C179 C 0.26076 0.70481 -0.09104
 C180 C 0.26175 0.72936 -0.11902
 C181 C 0.32789 0.81882 -0.18989
 C182 C 0.35917 0.83809 -0.19648
 C183 C 0.38903 0.83340 -0.17477
 C184 C 0.38782 0.80939 -0.14632
 C185 C 0.26228 0.78126 -0.17564
 C186 C 0.23572 0.78687 -0.19316
 C187 C 0.38529 0.76197 -0.08600
 C188 C 0.41011 0.76011 -0.06552
 H189 H 0.34427 0.71513 -0.05793
 H190 H 0.28971 0.68098 -0.04761
 H191 H 0.23667 0.68941 -0.08617
 H192 H 0.23785 0.73214 -0.13515
 H193 H 0.30540 0.82328 -0.20757
 H194 H 0.36024 0.85672 -0.21857
 H195 H 0.41327 0.84841 -0.18000
 H196 H 0.41177 0.80659 -0.13024
 C197 C 0.12321 0.37331 0.24357
 C198 C 0.11915 0.34321 0.26631
 C199 C 0.14227 0.31279 0.26257
 C200 C 0.16934 0.31271 0.23616
 C201 C 0.17424 0.34331 0.21429
 C202 C 0.15108 0.37371 0.21799
 C203 C 0.15627 0.40387 0.19559
 C204 C 0.18362 0.40401 0.17032
 C205 C 0.20630 0.37429 0.16674
 C206 C 0.20177 0.34420 0.18839
 C207 C 0.13747 0.28285 0.28534
 C208 C 0.11069 0.28300 0.31118
 C209 C 0.08809 0.31276 0.31487
 C210 C 0.09212 0.34258 0.29274
 C211 C 0.19128 0.28070 0.23074
 C212 C 0.20893 0.25374 0.22605
 C213 C 0.09762 0.40297 0.24532
 C214 C 0.07558 0.42692 0.24618
 H215 H 0.13938 0.42765 0.19746
 H216 H 0.18725 0.42732 0.15345
 H217 H 0.22752 0.37453 0.14710
 H218 H 0.22011 0.32176 0.18469
 H219 H 0.15434 0.25907 0.28345
 H220 H 0.10744 0.25989 0.32841
 H221 H 0.06731 0.31276 0.33497
 H222 H 0.07393 0.36511 0.29667
 C223 C 0.10598 0.64003 0.76185
 C224 C 0.13269 0.64127 0.78861
 C225 C 0.15401 0.67261 0.79261
 C226 C 0.14847 0.70253 0.76986
 C227 C 0.12248 0.70093 0.74249
 C228 C 0.10115 0.66957 0.73847
 C229 C 0.07517 0.66866 0.71105
 C230 C 0.07047 0.69788 0.68820
 C231 C 0.09136 0.72853 0.69211
 C232 C 0.11708 0.73020 0.71893
 C233 C 0.18044 0.67331 0.81962
 C234 C 0.18566 0.64388 0.84207
 C235 C 0.16478 0.61323 0.83819
 C236 C 0.13856 0.61179 0.81182
 C237 C 0.16888 0.73522 0.77530
 C238 C 0.18575 0.76232 0.78048
 C239 C 0.08282 0.60884 0.75919
 C240 C 0.06339 0.58303 0.75789
 H241 H 0.05834 0.64539 0.70693
 H242 H 0.05052 0.69671 0.66733
 H243 H 0.08762 0.75114 0.67428
 H244 H 0.13269 0.75459 0.72093
 H245 H 0.19741 0.69650 0.82362
 H246 H 0.20602 0.64487 0.86257
 H247 H 0.16894 0.59042 0.85568
 H248 H 0.12307 0.58731 0.80981
 C249 C -0.12325 0.62671 0.24358
 C250 C -0.11919 0.65681 0.26632
 C251 C -0.14231 0.68722 0.26257
 C252 C -0.16938 0.68731 0.23617
 C253 C -0.17427 0.65671 0.21429
 C254 C -0.15112 0.62631 0.21799
 C255 C -0.15631 0.59615 0.19560
 C256 C -0.18366 0.59601 0.17032
 C257 C -0.20633 0.62573 0.16674
 C258 C -0.20180 0.65582 0.18839
 C259 C -0.13751 0.71716 0.28535
 C260 C -0.11073 0.71701 0.31119
 C261 C -0.08813 0.68725 0.31488
 C262 C -0.09216 0.65743 0.29275
 C263 C -0.19131 0.71932 0.23074
 C264 C -0.20896 0.74628 0.22604
 C265 C -0.09766 0.59704 0.24533
 C266 C -0.07562 0.57310 0.24619
 H267 H -0.13941 0.57236 0.19747
 H268 H -0.18729 0.57270 0.15345
 H269 H -0.22755 0.62549 0.14709
 H270 H -0.22014 0.67826 0.18468
 H271 H -0.15438 0.74094 0.28346
 H272 H -0.10748 0.74012 0.32842
 H273 H -0.06735 0.68725 0.33498
 H274 H -0.07397 0.63490 0.29668
 C275 C -0.10603 0.36000 0.76185
 C276 C -0.13272 0.35875 0.78861
 C277 C -0.15404 0.32740 0.79261
 C278 C -0.14851 0.29749 0.76986
 C279 C -0.12253 0.29910 0.74248
 C280 C -0.10120 0.33046 0.73846
 C281 C -0.07524 0.33138 0.71103
 C282 C -0.07055 0.30217 0.68816
 C283 C -0.09144 0.27152 0.69207
 C284 C -0.11714 0.26984 0.71891
 C285 C -0.18046 0.32670 0.81964
 C286 C -0.18567 0.35612 0.84210
 C287 C -0.16480 0.38677 0.83822
 C288 C -0.13859 0.38822 0.81184
 C289 C -0.16892 0.26480 0.77530
 C290 C -0.18578 0.23769 0.78048
 C291 C -0.08286 0.39118 0.75919
 C292 C -0.06344 0.41700 0.75788
 H293 H -0.05841 0.35466 0.70690
 H294 H -0.05060 0.30334 0.66729
 H295 H -0.08770 0.24891 0.67424
 H296 H -0.13275 0.24544 0.72091
 H297 H -0.19743 0.30351 0.82364
 H298 H -0.20602 0.35513 0.86260
 H299 H -0.16894 0.40958 0.85572
 H300 H -0.12309 0.41270 0.80982
 C301 C 0.25169 0.12321 0.37293
 C302 C 0.27336 0.11568 0.34289
 C303 C 0.27024 0.13744 0.31197
 C304 C 0.24543 0.16653 0.31128
 C305 C 0.22475 0.17490 0.34177
 C306 C 0.22786 0.15315 0.37269
 C307 C 0.20663 0.16182 0.40274
 C308 C 0.18306 0.19118 0.40225
 C309 C 0.18008 0.21249 0.37201
 C310 C 0.20062 0.20457 0.34205
 C311 C 0.29200 0.12930 0.28216
 C312 C 0.31620 0.10047 0.28290
 C313 C 0.31920 0.07913 0.31312
 C314 C 0.29808 0.08650 0.34284
 C315 C 0.24010 0.18694 0.27882
 C316 C 0.23501 0.20357 0.25176
 C317 C 0.25258 0.09922 0.40337
 C318 C 0.25238 0.07878 0.42825
 H319 H 0.20810 0.14611 0.42691
 H320 H 0.16707 0.19746 0.42548
 H321 H 0.16178 0.23531 0.37177
 H322 H 0.19750 0.22201 0.31922
 H323 H 0.29064 0.14514 0.25807
 H324 H 0.33269 0.09466 0.25989
 H325 H 0.33801 0.05674 0.31356
 H326 H 0.30143 0.06921 0.36576
 C327 C 0.76421 0.10502 0.63753
 C328 C 0.74179 0.10114 0.66764
 C329 C 0.74723 0.12320 0.69800
 C330 C 0.77502 0.14904 0.69801
 C331 C 0.79671 0.15370 0.66751
 C332 C 0.79131 0.13161 0.63718
 C333 C 0.81351 0.13658 0.60709
 C334 C 0.84025 0.16268 0.60696
 C335 C 0.84550 0.18431 0.63663
 C336 C 0.82408 0.17997 0.66664
 C337 C 0.72470 0.11863 0.72791
 C338 C 0.69745 0.09308 0.72780
 C339 C 0.69210 0.07153 0.69810
 C340 C 0.71396 0.07536 0.66831
 C341 C 0.78190 0.17011 0.72971
 C342 C 0.78788 0.18723 0.75624
 C343 C 0.76036 0.08075 0.60755
 C344 C 0.75780 0.06004 0.58304
 H345 H 0.81039 0.12047 0.58334
 H346 H 0.85695 0.16615 0.58370
 H347 H 0.86628 0.20456 0.63640
 H348 H 0.82913 0.19747 0.68904
 H349 H 0.72785 0.13473 0.75164
 H350 H 0.68044 0.08999 0.75089
 H351 H 0.67091 0.05171 0.69814
 H352 H 0.70872 0.05801 0.64583
 C353 C 0.23576 -0.10502 0.63752
 C354 C 0.25820 -0.10114 0.66763
 C355 C 0.25275 -0.12320 0.69799
 C356 C 0.22496 -0.14903 0.69801
 C357 C 0.20325 -0.15369 0.66752
 C358 C 0.20865 -0.13159 0.63718
 C359 C 0.18644 -0.13656 0.60709
 C360 C 0.15970 -0.16265 0.60697
 C361 C 0.15444 -0.18427 0.63664
 C362 C 0.17588 -0.17995 0.66665
 C363 C 0.27530 -0.11864 0.72789
 C364 C 0.30255 -0.09310 0.72777
 C365 C 0.30790 -0.07155 0.69808
 C366 C 0.28604 -0.07537 0.66829
 C367 C 0.21807 -0.17010 0.72971
 C368 C 0.21209 -0.18722 0.75624
 C369 C 0.23961 -0.08074 0.60754
 C370 C 0.24216 -0.06003 0.58303
 H371 H 0.18956 -0.12045 0.58335
 H372 H 0.14298 -0.16612 0.58372
 H373 H 0.13366 -0.20452 0.63642
 H374 H 0.17082 -0.19745 0.68905
 H375 H 0.27214 -0.13474 0.75162
 H376 H 0.31958 -0.09002 0.75086
 H377 H 0.32910 -0.05174 0.69811
 H378 H 0.29127 -0.05802 0.64581
 C379 C 0.74828 -0.12319 0.37292
 C380 C 0.77209 -0.15314 0.37269
 C381 C 0.77520 -0.17489 0.34177
 C382 C 0.75454 -0.16651 0.31127
 C383 C 0.72974 -0.13741 0.31195
 C384 C 0.72662 -0.11565 0.34288
 C385 C 0.70192 -0.08646 0.34282
 C386 C 0.68081 -0.07906 0.31309
 C387 C 0.68381 -0.10040 0.28287
 C388 C 0.70799 -0.12925 0.28214
 C389 C 0.79932 -0.20457 0.34205
 C390 C 0.81985 -0.21250 0.37202
 C391 C 0.81686 -0.19120 0.40226
 C392 C 0.79331 -0.16182 0.40274
 C393 C 0.75987 -0.18692 0.27881
 C394 C 0.76496 -0.20355 0.25176
 C395 C 0.74738 -0.09920 0.40337
 C396 C 0.74759 -0.07876 0.42824
 H397 H 0.69857 -0.06916 0.36574
 H398 H 0.66201 -0.05667 0.31352
 H399 H 0.66734 -0.09459 0.25986
 H400 H 0.70936 -0.14509 0.25805
 H401 H 0.80245 -0.22200 0.31923
 H402 H 0.83814 -0.23533 0.37179
 H403 H 0.83285 -0.19748 0.42549
 H404 H 0.79183 -0.14611 0.42692
 C405 C 0.60299 0.74101 -0.12737
 C406 C 0.59940 0.76347 -0.15760
 C407 C 0.62200 0.75788 -0.18755
 C408 C 0.64806 0.72990 -0.18708
 C409 C 0.65233 0.70809 -0.15650
 C410 C 0.62971 0.71365 -0.12655
 C411 C 0.63434 0.69135 -0.09637
 C412 C 0.66059 0.66437 -0.09578
 C413 C 0.68272 0.65895 -0.12506
 C414 C 0.67874 0.68047 -0.15515
 C415 C 0.61776 0.78050 -0.21756
 C416 C 0.59200 0.80793 -0.21794
 C417 C 0.56990 0.81341 -0.18865
 C418 C 0.57342 0.79150 -0.15877
 C419 C 0.66975 0.72290 -0.21839
 C420 C 0.68737 0.71674 -0.24460
 C421 C 0.57846 0.74530 -0.09765
 C422 C 0.55762 0.74845 -0.07331
 H423 H 0.61782 0.69457 -0.07292
 H424 H 0.66379 0.64759 -0.07245
 H425 H 0.70308 0.63798 -0.12447
 H426 H 0.69663 0.67529 -0.17724
 H427 H 0.63431 0.77728 -0.24097
 H428 H 0.58915 0.82500 -0.24110
 H429 H 0.54991 0.83474 -0.18908
 H430 H 0.55564 0.79684 -0.13662
 C431 C 0.39697 0.25900 -0.12738
 C432 C 0.37024 0.28636 -0.12656
 C433 C 0.34761 0.29191 -0.15650
 C434 C 0.35188 0.27011 -0.18709
 C435 C 0.37795 0.24213 -0.18756
 C436 C 0.40056 0.23655 -0.15762
 C437 C 0.42655 0.20852 -0.15879
 C438 C 0.43006 0.18662 -0.18868
 C439 C 0.40797 0.19209 -0.21797
 C440 C 0.38219 0.21952 -0.21758
 C441 C 0.32120 0.31952 -0.15514
 C442 C 0.31722 0.34104 -0.12505
 C443 C 0.33935 0.33562 -0.09577
 C444 C 0.36561 0.30865 -0.09637
 C445 C 0.33019 0.27711 -0.21839
 C446 C 0.31258 0.28328 -0.24460
 C447 C 0.42150 0.25471 -0.09766
 C448 C 0.44233 0.25156 -0.07333
 H449 H 0.44432 0.20318 -0.13664
 H450 H 0.45005 0.16528 -0.18911
 H451 H 0.41081 0.17503 -0.24113
 H452 H 0.36565 0.22275 -0.24099
 H453 H 0.30331 0.32471 -0.17723
 H454 H 0.29685 0.36201 -0.12446
 H455 H 0.33615 0.35240 -0.07244
 H456 H 0.38213 0.30542 -0.07292
 C457 C 0.36033 0.76969 0.12250
 C458 C 0.36107 0.79422 0.15129
 C459 C 0.33069 0.79769 0.17396
 C460 C 0.29977 0.77667 0.16763
 C461 C 0.29932 0.75158 0.13931
 C462 C 0.32969 0.74806 0.11668
 C463 C 0.32852 0.72291 0.08843
 C464 C 0.29824 0.70183 0.08272
 C465 C 0.26854 0.70529 0.10485
 C466 C 0.26891 0.72985 0.13282
 C467 C 0.33198 0.82246 0.20251
 C468 C 0.36241 0.84324 0.20850
 C469 C 0.39209 0.83987 0.18632
 C470 C 0.39158 0.81569 0.15799
 C471 C 0.26808 0.78140 0.18965
 C472 C 0.24140 0.78537 0.20742
 C473 C 0.39054 0.76734 0.09818
 C474 C 0.41484 0.76518 0.07710
 H475 H 0.35096 0.71919 0.07050
 H476 H 0.29782 0.68272 0.06100
 H477 H 0.24507 0.68888 0.10030
 H478 H 0.24515 0.73160 0.14927
 H479 H 0.30959 0.82595 0.22051
 H480 H 0.36295 0.86203 0.23049
 H481 H 0.41567 0.85607 0.19109
 H482 H 0.41533 0.81397 0.14150
 C483 C 0.63962 0.23030 0.12249
 C484 C 0.67026 0.25193 0.11668
 C485 C 0.70063 0.24842 0.13930
 C486 C 0.70019 0.22333 0.16763
 C487 C 0.66927 0.20230 0.17395
 C488 C 0.63889 0.20577 0.15128
 C489 C 0.60839 0.18428 0.15798
 C490 C 0.60788 0.16010 0.18630
 C491 C 0.63756 0.15674 0.20848
 C492 C 0.66798 0.17753 0.20249
 C493 C 0.73103 0.27015 0.13283
 C494 C 0.73140 0.29472 0.10485
 C495 C 0.70170 0.29818 0.08272
 C496 C 0.67142 0.27709 0.08842
 C497 C 0.73187 0.21861 0.18965
 C498 C 0.75855 0.21464 0.20743
 C499 C 0.60942 0.23265 0.09817
 C500 C 0.58512 0.23481 0.07709
 H501 H 0.58464 0.18601 0.14148
 H502 H 0.58430 0.14389 0.19107
 H503 H 0.63702 0.13795 0.23047
 H504 H 0.69037 0.17404 0.22049
 H505 H 0.75480 0.26841 0.14927
 H506 H 0.75487 0.31114 0.10030
 H507 H 0.70212 0.31729 0.06100
 H508 H 0.64899 0.28080 0.07050
 C509 C -0.13982 0.60827 0.75242
 C510 C -0.14040 0.63574 0.72628
 C511 C -0.17156 0.65767 0.72199
 C512 C -0.20196 0.65198 0.74379
 C513 C -0.20099 0.62529 0.77065
 C514 C -0.16983 0.60334 0.77497
 C515 C -0.16957 0.57667 0.80184
 C516 C -0.19922 0.57189 0.82389
 C517 C -0.22968 0.59338 0.81969
 C518 C -0.23072 0.61978 0.79339
 C519 C -0.17157 0.68487 0.69562
 C520 C -0.14166 0.69024 0.67407
 C521 C -0.11121 0.66876 0.67822
 C522 C -0.11044 0.64178 0.70397
 C523 C -0.23455 0.67282 0.73779
 C524 C -0.26162 0.68991 0.73212
 C525 C -0.10882 0.58444 0.75524
 C526 C -0.08311 0.56453 0.75662
 H527 H -0.14646 0.55935 0.80616
 H528 H -0.19855 0.55140 0.84435
 H529 H -0.25263 0.58958 0.83690
 H530 H -0.25498 0.63586 0.79115
 H531 H -0.19457 0.70235 0.69147
 H532 H -0.14212 0.71121 0.65407
 H533 H -0.08804 0.67304 0.66143
 H534 H -0.08609 0.62584 0.70624
 C535 C -0.11283 0.36537 0.24539
 C536 C -0.14032 0.36332 0.21950
 C537 C -0.16174 0.33186 0.21707
 C538 C -0.15549 0.30263 0.24050
 C539 C -0.12878 0.30513 0.26711
 C540 C -0.10736 0.33659 0.26956
 C541 C -0.08062 0.33834 0.29621
 C542 C -0.07526 0.30986 0.31982
 C543 C -0.09624 0.27912 0.31744
 C544 C -0.12271 0.27662 0.29142
 C545 C -0.18896 0.33035 0.19088
 C546 C -0.19484 0.35908 0.16771
 C547 C -0.17386 0.38982 0.17005
 C548 C -0.14687 0.39206 0.19558
 C549 C -0.17565 0.26956 0.23639
 C550 C -0.19200 0.24192 0.23243
 C551 C -0.08932 0.39643 0.24633
 C552 C -0.06917 0.42171 0.24672
 H553 H -0.06367 0.36172 0.29917
 H554 H -0.05471 0.31167 0.34007
 H555 H -0.09199 0.25708 0.33585
 H556 H -0.13836 0.25218 0.29063
 H557 H -0.20604 0.30706 0.18812
 H558 H -0.21581 0.35748 0.14788
 H559 H -0.17853 0.41208 0.15200
 H560 H -0.13131 0.41657 0.19642
 C561 C 0.13977 0.39175 0.75241
 C562 C 0.14035 0.36429 0.72628
 C563 C 0.17151 0.34235 0.72198
 C564 C 0.20191 0.34804 0.74379
 C565 C 0.20094 0.37473 0.77065
 C566 C 0.16978 0.39668 0.77496
 C567 C 0.16952 0.42335 0.80184
 C568 C 0.19917 0.42813 0.82389
 C569 C 0.22962 0.40663 0.81970
 C570 C 0.23066 0.38023 0.79339
 C571 C 0.17151 0.31515 0.69561
 C572 C 0.14161 0.30979 0.67405
 C573 C 0.11116 0.33128 0.67821
 C574 C 0.11039 0.35825 0.70396
 C575 C 0.23450 0.32720 0.73778
 C576 C 0.26157 0.31011 0.73211
 C577 C 0.10877 0.41558 0.75523
 C578 C 0.08306 0.43550 0.75662
 H579 H 0.14641 0.44067 0.80616
 H580 H 0.19850 0.44861 0.84436
 H581 H 0.25258 0.41043 0.83691
 H582 H 0.25493 0.36415 0.79116
 H583 H 0.19452 0.29768 0.69146
 H584 H 0.14207 0.28883 0.65406
 H585 H 0.08799 0.32700 0.66141
 H586 H 0.08604 0.37420 0.70623
 C587 C 0.11278 0.63465 0.24539
 C588 C 0.14029 0.63669 0.21951
 C589 C 0.16170 0.66815 0.21708
 C590 C 0.15543 0.69739 0.24049
 C591 C 0.12870 0.69491 0.26709
 C592 C 0.10729 0.66345 0.26954
 C593 C 0.08052 0.66171 0.29617
 C594 C 0.07514 0.69020 0.31975
 C595 C 0.09612 0.72094 0.31738
 C596 C 0.12260 0.72343 0.29137
 C597 C 0.18894 0.66965 0.19091
 C598 C 0.19484 0.64091 0.16776
 C599 C 0.17386 0.61017 0.17010
 C600 C 0.14685 0.60793 0.19561
 C601 C 0.17559 0.73046 0.23638
 C602 C 0.19194 0.75811 0.23242
 C603 C 0.08928 0.60359 0.24632
 C604 C 0.06912 0.57831 0.24671
 H605 H 0.06358 0.63833 0.29912
 H606 H 0.05458 0.68840 0.33999
 H607 H 0.09185 0.74299 0.33577
 H608 H 0.13826 0.74787 0.29059
 H609 H 0.20602 0.69294 0.18815
 H610 H 0.21583 0.64250 0.14794
 H611 H 0.17855 0.58790 0.15206
 H612 H 0.13130 0.58343 0.19646
 C613 C 0.73574 -0.14246 0.61935
 C614 C 0.70985 -0.14065 0.64687
 C615 C 0.70466 -0.17079 0.66956
 C616 C 0.72533 -0.20257 0.66455
 C617 C 0.75174 -0.20412 0.63754
 C618 C 0.75699 -0.17396 0.61489
 C619 C 0.78350 -0.17619 0.58801
 C620 C 0.80424 -0.20730 0.58366
 C621 C 0.79908 -0.23680 0.60578
 C622 C 0.77314 -0.23539 0.63242
 C623 C 0.67858 -0.16839 0.69682
 C624 C 0.65819 -0.13711 0.70154
 C625 C 0.66323 -0.10765 0.67934
 C626 C 0.68872 -0.10925 0.65226
 C627 C 0.71895 -0.23392 0.68669
 C628 C 0.71353 -0.26019 0.70471
 C629 C 0.73987 -0.11234 0.59507
 C630 C 0.74301 -0.08765 0.57451
 H631 H 0.78853 -0.15393 0.57015
 H632 H 0.82442 -0.20853 0.56299
 H633 H 0.81523 -0.26092 0.60227
 H634 H 0.77008 -0.25903 0.64892
 H635 H 0.67375 -0.19058 0.71480
 H636 H 0.63839 -0.13573 0.72256
 H637 H 0.64733 -0.08340 0.68312
 H638 H 0.69172 -0.08561 0.63571
 C639 C 0.23480 -0.11013 0.37907
 C640 C 0.20864 -0.13764 0.37863
 C641 C 0.20464 -0.15962 0.34797
 C642 C 0.22679 -0.15392 0.31796
 C643 C 0.25364 -0.12712 0.31879
 C644 C 0.25767 -0.10517 0.34943
 C645 C 0.28455 -0.07836 0.34951
 C646 C 0.30682 -0.07344 0.32019
 C647 C 0.30287 -0.09493 0.29023
 C648 C 0.27661 -0.12148 0.28938
 C649 C 0.17817 -0.18681 0.34804
 C650 C 0.15628 -0.19214 0.37756
 C651 C 0.16018 -0.17063 0.40752
 C652 C 0.18600 -0.14363 0.40820
 C653 C 0.22118 -0.17471 0.28581
 C654 C 0.21629 -0.19136 0.25876
 C655 C 0.23735 -0.08597 0.40930
 C656 C 0.23959 -0.06487 0.43354
 H657 H 0.28872 -0.06101 0.37221
 H658 H 0.32724 -0.05283 0.32072
 H659 H 0.32022 -0.09101 0.26751
 H660 H 0.27457 -0.13750 0.26548
 H661 H 0.17420 -0.20425 0.32537
 H662 H 0.13620 -0.21309 0.37717
 H663 H 0.14311 -0.17489 0.43039
 H664 H 0.18809 -0.12763 0.43212
 C665 C 0.76515 0.11015 0.37908
 C666 C 0.74229 0.10517 0.34943
 C667 C 0.74632 0.12713 0.31879
 C668 C 0.77316 0.15394 0.31797
 C669 C 0.79530 0.15965 0.34799
 C670 C 0.79130 0.13766 0.37864
 C671 C 0.81392 0.14367 0.40821
 C672 C 0.83974 0.17069 0.40755
 C673 C 0.84363 0.19220 0.37759
 C674 C 0.82175 0.18685 0.34806
 C675 C 0.72336 0.12147 0.28938
 C676 C 0.69711 0.09492 0.29022
 C677 C 0.69317 0.07342 0.32018
 C678 C 0.71543 0.07835 0.34951
 C679 C 0.77876 0.17473 0.28582
 C680 C 0.78365 0.19138 0.25877
 C681 C 0.76261 0.08598 0.40930
 C682 C 0.76037 0.06488 0.43354
 H683 H 0.81184 0.12767 0.43214
 H684 H 0.85680 0.17495 0.43042
 H685 H 0.86370 0.21316 0.37720
 H686 H 0.82572 0.20430 0.32540
 H687 H 0.72540 0.13750 0.26548
 H688 H 0.67977 0.09099 0.26750
 H689 H 0.67275 0.05281 0.32071
 H690 H 0.71126 0.06100 0.37221
 C691 C 0.26422 0.14247 0.61935
 C692 C 0.29010 0.14066 0.64687
 C693 C 0.29529 0.17080 0.66956
 C694 C 0.27462 0.20258 0.66455
 C695 C 0.24821 0.20412 0.63753
 C696 C 0.24296 0.17397 0.61489
 C697 C 0.21646 0.17619 0.58800
 C698 C 0.19571 0.20731 0.58365
 C699 C 0.20087 0.23681 0.60577
 C700 C 0.22680 0.23540 0.63242
 C701 C 0.32136 0.16841 0.69683
 C702 C 0.34176 0.13713 0.70155
 C703 C 0.33671 0.10766 0.67935
 C704 C 0.31123 0.10926 0.65227
 C705 C 0.28100 0.23393 0.68668
 C706 C 0.28641 0.26021 0.70471
 C707 C 0.26009 0.11235 0.59508
 C708 C 0.25695 0.08766 0.57451
 H709 H 0.21142 0.15394 0.57015
 H710 H 0.17553 0.20853 0.56297
 H711 H 0.18472 0.26093 0.60226
 H712 H 0.22986 0.25904 0.64892
 H713 H 0.32618 0.19059 0.71480
 H714 H 0.36155 0.13575 0.72257
 H715 H 0.35262 0.08342 0.68313
 H716 H 0.30824 0.08562 0.63572
   
