data_POSCAR
  _audit_creation_date              2014-09-24
  _audit_creation_method            'ToBaCCo'
  _symmetry_space_group_name_H-M    'P1'
  _symmetry_Int_Tables_number       1
  _symmetry_cell_setting            triclinic
  loop_
  _symmetry_equiv_pos_as_xyz
 x,y,z
_cell_length_a 39.8790
_cell_length_b 39.3856
_cell_length_c 43.9377
_cell_angle_alpha 89.834200
_cell_angle_beta 90.269800
_cell_angle_gamma 120.379200
loop_
  _atom_site_label
  _atom_site_type_symbol
  _atom_site_fract_x
  _atom_site_fract_y
  _atom_site_fract_z
C1 C 0.03687 0.51107 1.31370
 C2 C 0.00130 0.49651 1.32883
 C3 C -0.03411 0.48266 1.31327
 C4 C -0.03386 0.48358 1.28088
 C5 C 0.00152 0.49629 1.26499
 C6 C 0.03681 0.50951 1.28138
 C7 C 0.07076 0.51915 1.26501
 C8 C 0.07122 0.52029 1.23344
 C9 C 0.03734 0.51014 1.21679
 C10 C 0.00187 0.49691 1.23253
 C11 C -0.06714 0.47550 1.26395
 C12 C -0.06664 0.47662 1.23233
 C13 C -0.03292 0.48563 1.21594
 C14 C -0.03207 0.48725 1.18350
 C15 C 0.00395 0.50262 1.16878
 C16 C 0.03822 0.51364 1.18480
 H17 H 0.09750 0.52586 1.27639
 H18 H 0.09860 0.52944 1.22223
 H19 H -0.09373 0.46969 1.27489
 H20 H -0.09281 0.47176 1.22098
 H21 H 0.00122 0.49680 1.35351
 H22 H 0.00538 0.50424 1.14413
 C23 C 0.48493 0.52391 1.31338
 C24 C 0.49932 0.50367 1.32992
 C25 C 0.51739 0.48513 1.31581
 C26 C 0.51973 0.48588 1.28340
 C27 C 0.50541 0.50667 1.26630
 C28 C 0.48843 0.52611 1.28138
 C29 C 0.47557 0.54745 1.26409
 C30 C 0.47732 0.54799 1.23251
 C31 C 0.49215 0.52734 1.21694
 C32 C 0.50716 0.50724 1.23393
 C33 C 0.53304 0.46400 1.26743
 C34 C 0.53514 0.46496 1.23580
 C35 C 0.52310 0.48700 1.21859
 C36 C 0.52504 0.48806 1.18637
 C37 C 0.50960 0.50761 1.17003
 C38 C 0.49260 0.52653 1.18477
 H39 H 0.46399 0.56403 1.27481
 H40 H 0.46700 0.56493 1.22040
 H41 H 0.54094 0.44484 1.27903
 H42 H 0.54542 0.44731 1.22495
 H43 H 0.49722 0.50341 1.35454
 H44 H 0.51029 0.50760 1.14535
 C45 C 0.51224 1.03506 1.18620
 C46 C 0.49331 0.99860 1.17120
 C47 C 0.47606 0.96305 1.18714
 C48 C 0.47627 0.96325 1.21929
 C49 C 0.49427 0.99956 1.23518
 C50 C 0.51184 1.03558 1.21863
 C51 C 0.52488 1.07080 1.23486
 C52 C 0.52325 1.07110 1.26638
 C53 C 0.50857 1.03620 1.28344
 C54 C 0.49290 0.99981 1.26763
 C55 C 0.45694 0.92800 1.23586
 C56 C 0.45533 0.92819 1.26741
 C57 C 0.47380 0.96362 1.28400
 C58 C 0.47040 0.96403 1.31621
 C59 C 0.48531 1.00038 1.33103
 C60 C 0.50532 1.03639 1.31561
 H61 H 0.53477 1.09856 1.22339
 H62 H 0.53204 1.09908 1.27703
 H63 H 0.44152 0.89977 1.22453
 H64 H 0.43785 0.90006 1.27839
 H65 H 0.49367 0.99761 1.14653
 H66 H 0.48404 1.00072 1.35570
 C67 C 0.96468 0.48397 0.68557
 C68 C 1.00005 0.50281 0.67014
 C69 C 1.03575 0.51708 0.68536
 C70 C 1.03582 0.51490 0.71778
 C71 C 1.00003 0.49708 0.73386
 C72 C 0.96437 0.48092 0.71762
 C73 C 0.92928 0.46266 0.73384
 C74 C 0.92906 0.46019 0.76538
 C75 C 0.96394 0.47707 0.78213
 C76 C 0.99984 0.49571 0.76631
 C77 C 1.07059 0.53182 0.73471
 C78 C 1.07035 0.52935 0.76625
 C79 C 1.03546 0.51282 0.78280
 C80 C 1.03502 0.51103 0.81525
 C81 C 0.99898 0.49088 0.83013
 C82 C 0.96378 0.47511 0.81427
 H83 H 0.90150 0.45011 0.72231
 H84 H 0.90108 0.44476 0.77647
 H85 H 1.09870 0.54776 0.72397
 H86 H 1.09819 0.54043 0.77732
 H87 H 0.99937 0.50363 0.64546
 H88 H 0.99808 0.49006 0.85482
 C89 C 0.48086 0.51623 0.81345
 C90 C 0.49718 0.49739 0.82954
 C91 C 0.51641 0.48084 0.81461
 C92 C 0.51977 0.48335 0.78251
 C93 C 0.50244 0.50143 0.76579
 C94 C 0.48288 0.51789 0.78130
 C95 C 0.46563 0.53532 0.76425
 C96 C 0.46811 0.53722 0.73268
 C97 C 0.48731 0.52108 0.71680
 C98 C 0.50489 0.50327 0.73351
 C99 C 0.54086 0.46925 0.76675
 C100 C 0.54351 0.47132 0.73517
 C101 C 0.52495 0.48733 0.71802
 C102 C 0.52665 0.48864 0.68581
 C103 C 0.50967 0.50688 0.66972
 C104 C 0.48979 0.52271 0.68466
 H105 H 0.44984 0.54759 0.77513
 H106 H 0.45492 0.55170 0.72087
 H107 H 0.55599 0.45686 0.77867
 H108 H 0.56069 0.46059 0.72440
 H109 H 0.49523 0.49595 0.85418
 H110 H 0.51059 0.50739 0.64504
 C111 C 0.52493 0.03719 0.68381
 C112 C 0.50213 0.00160 0.66856
 C113 C 0.48346 -0.03467 0.68392
 C114 C 0.48624 -0.03485 0.71627
 C115 C 0.50855 0.00133 0.73217
 C116 C 0.52814 0.03737 0.71587
 C117 C 0.54928 0.07280 0.73211
 C118 C 0.55110 0.07303 0.76371
 C119 C 0.53124 0.03792 0.78042
 C120 C 0.51018 0.00166 0.76456
 C121 C 0.46481 -0.06959 0.73339
 C122 C 0.46685 -0.06929 0.76501
 C123 C 0.48965 -0.03411 0.78107
 C124 C 0.49107 -0.03344 0.81328
 C125 C 0.51215 0.00253 0.82848
 C126 C 0.53164 0.03812 0.81263
 H127 H 0.56415 0.10093 0.72060
 H128 H 0.56805 0.10117 0.77494
 H129 H 0.44509 -0.09739 0.72269
 H130 H 0.44948 -0.09695 0.77678
 H131 H 0.50073 0.00217 0.64390
 H132 H 0.51232 0.00291 0.85317
 O133 O 0.39274 0.65884 0.97223
 O134 O 0.39007 0.72307 0.96428
 C135 C 0.37135 0.74069 0.95941
 O136 O 0.34162 0.73386 0.97477
 O137 O 0.27796 0.66694 0.96498
 C138 C 0.25997 0.63045 0.95903
 O139 O 0.26657 0.60613 0.97309
 O140 O 0.33280 0.60950 0.96252
 C141 C 0.36894 0.62873 0.95700
 O142 O 0.39186 0.66780 1.03286
 O143 O 0.39231 0.73369 1.02500
 C144 C 0.36826 0.73859 1.04051
 O145 O 0.33202 0.71999 1.03518
 O146 O 0.26664 0.65440 1.02538
 C147 C 0.26145 0.62396 1.03964
 O148 O 0.27992 0.60651 1.03336
 O149 O 0.34427 0.60667 1.02280
 C150 C 0.37414 0.63106 1.03784
 Cr151 Cr 0.38956 0.69471 0.99860
 Cr152 Cr 0.30568 0.69273 1.00004
 Cr153 Cr 0.30695 0.60942 0.99795
 O154 O 0.33407 0.66562 0.99886
 O155 O 0.60998 0.33037 0.96645
 O156 O 0.61029 0.26546 0.97671
 C157 C 0.63454 0.25960 0.96231
 O158 O 0.67069 0.27800 0.96819
 O159 O 0.73591 0.34452 0.97568
 C160 C 0.74049 0.37343 0.95952
 O161 O 0.72159 0.39090 0.96407
 O162 O 0.65757 0.39196 0.97406
 C163 C 0.62724 0.36667 0.96006
 O164 O 0.61021 0.34315 1.02699
 O165 O 0.61259 0.27895 1.03707
 C166 C 0.63146 0.26184 1.04324
 O167 O 0.66184 0.26862 1.02893
 O168 O 0.72519 0.33657 1.03654
 C169 C 0.74305 0.37353 1.04039
 O170 O 0.73641 0.39626 1.02418
 O171 O 0.67058 0.39328 1.03427
 C172 C 0.63473 0.37441 1.04086
 Cr173 Cr 0.61297 0.30564 1.00180
 Cr174 Cr 0.69727 0.30798 1.00229
 Cr175 Cr 0.69546 0.39087 0.99921
 O176 O 0.66848 0.33474 1.00111
 O177 O 0.66219 0.39619 0.52567
 O178 O 0.72698 0.39493 0.53173
 C179 C 0.74515 0.37648 0.53555
 O180 O 0.73902 0.34716 0.51925
 O181 O 0.67463 0.28119 0.52937
 C182 C 0.63908 0.26278 0.53681
 O183 O 0.61392 0.26890 0.52412
 O184 O 0.61639 0.33475 0.53647
 C185 C 0.63378 0.37137 0.54167
 O186 O 0.66913 0.39549 0.46467
 O187 O 0.73585 0.39837 0.47098
 C188 C 0.74104 0.37497 0.45453
 O189 O 0.72299 0.33812 0.45891
 O190 O 0.65967 0.27083 0.46897
 C191 C 0.62820 0.26467 0.45650
 O192 O 0.61061 0.28244 0.46447
 O193 O 0.60992 0.34667 0.47681
 C194 C 0.63254 0.37662 0.46090
 Cr195 Cr 0.69749 0.39407 0.49824
 Cr196 Cr 0.69801 0.31042 0.49423
 Cr197 Cr 0.61488 0.30932 0.50036
 O198 O 0.67013 0.33786 0.49760
 O199 O 0.34162 0.60549 0.52480
 O200 O 0.27710 0.60508 0.53554
 C201 C 0.25816 0.62223 0.54118
 O202 O 0.26321 0.65229 0.52646
 O203 O 0.32824 0.71800 0.53680
 C204 C 0.36445 0.73722 0.54228
 O205 O 0.38901 0.73241 0.52729
 O206 O 0.38920 0.66656 0.53494
 C207 C 0.37149 0.62978 0.53983
 O208 O 0.33005 0.60836 0.46470
 O209 O 0.26376 0.60442 0.47527
 C210 C 0.25781 0.62865 0.46042
 O211 O 0.27568 0.66517 0.46618
 O212 O 0.33847 0.73210 0.47680
 C213 C 0.36811 0.73918 0.46131
 O214 O 0.38736 0.72211 0.46625
 O215 O 0.39017 0.65771 0.47409
 C216 C 0.36613 0.62754 0.45893
 Cr217 Cr 0.30422 0.60804 0.50010
 Cr218 Cr 0.30251 0.69083 0.50157
 Cr219 Cr 0.38679 0.69357 0.50066
 O220 O 0.33124 0.66418 0.50087
 C221 C 0.42899 0.57033 0.36796
 C222 C 0.40761 0.54259 0.34514
 C223 C 0.42605 0.52807 0.32679
 C224 C 0.46572 0.54158 0.33071
 C225 C 0.48626 0.56997 0.35311
 N226 N 0.46766 0.58338 0.37091
 C227 C 0.41099 0.58531 0.38954
 N228 N 0.43464 0.61844 0.40575
 C229 C 0.42096 0.63298 0.42731
 C230 C 0.38111 0.61352 0.43407
 C231 C 0.35607 0.57949 0.41744
 C232 C 0.37082 0.56526 0.39529
 H233 H 0.40931 0.50591 0.30982
 H234 H 0.51693 0.58094 0.35677
 H235 H 0.44140 0.65932 0.43950
 H236 H 0.32515 0.56335 0.42197
 H237 H 0.37710 0.53200 0.34136
 H238 H 0.35091 0.53821 0.38373
 C239 C 0.42144 0.86446 0.37362
 C240 C 0.41129 0.89351 0.37717
 C241 C 0.42705 0.92592 0.35786
 C242 C 0.45276 0.92971 0.33454
 C243 C 0.46264 0.90016 0.33206
 N244 N 0.44712 0.86888 0.35147
 C245 C 0.40603 0.83028 0.39445
 N246 N 0.42818 0.81400 0.40156
 C247 C 0.41642 0.78417 0.42212
 C248 C 0.38063 0.76940 0.43709
 C249 C 0.35688 0.78488 0.42915
 C250 C 0.36932 0.81501 0.40785
 H251 H 0.41865 0.94790 0.36095
 H252 H 0.48377 0.90265 0.31548
 H253 H 0.43545 0.77276 0.42729
 H254 H 0.32869 0.77395 0.43958
 H255 H 0.39210 0.89189 0.39517
 H256 H 0.35029 0.82620 0.40204
 C257 C 0.13626 0.56499 0.37017
 C258 C 0.13552 0.58397 0.34331
 C259 C 0.10303 0.56585 0.32423
 C260 C 0.07127 0.52858 0.33155
 C261 C 0.07347 0.51070 0.35868
 N262 N 0.10545 0.52889 0.37679
 C263 C 0.16928 0.58283 0.39180
 N264 N 0.17490 0.55865 0.41064
 C265 C 0.20337 0.57257 0.43212
 C266 C 0.22800 0.61327 0.43604
 C267 C 0.22281 0.63882 0.41684
 C268 C 0.19357 0.62376 0.39470
 H269 H 0.10223 0.58166 0.30429
 H270 H 0.05003 0.48190 0.36528
 H271 H 0.20617 0.55174 0.44646
 H272 H 0.24103 0.67043 0.41912
 H273 H 0.15964 0.61244 0.33696
 H274 H 0.18944 0.64406 0.38078
 C275 C 0.56322 0.43378 0.37484
 C276 C 0.52563 0.42721 0.37956
 C277 C 0.51048 0.44375 0.35978
 C278 C 0.53229 0.46669 0.33486
 C279 C 0.57016 0.47308 0.33128
 N280 N 0.58448 0.45687 0.35113
 C281 C 0.58060 0.41745 0.39590
 N282 N 0.61981 0.43720 0.40042
 C283 C 0.63724 0.42455 0.42055
 C284 C 0.61480 0.39017 0.43768
 C285 C 0.57449 0.36885 0.43262
 C286 C 0.55739 0.38223 0.41177
 H287 H 0.48125 0.43797 0.36374
 H288 H 0.58890 0.49212 0.31342
 H289 H 0.66846 0.44169 0.42345
 H290 H 0.55600 0.34184 0.44488
 H291 H 0.50825 0.41023 0.39872
 H292 H 0.52632 0.36495 0.40811
 C293 C 0.55548 0.13786 0.37065
 C294 C 0.51654 0.10868 0.37495
 C295 C 0.49997 0.07537 0.35656
 C296 C 0.52168 0.07119 0.33326
 C297 C 0.56077 0.10113 0.32987
 N298 N 0.57653 0.13305 0.34856
 C299 C 0.57444 0.17248 0.39085
 N300 N 0.61216 0.18704 0.39932
 C301 C 0.63035 0.21715 0.41954
 C302 C 0.61028 0.23432 0.43248
 C303 C 0.57184 0.22064 0.42309
 C304 C 0.55385 0.18978 0.40239
 H305 H 0.46985 0.05307 0.36025
 H306 H 0.57917 0.09845 0.31316
 H307 H 0.66018 0.22713 0.42585
 H308 H 0.55528 0.23312 0.43229
 H309 H 0.49929 0.11099 0.39290
 H310 H 0.52409 0.17945 0.39561
 C311 C 0.86615 0.44104 0.36822
 C312 C 0.89946 0.47728 0.37479
 C313 C 0.93208 0.49109 0.35638
 C314 C 0.93184 0.46936 0.33094
 C315 C 0.89785 0.43301 0.32526
 N316 N 0.86649 0.41984 0.34391
 C317 C 0.83181 0.42457 0.38836
 N318 N 0.81004 0.38489 0.39238
 C319 C 0.78000 0.36819 0.41244
 C320 C 0.77069 0.39193 0.43016
 C321 C 0.79178 0.43278 0.42535
 C322 C 0.82216 0.44913 0.40450
 H323 H 0.95742 0.51925 0.36183
 H324 H 0.89673 0.41440 0.30673
 H325 H 0.76423 0.33653 0.41512
 H326 H 0.78537 0.45227 0.43814
 H327 H 0.90085 0.49442 0.39447
 H328 H 0.83805 0.48070 0.40128
 C329 C 0.57671 0.43770 1.13106
 C330 C 0.59923 0.46535 1.15361
 C331 C 0.58221 0.48121 1.17215
 C332 C 0.54280 0.46917 1.16867
 C333 C 0.52109 0.44084 1.14651
 N334 N 0.53832 0.42607 1.12854
 C335 C 0.59329 0.42126 1.10942
 N336 N 0.56861 0.38781 1.09391
 C337 C 0.58112 0.37188 1.07253
 C338 C 0.62077 0.39013 1.06526
 C339 C 0.64679 0.42454 1.08109
 C340 C 0.63325 0.44020 1.10304
 H341 H 0.59985 0.50325 1.18893
 H342 H 0.49057 0.43092 1.14322
 H343 H 0.55995 0.34535 1.06093
 H344 H 0.67760 0.43980 1.07617
 H345 H 0.62955 0.47479 1.15707
 H346 H 0.65393 0.46744 1.11400
 C347 C 0.86953 0.44339 1.12622
 C348 C 0.90231 0.48022 1.12014
 C349 C 0.93448 0.49490 1.13936
 C350 C 0.93425 0.47343 1.16509
 C351 C 0.90081 0.43645 1.17019
 N352 N 0.86993 0.42249 1.15080
 C353 C 0.83555 0.42604 1.10550
 N354 N 0.81426 0.38623 1.10208
 C355 C 0.78404 0.36864 1.08208
 C356 C 0.77391 0.39153 1.06392
 C357 C 0.79471 0.43253 1.06793
 C358 C 0.82535 0.44981 1.08866
 H359 H 0.95943 0.52347 1.13429
 H360 H 0.89982 0.41791 1.18881
 H361 H 0.76851 0.33690 1.08001
 H362 H 0.78768 0.45141 1.05478
 H363 H 0.90368 0.49718 1.10029
 H364 H 0.84080 0.48145 1.09139
 C365 C 0.56839 0.13592 1.13045
 C366 C 0.58824 0.13260 1.15568
 C367 C 0.56963 0.09948 1.17442
 C368 C 0.53125 0.06954 1.16815
 C369 C 0.51285 0.07390 1.14224
 N370 N 0.53138 0.10667 1.12465
 C371 C 0.58639 0.17026 1.10987
 N372 N 0.56330 0.18198 1.09607
 C373 C 0.57735 0.21205 1.07569
 C374 C 0.61672 0.23157 1.06743
 C375 C 0.64111 0.22004 1.08143
 C376 C 0.62614 0.18962 1.10282
 H377 H 0.58561 0.09683 1.19340
 H378 H 0.48329 0.05181 1.13645
 H379 H 0.55747 0.21978 1.06524
 H380 H 0.67164 0.23427 1.07562
 H381 H 0.61762 0.15545 1.16108
 H382 H 0.64518 0.18050 1.11285
 C383 C 0.43739 0.57098 1.12677
 C384 C 0.41492 0.54045 1.14732
 C385 C 0.43309 0.52645 1.16663
 C386 C 0.47349 0.54296 1.16569
 C387 C 0.49503 0.57375 1.14525
 N388 N 0.47671 0.58693 1.12661
 C389 C 0.41950 0.58596 1.10499
 N390 N 0.44076 0.62370 1.09481
 C391 C 0.42666 0.63900 1.07399
 C392 C 0.38926 0.61558 1.06166
 C393 C 0.36690 0.57655 1.07180
 C394 C 0.38182 0.56168 1.09343
 H395 H 0.41568 0.50250 1.18212
 H396 H 0.52629 0.58706 1.14399
 H397 H 0.44501 0.66917 1.06668
 H398 H 0.33796 0.55736 1.06285
 H399 H 0.38374 0.52761 1.14865
 H400 H 0.36439 0.53120 1.10025
 C401 C 0.13956 0.55862 1.12932
 C402 C 0.12448 0.52128 1.14294
 C403 C 0.09191 0.50689 1.16175
 C404 C 0.07448 0.52950 1.16699
 C405 C 0.09033 0.56650 1.15324
 N406 N 0.12191 0.57988 1.13498
 C407 C 0.17255 0.57510 1.10761
 N408 N 0.17925 0.60699 1.09074
 C409 C 0.20780 0.62347 1.06954
 C410 C 0.23175 0.60760 1.06397
 C411 C 0.22601 0.57523 1.08149
 C412 C 0.19667 0.55903 1.10337
 H413 H 0.07981 0.47786 1.17172
 H414 H 0.07723 0.58448 1.15666
 H415 H 0.21122 0.64855 1.05675
 H416 H 0.24405 0.56225 1.07820
 H417 H 0.13659 0.50267 1.13866
 H418 H 0.19336 0.53439 1.11662
 C419 C 0.42928 0.86055 1.13120
 C420 C 0.46058 0.86926 1.15084
 C421 C 0.47537 0.90230 1.16962
 C422 C 0.45884 0.92632 1.16907
 C423 C 0.42715 0.91623 1.14973
 N424 N 0.41330 0.88400 1.13155
 C425 C 0.41379 0.82731 1.10951
 N426 N 0.37641 0.81121 1.09955
 C427 C 0.36086 0.78211 1.07832
 C428 C 0.38367 0.76816 1.06524
 C429 C 0.42223 0.78423 1.07529
 C430 C 0.43734 0.81366 1.09738
 H431 H 0.49998 0.90946 1.18430
 H432 H 0.41379 0.93426 1.14882
 H433 H 0.33105 0.77069 1.07114
 H434 H 0.44093 0.77446 1.06579
 H435 H 0.47353 0.85089 1.15179
 H436 H 0.46751 0.82642 1.10396
 C437 C 0.57332 0.43280 0.63111
 C438 C 0.54403 0.41042 0.65240
 C439 C 0.52911 0.42873 0.67046
 C440 C 0.54380 0.46931 0.66796
 C441 C 0.57340 0.49078 0.64689
 N442 N 0.58719 0.47226 0.62927
 C443 C 0.58922 0.41512 0.61001
 N444 N 0.62227 0.43956 0.59440
 C445 C 0.63770 0.42624 0.57332
 C446 C 0.61935 0.38594 0.56649
 C447 C 0.58558 0.36007 0.58259
 C448 C 0.57037 0.37445 0.60420
 H449 H 0.50590 0.41123 0.68630
 H450 H 0.58528 0.52215 0.64429
 H451 H 0.66382 0.44731 0.56151
 H452 H 0.57025 0.32878 0.57794
 H453 H 0.53255 0.37923 0.65535
 H454 H 0.54352 0.35378 0.61525
 C455 C 0.58151 0.13848 0.62619
 C456 C 0.60410 0.12829 0.64460
 C457 C 0.58570 0.09556 0.66378
 C458 C 0.54504 0.07343 0.66508
 C459 C 0.52355 0.08475 0.64675
 N460 N 0.54204 0.11648 0.62810
 C461 C 0.59863 0.17195 0.60443
 N462 N 0.57475 0.18350 0.59181
 C463 C 0.58713 0.21267 0.57076
 C464 C 0.62587 0.23218 0.56082
 C465 C 0.65123 0.22108 0.57363
 C466 C 0.63778 0.19099 0.59531
 H467 H 0.60311 0.08730 0.67747
 H468 H 0.49210 0.06815 0.64709
 H469 H 0.56649 0.22022 0.56161
 H470 H 0.68130 0.23515 0.56654
 H471 H 0.63547 0.14510 0.64449
 H472 H 0.65783 0.18246 0.60399
 C473 C 0.86547 0.43254 0.62694
 C474 C 0.87354 0.40809 0.64514
 C475 C 0.90533 0.42492 0.66495
 C476 C 0.92873 0.46590 0.66691
 C477 C 0.91928 0.48935 0.64895
 N478 N 0.88826 0.47233 0.62971
 C479 C 0.83343 0.41639 0.60434
 N480 N 0.81739 0.43840 0.59590
 C481 C 0.78889 0.42611 0.57445
 C482 C 0.77533 0.38988 0.55964
 C483 C 0.79160 0.36682 0.56791
 C484 C 0.82052 0.37988 0.59019
 H485 H 0.91209 0.40605 0.67841
 H486 H 0.93693 0.52112 0.64989
 H487 H 0.77732 0.44495 0.56870
 H488 H 0.78216 0.33873 0.55706
 H489 H 0.85563 0.37637 0.64419
 H490 H 0.83327 0.36199 0.59551
 C491 C 0.43413 0.56749 0.62748
 C492 C 0.41146 0.53444 0.64591
 C493 C 0.42967 0.52007 0.66480
 C494 C 0.47028 0.53880 0.66570
 C495 C 0.49196 0.57198 0.64737
 N496 N 0.47360 0.58541 0.62901
 C497 C 0.41635 0.58305 0.60608
 N498 N 0.43708 0.62151 0.59741
 C499 C 0.42313 0.63739 0.57695
 C500 C 0.38645 0.61390 0.56347
 C501 C 0.36464 0.57419 0.57214
 C502 C 0.37940 0.55870 0.59332
 H503 H 0.41216 0.49426 0.67865
 H504 H 0.52340 0.58703 0.64755
 H505 H 0.44105 0.66809 0.57082
 H506 H 0.33628 0.55488 0.56227
 H507 H 0.38008 0.51991 0.64600
 H508 H 0.36242 0.52772 0.59880
 C509 C 0.42652 0.86445 0.62836
 C510 C 0.41944 0.89556 0.62404
 C511 C 0.43811 0.92873 0.64256
 C512 C 0.46310 0.93079 0.66612
 C513 C 0.46948 0.89891 0.66953
 N514 N 0.45161 0.86723 0.65066
 C515 C 0.40883 0.82987 0.60799
 N516 N 0.43024 0.81363 0.59893
 C517 C 0.41641 0.78343 0.57863
 C518 C 0.37887 0.76776 0.56630
 C519 C 0.35588 0.78320 0.57624
 C520 C 0.37078 0.81430 0.59692
 H521 H 0.43245 0.95258 0.63880
 H522 H 0.48983 0.89987 0.68639
 H523 H 0.43493 0.77207 0.57184
 H524 H 0.32675 0.77198 0.56740
 H525 H 0.40051 0.89478 0.60598
 H526 H 0.35278 0.82612 0.60407
 C527 C 0.13436 0.55898 0.62899
 C528 C 0.12934 0.53324 0.65301
 C529 C 0.09693 0.51951 0.67189
 C530 C 0.06968 0.53179 0.66736
 C531 C 0.07570 0.55715 0.64274
 N532 N 0.10747 0.57013 0.62478
 C533 C 0.16788 0.57492 0.60797
 N534 N 0.17644 0.60774 0.59168
 C535 C 0.20553 0.62369 0.57093
 C536 C 0.22797 0.60615 0.56513
 C537 C 0.21992 0.57237 0.58178
 C538 C 0.18993 0.55665 0.60318
 H539 H 0.09268 0.49849 0.68957
 H540 H 0.05566 0.56749 0.63818
 H541 H 0.21058 0.64973 0.55868
 H542 H 0.23632 0.55773 0.57793
 H543 H 0.15011 0.52386 0.65746
 H544 H 0.18360 0.52995 0.61500
 C545 C 0.43232 0.57000 0.86810
 C546 C 0.46428 0.59357 0.84930
 C547 C 0.47978 0.57595 0.83110
 C548 C 0.46320 0.53500 0.83125
 C549 C 0.43088 0.51237 0.84978
 N550 N 0.41640 0.53018 0.86749
 C551 C 0.41609 0.58716 0.88923
 N552 N 0.37861 0.56467 0.89868
 C553 C 0.36246 0.57769 0.91942
 C554 C 0.38471 0.61517 0.93248
 C555 C 0.42332 0.63892 0.92288
 C556 C 0.43907 0.62510 0.90134
 H557 H 0.50488 0.59420 0.81709
 H558 H 0.41747 0.48065 0.85038
 H559 H 0.33263 0.55831 0.92627
 H560 H 0.44164 0.66798 0.93239
 H561 H 0.47723 0.62521 0.84850
 H562 H 0.46930 0.64353 0.89524
 C563 C 0.13417 0.56742 0.87207
 C564 C 0.13050 0.58811 0.84741
 C565 C 0.09786 0.56954 0.82850
 C566 C 0.06899 0.53007 0.83356
 C567 C 0.07364 0.51078 0.85886
 N568 N 0.10571 0.52947 0.87687
 C569 C 0.16798 0.58525 0.89307
 N570 N 0.17607 0.56096 0.90961
 C571 C 0.20568 0.57469 0.93013
 C572 C 0.22911 0.61529 0.93539
 C573 C 0.22138 0.64095 0.91854
 C574 C 0.19094 0.62612 0.89743
 H575 H 0.09480 0.58643 0.81032
 H576 H 0.05227 0.48045 0.86387
 H577 H 0.21039 0.55375 0.94265
 H578 H 0.23849 0.67248 0.92196
 H579 H 0.15254 0.61816 0.84246
 H580 H 0.18497 0.64654 0.88547
 C581 C 0.43144 0.86603 0.87108
 C582 C 0.42081 0.89507 0.87092
 C583 C 0.43973 0.92731 0.85148
 C584 C 0.46914 0.93080 0.83219
 C585 C 0.47902 0.90136 0.83290
 N586 N 0.46032 0.87022 0.85217
 C587 C 0.41386 0.83235 0.89256
 N588 N 0.43409 0.81412 0.90001
 C589 C 0.42078 0.78427 0.92061
 C590 C 0.38516 0.77132 0.93541
 C591 C 0.36332 0.78893 0.92741
 C592 C 0.37738 0.81916 0.90595
 H593 H 0.43188 0.94992 0.85180
 H594 H 0.50205 0.90354 0.81858
 H595 H 0.43846 0.77133 0.92585
 H596 H 0.33540 0.77949 0.93783
 H597 H 0.39913 0.89389 0.88625
 H598 H 0.35961 0.83174 0.90000
 C599 C 0.56222 0.42558 0.87152
 C600 C 0.53389 0.40305 0.84950
 C601 C 0.51907 0.42109 0.83072
 C602 C 0.53277 0.46145 0.83351
 C603 C 0.56124 0.48298 0.85546
 N604 N 0.57510 0.46481 0.87358
 C605 C 0.57872 0.40846 0.89276
 N606 N 0.61242 0.43332 0.90757
 C607 C 0.62882 0.42059 0.92845
 C608 C 0.61087 0.38047 0.93592
 C609 C 0.57622 0.35417 0.92079
 C610 C 0.56002 0.36798 0.89930
 H611 H 0.49690 0.40363 0.81404
 H612 H 0.57237 0.51420 0.85823
 H613 H 0.65554 0.44199 0.93951
 H614 H 0.56120 0.32301 0.92596
 H615 H 0.52337 0.37205 0.84644
 H616 H 0.53267 0.34715 0.88882
 C617 C 0.86273 0.43233 0.87018
 C618 C 0.87183 0.46304 0.84939
 C619 C 0.90451 0.47663 0.83089
 C620 C 0.92765 0.45926 0.83246
 C621 C 0.91742 0.42840 0.85308
 N622 N 0.88572 0.41592 0.87113
 C623 C 0.82950 0.41737 0.89160
 N624 N 0.81920 0.38356 0.90718
 C625 C 0.79043 0.36856 0.92829
 C626 C 0.77011 0.38808 0.93512
 C627 C 0.77984 0.42275 0.91913
 C628 C 0.80949 0.43755 0.89752
 H629 H 0.91194 0.50090 0.81544
 H630 H 0.93483 0.41452 0.85503
 H631 H 0.78393 0.34170 0.93998
 H632 H 0.76516 0.43896 0.92379
 H633 H 0.85429 0.47666 0.84717
 H634 H 0.81696 0.46499 0.88645
 C635 C 0.57723 0.13898 0.87032
 C636 C 0.54768 0.13186 0.84932
 C637 C 0.53369 0.09965 0.82974
 C638 C 0.54931 0.07482 0.83082
 C639 C 0.57943 0.08342 0.85150
 N640 N 0.59252 0.11489 0.87045
 C641 C 0.59157 0.17126 0.89287
 N642 N 0.62832 0.18680 0.90413
 C643 C 0.64287 0.21538 0.92579
 C644 C 0.61968 0.22949 0.93793
 C645 C 0.58165 0.21375 0.92672
 C646 C 0.56754 0.18479 0.90424
 H647 H 0.51016 0.09356 0.81417
 H648 H 0.59198 0.06468 0.85295
 H649 H 0.67229 0.22652 0.93386
 H650 H 0.56268 0.22364 0.93545
 H651 H 0.53536 0.15079 0.84800
 H652 H 0.53779 0.17242 0.89660
   
