data_POSCAR
  _audit_creation_date              2014-09-24
  _audit_creation_method            'ToBaCCo'
  _symmetry_space_group_name_H-M    'P1'
  _symmetry_Int_Tables_number       1
  _symmetry_cell_setting            triclinic
  loop_
  _symmetry_equiv_pos_as_xyz
 x,y,z
_cell_length_a 35.7871
_cell_length_b 50.4225
_cell_length_c 37.3759
_cell_angle_alpha 89.998400
_cell_angle_beta 90.079100
_cell_angle_gamma 90.015300
loop_
  _atom_site_label
  _atom_site_type_symbol
  _atom_site_fract_x
  _atom_site_fract_y
  _atom_site_fract_z
O1 O 0.26290 0.27540 0.19943
 O2 O 0.31105 0.22369 0.25164
 O3 O 0.26320 0.22389 0.19920
 O4 O 0.31083 0.27560 0.25180
 O5 O 0.26432 0.27537 0.29069
 O6 O 0.21672 0.22369 0.23814
 O7 O 0.26454 0.22352 0.29053
 O8 O 0.21643 0.27516 0.23839
 Cu9 Cu 0.29179 0.24966 0.22167
 Cu10 Cu 0.23589 0.24941 0.26847
 C11 C 0.23148 0.28394 0.21007
 C12 C 0.29573 0.21471 0.27972
 C13 C 0.23187 0.21512 0.20974
 C14 C 0.29542 0.28440 0.27994
 O15 O 0.78882 0.27564 0.24802
 O16 O 0.74187 0.22366 0.30048
 O17 O 0.78935 0.22400 0.24788
 O18 O 0.74137 0.27534 0.30061
 O19 O 0.69456 0.27518 0.26191
 O20 O 0.74256 0.22381 0.20915
 O21 O 0.69506 0.22347 0.26179
 O22 O 0.74204 0.27548 0.20929
 Cu23 Cu 0.77006 0.24967 0.27817
 Cu24 Cu 0.71381 0.24946 0.23163
 C25 C 0.77333 0.28437 0.21984
 C26 C 0.71059 0.21473 0.28994
 C27 C 0.77404 0.21521 0.21964
 C28 C 0.70994 0.28399 0.29010
 O29 O 0.75994 0.77572 0.79503
 O30 O 0.71307 0.72406 0.74178
 O31 O 0.75925 0.72394 0.79567
 O32 O 0.71359 0.77549 0.74132
 O33 O 0.76126 0.77504 0.70372
 O34 O 0.80695 0.72343 0.75813
 O35 O 0.76075 0.72356 0.70420
 O36 O 0.80765 0.77526 0.75749
 Cu37 Cu 0.73172 0.74985 0.77233
 Cu38 Cu 0.78905 0.74927 0.72718
 C39 C 0.79160 0.78433 0.78514
 C40 C 0.72890 0.71520 0.71389
 C41 C 0.79070 0.71487 0.78599
 C42 C 0.72961 0.78386 0.71326
 O43 O 0.28713 0.77645 0.74486
 O44 O 0.24117 0.72495 0.79892
 O45 O 0.28723 0.72486 0.74516
 O46 O 0.24086 0.77658 0.79853
 O47 O 0.19310 0.77637 0.76093
 O48 O 0.23949 0.72463 0.70752
 O49 O 0.19340 0.72470 0.76132
 O50 O 0.23940 0.77625 0.70720
 Cu51 Cu 0.26891 0.75075 0.77568
 Cu52 Cu 0.21151 0.75047 0.73045
 C53 C 0.27106 0.78502 0.71689
 C54 C 0.20957 0.71610 0.78922
 C55 C 0.27119 0.71601 0.71733
 C56 C 0.20917 0.78522 0.78874
 C57 C 0.98057 0.00349 0.00301
 C58 C 1.01867 0.00296 0.00361
 C59 C 1.04085 0.02387 0.02188
 C60 C 1.03992 -0.01851 -0.01445
 C61 C 0.95885 -0.01547 -0.01922
 C62 C 0.95893 0.02280 0.02469
 C63 C 1.03531 0.05083 0.01386
 C64 C 1.05581 0.07035 0.03178
 C65 C 1.08229 0.06311 0.05759
 C66 C 1.08849 0.03628 0.06516
 C67 C 1.06800 0.01674 0.04728
 C68 C 1.06663 -0.01214 -0.04055
 C69 C 1.08499 -0.03224 -0.05932
 C70 C 1.07704 -0.05888 -0.05195
 C71 C 1.05129 -0.06537 -0.02519
 C72 C 1.03297 -0.04528 -0.00636
 C73 C 0.93225 -0.03209 -0.00314
 C74 C 0.91376 -0.05137 -0.02340
 C75 C 0.92146 -0.05403 -0.05995
 C76 C 0.94702 -0.03691 -0.07638
 C77 C 0.96547 -0.01761 -0.05617
 C78 C 0.96487 0.02507 0.06176
 C79 C 0.94517 0.04388 0.08169
 C80 C 0.91909 0.06041 0.06486
 C81 C 0.91242 0.05783 0.02810
 C82 C 0.93211 0.03903 0.00814
 H83 H 1.01503 0.05671 -0.00616
 H84 H 1.05093 0.09105 0.02560
 H85 H 1.10898 0.03048 0.08505
 H86 H 1.07284 -0.00393 0.05367
 H87 H 1.07247 0.00838 -0.04704
 H88 H 1.10495 -0.02703 -0.07993
 H89 H 1.01292 -0.05058 0.01411
 H90 H 0.92669 -0.03066 0.02527
 H91 H 0.89397 -0.06449 -0.01046
 H92 H 0.95307 -0.03874 -0.10466
 H93 H 0.98545 -0.00468 -0.06915
 H94 H 0.98492 0.01239 0.07515
 H95 H 0.95041 0.04564 0.11015
 H96 H 0.89225 0.07049 0.01484
 H97 H 0.92698 0.03747 -0.02035
 H98 H 1.04506 -0.08592 -0.01919
 C99 C 0.47780 0.50622 0.49750
 C100 C 0.51588 0.50550 0.49890
 C101 C 0.53784 0.52619 0.51788
 C102 C 0.53729 0.48388 0.48135
 C103 C 0.45646 0.48747 0.47461
 C104 C 0.45584 0.52535 0.51917
 C105 C 0.53257 0.55324 0.51024
 C106 C 0.55281 0.57254 0.52885
 C107 C 0.57878 0.56499 0.55498
 C108 C 0.58473 0.53808 0.56217
 C109 C 0.56448 0.51876 0.54362
 C110 C 0.56475 0.49003 0.45587
 C111 C 0.58342 0.46976 0.43769
 C112 C 0.57501 0.44319 0.44503
 C113 C 0.54845 0.43693 0.47116
 C114 C 0.52984 0.45717 0.48941
 C115 C 0.42950 0.47077 0.48996
 C116 C 0.41161 0.45151 0.46917
 C117 C 0.42025 0.44898 0.43280
 C118 C 0.44609 0.46623 0.41705
 C119 C 0.46396 0.48550 0.43779
 C120 C 0.46105 0.52715 0.55638
 C121 C 0.44105 0.54575 0.57637
 C122 C 0.41539 0.56256 0.55945
 C123 C 0.40943 0.56045 0.52253
 C124 C 0.42943 0.54184 0.50250
 H125 H 0.51269 0.55937 0.48999
 H126 H 0.54814 0.59332 0.52297
 H127 H 0.60483 0.53203 0.58229
 H128 H 0.56911 0.49803 0.54975
 H129 H 0.57100 0.51050 0.44944
 H130 H 0.60400 0.47480 0.41756
 H131 H 0.50921 0.45204 0.50943
 H132 H 0.42327 0.47206 0.51826
 H133 H 0.39162 0.43827 0.48160
 H134 H 0.45289 0.46448 0.38891
 H135 H 0.48427 0.49848 0.42537
 H136 H 0.48076 0.51425 0.56985
 H137 H 0.44573 0.54714 0.60495
 H138 H 0.38958 0.57332 0.50920
 H139 H 0.42485 0.54064 0.47389
 H140 H 0.54186 0.41643 0.47714
 C141 C 0.01643 0.49802 0.00526
 C142 C -0.02169 0.49773 0.00478
 C143 C -0.04348 0.47846 0.02640
 C144 C -0.04327 0.51684 -0.01732
 C145 C 0.03793 0.51934 -0.01286
 C146 C 0.03841 0.47700 0.02350
 C147 C -0.07041 0.46235 0.00978
 C148 C -0.09017 0.44353 0.02965
 C149 C -0.08348 0.44081 0.06638
 C150 C -0.05731 0.45724 0.08329
 C151 C -0.03753 0.47607 0.06345
 C152 C -0.03674 0.51905 -0.05428
 C153 C -0.05520 0.53840 -0.07438
 C154 C -0.08070 0.55549 -0.05785
 C155 C -0.08831 0.55278 -0.02129
 C156 C -0.06979 0.53347 -0.00113
 C157 C 0.03141 0.54617 -0.00476
 C158 C 0.05015 0.56611 -0.02352
 C159 C 0.07588 0.55942 -0.05021
 C160 C 0.08336 0.53273 -0.05762
 C161 C 0.06458 0.51277 -0.03893
 C162 C 0.06569 0.48399 0.04883
 C163 C 0.08610 0.46437 0.06660
 C164 C 0.07965 0.43757 0.05900
 C165 C 0.05299 0.43045 0.03329
 C166 C 0.03259 0.45007 0.01546
 H167 H -0.07554 0.46400 -0.01870
 H168 H -0.11040 0.43094 0.01632
 H169 H -0.05204 0.45536 0.11172
 H170 H -0.01739 0.48865 0.07689
 H171 H -0.01684 0.50611 -0.06736
 H172 H -0.04923 0.54027 -0.10268
 H173 H -0.07532 0.53197 0.02728
 H174 H 0.01143 0.55162 0.01568
 H175 H 0.04427 0.58671 -0.01750
 H176 H 0.10329 0.52737 -0.07818
 H177 H 0.07010 0.49221 -0.04541
 H178 H 0.07075 0.50464 0.05523
 H179 H 0.10674 0.47007 0.08640
 H180 H 0.04792 0.40977 0.02709
 H181 H 0.01221 0.44428 -0.00451
 H182 H -0.10806 0.56588 -0.00827
 C183 C 0.51826 0.99341 0.49672
 C184 C 0.48017 0.99272 0.49541
 C185 C 0.45821 0.97358 0.51708
 C186 C 0.45879 1.01159 0.47276
 C187 C 0.53967 1.01503 0.47918
 C188 C 0.54023 0.97272 0.51568
 C189 C 0.43164 0.95719 0.50044
 C190 C 0.41146 0.93870 0.52051
 C191 C 0.41740 0.93659 0.55743
 C192 C 0.44327 0.95326 0.57431
 C193 C 0.46346 0.97176 0.55428
 C194 C 0.46614 1.01375 0.43593
 C195 C 0.44815 1.03310 0.41542
 C196 C 0.42236 1.05025 0.43142
 C197 C 0.41390 1.04755 0.46780
 C198 C 0.43191 1.02822 0.48836
 C199 C 0.53236 1.04174 0.48740
 C200 C 0.55102 1.06199 0.46922
 C201 C 0.57749 1.05577 0.44300
 C202 C 0.58577 1.02920 0.43549
 C203 C 0.56705 1.00892 0.45361
 C204 C 0.56692 0.98016 0.54137
 C205 C 0.58715 0.96086 0.55995
 C206 C 0.58113 0.93394 0.55284
 C207 C 0.55512 0.92638 0.52675
 C208 C 0.53489 0.94567 0.50811
 H209 H 0.42704 0.95842 0.47184
 H210 H 0.39144 0.92592 0.50721
 H211 H 0.44794 0.95189 0.60290
 H212 H 0.48328 0.98459 0.56773
 H213 H 0.48638 1.00083 0.42331
 H214 H 0.45480 1.03497 0.38727
 H215 H 0.42579 1.02679 0.51667
 H216 H 0.51181 1.04684 0.50750
 H217 H 0.54453 1.08248 0.47533
 H218 H 0.60628 1.02419 0.41530
 H219 H 0.57320 0.98845 0.44707
 H220 H 0.57159 1.00090 0.54745
 H221 H 0.60727 0.96692 0.58004
 H222 H 0.55038 0.90559 0.52093
 H223 H 0.51498 0.93952 0.48790
 H224 H 0.39395 1.06071 0.48042
 C225 C 1.14014 0.12005 0.11276
 C226 C 1.13601 0.14715 0.10368
 C227 C 1.15542 0.16686 0.12355
 C228 C 1.17886 0.15934 0.15237
 C229 C 1.18318 0.13222 0.16131
 C230 C 1.16377 0.11251 0.14144
 C231 C 1.16847 0.08554 0.15093
 C232 C 1.19169 0.07824 0.17922
 C233 C 1.21069 0.09752 0.19864
 C234 C 1.20658 0.12423 0.18992
 C235 C 1.15079 0.19385 0.11404
 C236 C 1.12764 0.20114 0.08569
 C237 C 1.10866 0.18187 0.06626
 C238 C 1.11268 0.15515 0.07503
 C239 C 1.19823 0.17949 0.17301
 C240 C 1.21414 0.19624 0.19026
 C241 C 1.11981 0.09994 0.09289
 C242 C 1.10278 0.08318 0.07663
 H243 H 1.15430 0.06981 0.13661
 H244 H 1.19497 0.05752 0.18610
 H245 H 1.22870 0.09175 0.22059
 H246 H 1.22195 0.13848 0.20581
 H247 H 1.16498 0.20956 0.12835
 H248 H 1.12442 0.22187 0.07878
 H249 H 1.09071 0.18764 0.04426
 H250 H 1.09735 0.14089 0.05911
 C251 C 0.63616 0.62103 0.61226
 C252 C 0.66333 0.61289 0.63756
 C253 C 0.68274 0.63216 0.65822
 C254 C 0.67486 0.65945 0.65346
 C255 C 0.64784 0.66760 0.62801
 C256 C 0.62843 0.64833 0.60735
 C257 C 0.60150 0.65695 0.58214
 C258 C 0.59396 0.68385 0.57746
 C259 C 0.61294 0.70269 0.59765
 C260 C 0.63960 0.69478 0.62267
 C261 C 0.70973 0.62354 0.68339
 C262 C 0.71734 0.59666 0.68800
 C263 C 0.69837 0.57782 0.66780
 C264 C 0.67165 0.58572 0.64283
 C265 C 0.69430 0.67912 0.67491
 C266 C 0.71024 0.69552 0.69275
 C267 C 0.61592 0.60131 0.59160
 C268 C 0.59904 0.58482 0.57473
 H269 H 0.58602 0.64304 0.56579
 H270 H 0.57327 0.69009 0.55806
 H271 H 0.60697 0.72355 0.59392
 H272 H 0.65363 0.71018 0.63772
 H273 H 0.72522 0.63745 0.69972
 H274 H 0.73807 0.59042 0.70737
 H275 H 0.70438 0.55696 0.67149
 H276 H 0.65765 0.57032 0.62775
 C277 C -0.13804 0.38321 0.12326
 C278 C -0.13900 0.35697 0.10978
 C279 C -0.15734 0.33667 0.12948
 C280 C -0.17465 0.34275 0.16252
 C281 C -0.17381 0.36901 0.17594
 C282 C -0.15544 0.38930 0.15626
 C283 C -0.15492 0.41538 0.17025
 C284 C -0.17209 0.42127 0.20274
 C285 C -0.19007 0.40143 0.22197
 C286 C -0.19100 0.37557 0.20887
 C287 C -0.15786 0.31058 0.11550
 C288 C -0.14078 0.30470 0.08297
 C289 C -0.12288 0.32454 0.06369
 C290 C -0.12191 0.35041 0.07681
 C291 C -0.19317 0.32199 0.18275
 C292 C -0.20850 0.30477 0.19962
 C293 C -0.11898 0.40386 0.10327
 C294 C -0.10293 0.42083 0.08654
 H295 H -0.14128 0.43148 0.15626
 H296 H -0.17143 0.44133 0.21304
 H297 H -0.20337 0.40610 0.24720
 H298 H -0.20533 0.36083 0.22480
 H299 H -0.17145 0.29447 0.12951
 H300 H -0.14145 0.28463 0.07268
 H301 H -0.10967 0.31988 0.03843
 H302 H -0.10764 0.36515 0.06082
 C303 C 0.36096 0.88079 0.61588
 C304 C 0.35936 0.85425 0.60355
 C305 C 0.34051 0.83467 0.62411
 C306 C 0.32335 0.84176 0.65686
 C307 C 0.32478 0.86831 0.66910
 C308 C 0.34365 0.88789 0.64855
 C309 C 0.34478 0.91429 0.66139
 C310 C 0.32774 0.92116 0.69358
 C311 C 0.30928 0.90203 0.71366
 C312 C 0.30772 0.87588 0.70170
 C313 C 0.33938 0.80826 0.61129
 C314 C 0.35636 0.80139 0.57907
 C315 C 0.37476 0.82053 0.55895
 C316 C 0.37633 0.84669 0.57091
 C317 C 0.30455 0.82168 0.67809
 C318 C 0.28914 0.80496 0.69578
 C319 C 0.38069 0.90070 0.59513
 C320 C 0.39729 0.91714 0.57793
 H321 H 0.35880 0.92988 0.64671
 H322 H 0.32888 0.94145 0.70300
 H323 H 0.29609 0.90746 0.73866
 H324 H 0.29303 0.86170 0.71826
 H325 H 0.32539 0.79267 0.62598
 H326 H 0.35523 0.78109 0.56967
 H327 H 0.38789 0.81510 0.53394
 H328 H 0.39096 0.86087 0.55431
 C329 C -0.12902 0.61532 -0.11578
 C330 C -0.10897 0.62695 -0.14441
 C331 C -0.12533 0.64785 -0.16458
 C332 C -0.16163 0.65701 -0.15599
 C333 C -0.18157 0.64549 -0.12721
 C334 C -0.16522 0.62458 -0.10704
 C335 C -0.18568 0.61339 -0.07839
 C336 C -0.22129 0.62259 -0.06988
 C337 C -0.23728 0.64303 -0.08959
 C338 C -0.21780 0.65441 -0.11796
 C339 C -0.10476 0.65915 -0.19309
 C340 C -0.06902 0.65009 -0.20140
 C341 C -0.05301 0.62967 -0.18166
 C342 C -0.07263 0.61815 -0.15347
 C343 C -0.17858 0.67811 -0.17691
 C344 C -0.19289 0.69549 -0.19433
 C345 C -0.11232 0.59393 -0.09523
 C346 C -0.09817 0.57629 -0.07818
 H347 H -0.17441 0.59745 -0.06226
 H348 H -0.23654 0.61382 -0.04786
 H349 H -0.26495 0.65011 -0.08287
 H350 H -0.23141 0.67027 -0.13248
 H351 H -0.11602 0.67510 -0.20920
 H352 H -0.05367 0.65897 -0.22327
 H353 H -0.02524 0.62271 -0.18821
 H354 H -0.05900 0.60232 -0.13891
 C355 C 0.37627 1.11103 0.37364
 C356 C 0.39071 1.13699 0.37805
 C357 C 0.37486 1.15847 0.35862
 C358 C 0.34467 1.15386 0.33490
 C359 C 0.33044 1.12787 0.33025
 C360 C 0.34629 1.10639 0.34968
 C361 C 0.33159 1.08060 0.34461
 C362 C 0.30208 1.07614 0.32100
 C363 C 0.28657 1.09713 0.30200
 C364 C 0.30047 1.12273 0.30647
 C365 C 0.38973 1.18423 0.36350
 C366 C 0.41942 1.18867 0.38692
 C367 C 0.43489 1.16768 0.40595
 C368 C 0.42084 1.14210 0.40166
 C369 C 0.32797 1.17583 0.31550
 C370 C 0.31359 1.19379 0.29927
 C371 C 0.39218 1.08918 0.39386
 C372 C 0.40567 1.07125 0.41086
 H373 H 0.34274 1.06363 0.35877
 H374 H 0.29118 1.05628 0.31743
 H375 H 0.26364 1.09356 0.28370
 H376 H 0.28748 1.13840 0.29106
 H377 H 0.37863 1.20119 0.34928
 H378 H 0.43045 1.20850 0.39033
 H379 H 0.45787 1.17123 0.42419
 H380 H 0.43385 1.12642 0.41703
 C381 C 1.12626 -0.11744 -0.11134
 C382 C 1.16143 -0.11291 -0.12754
 C383 C 1.17831 -0.13314 -0.14849
 C384 C 1.15993 -0.15779 -0.15308
 C385 C 1.12466 -0.16227 -0.13703
 C386 C 1.10776 -0.14202 -0.11611
 C387 C 1.07248 -0.14694 -0.10036
 C388 C 1.05442 -0.17118 -0.10513
 C389 C 1.07092 -0.19096 -0.12561
 C390 C 1.10565 -0.18667 -0.14143
 C391 C 1.21346 -0.12814 -0.16448
 C392 C 1.23140 -0.10384 -0.15992
 C393 C 1.21490 -0.08407 -0.13941
 C394 C 1.18033 -0.08844 -0.12334
 C395 C 1.17742 -0.17852 -0.17417
 C396 C 1.19223 -0.19563 -0.19164
 C397 C 1.10902 -0.09675 -0.08999
 C398 C 1.09459 -0.07951 -0.07247
 H399 H 1.05848 -0.13215 -0.08424
 H400 H 1.02744 -0.17461 -0.09290
 H401 H 1.05675 -0.20974 -0.12927
 H402 H 1.11736 -0.20267 -0.15713
 H403 H 1.22741 -0.14289 -0.18069
 H404 H 1.25824 -0.10034 -0.17237
 H405 H 1.22895 -0.06522 -0.13594
 H406 H 1.16862 -0.07244 -0.10765
 C407 C 0.62499 0.38384 0.38768
 C408 C 0.65936 0.38853 0.37004
 C409 C 0.67642 0.36792 0.34990
 C410 C 0.65902 0.34275 0.34756
 C411 C 0.62454 0.33811 0.36501
 C412 C 0.60746 0.35873 0.38512
 C413 C 0.57294 0.35365 0.40226
 C414 C 0.55579 0.32891 0.39961
 C415 C 0.57251 0.30875 0.37997
 C416 C 0.60650 0.31318 0.36282
 C417 C 0.71074 0.37310 0.33243
 C418 C 0.72770 0.39792 0.33476
 C419 C 0.71103 0.41806 0.35449
 C420 C 0.67726 0.41353 0.37199
 C421 C 0.67668 0.32167 0.32723
 C422 C 0.69167 0.30434 0.31031
 C423 C 0.60757 0.40489 0.40824
 C424 C 0.59291 0.42237 0.42516
 H425 H 0.55883 0.36870 0.41784
 H426 H 0.52941 0.32535 0.41289
 H427 H 0.55908 0.28956 0.37800
 H428 H 0.61841 0.29688 0.34785
 H429 H 0.72479 0.35808 0.31675
 H430 H 0.75391 0.40154 0.32119
 H431 H 0.72431 0.43730 0.35623
 H432 H 0.66538 0.42982 0.38698
 C433 C 0.87323 -0.11397 -0.11775
 C434 C 0.83389 -0.11563 -0.12107
 C435 C 0.81752 -0.13671 -0.14088
 C436 C 0.84058 -0.15604 -0.15722
 C437 C 0.87994 -0.15439 -0.15390
 C438 C 0.89632 -0.13327 -0.13414
 C439 C 0.93573 -0.13197 -0.13131
 C440 C 0.95832 -0.15098 -0.14752
 C441 C 0.94230 -0.17168 -0.16673
 C442 C 0.90358 -0.17346 -0.16997
 C443 C 0.77811 -0.13791 -0.14387
 C444 C 0.75554 -0.11885 -0.12773
 C445 C 0.77156 -0.09825 -0.10835
 C446 C 0.81027 -0.09656 -0.10496
 C447 C 0.82375 -0.17748 -0.17762
 C448 C 0.80932 -0.19506 -0.19458
 C449 C 0.88996 -0.09252 -0.09736
 C450 C 0.90408 -0.07484 -0.08034
 H451 H 0.94951 -0.11625 -0.11663
 H452 H 0.98840 -0.14962 -0.14520
 H453 H 0.95998 -0.18642 -0.17922
 H454 H 0.89242 -0.18991 -0.18522
 H455 H 0.76431 -0.15356 -0.15866
 H456 H 0.72545 -0.12008 -0.13029
 H457 H 0.75390 -0.08349 -0.09586
 H458 H 0.82141 -0.08016 -0.08962
 C459 C 0.37490 0.38824 0.37436
 C460 C 0.34457 0.39273 0.35077
 C461 C 0.32898 0.37123 0.33118
 C462 C 0.34381 0.34537 0.33534
 C463 C 0.37442 0.34093 0.35861
 C464 C 0.39002 0.36244 0.37818
 C465 C 0.42060 0.35750 0.40131
 C466 C 0.43534 0.33207 0.40500
 C467 C 0.42011 0.31106 0.38583
 C468 C 0.38998 0.31532 0.36288
 C469 C 0.29867 0.37622 0.30774
 C470 C 0.28419 0.40170 0.30375
 C471 C 0.29942 0.42271 0.32293
 C472 C 0.32925 0.41839 0.34622
 C473 C 0.32730 0.32336 0.31588
 C474 C 0.31307 0.30535 0.29959
 C475 C 0.39050 0.41010 0.39481
 C476 C 0.40377 0.42801 0.41201
 H477 H 0.43345 0.37321 0.41677
 H478 H 0.45868 0.32865 0.42286
 H479 H 0.43168 0.29134 0.38878
 H480 H 0.37909 0.29835 0.34853
 H481 H 0.28589 0.36053 0.29221
 H482 H 0.26104 0.40515 0.28567
 H483 H 0.28807 0.44247 0.31975
 H484 H 0.34017 0.43537 0.36053
 C485 C 0.12598 0.61779 -0.10930
 C486 C 0.15885 0.61223 -0.12896
 C487 C 0.17579 0.63245 -0.14990
 C488 C 0.15977 0.65812 -0.15102
 C489 C 0.12683 0.66366 -0.13145
 C490 C 0.10986 0.64343 -0.11055
 C491 C 0.07689 0.64941 -0.09129
 C492 C 0.06113 0.67467 -0.09264
 C493 C 0.07775 0.69446 -0.11304
 C494 C 0.11023 0.68913 -0.13227
 C495 C 0.20859 0.62641 -0.16939
 C496 C 0.22422 0.60111 -0.16823
 C497 C 0.20767 0.58135 -0.14773
 C498 C 0.17537 0.58673 -0.12826
 C499 C 0.17722 0.67879 -0.17224
 C500 C 0.19188 0.69589 -0.18985
 C501 C 0.10856 0.59711 -0.08807
 C502 C 0.09385 0.57993 -0.07064
 H503 H 0.06293 0.63468 -0.07503
 H504 H 0.03590 0.67890 -0.07775
 H505 H 0.06542 0.71405 -0.11398
 H506 H 0.12211 0.70517 -0.14777
 H507 H 0.22248 0.64111 -0.18574
 H508 H 0.24929 0.59683 -0.18333
 H509 H 0.21992 0.56173 -0.14690
 H510 H 0.16352 0.57070 -0.11272
 C511 C 0.62745 1.11533 0.38599
 C512 C 0.60822 1.13958 0.38078
 C513 C 0.62523 1.16031 0.36082
 C514 C 0.66131 1.15665 0.34613
 C515 C 0.68042 1.13233 0.35112
 C516 C 0.66345 1.11162 0.37114
 C517 C 0.68309 1.08749 0.37578
 C518 C 0.71846 1.08392 0.36102
 C519 C 0.73504 1.10415 0.34140
 C520 C 0.71639 1.12813 0.33645
 C521 C 0.60549 1.18438 0.35599
 C522 C 0.56993 1.18784 0.37040
 C523 C 0.55328 1.16756 0.38987
 C524 C 0.57208 1.14367 0.39511
 C525 C 0.67880 1.17784 0.32587
 C526 C 0.69361 1.19529 0.30900
 C527 C 0.61008 1.09417 0.40640
 C528 C 0.59544 1.07663 0.42322
 H529 H 0.67134 1.07116 0.39080
 H530 H 0.73308 1.06533 0.36481
 H531 H 0.76252 1.10127 0.32995
 H532 H 0.73044 1.14327 0.32097
 H533 H 0.61727 1.20073 0.34101
 H534 H 0.55521 1.20636 0.36642
 H535 H 0.52565 1.17034 0.40098
 H536 H 0.55796 1.12848 0.41046
 C537 C 0.13766 0.38036 0.11349
 C538 C 0.13152 0.35320 0.10583
 C539 C 0.15115 0.33341 0.12535
 C540 C 0.17678 0.34091 0.15242
 C541 C 0.18305 0.36807 0.15998
 C542 C 0.16344 0.38786 0.14044
 C543 C 0.17013 0.41488 0.14851
 C544 C 0.19546 0.42214 0.17512
 C545 C 0.21462 0.40279 0.19424
 C546 C 0.20860 0.37603 0.18687
 C547 C 0.14451 0.30638 0.11726
 C548 C 0.11919 0.29912 0.09065
 C549 C 0.09998 0.31847 0.07158
 C550 C 0.10596 0.34523 0.07896
 C551 C 0.19642 0.32070 0.17271
 C552 C 0.21255 0.30391 0.18970
 C553 C 0.11722 0.40057 0.09391
 C554 C 0.10014 0.41740 0.07786
 H555 H 0.15591 0.43066 0.13436
 H556 H 0.20023 0.44290 0.18094
 H557 H 0.23426 0.40853 0.21489
 H558 H 0.22419 0.36171 0.20245
 H559 H 0.15878 0.29061 0.13136
 H560 H 0.11445 0.27835 0.08482
 H561 H 0.08033 0.31272 0.05094
 H562 H 0.09036 0.35955 0.06339
 C563 C 0.63824 0.87798 0.61046
 C564 C 0.66379 0.88619 0.63723
 C565 C 0.68301 0.86694 0.65807
 C566 C 0.67658 0.83959 0.65200
 C567 C 0.65122 0.83138 0.62507
 C568 C 0.63198 0.85063 0.60424
 C569 C 0.60670 0.84195 0.57754
 C570 C 0.60060 0.81501 0.57157
 C571 C 0.61941 0.79619 0.59192
 C572 C 0.64445 0.80416 0.61840
 C573 C 0.70833 0.87562 0.68474
 C574 C 0.71450 0.90256 0.69065
 C575 C 0.69572 0.92138 0.67027
 C576 C 0.67062 0.91341 0.64384
 C577 C 0.69573 0.81993 0.67369
 C578 C 0.71138 0.80353 0.69176
 C579 C 0.61812 0.89767 0.58965
 C580 C 0.60131 0.91413 0.57267
 H581 H 0.59141 0.85585 0.56101
 H582 H 0.58117 0.80871 0.55103
 H583 H 0.61458 0.77529 0.58717
 H584 H 0.65842 0.78876 0.63353
 H585 H 0.72363 0.86173 0.70127
 H586 H 0.73397 0.90885 0.71115
 H587 H 0.70061 0.94228 0.67496
 H588 H 0.65670 0.92880 0.62868
 C589 C 0.86426 0.11758 0.12224
 C590 C 0.84509 0.11092 0.15412
 C591 C 0.82646 0.13098 0.17400
 C592 C 0.82714 0.15759 0.16188
 C593 C 0.84627 0.16425 0.12998
 C594 C 0.86487 0.14418 0.11009
 C595 C 0.88382 0.15133 0.07830
 C596 C 0.88439 0.17755 0.06649
 C597 C 0.86621 0.19716 0.08594
 C598 C 0.84732 0.19071 0.11733
 C599 C 0.80751 0.12384 0.20580
 C600 C 0.80697 0.09764 0.21763
 C601 C 0.82519 0.07803 0.19820
 C602 C 0.84407 0.08447 0.16680
 C603 C 0.80826 0.17810 0.18226
 C604 C 0.79262 0.19509 0.19927
 C605 C 0.88348 0.09713 0.10203
 C606 C 0.89960 0.08029 0.08515
 H607 H 0.89838 0.13678 0.06224
 H608 H 0.89902 0.18266 0.04212
 H609 H 0.86674 0.21750 0.07666
 H610 H 0.83359 0.20666 0.13152
 H611 H 0.79292 0.13839 0.22183
 H612 H 0.79235 0.09253 0.24201
 H613 H 0.82470 0.05770 0.20751
 H614 H 0.85782 0.06852 0.15261
 C615 C 0.36003 0.61907 0.61756
 C616 C 0.34258 0.61230 0.65029
 C617 C 0.32406 0.63215 0.67064
 C618 C 0.32315 0.65866 0.65815
 C619 C 0.34048 0.66541 0.62536
 C620 C 0.35896 0.64556 0.60499
 C621 C 0.37611 0.65281 0.57231
 C622 C 0.37506 0.67892 0.56011
 C623 C 0.35701 0.69833 0.58004
 C624 C 0.33987 0.69177 0.61230
 C625 C 0.30684 0.62491 0.70329
 C626 C 0.30789 0.59880 0.71550
 C627 C 0.32602 0.57940 0.69562
 C628 C 0.34321 0.58595 0.66337
 C629 C 0.30458 0.67899 0.67911
 C630 C 0.28927 0.69589 0.69655
 C631 C 0.37936 0.59888 0.59697
 C632 C 0.39563 0.58223 0.57988
 H633 H 0.39048 0.63841 0.55585
 H634 H 0.38833 0.68411 0.53506
 H635 H 0.35628 0.71859 0.57046
 H636 H 0.32616 0.70757 0.62684
 H637 H 0.29240 0.63929 0.71971
 H638 H 0.29458 0.59361 0.74053
 H639 H 0.32677 0.55915 0.70522
 H640 H 0.35695 0.57016 0.64885
   
