data_POSCAR
  _audit_creation_date              2014-09-24
  _audit_creation_method            'ToBaCCo'
  _symmetry_space_group_name_H-M    'P1'
  _symmetry_Int_Tables_number       1
  _symmetry_cell_setting            triclinic
  loop_
  _symmetry_equiv_pos_as_xyz
 x,y,z
_cell_length_a 45.6560
_cell_length_b 46.2904
_cell_length_c 50.0652
_cell_angle_alpha 90.024500
_cell_angle_beta 89.993900
_cell_angle_gamma 119.923200
loop_
  _atom_site_label
  _atom_site_type_symbol
  _atom_site_fract_x
  _atom_site_fract_y
  _atom_site_fract_z
C1 C 0.03224 0.53290 1.30750
 C2 C 0.00102 0.51845 1.32086
 C3 C -0.03021 0.50196 1.30752
 C4 C -0.03021 0.50279 1.27906
 C5 C 0.00091 0.51725 1.26483
 C6 C 0.03218 0.53308 1.27899
 C7 C 0.06214 0.55122 1.26410
 C8 C 0.06198 0.55091 1.23642
 C9 C 0.03176 0.53337 1.22205
 C10 C 0.00074 0.51735 1.23623
 C11 C -0.06002 0.49283 1.26438
 C12 C -0.06012 0.49280 1.23667
 C13 C -0.03039 0.50283 1.22192
 C14 C -0.03032 0.50199 1.19335
 C15 C 0.00101 0.51845 1.18011
 C16 C 0.03170 0.53359 1.19383
 H17 H 0.08617 0.56754 1.27330
 H18 H 0.08592 0.56589 1.22646
 H19 H -0.08357 0.48684 1.27390
 H20 H -0.08373 0.48676 1.22726
 H21 H 0.00106 0.51757 1.34248
 H22 H 0.00196 0.51822 1.15847
 C23 C 0.51114 0.47832 1.19150
 C24 C 0.49935 0.49694 1.17793
 C25 C 0.48730 0.51526 1.19160
 C26 C 0.48824 0.51617 1.21988
 C27 C 0.49929 0.49676 1.23404
 C28 C 0.51004 0.47721 1.21979
 C29 C 0.51788 0.45595 1.23419
 C30 C 0.51762 0.45566 1.26196
 C31 C 0.51045 0.47731 1.27677
 C32 C 0.49934 0.49673 1.26251
 C33 C 0.47927 0.53659 1.23436
 C34 C 0.47903 0.53638 1.26210
 C35 C 0.48792 0.51588 1.27656
 C36 C 0.48636 0.51457 1.30473
 C37 C 0.49834 0.49633 1.31850
 C38 C 0.51182 0.47868 1.30532
 H39 H 0.52327 0.43843 1.22417
 H40 H 0.52169 0.43701 1.27134
 H41 H 0.47279 0.55340 1.22447
 H42 H 0.47226 0.55296 1.27203
 H43 H 0.49942 0.49707 1.15627
 H44 H 0.49786 0.49686 1.34014
 C45 C 0.47314 0.96888 1.30893
 C46 C 0.48552 0.99958 1.32219
 C47 C 0.50107 1.03035 1.30880
 C48 C 0.50136 1.03024 1.28033
 C49 C 0.48894 0.99965 1.26622
 C50 C 0.47397 0.96885 1.28042
 C51 C 0.45752 0.93910 1.26549
 C52 C 0.45875 0.93923 1.23782
 C53 C 0.47558 0.96914 1.22347
 C54 C 0.48994 0.99976 1.23763
 C55 C 0.51032 1.05924 1.26543
 C56 C 0.51161 1.05934 1.23776
 C57 C 0.50373 1.03036 1.22326
 C58 C 0.50580 1.03035 1.19475
 C59 C 0.49085 0.99943 1.18153
 C60 C 0.47614 0.96919 1.19526
 H61 H 0.44174 0.91516 1.27459
 H62 H 0.44505 0.91543 1.22781
 H63 H 0.51451 1.08204 1.27468
 H64 H 0.51675 1.08221 1.22810
 H65 H 0.48563 0.99968 1.34383
 H66 H 0.49181 0.99851 1.15992
 C67 C 1.03281 0.50325 0.80711
 C68 C 1.00158 0.48301 0.81977
 C69 C 0.97100 0.46832 0.80589
 C70 C 0.97113 0.47150 0.77784
 C71 C 1.00220 0.49065 0.76408
 C72 C 1.03317 0.50660 0.77862
 C73 C 1.06334 0.52389 0.76391
 C74 C 1.06327 0.52744 0.73640
 C75 C 1.03327 0.51130 0.72140
 C76 C 1.00222 0.49336 0.73562
 C77 C 0.94102 0.45484 0.76308
 C78 C 0.94098 0.45811 0.73556
 C79 C 0.97109 0.47789 0.72147
 C80 C 0.97096 0.48173 0.69350
 C81 C 1.00152 0.49955 0.67987
 C82 C 1.03299 0.51340 0.69285
 H83 H 1.08795 0.53452 0.77289
 H84 H 1.08749 0.54379 0.72757
 H85 H 0.91708 0.43846 0.77256
 H86 H 0.91696 0.44427 0.72545
 H87 H 1.00048 0.48052 0.84134
 H88 H 1.00043 0.50121 0.65832
 C89 C 0.51417 0.48236 0.69484
 C90 C 0.50132 0.50018 0.68149
 C91 C 0.48754 0.51688 0.69529
 C92 C 0.48704 0.51633 0.72360
 C93 C 0.50002 0.49840 0.73754
 C94 C 0.51321 0.48097 0.72311
 C95 C 0.52388 0.46169 0.73733
 C96 C 0.52327 0.46082 0.76509
 C97 C 0.51195 0.47917 0.77988
 C98 C 0.49947 0.49757 0.76598
 C99 C 0.47432 0.53349 0.73837
 C100 C 0.47322 0.53218 0.76612
 C101 C 0.48593 0.51465 0.78041
 C102 C 0.48462 0.51289 0.80869
 C103 C 0.49705 0.49466 0.82201
 C104 C 0.51143 0.47853 0.80818
 H105 H 0.53221 0.44644 0.72722
 H106 H 0.53104 0.44484 0.77472
 H107 H 0.46502 0.54821 0.72871
 H108 H 0.46197 0.54494 0.77613
 H109 H 0.50187 0.50089 0.65982
 H110 H 0.49656 0.49399 0.84367
 C111 C 0.50893 0.03015 0.69176
 C112 C 0.49045 -0.00005 0.67818
 C113 C 0.47688 -0.03106 0.69119
 C114 C 0.47920 -0.03129 0.71969
 C115 C 0.49753 -0.00059 0.73383
 C116 C 0.51269 0.03012 0.71977
 C117 C 0.53036 0.06007 0.73419
 C118 C 0.53383 0.06003 0.76175
 C119 C 0.51865 0.03010 0.77627
 C120 C 0.50035 -0.00052 0.76222
 C121 C 0.46227 -0.06088 0.73478
 C122 C 0.46593 -0.06087 0.76232
 C123 C 0.48481 -0.03105 0.77651
 C124 C 0.48872 -0.03088 0.80459
 C125 C 0.50763 -0.00057 0.81794
 C126 C 0.52175 0.02988 0.80443
 H127 H 0.54159 0.08406 0.72443
 H128 H 0.54877 0.08387 0.77143
 H129 H 0.44488 -0.08458 0.72598
 H130 H 0.45339 -0.08474 0.77228
 H131 H 0.48893 0.00094 0.65661
 H132 H 0.51000 -0.00063 0.83951
 O133 O 0.38610 0.67140 0.96993
 O134 O 0.38738 0.72793 0.97747
 C135 C 0.36634 0.73240 0.96405
 O136 O 0.33486 0.71682 0.96864
 O137 O 0.27779 0.66211 0.97766
 C138 C 0.27271 0.63607 0.96523
 O139 O 0.28853 0.62073 0.97038
 O140 O 0.34450 0.61981 0.97895
 C141 C 0.37039 0.64026 0.96568
 O142 O 0.38777 0.66328 1.02306
 O143 O 0.38601 0.71823 1.03068
 C144 C 0.37007 0.73365 1.03504
 O145 O 0.34437 0.72875 1.02158
 O146 O 0.28880 0.67273 1.03057
 C147 C 0.27323 0.64189 1.03594
 O148 O 0.27816 0.62076 1.02344
 O149 O 0.33543 0.62242 1.03197
 C150 C 0.36694 0.63796 1.03643
 Cr151 Cr 0.38493 0.69429 1.00028
 Cr152 Cr 0.31241 0.69418 0.99963
 Cr153 Cr 0.31260 0.62279 1.00115
 O154 O 0.33663 0.67040 1.00033
 O155 O 0.61548 0.33454 0.97683
 O156 O 0.61818 0.27996 0.96981
 C157 C 0.63440 0.26472 0.96588
 O158 O 0.66000 0.26995 0.97965
 O159 O 0.71540 0.32624 0.97085
 C160 C 0.73061 0.35699 0.96514
 O161 O 0.72518 0.37808 0.97719
 O162 O 0.66765 0.37575 0.96805
 C163 C 0.63617 0.35992 0.96347
 O164 O 0.61678 0.32680 1.03004
 O165 O 0.61619 0.27059 1.02308
 C166 C 0.63720 0.26658 1.03695
 O167 O 0.66872 0.28239 1.03264
 O168 O 0.72555 0.33735 1.02380
 C169 C 0.73010 0.36339 1.03595
 O170 O 0.71423 0.37850 1.03017
 O171 O 0.65800 0.37859 1.02101
 C172 C 0.63218 0.35794 1.03426
 Cr173 Cr 0.61854 0.30391 0.99994
 Cr174 Cr 0.69145 0.30489 1.00168
 Cr175 Cr 0.69036 0.37587 0.99914
 O176 O 0.66682 0.32826 1.00024
 O177 O 0.65801 0.38245 0.52230
 O178 O 0.71365 0.38097 0.53088
 C179 C 0.72938 0.36542 0.53555
 O180 O 0.72480 0.34010 0.52221
 O181 O 0.66772 0.28475 0.52982
 C182 C 0.63623 0.26932 0.53443
 O183 O 0.61535 0.27450 0.52149
 O184 O 0.61644 0.33061 0.53027
 C185 C 0.63208 0.36157 0.53524
 O186 O 0.66799 0.38173 0.46928
 O187 O 0.72505 0.38322 0.47793
 C188 C 0.73020 0.36286 0.46452
 O189 O 0.71475 0.33177 0.46893
 O190 O 0.65901 0.27514 0.47660
 C191 C 0.63298 0.27028 0.46365
 O192 O 0.61714 0.28567 0.46855
 O193 O 0.61552 0.34044 0.47720
 C194 C 0.63662 0.36606 0.46425
 Cr195 Cr 0.69024 0.38022 0.50009
 Cr196 Cr 0.69063 0.30888 0.49940
 Cr197 Cr 0.61801 0.30875 0.49939
 O198 O 0.66628 0.33259 0.49963
 O199 O 0.34560 0.61715 0.52117
 O200 O 0.28937 0.61750 0.52970
 C201 C 0.27330 0.63263 0.53472
 O202 O 0.27798 0.65839 0.52205
 O203 O 0.33468 0.71361 0.53082
 C204 C 0.36616 0.72963 0.53539
 O205 O 0.38741 0.72518 0.52224
 O206 O 0.38673 0.66900 0.53003
 C207 C 0.37122 0.63791 0.53453
 O208 O 0.33630 0.61931 0.46813
 O209 O 0.27871 0.61691 0.47664
 C210 C 0.27351 0.63770 0.46393
 O211 O 0.28887 0.66861 0.46907
 O212 O 0.34407 0.72510 0.47788
 C213 C 0.37013 0.73053 0.46469
 O214 O 0.38627 0.71531 0.46909
 O215 O 0.38852 0.66059 0.47683
 C216 C 0.36775 0.63520 0.46347
 Cr217 Cr 0.31344 0.61958 0.49893
 Cr218 Cr 0.31236 0.69051 0.49994
 Cr219 Cr 0.38535 0.69155 0.49955
 O220 O 0.33704 0.66721 0.49948
 N221 N 0.47637 0.56378 0.35826
 C222 C 0.44576 0.56029 0.35254
 N223 N 0.42859 0.54225 0.33083
 N224 N 0.44172 0.52819 0.31529
 C225 C 0.47253 0.53186 0.32085
 N226 N 0.48948 0.54974 0.34273
 C227 C 0.43126 0.57439 0.36997
 C228 C 0.41950 0.58600 0.38528
 C229 C 0.40599 0.59951 0.40424
 N230 N 0.42697 0.62731 0.41828
 N231 N 0.41469 0.63896 0.43690
 C232 C 0.38103 0.62316 0.44213
 N233 N 0.36006 0.59540 0.42794
 N234 N 0.37235 0.58374 0.40932
 N235 N 0.45243 0.88583 0.33199
 C236 C 0.44171 0.88586 0.35722
 N237 N 0.44167 0.91334 0.36637
 N238 N 0.45169 0.93986 0.35070
 C239 C 0.46182 0.93996 0.32510
 N240 N 0.46247 0.91244 0.31634
 C241 C 0.42999 0.85711 0.37408
 C242 C 0.41951 0.83350 0.38890
 C243 C 0.40632 0.80611 0.40733
 N244 N 0.37756 0.79773 0.42102
 N245 N 0.36584 0.77331 0.43901
 C246 C 0.38249 0.75642 0.44397
 N247 N 0.41125 0.76476 0.43013
 N248 N 0.42299 0.78923 0.41212
 N249 N 0.08835 0.56469 0.36503
 C250 C 0.11705 0.56671 0.35551
 N251 N 0.11774 0.55738 0.32997
 N252 N 0.09059 0.54665 0.31439
 C253 C 0.06179 0.54516 0.32354
 N254 N 0.06129 0.55399 0.34943
 C255 C 0.14621 0.57872 0.37241
 C256 C 0.17014 0.58908 0.38726
 C257 C 0.19789 0.60166 0.40569
 N258 N 0.21603 0.63475 0.41106
 N259 N 0.24053 0.64630 0.42931
 C260 C 0.24768 0.62515 0.44285
 N261 N 0.22958 0.59203 0.43732
 N262 N 0.20507 0.58048 0.41906
 N263 N 0.53450 0.44706 0.36360
 C264 C 0.55773 0.44004 0.35348
 N265 N 0.56578 0.44569 0.32723
 N266 N 0.55084 0.45782 0.31157
 C267 C 0.52702 0.46445 0.32140
 N268 N 0.51963 0.45915 0.34792
 C269 C 0.57341 0.42685 0.37058
 C270 C 0.58568 0.41566 0.38579
 C271 C 0.59917 0.40221 0.40480
 N272 N 0.63270 0.41826 0.41040
 N273 N 0.64479 0.40654 0.42912
 C274 C 0.62371 0.37844 0.44291
 N275 N 0.59018 0.36240 0.43716
 N276 N 0.57812 0.37410 0.41845
 N277 N 0.52357 0.08596 0.36611
 C278 C 0.54903 0.11481 0.35622
 N279 N 0.55871 0.11579 0.33050
 N280 N 0.54315 0.08874 0.31512
 C281 C 0.51709 0.05975 0.32466
 N282 N 0.50808 0.05900 0.35070
 C283 C 0.56553 0.14377 0.37296
 C284 C 0.57878 0.16755 0.38764
 C285 C 0.59382 0.19517 0.40584
 N286 N 0.57857 0.21332 0.41090
 N287 N 0.59142 0.23771 0.42897
 C288 C 0.61994 0.24473 0.44262
 N289 N 0.63525 0.22662 0.43739
 N290 N 0.62239 0.20223 0.41932
 N291 N 0.88444 0.44058 0.32904
 C292 C 0.88519 0.44881 0.35511
 N293 N 0.91379 0.47456 0.36523
 N294 N 0.94076 0.49169 0.34976
 C295 C 0.94025 0.48410 0.32342
 N296 N 0.91151 0.45777 0.31359
 C297 C 0.85611 0.43103 0.37192
 C298 C 0.83241 0.41738 0.38694
 C299 C 0.80513 0.40282 0.40579
 N300 N 0.78848 0.36956 0.41070
 N301 N 0.76424 0.35661 0.42920
 C302 C 0.75597 0.37653 0.44342
 N303 N 0.77264 0.40977 0.43835
 N304 N 0.79680 0.42268 0.41988
 N305 N 0.52229 0.43116 1.13680
 C306 C 0.55214 0.43329 1.14326
 N307 N 0.56833 0.44968 1.16583
 N308 N 0.55501 0.46345 1.18149
 C309 C 0.52495 0.46113 1.17520
 N310 N 0.50899 0.44492 1.15245
 C311 C 0.56696 0.41952 1.12579
 C312 C 0.57921 0.40827 1.11059
 C313 C 0.59354 0.39524 1.09192
 N314 N 0.62167 0.41616 1.07793
 N315 N 0.63423 0.40423 1.05977
 C316 C 0.61904 0.37096 1.05497
 N317 N 0.59092 0.35005 1.06910
 N318 N 0.57837 0.36200 1.08725
 N319 N 0.88391 0.44238 1.17140
 C320 C 0.88512 0.45076 1.14534
 N321 N 0.91424 0.47590 1.13531
 N322 N 0.94122 0.49235 1.15091
 C323 C 0.94023 0.48466 1.17728
 N324 N 0.91099 0.45890 1.18699
 C325 C 0.85611 0.43343 1.12837
 C326 C 0.83238 0.41968 1.11338
 C327 C 0.80490 0.40418 1.09475
 N328 N 0.78641 0.41882 1.08862
 N329 N 0.76218 0.40553 1.07017
 C330 C 0.75570 0.37717 1.05718
 N331 N 0.77418 0.36248 1.06346
 N332 N 0.79840 0.37579 1.08192
 N333 N 0.53194 0.08489 1.13668
 C334 C 0.55587 0.11426 1.14706
 N335 N 0.56351 0.11595 1.17337
 N336 N 0.54740 0.08904 1.18884
 C337 C 0.52278 0.05952 1.17876
 N338 N 0.51589 0.05810 1.15217
 C339 C 0.57237 0.14312 1.13023
 C340 C 0.58509 0.16657 1.11520
 C341 C 0.59888 0.19348 1.09634
 N342 N 0.57794 0.20035 1.08197
 N343 N 0.59028 0.22403 1.06334
 C344 C 0.62400 0.24163 1.05841
 N345 N 0.64497 0.23482 1.07294
 N346 N 0.63260 0.21110 1.09158
 N347 N 0.42928 0.54285 1.16602
 C348 C 0.44605 0.56060 1.14411
 N349 N 0.47644 0.56379 1.13795
 N350 N 0.48976 0.54979 1.15330
 C351 C 0.47324 0.53229 1.17545
 N352 N 0.44261 0.52884 1.18138
 C353 C 0.43142 0.57496 1.12710
 C354 C 0.41946 0.58687 1.11230
 C355 C 0.40571 0.60086 1.09402
 N356 N 0.42655 0.62891 1.08023
 N357 N 0.41407 0.64105 1.06221
 C358 C 0.38032 0.62553 1.05737
 N359 N 0.35947 0.59752 1.07134
 N360 N 0.37198 0.58537 1.08936
 N361 N 0.09358 0.58011 1.14073
 C362 C 0.11827 0.57270 1.14572
 N363 N 0.11490 0.55282 1.16675
 N364 N 0.08766 0.54079 1.18237
 C365 C 0.06300 0.54843 1.17758
 N366 N 0.06638 0.56810 1.15634
 C367 C 0.14700 0.58491 1.12833
 C368 C 0.17060 0.59513 1.11316
 C369 C 0.19802 0.60726 1.09445
 N370 N 0.20492 0.58572 1.08131
 N371 N 0.22927 0.59682 1.06294
 C372 C 0.24750 0.62983 1.05707
 N373 N 0.24062 0.65134 1.07037
 N374 N 0.21628 0.64024 1.08873
 N375 N 0.43055 0.90794 1.14199
 C376 C 0.43919 0.88435 1.14674
 N377 N 0.45958 0.88819 1.16775
 N378 N 0.47092 0.91485 1.18356
 C379 C 0.46205 0.93842 1.17896
 N380 N 0.44186 0.93455 1.15775
 C381 C 0.42756 0.85628 1.12913
 C382 C 0.41740 0.83339 1.11360
 C383 C 0.40480 0.80695 1.09431
 N384 N 0.42136 0.78999 1.08940
 N385 N 0.41017 0.76636 1.07067
 C386 C 0.38210 0.75899 1.05621
 N387 N 0.36558 0.77598 1.06125
 N388 N 0.37675 0.79956 1.07996
 N389 N 0.52354 0.43315 0.64099
 C390 C 0.55456 0.43728 0.64605
 N391 N 0.57235 0.45599 0.66730
 N392 N 0.55939 0.46999 0.68310
 C393 C 0.52814 0.46559 0.67826
 N394 N 0.51059 0.44713 0.65677
 C395 C 0.56882 0.42311 0.62843
 C396 C 0.58060 0.41157 0.61305
 C397 C 0.59450 0.39843 0.59409
 N398 N 0.62297 0.41928 0.58045
 N399 N 0.63515 0.40740 0.56195
 C400 C 0.61924 0.37427 0.55642
 N401 N 0.59077 0.35341 0.57020
 N402 N 0.57859 0.36531 0.58871
 N403 N 0.52128 0.09332 0.64129
 C404 C 0.55485 0.11523 0.64332
 N405 N 0.57339 0.10951 0.66150
 N406 N 0.55874 0.08275 0.67723
 C407 C 0.52501 0.06095 0.67547
 N408 N 0.50663 0.06658 0.65701
 C409 C 0.57060 0.14354 0.62586
 C410 C 0.58316 0.16686 0.61070
 C411 C 0.59716 0.19402 0.59206
 N412 N 0.63085 0.21117 0.58707
 N413 N 0.64348 0.23552 0.56895
 C414 C 0.62281 0.24348 0.55521
 N415 N 0.58912 0.22631 0.56036
 N416 N 0.57652 0.20200 0.57846
 N417 N 0.88611 0.45878 0.66765
 C418 C 0.88400 0.44056 0.64575
 N419 N 0.91014 0.43569 0.63973
 N420 N 0.93753 0.44850 0.65516
 C421 C 0.93968 0.46648 0.67725
 N422 N 0.91355 0.47161 0.68311
 C423 C 0.85495 0.42718 0.62863
 C424 C 0.83127 0.41575 0.61347
 C425 C 0.80397 0.40202 0.59461
 N426 N 0.79693 0.37415 0.58070
 N427 N 0.77279 0.36222 0.56215
 C428 C 0.75490 0.37779 0.55685
 N429 N 0.76191 0.40562 0.57092
 N430 N 0.78607 0.41756 0.58947
 N431 N 0.42894 0.54221 0.66697
 C432 C 0.44755 0.56242 0.64665
 N433 N 0.47937 0.56814 0.64266
 N434 N 0.49224 0.55418 0.65853
 C435 C 0.47383 0.53416 0.67906
 N436 N 0.44182 0.52824 0.68285
 C437 C 0.43333 0.57636 0.62873
 C438 C 0.42167 0.58773 0.61308
 C439 C 0.40804 0.60082 0.59381
 N440 N 0.42368 0.63401 0.58880
 N441 N 0.41176 0.64593 0.57010
 C442 C 0.38385 0.62503 0.55574
 N443 N 0.36821 0.59182 0.56089
 N444 N 0.38013 0.57992 0.57958
 N445 N 0.44110 0.91417 0.63362
 C446 C 0.43944 0.88572 0.64237
 N447 N 0.45030 0.88480 0.66735
 N448 N 0.46212 0.91145 0.68318
 C449 C 0.46325 0.93997 0.67487
 N450 N 0.45292 0.94075 0.64949
 C451 C 0.42658 0.85709 0.62525
 C452 C 0.41574 0.83338 0.61049
 C453 C 0.40290 0.80568 0.59238
 N454 N 0.42440 0.79881 0.57881
 N455 N 0.41261 0.77413 0.56101
 C456 C 0.37891 0.75548 0.55618
 N457 N 0.35743 0.76231 0.56993
 N458 N 0.36923 0.78700 0.58773
 N459 N 0.11849 0.54172 0.66821
 C460 C 0.11699 0.55276 0.64348
 N461 N 0.08775 0.55058 0.63518
 N462 N 0.06094 0.53808 0.65123
 C463 C 0.06227 0.52755 0.67638
 N464 N 0.09159 0.52920 0.68423
 C465 C 0.14589 0.56670 0.62618
 C466 C 0.16963 0.57868 0.61110
 C467 C 0.19721 0.59318 0.59252
 N468 N 0.20438 0.62153 0.57933
 N469 N 0.22899 0.63435 0.56119
 C470 C 0.24725 0.61924 0.55561
 N471 N 0.24011 0.59091 0.56895
 N472 N 0.21547 0.57808 0.58710
 N473 N 0.46934 0.57729 0.83863
 C474 C 0.44591 0.55950 0.85753
 N475 N 0.43516 0.52658 0.86028
 N476 N 0.44728 0.51181 0.84452
 C477 C 0.47041 0.52939 0.82533
 N478 N 0.48148 0.56250 0.82285
 C479 C 0.43298 0.57525 0.87485
 C480 C 0.42175 0.58767 0.88990
 C481 C 0.40801 0.60147 0.90842
 N482 N 0.37954 0.58107 0.92226
 N483 N 0.36733 0.59354 0.94024
 C484 C 0.38317 0.62685 0.94500
 N485 N 0.41163 0.64726 0.93101
 N486 N 0.42385 0.63477 0.91303
 N487 N 0.08813 0.52284 0.86481
 C488 C 0.11563 0.55170 0.85726
 N489 N 0.11566 0.56485 0.83310
 N490 N 0.08913 0.54931 0.81686
 C491 C 0.06167 0.51986 0.82390
 N492 N 0.06167 0.50738 0.84854
 C493 C 0.14430 0.56796 0.87469
 C494 C 0.16807 0.58105 0.88969
 C495 C 0.19589 0.59599 0.90803
 N496 N 0.20322 0.62451 0.92104
 N497 N 0.22810 0.63758 0.93897
 C498 C 0.24646 0.62255 0.94450
 N499 N 0.23915 0.59407 0.93133
 N500 N 0.21427 0.58101 0.91340
 N501 N 0.42538 0.89016 0.83604
 C502 C 0.44468 0.88444 0.85343
 N503 N 0.47835 0.90625 0.85458
 N504 N 0.49235 0.93289 0.83873
 C505 C 0.47320 0.93851 0.82104
 N506 N 0.43939 0.91682 0.82017
 C507 C 0.42966 0.85630 0.87108
 C508 C 0.41768 0.83317 0.88642
 C509 C 0.40421 0.80631 0.90532
 N510 N 0.37053 0.78863 0.91025
 N511 N 0.35833 0.76467 0.92869
 C512 C 0.37941 0.75764 0.94283
 N513 N 0.41310 0.77532 0.93773
 N514 N 0.42528 0.79924 0.91930
 N515 N 0.52354 0.42982 0.86103
 C516 C 0.55496 0.43520 0.85557
 N517 N 0.57204 0.45449 0.83436
 N518 N 0.55804 0.46787 0.81902
 C519 C 0.52639 0.46223 0.82425
 N520 N 0.50955 0.44319 0.84569
 C521 C 0.57022 0.42142 0.87258
 C522 C 0.58261 0.40991 0.88739
 C523 C 0.59669 0.39623 0.90570
 N524 N 0.63043 0.41214 0.91047
 N525 N 0.64318 0.40025 0.92852
 C526 C 0.62260 0.37206 0.94240
 N527 N 0.58886 0.35613 0.93745
 N528 N 0.57613 0.36801 0.91942
 N529 N 0.88779 0.44692 0.83418
 C530 C 0.88463 0.42600 0.85433
 N531 N 0.90932 0.41828 0.85816
 N532 N 0.93637 0.43108 0.84232
 C533 C 0.93955 0.45186 0.82196
 N534 N 0.91485 0.45972 0.81833
 C535 C 0.85631 0.41340 0.87220
 C536 C 0.83301 0.40314 0.88768
 C537 C 0.80584 0.39117 0.90663
 N538 N 0.78797 0.35831 0.91283
 N539 N 0.76368 0.34737 0.93123
 C540 C 0.75645 0.36893 0.94409
 N541 N 0.77432 0.40181 0.93775
 N542 N 0.79862 0.41275 0.91933
 N543 N 0.57287 0.09022 0.85679
 C544 C 0.56431 0.11417 0.85382
 N545 N 0.54234 0.11091 0.83424
 N546 N 0.52938 0.08449 0.81809
 C547 C 0.53813 0.06057 0.82085
 N548 N 0.55991 0.06382 0.84065
 C549 C 0.57721 0.14183 0.87196
 C550 C 0.58785 0.16455 0.88771
 C551 C 0.60036 0.19098 0.90700
 N552 N 0.58392 0.20816 0.91143
 N553 N 0.59492 0.23190 0.93004
 C554 C 0.62269 0.23921 0.94487
 N555 N 0.63913 0.22200 0.94032
 N556 N 0.62813 0.19828 0.92172
   
