data_POSCAR
  _audit_creation_date              2014-09-24
  _audit_creation_method            'ToBaCCo'
  _symmetry_space_group_name_H-M    'P1'
  _symmetry_Int_Tables_number       1
  _symmetry_cell_setting            triclinic
  loop_
  _symmetry_equiv_pos_as_xyz
 x,y,z
_cell_length_a 47.2272
_cell_length_b 47.2202
_cell_length_c 47.2196
_cell_angle_alpha 89.921300
_cell_angle_beta 90.037600
_cell_angle_gamma 90.073600
loop_
  _atom_site_label
  _atom_site_type_symbol
  _atom_site_fract_x
  _atom_site_fract_y
  _atom_site_fract_z
C1 C 0.37156 0.28662 -0.02653
 C2 C 0.38184 0.27646 -0.00071
 C3 C 0.37173 0.28679 0.02503
 C4 C 0.35072 0.30804 0.02530
 C5 C 0.34008 0.31864 -0.00079
 C6 C 0.35053 0.30791 -0.02687
 C7 C 0.33960 0.31867 -0.05243
 C8 C 0.31873 0.33949 -0.05242
 C9 C 0.30800 0.35034 -0.02686
 C10 C 0.31882 0.33984 -0.00079
 C11 C 0.34003 0.31885 0.05086
 C12 C 0.31915 0.33966 0.05086
 C13 C 0.30825 0.35039 0.02531
 C14 C 0.28695 0.37133 0.02505
 C15 C 0.27653 0.38149 -0.00067
 C16 C 0.28667 0.37132 -0.02650
 H17 H 0.34711 0.31101 -0.07268
 H18 H 0.31101 0.34704 -0.07267
 H19 H 0.34772 0.31124 0.07109
 H20 H 0.31157 0.34728 0.07110
 H21 H 0.39790 0.26000 -0.00058
 H22 H 0.26003 0.39752 -0.00052
 C23 C 0.62831 0.71380 -0.02552
 C24 C 0.61809 0.72394 0.00029
 C25 C 0.62820 0.71353 0.02603
 C26 C 0.64915 0.69224 0.02632
 C27 C 0.65972 0.68166 0.00024
 C28 C 0.64927 0.69246 -0.02585
 C29 C 0.66014 0.68170 -0.05140
 C30 C 0.68095 0.66082 -0.05137
 C31 C 0.69164 0.64995 -0.02580
 C32 C 0.68092 0.66041 0.00026
 C33 C 0.65987 0.68135 0.05189
 C34 C 0.68070 0.66048 0.05190
 C35 C 0.69152 0.64978 0.02635
 C36 C 0.71278 0.62880 0.02606
 C37 C 0.72309 0.61868 0.00031
 C38 C 0.71289 0.62895 -0.02547
 H39 H 0.65263 0.68941 -0.07167
 H40 H 0.68865 0.65327 -0.07159
 H41 H 0.65223 0.68893 0.07212
 H42 H 0.68830 0.65280 0.07214
 H43 H 0.60206 0.74045 0.00040
 H44 H 0.73955 0.60264 0.00033
 C45 C 0.62781 0.28676 1.02592
 C46 C 0.61758 0.27662 1.00009
 C47 C 0.62772 0.28706 0.97436
 C48 C 0.64868 0.30838 0.97410
 C49 C 0.65927 0.31896 1.00019
 C50 C 0.64880 0.30814 1.02627
 C51 C 0.65969 0.31890 1.05184
 C52 C 0.68052 0.33981 1.05183
 C53 C 0.69123 0.35070 1.02627
 C54 C 0.68050 0.34023 1.00020
 C55 C 0.65942 0.31928 0.94855
 C56 C 0.68028 0.34017 0.94856
 C57 C 0.69112 0.35087 0.97412
 C58 C 0.71242 0.37188 0.97444
 C59 C 0.72273 0.38200 1.00021
 C60 C 0.71250 0.37172 1.02596
 H61 H 0.65217 0.31118 1.07209
 H62 H 0.68823 0.34737 1.07206
 H63 H 0.65177 0.31169 0.92831
 H64 H 0.68790 0.34785 0.92833
 H65 H 0.60154 0.26009 0.99994
 H66 H 0.73922 0.39806 1.00022
 C67 C 0.28761 0.62761 0.97480
 C68 C 0.27723 0.61741 1.00052
 C69 C 0.28738 0.62761 1.02636
 C70 C 0.30871 0.64866 1.02673
 C71 C 0.31950 0.65918 1.00067
 C72 C 0.30891 0.64860 0.97456
 C73 C 0.31980 0.65936 0.94902
 C74 C 0.34066 0.68024 0.94905
 C75 C 0.35137 0.69109 0.97462
 C76 C 0.34075 0.68046 1.00070
 C77 C 0.31944 0.65954 1.05231
 C78 C 0.34029 0.68044 1.05233
 C79 C 0.35120 0.69123 1.02678
 C80 C 0.37221 0.71261 1.02646
 C81 C 0.38246 0.72278 1.00064
 C82 C 0.37235 0.71240 0.97490
 H83 H 0.31221 0.65172 0.92878
 H84 H 0.34834 0.68787 0.92882
 H85 H 0.31173 0.65198 1.07255
 H86 H 0.34780 0.68813 1.07259
 H87 H 0.26072 0.60135 1.00037
 H88 H 0.39851 0.73931 1.00051
 C89 C 0.02488 0.28664 0.37114
 C90 C -0.00084 0.27629 0.38134
 C91 C -0.02666 0.28657 0.37123
 C92 C -0.02700 0.30800 0.35028
 C93 C -0.00092 0.31874 0.33976
 C94 C 0.02516 0.30802 0.35024
 C95 C 0.05072 0.31885 0.33947
 C96 C 0.05074 0.33980 0.31868
 C97 C 0.02520 0.35065 0.30794
 C98 C -0.00089 0.34010 0.31858
 C99 C -0.05254 0.31890 0.33951
 C100 C -0.05252 0.33986 0.31873
 C101 C -0.02695 0.35071 0.30793
 C102 C -0.02658 0.37183 0.28667
 C103 C -0.00075 0.38202 0.27646
 C104 C 0.02496 0.37173 0.28672
 H105 H 0.07095 0.31115 0.34704
 H106 H 0.07098 0.34742 0.31105
 H107 H -0.07279 0.31123 0.34708
 H108 H -0.07276 0.34750 0.31112
 H109 H -0.00071 0.25972 0.39735
 H110 H -0.00059 0.39814 0.26001
 C111 C 0.02528 0.62812 0.71302
 C112 C -0.00046 0.61799 0.72341
 C113 C -0.02626 0.62820 0.71320
 C114 C -0.02659 0.64919 0.69182
 C115 C -0.00051 0.65966 0.68103
 C116 C 0.02557 0.64907 0.69168
 C117 C 0.05113 0.65977 0.68080
 C118 C 0.05116 0.68060 0.65988
 C119 C 0.02563 0.69145 0.64911
 C120 C -0.00048 0.68088 0.65972
 C121 C -0.05213 0.66008 0.68101
 C122 C -0.05211 0.68091 0.66010
 C123 C -0.02654 0.69164 0.64919
 C124 C -0.02615 0.71295 0.62811
 C125 C -0.00031 0.72308 0.61787
 C126 C 0.02540 0.71271 0.62807
 H127 H 0.07136 0.65212 0.68843
 H128 H 0.07140 0.68819 0.65222
 H129 H -0.07239 0.65256 0.68872
 H130 H -0.07234 0.68860 0.65253
 H131 H -0.00034 0.60195 0.73995
 H132 H -0.00014 0.73956 0.60178
 C133 C 1.02644 0.62866 0.28744
 C134 C 1.00066 0.61841 0.27724
 C135 C 0.97492 0.62857 0.28753
 C136 C 0.97465 0.64959 0.30875
 C137 C 1.00073 0.66019 0.31936
 C138 C 1.02678 0.64968 0.30867
 C139 C 1.05236 0.66053 0.31937
 C140 C 1.05240 0.68143 0.34016
 C141 C 1.02686 0.69224 0.35100
 C142 C 1.00077 0.68148 0.34053
 C143 C 0.94910 0.66034 0.31954
 C144 C 0.94913 0.68124 0.34033
 C145 C 0.97469 0.69211 0.35105
 C146 C 0.97499 0.71344 0.37196
 C147 C 1.00073 0.72381 0.38211
 C148 C 1.02653 0.71361 0.37194
 H149 H 1.07257 0.65294 0.31170
 H150 H 1.07266 0.68912 0.34769
 H151 H 0.92887 0.65268 0.31193
 H152 H 0.92890 0.68887 0.34793
 H153 H 1.00062 0.60234 0.26080
 H154 H 1.00062 0.74034 0.39811
 C155 C 1.02596 0.28779 0.62793
 C156 C 1.00019 0.27760 0.61765
 C157 C 0.97444 0.28786 0.62781
 C158 C 0.97415 0.30906 0.64886
 C159 C 1.00024 0.31966 0.65950
 C160 C 1.02629 0.30898 0.64899
 C161 C 1.05186 0.31967 0.65988
 C162 C 1.05190 0.34042 0.68082
 C163 C 1.02635 0.35124 0.69163
 C164 C 1.00026 0.34080 0.68082
 C165 C 0.94861 0.31983 0.65962
 C166 C 0.94862 0.34059 0.68055
 C167 C 0.97418 0.35130 0.69145
 C168 C 0.97447 0.37218 0.71281
 C169 C 1.00021 0.38231 0.72323
 C170 C 1.02602 0.37216 0.71304
 H171 H 1.07207 0.31200 0.65229
 H172 H 1.07215 0.34793 0.68854
 H173 H 0.92837 0.31223 0.65193
 H174 H 0.92840 0.34819 0.68818
 H175 H 1.00017 0.26118 0.60156
 H176 H 1.00008 0.39828 0.73978
 C177 C 0.28696 -0.02650 0.37167
 C178 C 0.27681 -0.00067 0.38181
 C179 C 0.28716 0.02506 0.37155
 C180 C 0.30842 0.02531 0.35056
 C181 C 0.31900 -0.00079 0.34004
 C182 C 0.30825 -0.02686 0.35062
 C183 C 0.31898 -0.05243 0.33979
 C184 C 0.33978 -0.05244 0.31890
 C185 C 0.35066 -0.02689 0.30806
 C186 C 0.34021 -0.00081 0.31877
 C187 C 0.31927 0.05085 0.33975
 C188 C 0.34010 0.05084 0.31888
 C189 C 0.35080 0.02528 0.30809
 C190 C 0.37175 0.02500 0.28679
 C191 C 0.38186 -0.00073 0.27646
 C192 C 0.37163 -0.02655 0.28669
 H193 H 0.31129 -0.07267 0.34740
 H194 H 0.34729 -0.07270 0.31126
 H195 H 0.31168 0.07109 0.34735
 H196 H 0.34775 0.07107 0.31122
 H197 H 0.26033 -0.00052 0.39787
 H198 H 0.39788 -0.00060 0.25995
 C199 C 0.62793 -0.02572 0.71348
 C200 C 0.61766 0.00010 0.72354
 C201 C 0.62779 0.02583 0.71310
 C202 C 0.64880 0.02612 0.69186
 C203 C 0.65943 0.00004 0.68137
 C204 C 0.64897 -0.02605 0.69219
 C205 C 0.65991 -0.05161 0.68152
 C206 C 0.68079 -0.05158 0.66069
 C207 C 0.69149 -0.02601 0.64979
 C208 C 0.68070 0.00005 0.66017
 C209 C 0.65953 0.05168 0.68095
 C210 C 0.68042 0.05169 0.66013
 C211 C 0.69131 0.02614 0.64951
 C212 C 0.71264 0.02584 0.62857
 C213 C 0.72300 0.00009 0.61854
 C214 C 0.71280 -0.02568 0.62885
 H215 H 0.65239 -0.07187 0.68925
 H216 H 0.68854 -0.07180 0.65320
 H217 H 0.65184 0.07191 0.68847
 H218 H 0.68803 0.07192 0.65243
 H219 H 0.60159 0.00022 0.74001
 H220 H 0.73951 0.00010 0.60254
 C221 C 0.37206 0.97430 0.71328
 C222 C 0.38216 1.00005 0.72368
 C223 C 0.37194 1.02585 0.71346
 C224 C 0.35101 1.02618 0.69205
 C225 C 0.34058 1.00008 0.68127
 C226 C 0.35115 0.97401 0.69192
 C227 C 0.34046 0.94844 0.68105
 C228 C 0.31965 0.94842 0.66012
 C229 C 0.30882 0.97397 0.64934
 C230 C 0.31941 1.00005 0.65995
 C231 C 0.34014 1.05173 0.68121
 C232 C 0.31935 1.05168 0.66027
 C233 C 0.30868 1.02611 0.64942
 C234 C 0.28746 1.02577 0.62836
 C235 C 0.27727 1.00000 0.61811
 C236 C 0.28758 0.97425 0.62830
 H237 H 0.34809 0.92821 0.68869
 H238 H 0.31206 0.92818 0.65246
 H239 H 0.34763 1.07199 0.68891
 H240 H 0.31165 1.07190 0.65266
 H241 H 0.39816 0.99993 0.74024
 H242 H 0.26082 0.99998 0.60202
 C243 C 0.62784 0.97474 0.28748
 C244 C 0.61770 1.00047 0.27708
 C245 C 0.62796 1.02630 0.28718
 C246 C 0.64901 1.02666 0.30851
 C247 C 0.65948 1.00059 0.31931
 C248 C 0.64886 0.97449 0.30875
 C249 C 0.65959 0.94894 0.31962
 C250 C 0.68049 0.94895 0.34046
 C251 C 0.69138 0.97451 0.35115
 C252 C 0.68077 1.00060 0.34055
 C253 C 0.65992 1.05223 0.31923
 C254 C 0.68080 1.05224 0.34009
 C255 C 0.69156 1.02668 0.35100
 C256 C 0.71291 1.02634 0.37202
 C257 C 0.72309 1.00052 0.38224
 C258 C 0.71270 0.97478 0.37211
 H259 H 0.65191 0.92870 0.31205
 H260 H 0.68810 0.92872 0.34813
 H261 H 0.65239 1.07247 0.31152
 H262 H 0.68851 1.07249 0.34760
 H263 H 0.60163 1.00032 0.26059
 H264 H 0.73961 1.00038 0.39828
 O265 O 0.86358 0.82474 0.47320
 O266 O 0.82483 0.86323 0.52815
 O267 O 0.86365 0.82447 0.52801
 O268 O 0.82473 0.86347 0.47335
 O269 O 0.79141 0.83068 0.47313
 O270 O 0.83096 0.79106 0.52808
 O271 O 0.79150 0.83046 0.52820
 O272 O 0.83090 0.79132 0.47300
 Cu273 Cu 0.84746 0.84725 0.50069
 Cu274 Cu 0.80785 0.80752 0.50060
 C275 C 0.85419 0.80133 0.46390
 C276 C 0.80142 0.85376 0.53738
 C277 C 0.85428 0.80099 0.53720
 C278 C 0.80130 0.85406 0.46408
 O279 O 0.13671 0.17532 0.47221
 O280 O 0.17558 0.13685 0.52721
 O281 O 0.13683 0.17564 0.52700
 O282 O 0.17554 0.13658 0.47242
 O283 O 0.20887 0.16935 0.47202
 O284 O 0.16956 0.20901 0.52691
 O285 O 0.20895 0.16959 0.52708
 O286 O 0.16941 0.20872 0.47184
 Cu287 Cu 0.15289 0.15282 0.49973
 Cu288 Cu 0.19255 0.19252 0.49943
 C289 C 0.14609 0.19871 0.46281
 C290 C 0.19902 0.14632 0.53637
 C291 C 0.14627 0.19910 0.53612
 C292 C 0.19894 0.14597 0.46307
 O293 O 0.13703 0.82433 0.52682
 O294 O 0.17593 0.86321 0.47210
 O295 O 0.13709 0.82443 0.47203
 O296 O 0.17591 0.86309 0.52690
 O297 O 0.20920 0.83035 0.52706
 O298 O 0.16973 0.79105 0.47192
 O299 O 0.20923 0.83048 0.47198
 O300 O 0.16967 0.79095 0.52699
 Cu301 Cu 0.15323 0.84704 0.49946
 Cu302 Cu 0.19280 0.80735 0.49949
 C303 C 0.14637 0.80089 0.53608
 C304 C 0.19933 0.85381 0.46286
 C305 C 0.14645 0.80102 0.46277
 C306 C 0.19930 0.85364 0.53619
 O307 O 0.86314 0.17582 0.52659
 O308 O 0.82422 0.13681 0.47199
 O309 O 0.86304 0.17565 0.47179
 O310 O 0.82430 0.13698 0.52680
 O311 O 0.79097 0.16967 0.52681
 O312 O 0.83036 0.20899 0.47155
 O313 O 0.79089 0.16950 0.47174
 O314 O 0.83045 0.20914 0.52662
 Cu315 Cu 0.84694 0.15305 0.49931
 Cu316 Cu 0.80732 0.19267 0.49917
 C317 C 0.85377 0.19926 0.53577
 C318 C 0.80079 0.14616 0.46271
 C319 C 0.85365 0.19905 0.46245
 C320 C 0.80090 0.14639 0.53603
 O321 O 0.47353 0.86319 0.82489
 O322 O 0.52849 0.82466 0.86370
 O323 O 0.52832 0.86349 0.82486
 O324 O 0.47371 0.82438 0.86371
 O325 O 0.47365 0.79105 0.83101
 O326 O 0.52856 0.83078 0.79154
 O327 O 0.52871 0.79131 0.83103
 O328 O 0.47350 0.83051 0.79155
 Cu329 Cu 0.50101 0.84720 0.84755
 Cu330 Cu 0.50112 0.80756 0.80793
 C331 C 0.46429 0.85375 0.80148
 C332 C 0.53780 0.80128 0.85433
 C333 C 0.53758 0.85414 0.80144
 C334 C 0.46451 0.80094 0.85431
 O335 O 0.52824 0.17525 0.13651
 O336 O 0.47336 0.13640 0.17523
 O337 O 0.47345 0.17521 0.13638
 O338 O 0.52815 0.13645 0.17542
 O339 O 0.52824 0.16918 0.20871
 O340 O 0.47323 0.20856 0.16905
 O341 O 0.47317 0.16911 0.20854
 O342 O 0.52830 0.20862 0.16916
 Cu343 Cu 0.50081 0.15256 0.15262
 Cu344 Cu 0.50074 0.19222 0.19221
 C345 C 0.53745 0.19870 0.14588
 C346 C 0.46405 0.14579 0.19861
 C347 C 0.46416 0.19862 0.14573
 C348 C 0.53736 0.14586 0.19885
 O349 O 0.52616 0.13686 0.82441
 O350 O 0.47143 0.17561 0.86321
 O351 O 0.47137 0.13677 0.82448
 O352 O 0.52622 0.17563 0.86315
 O353 O 0.52630 0.20900 0.83039
 O354 O 0.47120 0.16946 0.79105
 O355 O 0.47124 0.20895 0.83043
 O356 O 0.52626 0.16957 0.79101
 Cu357 Cu 0.49879 0.15295 0.84709
 Cu358 Cu 0.49873 0.19260 0.80736
 C359 C 0.53540 0.14628 0.80098
 C360 C 0.46216 0.19901 0.85377
 C361 C 0.46211 0.14613 0.80104
 C362 C 0.53548 0.19905 0.85369
 O363 O 0.47164 0.82436 0.13693
 O364 O 0.52623 0.86342 0.17585
 O365 O 0.52643 0.82463 0.13708
 O366 O 0.47143 0.86317 0.17571
 O367 O 0.47137 0.83046 0.20912
 O368 O 0.52661 0.79126 0.16982
 O369 O 0.52643 0.83068 0.20923
 O370 O 0.47155 0.79100 0.16968
 Cu371 Cu 0.49892 0.84716 0.15312
 Cu372 Cu 0.49898 0.80750 0.19282
 C373 C 0.46245 0.80088 0.14632
 C374 C 0.53550 0.85404 0.19929
 C375 C 0.53575 0.80125 0.14653
 C376 C 0.46220 0.85374 0.19914
 O377 O 0.82443 0.47322 0.86321
 O378 O 0.86334 0.52802 0.82439
 O379 O 0.82457 0.52801 0.86320
 O380 O 0.86324 0.47322 0.82443
 O381 O 0.83053 0.47314 0.79106
 O382 O 0.79121 0.52821 0.83047
 O383 O 0.83063 0.52821 0.79102
 O384 O 0.79108 0.47314 0.83048
 Cu385 Cu 0.84716 0.50061 0.84708
 Cu386 Cu 0.80751 0.50068 0.80741
 C387 C 0.80099 0.46399 0.85380
 C388 C 0.85396 0.53731 0.80096
 C389 C 0.80116 0.53729 0.85379
 C390 C 0.85382 0.46400 0.80101
 O391 O 0.13719 0.52758 0.17534
 O392 O 0.17571 0.47278 0.13641
 O393 O 0.13689 0.47279 0.17518
 O394 O 0.17595 0.52758 0.13653
 O395 O 0.20933 0.52745 0.16923
 O396 O 0.16959 0.47242 0.20856
 O397 O 0.20905 0.47238 0.16915
 O398 O 0.16992 0.52748 0.20869
 Cu399 Cu 0.15317 0.50021 0.15259
 Cu400 Cu 0.19283 0.49991 0.19226
 C401 C 0.14665 0.53672 0.19878
 C402 C 0.19908 0.46339 0.14581
 C403 C 0.14623 0.46342 0.19859
 C404 C 0.19942 0.53671 0.14595
 O405 O 0.86322 0.47260 0.17606
 O406 O 0.82443 0.52745 0.13733
 O407 O 0.86330 0.52739 0.17607
 O408 O 0.82438 0.47266 0.13731
 O409 O 0.79109 0.47246 0.17006
 O410 O 0.83065 0.52748 0.20947
 O411 O 0.79113 0.52753 0.17009
 O412 O 0.83057 0.47240 0.20947
 Cu413 Cu 0.84710 0.50004 0.15342
 Cu414 Cu 0.80751 0.49996 0.19313
 C415 C 0.85384 0.46329 0.19948
 C416 C 0.80104 0.53669 0.14677
 C417 C 0.85394 0.53662 0.19950
 C418 C 0.80098 0.46338 0.14674
 O419 O 0.17554 0.52647 0.86349
 O420 O 0.13656 0.47181 0.82458
 O421 O 0.17543 0.47166 0.86338
 O422 O 0.13665 0.52661 0.82471
 O423 O 0.16930 0.52685 0.79133
 O424 O 0.20873 0.47163 0.83065
 O425 O 0.16922 0.47178 0.79120
 O426 O 0.20883 0.52671 0.83074
 Cu427 Cu 0.15278 0.49913 0.84731
 Cu428 Cu 0.19237 0.49925 0.80763
 C429 C 0.19896 0.53575 0.85409
 C430 C 0.14590 0.46264 0.80112
 C431 C 0.19882 0.46244 0.85395
 C432 C 0.14602 0.53594 0.80129
 C433 C 0.24630 0.40814 0.09157
 C434 C 0.21735 0.41237 0.08707
 C435 C 0.20180 0.42945 0.10542
 C436 C 0.27449 0.38287 0.05048
 C437 C 0.24387 0.43727 0.13382
 C438 C 0.25949 0.42023 0.11523
 C439 C 0.26246 0.39375 0.07016
 C440 C 0.21499 0.44259 0.12867
 H441 H 0.20695 0.40325 0.06875
 H442 H 0.17960 0.43300 0.10093
 H443 H 0.25461 0.44718 0.15148
 H444 H 0.28195 0.41727 0.11880
 C445 C 0.75358 0.59197 0.09260
 C446 C 0.74041 0.57960 0.11615
 C447 C 0.75610 0.56256 0.13473
 C448 C 0.72531 0.61721 0.05146
 C449 C 0.79820 0.57094 0.10658
 C450 C 0.78258 0.58803 0.08823
 C451 C 0.73737 0.60633 0.07116
 C452 C 0.78503 0.55752 0.12969
 H453 H 0.71790 0.58235 0.11961
 H454 H 0.74537 0.55242 0.15229
 H455 H 0.82045 0.56761 0.10218
 H456 H 0.79296 0.59737 0.07000
 C457 C 0.75336 0.40878 0.90799
 C458 C 0.78235 0.41282 0.91247
 C459 C 0.79802 0.42988 0.89413
 C460 C 0.72498 0.38348 0.94905
 C461 C 0.75600 0.43807 0.86578
 C462 C 0.74025 0.42104 0.88435
 C463 C 0.73710 0.39439 0.92939
 C464 C 0.78492 0.44320 0.87091
 H465 H 0.79268 0.40356 0.93077
 H466 H 0.82026 0.43329 0.89860
 H467 H 0.74532 0.44812 0.84814
 H468 H 0.71776 0.41822 0.88081
 C469 C 0.24667 0.59081 0.90832
 C470 C 0.25972 0.57868 0.88463
 C471 C 0.24395 0.56170 0.86606
 C472 C 0.27508 0.61606 0.94937
 C473 C 0.20201 0.56965 0.89451
 C474 C 0.21770 0.58667 0.91286
 C475 C 0.26296 0.60518 0.92971
 C476 C 0.21505 0.55648 0.87124
 H477 H 0.28219 0.58158 0.88104
 H478 H 0.25459 0.55176 0.84838
 H479 H 0.17979 0.56617 0.89903
 H480 H 0.20740 0.59582 0.93119
 C481 C 0.09160 0.24591 0.40766
 C482 C 0.11519 0.25918 0.41983
 C483 C 0.13388 0.24357 0.43681
 C484 C 0.05030 0.27409 0.38262
 C485 C 0.10577 0.20135 0.42873
 C486 C 0.08730 0.21689 0.41170
 C487 C 0.07005 0.26204 0.39340
 C488 C 0.12892 0.21462 0.44198
 H489 H 0.11858 0.28170 0.41700
 H490 H 0.15147 0.25437 0.44682
 H491 H 0.10144 0.17908 0.43216
 H492 H 0.06905 0.20643 0.40251
 C493 C 0.09203 0.75341 0.59125
 C494 C 0.08771 0.78243 0.58724
 C495 C 0.10611 0.79805 0.57019
 C496 C 0.05084 0.72518 0.61650
 C497 C 0.13419 0.75591 0.56196
 C498 C 0.11556 0.74022 0.57897
 C499 C 0.07055 0.73723 0.60561
 C500 C 0.12922 0.78486 0.55686
 H501 H 0.06950 0.79283 0.59651
 H502 H 0.10177 0.82031 0.56681
 H503 H 0.15174 0.74517 0.55190
 H504 H 0.11897 0.71771 0.58177
 C505 C 0.90844 0.75412 0.40867
 C506 C 0.88485 0.74088 0.42089
 C507 C 0.86625 0.75649 0.43790
 C508 C 0.94958 0.72594 0.38349
 C509 C 0.89446 0.79866 0.42980
 C510 C 0.91283 0.78311 0.41274
 C511 C 0.92989 0.73797 0.39434
 C512 C 0.87130 0.78542 0.44307
 H513 H 0.88138 0.71838 0.41805
 H514 H 0.84866 0.74571 0.44793
 H515 H 0.89887 0.82090 0.43323
 H516 H 0.93109 0.79355 0.40352
 C517 C 0.90800 0.24693 0.59086
 C518 C 0.88436 0.26001 0.57860
 C519 C 0.86579 0.24426 0.56160
 C520 C 0.94904 0.27531 0.61619
 C521 C 0.89414 0.20227 0.56979
 C522 C 0.91249 0.21795 0.58683
 C523 C 0.92938 0.26320 0.60527
 C524 C 0.87092 0.21535 0.55649
 H525 H 0.88081 0.28249 0.58142
 H526 H 0.84815 0.25492 0.55156
 H527 H 0.89862 0.18005 0.56640
 H528 H 0.93078 0.20763 0.59608
 C529 C 0.40869 0.09155 0.24600
 C530 C 0.42096 0.11514 0.25917
 C531 C 0.43803 0.13373 0.24350
 C532 C 0.38335 0.05042 0.27426
 C533 C 0.42990 0.10550 0.20142
 C534 C 0.41279 0.08714 0.21701
 C535 C 0.39428 0.07011 0.26219
 C536 C 0.44321 0.12867 0.21459
 H537 H 0.41810 0.11863 0.28165
 H538 H 0.44808 0.15133 0.25423
 H539 H 0.43334 0.10109 0.17919
 H540 H 0.40353 0.06888 0.20663
 C541 C 0.59077 0.09227 0.75365
 C542 C 0.58672 0.08784 0.78265
 C543 C 0.56959 0.10612 0.79821
 C544 C 0.61617 0.05124 0.72550
 C545 C 0.56136 0.13432 0.75607
 C546 C 0.57844 0.11580 0.74043
 C547 C 0.60522 0.07090 0.73750
 C548 C 0.55622 0.12923 0.78500
 H549 H 0.59603 0.06962 0.79307
 H550 H 0.56619 0.10169 0.82046
 H551 H 0.55126 0.15188 0.74531
 H552 H 0.58127 0.11931 0.71793
 C553 C 0.40888 0.90776 0.75404
 C554 C 0.41278 0.91205 0.78307
 C555 C 0.42991 0.89374 0.79868
 C556 C 0.38363 0.94890 0.72579
 C557 C 0.43839 0.86578 0.75651
 C558 C 0.42131 0.88433 0.74083
 C559 C 0.39451 0.92920 0.73785
 C560 C 0.44340 0.87076 0.78547
 H561 H 0.40339 0.93020 0.79348
 H562 H 0.43322 0.89808 0.82095
 H563 H 0.44859 0.84832 0.74576
 H564 H 0.41859 0.88094 0.71830
 C565 C 0.59076 0.90829 0.24677
 C566 C 0.57858 0.88461 0.25991
 C567 C 0.56152 0.86604 0.24422
 C568 C 0.61620 0.94932 0.27503
 C569 C 0.56947 0.89449 0.20219
 C570 C 0.58657 0.91283 0.21780
 C571 C 0.60523 0.92966 0.26298
 C572 C 0.55626 0.87122 0.21532
 H573 H 0.58151 0.88102 0.28238
 H574 H 0.55155 0.84836 0.25493
 H575 H 0.56597 0.89900 0.17997
 H576 H 0.59576 0.93115 0.20744
 C577 C 0.40721 0.24646 0.90810
 C578 C 0.41109 0.21743 0.91243
 C579 C 0.42805 0.20182 0.89402
 C580 C 0.38237 0.27468 0.94943
 C581 C 0.43642 0.24398 0.86589
 C582 C 0.41951 0.25967 0.88453
 C583 C 0.39305 0.26265 0.92963
 C584 C 0.44142 0.21502 0.87090
 H585 H 0.40182 0.20701 0.93068
 H586 H 0.43135 0.17954 0.89839
 H587 H 0.44652 0.25474 0.84832
 H588 H 0.41682 0.28219 0.88111
 C589 C 0.59277 0.75397 0.90891
 C590 C 0.58045 0.74070 0.88541
 C591 C 0.56355 0.75635 0.86666
 C592 C 0.61752 0.72579 0.95041
 C593 C 0.57201 0.79860 0.89454
 C594 C 0.58896 0.78303 0.91306
 C595 C 0.60688 0.73782 0.93056
 C596 C 0.55860 0.78533 0.87150
 H597 H 0.58310 0.71816 0.88213
 H598 H 0.55341 0.74555 0.84916
 H599 H 0.56874 0.82090 0.89878
 H600 H 0.59826 0.79348 0.93125
 C601 C 0.40776 0.75304 0.09184
 C602 C 0.42003 0.73994 0.11549
 C603 C 0.43685 0.75575 0.13417
 C604 C 0.38299 0.72462 0.05051
 C605 C 0.42847 0.79782 0.10592
 C606 C 0.41160 0.78209 0.08747
 C607 C 0.39365 0.73674 0.07030
 C608 C 0.44180 0.78473 0.12913
 H609 H 0.41737 0.71741 0.11895
 H610 H 0.44692 0.74508 0.15180
 H611 H 0.43174 0.82010 0.10151
 H612 H 0.40235 0.79242 0.06917
 C613 C 0.59228 0.24637 0.09139
 C614 C 0.57994 0.25954 0.11490
 C615 C 0.56308 0.24378 0.13361
 C616 C 0.61702 0.27472 0.04996
 C617 C 0.57162 0.20162 0.10567
 C618 C 0.58852 0.21730 0.08720
 C619 C 0.60638 0.26262 0.06979
 C620 C 0.55819 0.21478 0.12873
 H621 H 0.58254 0.28209 0.11822
 H622 H 0.55293 0.25451 0.15112
 H623 H 0.56840 0.17932 0.10140
 H624 H 0.59784 0.20692 0.06900
 C625 C 0.24655 0.09229 0.59169
 C626 C 0.21750 0.08798 0.58791
 C627 C 0.20186 0.10631 0.57082
 C628 C 0.27486 0.05115 0.61683
 C629 C 0.24404 0.13432 0.56215
 C630 C 0.25975 0.11576 0.57919
 C631 C 0.26276 0.07084 0.60600
 C632 C 0.21506 0.12933 0.55725
 H633 H 0.20710 0.06981 0.59736
 H634 H 0.17957 0.10196 0.56760
 H635 H 0.25478 0.15181 0.55188
 H636 H 0.28229 0.11916 0.58181
 C637 C 0.75320 0.09170 0.40780
 C638 C 0.78221 0.08736 0.41180
 C639 C 0.79786 0.10579 0.42875
 C640 C 0.72489 0.05038 0.38286
 C641 C 0.75579 0.13397 0.43691
 C642 C 0.74006 0.11530 0.42000
 C643 C 0.73696 0.07017 0.39359
 C644 C 0.78473 0.12896 0.44201
 H645 H 0.79257 0.06909 0.40260
 H646 H 0.82012 0.10142 0.43213
 H647 H 0.74508 0.15157 0.44693
 H648 H 0.71755 0.11874 0.41723
 C649 C 0.75386 0.90782 0.59246
 C650 C 0.78287 0.91225 0.58856
 C651 C 0.79853 0.89392 0.57156
 C652 C 0.72545 0.94893 0.61745
 C653 C 0.75645 0.86568 0.56320
 C654 C 0.74072 0.88424 0.58015
 C655 C 0.73760 0.92926 0.60669
 C656 C 0.78539 0.87078 0.55818
 H657 H 0.79323 0.93051 0.59785
 H658 H 0.82078 0.89836 0.56824
 H659 H 0.74574 0.84810 0.55309
 H660 H 0.71821 0.88074 0.58287
 C661 C 0.24681 0.90814 0.40769
 C662 C 0.21778 0.91242 0.41156
 C663 C 0.20217 0.89401 0.42861
 C664 C 0.27503 0.94947 0.38261
 C665 C 0.24432 0.86600 0.43708
 C666 C 0.26001 0.88464 0.42008
 C667 C 0.26300 0.92968 0.39341
 C668 C 0.21536 0.87094 0.44206
 H669 H 0.20738 0.93061 0.40221
 H670 H 0.17990 0.89832 0.43189
 H671 H 0.25507 0.84847 0.44725
 H672 H 0.28254 0.88126 0.41739
 C673 C 0.09141 0.40784 0.75343
 C674 C 0.08706 0.41170 0.78246
 C675 C 0.10551 0.42862 0.79815
 C676 C 0.05007 0.38297 0.72506
 C677 C 0.13371 0.43698 0.75607
 C678 C 0.11502 0.42011 0.74031
 C679 C 0.06986 0.39367 0.73716
 C680 C 0.12870 0.44196 0.78503
 H681 H 0.06877 0.40244 0.79281
 H682 H 0.10113 0.43190 0.82041
 H683 H 0.15133 0.44706 0.74538
 H684 H 0.11847 0.41744 0.71780
 C685 C 0.09277 0.59194 0.24643
 C686 C 0.08828 0.58802 0.21743
 C687 C 0.10654 0.57095 0.20175
 C688 C 0.05180 0.61714 0.27484
 C689 C 0.13481 0.56254 0.24378
 C690 C 0.11633 0.57956 0.25954
 C691 C 0.07142 0.60628 0.26270
 C692 C 0.12966 0.55753 0.21485
 H693 H 0.07004 0.59736 0.20709
 H694 H 0.10205 0.56764 0.17950
 H695 H 0.15239 0.55240 0.25446
 H696 H 0.11988 0.58229 0.28204
 C697 C 0.90808 0.40794 0.24674
 C698 C 0.88466 0.42032 0.26003
 C699 C 0.86604 0.43737 0.24441
 C700 C 0.94940 0.38280 0.27481
 C701 C 0.89390 0.42898 0.20215
 C702 C 0.91228 0.41188 0.21769
 C703 C 0.92961 0.39362 0.26285
 C704 C 0.87093 0.44243 0.21544
 H705 H 0.88134 0.41758 0.28257
 H706 H 0.84859 0.44753 0.25523
 H707 H 0.89817 0.43232 0.17986
 H708 H 0.93041 0.40253 0.20722
 C709 C 0.90835 0.59240 0.75345
 C710 C 0.91268 0.58845 0.78248
 C711 C 0.89426 0.57144 0.79811
 C712 C 0.94969 0.61736 0.72517
 C713 C 0.86611 0.56316 0.75597
 C714 C 0.88477 0.58012 0.74026
 C715 C 0.92989 0.60663 0.73723
 C716 C 0.87111 0.55810 0.78493
 H717 H 0.93094 0.59772 0.79287
 H718 H 0.89862 0.56809 0.82038
 H719 H 0.84853 0.55307 0.74523
 H720 H 0.88134 0.58287 0.71774
 C721 C 0.75377 0.59236 0.90803
 C722 C 0.78276 0.58834 0.91245
 C723 C 0.79836 0.57133 0.89408
 C724 C 0.72547 0.61746 0.94915
 C725 C 0.75626 0.56319 0.86582
 C726 C 0.74059 0.58015 0.88442
 C727 C 0.73757 0.60665 0.92947
 C728 C 0.78518 0.55806 0.87090
 H729 H 0.79315 0.59756 0.93073
 H730 H 0.82060 0.56793 0.89851
 H731 H 0.74553 0.55316 0.84821
 H732 H 0.71810 0.58296 0.88092
 C733 C 0.24637 0.40724 0.90819
 C734 C 0.25952 0.41962 0.88464
 C735 C 0.24381 0.43661 0.86603
 C736 C 0.27468 0.38221 0.94947
 C737 C 0.20171 0.42817 0.89416
 C738 C 0.21735 0.41113 0.91253
 C739 C 0.26260 0.39298 0.92969
 C740 C 0.21486 0.44161 0.87104
 H741 H 0.28203 0.41693 0.88120
 H742 H 0.25453 0.44677 0.84847
 H743 H 0.17945 0.43147 0.89854
 H744 H 0.20697 0.40179 0.93077
 C745 C 0.24711 0.59179 0.09171
 C746 C 0.26029 0.57927 0.11517
 C747 C 0.24454 0.56232 0.13379
 C748 C 0.27540 0.61674 0.05038
 C749 C 0.20236 0.57109 0.10586
 C750 C 0.21804 0.58809 0.08748
 C751 C 0.26334 0.60600 0.07018
 C752 C 0.21553 0.55750 0.12887
 H753 H 0.28285 0.58182 0.11852
 H754 H 0.25527 0.55204 0.15127
 H755 H 0.18005 0.56793 0.10157
 H756 H 0.20764 0.59755 0.06931
 C757 C 0.75344 0.40826 0.09254
 C758 C 0.78246 0.41220 0.08819
 C759 C 0.79810 0.42923 0.10656
 C760 C 0.72510 0.38319 0.05136
 C761 C 0.75599 0.43753 0.13467
 C762 C 0.74028 0.42055 0.11607
 C763 C 0.73721 0.39399 0.07106
 C764 C 0.78494 0.44259 0.12966
 H765 H 0.79283 0.40292 0.06997
 H766 H 0.82037 0.43258 0.10219
 H767 H 0.74527 0.44763 0.15223
 H768 H 0.71776 0.41780 0.11950
 C769 C 0.90861 0.75330 0.59219
 C770 C 0.88499 0.74018 0.57992
 C771 C 0.86637 0.75594 0.56298
 C772 C 0.94984 0.72494 0.61722
 C773 C 0.89464 0.79800 0.57124
 C774 C 0.91303 0.78232 0.58823
 C775 C 0.93009 0.73703 0.60645
 C776 C 0.87144 0.78489 0.55793
 H777 H 0.88149 0.71766 0.58267
 H778 H 0.84874 0.74524 0.55292
 H779 H 0.89908 0.82027 0.56790
 H780 H 0.93132 0.79267 0.59748
 C781 C 0.90796 0.24644 0.40719
 C782 C 0.91223 0.21741 0.41117
 C783 C 0.89382 0.20182 0.42823
 C784 C 0.94930 0.27464 0.38213
 C785 C 0.86582 0.24399 0.43650
 C786 C 0.88446 0.25966 0.41948
 C787 C 0.92950 0.26262 0.39291
 C788 C 0.87076 0.21503 0.44160
 H789 H 0.93043 0.20699 0.40189
 H790 H 0.89814 0.17955 0.43161
 H791 H 0.84830 0.25475 0.44660
 H792 H 0.88108 0.28218 0.41671
 C793 C 0.09230 0.24679 0.59123
 C794 C 0.08778 0.21779 0.58730
 C795 C 0.10605 0.20211 0.57026
 C796 C 0.05132 0.27521 0.61642
 C797 C 0.13439 0.24413 0.56188
 C798 C 0.11589 0.25989 0.57887
 C799 C 0.07095 0.26307 0.60556
 C800 C 0.12922 0.21520 0.55686
 H801 H 0.06952 0.20747 0.59662
 H802 H 0.10155 0.17986 0.56694
 H803 H 0.15200 0.25480 0.55176
 H804 H 0.11946 0.28239 0.58161
 C805 C 0.09203 0.75370 0.40766
 C806 C 0.08786 0.78276 0.41147
 C807 C 0.10632 0.79833 0.42848
 C808 C 0.05059 0.72555 0.38278
 C809 C 0.13417 0.75608 0.43702
 C810 C 0.11548 0.74043 0.42006
 C811 C 0.07043 0.73756 0.39348
 C812 C 0.12932 0.78506 0.44196
 H813 H 0.06971 0.79322 0.40211
 H814 H 0.10208 0.82062 0.43173
 H815 H 0.15164 0.74527 0.44721
 H816 H 0.11877 0.71789 0.41742
 C817 C 0.59234 0.90880 0.75385
 C818 C 0.58844 0.91310 0.78287
 C819 C 0.57155 0.89458 0.79853
 C820 C 0.61713 0.95023 0.72551
 C821 C 0.56328 0.86644 0.75643
 C822 C 0.58013 0.88518 0.74069
 C823 C 0.60647 0.93040 0.73761
 C824 C 0.55827 0.87139 0.78538
 H825 H 0.59766 0.93138 0.79324
 H826 H 0.56823 0.89892 0.82080
 H827 H 0.55325 0.84882 0.74571
 H828 H 0.58284 0.88178 0.71818
 C829 C 0.40720 0.90802 0.24656
 C830 C 0.41959 0.88454 0.25981
 C831 C 0.43650 0.86589 0.24413
 C832 C 0.38241 0.94940 0.27476
 C833 C 0.42793 0.89383 0.20189
 C834 C 0.41097 0.91225 0.21750
 C835 C 0.39307 0.92959 0.26274
 C836 C 0.44140 0.87081 0.21514
 H837 H 0.41699 0.88120 0.28236
 H838 H 0.44668 0.84840 0.25492
 H839 H 0.43116 0.89813 0.17959
 H840 H 0.40162 0.93043 0.20705
 C841 C 0.59225 0.09159 0.24669
 C842 C 0.58836 0.08720 0.21767
 C843 C 0.57141 0.10558 0.20193
 C844 C 0.61714 0.05033 0.27515
 C845 C 0.56307 0.13380 0.24395
 C846 C 0.57997 0.11518 0.25976
 C847 C 0.60644 0.07010 0.26301
 C848 C 0.55807 0.12874 0.21500
 H849 H 0.59762 0.06893 0.20736
 H850 H 0.56811 0.10117 0.17967
 H851 H 0.55299 0.15139 0.25460
 H852 H 0.58266 0.11866 0.28227
 C853 C 0.40733 0.09147 0.75363
 C854 C 0.41967 0.11498 0.74034
 C855 C 0.43650 0.13376 0.75602
 C856 C 0.38270 0.04992 0.72544
 C857 C 0.42794 0.10588 0.79831
 C858 C 0.41106 0.08733 0.78271
 C859 C 0.39329 0.06979 0.73747
 C860 C 0.44137 0.12894 0.78504
 H861 H 0.41709 0.11825 0.71778
 H862 H 0.44666 0.15127 0.74521
 H863 H 0.43114 0.10166 0.82064
 H864 H 0.40174 0.06913 0.79318
 C865 C 0.59123 0.75408 0.09251
 C866 C 0.57893 0.74083 0.11605
 C867 C 0.56182 0.75643 0.13458
 C868 C 0.61660 0.72596 0.05144
 C869 C 0.56999 0.79860 0.10638
 C870 C 0.58714 0.78307 0.08808
 C871 C 0.60567 0.73796 0.07111
 C872 C 0.55664 0.78535 0.12949
 H873 H 0.58179 0.71834 0.11954
 H874 H 0.55174 0.74564 0.15214
 H875 H 0.56654 0.82084 0.10195
 H876 H 0.59642 0.79351 0.06986
 C877 C 0.40884 0.24603 0.09148
 C878 C 0.41307 0.21708 0.08695
 C879 C 0.43019 0.20148 0.10530
 C880 C 0.38338 0.27430 0.05044
 C881 C 0.43808 0.24348 0.13371
 C882 C 0.42100 0.25915 0.11514
 C883 C 0.39436 0.26224 0.07010
 C884 C 0.44337 0.21461 0.12856
 H885 H 0.40390 0.20673 0.06863
 H886 H 0.43372 0.17928 0.10080
 H887 H 0.44803 0.25418 0.15139
 H888 H 0.41804 0.28161 0.11872
 C889 C 0.59087 0.24644 0.90778
 C890 C 0.58695 0.21741 0.91210
 C891 C 0.56983 0.20182 0.89377
 C892 C 0.61614 0.27461 0.94894
 C893 C 0.56136 0.24403 0.86574
 C894 C 0.57844 0.25969 0.88431
 C895 C 0.60524 0.26260 0.92923
 C896 C 0.55634 0.21506 0.87074
 H897 H 0.59634 0.20697 0.93027
 H898 H 0.56652 0.17953 0.89812
 H899 H 0.55116 0.25480 0.84824
 H900 H 0.58116 0.28222 0.88090
 C901 C 0.40928 0.75327 0.90843
 C902 C 0.42160 0.74016 0.88488
 C903 C 0.43864 0.75590 0.86633
 C904 C 0.38395 0.72492 0.94949
 C905 C 0.43036 0.79795 0.89453
 C906 C 0.41328 0.78227 0.91285
 C907 C 0.39488 0.73702 0.92983
 C908 C 0.44373 0.78484 0.87141
 H909 H 0.41881 0.71766 0.88139
 H910 H 0.44874 0.74522 0.84876
 H911 H 0.43373 0.82020 0.89895
 H912 H 0.40398 0.79261 0.93108
 C913 C 0.75364 0.90833 0.40899
 C914 C 0.78260 0.91293 0.41315
 C915 C 0.79828 0.89458 0.43019
 C916 C 0.72524 0.94937 0.38369
 C917 C 0.75633 0.86601 0.43811
 C918 C 0.74058 0.88459 0.42112
 C919 C 0.73736 0.92971 0.39460
 C920 C 0.78522 0.87124 0.44335
 H921 H 0.79290 0.93131 0.40401
 H922 H 0.82049 0.89913 0.43368
 H923 H 0.74569 0.84827 0.44804
 H924 H 0.71812 0.88095 0.41820
 C925 C 0.24679 0.90773 0.59149
 C926 C 0.25995 0.88421 0.57917
 C927 C 0.24425 0.86566 0.56212
 C928 C 0.27507 0.94885 0.61673
 C929 C 0.20216 0.89377 0.57041
 C930 C 0.21778 0.91210 0.58750
 C931 C 0.26300 0.92916 0.60585
 C932 C 0.21532 0.87069 0.55703
 H933 H 0.28246 0.88076 0.58195
 H934 H 0.25497 0.84812 0.55201
 H935 H 0.17990 0.89816 0.56704
 H936 H 0.20741 0.93030 0.59681
 C937 C 0.24636 0.09160 0.40812
 C938 C 0.21740 0.08708 0.41229
 C939 C 0.20179 0.10548 0.42927
 C940 C 0.27465 0.05048 0.38302
 C941 C 0.24382 0.13394 0.43711
 C942 C 0.25950 0.11532 0.42018
 C943 C 0.26258 0.07017 0.39384
 C944 C 0.21493 0.12878 0.44236
 H945 H 0.20704 0.06873 0.40319
 H946 H 0.17957 0.10098 0.43277
 H947 H 0.25453 0.15165 0.44700
 H948 H 0.28197 0.11890 0.41726
 C949 C 0.75344 0.09231 0.59149
 C950 C 0.78243 0.08789 0.58746
 C951 C 0.79804 0.10620 0.57031
 C952 C 0.72515 0.05124 0.61692
 C953 C 0.75598 0.13441 0.56203
 C954 C 0.74029 0.11586 0.57914
 C955 C 0.73723 0.07091 0.60595
 C956 C 0.78489 0.12933 0.55691
 H957 H 0.79279 0.06965 0.59678
 H958 H 0.82027 0.10178 0.56691
 H959 H 0.74526 0.15198 0.55191
 H960 H 0.71780 0.11936 0.58195
 C961 C 0.90829 0.59180 0.24684
 C962 C 0.91259 0.58787 0.21781
 C963 C 0.89417 0.57082 0.20224
 C964 C 0.94951 0.61699 0.27503
 C965 C 0.86613 0.56244 0.24442
 C966 C 0.88478 0.57945 0.26007
 C967 C 0.92979 0.60613 0.26299
 C968 C 0.87109 0.55741 0.21547
 H969 H 0.93079 0.59720 0.20738
 H970 H 0.89850 0.56749 0.17997
 H971 H 0.84859 0.55231 0.25520
 H972 H 0.88138 0.58219 0.28259
 C973 C 0.90795 0.40885 0.75357
 C974 C 0.91234 0.41280 0.78258
 C975 C 0.89401 0.42984 0.79819
 C976 C 0.94906 0.38369 0.72531
 C977 C 0.86583 0.43815 0.75607
 C978 C 0.88440 0.42116 0.74038
 C979 C 0.92938 0.39453 0.73738
 C980 C 0.87089 0.44321 0.78501
 H981 H 0.93057 0.40351 0.79298
 H982 H 0.89842 0.43318 0.82045
 H983 H 0.84827 0.44826 0.74532
 H984 H 0.88093 0.41841 0.71788
 C985 C 0.09178 0.59121 0.75385
 C986 C 0.11539 0.57905 0.74070
 C987 C 0.13398 0.56201 0.75638
 C988 C 0.05069 0.61653 0.72555
 C989 C 0.10570 0.56997 0.79844
 C990 C 0.08733 0.58705 0.78283
 C991 C 0.07036 0.60562 0.73763
 C992 C 0.12889 0.55676 0.78529
 H993 H 0.11891 0.58196 0.71821
 H994 H 0.15160 0.55204 0.74566
 H995 H 0.10125 0.56647 0.82067
 H996 H 0.06906 0.59622 0.79320
 C997 C 0.09166 0.40838 0.24595
 C998 C 0.08729 0.41249 0.21695
 C999 C 0.10576 0.42949 0.20136
 C1000 C 0.05040 0.38325 0.27419
 C1001 C 0.13401 0.43745 0.24350
 C1002 C 0.11531 0.42050 0.25915
 C1003 C 0.07013 0.39408 0.26213
 C1004 C 0.12899 0.44266 0.21457
 H1005 H 0.06898 0.40334 0.20654
 H1006 H 0.10137 0.43295 0.17911
 H1007 H 0.15166 0.44741 0.25425
 H1008 H 0.11877 0.41762 0.28166
   
