data_POSCAR
  _audit_creation_date              2014-09-24
  _audit_creation_method            'ToBaCCo'
  _symmetry_space_group_name_H-M    'P1'
  _symmetry_Int_Tables_number       1
  _symmetry_cell_setting            triclinic
  loop_
  _symmetry_equiv_pos_as_xyz
 x,y,z
_cell_length_a 65.0001
_cell_length_b 64.7772
_cell_length_c 65.0823
_cell_angle_alpha 90.070100
_cell_angle_beta 89.922300
_cell_angle_gamma 89.975700
loop_
  _atom_site_label
  _atom_site_type_symbol
  _atom_site_fract_x
  _atom_site_fract_y
  _atom_site_fract_z
N1 N 0.17475 0.22373 0.22813
 N2 N 0.18037 0.20740 0.23871
 C3 C 0.16724 0.20481 0.25455
 C4 C 0.15269 0.22035 0.25375
 C5 C 0.15789 0.23207 0.23682
 H6 H 0.16812 0.19258 0.26581
 H7 H 0.14998 0.24565 0.23127
 Cu8 Cu 0.20423 0.19115 0.23059
 Cu9 Cu 0.18964 0.23303 0.20388
 Cu10 Cu 0.23253 0.20464 0.18947
 N11 N 0.22854 0.17554 0.22256
 N12 N 0.23948 0.18089 0.20641
 C13 C 0.25528 0.16762 0.20419
 C14 C 0.25416 0.15322 0.21978
 C15 C 0.23704 0.15866 0.23117
 H16 H 0.26673 0.16837 0.19215
 H17 H 0.23126 0.15087 0.24468
 N18 N 0.22303 0.22918 0.17431
 N19 N 0.20669 0.23999 0.17982
 C20 C 0.20424 0.25577 0.16658
 C21 C 0.21975 0.25481 0.15210
 C22 C 0.23139 0.23780 0.15742
 H23 H 0.19212 0.26718 0.16737
 H24 H 0.24495 0.23221 0.14956
 H25 H 0.20135 0.20451 0.19569
 H26 H 0.21784 0.22106 0.21243
 N27 N 0.67495 0.72384 0.72844
 N28 N 0.68066 0.70752 0.73901
 C29 C 0.66755 0.70485 0.75485
 C30 C 0.65295 0.72034 0.75413
 C31 C 0.65809 0.73212 0.73721
 H32 H 0.66848 0.69259 0.76607
 H33 H 0.65018 0.74574 0.73175
 Cu34 Cu 0.70452 0.69133 0.73079
 Cu35 Cu 0.68978 0.73320 0.70415
 Cu36 Cu 0.73264 0.70484 0.68957
 N37 N 0.72876 0.67569 0.72263
 N38 N 0.73963 0.68105 0.70644
 C39 C 0.75539 0.66777 0.70411
 C40 C 0.75430 0.65332 0.71966
 C41 C 0.73724 0.65875 0.73114
 H42 H 0.76684 0.66859 0.69208
 H43 H 0.73150 0.65092 0.74464
 N44 N 0.72311 0.72940 0.67451
 N45 N 0.70678 0.74020 0.68006
 C46 C 0.70434 0.75603 0.66688
 C47 C 0.71985 0.75511 0.65240
 C48 C 0.73148 0.73809 0.65765
 H49 H 0.69223 0.76746 0.66772
 H50 H 0.74505 0.73253 0.64977
 H51 H 0.70147 0.70466 0.69587
 H52 H 0.71800 0.72125 0.71250
 N53 N 0.32466 0.77679 0.72857
 N54 N 0.31898 0.79315 0.73915
 C55 C 0.33202 0.79577 0.75502
 C56 C 0.34662 0.78026 0.75425
 C57 C 0.34151 0.76850 0.73729
 H58 H 0.33101 0.80799 0.76630
 H59 H 0.34948 0.75493 0.73173
 Cu60 Cu 0.29501 0.80923 0.73102
 Cu61 Cu 0.30977 0.76734 0.70435
 Cu62 Cu 0.26689 0.79575 0.68990
 N63 N 0.27086 0.82504 0.72294
 N64 N 0.25998 0.81965 0.70677
 C65 C 0.24421 0.83291 0.70450
 C66 C 0.24525 0.84739 0.72009
 C67 C 0.26233 0.84194 0.73155
 H68 H 0.23284 0.83212 0.69240
 H69 H 0.26805 0.84969 0.74511
 N70 N 0.27639 0.77111 0.67481
 N71 N 0.29271 0.76031 0.68031
 C72 C 0.29517 0.74448 0.66708
 C73 C 0.27966 0.74538 0.65264
 C74 C 0.26804 0.76243 0.65795
 H75 H 0.30729 0.73307 0.66788
 H76 H 0.25450 0.76802 0.65009
 H77 H 0.29801 0.79578 0.69614
 H78 H 0.28147 0.77926 0.71285
 N79 N 0.82577 0.27640 0.22889
 N80 N 0.82009 0.29276 0.23947
 C81 C 0.83315 0.29542 0.25532
 C82 C 0.84776 0.27989 0.25456
 C83 C 0.84262 0.26809 0.23760
 H84 H 0.83220 0.30772 0.26655
 H85 H 0.85052 0.25448 0.23204
 Cu86 Cu 0.79628 0.30903 0.23128
 Cu87 Cu 0.81095 0.26705 0.20460
 Cu88 Cu 0.76816 0.29545 0.19013
 N89 N 0.77204 0.32468 0.22318
 N90 N 0.76117 0.31927 0.20702
 C91 C 0.74543 0.33255 0.20469
 C92 C 0.74649 0.34705 0.22022
 C93 C 0.76353 0.34163 0.23172
 H94 H 0.73402 0.33173 0.19263
 H95 H 0.76925 0.34951 0.24522
 N96 N 0.77767 0.27088 0.17502
 N97 N 0.79398 0.26006 0.18051
 C98 C 0.79644 0.24425 0.16726
 C99 C 0.78095 0.24522 0.15279
 C100 C 0.76933 0.26224 0.15813
 H101 H 0.80855 0.23283 0.16803
 H102 H 0.75579 0.26784 0.15027
 H103 H 0.79932 0.29556 0.19638
 H104 H 0.78275 0.27907 0.21310
 N105 N 0.82502 0.72368 0.27138
 N106 N 0.81938 0.70728 0.26087
 C107 C 0.83244 0.70464 0.24498
 C108 C 0.84697 0.72019 0.24563
 C109 C 0.84182 0.73200 0.26256
 H110 H 0.83151 0.69235 0.23375
 H111 H 0.84973 0.74563 0.26803
 Cu112 Cu 0.79558 0.69104 0.26912
 Cu113 Cu 0.81017 0.73311 0.29565
 Cu114 Cu 0.76735 0.70475 0.31026
 N115 N 0.77132 0.67543 0.27728
 N116 N 0.76040 0.68088 0.29343
 C117 C 0.74462 0.66763 0.29572
 C118 C 0.74570 0.65314 0.28018
 C119 C 0.76280 0.65851 0.26874
 H120 H 0.73317 0.66847 0.30777
 H121 H 0.76854 0.65065 0.25523
 N122 N 0.77684 0.72939 0.32529
 N123 N 0.79315 0.74018 0.31973
 C124 C 0.79558 0.75604 0.33291
 C125 C 0.78007 0.75516 0.34738
 C126 C 0.76847 0.73811 0.34214
 H127 H 0.80768 0.76746 0.33206
 H128 H 0.75492 0.73255 0.35004
 H129 H 0.79852 0.70463 0.30397
 H130 H 0.78197 0.72107 0.28721
 N131 N 0.32524 0.22342 -0.22869
 N132 N 0.31956 0.20710 -0.23930
 C133 C 0.33277 0.20433 -0.25505
 C134 C 0.34748 0.21975 -0.25421
 C135 C 0.34223 0.23160 -0.23730
 H136 H 0.33182 0.19206 -0.26629
 H137 H 0.35018 0.24514 -0.23169
 Cu138 Cu 0.29533 0.19125 -0.23143
 Cu139 Cu 0.31025 0.23291 -0.20450
 Cu140 Cu 0.26734 0.20457 -0.19004
 N141 N 0.27134 0.17529 -0.22307
 N142 N 0.26047 0.18067 -0.20687
 C143 C 0.24475 0.16736 -0.20453
 C144 C 0.24581 0.15288 -0.22009
 C145 C 0.26286 0.15833 -0.23159
 H146 H 0.23333 0.16816 -0.19245
 H147 H 0.26856 0.15053 -0.24516
 N148 N 0.27676 0.22923 -0.17499
 N149 N 0.29309 0.24003 -0.18049
 C150 C 0.29549 0.25586 -0.16726
 C151 C 0.27995 0.25494 -0.15280
 C152 C 0.26836 0.23791 -0.15813
 H153 H 0.30762 0.26725 -0.16802
 H154 H 0.25481 0.23232 -0.15026
 H155 H 0.29848 0.20441 -0.19647
 H156 H 0.28194 0.22114 -0.21292
 N157 N 0.67463 0.27576 -0.22879
 N158 N 0.68047 0.29190 -0.23956
 C159 C 0.66737 0.29456 -0.25536
 C160 C 0.65254 0.27927 -0.25439
 C161 C 0.65762 0.26759 -0.23735
 H162 H 0.66842 0.30673 -0.26667
 H163 H 0.64951 0.25422 -0.23158
 Cu164 Cu 0.70442 0.30797 -0.23146
 Cu165 Cu 0.68946 0.26655 -0.20441
 Cu166 Cu 0.73227 0.29512 -0.19002
 N167 N 0.72845 0.32393 -0.22339
 N168 N 0.73919 0.31882 -0.20705
 C169 C 0.75479 0.33227 -0.20471
 C170 C 0.75375 0.34654 -0.22042
 C171 C 0.73688 0.34084 -0.23201
 H172 H 0.76606 0.33173 -0.19252
 H173 H 0.73123 0.34848 -0.24564
 N174 N 0.72278 0.27062 -0.17481
 N175 N 0.70649 0.25973 -0.18026
 C176 C 0.70413 0.24396 -0.16698
 C177 C 0.71967 0.24500 -0.15256
 C178 C 0.73120 0.26205 -0.15794
 H179 H 0.69208 0.23249 -0.16773
 H180 H 0.74476 0.26769 -0.15015
 H181 H 0.70116 0.29513 -0.19641
 H182 H 0.71780 0.27832 -0.21275
 N183 N 0.17521 0.77641 0.27151
 N184 N 0.18111 0.79255 0.26077
 C185 C 0.16806 0.79520 0.24492
 C186 C 0.15323 0.77996 0.24586
 C187 C 0.15823 0.76829 0.26288
 H188 H 0.16910 0.80735 0.23359
 H189 H 0.15008 0.75490 0.26855
 Cu190 Cu 0.20508 0.80861 0.26878
 Cu191 Cu 0.18991 0.76717 0.29588
 Cu192 Cu 0.23271 0.79560 0.31041
 N193 N 0.22911 0.82445 0.27707
 N194 N 0.23977 0.81930 0.29345
 C195 C 0.25538 0.83273 0.29588
 C196 C 0.25444 0.84706 0.28019
 C197 C 0.23761 0.84135 0.26850
 H198 H 0.26660 0.83213 0.30811
 H199 H 0.23199 0.84902 0.25487
 N200 N 0.22311 0.77110 0.32557
 N201 N 0.20681 0.76028 0.32005
 C202 C 0.20436 0.74448 0.33326
 C203 C 0.21984 0.74543 0.34774
 C204 C 0.23144 0.76246 0.34244
 H205 H 0.19229 0.73303 0.33242
 H206 H 0.24501 0.76803 0.35028
 H207 H 0.20160 0.79576 0.30380
 H208 H 0.21827 0.77888 0.28753
 N209 N 0.47351 0.42412 0.47882
 N210 N 0.45725 0.42982 0.48945
 C211 C 0.45459 0.41663 0.50523
 C212 C 0.47004 0.40197 0.50439
 C213 C 0.48176 0.40717 0.48746
 H214 H 0.44244 0.41760 0.51656
 H215 H 0.49532 0.39924 0.48191
 Cu216 Cu 0.44140 0.45409 0.48162
 Cu217 Cu 0.48295 0.43914 0.45469
 Cu218 Cu 0.45462 0.48202 0.44010
 N219 N 0.42540 0.47800 0.47309
 N220 N 0.43071 0.48884 0.45685
 C221 C 0.41735 0.50453 0.45445
 C222 C 0.40292 0.50345 0.47000
 C223 C 0.40844 0.48645 0.48156
 H224 H 0.41809 0.51594 0.44235
 H225 H 0.40069 0.48078 0.49514
 N226 N 0.47931 0.47260 0.42516
 N227 N 0.49008 0.45626 0.43074
 C228 C 0.50604 0.45391 0.41772
 C229 C 0.50525 0.46950 0.40331
 C230 C 0.48814 0.48107 0.40843
 H231 H 0.51748 0.44184 0.41864
 H232 H 0.48265 0.49469 0.40056
 H233 H 0.47108 0.46762 0.46304
 H234 H 0.45445 0.45088 0.44663
 N235 N -0.02659 -0.07558 0.97874
 N236 N -0.04282 -0.06980 0.98936
 C237 C -0.04554 -0.08295 1.00516
 C238 C -0.03018 -0.09769 1.00433
 C239 C -0.01843 -0.09257 0.98740
 H240 H -0.05770 -0.08191 1.01648
 H241 H -0.00492 -0.10059 0.98185
 Cu242 Cu -0.05859 -0.04551 0.98155
 Cu243 Cu -0.01713 -0.06064 0.95457
 Cu244 Cu -0.04536 -0.01767 0.93998
 N245 N -0.07450 -0.02157 0.97303
 N246 N -0.06920 -0.01076 0.95678
 C247 C -0.08253 0.00496 0.95440
 C248 C -0.09692 0.00393 0.96999
 C249 C -0.09142 -0.01308 0.98154
 H250 H -0.08179 0.01635 0.94228
 H251 H -0.09916 -0.01872 0.99514
 N252 N -0.02073 -0.02719 0.92500
 N253 N -0.00999 -0.04355 0.93058
 C254 C 0.00594 -0.04595 0.91754
 C255 C 0.00517 -0.03036 0.90312
 C256 C -0.01190 -0.01875 0.90825
 H257 H 0.01736 -0.05806 0.91845
 H258 H -0.01737 -0.00512 0.90039
 H259 H -0.02889 -0.03211 0.96291
 H260 H -0.04560 -0.04882 0.94655
 N261 N 1.02619 0.57528 0.97833
 N262 N 1.04246 0.56960 0.98890
 C263 C 1.04507 0.58276 1.00474
 C264 C 1.02960 0.59737 1.00399
 C265 C 1.01789 0.59218 0.98707
 H266 H 1.05727 0.58185 1.01599
 H267 H 1.00432 0.60009 0.98158
 Cu268 Cu 1.05866 0.54570 0.98068
 Cu269 Cu 1.01689 0.56041 0.95405
 Cu270 Cu 1.04522 0.51749 0.93945
 N271 N 1.07424 0.52136 0.97255
 N272 N 1.06890 0.51050 0.95632
 C273 C 1.08206 0.49463 0.95401
 C274 C 1.09638 0.49560 0.96961
 C275 C 1.09103 0.51274 0.98111
 H276 H 1.08121 0.48315 0.94197
 H277 H 1.09880 0.51840 0.99467
 N278 N 1.02075 0.52702 0.92439
 N279 N 1.00994 0.54336 0.92997
 C280 C 0.99422 0.54584 0.91674
 C281 C 0.99523 0.53034 0.90220
 C282 C 1.01218 0.51868 0.90748
 H283 H 0.98285 0.55800 0.91755
 H284 H 1.01780 0.50513 0.89954
 H285 H 1.02887 0.53212 0.96244
 H286 H 1.04536 0.54876 0.94579
 N287 N 0.52631 0.07565 0.47823
 N288 N 0.54278 0.07013 0.48858
 C289 C 0.54548 0.08331 0.50439
 C290 C 0.52986 0.09779 0.50386
 C291 C 0.51798 0.09249 0.48708
 H292 H 0.55777 0.08244 0.51554
 H293 H 0.50425 0.10027 0.48179
 Cu294 Cu 0.55867 0.04599 0.48044
 Cu295 Cu 0.51677 0.06059 0.45410
 Cu296 Cu 0.54517 0.01766 0.43942
 N297 N 0.57459 0.02193 0.47213
 N298 N 0.56908 0.01090 0.45608
 C299 C 0.58220 -0.00501 0.45381
 C300 C 0.59667 -0.00391 0.46927
 C301 C 0.59146 0.01336 0.48063
 H302 H 0.58122 -0.01664 0.44192
 H303 H 0.59928 0.01909 0.49414
 N304 N 0.52049 0.02701 0.42456
 N305 N 0.50966 0.04334 0.43014
 C306 C 0.49387 0.04573 0.41696
 C307 C 0.49486 0.03019 0.40245
 C308 C 0.51188 0.01860 0.40770
 H309 H 0.48248 0.05788 0.41777
 H310 H 0.51754 0.00507 0.39976
 H311 H 0.52880 0.03226 0.46244
 H312 H 0.54514 0.04891 0.44568
 N313 N -0.02676 0.07576 0.52136
 N314 N -0.04324 0.07016 0.51105
 C315 C -0.04606 0.08331 0.49528
 C316 C -0.03053 0.09785 0.49580
 C317 C -0.01855 0.09263 0.51251
 H318 H -0.05840 0.08241 0.48420
 H319 H -0.00486 0.10049 0.51778
 Cu320 Cu -0.05903 0.04604 0.51924
 Cu321 Cu -0.01711 0.06079 0.54543
 Cu322 Cu -0.04534 0.01784 0.56024
 N323 N -0.07487 0.02200 0.52760
 N324 N -0.06932 0.01101 0.54365
 C325 C -0.08241 -0.00491 0.54591
 C326 C -0.09689 -0.00384 0.53045
 C327 C -0.09172 0.01341 0.51911
 H328 H -0.08139 -0.01653 0.55778
 H329 H -0.09955 0.01910 0.50561
 N330 N -0.02061 0.02729 0.57499
 N331 N -0.00987 0.04364 0.56934
 C332 C 0.00608 0.04604 0.58232
 C333 C 0.00532 0.03047 0.59676
 C334 C -0.01176 0.01887 0.59171
 H335 H 0.01747 0.05816 0.58137
 H336 H -0.01725 0.00529 0.59964
 H337 H -0.02909 0.03238 0.53716
 H338 H -0.04543 0.04905 0.55397
 N339 N 0.47370 0.57574 0.02140
 N340 N 0.45722 0.57017 0.01109
 C341 C 0.45448 0.58330 -0.00473
 C342 C 0.47008 0.59779 -0.00423
 C343 C 0.48200 0.59255 0.01253
 H344 H 0.44217 0.58240 -0.01585
 H345 H 0.49572 0.60035 0.01779
 Cu346 Cu 0.44139 0.54604 0.01928
 Cu347 Cu 0.48334 0.56072 0.04546
 Cu348 Cu 0.45507 0.51778 0.06025
 N349 N 0.42552 0.52199 0.02764
 N350 N 0.43108 0.51099 0.04367
 C351 C 0.41797 0.49508 0.04595
 C352 C 0.40346 0.49616 0.03052
 C353 C 0.40864 0.51342 0.01917
 H354 H 0.41898 0.48347 0.05783
 H355 H 0.40079 0.51912 0.00568
 N356 N 0.47983 0.52720 0.07501
 N357 N 0.49058 0.54354 0.06936
 C358 C 0.50654 0.54592 0.08233
 C359 C 0.50579 0.53035 0.09676
 C360 C 0.48869 0.51876 0.09172
 H361 H 0.51794 0.55803 0.08138
 H362 H 0.48320 0.50517 0.09964
 H363 H 0.47132 0.53232 0.03718
 H364 H 0.45502 0.54898 0.05402
 N365 N 0.52638 -0.07534 0.02165
 N366 N 0.54271 -0.06971 0.01110
 C367 C 0.54534 -0.08283 -0.00477
 C368 C 0.52983 -0.09740 -0.00407
 C369 C 0.51808 -0.09221 0.01286
 H370 H 0.55758 -0.08194 -0.01600
 H371 H 0.50451 -0.10014 0.01837
 Cu372 Cu 0.55895 -0.04587 0.01931
 Cu373 Cu 0.51709 -0.06042 0.04596
 Cu374 Cu 0.54557 -0.01758 0.06053
 N375 N 0.57467 -0.02166 0.02745
 N376 N 0.56935 -0.01071 0.04364
 C377 C 0.58267 0.00501 0.04595
 C378 C 0.59709 0.00385 0.03039
 C379 C 0.59159 -0.01323 0.01890
 H380 H 0.58196 0.01646 0.05804
 H381 H 0.59938 -0.01903 0.00538
 N382 N 0.52101 -0.02700 0.07562
 N383 N 0.51017 -0.04332 0.07008
 C384 C 0.49440 -0.04571 0.08332
 C385 C 0.49540 -0.03018 0.09783
 C386 C 0.51242 -0.01860 0.09253
 H387 H 0.48297 -0.05780 0.08250
 H388 H 0.51805 -0.00504 0.10042
 H389 H 0.52916 -0.03214 0.03755
 H390 H 0.54555 -0.04884 0.05420
 N391 N 1.02641 0.42444 0.52154
 N392 N 1.04288 0.42993 0.51114
 C393 C 1.04557 0.41677 0.49532
 C394 C 1.02994 0.40232 0.49589
 C395 C 1.01806 0.40762 0.51270
 H396 H 1.05787 0.41761 0.48415
 H397 H 1.00434 0.39985 0.51805
 Cu398 Cu 1.05885 0.45399 0.51924
 Cu399 Cu 1.01692 0.43953 0.54569
 Cu400 Cu 1.04543 0.48241 0.56026
 N401 N 1.07484 0.47797 0.52748
 N402 N 1.06938 0.48908 0.54352
 C403 C 1.08267 0.50484 0.54578
 C404 C 1.09720 0.50353 0.53034
 C405 C 1.09182 0.48633 0.51898
 H406 H 1.08181 0.51644 0.55771
 H407 H 1.09965 0.48046 0.50552
 N408 N 1.02072 0.47312 0.57519
 N409 N 1.00987 0.45681 0.56966
 C410 C 0.99409 0.45444 0.58289
 C411 C 0.99509 0.46999 0.59737
 C412 C 1.01212 0.48156 0.59207
 H413 H 0.98270 0.44231 0.58212
 H414 H 1.01779 0.49508 0.60000
 H415 H 1.02898 0.46781 0.53730
 H416 H 1.04530 0.45114 0.55404
 Si417 Si 0.37413 -0.00046 0.25017
 Si418 Si 0.12498 -0.00030 0.74977
 Si419 Si 0.62511 0.49984 0.25011
 Si420 Si 0.87440 0.49981 0.75006
 Si421 Si 0.25015 0.37613 -0.00007
 Si422 Si 0.74998 0.12448 0.00017
 Si423 Si 0.24989 0.62428 0.49999
 Si424 Si 0.74991 0.87615 0.50007
 Si425 Si -0.00039 0.25006 0.37420
 Si426 Si 0.00033 0.75001 0.12565
 Si427 Si 0.50002 0.24984 0.62636
 Si428 Si 0.49964 0.75021 0.87426
 N429 N 0.10653 0.24300 0.27766
 C430 C 0.10333 0.23017 0.29378
 N431 N 0.11632 0.21407 0.29675
 N432 N 0.13207 0.21091 0.28399
 C433 C 0.13533 0.22376 0.26784
 N434 N 0.12228 0.23985 0.26490
 C435 C 0.08634 0.23356 0.30747
 C436 C 0.07202 0.23644 0.31889
 C437 C 0.05488 0.23980 0.33240
 N438 N 0.04880 0.22481 0.34559
 N439 N 0.03272 0.22783 0.35794
 C440 C 0.02221 0.24592 0.35751
 N441 N 0.02833 0.26092 0.34433
 N442 N 0.04442 0.25791 0.33196
 N443 N 0.61686 0.71369 0.79730
 C444 C 0.60376 0.72973 0.79447
 N445 N 0.60684 0.74269 0.77843
 N446 N 0.62255 0.73972 0.76558
 C447 C 0.63569 0.72366 0.76835
 N448 N 0.63257 0.71071 0.78446
 C449 C 0.58673 0.73289 0.80819
 C450 C 0.57231 0.73567 0.81953
 C451 C 0.55494 0.73909 0.83275
 N452 N 0.53609 0.74263 0.82460
 N453 N 0.51992 0.74585 0.83678
 C454 C 0.52208 0.74564 0.85751
 N455 N 0.54095 0.74209 0.86567
 N456 N 0.55714 0.73887 0.85347
 N457 N 0.38282 0.78688 0.79727
 C458 C 0.39588 0.77080 0.79437
 N459 N 0.39276 0.75786 0.77829
 N460 N 0.37707 0.76089 0.76550
 C461 C 0.36396 0.77698 0.76835
 N462 N 0.36712 0.78992 0.78448
 C463 C 0.41282 0.76754 0.80812
 C464 C 0.42712 0.76480 0.81959
 C465 C 0.44425 0.76156 0.83311
 N466 N 0.46073 0.77438 0.83247
 N467 N 0.47682 0.77117 0.84471
 C468 C 0.47694 0.75505 0.85800
 N469 N 0.46043 0.74225 0.85867
 N470 N 0.44433 0.74546 0.84642
 N471 N -0.11696 0.28675 0.29688
 C472 C -0.10387 0.27070 0.29400
 N473 N -0.10699 0.25771 0.27796
 N474 N -0.12270 0.26069 0.26517
 C475 C -0.13584 0.27677 0.26797
 N476 N -0.13268 0.28973 0.28409
 C477 C -0.08691 0.26750 0.30774
 C478 C -0.07260 0.26475 0.31918
 C479 C -0.05547 0.26143 0.33267
 N480 N -0.05555 0.24545 0.34612
 N481 N -0.03950 0.24219 0.35841
 C482 C -0.02287 0.25482 0.35764
 N483 N -0.02281 0.27081 0.34421
 N484 N -0.03886 0.27407 0.33192
 N485 N -0.11689 0.71352 0.20248
 C486 C -0.10386 0.72961 0.20529
 N487 N -0.10699 0.74260 0.22135
 N488 N -0.12268 0.73960 0.23419
 C489 C -0.13576 0.72350 0.23142
 N490 N -0.13259 0.71051 0.21533
 C491 C -0.08683 0.73278 0.19159
 C492 C -0.07239 0.73553 0.18028
 C493 C -0.05501 0.73892 0.16709
 N494 N -0.03620 0.74266 0.17526
 N495 N -0.02003 0.74589 0.16310
 C496 C -0.02214 0.74549 0.14237
 N497 N -0.04095 0.74173 0.13418
 N498 N -0.05715 0.73850 0.14636
 N499 N 0.38316 0.21263 0.70371
 C500 C 0.39630 0.22861 0.70665
 N501 N 0.39308 0.24164 0.72266
 N502 N 0.37724 0.23877 0.73535
 C503 C 0.36404 0.22276 0.73247
 N504 N 0.36730 0.20975 0.71639
 C505 C 0.41341 0.23173 0.69301
 C506 C 0.42781 0.23448 0.68161
 C507 C 0.44496 0.23795 0.66811
 N508 N 0.44476 0.25398 0.65474
 N509 N 0.46078 0.25741 0.64242
 C510 C 0.47753 0.24492 0.64305
 N511 N 0.47771 0.22886 0.65642
 N512 N 0.46168 0.22542 0.66875
 N513 N 0.60659 0.25784 0.72279
 C514 C 0.60359 0.27075 0.70668
 N515 N 0.61699 0.28648 0.70356
 N516 N 0.63289 0.28924 0.71619
 C517 C 0.63594 0.27635 0.73236
 N518 N 0.62249 0.26060 0.73541
 C519 C 0.58647 0.26773 0.69307
 C520 C 0.57209 0.26504 0.68167
 C521 C 0.55498 0.26163 0.66814
 N522 N 0.53829 0.27420 0.66880
 N523 N 0.52230 0.27081 0.65644
 C524 C 0.52248 0.25474 0.64305
 N525 N 0.53919 0.24221 0.64240
 N526 N 0.55518 0.24560 0.65474
 N527 N 0.10658 0.75830 0.22212
 C528 C 0.10368 0.77117 0.20597
 N529 N 0.11706 0.78692 0.20291
 N530 N 0.13287 0.78972 0.21562
 C531 C 0.13582 0.77686 0.23182
 N532 N 0.12238 0.76110 0.23484
 C533 C 0.08669 0.76811 0.19224
 C534 C 0.07242 0.76543 0.18074
 C535 C 0.05539 0.76204 0.16714
 N536 N 0.03892 0.77489 0.16742
 N537 N 0.02295 0.77147 0.15506
 C538 C 0.02294 0.75509 0.14205
 N539 N 0.03945 0.74228 0.14176
 N540 N 0.05543 0.74570 0.15410
 N541 N 0.29722 0.11671 0.21394
 C542 C 0.29416 0.10379 0.23003
 N543 N 0.27794 0.10709 0.24274
 N544 N 0.26518 0.12285 0.23949
 C545 C 0.26821 0.13583 0.22340
 N546 N 0.28446 0.13248 0.21069
 C547 C 0.30781 0.08673 0.23345
 C548 C 0.31916 0.07229 0.23629
 C549 C 0.33244 0.05493 0.23967
 N550 N 0.32433 0.03605 0.24355
 N551 N 0.33659 0.01987 0.24663
 C552 C 0.35733 0.02205 0.24594
 N553 N 0.36545 0.04094 0.24208
 N554 N 0.35318 0.05714 0.23899
 N555 N 0.77814 0.60721 0.74257
 C556 C 0.79432 0.60391 0.72981
 N557 N 0.79737 0.61686 0.71374
 N558 N 0.78461 0.63263 0.71052
 C559 C 0.76838 0.63596 0.72325
 N560 N 0.76538 0.62298 0.73935
 C561 C 0.80799 0.58687 0.73320
 C562 C 0.81936 0.57246 0.73605
 C563 C 0.83267 0.55513 0.73945
 N564 N 0.85341 0.55738 0.73882
 N565 N 0.86569 0.54119 0.74193
 C566 C 0.85759 0.52228 0.74574
 N567 N 0.83685 0.52007 0.74636
 N568 N 0.82458 0.53624 0.74326
 N569 N 0.79640 0.38339 0.78566
 C570 C 0.79353 0.39612 0.76941
 N571 N 0.77755 0.39260 0.75649
 N572 N 0.76484 0.37680 0.75974
 C573 C 0.76768 0.36401 0.77601
 N574 N 0.78369 0.36759 0.78891
 C575 C 0.80725 0.41308 0.76591
 C576 C 0.81880 0.42734 0.76307
 C577 C 0.83250 0.44437 0.75981
 N578 N 0.83220 0.45490 0.74182
 N579 N 0.84468 0.47094 0.73894
 C580 C 0.85788 0.47694 0.75393
 N581 N 0.85819 0.46636 0.77190
 N582 N 0.84571 0.45031 0.77479
 N583 N 0.29640 -0.11697 0.28665
 C584 C 0.29356 -0.10418 0.27042
 N585 N 0.27761 -0.10768 0.25748
 N586 N 0.26489 -0.12348 0.26064
 C587 C 0.26768 -0.13635 0.27688
 N588 N 0.28368 -0.13277 0.28982
 C589 C 0.30731 -0.08721 0.26697
 C590 C 0.31885 -0.07294 0.26408
 C591 C 0.33248 -0.05588 0.26061
 N592 N 0.33199 -0.04548 0.24255
 N593 N 0.34440 -0.02943 0.23943
 C594 C 0.35772 -0.02329 0.25426
 N595 N 0.35824 -0.03373 0.27231
 N596 N 0.34582 -0.04979 0.27542
 N597 N 0.20289 -0.11709 0.71379
 C598 C 0.20579 -0.10406 0.72983
 N599 N 0.22194 -0.10724 0.74263
 N600 N 0.23478 -0.12298 0.73947
 C601 C 0.23191 -0.13608 0.72341
 N602 N 0.21572 -0.13282 0.71063
 C603 C 0.19196 -0.08711 0.73316
 C604 C 0.18034 -0.07284 0.73587
 C605 C 0.16665 -0.05571 0.73898
 N606 N 0.15329 -0.05557 0.75501
 N607 N 0.14084 -0.03949 0.75803
 C608 C 0.14134 -0.02308 0.74511
 N609 N 0.15468 -0.02327 0.72906
 N610 N 0.16713 -0.03934 0.72603
 N611 N 0.70333 0.38334 0.21411
 C612 C 0.70622 0.39637 0.23016
 N613 N 0.72236 0.39321 0.24296
 N614 N 0.73523 0.37750 0.23980
 C615 C 0.73238 0.36443 0.22372
 N616 N 0.71620 0.36764 0.21094
 C617 C 0.69233 0.41325 0.23359
 C618 C 0.68067 0.42744 0.23645
 C619 C 0.66691 0.44443 0.23987
 N620 N 0.66725 0.45486 0.25794
 N621 N 0.65477 0.47089 0.26099
 C622 C 0.64153 0.47698 0.24609
 N623 N 0.64113 0.46650 0.22804
 N624 N 0.65362 0.45046 0.22498
 N625 N 0.72177 0.60696 0.25736
 C626 C 0.70556 0.60377 0.27011
 N627 N 0.70257 0.61678 0.28617
 N628 N 0.71537 0.63252 0.28937
 C629 C 0.73160 0.63577 0.27662
 N630 N 0.73458 0.62270 0.26056
 C631 C 0.69184 0.58675 0.26674
 C632 C 0.68042 0.57236 0.26393
 C633 C 0.66705 0.55505 0.26058
 N634 N 0.64631 0.55738 0.26118
 N635 N 0.63397 0.54124 0.25810
 C636 C 0.64200 0.52227 0.25434
 N637 N 0.66273 0.51997 0.25373
 N638 N 0.67507 0.53609 0.25681
 N639 N 0.20254 0.11667 0.78587
 C640 C 0.20549 0.10365 0.76980
 N641 N 0.22171 0.10679 0.75706
 N642 N 0.23458 0.12248 0.76026
 C643 C 0.23166 0.13554 0.77634
 N644 N 0.21541 0.13235 0.78908
 C645 C 0.19172 0.08664 0.76645
 C646 C 0.18029 0.07225 0.76366
 C647 C 0.16692 0.05492 0.76033
 N648 N 0.17494 0.03592 0.75680
 N649 N 0.16261 0.01979 0.75373
 C650 C 0.14188 0.02213 0.75408
 N651 N 0.13384 0.04114 0.75762
 N652 N 0.14618 0.05729 0.76070
 N653 N 0.21352 0.29803 0.11592
 C654 C 0.22961 0.29510 0.10297
 N655 N 0.24245 0.27892 0.10614
 N656 N 0.23930 0.26606 0.12180
 C657 C 0.22320 0.26895 0.13480
 N658 N 0.21036 0.28517 0.13158
 C659 C 0.23303 0.30895 0.08611
 C660 C 0.23595 0.32052 0.07191
 C661 C 0.23948 0.33418 0.05491
 N662 N 0.25749 0.33346 0.04440
 N663 N 0.26066 0.34592 0.02843
 C664 C 0.24594 0.35949 0.02248
 N665 N 0.22794 0.36023 0.03304
 N666 N 0.22476 0.34778 0.04901
 N667 N 0.71365 0.79845 0.61639
 C668 C 0.72976 0.79557 0.60345
 N669 N 0.74257 0.77935 0.60654
 N670 N 0.73940 0.76643 0.62214
 C671 C 0.72330 0.76930 0.63515
 N672 N 0.71047 0.78553 0.63199
 C673 C 0.73318 0.80948 0.58665
 C674 C 0.73608 0.82109 0.57248
 C675 C 0.73956 0.83474 0.55549
 N676 N 0.75763 0.83417 0.54508
 N677 N 0.76073 0.84652 0.52902
 C678 C 0.74586 0.85985 0.52289
 N679 N 0.72780 0.86046 0.53335
 N680 N 0.72470 0.84810 0.54941
 N681 N 0.78620 0.79859 0.38342
 C682 C 0.77011 0.79570 0.39637
 N683 N 0.75731 0.77948 0.39325
 N684 N 0.76049 0.76655 0.37763
 C685 C 0.77658 0.76941 0.36462
 N686 N 0.78938 0.78566 0.36779
 C687 C 0.76677 0.80950 0.41331
 C688 C 0.76394 0.82093 0.42766
 C689 C 0.76053 0.83427 0.44495
 N690 N 0.75676 0.82615 0.46377
 N691 N 0.75363 0.83846 0.47988
 C692 C 0.75417 0.85927 0.47769
 N693 N 0.75792 0.86740 0.45885
 N694 N 0.76106 0.85509 0.44272
 N695 N 0.28617 0.29811 -0.11645
 C696 C 0.27008 0.29517 -0.10351
 N697 N 0.25724 0.27900 -0.10674
 N698 N 0.26038 0.26618 -0.12246
 C699 C 0.27648 0.26908 -0.13546
 N700 N 0.28932 0.28529 -0.13217
 C701 C 0.26677 0.30893 -0.08652
 C702 C 0.26404 0.32045 -0.07220
 C703 C 0.26085 0.33406 -0.05507
 N704 N 0.24497 0.34765 -0.05504
 N705 N 0.24191 0.36012 -0.03902
 C706 C 0.25465 0.35940 -0.02254
 N707 N 0.27055 0.34583 -0.02260
 N708 N 0.27361 0.33336 -0.03861
 N709 N 0.71383 0.20183 -0.11625
 C710 C 0.72995 0.20489 -0.10340
 N711 N 0.74267 0.22113 -0.10668
 N712 N 0.73940 0.23392 -0.12236
 C713 C 0.72327 0.23091 -0.13527
 N714 N 0.71055 0.21462 -0.13193
 C715 C 0.73338 0.19119 -0.08642
 C716 C 0.73617 0.17976 -0.07209
 C717 C 0.73938 0.16627 -0.05492
 N718 N 0.75511 0.15250 -0.05500
 N719 N 0.75817 0.14013 -0.03894
 C720 C 0.74557 0.14113 -0.02233
 N721 N 0.72983 0.15488 -0.02229
 N722 N 0.72678 0.16725 -0.03833
 N723 N 0.21369 0.70210 0.38382
 C724 C 0.22977 0.70503 0.39675
 N725 N 0.24257 0.72124 0.39359
 N726 N 0.23940 0.73413 0.37797
 C727 C 0.22332 0.73124 0.36499
 N728 N 0.21052 0.71499 0.36819
 C729 C 0.23313 0.69121 0.41363
 C730 C 0.23591 0.67968 0.42789
 C731 C 0.23914 0.66612 0.44500
 N732 N 0.25509 0.65260 0.44499
 N733 N 0.25820 0.64021 0.46103
 C734 C 0.24547 0.64096 0.47754
 N735 N 0.22951 0.65445 0.47751
 N736 N 0.22639 0.66684 0.46149
 N737 N 0.25706 0.72121 0.60666
 C738 C 0.26992 0.70503 0.60346
 N739 N 0.28597 0.70210 0.61642
 N740 N 0.28906 0.71496 0.63211
 C741 C 0.27622 0.73119 0.63536
 N742 N 0.26016 0.73407 0.62235
 C743 C 0.26663 0.69123 0.58652
 C744 C 0.26382 0.67970 0.57224
 C745 C 0.26040 0.66611 0.55515
 N746 N 0.27506 0.65237 0.54934
 N747 N 0.27195 0.63997 0.53329
 C748 C 0.25410 0.64092 0.52256
 N749 N 0.23943 0.65462 0.52842
 N750 N 0.24253 0.66702 0.54447
 N751 N 0.75827 0.22127 0.10677
 C752 C 0.77106 0.20506 0.10351
 N753 N 0.78714 0.20205 0.11642
 N754 N 0.79031 0.21487 0.13213
 C755 C 0.77751 0.23112 0.13544
 N756 N 0.76144 0.23409 0.12248
 C757 C 0.76762 0.19127 0.08659
 C758 C 0.76465 0.17977 0.07233
 C759 C 0.76104 0.16622 0.05525
 N760 N 0.77569 0.15260 0.04918
 N761 N 0.77242 0.14022 0.03314
 C762 C 0.75440 0.14110 0.02269
 N763 N 0.73974 0.15470 0.02880
 N764 N 0.74301 0.16707 0.04484
 N765 N 0.49286 0.35597 0.52853
 C766 C 0.48006 0.35279 0.54468
 N767 N 0.46391 0.36574 0.54757
 N768 N 0.46068 0.38141 0.53472
 C769 C 0.47349 0.38464 0.51854
 N770 N 0.48963 0.37163 0.51568
 C771 C 0.48356 0.33591 0.55853
 C772 C 0.48649 0.32171 0.57013
 C773 C 0.48987 0.30474 0.58389
 N774 N 0.47501 0.29899 0.59736
 N775 N 0.47802 0.28307 0.60995
 C776 C 0.49598 0.27241 0.60952
 N777 N 0.51085 0.27819 0.59605
 N778 N 0.50785 0.29411 0.58345
 N779 N -0.00782 0.85615 0.02858
 C780 C -0.02071 0.85310 0.04469
 N781 N -0.03675 0.86619 0.04752
 N782 N -0.03979 0.88188 0.03465
 C783 C -0.02690 0.88499 0.01851
 N784 N -0.01086 0.87183 0.01571
 C785 C -0.01738 0.83621 0.05854
 C786 C -0.01446 0.82197 0.07009
 C787 C -0.01085 0.80494 0.08370
 N788 N -0.02543 0.79907 0.09742
 N789 N -0.02213 0.78310 0.10988
 C790 C -0.00413 0.77252 0.10900
 N791 N 0.01045 0.77841 0.09529
 N792 N 0.00715 0.79438 0.08284
 N793 N 0.00700 0.64351 0.02818
 C794 C 0.01981 0.64663 0.04430
 N795 N 0.03585 0.63357 0.04719
 N796 N 0.03899 0.61785 0.03434
 C797 C 0.02619 0.61469 0.01817
 N798 N 0.01014 0.62779 0.01532
 C799 C 0.01641 0.66356 0.05812
 C800 C 0.01354 0.67781 0.06969
 C801 C 0.01022 0.69484 0.08341
 N802 N 0.02513 0.70065 0.09676
 N803 N 0.02219 0.71666 0.10928
 C804 C 0.00426 0.72736 0.10888
 N805 N -0.01066 0.72152 0.09553
 N806 N -0.00773 0.70550 0.08299
 N807 N 0.53622 0.13393 0.54715
 C808 C 0.51991 0.14673 0.54460
 N809 N 0.50690 0.14346 0.52866
 N810 N 0.51009 0.12786 0.51568
 C811 C 0.52641 0.11501 0.51819
 N812 N 0.53942 0.11832 0.53417
 C813 C 0.51647 0.16358 0.55854
 C814 C 0.51357 0.17778 0.57018
 C815 C 0.51019 0.19477 0.58396
 N816 N 0.49223 0.20542 0.58351
 N817 N 0.48923 0.22140 0.59609
 C818 C 0.50408 0.22721 0.60953
 N819 N 0.52202 0.21652 0.60998
 N820 N 0.52503 0.20055 0.59741
 N821 N -0.03764 0.13416 0.45289
 C822 C -0.02148 0.14713 0.45545
 N823 N -0.00827 0.14388 0.47122
 N824 N -0.01115 0.12815 0.48407
 C825 C -0.02733 0.11514 0.48157
 N826 N -0.04052 0.11842 0.46574
 C827 C -0.01837 0.16410 0.44165
 C828 C -0.01564 0.17837 0.43011
 C829 C -0.01222 0.19537 0.41643
 N830 N -0.02455 0.21225 0.41713
 N831 N -0.02116 0.22815 0.40461
 C832 C -0.00535 0.22767 0.39100
 N833 N 0.00696 0.21078 0.39032
 N834 N 0.00358 0.19487 0.40283
 N835 N 0.46344 0.63390 0.95260
 C836 C 0.47972 0.64674 0.95512
 N837 N 0.49281 0.64350 0.97099
 N838 N 0.48974 0.62788 0.98394
 C839 C 0.47345 0.61499 0.98146
 N840 N 0.46036 0.61828 0.96555
 C841 C 0.48296 0.66366 0.94127
 C842 C 0.48567 0.67795 0.92973
 C843 C 0.48885 0.69510 0.91615
 N844 N 0.50443 0.69482 0.90226
 N845 N 0.50751 0.71086 0.88983
 C846 C 0.49510 0.72767 0.89090
 N847 N 0.47952 0.72793 0.90478
 N848 N 0.47643 0.71189 0.91720
 N849 N 0.50758 0.85639 0.97156
 C850 C 0.52054 0.85331 0.95550
 N851 N 0.53657 0.86641 0.95274
 N852 N 0.53953 0.88212 0.96563
 C853 C 0.52657 0.88526 0.98172
 N854 N 0.51054 0.87210 0.98445
 C855 C 0.51734 0.83637 0.94163
 C856 C 0.51460 0.82211 0.93002
 C857 C 0.51126 0.80508 0.91631
 N858 N 0.52384 0.78838 0.91679
 N859 N 0.52054 0.77242 0.90430
 C860 C 0.50456 0.77265 0.89092
 N861 N 0.49199 0.78936 0.89042
 N862 N 0.49529 0.80533 0.90291
 N863 N 0.00721 0.35658 0.47112
 C864 C 0.02030 0.35333 0.45521
 N865 N 0.03658 0.36617 0.45266
 N866 N 0.03965 0.38180 0.46563
 C867 C 0.02656 0.38510 0.48158
 N868 N 0.01029 0.37221 0.48409
 C869 C 0.01703 0.33644 0.44132
 C870 C 0.01427 0.32217 0.42974
 C871 C 0.01095 0.30508 0.41610
 N872 N 0.02355 0.28840 0.41671
 N873 N 0.02030 0.27238 0.40427
 C874 C 0.00436 0.27254 0.39084
 N875 N -0.00823 0.28923 0.39023
 N876 N -0.00498 0.30526 0.40267
 N877 N 0.35685 0.52743 0.49283
 C878 C 0.35364 0.54365 0.48008
 N879 N 0.36658 0.54663 0.46400
 N880 N 0.38228 0.53379 0.46079
 C881 C 0.38556 0.51755 0.47355
 N882 N 0.37256 0.51460 0.48963
 C883 C 0.33665 0.55740 0.48345
 C884 C 0.32229 0.56884 0.48625
 C885 C 0.30502 0.58224 0.48956
 N886 N 0.30732 0.60305 0.48896
 N887 N 0.29120 0.61542 0.49201
 C888 C 0.27230 0.60735 0.49573
 N889 N 0.27004 0.58655 0.49633
 N890 N 0.28614 0.57418 0.49329
 N891 N 0.85707 0.02791 -0.00712
 C892 C 0.85383 0.04411 -0.01988
 N893 N 0.86674 0.04710 -0.03597
 N894 N 0.88245 0.03427 -0.03919
 C895 C 0.88575 0.01803 -0.02644
 N896 N 0.87278 0.01508 -0.01034
 C897 C 0.83682 0.05782 -0.01651
 C898 C 0.82243 0.06922 -0.01373
 C899 C 0.80513 0.08256 -0.01042
 N900 N 0.80743 0.10337 -0.01081
 N901 N 0.79129 0.11571 -0.00774
 C902 C 0.77237 0.10759 -0.00421
 N903 N 0.77011 0.08678 -0.00385
 N904 N 0.78624 0.07446 -0.00691
 N905 N 0.64326 0.02758 0.00759
 C906 C 0.64655 0.04377 0.02039
 N907 N 0.63363 0.04681 0.03648
 N908 N 0.61787 0.03406 0.03966
 C909 C 0.61451 0.01784 0.02686
 N910 N 0.62750 0.01482 0.01077
 C911 C 0.66352 0.05751 0.01702
 C912 C 0.67780 0.06906 0.01428
 C913 C 0.69486 0.08273 0.01111
 N914 N 0.71111 0.08245 0.02415
 N915 N 0.72711 0.09491 0.02106
 C916 C 0.72735 0.10806 0.00486
 N917 N 0.71106 0.10839 -0.00814
 N918 N 0.69505 0.09592 -0.00506
 N919 N 0.13330 0.54693 0.53594
 C920 C 0.14636 0.54372 0.51999
 N921 N 0.14330 0.52728 0.50745
 N922 N 0.12763 0.51443 0.51075
 C923 C 0.11452 0.51761 0.52670
 N924 N 0.11764 0.53409 0.53923
 C925 C 0.16324 0.55753 0.51650
 C926 C 0.17747 0.56909 0.51361
 C927 C 0.19449 0.58274 0.51020
 N928 N 0.20476 0.58242 0.49206
 N929 N 0.22083 0.59480 0.48902
 C930 C 0.22712 0.60790 0.50402
 N931 N 0.21680 0.60827 0.52215
 N932 N 0.20073 0.59588 0.52519
 N933 N 0.13208 0.45188 -0.03626
 C934 C 0.14491 0.45466 -0.02010
 N935 N 0.14183 0.47092 -0.00731
 N936 N 0.12634 0.48399 -0.01057
 C937 C 0.11346 0.48125 -0.02674
 N938 N 0.11660 0.46495 -0.03952
 C939 C 0.16176 0.44079 -0.01678
 C940 C 0.17616 0.42943 -0.01400
 C941 C 0.19372 0.41648 -0.01067
 N942 N 0.21235 0.42511 -0.00712
 N943 N 0.22878 0.41326 -0.00406
 C944 C 0.22718 0.39240 -0.00445
 N945 N 0.20851 0.38374 -0.00802
 N946 N 0.19202 0.39560 -0.01109
 N947 N 0.63185 0.95191 0.46375
 C948 C 0.64487 0.95481 0.47974
 N949 N 0.64211 0.97131 0.49228
 N950 N 0.62673 0.98450 0.48897
 C951 C 0.61365 0.98163 0.47297
 N952 N 0.61648 0.96510 0.46044
 C953 C 0.66165 0.94085 0.48307
 C954 C 0.67602 0.92944 0.48584
 C955 C 0.69357 0.91648 0.48919
 N956 N 0.71219 0.92511 0.49276
 N957 N 0.72861 0.91326 0.49588
 C958 C 0.72699 0.89240 0.49554
 N959 N 0.70833 0.88374 0.49193
 N960 N 0.69186 0.89560 0.48880
 N961 N 0.85774 0.97141 0.50726
 C962 C 0.85497 0.95488 0.51972
 N963 N 0.86797 0.95195 0.53572
 N964 N 0.88332 0.96513 0.53913
 C965 C 0.88615 0.98169 0.52667
 N966 N 0.87310 0.98459 0.51066
 C967 C 0.83821 0.94094 0.51629
 C968 C 0.82385 0.92954 0.51346
 C969 C 0.80632 0.91657 0.51011
 N970 N 0.80804 0.89569 0.51062
 N971 N 0.79155 0.88381 0.50765
 C972 C 0.77287 0.89245 0.50409
 N973 N 0.77125 0.91331 0.50358
 N974 N 0.78768 0.92518 0.50654
 N975 N 0.35791 0.47151 0.00753
 C976 C 0.35513 0.45500 0.02003
 N977 N 0.36818 0.45206 0.03598
 N978 N 0.38359 0.46520 0.03931
 C979 C 0.38643 0.48174 0.02681
 N980 N 0.37332 0.48465 0.01085
 C981 C 0.33833 0.44107 0.01666
 C982 C 0.32396 0.42966 0.01386
 C983 C 0.30643 0.41666 0.01051
 N984 N 0.30820 0.39579 0.01092
 N985 N 0.29175 0.38387 0.00784
 C986 C 0.27305 0.39247 0.00427
 N987 N 0.27138 0.41333 0.00388
 N988 N 0.28777 0.42523 0.00695
 N989 N 0.53023 0.49253 0.35799
 C990 C 0.54650 0.47974 0.35510
 N991 N 0.54918 0.46355 0.36801
 N992 N 0.53602 0.46030 0.38338
 C993 C 0.51972 0.47310 0.38634
 N994 N 0.51707 0.48928 0.37337
 C995 C 0.56044 0.48307 0.33834
 C996 C 0.57183 0.48590 0.32398
 C997 C 0.58478 0.48933 0.30645
 N998 N 0.60558 0.48893 0.30816
 N999 N 0.61743 0.49206 0.29170
 C1000 C 0.60884 0.49568 0.27306
 N1001 N 0.58805 0.49609 0.27145
 N1002 N 0.57621 0.49297 0.28785
 N1003 N 0.03016 -0.00737 0.85779
 C1004 C 0.04640 -0.02020 0.85488
 N1005 N 0.04905 -0.03639 0.86777
 N1006 N 0.03590 -0.03963 0.88316
 C1007 C 0.01963 -0.02679 0.88613
 N1008 N 0.01700 -0.01060 0.87317
 C1009 C 0.06034 -0.01689 0.83810
 C1010 C 0.07173 -0.01410 0.82374
 C1011 C 0.08467 -0.01073 0.80619
 N1012 N 0.10548 -0.01110 0.80790
 N1013 N 0.11733 -0.00802 0.79143
 C1014 C 0.10873 -0.00448 0.77277
 N1015 N 0.08794 -0.00411 0.77116
 N1016 N 0.07610 -0.00718 0.78758
 N1017 N 0.04908 0.03661 0.63211
 C1018 C 0.04641 0.02044 0.64504
 N1019 N 0.03020 0.00759 0.64215
 N1020 N 0.01709 0.01078 0.62676
 C1021 C 0.01974 0.02695 0.61376
 N1022 N 0.03598 0.03980 0.61671
 C1023 C 0.06033 0.01716 0.66181
 C1024 C 0.07170 0.01437 0.67616
 C1025 C 0.08465 0.01096 0.69366
 N1026 N 0.07608 0.00736 0.71229
 N1027 N 0.08792 0.00411 0.72864
 C1028 C 0.10871 0.00434 0.72694
 N1029 N 0.11731 0.00795 0.70827
 N1030 N 0.10545 0.01121 0.69187
 N1031 N 0.53066 0.50748 0.14217
 C1032 C 0.54688 0.52032 0.14505
 N1033 N 0.54956 0.53648 0.13210
 N1034 N 0.53646 0.53966 0.11669
 C1035 C 0.52022 0.52681 0.11375
 N1036 N 0.51756 0.51066 0.12676
 C1037 C 0.56077 0.51708 0.16185
 C1038 C 0.57210 0.51431 0.17624
 C1039 C 0.58499 0.51093 0.19379
 N1040 N 0.60580 0.51128 0.19210
 N1041 N 0.61759 0.50807 0.20855
 C1042 C 0.60893 0.50440 0.22718
 N1043 N 0.58814 0.50408 0.22878
 N1044 N 0.57636 0.50729 0.21239
 N1045 N 0.47143 -0.00736 0.14388
 C1046 C 0.45523 -0.02016 0.14704
 N1047 N 0.45224 -0.03626 0.13405
 N1048 N 0.46506 -0.03946 0.11837
 C1049 C 0.48130 -0.02667 0.11516
 N1050 N 0.48425 -0.01056 0.12820
 C1051 C 0.44142 -0.01672 0.16393
 C1052 C 0.42985 -0.01387 0.17815
 C1053 C 0.41617 -0.01051 0.19515
 N1054 N 0.40272 -0.02542 0.20097
 N1055 N 0.39024 -0.02242 0.21695
 C1056 C 0.39079 -0.00441 0.22760
 N1057 N 0.40422 0.01049 0.22177
 N1058 N 0.41671 0.00750 0.20578
 N1059 N 0.97132 0.49276 0.64352
 C1060 C 0.95514 0.47996 0.64674
 N1061 N 0.95210 0.46387 0.63375
 N1062 N 0.96485 0.46068 0.61801
 C1063 C 0.98106 0.47348 0.61474
 N1064 N 0.98407 0.48958 0.62778
 C1065 C 0.94141 0.48339 0.66368
 C1066 C 0.92991 0.48626 0.67794
 C1067 C 0.91629 0.48964 0.69498
 N1068 N 0.90304 0.47465 0.70101
 N1069 N 0.89059 0.47769 0.71702
 C1070 C 0.89101 0.49580 0.72748
 N1071 N 0.90424 0.51080 0.72142
 N1072 N 0.91668 0.50777 0.70541
 N1073 N 0.95246 0.53698 0.86579
 C1074 C 0.95547 0.52095 0.85271
 N1075 N 0.97154 0.50799 0.85589
 N1076 N 0.98423 0.51098 0.87168
 C1077 C 0.98125 0.52703 0.88481
 N1078 N 0.96515 0.53997 0.88157
 C1079 C 0.94179 0.51771 0.83575
 C1080 C 0.93028 0.51495 0.82151
 C1081 C 0.91660 0.51154 0.80458
 N1082 N 0.90342 0.49533 0.80475
 N1083 N 0.89090 0.49199 0.78891
 C1084 C 0.89113 0.50475 0.77241
 N1085 N 0.90430 0.52099 0.77227
 N1086 N 0.91684 0.52434 0.78811
 N1087 N 0.47113 0.00744 0.35633
 C1088 C 0.45496 0.02027 0.35312
 N1089 N 0.45192 0.03637 0.36611
 N1090 N 0.46464 0.03954 0.38183
 C1091 C 0.48084 0.02672 0.38510
 N1092 N 0.48386 0.01061 0.37205
 C1093 C 0.44124 0.01683 0.33620
 C1094 C 0.42974 0.01390 0.32197
 C1095 C 0.41614 0.01037 0.30497
 N1096 N 0.40225 0.02494 0.29937
 N1097 N 0.38978 0.02172 0.28345
 C1098 C 0.39080 0.00383 0.27265
 N1099 N 0.40468 -0.01074 0.27827
 N1100 N 0.41714 -0.00753 0.29419
   
