data_POSCAR
  _audit_creation_date              2014-09-24
  _audit_creation_method            'ToBaCCo'
  _symmetry_space_group_name_H-M    'P1'
  _symmetry_Int_Tables_number       1
  _symmetry_cell_setting            triclinic
  loop_
  _symmetry_equiv_pos_as_xyz
 x,y,z
_cell_length_a 30.0960
_cell_length_b 30.2686
_cell_length_c 30.4177
_cell_angle_alpha 98.455700
_cell_angle_beta 79.685900
_cell_angle_gamma 106.112600
loop_
  _atom_site_label
  _atom_site_type_symbol
  _atom_site_fract_x
  _atom_site_fract_y
  _atom_site_fract_z
O1 O 0.56262 0.53171 0.04523
 O2 O 0.43945 0.50777 0.02951
 O3 O 0.49422 0.45974 0.04460
 O4 O 0.50951 0.58209 0.03176
 O5 O 0.52890 0.56809 -0.04155
 O6 O 0.51224 0.44527 -0.02880
 O7 O 0.45995 0.49665 -0.04372
 O8 O 0.58273 0.51860 -0.02806
 Cu9 Cu 0.49924 0.52188 0.04512
 Cu10 Cu 0.52298 0.50556 -0.04289
 C11 C 0.59343 0.52816 0.01138
 C12 C 0.42871 0.49925 -0.01002
 C13 C 0.50162 0.43190 0.01032
 C14 C 0.52123 0.59574 -0.00717
 O15 O -0.05012 0.53432 0.50622
 O16 O -0.03459 0.41704 0.49752
 O17 O -0.03815 0.48158 0.56322
 O18 O -0.04423 0.46964 0.44174
 O19 O 0.03184 0.50029 0.42849
 O20 O 0.03841 0.50825 0.54872
 O21 O 0.04173 0.44471 0.48156
 O22 O 0.02626 0.56324 0.49603
 Cu23 Cu -0.04948 0.47304 0.50383
 Cu24 Cu 0.04219 0.50702 0.48747
 C25 C -0.01481 0.56893 0.50208
 C26 C 0.00610 0.41063 0.48757
 C27 C 0.00160 0.49594 0.57654
 C28 C -0.00726 0.48344 0.41441
 O29 O 0.50021 0.03565 0.57527
 O30 O 0.51783 0.04108 0.45321
 O31 O 0.45015 0.04676 0.51757
 O32 O 0.56708 0.02772 0.51071
 O33 O 0.53707 -0.04741 0.49778
 O34 O 0.41939 -0.02874 0.51021
 O35 O 0.48471 -0.03367 0.44282
 O36 O 0.47125 -0.03978 0.56489
 Cu37 Cu 0.51193 0.04531 0.51515
 Cu38 Cu 0.47535 -0.04501 0.50277
 C39 C 0.48327 -0.00311 0.59111
 C40 C 0.50300 0.00510 0.42724
 C41 C 0.41486 0.01222 0.51510
 C42 C 0.57200 -0.01320 0.50339
 C43 C 0.50603 -0.07324 -0.08530
 C44 C 0.49339 -0.03333 -0.09012
 C45 C 0.48886 -0.00117 -0.05249
 C46 C 0.49843 -0.00769 -0.01032
 C47 C 0.50899 -0.04954 -0.00630
 C48 C 0.51107 -0.08325 -0.04322
 C49 C 0.49668 0.02878 0.02900
 C50 C 0.49151 0.01848 0.07383
 C51 C 0.49149 0.05319 0.11002
 C52 C 0.49222 0.09773 0.10170
 C53 C 0.49762 0.10929 0.05773
 C54 C 0.50156 0.07505 0.02179
 H55 H 0.51150 -0.09705 -0.11475
 H56 H 0.47682 0.02829 -0.05642
 H57 H 0.51505 -0.05664 0.02545
 H58 H 0.48845 -0.01607 0.08123
 H59 H 0.48860 0.12346 0.12991
 H60 H 0.50965 0.08523 -0.01189
 C61 C -0.07542 0.51452 1.09024
 C62 C -0.08495 0.51863 1.04780
 C63 C -0.05120 0.51408 1.01006
 C64 C -0.00997 0.50204 1.01396
 C65 C -0.00390 0.49402 1.05687
 C66 C -0.03600 0.50085 1.09500
 C67 C 0.02594 0.49616 0.97373
 C68 C 0.07242 0.49966 0.97936
 C69 C 0.10568 0.48987 0.94310
 C70 C 0.09284 0.48045 0.89984
 C71 C 0.04883 0.48250 0.89247
 C72 C 0.01484 0.48784 0.92955
 H73 H -0.09926 0.52129 1.12004
 H74 H -0.05788 0.51912 0.97778
 H75 H 0.02503 0.48113 1.06102
 H76 H 0.08322 0.51112 1.01201
 H77 H 0.11714 0.47204 0.87119
 H78 H -0.01966 0.48650 0.92327
 C79 C -0.10491 -0.11009 0.50085
 C80 C -0.05980 -0.11744 0.49094
 C81 C -0.02147 -0.07929 0.48124
 C82 C -0.02691 -0.03394 0.48556
 C83 C -0.07274 -0.02827 0.49487
 C84 C -0.11192 -0.06616 0.50074
 C85 C 0.01483 0.00746 0.48276
 C86 C 0.01065 0.05057 0.47408
 C87 C 0.04700 0.09094 0.47866
 C88 C 0.08960 0.08754 0.48853
 C89 C 0.09656 0.04462 0.49333
 C90 C 0.05859 0.00509 0.49162
 H91 H -0.13501 -0.13826 0.50944
 H92 H 0.01268 -0.08515 0.46998
 H93 H -0.07851 0.00566 0.49753
 H94 H -0.02094 0.05337 0.46387
 H95 H 0.11715 0.11873 0.49361
 H96 H 0.06339 -0.02741 0.49753
 C97 C -0.26846 0.53170 1.02957
 C98 C -0.27448 0.55242 0.99341
 C99 C -0.31988 0.55196 0.98758
 C100 C -0.35853 0.53219 1.01849
 C101 C -0.35168 0.51289 1.05522
 C102 C -0.30684 0.51173 1.06046
 C103 C -0.22125 0.52980 1.03461
 C104 C -0.21584 0.50676 1.06925
 C105 C -0.17139 0.50323 1.07285
 C106 C -0.13172 0.52404 1.04329
 C107 C -0.13777 0.54788 1.00911
 C108 C -0.18264 0.55014 1.00418
 C109 C -0.29981 0.48989 1.09531
 C110 C -0.25508 0.48707 1.09939
 C111 C -0.23504 0.57248 0.96359
 C112 C -0.18986 0.57173 0.96913
 H113 H -0.32922 0.47420 1.11919
 H114 H -0.25119 0.46932 1.12635
 H115 H -0.23913 0.58878 0.93568
 H116 H -0.16043 0.58753 0.94534
 H117 H -0.32524 0.56678 0.95922
 H118 H -0.38153 0.49692 1.07857
 H119 H -0.16811 0.48323 1.09828
 H120 H -0.10787 0.56453 0.98632
 C121 C 0.29170 0.49106 0.96991
 C122 C 0.29976 0.48546 1.01256
 C123 C 0.34543 0.48821 1.01933
 C124 C 0.38256 0.49433 0.98320
 C125 C 0.37313 0.49785 0.94017
 C126 C 0.32817 0.49766 0.93371
 C127 C 0.24426 0.49063 0.96314
 C128 C 0.23687 0.49914 0.92129
 C129 C 0.19211 0.50027 0.91542
 C130 C 0.15389 0.49043 0.95024
 C131 C 0.16211 0.48087 0.99180
 C132 C 0.20734 0.48214 0.99874
 C133 C 0.31920 0.50502 0.89197
 C134 C 0.27445 0.50638 0.88604
 C135 C 0.26198 0.47755 1.04760
 C136 C 0.21645 0.47528 1.04064
 H137 H 0.34715 0.51048 0.86384
 H138 H 0.26915 0.51277 0.85348
 H139 H 0.26761 0.47286 1.08062
 H140 H 0.18828 0.46881 1.06848
 H141 H 0.35187 0.48499 1.05252
 H142 H 0.40119 0.50316 0.91206
 H143 H 0.18757 0.50929 0.88370
 H144 H 0.13353 0.47210 1.01884
 C145 C -0.03383 -0.29866 0.49918
 C146 C 0.00977 -0.30266 0.50594
 C147 C 0.01616 -0.34677 0.50672
 C148 C -0.02136 -0.38668 0.50286
 C149 C -0.06540 -0.38155 0.49780
 C150 C -0.07140 -0.33785 0.49468
 C151 C -0.04020 -0.25254 0.49645
 C152 C -0.08299 -0.24878 0.48734
 C153 C -0.08857 -0.20498 0.48382
 C154 C -0.05261 -0.16449 0.49173
 C155 C -0.01008 -0.16930 0.50166
 C156 C -0.00337 -0.21315 0.50298
 C157 C -0.11403 -0.33264 0.48635
 C158 C -0.11953 -0.28895 0.48216
 C159 C 0.04609 -0.26241 0.51166
 C160 C 0.03944 -0.21841 0.51081
 H161 H -0.14323 -0.36266 0.48250
 H162 H -0.15284 -0.28655 0.47529
 H163 H 0.07985 -0.26492 0.51718
 H164 H 0.06825 -0.18828 0.51579
 H165 H 0.05013 -0.34986 0.51102
 H166 H -0.09458 -0.41170 0.49424
 H167 H -0.12104 -0.20284 0.47482
 H168 H 0.01778 -0.13912 0.50910
 C169 C 0.02215 0.27310 0.47828
 C170 C -0.02075 0.28221 0.49776
 C171 C -0.02587 0.32715 0.50005
 C172 C 0.01174 0.36308 0.48362
 C173 C 0.05456 0.35330 0.46410
 C174 C 0.05987 0.30826 0.46117
 C175 C 0.02788 0.22598 0.47642
 C176 C 0.07083 0.21684 0.45718
 C177 C 0.07645 0.17223 0.45650
 C178 C 0.03975 0.13707 0.47567
 C179 C -0.00329 0.14690 0.49434
 C180 C -0.00944 0.19119 0.49467
 C181 C 0.10220 0.29768 0.44179
 C182 C 0.10754 0.25273 0.43971
 C183 C -0.05753 0.24632 0.51506
 C184 C -0.05192 0.20161 0.51368
 H185 H 0.13154 0.32442 0.42833
 H186 H 0.14087 0.24613 0.42474
 H187 H -0.09080 0.25295 0.53018
 H188 H -0.08101 0.17505 0.52781
 H189 H -0.05890 0.33428 0.51534
 H190 H 0.08363 0.38064 0.45119
 H191 H 0.10949 0.16503 0.44144
 H192 H -0.03156 0.12054 0.50990
 C193 C 0.47622 -0.01238 -0.27080
 C194 C 0.49604 0.03054 -0.28780
 C195 C 0.49676 0.03390 -0.33347
 C196 C 0.47890 -0.00564 -0.36245
 C197 C 0.45829 -0.04824 -0.34431
 C198 C 0.45678 -0.05173 -0.29861
 C199 C 0.47723 -0.01658 -0.22331
 C200 C 0.45821 -0.05976 -0.20666
 C201 C 0.46142 -0.06421 -0.16228
 C202 C 0.48465 -0.02623 -0.13482
 C203 C 0.50218 0.01727 -0.15155
 C204 C 0.49862 0.02225 -0.19590
 C205 C 0.43715 -0.09412 -0.28040
 C206 C 0.43770 -0.09803 -0.23514
 C207 C 0.51590 0.06896 -0.25903
 C208 C 0.51733 0.06485 -0.21392
 H209 H 0.42180 -0.12468 -0.30147
 H210 H 0.42281 -0.13151 -0.22259
 H211 H 0.53127 0.10233 -0.27171
 H212 H 0.53378 0.09513 -0.19316
 H213 H 0.51270 0.06701 -0.34659
 H214 H 0.44398 -0.07896 -0.36576
 H215 H 0.44689 -0.09761 -0.14943
 H216 H 0.52029 0.04663 -0.13079
 C217 C 0.50285 0.02155 0.28981
 C218 C 0.53145 0.05623 0.31592
 C219 C 0.53255 0.04986 0.36038
 C220 C 0.50536 0.00913 0.37887
 C221 C 0.47781 -0.02591 0.35179
 C222 C 0.47614 -0.01968 0.30728
 C223 C 0.50009 0.02901 0.24361
 C224 C 0.47072 -0.00513 0.21769
 C225 C 0.46762 0.00264 0.17400
 C226 C 0.49375 0.04424 0.15633
 C227 C 0.52342 0.07772 0.18284
 C228 C 0.52651 0.07045 0.22646
 C229 C 0.44754 -0.05331 0.28019
 C230 C 0.44483 -0.04615 0.23620
 C231 C 0.55770 0.09704 0.29736
 C232 C 0.55536 0.10398 0.25333
 H233 H 0.42672 -0.08528 0.29323
 H234 H 0.42209 -0.07284 0.21662
 H235 H 0.57997 0.12401 0.31714
 H236 H 0.57599 0.13606 0.24037
 H237 H 0.55393 0.07699 0.38082
 H238 H 0.45647 -0.05722 0.36577
 H239 H 0.44448 -0.02326 0.15410
 H240 H 0.54452 0.10938 0.16934
 C241 C 0.52169 -0.26680 -0.02366
 C242 C 0.50031 -0.30405 -0.05269
 C243 C 0.50200 -0.34872 -0.04782
 C244 C 0.52326 -0.35650 -0.01320
 C245 C 0.54408 -0.31908 0.01613
 C246 C 0.54410 -0.27382 0.01049
 C247 C 0.51992 -0.21969 -0.02874
 C248 C 0.54210 -0.18214 -0.00052
 C249 C 0.54041 -0.13728 -0.00581
 C250 C 0.51534 -0.13016 -0.03808
 C251 C 0.49248 -0.16880 -0.06521
 C252 C 0.49548 -0.21324 -0.06139
 C253 C 0.56572 -0.23546 0.03831
 C254 C 0.56512 -0.19036 0.03263
 C255 C 0.47690 -0.29604 -0.08551
 C256 C 0.47412 -0.25141 -0.08949
 H257 H 0.58333 -0.24032 0.06464
 H258 H 0.58231 -0.16176 0.05472
 H259 H 0.46009 -0.32458 -0.10791
 H260 H 0.45527 -0.24671 -0.11491
 H261 H 0.48535 -0.37772 -0.06993
 H262 H 0.56046 -0.32524 0.04281
 H263 H 0.55863 -0.10821 0.01510
 H264 H 0.47151 -0.16465 -0.08903
 C265 C 0.50036 0.29451 0.02909
 C266 C 0.51812 0.33156 0.06011
 C267 C 0.51724 0.37625 0.05408
 C268 C 0.50006 0.38420 0.01668
 C269 C 0.48311 0.34691 -0.01463
 C270 C 0.48248 0.30171 -0.00814
 C271 C 0.50050 0.24728 0.03578
 C272 C 0.48145 0.20998 0.00565
 C273 C 0.48056 0.16499 0.01290
 C274 C 0.49961 0.15723 0.04941
 C275 C 0.51971 0.19548 0.07851
 C276 C 0.51952 0.24036 0.07232
 C277 C 0.46427 0.26355 -0.03795
 C278 C 0.46343 0.21843 -0.03097
 C279 C 0.53670 0.32326 0.09637
 C280 C 0.53770 0.27845 0.10218
 H281 H 0.45026 0.26856 -0.06672
 H282 H 0.44872 0.18994 -0.05455
 H283 H 0.55074 0.35166 0.12035
 H284 H 0.55244 0.27353 0.13054
 H285 H 0.53101 0.40507 0.07784
 H286 H 0.46986 0.35304 -0.04343
 H287 H 0.46433 0.13608 -0.00945
 H288 H 0.53563 0.19050 0.10603
 C289 C -0.29435 -0.03705 0.50459
 C290 C -0.32792 -0.07091 0.48287
 C291 C -0.37161 -0.06292 0.48235
 C292 C -0.38145 -0.02108 0.50267
 C293 C -0.34709 0.01270 0.52384
 C294 C -0.30364 0.00471 0.52526
 C295 C -0.24848 -0.04539 0.50554
 C296 C -0.21508 -0.01173 0.52760
 C297 C -0.17125 -0.01948 0.52776
 C298 C -0.16013 -0.06005 0.50500
 C299 C -0.19451 -0.09367 0.48355
 C300 C -0.23874 -0.08662 0.48392
 C301 C -0.26938 0.03753 0.54712
 C302 C -0.22594 0.02937 0.54844
 C303 C -0.31707 -0.11202 0.46209
 C304 C -0.27317 -0.11964 0.46241
 H305 H -0.27618 0.06982 0.56336
 H306 H -0.20047 0.05566 0.56554
 H307 H -0.34262 -0.13841 0.44519
 H308 H -0.26611 -0.15163 0.44562
 H309 H -0.39779 -0.08908 0.46594
 H310 H -0.35450 0.04479 0.54000
 H311 H -0.14573 0.00630 0.54524
 H312 H -0.18641 -0.12470 0.46532
 C313 C 0.27958 0.02987 0.51204
 C314 C 0.31946 0.06060 0.49166
 C315 C 0.36383 0.05583 0.49458
 C316 C 0.36830 0.01963 0.51624
 C317 C 0.32804 -0.01095 0.53646
 C318 C 0.28349 -0.00557 0.53499
 C319 C 0.23280 0.03430 0.50844
 C320 C 0.19290 0.00401 0.52924
 C321 C 0.14847 0.00824 0.52546
 C322 C 0.14366 0.04142 0.49970
 C323 C 0.18442 0.07120 0.47881
 C324 C 0.22891 0.06825 0.48362
 C325 C 0.24277 -0.03523 0.55543
 C326 C 0.19826 -0.03026 0.55294
 C327 C 0.31413 0.09478 0.46788
 C328 C 0.26961 0.09830 0.46363
 H329 H 0.24531 -0.06257 0.57343
 H330 H 0.16777 -0.05391 0.56912
 H331 H 0.34462 0.11858 0.45188
 H332 H 0.26703 0.12476 0.44449
 H333 H 0.39479 0.07902 0.47846
 H334 H 0.33147 -0.03880 0.55324
 H335 H 0.11785 -0.01434 0.54264
 H336 H 0.18173 0.09619 0.45799
 C337 C -0.01649 0.48163 1.27534
 C338 C 0.02665 0.50145 1.29078
 C339 C 0.02983 0.50079 1.33611
 C340 C -0.00991 0.48093 1.36597
 C341 C -0.05267 0.46042 1.34962
 C342 C -0.05617 0.46075 1.30436
 C343 C -0.02053 0.48395 1.22820
 C344 C -0.06400 0.46517 1.21316
 C345 C -0.06823 0.46933 1.16899
 C346 C -0.02960 0.49268 1.14006
 C347 C 0.01412 0.51014 1.15522
 C348 C 0.01879 0.50607 1.19945
 C349 C -0.09883 0.44149 1.28777
 C350 C -0.10266 0.44362 1.24289
 C351 C 0.06547 0.52243 1.26081
 C352 C 0.06160 0.52472 1.21592
 H353 H -0.12965 0.42515 1.30980
 H354 H -0.13635 0.42891 1.23157
 H355 H 0.09899 0.53776 1.27231
 H356 H 0.09221 0.54178 1.19410
 H357 H 0.06292 0.51672 1.34829
 H358 H -0.08343 0.44493 1.37222
 H359 H -0.10181 0.45510 1.15728
 H360 H 0.04391 0.52835 1.13321
 C361 C 0.01847 0.49316 0.71281
 C362 C 0.05500 0.51892 0.68387
 C363 C 0.04850 0.52079 0.63984
 C364 C 0.00588 0.49713 0.62446
 C365 C -0.03090 0.47232 0.65424
 C366 C -0.02463 0.46998 0.69848
 C367 C 0.02582 0.48988 0.75876
 C368 C -0.01035 0.46364 0.78771
 C369 C -0.00290 0.46049 0.83138
 C370 C 0.04042 0.48343 0.84591
 C371 C 0.07605 0.50972 0.81625
 C372 C 0.06906 0.51291 0.77274
 C373 C -0.06016 0.44429 0.72847
 C374 C -0.05314 0.44116 0.77229
 C375 C 0.09765 0.54171 0.69926
 C376 C 0.10453 0.53883 0.74300
 H377 H -0.09359 0.42619 0.71790
 H378 H -0.08141 0.42085 0.79422
 H379 H 0.12605 0.56174 0.67722
 H380 H 0.13801 0.55683 0.75354
 H381 H 0.07698 0.54012 0.61732
 H382 H -0.06373 0.45374 0.64265
 H383 H -0.03050 0.44005 0.85380
 H384 H 0.10909 0.52847 0.82733
   
