data_POSCAR
  _audit_creation_date              2014-09-24
  _audit_creation_method            'ToBaCCo'
  _symmetry_space_group_name_H-M    'P1'
  _symmetry_Int_Tables_number       1
  _symmetry_cell_setting            triclinic
  loop_
  _symmetry_equiv_pos_as_xyz
 x,y,z
_cell_length_a 27.9846
_cell_length_b 28.0734
_cell_length_c 28.8332
_cell_angle_alpha 89.955600
_cell_angle_beta 90.476600
_cell_angle_gamma 90.483000
loop_
  _atom_site_label
  _atom_site_type_symbol
  _atom_site_fract_x
  _atom_site_fract_y
  _atom_site_fract_z
C1 C 0.24488 0.18424 0.25941
 C2 C 0.22296 0.15740 0.29408
 C3 C 0.17956 0.17179 0.31402
 C4 C 0.16087 0.21641 0.30058
 C5 C 0.18216 0.24311 0.26488
 C6 C 0.22321 0.22574 0.24281
 C7 C 0.28531 0.16674 0.23764
 C8 C 0.29911 0.18383 0.19385
 C9 C 0.27833 0.22664 0.17775
 C10 C 0.24085 0.24800 0.20245
 C11 C 0.21767 0.28849 0.18516
 C12 C 0.17783 0.30737 0.20814
 C13 C 0.16082 0.28479 0.24840
 H14 H 0.23709 0.12229 0.30094
 H15 H 0.12861 0.22957 0.31648
 H16 H 0.30370 0.13680 0.25322
 H17 H 0.28847 0.24153 0.14456
 H18 H 0.22922 0.30406 0.15267
 H19 H 0.12919 0.29823 0.26529
 C20 C -0.23487 0.82552 0.22377
 C21 C -0.21589 0.84146 0.26617
 C22 C -0.17423 0.82083 0.28481
 C23 C -0.15221 0.78356 0.26097
 C24 C -0.17168 0.76642 0.21949
 C25 C -0.21310 0.78745 0.20059
 C26 C -0.27352 0.84881 0.20290
 C27 C -0.29086 0.83469 0.15886
 C28 C -0.26965 0.79560 0.13675
 C29 C -0.23120 0.77193 0.15735
 C30 C -0.20829 0.73520 0.13381
 C31 C -0.16636 0.71556 0.15214
 C32 C -0.14874 0.73036 0.19528
 H33 H -0.23181 0.87177 0.28332
 H34 H -0.11982 0.76783 0.27490
 H35 H -0.28968 0.87860 0.22065
 H36 H -0.28058 0.78575 0.10186
 H37 H -0.22130 0.72365 0.10007
 H38 H -0.11594 0.71519 0.20886
 C39 C -0.24288 0.18187 -0.24931
 C40 C -0.22306 0.15818 -0.28728
 C41 C -0.17656 0.16928 -0.30182
 C42 C -0.15124 0.20679 -0.28073
 C43 C -0.17090 0.23128 -0.24333
 C44 C -0.21620 0.21765 -0.22642
 C45 C -0.28745 0.16785 -0.23202
 C46 C -0.30428 0.18525 -0.18913
 C47 C -0.27587 0.21997 -0.16583
 C48 C -0.23332 0.23756 -0.18500
 C49 C -0.20558 0.27199 -0.16148
 C50 C -0.16113 0.28632 -0.17908
 C51 C -0.14420 0.26631 -0.22016
 H52 H -0.24239 0.12900 -0.30367
 H53 H -0.11507 0.21487 -0.29167
 H54 H -0.30832 0.14237 -0.25195
 H55 H -0.28478 0.23144 -0.13117
 H56 H -0.21739 0.28611 -0.12855
 H57 H -0.10878 0.27589 -0.23225
 C58 C 0.24890 0.82625 -0.24070
 C59 C 0.23559 0.84293 -0.28492
 C60 C 0.19966 0.81925 -0.31105
 C61 C 0.18091 0.77597 -0.29369
 C62 C 0.19179 0.76056 -0.24884
 C63 C 0.22533 0.78617 -0.22183
 C64 C 0.28256 0.85116 -0.21347
 C65 C 0.29148 0.83761 -0.16718
 C66 C 0.26557 0.79956 -0.14795
 C67 C 0.23318 0.77335 -0.17508
 C68 C 0.20637 0.73633 -0.15541
 C69 C 0.17191 0.71196 -0.18195
 C70 C 0.16622 0.72261 -0.22912
 H71 H 0.24973 0.87693 -0.29650
 H72 H 0.15472 0.75604 -0.31391
 H73 H 0.30105 0.88182 -0.22783
 H74 H 0.27021 0.79084 -0.11154
 H75 H 0.21070 0.72776 -0.11893
 H76 H 0.13934 0.70362 -0.24935
 C77 C 0.18298 1.23732 0.74989
 C78 C 0.15638 1.21486 0.71467
 C79 C 0.17201 1.17199 0.69470
 C80 C 0.21839 1.15575 0.70581
 C81 C 0.24560 1.17796 0.74108
 C82 C 0.22697 1.21800 0.76413
 C83 C 0.16465 1.27696 0.77313
 C84 C 0.18840 1.29665 0.81222
 C85 C 0.23166 1.27593 0.82682
 C86 C 0.25113 1.23731 0.80287
 C87 C 0.29306 1.21599 0.81895
 C88 C 0.31361 1.17759 0.79515
 C89 C 0.28958 1.15894 0.75585
 H90 H 0.12213 1.22944 0.70432
 H91 H 0.23157 1.12340 0.69008
 H92 H 0.13119 1.29197 0.76111
 H93 H 0.24900 1.28798 0.85851
 H94 H 0.30918 1.22877 0.85095
 H95 H 0.30417 1.12857 0.73783
 C96 C 0.83699 0.75921 0.79621
 C97 C 0.85508 0.77779 0.75453
 C98 C 0.83711 0.82047 0.73547
 C99 C 0.80338 0.84627 0.76128
 C100 C 0.78558 0.82856 0.80336
 C101 C 0.80179 0.78438 0.82046
 C102 C 0.85326 0.71544 0.81351
 C103 C 0.83279 0.69403 0.85322
 C104 C 0.79778 0.72036 0.87740
 C105 C 0.78281 0.76542 0.86177
 C106 C 0.74849 0.79152 0.88637
 C107 C 0.73229 0.83574 0.86958
 C108 C 0.75127 0.85407 0.82824
 H109 H 0.88126 0.75745 0.73558
 H110 H 0.79124 0.88058 0.74877
 H111 H 0.88282 0.69855 0.79615
 H112 H 0.78059 0.70544 0.90766
 H113 H 0.73382 0.77733 0.91826
 H114 H 0.73854 0.88790 0.81506
 C115 C 0.17631 0.75898 1.23328
 C116 C 0.16018 0.77360 1.27710
 C117 C 0.16554 0.82133 1.29180
 C118 C 0.19433 0.85231 1.26495
 C119 C 0.21397 0.83710 1.22258
 C120 C 0.20278 0.79099 1.20582
 C121 C 0.16496 0.71336 1.21588
 C122 C 0.17742 0.69968 1.17014
 C123 C 0.20387 0.73260 1.14341
 C124 C 0.21785 0.77700 1.16138
 C125 C 0.24679 0.80762 1.13530
 C126 C 0.26255 0.85131 1.15362
 C127 C 0.24441 0.86698 1.19642
 H128 H 0.14091 0.74846 1.29869
 H129 H 0.20049 0.88860 1.27643
 H130 H 0.14573 0.68880 1.23806
 H131 H 0.21178 0.72503 1.10748
 H132 H 0.25955 0.79636 1.10165
 H133 H 0.25532 0.90145 1.20991
 C134 C 0.82523 1.24140 1.25113
 C135 C 0.85175 1.21385 1.28279
 C136 C 0.83245 1.17142 1.30138
 C137 C 0.78418 1.15985 1.29093
 C138 C 0.75784 1.18601 1.25834
 C139 C 0.77807 1.22749 1.23897
 C140 C 0.84688 1.27958 1.22756
 C141 C 0.82211 1.30335 1.19205
 C142 C 0.77433 1.29163 1.18241
 C143 C 0.75250 1.25305 1.20480
 C144 C 0.70783 1.23628 1.18944
 C145 C 0.68937 1.19263 1.20549
 C146 C 0.71371 1.16860 1.24133
 H147 H 0.88873 1.22340 1.28968
 H148 H 0.76753 1.12892 1.30675
 H149 H 0.88418 1.28826 1.23400
 H150 H 0.75602 1.30943 1.15407
 H151 H 0.68940 1.25484 1.16166
 H152 H 0.70039 1.13435 1.25314
 O153 O 0.54514 0.95027 0.95070
 O154 O 0.45060 0.95794 1.07510
 O155 O 0.59807 0.99927 1.04728
 O156 O 0.40555 1.00133 0.94930
 O157 O 0.54016 0.95226 1.06647
 O158 O 0.46065 0.95057 0.93939
 O159 O 0.39800 0.99778 1.03431
 O160 O 0.60119 0.99922 0.96359
 C161 C 0.58852 0.95771 0.95278
 C162 C 0.40862 0.96350 1.06092
 C163 C 0.58361 0.95940 1.06176
 C164 C 0.41759 0.95996 0.93906
 O165 O 0.46511 1.03923 0.90258
 O166 O 0.54788 1.04094 1.09957
 O167 O 0.56113 1.08806 0.96325
 O168 O 0.42389 1.08790 1.04169
 O169 O 0.45935 1.04733 1.09681
 O170 O 0.55182 1.03778 0.90943
 O171 O 0.44058 1.08976 0.95364
 O172 O 0.56240 1.08959 1.04531
 Co173 Co 0.50556 0.99692 0.93197
 Co174 Co 0.50025 1.00158 1.07640
 Co175 Co 0.57411 1.04195 1.00453
 Co176 Co 0.42542 1.04233 0.99510
 O177 O 0.50071 1.02064 1.00245
 C178 C 0.44652 1.07876 0.91221
 C179 C 0.56246 1.08112 1.08729
 C180 C 0.56400 1.07894 0.92170
 C181 C 0.43163 1.07993 1.08381
 O182 O 0.02885 0.45239 0.10117
 O183 O 0.06723 0.54284 -0.06451
 O184 O 0.06132 0.39534 -0.03511
 O185 O 0.07560 0.55869 0.02439
 O186 O 0.08564 0.46056 -0.06562
 O187 O 0.03941 0.53720 0.08750
 O188 O 0.03314 0.60603 -0.03848
 O189 O 0.06938 0.41074 0.05137
 C190 C 0.06368 0.42581 0.09157
 C191 C 0.05772 0.58635 -0.07092
 C192 C 0.08880 0.41690 -0.06178
 C193 C 0.07491 0.55681 0.06793
 O194 O -0.05441 0.54023 0.05562
 O195 O -0.00582 0.43572 -0.08834
 O196 O -0.02219 0.39574 0.05845
 O197 O -0.04289 0.55986 -0.02784
 O198 O -0.02545 0.52222 -0.08880
 O199 O -0.06259 0.45868 0.06543
 O200 O -0.00645 0.59570 0.04163
 O201 O -0.02933 0.39281 -0.02829
 Co202 Co -0.01009 0.49634 0.07174
 Co203 Co 0.02842 0.49004 -0.06988
 Co204 Co 0.01919 0.40705 0.01121
 Co205 Co 0.01676 0.55590 -0.00323
 O206 O 0.01202 0.48431 0.00376
 C207 C -0.04523 0.58351 0.05850
 C208 C -0.03023 0.40170 -0.07101
 C209 C -0.06000 0.41507 0.06986
 C210 C -0.05320 0.54947 -0.06836
 O211 O 1.06077 0.03921 0.44751
 O212 O 0.90788 0.03509 0.54003
 O213 O 0.97563 0.04427 0.43110
 O214 O 1.04049 0.01640 0.59294
 O215 O 0.90664 0.02065 0.45345
 O216 O 1.06043 0.05560 0.53126
 O217 O 0.95290 0.00770 0.59760
 O218 O 1.03535 0.00034 0.38560
 C219 C 1.06650 0.03014 0.40453
 C220 C 0.92227 0.03709 0.58135
 C221 C 0.93131 0.04796 0.42905
 C222 C 1.05755 0.05354 0.57437
 O223 O 1.09769 -0.02876 0.54902
 O224 O 0.91048 -0.07191 0.46993
 O225 O 1.02655 -0.07514 0.43312
 O226 O 0.96352 -0.08731 0.57477
 O227 O 0.89973 -0.05356 0.55544
 O228 O 1.09063 -0.05084 0.46545
 O229 O 1.04412 -0.07820 0.56409
 O230 O 0.94977 -0.04474 0.41073
 Co231 Co 1.06980 0.00148 0.49894
 Co232 Co 0.91488 -0.01748 0.50431
 Co233 Co 1.00232 -0.01572 0.43697
 Co234 Co 1.00027 -0.03374 0.57661
 O235 O 0.99380 -0.01822 0.50650
 C236 C 1.08679 -0.06843 0.56475
 C237 C 0.91987 -0.07385 0.42768
 C238 C 1.06960 -0.08126 0.44055
 C239 C 0.91979 -0.08567 0.57770
 C240 C 1.17428 0.10319 0.36921
 C241 C 1.15250 0.13893 0.34104
 C242 C 1.10241 0.13659 0.33448
 C243 C 1.07523 0.09933 0.35280
 C244 C 1.09704 0.06206 0.37677
 C245 C 1.14712 0.06276 0.38319
 C246 C 1.22185 0.10753 0.38586
 C247 C 1.24394 0.06982 0.40887
 C248 C 1.21890 0.02757 0.41654
 C249 C 1.17080 0.02413 0.40397
 H250 H 1.24225 0.14007 0.38121
 H251 H 1.28073 0.07324 0.42035
 H252 H 1.23632 -0.00210 0.43346
 H253 H 1.15184 -0.00855 0.41119
 H254 H 1.08381 0.16241 0.31328
 H255 H 1.03671 0.09983 0.34858
 C256 C 0.82324 -0.15068 0.36605
 C257 C 0.84801 -0.15949 0.32423
 C258 C 0.89598 -0.14556 0.32060
 C259 C 0.91807 -0.11925 0.35526
 C260 C 0.89417 -0.10746 0.39610
 C261 C 0.84634 -0.12467 0.40258
 C262 C 0.77672 -0.16937 0.37309
 C263 C 0.75235 -0.16081 0.41399
 C264 C 0.77394 -0.13433 0.44901
 C265 C 0.82025 -0.11671 0.44364
 H266 H 0.75905 -0.19161 0.34747
 H267 H 0.71671 -0.17520 0.41872
 H268 H 0.75492 -0.12797 0.48091
 H269 H 0.83459 -0.09792 0.47274
 H270 H 0.91580 -0.15205 0.28911
 H271 H 0.95437 -0.10706 0.34941
 C272 C 0.86937 0.15360 0.62422
 C273 C 0.84837 0.13728 0.66590
 C274 C 0.85429 0.08977 0.67967
 C275 C 0.88011 0.05823 0.65275
 C276 C 0.90079 0.07330 0.61129
 C277 C 0.89660 0.12155 0.59709
 C278 C 0.86339 0.20087 0.60857
 C279 C 0.88545 0.21671 0.56815
 C280 C 0.91376 0.18596 0.54263
 C281 C 0.91948 0.13886 0.55685
 H282 H 0.84146 0.22585 0.62719
 H283 H 0.88075 0.25311 0.55668
 H284 H 0.93130 0.19862 0.51159
 H285 H 0.94243 0.11654 0.53633
 H286 H 0.83906 0.07706 0.71186
 H287 H 0.88304 0.02146 0.66384
 C288 C 1.19889 -0.12884 0.61737
 C289 C 1.17585 -0.15756 0.65162
 C290 C 1.12566 -0.15992 0.65107
 C291 C 1.09881 -0.13219 0.62149
 C292 C 1.12014 -0.10029 0.59039
 C293 C 1.17079 -0.10000 0.58651
 C294 C 1.24880 -0.13077 0.61075
 C295 C 1.27086 -0.10353 0.57651
 C296 C 1.24370 -0.07499 0.54718
 C297 C 1.19419 -0.07362 0.55160
 H298 H 1.27107 -0.15448 0.63089
 H299 H 1.30916 -0.10537 0.57204
 H300 H 1.26100 -0.05468 0.52005
 H301 H 1.17478 -0.05315 0.52621
 H302 H 1.10604 -0.18052 0.67649
 H303 H 1.06032 -0.13436 0.62496
 C304 C 0.33262 1.10601 1.16818
 C305 C 0.33142 1.15699 1.16655
 C306 C 0.36475 1.18068 1.13814
 C307 C 0.39886 1.15544 1.11338
 C308 C 0.40323 1.10605 1.11837
 C309 C 0.37172 1.08130 1.14853
 C310 C 0.29406 1.07839 1.18568
 C311 C 0.29845 1.02959 1.19285
 C312 C 0.34031 1.00686 1.18077
 C313 C 0.37595 1.03189 1.15747
 H314 H 0.25996 1.09406 1.19369
 H315 H 0.26934 1.00941 1.20796
 H316 H 0.34425 0.96912 1.18740
 H317 H 0.40649 1.01168 1.14714
 H318 H 0.36526 1.21912 1.13536
 H319 H 0.42218 1.17469 1.08997
 C320 C 0.36086 0.84599 0.89061
 C321 C 0.32430 0.86635 0.86253
 C322 C 0.31658 0.91553 0.86454
 C323 C 0.34539 0.94483 0.89180
 C324 C 0.38278 0.92602 0.91848
 C325 C 0.38890 0.87594 0.92029
 C326 C 0.37086 0.79675 0.88951
 C327 C 0.40404 0.77696 0.92013
 C328 C 0.42845 0.80575 0.95177
 C329 C 0.42167 0.85484 0.95147
 H330 H 0.35332 0.77304 0.86513
 H331 H 0.41059 0.73902 0.91952
 H332 H 0.45339 0.79009 0.97618
 H333 H 0.44150 0.87578 0.97658
 H334 H 0.28808 0.93159 0.84440
 H335 H 0.33926 0.98285 0.89075
 C336 C 0.63740 0.84376 1.10735
 C337 C 0.67560 0.86302 1.13481
 C338 C 0.68293 0.91266 1.13516
 C339 C 0.65458 0.94271 1.10884
 C340 C 0.61729 0.92467 1.08145
 C341 C 0.60908 0.87479 1.07946
 C342 C 0.62448 0.79493 1.10917
 C343 C 0.58821 0.77655 1.08079
 C344 C 0.56324 0.80638 1.05090
 C345 C 0.57302 0.85508 1.05058
 H346 H 0.64156 0.77061 1.13305
 H347 H 0.57935 0.73897 1.08211
 H348 H 0.53545 0.79190 1.02855
 H349 H 0.55221 0.87698 1.02736
 H350 H 0.71212 0.92865 1.15475
 H351 H 0.66104 0.98077 1.11112
 C352 C 0.62638 1.18824 0.86596
 C353 C 0.65478 1.16416 0.83252
 C354 C 0.64462 1.11553 0.82462
 C355 C 0.61230 1.09045 0.85168
 C356 C 0.59006 1.11161 0.88966
 C357 C 0.59681 1.16152 0.89704
 C358 C 0.62506 1.23854 0.86795
 C359 C 0.60207 1.26177 0.90394
 C360 C 0.57838 1.23555 0.93761
 C361 C 0.57460 1.18619 0.93374
 H362 H 0.64172 1.26033 0.84157
 H363 H 0.60264 1.30028 0.90569
 H364 H 0.56087 1.25374 0.96578
 H365 H 0.55298 1.16871 0.95938
 H366 H 0.66451 1.09463 0.80007
 H367 H 0.60791 1.05268 0.84495
 C368 C 0.16924 0.38728 0.16628
 C369 C 0.14891 0.34527 0.18565
 C370 C 0.09990 0.33615 0.17926
 C371 C 0.07204 0.36553 0.15161
 C372 C 0.09238 0.40441 0.12867
 C373 C 0.14089 0.41649 0.13661
 C374 C 0.21696 0.40099 0.17569
 C375 C 0.23667 0.44152 0.15504
 C376 C 0.20932 0.46914 0.12491
 C377 C 0.16178 0.45688 0.11565
 H378 H 0.23913 0.38097 0.19950
 H379 H 0.27335 0.45159 0.16251
 H380 H 0.22495 0.50044 0.10904
 H381 H 0.14134 0.47946 0.09260
 H382 H 0.08344 0.30433 0.19346
 H383 H 0.03494 0.35583 0.14542
 C384 C -0.09225 0.29235 -0.12320
 C385 C -0.12781 0.31483 -0.15038
 C386 C -0.12909 0.36460 -0.15306
 C387 C -0.09601 0.39243 -0.12845
 C388 C -0.06066 0.37110 -0.10093
 C389 C -0.05777 0.32059 -0.09917
 C390 C -0.08998 0.24213 -0.11984
 C391 C -0.05357 0.22030 -0.09462
 C392 C -0.01865 0.24785 -0.07270
 C393 C -0.02057 0.29738 -0.07505
 H394 H -0.11614 0.21928 -0.13671
 H395 H -0.05213 0.18183 -0.09254
 H396 H 0.01017 0.23081 -0.05391
 H397 H 0.00809 0.31712 -0.05900
 H398 H -0.15592 0.38195 -0.17429
 H399 H -0.09873 0.43087 -0.12999
 C400 C 0.09002 0.68778 -0.15285
 C401 C 0.13932 0.67806 -0.15888
 C402 C 0.15898 0.63673 -0.13982
 C403 C 0.13124 0.60589 -0.11343
 C404 C 0.08309 0.61570 -0.10520
 C405 C 0.06142 0.65565 -0.12660
 C406 C 0.06867 0.72928 -0.17121
 C407 C 0.01992 0.73747 -0.16589
 C408 C -0.00843 0.70489 -0.14205
 C409 C 0.01194 0.66437 -0.12250
 H410 H 0.08920 0.75583 -0.18969
 H411 H 0.00401 0.76919 -0.18052
 H412 H -0.04634 0.71113 -0.13844
 H413 H -0.01159 0.63984 -0.10478
 H414 H 0.19656 0.62908 -0.14425
 H415 H 0.14815 0.57531 -0.09749
 C416 C -0.11585 0.69684 0.08279
 C417 C -0.13802 0.68251 0.12454
 C418 C -0.13197 0.63631 0.14141
 C419 C -0.10312 0.60440 0.11829
 C420 C -0.07965 0.61770 0.07754
 C421 C -0.08816 0.66343 0.05793
 C422 C -0.12038 0.74371 0.06528
 C423 C -0.10140 0.75612 0.02239
 C424 C -0.07788 0.72225 -0.00382
 C425 C -0.07143 0.67646 0.01368
 H426 H -0.13865 0.77117 0.08428
 H427 H -0.10581 0.79188 0.00904
 H428 H -0.06481 0.73133 -0.03797
 H429 H -0.05580 0.65094 -0.00900
 H430 H -0.14899 0.62521 0.17332
 H431 H -0.09811 0.56940 0.13321
 C432 C 1.09269 0.13382 0.67732
 C433 C 1.14114 0.14475 0.66554
 C434 C 1.15894 0.12724 0.62346
 C435 C 1.13015 0.10082 0.59310
 C436 C 1.08255 0.08980 0.60375
 C437 C 1.06323 0.10749 0.64556
 C438 C 1.07357 0.14498 0.72137
 C439 C 1.02586 0.13542 0.73162
 C440 C 0.99643 0.11332 0.69900
 C441 C 1.01507 0.09900 0.65669
 H442 H 1.09520 0.16001 0.74894
 H443 H 1.01175 0.14495 0.76517
 H444 H 0.95929 0.10636 0.70691
 H445 H 0.99163 0.08149 0.63249
 H446 H 1.19547 0.13474 0.61341
 H447 H 1.14598 0.08722 0.56169
 C448 C 0.82343 -0.14234 0.65731
 C449 C 0.85399 -0.16206 0.69217
 C450 C 0.90326 -0.16322 0.68352
 C451 C 0.92278 -0.14081 0.64496
 C452 C 0.89424 -0.11639 0.61254
 C453 C 0.84355 -0.11936 0.61739
 C454 C 0.77318 -0.14813 0.65948
 C455 C 0.74336 -0.12934 0.62537
 C456 C 0.76273 -0.10604 0.58741
 C457 C 0.81209 -0.10186 0.58293
 H458 H 0.75629 -0.16856 0.68665
 H459 H 0.70501 -0.13386 0.62789
 H460 H 0.73937 -0.09231 0.56053
 H461 H 0.82460 -0.08661 0.55118
 H462 H 0.92776 -0.17853 0.70860
 H463 H 0.96134 -0.14067 0.64200
 C464 C 1.09173 -0.17096 0.34471
 C465 C 1.14068 -0.16075 0.33465
 C466 C 1.16675 -0.13256 0.36651
 C467 C 1.14475 -0.11144 0.40475
 C468 C 1.09590 -0.11840 0.41339
 C469 C 1.07093 -0.15294 0.38629
 C470 C 1.06194 -0.19714 0.31392
 C471 C 1.01618 -0.21161 0.32693
 C472 C 0.99867 -0.19941 0.37024
 C473 C 1.02518 -0.16947 0.39931
 H474 H 1.07304 -0.20638 0.27938
 H475 H 0.99433 -0.23269 0.30340
 H476 H 0.96363 -0.21179 0.38068
 H477 H 1.00994 -0.16008 0.43240
 H478 H 1.20430 -0.12522 0.36082
 H479 H 1.16571 -0.08740 0.42622
 C480 C 0.85579 0.08940 0.32469
 C481 C 0.86109 0.13975 0.32829
 C482 C 0.89432 0.15775 0.36113
 C483 C 0.91780 0.12754 0.39247
 C484 C 0.90719 0.07871 0.39382
 C485 C 0.87489 0.05946 0.35998
 C486 C 0.83404 0.06777 0.28531
 C487 C 0.82454 0.01905 0.28415
 C488 C 0.83698 -0.00915 0.32177
 C489 C 0.86191 0.01075 0.35911
 H490 H 0.82471 0.08821 0.25479
 H491 H 0.80690 0.00329 0.25426
 H492 H 0.82814 -0.04677 0.32167
 H493 H 0.86986 -0.01245 0.38724
 H494 H 0.90059 0.19570 0.36443
 H495 H 0.94265 0.14282 0.41746
 C496 C 0.19101 0.36960 -0.13682
 C497 C 0.16595 0.33173 -0.16011
 C498 C 0.11667 0.32653 -0.15221
 C499 C 0.09341 0.35470 -0.12037
 C500 C 0.11788 0.38924 -0.09447
 C501 C 0.16687 0.39778 -0.10305
 C502 C 0.23849 0.38222 -0.14823
 C503 C 0.26262 0.41855 -0.12450
 C504 C 0.23989 0.44369 -0.08956
 C505 C 0.19235 0.43372 -0.07898
 H506 H 0.25706 0.36503 -0.17628
 H507 H 0.29913 0.42739 -0.13343
 H508 H 0.25895 0.47164 -0.07111
 H509 H 0.17577 0.45453 -0.05206
 H510 H 0.09586 0.29846 -0.16865
 H511 H 0.05542 0.34939 -0.11606
 C512 C -0.13573 0.31173 0.11573
 C513 C -0.15105 0.33203 0.15802
 C514 C -0.14086 0.37982 0.16770
 C515 C -0.11410 0.40729 0.13691
 C516 C -0.09663 0.38764 0.09568
 C517 C -0.10915 0.33998 0.08393
 C518 C -0.14595 0.26362 0.10454
 C519 C -0.13197 0.24445 0.06226
 C520 C -0.10772 0.27262 0.03039
 C521 C -0.09641 0.31981 0.04101
 H522 H -0.16488 0.24036 0.12815
 H523 H -0.14039 0.20770 0.05403
 H524 H -0.09774 0.25788 -0.00278
 H525 H -0.07876 0.34047 0.01487
 H526 H -0.15282 0.39563 0.19980
 H527 H -0.10500 0.44354 0.14653
 C528 C -0.13200 0.61242 -0.15940
 C529 C -0.15035 0.64900 -0.12998
 C530 C -0.14877 0.64046 -0.08188
 C531 C -0.12285 0.60281 -0.06339
 C532 C -0.09481 0.57354 -0.09147
 C533 C -0.10296 0.57522 -0.14022
 C534 C -0.14448 0.61016 -0.20697
 C535 C -0.12572 0.57529 -0.23572
 C536 C -0.09560 0.54079 -0.21758
 C537 C -0.08481 0.54015 -0.17034
 H538 H -0.17000 0.63445 -0.22216
 H539 H -0.13537 0.57450 -0.27215
 H540 H -0.08182 0.51329 -0.24000
 H541 H -0.06440 0.51030 -0.15806
 H542 H -0.16353 0.66528 -0.05730
 H543 H -0.12120 0.59952 -0.02601
 C544 C 0.18248 0.63068 0.11380
 C545 C 0.15889 0.65684 0.14960
 C546 C 0.11247 0.64204 0.16163
 C547 C 0.08800 0.60754 0.13628
 C548 C 0.10800 0.58623 0.09706
 C549 C 0.15627 0.59659 0.08633
 C550 C 0.23218 0.63530 0.10649
 C551 C 0.25445 0.61093 0.07064
 C552 C 0.22819 0.58027 0.04218
 C553 C 0.17972 0.57253 0.05022
 H554 H 0.25452 0.65685 0.12912
 H555 H 0.29247 0.61540 0.06529
 H556 H 0.24582 0.56117 0.01467
 H557 H 0.16153 0.54624 0.02899
 H558 H 0.09242 0.66006 0.18820
 H559 H 0.05128 0.60017 0.14575
 C560 C 0.39385 1.17963 0.83832
 C561 C 0.35661 1.15370 0.81553
 C562 C 0.35651 1.10382 0.81875
 C563 C 0.38920 1.08035 0.84716
 C564 C 0.42134 1.10586 0.87543
 C565 C 0.42435 1.15598 0.87067
 C566 C 0.40113 1.22872 0.83005
 C567 C 0.43445 1.25469 0.85604
 C568 C 0.46150 1.23221 0.89017
 C569 C 0.45704 1.18318 0.89712
 H570 H 0.38114 1.24730 0.80343
 H571 H 0.43900 1.29250 0.84997
 H572 H 0.48634 1.25291 0.91094
 H573 H 0.47924 1.16669 0.92316
 H574 H 0.32902 1.08271 0.80167
 H575 H 0.38662 1.04195 0.84993
 C576 C 0.34647 0.85831 1.12128
 C577 C 0.30070 0.87828 1.12889
 C578 C 0.29017 0.92290 1.10985
 C579 C 0.32455 0.94861 1.08511
 C580 C 0.37066 0.93053 1.07842
 C581 C 0.38083 0.88355 1.09417
 C582 C 0.35909 0.81376 1.14054
 C583 C 0.40279 0.79293 1.13054
 C584 C 0.43479 0.81584 1.10130
 C585 C 0.42413 0.86057 1.08320
 H586 H 0.33551 0.79458 1.16361
 H587 H 0.41163 0.75854 1.14514
 H588 H 0.46817 0.79893 1.09275
 H589 H 0.44981 0.87606 1.05977
 H590 H 0.25522 0.93830 1.11478
 H591 H 0.31567 0.98405 1.07312
 C592 C 0.61013 1.14584 1.19688
 C593 C 0.65134 1.16789 1.17767
 C594 C 0.65871 1.16454 1.12978
 C595 C 0.62791 1.13860 1.10144
 C596 C 0.58870 1.11368 1.11963
 C597 C 0.57856 1.11845 1.16769
 C598 C 0.59886 1.15142 1.24413
 C599 C 0.55799 1.13017 1.26255
 C600 C 0.52728 1.10364 1.23426
 C601 C 0.53715 1.09801 1.18727
 H602 H 0.62095 1.17293 1.26701
 H603 H 0.54977 1.13482 1.29888
 H604 H 0.49526 1.08784 1.24868
 H605 H 0.51137 1.07861 1.16651
 H606 H 0.68987 1.18085 1.11407
 H607 H 0.63641 1.13636 1.06496
 C608 C 0.64720 0.84530 0.89946
 C609 C 0.69454 0.86283 0.89434
 C610 C 0.70610 0.90810 0.91145
 C611 C 0.67173 0.93660 0.93211
 C612 C 0.62402 0.92124 0.93679
 C613 C 0.61189 0.87378 0.92198
 C614 C 0.63393 0.80027 0.88139
 C615 C 0.58807 0.78211 0.88734
 C616 C 0.55445 0.80826 0.91120
 C617 C 0.56587 0.85338 0.92834
 H618 H 0.65864 0.77863 0.86219
 H619 H 0.57863 0.74738 0.87360
 H620 H 0.51913 0.79343 0.91627
 H621 H 0.53801 0.87053 0.94729
 H622 H 0.74211 0.92203 0.90788
 H623 H 0.68258 0.97193 0.94326
   
