data_POSCAR
  _audit_creation_date              2014-09-24
  _audit_creation_method            'ToBaCCo'
  _symmetry_space_group_name_H-M    'P1'
  _symmetry_Int_Tables_number       1
  _symmetry_cell_setting            triclinic
  loop_
  _symmetry_equiv_pos_as_xyz
 x,y,z
_cell_length_a 41.0674
_cell_length_b 41.0587
_cell_length_c 41.0496
_cell_angle_alpha 90.001100
_cell_angle_beta 89.959500
_cell_angle_gamma 90.001500
loop_
  _atom_site_label
  _atom_site_type_symbol
  _atom_site_fract_x
  _atom_site_fract_y
  _atom_site_fract_z
C1 C 0.22235 0.52171 1.06097
 H2 H 0.23936 0.54170 1.05920
 C3 C 0.20021 0.52075 1.08682
 H4 H 0.20092 0.54005 1.10479
 C5 C 0.20016 0.47326 1.03892
 H6 H 0.20005 0.45513 1.01979
 C7 C 0.17765 0.47127 1.06432
 H8 H 0.16049 0.45124 1.06440
 N9 N 0.22196 0.49812 1.03773
 C10 C 0.27636 0.56040 0.97921
 H11 H 0.25933 0.55859 0.95926
 C12 C 0.29842 0.58629 0.98011
 H13 H 0.29779 0.60435 0.96091
 C14 C 0.29878 0.53837 1.02759
 H15 H 0.29903 0.51923 1.04571
 C16 C 0.32121 0.56383 1.02949
 H17 H 0.33856 0.56410 1.04933
 Zn18 Zn 0.24951 0.50014 1.00082
 N19 N 0.27690 0.53714 1.00279
 C20 C 0.20012 0.52674 0.96262
 N21 N 0.22209 0.50202 0.96385
 C22 C 0.22276 0.47846 0.94056
 C23 C 0.20075 0.47934 0.91463
 C24 C 0.17774 0.52861 0.93713
 C25 C 0.27654 0.43995 1.02241
 C26 C 0.29864 0.41410 1.02143
 C27 C 0.32150 0.43677 0.97214
 C28 C 0.29903 0.46218 0.97411
 N29 N 0.27708 0.46328 0.99888
 H30 H 0.19978 0.54484 0.98178
 H31 H 0.23986 0.45856 0.94236
 H32 H 0.20149 0.46017 0.89654
 H33 H 0.16034 0.54841 0.93686
 H34 H 0.25945 0.44166 1.04234
 H35 H 0.29799 0.39597 1.04056
 H36 H 0.33888 0.43659 0.95230
 H37 H 0.29927 0.48137 0.95605
 C38 C 0.32141 0.58814 1.00539
 C39 C 0.17717 0.49540 1.08871
 C40 C 0.32167 0.41237 0.99614
 C41 C 0.17768 0.50456 0.91278
 C42 C 0.77686 0.52181 -0.05979
 H43 H 0.75978 0.54173 -0.05804
 C44 C 0.79893 0.52085 -0.08570
 H45 H 0.79827 0.53999 -0.10382
 C46 C 0.79936 0.47352 -0.03764
 H47 H 0.79963 0.45545 -0.01846
 C48 C 0.82180 0.47157 -0.06311
 H49 H 0.83917 0.45174 -0.06334
 N50 N 0.77743 0.49828 -0.03647
 C51 C 0.72303 0.56045 0.02210
 H52 H 0.74012 0.55871 0.04201
 C53 C 0.70093 0.58631 0.02119
 H54 H 0.70158 0.60441 0.04036
 C55 C 0.70054 0.53830 -0.02620
 H56 H 0.70028 0.51914 -0.04428
 C57 C 0.67807 0.56372 -0.02809
 H58 H 0.66068 0.56394 -0.04791
 Zn59 Zn 0.74994 0.50022 0.00047
 N60 N 0.72247 0.53715 -0.00145
 C61 C 0.79937 0.52684 0.03858
 N62 N 0.77741 0.50211 0.03740
 C63 C 0.77684 0.47851 0.06065
 C64 C 0.79896 0.47934 0.08648
 C65 C 0.82187 0.52866 0.06398
 C66 C 0.72304 0.44004 -0.02122
 C67 C 0.70095 0.41417 -0.02034
 C68 C 0.67804 0.43666 0.02900
 C69 C 0.70050 0.46209 0.02714
 N70 N 0.72245 0.46330 0.00237
 H71 H 0.79964 0.54497 0.01945
 H72 H 0.75974 0.45861 0.05888
 H73 H 0.79831 0.46013 0.10454
 H74 H 0.83928 0.54846 0.06421
 H75 H 0.74013 0.44183 -0.04114
 H76 H 0.70162 0.39611 -0.03955
 H77 H 0.66064 0.43640 0.04882
 H78 H 0.70022 0.48123 0.04526
 C79 C 0.67789 0.58808 -0.00405
 C80 C 0.82195 0.49558 -0.08749
 C81 C 0.67789 0.41235 0.00491
 C82 C 0.82204 0.50456 0.08827
 C83 C -0.02661 0.29981 0.46103
 H84 H -0.04482 0.29996 0.48009
 C85 C -0.02847 0.32231 0.43562
 H86 H -0.04847 0.33950 0.43548
 C87 C 0.02188 0.27753 0.43913
 H88 H 0.04184 0.26051 0.44097
 C89 C 0.02107 0.29967 0.41329
 H90 H 0.04044 0.29893 0.39538
 N91 N -0.00179 0.27798 0.46230
 C92 C -0.03799 0.20100 0.52589
 H93 H -0.01885 0.20076 0.54398
 C94 C -0.06341 0.17853 0.52781
 H95 H -0.06364 0.16116 0.54765
 C96 C -0.06008 0.22345 0.47754
 H97 H -0.05831 0.24052 0.45760
 C98 C -0.08593 0.20134 0.47847
 H99 H -0.10401 0.20197 0.45930
 Zn100 Zn 0.00008 0.25046 0.49922
 N101 N -0.03681 0.22293 0.50111
 C102 C -0.02165 0.27728 0.55948
 N103 N 0.00192 0.27791 0.53619
 C104 C 0.02668 0.29985 0.53744
 C105 C 0.02857 0.32221 0.56296
 C106 C -0.02075 0.29928 0.58544
 C107 C 0.03831 0.20111 0.47254
 C108 C 0.06376 0.17866 0.47069
 C109 C 0.08612 0.20149 0.52009
 C110 C 0.06023 0.22356 0.52096
 N111 N 0.03703 0.22301 0.49733
 H112 H -0.04157 0.26021 0.55766
 H113 H 0.04478 0.30016 0.51829
 H114 H 0.04840 0.33958 0.56326
 H115 H -0.03992 0.29856 0.60354
 H116 H 0.01922 0.20085 0.45439
 H117 H 0.06407 0.16130 0.45084
 H118 H 0.10413 0.20213 0.53933
 H119 H 0.05839 0.24062 0.54091
 C120 C -0.08773 0.17833 0.50376
 C121 C -0.00424 0.32276 0.41132
 C122 C 0.08801 0.17847 0.49482
 C123 C 0.00452 0.32230 0.58732
 C124 C 0.97345 0.70050 0.53805
 H125 H 0.95539 0.70019 0.51888
 C126 C 0.97154 0.67807 0.56351
 H127 H 0.95173 0.66066 0.56376
 C128 C 1.02171 0.72307 0.56017
 H129 H 1.04161 0.74017 0.55839
 C130 C 1.02078 0.70101 0.58607
 H131 H 1.03993 0.70170 0.60417
 N132 N 0.99819 0.72246 0.53686
 C133 C 0.96207 0.79928 0.47313
 H134 H 0.98125 0.79953 0.45505
 C135 C 0.93665 0.82174 0.47121
 H136 H 0.93644 0.83911 0.45137
 C137 C 0.93991 0.77680 0.52147
 H138 H 0.94165 0.75973 0.54140
 C139 C 0.91404 0.79889 0.52053
 H140 H 0.89594 0.79825 0.53970
 Zn141 Zn 1.00015 0.74989 0.49990
 N142 N 0.96322 0.77735 0.49792
 C143 C 0.97864 0.72291 0.43967
 N144 N 1.00215 0.72237 0.46300
 C145 C 1.02691 0.70043 0.46187
 C146 C 1.02886 0.67794 0.43646
 C147 C 0.97961 0.70079 0.41382
 C148 C 1.03815 0.79938 0.52656
 C149 C 1.06356 0.82186 0.52846
 C150 C 1.08622 0.79892 0.47921
 C151 C 1.06037 0.77681 0.47830
 N152 N 1.03704 0.77740 0.50183
 H153 H 0.95872 0.74000 0.44140
 H154 H 1.04496 0.70019 0.48106
 H155 H 1.04867 0.66056 0.43627
 H156 H 0.96047 0.70143 0.39570
 H157 H 1.01896 0.79967 0.54463
 H158 H 1.06374 0.83928 0.54826
 H159 H 1.10435 0.79825 0.46006
 H160 H 1.05866 0.75969 0.45840
 C161 C 0.91228 0.82192 0.49526
 C162 C 0.99555 0.67795 0.58787
 C163 C 1.08795 0.82201 0.50444
 C164 C 1.00486 0.67775 0.41209
 C165 C 0.46195 -0.02732 0.29893
 H166 H 0.48104 -0.04547 0.29919
 C167 C 0.43650 -0.02913 0.32140
 H168 H 0.43619 -0.04895 0.33879
 C169 C 0.44001 0.02107 0.27642
 H170 H 0.44185 0.04099 0.25934
 C171 C 0.41413 0.02024 0.29852
 H172 H 0.39611 0.03948 0.29787
 N173 N 0.46322 -0.00256 0.27699
 C174 C 0.52688 -0.03892 0.20016
 H175 H 0.54507 -0.01986 0.19998
 C176 C 0.52873 -0.06431 0.17764
 H177 H 0.54872 -0.06446 0.16042
 C178 C 0.47840 -0.06079 0.22248
 H179 H 0.45844 -0.05894 0.23954
 C180 C 0.47920 -0.08662 0.20034
 H181 H 0.45984 -0.10451 0.20109
 Zn182 Zn 0.50017 -0.00070 0.24951
 N183 N 0.50206 -0.03763 0.22202
 C184 C 0.56035 -0.02232 0.27649
 N185 N 0.53705 0.00122 0.27702
 C186 C 0.53819 0.02601 0.29893
 C187 C 0.56361 0.02797 0.32138
 C188 C 0.58622 -0.02135 0.29857
 C189 C 0.47355 0.03743 0.20009
 C190 C 0.47162 0.06293 0.17770
 C191 C 0.52090 0.08546 0.20060
 C192 C 0.52184 0.05952 0.22262
 N193 N 0.49830 0.03623 0.22202
 H194 H 0.55862 -0.04227 0.25942
 H195 H 0.51903 0.04408 0.29917
 H196 H 0.56382 0.04783 0.33873
 H197 H 0.60432 -0.04050 0.29794
 H198 H 0.45547 0.01827 0.19980
 H199 H 0.45179 0.06320 0.16034
 H200 H 0.54005 0.10356 0.20130
 H201 H 0.54175 0.05773 0.23970
 C202 C 0.50449 -0.08859 0.17721
 C203 C 0.41225 -0.00500 0.32157
 C204 C 0.49564 0.08730 0.17759
 C205 C 0.58798 0.00395 0.32157
 C206 C 0.53818 -0.02673 0.70054
 H207 H 0.51905 -0.04485 0.70028
 C208 C 0.56363 -0.02861 0.67808
 H209 H 0.56390 -0.04844 0.66070
 C210 C 0.56021 0.02162 0.72303
 H211 H 0.55841 0.04155 0.74010
 C212 C 0.58610 0.02073 0.70094
 H213 H 0.60416 0.03993 0.70159
 N214 N 0.53695 -0.00196 0.72247
 C215 C 0.47326 -0.03809 0.79940
 H216 H 0.45518 -0.01892 0.79965
 C217 C 0.47132 -0.06351 0.82188
 H218 H 0.45148 -0.06371 0.83927
 C219 C 0.52157 -0.06025 0.77692
 H220 H 0.54150 -0.05851 0.75983
 C221 C 0.52061 -0.08611 0.79903
 H222 H 0.53977 -0.10421 0.79839
 Zn223 Zn 0.50000 -0.00003 0.74995
 N224 N 0.49803 -0.03694 0.77746
 C225 C 0.43979 -0.02163 0.72303
 N226 N 0.46311 0.00189 0.72244
 C227 C 0.46197 0.02664 0.70048
 C228 C 0.43654 0.02858 0.67804
 C229 C 0.41392 -0.02068 0.70096
 C230 C 0.52662 0.03813 0.79936
 C231 C 0.52851 0.06360 0.82178
 C232 C 0.47923 0.08611 0.79887
 C233 C 0.47833 0.06020 0.77681
 N234 N 0.50189 0.03692 0.77741
 H235 H 0.44152 -0.04154 0.74014
 H236 H 0.48115 0.04471 0.70020
 H237 H 0.43634 0.04839 0.66065
 H238 H 0.39580 -0.03982 0.70165
 H239 H 0.54472 0.01897 0.79965
 H240 H 0.54831 0.06386 0.83917
 H241 H 0.46006 0.10419 0.79818
 H242 H 0.45843 0.05841 0.75972
 C243 C 0.49534 -0.08787 0.82207
 C244 C 0.58794 -0.00453 0.67790
 C245 C 0.50446 0.08794 0.82191
 C246 C 0.41216 0.00457 0.67791
 C247 C 0.25004 0.00022 0.49982
 C248 C 0.75016 0.00012 0.49964
 C249 C 0.49977 0.25017 1.00004
 C250 C 0.49967 0.75018 0.00049
 C251 C 1.00047 0.49942 0.25004
 C252 C 0.00005 0.49987 0.75016
 C253 C 0.16088 0.10670 0.49431
 N254 N 0.13866 0.10829 0.46992
 N255 N 0.11584 0.13134 0.46987
 C256 C 0.11430 0.15372 0.49421
 N257 N 0.13674 0.15221 0.51849
 N258 N 0.15958 0.12915 0.51855
 C259 C 0.18504 0.08034 0.49506
 N260 N 0.20645 0.07778 0.52011
 N261 N 0.22739 0.05303 0.52143
 C262 C 0.22785 0.02990 0.49770
 N263 N 0.20639 0.03263 0.47263
 N264 N 0.18546 0.05737 0.47131
 C265 C 0.60608 0.66092 -0.00473
 N266 N 0.60768 0.63859 -0.02904
 N267 N 0.63073 0.61578 -0.02903
 C268 C 0.65311 0.61435 -0.00471
 N269 N 0.65160 0.63690 0.01949
 N270 N 0.62853 0.65973 0.01949
 C271 C 0.57973 0.68509 -0.00405
 N272 N 0.57717 0.70661 0.02092
 N273 N 0.55243 0.72757 0.02217
 C274 C 0.52931 0.72794 -0.00155
 N275 N 0.53204 0.70635 -0.02653
 N276 N 0.55676 0.68540 -0.02778
 C277 C 0.83944 -0.10629 0.49452
 N278 N 0.86174 -0.10791 0.47018
 N279 N 0.88456 -0.13096 0.47021
 C280 C 0.88601 -0.15331 0.49458
 N281 N 0.86348 -0.15177 0.51880
 N282 N 0.84065 -0.12870 0.51879
 C283 C 0.81527 -0.07993 0.49518
 N284 N 0.79379 -0.07733 0.52019
 N285 N 0.77282 -0.05260 0.52143
 C286 C 0.77241 -0.02952 0.49764
 N287 N 0.79395 -0.03229 0.47261
 N288 N 0.81490 -0.05701 0.47139
 C289 C 0.39336 0.33942 0.99514
 N290 N 0.39175 0.36177 0.97085
 N291 N 0.36874 0.38463 0.97097
 C292 C 0.34641 0.38607 0.99538
 N293 N 0.34794 0.36349 1.01955
 N294 N 0.37097 0.34062 1.01945
 C295 C 0.41969 0.31522 0.99571
 N296 N 0.42229 0.29371 1.02068
 N297 N 0.44703 0.27274 1.02186
 C298 C 0.47009 0.27236 0.99806
 N299 N 0.46732 0.29392 0.97306
 N300 N 0.44260 0.31487 0.97189
 C301 C 0.83935 0.10659 0.50463
 N302 N 0.84062 0.12896 0.48031
 N303 N 0.86347 0.15200 0.48025
 C304 C 0.88597 0.15358 0.50447
 N305 N 0.88447 0.13127 0.52889
 N306 N 0.86163 0.10825 0.52897
 C307 C 0.81517 0.08025 0.50402
 N308 N 0.81477 0.05736 0.52786
 N309 N 0.79383 0.03263 0.52666
 C310 C 0.77234 0.02981 0.50163
 N311 N 0.77277 0.05285 0.47781
 N312 N 0.79373 0.07760 0.47901
 C313 C 0.39318 0.66102 0.00598
 N314 N 0.37076 0.65976 -0.01826
 N315 N 0.34770 0.63692 -0.01822
 C316 C 0.34616 0.61443 0.00603
 N317 N 0.36852 0.61593 0.03037
 N318 N 0.39157 0.63875 0.03035
 C319 C 0.41954 0.68518 0.00524
 N320 N 0.44250 0.68557 0.02899
 N321 N 0.46724 0.70650 0.02767
 C322 C 0.46999 0.72799 0.00261
 N323 N 0.44688 0.72755 -0.02112
 N324 N 0.42213 0.70661 -0.01980
 C325 C 0.16078 -0.10619 0.50511
 N326 N 0.15961 -0.12866 0.48090
 N327 N 0.13678 -0.15173 0.48090
 C328 C 0.11421 -0.15322 0.50510
 N329 N 0.11562 -0.13081 0.52941
 N330 N 0.13844 -0.10775 0.52943
 C331 C 0.18495 -0.07983 0.50442
 N332 N 0.18527 -0.05684 0.52816
 N333 N 0.20622 -0.03212 0.52689
 C334 C 0.22779 -0.02942 0.50188
 N335 N 0.22742 -0.05256 0.47816
 N336 N 0.20646 -0.07729 0.47944
 C337 C 0.60613 0.33946 1.00546
 N338 N 0.62858 0.34074 0.98121
 N339 N 0.65164 0.36358 0.98126
 C340 C 0.65313 0.38606 1.00552
 N341 N 0.63074 0.38455 1.02987
 N342 N 0.60771 0.36172 1.02984
 C343 C 0.57979 0.31528 1.00472
 N344 N 0.55683 0.31485 1.02850
 N345 N 0.53213 0.29389 1.02720
 C346 C 0.52941 0.27242 1.00212
 N347 N 0.55251 0.27290 0.97836
 N348 N 0.57724 0.29387 0.97967
 C349 C 0.49473 0.16054 1.10618
 N350 N 0.47043 0.13820 1.10772
 N351 N 0.47053 0.11525 1.13065
 C352 C 0.49491 0.11370 1.15295
 N353 N 0.51909 0.13626 1.15149
 N354 N 0.51902 0.15922 1.12855
 C355 C 0.49534 0.18484 1.07993
 N356 N 0.52032 0.20634 1.07739
 N357 N 0.52153 0.22740 1.05272
 C358 C 0.49775 0.22788 1.02966
 N359 N 0.47275 0.20633 1.03238
 N360 N 0.47154 0.18529 1.05704
 C361 C -0.00516 0.60625 0.66085
 N362 N 0.01908 0.62870 0.65959
 N363 N 0.01908 0.65173 0.63672
 C364 C -0.00512 0.65322 0.61420
 N365 N -0.02945 0.63084 0.61569
 N366 N -0.02948 0.60782 0.63855
 C367 C -0.00448 0.57992 0.68505
 N368 N -0.02824 0.55696 0.68543
 N369 N -0.02699 0.53225 0.70639
 C370 C -0.00198 0.52952 0.72792
 N371 N 0.02176 0.55263 0.72750
 N372 N 0.02050 0.57736 0.70652
 C373 C 0.49453 0.83929 -0.10610
 N374 N 0.51879 0.84048 -0.12854
 N375 N 0.51883 0.86331 -0.15161
 C376 C 0.49464 0.88586 -0.15315
 N377 N 0.47028 0.88442 -0.13077
 N378 N 0.47022 0.86161 -0.10771
 C379 C 0.49517 0.81513 -0.07972
 N380 N 0.47140 0.81481 -0.05675
 N381 N 0.47263 0.79389 -0.03199
 C382 C 0.49763 0.77235 -0.02923
 N383 N 0.52138 0.77271 -0.05235
 N384 N 0.52015 0.79364 -0.07712
 C385 C 0.99509 0.39312 0.33947
 N386 N 0.97095 0.39180 0.36200
 N387 N 0.97099 0.36885 0.38492
 C388 C 0.99516 0.34625 0.38633
 N389 N 1.01914 0.34751 0.36348
 N390 N 1.01914 0.37048 0.34055
 C391 C 0.99579 0.41940 0.31521
 N392 N 1.02073 0.42185 0.29363
 N393 N 1.02203 0.44657 0.27263
 C394 C 0.99837 0.46976 0.27227
 N395 N 0.97340 0.46713 0.29389
 N396 N 0.97211 0.44244 0.31488
 C397 C 0.50509 0.83964 0.10676
 N398 N 0.52924 0.86215 0.10806
 N399 N 0.52923 0.88504 0.13104
 C400 C 0.50507 0.88645 0.15368
 N401 N 0.48108 0.86363 0.15244
 N402 N 0.48106 0.84072 0.12944
 C403 C 0.50437 0.81540 0.08046
 N404 N 0.47942 0.79386 0.07804
 N405 N 0.47811 0.77286 0.05333
 C406 C 0.50176 0.77246 0.03011
 N407 N 0.52674 0.79405 0.03271
 N408 N 0.52804 0.81505 0.05739
 C409 C 0.00532 0.39367 0.66061
 N410 N 0.02966 0.39213 0.63831
 N411 N 0.02961 0.36922 0.61535
 C412 C 0.00521 0.34692 0.61374
 N413 N -0.01901 0.34837 0.63628
 N414 N -0.01898 0.37131 0.65925
 C415 C 0.00466 0.41991 0.68492
 N416 N -0.02037 0.42247 0.70637
 N417 N -0.02164 0.44715 0.72741
 C418 C 0.00215 0.47021 0.72793
 N419 N 0.02722 0.46747 0.70643
 N420 N 0.02847 0.44281 0.68541
 C421 C 0.50512 0.16096 0.89356
 N422 N 0.52947 0.13869 0.89196
 N423 N 0.52947 0.11582 0.86896
 C424 C 0.50511 0.11428 0.84662
 N425 N 0.48087 0.13677 0.84814
 N426 N 0.48086 0.15965 0.87116
 C427 C 0.50442 0.18516 0.91989
 N428 N 0.47938 0.20658 0.92251
 N429 N 0.47810 0.22754 0.94726
 C430 C 0.50186 0.22800 0.97034
 N431 N 0.52692 0.20652 0.96755
 N432 N 0.52819 0.18558 0.94281
 C433 C 1.00567 0.60591 0.33925
 N434 N 1.02995 0.60750 0.36159
 N435 N 1.02989 0.63057 0.38441
 C436 C 1.00557 0.65296 0.38582
 N437 N 0.98141 0.65144 0.36325
 N438 N 0.98144 0.62836 0.34042
 C439 C 1.00501 0.57954 0.31509
 N440 N 0.98006 0.57697 0.29358
 N441 N 0.97880 0.55222 0.27263
 C442 C 1.00252 0.52909 0.27226
 N443 N 1.02750 0.53182 0.29382
 N444 N 1.02874 0.55656 0.31476
 C445 C 1.10681 0.49433 0.16060
 N446 N 1.10816 0.47028 0.13799
 N447 N 1.13111 0.47044 0.11505
 C448 C 1.15367 0.49466 0.11371
 N449 N 1.15238 0.51855 0.13664
 N450 N 1.12941 0.51842 0.15958
 C451 C 1.08053 0.49491 0.18487
 N452 N 1.07803 0.51981 0.20648
 N453 N 1.05331 0.52104 0.22748
 C454 C 1.03015 0.49735 0.22782
 N455 N 1.03283 0.47241 0.20617
 N456 N 1.05752 0.47120 0.18517
 C457 C 0.66085 -0.00514 0.60611
 N458 N 0.63861 -0.02952 0.60773
 N459 N 0.61577 -0.02952 0.63078
 C460 C 0.61424 -0.00516 0.65313
 N461 N 0.63671 0.01910 0.65159
 N462 N 0.65956 0.01913 0.62852
 C463 C 0.68504 -0.00444 0.57975
 N464 N 0.70647 0.02060 0.57713
 N465 N 0.72744 0.02186 0.55239
 C466 C 0.72792 -0.00192 0.52931
 N467 N 0.70643 -0.02697 0.53209
 N468 N 0.68547 -0.02823 0.55682
 C469 C -0.10639 0.49471 0.83946
 N470 N -0.12878 0.51899 0.84072
 N471 N -0.15180 0.51905 0.86361
 C472 C -0.15333 0.49485 0.88616
 N473 N -0.13101 0.47047 0.88467
 N474 N -0.10800 0.47039 0.86179
 C475 C -0.08006 0.49534 0.81524
 N476 N -0.05715 0.47154 0.81484
 N477 N -0.03242 0.47278 0.79388
 C478 C -0.02964 0.49781 0.77236
 N479 N -0.05271 0.52159 0.77279
 N480 N -0.07745 0.52035 0.79377
 C481 C 0.33937 -0.00537 0.39340
 N482 N 0.36160 -0.02976 0.39184
 N483 N 0.38443 -0.02985 0.36878
 C484 C 0.38596 -0.00555 0.34635
 N485 N 0.36350 0.01872 0.34783
 N486 N 0.34066 0.01883 0.37091
 C487 C 0.31519 -0.00458 0.41976
 N488 N 0.29376 0.02046 0.42228
 N489 N 0.27278 0.02181 0.44702
 C490 C 0.27231 -0.00189 0.47018
 N491 N 0.29380 -0.02695 0.46750
 N492 N 0.31476 -0.02829 0.44277
 C493 C 0.10621 0.50520 0.83965
 N494 N 0.10772 0.52955 0.86195
 N495 N 0.13067 0.52954 0.88485
 C496 C 0.15303 0.50520 0.88641
 N497 N 0.15160 0.48097 0.86389
 N498 N 0.12863 0.48095 0.84097
 C499 C 0.07995 0.50450 0.81539
 N500 N 0.07743 0.47947 0.79393
 N501 N 0.05276 0.47819 0.77291
 C502 C 0.02967 0.50194 0.77242
 N503 N 0.03235 0.52699 0.79393
 N504 N 0.05701 0.52826 0.81494
 C505 C 0.66091 0.00496 0.39324
 N506 N 0.65969 -0.01937 0.37088
 N507 N 0.63683 -0.01947 0.34785
 C508 C 0.61428 0.00472 0.34630
 N509 N 0.61574 0.02914 0.36859
 N510 N 0.63859 0.02926 0.39160
 C511 C 0.68510 0.00439 0.41956
 N512 N 0.68546 0.02823 0.44245
 N513 N 0.70641 0.02707 0.46716
 C514 C 0.72796 0.00208 0.46996
 N515 N 0.72756 -0.02175 0.44693
 N516 N 0.70660 -0.02058 0.42220
 C517 C 0.89398 0.50493 0.16095
 N518 N 0.87147 0.48075 0.15975
 N519 N 0.84836 0.48086 0.13698
 C520 C 0.84686 0.50511 0.11449
 N521 N 0.86931 0.52939 0.11592
 N522 N 0.89240 0.52930 0.13868
 C523 C 0.92038 0.50415 0.18506
 N524 N 0.94340 0.52785 0.18537
 N525 N 0.96814 0.52652 0.20628
 C526 C 0.97083 0.50150 0.22782
 N527 N 0.94766 0.47782 0.22745
 N528 N 0.92291 0.47915 0.20653
 C529 C 0.33922 0.00541 0.60625
 N530 N 0.36155 0.02971 0.60783
 N531 N 0.38440 0.02964 0.63083
 C532 C 0.38586 0.00528 0.65319
 N533 N 0.36330 -0.01890 0.65170
 N534 N 0.34043 -0.01885 0.62868
 C535 C 0.31503 0.00477 0.57993
 N536 N 0.29354 -0.02021 0.57736
 N537 N 0.27259 -0.02146 0.55262
 C538 C 0.27220 0.00229 0.52951
 N539 N 0.29374 0.02730 0.53225
 N540 N 0.31468 0.02854 0.55697
   
