data_POSCAR
  _audit_creation_date              2014-09-24
  _audit_creation_method            'ToBaCCo'
  _symmetry_space_group_name_H-M    'P1'
  _symmetry_Int_Tables_number       1
  _symmetry_cell_setting            triclinic
  loop_
  _symmetry_equiv_pos_as_xyz
 x,y,z
_cell_length_a 22.5922
_cell_length_b 22.5834
_cell_length_c 22.5839
_cell_angle_alpha 90.129600
_cell_angle_beta 89.981800
_cell_angle_gamma 90.106100
loop_
  _atom_site_label
  _atom_site_type_symbol
  _atom_site_fract_x
  _atom_site_fract_y
  _atom_site_fract_z
C1 C 0.20852 1.25187 0.17073
 C2 C 0.25206 1.20764 0.16934
 C3 C 0.25097 1.16259 0.21066
 C4 C 0.20657 1.16121 0.25402
 C5 C 0.16405 1.20491 0.25569
 C6 C 0.16471 1.25028 0.21332
 C7 C 0.19497 1.29722 0.13252
 N8 N 0.14326 1.32300 0.15004
 C9 C 0.12496 1.29428 0.19998
 C10 C 0.12415 1.18970 0.29916
 N11 N 0.14078 1.13718 0.32375
 C12 C 0.19156 1.11981 0.29595
 C13 C 0.29435 1.12282 0.19522
 N14 N 0.32178 1.14242 0.14536
 C15 C 0.29620 1.19446 0.12939
 H16 H 0.21934 1.30738 0.09260
 H17 H 0.08514 1.30339 0.22490
 H18 H 0.08406 1.21384 0.30912
 H19 H 0.21630 1.07986 0.30474
 H20 H 0.30397 1.08175 0.21782
 H21 H 0.30655 1.21929 0.08976
 C22 C 0.79090 0.74990 0.16099
 C23 C 0.74767 0.79434 0.15988
 C24 C 0.74658 0.83715 0.20371
 C25 C 0.78893 0.83616 0.24912
 C26 C 0.83089 0.79187 0.25066
 C27 C 0.83188 0.74834 0.20622
 C28 C 0.80630 0.70674 0.12091
 N29 N 0.85600 0.67851 0.14039
 C30 C 0.87131 0.70381 0.19313
 C31 C 0.86916 0.80497 0.29621
 N32 N 0.85226 0.85688 0.32224
 C33 C 0.80267 0.87574 0.29340
 C34 C 0.70332 0.87725 0.18869
 N35 N 0.67817 0.85986 0.13677
 C36 C 0.70521 0.80915 0.11889
 H37 H 0.78281 0.69774 0.08017
 H38 H 0.91044 0.69383 0.21874
 H39 H 0.90875 0.78013 0.30626
 H40 H 0.77824 0.91581 0.30265
 H41 H 0.69285 0.91756 0.21247
 H42 H 0.69555 0.78521 0.07846
 C43 C 0.79475 1.25533 -0.16529
 C44 C 0.74832 1.21409 -0.16716
 C45 C 0.74742 1.17073 -0.21049
 C46 C 0.79310 1.16801 -0.25253
 C47 C 0.83918 1.20811 -0.25008
 C48 C 0.84004 1.25209 -0.20610
 C49 C 0.80951 1.29882 -0.12520
 N50 N 0.86323 1.32222 -0.14008
 C51 C 0.88186 1.29340 -0.18992
 C52 C 0.87986 1.19140 -0.29217
 N53 N 0.85984 1.14192 -0.32075
 C54 C 0.80632 1.12780 -0.29642
 C55 C 0.70134 1.13299 -0.19739
 N56 N 0.67457 1.15210 -0.14692
 C57 C 0.70291 1.20198 -0.12846
 H58 H 0.78396 1.30959 -0.08617
 H59 H 0.92298 1.30098 -0.21319
 H60 H 0.92116 1.21413 -0.30047
 H61 H 0.77989 1.08922 -0.30689
 H62 H 0.69086 1.09230 -0.22057
 H63 H 0.69301 1.22635 -0.08836
 C64 C 0.20907 0.74672 -0.16504
 C65 C 0.25297 0.79070 -0.16717
 C66 C 0.25208 0.83259 -0.21174
 C67 C 0.20741 0.83101 -0.25482
 C68 C 0.16420 0.78784 -0.25255
 C69 C 0.16538 0.74499 -0.20768
 C70 C 0.19556 0.70407 -0.12377
 N71 N 0.14465 0.67584 -0.14023
 C72 C 0.12638 0.70090 -0.19203
 C73 C 0.12307 0.80111 -0.29534
 N74 N 0.14002 0.85158 -0.32399
 C75 C 0.19218 0.86952 -0.29934
 C76 C 0.29581 0.87322 -0.19936
 N77 N 0.32333 0.85708 -0.14838
 C78 C 0.29744 0.80648 -0.12854
 H79 H 0.22134 0.69513 -0.08449
 H80 H 0.08572 0.69095 -0.21526
 H81 H 0.08329 0.77577 -0.30374
 H82 H 0.21581 0.90987 -0.30966
 H83 H 0.30559 0.91266 -0.22472
 H84 H 0.30782 0.78459 -0.08724
 C85 C 0.58655 1.08897 -0.02160
 H86 H 0.58618 1.08956 0.02631
 C87 C 0.62761 1.12324 -0.05244
 H88 H 0.65891 1.14984 -0.02772
 C89 C 0.54824 1.05039 -0.11145
 H90 H 0.51816 1.02088 -0.13418
 C91 C 0.58883 1.08380 -0.14411
 H92 H 0.58881 1.08052 -0.19192
 N93 N 0.54794 1.05352 -0.05128
 C94 C 0.41003 1.01879 0.07892
 H95 H 0.41102 0.97089 0.07886
 C96 C 0.36856 1.04870 0.11355
 H97 H 0.33756 1.02327 0.13973
 C98 C 0.44753 1.10957 0.04205
 H99 H 0.47758 1.13305 0.01320
 C100 C 0.40661 1.14132 0.07594
 H101 H 0.40646 1.18917 0.07369
 Zn102 Zn 0.49909 1.00407 -0.00471
 N103 N 0.44853 1.04939 0.04427
 C104 C 0.55093 0.96003 0.10146
 N105 N 0.55037 0.95673 0.04131
 C106 C 0.58982 0.92244 0.01149
 C107 C 0.63174 0.88923 0.04221
 C108 C 0.59234 0.92771 0.13399
 C109 C 0.41015 0.98494 -0.08801
 C110 C 0.36901 0.95286 -0.12120
 C111 C 0.40935 0.86253 -0.08087
 C112 C 0.45003 0.89637 -0.04869
 N113 N 0.44964 0.95646 -0.05279
 H114 H 0.52013 0.98860 0.12431
 H115 H 0.58918 0.92166 -0.03641
 H116 H 0.66339 0.86315 0.01748
 H117 H 0.59214 0.93079 0.18181
 H118 H 0.40997 1.03283 -0.08937
 H119 H 0.33713 0.97652 -0.14787
 H120 H 0.41000 0.81479 -0.07689
 H121 H 0.48078 0.87461 -0.01934
 C122 C 0.36620 1.11084 0.11210
 C123 C 0.62955 1.12049 -0.11455
 C124 C 0.36788 0.89080 -0.11744
 C125 C 0.63363 0.89188 0.10432
 C126 C -0.03372 0.56077 1.11170
 H127 H 0.00097 0.53664 1.13402
 C128 C -0.06544 0.60091 1.14165
 H129 H -0.05647 0.60686 1.18827
 C130 C -0.08529 0.58000 1.02175
 H131 H -0.09127 0.57314 0.97471
 C132 C -0.12233 0.62357 1.05312
 H133 H -0.15458 0.64732 1.02716
 N134 N -0.04466 0.55060 1.04984
 C135 C 0.11231 0.44117 1.04103
 H136 H 0.13377 0.46530 1.00573
 C137 C 0.14298 0.40121 1.07210
 H138 H 0.18938 0.39543 1.06205
 C139 C 0.02370 0.42187 1.09498
 H140 H -0.02325 0.42824 1.10183
 C141 C 0.05596 0.37858 1.13144
 H142 H 0.03079 0.35480 1.16436
 Zn143 Zn 0.00385 0.49975 1.00429
 N144 N 0.05072 0.45099 1.05335
 C145 C 0.09507 0.58085 0.98323
 N146 N 0.05137 0.54933 0.95644
 C147 C 0.03812 0.55764 0.89839
 C148 C 0.06941 0.59913 0.86489
 C149 C 0.12826 0.62202 0.95126
 C150 C -0.10107 0.43992 0.96835
 C151 C -0.13366 0.39848 0.93588
 C152 C -0.04522 0.37485 0.88062
 C153 C -0.01430 0.41616 0.91478
 N154 N -0.04255 0.44813 0.95716
 H155 H 0.10348 0.57469 1.02997
 H156 H 0.00202 0.53338 0.87834
 H157 H 0.05763 0.60404 0.81881
 H158 H 0.16168 0.64687 0.97483
 H159 H -0.12240 0.46454 1.00342
 H160 H -0.18019 0.39395 0.94588
 H161 H -0.02053 0.34990 0.84817
 H162 H 0.03268 0.42245 0.90786
 C163 C 0.11348 0.36671 1.12015
 C164 C -0.11277 0.63530 1.11104
 C165 C -0.10600 0.36461 0.89111
 C166 C 0.11520 0.63280 0.89111
 C167 C 1.10552 -0.03950 0.55887
 H168 H 1.12620 -0.00396 0.53440
 C169 C 1.13724 -0.07020 0.59824
 H170 H 1.18364 -0.05962 0.60317
 C171 C 1.01776 -0.09433 0.57980
 H172 H 0.97080 -0.10183 0.57408
 C173 C 1.05121 -0.13040 0.62254
 H174 H 1.02688 -0.16363 0.64680
 N175 N 1.04389 -0.05256 0.55003
 C176 C 1.03165 0.10433 0.44159
 H177 H 0.99672 0.12551 0.46654
 C178 C 1.06234 0.13548 0.40159
 H179 H 1.05233 0.18196 0.39646
 C180 C 1.08493 0.01581 0.42025
 H181 H 1.09187 -0.03119 0.42614
 C182 C 1.12105 0.04861 0.37696
 H183 H 1.15374 0.02379 0.35247
 Zn184 Zn 0.99643 -0.00441 0.50083
 N185 N 1.04398 0.04261 0.45054
 C186 C 0.97989 0.08569 0.58339
 N187 N 0.95064 0.04351 0.55198
 C188 C 0.89210 0.03305 0.56094
 C189 C 0.86057 0.06595 0.60284
 C190 C 0.95010 0.12023 0.62506
 C191 C 0.95962 -0.10912 0.44112
 C192 C 0.92732 -0.14123 0.39919
 C193 C 0.87079 -0.05307 0.37821
 C194 C 0.90483 -0.02259 0.41989
 N195 N 0.94793 -0.05088 0.45062
 H196 H 1.02688 0.09198 0.57650
 H197 H 0.86999 -0.00186 0.53669
 H198 H 0.81400 0.05648 0.60814
 H199 H 0.97568 0.15238 0.64960
 H200 H 0.99528 -0.13043 0.46471
 H201 H 0.93791 -0.18749 0.39331
 H202 H 0.83799 -0.02822 0.35404
 H203 H 0.89762 0.02423 0.42704
 C204 C 1.11015 0.10644 0.36636
 C205 C 1.10891 -0.11860 0.63320
 C206 C 0.88226 -0.11335 0.36613
 C207 C 0.88938 0.11041 0.63629
   
